0:0
     RDKit          3D

 41 43  0  0  0  0  0  0  0  0999 V2000
   -7.5710   16.9380  -32.8560 O   0  0  0  0  0  0  0  0  0  0  0  0
   -6.6660   17.7420  -32.5020 C   0  0  0  0  0  0  0  0  0  0  0  0
   -5.2820   17.5740  -33.0540 C   0  0  0  0  0  0  0  0  0  0  0  0
   -4.8490   18.9170  -34.2200 S   0  0  0  0  0  0  0  0  0  0  0  0
   -4.4270   20.1160  -32.9500 C   0  0  0  0  0  0  0  0  0  0  0  0
   -3.9430   21.3760  -33.2970 C   0  0  0  0  0  0  0  0  0  0  0  0
   -3.6310   22.2860  -32.2880 C   0  0  0  0  0  0  0  0  0  0  0  0
   -3.7980   21.9080  -30.9510 C   0  0  0  0  0  0  0  0  0  0  0  0
   -3.4670   22.8330  -29.8560 C   0  0  0  0  0  0  0  0  0  0  0  0
   -3.8010   22.6640  -28.5250 C   0  0  0  0  0  0  0  0  0  0  0  0
   -3.2970   23.7680  -27.8710 C   0  0  0  0  0  0  0  0  0  0  0  0
   -2.6860   24.5400  -28.8390 C   0  0  0  0  0  0  0  0  0  0  0  0
   -2.8040   23.9560  -30.0100 O   0  0  0  0  0  0  0  0  0  0  0  0
   -4.2660   20.6610  -30.6710 N   0  0  0  0  0  0  0  0  0  0  0  0
   -4.5710   19.7950  -31.6380 N   0  0  0  0  0  0  0  0  0  0  0  0
   -6.9860   18.8480  -31.6470 N   0  0  0  0  0  0  0  0  0  0  0  0
   -8.3490   19.3510  -31.4920 C   0  0  0  0  0  0  0  0  0  0  0  0
   -8.5800   20.5860  -32.3710 C   0  0  0  0  0  0  0  0  0  0  0  0
   -7.8850   21.8030  -31.8110 C   0  0  0  0  0  0  0  0  0  0  0  0
   -7.8560   22.0260  -30.4240 C   0  0  0  0  0  0  0  0  0  0  0  0
   -7.1890   23.1400  -29.9040 C   0  0  0  0  0  0  0  0  0  0  0  0
   -6.5390   24.0330  -30.7620 C   0  0  0  0  0  0  0  0  0  0  0  0
   -5.7360   25.4490  -30.1120 Cl  0  0  0  0  0  0  0  0  0  0  0  0
   -6.5450   23.8050  -32.1410 C   0  0  0  0  0  0  0  0  0  0  0  0
   -7.2160   22.6950  -32.6650 C   0  0  0  0  0  0  0  0  0  0  0  0
   -4.5632   17.5796  -32.2213 H   0  0  0  0  0  0  0  0  0  0  0  0
   -5.2450   16.6204  -33.6011 H   0  0  0  0  0  0  0  0  0  0  0  0
   -3.8088   21.6491  -34.3541 H   0  0  0  0  0  0  0  0  0  0  0  0
   -3.2578   23.2896  -32.5399 H   0  0  0  0  0  0  0  0  0  0  0  0
   -4.3539   21.8234  -28.0804 H   0  0  0  0  0  0  0  0  0  0  0  0
   -3.3674   23.9891  -26.7957 H   0  0  0  0  0  0  0  0  0  0  0  0
   -2.1776   25.4984  -28.6574 H   0  0  0  0  0  0  0  0  0  0  0  0
   -6.2210   19.3600  -31.1570 H   0  0  0  0  0  0  0  0  0  0  0  0
   -9.0590   18.5632  -31.7841 H   0  0  0  0  0  0  0  0  0  0  0  0
   -8.5013   19.6349  -30.4402 H   0  0  0  0  0  0  0  0  0  0  0  0
   -8.1901   20.3845  -33.3796 H   0  0  0  0  0  0  0  0  0  0  0  0
   -9.6605   20.7899  -32.4016 H   0  0  0  0  0  0  0  0  0  0  0  0
   -8.3595   21.3222  -29.7449 H   0  0  0  0  0  0  0  0  0  0  0  0
   -7.1756   23.3141  -28.8180 H   0  0  0  0  0  0  0  0  0  0  0  0
   -6.0215   24.4991  -32.8149 H   0  0  0  0  0  0  0  0  0  0  0  0
   -7.2197   22.5200  -33.7510 H   0  0  0  0  0  0  0  0  0  0  0  0
  1  2  2  0
  2  3  1  0
  3  4  1  0
  4  5  1  0
  5  6  2  0
  6  7  1  0
  7  8  2  0
  8  9  1  0
  9 10  2  0
 10 11  1  0
 11 12  2  0
 12 13  1  0
  8 14  1  0
 14 15  2  0
  2 16  1  0
 16 17  1  0
 17 18  1  0
 18 19  1  0
 19 20  2  0
 20 21  1  0
 21 22  2  0
 22 23  1  0
 22 24  1  0
 24 25  2  0
 15  5  1  0
 25 19  1  0
 13  9  1  0
  3 26  1  0
  3 27  1  0
  6 28  1  0
  7 29  1  0
 10 30  1  0
 11 31  1  0
 12 32  1  0
 16 33  1  0
 17 34  1  0
 17 35  1  0
 18 36  1  0
 18 37  1  0
 20 38  1  0
 21 39  1  0
 24 40  1  0
 25 41  1  0
M  END
>  <UniqueID>  (1) 
1

>  <SMILES>  (1) 
O=C(CSc1ccc(-c2ccco2)nn1)NCCc1ccc(Cl)cc1

>  <Energy>  (1) 
59.060645918597864

>  <Genealogy>  (1) 
O=C(CSc1ccc(-c2ccco2)nn1)NCCc1ccc(Cl)cc1 (3D coordinates assigned)
O=C(CSc1ccc(-c2ccco2)nn1)NCCc1ccc(Cl)cc1 (optimized conformer: 59.060645918597864 kcal/mol)

>  <smiles>  (1) 
O=C(CSc1ccc(-c2ccco2)nn1)NCCc1ccc(Cl)cc1

>  <score_type>  (1) 
oracle

>  <origin>  (1) 
adg

>  <m_score__min__energy>  (1) 
-9.8499999999999996

>  <m_primary>  (1) 
energy

$$$$
1:0
     RDKit          3D

 48 49  0  0  0  0  0  0  0  0999 V2000
   -1.1040   27.1720  -25.2720 C   0  0  0  0  0  0  0  0  0  0  0  0
   -1.4390   26.4120  -26.5100 C   0  0  0  0  0  0  0  0  0  0  0  0
   -0.8570   27.0050  -27.7780 C   0  0  0  0  0  0  0  0  0  0  0  0
   -1.1920   26.2640  -28.9170 O   0  0  0  0  0  0  0  0  0  0  0  0
   -1.2020   24.8790  -29.0020 C   0  0  0  0  0  0  0  0  0  0  0  0
   -0.1210   24.1620  -28.4930 C   0  0  0  0  0  0  0  0  0  0  0  0
    0.9370   24.8590  -27.9120 O   0  0  0  0  0  0  0  0  0  0  0  0
    1.4770   24.3300  -26.7130 C   0  0  0  0  0  0  0  0  0  0  0  0
   -0.0910   22.7830  -28.5570 C   0  0  0  0  0  0  0  0  0  0  0  0
   -1.1360   22.0770  -29.1320 C   0  0  0  0  0  0  0  0  0  0  0  0
   -1.1650   20.6200  -29.2330 C   0  0  0  0  0  0  0  0  0  0  0  0
   -1.8060   19.9010  -28.1370 C   0  0  0  0  0  0  0  0  0  0  0  0
   -3.0640   20.3440  -27.7190 C   0  0  0  0  0  0  0  0  0  0  0  0
   -3.7320   19.7460  -26.7160 N   0  0  0  0  0  0  0  0  0  0  0  0
   -3.1900   18.6790  -26.0720 C   0  0  0  0  0  0  0  0  0  0  0  0
   -3.8900   18.1640  -25.1250 N   0  0  0  0  0  0  0  0  0  0  0  0
   -1.9930   18.2480  -26.4600 N   0  0  0  0  0  0  0  0  0  0  0  0
   -1.2930   18.8230  -27.4640 C   0  0  0  0  0  0  0  0  0  0  0  0
   -0.1350   18.3820  -27.8200 N   0  0  0  0  0  0  0  0  0  0  0  0
   -2.1940   22.8130  -29.6300 C   0  0  0  0  0  0  0  0  0  0  0  0
   -2.2510   24.1910  -29.5780 C   0  0  0  0  0  0  0  0  0  0  0  0
   -3.3090   24.9360  -30.0750 O   0  0  0  0  0  0  0  0  0  0  0  0
   -4.6030   24.4940  -30.3170 C   0  0  0  0  0  0  0  0  0  0  0  0
   -5.5100   25.7050  -30.4510 C   0  0  0  0  0  0  0  0  0  0  0  0
   -1.3690   26.5709  -24.3897 H   0  0  0  0  0  0  0  0  0  0  0  0
   -0.0261   27.3907  -25.2564 H   0  0  0  0  0  0  0  0  0  0  0  0
   -1.6698   28.1152  -25.2564 H   0  0  0  0  0  0  0  0  0  0  0  0
   -1.0551   25.3870  -26.4004 H   0  0  0  0  0  0  0  0  0  0  0  0
   -2.5332   26.4473  -26.6170 H   0  0  0  0  0  0  0  0  0  0  0  0
   -1.2407   28.0290  -27.8974 H   0  0  0  0  0  0  0  0  0  0  0  0
    0.2387   26.9935  -27.6811 H   0  0  0  0  0  0  0  0  0  0  0  0
    0.9900   24.8071  -25.8497 H   0  0  0  0  0  0  0  0  0  0  0  0
    1.3015   23.2446  -26.6794 H   0  0  0  0  0  0  0  0  0  0  0  0
    2.5586   24.5278  -26.6794 H   0  0  0  0  0  0  0  0  0  0  0  0
    0.7723   22.2384  -28.1469 H   0  0  0  0  0  0  0  0  0  0  0  0
   -1.6984   20.3604  -30.1593 H   0  0  0  0  0  0  0  0  0  0  0  0
   -0.1108   20.3068  -29.2075 H   0  0  0  0  0  0  0  0  0  0  0  0
   -3.5213   21.2070  -28.2250 H   0  0  0  0  0  0  0  0  0  0  0  0
   -4.6870   20.1020  -26.4170 H   0  0  0  0  0  0  0  0  0  0  0  0
   -4.7410   18.5490  -24.7050 H   0  0  0  0  0  0  0  0  0  0  0  0
   -1.5870   17.4220  -25.9540 H   0  0  0  0  0  0  0  0  0  0  0  0
    0.1860   17.4640  -27.4410 H   0  0  0  0  0  0  0  0  0  0  0  0
   -3.0339   22.2730  -30.0915 H   0  0  0  0  0  0  0  0  0  0  0  0
   -4.6268   23.9081  -31.2476 H   0  0  0  0  0  0  0  0  0  0  0  0
   -4.9448   23.8577  -29.4874 H   0  0  0  0  0  0  0  0  0  0  0  0
   -5.7838   26.0706  -29.4503 H   0  0  0  0  0  0  0  0  0  0  0  0
   -4.9827   26.4991  -30.9999 H   0  0  0  0  0  0  0  0  0  0  0  0
   -6.4204   25.4223  -30.9999 H   0  0  0  0  0  0  0  0  0  0  0  0
  1  2  1  0
  2  3  1  0
  3  4  1  0
  4  5  1  0
  5  6  2  0
  6  7  1  0
  7  8  1  0
  6  9  1  0
  9 10  2  0
 10 11  1  0
 11 12  1  0
 12 13  2  0
 13 14  1  0
 14 15  1  0
 15 16  2  3
 15 17  1  0
 17 18  1  0
 18 19  2  3
 10 20  1  0
 20 21  2  0
 21 22  1  0
 22 23  1  0
 23 24  1  0
 21  5  1  0
 18 12  1  0
  1 25  1  0
  1 26  1  0
  1 27  1  0
  2 28  1  0
  2 29  1  0
  3 30  1  0
  3 31  1  0
  8 32  1  0
  8 33  1  0
  8 34  1  0
  9 35  1  0
 11 36  1  0
 11 37  1  0
 13 38  1  0
 14 39  1  0
 16 40  1  0
 17 41  1  0
 19 42  1  0
 20 43  1  0
 23 44  1  0
 23 45  1  0
 24 46  1  0
 24 47  1  0
 24 48  1  0
M  END
>  <smiles>  (2) 
CCCOc1c(OC)cc(Cc2c[nH]c(=N)[nH]c2=N)cc1OCC

>  <score_type>  (2) 
oracle

>  <origin>  (2) 
adg

>  <m_score__min__energy>  (2) 
-7.5800000000000001

>  <m_primary>  (2) 
energy

$$$$
2:0
     RDKit          3D

 52 54  0  0  0  0  0  0  0  0999 V2000
   -0.0790   21.4080  -35.8660 C   0  0  0  0  0  0  0  0  0  0  0  0
   -0.4660   21.7450  -34.5370 O   0  0  0  0  0  0  0  0  0  0  0  0
   -0.4110   20.8660  -33.4420 C   0  0  0  0  0  0  0  0  0  0  0  0
    0.8030   20.5830  -32.7830 C   0  0  0  0  0  0  0  0  0  0  0  0
    0.8300   19.7120  -31.6930 C   0  0  0  0  0  0  0  0  0  0  0  0
   -0.3460   19.1100  -31.2510 C   0  0  0  0  0  0  0  0  0  0  0  0
   -1.5550   19.3770  -31.8940 C   0  0  0  0  0  0  0  0  0  0  0  0
   -1.6050   20.2600  -32.9910 C   0  0  0  0  0  0  0  0  0  0  0  0
   -2.8500   20.5550  -33.6580 N   0  0  0  0  0  0  0  0  0  0  0  0
   -4.4030   20.0330  -33.0840 S   0  0  0  0  0  0  0  0  0  0  0  0
   -5.3050   19.7880  -34.2610 O   0  0  0  0  0  0  0  0  0  0  0  0
   -4.2230   18.7460  -32.3270 O   0  0  0  0  0  0  0  0  0  0  0  0
   -5.1280   21.2850  -32.0630 C   0  0  0  0  0  0  0  0  0  0  0  0
   -4.3440   22.3880  -31.6940 C   0  0  0  0  0  0  0  0  0  0  0  0
   -4.8540   23.3850  -30.8470 C   0  0  0  0  0  0  0  0  0  0  0  0
   -4.0020   24.5330  -30.4540 C   0  0  0  0  0  0  0  0  0  0  0  0
   -4.3170   25.6920  -30.8280 O   0  0  0  0  0  0  0  0  0  0  0  0
   -2.7940   24.3610  -29.7000 N   0  0  0  0  0  0  0  0  0  0  0  0
   -2.2990   23.1270  -29.1590 C   0  0  0  0  0  0  0  0  0  0  0  0
   -1.0070   22.6540  -29.4570 C   0  0  0  0  0  0  0  0  0  0  0  0
   -0.5640   21.4390  -28.9260 C   0  0  0  0  0  0  0  0  0  0  0  0
   -1.4080   20.6820  -28.1080 C   0  0  0  0  0  0  0  0  0  0  0  0
   -2.7000   21.1360  -27.8280 C   0  0  0  0  0  0  0  0  0  0  0  0
   -3.1460   22.3510  -28.3580 C   0  0  0  0  0  0  0  0  0  0  0  0
   -6.1630   23.2580  -30.3560 C   0  0  0  0  0  0  0  0  0  0  0  0
   -6.9570   22.1760  -30.7350 C   0  0  0  0  0  0  0  0  0  0  0  0
   -6.4560   21.1880  -31.5930 C   0  0  0  0  0  0  0  0  0  0  0  0
   -7.3100   20.1030  -31.9870 N   0  0  0  0  0  0  0  0  0  0  0  0
   -8.5750   20.3760  -32.6670 C   0  0  0  0  0  0  0  0  0  0  0  0
   -6.9750   18.7400  -31.5790 C   0  0  0  0  0  0  0  0  0  0  0  0
    0.7502   20.6859  -35.8345 H   0  0  0  0  0  0  0  0  0  0  0  0
   -0.9340   20.9616  -36.3948 H   0  0  0  0  0  0  0  0  0  0  0  0
    0.2456   22.3163  -36.3948 H   0  0  0  0  0  0  0  0  0  0  0  0
    1.7353   21.0521  -33.1305 H   0  0  0  0  0  0  0  0  0  0  0  0
    1.7810   19.5005  -31.1822 H   0  0  0  0  0  0  0  0  0  0  0  0
   -0.3213   18.4224  -30.3928 H   0  0  0  0  0  0  0  0  0  0  0  0
   -2.4780   18.8936  -31.5413 H   0  0  0  0  0  0  0  0  0  0  0  0
   -2.8510   21.1630  -34.5050 H   0  0  0  0  0  0  0  0  0  0  0  0
   -3.3151   22.4731  -32.0735 H   0  0  0  0  0  0  0  0  0  0  0  0
   -0.3444   23.2418  -30.1092 H   0  0  0  0  0  0  0  0  0  0  0  0
    0.4502   21.0781  -29.1522 H   0  0  0  0  0  0  0  0  0  0  0  0
   -1.0555   19.7297  -27.6850 H   0  0  0  0  0  0  0  0  0  0  0  0
   -3.3667   20.5371  -27.1902 H   0  0  0  0  0  0  0  0  0  0  0  0
   -4.1675   22.6989  -28.1446 H   0  0  0  0  0  0  0  0  0  0  0  0
   -6.5649   24.0165  -29.6682 H   0  0  0  0  0  0  0  0  0  0  0  0
   -7.9869   22.0974  -30.3566 H   0  0  0  0  0  0  0  0  0  0  0  0
   -9.3638   20.5462  -31.9195 H   0  0  0  0  0  0  0  0  0  0  0  0
   -8.4670   21.2715  -33.2966 H   0  0  0  0  0  0  0  0  0  0  0  0
   -8.8460   19.5157  -33.2966 H   0  0  0  0  0  0  0  0  0  0  0  0
   -6.9601   18.6792  -30.4808 H   0  0  0  0  0  0  0  0  0  0  0  0
   -7.7286   18.0432  -31.9746 H   0  0  0  0  0  0  0  0  0  0  0  0
   -5.9842   18.4719  -31.9746 H   0  0  0  0  0  0  0  0  0  0  0  0
  1  2  1  0
  2  3  1  0
  3  4  2  0
  4  5  1  0
  5  6  2  0
  6  7  1  0
  7  8  2  0
  8  9  1  0
  9 10  1  0
 10 11  2  0
 10 12  2  0
 10 13  1  0
 13 14  2  0
 14 15  1  0
 15 16  1  0
 16 17  2  0
 16 18  1  0
 18 19  1  0
 19 20  2  0
 20 21  1  0
 21 22  2  0
 22 23  1  0
 23 24  2  0
 15 25  2  0
 25 26  1  0
 26 27  2  0
 27 28  1  0
 28 29  1  0
 28 30  1  0
  8  3  1  0
 27 13  1  0
 24 19  1  0
  1 31  1  0
  1 32  1  0
  1 33  1  0
  4 34  1  0
  5 35  1  0
  6 36  1  0
  7 37  1  0
  9 38  1  0
 14 39  1  0
 20 40  1  0
 21 41  1  0
 22 42  1  0
 23 43  1  0
 24 44  1  0
 25 45  1  0
 26 46  1  0
 29 47  1  0
 29 48  1  0
 29 49  1  0
 30 50  1  0
 30 51  1  0
 30 52  1  0
M  CHG  1  18  -1
M  END
>  <UniqueID>  (3) 
2

>  <SMILES>  (3) 
COc1ccccc1NS(=O)(=O)c1cc(C(=O)[N-]c2ccccc2)ccc1N(C)C

>  <Energy>  (3) 
67.86153423567845

>  <Genealogy>  (3) 
COc1ccccc1NS(=O)(=O)c1cc(C(=O)[N-]c2ccccc2)ccc1N(C)C (protonated)
COc1ccccc1NS(=O)(=O)c1cc(C(=O)[N-]c2ccccc2)ccc1N(C)C (3D coordinates assigned)
COc1ccccc1NS(=O)(=O)c1cc(C(=O)[N-]c2ccccc2)ccc1N(C)C (optimized conformer: 67.86153423567845 kcal/mol)

>  <smiles>  (3) 
COc1ccccc1NS(=O)(=O)c1cc(C(=O)Nc2ccccc2)ccc1N(C)C

>  <score_type>  (3) 
oracle

>  <origin>  (3) 
adg

>  <m_score__min__energy>  (3) 
-10.48

>  <m_primary>  (3) 
energy

$$$$
3:0
     RDKit          3D

 32 33  0  0  0  0  0  0  0  0999 V2000
   -9.0990   22.2400  -31.8540 C   0  0  0  0  0  0  0  0  0  0  0  0
   -8.0160   21.5390  -31.0450 C   0  0  0  0  0  0  0  0  0  0  0  0
   -6.6820   21.9050  -31.5270 N   0  0  0  0  0  0  0  0  0  0  0  0
   -5.9370   21.2840  -32.4660 C   0  0  0  0  0  0  0  0  0  0  0  0
   -6.3350   20.0400  -33.1940 C   0  0  0  0  0  0  0  0  0  0  0  0
   -4.8160   21.9780  -32.7430 N   0  0  0  0  0  0  0  0  0  0  0  0
   -4.8220   23.0520  -31.9660 N   0  0  0  0  0  0  0  0  0  0  0  0
   -5.9460   22.9940  -31.2260 C   0  0  0  0  0  0  0  0  0  0  0  0
   -6.4080   24.2640  -30.0430 S   0  0  0  0  0  0  0  0  0  0  0  0
   -4.9210   24.0780  -28.9970 C   0  0  0  0  0  0  0  0  0  0  0  0
   -3.6900   24.5250  -29.7270 C   0  0  0  0  0  0  0  0  0  0  0  0
   -3.8230   25.3170  -30.6980 O   0  0  0  0  0  0  0  0  0  0  0  0
   -2.3760   24.0770  -29.3440 N   0  0  0  0  0  0  0  0  0  0  0  0
   -1.9250   22.6940  -29.2430 C   0  0  0  0  0  0  0  0  0  0  0  0
   -0.4590   22.7650  -28.7530 C   0  0  0  0  0  0  0  0  0  0  0  0
   -0.1320   24.1790  -28.6240 N   0  0  0  0  0  0  0  0  0  0  0  0
   -1.2880   24.9030  -28.9790 C   0  0  0  0  0  0  0  0  0  0  0  0
   -1.3350   26.1610  -28.9640 O   0  0  0  0  0  0  0  0  0  0  0  0
   -9.8223   22.7082  -31.1702 H   0  0  0  0  0  0  0  0  0  0  0  0
   -8.6405   23.0131  -32.4881 H   0  0  0  0  0  0  0  0  0  0  0  0
   -9.6165   21.5051  -32.4881 H   0  0  0  0  0  0  0  0  0  0  0  0
   -8.1098   21.8314  -29.9887 H   0  0  0  0  0  0  0  0  0  0  0  0
   -8.1432   20.4521  -31.1563 H   0  0  0  0  0  0  0  0  0  0  0  0
   -6.5865   19.2541  -32.4666 H   0  0  0  0  0  0  0  0  0  0  0  0
   -7.2111   20.2491  -33.8255 H   0  0  0  0  0  0  0  0  0  0  0  0
   -5.5002   19.7017  -33.8255 H   0  0  0  0  0  0  0  0  0  0  0  0
   -5.0416   24.6871  -28.0890 H   0  0  0  0  0  0  0  0  0  0  0  0
   -4.8070   23.0154  -28.7365 H   0  0  0  0  0  0  0  0  0  0  0  0
   -2.5440   22.1407  -28.5214 H   0  0  0  0  0  0  0  0  0  0  0  0
   -2.0055   22.1699  -30.2067 H   0  0  0  0  0  0  0  0  0  0  0  0
   -0.3591   22.2619  -27.7799 H   0  0  0  0  0  0  0  0  0  0  0  0
    0.2200   22.2632  -29.4581 H   0  0  0  0  0  0  0  0  0  0  0  0
  1  2  1  0
  2  3  1  0
  3  4  1  0
  4  5  1  0
  4  6  2  0
  6  7  1  0
  7  8  2  0
  8  9  1  0
  9 10  1  0
 10 11  1  0
 11 12  2  0
 11 13  1  0
 13 14  1  0
 14 15  1  0
 15 16  1  0
 16 17  1  0
 17 18  2  0
  8  3  1  0
 17 13  1  0
  1 19  1  0
  1 20  1  0
  1 21  1  0
  2 22  1  0
  2 23  1  0
  5 24  1  0
  5 25  1  0
  5 26  1  0
 10 27  1  0
 10 28  1  0
 14 29  1  0
 14 30  1  0
 15 31  1  0
 15 32  1  0
M  CHG  1  16  -1
M  END
>  <UniqueID>  (4) 
3

>  <SMILES>  (4) 
CCn1c(C)nnc1SCC(=O)N1CC[N-]C1=O

>  <Energy>  (4) 
70.15801473954537

>  <Genealogy>  (4) 
CCn1c(C)nnc1SCC(=O)N1CC[N-]C1=O (protonated)
CCn1c(C)nnc1SCC(=O)N1CC[N-]C1=O (3D coordinates assigned)
CCn1c(C)nnc1SCC(=O)N1CC[N-]C1=O (nonaromatic ring conformer: 70.15801473954537 kcal/mol)

>  <smiles>  (4) 
CCn1c(C)nnc1SCC(=O)N1CCNC1=O

>  <score_type>  (4) 
oracle

>  <origin>  (4) 
adg

>  <m_score__min__energy>  (4) 
-8.5999999999999996

>  <m_primary>  (4) 
energy

$$$$
4:0
     RDKit          3D

 37 39  0  0  0  0  0  0  0  0999 V2000
   -1.2060   26.4850  -28.9600 O   0  0  0  0  0  0  0  0  0  0  0  0
   -1.2330   25.2830  -28.5840 C   0  0  0  0  0  0  0  0  0  0  0  0
   -2.4010   24.7750  -27.8010 C   0  0  0  0  0  0  0  0  0  0  0  0
   -3.3930   24.0670  -28.7240 C   0  0  0  0  0  0  0  0  0  0  0  0
   -3.6150   24.8630  -29.9330 N   0  0  0  0  0  0  0  0  0  0  0  0
   -5.3100   24.9880  -30.3090 S   0  0  0  0  0  0  0  0  0  0  0  0
   -5.5250   26.1700  -31.2120 O   0  0  0  0  0  0  0  0  0  0  0  0
   -6.0960   25.2040  -29.0460 O   0  0  0  0  0  0  0  0  0  0  0  0
   -5.8670   23.5300  -31.1260 C   0  0  0  0  0  0  0  0  0  0  0  0
   -4.9380   22.7170  -31.8250 C   0  0  0  0  0  0  0  0  0  0  0  0
   -5.3590   21.5300  -32.4550 C   0  0  0  0  0  0  0  0  0  0  0  0
   -6.7060   21.1890  -32.3610 C   0  0  0  0  0  0  0  0  0  0  0  0
   -7.3210   20.1080  -32.8720 N   0  0  0  0  0  0  0  0  0  0  0  0
   -8.6000   20.3060  -32.4620 C   0  0  0  0  0  0  0  0  0  0  0  0
   -9.5340   19.5040  -32.7300 O   0  0  0  0  0  0  0  0  0  0  0  0
   -8.7800   21.4080  -31.7560 O   0  0  0  0  0  0  0  0  0  0  0  0
   -7.6000   21.9670  -31.6880 C   0  0  0  0  0  0  0  0  0  0  0  0
   -7.2260   23.1490  -31.0540 C   0  0  0  0  0  0  0  0  0  0  0  0
   -0.1480   24.3980  -28.8830 N   0  0  0  0  0  0  0  0  0  0  0  0
   -0.2040   22.9640  -28.9120 C   0  0  0  0  0  0  0  0  0  0  0  0
    0.2650   22.1780  -27.8400 C   0  0  0  0  0  0  0  0  0  0  0  0
    0.2150   20.7820  -27.9180 C   0  0  0  0  0  0  0  0  0  0  0  0
   -0.2920   20.1610  -29.0640 C   0  0  0  0  0  0  0  0  0  0  0  0
   -0.3500   18.8090  -29.1350 F   0  0  0  0  0  0  0  0  0  0  0  0
   -0.7400   20.9360  -30.1370 C   0  0  0  0  0  0  0  0  0  0  0  0
   -0.6940   22.3330  -30.0620 C   0  0  0  0  0  0  0  0  0  0  0  0
   -2.0457   24.0662  -27.0385 H   0  0  0  0  0  0  0  0  0  0  0  0
   -2.9056   25.6258  -27.3197 H   0  0  0  0  0  0  0  0  0  0  0  0
   -2.9891   23.0834  -29.0056 H   0  0  0  0  0  0  0  0  0  0  0  0
   -4.3496   23.9426  -28.1953 H   0  0  0  0  0  0  0  0  0  0  0  0
   -3.8806   23.0161  -31.8753 H   0  0  0  0  0  0  0  0  0  0  0  0
   -4.6481   20.8938  -33.0027 H   0  0  0  0  0  0  0  0  0  0  0  0
   -7.9622   23.7644  -30.5162 H   0  0  0  0  0  0  0  0  0  0  0  0
    0.6712   22.6632  -26.9402 H   0  0  0  0  0  0  0  0  0  0  0  0
    0.5751   20.1718  -27.0766 H   0  0  0  0  0  0  0  0  0  0  0  0
   -1.1295   20.4474  -31.0423 H   0  0  0  0  0  0  0  0  0  0  0  0
   -1.0446   22.9383  -30.9109 H   0  0  0  0  0  0  0  0  0  0  0  0
  1  2  2  0
  2  3  1  0
  3  4  1  0
  4  5  1  0
  5  6  1  0
  6  7  2  0
  6  8  2  0
  6  9  1  0
  9 10  2  0
 10 11  1  0
 11 12  2  0
 12 13  1  0
 13 14  1  0
 14 15  2  0
 14 16  1  0
 16 17  1  0
 17 18  2  0
  2 19  1  0
 19 20  1  0
 20 21  2  0
 21 22  1  0
 22 23  2  0
 23 24  1  0
 23 25  1  0
 25 26  2  0
 18  9  1  0
 26 20  1  0
 17 12  1  0
  3 27  1  0
  3 28  1  0
  4 29  1  0
  4 30  1  0
 10 31  1  0
 11 32  1  0
 18 33  1  0
 21 34  1  0
 22 35  1  0
 25 36  1  0
 26 37  1  0
M  CHG  3   5  -1  13  -1  19  -1
M  END
>  <UniqueID>  (5) 
4

>  <SMILES>  (5) 
O=C(CC[N-]S(=O)(=O)c1ccc2[n-]c(=O)oc2c1)[N-]c1ccc(F)cc1

>  <Energy>  (5) 
76.8931006875835

>  <Genealogy>  (5) 
O=C(CC[N-]S(=O)(=O)c1ccc2[n-]c(=O)oc2c1)[N-]c1ccc(F)cc1 (protonated)
O=C(CC[N-]S(=O)(=O)c1ccc2[n-]c(=O)oc2c1)[N-]c1ccc(F)cc1 (3D coordinates assigned)
O=C(CC[N-]S(=O)(=O)c1ccc2[n-]c(=O)oc2c1)[N-]c1ccc(F)cc1 (optimized conformer: 76.8931006875835 kcal/mol)

>  <smiles>  (5) 
O=C(CCNS(=O)(=O)c1ccc2[nH]c(=O)oc2c1)Nc1ccc(F)cc1

>  <score_type>  (5) 
oracle

>  <origin>  (5) 
adg

>  <m_score__min__energy>  (5) 
-10.5

>  <m_primary>  (5) 
energy

$$$$
5:0
     RDKit          3D

 44 46  0  0  0  0  0  0  0  0999 V2000
   -0.0870   27.1060  -26.3900 C   0  0  0  0  0  0  0  0  0  0  0  0
    0.0500   26.1520  -27.4370 O   0  0  0  0  0  0  0  0  0  0  0  0
   -0.9690   25.2820  -27.8530 C   0  0  0  0  0  0  0  0  0  0  0  0
   -0.8430   24.4580  -28.9850 C   0  0  0  0  0  0  0  0  0  0  0  0
   -1.8960   23.6260  -29.3720 C   0  0  0  0  0  0  0  0  0  0  0  0
   -3.1070   23.6230  -28.6560 C   0  0  0  0  0  0  0  0  0  0  0  0
   -4.2780   22.7800  -29.1360 C   0  0  0  0  0  0  0  0  0  0  0  0
   -5.5550   23.5120  -29.3460 N   0  0  0  0  0  0  0  0  0  0  0  0
   -6.6660   22.7100  -29.8910 C   0  0  0  0  0  0  0  0  0  0  0  0
   -6.6920   22.7920  -31.3750 N   0  0  1  0  0  0  0  0  0  0  0  0
   -7.9930   22.3410  -31.9120 C   0  0  0  0  0  0  0  0  0  0  0  0
   -7.9930   20.8520  -32.1650 C   0  0  0  0  0  0  0  0  0  0  0  0
   -6.9420   20.2480  -32.8750 C   0  0  0  0  0  0  0  0  0  0  0  0
   -6.9300   18.8630  -33.0690 C   0  0  0  0  0  0  0  0  0  0  0  0
   -7.9600   18.0720  -32.5510 C   0  0  0  0  0  0  0  0  0  0  0  0
   -9.0040   18.6660  -31.8350 C   0  0  0  0  0  0  0  0  0  0  0  0
   -9.0200   20.0490  -31.6400 C   0  0  0  0  0  0  0  0  0  0  0  0
   -6.3620   24.1740  -31.7740 C   0  0  0  0  0  0  0  0  0  0  0  0
   -5.4310   24.8400  -30.4420 S   0  0  0  0  0  0  0  0  0  0  0  0
   -4.0180   25.1750  -30.8320 O   0  0  0  0  0  0  0  0  0  0  0  0
   -6.1100   26.0500  -29.8680 O   0  0  0  0  0  0  0  0  0  0  0  0
   -3.2060   24.4080  -27.4950 C   0  0  0  0  0  0  0  0  0  0  0  0
   -2.1510   25.2360  -27.1050 C   0  0  0  0  0  0  0  0  0  0  0  0
   -0.0138   26.5965  -25.4178 H   0  0  0  0  0  0  0  0  0  0  0  0
    0.7125   27.8571  -26.4714 H   0  0  0  0  0  0  0  0  0  0  0  0
   -1.0656   27.6018  -26.4714 H   0  0  0  0  0  0  0  0  0  0  0  0
    0.0893   24.4685  -29.5687 H   0  0  0  0  0  0  0  0  0  0  0  0
   -1.7773   22.9670  -30.2447 H   0  0  0  0  0  0  0  0  0  0  0  0
   -3.9922   22.3175  -30.0922 H   0  0  0  0  0  0  0  0  0  0  0  0
   -4.4759   22.0556  -28.3322 H   0  0  0  0  0  0  0  0  0  0  0  0
   -6.5360   21.6602  -29.5892 H   0  0  0  0  0  0  0  0  0  0  0  0
   -7.6144   23.1045  -29.4975 H   0  0  0  0  0  0  0  0  0  0  0  0
   -5.9520   22.1570  -31.7480 H   0  0  0  0  0  0  0  0  0  0  0  0
   -8.7836   22.5816  -31.1860 H   0  0  0  0  0  0  0  0  0  0  0  0
   -8.1732   22.8565  -32.8669 H   0  0  0  0  0  0  0  0  0  0  0  0
   -6.1266   20.8658  -33.2793 H   0  0  0  0  0  0  0  0  0  0  0  0
   -6.1081   18.3948  -33.6305 H   0  0  0  0  0  0  0  0  0  0  0  0
   -7.9491   16.9831  -32.7066 H   0  0  0  0  0  0  0  0  0  0  0  0
   -9.8132   18.0437  -31.4251 H   0  0  0  0  0  0  0  0  0  0  0  0
   -9.8407   20.5121  -31.0726 H   0  0  0  0  0  0  0  0  0  0  0  0
   -5.7651   24.1748  -32.6980 H   0  0  0  0  0  0  0  0  0  0  0  0
   -7.2665   24.7668  -31.9751 H   0  0  0  0  0  0  0  0  0  0  0  0
   -4.1225   24.3702  -26.8878 H   0  0  0  0  0  0  0  0  0  0  0  0
   -2.2499   25.8571  -26.2025 H   0  0  0  0  0  0  0  0  0  0  0  0
  1  2  1  0
  2  3  1  0
  3  4  2  0
  4  5  1  0
  5  6  2  0
  6  7  1  0
  7  8  1  0
  8  9  1  0
  9 10  1  0
 10 11  1  0
 11 12  1  0
 12 13  2  0
 13 14  1  0
 14 15  2  0
 15 16  1  0
 16 17  2  0
 10 18  1  0
 18 19  1  0
 19 20  2  0
 19 21  2  0
  6 22  1  0
 22 23  2  0
 23  3  1  0
 19  8  1  0
 17 12  1  0
  1 24  1  0
  1 25  1  0
  1 26  1  0
  4 27  1  0
  5 28  1  0
  7 29  1  0
  7 30  1  0
  9 31  1  0
  9 32  1  0
 10 33  1  6
 11 34  1  0
 11 35  1  0
 13 36  1  0
 14 37  1  0
 15 38  1  0
 16 39  1  0
 17 40  1  0
 18 41  1  0
 18 42  1  0
 22 43  1  0
 23 44  1  0
M  CHG  1  10   1
M  END
>  <UniqueID>  (6) 
5

>  <SMILES>  (6) 
COc1ccc(CN2C[N@@H+](Cc3ccccc3)CS2(=O)=O)cc1

>  <Energy>  (6) 
54.711667219039235

>  <Genealogy>  (6) 
COc1ccc(CN2C[NH+](Cc3ccccc3)CS2(=O)=O)cc1 (protonated)
COc1ccc(CN2C[N@@H+](Cc3ccccc3)CS2(=O)=O)cc1 (chirality)
COc1ccc(CN2C[N@@H+](Cc3ccccc3)CS2(=O)=O)cc1 (3D coordinates assigned)
COc1ccc(CN2C[N@@H+](Cc3ccccc3)CS2(=O)=O)cc1 (nonaromatic ring conformer: 54.711667219039235 kcal/mol)

>  <smiles>  (6) 
COc1ccc(CN2CN(Cc3ccccc3)CS2(=O)=O)cc1

>  <score_type>  (6) 
oracle

>  <origin>  (6) 
adg

>  <m_score__min__energy>  (6) 
-8.4499999999999993

>  <m_primary>  (6) 
energy

$$$$
6:0
     RDKit          3D

 28 28  0  0  0  0  0  0  0  0999 V2000
   -6.4590   25.2990  -29.7370 C   0  0  0  0  0  0  0  0  0  0  0  0
   -5.0100   25.0910  -30.8240 S   0  0  0  0  0  0  0  0  0  0  0  0
   -5.0580   23.2600  -30.8590 C   0  0  0  0  0  0  0  0  0  0  0  0
   -6.1920   22.7340  -31.7690 C   0  0  1  0  0  0  0  0  0  0  0  0
   -6.4730   23.6920  -32.8480 N   0  0  0  0  0  0  0  0  0  0  0  0
   -5.8290   21.3580  -32.3730 C   0  0  0  0  0  0  0  0  0  0  0  0
   -6.9660   20.3720  -32.2730 C   0  0  0  0  0  0  0  0  0  0  0  0
   -8.2970   20.8220  -32.3290 C   0  0  0  0  0  0  0  0  0  0  0  0
   -9.3530   19.9120  -32.2150 C   0  0  0  0  0  0  0  0  0  0  0  0
   -9.0900   18.5510  -32.0440 C   0  0  0  0  0  0  0  0  0  0  0  0
   -7.7700   18.0960  -31.9860 C   0  0  0  0  0  0  0  0  0  0  0  0
   -6.7110   19.0010  -32.1010 C   0  0  0  0  0  0  0  0  0  0  0  0
   -6.1384   25.2530  -28.6858 H   0  0  0  0  0  0  0  0  0  0  0  0
   -6.9288   26.2738  -29.9347 H   0  0  0  0  0  0  0  0  0  0  0  0
   -7.1840   24.4957  -29.9347 H   0  0  0  0  0  0  0  0  0  0  0  0
   -4.0952   22.8855  -31.2369 H   0  0  0  0  0  0  0  0  0  0  0  0
   -5.2463   22.9027  -29.8358 H   0  0  0  0  0  0  0  0  0  0  0  0
   -7.0922   22.6161  -31.1479 H   0  0  0  0  0  0  0  0  0  0  0  0
   -5.6200   23.8240  -33.4390 H   0  0  0  0  0  0  0  0  0  0  0  0
   -6.7610   24.6170  -32.4530 H   0  0  0  0  0  0  0  0  0  0  0  0
   -7.2330   23.3310  -33.4680 H   0  0  0  0  0  0  0  0  0  0  0  0
   -5.5708   21.4940  -33.4336 H   0  0  0  0  0  0  0  0  0  0  0  0
   -4.9805   20.9528  -31.8022 H   0  0  0  0  0  0  0  0  0  0  0  0
   -8.5084   21.8932  -32.4629 H   0  0  0  0  0  0  0  0  0  0  0  0
  -10.3925   20.2689  -32.2601 H   0  0  0  0  0  0  0  0  0  0  0  0
   -9.9221   17.8371  -31.9550 H   0  0  0  0  0  0  0  0  0  0  0  0
   -7.5641   17.0241  -31.8496 H   0  0  0  0  0  0  0  0  0  0  0  0
   -5.6735   18.6383  -32.0567 H   0  0  0  0  0  0  0  0  0  0  0  0
  1  2  1  0
  2  3  1  0
  3  4  1  0
  4  5  1  0
  4  6  1  0
  6  7  1  0
  7  8  2  0
  8  9  1  0
  9 10  2  0
 10 11  1  0
 11 12  2  0
 12  7  1  0
  1 13  1  0
  1 14  1  0
  1 15  1  0
  3 16  1  0
  3 17  1  0
  4 18  1  1
  5 19  1  0
  5 20  1  0
  5 21  1  0
  6 22  1  0
  6 23  1  0
  8 24  1  0
  9 25  1  0
 10 26  1  0
 11 27  1  0
 12 28  1  0
M  CHG  1   5   1
M  END
>  <UniqueID>  (7) 
6

>  <SMILES>  (7) 
CSC[C@@H]([NH3+])Cc1ccccc1

>  <Energy>  (7) 
19.59928949635614

>  <Genealogy>  (7) 
CSCC([NH3+])Cc1ccccc1 (protonated)
CSC[C@@H]([NH3+])Cc1ccccc1 (chirality)
CSC[C@@H]([NH3+])Cc1ccccc1 (3D coordinates assigned)
CSC[C@@H]([NH3+])Cc1ccccc1 (optimized conformer: 19.59928949635614 kcal/mol)

>  <smiles>  (7) 
CSCC(N)Cc1ccccc1

>  <score_type>  (7) 
oracle

>  <origin>  (7) 
adg

>  <m_score__min__energy>  (7) 
-4.71

>  <m_primary>  (7) 
energy

$$$$
7:0
     RDKit          3D

 39 41  0  0  0  0  0  0  0  0999 V2000
   -2.6580   15.6140  -35.4830 C   0  0  0  0  0  0  0  0  0  0  0  0
   -2.6550   16.6750  -34.5320 O   0  0  0  0  0  0  0  0  0  0  0  0
   -3.7560   17.5020  -34.2660 C   0  0  0  0  0  0  0  0  0  0  0  0
   -3.6140   18.8320  -33.8290 C   0  0  0  0  0  0  0  0  0  0  0  0
   -4.7450   19.6150  -33.5770 C   0  0  0  0  0  0  0  0  0  0  0  0
   -6.0310   19.0840  -33.7600 C   0  0  0  0  0  0  0  0  0  0  0  0
   -7.2480   19.9140  -33.4400 C   0  0  0  0  0  0  0  0  0  0  0  0
   -8.2540   19.1330  -32.5860 C   0  0  0  0  0  0  0  0  0  0  0  0
   -8.2790   19.6350  -31.2050 N   0  0  0  0  0  0  0  0  0  0  0  0
   -8.6340   21.3390  -31.1560 S   0  0  0  0  0  0  0  0  0  0  0  0
   -9.4930   21.6290  -29.9560 O   0  0  0  0  0  0  0  0  0  0  0  0
   -9.3530   21.7700  -32.4020 O   0  0  0  0  0  0  0  0  0  0  0  0
   -7.1220   22.2300  -31.0340 C   0  0  0  0  0  0  0  0  0  0  0  0
   -5.8890   21.5560  -31.2270 C   0  0  0  0  0  0  0  0  0  0  0  0
   -4.6700   22.2550  -31.1440 C   0  0  0  0  0  0  0  0  0  0  0  0
   -4.7240   23.6190  -30.8730 C   0  0  0  0  0  0  0  0  0  0  0  0
   -3.6990   24.4790  -30.7530 N   0  0  0  0  0  0  0  0  0  0  0  0
   -4.2210   25.6760  -30.4970 N   0  0  0  0  0  0  0  0  0  0  0  0
   -5.5710   25.5780  -30.4560 C   0  0  0  0  0  0  0  0  0  0  0  0
   -5.9090   24.2690  -30.6940 C   0  0  0  0  0  0  0  0  0  0  0  0
   -7.1360   23.6160  -30.7680 C   0  0  0  0  0  0  0  0  0  0  0  0
   -6.1710   17.7550  -34.1870 C   0  0  0  0  0  0  0  0  0  0  0  0
   -5.0410   16.9740  -34.4420 C   0  0  0  0  0  0  0  0  0  0  0  0
   -2.6607   14.6488  -34.9555 H   0  0  0  0  0  0  0  0  0  0  0  0
   -3.5559   15.6896  -36.1139 H   0  0  0  0  0  0  0  0  0  0  0  0
   -1.7597   15.6845  -36.1139 H   0  0  0  0  0  0  0  0  0  0  0  0
   -2.6098   19.2573  -33.6851 H   0  0  0  0  0  0  0  0  0  0  0  0
   -4.6259   20.6531  -33.2333 H   0  0  0  0  0  0  0  0  0  0  0  0
   -6.9329   20.8122  -32.8887 H   0  0  0  0  0  0  0  0  0  0  0  0
   -7.7378   20.1864  -34.3865 H   0  0  0  0  0  0  0  0  0  0  0  0
   -9.2569   19.2397  -33.0251 H   0  0  0  0  0  0  0  0  0  0  0  0
   -7.9499   18.0760  -32.5677 H   0  0  0  0  0  0  0  0  0  0  0  0
   -9.0600   19.1570  -30.6990 H   0  0  0  0  0  0  0  0  0  0  0  0
   -5.8853   20.4775  -31.4435 H   0  0  0  0  0  0  0  0  0  0  0  0
   -3.7082   21.7410  -31.2883 H   0  0  0  0  0  0  0  0  0  0  0  0
   -6.2735   26.4027  -30.2654 H   0  0  0  0  0  0  0  0  0  0  0  0
   -8.0813   24.1599  -30.6245 H   0  0  0  0  0  0  0  0  0  0  0  0
   -7.1749   17.3260  -34.3216 H   0  0  0  0  0  0  0  0  0  0  0  0
   -5.1617   15.9355  -34.7839 H   0  0  0  0  0  0  0  0  0  0  0  0
  1  2  1  0
  2  3  1  0
  3  4  2  0
  4  5  1  0
  5  6  2  0
  6  7  1  0
  7  8  1  0
  8  9  1  0
  9 10  1  0
 10 11  2  0
 10 12  2  0
 10 13  1  0
 13 14  2  0
 14 15  1  0
 15 16  2  0
 16 17  1  0
 17 18  1  0
 18 19  2  0
 19 20  1  0
 20 21  2  0
  6 22  1  0
 22 23  2  0
 23  3  1  0
 21 13  1  0
 20 16  1  0
  1 24  1  0
  1 25  1  0
  1 26  1  0
  4 27  1  0
  5 28  1  0
  7 29  1  0
  7 30  1  0
  8 31  1  0
  8 32  1  0
  9 33  1  0
 14 34  1  0
 15 35  1  0
 19 36  1  0
 21 37  1  0
 22 38  1  0
 23 39  1  0
M  CHG  1  17  -1
M  END
>  <UniqueID>  (8) 
7

>  <SMILES>  (8) 
COc1ccc(CCNS(=O)(=O)c2ccc3[n-]ncc3c2)cc1

>  <Energy>  (8) 
74.67338003844927

>  <Genealogy>  (8) 
COc1ccc(CCNS(=O)(=O)c2ccc3[n-]ncc3c2)cc1 (protonated)
COc1ccc(CCNS(=O)(=O)c2ccc3[n-]ncc3c2)cc1 (3D coordinates assigned)
COc1ccc(CCNS(=O)(=O)c2ccc3[n-]ncc3c2)cc1 (optimized conformer: 74.67338003844927 kcal/mol)

>  <smiles>  (8) 
COc1ccc(CCNS(=O)(=O)c2ccc3[nH]ncc3c2)cc1

>  <score_type>  (8) 
oracle

>  <origin>  (8) 
adg

>  <m_score__min__energy>  (8) 
-10.199999999999999

>  <m_primary>  (8) 
energy

$$$$
8:0
     RDKit          3D

 38 40  0  0  1  0  0  0  0  0999 V2000
   -0.9910   26.2960  -28.2260 C   0  0  0  0  0  0  0  0  0  0  0  0
   -2.0150   25.6320  -28.9700 O   0  0  0  0  0  0  0  0  0  0  0  0
   -2.4470   24.3600  -28.5880 C   0  0  0  0  0  0  0  0  0  0  0  0
   -1.4990   23.5010  -28.0180 C   0  0  0  0  0  0  0  0  0  0  0  0
   -1.8500   22.2170  -27.6090 C   0  0  0  0  0  0  0  0  0  0  0  0
   -3.1470   21.8260  -27.7820 C   0  0  0  0  0  0  0  0  0  0  0  0
   -4.0850   22.6660  -28.3420 C   0  0  0  0  0  0  0  0  0  0  0  0
   -3.7380   23.9580  -28.7560 C   0  0  0  0  0  0  0  0  0  0  0  0
   -4.7860   24.8020  -29.4220 C   0  0  0  0  0  0  0  0  0  0  0  0
   -4.5460   24.5950  -30.8440 N   0  0  0  0  0  0  0  0  0  0  0  0
   -4.6440   23.4360  -31.3550 C   0  0  0  0  0  0  0  0  0  0  0  0
   -5.8230   22.7310  -31.4780 C   0  0  0  0  0  0  0  0  0  0  0  0
   -5.7810   21.4460  -31.9720 C   0  0  0  0  0  0  0  0  0  0  0  0
   -7.0460   20.6840  -32.0980 C   0  0  0  0  0  0  0  0  0  0  0  0
   -8.2780   21.3130  -31.9490 C   0  0  0  0  0  0  0  0  0  0  0  0
   -9.4720   20.6230  -32.0730 C   0  0  0  0  0  0  0  0  0  0  0  0
   -9.4630   19.2870  -32.3510 C   0  0  0  0  0  0  0  0  0  0  0  0
   -8.2040   18.6910  -32.4950 C   0  0  0  0  0  0  0  0  0  0  0  0
   -7.0630   19.3870  -32.3680 N   0  0  0  0  0  0  0  0  0  0  0  0
   -4.5950   20.9000  -32.3260 N   0  0  0  0  0  0  0  0  0  0  0  0
   -3.4350   21.6010  -32.2040 C   0  0  0  0  0  0  0  0  0  0  0  0
   -3.4610   22.8500  -31.7280 N   0  0  0  0  0  0  0  0  0  0  0  0
   -1.1813   26.1726  -27.1496 H   0  0  0  0  0  0  0  0  0  0  0  0
   -0.0132   25.8596  -28.4779 H   0  0  0  0  0  0  0  0  0  0  0  0
   -0.9905   27.3668  -28.4779 H   0  0  0  0  0  0  0  0  0  0  0  0
   -0.4621   23.8456  -27.8916 H   0  0  0  0  0  0  0  0  0  0  0  0
   -1.1073   21.5402  -27.1615 H   0  0  0  0  0  0  0  0  0  0  0  0
   -3.4501   20.8166  -27.4669 H   0  0  0  0  0  0  0  0  0  0  0  0
   -5.1208   22.3168  -28.4655 H   0  0  0  0  0  0  0  0  0  0  0  0
   -5.7955   24.4667  -29.1420 H   0  0  0  0  0  0  0  0  0  0  0  0
   -4.7283   25.8611  -29.1303 H   0  0  0  0  0  0  0  0  0  0  0  0
   -6.7806   23.1872  -31.1865 H   0  0  0  0  0  0  0  0  0  0  0  0
   -8.3043   22.3899  -31.7262 H   0  0  0  0  0  0  0  0  0  0  0  0
  -10.4282   21.1520  -31.9474 H   0  0  0  0  0  0  0  0  0  0  0  0
  -10.3936   18.7100  -32.4562 H   0  0  0  0  0  0  0  0  0  0  0  0
   -8.1480   17.6157  -32.7199 H   0  0  0  0  0  0  0  0  0  0  0  0
   -4.5020   19.9460  -32.6910 H   0  0  0  0  0  0  0  0  0  0  0  0
   -2.4792   21.1415  -32.4960 H   0  0  0  0  0  0  0  0  0  0  0  0
  1  2  1  0
  2  3  1  0
  3  4  2  0
  4  5  1  0
  5  6  2  0
  6  7  1  0
  7  8  2  0
  8  9  1  0
  9 10  1  0
 10 11  2  0
 11 12  1  0
 12 13  2  0
 13 14  1  0
 14 15  2  0
 15 16  1  0
 16 17  2  0
 17 18  1  0
 18 19  2  0
 13 20  1  0
 20 21  1  0
 21 22  2  0
  8  3  1  0
 22 11  1  0
 19 14  1  0
  1 23  1  0
  1 24  1  0
  1 25  1  0
  4 26  1  0
  5 27  1  0
  6 28  1  0
  7 29  1  0
  9 30  1  0
  9 31  1  0
 12 32  1  0
 15 33  1  0
 16 34  1  0
 17 35  1  0
 18 36  1  0
 20 37  1  0
 21 38  1  0
M  END
>  <smiles>  (9) 
COc1ccccc1CN=c1cc(-c2ccccn2)[nH]cn1

>  <score_type>  (9) 
oracle

>  <origin>  (9) 
adg

>  <m_score__min__energy>  (9) 
-7.8499999999999996

>  <m_primary>  (9) 
energy

$$$$
9:0
     RDKit          3D

 41 42  0  0  0  0  0  0  0  0999 V2000
   -7.8550   18.9790  -31.5870 C   0  0  0  0  0  0  0  0  0  0  0  0
   -7.3270   20.3290  -31.8570 N   0  0  2  0  0  0  0  0  0  0  0  0
   -8.3490   21.3630  -31.5220 C   0  0  0  0  0  0  0  0  0  0  0  0
   -7.7600   22.4890  -30.6540 C   0  0  0  0  0  0  0  0  0  0  0  0
   -6.3440   22.7300  -31.0060 N   0  0  0  0  0  0  0  0  0  0  0  0
   -6.1650   23.9160  -31.8840 C   0  0  0  0  0  0  0  0  0  0  0  0
   -5.5400   25.1110  -31.1470 C   0  0  0  0  0  0  0  0  0  0  0  0
   -4.2340   24.7730  -30.5520 N   0  0  0  0  0  0  0  0  0  0  0  0
   -4.1240   23.3710  -30.1080 C   0  0  0  0  0  0  0  0  0  0  0  0
   -5.4940   22.7560  -29.7970 C   0  0  0  0  0  0  0  0  0  0  0  0
   -6.8940   20.4240  -33.2720 C   0  0  0  0  0  0  0  0  0  0  0  0
   -5.4160   20.1350  -33.4260 C   0  0  0  0  0  0  0  0  0  0  0  0
   -4.9770   18.8970  -33.9240 C   0  0  0  0  0  0  0  0  0  0  0  0
   -3.6100   18.6480  -34.0900 C   0  0  0  0  0  0  0  0  0  0  0  0
   -2.6740   19.6310  -33.7580 C   0  0  0  0  0  0  0  0  0  0  0  0
   -3.1020   20.8630  -33.2570 C   0  0  0  0  0  0  0  0  0  0  0  0
   -4.4670   21.1150  -33.0890 C   0  0  0  0  0  0  0  0  0  0  0  0
   -7.9171   18.8202  -30.5003 H   0  0  0  0  0  0  0  0  0  0  0  0
   -8.8573   18.8820  -32.0296 H   0  0  0  0  0  0  0  0  0  0  0  0
   -7.1844   18.2277  -32.0296 H   0  0  0  0  0  0  0  0  0  0  0  0
   -6.4790   20.4390  -31.2520 H   0  0  0  0  0  0  0  0  0  0  0  0
   -8.7346   21.7980  -32.4558 H   0  0  0  0  0  0  0  0  0  0  0  0
   -9.1532   20.8762  -30.9508 H   0  0  0  0  0  0  0  0  0  0  0  0
   -8.3358   23.4116  -30.8190 H   0  0  0  0  0  0  0  0  0  0  0  0
   -7.8170   22.1892  -29.5972 H   0  0  0  0  0  0  0  0  0  0  0  0
   -5.5093   23.6375  -32.7222 H   0  0  0  0  0  0  0  0  0  0  0  0
   -7.1617   24.2249  -32.2322 H   0  0  0  0  0  0  0  0  0  0  0  0
   -5.4016   25.9357  -31.8616 H   0  0  0  0  0  0  0  0  0  0  0  0
   -6.2196   25.3998  -30.3317 H   0  0  0  0  0  0  0  0  0  0  0  0
   -3.4880   24.9480  -31.2660 H   0  0  0  0  0  0  0  0  0  0  0  0
   -3.6437   22.7833  -30.9042 H   0  0  0  0  0  0  0  0  0  0  0  0
   -3.5270   23.3537  -29.1843 H   0  0  0  0  0  0  0  0  0  0  0  0
   -5.3534   21.7276  -29.4327 H   0  0  0  0  0  0  0  0  0  0  0  0
   -5.9900   23.3692  -29.0302 H   0  0  0  0  0  0  0  0  0  0  0  0
   -7.4636   19.6963  -33.8687 H   0  0  0  0  0  0  0  0  0  0  0  0
   -7.0806   21.4509  -33.6194 H   0  0  0  0  0  0  0  0  0  0  0  0
   -5.7108   18.1201  -34.1846 H   0  0  0  0  0  0  0  0  0  0  0  0
   -3.2719   17.6775  -34.4822 H   0  0  0  0  0  0  0  0  0  0  0  0
   -1.5999   19.4348  -33.8911 H   0  0  0  0  0  0  0  0  0  0  0  0
   -2.3643   21.6356  -32.9944 H   0  0  0  0  0  0  0  0  0  0  0  0
   -4.7996   22.0851  -32.6911 H   0  0  0  0  0  0  0  0  0  0  0  0
  1  2  1  0
  2  3  1  0
  3  4  1  0
  4  5  1  0
  5  6  1  0
  6  7  1  0
  7  8  1  0
  8  9  1  0
  9 10  1  0
  2 11  1  0
 11 12  1  0
 12 13  2  0
 13 14  1  0
 14 15  2  0
 15 16  1  0
 16 17  2  0
 10  5  1  0
 17 12  1  0
  1 18  1  0
  1 19  1  0
  1 20  1  0
  2 21  1  1
  3 22  1  0
  3 23  1  0
  4 24  1  0
  4 25  1  0
  6 26  1  0
  6 27  1  0
  7 28  1  0
  7 29  1  0
  8 30  1  0
  9 31  1  0
  9 32  1  0
 10 33  1  0
 10 34  1  0
 11 35  1  0
 11 36  1  0
 13 37  1  0
 14 38  1  0
 15 39  1  0
 16 40  1  0
 17 41  1  0
M  CHG  1   2   1
M  END
>  <UniqueID>  (10) 
8

>  <SMILES>  (10) 
C[N@H+](CCN1CCNCC1)Cc1ccccc1

>  <Energy>  (10) 
50.88003522225041

>  <Genealogy>  (10) 
C[NH+](CCN1CCNCC1)Cc1ccccc1 (protonated)
C[N@H+](CCN1CCNCC1)Cc1ccccc1 (chirality)
C[N@H+](CCN1CCNCC1)Cc1ccccc1 (3D coordinates assigned)
C[N@H+](CCN1CCNCC1)Cc1ccccc1 (nonaromatic ring conformer: 50.88003522225041 kcal/mol)

>  <smiles>  (10) 
CN(CCN1CCNCC1)Cc1ccccc1

>  <score_type>  (10) 
oracle

>  <origin>  (10) 
adg

>  <m_score__min__energy>  (10) 
-6.79

>  <m_primary>  (10) 
energy

$$$$
10:0
     RDKit          3D

 31 32  0  0  0  0  0  0  0  0999 V2000
   -9.5517   23.0237  -32.3324 H   0  0  0  0  0  0  0  0  0  0  0  0
   -8.9030   22.3030  -31.8130 C   0  0  0  0  0  0  0  0  0  0  0  0
   -7.0560   23.8180  -31.4350 N   0  0  0  0  0  0  0  0  0  0  0  0
   -5.7150   24.0150  -31.0570 N   0  0  0  0  0  0  0  0  0  0  0  0
   -4.6380   23.2120  -31.2140 C   0  0  0  0  0  0  0  0  0  0  0  0
   -4.6320   21.8340  -31.8110 C   0  0  0  0  0  0  0  0  0  0  0  0
   -5.6660   21.5348  -32.0378 H   0  0  0  0  0  0  0  0  0  0  0  0
   -4.1818   21.1385  -31.0874 H   0  0  0  0  0  0  0  0  0  0  0  0
   -3.8090   21.8030  -33.0960 C   0  0  0  0  0  0  0  0  0  0  0  0
   -2.7388   21.7627  -32.8451 H   0  0  0  0  0  0  0  0  0  0  0  0
   -4.0814   20.9145  -33.6845 H   0  0  0  0  0  0  0  0  0  0  0  0
   -4.0137   22.7095  -33.6845 H   0  0  0  0  0  0  0  0  0  0  0  0
   -3.5080   23.8520  -30.8420 N   0  0  0  0  0  0  0  0  0  0  0  0
   -3.8490   25.0780  -30.4660 N   0  0  0  0  0  0  0  0  0  0  0  0
   -5.1820   25.1640  -30.6200 C   0  0  0  0  0  0  0  0  0  0  0  0
   -5.8480   26.2070  -30.3840 O   0  0  0  0  0  0  0  0  0  0  0  0
   -9.1770   20.9940  -31.9240 C   0  0  0  0  0  0  0  0  0  0  0  0
  -10.2121   20.6640  -31.7516 H   0  0  0  0  0  0  0  0  0  0  0  0
   -7.7690   22.8140  -31.0240 C   0  0  0  0  0  0  0  0  0  0  0  0
   -7.5209   22.3344  -30.0656 H   0  0  0  0  0  0  0  0  0  0  0  0
   -8.1630   19.9670  -32.2660 C   0  0  0  0  0  0  0  0  0  0  0  0
   -8.1170   18.7050  -31.6370 C   0  0  0  0  0  0  0  0  0  0  0  0
   -8.8483   18.4575  -30.8535 H   0  0  0  0  0  0  0  0  0  0  0  0
   -7.1470   17.7670  -32.0040 C   0  0  0  0  0  0  0  0  0  0  0  0
   -7.1135   16.7882  -31.5032 H   0  0  0  0  0  0  0  0  0  0  0  0
   -6.2210   18.0690  -33.0040 C   0  0  0  0  0  0  0  0  0  0  0  0
   -5.4565   17.3306  -33.2875 H   0  0  0  0  0  0  0  0  0  0  0  0
   -6.2660   19.3090  -33.6440 C   0  0  0  0  0  0  0  0  0  0  0  0
   -5.5386   19.5454  -34.4345 H   0  0  0  0  0  0  0  0  0  0  0  0
   -7.2340   20.2510  -33.2820 C   0  0  0  0  0  0  0  0  0  0  0  0
   -7.2688   21.2225  -33.7967 H   0  0  0  0  0  0  0  0  0  0  0  0
  1  2  1  0
  2  3  2  0
  3  4  1  0
  4  5  1  0
  5  6  1  0
  6  7  1  0
  6  8  1  0
  6  9  1  0
  9 10  1  0
  9 11  1  0
  9 12  1  0
  5 13  2  0
 13 14  1  0
 14 15  1  0
 15 16  2  0
  2 17  1  0
 17 18  1  0
 17 19  2  0
 19 20  1  0
 19 21  1  0
 21 22  2  0
 22 23  1  0
 22 24  1  0
 24 25  1  0
 24 26  2  0
 26 27  1  0
 26 28  1  0
 28 29  1  0
 28 30  2  0
 30 31  1  0
 15  4  1  0
 30 21  1  0
M  CHG  1  14  -1
M  END
>  <UniqueID>  (11) 
9

>  <SMILES>  (11) 
CCc1n[n-]c(=O)n1/N=C/C=C/c1ccccc1

>  <Energy>  (11) 
72.02188284858904

>  <Genealogy>  (11) 
CCc1n[n-]c(=O)n1N=CC=Cc1ccccc1 (protonated)
CCc1n[n-]c(=O)n1/N=C/C=C/c1ccccc1 (cis-trans isomerization)
CCc1n[n-]c(=O)n1/N=C/C=C/c1ccccc1 (3D coordinates assigned)
CCc1n[n-]c(=O)n1/N=C/C=C/c1ccccc1 (optimized conformer: 72.02188284858904 kcal/mol)

>  <smiles>  (11) 
CCc1n[nH]c(=O)n1N=CC=Cc1ccccc1

>  <score_type>  (11) 
oracle

>  <origin>  (11) 
adg

>  <m_score__min__energy>  (11) 
-8.75

>  <m_primary>  (11) 
energy

$$$$
11:0
     RDKit          3D

 50 54  0  0  0  0  0  0  0  0999 V2000
   -1.4730   19.8050  -31.6690 C   0  0  0  0  0  0  0  0  0  0  0  0
   -2.1640   19.9530  -32.6450 C   0  0  0  0  0  0  0  0  0  0  0  0
   -3.0040   20.1280  -33.8340 C   0  0  0  0  0  0  0  0  0  0  0  0
   -4.1230   19.1720  -33.8120 N   0  0  0  0  0  0  0  0  0  0  0  0
   -3.9300   17.8240  -34.0390 C   0  0  0  0  0  0  0  0  0  0  0  0
   -2.7730   17.3980  -34.3140 O   0  0  0  0  0  0  0  0  0  0  0  0
   -4.9870   16.9310  -33.9570 N   0  0  0  0  0  0  0  0  0  0  0  0
   -4.7570   15.5000  -34.2170 C   0  0  0  0  0  0  0  0  0  0  0  0
   -6.2580   17.3840  -33.6850 C   0  0  0  0  0  0  0  0  0  0  0  0
   -7.2390   16.5920  -33.6040 O   0  0  0  0  0  0  0  0  0  0  0  0
   -6.4450   18.7430  -33.5000 C   0  0  0  0  0  0  0  0  0  0  0  0
   -5.3890   19.5960  -33.5400 C   0  0  0  0  0  0  0  0  0  0  0  0
   -5.7560   20.7980  -33.0480 N   0  0  0  0  0  0  0  0  0  0  0  0
   -7.0760   20.6400  -32.7840 C   0  0  0  0  0  0  0  0  0  0  0  0
   -7.5170   19.4120  -33.0460 N   0  0  0  0  0  0  0  0  0  0  0  0
   -8.5640   19.0320  -32.1200 C   0  0  0  0  0  0  0  0  0  0  0  0
   -8.7410   20.2970  -31.2420 C   0  0  0  0  0  0  0  0  0  0  0  0
   -7.7900   21.3020  -31.7510 N   0  0  0  0  0  0  0  0  0  0  0  0
   -8.1850   22.7160  -31.8140 C   0  0  0  0  0  0  0  0  0  0  0  0
   -7.0410   23.6590  -32.2270 C   0  0  0  0  0  0  0  0  0  0  0  0
   -6.2390   24.1950  -31.0660 C   0  0  0  0  0  0  0  0  0  0  0  0
   -6.6520   25.1100  -30.0950 C   0  0  0  0  0  0  0  0  0  0  0  0
   -5.6810   25.2950  -29.1730 N   0  0  0  0  0  0  0  0  0  0  0  0
   -4.6680   24.4890  -29.5330 C   0  0  0  0  0  0  0  0  0  0  0  0
   -3.4460   24.3290  -28.8800 C   0  0  0  0  0  0  0  0  0  0  0  0
   -2.5230   23.4170  -29.4260 C   0  0  0  0  0  0  0  0  0  0  0  0
   -2.8430   22.6900  -30.5930 C   0  0  0  0  0  0  0  0  0  0  0  0
   -4.0850   22.8680  -31.2270 C   0  0  0  0  0  0  0  0  0  0  0  0
   -4.9770   23.7880  -30.6700 C   0  0  0  0  0  0  0  0  0  0  0  0
   -0.8422   19.6699  -30.7780 H   0  0  0  0  0  0  0  0  0  0  0  0
   -3.4024   21.1532  -33.8495 H   0  0  0  0  0  0  0  0  0  0  0  0
   -2.3957   19.9474  -34.7325 H   0  0  0  0  0  0  0  0  0  0  0  0
   -4.6707   14.9629  -33.2609 H   0  0  0  0  0  0  0  0  0  0  0  0
   -5.6010   15.0915  -34.7921 H   0  0  0  0  0  0  0  0  0  0  0  0
   -3.8275   15.3766  -34.7921 H   0  0  0  0  0  0  0  0  0  0  0  0
   -5.1250   21.5500  -32.7000 H   0  0  0  0  0  0  0  0  0  0  0  0
   -9.4943   18.7904  -32.6549 H   0  0  0  0  0  0  0  0  0  0  0  0
   -8.3160   18.1339  -31.5353 H   0  0  0  0  0  0  0  0  0  0  0  0
   -9.7711   20.6742  -31.3237 H   0  0  0  0  0  0  0  0  0  0  0  0
   -8.5505   20.0729  -30.1820 H   0  0  0  0  0  0  0  0  0  0  0  0
   -8.9999   22.8169  -32.5460 H   0  0  0  0  0  0  0  0  0  0  0  0
   -8.4939   23.0095  -30.7999 H   0  0  0  0  0  0  0  0  0  0  0  0
   -6.3606   23.1071  -32.8921 H   0  0  0  0  0  0  0  0  0  0  0  0
   -7.5049   24.5255  -32.7209 H   0  0  0  0  0  0  0  0  0  0  0  0
   -7.6314   25.6106  -30.0823 H   0  0  0  0  0  0  0  0  0  0  0  0
   -5.7200   25.9250  -28.3410 H   0  0  0  0  0  0  0  0  0  0  0  0
   -3.2110   24.8971  -27.9678 H   0  0  0  0  0  0  0  0  0  0  0  0
   -1.5469   23.2700  -28.9405 H   0  0  0  0  0  0  0  0  0  0  0  0
   -2.1147   21.9786  -31.0096 H   0  0  0  0  0  0  0  0  0  0  0  0
   -4.3463   22.3011  -32.1327 H   0  0  0  0  0  0  0  0  0  0  0  0
  1  2  3  0
  2  3  1  0
  3  4  1  0
  4  5  1  0
  5  6  2  0
  5  7  1  0
  7  8  1  0
  7  9  1  0
  9 10  2  0
  9 11  1  0
 11 12  2  0
 12 13  1  0
 13 14  2  0
 14 15  1  0
 15 16  1  0
 16 17  1  0
 17 18  1  0
 18 19  1  0
 19 20  1  0
 20 21  1  0
 21 22  2  0
 22 23  1  0
 23 24  1  0
 24 25  2  0
 25 26  1  0
 26 27  2  0
 27 28  1  0
 28 29  2  0
 12  4  1  0
 18 14  1  0
 29 21  1  0
 15 11  1  0
 29 24  1  0
  1 30  1  0
  3 31  1  0
  3 32  1  0
  8 33  1  0
  8 34  1  0
  8 35  1  0
 13 36  1  0
 16 37  1  0
 16 38  1  0
 17 39  1  0
 17 40  1  0
 19 41  1  0
 19 42  1  0
 20 43  1  0
 20 44  1  0
 22 45  1  0
 23 46  1  0
 25 47  1  0
 26 48  1  0
 27 49  1  0
 28 50  1  0
M  CHG  1  13   1
M  END
>  <UniqueID>  (12) 
10

>  <SMILES>  (12) 
C#CCn1c(=O)n(C)c(=O)c2c1[nH+]c1n2CCN1CCc1c[nH]c2ccccc12

>  <Energy>  (12) 
162.52428957466736

>  <Genealogy>  (12) 
C#CCn1c(=O)n(C)c(=O)c2c1[nH+]c1n2CCN1CCc1c[nH]c2ccccc12 (protonated)
C#CCn1c(=O)n(C)c(=O)c2c1[nH+]c1n2CCN1CCc1c[nH]c2ccccc12 (3D coordinates assigned)
C#CCn1c(=O)n(C)c(=O)c2c1[nH+]c1n2CCN1CCc1c[nH]c2ccccc12 (nonaromatic ring conformer: 162.52428957466736 kcal/mol)

>  <smiles>  (12) 
C#CCn1c(=O)n(C)c(=O)c2c1nc1n2CCN1CCc1c[nH]c2ccccc12

>  <score_type>  (12) 
oracle

>  <origin>  (12) 
adg

>  <m_score__min__energy>  (12) 
-8.6400000000000006

>  <m_primary>  (12) 
energy

$$$$
12:0
     RDKit          3D

 62 64  0  0  0  0  0  0  0  0999 V2000
   -7.1060   23.4240  -32.3110 C   0  0  0  0  0  0  0  0  0  0  0  0
   -8.4070   22.7410  -31.8980 C   0  0  0  0  0  0  0  0  0  0  0  0
   -8.1290   21.4910  -31.0480 C   0  0  0  0  0  0  0  0  0  0  0  0
   -8.6490   20.2030  -31.7040 C   0  0  0  0  0  0  0  0  0  0  0  0
   -7.5580   19.4430  -32.4780 C   0  0  0  0  0  0  0  0  0  0  0  0
   -6.1490   20.0000  -32.1820 C   0  0  0  0  0  0  0  0  0  0  0  0
   -5.3680   20.3970  -33.4500 C   0  0  0  0  0  0  0  0  0  0  0  0
   -4.1050   21.2350  -33.1880 C   0  0  0  0  0  0  0  0  0  0  0  0
   -3.9210   21.5880  -31.7070 C   0  0  0  0  0  0  0  0  0  0  0  0
   -3.5870   23.0000  -31.5680 N   0  0  0  0  0  0  0  0  0  0  0  0
   -4.1820   23.8610  -30.5910 C   0  0  0  0  0  0  0  0  0  0  0  0
   -3.9420   25.1000  -30.5950 O   0  0  0  0  0  0  0  0  0  0  0  0
   -5.1370   23.2920  -29.5880 C   0  0  0  0  0  0  0  0  0  0  0  0
   -4.5010   23.2100  -28.2570 N   0  0  0  0  0  0  0  0  0  0  0  0
   -4.3880   24.5490  -27.6150 C   0  0  0  0  0  0  0  0  0  0  0  0
   -3.1690   24.6660  -26.6930 C   0  0  0  0  0  0  0  0  0  0  0  0
   -1.8640   24.4930  -27.5070 C   0  0  0  0  0  0  0  0  0  0  0  0
   -2.0040   23.3480  -28.5560 C   0  0  0  0  0  0  0  0  0  0  0  0
   -3.2280   22.4470  -28.3060 C   0  0  0  0  0  0  0  0  0  0  0  0
   -1.6460   25.7110  -28.2420 O   0  0  0  0  0  0  0  0  0  0  0  0
   -0.8590   26.7770  -27.7930 C   0  0  0  0  0  0  0  0  0  0  0  0
    0.0040   26.6110  -26.7950 C   0  0  0  0  0  0  0  0  0  0  0  0
    0.1560   25.2890  -26.1740 C   0  0  0  0  0  0  0  0  0  0  0  0
    1.1660   25.0730  -25.2290 C   0  0  0  0  0  0  0  0  0  0  0  0
    1.3010   23.8160  -24.6420 C   0  0  0  0  0  0  0  0  0  0  0  0
    0.4490   22.8140  -24.9780 N   0  0  0  0  0  0  0  0  0  0  0  0
   -0.5430   22.9920  -25.8900 C   0  0  0  0  0  0  0  0  0  0  0  0
   -0.7080   24.2350  -26.5340 C   0  0  0  0  0  0  0  0  0  0  0  0
   -6.5450   23.7185  -31.4118 H   0  0  0  0  0  0  0  0  0  0  0  0
   -6.5002   22.7276  -32.9094 H   0  0  0  0  0  0  0  0  0  0  0  0
   -7.3352   24.3181  -32.9094 H   0  0  0  0  0  0  0  0  0  0  0  0
   -9.0131   23.4470  -31.3114 H   0  0  0  0  0  0  0  0  0  0  0  0
   -8.9444   22.4333  -32.8071 H   0  0  0  0  0  0  0  0  0  0  0  0
   -7.0426   21.3984  -30.9024 H   0  0  0  0  0  0  0  0  0  0  0  0
   -8.6575   21.6144  -30.0912 H   0  0  0  0  0  0  0  0  0  0  0  0
   -9.0453   19.5438  -30.9176 H   0  0  0  0  0  0  0  0  0  0  0  0
   -9.4266   20.4912  -32.4267 H   0  0  0  0  0  0  0  0  0  0  0  0
   -7.5894   18.3824  -32.1879 H   0  0  0  0  0  0  0  0  0  0  0  0
   -7.7544   19.5657  -33.5534 H   0  0  0  0  0  0  0  0  0  0  0  0
   -6.2530   20.8899  -31.5438 H   0  0  0  0  0  0  0  0  0  0  0  0
   -5.5803   19.1981  -31.6885 H   0  0  0  0  0  0  0  0  0  0  0  0
   -5.0667   19.4756  -33.9699 H   0  0  0  0  0  0  0  0  0  0  0  0
   -6.0427   21.0283  -34.0469 H   0  0  0  0  0  0  0  0  0  0  0  0
   -3.2278   20.6627  -33.5242 H   0  0  0  0  0  0  0  0  0  0  0  0
   -4.2139   22.1791  -33.7418 H   0  0  0  0  0  0  0  0  0  0  0  0
   -4.8548   21.3796  -31.1643 H   0  0  0  0  0  0  0  0  0  0  0  0
   -3.1035   20.9812  -31.2904 H   0  0  0  0  0  0  0  0  0  0  0  0
   -6.0247   23.9387  -29.5259 H   0  0  0  0  0  0  0  0  0  0  0  0
   -5.4269   22.2799  -29.9069 H   0  0  0  0  0  0  0  0  0  0  0  0
   -4.3060   25.3110  -28.4040 H   0  0  0  0  0  0  0  0  0  0  0  0
   -5.2857   24.6960  -26.9965 H   0  0  0  0  0  0  0  0  0  0  0  0
   -3.1697   25.6561  -26.2138 H   0  0  0  0  0  0  0  0  0  0  0  0
   -3.2214   23.8779  -25.9274 H   0  0  0  0  0  0  0  0  0  0  0  0
   -2.0987   23.7981  -29.5552 H   0  0  0  0  0  0  0  0  0  0  0  0
   -1.1080   22.7152  -28.4730 H   0  0  0  0  0  0  0  0  0  0  0  0
   -3.2921   21.7073  -29.1177 H   0  0  0  0  0  0  0  0  0  0  0  0
   -3.0915   21.9654  -27.3265 H   0  0  0  0  0  0  0  0  0  0  0  0
   -0.9551   27.7632  -28.2707 H   0  0  0  0  0  0  0  0  0  0  0  0
    0.6022   27.4614  -26.4357 H   0  0  0  0  0  0  0  0  0  0  0  0
    1.8485   25.8898  -24.9516 H   0  0  0  0  0  0  0  0  0  0  0  0
    2.0984   23.6358  -23.9060 H   0  0  0  0  0  0  0  0  0  0  0  0
   -1.2221   22.1599  -26.1273 H   0  0  0  0  0  0  0  0  0  0  0  0
  1  2  1  0
  2  3  1  0
  3  4  1  0
  4  5  1  0
  5  6  1  0
  6  7  1  0
  7  8  1  0
  8  9  1  0
  9 10  1  0
 10 11  1  0
 11 12  2  0
 11 13  1  0
 13 14  1  0
 14 15  1  0
 15 16  1  0
 16 17  1  0
 17 18  1  0
 18 19  1  0
 17 20  1  0
 20 21  1  0
 21 22  2  0
 22 23  1  0
 23 24  2  0
 24 25  1  0
 25 26  2  0
 26 27  1  0
 27 28  2  0
 19 14  1  0
 28 23  1  0
 28 17  1  0
  1 29  1  0
  1 30  1  0
  1 31  1  0
  2 32  1  0
  2 33  1  0
  3 34  1  0
  3 35  1  0
  4 36  1  0
  4 37  1  0
  5 38  1  0
  5 39  1  0
  6 40  1  0
  6 41  1  0
  7 42  1  0
  7 43  1  0
  8 44  1  0
  8 45  1  0
  9 46  1  0
  9 47  1  0
 13 48  1  0
 13 49  1  0
 15 50  1  0
 15 51  1  0
 16 52  1  0
 16 53  1  0
 18 54  1  0
 18 55  1  0
 19 56  1  0
 19 57  1  0
 21 58  1  0
 22 59  1  0
 24 60  1  0
 25 61  1  0
 27 62  1  0
M  CHG  1  10  -1
M  END
>  <UniqueID>  (13) 
11

>  <SMILES>  (13) 
CCCCCCCCC[N-]C(=O)CN1CCC2(CC1)OC=Cc1ccncc12

>  <Energy>  (13) 
61.92370808032159

>  <Genealogy>  (13) 
CCCCCCCCC[N-]C(=O)CN1CCC2(CC1)OC=Cc1ccncc12 (protonated)
CCCCCCCCC[N-]C(=O)CN1CCC2(CC1)OC=Cc1ccncc12 (3D coordinates assigned)
CCCCCCCCC[N-]C(=O)CN1CCC2(CC1)OC=Cc1ccncc12 (nonaromatic ring conformer: 61.92370808032159 kcal/mol)

>  <smiles>  (13) 
CCCCCCCCCNC(=O)CN1CCC2(CC1)OC=Cc1ccncc12

>  <score_type>  (13) 
oracle

>  <origin>  (13) 
adg

>  <m_score__min__energy>  (13) 
-10.449999999999999

>  <m_primary>  (13) 
energy

$$$$
13:0
     RDKit          3D

 47 50  0  0  1  0  0  0  0  0999 V2000
   -8.5530   18.5480  -31.3590 C   0  0  0  0  0  0  0  0  0  0  0  0
   -9.2550   19.0800  -32.5770 C   0  0  0  0  0  0  0  0  0  0  0  0
   -9.8560   20.4430  -32.3170 C   0  0  0  0  0  0  0  0  0  0  0  0
   -8.8260   21.3830  -31.6960 C   0  0  0  0  0  0  0  0  0  0  0  0
   -7.8190   21.5830  -32.7220 N   0  0  0  0  0  0  0  0  0  0  0  0
   -6.6230   21.1520  -32.6290 C   0  0  0  0  0  0  0  0  0  0  0  0
   -6.3470   19.9520  -33.1620 N   0  0  0  0  0  0  0  0  0  0  0  0
   -5.1360   19.3760  -33.1410 C   0  0  0  0  0  0  0  0  0  0  0  0
   -4.8310   18.0790  -33.7160 C   0  0  0  0  0  0  0  0  0  0  0  0
   -5.6160   16.9600  -33.4230 C   0  0  0  0  0  0  0  0  0  0  0  0
   -5.3660   15.7200  -33.9410 C   0  0  0  0  0  0  0  0  0  0  0  0
   -4.3000   15.5480  -34.7880 C   0  0  0  0  0  0  0  0  0  0  0  0
   -3.4950   16.6080  -35.1120 C   0  0  0  0  0  0  0  0  0  0  0  0
   -3.7730   17.8490  -34.5730 C   0  0  0  0  0  0  0  0  0  0  0  0
   -4.1480   20.0540  -32.5450 N   0  0  0  0  0  0  0  0  0  0  0  0
   -4.3880   21.2750  -31.9920 C   0  0  0  0  0  0  0  0  0  0  0  0
   -3.2940   22.4030  -31.1440 S   0  0  0  0  0  0  0  0  0  0  0  0
   -4.5280   23.5920  -30.8610 C   0  0  0  0  0  0  0  0  0  0  0  0
   -5.6520   23.1010  -31.3970 C   0  0  0  0  0  0  0  0  0  0  0  0
   -5.5960   21.8960  -31.9890 C   0  0  0  0  0  0  0  0  0  0  0  0
   -6.8820   24.0110  -31.2530 C   0  0  0  0  0  0  0  0  0  0  0  0
   -6.7530   24.7220  -29.9240 C   0  0  0  0  0  0  0  0  0  0  0  0
   -5.6020   25.6920  -30.1040 C   0  0  0  0  0  0  0  0  0  0  0  0
   -4.3560   24.8930  -30.1640 C   0  0  0  0  0  0  0  0  0  0  0  0
   -9.0515   18.9258  -30.4542 H   0  0  0  0  0  0  0  0  0  0  0  0
   -8.5893   17.4486  -31.3657 H   0  0  0  0  0  0  0  0  0  0  0  0
   -7.5044   18.8803  -31.3657 H   0  0  0  0  0  0  0  0  0  0  0  0
   -8.5308   19.1596  -33.4011 H   0  0  0  0  0  0  0  0  0  0  0  0
  -10.0687   18.3872  -32.8375 H   0  0  0  0  0  0  0  0  0  0  0  0
  -10.2056   20.8699  -33.2686 H   0  0  0  0  0  0  0  0  0  0  0  0
  -10.6956   20.3289  -31.6156 H   0  0  0  0  0  0  0  0  0  0  0  0
   -9.2937   22.3407  -31.4238 H   0  0  0  0  0  0  0  0  0  0  0  0
   -8.3940   20.9654  -30.7746 H   0  0  0  0  0  0  0  0  0  0  0  0
   -7.1190   19.4280  -33.6260 H   0  0  0  0  0  0  0  0  0  0  0  0
   -6.4735   17.0829  -32.7451 H   0  0  0  0  0  0  0  0  0  0  0  0
   -6.0126   14.8688  -33.6816 H   0  0  0  0  0  0  0  0  0  0  0  0
   -4.0908   14.5535  -35.2090 H   0  0  0  0  0  0  0  0  0  0  0  0
   -2.6402   16.4729  -35.7911 H   0  0  0  0  0  0  0  0  0  0  0  0
   -3.1208   18.6939  -34.8390 H   0  0  0  0  0  0  0  0  0  0  0  0
   -6.9076   24.7441  -32.0727 H   0  0  0  0  0  0  0  0  0  0  0  0
   -7.8115   23.4243  -31.2957 H   0  0  0  0  0  0  0  0  0  0  0  0
   -7.6801   25.2633  -29.6842 H   0  0  0  0  0  0  0  0  0  0  0  0
   -6.5738   24.0194  -29.0968 H   0  0  0  0  0  0  0  0  0  0  0  0
   -5.7305   26.2591  -31.0377 H   0  0  0  0  0  0  0  0  0  0  0  0
   -5.5642   26.4094  -29.2710 H   0  0  0  0  0  0  0  0  0  0  0  0
   -3.5915   25.4770  -30.6974 H   0  0  0  0  0  0  0  0  0  0  0  0
   -4.0590   24.6722  -29.1281 H   0  0  0  0  0  0  0  0  0  0  0  0
  1  2  1  0
  2  3  1  0
  3  4  1  0
  4  5  1  0
  5  6  2  0
  6  7  1  0
  7  8  1  0
  8  9  1  0
  9 10  2  0
 10 11  1  0
 11 12  2  0
 12 13  1  0
 13 14  2  0
  8 15  2  0
 15 16  1  0
 16 17  1  0
 17 18  1  0
 18 19  2  0
 19 20  1  0
 19 21  1  0
 21 22  1  0
 22 23  1  0
 23 24  1  0
 20  6  1  0
 14  9  1  0
 20 16  2  0
 24 18  1  0
  1 25  1  0
  1 26  1  0
  1 27  1  0
  2 28  1  0
  2 29  1  0
  3 30  1  0
  3 31  1  0
  4 32  1  0
  4 33  1  0
  7 34  1  0
 10 35  1  0
 11 36  1  0
 12 37  1  0
 13 38  1  0
 14 39  1  0
 21 40  1  0
 21 41  1  0
 22 42  1  0
 22 43  1  0
 23 44  1  0
 23 45  1  0
 24 46  1  0
 24 47  1  0
M  END
>  <smiles>  (14) 
CCCCN=c1[nH]c(-c2ccccc2)nc2sc3c(c12)CCCC3

>  <score_type>  (14) 
oracle

>  <origin>  (14) 
adg

>  <m_score__min__energy>  (14) 
-8.6600000000000001

>  <m_primary>  (14) 
energy

$$$$
14:0
     RDKit          3D

 40 41  0  0  0  0  0  0  0  0999 V2000
   -2.2360   22.5500  -28.2890 C   0  0  0  0  0  0  0  0  0  0  0  0
   -2.4510   23.9970  -27.8320 C   0  0  0  0  0  0  0  0  0  0  0  0
   -3.8440   24.1710  -27.2220 C   0  0  0  0  0  0  0  0  0  0  0  0
   -2.2660   24.9590  -28.9850 C   0  0  0  0  0  0  0  0  0  0  0  0
   -1.2780   25.7400  -28.9850 O   0  0  0  0  0  0  0  0  0  0  0  0
   -3.1120   24.9230  -30.1430 N   0  0  0  0  0  0  0  0  0  0  0  0
   -4.4170   24.3370  -30.2260 C   0  0  0  0  0  0  0  0  0  0  0  0
   -5.5770   25.1290  -30.2510 C   0  0  0  0  0  0  0  0  0  0  0  0
   -6.8350   24.5320  -30.3710 C   0  0  0  0  0  0  0  0  0  0  0  0
   -6.9460   23.1400  -30.5060 C   0  0  0  0  0  0  0  0  0  0  0  0
   -8.2260   22.5010  -30.5990 N   0  0  0  0  0  0  0  0  0  0  0  0
   -8.9940   22.3060  -31.7940 C   0  0  0  0  0  0  0  0  0  0  0  0
   -9.4110   23.3230  -32.4110 O   0  0  0  0  0  0  0  0  0  0  0  0
   -9.4700   20.9380  -32.2180 C   0  0  0  0  0  0  0  0  0  0  0  0
   -8.3140   20.0100  -32.4900 C   0  0  0  0  0  0  0  0  0  0  0  0
   -7.1580   20.4770  -33.1390 C   0  0  0  0  0  0  0  0  0  0  0  0
   -6.1030   19.6030  -33.4160 C   0  0  0  0  0  0  0  0  0  0  0  0
   -6.1920   18.2570  -33.0500 C   0  0  0  0  0  0  0  0  0  0  0  0
   -7.3380   17.7840  -32.4040 C   0  0  0  0  0  0  0  0  0  0  0  0
   -8.3970   18.6530  -32.1270 C   0  0  0  0  0  0  0  0  0  0  0  0
   -5.7900   22.3520  -30.4740 C   0  0  0  0  0  0  0  0  0  0  0  0
   -4.5320   22.9480  -30.3570 C   0  0  0  0  0  0  0  0  0  0  0  0
   -2.1391   21.8979  -27.4084 H   0  0  0  0  0  0  0  0  0  0  0  0
   -3.0957   22.2248  -28.8933 H   0  0  0  0  0  0  0  0  0  0  0  0
   -1.3189   22.4888  -28.8933 H   0  0  0  0  0  0  0  0  0  0  0  0
   -1.6981   24.2233  -27.0626 H   0  0  0  0  0  0  0  0  0  0  0  0
   -3.7676   24.1615  -26.1247 H   0  0  0  0  0  0  0  0  0  0  0  0
   -4.2714   25.1295  -27.5515 H   0  0  0  0  0  0  0  0  0  0  0  0
   -4.4941   23.3471  -27.5515 H   0  0  0  0  0  0  0  0  0  0  0  0
   -5.4949   26.2234  -30.1758 H   0  0  0  0  0  0  0  0  0  0  0  0
   -7.7411   25.1556  -30.3596 H   0  0  0  0  0  0  0  0  0  0  0  0
  -10.0900   20.5109  -31.4160 H   0  0  0  0  0  0  0  0  0  0  0  0
  -10.0504   21.0471  -33.1460 H   0  0  0  0  0  0  0  0  0  0  0  0
   -7.0833   21.5351  -33.4302 H   0  0  0  0  0  0  0  0  0  0  0  0
   -5.2007   19.9753  -33.9232 H   0  0  0  0  0  0  0  0  0  0  0  0
   -5.3611   17.5705  -33.2700 H   0  0  0  0  0  0  0  0  0  0  0  0
   -7.4064   16.7254  -32.1130 H   0  0  0  0  0  0  0  0  0  0  0  0
   -9.2988   18.2747  -31.6233 H   0  0  0  0  0  0  0  0  0  0  0  0
   -5.8724   21.2572  -30.5414 H   0  0  0  0  0  0  0  0  0  0  0  0
   -3.6271   22.3226  -30.3679 H   0  0  0  0  0  0  0  0  0  0  0  0
  1  2  1  0
  2  3  1  0
  2  4  1  0
  4  5  2  0
  4  6  1  0
  6  7  1  0
  7  8  2  0
  8  9  1  0
  9 10  2  0
 10 11  1  0
 11 12  1  0
 12 13  2  0
 12 14  1  0
 14 15  1  0
 15 16  2  0
 16 17  1  0
 17 18  2  0
 18 19  1  0
 19 20  2  0
 10 21  1  0
 21 22  2  0
 22  7  1  0
 20 15  1  0
  1 23  1  0
  1 24  1  0
  1 25  1  0
  2 26  1  0
  3 27  1  0
  3 28  1  0
  3 29  1  0
  8 30  1  0
  9 31  1  0
 14 32  1  0
 14 33  1  0
 16 34  1  0
 17 35  1  0
 18 36  1  0
 19 37  1  0
 20 38  1  0
 21 39  1  0
 22 40  1  0
M  CHG  2   6  -1  11  -1
M  END
>  <UniqueID>  (15) 
12

>  <SMILES>  (15) 
CC(C)C(=O)[N-]c1ccc([N-]C(=O)Cc2ccccc2)cc1

>  <Energy>  (15) 
45.63279998418326

>  <Genealogy>  (15) 
CC(C)C(=O)[N-]c1ccc([N-]C(=O)Cc2ccccc2)cc1 (protonated)
CC(C)C(=O)[N-]c1ccc([N-]C(=O)Cc2ccccc2)cc1 (3D coordinates assigned)
CC(C)C(=O)[N-]c1ccc([N-]C(=O)Cc2ccccc2)cc1 (optimized conformer: 45.63279998418326 kcal/mol)

>  <smiles>  (15) 
CC(C)C(=O)Nc1ccc(NC(=O)Cc2ccccc2)cc1

>  <score_type>  (15) 
oracle

>  <origin>  (15) 
adg

>  <m_score__min__energy>  (15) 
-10.289999999999999

>  <m_primary>  (15) 
energy

$$$$
15:0
     RDKit          3D

 37 39  0  0  0  0  0  0  0  0999 V2000
   -6.7400   16.1460  -34.1820 F   0  0  0  0  0  0  0  0  0  0  0  0
   -6.7200   17.4080  -33.6840 C   0  0  0  0  0  0  0  0  0  0  0  0
   -5.8100   18.3400  -34.1800 C   0  0  0  0  0  0  0  0  0  0  0  0
   -5.7880   19.6410  -33.6680 C   0  0  0  0  0  0  0  0  0  0  0  0
   -6.6800   20.0280  -32.6490 C   0  0  0  0  0  0  0  0  0  0  0  0
   -6.6260   21.4200  -32.1290 C   0  0  0  0  0  0  0  0  0  0  0  0
   -7.6260   21.9760  -31.4030 N   0  0  0  0  0  0  0  0  0  0  0  0
   -7.3550   23.2560  -31.0340 C   0  0  0  0  0  0  0  0  0  0  0  0
   -6.1280   23.7390  -31.4680 C   0  0  0  0  0  0  0  0  0  0  0  0
   -5.5570   25.0910  -31.1790 C   0  0  0  0  0  0  0  0  0  0  0  0
   -4.3430   24.9680  -30.3610 N   0  0  0  0  0  0  0  0  0  0  0  0
   -4.2790   23.6940  -29.6180 C   0  0  0  0  0  0  0  0  0  0  0  0
   -3.0040   23.5590  -28.7680 C   0  0  0  0  0  0  0  0  0  0  0  0
   -3.0980   24.3450  -27.5410 N   0  0  0  0  0  0  0  0  0  0  0  0
   -2.0850   24.9410  -26.8850 C   0  0  0  0  0  0  0  0  0  0  0  0
   -2.6010   25.5390  -25.7540 C   0  0  0  0  0  0  0  0  0  0  0  0
   -3.9280   25.3100  -25.7140 N   0  0  0  0  0  0  0  0  0  0  0  0
   -4.2060   24.5800  -26.8100 C   0  0  0  0  0  0  0  0  0  0  0  0
   -5.3590   22.5200  -32.3290 S   0  0  0  0  0  0  0  0  0  0  0  0
   -7.5980   19.0730  -32.1540 C   0  0  0  0  0  0  0  0  0  0  0  0
   -8.4820   19.3780  -31.1720 F   0  0  0  0  0  0  0  0  0  0  0  0
   -7.6110   17.7730  -32.6740 C   0  0  0  0  0  0  0  0  0  0  0  0
   -5.1077   18.0515  -34.9759 H   0  0  0  0  0  0  0  0  0  0  0  0
   -5.0664   20.3700  -34.0653 H   0  0  0  0  0  0  0  0  0  0  0  0
   -8.0535   23.8618  -30.4380 H   0  0  0  0  0  0  0  0  0  0  0  0
   -5.3066   25.5893  -32.1272 H   0  0  0  0  0  0  0  0  0  0  0  0
   -6.3017   25.6832  -30.6270 H   0  0  0  0  0  0  0  0  0  0  0  0
   -4.2930   25.7810  -29.7030 H   0  0  0  0  0  0  0  0  0  0  0  0
   -5.1526   23.6318  -28.9524 H   0  0  0  0  0  0  0  0  0  0  0  0
   -4.2692   22.8806  -30.3585 H   0  0  0  0  0  0  0  0  0  0  0  0
   -2.8590   22.5007  -28.5053 H   0  0  0  0  0  0  0  0  0  0  0  0
   -2.1536   23.9343  -29.3561 H   0  0  0  0  0  0  0  0  0  0  0  0
   -1.0300   24.9497  -27.1963 H   0  0  0  0  0  0  0  0  0  0  0  0
   -2.0251   26.1078  -25.0092 H   0  0  0  0  0  0  0  0  0  0  0  0
   -4.6000   25.6250  -24.9800 H   0  0  0  0  0  0  0  0  0  0  0  0
   -5.2110   24.2203  -27.0759 H   0  0  0  0  0  0  0  0  0  0  0  0
   -8.3277   17.0352  -32.2841 H   0  0  0  0  0  0  0  0  0  0  0  0
  1  2  1  0
  2  3  2  0
  3  4  1  0
  4  5  2  0
  5  6  1  0
  6  7  2  0
  7  8  1  0
  8  9  2  0
  9 10  1  0
 10 11  1  0
 11 12  1  0
 12 13  1  0
 13 14  1  0
 14 15  1  0
 15 16  2  0
 16 17  1  0
 17 18  2  0
  9 19  1  0
  5 20  1  0
 20 21  1  0
 20 22  2  0
 22  2  1  0
 19  6  1  0
 18 14  1  0
  3 23  1  0
  4 24  1  0
  8 25  1  0
 10 26  1  0
 10 27  1  0
 11 28  1  0
 12 29  1  0
 12 30  1  0
 13 31  1  0
 13 32  1  0
 15 33  1  0
 16 34  1  0
 17 35  1  0
 18 36  1  0
 22 37  1  0
M  CHG  1  17   1
M  END
>  <UniqueID>  (16) 
13

>  <SMILES>  (16) 
Fc1ccc(-c2ncc(CNCCn3cc[nH+]c3)s2)c(F)c1

>  <Energy>  (16) 
99.65864769632626

>  <Genealogy>  (16) 
Fc1ccc(-c2ncc(CNCCn3cc[nH+]c3)s2)c(F)c1 (protonated)
Fc1ccc(-c2ncc(CNCCn3cc[nH+]c3)s2)c(F)c1 (3D coordinates assigned)
Fc1ccc(-c2ncc(CNCCn3cc[nH+]c3)s2)c(F)c1 (optimized conformer: 99.65864769632626 kcal/mol)

>  <smiles>  (16) 
Fc1ccc(-c2ncc(CNCCn3ccnc3)s2)c(F)c1

>  <score_type>  (16) 
oracle

>  <origin>  (16) 
adg

>  <m_score__min__energy>  (16) 
-7.21

>  <m_primary>  (16) 
energy

$$$$
16:0
     RDKit          3D

 44 46  0  0  0  0  0  0  0  0999 V2000
   -8.8790   20.3528  -32.8801 H   0  0  0  0  0  0  0  0  0  0  0  0
   -7.7910   20.3130  -32.7230 C   0  0  0  0  0  0  0  0  0  0  0  0
   -7.1400   19.1920  -33.0810 C   0  0  0  0  0  0  0  0  0  0  0  0
   -6.1010   19.1290  -34.5660 S   0  0  0  0  0  0  0  0  0  0  0  0
   -4.5140   19.3020  -33.6840 C   0  0  0  0  0  0  0  0  0  0  0  0
   -4.0489   20.2576  -33.9676 H   0  0  0  0  0  0  0  0  0  0  0  0
   -4.7131   19.2714  -32.6026 H   0  0  0  0  0  0  0  0  0  0  0  0
   -3.5730   18.1790  -34.0250 C   0  0  0  0  0  0  0  0  0  0  0  0
   -3.8410   17.3220  -35.1040 C   0  0  0  0  0  0  0  0  0  0  0  0
   -4.7328   17.4873  -35.7265 H   0  0  0  0  0  0  0  0  0  0  0  0
   -2.9780   16.2580  -35.3910 C   0  0  0  0  0  0  0  0  0  0  0  0
   -3.1835   15.5962  -36.2452 H   0  0  0  0  0  0  0  0  0  0  0  0
   -1.8500   16.0380  -34.5860 C   0  0  0  0  0  0  0  0  0  0  0  0
   -1.0180   15.0050  -34.8570 F   0  0  0  0  0  0  0  0  0  0  0  0
   -1.5740   16.8890  -33.5090 C   0  0  0  0  0  0  0  0  0  0  0  0
   -0.6867   16.7143  -32.8828 H   0  0  0  0  0  0  0  0  0  0  0  0
   -2.4270   17.9610  -33.2300 C   0  0  0  0  0  0  0  0  0  0  0  0
   -2.2049   18.6355  -32.3899 H   0  0  0  0  0  0  0  0  0  0  0  0
   -7.2600   17.9610  -32.2580 C   0  0  0  0  0  0  0  0  0  0  0  0
   -7.9590   17.9550  -31.2020 O   0  0  0  0  0  0  0  0  0  0  0  0
   -6.5360   16.7380  -32.6450 C   0  0  0  0  0  0  0  0  0  0  0  0
   -6.9070   16.0350  -33.8020 C   0  0  0  0  0  0  0  0  0  0  0  0
   -7.8046   16.3362  -34.3619 H   0  0  0  0  0  0  0  0  0  0  0  0
   -6.1390   14.9520  -34.2460 C   0  0  0  0  0  0  0  0  0  0  0  0
   -6.4021   14.4376  -35.1820 H   0  0  0  0  0  0  0  0  0  0  0  0
   -5.0350   14.5240  -33.4970 C   0  0  0  0  0  0  0  0  0  0  0  0
   -4.0940   13.1360  -34.0270 Cl  0  0  0  0  0  0  0  0  0  0  0  0
   -4.6810   15.1990  -32.3170 C   0  0  0  0  0  0  0  0  0  0  0  0
   -3.8317   14.8466  -31.7132 H   0  0  0  0  0  0  0  0  0  0  0  0
   -5.4130   16.3220  -31.9120 C   0  0  0  0  0  0  0  0  0  0  0  0
   -5.1068   16.8809  -31.0154 H   0  0  0  0  0  0  0  0  0  0  0  0
   -7.1310   21.4920  -32.1320 C   0  0  0  0  0  0  0  0  0  0  0  0
   -5.7720   21.4210  -31.7950 C   0  0  0  0  0  0  0  0  0  0  0  0
   -5.2139   20.4875  -31.9594 H   0  0  0  0  0  0  0  0  0  0  0  0
   -5.1240   22.5350  -31.2500 C   0  0  0  0  0  0  0  0  0  0  0  0
   -4.0624   22.4661  -30.9702 H   0  0  0  0  0  0  0  0  0  0  0  0
   -5.8200   23.7430  -31.0570 C   0  0  0  0  0  0  0  0  0  0  0  0
   -5.1600   24.8820  -30.4780 N   0  0  0  0  0  0  0  0  0  0  0  0
   -4.0080   25.2040  -30.8340 O   0  0  0  0  0  0  0  0  0  0  0  0
   -5.8030   25.6600  -29.5450 O   0  0  0  0  0  0  0  0  0  0  0  0
   -7.1740   23.8190  -31.4320 C   0  0  0  0  0  0  0  0  0  0  0  0
   -7.7258   24.7613  -31.2993 H   0  0  0  0  0  0  0  0  0  0  0  0
   -7.8210   22.7070  -31.9710 C   0  0  0  0  0  0  0  0  0  0  0  0
   -8.8765   22.7807  -32.2718 H   0  0  0  0  0  0  0  0  0  0  0  0
  1  2  1  0
  2  3  2  0
  3  4  1  0
  4  5  1  0
  5  6  1  0
  5  7  1  0
  5  8  1  0
  8  9  2  0
  9 10  1  0
  9 11  1  0
 11 12  1  0
 11 13  2  0
 13 14  1  0
 13 15  1  0
 15 16  1  0
 15 17  2  0
 17 18  1  0
  3 19  1  0
 19 20  2  0
 19 21  1  0
 21 22  2  0
 22 23  1  0
 22 24  1  0
 24 25  1  0
 24 26  2  0
 26 27  1  0
 26 28  1  0
 28 29  1  0
 28 30  2  0
 30 31  1  0
  2 32  1  0
 32 33  2  0
 33 34  1  0
 33 35  1  0
 35 36  1  0
 35 37  2  0
 37 38  1  0
 38 39  2  0
 38 40  1  0
 37 41  1  0
 41 42  1  0
 41 43  2  0
 43 44  1  0
 17  8  1  0
 30 21  1  0
 43 32  1  0
M  CHG  2  38   1  40  -1
M  END
>  <UniqueID>  (17) 
14

>  <SMILES>  (17) 
O=C(/C(=C/c1ccc([N+](=O)[O-])cc1)SCc1ccc(F)cc1)c1ccc(Cl)cc1

>  <Energy>  (17) 
54.07797719919723

>  <Genealogy>  (17) 
O=C(/C(=C/c1ccc([N+](=O)[O-])cc1)SCc1ccc(F)cc1)c1ccc(Cl)cc1 (cis-trans isomerization)
O=C(/C(=C/c1ccc([N+](=O)[O-])cc1)SCc1ccc(F)cc1)c1ccc(Cl)cc1 (3D coordinates assigned)
O=C(/C(=C/c1ccc([N+](=O)[O-])cc1)SCc1ccc(F)cc1)c1ccc(Cl)cc1 (optimized conformer: 54.07797719919723 kcal/mol)

>  <smiles>  (17) 
O=C(C(=Cc1ccc([N+](=O)[O-])cc1)SCc1ccc(F)cc1)c1ccc(Cl)cc1

>  <score_type>  (17) 
oracle

>  <origin>  (17) 
adg

>  <m_score__min__energy>  (17) 
-9.9100000000000001

>  <m_primary>  (17) 
energy

$$$$
17:0
     RDKit          3D

 43 45  0  0  1  0  0  0  0  0999 V2000
   -0.2510   25.8320  -27.4530 C   0  0  0  0  0  0  0  0  0  0  0  0
   -1.7130   25.6730  -27.4360 C   0  0  0  0  0  0  0  0  0  0  0  0
   -2.3280   24.6870  -28.2070 N   0  0  0  0  0  0  0  0  0  0  0  0
   -3.4170   23.9590  -27.6310 C   0  0  0  0  0  0  0  0  0  0  0  0
   -4.2550   24.7490  -26.6670 C   0  0  0  0  0  0  0  0  0  0  0  0
   -1.7080   24.1200  -29.3190 C   0  0  0  0  0  0  0  0  0  0  0  0
   -2.6200   23.0580  -30.0530 C   0  0  0  0  0  0  0  0  0  0  0  0
   -3.4580   23.8720  -30.8350 N   0  0  0  0  0  0  0  0  0  0  0  0
   -4.6730   24.0670  -30.6690 C   0  0  0  0  0  0  0  0  0  0  0  0
   -5.0010   25.1520  -29.9160 N   0  0  0  0  0  0  0  0  0  0  0  0
   -6.2450   25.5290  -29.6280 C   0  0  0  0  0  0  0  0  0  0  0  0
   -7.2360   24.7880  -30.1150 N   0  0  0  0  0  0  0  0  0  0  0  0
   -6.9280   23.7280  -30.8490 C   0  0  0  0  0  0  0  0  0  0  0  0
   -8.1660   22.6450  -31.5630 S   0  0  0  0  0  0  0  0  0  0  0  0
   -6.9080   21.5880  -32.3170 C   0  0  0  0  0  0  0  0  0  0  0  0
   -7.0750   20.4600  -33.0860 C   0  0  0  0  0  0  0  0  0  0  0  0
   -8.2110   20.0420  -33.3460 O   0  0  0  0  0  0  0  0  0  0  0  0
   -6.0090   19.7910  -33.5670 N   0  0  0  0  0  0  0  0  0  0  0  0
   -6.1180   18.6140  -34.3730 C   0  0  0  0  0  0  0  0  0  0  0  0
   -4.8180   20.2990  -33.2460 C   0  0  0  0  0  0  0  0  0  0  0  0
   -4.6900   21.3630  -32.5210 N   0  0  0  0  0  0  0  0  0  0  0  0
   -5.6480   22.1350  -31.9710 C   0  0  0  0  0  0  0  0  0  0  0  0
   -5.7000   23.2460  -31.2080 C   0  0  0  0  0  0  0  0  0  0  0  0
    0.1254   25.8729  -26.4202 H   0  0  0  0  0  0  0  0  0  0  0  0
    0.2046   24.9781  -27.9757 H   0  0  0  0  0  0  0  0  0  0  0  0
    0.0104   26.7639  -27.9757 H   0  0  0  0  0  0  0  0  0  0  0  0
   -1.9964   25.4781  -26.3912 H   0  0  0  0  0  0  0  0  0  0  0  0
   -2.0680   26.6055  -27.8991 H   0  0  0  0  0  0  0  0  0  0  0  0
   -4.0677   23.6118  -28.4471 H   0  0  0  0  0  0  0  0  0  0  0  0
   -2.9716   23.1346  -27.0549 H   0  0  0  0  0  0  0  0  0  0  0  0
   -3.9752   24.4852  -25.6364 H   0  0  0  0  0  0  0  0  0  0  0  0
   -4.0857   25.8237  -26.8293 H   0  0  0  0  0  0  0  0  0  0  0  0
   -5.3179   24.5167  -26.8293 H   0  0  0  0  0  0  0  0  0  0  0  0
   -1.4600   24.9217  -30.0301 H   0  0  0  0  0  0  0  0  0  0  0  0
   -0.8079   23.5958  -28.9653 H   0  0  0  0  0  0  0  0  0  0  0  0
   -2.0196   22.3841  -30.6818 H   0  0  0  0  0  0  0  0  0  0  0  0
   -3.1663   22.3961  -29.3649 H   0  0  0  0  0  0  0  0  0  0  0  0
   -4.2350   25.7650  -29.5140 H   0  0  0  0  0  0  0  0  0  0  0  0
   -6.4451   26.4180  -29.0118 H   0  0  0  0  0  0  0  0  0  0  0  0
   -6.1998   17.7306  -33.7227 H   0  0  0  0  0  0  0  0  0  0  0  0
   -7.0133   18.6861  -35.0080 H   0  0  0  0  0  0  0  0  0  0  0  0
   -5.2247   18.5204  -35.0080 H   0  0  0  0  0  0  0  0  0  0  0  0
   -3.9112   19.7947  -33.6112 H   0  0  0  0  0  0  0  0  0  0  0  0
  1  2  1  0
  2  3  1  0
  3  4  1  0
  4  5  1  0
  3  6  1  0
  6  7  1  0
  7  8  1  0
  8  9  2  0
  9 10  1  0
 10 11  1  0
 11 12  2  0
 12 13  1  0
 13 14  1  0
 14 15  1  0
 15 16  1  0
 16 17  2  0
 16 18  1  0
 18 19  1  0
 18 20  1  0
 20 21  2  0
 21 22  1  0
 22 23  1  0
 23  9  1  0
 23 13  2  0
 22 15  2  0
  1 24  1  0
  1 25  1  0
  1 26  1  0
  2 27  1  0
  2 28  1  0
  4 29  1  0
  4 30  1  0
  5 31  1  0
  5 32  1  0
  5 33  1  0
  6 34  1  0
  6 35  1  0
  7 36  1  0
  7 37  1  0
 10 38  1  0
 11 39  1  0
 19 40  1  0
 19 41  1  0
 19 42  1  0
 20 43  1  0
M  END
>  <smiles>  (18) 
CCN(CC)CCN=c1[nH]cnc2sc3c(=O)n(C)cnc3c12

>  <score_type>  (18) 
oracle

>  <origin>  (18) 
adg

>  <m_score__min__energy>  (18) 
-7.25

>  <m_primary>  (18) 
energy

$$$$
18:0
     RDKit          3D

 42 44  0  0  0  0  0  0  0  0999 V2000
   -5.2640   25.7820  -30.4690 C   0  0  0  0  0  0  0  0  0  0  0  0
   -3.9260   25.2960  -30.5050 O   0  0  0  0  0  0  0  0  0  0  0  0
   -3.3840   24.3870  -29.5830 C   0  0  0  0  0  0  0  0  0  0  0  0
   -2.1610   24.6290  -28.9260 C   0  0  0  0  0  0  0  0  0  0  0  0
   -1.6600   23.7050  -28.0040 C   0  0  0  0  0  0  0  0  0  0  0  0
   -2.3740   22.5390  -27.7230 C   0  0  0  0  0  0  0  0  0  0  0  0
   -3.5850   22.2890  -28.3700 C   0  0  0  0  0  0  0  0  0  0  0  0
   -4.0860   23.1990  -29.3090 C   0  0  0  0  0  0  0  0  0  0  0  0
   -5.6390   22.8360  -30.1360 S   0  0  0  0  0  0  0  0  0  0  0  0
   -4.8530   21.8840  -31.4450 C   0  0  0  0  0  0  0  0  0  0  0  0
   -3.5570   22.2420  -31.8390 C   0  0  0  0  0  0  0  0  0  0  0  0
   -2.8890   21.5130  -32.8250 C   0  0  0  0  0  0  0  0  0  0  0  0
   -3.5140   20.4240  -33.4320 C   0  0  0  0  0  0  0  0  0  0  0  0
   -4.8110   20.0660  -33.0590 C   0  0  0  0  0  0  0  0  0  0  0  0
   -5.4980   20.7910  -32.0690 C   0  0  0  0  0  0  0  0  0  0  0  0
   -6.8470   20.4180  -31.7290 N   0  0  0  0  0  0  0  0  0  0  0  0
   -7.9280   21.4060  -31.8380 C   0  0  0  0  0  0  0  0  0  0  0  0
   -9.2290   20.7360  -32.3040 C   0  0  0  0  0  0  0  0  0  0  0  0
   -8.9340   19.6790  -33.2850 N   0  0  0  0  0  0  0  0  0  0  0  0
   -8.1650   18.5600  -32.6960 C   0  0  0  0  0  0  0  0  0  0  0  0
   -7.2050   19.0040  -31.5720 C   0  0  0  0  0  0  0  0  0  0  0  0
   -5.5839   25.8982  -29.4230 H   0  0  0  0  0  0  0  0  0  0  0  0
   -5.3142   26.7558  -30.9781 H   0  0  0  0  0  0  0  0  0  0  0  0
   -5.9275   25.0674  -30.9781 H   0  0  0  0  0  0  0  0  0  0  0  0
   -1.5977   25.5494  -29.1396 H   0  0  0  0  0  0  0  0  0  0  0  0
   -0.7017   23.8972  -27.4993 H   0  0  0  0  0  0  0  0  0  0  0  0
   -1.9821   21.8170  -26.9914 H   0  0  0  0  0  0  0  0  0  0  0  0
   -4.1487   21.3726  -28.1412 H   0  0  0  0  0  0  0  0  0  0  0  0
   -3.0619   23.1040  -31.3680 H   0  0  0  0  0  0  0  0  0  0  0  0
   -1.8692   21.7978  -33.1231 H   0  0  0  0  0  0  0  0  0  0  0  0
   -2.9850   19.8470  -34.2048 H   0  0  0  0  0  0  0  0  0  0  0  0
   -5.3002   19.2085  -33.5442 H   0  0  0  0  0  0  0  0  0  0  0  0
   -8.0931   21.8710  -30.8549 H   0  0  0  0  0  0  0  0  0  0  0  0
   -7.6381   22.1683  -32.5761 H   0  0  0  0  0  0  0  0  0  0  0  0
   -9.7408   20.2939  -31.4365 H   0  0  0  0  0  0  0  0  0  0  0  0
   -9.8734   21.4928  -32.7751 H   0  0  0  0  0  0  0  0  0  0  0  0
   -8.3950   20.0910  -34.0830 H   0  0  0  0  0  0  0  0  0  0  0  0
   -9.8370   19.3090  -33.6630 H   0  0  0  0  0  0  0  0  0  0  0  0
   -8.8745   17.8292  -32.2807 H   0  0  0  0  0  0  0  0  0  0  0  0
   -7.5491   18.1294  -33.4993 H   0  0  0  0  0  0  0  0  0  0  0  0
   -7.6971   18.8614  -30.5986 H   0  0  0  0  0  0  0  0  0  0  0  0
   -6.2890   18.3975  -31.6271 H   0  0  0  0  0  0  0  0  0  0  0  0
  1  2  1  0
  2  3  1  0
  3  4  2  0
  4  5  1  0
  5  6  2  0
  6  7  1  0
  7  8  2  0
  8  9  1  0
  9 10  1  0
 10 11  2  0
 11 12  1  0
 12 13  2  0
 13 14  1  0
 14 15  2  0
 15 16  1  0
 16 17  1  0
 17 18  1  0
 18 19  1  0
 19 20  1  0
 20 21  1  0
  8  3  1  0
 15 10  1  0
 21 16  1  0
  1 22  1  0
  1 23  1  0
  1 24  1  0
  4 25  1  0
  5 26  1  0
  6 27  1  0
  7 28  1  0
 11 29  1  0
 12 30  1  0
 13 31  1  0
 14 32  1  0
 17 33  1  0
 17 34  1  0
 18 35  1  0
 18 36  1  0
 19 37  1  0
 19 38  1  0
 20 39  1  0
 20 40  1  0
 21 41  1  0
 21 42  1  0
M  CHG  1  19   1
M  END
>  <UniqueID>  (19) 
15

>  <SMILES>  (19) 
COc1ccccc1Sc1ccccc1N1CC[NH2+]CC1

>  <Energy>  (19) 
47.69212953313453

>  <Genealogy>  (19) 
COc1ccccc1Sc1ccccc1N1CC[NH2+]CC1 (protonated)
COc1ccccc1Sc1ccccc1N1CC[NH2+]CC1 (3D coordinates assigned)
COc1ccccc1Sc1ccccc1N1CC[NH2+]CC1 (nonaromatic ring conformer: 47.69212953313453 kcal/mol)

>  <smiles>  (19) 
COc1ccccc1Sc1ccccc1N1CCNCC1

>  <score_type>  (19) 
oracle

>  <origin>  (19) 
adg

>  <m_score__min__energy>  (19) 
-7.7699999999999996

>  <m_primary>  (19) 
energy

$$$$
19:0
     RDKit          3D

 33 35  0  0  0  0  0  0  0  0999 V2000
   -3.0200   21.9380  -32.3370 C   0  0  0  0  0  0  0  0  0  0  0  0
   -4.3670   21.6530  -31.8310 N   0  0  0  0  0  0  0  0  0  0  0  0
   -4.7190   22.0000  -30.4450 C   0  0  0  0  0  0  0  0  0  0  0  0
   -5.1780   23.4250  -30.3560 C   0  0  0  0  0  0  0  0  0  0  0  0
   -6.4100   23.7910  -29.7470 C   0  0  0  0  0  0  0  0  0  0  0  0
   -6.7000   25.1160  -29.7200 N   0  0  0  0  0  0  0  0  0  0  0  0
   -5.3730   25.7380  -30.4780 S   0  0  0  0  0  0  0  0  0  0  0  0
   -4.4260   24.4400  -30.8530 N   0  0  0  0  0  0  0  0  0  0  0  0
   -5.3400   21.0830  -32.7360 C   0  0  0  0  0  0  0  0  0  0  0  0
   -4.9640   20.6050  -33.8410 O   0  0  0  0  0  0  0  0  0  0  0  0
   -6.7820   21.0740  -32.4200 C   0  0  0  0  0  0  0  0  0  0  0  0
   -7.4450   22.3090  -32.3310 C   0  0  0  0  0  0  0  0  0  0  0  0
   -8.7870   22.3670  -31.9550 C   0  0  0  0  0  0  0  0  0  0  0  0
   -9.4850   21.1940  -31.6720 C   0  0  0  0  0  0  0  0  0  0  0  0
   -8.8480   19.9570  -31.7780 C   0  0  0  0  0  0  0  0  0  0  0  0
   -7.4980   19.8750  -32.1700 C   0  0  0  0  0  0  0  0  0  0  0  0
   -6.8910   18.5760  -32.3230 N   0  0  0  0  0  0  0  0  0  0  0  0
   -6.2020   17.9540  -31.3770 N   0  0  0  0  0  0  0  0  0  0  0  0
   -5.7860   16.7950  -31.9140 C   0  0  0  0  0  0  0  0  0  0  0  0
   -6.2400   16.7480  -33.2130 C   0  0  0  0  0  0  0  0  0  0  0  0
   -6.9270   17.8780  -33.4490 N   0  0  0  0  0  0  0  0  0  0  0  0
   -2.3333   22.0833  -31.4901 H   0  0  0  0  0  0  0  0  0  0  0  0
   -2.6724   21.0935  -32.9502 H   0  0  0  0  0  0  0  0  0  0  0  0
   -3.0442   22.8509  -32.9502 H   0  0  0  0  0  0  0  0  0  0  0  0
   -5.5274   21.3380  -30.1011 H   0  0  0  0  0  0  0  0  0  0  0  0
   -3.8283   21.8750  -29.8118 H   0  0  0  0  0  0  0  0  0  0  0  0
   -7.0913   23.0399  -29.3207 H   0  0  0  0  0  0  0  0  0  0  0  0
   -6.9017   23.2377  -32.5596 H   0  0  0  0  0  0  0  0  0  0  0  0
   -9.2953   23.3398  -31.8817 H   0  0  0  0  0  0  0  0  0  0  0  0
  -10.5400   21.2436  -31.3645 H   0  0  0  0  0  0  0  0  0  0  0  0
   -9.4063   19.0363  -31.5530 H   0  0  0  0  0  0  0  0  0  0  0  0
   -5.1897   16.0222  -31.4069 H   0  0  0  0  0  0  0  0  0  0  0  0
   -6.0704   15.9309  -33.9297 H   0  0  0  0  0  0  0  0  0  0  0  0
  1  2  1  0
  2  3  1  0
  3  4  1  0
  4  5  1  0
  5  6  2  0
  6  7  1  0
  7  8  1  0
  2  9  1  0
  9 10  2  0
  9 11  1  0
 11 12  2  0
 12 13  1  0
 13 14  2  0
 14 15  1  0
 15 16  2  0
 16 17  1  0
 17 18  1  0
 18 19  2  0
 19 20  1  0
 20 21  2  0
  8  4  2  0
 16 11  1  0
 21 17  1  0
  1 22  1  0
  1 23  1  0
  1 24  1  0
  3 25  1  0
  3 26  1  0
  5 27  1  0
 12 28  1  0
 13 29  1  0
 14 30  1  0
 15 31  1  0
 19 32  1  0
 20 33  1  0
M  END
>  <UniqueID>  (20) 
16

>  <SMILES>  (20) 
CN(Cc1cnsn1)C(=O)c1ccccc1-n1nccn1

>  <Energy>  (20) 
109.7706366909302

>  <Genealogy>  (20) 
CN(Cc1cnsn1)C(=O)c1ccccc1-n1nccn1 (3D coordinates assigned)
CN(Cc1cnsn1)C(=O)c1ccccc1-n1nccn1 (optimized conformer: 109.7706366909302 kcal/mol)

>  <smiles>  (20) 
CN(Cc1cnsn1)C(=O)c1ccccc1-n1nccn1

>  <score_type>  (20) 
oracle

>  <origin>  (20) 
adg

>  <m_score__min__energy>  (20) 
-7.6500000000000004

>  <m_primary>  (20) 
energy

$$$$
20:0
     RDKit          3D

 50 52  0  0  0  0  0  0  0  0999 V2000
   -2.3930   25.2800  -26.5720 C   0  0  0  0  0  0  0  0  0  0  0  0
   -1.4050   25.6420  -27.6770 C   0  0  0  0  0  0  0  0  0  0  0  0
   -2.0250   25.5300  -28.9600 O   0  0  0  0  0  0  0  0  0  0  0  0
   -2.4140   24.3300  -29.5750 C   0  0  0  0  0  0  0  0  0  0  0  0
   -3.6760   24.1490  -30.1710 C   0  0  0  0  0  0  0  0  0  0  0  0
   -4.0010   22.9350  -30.7840 C   0  0  0  0  0  0  0  0  0  0  0  0
   -3.0810   21.8740  -30.7940 C   0  0  0  0  0  0  0  0  0  0  0  0
   -3.3750   20.6260  -31.4470 N   0  0  0  0  0  0  0  0  0  0  0  0
   -2.4170   19.8620  -32.1960 C   0  0  0  0  0  0  0  0  0  0  0  0
   -1.2720   20.3280  -32.4380 O   0  0  0  0  0  0  0  0  0  0  0  0
   -2.8000   18.5300  -32.7730 C   0  0  0  0  0  0  0  0  0  0  0  0
   -4.2690   18.4130  -32.9040 N   0  0  0  0  0  0  0  0  0  0  0  0
   -4.7030   18.9210  -34.2140 C   0  0  0  0  0  0  0  0  0  0  0  0
   -6.2380   19.0250  -34.2520 C   0  0  0  0  0  0  0  0  0  0  0  0
   -6.9190   17.9440  -33.5090 N   0  0  0  0  0  0  0  0  0  0  0  0
   -7.6530   18.4910  -32.0160 S   0  0  0  0  0  0  0  0  0  0  0  0
   -8.9870   17.8200  -31.8500 O   0  0  0  0  0  0  0  0  0  0  0  0
   -6.7850   18.0870  -30.8570 O   0  0  0  0  0  0  0  0  0  0  0  0
   -7.8940   20.2300  -31.9560 C   0  0  0  0  0  0  0  0  0  0  0  0
   -9.0980   20.8760  -31.7230 C   0  0  0  0  0  0  0  0  0  0  0  0
   -8.9610   22.2650  -31.6090 C   0  0  0  0  0  0  0  0  0  0  0  0
   -7.6530   22.7110  -31.7470 C   0  0  0  0  0  0  0  0  0  0  0  0
   -6.6640   21.3740  -32.0070 S   0  0  0  0  0  0  0  0  0  0  0  0
   -6.1030   16.7290  -33.3310 C   0  0  0  0  0  0  0  0  0  0  0  0
   -4.7170   17.0130  -32.7120 C   0  0  0  0  0  0  0  0  0  0  0  0
   -1.8190   22.0620  -30.2130 C   0  0  0  0  0  0  0  0  0  0  0  0
   -1.4920   23.2790  -29.6080 C   0  0  0  0  0  0  0  0  0  0  0  0
   -1.9252   25.4514  -25.5913 H   0  0  0  0  0  0  0  0  0  0  0  0
   -3.2920   25.9071  -26.6641 H   0  0  0  0  0  0  0  0  0  0  0  0
   -2.6740   24.2205  -26.6641 H   0  0  0  0  0  0  0  0  0  0  0  0
   -1.0611   26.6765  -27.5303 H   0  0  0  0  0  0  0  0  0  0  0  0
   -0.5522   24.9487  -27.6325 H   0  0  0  0  0  0  0  0  0  0  0  0
   -4.4110   24.9673  -30.1545 H   0  0  0  0  0  0  0  0  0  0  0  0
   -4.9840   22.8102  -31.2617 H   0  0  0  0  0  0  0  0  0  0  0  0
   -4.3670   20.3030  -31.4530 H   0  0  0  0  0  0  0  0  0  0  0  0
   -2.3403   18.4225  -33.7665 H   0  0  0  0  0  0  0  0  0  0  0  0
   -2.4438   17.7390  -32.0967 H   0  0  0  0  0  0  0  0  0  0  0  0
   -4.2655   19.9161  -34.3827 H   0  0  0  0  0  0  0  0  0  0  0  0
   -4.3669   18.2294  -35.0006 H   0  0  0  0  0  0  0  0  0  0  0  0
   -6.5330   19.9893  -33.8126 H   0  0  0  0  0  0  0  0  0  0  0  0
   -6.5431   18.9368  -35.3052 H   0  0  0  0  0  0  0  0  0  0  0  0
  -10.0613   20.3519  -31.6366 H   0  0  0  0  0  0  0  0  0  0  0  0
   -9.8103   22.9400  -31.4271 H   0  0  0  0  0  0  0  0  0  0  0  0
   -7.3204   23.7582  -31.6953 H   0  0  0  0  0  0  0  0  0  0  0  0
   -6.6458   16.0368  -32.6705 H   0  0  0  0  0  0  0  0  0  0  0  0
   -5.9336   16.2996  -34.3294 H   0  0  0  0  0  0  0  0  0  0  0  0
   -4.7669   16.8065  -31.6327 H   0  0  0  0  0  0  0  0  0  0  0  0
   -3.9908   16.3637  -33.2230 H   0  0  0  0  0  0  0  0  0  0  0  0
   -1.0812   21.2464  -30.2334 H   0  0  0  0  0  0  0  0  0  0  0  0
   -0.4992   23.4114  -29.1532 H   0  0  0  0  0  0  0  0  0  0  0  0
  1  2  1  0
  2  3  1  0
  3  4  1  0
  4  5  2  0
  5  6  1  0
  6  7  2  0
  7  8  1  0
  8  9  1  0
  9 10  2  0
  9 11  1  0
 11 12  1  0
 12 13  1  0
 13 14  1  0
 14 15  1  0
 15 16  1  0
 16 17  2  0
 16 18  2  0
 16 19  1  0
 19 20  2  0
 20 21  1  0
 21 22  2  0
 22 23  1  0
 15 24  1  0
 24 25  1  0
  7 26  1  0
 26 27  2  0
 27  4  1  0
 25 12  1  0
 23 19  1  0
  1 28  1  0
  1 29  1  0
  1 30  1  0
  2 31  1  0
  2 32  1  0
  5 33  1  0
  6 34  1  0
  8 35  1  0
 11 36  1  0
 11 37  1  0
 13 38  1  0
 13 39  1  0
 14 40  1  0
 14 41  1  0
 20 42  1  0
 21 43  1  0
 22 44  1  0
 24 45  1  0
 24 46  1  0
 25 47  1  0
 25 48  1  0
 26 49  1  0
 27 50  1  0
M  END
>  <UniqueID>  (21) 
17

>  <SMILES>  (21) 
CCOc1ccc(NC(=O)CN2CCN(S(=O)(=O)c3cccs3)CC2)cc1

>  <Energy>  (21) 
85.89536411656098

>  <Genealogy>  (21) 
CCOc1ccc(NC(=O)CN2CCN(S(=O)(=O)c3cccs3)CC2)cc1 (3D coordinates assigned)
CCOc1ccc(NC(=O)CN2CCN(S(=O)(=O)c3cccs3)CC2)cc1 (nonaromatic ring conformer: 85.89536411656098 kcal/mol)

>  <smiles>  (21) 
CCOc1ccc(NC(=O)CN2CCN(S(=O)(=O)c3cccs3)CC2)cc1

>  <score_type>  (21) 
oracle

>  <origin>  (21) 
adg

>  <m_score__min__energy>  (21) 
-8.9000000000000004

>  <m_primary>  (21) 
energy

$$$$
21:0
     RDKit          3D

 25 27  0  0  0  0  0  0  0  0999 V2000
   -1.2858   26.2955  -24.8633 H   0  0  0  0  0  0  0  0  0  0  0  0
   -1.5210   25.9040  -25.8640 C   0  0  0  0  0  0  0  0  0  0  0  0
   -2.6500   25.1050  -26.0540 C   0  0  0  0  0  0  0  0  0  0  0  0
   -3.2993   24.8605  -25.2004 H   0  0  0  0  0  0  0  0  0  0  0  0
   -2.9570   24.6150  -27.3270 C   0  0  0  0  0  0  0  0  0  0  0  0
   -3.8389   23.9727  -27.4672 H   0  0  0  0  0  0  0  0  0  0  0  0
   -2.1480   24.9370  -28.4260 C   0  0  0  0  0  0  0  0  0  0  0  0
   -2.4840   24.3870  -29.7100 N   0  0  0  0  0  0  0  0  0  0  0  0
   -3.6270   24.4890  -30.3230 C   0  0  0  0  0  0  0  0  0  0  0  0
   -4.2520   25.6550  -30.6190 N   0  0  0  0  0  0  0  0  0  0  0  0
   -5.4100   25.3550  -31.1990 N   0  0  0  0  0  0  0  0  0  0  0  0
   -6.1040   26.0590  -31.5340 H   0  0  0  0  0  0  0  0  0  0  0  0
   -5.5250   24.0160  -31.2610 C   0  0  0  0  0  0  0  0  0  0  0  0
   -6.5740   23.2630  -31.7770 C   0  0  0  0  0  0  0  0  0  0  0  0
   -7.4625   23.7389  -32.2175 H   0  0  0  0  0  0  0  0  0  0  0  0
   -6.4450   21.8620  -31.7090 C   0  0  0  0  0  0  0  0  0  0  0  0
   -7.7180   20.8340  -32.3340 Cl  0  0  0  0  0  0  0  0  0  0  0  0
   -5.3280   21.2920  -31.1540 N   0  0  0  0  0  0  0  0  0  0  0  0
   -4.3020   22.0430  -30.6500 C   0  0  0  0  0  0  0  0  0  0  0  0
   -2.8990   21.2550  -29.9520 Cl  0  0  0  0  0  0  0  0  0  0  0  0
   -4.4200   23.4310  -30.7150 C   0  0  0  0  0  0  0  0  0  0  0  0
   -0.9940   25.7190  -28.2220 C   0  0  0  0  0  0  0  0  0  0  0  0
   -0.3298   25.9474  -29.0686 H   0  0  0  0  0  0  0  0  0  0  0  0
   -0.6900   26.2060  -26.9460 C   0  0  0  0  0  0  0  0  0  0  0  0
    0.2047   26.8277  -26.7944 H   0  0  0  0  0  0  0  0  0  0  0  0
  1  2  1  0
  2  3  2  0
  3  4  1  0
  3  5  1  0
  5  6  1  0
  5  7  2  0
  7  8  1  0
  8  9  2  0
  9 10  1  0
 10 11  1  0
 11 12  1  0
 11 13  1  0
 13 14  2  0
 14 15  1  0
 14 16  1  0
 16 17  1  0
 16 18  2  0
 18 19  1  0
 19 20  1  0
 19 21  2  0
  7 22  1  0
 22 23  1  0
 22 24  2  0
 24 25  1  0
 24  2  1  0
 21  9  1  0
 21 13  1  0
M  CHG  1  10  -1
M  END
>  <UniqueID>  (22) 
18

>  <SMILES>  (22) 
Clc1cc2[nH][n-]/c(=N\c3ccccc3)c2c(Cl)n1

>  <Energy>  (22) 
75.32138471046305

>  <Genealogy>  (22) 
Clc1cc2[nH][n-]c(=Nc3ccccc3)c2c(Cl)n1 (protonated)
Clc1cc2[nH][n-]/c(=N\c3ccccc3)c2c(Cl)n1 (cis-trans isomerization)
Clc1cc2[nH][n-]/c(=N\c3ccccc3)c2c(Cl)n1 (3D coordinates assigned)
Clc1cc2[nH][n-]/c(=N\c3ccccc3)c2c(Cl)n1 (optimized conformer: 75.32138471046305 kcal/mol)

>  <smiles>  (22) 
Clc1cc2[nH][nH]c(=Nc3ccccc3)c2c(Cl)n1

>  <score_type>  (22) 
oracle

>  <origin>  (22) 
adg

>  <m_score__min__energy>  (22) 
-8.1199999999999992

>  <m_primary>  (22) 
energy

$$$$
22:0
     RDKit          3D

 49 52  0  0  0  0  0  0  0  0999 V2000
   -2.2540   21.5020  -32.0180 C   0  0  0  0  0  0  0  0  0  0  0  0
   -1.7600   22.0560  -30.7060 C   0  0  0  0  0  0  0  0  0  0  0  0
   -0.6150   21.4790  -30.1270 C   0  0  0  0  0  0  0  0  0  0  0  0
   -0.1120   21.9520  -28.9150 C   0  0  0  0  0  0  0  0  0  0  0  0
   -0.7420   23.0080  -28.2630 C   0  0  0  0  0  0  0  0  0  0  0  0
   -1.8790   23.5950  -28.8190 C   0  0  0  0  0  0  0  0  0  0  0  0
   -2.4090   23.1360  -30.0430 C   0  0  0  0  0  0  0  0  0  0  0  0
   -3.6260   23.8050  -30.5800 C   0  0  0  0  0  0  0  0  0  0  0  0
   -4.5910   23.1500  -31.2630 N   0  0  0  0  0  0  0  0  0  0  0  0
   -5.4810   24.1180  -31.5520 C   0  0  0  0  0  0  0  0  0  0  0  0
   -6.7400   23.8980  -32.3410 C   0  0  0  0  0  0  0  0  0  0  0  0
   -7.9250   23.6960  -31.4650 N   0  0  0  0  0  0  0  0  0  0  0  0
   -7.6020   22.9910  -30.1980 C   0  0  0  0  0  0  0  0  0  0  0  0
   -7.0930   21.5610  -30.4500 C   0  0  0  0  0  0  0  0  0  0  0  0
   -7.7770   20.9650  -31.6010 N   0  0  0  0  0  0  0  0  0  0  0  0
   -7.1690   19.8770  -32.3240 C   0  0  0  0  0  0  0  0  0  0  0  0
   -7.6090   18.5560  -32.1280 C   0  0  0  0  0  0  0  0  0  0  0  0
   -7.0060   17.5000  -32.8170 C   0  0  0  0  0  0  0  0  0  0  0  0
   -5.9540   17.7490  -33.7030 C   0  0  0  0  0  0  0  0  0  0  0  0
   -5.1980   16.4220  -34.5650 Cl  0  0  0  0  0  0  0  0  0  0  0  0
   -5.5020   19.0580  -33.8970 C   0  0  0  0  0  0  0  0  0  0  0  0
   -6.1030   20.1170  -33.2090 C   0  0  0  0  0  0  0  0  0  0  0  0
   -9.0910   21.4900  -31.9800 C   0  0  0  0  0  0  0  0  0  0  0  0
   -9.0280   23.0170  -32.2050 C   0  0  0  0  0  0  0  0  0  0  0  0
   -5.0360   25.3170  -31.0480 C   0  0  0  0  0  0  0  0  0  0  0  0
   -3.8920   25.0880  -30.4540 O   0  0  0  0  0  0  0  0  0  0  0  0
   -2.9749   20.6935  -31.8265 H   0  0  0  0  0  0  0  0  0  0  0  0
   -2.7441   22.3018  -32.5925 H   0  0  0  0  0  0  0  0  0  0  0  0
   -1.4034   21.1064  -32.5925 H   0  0  0  0  0  0  0  0  0  0  0  0
   -0.1103   20.6448  -30.6362 H   0  0  0  0  0  0  0  0  0  0  0  0
    0.7836   21.4899  -28.4740 H   0  0  0  0  0  0  0  0  0  0  0  0
   -0.3429   23.3803  -27.3080 H   0  0  0  0  0  0  0  0  0  0  0  0
   -2.3696   24.4284  -28.2949 H   0  0  0  0  0  0  0  0  0  0  0  0
   -6.9166   24.7770  -32.9784 H   0  0  0  0  0  0  0  0  0  0  0  0
   -6.6061   22.9870  -32.9427 H   0  0  0  0  0  0  0  0  0  0  0  0
   -8.2750   24.6480  -31.2030 H   0  0  0  0  0  0  0  0  0  0  0  0
   -6.8236   23.5566  -29.6649 H   0  0  0  0  0  0  0  0  0  0  0  0
   -8.5234   22.9243  -29.6009 H   0  0  0  0  0  0  0  0  0  0  0  0
   -6.0115   21.5920  -30.6485 H   0  0  0  0  0  0  0  0  0  0  0  0
   -7.2992   20.9492  -29.5594 H   0  0  0  0  0  0  0  0  0  0  0  0
   -8.4328   18.3524  -31.4281 H   0  0  0  0  0  0  0  0  0  0  0  0
   -7.3602   16.4703  -32.6616 H   0  0  0  0  0  0  0  0  0  0  0  0
   -4.6724   19.2551  -34.5919 H   0  0  0  0  0  0  0  0  0  0  0  0
   -5.7395   21.1440  -33.3611 H   0  0  0  0  0  0  0  0  0  0  0  0
   -9.4199   21.0019  -32.9093 H   0  0  0  0  0  0  0  0  0  0  0  0
   -9.8014   21.2827  -31.1662 H   0  0  0  0  0  0  0  0  0  0  0  0
   -8.8881   23.2024  -33.2802 H   0  0  0  0  0  0  0  0  0  0  0  0
   -9.9711   23.4336  -31.8216 H   0  0  0  0  0  0  0  0  0  0  0  0
   -5.5462   26.2882  -31.1288 H   0  0  0  0  0  0  0  0  0  0  0  0
  1  2  1  0
  2  3  2  0
  3  4  1  0
  4  5  2  0
  5  6  1  0
  6  7  2  0
  7  8  1  0
  8  9  2  0
  9 10  1  0
 10 11  1  0
 11 12  1  0
 12 13  1  0
 13 14  1  0
 14 15  1  0
 15 16  1  0
 16 17  2  0
 17 18  1  0
 18 19  2  0
 19 20  1  0
 19 21  1  0
 21 22  2  0
 15 23  1  0
 23 24  1  0
 10 25  2  0
 25 26  1  0
  7  2  1  0
 26  8  1  0
 24 12  1  0
 22 16  1  0
  1 27  1  0
  1 28  1  0
  1 29  1  0
  3 30  1  0
  4 31  1  0
  5 32  1  0
  6 33  1  0
 11 34  1  0
 11 35  1  0
 12 36  1  0
 13 37  1  0
 13 38  1  0
 14 39  1  0
 14 40  1  0
 17 41  1  0
 18 42  1  0
 21 43  1  0
 22 44  1  0
 23 45  1  0
 23 46  1  0
 24 47  1  0
 24 48  1  0
 25 49  1  0
M  CHG  1  12   1
M  END
>  <UniqueID>  (23) 
19

>  <SMILES>  (23) 
Cc1ccccc1-c1nc(C[NH+]2CCN(c3ccc(Cl)cc3)CC2)co1

>  <Energy>  (23) 
97.2313232640207

>  <Genealogy>  (23) 
Cc1ccccc1-c1nc(C[NH+]2CCN(c3ccc(Cl)cc3)CC2)co1 (protonated)
Cc1ccccc1-c1nc(C[NH+]2CCN(c3ccc(Cl)cc3)CC2)co1 (3D coordinates assigned)
Cc1ccccc1-c1nc(C[NH+]2CCN(c3ccc(Cl)cc3)CC2)co1 (nonaromatic ring conformer: 97.2313232640207 kcal/mol)

>  <smiles>  (23) 
Cc1ccccc1-c1nc(CN2CCN(c3ccc(Cl)cc3)CC2)co1

>  <score_type>  (23) 
oracle

>  <origin>  (23) 
adg

>  <m_score__min__energy>  (23) 
-7.9199999999999999

>  <m_primary>  (23) 
energy

$$$$
23:0
     RDKit          3D

 32 34  0  0  0  0  0  0  0  0999 V2000
   -8.4972   23.8848  -32.7810 H   0  0  0  0  0  0  0  0  0  0  0  0
   -8.1060   23.2620  -31.9630 C   0  0  0  0  0  0  0  0  0  0  0  0
   -8.7750   22.1430  -31.6430 C   0  0  0  0  0  0  0  0  0  0  0  0
   -9.7151   22.2434  -31.0807 H   0  0  0  0  0  0  0  0  0  0  0  0
   -8.3180   20.7780  -32.0050 C   0  0  0  0  0  0  0  0  0  0  0  0
   -8.8810   19.6240  -31.4270 C   0  0  0  0  0  0  0  0  0  0  0  0
   -9.6922   19.7166  -30.6899 H   0  0  0  0  0  0  0  0  0  0  0  0
   -8.4080   18.3630  -31.7910 C   0  0  0  0  0  0  0  0  0  0  0  0
   -8.8516   17.4599  -31.3465 H   0  0  0  0  0  0  0  0  0  0  0  0
   -7.3710   18.2470  -32.7200 C   0  0  0  0  0  0  0  0  0  0  0  0
   -6.8780   16.9910  -33.1030 C   0  0  0  0  0  0  0  0  0  0  0  0
   -7.3122   16.0760  -32.6738 H   0  0  0  0  0  0  0  0  0  0  0  0
   -5.8350   16.9010  -34.0300 C   0  0  0  0  0  0  0  0  0  0  0  0
   -5.4499   15.9150  -34.3293 H   0  0  0  0  0  0  0  0  0  0  0  0
   -5.2810   18.0620  -34.5770 C   0  0  0  0  0  0  0  0  0  0  0  0
   -4.4605   17.9865  -35.3058 H   0  0  0  0  0  0  0  0  0  0  0  0
   -5.7650   19.3180  -34.2020 C   0  0  0  0  0  0  0  0  0  0  0  0
   -5.3244   20.2277  -34.6360 H   0  0  0  0  0  0  0  0  0  0  0  0
   -6.8130   19.4220  -33.2720 C   0  0  0  0  0  0  0  0  0  0  0  0
   -7.2920   20.6440  -32.8980 N   0  0  0  0  0  0  0  0  0  0  0  0
   -6.8690   21.5060  -33.3170 H   0  0  0  0  0  0  0  0  0  0  0  0
   -6.8680   23.7060  -31.2750 C   0  0  0  0  0  0  0  0  0  0  0  0
   -5.6660   23.0320  -31.5530 C   0  0  0  0  0  0  0  0  0  0  0  0
   -5.6608   22.2011  -32.2738 H   0  0  0  0  0  0  0  0  0  0  0  0
   -4.4770   23.4090  -30.9210 C   0  0  0  0  0  0  0  0  0  0  0  0
   -3.5407   22.8805  -31.1535 H   0  0  0  0  0  0  0  0  0  0  0  0
   -4.4750   24.4540  -29.9960 C   0  0  0  0  0  0  0  0  0  0  0  0
   -3.5375   24.7520  -29.5038 H   0  0  0  0  0  0  0  0  0  0  0  0
   -5.6650   25.1210  -29.6960 C   0  0  0  0  0  0  0  0  0  0  0  0
   -5.6640   25.9408  -28.9626 H   0  0  0  0  0  0  0  0  0  0  0  0
   -6.8580   24.7500  -30.3250 C   0  0  0  0  0  0  0  0  0  0  0  0
   -7.7929   25.2744  -30.0781 H   0  0  0  0  0  0  0  0  0  0  0  0
  1  2  1  0
  2  3  2  0
  3  4  1  0
  3  5  1  0
  5  6  2  0
  6  7  1  0
  6  8  1  0
  8  9  1  0
  8 10  2  0
 10 11  1  0
 11 12  1  0
 11 13  2  0
 13 14  1  0
 13 15  1  0
 15 16  1  0
 15 17  2  0
 17 18  1  0
 17 19  1  0
 19 20  2  0
 20 21  1  0
  2 22  1  0
 22 23  2  0
 23 24  1  0
 23 25  1  0
 25 26  1  0
 25 27  2  0
 27 28  1  0
 27 29  1  0
 29 30  1  0
 29 31  2  0
 31 32  1  0
 20  5  1  0
 31 22  1  0
 19 10  1  0
M  CHG  1  20   1
M  END
>  <UniqueID>  (24) 
20

>  <SMILES>  (24) 
C(=C/c1ccc2ccccc2[nH+]1)\c1ccccc1

>  <Energy>  (24) 
43.14346996124563

>  <Genealogy>  (24) 
C(=Cc1ccc2ccccc2[nH+]1)c1ccccc1 (protonated)
C(=C/c1ccc2ccccc2[nH+]1)\c1ccccc1 (cis-trans isomerization)
C(=C/c1ccc2ccccc2[nH+]1)\c1ccccc1 (3D coordinates assigned)
C(=C/c1ccc2ccccc2[nH+]1)\c1ccccc1 (optimized conformer: 43.14346996124563 kcal/mol)

>  <smiles>  (24) 
C(=Cc1ccc2ccccc2n1)c1ccccc1

>  <score_type>  (24) 
oracle

>  <origin>  (24) 
adg

>  <m_score__min__energy>  (24) 
-7.5899999999999999

>  <m_primary>  (24) 
energy

$$$$
24:0
     RDKit          3D

 43 45  0  0  0  0  0  0  0  0999 V2000
   -9.0420   20.3530  -32.3430 C   0  0  0  0  0  0  0  0  0  0  0  0
   -9.2510   21.5590  -31.4290 C   0  0  0  0  0  0  0  0  0  0  0  0
   -8.5720   22.8370  -31.9520 C   0  0  0  0  0  0  0  0  0  0  0  0
   -7.0420   22.7490  -32.1070 C   0  0  0  0  0  0  0  0  0  0  0  0
   -6.2460   22.9820  -30.8010 C   0  0  2  0  0  0  0  0  0  0  0  0
   -6.9500   24.0440  -29.9200 C   0  0  0  0  0  0  0  0  0  0  0  0
   -6.1970   25.3610  -30.1350 C   0  0  0  0  0  0  0  0  0  0  0  0
   -4.9190   24.9090  -30.7150 C   0  0  0  0  0  0  0  0  0  0  0  0
   -3.9110   25.6530  -30.8450 O   0  0  0  0  0  0  0  0  0  0  0  0
   -4.9270   23.5400  -31.0910 N   0  0  0  0  0  0  0  0  0  0  0  0
   -3.7050   22.7370  -31.1880 C   0  0  0  0  0  0  0  0  0  0  0  0
   -3.8930   21.6080  -32.1540 C   0  0  0  0  0  0  0  0  0  0  0  0
   -3.2050   21.4910  -33.3060 N   0  0  0  0  0  0  0  0  0  0  0  0
   -3.6440   20.3940  -33.8420 O   0  0  0  0  0  0  0  0  0  0  0  0
   -4.5530   19.8510  -33.0660 C   0  0  0  0  0  0  0  0  0  0  0  0
   -5.2630   18.5940  -33.3680 C   0  0  0  0  0  0  0  0  0  0  0  0
   -4.7090   17.6560  -34.2580 C   0  0  0  0  0  0  0  0  0  0  0  0
   -5.3880   16.4660  -34.5420 C   0  0  0  0  0  0  0  0  0  0  0  0
   -6.6230   16.2050  -33.9430 C   0  0  0  0  0  0  0  0  0  0  0  0
   -7.1820   17.1340  -33.0600 C   0  0  0  0  0  0  0  0  0  0  0  0
   -6.5060   18.3230  -32.7730 C   0  0  0  0  0  0  0  0  0  0  0  0
   -4.7570   20.5910  -31.9580 N   0  0  0  0  0  0  0  0  0  0  0  0
   -8.8859   19.4521  -31.7314 H   0  0  0  0  0  0  0  0  0  0  0  0
   -9.9298   20.2159  -32.9779 H   0  0  0  0  0  0  0  0  0  0  0  0
   -8.1599   20.5226  -32.9779 H   0  0  0  0  0  0  0  0  0  0  0  0
  -10.3310   21.7477  -31.3397 H   0  0  0  0  0  0  0  0  0  0  0  0
   -8.7936   21.3181  -30.4580 H   0  0  0  0  0  0  0  0  0  0  0  0
   -9.0011   23.0718  -32.9373 H   0  0  0  0  0  0  0  0  0  0  0  0
   -8.7585   23.6137  -31.1958 H   0  0  0  0  0  0  0  0  0  0  0  0
   -6.7930   21.7468  -32.4860 H   0  0  0  0  0  0  0  0  0  0  0  0
   -6.7523   23.5562  -32.7959 H   0  0  0  0  0  0  0  0  0  0  0  0
   -6.1755   22.0068  -30.2970 H   0  0  0  0  0  0  0  0  0  0  0  0
   -8.0011   24.1537  -30.2251 H   0  0  0  0  0  0  0  0  0  0  0  0
   -6.9396   23.7499  -28.8601 H   0  0  0  0  0  0  0  0  0  0  0  0
   -6.7383   26.0190  -30.8307 H   0  0  0  0  0  0  0  0  0  0  0  0
   -6.0757   25.9512  -29.2147 H   0  0  0  0  0  0  0  0  0  0  0  0
   -2.8790   23.3756  -31.5343 H   0  0  0  0  0  0  0  0  0  0  0  0
   -3.4736   22.3211  -30.1963 H   0  0  0  0  0  0  0  0  0  0  0  0
   -3.7377   17.8589  -34.7328 H   0  0  0  0  0  0  0  0  0  0  0  0
   -4.9491   15.7354  -35.2374 H   0  0  0  0  0  0  0  0  0  0  0  0
   -7.1555   15.2687  -34.1660 H   0  0  0  0  0  0  0  0  0  0  0  0
   -8.1554   16.9286  -32.5905 H   0  0  0  0  0  0  0  0  0  0  0  0
   -6.9498   19.0505  -32.0774 H   0  0  0  0  0  0  0  0  0  0  0  0
  1  2  1  0
  2  3  1  0
  3  4  1  0
  4  5  1  0
  5  6  1  0
  6  7  1  0
  7  8  1  0
  8  9  2  0
  8 10  1  0
 10 11  1  0
 11 12  1  0
 12 13  2  0
 13 14  1  0
 14 15  1  0
 15 16  1  0
 16 17  2  0
 17 18  1  0
 18 19  2  0
 19 20  1  0
 20 21  2  0
 15 22  2  0
 10  5  1  0
 22 12  1  0
 21 16  1  0
  1 23  1  0
  1 24  1  0
  1 25  1  0
  2 26  1  0
  2 27  1  0
  3 28  1  0
  3 29  1  0
  4 30  1  0
  4 31  1  0
  5 32  1  1
  6 33  1  0
  6 34  1  0
  7 35  1  0
  7 36  1  0
 11 37  1  0
 11 38  1  0
 17 39  1  0
 18 40  1  0
 19 41  1  0
 20 42  1  0
 21 43  1  0
M  END
>  <UniqueID>  (25) 
21

>  <SMILES>  (25) 
CCCC[C@@H]1CCC(=O)N1Cc1noc(-c2ccccc2)n1

>  <Energy>  (25) 
76.24775294556764

>  <Genealogy>  (25) 
CCCC[C@@H]1CCC(=O)N1Cc1noc(-c2ccccc2)n1 (chirality)
CCCC[C@@H]1CCC(=O)N1Cc1noc(-c2ccccc2)n1 (3D coordinates assigned)
CCCC[C@@H]1CCC(=O)N1Cc1noc(-c2ccccc2)n1 (nonaromatic ring conformer: 76.24775294556764 kcal/mol)

>  <smiles>  (25) 
CCCCC1CCC(=O)N1Cc1noc(-c2ccccc2)n1

>  <score_type>  (25) 
oracle

>  <origin>  (25) 
adg

>  <m_score__min__energy>  (25) 
-8.5800000000000001

>  <m_primary>  (25) 
energy

$$$$
25:0
     RDKit          3D

 51 53  0  0  0  0  0  0  0  0999 V2000
   -8.7340   19.1890  -31.7150 C   0  0  0  0  0  0  0  0  0  0  0  0
   -8.3880   20.6610  -31.4630 C   0  0  0  0  0  0  0  0  0  0  0  0
   -7.0900   21.0580  -32.0740 N   0  0  0  0  0  0  0  0  0  0  0  0
   -6.9050   20.4120  -33.3990 C   0  0  0  0  0  0  0  0  0  0  0  0
   -5.7470   19.4070  -33.4170 C   0  0  0  0  0  0  0  0  0  0  0  0
   -6.9200   22.5400  -32.0960 C   0  0  0  0  0  0  0  0  0  0  0  0
   -6.1820   23.1600  -30.8860 C   0  0  0  0  0  0  0  0  0  0  0  0
   -4.7520   22.8550  -30.8970 N   0  0  0  0  0  0  0  0  0  0  0  0
   -3.6860   23.7440  -30.6240 C   0  0  0  0  0  0  0  0  0  0  0  0
   -3.8300   24.9890  -30.5060 O   0  0  0  0  0  0  0  0  0  0  0  0
   -2.4340   23.0930  -30.4630 N   0  0  0  0  0  0  0  0  0  0  0  0
   -2.6510   21.6490  -30.6340 C   0  0  0  0  0  0  0  0  0  0  0  0
   -2.2600   20.8730  -29.3780 C   0  0  0  0  0  0  0  0  0  0  0  0
   -3.0790   20.8660  -28.2280 C   0  0  0  0  0  0  0  0  0  0  0  0
   -2.7170   20.1180  -27.1030 C   0  0  0  0  0  0  0  0  0  0  0  0
   -1.5480   19.3550  -27.1130 C   0  0  0  0  0  0  0  0  0  0  0  0
   -0.7410   19.3310  -28.2500 C   0  0  0  0  0  0  0  0  0  0  0  0
   -1.0960   20.0750  -29.3790 C   0  0  0  0  0  0  0  0  0  0  0  0
   -1.8340   21.1900  -31.8440 C   0  0  0  0  0  0  0  0  0  0  0  0
   -2.4700   20.4120  -32.8320 C   0  0  0  0  0  0  0  0  0  0  0  0
   -1.7700   19.9770  -33.9600 C   0  0  0  0  0  0  0  0  0  0  0  0
   -0.4260   20.3170  -34.1250 C   0  0  0  0  0  0  0  0  0  0  0  0
    0.2180   21.0960  -33.1640 C   0  0  0  0  0  0  0  0  0  0  0  0
   -0.4770   21.5360  -32.0330 C   0  0  0  0  0  0  0  0  0  0  0  0
   -4.1500   21.5700  -30.8310 C   0  0  0  0  0  0  0  0  0  0  0  0
   -4.8120   20.4980  -30.8680 O   0  0  0  0  0  0  0  0  0  0  0  0
   -8.8558   18.6710  -30.7523 H   0  0  0  0  0  0  0  0  0  0  0  0
   -9.6716   19.1254  -32.2868 H   0  0  0  0  0  0  0  0  0  0  0  0
   -7.9229   18.7144  -32.2868 H   0  0  0  0  0  0  0  0  0  0  0  0
   -9.1845   21.2880  -31.8901 H   0  0  0  0  0  0  0  0  0  0  0  0
   -8.3001   20.8005  -30.3754 H   0  0  0  0  0  0  0  0  0  0  0  0
   -6.3280   20.7020  -31.4480 H   0  0  0  0  0  0  0  0  0  0  0  0
   -7.8325   19.8834  -33.6642 H   0  0  0  0  0  0  0  0  0  0  0  0
   -6.6645   21.2053  -34.1221 H   0  0  0  0  0  0  0  0  0  0  0  0
   -5.4609   19.1587  -32.3843 H   0  0  0  0  0  0  0  0  0  0  0  0
   -6.0634   18.4924  -33.9398 H   0  0  0  0  0  0  0  0  0  0  0  0
   -4.8860   19.8490  -33.9398 H   0  0  0  0  0  0  0  0  0  0  0  0
   -6.3547   22.7997  -33.0032 H   0  0  0  0  0  0  0  0  0  0  0  0
   -7.9386   22.9540  -32.0637 H   0  0  0  0  0  0  0  0  0  0  0  0
   -6.3117   24.2520  -30.9133 H   0  0  0  0  0  0  0  0  0  0  0  0
   -6.6126   22.7290  -29.9702 H   0  0  0  0  0  0  0  0  0  0  0  0
   -4.0090   21.4534  -28.2167 H   0  0  0  0  0  0  0  0  0  0  0  0
   -3.3555   20.1310  -26.2074 H   0  0  0  0  0  0  0  0  0  0  0  0
   -1.2635   18.7728  -26.2241 H   0  0  0  0  0  0  0  0  0  0  0  0
    0.1771   18.7252  -28.2585 H   0  0  0  0  0  0  0  0  0  0  0  0
   -0.4618   20.0381  -30.2770 H   0  0  0  0  0  0  0  0  0  0  0  0
   -3.5303   20.1440  -32.7136 H   0  0  0  0  0  0  0  0  0  0  0  0
   -2.2788   19.3654  -34.7197 H   0  0  0  0  0  0  0  0  0  0  0  0
    0.1245   19.9708  -35.0122 H   0  0  0  0  0  0  0  0  0  0  0  0
    1.2763   21.3653  -33.2961 H   0  0  0  0  0  0  0  0  0  0  0  0
    0.0370   22.1566  -31.2842 H   0  0  0  0  0  0  0  0  0  0  0  0
  1  2  1  0
  2  3  1  0
  3  4  1  0
  4  5  1  0
  3  6  1  0
  6  7  1  0
  7  8  1  0
  8  9  1  0
  9 10  2  0
  9 11  1  0
 11 12  1  0
 12 13  1  0
 13 14  2  0
 14 15  1  0
 15 16  2  0
 16 17  1  0
 17 18  2  0
 12 19  1  0
 19 20  2  0
 20 21  1  0
 21 22  2  0
 22 23  1  0
 23 24  2  0
 12 25  1  0
 25 26  2  0
 25  8  1  0
 18 13  1  0
 24 19  1  0
  1 27  1  0
  1 28  1  0
  1 29  1  0
  2 30  1  0
  2 31  1  0
  3 32  1  0
  4 33  1  0
  4 34  1  0
  5 35  1  0
  5 36  1  0
  5 37  1  0
  6 38  1  0
  6 39  1  0
  7 40  1  0
  7 41  1  0
 14 42  1  0
 15 43  1  0
 16 44  1  0
 17 45  1  0
 18 46  1  0
 20 47  1  0
 21 48  1  0
 22 49  1  0
 23 50  1  0
 24 51  1  0
M  CHG  2   3   1  11  -1
M  END
>  <UniqueID>  (26) 
22

>  <SMILES>  (26) 
CC[NH+](CC)CCN1C(=O)[N-]C(c2ccccc2)(c2ccccc2)C1=O

>  <Energy>  (26) 
80.05499554344586

>  <Genealogy>  (26) 
CC[NH+](CC)CCN1C(=O)[N-]C(c2ccccc2)(c2ccccc2)C1=O (protonated)
CC[NH+](CC)CCN1C(=O)[N-]C(c2ccccc2)(c2ccccc2)C1=O (3D coordinates assigned)
CC[NH+](CC)CCN1C(=O)[N-]C(c2ccccc2)(c2ccccc2)C1=O (nonaromatic ring conformer: 80.05499554344586 kcal/mol)

>  <smiles>  (26) 
CCN(CC)CCN1C(=O)NC(c2ccccc2)(c2ccccc2)C1=O

>  <score_type>  (26) 
oracle

>  <origin>  (26) 
adg

>  <m_score__min__energy>  (26) 
-7.7599999999999998

>  <m_primary>  (26) 
energy

$$$$
26:0
     RDKit          3D

 49 51  0  0  0  0  0  0  0  0999 V2000
   -1.1766   20.7518  -33.4097 H   0  0  0  0  0  0  0  0  0  0  0  0
   -2.0860   20.8690  -32.8020 C   0  0  0  0  0  0  0  0  0  0  0  0
   -3.2290   21.1420  -33.4490 C   0  0  0  0  0  0  0  0  0  0  0  0
   -3.1602   21.7210  -34.3818 H   0  0  0  0  0  0  0  0  0  0  0  0
   -4.5760   20.7220  -33.0010 C   0  0  0  0  0  0  0  0  0  0  0  0
   -5.0210   19.4400  -33.1020 N   0  0  0  0  0  0  0  0  0  0  0  0
   -6.2860   19.5180  -32.6540 C   0  0  0  0  0  0  0  0  0  0  0  0
   -7.2130   18.4820  -32.5490 C   0  0  0  0  0  0  0  0  0  0  0  0
   -6.9498   17.4522  -32.8324 H   0  0  0  0  0  0  0  0  0  0  0  0
   -8.4970   18.7990  -32.0680 C   0  0  0  0  0  0  0  0  0  0  0  0
   -9.4310   17.8240  -31.9490 F   0  0  0  0  0  0  0  0  0  0  0  0
   -8.8190   20.1290  -31.7140 C   0  0  0  0  0  0  0  0  0  0  0  0
   -9.8266   20.3659  -31.3418 H   0  0  0  0  0  0  0  0  0  0  0  0
   -7.8610   21.1520  -31.8340 C   0  0  0  0  0  0  0  0  0  0  0  0
   -8.0996   22.1911  -31.5631 H   0  0  0  0  0  0  0  0  0  0  0  0
   -6.5950   20.8000  -32.3100 C   0  0  0  0  0  0  0  0  0  0  0  0
   -5.5210   21.5810  -32.5260 N   0  0  0  0  0  0  0  0  0  0  0  0
   -5.4290   23.0340  -32.3440 C   0  0  0  0  0  0  0  0  0  0  0  0
   -6.3387   23.5053  -32.7444 H   0  0  0  0  0  0  0  0  0  0  0  0
   -4.5396   23.3992  -32.8784 H   0  0  0  0  0  0  0  0  0  0  0  0
   -5.2900   23.3920  -30.8620 C   0  0  0  0  0  0  0  0  0  0  0  0
   -4.7731   22.5753  -30.3368 H   0  0  0  0  0  0  0  0  0  0  0  0
   -6.2911   23.5382  -30.4303 H   0  0  0  0  0  0  0  0  0  0  0  0
   -4.5080   24.6440  -30.7140 N   0  0  0  0  0  0  0  0  0  0  0  0
   -3.3960   24.5320  -29.7470 C   0  0  0  0  0  0  0  0  0  0  0  0
   -2.8847   25.5031  -29.6721 H   0  0  0  0  0  0  0  0  0  0  0  0
   -2.6997   23.7573  -30.1005 H   0  0  0  0  0  0  0  0  0  0  0  0
   -3.9120   24.1310  -28.3670 C   0  0  0  0  0  0  0  0  0  0  0  0
   -3.2958   24.6099  -27.5918 H   0  0  0  0  0  0  0  0  0  0  0  0
   -4.9571   24.4563  -28.2575 H   0  0  0  0  0  0  0  0  0  0  0  0
   -3.8548   23.0380  -28.2575 H   0  0  0  0  0  0  0  0  0  0  0  0
   -5.3580   25.8340  -30.4780 C   0  0  0  0  0  0  0  0  0  0  0  0
   -4.7663   26.5787  -29.9254 H   0  0  0  0  0  0  0  0  0  0  0  0
   -5.6790   26.1991  -31.4648 H   0  0  0  0  0  0  0  0  0  0  0  0
   -6.6330   25.5360  -29.6750 C   0  0  0  0  0  0  0  0  0  0  0  0
   -6.4094   25.5883  -28.5992 H   0  0  0  0  0  0  0  0  0  0  0  0
   -7.4058   26.2777  -29.9253 H   0  0  0  0  0  0  0  0  0  0  0  0
   -6.9969   24.5286  -29.9253 H   0  0  0  0  0  0  0  0  0  0  0  0
   -1.9500   20.7130  -31.3390 C   0  0  0  0  0  0  0  0  0  0  0  0
   -0.8910   19.9770  -30.7770 C   0  0  0  0  0  0  0  0  0  0  0  0
   -0.1291   19.5271  -31.4306 H   0  0  0  0  0  0  0  0  0  0  0  0
   -0.8030   19.8150  -29.3910 C   0  0  0  0  0  0  0  0  0  0  0  0
    0.0375   19.2546  -28.9557 H   0  0  0  0  0  0  0  0  0  0  0  0
   -1.7830   20.3650  -28.5570 C   0  0  0  0  0  0  0  0  0  0  0  0
   -1.6710   20.1600  -26.8180 Cl  0  0  0  0  0  0  0  0  0  0  0  0
   -2.8560   21.0690  -29.1120 C   0  0  0  0  0  0  0  0  0  0  0  0
   -3.6314   21.4938  -28.4575 H   0  0  0  0  0  0  0  0  0  0  0  0
   -2.9450   21.2340  -30.4980 C   0  0  0  0  0  0  0  0  0  0  0  0
   -3.7994   21.7749  -30.9309 H   0  0  0  0  0  0  0  0  0  0  0  0
  1  2  1  0
  2  3  2  0
  3  4  1  0
  3  5  1  0
  5  6  2  0
  6  7  1  0
  7  8  2  0
  8  9  1  0
  8 10  1  0
 10 11  1  0
 10 12  2  0
 12 13  1  0
 12 14  1  0
 14 15  1  0
 14 16  2  0
 16 17  1  0
 17 18  1  0
 18 19  1  0
 18 20  1  0
 18 21  1  0
 21 22  1  0
 21 23  1  0
 21 24  1  0
 24 25  1  0
 25 26  1  0
 25 27  1  0
 25 28  1  0
 28 29  1  0
 28 30  1  0
 28 31  1  0
 24 32  1  0
 32 33  1  0
 32 34  1  0
 32 35  1  0
 35 36  1  0
 35 37  1  0
 35 38  1  0
  2 39  1  0
 39 40  2  0
 40 41  1  0
 40 42  1  0
 42 43  1  0
 42 44  2  0
 44 45  1  0
 44 46  1  0
 46 47  1  0
 46 48  2  0
 48 49  1  0
 17  5  1  0
 48 39  1  0
 16  7  1  0
M  END
>  <UniqueID>  (27) 
23

>  <SMILES>  (27) 
CCN(CC)CCn1c(/C=C\c2ccc(Cl)cc2)nc2cc(F)ccc21

>  <Energy>  (27) 
93.192608626412

>  <Genealogy>  (27) 
CCN(CC)CCn1c(/C=C\c2ccc(Cl)cc2)nc2cc(F)ccc21 (cis-trans isomerization)
CCN(CC)CCn1c(/C=C\c2ccc(Cl)cc2)nc2cc(F)ccc21 (3D coordinates assigned)
CCN(CC)CCn1c(/C=C\c2ccc(Cl)cc2)nc2cc(F)ccc21 (optimized conformer: 93.192608626412 kcal/mol)

>  <smiles>  (27) 
CCN(CC)CCn1c(C=Cc2ccc(Cl)cc2)nc2cc(F)ccc21

>  <score_type>  (27) 
oracle

>  <origin>  (27) 
adg

>  <m_score__min__energy>  (27) 
-8.0399999999999991

>  <m_primary>  (27) 
energy

$$$$
27:0
     RDKit          3D

 42 43  0  0  0  0  0  0  0  0999 V2000
   -4.2170   24.8970  -26.3850 C   0  0  0  0  0  0  0  0  0  0  0  0
   -2.7670   25.3600  -26.2450 C   0  0  0  0  0  0  0  0  0  0  0  0
   -1.7870   24.4500  -26.9970 C   0  0  0  0  0  0  0  0  0  0  0  0
   -1.3860   25.0400  -28.3140 C   0  0  0  0  0  0  0  0  0  0  0  0
   -0.1720   25.2900  -28.5410 O   0  0  0  0  0  0  0  0  0  0  0  0
   -2.3870   25.2950  -29.3080 N   0  0  0  0  0  0  0  0  0  0  0  0
   -3.1570   24.3100  -30.0110 C   0  0  0  0  0  0  0  0  0  0  0  0
   -4.5090   24.5130  -30.3350 C   0  0  0  0  0  0  0  0  0  0  0  0
   -5.2340   23.5170  -30.9970 C   0  0  0  0  0  0  0  0  0  0  0  0
   -4.6240   22.2970  -31.3410 C   0  0  0  0  0  0  0  0  0  0  0  0
   -5.4010   21.2440  -32.0370 C   0  0  0  0  0  0  0  0  0  0  0  0
   -6.6520   21.3640  -32.1460 O   0  0  0  0  0  0  0  0  0  0  0  0
   -4.7440   20.1070  -32.6210 N   0  0  0  0  0  0  0  0  0  0  0  0
   -5.4450   18.9150  -33.0150 C   0  0  0  0  0  0  0  0  0  0  0  0
   -6.6620   18.6050  -32.3910 C   0  0  0  0  0  0  0  0  0  0  0  0
   -7.3710   17.4560  -32.7490 C   0  0  0  0  0  0  0  0  0  0  0  0
   -6.8760   16.6140  -33.7440 C   0  0  0  0  0  0  0  0  0  0  0  0
   -5.6790   16.9230  -34.3950 C   0  0  0  0  0  0  0  0  0  0  0  0
   -4.9570   18.0840  -34.0480 C   0  0  0  0  0  0  0  0  0  0  0  0
   -3.7790   18.4490  -34.7190 O   0  0  0  0  0  0  0  0  0  0  0  0
   -2.4660   18.2910  -34.1910 C   0  0  0  0  0  0  0  0  0  0  0  0
   -3.2800   22.0870  -30.9820 C   0  0  0  0  0  0  0  0  0  0  0  0
   -2.5590   23.0830  -30.3180 C   0  0  0  0  0  0  0  0  0  0  0  0
   -4.6553   24.7570  -25.3859 H   0  0  0  0  0  0  0  0  0  0  0  0
   -4.7928   25.6560  -26.9349 H   0  0  0  0  0  0  0  0  0  0  0  0
   -4.2464   23.9448  -26.9349 H   0  0  0  0  0  0  0  0  0  0  0  0
   -2.6815   26.3802  -26.6475 H   0  0  0  0  0  0  0  0  0  0  0  0
   -2.5054   25.3246  -25.1772 H   0  0  0  0  0  0  0  0  0  0  0  0
   -0.8870   24.3081  -26.3806 H   0  0  0  0  0  0  0  0  0  0  0  0
   -2.2876   23.4894  -27.1886 H   0  0  0  0  0  0  0  0  0  0  0  0
   -4.9998   25.4602  -30.0666 H   0  0  0  0  0  0  0  0  0  0  0  0
   -6.2904   23.6891  -31.2509 H   0  0  0  0  0  0  0  0  0  0  0  0
   -3.7570   20.2200  -32.9440 H   0  0  0  0  0  0  0  0  0  0  0  0
   -7.0616   19.2722  -31.6131 H   0  0  0  0  0  0  0  0  0  0  0  0
   -8.3194   17.2156  -32.2462 H   0  0  0  0  0  0  0  0  0  0  0  0
   -7.4296   15.7036  -34.0173 H   0  0  0  0  0  0  0  0  0  0  0  0
   -5.2974   16.2569  -35.1828 H   0  0  0  0  0  0  0  0  0  0  0  0
   -2.5097   18.2963  -33.0919 H   0  0  0  0  0  0  0  0  0  0  0  0
   -2.0443   17.3356  -34.5366 H   0  0  0  0  0  0  0  0  0  0  0  0
   -1.8297   19.1191  -34.5366 H   0  0  0  0  0  0  0  0  0  0  0  0
   -2.7929   21.1313  -31.2259 H   0  0  0  0  0  0  0  0  0  0  0  0
   -1.5120   22.9007  -30.0342 H   0  0  0  0  0  0  0  0  0  0  0  0
  1  2  1  0
  2  3  1  0
  3  4  1  0
  4  5  2  0
  4  6  1  0
  6  7  1  0
  7  8  2  0
  8  9  1  0
  9 10  2  0
 10 11  1  0
 11 12  2  0
 11 13  1  0
 13 14  1  0
 14 15  2  0
 15 16  1  0
 16 17  2  0
 17 18  1  0
 18 19  2  0
 19 20  1  0
 20 21  1  0
 10 22  1  0
 22 23  2  0
 23  7  1  0
 19 14  1  0
  1 24  1  0
  1 25  1  0
  1 26  1  0
  2 27  1  0
  2 28  1  0
  3 29  1  0
  3 30  1  0
  8 31  1  0
  9 32  1  0
 13 33  1  0
 15 34  1  0
 16 35  1  0
 17 36  1  0
 18 37  1  0
 21 38  1  0
 21 39  1  0
 21 40  1  0
 22 41  1  0
 23 42  1  0
M  CHG  1   6  -1
M  END
>  <UniqueID>  (28) 
24

>  <SMILES>  (28) 
CCCC(=O)[N-]c1ccc(C(=O)Nc2ccccc2OC)cc1

>  <Energy>  (28) 
46.08509582934158

>  <Genealogy>  (28) 
CCCC(=O)[N-]c1ccc(C(=O)Nc2ccccc2OC)cc1 (protonated)
CCCC(=O)[N-]c1ccc(C(=O)Nc2ccccc2OC)cc1 (3D coordinates assigned)
CCCC(=O)[N-]c1ccc(C(=O)Nc2ccccc2OC)cc1 (optimized conformer: 46.08509582934158 kcal/mol)

>  <smiles>  (28) 
CCCC(=O)Nc1ccc(C(=O)Nc2ccccc2OC)cc1

>  <score_type>  (28) 
oracle

>  <origin>  (28) 
adg

>  <m_score__min__energy>  (28) 
-8.5999999999999996

>  <m_primary>  (28) 
energy

$$$$
28:0
     RDKit          3D

 45 46  0  0  0  0  0  0  0  0999 V2000
   -2.7150   19.8260  -27.2500 C   0  0  0  0  0  0  0  0  0  0  0  0
   -2.8390   20.6090  -28.4330 O   0  0  0  0  0  0  0  0  0  0  0  0
   -2.4490   21.9530  -28.5390 C   0  0  0  0  0  0  0  0  0  0  0  0
   -1.3890   22.4910  -27.7880 C   0  0  0  0  0  0  0  0  0  0  0  0
   -1.0530   23.8420  -27.9130 C   0  0  0  0  0  0  0  0  0  0  0  0
   -1.7600   24.6750  -28.7980 C   0  0  0  0  0  0  0  0  0  0  0  0
   -1.4600   26.0410  -28.9350 O   0  0  0  0  0  0  0  0  0  0  0  0
   -0.8630   26.8430  -27.9210 C   0  0  0  0  0  0  0  0  0  0  0  0
   -2.8000   24.1350  -29.5750 C   0  0  0  0  0  0  0  0  0  0  0  0
   -3.5170   25.0060  -30.4640 N   0  0  0  0  0  0  0  0  0  0  0  0
   -4.9310   25.2400  -30.4990 C   0  0  0  0  0  0  0  0  0  0  0  0
   -5.3940   26.4120  -30.4670 O   0  0  0  0  0  0  0  0  0  0  0  0
   -5.8720   24.0680  -30.5030 C   0  0  0  0  0  0  0  0  0  0  0  0
   -5.7500   23.2700  -31.7500 N   0  0  1  0  0  0  0  0  0  0  0  0
   -5.4460   21.8310  -31.4820 C   0  0  0  0  0  0  0  0  0  0  0  0
   -6.6270   20.8690  -31.7290 C   0  0  0  0  0  0  0  0  0  0  0  0
   -7.9530   21.4960  -31.2790 C   0  0  2  0  0  0  0  0  0  0  0  0
   -9.1130   20.5140  -31.4810 C   0  0  0  0  0  0  0  0  0  0  0  0
   -8.2170   22.8320  -32.0120 C   0  0  0  0  0  0  0  0  0  0  0  0
   -6.9380   23.4490  -32.6170 C   0  0  0  0  0  0  0  0  0  0  0  0
   -3.1500   22.7800  -29.4220 C   0  0  0  0  0  0  0  0  0  0  0  0
   -2.8178   20.4753  -26.3681 H   0  0  0  0  0  0  0  0  0  0  0  0
   -3.5028   19.0584  -27.2341 H   0  0  0  0  0  0  0  0  0  0  0  0
   -1.7286   19.3394  -27.2341 H   0  0  0  0  0  0  0  0  0  0  0  0
   -0.8223   21.8466  -27.0998 H   0  0  0  0  0  0  0  0  0  0  0  0
   -0.2288   24.2569  -27.3142 H   0  0  0  0  0  0  0  0  0  0  0  0
   -1.1502   26.4571  -26.9318 H   0  0  0  0  0  0  0  0  0  0  0  0
    0.2317   26.8094  -28.0240 H   0  0  0  0  0  0  0  0  0  0  0  0
   -1.2092   27.8820  -28.0240 H   0  0  0  0  0  0  0  0  0  0  0  0
   -5.6412   23.4226  -29.6427 H   0  0  0  0  0  0  0  0  0  0  0  0
   -6.9004   24.4536  -30.4418 H   0  0  0  0  0  0  0  0  0  0  0  0
   -4.9450   23.6650  -32.2940 H   0  0  0  0  0  0  0  0  0  0  0  0
   -5.1394   21.7351  -30.4300 H   0  0  0  0  0  0  0  0  0  0  0  0
   -4.6549   21.5421  -32.1896 H   0  0  0  0  0  0  0  0  0  0  0  0
   -6.4584   19.9405  -31.1637 H   0  0  0  0  0  0  0  0  0  0  0  0
   -6.6875   20.6594  -32.8072 H   0  0  0  0  0  0  0  0  0  0  0  0
   -7.8777   21.7176  -30.2042 H   0  0  0  0  0  0  0  0  0  0  0  0
   -9.4947   20.1909  -30.5013 H   0  0  0  0  0  0  0  0  0  0  0  0
   -9.9186   21.0088  -32.0433 H   0  0  0  0  0  0  0  0  0  0  0  0
   -8.7580   19.6378  -32.0433 H   0  0  0  0  0  0  0  0  0  0  0  0
   -8.6460   23.5470  -31.2945 H   0  0  0  0  0  0  0  0  0  0  0  0
   -8.9065   22.6216  -32.8429 H   0  0  0  0  0  0  0  0  0  0  0  0
   -7.1044   24.5259  -32.7677 H   0  0  0  0  0  0  0  0  0  0  0  0
   -6.7369   22.9310  -33.5663 H   0  0  0  0  0  0  0  0  0  0  0  0
   -3.9861   22.3664  -30.0049 H   0  0  0  0  0  0  0  0  0  0  0  0
  1  2  1  0
  2  3  1  0
  3  4  2  0
  4  5  1  0
  5  6  2  0
  6  7  1  0
  7  8  1  0
  6  9  1  0
  9 10  1  0
 10 11  1  0
 11 12  2  0
 11 13  1  0
 13 14  1  0
 14 15  1  0
 15 16  1  0
 16 17  1  0
 17 18  1  0
 17 19  1  0
 19 20  1  0
  9 21  2  0
 21  3  1  0
 20 14  1  0
  1 22  1  0
  1 23  1  0
  1 24  1  0
  4 25  1  0
  5 26  1  0
  8 27  1  0
  8 28  1  0
  8 29  1  0
 13 30  1  0
 13 31  1  0
 14 32  1  6
 15 33  1  0
 15 34  1  0
 16 35  1  0
 16 36  1  0
 17 37  1  1
 18 38  1  0
 18 39  1  0
 18 40  1  0
 19 41  1  0
 19 42  1  0
 20 43  1  0
 20 44  1  0
 21 45  1  0
M  CHG  2  10  -1  14   1
M  END
>  <UniqueID>  (29) 
25

>  <SMILES>  (29) 
COc1ccc(OC)c([N-]C(=O)C[NH+]2CCC(C)CC2)c1

>  <Energy>  (29) 
53.479255794467065

>  <Genealogy>  (29) 
COc1ccc(OC)c([N-]C(=O)C[NH+]2CCC(C)CC2)c1 (protonated)
COc1ccc(OC)c([N-]C(=O)C[NH+]2CCC(C)CC2)c1 (3D coordinates assigned)
COc1ccc(OC)c([N-]C(=O)C[NH+]2CCC(C)CC2)c1 (nonaromatic ring conformer: 53.479255794467065 kcal/mol)

>  <smiles>  (29) 
COc1ccc(OC)c(NC(=O)CN2CCC(C)CC2)c1

>  <score_type>  (29) 
oracle

>  <origin>  (29) 
adg

>  <m_score__min__energy>  (29) 
-8.6400000000000006

>  <m_primary>  (29) 
energy

$$$$
29:0
     RDKit          3D

 35 35  0  0  0  0  0  0  0  0999 V2000
    0.1208   19.6588  -27.2443 H   0  0  0  0  0  0  0  0  0  0  0  0
   -0.7630   20.2040  -27.6070 C   0  0  0  0  0  0  0  0  0  0  0  0
   -0.6740   20.8320  -28.7900 C   0  0  0  0  0  0  0  0  0  0  0  0
    0.0981   20.4851  -29.4925 H   0  0  0  0  0  0  0  0  0  0  0  0
   -2.4420   19.1080  -26.1400 C   0  0  0  0  0  0  0  0  0  0  0  0
   -1.7621   18.5653  -25.4668 H   0  0  0  0  0  0  0  0  0  0  0  0
   -3.8350   18.5830  -26.3110 C   0  0  0  0  0  0  0  0  0  0  0  0
   -4.2866   18.4128  -25.3225 H   0  0  0  0  0  0  0  0  0  0  0  0
   -4.4372   19.3158  -26.8680 H   0  0  0  0  0  0  0  0  0  0  0  0
   -3.8037   17.6350  -26.8680 H   0  0  0  0  0  0  0  0  0  0  0  0
   -1.9780   20.2000  -26.7600 C   0  0  0  0  0  0  0  0  0  0  0  0
   -2.5281   21.1441  -26.6337 H   0  0  0  0  0  0  0  0  0  0  0  0
   -1.5350   21.9550  -29.2210 C   0  0  0  0  0  0  0  0  0  0  0  0
   -2.6500   21.7430  -30.0410 C   0  0  0  0  0  0  0  0  0  0  0  0
   -2.9090   20.7193  -30.3493 H   0  0  0  0  0  0  0  0  0  0  0  0
   -3.4450   22.8210  -30.4770 C   0  0  0  0  0  0  0  0  0  0  0  0
   -4.5750   22.6010  -31.2810 O   0  0  0  0  0  0  0  0  0  0  0  0
   -4.5620   21.9680  -32.5560 C   0  0  0  0  0  0  0  0  0  0  0  0
   -4.5396   20.8763  -32.4231 H   0  0  0  0  0  0  0  0  0  0  0  0
   -5.4661   22.2509  -33.1150 H   0  0  0  0  0  0  0  0  0  0  0  0
   -3.6702   22.2877  -33.1150 H   0  0  0  0  0  0  0  0  0  0  0  0
   -3.0890   24.1410  -30.0970 C   0  0  0  0  0  0  0  0  0  0  0  0
   -3.8170   25.2870  -30.4740 O   0  0  0  0  0  0  0  0  0  0  0  0
   -5.2310   25.4400  -30.4480 C   0  0  0  0  0  0  0  0  0  0  0  0
   -5.5766   25.4774  -29.4044 H   0  0  0  0  0  0  0  0  0  0  0  0
   -5.5083   26.3734  -30.9598 H   0  0  0  0  0  0  0  0  0  0  0  0
   -5.7015   24.5875  -30.9598 H   0  0  0  0  0  0  0  0  0  0  0  0
   -1.9490   24.3530  -29.3040 C   0  0  0  0  0  0  0  0  0  0  0  0
   -1.6180   25.6730  -28.9580 O   0  0  0  0  0  0  0  0  0  0  0  0
   -0.9780   26.0570  -27.7450 C   0  0  0  0  0  0  0  0  0  0  0  0
   -1.5706   25.7014  -26.8892 H   0  0  0  0  0  0  0  0  0  0  0  0
    0.0276   25.6129  -27.7045 H   0  0  0  0  0  0  0  0  0  0  0  0
   -0.8966   27.1532  -27.7045 H   0  0  0  0  0  0  0  0  0  0  0  0
   -1.1740   23.2600  -28.8790 C   0  0  0  0  0  0  0  0  0  0  0  0
   -0.2741   23.4343  -28.2709 H   0  0  0  0  0  0  0  0  0  0  0  0
  1  2  1  0
  2  3  1  0
  3  4  1  0
  3  5  2  0
  5  6  1  0
  5  7  1  0
  7  8  1  0
  7  9  1  0
  7 10  1  0
  2 11  2  0
 11 12  1  0
 11 13  1  0
 13 14  2  0
 14 15  1  0
 14 16  1  0
 16 17  1  0
 17 18  1  0
 18 19  1  0
 18 20  1  0
 18 21  1  0
 16 22  2  0
 22 23  1  0
 23 24  1  0
 24 25  1  0
 24 26  1  0
 24 27  1  0
 22 28  1  0
 28 29  1  0
 29 30  1  0
 30 31  1  0
 30 32  1  0
 30 33  1  0
 28 34  2  0
 34 35  1  0
 34 13  1  0
M  END
>  <UniqueID>  (30) 
26

>  <SMILES>  (30) 
C/C=C\C=C/c1cc(OC)c(OC)c(OC)c1

>  <Energy>  (30) 
37.52693603461435

>  <Genealogy>  (30) 
C/C=C\C=C/c1cc(OC)c(OC)c(OC)c1 (cis-trans isomerization)
C/C=C\C=C/c1cc(OC)c(OC)c(OC)c1 (3D coordinates assigned)
C/C=C\C=C/c1cc(OC)c(OC)c(OC)c1 (optimized conformer: 37.52693603461435 kcal/mol)

>  <smiles>  (30) 
CC=CC=Cc1cc(OC)c(OC)c(OC)c1

>  <score_type>  (30) 
oracle

>  <origin>  (30) 
adg

>  <m_score__min__energy>  (30) 
-6.1200000000000001

>  <m_primary>  (30) 
energy

$$$$
30:0
     RDKit          3D

 47 49  0  0  0  0  0  0  0  0999 V2000
   -3.6590   24.2320  -27.3810 C   0  0  0  0  0  0  0  0  0  0  0  0
   -2.3710   24.5850  -28.1150 C   0  0  0  0  0  0  0  0  0  0  0  0
   -2.6670   25.2300  -29.3900 N   0  0  0  0  0  0  0  0  0  0  0  0
   -3.4920   24.6460  -30.4030 C   0  0  0  0  0  0  0  0  0  0  0  0
   -4.4930   25.2770  -30.8390 O   0  0  0  0  0  0  0  0  0  0  0  0
   -3.1290   23.3160  -31.0190 C   0  0  0  0  0  0  0  0  0  0  0  0
   -4.2910   22.2740  -31.2380 C   0  0  1  0  0  0  0  0  0  0  0  0
   -5.1070   22.3310  -29.9110 C   0  0  0  0  0  0  0  0  0  0  0  0
   -5.3410   22.9910  -32.5990 S   0  0  0  0  0  0  0  0  0  0  0  0
   -6.9260   22.2190  -32.2380 C   0  0  0  0  0  0  0  0  0  0  0  0
   -8.0010   23.0920  -32.0140 C   0  0  0  0  0  0  0  0  0  0  0  0
   -9.2870   22.5990  -31.8060 C   0  0  0  0  0  0  0  0  0  0  0  0
   -9.5160   21.2270  -31.8160 C   0  0  0  0  0  0  0  0  0  0  0  0
   -8.4530   20.3430  -32.0090 C   0  0  0  0  0  0  0  0  0  0  0  0
   -7.1370   20.8160  -32.2090 C   0  0  0  0  0  0  0  0  0  0  0  0
   -6.0310   19.8150  -32.2470 C   0  0  0  0  0  0  0  0  0  0  0  0
   -6.2790   18.6390  -31.8580 O   0  0  0  0  0  0  0  0  0  0  0  0
   -4.6020   20.1510  -32.6450 C   0  0  2  0  0  0  0  0  0  0  0  0
   -3.8780   18.8720  -33.1440 C   0  0  0  0  0  0  0  0  0  0  0  0
   -2.4830   19.2030  -33.6990 C   0  0  0  0  0  0  0  0  0  0  0  0
   -1.8540   20.4120  -32.9920 C   0  0  0  0  0  0  0  0  0  0  0  0
   -2.3910   20.5360  -31.5580 C   0  0  0  0  0  0  0  0  0  0  0  0
   -3.8630   20.8230  -31.5120 N   0  0  1  0  0  0  0  0  0  0  0  0
   -3.4871   24.2791  -26.2955 H   0  0  0  0  0  0  0  0  0  0  0  0
   -4.4472   24.9473  -27.6588 H   0  0  0  0  0  0  0  0  0  0  0  0
   -3.9724   23.2148  -27.6588 H   0  0  0  0  0  0  0  0  0  0  0  0
   -1.7763   25.2700  -27.4927 H   0  0  0  0  0  0  0  0  0  0  0  0
   -1.8076   23.6601  -28.3077 H   0  0  0  0  0  0  0  0  0  0  0  0
   -2.6797   23.5199  -32.0021 H   0  0  0  0  0  0  0  0  0  0  0  0
   -2.4609   22.8406  -30.2857 H   0  0  0  0  0  0  0  0  0  0  0  0
   -4.4182   22.2829  -29.0547 H   0  0  0  0  0  0  0  0  0  0  0  0
   -5.6767   23.2711  -29.8710 H   0  0  0  0  0  0  0  0  0  0  0  0
   -5.8019   21.4792  -29.8710 H   0  0  0  0  0  0  0  0  0  0  0  0
   -7.8264   24.1780  -32.0025 H   0  0  0  0  0  0  0  0  0  0  0  0
  -10.1215   23.2946  -31.6338 H   0  0  0  0  0  0  0  0  0  0  0  0
  -10.5350   20.8385  -31.6718 H   0  0  0  0  0  0  0  0  0  0  0  0
   -8.6434   19.2596  -32.0053 H   0  0  0  0  0  0  0  0  0  0  0  0
   -4.6215   20.8725  -33.4751 H   0  0  0  0  0  0  0  0  0  0  0  0
   -3.7726   18.1689  -32.3046 H   0  0  0  0  0  0  0  0  0  0  0  0
   -4.4769   18.4255  -33.9514 H   0  0  0  0  0  0  0  0  0  0  0  0
   -1.8288   18.3299  -33.5588 H   0  0  0  0  0  0  0  0  0  0  0  0
   -2.5920   19.4519  -34.7649 H   0  0  0  0  0  0  0  0  0  0  0  0
   -0.7619   20.2847  -32.9598 H   0  0  0  0  0  0  0  0  0  0  0  0
   -2.1132   21.3244  -33.5491 H   0  0  0  0  0  0  0  0  0  0  0  0
   -2.2003   19.5910  -31.0282 H   0  0  0  0  0  0  0  0  0  0  0  0
   -1.8733   21.3818  -31.0821 H   0  0  0  0  0  0  0  0  0  0  0  0
   -4.1490   20.2700  -30.6680 H   0  0  0  0  0  0  0  0  0  0  0  0
  1  2  1  0
  2  3  1  0
  3  4  1  0
  4  5  2  0
  4  6  1  0
  7  6  1  1
  7  8  1  0
  7  9  1  0
  9 10  1  0
 10 11  2  0
 11 12  1  0
 12 13  2  0
 13 14  1  0
 14 15  2  0
 15 16  1  0
 16 17  2  0
 16 18  1  0
 18 19  1  0
 19 20  1  0
 20 21  1  0
 21 22  1  0
 22 23  1  0
 23  7  1  0
 15 10  1  0
 23 18  1  0
  1 24  1  0
  1 25  1  0
  1 26  1  0
  2 27  1  0
  2 28  1  0
  6 29  1  0
  6 30  1  0
  8 31  1  0
  8 32  1  0
  8 33  1  0
 11 34  1  0
 12 35  1  0
 13 36  1  0
 14 37  1  0
 18 38  1  6
 19 39  1  0
 19 40  1  0
 20 41  1  0
 20 42  1  0
 21 43  1  0
 21 44  1  0
 22 45  1  0
 22 46  1  0
 23 47  1  1
M  CHG  2   3  -1  23   1
M  END
>  <UniqueID>  (31) 
27

>  <SMILES>  (31) 
CC[N-]C(=O)C[C@@]1(C)Sc2ccccc2C(=O)[C@@H]2CCCC[NH+]21

>  <Energy>  (31) 
92.84413723914253

>  <Genealogy>  (31) 
CC[N-]C(=O)CC1(C)Sc2ccccc2C(=O)C2CCCC[NH+]21 (protonated)
CC[N-]C(=O)C[C@@]1(C)Sc2ccccc2C(=O)[C@@H]2CCCC[NH+]21 (chirality)
CC[N-]C(=O)C[C@@]1(C)Sc2ccccc2C(=O)[C@@H]2CCCC[NH+]21 (3D coordinates assigned)
CC[N-]C(=O)C[C@@]1(C)Sc2ccccc2C(=O)[C@@H]2CCCC[NH+]21 (nonaromatic ring conformer: 92.84413723914253 kcal/mol)

>  <smiles>  (31) 
CCNC(=O)CC1(C)Sc2ccccc2C(=O)C2CCCCN21

>  <score_type>  (31) 
oracle

>  <origin>  (31) 
adg

>  <m_score__min__energy>  (31) 
-8.1600000000000001

>  <m_primary>  (31) 
energy

$$$$
31:0
     RDKit          3D

 51 53  0  0  0  0  0  0  0  0999 V2000
    0.6840   19.5150  -29.4780 C   0  0  0  0  0  0  0  0  0  0  0  0
    0.3770   20.2460  -30.6610 O   0  0  0  0  0  0  0  0  0  0  0  0
   -0.9220   20.5890  -31.0640 C   0  0  0  0  0  0  0  0  0  0  0  0
   -1.8190   19.6480  -31.6060 C   0  0  0  0  0  0  0  0  0  0  0  0
   -3.1040   20.0390  -31.9890 C   0  0  0  0  0  0  0  0  0  0  0  0
   -3.5260   21.3660  -31.8120 C   0  0  0  0  0  0  0  0  0  0  0  0
   -5.1360   21.8760  -32.3390 S   0  0  0  0  0  0  0  0  0  0  0  0
   -4.9960   23.2290  -32.9800 O   0  0  0  0  0  0  0  0  0  0  0  0
   -5.6020   20.9400  -33.4190 O   0  0  0  0  0  0  0  0  0  0  0  0
   -6.3610   21.9790  -31.0710 N   0  0  0  0  0  0  0  0  0  0  0  0
   -7.2530   20.8020  -31.0310 C   0  0  0  0  0  0  0  0  0  0  0  0
   -8.4170   20.8960  -32.0320 C   0  0  0  0  0  0  0  0  0  0  0  0
   -9.1790   22.2130  -31.8900 C   0  0  0  0  0  0  0  0  0  0  0  0
   -8.2270   23.4070  -31.9560 C   0  0  0  0  0  0  0  0  0  0  0  0
   -7.1110   23.2540  -30.9060 C   0  0  2  0  0  0  0  0  0  0  0  0
   -6.2200   24.5130  -30.8190 C   0  0  0  0  0  0  0  0  0  0  0  0
   -4.8870   24.2410  -30.1700 C   0  0  0  0  0  0  0  0  0  0  0  0
   -3.8810   24.9360  -30.4830 O   0  0  0  0  0  0  0  0  0  0  0  0
   -4.7670   23.1980  -29.1880 N   0  0  0  0  0  0  0  0  0  0  0  0
   -3.6200   23.0210  -28.3400 C   0  0  0  0  0  0  0  0  0  0  0  0
   -2.9250   24.1230  -27.8070 C   0  0  0  0  0  0  0  0  0  0  0  0
   -1.8290   23.9230  -26.9630 C   0  0  0  0  0  0  0  0  0  0  0  0
   -1.4250   22.6270  -26.6310 C   0  0  0  0  0  0  0  0  0  0  0  0
   -2.1230   21.5260  -27.1380 C   0  0  0  0  0  0  0  0  0  0  0  0
   -1.6250   19.8990  -26.7100 Cl  0  0  0  0  0  0  0  0  0  0  0  0
   -3.2220   21.7230  -27.9830 C   0  0  0  0  0  0  0  0  0  0  0  0
   -2.6190   22.3090  -31.3090 C   0  0  0  0  0  0  0  0  0  0  0  0
   -1.3330   21.9190  -30.9260 C   0  0  0  0  0  0  0  0  0  0  0  0
    0.4295   20.1211  -28.5960 H   0  0  0  0  0  0  0  0  0  0  0  0
    0.1018   18.5819  -29.4621 H   0  0  0  0  0  0  0  0  0  0  0  0
    1.7579   19.2774  -29.4621 H   0  0  0  0  0  0  0  0  0  0  0  0
   -1.5061   18.6005  -31.7282 H   0  0  0  0  0  0  0  0  0  0  0  0
   -3.7899   19.3021  -32.4323 H   0  0  0  0  0  0  0  0  0  0  0  0
   -6.6607   19.9052  -31.2653 H   0  0  0  0  0  0  0  0  0  0  0  0
   -7.6894   20.7539  -30.0224 H   0  0  0  0  0  0  0  0  0  0  0  0
   -8.0154   20.8248  -33.0536 H   0  0  0  0  0  0  0  0  0  0  0  0
   -9.1152   20.0716  -31.8248 H   0  0  0  0  0  0  0  0  0  0  0  0
   -9.9135   22.2932  -32.7049 H   0  0  0  0  0  0  0  0  0  0  0  0
   -9.6845   22.2216  -30.9131 H   0  0  0  0  0  0  0  0  0  0  0  0
   -7.7781   23.4591  -32.9589 H   0  0  0  0  0  0  0  0  0  0  0  0
   -8.7911   24.3285  -31.7495 H   0  0  0  0  0  0  0  0  0  0  0  0
   -7.5885   23.1766  -29.9181 H   0  0  0  0  0  0  0  0  0  0  0  0
   -6.0447   24.8907  -31.8372 H   0  0  0  0  0  0  0  0  0  0  0  0
   -6.7477   25.2500  -30.1958 H   0  0  0  0  0  0  0  0  0  0  0  0
   -5.5200   22.4730  -29.1460 H   0  0  0  0  0  0  0  0  0  0  0  0
   -3.2457   25.1454  -28.0557 H   0  0  0  0  0  0  0  0  0  0  0  0
   -1.2829   24.7882  -26.5589 H   0  0  0  0  0  0  0  0  0  0  0  0
   -0.5584   22.4728  -25.9712 H   0  0  0  0  0  0  0  0  0  0  0  0
   -3.7769   20.8554  -28.3694 H   0  0  0  0  0  0  0  0  0  0  0  0
   -2.9214   23.3624  -31.2152 H   0  0  0  0  0  0  0  0  0  0  0  0
   -0.6378   22.6644  -30.5124 H   0  0  0  0  0  0  0  0  0  0  0  0
  1  2  1  0
  2  3  1  0
  3  4  2  0
  4  5  1  0
  5  6  2  0
  6  7  1  0
  7  8  2  0
  7  9  2  0
  7 10  1  0
 10 11  1  0
 11 12  1  0
 12 13  1  0
 13 14  1  0
 14 15  1  0
 15 16  1  0
 16 17  1  0
 17 18  2  0
 17 19  1  0
 19 20  1  0
 20 21  2  0
 21 22  1  0
 22 23  2  0
 23 24  1  0
 24 25  1  0
 24 26  2  0
  6 27  1  0
 27 28  2  0
 28  3  1  0
 15 10  1  0
 26 20  1  0
  1 29  1  0
  1 30  1  0
  1 31  1  0
  4 32  1  0
  5 33  1  0
 11 34  1  0
 11 35  1  0
 12 36  1  0
 12 37  1  0
 13 38  1  0
 13 39  1  0
 14 40  1  0
 14 41  1  0
 15 42  1  1
 16 43  1  0
 16 44  1  0
 19 45  1  0
 21 46  1  0
 22 47  1  0
 23 48  1  0
 26 49  1  0
 27 50  1  0
 28 51  1  0
M  END
>  <UniqueID>  (32) 
28

>  <SMILES>  (32) 
COc1ccc(S(=O)(=O)N2CCCC[C@@H]2CC(=O)Nc2cccc(Cl)c2)cc1

>  <Energy>  (32) 
61.231816816990225

>  <Genealogy>  (32) 
COc1ccc(S(=O)(=O)N2CCCC[C@@H]2CC(=O)Nc2cccc(Cl)c2)cc1 (chirality)
COc1ccc(S(=O)(=O)N2CCCC[C@@H]2CC(=O)Nc2cccc(Cl)c2)cc1 (3D coordinates assigned)
COc1ccc(S(=O)(=O)N2CCCC[C@@H]2CC(=O)Nc2cccc(Cl)c2)cc1 (nonaromatic ring conformer: 61.231816816990225 kcal/mol)

>  <smiles>  (32) 
COc1ccc(S(=O)(=O)N2CCCCC2CC(=O)Nc2cccc(Cl)c2)cc1

>  <score_type>  (32) 
oracle

>  <origin>  (32) 
adg

>  <m_score__min__energy>  (32) 
-9.6999999999999993

>  <m_primary>  (32) 
energy

$$$$
32:0
     RDKit          3D

 48 51  0  0  1  0  0  0  0  0999 V2000
   -9.0350   22.3810  -31.8320 C   0  0  0  0  0  0  0  0  0  0  0  0
   -9.4470   21.0460  -32.0340 O   0  0  0  0  0  0  0  0  0  0  0  0
   -8.5510   19.9940  -32.2160 C   0  0  0  0  0  0  0  0  0  0  0  0
   -8.5370   18.8850  -31.3880 C   0  0  0  0  0  0  0  0  0  0  0  0
   -7.6360   17.8410  -31.5830 C   0  0  0  0  0  0  0  0  0  0  0  0
   -6.7280   17.8950  -32.6210 C   0  0  0  0  0  0  0  0  0  0  0  0
   -6.7270   18.9850  -33.4520 C   0  0  0  0  0  0  0  0  0  0  0  0
   -5.7660   19.1050  -34.5990 C   0  0  0  0  0  0  0  0  0  0  0  0
   -4.4410   19.0500  -33.9860 N   0  0  0  0  0  0  0  0  0  0  0  0
   -4.1690   19.9920  -33.1400 C   0  0  0  0  0  0  0  0  0  0  0  0
   -3.1350   20.0410  -32.2510 N   0  0  0  0  0  0  0  0  0  0  0  0
   -3.2330   21.2110  -31.5630 C   0  0  0  0  0  0  0  0  0  0  0  0
   -2.4660   21.7520  -30.5720 N   0  0  0  0  0  0  0  0  0  0  0  0
   -2.7960   22.9620  -30.0500 C   0  0  0  0  0  0  0  0  0  0  0  0
   -2.0200   23.5680  -29.0080 N   0  0  0  0  0  0  0  0  0  0  0  0
   -2.3570   24.9100  -28.5330 C   0  0  0  0  0  0  0  0  0  0  0  0
   -1.2900   25.2920  -27.5300 C   0  0  0  0  0  0  0  0  0  0  0  0
   -0.0680   25.1310  -28.2160 O   0  0  0  0  0  0  0  0  0  0  0  0
    0.2660   23.8030  -28.3340 C   0  0  0  0  0  0  0  0  0  0  0  0
   -0.9020   22.8600  -28.4200 C   0  0  0  0  0  0  0  0  0  0  0  0
   -3.9030   23.6190  -30.5340 C   0  0  0  0  0  0  0  0  0  0  0  0
   -4.6670   23.0550  -31.5380 C   0  0  0  0  0  0  0  0  0  0  0  0
   -5.8550   23.8080  -32.0270 C   0  0  0  0  0  0  0  0  0  0  0  0
   -4.3150   21.8560  -32.0360 N   0  0  0  0  0  0  0  0  0  0  0  0
   -4.8920   21.1270  -32.9930 N   0  0  0  0  0  0  0  0  0  0  0  0
   -7.6270   20.0110  -33.2450 C   0  0  0  0  0  0  0  0  0  0  0  0
   -8.9717   22.5860  -30.7531 H   0  0  0  0  0  0  0  0  0  0  0  0
   -8.0479   22.5338  -32.2927 H   0  0  0  0  0  0  0  0  0  0  0  0
   -9.7643   23.0635  -32.2927 H   0  0  0  0  0  0  0  0  0  0  0  0
   -9.2545   18.8268  -30.5562 H   0  0  0  0  0  0  0  0  0  0  0  0
   -7.6481   16.9720  -30.9086 H   0  0  0  0  0  0  0  0  0  0  0  0
   -6.0139   17.0734  -32.7794 H   0  0  0  0  0  0  0  0  0  0  0  0
   -5.9005   18.2726  -35.3054 H   0  0  0  0  0  0  0  0  0  0  0  0
   -5.9190   20.0311  -35.1725 H   0  0  0  0  0  0  0  0  0  0  0  0
   -2.3608   25.6204  -29.3728 H   0  0  0  0  0  0  0  0  0  0  0  0
   -3.3575   24.9305  -28.0763 H   0  0  0  0  0  0  0  0  0  0  0  0
   -1.4180   26.3362  -27.2085 H   0  0  0  0  0  0  0  0  0  0  0  0
   -1.3376   24.6740  -26.6213 H   0  0  0  0  0  0  0  0  0  0  0  0
    0.8698   23.6825  -29.2455 H   0  0  0  0  0  0  0  0  0  0  0  0
    0.8076   23.5389  -27.4137 H   0  0  0  0  0  0  0  0  0  0  0  0
   -0.6370   21.9970  -29.0485 H   0  0  0  0  0  0  0  0  0  0  0  0
   -1.1699   22.4984  -27.4163 H   0  0  0  0  0  0  0  0  0  0  0  0
   -4.1819   24.5990  -30.1196 H   0  0  0  0  0  0  0  0  0  0  0  0
   -6.4352   24.1757  -31.1678 H   0  0  0  0  0  0  0  0  0  0  0  0
   -5.5229   24.6608  -32.6372 H   0  0  0  0  0  0  0  0  0  0  0  0
   -6.4845   23.1437  -32.6372 H   0  0  0  0  0  0  0  0  0  0  0  0
   -5.7420   21.4050  -33.5140 H   0  0  0  0  0  0  0  0  0  0  0  0
   -7.6086   20.8756  -33.9248 H   0  0  0  0  0  0  0  0  0  0  0  0
  1  2  1  0
  2  3  1  0
  3  4  2  0
  4  5  1  0
  5  6  2  0
  6  7  1  0
  7  8  1  0
  8  9  1  0
  9 10  2  0
 10 11  1  0
 11 12  2  0
 12 13  1  0
 13 14  2  0
 14 15  1  0
 15 16  1  0
 16 17  1  0
 17 18  1  0
 18 19  1  0
 19 20  1  0
 14 21  1  0
 21 22  2  0
 22 23  1  0
 22 24  1  0
 24 25  1  0
  7 26  2  0
 26  3  1  0
 25 10  1  0
 24 12  1  0
 20 15  1  0
  1 27  1  0
  1 28  1  0
  1 29  1  0
  4 30  1  0
  5 31  1  0
  6 32  1  0
  8 33  1  0
  8 34  1  0
 16 35  1  0
 16 36  1  0
 17 37  1  0
 17 38  1  0
 19 39  1  0
 19 40  1  0
 20 41  1  0
 20 42  1  0
 21 43  1  0
 23 44  1  0
 23 45  1  0
 23 46  1  0
 25 47  1  0
 26 48  1  0
M  END
>  <smiles>  (33) 
COc1cccc(CN=c2nc3nc(N4CCOCC4)cc(C)n3[nH]2)c1

>  <score_type>  (33) 
oracle

>  <origin>  (33) 
adg

>  <m_score__min__energy>  (33) 
-8.1600000000000001

>  <m_primary>  (33) 
energy

$$$$
33:0
     RDKit          3D

 30 31  0  0  0  0  0  0  0  0999 V2000
   -0.9170   23.3320  -29.2560 C   0  0  0  0  0  0  0  0  0  0  0  0
   -1.1920   24.7190  -28.6950 C   0  0  0  0  0  0  0  0  0  0  0  0
   -2.3660   25.2890  -29.3430 N   0  0  0  0  0  0  0  0  0  0  0  0
   -3.5930   24.5710  -29.4890 C   0  0  0  0  0  0  0  0  0  0  0  0
   -4.1150   24.0000  -28.4920 O   0  0  0  0  0  0  0  0  0  0  0  0
   -4.2300   24.5630  -30.7360 O   0  0  0  0  0  0  0  0  0  0  0  0
   -5.2150   23.6500  -31.1400 C   0  0  0  0  0  0  0  0  0  0  0  0
   -6.5480   23.9200  -30.8120 C   0  0  0  0  0  0  0  0  0  0  0  0
   -7.5690   23.0470  -31.1970 C   0  0  0  0  0  0  0  0  0  0  0  0
   -7.2660   21.8900  -31.9330 C   0  0  0  0  0  0  0  0  0  0  0  0
   -8.2560   20.9810  -32.3450 C   0  0  0  0  0  0  0  0  0  0  0  0
   -9.4690   21.1670  -32.0600 O   0  0  0  0  0  0  0  0  0  0  0  0
   -7.8860   19.8560  -33.0830 C   0  0  0  0  0  0  0  0  0  0  0  0
   -6.5350   19.6600  -33.3970 C   0  0  0  0  0  0  0  0  0  0  0  0
   -6.1120   18.4630  -34.1870 C   0  0  0  0  0  0  0  0  0  0  0  0
   -5.6190   20.5370  -32.9930 O   0  0  0  0  0  0  0  0  0  0  0  0
   -5.9240   21.6210  -32.2860 C   0  0  0  0  0  0  0  0  0  0  0  0
   -4.9090   22.5010  -31.8940 C   0  0  0  0  0  0  0  0  0  0  0  0
   -0.7763   22.6225  -28.4272 H   0  0  0  0  0  0  0  0  0  0  0  0
   -1.7689   23.0106  -29.8732 H   0  0  0  0  0  0  0  0  0  0  0  0
   -0.0069   23.3599  -29.8732 H   0  0  0  0  0  0  0  0  0  0  0  0
   -1.3717   24.6461  -27.6122 H   0  0  0  0  0  0  0  0  0  0  0  0
   -0.3227   25.3662  -28.8834 H   0  0  0  0  0  0  0  0  0  0  0  0
   -6.7951   24.8295  -30.2448 H   0  0  0  0  0  0  0  0  0  0  0  0
   -8.6115   23.2664  -30.9232 H   0  0  0  0  0  0  0  0  0  0  0  0
   -8.6455   19.1324  -33.4139 H   0  0  0  0  0  0  0  0  0  0  0  0
   -5.8257   17.6529  -33.5002 H   0  0  0  0  0  0  0  0  0  0  0  0
   -6.9464   18.1285  -34.8210 H   0  0  0  0  0  0  0  0  0  0  0  0
   -5.2527   18.7270  -34.8210 H   0  0  0  0  0  0  0  0  0  0  0  0
   -3.8663   22.2939  -32.1765 H   0  0  0  0  0  0  0  0  0  0  0  0
  1  2  1  0
  2  3  1  0
  3  4  1  0
  4  5  2  0
  4  6  1  0
  6  7  1  0
  7  8  2  0
  8  9  1  0
  9 10  2  0
 10 11  1  0
 11 12  2  0
 11 13  1  0
 13 14  2  0
 14 15  1  0
 14 16  1  0
 16 17  1  0
 17 18  2  0
 18  7  1  0
 17 10  1  0
  1 19  1  0
  1 20  1  0
  1 21  1  0
  2 22  1  0
  2 23  1  0
  8 24  1  0
  9 25  1  0
 13 26  1  0
 15 27  1  0
 15 28  1  0
 15 29  1  0
 18 30  1  0
M  CHG  1   3  -1
M  END
>  <UniqueID>  (34) 
29

>  <SMILES>  (34) 
CC[N-]C(=O)Oc1ccc2c(=O)cc(C)oc2c1

>  <Energy>  (34) 
33.111066812009256

>  <Genealogy>  (34) 
CC[N-]C(=O)Oc1ccc2c(=O)cc(C)oc2c1 (protonated)
CC[N-]C(=O)Oc1ccc2c(=O)cc(C)oc2c1 (3D coordinates assigned)
CC[N-]C(=O)Oc1ccc2c(=O)cc(C)oc2c1 (optimized conformer: 33.111066812009256 kcal/mol)

>  <smiles>  (34) 
CCNC(=O)Oc1ccc2c(=O)cc(C)oc2c1

>  <score_type>  (34) 
oracle

>  <origin>  (34) 
adg

>  <m_score__min__energy>  (34) 
-8.8300000000000001

>  <m_primary>  (34) 
energy

$$$$
34:0
     RDKit          3D

 48 50  0  0  0  0  0  0  0  0999 V2000
   -5.5640   17.4300  -34.5740 C   0  0  0  0  0  0  0  0  0  0  0  0
   -6.1990   17.4570  -33.2980 O   0  0  0  0  0  0  0  0  0  0  0  0
   -7.0260   18.4940  -32.8420 C   0  0  0  0  0  0  0  0  0  0  0  0
   -8.3190   18.2360  -32.2990 C   0  0  0  0  0  0  0  0  0  0  0  0
   -9.1120   19.2860  -31.8040 C   0  0  0  0  0  0  0  0  0  0  0  0
   -8.5980   20.5780  -31.8670 C   0  0  0  0  0  0  0  0  0  0  0  0
   -9.1820   21.7090  -31.4370 N   0  0  0  0  0  0  0  0  0  0  0  0
   -8.2970   22.7010  -31.6930 C   0  0  0  0  0  0  0  0  0  0  0  0
   -7.1430   22.1960  -32.2840 C   0  0  0  0  0  0  0  0  0  0  0  0
   -7.3570   20.8380  -32.3850 C   0  0  0  0  0  0  0  0  0  0  0  0
   -6.5420   19.8280  -32.8970 C   0  0  0  0  0  0  0  0  0  0  0  0
   -5.2660   20.1470  -33.3850 O   0  0  0  0  0  0  0  0  0  0  0  0
   -4.1910   20.5850  -32.5950 C   0  0  0  0  0  0  0  0  0  0  0  0
   -3.2550   21.4640  -33.1570 C   0  0  0  0  0  0  0  0  0  0  0  0
   -2.1700   21.9230  -32.4010 C   0  0  0  0  0  0  0  0  0  0  0  0
   -1.9920   21.4790  -31.0760 C   0  0  0  0  0  0  0  0  0  0  0  0
   -0.9110   21.9370  -30.2480 N   0  0  0  0  0  0  0  0  0  0  0  0
   -0.9740   22.9080  -29.1920 C   0  0  0  0  0  0  0  0  0  0  0  0
   -0.1120   23.8270  -29.1000 O   0  0  0  0  0  0  0  0  0  0  0  0
   -2.0690   22.8000  -28.1650 C   0  0  0  0  0  0  0  0  0  0  0  0
   -3.2840   23.7450  -28.4290 C   0  0  0  0  0  0  0  0  0  0  0  0
   -3.8870   24.2320  -27.0890 C   0  0  0  0  0  0  0  0  0  0  0  0
   -4.3660   22.9520  -29.1880 C   0  0  0  0  0  0  0  0  0  0  0  0
   -2.8730   24.9250  -29.2950 C   0  0  0  0  0  0  0  0  0  0  0  0
   -1.9000   25.6560  -28.9570 O   0  0  0  0  0  0  0  0  0  0  0  0
   -3.5180   25.1790  -30.5050 O   0  0  0  0  0  0  0  0  0  0  0  0
   -2.9290   20.5930  -30.5150 C   0  0  0  0  0  0  0  0  0  0  0  0
   -4.0160   20.1400  -31.2690 C   0  0  0  0  0  0  0  0  0  0  0  0
   -4.4732   17.3836  -34.4398 H   0  0  0  0  0  0  0  0  0  0  0  0
   -5.9026   16.5454  -35.1334 H   0  0  0  0  0  0  0  0  0  0  0  0
   -5.8262   18.3401  -35.1334 H   0  0  0  0  0  0  0  0  0  0  0  0
   -8.7000   17.2046  -32.2671 H   0  0  0  0  0  0  0  0  0  0  0  0
  -10.1083   19.0924  -31.3798 H   0  0  0  0  0  0  0  0  0  0  0  0
  -10.1220   21.8050  -30.9920 H   0  0  0  0  0  0  0  0  0  0  0  0
   -8.4673   23.7634  -31.4645 H   0  0  0  0  0  0  0  0  0  0  0  0
   -6.2528   22.7586  -32.6018 H   0  0  0  0  0  0  0  0  0  0  0  0
   -3.3739   21.7954  -34.1991 H   0  0  0  0  0  0  0  0  0  0  0  0
   -1.4545   22.6322  -32.8427 H   0  0  0  0  0  0  0  0  0  0  0  0
   -2.4336   21.7622  -28.1562 H   0  0  0  0  0  0  0  0  0  0  0  0
   -1.6329   23.1043  -27.2021 H   0  0  0  0  0  0  0  0  0  0  0  0
   -3.3314   23.7833  -26.2523 H   0  0  0  0  0  0  0  0  0  0  0  0
   -3.8147   25.3281  -27.0312 H   0  0  0  0  0  0  0  0  0  0  0  0
   -4.9433   23.9306  -27.0312 H   0  0  0  0  0  0  0  0  0  0  0  0
   -5.0353   22.4615  -28.4659 H   0  0  0  0  0  0  0  0  0  0  0  0
   -4.9484   23.6387  -29.8199 H   0  0  0  0  0  0  0  0  0  0  0  0
   -3.8865   22.1899  -29.8199 H   0  0  0  0  0  0  0  0  0  0  0  0
   -2.8060   20.2540  -29.4758 H   0  0  0  0  0  0  0  0  0  0  0  0
   -4.7356   19.4353  -30.8267 H   0  0  0  0  0  0  0  0  0  0  0  0
  1  2  1  0
  2  3  1  0
  3  4  2  0
  4  5  1  0
  5  6  2  0
  6  7  1  0
  7  8  1  0
  8  9  2  0
  9 10  1  0
 10 11  2  0
 11 12  1  0
 12 13  1  0
 13 14  2  0
 14 15  1  0
 15 16  2  0
 16 17  1  0
 17 18  1  0
 18 19  2  0
 18 20  1  0
 20 21  1  0
 21 22  1  0
 21 23  1  0
 21 24  1  0
 24 25  2  0
 24 26  1  0
 16 27  1  0
 27 28  2  0
 11  3  1  0
 28 13  1  0
 10  6  1  0
  1 29  1  0
  1 30  1  0
  1 31  1  0
  4 32  1  0
  5 33  1  0
  7 34  1  0
  8 35  1  0
  9 36  1  0
 14 37  1  0
 15 38  1  0
 20 39  1  0
 20 40  1  0
 22 41  1  0
 22 42  1  0
 22 43  1  0
 23 44  1  0
 23 45  1  0
 23 46  1  0
 27 47  1  0
 28 48  1  0
M  CHG  2  17  -1  26  -1
M  END
>  <UniqueID>  (35) 
30

>  <SMILES>  (35) 
COc1ccc2[nH]ccc2c1Oc1ccc([N-]C(=O)CC(C)(C)C(=O)[O-])cc1

>  <Energy>  (35) 
90.51490516831024

>  <Genealogy>  (35) 
COc1ccc2[nH]ccc2c1Oc1ccc([N-]C(=O)CC(C)(C)C(=O)[O-])cc1 (protonated)
COc1ccc2[nH]ccc2c1Oc1ccc([N-]C(=O)CC(C)(C)C(=O)[O-])cc1 (3D coordinates assigned)
COc1ccc2[nH]ccc2c1Oc1ccc([N-]C(=O)CC(C)(C)C(=O)[O-])cc1 (optimized conformer: 90.51490516831024 kcal/mol)

>  <smiles>  (35) 
COc1ccc2[nH]ccc2c1Oc1ccc(NC(=O)CC(C)(C)C(=O)O)cc1

>  <score_type>  (35) 
oracle

>  <origin>  (35) 
adg

>  <m_score__min__energy>  (35) 
-11.710000000000001

>  <m_primary>  (35) 
energy

$$$$
35:0
     RDKit          3D

 48 51  0  0  0  0  0  0  0  0999 V2000
   -4.2650   14.5570  -32.7200 C   0  0  0  0  0  0  0  0  0  0  0  0
   -4.2940   15.7360  -33.5170 O   0  0  0  0  0  0  0  0  0  0  0  0
   -5.1110   16.8470  -33.2570 C   0  0  0  0  0  0  0  0  0  0  0  0
   -5.7670   16.9160  -32.0220 C   0  0  0  0  0  0  0  0  0  0  0  0
   -6.5890   18.0040  -31.7150 C   0  0  0  0  0  0  0  0  0  0  0  0
   -6.7550   19.0460  -32.6370 C   0  0  0  0  0  0  0  0  0  0  0  0
   -7.6380   20.1850  -32.3310 C   0  0  0  0  0  0  0  0  0  0  0  0
   -8.9690   20.0480  -32.5710 N   0  0  0  0  0  0  0  0  0  0  0  0
   -9.8400   21.0590  -32.3350 C   0  0  0  0  0  0  0  0  0  0  0  0
   -9.3880   22.2460  -31.8580 N   0  0  0  0  0  0  0  0  0  0  0  0
   -8.0700   22.4430  -31.5970 C   0  0  0  0  0  0  0  0  0  0  0  0
   -7.1420   21.4100  -31.8290 C   0  0  0  0  0  0  0  0  0  0  0  0
   -5.6540   21.6520  -31.6520 C   0  0  0  0  0  0  0  0  0  0  0  0
   -5.3380   22.8890  -30.9160 N   0  0  0  0  0  0  0  0  0  0  0  0
   -3.9520   23.2630  -30.7690 C   0  0  0  0  0  0  0  0  0  0  0  0
   -3.6260   24.4800  -30.8340 O   0  0  0  0  0  0  0  0  0  0  0  0
   -2.8890   22.2470  -30.5870 C   0  0  0  0  0  0  0  0  0  0  0  0
   -2.1590   21.8270  -31.7080 C   0  0  0  0  0  0  0  0  0  0  0  0
   -1.1400   20.8880  -31.5760 C   0  0  0  0  0  0  0  0  0  0  0  0
   -0.8320   20.3570  -30.3250 C   0  0  0  0  0  0  0  0  0  0  0  0
   -1.5420   20.7610  -29.1790 C   0  0  0  0  0  0  0  0  0  0  0  0
   -1.2020   20.1680  -27.8270 C   0  0  0  0  0  0  0  0  0  0  0  0
   -0.1140   19.3230  -27.9500 F   0  0  0  0  0  0  0  0  0  0  0  0
   -2.2850   19.4510  -27.3480 F   0  0  0  0  0  0  0  0  0  0  0  0
   -0.8890   21.1460  -26.8980 F   0  0  0  0  0  0  0  0  0  0  0  0
   -2.5830   21.7140  -29.3150 C   0  0  0  0  0  0  0  0  0  0  0  0
   -3.5390   22.1960  -27.9050 Cl  0  0  0  0  0  0  0  0  0  0  0  0
   -6.3930   23.6500  -30.2310 C   0  0  0  0  0  0  0  0  0  0  0  0
   -7.6110   23.7900  -31.1360 C   0  0  0  0  0  0  0  0  0  0  0  0
   -6.1160   18.9740  -33.8820 C   0  0  0  0  0  0  0  0  0  0  0  0
   -5.2930   17.8870  -34.1900 C   0  0  0  0  0  0  0  0  0  0  0  0
   -4.2718   14.8338  -31.6554 H   0  0  0  0  0  0  0  0  0  0  0  0
   -5.1483   13.9409  -32.9443 H   0  0  0  0  0  0  0  0  0  0  0  0
   -3.3525   13.9851  -32.9443 H   0  0  0  0  0  0  0  0  0  0  0  0
   -5.6345   16.1078  -31.2877 H   0  0  0  0  0  0  0  0  0  0  0  0
   -7.1077   18.0424  -30.7457 H   0  0  0  0  0  0  0  0  0  0  0  0
  -10.9132   20.9173  -32.5301 H   0  0  0  0  0  0  0  0  0  0  0  0
   -5.2271   20.8013  -31.1007 H   0  0  0  0  0  0  0  0  0  0  0  0
   -5.2238   21.7584  -32.6588 H   0  0  0  0  0  0  0  0  0  0  0  0
   -2.3933   22.2426  -32.6991 H   0  0  0  0  0  0  0  0  0  0  0  0
   -0.5756   20.5638  -32.4628 H   0  0  0  0  0  0  0  0  0  0  0  0
   -0.0257   19.6145  -30.2323 H   0  0  0  0  0  0  0  0  0  0  0  0
   -6.6827   23.1221  -29.3105 H   0  0  0  0  0  0  0  0  0  0  0  0
   -6.0113   24.6517  -29.9844 H   0  0  0  0  0  0  0  0  0  0  0  0
   -8.4233   24.2795  -30.5787 H   0  0  0  0  0  0  0  0  0  0  0  0
   -7.3387   24.3958  -32.0129 H   0  0  0  0  0  0  0  0  0  0  0  0
   -6.2627   19.7763  -34.6201 H   0  0  0  0  0  0  0  0  0  0  0  0
   -4.7853   17.8433  -35.1648 H   0  0  0  0  0  0  0  0  0  0  0  0
  1  2  1  0
  2  3  1  0
  3  4  2  0
  4  5  1  0
  5  6  2  0
  6  7  1  0
  7  8  2  0
  8  9  1  0
  9 10  2  0
 10 11  1  0
 11 12  2  0
 12 13  1  0
 13 14  1  0
 14 15  1  0
 15 16  2  0
 15 17  1  0
 17 18  2  0
 18 19  1  0
 19 20  2  0
 20 21  1  0
 21 22  1  0
 22 23  1  0
 22 24  1  0
 22 25  1  0
 21 26  2  0
 26 27  1  0
 14 28  1  0
 28 29  1  0
  6 30  1  0
 30 31  2  0
 31  3  1  0
 12  7  1  0
 26 17  1  0
 29 11  1  0
  1 32  1  0
  1 33  1  0
  1 34  1  0
  4 35  1  0
  5 36  1  0
  9 37  1  0
 13 38  1  0
 13 39  1  0
 18 40  1  0
 19 41  1  0
 20 42  1  0
 28 43  1  0
 28 44  1  0
 29 45  1  0
 29 46  1  0
 30 47  1  0
 31 48  1  0
M  END
>  <UniqueID>  (36) 
31

>  <SMILES>  (36) 
COc1ccc(-c2ncnc3c2CN(C(=O)c2cccc(C(F)(F)F)c2Cl)CC3)cc1

>  <Energy>  (36) 
72.02860034849259

>  <Genealogy>  (36) 
COc1ccc(-c2ncnc3c2CN(C(=O)c2cccc(C(F)(F)F)c2Cl)CC3)cc1 (3D coordinates assigned)
COc1ccc(-c2ncnc3c2CN(C(=O)c2cccc(C(F)(F)F)c2Cl)CC3)cc1 (nonaromatic ring conformer: 72.02860034849259 kcal/mol)

>  <smiles>  (36) 
COc1ccc(-c2ncnc3c2CN(C(=O)c2cccc(C(F)(F)F)c2Cl)CC3)cc1

>  <score_type>  (36) 
oracle

>  <origin>  (36) 
adg

>  <m_score__min__energy>  (36) 
-9.1300000000000008

>  <m_primary>  (36) 
energy

$$$$
36:0
     RDKit          3D

 35 37  0  0  0  0  0  0  0  0999 V2000
   -9.4400   20.9000  -32.1210 C   0  0  0  0  0  0  0  0  0  0  0  0
   -8.3620   20.3130  -31.2170 C   0  0  0  0  0  0  0  0  0  0  0  0
   -7.4550   19.3850  -31.9930 C   0  0  0  0  0  0  0  0  0  0  0  0
   -7.9860   18.1810  -32.4910 C   0  0  0  0  0  0  0  0  0  0  0  0
   -7.2060   17.3270  -33.2720 C   0  0  0  0  0  0  0  0  0  0  0  0
   -5.8890   17.6670  -33.5790 C   0  0  0  0  0  0  0  0  0  0  0  0
   -5.3470   18.8630  -33.1060 C   0  0  0  0  0  0  0  0  0  0  0  0
   -6.1160   19.7290  -32.3110 C   0  0  0  0  0  0  0  0  0  0  0  0
   -5.4970   20.9840  -31.8400 C   0  0  0  0  0  0  0  0  0  0  0  0
   -6.1150   22.2160  -32.0950 C   0  0  0  0  0  0  0  0  0  0  0  0
   -5.5380   23.4040  -31.6400 C   0  0  0  0  0  0  0  0  0  0  0  0
   -4.3340   23.3750  -30.9120 C   0  0  0  0  0  0  0  0  0  0  0  0
   -3.7230   24.5540  -30.4400 C   0  0  0  0  0  0  0  0  0  0  0  0
   -4.2500   25.6790  -30.6650 O   0  0  0  0  0  0  0  0  0  0  0  0
   -2.5550   24.4860  -29.7350 N   0  0  0  0  0  0  0  0  0  0  0  0
   -1.9710   25.6480  -29.2820 O   0  0  0  0  0  0  0  0  0  0  0  0
   -1.9500   23.2940  -29.4690 C   0  0  0  0  0  0  0  0  0  0  0  0
   -0.7590   23.2700  -28.7450 O   0  0  0  0  0  0  0  0  0  0  0  0
   -2.5220   22.0990  -29.9180 C   0  0  0  0  0  0  0  0  0  0  0  0
   -3.7170   22.1320  -30.6430 C   0  0  0  0  0  0  0  0  0  0  0  0
   -4.3050   20.9440  -31.1040 C   0  0  0  0  0  0  0  0  0  0  0  0
  -10.2394   21.3353  -31.5034 H   0  0  0  0  0  0  0  0  0  0  0  0
   -8.9997   21.6829  -32.7560 H   0  0  0  0  0  0  0  0  0  0  0  0
   -9.8587   20.1054  -32.7560 H   0  0  0  0  0  0  0  0  0  0  0  0
   -7.7622   21.1318  -30.7930 H   0  0  0  0  0  0  0  0  0  0  0  0
   -8.8494   19.7393  -30.4150 H   0  0  0  0  0  0  0  0  0  0  0  0
   -9.0272   17.9099  -32.2623 H   0  0  0  0  0  0  0  0  0  0  0  0
   -7.6310   16.3839  -33.6461 H   0  0  0  0  0  0  0  0  0  0  0  0
   -5.2765   16.9918  -34.1947 H   0  0  0  0  0  0  0  0  0  0  0  0
   -4.3099   19.1295  -33.3576 H   0  0  0  0  0  0  0  0  0  0  0  0
   -7.0602   22.2475  -32.6569 H   0  0  0  0  0  0  0  0  0  0  0  0
   -6.0269   24.3664  -31.8517 H   0  0  0  0  0  0  0  0  0  0  0  0
   -0.3410   24.1180  -28.3800 H   0  0  0  0  0  0  0  0  0  0  0  0
   -2.0337   21.1374  -29.7016 H   0  0  0  0  0  0  0  0  0  0  0  0
   -3.8280   19.9769  -30.8866 H   0  0  0  0  0  0  0  0  0  0  0  0
  1  2  1  0
  2  3  1  0
  3  4  2  0
  4  5  1  0
  5  6  2  0
  6  7  1  0
  7  8  2  0
  8  9  1  0
  9 10  2  0
 10 11  1  0
 11 12  2  0
 12 13  1  0
 13 14  2  0
 13 15  1  0
 15 16  1  0
 15 17  1  0
 17 18  1  0
 17 19  2  0
 19 20  1  0
 20 21  2  0
  8  3  1  0
 21  9  1  0
 20 12  1  0
  1 22  1  0
  1 23  1  0
  1 24  1  0
  2 25  1  0
  2 26  1  0
  4 27  1  0
  5 28  1  0
  6 29  1  0
  7 30  1  0
 10 31  1  0
 11 32  1  0
 18 33  1  0
 19 34  1  0
 21 35  1  0
M  CHG  1  16  -1
M  END
>  <UniqueID>  (37) 
32

>  <SMILES>  (37) 
CCc1ccccc1-c1ccc2c(=O)n([O-])c(O)cc2c1

>  <Energy>  (37) 
47.77471843517179

>  <Genealogy>  (37) 
CCc1ccccc1-c1ccc2c(=O)n([O-])c(O)cc2c1 (protonated)
CCc1ccccc1-c1ccc2c(=O)n([O-])c(O)cc2c1 (3D coordinates assigned)
CCc1ccccc1-c1ccc2c(=O)n([O-])c(O)cc2c1 (optimized conformer: 47.77471843517179 kcal/mol)

>  <smiles>  (37) 
CCc1ccccc1-c1ccc2c(=O)n(O)c(O)cc2c1

>  <score_type>  (37) 
oracle

>  <origin>  (37) 
adg

>  <m_score__min__energy>  (37) 
-11.130000000000001

>  <m_primary>  (37) 
energy

$$$$
37:0
     RDKit          3D

 42 43  0  0  0  0  0  0  0  0999 V2000
   -6.4530   16.1950  -33.7760 C   0  0  0  0  0  0  0  0  0  0  0  0
   -6.5420   17.5940  -34.0260 O   0  0  0  0  0  0  0  0  0  0  0  0
   -5.6490   18.5500  -33.5160 C   0  0  0  0  0  0  0  0  0  0  0  0
   -4.4340   18.8550  -34.1580 C   0  0  0  0  0  0  0  0  0  0  0  0
   -3.5710   19.8110  -33.6220 C   0  0  0  0  0  0  0  0  0  0  0  0
   -3.9000   20.4740  -32.4330 C   0  0  0  0  0  0  0  0  0  0  0  0
   -2.9850   21.5340  -31.8720 C   0  0  0  0  0  0  0  0  0  0  0  0
   -3.0870   21.6070  -30.3480 C   0  0  0  0  0  0  0  0  0  0  0  0
   -1.9840   22.3930  -29.8070 N   0  0  0  0  0  0  0  0  0  0  0  0
   -2.0210   23.7950  -29.5070 C   0  0  0  0  0  0  0  0  0  0  0  0
   -0.9270   24.3900  -29.3350 O   0  0  0  0  0  0  0  0  0  0  0  0
   -3.2960   24.5440  -29.3800 C   0  0  0  0  0  0  0  0  0  0  0  0
   -3.9110   24.5350  -28.2830 O   0  0  0  0  0  0  0  0  0  0  0  0
   -3.8680   25.2920  -30.4650 N   0  0  0  0  0  0  0  0  0  0  0  0
   -5.2680   25.6750  -30.6250 C   0  0  0  0  0  0  0  0  0  0  0  0
   -6.1370   24.4670  -30.7980 C   0  0  0  0  0  0  0  0  0  0  0  0
   -6.6340   23.6600  -29.7800 C   0  0  0  0  0  0  0  0  0  0  0  0
   -7.3390   22.5480  -30.2550 C   0  0  0  0  0  0  0  0  0  0  0  0
   -7.3830   22.4640  -31.6400 C   0  0  0  0  0  0  0  0  0  0  0  0
   -6.5390   23.7710  -32.2750 S   0  0  0  0  0  0  0  0  0  0  0  0
   -5.1150   20.1810  -31.7930 C   0  0  0  0  0  0  0  0  0  0  0  0
   -5.9910   19.2180  -32.3290 C   0  0  0  0  0  0  0  0  0  0  0  0
   -7.2120   18.8980  -31.7140 O   0  0  0  0  0  0  0  0  0  0  0  0
   -8.4920   19.2280  -32.2420 C   0  0  0  0  0  0  0  0  0  0  0  0
   -6.4416   16.0165  -32.6906 H   0  0  0  0  0  0  0  0  0  0  0  0
   -7.3206   15.6869  -34.2221 H   0  0  0  0  0  0  0  0  0  0  0  0
   -5.5280   15.8009  -34.2221 H   0  0  0  0  0  0  0  0  0  0  0  0
   -4.1631   18.3357  -35.0891 H   0  0  0  0  0  0  0  0  0  0  0  0
   -2.6271   20.0454  -34.1359 H   0  0  0  0  0  0  0  0  0  0  0  0
   -1.9478   21.2959  -32.1506 H   0  0  0  0  0  0  0  0  0  0  0  0
   -3.2861   22.5072  -32.2869 H   0  0  0  0  0  0  0  0  0  0  0  0
   -4.0407   22.0794  -30.0698 H   0  0  0  0  0  0  0  0  0  0  0  0
   -3.0383   20.5884  -29.9356 H   0  0  0  0  0  0  0  0  0  0  0  0
   -5.5942   26.2283  -29.7320 H   0  0  0  0  0  0  0  0  0  0  0  0
   -5.3594   26.3048  -31.5222 H   0  0  0  0  0  0  0  0  0  0  0  0
   -6.4879   23.8738  -28.7109 H   0  0  0  0  0  0  0  0  0  0  0  0
   -7.8140   21.8094  -29.5925 H   0  0  0  0  0  0  0  0  0  0  0  0
   -7.8844   21.6767  -32.2220 H   0  0  0  0  0  0  0  0  0  0  0  0
   -5.3844   20.7079  -30.8658 H   0  0  0  0  0  0  0  0  0  0  0  0
   -9.1942   19.4090  -31.4149 H   0  0  0  0  0  0  0  0  0  0  0  0
   -8.4112   20.1347  -32.8596 H   0  0  0  0  0  0  0  0  0  0  0  0
   -8.8597   18.3953  -32.8596 H   0  0  0  0  0  0  0  0  0  0  0  0
  1  2  1  0
  2  3  1  0
  3  4  2  0
  4  5  1  0
  5  6  2  0
  6  7  1  0
  7  8  1  0
  8  9  1  0
  9 10  1  0
 10 11  2  0
 10 12  1  0
 12 13  2  0
 12 14  1  0
 14 15  1  0
 15 16  1  0
 16 17  2  0
 17 18  1  0
 18 19  2  0
 19 20  1  0
  6 21  1  0
 21 22  2  0
 22 23  1  0
 23 24  1  0
 22  3  1  0
 20 16  1  0
  1 25  1  0
  1 26  1  0
  1 27  1  0
  4 28  1  0
  5 29  1  0
  7 30  1  0
  7 31  1  0
  8 32  1  0
  8 33  1  0
 15 34  1  0
 15 35  1  0
 17 36  1  0
 18 37  1  0
 19 38  1  0
 21 39  1  0
 24 40  1  0
 24 41  1  0
 24 42  1  0
M  CHG  2   9  -1  14  -1
M  END
>  <UniqueID>  (38) 
33

>  <SMILES>  (38) 
COc1ccc(CC[N-]C(=O)C(=O)[N-]Cc2cccs2)cc1OC

>  <Energy>  (38) 
64.09557307108604

>  <Genealogy>  (38) 
COc1ccc(CC[N-]C(=O)C(=O)[N-]Cc2cccs2)cc1OC (protonated)
COc1ccc(CC[N-]C(=O)C(=O)[N-]Cc2cccs2)cc1OC (3D coordinates assigned)
COc1ccc(CC[N-]C(=O)C(=O)[N-]Cc2cccs2)cc1OC (optimized conformer: 64.09557307108604 kcal/mol)

>  <smiles>  (38) 
COc1ccc(CCNC(=O)C(=O)NCc2cccs2)cc1OC

>  <score_type>  (38) 
oracle

>  <origin>  (38) 
adg

>  <m_score__min__energy>  (38) 
-9.3100000000000005

>  <m_primary>  (38) 
energy

$$$$
38:0
     RDKit          3D

 52 55  0  0  0  0  0  0  0  0999 V2000
   -1.8990   24.9350  -28.2650 C   0  0  0  0  0  0  0  0  0  0  0  0
   -2.7300   25.2990  -29.3610 O   0  0  0  0  0  0  0  0  0  0  0  0
   -3.9380   24.6630  -29.6850 C   0  0  0  0  0  0  0  0  0  0  0  0
   -4.1610   23.3710  -29.1990 C   0  0  0  0  0  0  0  0  0  0  0  0
   -5.3470   22.6940  -29.4960 C   0  0  0  0  0  0  0  0  0  0  0  0
   -6.3280   23.2980  -30.2990 C   0  0  0  0  0  0  0  0  0  0  0  0
   -7.6150   22.5640  -30.6180 C   0  0  0  0  0  0  0  0  0  0  0  0
   -7.4220   21.3220  -31.4010 N   0  0  0  0  0  0  0  0  0  0  0  0
   -8.6410   20.5110  -31.5360 C   0  0  0  0  0  0  0  0  0  0  0  0
   -8.2330   19.0900  -31.9180 C   0  0  0  0  0  0  0  0  0  0  0  0
   -7.1980   19.1020  -32.9590 N   0  0  0  0  0  0  0  0  0  0  0  0
   -6.5450   17.8670  -33.2950 C   0  0  0  0  0  0  0  0  0  0  0  0
   -7.2410   16.7540  -33.6460 N   0  0  0  0  0  0  0  0  0  0  0  0
   -6.2710   15.8440  -33.8480 C   0  0  0  0  0  0  0  0  0  0  0  0
   -6.4270   14.5100  -34.2170 C   0  0  0  0  0  0  0  0  0  0  0  0
   -5.2640   13.7260  -34.3750 C   0  0  0  0  0  0  0  0  0  0  0  0
   -5.3810   12.2730  -34.7310 C   0  0  0  0  0  0  0  0  0  0  0  0
   -3.9890   14.2960  -34.1290 C   0  0  0  0  0  0  0  0  0  0  0  0
   -3.8680   15.6480  -33.7590 C   0  0  0  0  0  0  0  0  0  0  0  0
   -5.0410   16.3940  -33.6320 C   0  0  0  0  0  0  0  0  0  0  0  0
   -5.1940   17.6870  -33.2950 N   0  0  0  0  0  0  0  0  0  0  0  0
   -4.1460   18.6670  -33.0170 C   0  0  0  0  0  0  0  0  0  0  0  0
   -6.8620   20.3460  -33.6630 C   0  0  0  0  0  0  0  0  0  0  0  0
   -6.7350   21.5430  -32.6940 C   0  0  0  0  0  0  0  0  0  0  0  0
   -6.1130   24.6020  -30.7740 C   0  0  0  0  0  0  0  0  0  0  0  0
   -4.9270   25.2790  -30.4760 C   0  0  0  0  0  0  0  0  0  0  0  0
   -2.4166   25.1617  -27.3213 H   0  0  0  0  0  0  0  0  0  0  0  0
   -1.6793   23.8582  -28.3132 H   0  0  0  0  0  0  0  0  0  0  0  0
   -0.9586   25.5036  -28.3132 H   0  0  0  0  0  0  0  0  0  0  0  0
   -3.3960   22.8830  -28.5772 H   0  0  0  0  0  0  0  0  0  0  0  0
   -5.5131   21.6819  -29.0984 H   0  0  0  0  0  0  0  0  0  0  0  0
   -8.1079   22.3022  -29.6701 H   0  0  0  0  0  0  0  0  0  0  0  0
   -8.2216   23.2402  -31.2383 H   0  0  0  0  0  0  0  0  0  0  0  0
   -9.1860   20.4972  -30.5806 H   0  0  0  0  0  0  0  0  0  0  0  0
   -9.2958   20.9378  -32.3100 H   0  0  0  0  0  0  0  0  0  0  0  0
   -7.8416   18.5764  -31.0275 H   0  0  0  0  0  0  0  0  0  0  0  0
   -9.1169   18.5645  -32.3085 H   0  0  0  0  0  0  0  0  0  0  0  0
   -7.4264   14.0805  -34.3803 H   0  0  0  0  0  0  0  0  0  0  0  0
   -5.4293   11.6727  -33.8105 H   0  0  0  0  0  0  0  0  0  0  0  0
   -6.2950   12.1127  -35.3217 H   0  0  0  0  0  0  0  0  0  0  0  0
   -4.5045   11.9685  -35.3217 H   0  0  0  0  0  0  0  0  0  0  0  0
   -3.0863   13.6753  -34.2284 H   0  0  0  0  0  0  0  0  0  0  0  0
   -2.8828   16.1017  -33.5760 H   0  0  0  0  0  0  0  0  0  0  0  0
   -4.0272   18.7781  -31.9291 H   0  0  0  0  0  0  0  0  0  0  0  0
   -3.1976   18.3242  -33.4563 H   0  0  0  0  0  0  0  0  0  0  0  0
   -4.4245   19.6362  -33.4563 H   0  0  0  0  0  0  0  0  0  0  0  0
   -5.9044   20.2101  -34.1870 H   0  0  0  0  0  0  0  0  0  0  0  0
   -7.6749   20.5663  -34.3706 H   0  0  0  0  0  0  0  0  0  0  0  0
   -5.6676   21.7215  -32.4968 H   0  0  0  0  0  0  0  0  0  0  0  0
   -7.2160   22.4067  -33.1764 H   0  0  0  0  0  0  0  0  0  0  0  0
   -6.8838   25.0943  -31.3852 H   0  0  0  0  0  0  0  0  0  0  0  0
   -4.7655   26.2968  -30.8608 H   0  0  0  0  0  0  0  0  0  0  0  0
  1  2  1  0
  2  3  1  0
  3  4  2  0
  4  5  1  0
  5  6  2  0
  6  7  1  0
  7  8  1  0
  8  9  1  0
  9 10  1  0
 10 11  1  0
 11 12  1  0
 12 13  2  0
 13 14  1  0
 14 15  2  0
 15 16  1  0
 16 17  1  0
 16 18  2  0
 18 19  1  0
 19 20  2  0
 20 21  1  0
 21 22  1  0
 11 23  1  0
 23 24  1  0
  6 25  1  0
 25 26  2  0
 26  3  1  0
 24  8  1  0
 21 12  1  0
 20 14  1  0
  1 27  1  0
  1 28  1  0
  1 29  1  0
  4 30  1  0
  5 31  1  0
  7 32  1  0
  7 33  1  0
  9 34  1  0
  9 35  1  0
 10 36  1  0
 10 37  1  0
 15 38  1  0
 17 39  1  0
 17 40  1  0
 17 41  1  0
 18 42  1  0
 19 43  1  0
 22 44  1  0
 22 45  1  0
 22 46  1  0
 23 47  1  0
 23 48  1  0
 24 49  1  0
 24 50  1  0
 25 51  1  0
 26 52  1  0
M  END
>  <UniqueID>  (39) 
34

>  <SMILES>  (39) 
COc1ccc(CN2CCN(c3nc4cc(C)ccc4n3C)CC2)cc1

>  <Energy>  (39) 
102.89292786813253

>  <Genealogy>  (39) 
COc1ccc(CN2CCN(c3nc4cc(C)ccc4n3C)CC2)cc1 (3D coordinates assigned)
COc1ccc(CN2CCN(c3nc4cc(C)ccc4n3C)CC2)cc1 (nonaromatic ring conformer: 102.89292786813253 kcal/mol)

>  <smiles>  (39) 
COc1ccc(CN2CCN(c3nc4cc(C)ccc4n3C)CC2)cc1

>  <score_type>  (39) 
oracle

>  <origin>  (39) 
adg

>  <m_score__min__energy>  (39) 
-8.5600000000000005

>  <m_primary>  (39) 
energy

$$$$
39:0
     RDKit          3D

 30 32  0  0  0  0  0  0  0  0999 V2000
   -1.9830   25.3100  -29.2590 O   0  0  0  0  0  0  0  0  0  0  0  0
   -3.1440   24.6350  -29.6200 C   0  0  0  0  0  0  0  0  0  0  0  0
   -4.0500   25.1440  -30.4770 N   0  0  0  0  0  0  0  0  0  0  0  0
   -4.9990   24.1920  -30.5890 C   0  0  0  0  0  0  0  0  0  0  0  0
   -6.1780   24.3090  -31.5010 C   0  0  0  0  0  0  0  0  0  0  0  0
   -6.7860   22.9620  -31.7250 C   0  0  0  0  0  0  0  0  0  0  0  0
   -6.1700   21.8870  -32.3530 C   0  0  0  0  0  0  0  0  0  0  0  0
   -7.0120   20.7780  -32.4940 C   0  0  0  0  0  0  0  0  0  0  0  0
   -8.2920   20.9820  -31.9930 C   0  0  0  0  0  0  0  0  0  0  0  0
   -8.3760   22.5440  -31.3770 S   0  0  0  0  0  0  0  0  0  0  0  0
   -4.6920   23.0800  -29.8270 C   0  0  0  0  0  0  0  0  0  0  0  0
   -3.5020   23.3680  -29.1880 C   0  0  0  0  0  0  0  0  0  0  0  0
   -2.7630   22.4770  -28.2620 C   0  0  0  0  0  0  0  0  0  0  0  0
   -2.9420   21.0820  -28.3300 C   0  0  0  0  0  0  0  0  0  0  0  0
   -2.2520   20.2350  -27.4570 C   0  0  0  0  0  0  0  0  0  0  0  0
   -1.3820   20.7700  -26.5050 C   0  0  0  0  0  0  0  0  0  0  0  0
   -1.2020   22.1520  -26.4220 C   0  0  0  0  0  0  0  0  0  0  0  0
   -1.8900   23.0030  -27.2920 C   0  0  0  0  0  0  0  0  0  0  0  0
   -1.6130   26.0500  -29.8440 H   0  0  0  0  0  0  0  0  0  0  0  0
   -6.9258   24.9752  -31.0461 H   0  0  0  0  0  0  0  0  0  0  0  0
   -5.8488   24.7218  -32.4660 H   0  0  0  0  0  0  0  0  0  0  0  0
   -5.1275   21.9054  -32.7035 H   0  0  0  0  0  0  0  0  0  0  0  0
   -6.6908   19.8337  -32.9578 H   0  0  0  0  0  0  0  0  0  0  0  0
   -9.1104   20.2470  -31.9985 H   0  0  0  0  0  0  0  0  0  0  0  0
   -5.2777   22.1524  -29.7460 H   0  0  0  0  0  0  0  0  0  0  0  0
   -3.6295   20.6554  -29.0752 H   0  0  0  0  0  0  0  0  0  0  0  0
   -2.3948   19.1462  -27.5204 H   0  0  0  0  0  0  0  0  0  0  0  0
   -0.8383   20.1025  -25.8203 H   0  0  0  0  0  0  0  0  0  0  0  0
   -0.5174   22.5722  -25.6705 H   0  0  0  0  0  0  0  0  0  0  0  0
   -1.7479   24.0912  -27.2177 H   0  0  0  0  0  0  0  0  0  0  0  0
  1  2  1  0
  2  3  1  0
  3  4  1  0
  4  5  1  0
  5  6  1  0
  6  7  2  0
  7  8  1  0
  8  9  2  0
  9 10  1  0
  4 11  2  0
 11 12  1  0
 12 13  1  0
 13 14  2  0
 14 15  1  0
 15 16  2  0
 16 17  1  0
 17 18  2  0
 12  2  2  0
 18 13  1  0
 10  6  1  0
  1 19  1  0
  5 20  1  0
  5 21  1  0
  7 22  1  0
  8 23  1  0
  9 24  1  0
 11 25  1  0
 14 26  1  0
 15 27  1  0
 16 28  1  0
 17 29  1  0
 18 30  1  0
M  CHG  1   3  -1
M  END
>  <UniqueID>  (40) 
35

>  <SMILES>  (40) 
Oc1[n-]c(Cc2cccs2)cc1-c1ccccc1

>  <Energy>  (40) 
84.03381896673197

>  <Genealogy>  (40) 
Oc1[n-]c(Cc2cccs2)cc1-c1ccccc1 (protonated)
Oc1[n-]c(Cc2cccs2)cc1-c1ccccc1 (3D coordinates assigned)
Oc1[n-]c(Cc2cccs2)cc1-c1ccccc1 (optimized conformer: 84.03381896673197 kcal/mol)

>  <smiles>  (40) 
Oc1[nH]c(Cc2cccs2)cc1-c1ccccc1

>  <score_type>  (40) 
oracle

>  <origin>  (40) 
adg

>  <m_score__min__energy>  (40) 
-9.8499999999999996

>  <m_primary>  (40) 
energy

$$$$
40:0
     RDKit          3D

 37 39  0  0  0  0  0  0  0  0999 V2000
   -7.9030   23.0600  -30.5050 O   0  0  0  0  0  0  0  0  0  0  0  0
   -6.7460   23.5490  -30.6210 C   0  0  0  0  0  0  0  0  0  0  0  0
   -6.5560   24.9020  -30.3410 C   0  0  0  0  0  0  0  0  0  0  0  0
   -5.2810   25.4500  -30.4650 C   0  0  0  0  0  0  0  0  0  0  0  0
   -4.2570   24.6940  -30.8420 O   0  0  0  0  0  0  0  0  0  0  0  0
   -4.3840   23.3990  -31.1220 C   0  0  0  0  0  0  0  0  0  0  0  0
   -3.2570   22.6740  -31.5110 C   0  0  0  0  0  0  0  0  0  0  0  0
   -3.3640   21.3170  -31.8080 C   0  0  0  0  0  0  0  0  0  0  0  0
   -4.5990   20.6720  -31.7200 C   0  0  0  0  0  0  0  0  0  0  0  0
   -5.7540   21.3780  -31.3260 C   0  0  0  0  0  0  0  0  0  0  0  0
   -7.0070   20.7450  -31.2340 O   0  0  0  0  0  0  0  0  0  0  0  0
   -7.8800   20.4490  -32.3260 C   0  0  0  0  0  0  0  0  0  0  0  0
   -7.4230   19.1820  -33.0730 C   0  0  0  0  0  0  0  0  0  0  0  0
   -6.3880   19.5240  -34.1780 C   0  0  0  0  0  0  0  0  0  0  0  0
   -5.4530   18.3500  -34.5320 C   0  0  0  0  0  0  0  0  0  0  0  0
   -6.1190   16.9950  -34.2780 C   0  0  0  0  0  0  0  0  0  0  0  0
   -6.5010   16.8200  -32.7940 C   0  0  0  0  0  0  0  0  0  0  0  0
   -6.8510   18.1460  -32.0880 C   0  0  0  0  0  0  0  0  0  0  0  0
   -5.6460   22.7600  -31.0260 C   0  0  0  0  0  0  0  0  0  0  0  0
   -7.4029   25.5292  -30.0259 H   0  0  0  0  0  0  0  0  0  0  0  0
   -5.1218   26.5168  -30.2490 H   0  0  0  0  0  0  0  0  0  0  0  0
   -2.2807   23.1756  -31.5834 H   0  0  0  0  0  0  0  0  0  0  0  0
   -2.4714   20.7513  -32.1132 H   0  0  0  0  0  0  0  0  0  0  0  0
   -4.6717   19.6011  -31.9607 H   0  0  0  0  0  0  0  0  0  0  0  0
   -8.8978   20.2910  -31.9398 H   0  0  0  0  0  0  0  0  0  0  0  0
   -7.8603   21.2952  -33.0285 H   0  0  0  0  0  0  0  0  0  0  0  0
   -8.3040   18.7423  -33.5634 H   0  0  0  0  0  0  0  0  0  0  0  0
   -6.9337   19.8201  -35.0861 H   0  0  0  0  0  0  0  0  0  0  0  0
   -5.7549   20.3345  -33.7876 H   0  0  0  0  0  0  0  0  0  0  0  0
   -5.1817   18.4194  -35.5958 H   0  0  0  0  0  0  0  0  0  0  0  0
   -4.5617   18.4180  -33.8909 H   0  0  0  0  0  0  0  0  0  0  0  0
   -7.0291   16.9238  -34.8918 H   0  0  0  0  0  0  0  0  0  0  0  0
   -5.4027   16.2039  -34.5447 H   0  0  0  0  0  0  0  0  0  0  0  0
   -7.3741   16.1535  -32.7355 H   0  0  0  0  0  0  0  0  0  0  0  0
   -5.6221   16.4025  -32.2808 H   0  0  0  0  0  0  0  0  0  0  0  0
   -7.5986   17.9470  -31.3060 H   0  0  0  0  0  0  0  0  0  0  0  0
   -5.9276   18.5580  -31.6549 H   0  0  0  0  0  0  0  0  0  0  0  0
  1  2  2  0
  2  3  1  0
  3  4  2  0
  4  5  1  0
  5  6  1  0
  6  7  2  0
  7  8  1  0
  8  9  2  0
  9 10  1  0
 10 11  1  0
 11 12  1  0
 12 13  1  0
 13 14  1  0
 14 15  1  0
 15 16  1  0
 16 17  1  0
 17 18  1  0
 10 19  2  0
 19  2  1  0
 19  6  1  0
 18 13  1  0
  3 20  1  0
  4 21  1  0
  7 22  1  0
  8 23  1  0
  9 24  1  0
 12 25  1  0
 12 26  1  0
 13 27  1  0
 14 28  1  0
 14 29  1  0
 15 30  1  0
 15 31  1  0
 16 32  1  0
 16 33  1  0
 17 34  1  0
 17 35  1  0
 18 36  1  0
 18 37  1  0
M  END
>  <UniqueID>  (41) 
36

>  <SMILES>  (41) 
O=c1ccoc2cccc(OCC3CCCCC3)c12

>  <Energy>  (41) 
45.55482248828562

>  <Genealogy>  (41) 
O=c1ccoc2cccc(OCC3CCCCC3)c12 (3D coordinates assigned)
O=c1ccoc2cccc(OCC3CCCCC3)c12 (nonaromatic ring conformer: 45.55482248828562 kcal/mol)

>  <smiles>  (41) 
O=c1ccoc2cccc(OCC3CCCCC3)c12

>  <score_type>  (41) 
oracle

>  <origin>  (41) 
adg

>  <m_score__min__energy>  (41) 
-7.4699999999999998

>  <m_primary>  (41) 
energy

$$$$
41:0
     RDKit          3D

 40 42  0  0  0  0  0  0  0  0999 V2000
   -2.2500   24.5780  -28.1630 C   0  0  0  0  0  0  0  0  0  0  0  0
   -3.2880   24.0710  -29.1200 C   0  0  0  0  0  0  0  0  0  0  0  0
   -3.6650   22.7220  -29.1140 C   0  0  0  0  0  0  0  0  0  0  0  0
   -4.6060   22.2550  -30.0330 C   0  0  0  0  0  0  0  0  0  0  0  0
   -5.1530   23.1410  -30.9750 C   0  0  0  0  0  0  0  0  0  0  0  0
   -6.1360   22.7020  -31.9310 N   0  0  0  0  0  0  0  0  0  0  0  0
   -7.4890   23.2550  -31.9040 C   0  0  0  0  0  0  0  0  0  0  0  0
   -8.4310   22.2240  -31.2760 C   0  0  0  0  0  0  0  0  0  0  0  0
   -8.1830   20.8230  -31.7880 C   0  0  0  0  0  0  0  0  0  0  0  0
   -9.1190   19.8710  -31.5410 N   0  0  0  0  0  0  0  0  0  0  0  0
   -8.9290   18.5800  -31.9130 C   0  0  0  0  0  0  0  0  0  0  0  0
   -7.7820   18.2100  -32.5370 N   0  0  0  0  0  0  0  0  0  0  0  0
   -6.8040   19.1180  -32.8050 C   0  0  0  0  0  0  0  0  0  0  0  0
   -5.6090   18.6870  -33.4680 N   0  0  0  0  0  0  0  0  0  0  0  0
   -4.3550   18.6610  -32.7160 C   0  0  0  0  0  0  0  0  0  0  0  0
   -5.6970   18.1780  -34.8370 C   0  0  0  0  0  0  0  0  0  0  0  0
   -6.9720   20.4620  -32.4210 C   0  0  0  0  0  0  0  0  0  0  0  0
   -5.9390   21.5110  -32.7640 C   0  0  0  0  0  0  0  0  0  0  0  0
   -4.7650   24.4470  -30.9650 N   0  0  0  0  0  0  0  0  0  0  0  0
   -3.8530   24.9240  -30.0770 C   0  0  0  0  0  0  0  0  0  0  0  0
   -2.5908   24.4115  -27.1304 H   0  0  0  0  0  0  0  0  0  0  0  0
   -1.3049   24.0401  -28.3284 H   0  0  0  0  0  0  0  0  0  0  0  0
   -2.0932   25.6541  -28.3284 H   0  0  0  0  0  0  0  0  0  0  0  0
   -3.2191   22.0300  -28.3844 H   0  0  0  0  0  0  0  0  0  0  0  0
   -4.9170   21.2000  -30.0194 H   0  0  0  0  0  0  0  0  0  0  0  0
   -7.4993   24.1780  -31.3056 H   0  0  0  0  0  0  0  0  0  0  0  0
   -7.8182   23.4875  -32.9275 H   0  0  0  0  0  0  0  0  0  0  0  0
   -8.2855   22.2317  -30.1857 H   0  0  0  0  0  0  0  0  0  0  0  0
   -9.4596   22.5018  -31.5496 H   0  0  0  0  0  0  0  0  0  0  0  0
   -9.7076   17.8305  -31.7080 H   0  0  0  0  0  0  0  0  0  0  0  0
   -7.6540   17.2120  -32.8160 H   0  0  0  0  0  0  0  0  0  0  0  0
   -4.5738   18.6655  -31.6380 H   0  0  0  0  0  0  0  0  0  0  0  0
   -3.7926   17.7510  -32.9722 H   0  0  0  0  0  0  0  0  0  0  0  0
   -3.7554   19.5469  -32.9722 H   0  0  0  0  0  0  0  0  0  0  0  0
   -5.8844   17.0943  -34.8139 H   0  0  0  0  0  0  0  0  0  0  0  0
   -6.5214   18.6815  -35.3631 H   0  0  0  0  0  0  0  0  0  0  0  0
   -4.7514   18.3755  -35.3631 H   0  0  0  0  0  0  0  0  0  0  0  0
   -4.9331   21.1037  -32.5847 H   0  0  0  0  0  0  0  0  0  0  0  0
   -6.0460   21.7898  -33.8227 H   0  0  0  0  0  0  0  0  0  0  0  0
   -3.5577   25.9831  -30.1099 H   0  0  0  0  0  0  0  0  0  0  0  0
  1  2  1  0
  2  3  2  0
  3  4  1  0
  4  5  2  0
  5  6  1  0
  6  7  1  0
  7  8  1  0
  8  9  1  0
  9 10  2  0
 10 11  1  0
 11 12  2  0
 12 13  1  0
 13 14  1  0
 14 15  1  0
 14 16  1  0
 13 17  2  0
 17 18  1  0
  5 19  1  0
 19 20  2  0
 20  2  1  0
 18  6  1  0
 17  9  1  0
  1 21  1  0
  1 22  1  0
  1 23  1  0
  3 24  1  0
  4 25  1  0
  7 26  1  0
  7 27  1  0
  8 28  1  0
  8 29  1  0
 11 30  1  0
 12 31  1  0
 15 32  1  0
 15 33  1  0
 15 34  1  0
 16 35  1  0
 16 36  1  0
 16 37  1  0
 18 38  1  0
 18 39  1  0
 20 40  1  0
M  CHG  1  12   1
M  END
>  <UniqueID>  (42) 
37

>  <SMILES>  (42) 
Cc1ccc(N2CCc3nc[nH+]c(N(C)C)c3C2)nc1

>  <Energy>  (42) 
51.33169309468281

>  <Genealogy>  (42) 
Cc1ccc(N2CCc3nc[nH+]c(N(C)C)c3C2)nc1 (protonated)
Cc1ccc(N2CCc3nc[nH+]c(N(C)C)c3C2)nc1 (3D coordinates assigned)
Cc1ccc(N2CCc3nc[nH+]c(N(C)C)c3C2)nc1 (nonaromatic ring conformer: 51.33169309468281 kcal/mol)

>  <smiles>  (42) 
Cc1ccc(N2CCc3ncnc(N(C)C)c3C2)nc1

>  <score_type>  (42) 
oracle

>  <origin>  (42) 
adg

>  <m_score__min__energy>  (42) 
-6.8099999999999996

>  <m_primary>  (42) 
energy

$$$$
42:0
     RDKit          3D

 38 41  0  0  0  0  0  0  0  0999 V2000
   -9.4960   21.5750  -31.2330 C   0  0  0  0  0  0  0  0  0  0  0  0
   -8.5990   22.6130  -31.8960 C   0  0  0  0  0  0  0  0  0  0  0  0
   -7.2280   22.1080  -31.9990 N   0  0  0  0  0  0  0  0  0  0  0  0
   -6.7920   21.0450  -32.7230 C   0  0  0  0  0  0  0  0  0  0  0  0
   -7.5410   20.3600  -33.4690 O   0  0  0  0  0  0  0  0  0  0  0  0
   -5.4720   20.7820  -32.5450 N   0  0  0  0  0  0  0  0  0  0  0  0
   -4.7020   19.6700  -33.0940 C   0  0  0  0  0  0  0  0  0  0  0  0
   -5.0690   21.6970  -31.6390 C   0  0  0  0  0  0  0  0  0  0  0  0
   -3.8040   21.8450  -31.0450 C   0  0  0  0  0  0  0  0  0  0  0  0
   -3.7010   22.8770  -30.1020 C   0  0  0  0  0  0  0  0  0  0  0  0
   -2.6200   23.2290  -29.3870 N   0  0  0  0  0  0  0  0  0  0  0  0
   -3.0690   24.2670  -28.6270 C   0  0  0  0  0  0  0  0  0  0  0  0
   -2.1990   24.9830  -27.6600 C   0  0  0  0  0  0  0  0  0  0  0  0
   -0.9100   25.4260  -28.0170 C   0  0  0  0  0  0  0  0  0  0  0  0
   -0.1070   26.0970  -27.0890 C   0  0  0  0  0  0  0  0  0  0  0  0
   -0.5780   26.3340  -25.7960 C   0  0  0  0  0  0  0  0  0  0  0  0
   -1.8510   25.8970  -25.4270 C   0  0  0  0  0  0  0  0  0  0  0  0
   -2.6580   25.2250  -26.3500 C   0  0  0  0  0  0  0  0  0  0  0  0
   -4.3800   24.5630  -28.8430 N   0  0  0  0  0  0  0  0  0  0  0  0
   -4.7670   23.6820  -29.7730 C   0  0  0  0  0  0  0  0  0  0  0  0
   -6.0350   23.5340  -30.3530 C   0  0  0  0  0  0  0  0  0  0  0  0
   -6.1420   22.5070  -31.3060 C   0  0  0  0  0  0  0  0  0  0  0  0
   -9.4168   21.6667  -30.1397 H   0  0  0  0  0  0  0  0  0  0  0  0
  -10.5389   21.7417  -31.5403 H   0  0  0  0  0  0  0  0  0  0  0  0
   -9.1798   20.5672  -31.5403 H   0  0  0  0  0  0  0  0  0  0  0  0
   -8.9815   22.8327  -32.9037 H   0  0  0  0  0  0  0  0  0  0  0  0
   -8.5985   23.5281  -31.2855 H   0  0  0  0  0  0  0  0  0  0  0  0
   -4.2865   19.0700  -32.2710 H   0  0  0  0  0  0  0  0  0  0  0  0
   -5.3580   19.0397  -33.7124 H   0  0  0  0  0  0  0  0  0  0  0  0
   -3.8812   20.0623  -33.7124 H   0  0  0  0  0  0  0  0  0  0  0  0
   -2.9538   21.1961  -31.3022 H   0  0  0  0  0  0  0  0  0  0  0  0
   -0.5322   25.2427  -29.0337 H   0  0  0  0  0  0  0  0  0  0  0  0
    0.8977   26.4388  -27.3783 H   0  0  0  0  0  0  0  0  0  0  0  0
    0.0539   26.8648  -25.0687 H   0  0  0  0  0  0  0  0  0  0  0  0
   -2.2204   26.0817  -24.4075 H   0  0  0  0  0  0  0  0  0  0  0  0
   -3.6596   24.8824  -26.0510 H   0  0  0  0  0  0  0  0  0  0  0  0
   -4.9740   25.2920  -28.3910 H   0  0  0  0  0  0  0  0  0  0  0  0
   -6.8856   24.1763  -30.0812 H   0  0  0  0  0  0  0  0  0  0  0  0
  1  2  1  0
  2  3  1  0
  3  4  1  0
  4  5  2  0
  4  6  1  0
  6  7  1  0
  6  8  1  0
  8  9  2  0
  9 10  1  0
 10 11  1  0
 11 12  2  0
 12 13  1  0
 13 14  2  0
 14 15  1  0
 15 16  2  0
 16 17  1  0
 17 18  2  0
 12 19  1  0
 19 20  1  0
 20 21  1  0
 21 22  2  0
 22  3  1  0
 22  8  1  0
 20 10  2  0
 18 13  1  0
  1 23  1  0
  1 24  1  0
  1 25  1  0
  2 26  1  0
  2 27  1  0
  7 28  1  0
  7 29  1  0
  7 30  1  0
  9 31  1  0
 14 32  1  0
 15 33  1  0
 16 34  1  0
 17 35  1  0
 18 36  1  0
 19 37  1  0
 21 38  1  0
M  END
>  <UniqueID>  (43) 
38

>  <SMILES>  (43) 
CCn1c(=O)n(C)c2cc3nc(-c4ccccc4)[nH]c3cc21

>  <Energy>  (43) 
117.1855325700292

>  <Genealogy>  (43) 
CCn1c(=O)n(C)c2cc3nc(-c4ccccc4)[nH]c3cc21 (3D coordinates assigned)
CCn1c(=O)n(C)c2cc3nc(-c4ccccc4)[nH]c3cc21 (optimized conformer: 117.1855325700292 kcal/mol)

>  <smiles>  (43) 
CCn1c(=O)n(C)c2cc3nc(-c4ccccc4)[nH]c3cc21

>  <score_type>  (43) 
oracle

>  <origin>  (43) 
adg

>  <m_score__min__energy>  (43) 
-7.2599999999999998

>  <m_primary>  (43) 
energy

$$$$
43:0
     RDKit          3D

 40 42  0  0  0  0  0  0  0  0999 V2000
   -1.5310   20.3980  -27.8060 C   0  0  0  0  0  0  0  0  0  0  0  0
   -1.6310   21.8980  -27.7110 C   0  0  0  0  0  0  0  0  0  0  0  0
   -1.2260   22.5310  -26.5240 C   0  0  0  0  0  0  0  0  0  0  0  0
   -1.3060   23.9160  -26.3950 C   0  0  0  0  0  0  0  0  0  0  0  0
   -1.8020   24.6880  -27.4440 C   0  0  0  0  0  0  0  0  0  0  0  0
   -2.2210   24.0830  -28.6340 C   0  0  0  0  0  0  0  0  0  0  0  0
   -2.7310   24.9230  -29.6760 N   0  0  0  0  0  0  0  0  0  0  0  0
   -4.0790   24.8880  -30.1620 C   0  0  0  0  0  0  0  0  0  0  0  0
   -4.4000   25.6390  -31.1210 O   0  0  0  0  0  0  0  0  0  0  0  0
   -5.1300   24.0250  -29.5280 C   0  0  0  0  0  0  0  0  0  0  0  0
   -6.6470   24.0520  -30.5350 S   0  0  0  0  0  0  0  0  0  0  0  0
   -6.0590   22.7620  -31.6490 C   0  0  0  0  0  0  0  0  0  0  0  0
   -4.8330   22.9080  -32.2240 N   0  0  0  0  0  0  0  0  0  0  0  0
   -4.3260   21.9600  -33.0540 C   0  0  0  0  0  0  0  0  0  0  0  0
   -5.0370   20.8370  -33.3260 N   0  0  0  0  0  0  0  0  0  0  0  0
   -6.2650   20.6370  -32.7830 C   0  0  0  0  0  0  0  0  0  0  0  0
   -6.9740   19.4660  -33.0750 C   0  0  0  0  0  0  0  0  0  0  0  0
   -8.2370   19.2540  -32.5160 C   0  0  0  0  0  0  0  0  0  0  0  0
   -8.7970   20.2120  -31.6670 C   0  0  0  0  0  0  0  0  0  0  0  0
   -8.0980   21.3850  -31.3710 C   0  0  0  0  0  0  0  0  0  0  0  0
   -6.8220   21.6090  -31.9220 C   0  0  0  0  0  0  0  0  0  0  0  0
   -2.0950   22.6810  -28.7990 C   0  0  0  0  0  0  0  0  0  0  0  0
   -2.4500   22.0210  -30.1110 C   0  0  0  0  0  0  0  0  0  0  0  0
   -1.5023   19.9676  -26.7941 H   0  0  0  0  0  0  0  0  0  0  0  0
   -2.4050   20.0058  -28.3466 H   0  0  0  0  0  0  0  0  0  0  0  0
   -0.6127   20.1252  -28.3466 H   0  0  0  0  0  0  0  0  0  0  0  0
   -0.8420   21.9274  -25.6884 H   0  0  0  0  0  0  0  0  0  0  0  0
   -0.9772   24.4008  -25.4639 H   0  0  0  0  0  0  0  0  0  0  0  0
   -1.8645   25.7809  -27.3356 H   0  0  0  0  0  0  0  0  0  0  0  0
   -4.7587   22.9921  -29.4560 H   0  0  0  0  0  0  0  0  0  0  0  0
   -5.3563   24.4105  -28.5229 H   0  0  0  0  0  0  0  0  0  0  0  0
   -4.2650   23.7610  -32.0240 H   0  0  0  0  0  0  0  0  0  0  0  0
   -3.3343   22.1034  -33.5078 H   0  0  0  0  0  0  0  0  0  0  0  0
   -6.5364   18.7116  -33.7454 H   0  0  0  0  0  0  0  0  0  0  0  0
   -8.7911   18.3317  -32.7447 H   0  0  0  0  0  0  0  0  0  0  0  0
   -9.7920   20.0421  -31.2299 H   0  0  0  0  0  0  0  0  0  0  0  0
   -8.5465   22.1366  -30.7047 H   0  0  0  0  0  0  0  0  0  0  0  0
   -2.9627   21.0677  -29.9150 H   0  0  0  0  0  0  0  0  0  0  0  0
   -3.1138   22.6828  -30.6866 H   0  0  0  0  0  0  0  0  0  0  0  0
   -1.5319   21.8319  -30.6866 H   0  0  0  0  0  0  0  0  0  0  0  0
  1  2  1  0
  2  3  2  0
  3  4  1  0
  4  5  2  0
  5  6  1  0
  6  7  1  0
  7  8  1  0
  8  9  2  0
  8 10  1  0
 10 11  1  0
 11 12  1  0
 12 13  2  0
 13 14  1  0
 14 15  2  0
 15 16  1  0
 16 17  2  0
 17 18  1  0
 18 19  2  0
 19 20  1  0
 20 21  2  0
  6 22  2  0
 22 23  1  0
 22  2  1  0
 21 12  1  0
 21 16  1  0
  1 24  1  0
  1 25  1  0
  1 26  1  0
  3 27  1  0
  4 28  1  0
  5 29  1  0
 10 30  1  0
 10 31  1  0
 13 32  1  0
 14 33  1  0
 17 34  1  0
 18 35  1  0
 19 36  1  0
 20 37  1  0
 23 38  1  0
 23 39  1  0
 23 40  1  0
M  CHG  2   7  -1  13   1
M  END
>  <UniqueID>  (44) 
39

>  <SMILES>  (44) 
Cc1cccc([N-]C(=O)CSc2[nH+]cnc3ccccc23)c1C

>  <Energy>  (44) 
46.90066154967561

>  <Genealogy>  (44) 
Cc1cccc([N-]C(=O)CSc2[nH+]cnc3ccccc23)c1C (protonated)
Cc1cccc([N-]C(=O)CSc2[nH+]cnc3ccccc23)c1C (3D coordinates assigned)
Cc1cccc([N-]C(=O)CSc2[nH+]cnc3ccccc23)c1C (optimized conformer: 46.90066154967561 kcal/mol)

>  <smiles>  (44) 
Cc1cccc(NC(=O)CSc2ncnc3ccccc23)c1C

>  <score_type>  (44) 
oracle

>  <origin>  (44) 
adg

>  <m_score__min__energy>  (44) 
-9.8200000000000003

>  <m_primary>  (44) 
energy

$$$$
44:0
     RDKit          3D

 30 31  0  0  0  0  0  0  0  0999 V2000
   -3.4420   24.0740  -29.4100 C   0  0  0  0  0  0  0  0  0  0  0  0
   -4.6620   24.5360  -28.6250 C   0  0  0  0  0  0  0  0  0  0  0  0
   -5.8780   25.3480  -29.7190 S   0  0  0  0  0  0  0  0  0  0  0  0
   -6.0590   23.9420  -30.8120 C   0  0  0  0  0  0  0  0  0  0  0  0
   -5.4030   23.8060  -31.9820 N   0  0  0  0  0  0  0  0  0  0  0  0
   -5.8060   22.6480  -32.4740 N   0  0  0  0  0  0  0  0  0  0  0  0
   -6.6810   22.1180  -31.6000 C   0  0  0  0  0  0  0  0  0  0  0  0
   -7.3910   20.8390  -31.7800 C   0  0  0  0  0  0  0  0  0  0  0  0
   -8.5550   20.5800  -31.2170 C   0  0  0  0  0  0  0  0  0  0  0  0
   -9.1130   19.2940  -31.7220 C   0  0  0  0  0  0  0  0  0  0  0  0
   -8.0690   18.8170  -32.7430 C   0  0  0  0  0  0  0  0  0  0  0  0
   -6.9990   19.8050  -32.6790 N   0  0  0  0  0  0  0  0  0  0  0  0
   -5.6670   19.5150  -33.1320 C   0  0  0  0  0  0  0  0  0  0  0  0
   -5.1560   18.1110  -33.2290 C   0  0  0  0  0  0  0  0  0  0  0  0
   -4.9210   20.4610  -33.5010 O   0  0  0  0  0  0  0  0  0  0  0  0
   -6.8440   22.9170  -30.5730 O   0  0  0  0  0  0  0  0  0  0  0  0
   -2.6481   23.7734  -28.7104 H   0  0  0  0  0  0  0  0  0  0  0  0
   -3.7163   23.2175  -30.0434 H   0  0  0  0  0  0  0  0  0  0  0  0
   -3.0801   24.8974  -30.0434 H   0  0  0  0  0  0  0  0  0  0  0  0
   -5.1336   23.6642  -28.1479 H   0  0  0  0  0  0  0  0  0  0  0  0
   -4.3350   25.2619  -27.8660 H   0  0  0  0  0  0  0  0  0  0  0  0
   -5.5110   22.2600  -33.3960 H   0  0  0  0  0  0  0  0  0  0  0  0
   -9.0473   21.2258  -30.4751 H   0  0  0  0  0  0  0  0  0  0  0  0
   -9.2223   18.5664  -30.9043 H   0  0  0  0  0  0  0  0  0  0  0  0
  -10.1153   19.4084  -32.1605 H   0  0  0  0  0  0  0  0  0  0  0  0
   -7.6912   17.8200  -32.4724 H   0  0  0  0  0  0  0  0  0  0  0  0
   -8.4909   18.7302  -33.7552 H   0  0  0  0  0  0  0  0  0  0  0  0
   -5.0079   17.7040  -32.2178 H   0  0  0  0  0  0  0  0  0  0  0  0
   -5.8863   17.4916  -33.7702 H   0  0  0  0  0  0  0  0  0  0  0  0
   -4.1984   18.1059  -33.7702 H   0  0  0  0  0  0  0  0  0  0  0  0
  1  2  1  0
  2  3  1  0
  3  4  1  0
  4  5  2  0
  5  6  1  0
  6  7  2  0
  7  8  1  0
  8  9  2  0
  9 10  1  0
 10 11  1  0
 11 12  1  0
 12 13  1  0
 13 14  1  0
 13 15  2  0
  7 16  1  0
 16  4  1  0
 12  8  1  0
  1 17  1  0
  1 18  1  0
  1 19  1  0
  2 20  1  0
  2 21  1  0
  6 22  1  0
  9 23  1  0
 10 24  1  0
 10 25  1  0
 11 26  1  0
 11 27  1  0
 14 28  1  0
 14 29  1  0
 14 30  1  0
M  CHG  1   6   1
M  END
>  <UniqueID>  (45) 
40

>  <SMILES>  (45) 
CCSc1n[nH+]c(C2=CCCN2C(C)=O)o1

>  <Energy>  (45) 
71.83404386513882

>  <Genealogy>  (45) 
CCSc1n[nH+]c(C2=CCCN2C(C)=O)o1 (protonated)
CCSc1n[nH+]c(C2=CCCN2C(C)=O)o1 (3D coordinates assigned)
CCSc1n[nH+]c(C2=CCCN2C(C)=O)o1 (nonaromatic ring conformer: 71.83404386513882 kcal/mol)

>  <smiles>  (45) 
CCSc1nnc(C2=CCCN2C(C)=O)o1

>  <score_type>  (45) 
oracle

>  <origin>  (45) 
adg

>  <m_score__min__energy>  (45) 
-5.6299999999999999

>  <m_primary>  (45) 
energy

$$$$
45:0
     RDKit          3D

 49 53  0  0  0  0  0  0  0  0999 V2000
   -5.8120   25.6840  -29.9570 C   0  0  0  0  0  0  0  0  0  0  0  0
   -6.0140   24.3410  -30.5940 C   0  0  0  0  0  0  0  0  0  0  0  0
   -4.9690   23.7350  -31.3010 C   0  0  0  0  0  0  0  0  0  0  0  0
   -5.1550   22.5010  -31.9300 C   0  0  0  0  0  0  0  0  0  0  0  0
   -6.3960   21.8390  -31.8570 C   0  0  0  0  0  0  0  0  0  0  0  0
   -7.4800   22.4930  -31.1950 C   0  0  0  0  0  0  0  0  0  0  0  0
   -8.7690   21.9130  -31.1880 C   0  0  0  0  0  0  0  0  0  0  0  0
   -9.0080   20.6960  -31.8340 C   0  0  0  0  0  0  0  0  0  0  0  0
   -7.9420   20.0540  -32.4530 C   0  0  0  0  0  0  0  0  0  0  0  0
   -8.0070   18.8670  -33.0860 N   0  0  0  0  0  0  0  0  0  0  0  0
   -6.7460   18.6080  -33.4750 C   0  0  0  0  0  0  0  0  0  0  0  0
   -6.3090   17.4570  -34.1260 C   0  0  0  0  0  0  0  0  0  0  0  0
   -4.9400   17.3270  -34.3950 C   0  0  0  0  0  0  0  0  0  0  0  0
   -4.0320   18.3400  -34.0070 C   0  0  0  0  0  0  0  0  0  0  0  0
   -2.6210   18.1820  -34.2160 N   0  0  0  0  0  0  0  0  0  0  0  0
   -1.6860   18.9690  -33.7630 C   0  0  0  0  0  0  0  0  0  0  0  0
   -0.7820   18.4770  -32.6770 C   0  0  0  0  0  0  0  0  0  0  0  0
   -0.7950   19.4480  -31.4800 C   0  0  0  0  0  0  0  0  0  0  0  0
   -0.8630   20.8900  -31.8490 N   0  0  0  0  0  0  0  0  0  0  0  0
   -2.1240   21.5100  -31.4040 C   0  0  0  0  0  0  0  0  0  0  0  0
   -0.5900   21.1680  -33.2770 C   0  0  0  0  0  0  0  0  0  0  0  0
   -1.5410   20.4030  -34.2110 C   0  0  0  0  0  0  0  0  0  0  0  0
   -4.4960   19.4760  -33.3170 C   0  0  0  0  0  0  0  0  0  0  0  0
   -5.8730   19.6140  -33.0950 C   0  0  0  0  0  0  0  0  0  0  0  0
   -6.6560   20.5790  -32.4480 C   0  0  0  0  0  0  0  0  0  0  0  0
   -7.2730   23.7310  -30.5660 C   0  0  0  0  0  0  0  0  0  0  0  0
   -5.8281   25.5768  -28.8624 H   0  0  0  0  0  0  0  0  0  0  0  0
   -4.8417   26.0964  -30.2708 H   0  0  0  0  0  0  0  0  0  0  0  0
   -6.6180   26.3636  -30.2708 H   0  0  0  0  0  0  0  0  0  0  0  0
   -3.9912   24.2352  -31.3622 H   0  0  0  0  0  0  0  0  0  0  0  0
   -4.3247   22.0426  -32.4871 H   0  0  0  0  0  0  0  0  0  0  0  0
   -9.5930   22.4244  -30.6688 H   0  0  0  0  0  0  0  0  0  0  0  0
  -10.0164   20.2569  -31.8518 H   0  0  0  0  0  0  0  0  0  0  0  0
   -8.8490   18.2620  -33.2180 H   0  0  0  0  0  0  0  0  0  0  0  0
   -7.0196   16.6709  -34.4211 H   0  0  0  0  0  0  0  0  0  0  0  0
   -4.5684   16.4300  -34.9120 H   0  0  0  0  0  0  0  0  0  0  0  0
   -1.1240   17.4864  -32.3428 H   0  0  0  0  0  0  0  0  0  0  0  0
    0.2432   18.4124  -33.0706 H   0  0  0  0  0  0  0  0  0  0  0  0
   -1.6703   19.2121  -30.8569 H   0  0  0  0  0  0  0  0  0  0  0  0
    0.1610   19.3064  -30.9546 H   0  0  0  0  0  0  0  0  0  0  0  0
   -2.1567   21.5261  -30.3046 H   0  0  0  0  0  0  0  0  0  0  0  0
   -2.1819   22.5393  -31.7876 H   0  0  0  0  0  0  0  0  0  0  0  0
   -2.9745   20.9273  -31.7876 H   0  0  0  0  0  0  0  0  0  0  0  0
   -0.7092   22.2467  -33.4567 H   0  0  0  0  0  0  0  0  0  0  0  0
    0.4358   20.8360  -33.4949 H   0  0  0  0  0  0  0  0  0  0  0  0
   -2.5284   20.8876  -34.1974 H   0  0  0  0  0  0  0  0  0  0  0  0
   -1.1247   20.4161  -35.2291 H   0  0  0  0  0  0  0  0  0  0  0  0
   -3.7912   20.2408  -32.9589 H   0  0  0  0  0  0  0  0  0  0  0  0
   -8.1073   24.2255  -30.0470 H   0  0  0  0  0  0  0  0  0  0  0  0
  1  2  1  0
  2  3  2  0
  3  4  1  0
  4  5  2  0
  5  6  1  0
  6  7  1  0
  7  8  2  0
  8  9  1  0
  9 10  1  0
 10 11  1  0
 11 12  2  0
 12 13  1  0
 13 14  2  0
 14 15  1  0
 15 16  2  3
 16 17  1  0
 17 18  1  0
 18 19  1  0
 19 20  1  0
 19 21  1  0
 21 22  1  0
 14 23  1  0
 23 24  2  0
 24 25  1  0
  6 26  2  0
 26  2  1  0
 25  5  1  0
 25  9  2  0
 24 11  1  0
 22 16  1  0
  1 27  1  0
  1 28  1  0
  1 29  1  0
  3 30  1  0
  4 31  1  0
  7 32  1  0
  8 33  1  0
 10 34  1  0
 12 35  1  0
 13 36  1  0
 17 37  1  0
 17 38  1  0
 18 39  1  0
 18 40  1  0
 20 41  1  0
 20 42  1  0
 20 43  1  0
 21 44  1  0
 21 45  1  0
 22 46  1  0
 22 47  1  0
 23 48  1  0
 26 49  1  0
M  END
>  <UniqueID>  (46) 
41

>  <SMILES>  (46) 
Cc1ccc2c(ccc3[nH]c4ccc(N=C5CCN(C)CC5)cc4c32)c1

>  <Energy>  (46) 
116.59608429343511

>  <Genealogy>  (46) 
Cc1ccc2c(ccc3[nH]c4ccc(N=C5CCN(C)CC5)cc4c32)c1 (3D coordinates assigned)
Cc1ccc2c(ccc3[nH]c4ccc(N=C5CCN(C)CC5)cc4c32)c1 (nonaromatic ring conformer: 116.59608429343511 kcal/mol)

>  <smiles>  (46) 
Cc1ccc2c(ccc3[nH]c4ccc(N=C5CCN(C)CC5)cc4c32)c1

>  <score_type>  (46) 
oracle

>  <origin>  (46) 
adg

>  <m_score__min__energy>  (46) 
-10.119999999999999

>  <m_primary>  (46) 
energy

$$$$
46:0
     RDKit          3D

 48 50  0  0  0  0  0  0  0  0999 V2000
   -8.4840   21.6050  -32.0110 C   0  0  0  0  0  0  0  0  0  0  0  0
   -7.5660   20.4720  -31.8920 N   0  0  0  0  0  0  0  0  0  0  0  0
   -8.0920   19.1390  -31.6000 C   0  0  0  0  0  0  0  0  0  0  0  0
   -6.2090   20.6000  -32.3490 C   0  0  0  0  0  0  0  0  0  0  0  0
   -5.6390   19.5710  -33.1180 C   0  0  0  0  0  0  0  0  0  0  0  0
   -4.3090   19.6550  -33.5370 C   0  0  0  0  0  0  0  0  0  0  0  0
   -3.5370   20.7660  -33.1930 C   0  0  0  0  0  0  0  0  0  0  0  0
   -4.0920   21.7980  -32.4320 C   0  0  0  0  0  0  0  0  0  0  0  0
   -5.4310   21.7290  -32.0050 C   0  0  0  0  0  0  0  0  0  0  0  0
   -5.9960   22.8250  -31.2610 N   0  0  0  0  0  0  0  0  0  0  0  0
   -6.1250   24.1490  -31.8890 C   0  0  0  0  0  0  0  0  0  0  0  0
   -6.0430   25.2720  -30.8400 C   0  0  0  0  0  0  0  0  0  0  0  0
   -5.0060   24.9410  -29.7540 C   0  0  0  0  0  0  0  0  0  0  0  0
   -3.6800   24.8440  -30.3740 N   0  0  0  0  0  0  0  0  0  0  0  0
   -2.4780   24.4270  -29.7140 C   0  0  0  0  0  0  0  0  0  0  0  0
   -1.6830   25.3090  -29.2870 O   0  0  0  0  0  0  0  0  0  0  0  0
   -2.1380   23.0020  -29.5290 C   0  0  0  0  0  0  0  0  0  0  0  0
   -1.4840   22.2880  -30.5460 C   0  0  0  0  0  0  0  0  0  0  0  0
   -1.1960   20.9290  -30.3790 C   0  0  0  0  0  0  0  0  0  0  0  0
   -1.5710   20.2730  -29.2030 C   0  0  0  0  0  0  0  0  0  0  0  0
   -2.2410   20.9720  -28.1940 C   0  0  0  0  0  0  0  0  0  0  0  0
   -2.6250   20.3260  -27.0650 F   0  0  0  0  0  0  0  0  0  0  0  0
   -2.5310   22.3320  -28.3590 C   0  0  0  0  0  0  0  0  0  0  0  0
   -5.3590   23.6240  -29.0100 C   0  0  0  0  0  0  0  0  0  0  0  0
   -6.2660   22.6850  -29.8250 C   0  0  0  0  0  0  0  0  0  0  0  0
   -8.7672   21.9545  -31.0072 H   0  0  0  0  0  0  0  0  0  0  0  0
   -7.9897   22.4216  -32.5577 H   0  0  0  0  0  0  0  0  0  0  0  0
   -9.3853   21.2908  -32.5577 H   0  0  0  0  0  0  0  0  0  0  0  0
   -8.1479   18.9974  -30.5106 H   0  0  0  0  0  0  0  0  0  0  0  0
   -9.0973   19.0382  -32.0349 H   0  0  0  0  0  0  0  0  0  0  0  0
   -7.4264   18.3788  -32.0349 H   0  0  0  0  0  0  0  0  0  0  0  0
   -6.2439   18.6940  -33.3917 H   0  0  0  0  0  0  0  0  0  0  0  0
   -3.8699   18.8453  -34.1383 H   0  0  0  0  0  0  0  0  0  0  0  0
   -2.4892   20.8291  -33.5218 H   0  0  0  0  0  0  0  0  0  0  0  0
   -3.4779   22.6706  -32.1648 H   0  0  0  0  0  0  0  0  0  0  0  0
   -5.3133   24.2803  -32.6196 H   0  0  0  0  0  0  0  0  0  0  0  0
   -7.1054   24.2058  -32.3846 H   0  0  0  0  0  0  0  0  0  0  0  0
   -5.7542   26.2090  -31.3387 H   0  0  0  0  0  0  0  0  0  0  0  0
   -7.0282   25.3759  -30.3620 H   0  0  0  0  0  0  0  0  0  0  0  0
   -5.0085   25.7464  -29.0048 H   0  0  0  0  0  0  0  0  0  0  0  0
   -1.1972   22.7988  -31.4770 H   0  0  0  0  0  0  0  0  0  0  0  0
   -0.6740   20.3763  -31.1739 H   0  0  0  0  0  0  0  0  0  0  0  0
   -1.3388   19.2059  -29.0711 H   0  0  0  0  0  0  0  0  0  0  0  0
   -3.0685   22.8775  -27.5694 H   0  0  0  0  0  0  0  0  0  0  0  0
   -4.4239   23.0923  -28.7799 H   0  0  0  0  0  0  0  0  0  0  0  0
   -5.9134   23.9030  -28.1018 H   0  0  0  0  0  0  0  0  0  0  0  0
   -6.0761   21.6450  -29.5210 H   0  0  0  0  0  0  0  0  0  0  0  0
   -7.3160   22.9513  -29.6336 H   0  0  0  0  0  0  0  0  0  0  0  0
  1  2  1  0
  2  3  1  0
  2  4  1  0
  4  5  2  0
  5  6  1  0
  6  7  2  0
  7  8  1  0
  8  9  2  0
  9 10  1  0
 10 11  1  0
 11 12  1  0
 12 13  1  0
 13 14  1  0
 14 15  1  0
 15 16  2  0
 15 17  1  0
 17 18  2  0
 18 19  1  0
 19 20  2  0
 20 21  1  0
 21 22  1  0
 21 23  2  0
 13 24  1  0
 24 25  1  0
  9  4  1  0
 25 10  1  0
 23 17  1  0
  1 26  1  0
  1 27  1  0
  1 28  1  0
  3 29  1  0
  3 30  1  0
  3 31  1  0
  5 32  1  0
  6 33  1  0
  7 34  1  0
  8 35  1  0
 11 36  1  0
 11 37  1  0
 12 38  1  0
 12 39  1  0
 13 40  1  0
 18 41  1  0
 19 42  1  0
 20 43  1  0
 23 44  1  0
 24 45  1  0
 24 46  1  0
 25 47  1  0
 25 48  1  0
M  CHG  1  14  -1
M  END
>  <UniqueID>  (47) 
42

>  <SMILES>  (47) 
CN(C)c1ccccc1N1CCC([N-]C(=O)c2cccc(F)c2)CC1

>  <Energy>  (47) 
63.20632402927036

>  <Genealogy>  (47) 
CN(C)c1ccccc1N1CCC([N-]C(=O)c2cccc(F)c2)CC1 (protonated)
CN(C)c1ccccc1N1CCC([N-]C(=O)c2cccc(F)c2)CC1 (3D coordinates assigned)
CN(C)c1ccccc1N1CCC([N-]C(=O)c2cccc(F)c2)CC1 (nonaromatic ring conformer: 63.20632402927036 kcal/mol)

>  <smiles>  (47) 
CN(C)c1ccccc1N1CCC(NC(=O)c2cccc(F)c2)CC1

>  <score_type>  (47) 
oracle

>  <origin>  (47) 
adg

>  <m_score__min__energy>  (47) 
-9.4800000000000004

>  <m_primary>  (47) 
energy

$$$$
47:0
     RDKit          3D

 36 39  0  0  0  0  0  0  0  0999 V2000
   -1.9810   25.6710  -29.3190 O   0  0  0  0  0  0  0  0  0  0  0  0
   -2.4490   24.3700  -29.5050 C   0  0  0  0  0  0  0  0  0  0  0  0
   -1.6500   23.2770  -29.1210 C   0  0  0  0  0  0  0  0  0  0  0  0
   -0.3780   23.4850  -28.5520 C   0  0  0  0  0  0  0  0  0  0  0  0
    0.4180   22.4010  -28.1830 C   0  0  0  0  0  0  0  0  0  0  0  0
   -0.0380   21.0980  -28.3770 C   0  0  0  0  0  0  0  0  0  0  0  0
   -1.2950   20.8710  -28.9380 C   0  0  0  0  0  0  0  0  0  0  0  0
   -2.1230   21.9520  -29.3100 C   0  0  0  0  0  0  0  0  0  0  0  0
   -3.4010   21.7350  -29.8720 C   0  0  0  0  0  0  0  0  0  0  0  0
   -3.8940   20.3960  -30.0500 N   0  0  0  0  0  0  0  0  0  0  0  0
   -4.3170   19.8750  -31.3240 C   0  0  0  0  0  0  0  0  0  0  0  0
   -5.5920   19.3020  -31.4440 C   0  0  0  0  0  0  0  0  0  0  0  0
   -6.0270   18.7890  -32.6690 C   0  0  0  0  0  0  0  0  0  0  0  0
   -5.1900   18.8410  -33.7880 C   0  0  0  0  0  0  0  0  0  0  0  0
   -5.7370   18.1970  -35.3250 Cl  0  0  0  0  0  0  0  0  0  0  0  0
   -3.9150   19.4060  -33.6790 C   0  0  0  0  0  0  0  0  0  0  0  0
   -3.4780   19.9200  -32.4550 C   0  0  0  0  0  0  0  0  0  0  0  0
   -4.1950   22.8350  -30.2630 C   0  0  0  0  0  0  0  0  0  0  0  0
   -5.4740   22.6420  -30.8280 C   0  0  0  0  0  0  0  0  0  0  0  0
   -6.2540   23.7360  -31.2070 C   0  0  0  0  0  0  0  0  0  0  0  0
   -5.7780   25.0330  -31.0270 C   0  0  0  0  0  0  0  0  0  0  0  0
   -4.5180   25.2460  -30.4660 C   0  0  0  0  0  0  0  0  0  0  0  0
   -3.7150   24.1560  -30.0780 C   0  0  0  0  0  0  0  0  0  0  0  0
   -0.0100   24.5101  -28.3977 H   0  0  0  0  0  0  0  0  0  0  0  0
    1.4087   22.5746  -27.7375 H   0  0  0  0  0  0  0  0  0  0  0  0
    0.5951   20.2465  -28.0869 H   0  0  0  0  0  0  0  0  0  0  0  0
   -1.6443   19.8394  -29.0920 H   0  0  0  0  0  0  0  0  0  0  0  0
   -3.8630   19.7580  -29.2240 H   0  0  0  0  0  0  0  0  0  0  0  0
   -6.2544   19.2562  -30.5670 H   0  0  0  0  0  0  0  0  0  0  0  0
   -7.0293   18.3436  -32.7531 H   0  0  0  0  0  0  0  0  0  0  0  0
   -3.2551   19.4458  -34.5582 H   0  0  0  0  0  0  0  0  0  0  0  0
   -2.4739   20.3619  -32.3742 H   0  0  0  0  0  0  0  0  0  0  0  0
   -5.8592   21.6216  -30.9708 H   0  0  0  0  0  0  0  0  0  0  0  0
   -7.2479   23.5734  -31.6493 H   0  0  0  0  0  0  0  0  0  0  0  0
   -6.3968   25.8912  -31.3278 H   0  0  0  0  0  0  0  0  0  0  0  0
   -4.1493   26.2729  -30.3258 H   0  0  0  0  0  0  0  0  0  0  0  0
  1  2  1  0
  2  3  2  0
  3  4  1  0
  4  5  2  0
  5  6  1  0
  6  7  2  0
  7  8  1  0
  8  9  2  0
  9 10  1  0
 10 11  1  0
 11 12  2  0
 12 13  1  0
 13 14  2  0
 14 15  1  0
 14 16  1  0
 16 17  2  0
  9 18  1  0
 18 19  2  0
 19 20  1  0
 20 21  2  0
 21 22  1  0
 22 23  2  0
 23  2  1  0
  8  3  1  0
 17 11  1  0
 23 18  1  0
  4 24  1  0
  5 25  1  0
  6 26  1  0
  7 27  1  0
 10 28  1  0
 12 29  1  0
 13 30  1  0
 16 31  1  0
 17 32  1  0
 19 33  1  0
 20 34  1  0
 21 35  1  0
 22 36  1  0
M  CHG  1   1  -1
M  END
>  <UniqueID>  (48) 
43

>  <SMILES>  (48) 
[O-]c1c2ccccc2c(Nc2ccc(Cl)cc2)c2ccccc12

>  <Energy>  (48) 
58.66452465569849

>  <Genealogy>  (48) 
[O-]c1c2ccccc2c(Nc2ccc(Cl)cc2)c2ccccc12 (protonated)
[O-]c1c2ccccc2c(Nc2ccc(Cl)cc2)c2ccccc12 (3D coordinates assigned)
[O-]c1c2ccccc2c(Nc2ccc(Cl)cc2)c2ccccc12 (optimized conformer: 58.66452465569849 kcal/mol)

>  <smiles>  (48) 
Oc1c2ccccc2c(Nc2ccc(Cl)cc2)c2ccccc12

>  <score_type>  (48) 
oracle

>  <origin>  (48) 
adg

>  <m_score__min__energy>  (48) 
-9.9100000000000001

>  <m_primary>  (48) 
energy

$$$$
