0:0
     RDKit          3D

 43 46  0  0  0  0  0  0  0  0999 V2000
   -5.7240   25.2990  -30.4050 C   0  0  0  0  0  0  0  0  0  0  0  0
   -5.0100   24.3830  -31.2290 O   0  0  0  0  0  0  0  0  0  0  0  0
   -3.8750   23.6670  -30.8210 C   0  0  0  0  0  0  0  0  0  0  0  0
   -3.1170   24.0520  -29.6860 C   0  0  0  0  0  0  0  0  0  0  0  0
   -2.0110   23.2750  -29.3430 C   0  0  0  0  0  0  0  0  0  0  0  0
   -1.6340   22.2000  -30.0890 C   0  0  0  0  0  0  0  0  0  0  0  0
   -0.4760   21.7280  -29.5120 C   0  0  0  0  0  0  0  0  0  0  0  0
   -0.1790   22.5140  -28.4500 N   0  0  0  0  0  0  0  0  0  0  0  0
   -1.1210   23.4470  -28.3430 N   0  0  0  0  0  0  0  0  0  0  0  0
   -1.1170   24.4640  -27.3300 C   0  0  0  0  0  0  0  0  0  0  0  0
   -1.1210   24.0950  -25.9760 C   0  0  0  0  0  0  0  0  0  0  0  0
   -1.1270   25.0730  -24.9780 C   0  0  0  0  0  0  0  0  0  0  0  0
   -1.1420   26.4270  -25.3240 C   0  0  0  0  0  0  0  0  0  0  0  0
   -1.1500   27.3750  -24.3560 F   0  0  0  0  0  0  0  0  0  0  0  0
   -1.1610   26.8030  -26.6700 C   0  0  0  0  0  0  0  0  0  0  0  0
   -1.1560   25.8280  -27.6740 C   0  0  0  0  0  0  0  0  0  0  0  0
   -1.2310   26.2120  -28.9730 F   0  0  0  0  0  0  0  0  0  0  0  0
   -2.3420   21.7870  -31.2110 C   0  0  0  0  0  0  0  0  0  0  0  0
   -3.4870   22.5330  -31.5840 C   0  0  0  0  0  0  0  0  0  0  0  0
   -4.2680   22.1920  -32.7020 O   0  0  0  0  0  0  0  0  0  0  0  0
   -5.1130   21.0450  -32.7980 C   0  0  0  0  0  0  0  0  0  0  0  0
   -6.5260   21.3910  -32.4110 C   0  0  0  0  0  0  0  0  0  0  0  0
   -7.5220   20.4030  -32.4020 C   0  0  0  0  0  0  0  0  0  0  0  0
   -8.8230   20.7430  -32.0330 C   0  0  0  0  0  0  0  0  0  0  0  0
   -9.1190   22.0570  -31.6670 C   0  0  0  0  0  0  0  0  0  0  0  0
   -8.1030   23.0130  -31.6730 C   0  0  0  0  0  0  0  0  0  0  0  0
   -6.8370   22.6670  -32.0370 N   0  0  0  0  0  0  0  0  0  0  0  0
   -5.5389   25.0615  -29.3470 H   0  0  0  0  0  0  0  0  0  0  0  0
   -5.3839   26.3237  -30.6157 H   0  0  0  0  0  0  0  0  0  0  0  0
   -6.8007   25.2194  -30.6157 H   0  0  0  0  0  0  0  0  0  0  0  0
   -3.3932   24.9370  -29.0939 H   0  0  0  0  0  0  0  0  0  0  0  0
    0.1077   20.8610  -29.8550 H   0  0  0  0  0  0  0  0  0  0  0  0
   -1.1194   23.0305  -25.6989 H   0  0  0  0  0  0  0  0  0  0  0  0
   -1.1199   24.7768  -23.9186 H   0  0  0  0  0  0  0  0  0  0  0  0
   -1.1799   27.8689  -26.9411 H   0  0  0  0  0  0  0  0  0  0  0  0
   -2.0234   20.9085  -31.7913 H   0  0  0  0  0  0  0  0  0  0  0  0
   -5.1027   20.6746  -33.8337 H   0  0  0  0  0  0  0  0  0  0  0  0
   -4.7380   20.2711  -32.1121 H   0  0  0  0  0  0  0  0  0  0  0  0
   -7.2785   19.3680  -32.6839 H   0  0  0  0  0  0  0  0  0  0  0  0
   -9.6135   19.9781  -32.0304 H   0  0  0  0  0  0  0  0  0  0  0  0
  -10.1427   22.3359  -31.3768 H   0  0  0  0  0  0  0  0  0  0  0  0
   -8.3253   24.0504  -31.3826 H   0  0  0  0  0  0  0  0  0  0  0  0
   -6.0960   23.4030  -32.0270 H   0  0  0  0  0  0  0  0  0  0  0  0
  1  2  1  0
  2  3  1  0
  3  4  2  0
  4  5  1  0
  5  6  2  0
  6  7  1  0
  7  8  2  0
  8  9  1  0
  9 10  1  0
 10 11  2  0
 11 12  1  0
 12 13  2  0
 13 14  1  0
 13 15  1  0
 15 16  2  0
 16 17  1  0
  6 18  1  0
 18 19  2  0
 19 20  1  0
 20 21  1  0
 21 22  1  0
 22 23  2  0
 23 24  1  0
 24 25  2  0
 25 26  1  0
 26 27  2  0
 19  3  1  0
 27 22  1  0
  9  5  1  0
 16 10  1  0
  1 28  1  0
  1 29  1  0
  1 30  1  0
  4 31  1  0
  7 32  1  0
 11 33  1  0
 12 34  1  0
 15 35  1  0
 18 36  1  0
 21 37  1  0
 21 38  1  0
 23 39  1  0
 24 40  1  0
 25 41  1  0
 26 42  1  0
 27 43  1  0
M  CHG  1  27   1
M  END
>  <UniqueID>  (1) 
1

>  <SMILES>  (1) 
COc1cc2c(cnn2-c2ccc(F)cc2F)cc1OCc1cccc[nH+]1

>  <Energy>  (1) 
91.6146857469736

>  <Genealogy>  (1) 
COc1cc2c(cnn2-c2ccc(F)cc2F)cc1OCc1cccc[nH+]1 (protonated)
COc1cc2c(cnn2-c2ccc(F)cc2F)cc1OCc1cccc[nH+]1 (3D coordinates assigned)
COc1cc2c(cnn2-c2ccc(F)cc2F)cc1OCc1cccc[nH+]1 (optimized conformer: 91.6146857469736 kcal/mol)

>  <smiles>  (1) 
COc1cc2c(cnn2-c2ccc(F)cc2F)cc1OCc1ccccn1

>  <score_type>  (1) 
oracle

>  <origin>  (1) 
adg

>  <m_score__min__energy>  (1) 
-6.8700000000000001

>  <m_primary>  (1) 
energy

$$$$
1:0
     RDKit          3D

 52 55  0  0  0  0  0  0  0  0999 V2000
   -2.8870   15.9270  -33.0760 C   0  0  0  0  0  0  0  0  0  0  0  0
   -4.1170   15.7450  -34.3590 S   0  0  0  0  0  0  0  0  0  0  0  0
   -4.7110   14.3640  -34.2700 O   0  0  0  0  0  0  0  0  0  0  0  0
   -3.4450   15.8960  -35.6990 O   0  0  0  0  0  0  0  0  0  0  0  0
   -5.3930   16.9270  -34.2050 N   0  0  0  0  0  0  0  0  0  0  0  0
   -6.1420   16.7560  -32.9320 C   0  0  0  0  0  0  0  0  0  0  0  0
   -6.1770   18.0220  -32.0660 C   0  0  0  0  0  0  0  0  0  0  0  0
   -6.5700   19.1610  -32.8950 N   0  0  0  0  0  0  0  0  0  0  0  0
   -7.5730   20.0840  -32.4440 C   0  0  0  0  0  0  0  0  0  0  0  0
   -7.5870   21.4040  -32.0190 C   0  0  0  0  0  0  0  0  0  0  0  0
   -6.6080   22.4340  -31.8650 N   0  0  0  0  0  0  0  0  0  0  0  0
   -6.9590   23.6750  -31.1660 C   0  0  0  0  0  0  0  0  0  0  0  0
   -5.7090   24.5030  -30.8470 C   0  0  0  0  0  0  0  0  0  0  0  0
   -4.6190   23.6210  -30.3990 N   0  0  0  0  0  0  0  0  0  0  0  0
   -3.8150   23.9760  -29.2540 C   0  0  0  0  0  0  0  0  0  0  0  0
   -2.4210   24.1280  -29.3720 C   0  0  0  0  0  0  0  0  0  0  0  0
   -1.6440   24.4720  -28.2620 C   0  0  0  0  0  0  0  0  0  0  0  0
   -2.2530   24.6620  -27.0160 C   0  0  0  0  0  0  0  0  0  0  0  0
   -3.6350   24.5090  -26.8830 C   0  0  0  0  0  0  0  0  0  0  0  0
   -4.4130   24.1710  -27.9950 C   0  0  0  0  0  0  0  0  0  0  0  0
   -4.2590   22.4430  -31.2110 C   0  0  0  0  0  0  0  0  0  0  0  0
   -5.2480   22.2240  -32.3580 C   0  0  0  0  0  0  0  0  0  0  0  0
   -8.9580   21.3450  -31.8840 C   0  0  0  0  0  0  0  0  0  0  0  0
   -9.8510   22.1590  -31.5360 O   0  0  0  0  0  0  0  0  0  0  0  0
   -8.9470   20.0300  -32.2910 C   0  0  0  0  0  0  0  0  0  0  0  0
   -9.8290   19.1490  -32.4590 O   0  0  0  0  0  0  0  0  0  0  0  0
   -5.9190   19.3550  -34.1940 C   0  0  0  0  0  0  0  0  0  0  0  0
   -4.8540   18.2820  -34.4430 C   0  0  0  0  0  0  0  0  0  0  0  0
   -3.3713   15.8553  -32.0909 H   0  0  0  0  0  0  0  0  0  0  0  0
   -2.1347   15.1304  -33.1736 H   0  0  0  0  0  0  0  0  0  0  0  0
   -2.3977   16.9073  -33.1736 H   0  0  0  0  0  0  0  0  0  0  0  0
   -7.1767   16.4705  -33.1728 H   0  0  0  0  0  0  0  0  0  0  0  0
   -5.6192   15.9818  -32.3512 H   0  0  0  0  0  0  0  0  0  0  0  0
   -6.9051   17.8909  -31.2519 H   0  0  0  0  0  0  0  0  0  0  0  0
   -5.1807   18.2037  -31.6367 H   0  0  0  0  0  0  0  0  0  0  0  0
   -7.6299   24.2690  -31.8041 H   0  0  0  0  0  0  0  0  0  0  0  0
   -7.4552   23.4138  -30.2196 H   0  0  0  0  0  0  0  0  0  0  0  0
   -5.3910   25.0445  -31.7501 H   0  0  0  0  0  0  0  0  0  0  0  0
   -5.9458   25.2184  -30.0457 H   0  0  0  0  0  0  0  0  0  0  0  0
   -1.9376   23.9745  -30.3481 H   0  0  0  0  0  0  0  0  0  0  0  0
   -0.5558   24.5932  -28.3675 H   0  0  0  0  0  0  0  0  0  0  0  0
   -1.6430   24.9319  -26.1413 H   0  0  0  0  0  0  0  0  0  0  0  0
   -4.1120   24.6545  -25.9025 H   0  0  0  0  0  0  0  0  0  0  0  0
   -5.5015   24.0566  -27.8846 H   0  0  0  0  0  0  0  0  0  0  0  0
   -3.2534   22.5930  -31.6308 H   0  0  0  0  0  0  0  0  0  0  0  0
   -4.2857   21.5564  -30.5605 H   0  0  0  0  0  0  0  0  0  0  0  0
   -5.0359   22.9371  -33.1682 H   0  0  0  0  0  0  0  0  0  0  0  0
   -5.1479   21.1982  -32.7423 H   0  0  0  0  0  0  0  0  0  0  0  0
   -6.6780   19.2989  -34.9882 H   0  0  0  0  0  0  0  0  0  0  0  0
   -5.4295   20.3401  -34.1958 H   0  0  0  0  0  0  0  0  0  0  0  0
   -4.5102   18.3531  -35.4855 H   0  0  0  0  0  0  0  0  0  0  0  0
   -4.0198   18.4517  -33.7464 H   0  0  0  0  0  0  0  0  0  0  0  0
  1  2  1  0
  2  3  2  0
  2  4  2  0
  2  5  1  0
  5  6  1  0
  6  7  1  0
  7  8  1  0
  8  9  1  0
  9 10  2  0
 10 11  1  0
 11 12  1  0
 12 13  1  0
 13 14  1  0
 14 15  1  0
 15 16  2  0
 16 17  1  0
 17 18  2  0
 18 19  1  0
 19 20  2  0
 14 21  1  0
 21 22  1  0
 10 23  1  0
 23 24  2  0
 23 25  1  0
 25 26  2  0
  8 27  1  0
 27 28  1  0
 28  5  1  0
 25  9  1  0
 22 11  1  0
 20 15  1  0
  1 29  1  0
  1 30  1  0
  1 31  1  0
  6 32  1  0
  6 33  1  0
  7 34  1  0
  7 35  1  0
 12 36  1  0
 12 37  1  0
 13 38  1  0
 13 39  1  0
 16 40  1  0
 17 41  1  0
 18 42  1  0
 19 43  1  0
 20 44  1  0
 21 45  1  0
 21 46  1  0
 22 47  1  0
 22 48  1  0
 27 49  1  0
 27 50  1  0
 28 51  1  0
 28 52  1  0
M  END
>  <UniqueID>  (2) 
2

>  <SMILES>  (2) 
CS(=O)(=O)N1CCN(c2c(N3CCN(c4ccccc4)CC3)c(=O)c2=O)CC1

>  <Energy>  (2) 
54.79569626228558

>  <Genealogy>  (2) 
CS(=O)(=O)N1CCN(c2c(N3CCN(c4ccccc4)CC3)c(=O)c2=O)CC1 (3D coordinates assigned)
CS(=O)(=O)N1CCN(c2c(N3CCN(c4ccccc4)CC3)c(=O)c2=O)CC1 (nonaromatic ring conformer: 54.79569626228558 kcal/mol)

>  <smiles>  (2) 
CS(=O)(=O)N1CCN(c2c(N3CCN(c4ccccc4)CC3)c(=O)c2=O)CC1

>  <score_type>  (2) 
oracle

>  <origin>  (2) 
adg

>  <m_score__min__energy>  (2) 
-8.5700000000000003

>  <m_primary>  (2) 
energy

$$$$
2:0
     RDKit          3D

 44 45  0  0  0  0  0  0  0  0999 V2000
   -6.3600   25.4750  -29.4020 C   0  0  0  0  0  0  0  0  0  0  0  0
   -5.3270   25.8250  -30.4690 C   0  0  0  0  0  0  0  0  0  0  0  0
   -4.2940   24.7690  -30.5500 N   0  0  0  0  0  0  0  0  0  0  0  0
   -3.6590   24.5270  -29.2320 C   0  0  0  0  0  0  0  0  0  0  0  0
   -4.0020   23.1440  -28.6780 C   0  0  0  0  0  0  0  0  0  0  0  0
   -4.7970   23.5410  -31.2170 C   0  0  0  0  0  0  0  0  0  0  0  0
   -5.8880   23.7990  -32.2750 C   0  0  0  0  0  0  0  0  0  0  0  0
   -7.2140   23.4660  -31.7470 N   0  0  0  0  0  0  0  0  0  0  0  0
   -7.8600   22.2000  -31.9800 C   0  0  0  0  0  0  0  0  0  0  0  0
   -9.2330   22.0110  -31.7300 C   0  0  0  0  0  0  0  0  0  0  0  0
   -9.8270   20.7700  -31.9620 C   0  0  0  0  0  0  0  0  0  0  0  0
   -9.0670   19.7040  -32.4450 C   0  0  0  0  0  0  0  0  0  0  0  0
   -7.6960   19.8680  -32.7040 C   0  0  0  0  0  0  0  0  0  0  0  0
   -6.8850   18.7350  -33.2200 C   0  0  0  0  0  0  0  0  0  0  0  0
   -5.8030   18.9670  -34.0900 C   0  0  0  0  0  0  0  0  0  0  0  0
   -5.0430   17.8980  -34.5740 C   0  0  0  0  0  0  0  0  0  0  0  0
   -5.3520   16.5890  -34.1970 C   0  0  0  0  0  0  0  0  0  0  0  0
   -6.4220   16.3460  -33.3340 C   0  0  0  0  0  0  0  0  0  0  0  0
   -7.1870   17.4110  -32.8470 C   0  0  0  0  0  0  0  0  0  0  0  0
   -7.1020   21.1220  -32.4670 C   0  0  0  0  0  0  0  0  0  0  0  0
   -5.9214   25.6236  -28.4043 H   0  0  0  0  0  0  0  0  0  0  0  0
   -7.2399   26.1252  -29.5163 H   0  0  0  0  0  0  0  0  0  0  0  0
   -6.6635   24.4239  -29.5163 H   0  0  0  0  0  0  0  0  0  0  0  0
   -5.8289   25.9171  -31.4435 H   0  0  0  0  0  0  0  0  0  0  0  0
   -4.8451   26.7770  -30.2017 H   0  0  0  0  0  0  0  0  0  0  0  0
   -2.5674   24.6044  -29.3438 H   0  0  0  0  0  0  0  0  0  0  0  0
   -4.0404   25.2803  -28.5270 H   0  0  0  0  0  0  0  0  0  0  0  0
   -3.9938   23.1771  -27.5785 H   0  0  0  0  0  0  0  0  0  0  0  0
   -5.0012   22.8461  -29.0284 H   0  0  0  0  0  0  0  0  0  0  0  0
   -3.2578   22.4137  -29.0284 H   0  0  0  0  0  0  0  0  0  0  0  0
   -3.9486   23.0441  -31.7103 H   0  0  0  0  0  0  0  0  0  0  0  0
   -5.2567   22.9210  -30.4332 H   0  0  0  0  0  0  0  0  0  0  0  0
   -5.8697   24.8612  -32.5603 H   0  0  0  0  0  0  0  0  0  0  0  0
   -5.6874   23.1640  -33.1505 H   0  0  0  0  0  0  0  0  0  0  0  0
   -7.7230   24.1800  -31.1770 H   0  0  0  0  0  0  0  0  0  0  0  0
   -9.8401   22.8459  -31.3500 H   0  0  0  0  0  0  0  0  0  0  0  0
  -10.8999   20.6312  -31.7631 H   0  0  0  0  0  0  0  0  0  0  0  0
   -9.5443   18.7293  -32.6240 H   0  0  0  0  0  0  0  0  0  0  0  0
   -5.5540   19.9954  -34.3908 H   0  0  0  0  0  0  0  0  0  0  0  0
   -4.1993   18.0883  -35.2536 H   0  0  0  0  0  0  0  0  0  0  0  0
   -4.7525   15.7500  -34.5800 H   0  0  0  0  0  0  0  0  0  0  0  0
   -6.6640   15.3151  -33.0364 H   0  0  0  0  0  0  0  0  0  0  0  0
   -8.0298   17.2131  -32.1684 H   0  0  0  0  0  0  0  0  0  0  0  0
   -6.0290   21.2599  -32.6660 H   0  0  0  0  0  0  0  0  0  0  0  0
  1  2  1  0
  2  3  1  0
  3  4  1  0
  4  5  1  0
  3  6  1  0
  6  7  1  0
  7  8  1  0
  8  9  1  0
  9 10  2  0
 10 11  1  0
 11 12  2  0
 12 13  1  0
 13 14  1  0
 14 15  2  0
 15 16  1  0
 16 17  2  0
 17 18  1  0
 18 19  2  0
 13 20  2  0
 20  9  1  0
 19 14  1  0
  1 21  1  0
  1 22  1  0
  1 23  1  0
  2 24  1  0
  2 25  1  0
  4 26  1  0
  4 27  1  0
  5 28  1  0
  5 29  1  0
  5 30  1  0
  6 31  1  0
  6 32  1  0
  7 33  1  0
  7 34  1  0
  8 35  1  0
 10 36  1  0
 11 37  1  0
 12 38  1  0
 15 39  1  0
 16 40  1  0
 17 41  1  0
 18 42  1  0
 19 43  1  0
 20 44  1  0
M  END
>  <UniqueID>  (3) 
3

>  <SMILES>  (3) 
CCN(CC)CCNc1cccc(-c2ccccc2)c1

>  <Energy>  (3) 
48.631301285227195

>  <Genealogy>  (3) 
CCN(CC)CCNc1cccc(-c2ccccc2)c1 (3D coordinates assigned)
CCN(CC)CCNc1cccc(-c2ccccc2)c1 (optimized conformer: 48.631301285227195 kcal/mol)

>  <smiles>  (3) 
CCN(CC)CCNc1cccc(-c2ccccc2)c1

>  <score_type>  (3) 
oracle

>  <origin>  (3) 
adg

>  <m_score__min__energy>  (3) 
-7.8600000000000003

>  <m_primary>  (3) 
energy

$$$$
3:0
     RDKit          3D

 24 25  0  0  0  0  0  0  0  0999 V2000
   -5.7700   23.8630  -31.5700 C   0  0  0  0  0  0  0  0  0  0  0  0
   -7.2380   23.7120  -31.1860 C   0  0  0  0  0  0  0  0  0  0  0  0
   -7.7560   22.3730  -31.6010 C   0  0  0  0  0  0  0  0  0  0  0  0
   -6.9770   21.4010  -32.1200 N   0  0  0  0  0  0  0  0  0  0  0  0
   -7.6930   20.2970  -32.4780 C   0  0  0  0  0  0  0  0  0  0  0  0
   -7.0310   19.1050  -33.0720 C   0  0  0  0  0  0  0  0  0  0  0  0
   -7.2900   17.8030  -32.5960 C   0  0  0  0  0  0  0  0  0  0  0  0
   -6.6530   16.6980  -33.1720 C   0  0  0  0  0  0  0  0  0  0  0  0
   -5.7510   16.8760  -34.2210 C   0  0  0  0  0  0  0  0  0  0  0  0
   -5.4810   18.1590  -34.6980 C   0  0  0  0  0  0  0  0  0  0  0  0
   -6.1130   19.2680  -34.1280 C   0  0  0  0  0  0  0  0  0  0  0  0
   -9.0690   20.4060  -32.2520 C   0  0  0  0  0  0  0  0  0  0  0  0
   -9.3730   21.9220  -31.5910 S   0  0  0  0  0  0  0  0  0  0  0  0
   -5.1572   23.9260  -30.6587 H   0  0  0  0  0  0  0  0  0  0  0  0
   -5.4550   22.9925  -32.1642 H   0  0  0  0  0  0  0  0  0  0  0  0
   -5.6388   24.7794  -32.1642 H   0  0  0  0  0  0  0  0  0  0  0  0
   -7.3389   23.8164  -30.0956 H   0  0  0  0  0  0  0  0  0  0  0  0
   -7.8204   24.4917  -31.6988 H   0  0  0  0  0  0  0  0  0  0  0  0
   -7.9973   17.6550  -31.7666 H   0  0  0  0  0  0  0  0  0  0  0  0
   -6.8643   15.6860  -32.7963 H   0  0  0  0  0  0  0  0  0  0  0  0
   -5.2528   16.0052  -34.6720 H   0  0  0  0  0  0  0  0  0  0  0  0
   -4.7689   18.2983  -35.5248 H   0  0  0  0  0  0  0  0  0  0  0  0
   -5.8916   20.2765  -34.5073 H   0  0  0  0  0  0  0  0  0  0  0  0
   -9.8218   19.6339  -32.4690 H   0  0  0  0  0  0  0  0  0  0  0  0
  1  2  1  0
  2  3  1  0
  3  4  2  0
  4  5  1  0
  5  6  1  0
  6  7  2  0
  7  8  1  0
  8  9  2  0
  9 10  1  0
 10 11  2  0
  5 12  2  0
 12 13  1  0
 13  3  1  0
 11  6  1  0
  1 14  1  0
  1 15  1  0
  1 16  1  0
  2 17  1  0
  2 18  1  0
  7 19  1  0
  8 20  1  0
  9 21  1  0
 10 22  1  0
 11 23  1  0
 12 24  1  0
M  END
>  <UniqueID>  (4) 
4

>  <SMILES>  (4) 
CCc1nc(-c2ccccc2)cs1

>  <Energy>  (4) 
51.90950270771477

>  <Genealogy>  (4) 
CCc1nc(-c2ccccc2)cs1 (3D coordinates assigned)
CCc1nc(-c2ccccc2)cs1 (optimized conformer: 51.90950270771477 kcal/mol)

>  <smiles>  (4) 
CCc1nc(-c2ccccc2)cs1

>  <score_type>  (4) 
oracle

>  <origin>  (4) 
adg

>  <m_score__min__energy>  (4) 
-6.0099999999999998

>  <m_primary>  (4) 
energy

$$$$
4:0
     RDKit          3D

 48 50  0  0  0  0  0  0  0  0999 V2000
    1.8770   27.9680  -23.4040 C   0  0  0  0  0  0  0  0  0  0  0  0
    0.9680   26.8150  -23.2610 N   0  0  0  0  0  0  0  0  0  0  0  0
    1.4220   25.7140  -24.1270 C   0  0  0  0  0  0  0  0  0  0  0  0
   -0.4280   27.1810  -23.5990 C   0  0  0  0  0  0  0  0  0  0  0  0
   -0.7960   26.7680  -25.0040 C   0  0  0  0  0  0  0  0  0  0  0  0
   -1.6680   25.6910  -25.2260 C   0  0  0  0  0  0  0  0  0  0  0  0
   -1.9860   25.2980  -26.5290 C   0  0  0  0  0  0  0  0  0  0  0  0
   -1.4380   25.9660  -27.6280 C   0  0  0  0  0  0  0  0  0  0  0  0
   -1.7830   25.5220  -28.9150 O   0  0  0  0  0  0  0  0  0  0  0  0
   -1.7300   24.1670  -29.3620 C   0  0  0  0  0  0  0  0  0  0  0  0
   -3.0860   23.7050  -29.8290 C   0  0  0  0  0  0  0  0  0  0  0  0
   -4.1990   24.5480  -29.6990 C   0  0  0  0  0  0  0  0  0  0  0  0
   -5.4590   24.1280  -30.1330 C   0  0  0  0  0  0  0  0  0  0  0  0
   -5.6280   22.8570  -30.7130 C   0  0  0  0  0  0  0  0  0  0  0  0
   -6.9680   22.4060  -31.1690 C   0  0  0  0  0  0  0  0  0  0  0  0
   -7.9500   23.3440  -31.5400 C   0  0  0  0  0  0  0  0  0  0  0  0
   -9.2100   22.9180  -31.9700 C   0  0  0  0  0  0  0  0  0  0  0  0
   -9.5040   21.5540  -32.0360 C   0  0  0  0  0  0  0  0  0  0  0  0
   -8.5380   20.6140  -31.6710 C   0  0  0  0  0  0  0  0  0  0  0  0
   -7.2760   21.0340  -31.2410 C   0  0  0  0  0  0  0  0  0  0  0  0
   -4.5060   22.0200  -30.8530 C   0  0  0  0  0  0  0  0  0  0  0  0
   -3.2460   22.4430  -30.4200 C   0  0  0  0  0  0  0  0  0  0  0  0
   -0.5660   27.0500  -27.4070 C   0  0  0  0  0  0  0  0  0  0  0  0
   -0.2470   27.4430  -26.1040 C   0  0  0  0  0  0  0  0  0  0  0  0
    2.1652   28.3335  -22.4073 H   0  0  0  0  0  0  0  0  0  0  0  0
    2.7771   27.6591  -23.9556 H   0  0  0  0  0  0  0  0  0  0  0  0
    1.3665   28.7712  -23.9556 H   0  0  0  0  0  0  0  0  0  0  0  0
    1.0090   26.4780  -22.2680 H   0  0  0  0  0  0  0  0  0  0  0  0
    1.7676   24.8760  -23.5039 H   0  0  0  0  0  0  0  0  0  0  0  0
    0.5885   25.3794  -24.7620 H   0  0  0  0  0  0  0  0  0  0  0  0
    2.2491   26.0642  -24.7620 H   0  0  0  0  0  0  0  0  0  0  0  0
   -1.1072   26.6815  -22.8925 H   0  0  0  0  0  0  0  0  0  0  0  0
   -0.5185   28.2752  -23.5315 H   0  0  0  0  0  0  0  0  0  0  0  0
   -2.1032   25.1537  -24.3705 H   0  0  0  0  0  0  0  0  0  0  0  0
   -2.6739   24.4552  -26.6913 H   0  0  0  0  0  0  0  0  0  0  0  0
   -1.0159   24.0896  -30.1951 H   0  0  0  0  0  0  0  0  0  0  0  0
   -1.4100   23.5310  -28.5235 H   0  0  0  0  0  0  0  0  0  0  0  0
   -4.0794   25.5462  -29.2526 H   0  0  0  0  0  0  0  0  0  0  0  0
   -6.3256   24.7961  -30.0204 H   0  0  0  0  0  0  0  0  0  0  0  0
   -7.7243   24.4195  -31.4912 H   0  0  0  0  0  0  0  0  0  0  0  0
   -9.9714   23.6582  -32.2569 H   0  0  0  0  0  0  0  0  0  0  0  0
  -10.4958   21.2206  -32.3753 H   0  0  0  0  0  0  0  0  0  0  0  0
   -8.7708   19.5401  -31.7220 H   0  0  0  0  0  0  0  0  0  0  0  0
   -6.5190   20.2881  -30.9572 H   0  0  0  0  0  0  0  0  0  0  0  0
   -4.6211   21.0246  -31.3069 H   0  0  0  0  0  0  0  0  0  0  0  0
   -2.3751   21.7825  -30.5434 H   0  0  0  0  0  0  0  0  0  0  0  0
   -0.1344   27.5893  -28.2631 H   0  0  0  0  0  0  0  0  0  0  0  0
    0.4390   28.2871  -25.9403 H   0  0  0  0  0  0  0  0  0  0  0  0
  1  2  1  0
  2  3  1  0
  2  4  1  0
  4  5  1  0
  5  6  2  0
  6  7  1  0
  7  8  2  0
  8  9  1  0
  9 10  1  0
 10 11  1  0
 11 12  2  0
 12 13  1  0
 13 14  2  0
 14 15  1  0
 15 16  2  0
 16 17  1  0
 17 18  2  0
 18 19  1  0
 19 20  2  0
 14 21  1  0
 21 22  2  0
  8 23  1  0
 23 24  2  0
 24  5  1  0
 22 11  1  0
 20 15  1  0
  1 25  1  0
  1 26  1  0
  1 27  1  0
  2 28  1  0
  3 29  1  0
  3 30  1  0
  3 31  1  0
  4 32  1  0
  4 33  1  0
  6 34  1  0
  7 35  1  0
 10 36  1  0
 10 37  1  0
 12 38  1  0
 13 39  1  0
 16 40  1  0
 17 41  1  0
 18 42  1  0
 19 43  1  0
 20 44  1  0
 21 45  1  0
 22 46  1  0
 23 47  1  0
 24 48  1  0
M  CHG  1   2   1
M  END
>  <UniqueID>  (5) 
5

>  <SMILES>  (5) 
C[NH+](C)Cc1ccc(OCc2ccc(-c3ccccc3)cc2)cc1

>  <Energy>  (5) 
55.14927376450381

>  <Genealogy>  (5) 
C[NH+](C)Cc1ccc(OCc2ccc(-c3ccccc3)cc2)cc1 (protonated)
C[NH+](C)Cc1ccc(OCc2ccc(-c3ccccc3)cc2)cc1 (3D coordinates assigned)
C[NH+](C)Cc1ccc(OCc2ccc(-c3ccccc3)cc2)cc1 (optimized conformer: 55.14927376450381 kcal/mol)

>  <smiles>  (5) 
CN(C)Cc1ccc(OCc2ccc(-c3ccccc3)cc2)cc1

>  <score_type>  (5) 
oracle

>  <origin>  (5) 
adg

>  <m_score__min__energy>  (5) 
-9.1600000000000001

>  <m_primary>  (5) 
energy

$$$$
5:0
     RDKit          3D

 49 52  0  0  0  0  0  0  0  0999 V2000
    5.0770   20.8510  -37.5900 C   0  0  0  0  0  0  0  0  0  0  0  0
    3.7050   21.1500  -37.8230 O   0  0  0  0  0  0  0  0  0  0  0  0
    2.6910   21.0210  -36.8630 C   0  0  0  0  0  0  0  0  0  0  0  0
    1.9000   19.8630  -36.7520 C   0  0  0  0  0  0  0  0  0  0  0  0
    0.9010   19.7810  -35.7770 C   0  0  0  0  0  0  0  0  0  0  0  0
    0.6740   20.8530  -34.8910 C   0  0  0  0  0  0  0  0  0  0  0  0
   -0.3540   20.7870  -33.8810 N   0  0  0  0  0  0  0  0  0  0  0  0
   -0.1920   20.8740  -32.5420 C   0  0  0  0  0  0  0  0  0  0  0  0
   -1.4290   20.7560  -31.9420 C   0  0  0  0  0  0  0  0  0  0  0  0
   -1.6720   20.7190  -30.4870 C   0  0  0  0  0  0  0  0  0  0  0  0
   -1.2480   19.7270  -29.8340 O   0  0  0  0  0  0  0  0  0  0  0  0
   -2.4360   21.7790  -29.7860 C   0  0  0  0  0  0  0  0  0  0  0  0
   -2.8430   21.6130  -28.4510 C   0  0  0  0  0  0  0  0  0  0  0  0
   -3.5780   22.6090  -27.8080 C   0  0  0  0  0  0  0  0  0  0  0  0
   -3.9110   23.7880  -28.4780 C   0  0  0  0  0  0  0  0  0  0  0  0
   -4.6500   24.7600  -27.8030 O   0  0  0  0  0  0  0  0  0  0  0  0
   -3.5010   23.9820  -29.8100 C   0  0  0  0  0  0  0  0  0  0  0  0
   -3.8490   25.1780  -30.4580 O   0  0  0  0  0  0  0  0  0  0  0  0
   -5.1840   25.6300  -30.6590 C   0  0  0  0  0  0  0  0  0  0  0  0
   -2.7570   22.9730  -30.4540 C   0  0  0  0  0  0  0  0  0  0  0  0
   -2.3250   20.6240  -32.9970 C   0  0  0  0  0  0  0  0  0  0  0  0
   -3.7960   20.5630  -32.9420 C   0  0  0  0  0  0  0  0  0  0  0  0
   -4.6320   21.6580  -32.7370 C   0  0  0  0  0  0  0  0  0  0  0  0
   -5.9880   21.3200  -32.6680 C   0  0  0  0  0  0  0  0  0  0  0  0
   -6.2110   19.9560  -32.8000 C   0  0  0  0  0  0  0  0  0  0  0  0
   -7.4910   19.3180  -32.7660 N   0  0  0  0  0  0  0  0  0  0  0  0
   -7.5840   18.1130  -32.4570 O   0  0  0  0  0  0  0  0  0  0  0  0
   -8.6280   20.0250  -33.0800 O   0  0  0  0  0  0  0  0  0  0  0  0
   -4.7400   19.1670  -32.9960 S   0  0  0  0  0  0  0  0  0  0  0  0
   -1.6420   20.6410  -34.1590 N   0  0  0  0  0  0  0  0  0  0  0  0
    1.4650   22.0080  -35.0140 C   0  0  0  0  0  0  0  0  0  0  0  0
    2.4640   22.0870  -35.9890 C   0  0  0  0  0  0  0  0  0  0  0  0
    5.2645   20.8101  -36.5069 H   0  0  0  0  0  0  0  0  0  0  0  0
    5.3221   19.8784  -38.0415 H   0  0  0  0  0  0  0  0  0  0  0  0
    5.7046   21.6335  -38.0415 H   0  0  0  0  0  0  0  0  0  0  0  0
    2.0682   19.0178  -37.4356 H   0  0  0  0  0  0  0  0  0  0  0  0
    0.2869   18.8716  -35.7010 H   0  0  0  0  0  0  0  0  0  0  0  0
    0.7651   21.0152  -32.0185 H   0  0  0  0  0  0  0  0  0  0  0  0
   -2.5803   20.6920  -27.9099 H   0  0  0  0  0  0  0  0  0  0  0  0
   -3.8977   22.4646  -26.7654 H   0  0  0  0  0  0  0  0  0  0  0  0
   -4.8620   25.6610  -28.2150 H   0  0  0  0  0  0  0  0  0  0  0  0
   -5.6665   25.7934  -29.6841 H   0  0  0  0  0  0  0  0  0  0  0  0
   -5.1705   26.5736  -31.2241 H   0  0  0  0  0  0  0  0  0  0  0  0
   -5.7465   24.8722  -31.2241 H   0  0  0  0  0  0  0  0  0  0  0  0
   -2.4237   23.1218  -31.4917 H   0  0  0  0  0  0  0  0  0  0  0  0
   -4.2619   22.6892  -32.6388 H   0  0  0  0  0  0  0  0  0  0  0  0
   -6.7921   22.0568  -32.5244 H   0  0  0  0  0  0  0  0  0  0  0  0
    1.2966   22.8582  -34.3366 H   0  0  0  0  0  0  0  0  0  0  0  0
    3.0769   22.9969  -36.0687 H   0  0  0  0  0  0  0  0  0  0  0  0
  1  2  1  0
  2  3  1  0
  3  4  2  0
  4  5  1  0
  5  6  2  0
  6  7  1  0
  7  8  1  0
  8  9  2  0
  9 10  1  0
 10 11  2  0
 10 12  1  0
 12 13  2  0
 13 14  1  0
 14 15  2  0
 15 16  1  0
 15 17  1  0
 17 18  1  0
 18 19  1  0
 17 20  2  0
  9 21  1  0
 21 22  1  0
 22 23  2  0
 23 24  1  0
 24 25  2  0
 25 26  1  0
 26 27  2  0
 26 28  1  0
 25 29  1  0
 21 30  2  0
  6 31  1  0
 31 32  2  0
 32  3  1  0
 30  7  1  0
 20 12  1  0
 29 22  1  0
  1 33  1  0
  1 34  1  0
  1 35  1  0
  4 36  1  0
  5 37  1  0
  8 38  1  0
 13 39  1  0
 14 40  1  0
 16 41  1  0
 19 42  1  0
 19 43  1  0
 19 44  1  0
 20 45  1  0
 23 46  1  0
 24 47  1  0
 31 48  1  0
 32 49  1  0
M  CHG  2  26   1  28  -1
M  END
>  <UniqueID>  (6) 
6

>  <SMILES>  (6) 
COc1ccc(-n2cc(C(=O)c3ccc(O)c(OC)c3)c(-c3ccc([N+](=O)[O-])s3)n2)cc1

>  <Energy>  (6) 
118.6761854992692

>  <Genealogy>  (6) 
COc1ccc(-n2cc(C(=O)c3ccc(O)c(OC)c3)c(-c3ccc([N+](=O)[O-])s3)n2)cc1 (3D coordinates assigned)
COc1ccc(-n2cc(C(=O)c3ccc(O)c(OC)c3)c(-c3ccc([N+](=O)[O-])s3)n2)cc1 (optimized conformer: 118.6761854992692 kcal/mol)

>  <smiles>  (6) 
COc1ccc(-n2cc(C(=O)c3ccc(O)c(OC)c3)c(-c3ccc([N+](=O)[O-])s3)n2)cc1

>  <score_type>  (6) 
oracle

>  <origin>  (6) 
adg

>  <m_score__min__energy>  (6) 
-8.5600000000000005

>  <m_primary>  (6) 
energy

$$$$
6:0
     RDKit          3D

 33 35  0  0  0  0  0  0  0  0999 V2000
   -1.1560   28.8142  -24.2251 H   0  0  0  0  0  0  0  0  0  0  0  0
   -0.8190   27.8400  -24.6090 C   0  0  0  0  0  0  0  0  0  0  0  0
   -0.8900   27.5670  -25.9370 N   0  0  0  0  0  0  0  0  0  0  0  0
   -0.4670   26.3770  -26.4420 C   0  0  0  0  0  0  0  0  0  0  0  0
   -0.6020   26.1340  -27.8520 N   0  0  0  0  0  0  0  0  0  0  0  0
   -1.0950   25.0690  -28.4140 C   0  0  0  0  0  0  0  0  0  0  0  0
   -2.3390   25.0730  -28.9670 N   0  0  0  0  0  0  0  0  0  0  0  0
   -2.8750   23.9580  -29.5350 C   0  0  0  0  0  0  0  0  0  0  0  0
   -4.2350   24.0300  -30.1320 C   0  0  0  0  0  0  0  0  0  0  0  0
   -4.6070   23.2070  -31.2150 C   0  0  0  0  0  0  0  0  0  0  0  0
   -3.8793   22.4991  -31.6385 H   0  0  0  0  0  0  0  0  0  0  0  0
   -5.8950   23.2850  -31.7540 C   0  0  0  0  0  0  0  0  0  0  0  0
   -6.1746   22.6429  -32.6023 H   0  0  0  0  0  0  0  0  0  0  0  0
   -6.8270   24.1760  -31.2180 C   0  0  0  0  0  0  0  0  0  0  0  0
   -7.8379   24.2386  -31.6471 H   0  0  0  0  0  0  0  0  0  0  0  0
   -6.4760   24.9870  -30.1380 C   0  0  0  0  0  0  0  0  0  0  0  0
   -7.2126   25.6852  -29.7137 H   0  0  0  0  0  0  0  0  0  0  0  0
   -5.1900   24.9140  -29.5940 C   0  0  0  0  0  0  0  0  0  0  0  0
   -4.9222   25.5522  -28.7390 H   0  0  0  0  0  0  0  0  0  0  0  0
   -2.1180   22.7760  -29.5530 C   0  0  0  0  0  0  0  0  0  0  0  0
   -2.5153   21.8638  -30.0221 H   0  0  0  0  0  0  0  0  0  0  0  0
   -0.8500   22.7790  -28.9640 C   0  0  0  0  0  0  0  0  0  0  0  0
   -0.0100   21.5420  -28.9710 C   0  0  0  0  0  0  0  0  0  0  0  0
    0.1987   21.2347  -27.9356 H   0  0  0  0  0  0  0  0  0  0  0  0
   -0.5484   20.7361  -29.4913 H   0  0  0  0  0  0  0  0  0  0  0  0
    0.9376   21.7452  -29.4913 H   0  0  0  0  0  0  0  0  0  0  0  0
   -0.3680   23.9220  -28.4100 N   0  0  0  0  0  0  0  0  0  0  0  0
    0.0100   25.3970  -25.5550 C   0  0  0  0  0  0  0  0  0  0  0  0
    0.3224   24.4126  -25.9338 H   0  0  0  0  0  0  0  0  0  0  0  0
    0.0830   25.6730  -24.2260 N   0  0  0  0  0  0  0  0  0  0  0  0
    0.4410   24.9430  -23.5680 H   0  0  0  0  0  0  0  0  0  0  0  0
   -0.3160   26.8770  -23.7350 C   0  0  0  0  0  0  0  0  0  0  0  0
   -0.2425   27.0891  -22.6582 H   0  0  0  0  0  0  0  0  0  0  0  0
  1  2  1  0
  2  3  2  0
  3  4  1  0
  4  5  1  0
  5  6  2  0
  6  7  1  0
  7  8  2  0
  8  9  1  0
  9 10  2  0
 10 11  1  0
 10 12  1  0
 12 13  1  0
 12 14  2  0
 14 15  1  0
 14 16  1  0
 16 17  1  0
 16 18  2  0
 18 19  1  0
  8 20  1  0
 20 21  1  0
 20 22  2  0
 22 23  1  0
 23 24  1  0
 23 25  1  0
 23 26  1  0
 22 27  1  0
  4 28  2  0
 28 29  1  0
 28 30  1  0
 30 31  1  0
 30 32  2  0
 32 33  1  0
 32  2  1  0
 27  6  1  0
 18  9  1  0
M  CHG  2  27  -1  30   1
M  END
>  <UniqueID>  (7) 
7

>  <SMILES>  (7) 
Cc1cc(-c2ccccc2)n/c(=N\c2c[nH+]ccn2)[n-]1

>  <Energy>  (7) 
46.10634075270124

>  <Genealogy>  (7) 
Cc1cc(-c2ccccc2)nc(=Nc2c[nH+]ccn2)[n-]1 (protonated)
Cc1cc(-c2ccccc2)n/c(=N\c2c[nH+]ccn2)[n-]1 (cis-trans isomerization)
Cc1cc(-c2ccccc2)n/c(=N\c2c[nH+]ccn2)[n-]1 (3D coordinates assigned)
Cc1cc(-c2ccccc2)n/c(=N\c2c[nH+]ccn2)[n-]1 (optimized conformer: 46.10634075270124 kcal/mol)

>  <smiles>  (7) 
Cc1cc(-c2ccccc2)nc(=Nc2cnccn2)[nH]1

>  <score_type>  (7) 
oracle

>  <origin>  (7) 
adg

>  <m_score__min__energy>  (7) 
-8.1099999999999994

>  <m_primary>  (7) 
energy

$$$$
7:0
     RDKit          3D

 43 44  0  0  0  0  0  0  0  0999 V2000
   -3.3100   24.1720  -29.8140 C   0  0  0  0  0  0  0  0  0  0  0  0
   -4.2560   24.5460  -30.8100 O   0  0  0  0  0  0  0  0  0  0  0  0
   -5.4630   23.8710  -31.0470 C   0  0  0  0  0  0  0  0  0  0  0  0
   -6.0420   23.7860  -32.3270 C   0  0  0  0  0  0  0  0  0  0  0  0
   -7.2480   23.1010  -32.5120 C   0  0  0  0  0  0  0  0  0  0  0  0
   -7.8930   22.4950  -31.4220 C   0  0  0  0  0  0  0  0  0  0  0  0
   -9.1800   21.7310  -31.6240 C   0  0  0  0  0  0  0  0  0  0  0  0
   -8.9880   20.5330  -32.4540 N   0  0  0  0  0  0  0  0  0  0  0  0
   -8.9400   19.3050  -31.6480 C   0  0  0  0  0  0  0  0  0  0  0  0
   -7.6670   18.4920  -31.9640 C   0  0  0  0  0  0  0  0  0  0  0  0
   -7.0160   18.8950  -33.2370 N   0  0  0  0  0  0  0  0  0  0  0  0
   -5.9860   19.9490  -32.9880 C   0  0  0  0  0  0  0  0  0  0  0  0
   -4.5670   19.3760  -32.8740 C   0  0  0  0  0  0  0  0  0  0  0  0
   -4.1520   18.6710  -34.1770 C   0  0  0  0  0  0  0  0  0  0  0  0
   -5.3540   18.0910  -34.9410 C   0  0  0  0  0  0  0  0  0  0  0  0
   -6.4840   17.7140  -33.9750 C   0  0  0  0  0  0  0  0  0  0  0  0
   -7.3120   22.5760  -30.1490 C   0  0  0  0  0  0  0  0  0  0  0  0
   -6.1080   23.2610  -29.9650 C   0  0  0  0  0  0  0  0  0  0  0  0
   -3.7411   24.3424  -28.8164 H   0  0  0  0  0  0  0  0  0  0  0  0
   -3.0592   23.1071  -29.9280 H   0  0  0  0  0  0  0  0  0  0  0  0
   -2.3988   24.7775  -29.9280 H   0  0  0  0  0  0  0  0  0  0  0  0
   -5.5443   24.2602  -33.1857 H   0  0  0  0  0  0  0  0  0  0  0  0
   -7.6928   23.0370  -33.5160 H   0  0  0  0  0  0  0  0  0  0  0  0
   -9.5677   21.4234  -30.6416 H   0  0  0  0  0  0  0  0  0  0  0  0
   -9.8886   22.3928  -32.1436 H   0  0  0  0  0  0  0  0  0  0  0  0
   -9.7750   20.4590  -33.1420 H   0  0  0  0  0  0  0  0  0  0  0  0
   -8.9410   19.5734  -30.5813 H   0  0  0  0  0  0  0  0  0  0  0  0
   -9.8199   18.6904  -31.8888 H   0  0  0  0  0  0  0  0  0  0  0  0
   -6.9484   18.6347  -31.1434 H   0  0  0  0  0  0  0  0  0  0  0  0
   -7.9693   17.4397  -32.0704 H   0  0  0  0  0  0  0  0  0  0  0  0
   -7.7530   19.3380  -33.8390 H   0  0  0  0  0  0  0  0  0  0  0  0
   -6.0094   20.6675  -33.8206 H   0  0  0  0  0  0  0  0  0  0  0  0
   -6.2280   20.4296  -32.0286 H   0  0  0  0  0  0  0  0  0  0  0  0
   -3.8632   20.1960  -32.6685 H   0  0  0  0  0  0  0  0  0  0  0  0
   -4.5502   18.6404  -32.0563 H   0  0  0  0  0  0  0  0  0  0  0  0
   -3.6403   19.3985  -34.8242 H   0  0  0  0  0  0  0  0  0  0  0  0
   -3.4910   17.8338  -33.9083 H   0  0  0  0  0  0  0  0  0  0  0  0
   -5.7247   18.8424  -35.6537 H   0  0  0  0  0  0  0  0  0  0  0  0
   -5.0290   17.1850  -35.4735 H   0  0  0  0  0  0  0  0  0  0  0  0
   -7.3033   17.2579  -34.5500 H   0  0  0  0  0  0  0  0  0  0  0  0
   -6.0731   17.0120  -33.2345 H   0  0  0  0  0  0  0  0  0  0  0  0
   -7.8063   22.0979  -29.2905 H   0  0  0  0  0  0  0  0  0  0  0  0
   -5.6632   23.3213  -28.9608 H   0  0  0  0  0  0  0  0  0  0  0  0
  1  2  1  0
  2  3  1  0
  3  4  2  0
  4  5  1  0
  5  6  2  0
  6  7  1  0
  7  8  1  0
  8  9  1  0
  9 10  1  0
 10 11  1  0
 11 12  1  0
 12 13  1  0
 13 14  1  0
 14 15  1  0
 15 16  1  0
  6 17  1  0
 17 18  2  0
 18  3  1  0
 16 11  1  0
  1 19  1  0
  1 20  1  0
  1 21  1  0
  4 22  1  0
  5 23  1  0
  7 24  1  0
  7 25  1  0
  8 26  1  0
  9 27  1  0
  9 28  1  0
 10 29  1  0
 10 30  1  0
 11 31  1  0
 12 32  1  0
 12 33  1  0
 13 34  1  0
 13 35  1  0
 14 36  1  0
 14 37  1  0
 15 38  1  0
 15 39  1  0
 16 40  1  0
 16 41  1  0
 17 42  1  0
 18 43  1  0
M  CHG  1  11   1
M  END
>  <UniqueID>  (8) 
8

>  <SMILES>  (8) 
COc1ccc(CNCC[NH+]2CCCCC2)cc1

>  <Energy>  (8) 
48.383207176286355

>  <Genealogy>  (8) 
COc1ccc(CNCC[NH+]2CCCCC2)cc1 (protonated)
COc1ccc(CNCC[NH+]2CCCCC2)cc1 (3D coordinates assigned)
COc1ccc(CNCC[NH+]2CCCCC2)cc1 (nonaromatic ring conformer: 48.383207176286355 kcal/mol)

>  <smiles>  (8) 
COc1ccc(CNCCN2CCCCC2)cc1

>  <score_type>  (8) 
oracle

>  <origin>  (8) 
adg

>  <m_score__min__energy>  (8) 
-6.96

>  <m_primary>  (8) 
energy

$$$$
8:0
     RDKit          3D

 42 44  0  0  0  0  0  0  0  0999 V2000
   -7.2440   17.7410  -32.8820 C   0  0  0  0  0  0  0  0  0  0  0  0
   -7.8920   18.8420  -32.0460 C   0  0  0  0  0  0  0  0  0  0  0  0
   -7.9610   20.1040  -32.7980 N   0  0  0  0  0  0  0  0  0  0  0  0
   -6.7730   20.8860  -32.5500 C   0  0  0  0  0  0  0  0  0  0  0  0
   -5.5640   20.5430  -33.1710 C   0  0  0  0  0  0  0  0  0  0  0  0
   -4.3930   21.2190  -32.8430 C   0  0  0  0  0  0  0  0  0  0  0  0
   -4.4250   22.2230  -31.8770 C   0  0  0  0  0  0  0  0  0  0  0  0
   -5.6010   22.5700  -31.2680 N   0  0  0  0  0  0  0  0  0  0  0  0
   -5.5680   23.5570  -30.1740 C   0  0  0  0  0  0  0  0  0  0  0  0
   -4.9660   24.8450  -30.6540 C   0  0  0  0  0  0  0  0  0  0  0  0
   -5.6890   25.7110  -31.2170 O   0  0  0  0  0  0  0  0  0  0  0  0
   -3.5770   25.0970  -30.4230 N   0  0  0  0  0  0  0  0  0  0  0  0
   -2.6780   24.1870  -29.7360 C   0  0  0  0  0  0  0  0  0  0  0  0
   -2.0190   24.9310  -28.6230 C   0  0  0  0  0  0  0  0  0  0  0  0
   -1.2300   26.0160  -28.8400 N   0  0  0  0  0  0  0  0  0  0  0  0
   -0.9600   26.4300  -27.5930 C   0  0  0  0  0  0  0  0  0  0  0  0
   -0.1930   27.5270  -27.2050 C   0  0  0  0  0  0  0  0  0  0  0  0
   -0.0610   27.7760  -25.8260 C   0  0  0  0  0  0  0  0  0  0  0  0
   -0.7030   26.9390  -24.8830 C   0  0  0  0  0  0  0  0  0  0  0  0
   -1.4740   25.8430  -25.3140 C   0  0  0  0  0  0  0  0  0  0  0  0
   -1.5770   25.6240  -26.6860 C   0  0  0  0  0  0  0  0  0  0  0  0
   -2.2690   24.6620  -27.3140 N   0  0  0  0  0  0  0  0  0  0  0  0
   -6.7720   21.9300  -31.5990 C   0  0  0  0  0  0  0  0  0  0  0  0
   -7.8550   22.2520  -31.0340 O   0  0  0  0  0  0  0  0  0  0  0  0
   -6.8003   16.9872  -32.2150 H   0  0  0  0  0  0  0  0  0  0  0  0
   -8.0064   17.2657  -33.5167 H   0  0  0  0  0  0  0  0  0  0  0  0
   -6.4584   18.1768  -33.5167 H   0  0  0  0  0  0  0  0  0  0  0  0
   -8.9106   18.5317  -31.7701 H   0  0  0  0  0  0  0  0  0  0  0  0
   -7.2809   19.0037  -31.1458 H   0  0  0  0  0  0  0  0  0  0  0  0
   -8.0440   19.8970  -33.8220 H   0  0  0  0  0  0  0  0  0  0  0  0
   -8.8120   20.6450  -32.5130 H   0  0  0  0  0  0  0  0  0  0  0  0
   -5.5410   19.7373  -33.9196 H   0  0  0  0  0  0  0  0  0  0  0  0
   -3.4475   20.9625  -33.3432 H   0  0  0  0  0  0  0  0  0  0  0  0
   -3.4954   22.7422  -31.6009 H   0  0  0  0  0  0  0  0  0  0  0  0
   -6.5935   23.7442  -29.8228 H   0  0  0  0  0  0  0  0  0  0  0  0
   -4.9552   23.1597  -29.3514 H   0  0  0  0  0  0  0  0  0  0  0  0
   -3.2471   23.3377  -29.3300 H   0  0  0  0  0  0  0  0  0  0  0  0
   -1.9210   23.8022  -30.4352 H   0  0  0  0  0  0  0  0  0  0  0  0
    0.2919   28.1751  -27.9499 H   0  0  0  0  0  0  0  0  0  0  0  0
    0.5448   28.6262  -25.4794 H   0  0  0  0  0  0  0  0  0  0  0  0
   -0.5991   27.1458  -23.8076 H   0  0  0  0  0  0  0  0  0  0  0  0
   -1.9776   25.1825  -24.5928 H   0  0  0  0  0  0  0  0  0  0  0  0
  1  2  1  0
  2  3  1  0
  3  4  1  0
  4  5  2  0
  5  6  1  0
  6  7  2  0
  7  8  1  0
  8  9  1  0
  9 10  1  0
 10 11  2  0
 10 12  1  0
 12 13  1  0
 13 14  1  0
 14 15  2  0
 15 16  1  0
 16 17  2  0
 17 18  1  0
 18 19  2  0
 19 20  1  0
 20 21  2  0
 21 22  1  0
  8 23  1  0
 23 24  2  0
 23  4  1  0
 22 14  1  0
 21 16  1  0
  1 25  1  0
  1 26  1  0
  1 27  1  0
  2 28  1  0
  2 29  1  0
  3 30  1  0
  3 31  1  0
  5 32  1  0
  6 33  1  0
  7 34  1  0
  9 35  1  0
  9 36  1  0
 13 37  1  0
 13 38  1  0
 17 39  1  0
 18 40  1  0
 19 41  1  0
 20 42  1  0
M  CHG  3   3   1  12  -1  22  -1
M  END
>  <UniqueID>  (9) 
9

>  <SMILES>  (9) 
CC[NH2+]c1cccn(CC(=O)[N-]Cc2nc3ccccc3[n-]2)c1=O

>  <Energy>  (9) 
72.89184155374721

>  <Genealogy>  (9) 
CC[NH2+]c1cccn(CC(=O)[N-]Cc2nc3ccccc3[n-]2)c1=O (protonated)
CC[NH2+]c1cccn(CC(=O)[N-]Cc2nc3ccccc3[n-]2)c1=O (3D coordinates assigned)
CC[NH2+]c1cccn(CC(=O)[N-]Cc2nc3ccccc3[n-]2)c1=O (optimized conformer: 72.89184155374721 kcal/mol)

>  <smiles>  (9) 
CCNc1cccn(CC(=O)NCc2nc3ccccc3[nH]2)c1=O

>  <score_type>  (9) 
oracle

>  <origin>  (9) 
adg

>  <m_score__min__energy>  (9) 
-10.210000000000001

>  <m_primary>  (9) 
energy

$$$$
9:0
     RDKit          3D

 54 57  0  0  0  0  0  0  0  0999 V2000
    2.7410   28.7540  -21.9270 C   0  0  0  0  0  0  0  0  0  0  0  0
    3.0350   27.8470  -23.1280 C   0  0  0  0  0  0  0  0  0  0  0  0
    1.8050   27.2830  -23.7390 N   0  0  0  0  0  0  0  0  0  0  0  0
    0.6250   27.6050  -22.8920 C   0  0  0  0  0  0  0  0  0  0  0  0
   -0.5070   26.5570  -22.9830 C   0  0  0  0  0  0  0  0  0  0  0  0
   -0.5820   25.9220  -24.3110 N   0  0  0  0  0  0  0  0  0  0  0  0
   -1.1190   26.8360  -25.3430 C   0  0  0  0  0  0  0  0  0  0  0  0
   -1.6120   26.0480  -26.5270 C   0  0  0  0  0  0  0  0  0  0  0  0
   -2.7890   25.2910  -26.4220 C   0  0  0  0  0  0  0  0  0  0  0  0
   -3.2470   24.5460  -27.5140 C   0  0  0  0  0  0  0  0  0  0  0  0
   -2.5300   24.5310  -28.7150 C   0  0  0  0  0  0  0  0  0  0  0  0
   -3.0480   23.7700  -29.8160 N   0  0  0  0  0  0  0  0  0  0  0  0
   -4.1600   24.1200  -30.6520 C   0  0  0  0  0  0  0  0  0  0  0  0
   -4.3870   25.3340  -30.9120 O   0  0  0  0  0  0  0  0  0  0  0  0
   -5.0130   23.0640  -31.2620 C   0  0  0  0  0  0  0  0  0  0  0  0
   -6.3870   23.0210  -30.9660 C   0  0  0  0  0  0  0  0  0  0  0  0
   -7.1950   22.0340  -31.5340 C   0  0  0  0  0  0  0  0  0  0  0  0
   -8.5700   21.9640  -31.2630 C   0  0  0  0  0  0  0  0  0  0  0  0
   -9.3460   20.9610  -31.8510 C   0  0  0  0  0  0  0  0  0  0  0  0
   -8.7560   20.0280  -32.7100 C   0  0  0  0  0  0  0  0  0  0  0  0
   -7.3860   20.0940  -32.9850 C   0  0  0  0  0  0  0  0  0  0  0  0
   -6.6010   21.0930  -32.3990 C   0  0  0  0  0  0  0  0  0  0  0  0
   -5.3010   21.1540  -32.6600 O   0  0  0  0  0  0  0  0  0  0  0  0
   -4.4990   22.0790  -32.1390 C   0  0  0  0  0  0  0  0  0  0  0  0
   -3.2770   22.0540  -32.4420 O   0  0  0  0  0  0  0  0  0  0  0  0
   -1.3620   25.3070  -28.8290 C   0  0  0  0  0  0  0  0  0  0  0  0
   -0.9030   26.0540  -27.7380 C   0  0  0  0  0  0  0  0  0  0  0  0
    0.6970   25.2780  -24.7070 C   0  0  0  0  0  0  0  0  0  0  0  0
    1.9260   25.8250  -23.9510 C   0  0  0  0  0  0  0  0  0  0  0  0
    2.9212   28.1982  -20.9950 H   0  0  0  0  0  0  0  0  0  0  0  0
    3.3999   29.6342  -21.9622 H   0  0  0  0  0  0  0  0  0  0  0  0
    1.6911   29.0803  -21.9622 H   0  0  0  0  0  0  0  0  0  0  0  0
    3.5680   28.4347  -23.8899 H   0  0  0  0  0  0  0  0  0  0  0  0
    3.6407   27.0036  -22.7651 H   0  0  0  0  0  0  0  0  0  0  0  0
    1.6710   27.7410  -24.6720 H   0  0  0  0  0  0  0  0  0  0  0  0
    0.9558   27.6694  -21.8449 H   0  0  0  0  0  0  0  0  0  0  0  0
    0.2138   28.5564  -23.2604 H   0  0  0  0  0  0  0  0  0  0  0  0
   -0.3272   25.7770  -22.2285 H   0  0  0  0  0  0  0  0  0  0  0  0
   -1.4598   27.0776  -22.8069 H   0  0  0  0  0  0  0  0  0  0  0  0
   -1.9528   27.4143  -24.9183 H   0  0  0  0  0  0  0  0  0  0  0  0
   -0.3199   27.5168  -25.6715 H   0  0  0  0  0  0  0  0  0  0  0  0
   -3.3534   25.2834  -25.4779 H   0  0  0  0  0  0  0  0  0  0  0  0
   -4.1785   23.9673  -27.4275 H   0  0  0  0  0  0  0  0  0  0  0  0
   -6.8259   23.7660  -30.2860 H   0  0  0  0  0  0  0  0  0  0  0  0
   -9.0366   22.6974  -30.5888 H   0  0  0  0  0  0  0  0  0  0  0  0
  -10.4237   20.9053  -31.6376 H   0  0  0  0  0  0  0  0  0  0  0  0
   -9.3707   19.2405  -33.1704 H   0  0  0  0  0  0  0  0  0  0  0  0
   -6.9255   19.3599  -33.6625 H   0  0  0  0  0  0  0  0  0  0  0  0
   -0.8076   25.3267  -29.7789 H   0  0  0  0  0  0  0  0  0  0  0  0
    0.0178   26.6486  -27.8303 H   0  0  0  0  0  0  0  0  0  0  0  0
    0.6188   24.1989  -24.5083 H   0  0  0  0  0  0  0  0  0  0  0  0
    0.8513   25.4977  -25.7737 H   0  0  0  0  0  0  0  0  0  0  0  0
    2.0017   25.3236  -22.9749 H   0  0  0  0  0  0  0  0  0  0  0  0
    2.8260   25.6294  -24.5524 H   0  0  0  0  0  0  0  0  0  0  0  0
  1  2  1  0
  2  3  1  0
  3  4  1  0
  4  5  1  0
  5  6  1  0
  6  7  1  0
  7  8  1  0
  8  9  2  0
  9 10  1  0
 10 11  2  0
 11 12  1  0
 12 13  1  0
 13 14  2  0
 13 15  1  0
 15 16  2  0
 16 17  1  0
 17 18  2  0
 18 19  1  0
 19 20  2  0
 20 21  1  0
 21 22  2  0
 22 23  1  0
 23 24  1  0
 24 25  2  0
 11 26  1  0
 26 27  2  0
  6 28  1  0
 28 29  1  0
 29  3  1  0
 27  8  1  0
 24 15  1  0
 22 17  1  0
  1 30  1  0
  1 31  1  0
  1 32  1  0
  2 33  1  0
  2 34  1  0
  3 35  1  0
  4 36  1  0
  4 37  1  0
  5 38  1  0
  5 39  1  0
  7 40  1  0
  7 41  1  0
  9 42  1  0
 10 43  1  0
 16 44  1  0
 18 45  1  0
 19 46  1  0
 20 47  1  0
 21 48  1  0
 26 49  1  0
 27 50  1  0
 28 51  1  0
 28 52  1  0
 29 53  1  0
 29 54  1  0
M  CHG  2   3   1  12  -1
M  END
>  <UniqueID>  (10) 
10

>  <SMILES>  (10) 
CC[NH+]1CCN(Cc2ccc([N-]C(=O)c3cc4ccccc4oc3=O)cc2)CC1

>  <Energy>  (10) 
79.99205321529806

>  <Genealogy>  (10) 
CC[NH+]1CCN(Cc2ccc([N-]C(=O)c3cc4ccccc4oc3=O)cc2)CC1 (protonated)
CC[NH+]1CCN(Cc2ccc([N-]C(=O)c3cc4ccccc4oc3=O)cc2)CC1 (3D coordinates assigned)
CC[NH+]1CCN(Cc2ccc([N-]C(=O)c3cc4ccccc4oc3=O)cc2)CC1 (nonaromatic ring conformer: 79.99205321529806 kcal/mol)

>  <smiles>  (10) 
CCN1CCN(Cc2ccc(NC(=O)c3cc4ccccc4oc3=O)cc2)CC1

>  <score_type>  (10) 
oracle

>  <origin>  (10) 
adg

>  <m_score__min__energy>  (10) 
-11.06

>  <m_primary>  (10) 
energy

$$$$
10:0
     RDKit          3D

 78 82  0  0  0  0  0  0  0  0999 V2000
   -6.7250   14.9030  -34.2100 C   0  0  0  0  0  0  0  0  0  0  0  0
   -5.8930   16.1500  -34.1470 C   0  0  0  0  0  0  0  0  0  0  0  0
   -4.5480   16.1170  -34.5410 C   0  0  0  0  0  0  0  0  0  0  0  0
   -3.7510   17.2650  -34.4410 C   0  0  0  0  0  0  0  0  0  0  0  0
   -2.3210   17.2330  -34.8930 C   0  0  0  0  0  0  0  0  0  0  0  0
   -4.3110   18.4570  -33.9620 C   0  0  0  0  0  0  0  0  0  0  0  0
   -5.6450   18.4930  -33.5240 C   0  0  0  0  0  0  0  0  0  0  0  0
   -6.2110   19.7270  -32.9230 C   0  0  0  0  0  0  0  0  0  0  0  0
   -7.6030   19.8510  -32.7820 C   0  0  0  0  0  0  0  0  0  0  0  0
   -8.1490   20.9790  -32.2590 N   0  0  0  0  0  0  0  0  0  0  0  0
   -7.3820   22.0210  -31.8510 C   0  0  0  0  0  0  0  0  0  0  0  0
   -7.9730   23.1270  -31.3280 N   0  0  0  0  0  0  0  0  0  0  0  0
   -7.2460   24.1880  -30.8910 C   0  0  0  0  0  0  0  0  0  0  0  0
   -5.8460   24.1680  -30.9650 C   0  0  0  0  0  0  0  0  0  0  0  0
   -5.0470   25.3220  -30.5020 C   0  0  0  0  0  0  0  0  0  0  0  0
   -5.6430   26.3540  -30.0940 O   0  0  0  0  0  0  0  0  0  0  0  0
   -3.6140   25.2960  -30.4720 N   0  0  0  0  0  0  0  0  0  0  0  0
   -2.8050   24.5190  -29.5360 C   0  0  0  0  0  0  0  0  0  0  0  0
   -3.6590   24.0940  -28.3400 C   0  0  0  0  0  0  0  0  0  0  0  0
   -2.7890   23.8650  -27.0980 C   0  0  0  0  0  0  0  0  0  0  0  0
   -2.3360   22.4620  -27.0270 N   0  0  0  0  0  0  0  0  0  0  0  0
   -3.1560   21.5590  -27.8420 C   0  0  0  0  0  0  0  0  0  0  0  0
   -2.2630   20.3940  -28.2450 C   0  0  0  0  0  0  0  0  0  0  0  0
   -0.8400   20.8830  -28.0320 C   0  0  0  0  0  0  0  0  0  0  0  0
   -0.9740   22.3150  -27.5440 C   0  0  0  0  0  0  0  0  0  0  0  0
   -5.2150   23.0480  -31.5240 C   0  0  0  0  0  0  0  0  0  0  0  0
   -5.9780   21.9560  -31.9650 C   0  0  0  0  0  0  0  0  0  0  0  0
   -5.3860   20.7930  -32.4900 C   0  0  0  0  0  0  0  0  0  0  0  0
   -3.9920   20.7110  -32.5830 O   0  0  0  0  0  0  0  0  0  0  0  0
   -3.1560   20.5650  -31.4380 C   0  0  0  0  0  0  0  0  0  0  0  0
   -2.0710   21.6460  -31.4670 C   0  0  0  0  0  0  0  0  0  0  0  0
   -0.9200   21.3190  -32.4450 C   0  0  1  0  0  0  0  0  0  0  0  0
   -0.4040   19.8740  -32.2530 C   0  0  0  0  0  0  0  0  0  0  0  0
    0.8160   19.5950  -33.1500 C   0  0  0  0  0  0  0  0  0  0  0  0
    0.8510   20.4930  -34.3980 C   0  0  0  0  0  0  0  0  0  0  0  0
   -0.5690   20.8310  -34.8690 C   0  0  0  0  0  0  0  0  0  0  0  0
   -1.3610   21.5430  -33.8430 N   0  0  0  0  0  0  0  0  0  0  0  0
   -6.4310   17.3340  -33.6240 C   0  0  0  0  0  0  0  0  0  0  0  0
   -6.9525   14.5620  -33.1892 H   0  0  0  0  0  0  0  0  0  0  0  0
   -7.6634   15.1148  -34.7435 H   0  0  0  0  0  0  0  0  0  0  0  0
   -6.1691   14.1179  -34.7435 H   0  0  0  0  0  0  0  0  0  0  0  0
   -4.1156   15.1838  -34.9312 H   0  0  0  0  0  0  0  0  0  0  0  0
   -1.6591   17.2182  -34.0146 H   0  0  0  0  0  0  0  0  0  0  0  0
   -2.1478   16.3308  -35.4979 H   0  0  0  0  0  0  0  0  0  0  0  0
   -2.1076   18.1266  -35.4979 H   0  0  0  0  0  0  0  0  0  0  0  0
   -3.7009   19.3717  -33.9288 H   0  0  0  0  0  0  0  0  0  0  0  0
   -8.2577   19.0257  -33.0986 H   0  0  0  0  0  0  0  0  0  0  0  0
   -7.7589   25.0684  -30.4765 H   0  0  0  0  0  0  0  0  0  0  0  0
   -2.4176   23.6237  -30.0444 H   0  0  0  0  0  0  0  0  0  0  0  0
   -1.9666   25.1367  -29.1818 H   0  0  0  0  0  0  0  0  0  0  0  0
   -4.3939   24.8834  -28.1240 H   0  0  0  0  0  0  0  0  0  0  0  0
   -4.1684   23.1517  -28.5900 H   0  0  0  0  0  0  0  0  0  0  0  0
   -1.9107   24.5256  -27.1461 H   0  0  0  0  0  0  0  0  0  0  0  0
   -3.3873   24.0882  -26.2023 H   0  0  0  0  0  0  0  0  0  0  0  0
   -4.0128   21.1941  -27.2566 H   0  0  0  0  0  0  0  0  0  0  0  0
   -3.5508   22.0775  -28.7281 H   0  0  0  0  0  0  0  0  0  0  0  0
   -2.4669   19.5166  -27.6137 H   0  0  0  0  0  0  0  0  0  0  0  0
   -2.4379   20.0860  -29.2864 H   0  0  0  0  0  0  0  0  0  0  0  0
   -0.3298   20.2657  -27.2779 H   0  0  0  0  0  0  0  0  0  0  0  0
   -0.2434   20.8193  -28.9540 H   0  0  0  0  0  0  0  0  0  0  0  0
   -0.2430   22.5128  -26.7461 H   0  0  0  0  0  0  0  0  0  0  0  0
   -0.7829   23.0285  -28.3592 H   0  0  0  0  0  0  0  0  0  0  0  0
   -4.1192   23.0251  -31.6172 H   0  0  0  0  0  0  0  0  0  0  0  0
   -3.7598   20.6739  -30.5250 H   0  0  0  0  0  0  0  0  0  0  0  0
   -2.6873   19.5699  -31.4464 H   0  0  0  0  0  0  0  0  0  0  0  0
   -2.5315   22.5970  -31.7728 H   0  0  0  0  0  0  0  0  0  0  0  0
   -1.6384   21.7057  -30.4574 H   0  0  0  0  0  0  0  0  0  0  0  0
   -0.0813   21.9959  -32.2251 H   0  0  0  0  0  0  0  0  0  0  0  0
   -0.1157   19.7327  -31.2009 H   0  0  0  0  0  0  0  0  0  0  0  0
   -1.2081   19.1769  -32.5316 H   0  0  0  0  0  0  0  0  0  0  0  0
    1.7308   19.7697  -32.5647 H   0  0  0  0  0  0  0  0  0  0  0  0
    0.7459   18.5520  -33.4923 H   0  0  0  0  0  0  0  0  0  0  0  0
    1.3817   21.4256  -34.1559 H   0  0  0  0  0  0  0  0  0  0  0  0
    1.3698   19.9540  -35.2044 H   0  0  0  0  0  0  0  0  0  0  0  0
   -0.5000   21.4675  -35.7635 H   0  0  0  0  0  0  0  0  0  0  0  0
   -1.0814   19.8811  -35.0814 H   0  0  0  0  0  0  0  0  0  0  0  0
   -2.3570   21.2390  -33.9520 H   0  0  0  0  0  0  0  0  0  0  0  0
   -7.4785   17.3553  -33.2889 H   0  0  0  0  0  0  0  0  0  0  0  0
  1  2  1  0
  2  3  2  0
  3  4  1  0
  4  5  1  0
  4  6  2  0
  6  7  1  0
  7  8  1  0
  8  9  2  0
  9 10  1  0
 10 11  2  0
 11 12  1  0
 12 13  2  0
 13 14  1  0
 14 15  1  0
 15 16  2  0
 15 17  1  0
 17 18  1  0
 18 19  1  0
 19 20  1  0
 20 21  1  0
 21 22  1  0
 22 23  1  0
 23 24  1  0
 24 25  1  0
 14 26  2  0
 26 27  1  0
 27 28  2  0
 28 29  1  0
 29 30  1  0
 30 31  1  0
 31 32  1  0
 32 33  1  0
 33 34  1  0
 34 35  1  0
 35 36  1  0
 36 37  1  0
  7 38  2  0
 38  2  1  0
 28  8  1  0
 37 32  1  0
 27 11  1  0
 25 21  1  0
  1 39  1  0
  1 40  1  0
  1 41  1  0
  3 42  1  0
  5 43  1  0
  5 44  1  0
  5 45  1  0
  6 46  1  0
  9 47  1  0
 13 48  1  0
 18 49  1  0
 18 50  1  0
 19 51  1  0
 19 52  1  0
 20 53  1  0
 20 54  1  0
 22 55  1  0
 22 56  1  0
 23 57  1  0
 23 58  1  0
 24 59  1  0
 24 60  1  0
 25 61  1  0
 25 62  1  0
 26 63  1  0
 30 64  1  0
 30 65  1  0
 31 66  1  0
 31 67  1  0
 32 68  1  1
 33 69  1  0
 33 70  1  0
 34 71  1  0
 34 72  1  0
 35 73  1  0
 35 74  1  0
 36 75  1  0
 36 76  1  0
 37 77  1  0
 38 78  1  0
M  CHG  1  17  -1
M  END
>  <UniqueID>  (11) 
11

>  <SMILES>  (11) 
Cc1cc(C)cc(-c2cnc3ncc(C(=O)[N-]CCCN4CCCC4)cc3c2OCC[C@H]2CCCCN2)c1

>  <Energy>  (11) 
100.32605666076859

>  <Genealogy>  (11) 
Cc1cc(C)cc(-c2cnc3ncc(C(=O)[N-]CCCN4CCCC4)cc3c2OCCC2CCCCN2)c1 (protonated)
Cc1cc(C)cc(-c2cnc3ncc(C(=O)[N-]CCCN4CCCC4)cc3c2OCC[C@H]2CCCCN2)c1 (chirality)
Cc1cc(C)cc(-c2cnc3ncc(C(=O)[N-]CCCN4CCCC4)cc3c2OCC[C@H]2CCCCN2)c1 (3D coordinates assigned)
Cc1cc(C)cc(-c2cnc3ncc(C(=O)[N-]CCCN4CCCC4)cc3c2OCC[C@H]2CCCCN2)c1 (nonaromatic ring conformer: 100.32605666076859 kcal/mol)

>  <smiles>  (11) 
Cc1cc(C)cc(-c2cnc3ncc(C(=O)NCCCN4CCCC4)cc3c2OCCC2CCCCN2)c1

>  <score_type>  (11) 
oracle

>  <origin>  (11) 
adg

>  <m_score__min__energy>  (11) 
-13.24

>  <m_primary>  (11) 
energy

$$$$
11:0
     RDKit          3D

 40 42  0  0  0  0  0  0  0  0999 V2000
   -9.8610   21.3440  -31.9670 C   0  0  0  0  0  0  0  0  0  0  0  0
   -8.3870   21.0960  -32.0150 C   0  0  0  0  0  0  0  0  0  0  0  0
   -7.4940   22.0340  -31.4890 C   0  0  0  0  0  0  0  0  0  0  0  0
   -6.1190   21.7590  -31.5380 C   0  0  0  0  0  0  0  0  0  0  0  0
   -5.1460   22.6850  -31.0100 N   0  0  0  0  0  0  0  0  0  0  0  0
   -5.5080   23.6780  -29.9880 C   0  0  0  0  0  0  0  0  0  0  0  0
   -4.6060   24.9160  -30.1010 C   0  0  0  0  0  0  0  0  0  0  0  0
   -3.1570   24.5970  -30.0600 N   0  0  0  0  0  0  0  0  0  0  0  0
   -2.5760   24.9100  -28.7450 C   0  0  0  0  0  0  0  0  0  0  0  0
   -2.8120   23.2130  -30.4610 C   0  0  0  0  0  0  0  0  0  0  0  0
   -3.7700   22.6630  -31.5210 C   0  0  0  0  0  0  0  0  0  0  0  0
   -5.7020   20.5830  -32.0820 N   0  0  0  0  0  0  0  0  0  0  0  0
   -6.5780   19.6730  -32.5860 C   0  0  0  0  0  0  0  0  0  0  0  0
   -6.0820   18.4030  -33.1690 C   0  0  0  0  0  0  0  0  0  0  0  0
   -6.9520   17.3130  -33.3520 C   0  0  0  0  0  0  0  0  0  0  0  0
   -6.4660   16.1260  -33.9020 C   0  0  0  0  0  0  0  0  0  0  0  0
   -5.1250   16.0270  -34.2650 C   0  0  0  0  0  0  0  0  0  0  0  0
   -4.2830   17.1230  -34.0730 C   0  0  0  0  0  0  0  0  0  0  0  0
   -4.7690   18.2770  -33.5360 N   0  0  0  0  0  0  0  0  0  0  0  0
   -7.9120   19.9400  -32.5460 N   0  0  0  0  0  0  0  0  0  0  0  0
  -10.1896   21.3993  -30.9187 H   0  0  0  0  0  0  0  0  0  0  0  0
  -10.0898   22.2933  -32.4735 H   0  0  0  0  0  0  0  0  0  0  0  0
  -10.3878   20.5219  -32.4735 H   0  0  0  0  0  0  0  0  0  0  0  0
   -7.8625   22.9705  -31.0449 H   0  0  0  0  0  0  0  0  0  0  0  0
   -6.5563   23.9792  -30.1305 H   0  0  0  0  0  0  0  0  0  0  0  0
   -5.3755   23.2297  -28.9923 H   0  0  0  0  0  0  0  0  0  0  0  0
   -4.8248   25.4207  -31.0535 H   0  0  0  0  0  0  0  0  0  0  0  0
   -4.8220   25.5548  -29.2319 H   0  0  0  0  0  0  0  0  0  0  0  0
   -3.2472   24.5484  -27.9521 H   0  0  0  0  0  0  0  0  0  0  0  0
   -1.5972   24.4171  -28.6499 H   0  0  0  0  0  0  0  0  0  0  0  0
   -2.4492   25.9985  -28.6499 H   0  0  0  0  0  0  0  0  0  0  0  0
   -1.7905   23.2065  -30.8690 H   0  0  0  0  0  0  0  0  0  0  0  0
   -2.8908   22.5732  -29.5697 H   0  0  0  0  0  0  0  0  0  0  0  0
   -3.7073   23.2840  -32.4268 H   0  0  0  0  0  0  0  0  0  0  0  0
   -3.4890   21.6268  -31.7606 H   0  0  0  0  0  0  0  0  0  0  0  0
   -8.0101   17.3958  -33.0631 H   0  0  0  0  0  0  0  0  0  0  0  0
   -7.1410   15.2699  -34.0486 H   0  0  0  0  0  0  0  0  0  0  0  0
   -4.7338   15.0947  -34.6984 H   0  0  0  0  0  0  0  0  0  0  0  0
   -3.2223   17.0550  -34.3564 H   0  0  0  0  0  0  0  0  0  0  0  0
   -4.1050   19.0720  -33.4080 H   0  0  0  0  0  0  0  0  0  0  0  0
  1  2  1  0
  2  3  2  0
  3  4  1  0
  4  5  1  0
  5  6  1  0
  6  7  1  0
  7  8  1  0
  8  9  1  0
  8 10  1  0
 10 11  1  0
  4 12  2  0
 12 13  1  0
 13 14  1  0
 14 15  2  0
 15 16  1  0
 16 17  2  0
 17 18  1  0
 18 19  2  0
 13 20  2  0
 20  2  1  0
 11  5  1  0
 19 14  1  0
  1 21  1  0
  1 22  1  0
  1 23  1  0
  3 24  1  0
  6 25  1  0
  6 26  1  0
  7 27  1  0
  7 28  1  0
  9 29  1  0
  9 30  1  0
  9 31  1  0
 10 32  1  0
 10 33  1  0
 11 34  1  0
 11 35  1  0
 15 36  1  0
 16 37  1  0
 17 38  1  0
 18 39  1  0
 19 40  1  0
M  CHG  1  19   1
M  END
>  <UniqueID>  (12) 
12

>  <SMILES>  (12) 
Cc1cc(N2CCN(C)CC2)nc(-c2cccc[nH+]2)n1

>  <Energy>  (12) 
49.945065510876276

>  <Genealogy>  (12) 
Cc1cc(N2CCN(C)CC2)nc(-c2cccc[nH+]2)n1 (protonated)
Cc1cc(N2CCN(C)CC2)nc(-c2cccc[nH+]2)n1 (3D coordinates assigned)
Cc1cc(N2CCN(C)CC2)nc(-c2cccc[nH+]2)n1 (nonaromatic ring conformer: 49.945065510876276 kcal/mol)

>  <smiles>  (12) 
Cc1cc(N2CCN(C)CC2)nc(-c2ccccn2)n1

>  <score_type>  (12) 
oracle

>  <origin>  (12) 
adg

>  <m_score__min__energy>  (12) 
-6.5

>  <m_primary>  (12) 
energy

$$$$
12:0
     RDKit          3D

 48 51  0  0  0  0  0  0  0  0999 V2000
   -6.0040   25.0320  -30.2250 C   0  0  0  0  0  0  0  0  0  0  0  0
   -4.9670   23.9680  -30.1100 C   0  0  0  0  0  0  0  0  0  0  0  0
   -4.7200   23.2860  -28.9700 N   0  0  0  0  0  0  0  0  0  0  0  0
   -3.7700   22.4160  -29.3630 C   0  0  0  0  0  0  0  0  0  0  0  0
   -3.1390   21.4210  -28.4410 C   0  0  0  0  0  0  0  0  0  0  0  0
   -3.4790   22.5570  -30.6730 N   0  0  0  0  0  0  0  0  0  0  0  0
   -2.5030   21.8140  -31.4730 C   0  0  0  0  0  0  0  0  0  0  0  0
   -2.9480   21.7190  -32.9490 C   0  0  2  0  0  0  0  0  0  0  0  0
   -4.2580   20.9010  -33.0940 C   0  0  0  0  0  0  0  0  0  0  0  0
   -4.2010   19.6700  -32.2720 N   0  0  0  0  0  0  0  0  0  0  0  0
   -5.5300   19.1910  -31.8330 C   0  0  0  0  0  0  0  0  0  0  0  0
   -6.5270   20.3010  -31.6290 C   0  0  0  0  0  0  0  0  0  0  0  0
   -7.8140   20.2420  -32.0360 N   0  0  0  0  0  0  0  0  0  0  0  0
   -8.2750   21.4490  -31.6440 C   0  0  0  0  0  0  0  0  0  0  0  0
   -9.6810   21.9030  -31.8340 C   0  0  0  0  0  0  0  0  0  0  0  0
   -7.3460   22.1570  -31.0470 O   0  0  0  0  0  0  0  0  0  0  0  0
   -6.2480   21.4700  -31.0260 N   0  0  0  0  0  0  0  0  0  0  0  0
   -3.4030   18.5990  -32.9080 C   0  0  0  0  0  0  0  0  0  0  0  0
   -1.9150   18.8240  -32.7930 C   0  0  0  0  0  0  0  0  0  0  0  0
   -1.0920   17.8990  -32.2530 N   0  0  0  0  0  0  0  0  0  0  0  0
    0.1350   18.4490  -32.3420 C   0  0  0  0  0  0  0  0  0  0  0  0
    0.0430   19.6910  -32.9270 C   0  0  0  0  0  0  0  0  0  0  0  0
   -1.2490   19.9250  -33.2110 N   0  0  0  0  0  0  0  0  0  0  0  0
   -1.7930   21.1480  -33.8010 C   0  0  0  0  0  0  0  0  0  0  0  0
   -4.2300   23.5340  -31.1500 N   0  0  0  0  0  0  0  0  0  0  0  0
   -6.3150   25.3511  -29.2193 H   0  0  0  0  0  0  0  0  0  0  0  0
   -5.5880   25.8920  -30.7703 H   0  0  0  0  0  0  0  0  0  0  0  0
   -6.8744   24.6383  -30.7703 H   0  0  0  0  0  0  0  0  0  0  0  0
   -3.3266   21.7169  -27.3983 H   0  0  0  0  0  0  0  0  0  0  0  0
   -3.5717   20.4263  -28.6234 H   0  0  0  0  0  0  0  0  0  0  0  0
   -2.0547   21.3883  -28.6234 H   0  0  0  0  0  0  0  0  0  0  0  0
   -1.5320   22.3285  -31.4233 H   0  0  0  0  0  0  0  0  0  0  0  0
   -2.4228   20.7949  -31.0668 H   0  0  0  0  0  0  0  0  0  0  0  0
   -3.1789   22.7271  -33.3237 H   0  0  0  0  0  0  0  0  0  0  0  0
   -5.1069   21.5172  -32.7628 H   0  0  0  0  0  0  0  0  0  0  0  0
   -4.3817   20.6159  -34.1492 H   0  0  0  0  0  0  0  0  0  0  0  0
   -5.9235   18.5047  -32.5973 H   0  0  0  0  0  0  0  0  0  0  0  0
   -5.3922   18.6949  -30.8610 H   0  0  0  0  0  0  0  0  0  0  0  0
  -10.1530   22.0554  -30.8521 H   0  0  0  0  0  0  0  0  0  0  0  0
   -9.6882   22.8491  -32.3951 H   0  0  0  0  0  0  0  0  0  0  0  0
  -10.2401   21.1397  -32.3951 H   0  0  0  0  0  0  0  0  0  0  0  0
   -5.3430   21.7810  -30.6080 H   0  0  0  0  0  0  0  0  0  0  0  0
   -3.6512   17.6428  -32.4242 H   0  0  0  0  0  0  0  0  0  0  0  0
   -3.6530   18.5947  -33.9792 H   0  0  0  0  0  0  0  0  0  0  0  0
    1.0677   17.9771  -31.9993 H   0  0  0  0  0  0  0  0  0  0  0  0
    0.8818   20.3738  -33.1274 H   0  0  0  0  0  0  0  0  0  0  0  0
   -0.9926   21.8995  -33.8686 H   0  0  0  0  0  0  0  0  0  0  0  0
   -2.1861   20.9057  -34.7994 H   0  0  0  0  0  0  0  0  0  0  0  0
  1  2  1  0
  2  3  1  0
  3  4  2  0
  4  5  1  0
  4  6  1  0
  6  7  1  0
  7  8  1  0
  8  9  1  0
  9 10  1  0
 10 11  1  0
 11 12  1  0
 12 13  1  0
 13 14  2  0
 14 15  1  0
 14 16  1  0
 16 17  1  0
 10 18  1  0
 18 19  1  0
 19 20  2  0
 20 21  1  0
 21 22  2  0
 22 23  1  0
 23 24  1  0
  6 25  1  0
 25  2  2  0
 24  8  1  0
 17 12  2  0
 23 19  1  0
  1 26  1  0
  1 27  1  0
  1 28  1  0
  5 29  1  0
  5 30  1  0
  5 31  1  0
  7 32  1  0
  7 33  1  0
  8 34  1  6
  9 35  1  0
  9 36  1  0
 11 37  1  0
 11 38  1  0
 15 39  1  0
 15 40  1  0
 15 41  1  0
 17 42  1  0
 18 43  1  0
 18 44  1  0
 21 45  1  0
 22 46  1  0
 24 47  1  0
 24 48  1  0
M  CHG  1  17   1
M  END
>  <UniqueID>  (13) 
13

>  <SMILES>  (13) 
Cc1nc(C)n(C[C@@H]2CN(Cc3nc(C)o[nH+]3)Cc3nccn3C2)n1

>  <Energy>  (13) 
149.70888061833358

>  <Genealogy>  (13) 
Cc1nc(C)n(CC2CN(Cc3nc(C)o[nH+]3)Cc3nccn3C2)n1 (protonated)
Cc1nc(C)n(C[C@@H]2CN(Cc3nc(C)o[nH+]3)Cc3nccn3C2)n1 (chirality)
Cc1nc(C)n(C[C@@H]2CN(Cc3nc(C)o[nH+]3)Cc3nccn3C2)n1 (3D coordinates assigned)
Cc1nc(C)n(C[C@@H]2CN(Cc3nc(C)o[nH+]3)Cc3nccn3C2)n1 (nonaromatic ring conformer: 149.70888061833358 kcal/mol)

>  <smiles>  (13) 
Cc1nc(C)n(CC2CN(Cc3noc(C)n3)Cc3nccn3C2)n1

>  <score_type>  (13) 
oracle

>  <origin>  (13) 
adg

>  <m_score__min__energy>  (13) 
-5.5800000000000001

>  <m_primary>  (13) 
energy

$$$$
13:0
     RDKit          3D

 68 71  0  0  0  0  0  0  0  0999 V2000
    2.1765   18.3966  -31.0382 H   0  0  0  0  0  0  0  0  0  0  0  0
    1.6020   19.3240  -30.8970 C   0  0  0  0  0  0  0  0  0  0  0  0
    1.2580   19.6980  -29.7040 N   0  0  0  0  0  0  0  0  0  0  0  0
    0.0270   19.3210  -29.0730 C   0  0  0  0  0  0  0  0  0  0  0  0
   -0.7820   18.5440  -29.6500 O   0  0  0  0  0  0  0  0  0  0  0  0
   -0.3060   19.8680  -27.7200 C   0  0  0  0  0  0  0  0  0  0  0  0
   -0.0288   19.1289  -26.9539 H   0  0  0  0  0  0  0  0  0  0  0  0
    0.2537   20.8030  -27.5699 H   0  0  0  0  0  0  0  0  0  0  0  0
   -1.8050   20.1690  -27.6090 C   0  0  0  0  0  0  0  0  0  0  0  0
   -2.3447   19.2347  -27.3949 H   0  0  0  0  0  0  0  0  0  0  0  0
   -1.9576   20.8963  -26.7980 H   0  0  0  0  0  0  0  0  0  0  0  0
   -2.3420   20.7710  -28.9130 C   0  0  0  0  0  0  0  0  0  0  0  0
   -1.8385   20.2936  -29.7666 H   0  0  0  0  0  0  0  0  0  0  0  0
   -3.4266   20.5953  -28.9661 H   0  0  0  0  0  0  0  0  0  0  0  0
   -2.0860   22.2550  -28.9530 C   0  0  0  0  0  0  0  0  0  0  0  0
   -1.0600   22.8190  -28.1770 C   0  0  0  0  0  0  0  0  0  0  0  0
   -0.4175   22.1710  -27.5628 H   0  0  0  0  0  0  0  0  0  0  0  0
   -0.8530   24.2020  -28.1830 C   0  0  0  0  0  0  0  0  0  0  0  0
   -0.0422   24.6382  -27.5811 H   0  0  0  0  0  0  0  0  0  0  0  0
   -1.6740   25.0310  -28.9520 C   0  0  0  0  0  0  0  0  0  0  0  0
   -1.4660   26.4050  -28.9490 O   0  0  0  0  0  0  0  0  0  0  0  0
   -2.7060   24.4780  -29.7180 C   0  0  0  0  0  0  0  0  0  0  0  0
   -3.5280   25.2990  -30.4820 O   0  0  0  0  0  0  0  0  0  0  0  0
   -2.9140   23.0950  -29.7160 C   0  0  0  0  0  0  0  0  0  0  0  0
   -3.7296   22.6631  -30.3146 H   0  0  0  0  0  0  0  0  0  0  0  0
    1.2180   20.1530  -32.0810 C   0  0  0  0  0  0  0  0  0  0  0  0
    1.3591   21.2172  -31.8412 H   0  0  0  0  0  0  0  0  0  0  0  0
    1.8516   19.8750  -32.9361 H   0  0  0  0  0  0  0  0  0  0  0  0
   -0.2220   19.9100  -32.4360 C   0  0  0  0  0  0  0  0  0  0  0  0
   -1.1820   20.9150  -32.2360 C   0  0  0  0  0  0  0  0  0  0  0  0
   -0.8823   21.8770  -31.7946 H   0  0  0  0  0  0  0  0  0  0  0  0
   -2.5150   20.7010  -32.5940 C   0  0  0  0  0  0  0  0  0  0  0  0
   -3.2605   21.4924  -32.4269 H   0  0  0  0  0  0  0  0  0  0  0  0
   -2.9070   19.4830  -33.1650 C   0  0  0  0  0  0  0  0  0  0  0  0
   -4.2450   19.2590  -33.5210 C   0  0  0  0  0  0  0  0  0  0  0  0
   -4.9907   20.0520  -33.3626 H   0  0  0  0  0  0  0  0  0  0  0  0
   -4.6410   18.0360  -34.0760 C   0  0  0  0  0  0  0  0  0  0  0  0
   -5.9990   17.8610  -34.3920 O   0  0  0  0  0  0  0  0  0  0  0  0
   -6.9510   17.1640  -33.5870 C   0  0  0  0  0  0  0  0  0  0  0  0
   -7.9659   17.4797  -33.8705 H   0  0  0  0  0  0  0  0  0  0  0  0
   -6.8328   16.0826  -33.7497 H   0  0  0  0  0  0  0  0  0  0  0  0
   -6.7220   17.4720  -32.1030 C   0  0  0  0  0  0  0  0  0  0  0  0
   -6.7503   16.5315  -31.5332 H   0  0  0  0  0  0  0  0  0  0  0  0
   -5.7427   17.9616  -31.9967 H   0  0  0  0  0  0  0  0  0  0  0  0
   -7.8000   18.4200  -31.5580 C   0  0  0  0  0  0  0  0  0  0  0  0
   -8.6491   17.8209  -31.1973 H   0  0  0  0  0  0  0  0  0  0  0  0
   -7.3515   19.0093  -30.7446 H   0  0  0  0  0  0  0  0  0  0  0  0
   -8.3050   19.4000  -32.6270 C   0  0  0  0  0  0  0  0  0  0  0  0
   -7.9339   19.0756  -33.6104 H   0  0  0  0  0  0  0  0  0  0  0  0
   -9.4046   19.3991  -32.5976 H   0  0  0  0  0  0  0  0  0  0  0  0
   -7.8320   20.8090  -32.3680 C   0  0  0  0  0  0  0  0  0  0  0  0
   -8.7130   21.7640  -31.8380 C   0  0  0  0  0  0  0  0  0  0  0  0
   -9.7585   21.4906  -31.6326 H   0  0  0  0  0  0  0  0  0  0  0  0
   -8.2670   23.0620  -31.5700 C   0  0  0  0  0  0  0  0  0  0  0  0
   -8.9644   23.8085  -31.1621 H   0  0  0  0  0  0  0  0  0  0  0  0
   -6.9380   23.4130  -31.8190 C   0  0  0  0  0  0  0  0  0  0  0  0
   -6.5896   24.4344  -31.6059 H   0  0  0  0  0  0  0  0  0  0  0  0
   -6.0510   22.4660  -32.3390 C   0  0  0  0  0  0  0  0  0  0  0  0
   -5.0033   22.7407  -32.5311 H   0  0  0  0  0  0  0  0  0  0  0  0
   -6.4960   21.1690  -32.6150 C   0  0  0  0  0  0  0  0  0  0  0  0
   -5.7967   20.4268  -33.0275 H   0  0  0  0  0  0  0  0  0  0  0  0
   -3.6750   17.0360  -34.2990 C   0  0  0  0  0  0  0  0  0  0  0  0
   -3.9737   16.0786  -34.7509 H   0  0  0  0  0  0  0  0  0  0  0  0
   -2.3400   17.2520  -33.9500 C   0  0  0  0  0  0  0  0  0  0  0  0
   -1.5946   16.4620  -34.1237 H   0  0  0  0  0  0  0  0  0  0  0  0
   -1.9450   18.4690  -33.3800 C   0  0  0  0  0  0  0  0  0  0  0  0
   -0.6070   18.6930  -33.0200 C   0  0  0  0  0  0  0  0  0  0  0  0
    0.1448   17.9097  -33.1967 H   0  0  0  0  0  0  0  0  0  0  0  0
  1  2  1  0
  2  3  2  0
  3  4  1  0
  4  5  2  0
  4  6  1  0
  6  7  1  0
  6  8  1  0
  6  9  1  0
  9 10  1  0
  9 11  1  0
  9 12  1  0
 12 13  1  0
 12 14  1  0
 12 15  1  0
 15 16  2  0
 16 17  1  0
 16 18  1  0
 18 19  1  0
 18 20  2  0
 20 21  1  0
 20 22  1  0
 22 23  1  0
 22 24  2  0
 24 25  1  0
  2 26  1  0
 26 27  1  0
 26 28  1  0
 26 29  1  0
 29 30  2  0
 30 31  1  0
 30 32  1  0
 32 33  1  0
 32 34  2  0
 34 35  1  0
 35 36  1  0
 35 37  2  0
 37 38  1  0
 38 39  1  0
 39 40  1  0
 39 41  1  0
 39 42  1  0
 42 43  1  0
 42 44  1  0
 42 45  1  0
 45 46  1  0
 45 47  1  0
 45 48  1  0
 48 49  1  0
 48 50  1  0
 48 51  1  0
 51 52  2  0
 52 53  1  0
 52 54  1  0
 54 55  1  0
 54 56  2  0
 56 57  1  0
 56 58  1  0
 58 59  1  0
 58 60  2  0
 60 61  1  0
 37 62  1  0
 62 63  1  0
 62 64  2  0
 64 65  1  0
 64 66  1  0
 66 67  2  0
 67 68  1  0
 24 15  1  0
 67 29  1  0
 66 34  1  0
 60 51  1  0
M  CHG  2  21  -1  23  -1
M  END
>  <UniqueID>  (14) 
14

>  <SMILES>  (14) 
O=C(CCCc1ccc([O-])c([O-])c1)/N=C/Cc1ccc2cc(OCCCCc3ccccc3)ccc2c1

>  <Energy>  (14) 
61.1533657471051

>  <Genealogy>  (14) 
O=C(CCCc1ccc([O-])c([O-])c1)N=CCc1ccc2cc(OCCCCc3ccccc3)ccc2c1 (protonated)
O=C(CCCc1ccc([O-])c([O-])c1)/N=C/Cc1ccc2cc(OCCCCc3ccccc3)ccc2c1 (cis-trans isomerization)
O=C(CCCc1ccc([O-])c([O-])c1)/N=C/Cc1ccc2cc(OCCCCc3ccccc3)ccc2c1 (3D coordinates assigned)
O=C(CCCc1ccc([O-])c([O-])c1)/N=C/Cc1ccc2cc(OCCCCc3ccccc3)ccc2c1 (optimized conformer: 61.1533657471051 kcal/mol)

>  <smiles>  (14) 
O=C(CCCc1ccc(O)c(O)c1)N=CCc1ccc2cc(OCCCCc3ccccc3)ccc2c1

>  <score_type>  (14) 
oracle

>  <origin>  (14) 
adg

>  <m_score__min__energy>  (14) 
-15.390000000000001

>  <m_primary>  (14) 
energy

$$$$
14:0
     RDKit          3D

 42 46  0  0  0  0  0  0  0  0999 V2000
   -2.0110   24.8420  -28.1640 C   0  0  0  0  0  0  0  0  0  0  0  0
   -2.6710   25.2860  -29.3450 O   0  0  0  0  0  0  0  0  0  0  0  0
   -3.5900   24.5180  -30.0770 C   0  0  0  0  0  0  0  0  0  0  0  0
   -4.9420   24.8830  -30.2090 C   0  0  0  0  0  0  0  0  0  0  0  0
   -5.8130   24.0890  -30.9560 C   0  0  0  0  0  0  0  0  0  0  0  0
   -5.3510   22.9240  -31.5730 C   0  0  0  0  0  0  0  0  0  0  0  0
   -4.0070   22.5330  -31.4420 C   0  0  0  0  0  0  0  0  0  0  0  0
   -3.5270   21.2950  -32.1070 C   0  0  0  0  0  0  0  0  0  0  0  0
   -4.4260   20.3680  -32.6650 C   0  0  0  0  0  0  0  0  0  0  0  0
   -3.9390   19.1890  -33.2510 C   0  0  0  0  0  0  0  0  0  0  0  0
   -2.5390   19.0140  -33.3660 C   0  0  0  0  0  0  0  0  0  0  0  0
   -1.6790   19.9650  -32.8170 C   0  0  0  0  0  0  0  0  0  0  0  0
   -2.1870   21.0660  -32.2030 N   0  0  0  0  0  0  0  0  0  0  0  0
   -2.0380   17.9380  -34.0410 N   0  0  0  0  0  0  0  0  0  0  0  0
   -2.8570   17.0170  -34.6190 C   0  0  0  0  0  0  0  0  0  0  0  0
   -4.2330   17.1780  -34.4840 C   0  0  0  0  0  0  0  0  0  0  0  0
   -5.1640   16.3360  -34.9740 N   0  0  0  0  0  0  0  0  0  0  0  0
   -6.3280   16.8680  -34.5460 C   0  0  0  0  0  0  0  0  0  0  0  0
   -6.0800   18.0090  -33.8010 C   0  0  0  0  0  0  0  0  0  0  0  0
   -7.0970   18.6820  -32.9720 C   0  0  0  0  0  0  0  0  0  0  0  0
   -7.8010   17.9670  -31.9920 C   0  0  0  0  0  0  0  0  0  0  0  0
   -8.7740   18.6210  -31.2320 C   0  0  0  0  0  0  0  0  0  0  0  0
   -9.0480   19.9340  -31.4600 N   0  0  0  0  0  0  0  0  0  0  0  0
   -8.3970   20.6420  -32.4200 C   0  0  0  0  0  0  0  0  0  0  0  0
   -7.4150   20.0260  -33.2010 C   0  0  0  0  0  0  0  0  0  0  0  0
   -4.7420   18.2140  -33.7860 N   0  0  0  0  0  0  0  0  0  0  0  0
   -3.1320   23.3490  -30.6970 C   0  0  0  0  0  0  0  0  0  0  0  0
   -2.5548   25.2078  -27.2805 H   0  0  0  0  0  0  0  0  0  0  0  0
   -1.9855   23.7424  -28.1496 H   0  0  0  0  0  0  0  0  0  0  0  0
   -0.9829   25.2328  -28.1496 H   0  0  0  0  0  0  0  0  0  0  0  0
   -5.3136   25.7967  -29.7221 H   0  0  0  0  0  0  0  0  0  0  0  0
   -6.8683   24.3818  -31.0595 H   0  0  0  0  0  0  0  0  0  0  0  0
   -6.0437   22.3082  -32.1655 H   0  0  0  0  0  0  0  0  0  0  0  0
   -5.5077   20.5665  -32.6422 H   0  0  0  0  0  0  0  0  0  0  0  0
   -0.5900   19.8240  -32.8809 H   0  0  0  0  0  0  0  0  0  0  0  0
   -2.4415   16.1663  -35.1791 H   0  0  0  0  0  0  0  0  0  0  0  0
   -7.3259   16.4564  -34.7575 H   0  0  0  0  0  0  0  0  0  0  0  0
   -7.5890   16.9009  -31.8233 H   0  0  0  0  0  0  0  0  0  0  0  0
   -9.3190   18.0739  -30.4486 H   0  0  0  0  0  0  0  0  0  0  0  0
   -8.6433   21.7017  -32.5827 H   0  0  0  0  0  0  0  0  0  0  0  0
   -6.8966   20.5923  -33.9887 H   0  0  0  0  0  0  0  0  0  0  0  0
   -2.0740   23.0634  -30.6012 H   0  0  0  0  0  0  0  0  0  0  0  0
  1  2  1  0
  2  3  1  0
  3  4  2  0
  4  5  1  0
  5  6  2  0
  6  7  1  0
  7  8  1  0
  8  9  2  0
  9 10  1  0
 10 11  2  0
 11 12  1  0
 12 13  2  0
 11 14  1  0
 14 15  2  0
 15 16  1  0
 16 17  2  0
 17 18  1  0
 18 19  2  0
 19 20  1  0
 20 21  2  0
 21 22  1  0
 22 23  2  0
 23 24  1  0
 24 25  2  0
 19 26  1  0
  7 27  2  0
 27  3  1  0
 13  8  1  0
 26 16  1  0
 26 10  1  0
 25 20  1  0
  1 28  1  0
  1 29  1  0
  1 30  1  0
  4 31  1  0
  5 32  1  0
  6 33  1  0
  9 34  1  0
 12 35  1  0
 15 36  1  0
 18 37  1  0
 21 38  1  0
 22 39  1  0
 24 40  1  0
 25 41  1  0
 27 42  1  0
M  END
>  <UniqueID>  (15) 
15

>  <SMILES>  (15) 
COc1cccc(-c2cc3c(cn2)ncc2ncc(-c4ccncc4)n23)c1

>  <Energy>  (15) 
103.21831519451396

>  <Genealogy>  (15) 
COc1cccc(-c2cc3c(cn2)ncc2ncc(-c4ccncc4)n23)c1 (3D coordinates assigned)
COc1cccc(-c2cc3c(cn2)ncc2ncc(-c4ccncc4)n23)c1 (optimized conformer: 103.21831519451396 kcal/mol)

>  <smiles>  (15) 
COc1cccc(-c2cc3c(cn2)ncc2ncc(-c4ccncc4)n23)c1

>  <score_type>  (15) 
oracle

>  <origin>  (15) 
adg

>  <m_score__min__energy>  (15) 
-9.3200000000000003

>  <m_primary>  (15) 
energy

$$$$
15:0
     RDKit          3D

 51 51  0  0  0  0  0  0  0  0999 V2000
   -3.8830   21.1420  -30.8170 C   0  0  0  0  0  0  0  0  0  0  0  0
   -3.1940   21.5450  -32.1210 C   0  0  0  0  0  0  0  0  0  0  0  0
   -3.7770   20.8330  -33.3530 C   0  0  0  0  0  0  0  0  0  0  0  0
   -5.2860   20.5420  -33.2740 C   0  0  0  0  0  0  0  0  0  0  0  0
   -5.6410   19.1060  -33.7030 C   0  0  0  0  0  0  0  0  0  0  0  0
   -5.3830   18.0820  -32.5770 C   0  0  0  0  0  0  0  0  0  0  0  0
   -6.6590   17.6670  -31.8260 C   0  0  0  0  0  0  0  0  0  0  0  0
   -7.9430   18.1080  -32.5500 C   0  0  0  0  0  0  0  0  0  0  0  0
   -9.0030   18.6690  -31.5890 C   0  0  0  0  0  0  0  0  0  0  0  0
   -9.4730   20.0770  -31.9930 C   0  0  0  0  0  0  0  0  0  0  0  0
   -8.3070   21.0180  -32.3470 C   0  0  0  0  0  0  0  0  0  0  0  0
   -8.4700   22.4590  -31.8310 C   0  0  0  0  0  0  0  0  0  0  0  0
   -7.1610   23.0640  -31.4190 C   0  0  0  0  0  0  0  0  0  0  0  0
   -6.7520   23.3630  -30.1370 C   0  0  0  0  0  0  0  0  0  0  0  0
   -5.5560   23.9720  -30.2580 N   0  0  0  0  0  0  0  0  0  0  0  0
   -4.7590   24.5470  -29.1820 C   0  0  0  0  0  0  0  0  0  0  0  0
   -4.2470   23.4470  -28.2600 C   0  0  0  0  0  0  0  0  0  0  0  0
   -5.2540   24.0690  -31.5440 N   0  0  0  0  0  0  0  0  0  0  0  0
   -6.2170   23.5170  -32.2660 N   0  0  0  0  0  0  0  0  0  0  0  0
   -3.2847   21.4919  -29.9628 H   0  0  0  0  0  0  0  0  0  0  0  0
   -4.8835   21.5973  -30.7750 H   0  0  0  0  0  0  0  0  0  0  0  0
   -3.9765   20.0468  -30.7750 H   0  0  0  0  0  0  0  0  0  0  0  0
   -3.3080   22.6306  -32.2568 H   0  0  0  0  0  0  0  0  0  0  0  0
   -2.1373   21.2503  -32.0398 H   0  0  0  0  0  0  0  0  0  0  0  0
   -3.5962   21.4678  -34.2330 H   0  0  0  0  0  0  0  0  0  0  0  0
   -3.2752   19.8560  -33.4133 H   0  0  0  0  0  0  0  0  0  0  0  0
   -5.6186   20.6910  -32.2361 H   0  0  0  0  0  0  0  0  0  0  0  0
   -5.7922   21.2293  -33.9678 H   0  0  0  0  0  0  0  0  0  0  0  0
   -6.7057   19.0708  -33.9770 H   0  0  0  0  0  0  0  0  0  0  0  0
   -4.9998   18.8395  -34.5561 H   0  0  0  0  0  0  0  0  0  0  0  0
   -4.9310   17.1825  -33.0204 H   0  0  0  0  0  0  0  0  0  0  0  0
   -4.7175   18.5638  -31.8456 H   0  0  0  0  0  0  0  0  0  0  0  0
   -6.6690   16.5715  -31.7274 H   0  0  0  0  0  0  0  0  0  0  0  0
   -6.6435   18.1632  -30.8444 H   0  0  0  0  0  0  0  0  0  0  0  0
   -7.6842   18.8871  -33.2822 H   0  0  0  0  0  0  0  0  0  0  0  0
   -8.3722   17.2194  -33.0360 H   0  0  0  0  0  0  0  0  0  0  0  0
   -9.8712   17.9936  -31.5872 H   0  0  0  0  0  0  0  0  0  0  0  0
   -8.5467   18.7409  -30.5907 H   0  0  0  0  0  0  0  0  0  0  0  0
  -10.1320   19.9893  -32.8694 H   0  0  0  0  0  0  0  0  0  0  0  0
   -9.9975   20.5110  -31.1290 H   0  0  0  0  0  0  0  0  0  0  0  0
   -7.3855   20.6006  -31.9150 H   0  0  0  0  0  0  0  0  0  0  0  0
   -8.2778   21.0804  -33.4448 H   0  0  0  0  0  0  0  0  0  0  0  0
   -8.9087   23.0742  -32.6304 H   0  0  0  0  0  0  0  0  0  0  0  0
   -9.1221   22.4292  -30.9456 H   0  0  0  0  0  0  0  0  0  0  0  0
   -7.2928   23.1479  -29.2036 H   0  0  0  0  0  0  0  0  0  0  0  0
   -3.9033   25.0875  -29.6127 H   0  0  0  0  0  0  0  0  0  0  0  0
   -5.3866   25.2388  -28.6010 H   0  0  0  0  0  0  0  0  0  0  0  0
   -4.3886   23.7512  -27.2124 H   0  0  0  0  0  0  0  0  0  0  0  0
   -4.8057   22.5189  -28.4510 H   0  0  0  0  0  0  0  0  0  0  0  0
   -3.1772   23.2769  -28.4510 H   0  0  0  0  0  0  0  0  0  0  0  0
   -6.2300   23.4750  -33.3100 H   0  0  0  0  0  0  0  0  0  0  0  0
  1  2  1  0
  2  3  1  0
  3  4  1  0
  4  5  1  0
  5  6  1  0
  6  7  1  0
  7  8  1  0
  8  9  1  0
  9 10  1  0
 10 11  1  0
 11 12  1  0
 12 13  1  0
 13 14  2  0
 14 15  1  0
 15 16  1  0
 16 17  1  0
 15 18  1  0
 18 19  2  0
 19 13  1  0
  1 20  1  0
  1 21  1  0
  1 22  1  0
  2 23  1  0
  2 24  1  0
  3 25  1  0
  3 26  1  0
  4 27  1  0
  4 28  1  0
  5 29  1  0
  5 30  1  0
  6 31  1  0
  6 32  1  0
  7 33  1  0
  7 34  1  0
  8 35  1  0
  8 36  1  0
  9 37  1  0
  9 38  1  0
 10 39  1  0
 10 40  1  0
 11 41  1  0
 11 42  1  0
 12 43  1  0
 12 44  1  0
 14 45  1  0
 16 46  1  0
 16 47  1  0
 17 48  1  0
 17 49  1  0
 17 50  1  0
 19 51  1  0
M  CHG  1  19   1
M  END
>  <UniqueID>  (16) 
16

>  <SMILES>  (16) 
CCCCCCCCCCCCc1cn(CC)n[nH+]1

>  <Energy>  (16) 
62.21953612393705

>  <Genealogy>  (16) 
CCCCCCCCCCCCc1cn(CC)n[nH+]1 (protonated)
CCCCCCCCCCCCc1cn(CC)n[nH+]1 (3D coordinates assigned)
CCCCCCCCCCCCc1cn(CC)n[nH+]1 (optimized conformer: 62.21953612393705 kcal/mol)

>  <smiles>  (16) 
CCCCCCCCCCCCc1cn(CC)nn1

>  <score_type>  (16) 
oracle

>  <origin>  (16) 
adg

>  <m_score__min__energy>  (16) 
-6.2599999999999998

>  <m_primary>  (16) 
energy

$$$$
16:0
     RDKit          3D

 41 42  0  0  1  0  0  0  0  0999 V2000
   -6.0690   25.3720  -30.4380 C   0  0  0  0  0  0  0  0  0  0  0  0
   -5.6280   24.1380  -31.1160 C   0  0  0  0  0  0  0  0  0  0  0  0
   -4.3810   23.7770  -31.2180 O   0  0  0  0  0  0  0  0  0  0  0  0
   -4.2650   22.6750  -31.8570 C   0  0  0  0  0  0  0  0  0  0  0  0
   -3.1880   21.9500  -32.1800 N   0  0  0  0  0  0  0  0  0  0  0  0
   -3.3140   20.8000  -32.8670 C   0  0  0  0  0  0  0  0  0  0  0  0
   -4.5540   20.4210  -33.2120 N   0  0  0  0  0  0  0  0  0  0  0  0
   -5.6670   21.1330  -32.9030 C   0  0  0  0  0  0  0  0  0  0  0  0
   -6.7330   20.7910  -33.3560 N   0  0  0  0  0  0  0  0  0  0  0  0
   -7.8120   20.0660  -33.0090 C   0  0  0  0  0  0  0  0  0  0  0  0
   -7.8430   19.4800  -31.5920 C   0  0  0  0  0  0  0  0  0  0  0  0
   -7.2650   18.0870  -31.6710 C   0  0  0  0  0  0  0  0  0  0  0  0
   -7.1170   17.6060  -33.0810 C   0  0  0  0  0  0  0  0  0  0  0  0
   -5.7430   17.6960  -33.5150 N   0  0  0  0  0  0  0  0  0  0  0  0
   -5.6790   17.8180  -34.9720 C   0  0  0  0  0  0  0  0  0  0  0  0
   -4.9710   16.5060  -33.1940 C   0  0  0  0  0  0  0  0  0  0  0  0
   -5.5670   22.2860  -32.2050 C   0  0  0  0  0  0  0  0  0  0  0  0
   -6.4660   23.1700  -31.7520 C   0  0  0  0  0  0  0  0  0  0  0  0
   -7.9050   23.3750  -31.6150 C   0  0  0  0  0  0  0  0  0  0  0  0
   -6.0182   25.2299  -29.3484 H   0  0  0  0  0  0  0  0  0  0  0  0
   -5.4130   26.2053  -30.7301 H   0  0  0  0  0  0  0  0  0  0  0  0
   -7.1045   25.6008  -30.7301 H   0  0  0  0  0  0  0  0  0  0  0  0
   -2.4355   20.1947  -33.1351 H   0  0  0  0  0  0  0  0  0  0  0  0
   -4.6480   19.5420  -33.7350 H   0  0  0  0  0  0  0  0  0  0  0  0
   -8.6939   20.7145  -33.1172 H   0  0  0  0  0  0  0  0  0  0  0  0
   -7.7886   19.1907  -33.6748 H   0  0  0  0  0  0  0  0  0  0  0  0
   -7.2385   20.1008  -30.9143 H   0  0  0  0  0  0  0  0  0  0  0  0
   -8.8716   19.4540  -31.2031 H   0  0  0  0  0  0  0  0  0  0  0  0
   -6.2742   18.0887  -31.1932 H   0  0  0  0  0  0  0  0  0  0  0  0
   -7.9609   17.4072  -31.1576 H   0  0  0  0  0  0  0  0  0  0  0  0
   -7.4454   16.5578  -33.1402 H   0  0  0  0  0  0  0  0  0  0  0  0
   -7.7341   18.2397  -33.7349 H   0  0  0  0  0  0  0  0  0  0  0  0
   -5.1833   18.7629  -35.2394 H   0  0  0  0  0  0  0  0  0  0  0  0
   -5.1074   16.9742  -35.3859 H   0  0  0  0  0  0  0  0  0  0  0  0
   -6.6981   17.8086  -35.3859 H   0  0  0  0  0  0  0  0  0  0  0  0
   -4.9009   16.3980  -32.1016 H   0  0  0  0  0  0  0  0  0  0  0  0
   -5.4676   15.6212  -33.6188 H   0  0  0  0  0  0  0  0  0  0  0  0
   -3.9606   16.5988  -33.6188 H   0  0  0  0  0  0  0  0  0  0  0  0
   -8.1701   23.4128  -30.5481 H   0  0  0  0  0  0  0  0  0  0  0  0
   -8.1879   24.3225  -32.0968 H   0  0  0  0  0  0  0  0  0  0  0  0
   -8.4412   22.5442  -32.0968 H   0  0  0  0  0  0  0  0  0  0  0  0
  1  2  1  0
  2  3  1  0
  3  4  1  0
  4  5  1  0
  5  6  2  0
  6  7  1  0
  7  8  1  0
  8  9  2  0
  9 10  1  0
 10 11  1  0
 11 12  1  0
 12 13  1  0
 13 14  1  0
 14 15  1  0
 14 16  1  0
  8 17  1  0
 17 18  1  0
 18 19  1  0
 18  2  2  0
 17  4  2  0
  1 20  1  0
  1 21  1  0
  1 22  1  0
  6 23  1  0
  7 24  1  0
 10 25  1  0
 10 26  1  0
 11 27  1  0
 11 28  1  0
 12 29  1  0
 12 30  1  0
 13 31  1  0
 13 32  1  0
 15 33  1  0
 15 34  1  0
 15 35  1  0
 16 36  1  0
 16 37  1  0
 16 38  1  0
 19 39  1  0
 19 40  1  0
 19 41  1  0
M  END
>  <smiles>  (17) 
Cc1oc2nc[nH]c(=NCCCCN(C)C)c2c1C

>  <score_type>  (17) 
oracle

>  <origin>  (17) 
adg

>  <m_score__min__energy>  (17) 
-6.54

>  <m_primary>  (17) 
energy

$$$$
17:0
     RDKit          3D

 32 33  0  0  0  0  0  0  0  0999 V2000
   -6.3560   17.3420  -32.9390 C   0  0  0  0  0  0  0  0  0  0  0  0
   -6.0970   18.1720  -34.1920 C   0  0  0  0  0  0  0  0  0  0  0  0
   -5.5130   19.5430  -33.8370 C   0  0  0  0  0  0  0  0  0  0  0  0
   -6.5040   20.3470  -33.0520 C   0  0  0  0  0  0  0  0  0  0  0  0
   -7.8390   20.1210  -33.0390 N   0  0  0  0  0  0  0  0  0  0  0  0
   -8.4290   21.0590  -32.3070 N   0  0  0  0  0  0  0  0  0  0  0  0
   -9.8700   21.1700  -32.1070 C   0  0  0  0  0  0  0  0  0  0  0  0
   -7.4810   21.9060  -31.8640 C   0  0  0  0  0  0  0  0  0  0  0  0
   -7.6250   23.0620  -31.0970 C   0  0  0  0  0  0  0  0  0  0  0  0
   -6.4630   23.7930  -30.7910 C   0  0  0  0  0  0  0  0  0  0  0  0
   -5.1920   23.3720  -31.2560 C   0  0  0  0  0  0  0  0  0  0  0  0
   -4.0740   24.1490  -30.9200 O   0  0  0  0  0  0  0  0  0  0  0  0
   -3.1320   23.8020  -29.9090 C   0  0  0  0  0  0  0  0  0  0  0  0
   -5.0860   22.1950  -32.0380 C   0  0  0  0  0  0  0  0  0  0  0  0
   -6.2560   21.4900  -32.3150 C   0  0  0  0  0  0  0  0  0  0  0  0
   -6.1645   17.9558  -32.0465 H   0  0  0  0  0  0  0  0  0  0  0  0
   -7.4025   17.0033  -32.9334 H   0  0  0  0  0  0  0  0  0  0  0  0
   -5.6878   16.4682  -32.9334 H   0  0  0  0  0  0  0  0  0  0  0  0
   -5.3861   17.6353  -34.8374 H   0  0  0  0  0  0  0  0  0  0  0  0
   -7.0539   18.3250  -34.7126 H   0  0  0  0  0  0  0  0  0  0  0  0
   -4.6021   19.4041  -33.2361 H   0  0  0  0  0  0  0  0  0  0  0  0
   -5.2750   20.0804  -34.7668 H   0  0  0  0  0  0  0  0  0  0  0  0
   -8.3380   19.3500  -33.5380 H   0  0  0  0  0  0  0  0  0  0  0  0
  -10.0904   21.1870  -31.0294 H   0  0  0  0  0  0  0  0  0  0  0  0
  -10.2340   22.0988  -32.5704 H   0  0  0  0  0  0  0  0  0  0  0  0
  -10.3720   20.3079  -32.5704 H   0  0  0  0  0  0  0  0  0  0  0  0
   -8.6134   23.3907  -30.7435 H   0  0  0  0  0  0  0  0  0  0  0  0
   -6.5418   24.7053  -30.1815 H   0  0  0  0  0  0  0  0  0  0  0  0
   -3.5801   23.9671  -28.9181 H   0  0  0  0  0  0  0  0  0  0  0  0
   -2.8547   22.7427  -30.0142 H   0  0  0  0  0  0  0  0  0  0  0  0
   -2.2338   24.4283  -30.0142 H   0  0  0  0  0  0  0  0  0  0  0  0
   -4.1120   21.8490  -32.4142 H   0  0  0  0  0  0  0  0  0  0  0  0
  1  2  1  0
  2  3  1  0
  3  4  1  0
  4  5  2  0
  5  6  1  0
  6  7  1  0
  6  8  1  0
  8  9  2  0
  9 10  1  0
 10 11  2  0
 11 12  1  0
 12 13  1  0
 11 14  1  0
 14 15  2  0
 15  4  1  0
 15  8  1  0
  1 16  1  0
  1 17  1  0
  1 18  1  0
  2 19  1  0
  2 20  1  0
  3 21  1  0
  3 22  1  0
  5 23  1  0
  7 24  1  0
  7 25  1  0
  7 26  1  0
  9 27  1  0
 10 28  1  0
 13 29  1  0
 13 30  1  0
 13 31  1  0
 14 32  1  0
M  CHG  1   5   1
M  END
>  <UniqueID>  (18) 
17

>  <SMILES>  (18) 
CCCc1[nH+]n(C)c2ccc(OC)cc12

>  <Energy>  (18) 
63.31260786090044

>  <Genealogy>  (18) 
CCCc1[nH+]n(C)c2ccc(OC)cc12 (protonated)
CCCc1[nH+]n(C)c2ccc(OC)cc12 (3D coordinates assigned)
CCCc1[nH+]n(C)c2ccc(OC)cc12 (optimized conformer: 63.31260786090044 kcal/mol)

>  <smiles>  (18) 
CCCc1nn(C)c2ccc(OC)cc12

>  <score_type>  (18) 
oracle

>  <origin>  (18) 
adg

>  <m_score__min__energy>  (18) 
-6.1200000000000001

>  <m_primary>  (18) 
energy

$$$$
18:0
     RDKit          3D

 34 35  0  0  0  0  0  0  0  0999 V2000
   -6.1340   24.4270  -30.8330 C   0  0  0  0  0  0  0  0  0  0  0  0
   -5.2620   25.6730  -30.7930 C   0  0  0  0  0  0  0  0  0  0  0  0
   -3.8980   25.3000  -30.4480 N   0  0  0  0  0  0  0  0  0  0  0  0
   -3.5760   24.2790  -29.4980 C   0  0  0  0  0  0  0  0  0  0  0  0
   -4.1650   24.2370  -28.3860 O   0  0  0  0  0  0  0  0  0  0  0  0
   -2.6220   23.2160  -29.8540 C   0  0  0  0  0  0  0  0  0  0  0  0
   -3.1160   22.0810  -30.4200 N   0  0  0  0  0  0  0  0  0  0  0  0
   -2.3000   21.1050  -30.8940 C   0  0  0  0  0  0  0  0  0  0  0  0
   -0.9210   21.2710  -30.8160 C   0  0  0  0  0  0  0  0  0  0  0  0
   -0.4170   22.3840  -30.2270 N   0  0  0  0  0  0  0  0  0  0  0  0
   -1.2190   23.3610  -29.7250 C   0  0  0  0  0  0  0  0  0  0  0  0
   -0.5810   24.4580  -28.9680 C   0  0  0  0  0  0  0  0  0  0  0  0
   -1.0450   25.6250  -29.0640 O   0  0  0  0  0  0  0  0  0  0  0  0
    0.6220   24.2250  -28.2260 N   0  0  0  0  0  0  0  0  0  0  0  0
    0.6760   23.5090  -26.9580 C   0  0  0  0  0  0  0  0  0  0  0  0
    0.0610   22.1460  -27.0890 C   0  0  0  0  0  0  0  0  0  0  0  0
   -1.2110   21.8750  -26.5580 C   0  0  0  0  0  0  0  0  0  0  0  0
   -1.7480   20.5920  -26.6920 C   0  0  0  0  0  0  0  0  0  0  0  0
   -1.0150   19.5960  -27.3400 C   0  0  0  0  0  0  0  0  0  0  0  0
    0.2480   19.9030  -27.8530 C   0  0  0  0  0  0  0  0  0  0  0  0
    0.7530   21.1570  -27.7190 N   0  0  0  0  0  0  0  0  0  0  0  0
   -6.3598   24.1044  -29.8059 H   0  0  0  0  0  0  0  0  0  0  0  0
   -7.0722   24.6528  -31.3610 H   0  0  0  0  0  0  0  0  0  0  0  0
   -5.6005   23.6229  -31.3610 H   0  0  0  0  0  0  0  0  0  0  0  0
   -5.2708   26.1585  -31.7800 H   0  0  0  0  0  0  0  0  0  0  0  0
   -5.6535   26.3703  -30.0377 H   0  0  0  0  0  0  0  0  0  0  0  0
   -2.7252   20.1916  -31.3355 H   0  0  0  0  0  0  0  0  0  0  0  0
   -0.2457   20.5068  -31.2281 H   0  0  0  0  0  0  0  0  0  0  0  0
    1.7261   23.4026  -26.6484 H   0  0  0  0  0  0  0  0  0  0  0  0
    0.1112   24.0799  -26.2063 H   0  0  0  0  0  0  0  0  0  0  0  0
   -1.7780   22.6641  -26.0424 H   0  0  0  0  0  0  0  0  0  0  0  0
   -2.7461   20.3672  -26.2878 H   0  0  0  0  0  0  0  0  0  0  0  0
   -1.4269   18.5815  -27.4455 H   0  0  0  0  0  0  0  0  0  0  0  0
    0.8348   19.1273  -28.3667 H   0  0  0  0  0  0  0  0  0  0  0  0
  1  2  1  0
  2  3  1  0
  3  4  1  0
  4  5  2  0
  4  6  1  0
  6  7  2  0
  7  8  1  0
  8  9  2  0
  9 10  1  0
 10 11  2  0
 11 12  1  0
 12 13  2  0
 12 14  1  0
 14 15  1  0
 15 16  1  0
 16 17  2  0
 17 18  1  0
 18 19  2  0
 19 20  1  0
 20 21  2  0
 11  6  1  0
 21 16  1  0
  1 22  1  0
  1 23  1  0
  1 24  1  0
  2 25  1  0
  2 26  1  0
  8 27  1  0
  9 28  1  0
 15 29  1  0
 15 30  1  0
 17 31  1  0
 18 32  1  0
 19 33  1  0
 20 34  1  0
M  CHG  2   3  -1  14  -1
M  END
>  <UniqueID>  (19) 
18

>  <SMILES>  (19) 
CC[N-]C(=O)c1nccnc1C(=O)[N-]Cc1ccccn1

>  <Energy>  (19) 
36.2968155847668

>  <Genealogy>  (19) 
CC[N-]C(=O)c1nccnc1C(=O)[N-]Cc1ccccn1 (protonated)
CC[N-]C(=O)c1nccnc1C(=O)[N-]Cc1ccccn1 (3D coordinates assigned)
CC[N-]C(=O)c1nccnc1C(=O)[N-]Cc1ccccn1 (optimized conformer: 36.2968155847668 kcal/mol)

>  <smiles>  (19) 
CCNC(=O)c1nccnc1C(=O)NCc1ccccn1

>  <score_type>  (19) 
oracle

>  <origin>  (19) 
adg

>  <m_score__min__energy>  (19) 
-9.4399999999999995

>  <m_primary>  (19) 
energy

$$$$
19:0
     RDKit          3D

 39 41  0  0  0  0  0  0  0  0999 V2000
   -6.1320   17.0460  -31.0650 C   0  0  0  0  0  0  0  0  0  0  0  0
   -5.9530   17.5350  -32.4720 C   0  0  0  0  0  0  0  0  0  0  0  0
   -4.9810   17.0040  -33.3360 C   0  0  0  0  0  0  0  0  0  0  0  0
   -4.9280   17.6310  -34.5740 C   0  0  0  0  0  0  0  0  0  0  0  0
   -6.0880   18.8450  -34.5960 S   0  0  0  0  0  0  0  0  0  0  0  0
   -6.6830   18.5820  -33.0430 C   0  0  0  0  0  0  0  0  0  0  0  0
   -7.7830   19.3880  -32.3930 C   0  0  0  0  0  0  0  0  0  0  0  0
   -7.3040   20.6210  -31.7290 N   0  0  0  0  0  0  0  0  0  0  0  0
   -5.8330   20.6990  -31.5550 C   0  0  0  0  0  0  0  0  0  0  0  0
   -5.2000   21.8330  -32.3840 C   0  0  0  0  0  0  0  0  0  0  0  0
   -5.8180   23.1610  -32.1100 N   0  0  0  0  0  0  0  0  0  0  0  0
   -5.0500   23.9210  -31.1420 C   0  0  0  0  0  0  0  0  0  0  0  0
   -5.0020   25.1800  -31.2200 O   0  0  0  0  0  0  0  0  0  0  0  0
   -4.2410   23.2430  -30.1080 C   0  0  0  0  0  0  0  0  0  0  0  0
   -4.6330   23.0190  -28.7910 C   0  0  0  0  0  0  0  0  0  0  0  0
   -3.6570   22.3710  -28.0240 C   0  0  0  0  0  0  0  0  0  0  0  0
   -2.4920   22.0900  -28.7230 C   0  0  0  0  0  0  0  0  0  0  0  0
   -2.6790   22.6420  -30.2990 S   0  0  0  0  0  0  0  0  0  0  0  0
   -7.2330   23.0820  -31.6690 C   0  0  0  0  0  0  0  0  0  0  0  0
   -7.9290   21.8520  -32.2530 C   0  0  0  0  0  0  0  0  0  0  0  0
   -5.8414   17.8398  -30.3612 H   0  0  0  0  0  0  0  0  0  0  0  0
   -7.1863   16.7785  -30.9011 H   0  0  0  0  0  0  0  0  0  0  0  0
   -5.4995   16.1611  -30.9011 H   0  0  0  0  0  0  0  0  0  0  0  0
   -4.3223   16.1682  -33.0575 H   0  0  0  0  0  0  0  0  0  0  0  0
   -4.2446   17.3765  -35.3975 H   0  0  0  0  0  0  0  0  0  0  0  0
   -8.5105   19.6711  -33.1680 H   0  0  0  0  0  0  0  0  0  0  0  0
   -8.2275   18.7540  -31.6117 H   0  0  0  0  0  0  0  0  0  0  0  0
   -5.6124   20.8739  -30.4916 H   0  0  0  0  0  0  0  0  0  0  0  0
   -5.4041   19.7489  -31.9061 H   0  0  0  0  0  0  0  0  0  0  0  0
   -4.1279   21.8878  -32.1441 H   0  0  0  0  0  0  0  0  0  0  0  0
   -5.3685   21.6014  -33.4461 H   0  0  0  0  0  0  0  0  0  0  0  0
   -5.8000   23.6780  -33.0190 H   0  0  0  0  0  0  0  0  0  0  0  0
   -5.6127   23.3212  -28.3923 H   0  0  0  0  0  0  0  0  0  0  0  0
   -3.8007   22.1090  -26.9654 H   0  0  0  0  0  0  0  0  0  0  0  0
   -1.5998   21.5918  -28.3158 H   0  0  0  0  0  0  0  0  0  0  0  0
   -7.2634   23.0234  -30.5710 H   0  0  0  0  0  0  0  0  0  0  0  0
   -7.7585   23.9803  -32.0254 H   0  0  0  0  0  0  0  0  0  0  0  0
   -8.9926   21.8681  -31.9729 H   0  0  0  0  0  0  0  0  0  0  0  0
   -7.8312   21.8682  -33.3485 H   0  0  0  0  0  0  0  0  0  0  0  0
  1  2  1  0
  2  3  1  0
  3  4  2  0
  4  5  1  0
  5  6  1  0
  6  7  1  0
  7  8  1  0
  8  9  1  0
  9 10  1  0
 10 11  1  0
 11 12  1  0
 12 13  2  0
 12 14  1  0
 14 15  2  0
 15 16  1  0
 16 17  2  0
 17 18  1  0
 11 19  1  0
 19 20  1  0
  6  2  2  0
 20  8  1  0
 18 14  1  0
  1 21  1  0
  1 22  1  0
  1 23  1  0
  3 24  1  0
  4 25  1  0
  7 26  1  0
  7 27  1  0
  9 28  1  0
  9 29  1  0
 10 30  1  0
 10 31  1  0
 11 32  1  0
 15 33  1  0
 16 34  1  0
 17 35  1  0
 19 36  1  0
 19 37  1  0
 20 38  1  0
 20 39  1  0
M  CHG  1  11   1
M  END
>  <UniqueID>  (20) 
19

>  <SMILES>  (20) 
Cc1ccsc1CN1CC[NH+](C(=O)c2cccs2)CC1

>  <Energy>  (20) 
107.1313839181734

>  <Genealogy>  (20) 
Cc1ccsc1CN1CC[NH+](C(=O)c2cccs2)CC1 (protonated)
Cc1ccsc1CN1CC[NH+](C(=O)c2cccs2)CC1 (3D coordinates assigned)
Cc1ccsc1CN1CC[NH+](C(=O)c2cccs2)CC1 (nonaromatic ring conformer: 107.1313839181734 kcal/mol)

>  <smiles>  (20) 
Cc1ccsc1CN1CCN(C(=O)c2cccs2)CC1

>  <score_type>  (20) 
oracle

>  <origin>  (20) 
adg

>  <m_score__min__energy>  (20) 
-7.1900000000000004

>  <m_primary>  (20) 
energy

$$$$
20:0
     RDKit          3D

 43 46  0  0  0  0  0  0  0  0999 V2000
   -2.8350   23.5710  -29.2020 C   0  0  0  0  0  0  0  0  0  0  0  0
   -3.6060   23.7940  -30.4660 C   0  0  0  0  0  0  0  0  0  0  0  0
   -3.8550   24.9780  -30.8210 O   0  0  0  0  0  0  0  0  0  0  0  0
   -4.1090   22.7050  -31.2550 N   0  0  0  0  0  0  0  0  0  0  0  0
   -5.3880   22.3480  -31.2330 N   0  0  0  0  0  0  0  0  0  0  0  0
   -5.5470   21.2840  -32.0540 C   0  0  0  0  0  0  0  0  0  0  0  0
   -6.8090   20.6250  -32.2650 N   0  0  0  0  0  0  0  0  0  0  0  0
   -7.9820   21.1260  -31.5390 C   0  0  0  0  0  0  0  0  0  0  0  0
   -9.2710   20.4090  -31.9460 C   0  0  0  0  0  0  0  0  0  0  0  0
   -9.1100   18.5990  -31.7460 S   0  0  0  0  0  0  0  0  0  0  0  0
   -7.5730   18.3290  -32.7190 C   0  0  0  0  0  0  0  0  0  0  0  0
   -6.9570   19.6010  -33.3050 C   0  0  0  0  0  0  0  0  0  0  0  0
   -4.3220   20.9540  -32.6070 C   0  0  0  0  0  0  0  0  0  0  0  0
   -3.9110   19.9380  -33.4660 C   0  0  0  0  0  0  0  0  0  0  0  0
   -2.5580   19.9070  -33.8460 C   0  0  0  0  0  0  0  0  0  0  0  0
   -1.6440   20.8830  -33.3690 C   0  0  0  0  0  0  0  0  0  0  0  0
   -0.2220   20.8510  -33.7950 C   0  0  0  0  0  0  0  0  0  0  0  0
    0.2110   21.6110  -34.8980 C   0  0  0  0  0  0  0  0  0  0  0  0
    1.5510   21.5800  -35.2960 C   0  0  0  0  0  0  0  0  0  0  0  0
    2.4720   20.7920  -34.6020 C   0  0  0  0  0  0  0  0  0  0  0  0
    3.7700   20.7630  -34.9910 F   0  0  0  0  0  0  0  0  0  0  0  0
    2.0530   20.0330  -33.5070 C   0  0  0  0  0  0  0  0  0  0  0  0
    0.7150   20.0610  -33.1030 C   0  0  0  0  0  0  0  0  0  0  0  0
   -2.1000   21.8860  -32.4790 C   0  0  0  0  0  0  0  0  0  0  0  0
   -3.4440   21.8730  -32.0930 C   0  0  0  0  0  0  0  0  0  0  0  0
   -3.4872   23.7596  -28.3365 H   0  0  0  0  0  0  0  0  0  0  0  0
   -2.4752   22.5320  -29.1704 H   0  0  0  0  0  0  0  0  0  0  0  0
   -1.9761   24.2575  -29.1704 H   0  0  0  0  0  0  0  0  0  0  0  0
   -7.8203   20.9771  -30.4612 H   0  0  0  0  0  0  0  0  0  0  0  0
   -8.0990   22.1915  -31.7860 H   0  0  0  0  0  0  0  0  0  0  0  0
  -10.0966   20.7681  -31.3139 H   0  0  0  0  0  0  0  0  0  0  0  0
   -9.4717   20.6265  -33.0054 H   0  0  0  0  0  0  0  0  0  0  0  0
   -6.8280   17.8595  -32.0599 H   0  0  0  0  0  0  0  0  0  0  0  0
   -7.8531   17.6964  -33.5742 H   0  0  0  0  0  0  0  0  0  0  0  0
   -5.9678   19.3646  -33.7240 H   0  0  0  0  0  0  0  0  0  0  0  0
   -7.6197   19.9872  -34.0935 H   0  0  0  0  0  0  0  0  0  0  0  0
   -4.6220   19.1842  -33.8352 H   0  0  0  0  0  0  0  0  0  0  0  0
   -2.2025   19.1156  -34.5223 H   0  0  0  0  0  0  0  0  0  0  0  0
   -0.5091   22.2329  -35.4500 H   0  0  0  0  0  0  0  0  0  0  0  0
    1.8809   22.1780  -36.1583 H   0  0  0  0  0  0  0  0  0  0  0  0
    2.7779   19.4114  -32.9609 H   0  0  0  0  0  0  0  0  0  0  0  0
    0.3924   19.4618  -32.2388 H   0  0  0  0  0  0  0  0  0  0  0  0
   -1.4130   22.6571  -32.1003 H   0  0  0  0  0  0  0  0  0  0  0  0
  1  2  1  0
  2  3  2  0
  2  4  1  0
  4  5  1  0
  5  6  2  0
  6  7  1  0
  7  8  1  0
  8  9  1  0
  9 10  1  0
 10 11  1  0
 11 12  1  0
  6 13  1  0
 13 14  2  0
 14 15  1  0
 15 16  2  0
 16 17  1  0
 17 18  2  0
 18 19  1  0
 19 20  2  0
 20 21  1  0
 20 22  1  0
 22 23  2  0
 16 24  1  0
 24 25  2  0
 25  4  1  0
 12  7  1  0
 25 13  1  0
 23 17  1  0
  1 26  1  0
  1 27  1  0
  1 28  1  0
  8 29  1  0
  8 30  1  0
  9 31  1  0
  9 32  1  0
 11 33  1  0
 11 34  1  0
 12 35  1  0
 12 36  1  0
 14 37  1  0
 15 38  1  0
 18 39  1  0
 19 40  1  0
 22 41  1  0
 23 42  1  0
 24 43  1  0
M  END
>  <UniqueID>  (21) 
20

>  <SMILES>  (21) 
CC(=O)n1nc(N2CCSCC2)c2ccc(-c3ccc(F)cc3)cc21

>  <Energy>  (21) 
97.88325072014398

>  <Genealogy>  (21) 
CC(=O)n1nc(N2CCSCC2)c2ccc(-c3ccc(F)cc3)cc21 (3D coordinates assigned)
CC(=O)n1nc(N2CCSCC2)c2ccc(-c3ccc(F)cc3)cc21 (nonaromatic ring conformer: 97.88325072014398 kcal/mol)

>  <smiles>  (21) 
CC(=O)n1nc(N2CCSCC2)c2ccc(-c3ccc(F)cc3)cc21

>  <score_type>  (21) 
oracle

>  <origin>  (21) 
adg

>  <m_score__min__energy>  (21) 
-8.3200000000000003

>  <m_primary>  (21) 
energy

$$$$
21:0
     RDKit          3D

 38 40  0  0  0  0  0  0  0  0999 V2000
   -0.4720   19.6740  -31.5330 C   0  0  0  0  0  0  0  0  0  0  0  0
   -1.8900   19.6360  -31.6660 O   0  0  0  0  0  0  0  0  0  0  0  0
   -2.7080   20.7730  -31.7360 C   0  0  0  0  0  0  0  0  0  0  0  0
   -3.7930   20.8750  -32.6260 C   0  0  0  0  0  0  0  0  0  0  0  0
   -4.5570   22.0000  -32.6520 N   0  0  0  0  0  0  0  0  0  0  0  0
   -4.3100   23.0500  -31.8230 C   0  0  0  0  0  0  0  0  0  0  0  0
   -3.2360   22.9970  -30.9270 C   0  0  0  0  0  0  0  0  0  0  0  0
   -2.4350   21.8480  -30.8870 C   0  0  0  0  0  0  0  0  0  0  0  0
   -2.9720   24.1730  -30.0900 C   0  0  0  0  0  0  0  0  0  0  0  0
   -1.9650   24.2240  -29.3340 O   0  0  0  0  0  0  0  0  0  0  0  0
   -3.8640   25.2850  -30.1570 N   0  0  0  0  0  0  0  0  0  0  0  0
   -5.1390   25.2130  -30.8740 C   0  0  2  0  0  0  0  0  0  0  0  0
   -6.3030   25.0070  -29.8920 C   0  0  0  0  0  0  0  0  0  0  0  0
   -6.8070   23.5570  -29.8330 C   0  0  0  0  0  0  0  0  0  0  0  0
   -7.5610   23.2420  -31.0040 O   0  0  0  0  0  0  0  0  0  0  0  0
   -7.9100   21.9470  -31.4240 C   0  0  0  0  0  0  0  0  0  0  0  0
   -9.1790   21.6320  -31.9550 C   0  0  0  0  0  0  0  0  0  0  0  0
   -9.4670   20.3230  -32.3540 C   0  0  0  0  0  0  0  0  0  0  0  0
   -8.5030   19.3220  -32.2290 C   0  0  0  0  0  0  0  0  0  0  0  0
   -7.2450   19.6260  -31.7010 C   0  0  0  0  0  0  0  0  0  0  0  0
   -6.9520   20.9330  -31.3010 C   0  0  0  0  0  0  0  0  0  0  0  0
   -5.1290   24.1880  -31.8780 O   0  0  0  0  0  0  0  0  0  0  0  0
   -0.2038   19.6812  -30.4662 H   0  0  0  0  0  0  0  0  0  0  0  0
   -0.0346   18.7873  -32.0151 H   0  0  0  0  0  0  0  0  0  0  0  0
   -0.0827   20.5829  -32.0151 H   0  0  0  0  0  0  0  0  0  0  0  0
   -4.0246   20.0406  -33.3043 H   0  0  0  0  0  0  0  0  0  0  0  0
   -5.3580   22.0540  -33.3210 H   0  0  0  0  0  0  0  0  0  0  0  0
   -1.5895   21.7925  -30.1856 H   0  0  0  0  0  0  0  0  0  0  0  0
   -5.2834   26.1739  -31.3896 H   0  0  0  0  0  0  0  0  0  0  0  0
   -5.9659   25.2994  -28.8866 H   0  0  0  0  0  0  0  0  0  0  0  0
   -7.1398   25.6257  -30.2485 H   0  0  0  0  0  0  0  0  0  0  0  0
   -5.9454   22.8767  -29.7633 H   0  0  0  0  0  0  0  0  0  0  0  0
   -7.4540   23.4407  -28.9511 H   0  0  0  0  0  0  0  0  0  0  0  0
   -9.9427   22.4173  -32.0552 H   0  0  0  0  0  0  0  0  0  0  0  0
  -10.4572   20.0816  -32.7679 H   0  0  0  0  0  0  0  0  0  0  0  0
   -8.7329   18.2940  -32.5459 H   0  0  0  0  0  0  0  0  0  0  0  0
   -6.4855   18.8367  -31.6002 H   0  0  0  0  0  0  0  0  0  0  0  0
   -5.9605   21.1670  -30.8861 H   0  0  0  0  0  0  0  0  0  0  0  0
  1  2  1  0
  2  3  1  0
  3  4  2  0
  4  5  1  0
  5  6  2  0
  6  7  1  0
  7  8  2  0
  7  9  1  0
  9 10  2  0
  9 11  1  0
 11 12  1  0
 12 13  1  0
 13 14  1  0
 14 15  1  0
 15 16  1  0
 16 17  2  0
 17 18  1  0
 18 19  2  0
 19 20  1  0
 20 21  2  0
 12 22  1  0
  8  3  1  0
 21 16  1  0
 22  6  1  0
  1 23  1  0
  1 24  1  0
  1 25  1  0
  4 26  1  0
  5 27  1  0
  8 28  1  0
 12 29  1  6
 13 30  1  0
 13 31  1  0
 14 32  1  0
 14 33  1  0
 17 34  1  0
 18 35  1  0
 19 36  1  0
 20 37  1  0
 21 38  1  0
M  CHG  2   5   1  11  -1
M  END
>  <UniqueID>  (22) 
21

>  <SMILES>  (22) 
COc1c[nH+]c2c(c1)C(=O)[N-][C@H](CCOc1ccccc1)O2

>  <Energy>  (22) 
39.767652941733665

>  <Genealogy>  (22) 
COc1c[nH+]c2c(c1)C(=O)[N-]C(CCOc1ccccc1)O2 (protonated)
COc1c[nH+]c2c(c1)C(=O)[N-][C@H](CCOc1ccccc1)O2 (chirality)
COc1c[nH+]c2c(c1)C(=O)[N-][C@H](CCOc1ccccc1)O2 (3D coordinates assigned)
COc1c[nH+]c2c(c1)C(=O)[N-][C@H](CCOc1ccccc1)O2 (nonaromatic ring conformer: 39.767652941733665 kcal/mol)

>  <smiles>  (22) 
COc1cnc2c(c1)C(=O)NC(CCOc1ccccc1)O2

>  <score_type>  (22) 
oracle

>  <origin>  (22) 
adg

>  <m_score__min__energy>  (22) 
-7.9500000000000002

>  <m_primary>  (22) 
energy

$$$$
22:0
     RDKit          3D

 43 45  0  0  0  0  0  0  0  0999 V2000
   -2.8810   16.3470  -35.3450 C   0  0  0  0  0  0  0  0  0  0  0  0
   -4.0560   16.0140  -34.5300 N   0  0  0  0  0  0  0  0  0  0  0  0
   -4.3560   14.6020  -34.2600 C   0  0  0  0  0  0  0  0  0  0  0  0
   -4.9120   17.0610  -34.0050 C   0  0  0  0  0  0  0  0  0  0  0  0
   -5.3620   17.0270  -32.6690 C   0  0  0  0  0  0  0  0  0  0  0  0
   -6.1740   18.0440  -32.1600 C   0  0  0  0  0  0  0  0  0  0  0  0
   -6.5370   19.1290  -32.9690 C   0  0  0  0  0  0  0  0  0  0  0  0
   -7.4070   20.1980  -32.4360 C   0  0  0  0  0  0  0  0  0  0  0  0
   -8.7720   19.8930  -32.2980 C   0  0  0  0  0  0  0  0  0  0  0  0
   -9.6920   20.8790  -31.9460 C   0  0  0  0  0  0  0  0  0  0  0  0
   -9.2690   22.1870  -31.7400 C   0  0  0  0  0  0  0  0  0  0  0  0
   -7.9160   22.5160  -31.8490 C   0  0  0  0  0  0  0  0  0  0  0  0
   -7.5340   23.8020  -31.6470 N   0  0  0  0  0  0  0  0  0  0  0  0
   -6.2340   24.1690  -31.7200 C   0  0  0  0  0  0  0  0  0  0  0  0
   -5.2760   23.2410  -31.9660 N   0  0  0  0  0  0  0  0  0  0  0  0
   -5.5870   21.9290  -32.1680 C   0  0  0  0  0  0  0  0  0  0  0  0
   -4.5120   20.9820  -32.2750 N   0  0  0  0  0  0  0  0  0  0  0  0
   -3.6400   21.0340  -33.4470 C   0  0  0  0  0  0  0  0  0  0  0  0
   -3.9720   20.4070  -31.0440 C   0  0  0  0  0  0  0  0  0  0  0  0
   -6.9520   21.5220  -32.1620 C   0  0  0  0  0  0  0  0  0  0  0  0
   -6.1260   19.1580  -34.3070 C   0  0  0  0  0  0  0  0  0  0  0  0
   -5.3140   18.1410  -34.8180 C   0  0  0  0  0  0  0  0  0  0  0  0
   -2.0337   16.5871  -34.6859 H   0  0  0  0  0  0  0  0  0  0  0  0
   -2.6196   15.4876  -35.9799 H   0  0  0  0  0  0  0  0  0  0  0  0
   -3.1094   17.2158  -35.9799 H   0  0  0  0  0  0  0  0  0  0  0  0
   -4.3913   14.4360  -33.1732 H   0  0  0  0  0  0  0  0  0  0  0  0
   -5.3293   14.3429  -34.7023 H   0  0  0  0  0  0  0  0  0  0  0  0
   -3.5722   13.9695  -34.7023 H   0  0  0  0  0  0  0  0  0  0  0  0
   -5.0700   16.1890  -32.0190 H   0  0  0  0  0  0  0  0  0  0  0  0
   -6.5296   17.9926  -31.1203 H   0  0  0  0  0  0  0  0  0  0  0  0
   -9.1185   18.8633  -32.4699 H   0  0  0  0  0  0  0  0  0  0  0  0
  -10.7552   20.6215  -31.8309 H   0  0  0  0  0  0  0  0  0  0  0  0
  -10.0034   22.9668  -31.4899 H   0  0  0  0  0  0  0  0  0  0  0  0
   -5.9531   25.2232  -31.5794 H   0  0  0  0  0  0  0  0  0  0  0  0
   -4.2770   23.5440  -31.9650 H   0  0  0  0  0  0  0  0  0  0  0  0
   -2.5912   21.0965  -33.1212 H   0  0  0  0  0  0  0  0  0  0  0  0
   -3.7828   20.1257  -34.0509 H   0  0  0  0  0  0  0  0  0  0  0  0
   -3.8898   21.9188  -34.0509 H   0  0  0  0  0  0  0  0  0  0  0  0
   -4.4343   20.8993  -30.1757 H   0  0  0  0  0  0  0  0  0  0  0  0
   -4.1924   19.3297  -31.0150 H   0  0  0  0  0  0  0  0  0  0  0  0
   -2.8830   20.5594  -31.0150 H   0  0  0  0  0  0  0  0  0  0  0  0
   -6.4434   19.9849  -34.9593 H   0  0  0  0  0  0  0  0  0  0  0  0
   -4.9848   18.1837  -35.8667 H   0  0  0  0  0  0  0  0  0  0  0  0
  1  2  1  0
  2  3  1  0
  2  4  1  0
  4  5  2  0
  5  6  1  0
  6  7  2  0
  7  8  1  0
  8  9  2  0
  9 10  1  0
 10 11  2  0
 11 12  1  0
 12 13  2  0
 13 14  1  0
 14 15  2  0
 15 16  1  0
 16 17  1  0
 17 18  1  0
 17 19  1  0
 16 20  2  0
  7 21  1  0
 21 22  2  0
 22  4  1  0
 20  8  1  0
 20 12  1  0
  1 23  1  0
  1 24  1  0
  1 25  1  0
  3 26  1  0
  3 27  1  0
  3 28  1  0
  5 29  1  0
  6 30  1  0
  9 31  1  0
 10 32  1  0
 11 33  1  0
 14 34  1  0
 15 35  1  0
 18 36  1  0
 18 37  1  0
 18 38  1  0
 19 39  1  0
 19 40  1  0
 19 41  1  0
 21 42  1  0
 22 43  1  0
M  CHG  1  15   1
M  END
>  <UniqueID>  (23) 
22

>  <SMILES>  (23) 
CN(C)c1ccc(-c2cccc3nc[nH+]c(N(C)C)c23)cc1

>  <Energy>  (23) 
63.92220290760284

>  <Genealogy>  (23) 
CN(C)c1ccc(-c2cccc3nc[nH+]c(N(C)C)c23)cc1 (protonated)
CN(C)c1ccc(-c2cccc3nc[nH+]c(N(C)C)c23)cc1 (3D coordinates assigned)
CN(C)c1ccc(-c2cccc3nc[nH+]c(N(C)C)c23)cc1 (optimized conformer: 63.92220290760284 kcal/mol)

>  <smiles>  (23) 
CN(C)c1ccc(-c2cccc3ncnc(N(C)C)c23)cc1

>  <score_type>  (23) 
oracle

>  <origin>  (23) 
adg

>  <m_score__min__energy>  (23) 
-6.5899999999999999

>  <m_primary>  (23) 
energy

$$$$
23:0
     RDKit          3D

 26 27  0  0  0  0  0  0  0  0999 V2000
   -5.8160   26.4500  -30.1040 O   0  0  0  0  0  0  0  0  0  0  0  0
   -5.2830   25.3730  -30.4840 C   0  0  0  0  0  0  0  0  0  0  0  0
   -3.8610   25.2980  -30.6220 N   0  0  0  0  0  0  0  0  0  0  0  0
   -2.8260   24.5630  -29.3930 S   0  0  0  0  0  0  0  0  0  0  0  0
   -3.0190   22.9240  -30.1010 C   0  0  0  0  0  0  0  0  0  0  0  0
   -3.2310   22.8020  -31.4800 C   0  0  0  0  0  0  0  0  0  0  0  0
   -3.3940   21.5430  -32.0620 C   0  0  0  0  0  0  0  0  0  0  0  0
   -3.3400   20.3950  -31.2670 C   0  0  0  0  0  0  0  0  0  0  0  0
   -3.1200   20.5050  -29.8920 C   0  0  0  0  0  0  0  0  0  0  0  0
   -2.9560   21.7650  -29.3020 C   0  0  0  0  0  0  0  0  0  0  0  0
   -2.6490   21.8530  -27.5730 Cl  0  0  0  0  0  0  0  0  0  0  0  0
   -6.1260   24.1950  -30.7920 C   0  0  0  0  0  0  0  0  0  0  0  0
   -6.3320   23.7930  -32.1250 C   0  0  0  0  0  0  0  0  0  0  0  0
   -7.1320   22.6830  -32.4140 C   0  0  0  0  0  0  0  0  0  0  0  0
   -7.7340   21.9620  -31.3800 C   0  0  0  0  0  0  0  0  0  0  0  0
   -8.7370   20.5700  -31.7470 Cl  0  0  0  0  0  0  0  0  0  0  0  0
   -7.5380   22.3530  -30.0520 C   0  0  0  0  0  0  0  0  0  0  0  0
   -6.7390   23.4620  -29.7570 C   0  0  0  0  0  0  0  0  0  0  0  0
   -3.2694   23.7037  -32.1088 H   0  0  0  0  0  0  0  0  0  0  0  0
   -3.5647   21.4551  -33.1451 H   0  0  0  0  0  0  0  0  0  0  0  0
   -3.4709   19.4033  -31.7247 H   0  0  0  0  0  0  0  0  0  0  0  0
   -3.0754   19.5988  -29.2701 H   0  0  0  0  0  0  0  0  0  0  0  0
   -5.8608   24.3554  -32.9446 H   0  0  0  0  0  0  0  0  0  0  0  0
   -7.2877   22.3766  -33.4589 H   0  0  0  0  0  0  0  0  0  0  0  0
   -8.0134   21.7869  -29.2374 H   0  0  0  0  0  0  0  0  0  0  0  0
   -6.5882   23.7639  -28.7101 H   0  0  0  0  0  0  0  0  0  0  0  0
  1  2  2  0
  2  3  1  0
  3  4  1  0
  4  5  1  0
  5  6  2  0
  6  7  1  0
  7  8  2  0
  8  9  1  0
  9 10  2  0
 10 11  1  0
  2 12  1  0
 12 13  2  0
 13 14  1  0
 14 15  2  0
 15 16  1  0
 15 17  1  0
 17 18  2  0
 10  5  1  0
 18 12  1  0
  6 19  1  0
  7 20  1  0
  8 21  1  0
  9 22  1  0
 13 23  1  0
 14 24  1  0
 17 25  1  0
 18 26  1  0
M  CHG  1   3  -1
M  END
>  <UniqueID>  (24) 
23

>  <SMILES>  (24) 
O=C([N-]Sc1ccccc1Cl)c1ccc(Cl)cc1

>  <Energy>  (24) 
24.694284918879514

>  <Genealogy>  (24) 
O=C([N-]Sc1ccccc1Cl)c1ccc(Cl)cc1 (protonated)
O=C([N-]Sc1ccccc1Cl)c1ccc(Cl)cc1 (3D coordinates assigned)
O=C([N-]Sc1ccccc1Cl)c1ccc(Cl)cc1 (optimized conformer: 24.694284918879514 kcal/mol)

>  <smiles>  (24) 
O=C(NSc1ccccc1Cl)c1ccc(Cl)cc1

>  <score_type>  (24) 
oracle

>  <origin>  (24) 
adg

>  <m_score__min__energy>  (24) 
-8.8499999999999996

>  <m_primary>  (24) 
energy

$$$$
24:0
     RDKit          3D

 50 52  0  0  0  0  0  0  0  0999 V2000
   -9.1060   18.6700  -31.2890 C   0  0  0  0  0  0  0  0  0  0  0  0
   -7.8800   19.0350  -32.0640 C   0  0  0  0  0  0  0  0  0  0  0  0
   -7.2850   18.1120  -32.9220 C   0  0  0  0  0  0  0  0  0  0  0  0
   -6.1410   18.4930  -33.6400 C   0  0  0  0  0  0  0  0  0  0  0  0
   -5.4530   17.5200  -34.5810 C   0  0  0  0  0  0  0  0  0  0  0  0
   -3.9380   17.7500  -34.6020 C   0  0  0  0  0  0  0  0  0  0  0  0
   -5.7880   16.0690  -34.2170 C   0  0  0  0  0  0  0  0  0  0  0  0
   -5.6470   19.7560  -33.4840 N   0  0  0  0  0  0  0  0  0  0  0  0
   -6.2450   20.6550  -32.6450 C   0  0  0  0  0  0  0  0  0  0  0  0
   -5.7300   21.9970  -32.5020 N   0  0  0  0  0  0  0  0  0  0  0  0
   -6.6040   23.0980  -32.0750 C   0  0  0  0  0  0  0  0  0  0  0  0
   -5.7780   24.2930  -31.5740 C   0  0  0  0  0  0  0  0  0  0  0  0
   -4.6130   23.8480  -30.7790 N   0  0  0  0  0  0  0  0  0  0  0  0
   -5.0230   23.2070  -29.5100 C   0  0  0  0  0  0  0  0  0  0  0  0
   -3.8370   23.0580  -28.5940 C   0  0  0  0  0  0  0  0  0  0  0  0
   -3.2540   24.1950  -28.0110 C   0  0  0  0  0  0  0  0  0  0  0  0
   -2.1460   24.0650  -27.1670 C   0  0  0  0  0  0  0  0  0  0  0  0
   -1.6150   22.8000  -26.9000 C   0  0  0  0  0  0  0  0  0  0  0  0
   -2.1890   21.6640  -27.4770 C   0  0  0  0  0  0  0  0  0  0  0  0
   -3.2950   21.7900  -28.3210 C   0  0  0  0  0  0  0  0  0  0  0  0
   -3.6720   23.0040  -31.5630 C   0  0  0  0  0  0  0  0  0  0  0  0
   -4.3190   22.2980  -32.7720 C   0  0  0  0  0  0  0  0  0  0  0  0
   -7.3540   20.2800  -31.9490 N   0  0  0  0  0  0  0  0  0  0  0  0
   -8.8915   18.7339  -30.2120 H   0  0  0  0  0  0  0  0  0  0  0  0
   -9.9204   19.3647  -31.5425 H   0  0  0  0  0  0  0  0  0  0  0  0
   -9.4078   17.6430  -31.5425 H   0  0  0  0  0  0  0  0  0  0  0  0
   -7.7051   17.1016  -33.0346 H   0  0  0  0  0  0  0  0  0  0  0  0
   -5.8343   17.7072  -35.5957 H   0  0  0  0  0  0  0  0  0  0  0  0
   -3.5615   17.8072  -33.5700 H   0  0  0  0  0  0  0  0  0  0  0  0
   -3.4477   16.9160  -35.1255 H   0  0  0  0  0  0  0  0  0  0  0  0
   -3.7174   18.6919  -35.1255 H   0  0  0  0  0  0  0  0  0  0  0  0
   -5.8127   15.9619  -33.1225 H   0  0  0  0  0  0  0  0  0  0  0  0
   -6.7709   15.8040  -34.6337 H   0  0  0  0  0  0  0  0  0  0  0  0
   -5.0207   15.3999  -34.6337 H   0  0  0  0  0  0  0  0  0  0  0  0
   -4.7870   20.0300  -34.0080 H   0  0  0  0  0  0  0  0  0  0  0  0
   -7.2210   23.4190  -32.9272 H   0  0  0  0  0  0  0  0  0  0  0  0
   -7.2405   22.7416  -31.2517 H   0  0  0  0  0  0  0  0  0  0  0  0
   -5.4211   24.8697  -32.4401 H   0  0  0  0  0  0  0  0  0  0  0  0
   -6.4201   24.9124  -30.9306 H   0  0  0  0  0  0  0  0  0  0  0  0
   -5.7854   23.8293  -29.0186 H   0  0  0  0  0  0  0  0  0  0  0  0
   -5.4344   22.2105  -29.7285 H   0  0  0  0  0  0  0  0  0  0  0  0
   -3.6703   25.1917  -28.2189 H   0  0  0  0  0  0  0  0  0  0  0  0
   -1.6925   24.9586  -26.7133 H   0  0  0  0  0  0  0  0  0  0  0  0
   -0.7446   22.6985  -26.2351 H   0  0  0  0  0  0  0  0  0  0  0  0
   -1.7694   20.6693  -27.2663 H   0  0  0  0  0  0  0  0  0  0  0  0
   -3.7436   20.8935  -28.7738 H   0  0  0  0  0  0  0  0  0  0  0  0
   -2.8580   23.6452  -31.9321 H   0  0  0  0  0  0  0  0  0  0  0  0
   -3.3156   22.2131  -30.8866 H   0  0  0  0  0  0  0  0  0  0  0  0
   -4.2517   22.9544  -33.6521 H   0  0  0  0  0  0  0  0  0  0  0  0
   -3.7851   21.3545  -32.9583 H   0  0  0  0  0  0  0  0  0  0  0  0
  1  2  1  0
  2  3  2  0
  3  4  1  0
  4  5  1  0
  5  6  1  0
  5  7  1  0
  4  8  2  0
  8  9  1  0
  9 10  1  0
 10 11  1  0
 11 12  1  0
 12 13  1  0
 13 14  1  0
 14 15  1  0
 15 16  2  0
 16 17  1  0
 17 18  2  0
 18 19  1  0
 19 20  2  0
 13 21  1  0
 21 22  1  0
  9 23  2  0
 23  2  1  0
 22 10  1  0
 20 15  1  0
  1 24  1  0
  1 25  1  0
  1 26  1  0
  3 27  1  0
  5 28  1  0
  6 29  1  0
  6 30  1  0
  6 31  1  0
  7 32  1  0
  7 33  1  0
  7 34  1  0
  8 35  1  0
 11 36  1  0
 11 37  1  0
 12 38  1  0
 12 39  1  0
 14 40  1  0
 14 41  1  0
 16 42  1  0
 17 43  1  0
 18 44  1  0
 19 45  1  0
 20 46  1  0
 21 47  1  0
 21 48  1  0
 22 49  1  0
 22 50  1  0
M  CHG  1   8   1
M  END
>  <UniqueID>  (25) 
24

>  <SMILES>  (25) 
Cc1cc(C(C)C)[nH+]c(N2CCN(Cc3ccccc3)CC2)n1

>  <Energy>  (25) 
55.78846827970759

>  <Genealogy>  (25) 
Cc1cc(C(C)C)[nH+]c(N2CCN(Cc3ccccc3)CC2)n1 (protonated)
Cc1cc(C(C)C)[nH+]c(N2CCN(Cc3ccccc3)CC2)n1 (3D coordinates assigned)
Cc1cc(C(C)C)[nH+]c(N2CCN(Cc3ccccc3)CC2)n1 (nonaromatic ring conformer: 55.78846827970759 kcal/mol)

>  <smiles>  (25) 
Cc1cc(C(C)C)nc(N2CCN(Cc3ccccc3)CC2)n1

>  <score_type>  (25) 
oracle

>  <origin>  (25) 
adg

>  <m_score__min__energy>  (25) 
-7.2999999999999998

>  <m_primary>  (25) 
energy

$$$$
25:0
     RDKit          3D

 55 58  0  0  0  0  0  0  0  0999 V2000
   -6.0970   25.6630  -29.6110 C   0  0  0  0  0  0  0  0  0  0  0  0
   -6.5610   24.2190  -29.7760 C   0  0  0  0  0  0  0  0  0  0  0  0
   -7.1060   23.9660  -31.1870 C   0  0  0  0  0  0  0  0  0  0  0  0
   -6.5350   22.7170  -31.7470 N   0  0  0  0  0  0  0  0  0  0  0  0
   -5.1720   22.6570  -31.9630 C   0  0  0  0  0  0  0  0  0  0  0  0
   -4.4460   23.6180  -31.5930 O   0  0  0  0  0  0  0  0  0  0  0  0
   -4.5790   21.5220  -32.5710 C   0  0  0  0  0  0  0  0  0  0  0  0
   -3.0700   21.3530  -32.8250 C   0  0  2  0  0  0  0  0  0  0  0  0
   -2.5410   19.9740  -33.2700 C   0  0  0  0  0  0  0  0  0  0  0  0
   -1.0310   20.0730  -33.0500 C   0  0  2  0  0  0  0  0  0  0  0  0
   -0.4260   18.7730  -32.5090 C   0  0  0  0  0  0  0  0  0  0  0  0
   -0.9400   21.1840  -32.0600 C   0  0  0  0  0  0  0  0  0  0  0  0
    0.1270   21.6000  -31.6310 O   0  0  0  0  0  0  0  0  0  0  0  0
   -2.1970   21.7800  -31.7010 N   0  0  2  0  0  0  0  0  0  0  0  0
   -2.6240   21.2620  -30.3750 C   0  0  0  0  0  0  0  0  0  0  0  0
   -2.7230   22.3710  -29.3540 C   0  0  0  0  0  0  0  0  0  0  0  0
   -3.8150   22.4170  -28.4700 C   0  0  0  0  0  0  0  0  0  0  0  0
   -3.9190   23.4470  -27.5310 C   0  0  0  0  0  0  0  0  0  0  0  0
   -2.9360   24.4420  -27.4710 C   0  0  0  0  0  0  0  0  0  0  0  0
   -3.0320   25.4320  -26.5520 F   0  0  0  0  0  0  0  0  0  0  0  0
   -1.8510   24.4050  -28.3510 C   0  0  0  0  0  0  0  0  0  0  0  0
   -1.7440   23.3770  -29.2910 C   0  0  0  0  0  0  0  0  0  0  0  0
   -5.3970   20.4200  -32.8380 C   0  0  0  0  0  0  0  0  0  0  0  0
   -6.7630   20.4560  -32.5820 C   0  0  0  0  0  0  0  0  0  0  0  0
   -7.5580   19.3370  -32.8770 C   0  0  0  0  0  0  0  0  0  0  0  0
   -8.9230   19.3520  -32.5990 C   0  0  0  0  0  0  0  0  0  0  0  0
   -9.5030   20.4770  -32.0160 C   0  0  0  0  0  0  0  0  0  0  0  0
   -8.7250   21.5990  -31.7220 C   0  0  0  0  0  0  0  0  0  0  0  0
   -7.3360   21.6220  -32.0160 C   0  0  0  0  0  0  0  0  0  0  0  0
   -6.0198   25.9033  -28.5403 H   0  0  0  0  0  0  0  0  0  0  0  0
   -5.1132   25.7887  -30.0868 H   0  0  0  0  0  0  0  0  0  0  0  0
   -6.8234   26.3382  -30.0868 H   0  0  0  0  0  0  0  0  0  0  0  0
   -5.7097   23.5463  -29.5948 H   0  0  0  0  0  0  0  0  0  0  0  0
   -7.3681   24.0292  -29.0531 H   0  0  0  0  0  0  0  0  0  0  0  0
   -8.2013   23.8749  -31.1413 H   0  0  0  0  0  0  0  0  0  0  0  0
   -6.8229   24.8088  -31.8347 H   0  0  0  0  0  0  0  0  0  0  0  0
   -3.0022   22.0309  -33.6886 H   0  0  0  0  0  0  0  0  0  0  0  0
   -2.9746   19.1712  -32.6555 H   0  0  0  0  0  0  0  0  0  0  0  0
   -2.8040   19.7336  -34.3107 H   0  0  0  0  0  0  0  0  0  0  0  0
   -0.4665   20.2512  -33.9771 H   0  0  0  0  0  0  0  0  0  0  0  0
   -0.4357   18.7939  -31.4092 H   0  0  0  0  0  0  0  0  0  0  0  0
   -1.0183   17.9171  -32.8647 H   0  0  0  0  0  0  0  0  0  0  0  0
    0.6103   18.6750  -32.8647 H   0  0  0  0  0  0  0  0  0  0  0  0
   -2.1010   22.8230  -31.6930 H   0  0  0  0  0  0  0  0  0  0  0  0
   -3.6085   20.7824  -30.4786 H   0  0  0  0  0  0  0  0  0  0  0  0
   -1.8712   20.5390  -30.0278 H   0  0  0  0  0  0  0  0  0  0  0  0
   -4.5911   21.6389  -28.5175 H   0  0  0  0  0  0  0  0  0  0  0  0
   -4.7735   23.4759  -26.8389 H   0  0  0  0  0  0  0  0  0  0  0  0
   -1.0792   25.1873  -28.3034 H   0  0  0  0  0  0  0  0  0  0  0  0
   -0.8903   23.3551  -29.9843 H   0  0  0  0  0  0  0  0  0  0  0  0
   -4.9511   19.5067  -33.2588 H   0  0  0  0  0  0  0  0  0  0  0  0
   -7.1011   18.4446  -33.3296 H   0  0  0  0  0  0  0  0  0  0  0  0
   -9.5430   18.4758  -32.8397 H   0  0  0  0  0  0  0  0  0  0  0  0
  -10.5787   20.4814  -31.7863 H   0  0  0  0  0  0  0  0  0  0  0  0
   -9.1950   22.4776  -31.2560 H   0  0  0  0  0  0  0  0  0  0  0  0
  1  2  1  0
  2  3  1  0
  3  4  1  0
  4  5  1  0
  5  6  2  0
  5  7  1  0
  7  8  1  0
  8  9  1  0
  9 10  1  0
 10 11  1  0
 10 12  1  0
 12 13  2  0
 12 14  1  0
 14 15  1  0
 15 16  1  0
 16 17  2  0
 17 18  1  0
 18 19  2  0
 19 20  1  0
 19 21  1  0
 21 22  2  0
  7 23  2  0
 23 24  1  0
 24 25  2  0
 25 26  1  0
 26 27  2  0
 27 28  1  0
 28 29  2  0
 29  4  1  0
 14  8  1  0
 22 16  1  0
 29 24  1  0
  1 30  1  0
  1 31  1  0
  1 32  1  0
  2 33  1  0
  2 34  1  0
  3 35  1  0
  3 36  1  0
  8 37  1  6
  9 38  1  0
  9 39  1  0
 10 40  1  6
 11 41  1  0
 11 42  1  0
 11 43  1  0
 14 44  1  1
 15 45  1  0
 15 46  1  0
 17 47  1  0
 18 48  1  0
 21 49  1  0
 22 50  1  0
 23 51  1  0
 25 52  1  0
 26 53  1  0
 27 54  1  0
 28 55  1  0
M  CHG  1  14   1
M  END
>  <UniqueID>  (26) 
25

>  <SMILES>  (26) 
CCCn1c(=O)c([C@@H]2C[C@H](C)C(=O)[NH+]2Cc2ccc(F)cc2)cc2ccccc21

>  <Energy>  (26) 
78.93758785340542

>  <Genealogy>  (26) 
CCCn1c(=O)c(C2CC(C)C(=O)[NH+]2Cc2ccc(F)cc2)cc2ccccc21 (protonated)
CCCn1c(=O)c([C@@H]2C[C@H](C)C(=O)[NH+]2Cc2ccc(F)cc2)cc2ccccc21 (chirality)
CCCn1c(=O)c([C@@H]2C[C@H](C)C(=O)[NH+]2Cc2ccc(F)cc2)cc2ccccc21 (3D coordinates assigned)
CCCn1c(=O)c([C@@H]2C[C@H](C)C(=O)[NH+]2Cc2ccc(F)cc2)cc2ccccc21 (nonaromatic ring conformer: 78.93758785340542 kcal/mol)

>  <smiles>  (26) 
CCCn1c(=O)c(C2CC(C)C(=O)N2Cc2ccc(F)cc2)cc2ccccc21

>  <score_type>  (26) 
oracle

>  <origin>  (26) 
adg

>  <m_score__min__energy>  (26) 
-8.6799999999999997

>  <m_primary>  (26) 
energy

$$$$
26:0
     RDKit          3D

 46 49  0  0  0  0  0  0  0  0999 V2000
   -5.7530   25.6020  -30.1770 C   0  0  0  0  0  0  0  0  0  0  0  0
   -5.8380   24.5090  -31.2390 C   0  0  0  0  0  0  0  0  0  0  0  0
   -4.8990   23.3660  -30.9380 C   0  0  0  0  0  0  0  0  0  0  0  0
   -3.9850   23.5710  -29.9460 N   0  0  0  0  0  0  0  0  0  0  0  0
   -3.0660   22.6220  -29.6750 C   0  0  0  0  0  0  0  0  0  0  0  0
   -2.0470   22.6750  -28.7560 C   0  0  0  0  0  0  0  0  0  0  0  0
   -1.3730   21.4770  -28.9770 C   0  0  0  0  0  0  0  0  0  0  0  0
   -0.1190   21.0510  -28.2910 C   0  0  0  0  0  0  0  0  0  0  0  0
   -1.9530   20.7810  -29.9830 N   0  0  0  0  0  0  0  0  0  0  0  0
   -2.9930   21.4940  -30.3820 N   0  0  0  0  0  0  0  0  0  0  0  0
   -3.8590   21.1970  -31.3860 C   0  0  0  0  0  0  0  0  0  0  0  0
   -3.6380   19.9710  -32.1870 C   0  0  0  0  0  0  0  0  0  0  0  0
   -4.4670   18.8580  -31.9760 C   0  0  0  0  0  0  0  0  0  0  0  0
   -4.2810   17.6880  -32.7180 C   0  0  0  0  0  0  0  0  0  0  0  0
   -3.2680   17.6220  -33.6770 C   0  0  0  0  0  0  0  0  0  0  0  0
   -3.0220   16.1440  -34.5900 Cl  0  0  0  0  0  0  0  0  0  0  0  0
   -2.4520   18.7320  -33.9090 C   0  0  0  0  0  0  0  0  0  0  0  0
   -2.6360   19.9110  -33.1780 C   0  0  0  0  0  0  0  0  0  0  0  0
   -1.5780   21.2790  -33.5080 Cl  0  0  0  0  0  0  0  0  0  0  0  0
   -4.9120   22.1240  -31.6590 C   0  0  0  0  0  0  0  0  0  0  0  0
   -5.9770   21.8430  -32.7200 C   0  0  0  0  0  0  0  0  0  0  0  0
   -6.9730   20.7510  -32.3520 C   0  0  0  0  0  0  0  0  0  0  0  0
   -7.8690   20.9200  -31.2640 C   0  0  0  0  0  0  0  0  0  0  0  0
   -7.9290   22.3950  -30.3050 Cl  0  0  0  0  0  0  0  0  0  0  0  0
   -8.7560   19.8960  -30.9160 C   0  0  0  0  0  0  0  0  0  0  0  0
   -8.7900   18.7110  -31.6470 C   0  0  0  0  0  0  0  0  0  0  0  0
   -7.9590   18.5520  -32.7530 C   0  0  0  0  0  0  0  0  0  0  0  0
   -7.0700   19.5640  -33.1250 C   0  0  0  0  0  0  0  0  0  0  0  0
   -6.1200   19.2980  -34.5870 Cl  0  0  0  0  0  0  0  0  0  0  0  0
   -5.7885   25.1451  -29.1770 H   0  0  0  0  0  0  0  0  0  0  0  0
   -4.8092   26.1546  -30.2943 H   0  0  0  0  0  0  0  0  0  0  0  0
   -6.6000   26.2939  -30.2943 H   0  0  0  0  0  0  0  0  0  0  0  0
   -6.8681   24.1248  -31.2739 H   0  0  0  0  0  0  0  0  0  0  0  0
   -5.5483   24.9462  -32.2059 H   0  0  0  0  0  0  0  0  0  0  0  0
   -1.8199   23.4667  -28.0269 H   0  0  0  0  0  0  0  0  0  0  0  0
   -0.2624   21.0997  -27.2015 H   0  0  0  0  0  0  0  0  0  0  0  0
    0.1262   20.0191  -28.5828 H   0  0  0  0  0  0  0  0  0  0  0  0
    0.7040   21.7200  -28.5828 H   0  0  0  0  0  0  0  0  0  0  0  0
   -5.2672   18.9068  -31.2228 H   0  0  0  0  0  0  0  0  0  0  0  0
   -4.9329   16.8188  -32.5464 H   0  0  0  0  0  0  0  0  0  0  0  0
   -1.6602   18.6789  -34.6708 H   0  0  0  0  0  0  0  0  0  0  0  0
   -6.5381   22.7726  -32.8962 H   0  0  0  0  0  0  0  0  0  0  0  0
   -5.4398   21.4847  -33.6105 H   0  0  0  0  0  0  0  0  0  0  0  0
   -9.4320   20.0276  -30.0583 H   0  0  0  0  0  0  0  0  0  0  0  0
   -9.4729   17.9011  -31.3508 H   0  0  0  0  0  0  0  0  0  0  0  0
   -8.0027   17.6220  -33.3388 H   0  0  0  0  0  0  0  0  0  0  0  0
  1  2  1  0
  2  3  1  0
  3  4  2  0
  4  5  1  0
  5  6  2  0
  6  7  1  0
  7  8  1  0
  7  9  2  0
  9 10  1  0
 10 11  1  0
 11 12  1  0
 12 13  2  0
 13 14  1  0
 14 15  2  0
 15 16  1  0
 15 17  1  0
 17 18  2  0
 18 19  1  0
 11 20  2  0
 20 21  1  0
 21 22  1  0
 22 23  2  0
 23 24  1  0
 23 25  1  0
 25 26  2  0
 26 27  1  0
 27 28  2  0
 28 29  1  0
 20  3  1  0
 28 22  1  0
 10  5  1  0
 18 12  1  0
  1 30  1  0
  1 31  1  0
  1 32  1  0
  2 33  1  0
  2 34  1  0
  6 35  1  0
  8 36  1  0
  8 37  1  0
  8 38  1  0
 13 39  1  0
 14 40  1  0
 17 41  1  0
 21 42  1  0
 21 43  1  0
 25 44  1  0
 26 45  1  0
 27 46  1  0
M  END
>  <UniqueID>  (27) 
26

>  <SMILES>  (27) 
CCc1nc2cc(C)nn2c(-c2ccc(Cl)cc2Cl)c1Cc1c(Cl)cccc1Cl

>  <Energy>  (27) 
95.56331504651118

>  <Genealogy>  (27) 
CCc1nc2cc(C)nn2c(-c2ccc(Cl)cc2Cl)c1Cc1c(Cl)cccc1Cl (3D coordinates assigned)
CCc1nc2cc(C)nn2c(-c2ccc(Cl)cc2Cl)c1Cc1c(Cl)cccc1Cl (optimized conformer: 95.56331504651118 kcal/mol)

>  <smiles>  (27) 
CCc1nc2cc(C)nn2c(-c2ccc(Cl)cc2Cl)c1Cc1c(Cl)cccc1Cl

>  <score_type>  (27) 
oracle

>  <origin>  (27) 
adg

>  <m_score__min__energy>  (27) 
-8.7799999999999994

>  <m_primary>  (27) 
energy

$$$$
27:0
     RDKit          3D

 46 50  0  0  0  0  0  0  0  0999 V2000
   -3.7140   15.6220  -34.5420 C   0  0  0  0  0  0  0  0  0  0  0  0
   -4.0990   15.0590  -33.3220 C   0  0  0  0  0  0  0  0  0  0  0  0
   -5.0310   15.7100  -32.5080 C   0  0  0  0  0  0  0  0  0  0  0  0
   -5.5830   16.9360  -32.9120 C   0  0  0  0  0  0  0  0  0  0  0  0
   -6.5190   17.6000  -32.1040 C   0  0  0  0  0  0  0  0  0  0  0  0
   -7.0630   18.8290  -32.5110 C   0  0  0  0  0  0  0  0  0  0  0  0
   -8.0930   19.5200  -31.6590 C   0  0  0  0  0  0  0  0  0  0  0  0
   -8.4380   20.8950  -32.2370 C   0  0  0  0  0  0  0  0  0  0  0  0
   -7.4840   21.9020  -31.7580 N   0  0  0  0  0  0  0  0  0  0  0  0
   -7.8610   23.2140  -31.6910 C   0  0  0  0  0  0  0  0  0  0  0  0
   -6.9820   24.1860  -31.2110 C   0  0  0  0  0  0  0  0  0  0  0  0
   -5.7040   23.8120  -30.7870 C   0  0  0  0  0  0  0  0  0  0  0  0
   -4.8000   24.7660  -30.2950 C   0  0  0  0  0  0  0  0  0  0  0  0
   -3.5320   24.3670  -29.8620 C   0  0  0  0  0  0  0  0  0  0  0  0
   -3.1490   23.0210  -29.9460 C   0  0  0  0  0  0  0  0  0  0  0  0
   -4.0450   22.0620  -30.4220 C   0  0  0  0  0  0  0  0  0  0  0  0
   -5.3260   22.4520  -30.8470 C   0  0  0  0  0  0  0  0  0  0  0  0
   -6.2420   21.5100  -31.3350 C   0  0  0  0  0  0  0  0  0  0  0  0
   -1.8590   22.6570  -29.5490 O   0  0  0  0  0  0  0  0  0  0  0  0
   -0.8470   23.6440  -29.3250 C   0  0  0  0  0  0  0  0  0  0  0  0
   -1.4520   24.8790  -28.6460 C   0  0  0  0  0  0  0  0  0  0  0  0
   -2.6300   25.2990  -29.3410 O   0  0  0  0  0  0  0  0  0  0  0  0
   -6.6810   19.3810  -33.7440 C   0  0  0  0  0  0  0  0  0  0  0  0
   -5.7490   18.7280  -34.5550 C   0  0  0  0  0  0  0  0  0  0  0  0
   -5.1930   17.5070  -34.1480 C   0  0  0  0  0  0  0  0  0  0  0  0
   -4.2580   16.8420  -34.9550 C   0  0  0  0  0  0  0  0  0  0  0  0
   -2.9815   15.1042  -35.1786 H   0  0  0  0  0  0  0  0  0  0  0  0
   -3.6670   14.0997  -33.0009 H   0  0  0  0  0  0  0  0  0  0  0  0
   -5.3321   15.2610  -31.5500 H   0  0  0  0  0  0  0  0  0  0  0  0
   -6.8282   17.1552  -31.1466 H   0  0  0  0  0  0  0  0  0  0  0  0
   -9.0039   18.9044  -31.6229 H   0  0  0  0  0  0  0  0  0  0  0  0
   -7.6832   19.6541  -30.6470 H   0  0  0  0  0  0  0  0  0  0  0  0
   -8.3956   20.8482  -33.3352 H   0  0  0  0  0  0  0  0  0  0  0  0
   -9.4501   21.1768  -31.9110 H   0  0  0  0  0  0  0  0  0  0  0  0
   -8.8691   23.5073  -32.0193 H   0  0  0  0  0  0  0  0  0  0  0  0
   -7.2933   25.2401  -31.1667 H   0  0  0  0  0  0  0  0  0  0  0  0
   -5.0888   25.8265  -30.2501 H   0  0  0  0  0  0  0  0  0  0  0  0
   -3.7487   21.0035  -30.4642 H   0  0  0  0  0  0  0  0  0  0  0  0
   -5.9610   20.4474  -31.3785 H   0  0  0  0  0  0  0  0  0  0  0  0
   -0.0639   23.2211  -28.6786 H   0  0  0  0  0  0  0  0  0  0  0  0
   -0.4158   23.9415  -30.2922 H   0  0  0  0  0  0  0  0  0  0  0  0
   -1.7127   24.6308  -27.6066 H   0  0  0  0  0  0  0  0  0  0  0  0
   -0.7149   25.6953  -28.6642 H   0  0  0  0  0  0  0  0  0  0  0  0
   -7.1186   20.3347  -34.0742 H   0  0  0  0  0  0  0  0  0  0  0  0
   -5.4507   19.1733  -35.5156 H   0  0  0  0  0  0  0  0  0  0  0  0
   -3.9518   17.2817  -35.9157 H   0  0  0  0  0  0  0  0  0  0  0  0
  1  2  2  0
  2  3  1  0
  3  4  2  0
  4  5  1  0
  5  6  2  0
  6  7  1  0
  7  8  1  0
  8  9  1  0
  9 10  2  0
 10 11  1  0
 11 12  2  0
 12 13  1  0
 13 14  2  0
 14 15  1  0
 15 16  2  0
 16 17  1  0
 17 18  2  0
 15 19  1  0
 19 20  1  0
 20 21  1  0
 21 22  1  0
  6 23  1  0
 23 24  2  0
 24 25  1  0
 25 26  2  0
 26  1  1  0
 25  4  1  0
 18  9  1  0
 17 12  1  0
 22 14  1  0
  1 27  1  0
  2 28  1  0
  3 29  1  0
  5 30  1  0
  7 31  1  0
  7 32  1  0
  8 33  1  0
  8 34  1  0
 10 35  1  0
 11 36  1  0
 13 37  1  0
 16 38  1  0
 18 39  1  0
 20 40  1  0
 20 41  1  0
 21 42  1  0
 21 43  1  0
 23 44  1  0
 24 45  1  0
 26 46  1  0
M  CHG  1   9   1
M  END
>  <UniqueID>  (28) 
27

>  <SMILES>  (28) 
c1ccc2cc(CC[n+]3ccc4cc5c(cc4c3)OCCO5)ccc2c1

>  <Energy>  (28) 
56.40009601668751

>  <Genealogy>  (28) 
c1ccc2cc(CC[n+]3ccc4cc5c(cc4c3)OCCO5)ccc2c1 (3D coordinates assigned)
c1ccc2cc(CC[n+]3ccc4cc5c(cc4c3)OCCO5)ccc2c1 (nonaromatic ring conformer: 56.40009601668751 kcal/mol)

>  <smiles>  (28) 
c1ccc2cc(CC[n+]3ccc4cc5c(cc4c3)OCCO5)ccc2c1

>  <score_type>  (28) 
oracle

>  <origin>  (28) 
adg

>  <m_score__min__energy>  (28) 
-9.3100000000000005

>  <m_primary>  (28) 
energy

$$$$
28:0
     RDKit          3D

 48 49  0  0  0  0  0  0  0  0999 V2000
   -2.2770   24.3020  -29.0420 C   0  0  0  0  0  0  0  0  0  0  0  0
   -3.1110   24.9170  -30.0160 O   0  0  0  0  0  0  0  0  0  0  0  0
   -4.3780   24.4410  -30.3890 C   0  0  0  0  0  0  0  0  0  0  0  0
   -4.4480   23.2830  -31.1730 C   0  0  0  0  0  0  0  0  0  0  0  0
   -5.6860   22.7680  -31.5690 C   0  0  0  0  0  0  0  0  0  0  0  0
   -6.8740   23.4080  -31.1880 C   0  0  0  0  0  0  0  0  0  0  0  0
   -8.2110   22.8310  -31.5900 C   0  0  0  0  0  0  0  0  0  0  0  0
   -8.1290   21.3840  -31.8530 N   0  0  0  0  0  0  0  0  0  0  0  0
   -9.4610   20.7730  -31.9900 C   0  0  0  0  0  0  0  0  0  0  0  0
   -9.3700   19.4300  -32.7320 C   0  0  0  0  0  0  0  0  0  0  0  0
   -8.2480   18.5460  -32.1720 C   0  0  0  0  0  0  0  0  0  0  0  0
   -6.9330   19.2090  -32.3290 N   0  0  0  0  0  0  0  0  0  0  0  0
   -6.5770   19.4790  -33.7370 C   0  0  0  0  0  0  0  0  0  0  0  0
   -6.0940   18.2170  -34.4850 C   0  0  0  0  0  0  0  0  0  0  0  0
   -5.0370   17.4880  -33.7570 N   0  0  0  0  0  0  0  0  0  0  0  0
   -3.7200   18.1370  -33.8810 C   0  0  0  0  0  0  0  0  0  0  0  0
   -5.4130   17.2300  -32.3540 C   0  0  0  0  0  0  0  0  0  0  0  0
   -5.8430   18.5120  -31.6220 C   0  0  0  0  0  0  0  0  0  0  0  0
   -6.8070   24.5680  -30.3990 C   0  0  0  0  0  0  0  0  0  0  0  0
   -5.5690   25.0830  -30.0040 C   0  0  0  0  0  0  0  0  0  0  0  0
   -2.6336   24.5650  -28.0352 H   0  0  0  0  0  0  0  0  0  0  0  0
   -2.3092   23.2098  -29.1687 H   0  0  0  0  0  0  0  0  0  0  0  0
   -1.2431   24.6555  -29.1687 H   0  0  0  0  0  0  0  0  0  0  0  0
   -3.5220   22.7746  -31.4797 H   0  0  0  0  0  0  0  0  0  0  0  0
   -5.7283   21.8560  -32.1826 H   0  0  0  0  0  0  0  0  0  0  0  0
   -8.9318   23.0043  -30.7773 H   0  0  0  0  0  0  0  0  0  0  0  0
   -8.5314   23.3281  -32.5175 H   0  0  0  0  0  0  0  0  0  0  0  0
   -7.6000   21.2500  -32.7470 H   0  0  0  0  0  0  0  0  0  0  0  0
   -7.5980   20.9140  -31.0830 H   0  0  0  0  0  0  0  0  0  0  0  0
   -9.8854   20.6044  -30.9893 H   0  0  0  0  0  0  0  0  0  0  0  0
  -10.1039   21.4531  -32.5681 H   0  0  0  0  0  0  0  0  0  0  0  0
  -10.3278   18.8993  -32.6269 H   0  0  0  0  0  0  0  0  0  0  0  0
   -9.1474   19.6372  -33.7891 H   0  0  0  0  0  0  0  0  0  0  0  0
   -8.4336   18.3600  -31.1038 H   0  0  0  0  0  0  0  0  0  0  0  0
   -8.2345   17.5966  -32.7274 H   0  0  0  0  0  0  0  0  0  0  0  0
   -7.4632   19.8761  -34.2536 H   0  0  0  0  0  0  0  0  0  0  0  0
   -5.7473   20.2012  -33.7361 H   0  0  0  0  0  0  0  0  0  0  0  0
   -6.9517   17.5430  -34.6266 H   0  0  0  0  0  0  0  0  0  0  0  0
   -5.6684   18.5445  -35.4450 H   0  0  0  0  0  0  0  0  0  0  0  0
   -3.3140   18.3371  -32.8784 H   0  0  0  0  0  0  0  0  0  0  0  0
   -3.0344   17.4736  -34.4286 H   0  0  0  0  0  0  0  0  0  0  0  0
   -3.8284   19.0848  -34.4286 H   0  0  0  0  0  0  0  0  0  0  0  0
   -6.2490   16.5153  -32.3371 H   0  0  0  0  0  0  0  0  0  0  0  0
   -4.5301   16.8262  -31.8369 H   0  0  0  0  0  0  0  0  0  0  0  0
   -6.1872   18.2463  -30.6116 H   0  0  0  0  0  0  0  0  0  0  0  0
   -4.9763   19.1881  -31.5804 H   0  0  0  0  0  0  0  0  0  0  0  0
   -7.7337   25.0739  -30.0903 H   0  0  0  0  0  0  0  0  0  0  0  0
   -5.5259   25.9943  -29.3894 H   0  0  0  0  0  0  0  0  0  0  0  0
  1  2  1  0
  2  3  1  0
  3  4  2  0
  4  5  1  0
  5  6  2  0
  6  7  1  0
  7  8  1  0
  8  9  1  0
  9 10  1  0
 10 11  1  0
 11 12  1  0
 12 13  1  0
 13 14  1  0
 14 15  1  0
 15 16  1  0
 15 17  1  0
 17 18  1  0
  6 19  1  0
 19 20  2  0
 20  3  1  0
 18 12  1  0
  1 21  1  0
  1 22  1  0
  1 23  1  0
  4 24  1  0
  5 25  1  0
  7 26  1  0
  7 27  1  0
  8 28  1  0
  8 29  1  0
  9 30  1  0
  9 31  1  0
 10 32  1  0
 10 33  1  0
 11 34  1  0
 11 35  1  0
 13 36  1  0
 13 37  1  0
 14 38  1  0
 14 39  1  0
 16 40  1  0
 16 41  1  0
 16 42  1  0
 17 43  1  0
 17 44  1  0
 18 45  1  0
 18 46  1  0
 19 47  1  0
 20 48  1  0
M  CHG  1   8   1
M  END
>  <UniqueID>  (29) 
28

>  <SMILES>  (29) 
COc1ccc(C[NH2+]CCCN2CCN(C)CC2)cc1

>  <Energy>  (29) 
48.85024953919664

>  <Genealogy>  (29) 
COc1ccc(C[NH2+]CCCN2CCN(C)CC2)cc1 (protonated)
COc1ccc(C[NH2+]CCCN2CCN(C)CC2)cc1 (3D coordinates assigned)
COc1ccc(C[NH2+]CCCN2CCN(C)CC2)cc1 (nonaromatic ring conformer: 48.85024953919664 kcal/mol)

>  <smiles>  (29) 
COc1ccc(CNCCCN2CCN(C)CC2)cc1

>  <score_type>  (29) 
oracle

>  <origin>  (29) 
adg

>  <m_score__min__energy>  (29) 
-6.7400000000000002

>  <m_primary>  (29) 
energy

$$$$
29:0
     RDKit          3D

 62 64  0  0  0  0  0  0  0  0999 V2000
   -4.0739   23.5347  -27.9291 H   0  0  0  0  0  0  0  0  0  0  0  0
   -3.5920   23.4180  -28.9110 C   0  0  0  0  0  0  0  0  0  0  0  0
   -3.0920   24.6450  -29.5720 C   0  0  0  0  0  0  0  0  0  0  0  0
   -1.9540   25.0850  -29.2600 O   0  0  0  0  0  0  0  0  0  0  0  0
   -3.8540   25.3020  -30.5910 N   0  0  0  0  0  0  0  0  0  0  0  0
   -5.2720   25.6170  -30.4710 C   0  0  0  0  0  0  0  0  0  0  0  0
   -5.4553   26.6252  -30.8709 H   0  0  0  0  0  0  0  0  0  0  0  0
   -5.5602   25.5754  -29.4102 H   0  0  0  0  0  0  0  0  0  0  0  0
   -6.1070   24.6030  -31.2550 C   0  0  0  0  0  0  0  0  0  0  0  0
   -5.4352   23.8664  -31.7198 H   0  0  0  0  0  0  0  0  0  0  0  0
   -6.6802   25.1410  -32.0244 H   0  0  0  0  0  0  0  0  0  0  0  0
   -7.0910   23.8730  -30.3340 C   0  0  0  0  0  0  0  0  0  0  0  0
   -8.1033   23.9523  -30.7569 H   0  0  0  0  0  0  0  0  0  0  0  0
   -7.0462   24.3403  -29.3392 H   0  0  0  0  0  0  0  0  0  0  0  0
   -6.7250   22.3880  -30.1880 C   0  0  0  0  0  0  0  0  0  0  0  0
   -6.3809   22.2035  -29.1596 H   0  0  0  0  0  0  0  0  0  0  0  0
   -5.9313   22.1539  -30.9127 H   0  0  0  0  0  0  0  0  0  0  0  0
   -7.9280   21.4850  -30.4810 C   0  0  0  0  0  0  0  0  0  0  0  0
   -8.7638   22.0969  -30.8511 H   0  0  0  0  0  0  0  0  0  0  0  0
   -8.2310   20.9684  -29.5584 H   0  0  0  0  0  0  0  0  0  0  0  0
   -7.5580   20.4850  -31.5060 N   0  0  0  0  0  0  0  0  0  0  0  0
   -8.5920   19.4500  -31.6910 C   0  0  0  0  0  0  0  0  0  0  0  0
   -9.4496   19.8813  -32.2282 H   0  0  0  0  0  0  0  0  0  0  0  0
   -8.9204   19.0821  -30.7078 H   0  0  0  0  0  0  0  0  0  0  0  0
   -8.0120   18.2800  -32.5070 C   0  0  0  0  0  0  0  0  0  0  0  0
   -8.7847   17.8965  -33.1895 H   0  0  0  0  0  0  0  0  0  0  0  0
   -7.6909   17.4879  -31.8146 H   0  0  0  0  0  0  0  0  0  0  0  0
   -6.8520   18.7250  -33.2910 N   0  0  0  0  0  0  0  0  0  0  0  0
   -5.6120   17.9890  -33.2380 C   0  0  0  0  0  0  0  0  0  0  0  0
   -4.4030   18.6700  -32.9920 C   0  0  0  0  0  0  0  0  0  0  0  0
   -4.4071   19.7623  -32.8623 H   0  0  0  0  0  0  0  0  0  0  0  0
   -3.2000   17.9660  -32.9120 C   0  0  0  0  0  0  0  0  0  0  0  0
   -2.2597   18.5055  -32.7256 H   0  0  0  0  0  0  0  0  0  0  0  0
   -3.1880   16.5800  -33.0680 C   0  0  0  0  0  0  0  0  0  0  0  0
   -2.2380   16.0290  -33.0053 H   0  0  0  0  0  0  0  0  0  0  0  0
   -4.3810   15.8890  -33.3040 C   0  0  0  0  0  0  0  0  0  0  0  0
   -4.3659   14.7952  -33.4200 H   0  0  0  0  0  0  0  0  0  0  0  0
   -5.6030   16.5870  -33.3940 C   0  0  0  0  0  0  0  0  0  0  0  0
   -6.8180   15.9250  -33.6460 O   0  0  0  0  0  0  0  0  0  0  0  0
   -6.9390   14.6560  -34.2780 C   0  0  0  0  0  0  0  0  0  0  0  0
   -7.0139   13.8704  -33.5117 H   0  0  0  0  0  0  0  0  0  0  0  0
   -7.8424   14.6435  -34.9055 H   0  0  0  0  0  0  0  0  0  0  0  0
   -6.0542   14.4730  -34.9055 H   0  0  0  0  0  0  0  0  0  0  0  0
   -6.9130   20.0650  -33.8840 C   0  0  0  0  0  0  0  0  0  0  0  0
   -7.7155   20.0932  -34.6358 H   0  0  0  0  0  0  0  0  0  0  0  0
   -5.9462   20.2919  -34.3570 H   0  0  0  0  0  0  0  0  0  0  0  0
   -7.1990   21.1190  -32.7940 C   0  0  0  0  0  0  0  0  0  0  0  0
   -8.0330   21.7562  -33.1233 H   0  0  0  0  0  0  0  0  0  0  0  0
   -6.2866   21.7145  -32.6426 H   0  0  0  0  0  0  0  0  0  0  0  0
   -3.5060   22.1740  -29.4110 C   0  0  0  0  0  0  0  0  0  0  0  0
   -3.7562   21.3327  -28.7480 H   0  0  0  0  0  0  0  0  0  0  0  0
   -3.0980   21.8680  -30.7900 C   0  0  0  0  0  0  0  0  0  0  0  0
   -1.8050   21.3890  -31.0520 C   0  0  0  0  0  0  0  0  0  0  0  0
   -1.0938   21.2463  -30.2250 H   0  0  0  0  0  0  0  0  0  0  0  0
   -1.4200   21.0930  -32.3630 C   0  0  0  0  0  0  0  0  0  0  0  0
   -0.4088   20.7107  -32.5661 H   0  0  0  0  0  0  0  0  0  0  0  0
   -2.3210   21.2830  -33.4170 C   0  0  0  0  0  0  0  0  0  0  0  0
   -2.0148   21.0563  -34.4489 H   0  0  0  0  0  0  0  0  0  0  0  0
   -3.6110   21.7610  -33.1600 C   0  0  0  0  0  0  0  0  0  0  0  0
   -4.3207   21.9003  -33.9888 H   0  0  0  0  0  0  0  0  0  0  0  0
   -3.9990   22.0620  -31.8490 C   0  0  0  0  0  0  0  0  0  0  0  0
   -5.0086   22.4501  -31.6489 H   0  0  0  0  0  0  0  0  0  0  0  0
  1  2  1  0
  2  3  1  0
  3  4  2  0
  3  5  1  0
  5  6  1  0
  6  7  1  0
  6  8  1  0
  6  9  1  0
  9 10  1  0
  9 11  1  0
  9 12  1  0
 12 13  1  0
 12 14  1  0
 12 15  1  0
 15 16  1  0
 15 17  1  0
 15 18  1  0
 18 19  1  0
 18 20  1  0
 18 21  1  0
 21 22  1  0
 22 23  1  0
 22 24  1  0
 22 25  1  0
 25 26  1  0
 25 27  1  0
 25 28  1  0
 28 29  1  0
 29 30  2  0
 30 31  1  0
 30 32  1  0
 32 33  1  0
 32 34  2  0
 34 35  1  0
 34 36  1  0
 36 37  1  0
 36 38  2  0
 38 39  1  0
 39 40  1  0
 40 41  1  0
 40 42  1  0
 40 43  1  0
 28 44  1  0
 44 45  1  0
 44 46  1  0
 44 47  1  0
 47 48  1  0
 47 49  1  0
  2 50  2  0
 50 51  1  0
 50 52  1  0
 52 53  2  0
 53 54  1  0
 53 55  1  0
 55 56  1  0
 55 57  2  0
 57 58  1  0
 57 59  1  0
 59 60  1  0
 59 61  2  0
 61 62  1  0
 47 21  1  0
 61 52  1  0
 38 29  1  0
M  CHG  1   5  -1
M  END
>  <UniqueID>  (30) 
29

>  <SMILES>  (30) 
COc1ccccc1N1CCN(CCCCC[N-]C(=O)/C=C\c2ccccc2)CC1

>  <Energy>  (30) 
74.0412327592303

>  <Genealogy>  (30) 
COc1ccccc1N1CCN(CCCCC[N-]C(=O)C=Cc2ccccc2)CC1 (protonated)
COc1ccccc1N1CCN(CCCCC[N-]C(=O)/C=C\c2ccccc2)CC1 (cis-trans isomerization)
COc1ccccc1N1CCN(CCCCC[N-]C(=O)/C=C\c2ccccc2)CC1 (3D coordinates assigned)
COc1ccccc1N1CCN(CCCCC[N-]C(=O)/C=C\c2ccccc2)CC1 (nonaromatic ring conformer: 74.0412327592303 kcal/mol)

>  <smiles>  (30) 
COc1ccccc1N1CCN(CCCCCNC(=O)C=Cc2ccccc2)CC1

>  <score_type>  (30) 
oracle

>  <origin>  (30) 
adg

>  <m_score__min__energy>  (30) 
-10.449999999999999

>  <m_primary>  (30) 
energy

$$$$
30:0
     RDKit          3D

 40 42  0  0  0  0  0  0  0  0999 V2000
   -4.1583   23.3561  -26.3930 H   0  0  0  0  0  0  0  0  0  0  0  0
   -3.8860   23.1570  -27.4400 C   0  0  0  0  0  0  0  0  0  0  0  0
   -3.1800   21.9990  -27.7670 C   0  0  0  0  0  0  0  0  0  0  0  0
   -2.8934   21.2887  -26.9775 H   0  0  0  0  0  0  0  0  0  0  0  0
   -2.8370   21.7410  -29.0950 C   0  0  0  0  0  0  0  0  0  0  0  0
   -2.2728   20.8309  -29.3468 H   0  0  0  0  0  0  0  0  0  0  0  0
   -3.2080   22.6370  -30.1130 C   0  0  0  0  0  0  0  0  0  0  0  0
   -2.8080   22.3590  -31.5380 C   0  0  0  0  0  0  0  0  0  0  0  0
   -2.4403   21.3258  -31.6235 H   0  0  0  0  0  0  0  0  0  0  0  0
   -2.0094   23.0513  -31.8429 H   0  0  0  0  0  0  0  0  0  0  0  0
   -3.9700   22.5370  -32.3970 N   0  0  0  0  0  0  0  0  0  0  0  0
   -5.1680   22.0260  -32.3170 C   0  0  0  0  0  0  0  0  0  0  0  0
   -6.1480   22.6780  -31.6450 N   0  0  0  0  0  0  0  0  0  0  0  0
   -6.0820   23.5930  -31.1470 H   0  0  0  0  0  0  0  0  0  0  0  0
   -7.2170   21.8770  -31.7430 C   0  0  0  0  0  0  0  0  0  0  0  0
   -8.4840   22.0700  -31.1960 C   0  0  0  0  0  0  0  0  0  0  0  0
   -8.7251   22.9775  -30.6229 H   0  0  0  0  0  0  0  0  0  0  0  0
   -9.4430   21.0630  -31.4030 C   0  0  0  0  0  0  0  0  0  0  0  0
  -10.4565   21.1810  -30.9920 H   0  0  0  0  0  0  0  0  0  0  0  0
   -9.1140   19.9010  -32.1350 C   0  0  0  0  0  0  0  0  0  0  0  0
   -9.8720   19.1186  -32.2876 H   0  0  0  0  0  0  0  0  0  0  0  0
   -7.8220   19.7370  -32.6710 C   0  0  0  0  0  0  0  0  0  0  0  0
   -7.5530   18.8331  -33.2372 H   0  0  0  0  0  0  0  0  0  0  0  0
   -6.8900   20.7620  -32.4600 C   0  0  0  0  0  0  0  0  0  0  0  0
   -5.5960   20.8320  -32.8520 N   0  0  0  0  0  0  0  0  0  0  0  0
   -4.8700   19.7560  -33.5410 C   0  0  0  0  0  0  0  0  0  0  0  0
   -4.5194   20.1232  -34.5169 H   0  0  0  0  0  0  0  0  0  0  0  0
   -5.5482   18.9010  -33.6786 H   0  0  0  0  0  0  0  0  0  0  0  0
   -3.6690   19.3050  -32.7130 C   0  0  0  0  0  0  0  0  0  0  0  0
   -3.9071   19.3944  -31.6428 H   0  0  0  0  0  0  0  0  0  0  0  0
   -3.4331   18.2570  -32.9498 H   0  0  0  0  0  0  0  0  0  0  0  0
   -2.8016   19.9387  -32.9498 H   0  0  0  0  0  0  0  0  0  0  0  0
   -3.9080   23.8170  -29.7830 C   0  0  0  0  0  0  0  0  0  0  0  0
   -4.2440   24.7160  -30.8090 O   0  0  0  0  0  0  0  0  0  0  0  0
   -5.3450   25.6180  -30.7640 C   0  0  0  0  0  0  0  0  0  0  0  0
   -5.6031   25.8295  -29.7158 H   0  0  0  0  0  0  0  0  0  0  0  0
   -5.0720   26.5554  -31.2707 H   0  0  0  0  0  0  0  0  0  0  0  0
   -6.2104   25.1659  -31.2707 H   0  0  0  0  0  0  0  0  0  0  0  0
   -4.2480   24.0640  -28.4380 C   0  0  0  0  0  0  0  0  0  0  0  0
   -4.8018   24.9766  -28.1727 H   0  0  0  0  0  0  0  0  0  0  0  0
  1  2  1  0
  2  3  2  0
  3  4  1  0
  3  5  1  0
  5  6  1  0
  5  7  2  0
  7  8  1  0
  8  9  1  0
  8 10  1  0
  8 11  1  0
 11 12  2  0
 12 13  1  0
 13 14  1  0
 13 15  1  0
 15 16  2  0
 16 17  1  0
 16 18  1  0
 18 19  1  0
 18 20  2  0
 20 21  1  0
 20 22  1  0
 22 23  1  0
 22 24  2  0
 24 25  1  0
 25 26  1  0
 26 27  1  0
 26 28  1  0
 26 29  1  0
 29 30  1  0
 29 31  1  0
 29 32  1  0
  7 33  1  0
 33 34  1  0
 34 35  1  0
 35 36  1  0
 35 37  1  0
 35 38  1  0
 33 39  2  0
 39 40  1  0
 39  2  1  0
 25 12  1  0
 24 15  1  0
M  END
>  <UniqueID>  (31) 
30

>  <SMILES>  (31) 
CCn1/c(=N\Cc2ccccc2OC)[nH]c2ccccc21

>  <Energy>  (31) 
84.8013115368564

>  <Genealogy>  (31) 
CCn1/c(=N\Cc2ccccc2OC)[nH]c2ccccc21 (cis-trans isomerization)
CCn1/c(=N\Cc2ccccc2OC)[nH]c2ccccc21 (3D coordinates assigned)
CCn1/c(=N\Cc2ccccc2OC)[nH]c2ccccc21 (optimized conformer: 84.8013115368564 kcal/mol)

>  <smiles>  (31) 
CCn1c(=NCc2ccccc2OC)[nH]c2ccccc21

>  <score_type>  (31) 
oracle

>  <origin>  (31) 
adg

>  <m_score__min__energy>  (31) 
-7.1500000000000004

>  <m_primary>  (31) 
energy

$$$$
31:0
     RDKit          3D

 30 31  0  0  0  0  0  0  0  0999 V2000
   -9.1300   23.4020  -32.3420 C   0  0  0  0  0  0  0  0  0  0  0  0
   -8.0070   22.6600  -31.6060 C   0  0  2  0  0  0  0  0  0  0  0  0
   -6.7030   23.2730  -31.9010 N   0  0  0  0  0  0  0  0  0  0  0  0
   -5.6920   23.5680  -30.9170 C   0  0  0  0  0  0  0  0  0  0  0  0
   -5.9200   24.5910  -29.9830 C   0  0  0  0  0  0  0  0  0  0  0  0
   -4.9830   24.8960  -29.0440 N   0  0  0  0  0  0  0  0  0  0  0  0
   -3.7990   24.2300  -28.9790 C   0  0  0  0  0  0  0  0  0  0  0  0
   -3.5210   23.2080  -29.8880 C   0  0  0  0  0  0  0  0  0  0  0  0
   -1.8580   22.2720  -29.8020 Br  0  0  0  0  0  0  0  0  0  0  0  0
   -4.4670   22.8770  -30.8600 C   0  0  0  0  0  0  0  0  0  0  0  0
   -8.0050   21.1890  -31.9850 C   0  0  0  0  0  0  0  0  0  0  0  0
   -6.8940   20.6300  -32.6450 C   0  0  0  0  0  0  0  0  0  0  0  0
   -6.8850   19.2760  -32.9920 C   0  0  0  0  0  0  0  0  0  0  0  0
   -7.9800   18.4660  -32.6860 C   0  0  0  0  0  0  0  0  0  0  0  0
   -9.0880   19.0070  -32.0300 C   0  0  0  0  0  0  0  0  0  0  0  0
   -9.1040   20.3610  -31.6810 C   0  0  0  0  0  0  0  0  0  0  0  0
   -9.8135   23.8536  -31.6080 H   0  0  0  0  0  0  0  0  0  0  0  0
   -8.6957   24.1916  -32.9729 H   0  0  0  0  0  0  0  0  0  0  0  0
   -9.6860   22.6929  -32.9729 H   0  0  0  0  0  0  0  0  0  0  0  0
   -8.1884   22.7390  -30.5239 H   0  0  0  0  0  0  0  0  0  0  0  0
   -6.4950   23.5420  -32.8910 H   0  0  0  0  0  0  0  0  0  0  0  0
   -6.8658   25.1520  -30.0103 H   0  0  0  0  0  0  0  0  0  0  0  0
   -5.1760   25.6600  -28.3590 H   0  0  0  0  0  0  0  0  0  0  0  0
   -3.0598   24.4970  -28.2094 H   0  0  0  0  0  0  0  0  0  0  0  0
   -4.2547   22.0750  -31.5823 H   0  0  0  0  0  0  0  0  0  0  0  0
   -6.0279   21.2626  -32.8890 H   0  0  0  0  0  0  0  0  0  0  0  0
   -6.0128   18.8476  -33.5075 H   0  0  0  0  0  0  0  0  0  0  0  0
   -7.9702   17.4011  -32.9617 H   0  0  0  0  0  0  0  0  0  0  0  0
   -9.9492   18.3671  -31.7875 H   0  0  0  0  0  0  0  0  0  0  0  0
   -9.9799   20.7824  -31.1660 H   0  0  0  0  0  0  0  0  0  0  0  0
  1  2  1  0
  2  3  1  0
  3  4  1  0
  4  5  2  0
  5  6  1  0
  6  7  2  0
  7  8  1  0
  8  9  1  0
  8 10  2  0
  2 11  1  0
 11 12  2  0
 12 13  1  0
 13 14  2  0
 14 15  1  0
 15 16  2  0
 10  4  1  0
 16 11  1  0
  1 17  1  0
  1 18  1  0
  1 19  1  0
  2 20  1  1
  3 21  1  0
  5 22  1  0
  6 23  1  0
  7 24  1  0
 10 25  1  0
 12 26  1  0
 13 27  1  0
 14 28  1  0
 15 29  1  0
 16 30  1  0
M  CHG  1   6   1
M  END
>  <UniqueID>  (32) 
31

>  <SMILES>  (32) 
C[C@H](Nc1c[nH+]cc(Br)c1)c1ccccc1

>  <Energy>  (32) 
30.141282474179036

>  <Genealogy>  (32) 
CC(Nc1c[nH+]cc(Br)c1)c1ccccc1 (protonated)
C[C@H](Nc1c[nH+]cc(Br)c1)c1ccccc1 (chirality)
C[C@H](Nc1c[nH+]cc(Br)c1)c1ccccc1 (3D coordinates assigned)
C[C@H](Nc1c[nH+]cc(Br)c1)c1ccccc1 (optimized conformer: 30.141282474179036 kcal/mol)

>  <smiles>  (32) 
CC(Nc1cncc(Br)c1)c1ccccc1

>  <score_type>  (32) 
oracle

>  <origin>  (32) 
adg

>  <m_score__min__energy>  (32) 
-6.2699999999999996

>  <m_primary>  (32) 
energy

$$$$
32:0
     RDKit          3D

 53 56  0  0  0  0  0  0  0  0999 V2000
    0.2880   21.8250  -35.4530 C   0  0  0  0  0  0  0  0  0  0  0  0
   -0.5200   21.8910  -34.2830 O   0  0  0  0  0  0  0  0  0  0  0  0
   -0.3110   21.1230  -33.1260 C   0  0  0  0  0  0  0  0  0  0  0  0
    0.8670   20.3720  -32.9350 C   0  0  0  0  0  0  0  0  0  0  0  0
    1.0470   19.6200  -31.7730 C   0  0  0  0  0  0  0  0  0  0  0  0
    0.0610   19.6080  -30.7870 C   0  0  0  0  0  0  0  0  0  0  0  0
   -1.1110   20.3460  -30.9600 C   0  0  0  0  0  0  0  0  0  0  0  0
   -1.3090   21.1040  -32.1270 C   0  0  0  0  0  0  0  0  0  0  0  0
   -2.5750   21.9180  -32.2830 C   0  0  0  0  0  0  0  0  0  0  0  0
   -3.3170   21.5580  -33.5040 N   0  0  0  0  0  0  0  0  0  0  0  0
   -3.8020   20.1680  -33.4660 C   0  0  0  0  0  0  0  0  0  0  0  0
   -5.2490   20.1250  -33.0300 C   0  0  0  0  0  0  0  0  0  0  0  0
   -5.8500   21.3050  -32.7230 N   0  0  0  0  0  0  0  0  0  0  0  0
   -7.1540   21.3710  -32.3690 C   0  0  0  0  0  0  0  0  0  0  0  0
   -7.7330   22.6060  -32.0530 C   0  0  0  0  0  0  0  0  0  0  0  0
   -9.0800   22.6740  -31.6900 C   0  0  0  0  0  0  0  0  0  0  0  0
   -9.8540   21.5120  -31.6420 C   0  0  0  0  0  0  0  0  0  0  0  0
   -9.2840   20.2740  -31.9580 C   0  0  0  0  0  0  0  0  0  0  0  0
   -7.9270   20.1960  -32.3250 C   0  0  0  0  0  0  0  0  0  0  0  0
   -7.3050   18.9800  -32.6560 C   0  0  0  0  0  0  0  0  0  0  0  0
   -7.9710   17.9060  -32.6260 O   0  0  0  0  0  0  0  0  0  0  0  0
   -5.9780   18.9580  -33.0060 N   0  0  0  0  0  0  0  0  0  0  0  0
   -5.3680   17.6980  -33.3430 C   0  0  0  0  0  0  0  0  0  0  0  0
   -4.8610   17.4850  -34.6330 C   0  0  0  0  0  0  0  0  0  0  0  0
   -4.2820   16.2570  -34.9650 C   0  0  0  0  0  0  0  0  0  0  0  0
   -4.2070   15.2370  -34.0120 C   0  0  0  0  0  0  0  0  0  0  0  0
   -4.7040   15.4420  -32.7160 C   0  0  0  0  0  0  0  0  0  0  0  0
   -4.6640   14.3330  -31.7070 C   0  0  0  0  0  0  0  0  0  0  0  0
   -5.3040   16.6690  -32.3930 C   0  0  0  0  0  0  0  0  0  0  0  0
    1.3458   21.7386  -35.1637 H   0  0  0  0  0  0  0  0  0  0  0  0
   -0.0018   20.9475  -36.0497 H   0  0  0  0  0  0  0  0  0  0  0  0
    0.1444   22.7379  -36.0497 H   0  0  0  0  0  0  0  0  0  0  0  0
    1.6500   20.3788  -33.7076 H   0  0  0  0  0  0  0  0  0  0  0  0
    1.9686   19.0356  -31.6347 H   0  0  0  0  0  0  0  0  0  0  0  0
    0.2071   19.0160  -29.8715 H   0  0  0  0  0  0  0  0  0  0  0  0
   -1.8846   20.3343  -30.1781 H   0  0  0  0  0  0  0  0  0  0  0  0
   -3.2206   21.7410  -31.4102 H   0  0  0  0  0  0  0  0  0  0  0  0
   -2.2898   22.9776  -32.3593 H   0  0  0  0  0  0  0  0  0  0  0  0
   -2.6680   21.6750  -34.3170 H   0  0  0  0  0  0  0  0  0  0  0  0
   -4.1250   22.2100  -33.6370 H   0  0  0  0  0  0  0  0  0  0  0  0
   -3.7127   19.7257  -34.4692 H   0  0  0  0  0  0  0  0  0  0  0  0
   -3.1959   19.5988  -32.7459 H   0  0  0  0  0  0  0  0  0  0  0  0
   -7.1268   23.5231  -32.0906 H   0  0  0  0  0  0  0  0  0  0  0  0
   -9.5327   23.6452  -31.4412 H   0  0  0  0  0  0  0  0  0  0  0  0
  -10.9143   21.5706  -31.3550 H   0  0  0  0  0  0  0  0  0  0  0  0
   -9.8964   19.3611  -31.9197 H   0  0  0  0  0  0  0  0  0  0  0  0
   -4.9191   18.2858  -35.3849 H   0  0  0  0  0  0  0  0  0  0  0  0
   -3.8848   16.0929  -35.9776 H   0  0  0  0  0  0  0  0  0  0  0  0
   -3.7565   14.2697  -34.2792 H   0  0  0  0  0  0  0  0  0  0  0  0
   -4.6794   14.7591  -30.6930 H   0  0  0  0  0  0  0  0  0  0  0  0
   -5.5392   13.6809  -31.8440 H   0  0  0  0  0  0  0  0  0  0  0  0
   -3.7441   13.7456  -31.8440 H   0  0  0  0  0  0  0  0  0  0  0  0
   -5.7263   16.8241  -31.3892 H   0  0  0  0  0  0  0  0  0  0  0  0
  1  2  1  0
  2  3  1  0
  3  4  2  0
  4  5  1  0
  5  6  2  0
  6  7  1  0
  7  8  2  0
  8  9  1  0
  9 10  1  0
 10 11  1  0
 11 12  1  0
 12 13  2  0
 13 14  1  0
 14 15  2  0
 15 16  1  0
 16 17  2  0
 17 18  1  0
 18 19  2  0
 19 20  1  0
 20 21  2  0
 20 22  1  0
 22 23  1  0
 23 24  2  0
 24 25  1  0
 25 26  2  0
 26 27  1  0
 27 28  1  0
 27 29  2  0
  8  3  1  0
 22 12  1  0
 29 23  1  0
 19 14  1  0
  1 30  1  0
  1 31  1  0
  1 32  1  0
  4 33  1  0
  5 34  1  0
  6 35  1  0
  7 36  1  0
  9 37  1  0
  9 38  1  0
 10 39  1  0
 10 40  1  0
 11 41  1  0
 11 42  1  0
 15 43  1  0
 16 44  1  0
 17 45  1  0
 18 46  1  0
 24 47  1  0
 25 48  1  0
 26 49  1  0
 28 50  1  0
 28 51  1  0
 28 52  1  0
 29 53  1  0
M  CHG  1  10   1
M  END
>  <UniqueID>  (33) 
32

>  <SMILES>  (33) 
COc1ccccc1C[NH2+]Cc1nc2ccccc2c(=O)n1-c1cccc(C)c1

>  <Energy>  (33) 
69.79562330368707

>  <Genealogy>  (33) 
COc1ccccc1C[NH2+]Cc1nc2ccccc2c(=O)n1-c1cccc(C)c1 (protonated)
COc1ccccc1C[NH2+]Cc1nc2ccccc2c(=O)n1-c1cccc(C)c1 (3D coordinates assigned)
COc1ccccc1C[NH2+]Cc1nc2ccccc2c(=O)n1-c1cccc(C)c1 (optimized conformer: 69.79562330368707 kcal/mol)

>  <smiles>  (33) 
COc1ccccc1CNCc1nc2ccccc2c(=O)n1-c1cccc(C)c1

>  <score_type>  (33) 
oracle

>  <origin>  (33) 
adg

>  <m_score__min__energy>  (33) 
-8.1799999999999997

>  <m_primary>  (33) 
energy

$$$$
33:0
     RDKit          3D

 39 42  0  0  0  0  0  0  0  0999 V2000
   -4.6551   17.0656  -34.3817 H   0  0  0  0  0  0  0  0  0  0  0  0
   -4.8030   17.8180  -33.5930 C   0  0  0  0  0  0  0  0  0  0  0  0
   -5.9100   17.7120  -32.8420 C   0  0  0  0  0  0  0  0  0  0  0  0
   -6.0938   16.7447  -32.3516 H   0  0  0  0  0  0  0  0  0  0  0  0
   -6.9030   18.7820  -32.6170 C   0  0  0  0  0  0  0  0  0  0  0  0
   -8.2220   18.5370  -32.8900 N   0  0  0  0  0  0  0  0  0  0  0  0
   -9.1700   19.4610  -32.6900 N   0  0  0  0  0  0  0  0  0  0  0  0
   -8.8090   20.6590  -32.1760 C   0  0  0  0  0  0  0  0  0  0  0  0
   -7.5430   20.9220  -31.8560 N   0  0  0  0  0  0  0  0  0  0  0  0
   -7.5810   22.2040  -31.4300 C   0  0  0  0  0  0  0  0  0  0  0  0
   -6.4230   23.0010  -30.9790 C   0  0  0  0  0  0  0  0  0  0  0  0
   -5.1220   22.5410  -31.2300 C   0  0  0  0  0  0  0  0  0  0  0  0
   -4.9718   21.5883  -31.7589 H   0  0  0  0  0  0  0  0  0  0  0  0
   -4.0140   23.2860  -30.8120 C   0  0  0  0  0  0  0  0  0  0  0  0
   -2.9979   22.9100  -31.0021 H   0  0  0  0  0  0  0  0  0  0  0  0
   -4.1940   24.5150  -30.1490 C   0  0  0  0  0  0  0  0  0  0  0  0
   -3.1170   25.2980  -29.7070 O   0  0  0  0  0  0  0  0  0  0  0  0
   -2.2270   24.9220  -28.6610 C   0  0  0  0  0  0  0  0  0  0  0  0
   -2.6996   25.1217  -27.6880 H   0  0  0  0  0  0  0  0  0  0  0  0
   -1.9965   23.8496  -28.7435 H   0  0  0  0  0  0  0  0  0  0  0  0
   -1.2974   25.5043  -28.7435 H   0  0  0  0  0  0  0  0  0  0  0  0
   -5.4930   24.9820  -29.9210 C   0  0  0  0  0  0  0  0  0  0  0  0
   -5.6444   25.9441  -29.4098 H   0  0  0  0  0  0  0  0  0  0  0  0
   -6.6000   24.2370  -30.3370 C   0  0  0  0  0  0  0  0  0  0  0  0
   -7.6155   24.6212  -30.1604 H   0  0  0  0  0  0  0  0  0  0  0  0
   -8.8430   22.6950  -31.5080 N   0  0  0  0  0  0  0  0  0  0  0  0
   -9.6110   21.7140  -31.9710 N   0  0  0  0  0  0  0  0  0  0  0  0
  -10.6360   21.7830  -32.1510 H   0  0  0  0  0  0  0  0  0  0  0  0
   -6.5480   20.0260  -32.0580 C   0  0  0  0  0  0  0  0  0  0  0  0
   -5.5054   20.2596  -31.7965 H   0  0  0  0  0  0  0  0  0  0  0  0
   -3.7650   18.8620  -33.4490 C   0  0  0  0  0  0  0  0  0  0  0  0
   -4.0740   20.1830  -33.5730 N   0  0  0  0  0  0  0  0  0  0  0  0
   -3.1240   21.1470  -33.4670 C   0  0  0  0  0  0  0  0  0  0  0  0
   -3.3982   22.2084  -33.5577 H   0  0  0  0  0  0  0  0  0  0  0  0
   -1.7970   20.7800  -33.2420 C   0  0  0  0  0  0  0  0  0  0  0  0
   -1.0168   21.5496  -33.1472 H   0  0  0  0  0  0  0  0  0  0  0  0
   -1.4770   19.4630  -33.1410 N   0  0  0  0  0  0  0  0  0  0  0  0
   -2.4270   18.4970  -33.2460 C   0  0  0  0  0  0  0  0  0  0  0  0
   -2.1478   17.4356  -33.1722 H   0  0  0  0  0  0  0  0  0  0  0  0
  1  2  1  0
  2  3  2  0
  3  4  1  0
  3  5  1  0
  5  6  1  0
  6  7  2  0
  7  8  1  0
  8  9  1  0
  9 10  1  0
 10 11  1  0
 11 12  2  0
 12 13  1  0
 12 14  1  0
 14 15  1  0
 14 16  2  0
 16 17  1  0
 17 18  1  0
 18 19  1  0
 18 20  1  0
 18 21  1  0
 16 22  1  0
 22 23  1  0
 22 24  2  0
 24 25  1  0
 10 26  2  0
 26 27  1  0
 27 28  1  0
  9 29  1  0
 29 30  1  0
  2 31  1  0
 31 32  2  0
 32 33  1  0
 33 34  1  0
 33 35  2  0
 35 36  1  0
 35 37  1  0
 37 38  2  0
 38 39  1  0
 29  5  2  0
 38 31  1  0
 27  8  2  0
 24 11  1  0
M  CHG  1  27   1
M  END
>  <UniqueID>  (34) 
33

>  <SMILES>  (34) 
COc1ccc(-c2n[nH+]c3nnc(/C=C\c4cnccn4)cn23)cc1

>  <Energy>  (34) 
102.16369479942676

>  <Genealogy>  (34) 
COc1ccc(-c2n[nH+]c3nnc(C=Cc4cnccn4)cn23)cc1 (protonated)
COc1ccc(-c2n[nH+]c3nnc(/C=C\c4cnccn4)cn23)cc1 (cis-trans isomerization)
COc1ccc(-c2n[nH+]c3nnc(/C=C\c4cnccn4)cn23)cc1 (3D coordinates assigned)
COc1ccc(-c2n[nH+]c3nnc(/C=C\c4cnccn4)cn23)cc1 (optimized conformer: 102.16369479942676 kcal/mol)

>  <smiles>  (34) 
COc1ccc(-c2nnc3nnc(C=Cc4cnccn4)cn23)cc1

>  <score_type>  (34) 
oracle

>  <origin>  (34) 
adg

>  <m_score__min__energy>  (34) 
-8.5099999999999998

>  <m_primary>  (34) 
energy

$$$$
34:0
     RDKit          3D

 35 36  0  0  0  0  0  0  0  0999 V2000
   -1.2960   21.3500  -30.9170 C   0  0  0  0  0  0  0  0  0  0  0  0
   -2.0700   21.8300  -29.6920 C   0  0  0  0  0  0  0  0  0  0  0  0
   -3.0100   22.9560  -30.0590 C   0  0  0  0  0  0  0  0  0  0  0  0
   -4.1370   22.6670  -30.8410 C   0  0  0  0  0  0  0  0  0  0  0  0
   -5.0110   23.6860  -31.2530 C   0  0  0  0  0  0  0  0  0  0  0  0
   -6.1610   23.4070  -32.0810 N   0  0  0  0  0  0  0  0  0  0  0  0
   -7.4470   22.9320  -31.5670 C   0  0  0  0  0  0  0  0  0  0  0  0
   -7.6820   21.4970  -31.9630 C   0  0  0  0  0  0  0  0  0  0  0  0
   -6.7010   20.7970  -32.6860 C   0  0  0  0  0  0  0  0  0  0  0  0
   -6.9090   19.4610  -33.0440 C   0  0  0  0  0  0  0  0  0  0  0  0
   -8.0970   18.8170  -32.6890 C   0  0  0  0  0  0  0  0  0  0  0  0
   -9.0810   19.5090  -31.9780 C   0  0  0  0  0  0  0  0  0  0  0  0
   -8.8790   20.8450  -31.6190 C   0  0  0  0  0  0  0  0  0  0  0  0
   -4.7370   25.0020  -30.8440 C   0  0  0  0  0  0  0  0  0  0  0  0
   -5.4970   25.9490  -31.1770 O   0  0  0  0  0  0  0  0  0  0  0  0
   -3.6370   25.2670  -30.0920 N   0  0  0  0  0  0  0  0  0  0  0  0
   -2.7640   24.3010  -29.7010 C   0  0  0  0  0  0  0  0  0  0  0  0
   -1.5780   24.7040  -28.8740 C   0  0  0  0  0  0  0  0  0  0  0  0
   -0.4028   20.7961  -30.5925 H   0  0  0  0  0  0  0  0  0  0  0  0
   -1.9371   20.6907  -31.5206 H   0  0  0  0  0  0  0  0  0  0  0  0
   -0.9904   22.2173  -31.5206 H   0  0  0  0  0  0  0  0  0  0  0  0
   -2.6533   20.9920  -29.2827 H   0  0  0  0  0  0  0  0  0  0  0  0
   -1.3530   22.1986  -28.9437 H   0  0  0  0  0  0  0  0  0  0  0  0
   -4.3397   21.6269  -31.1362 H   0  0  0  0  0  0  0  0  0  0  0  0
   -6.0640   23.4730  -33.1190 H   0  0  0  0  0  0  0  0  0  0  0  0
   -7.4477   23.0085  -30.4697 H   0  0  0  0  0  0  0  0  0  0  0  0
   -8.2491   23.5523  -31.9934 H   0  0  0  0  0  0  0  0  0  0  0  0
   -5.7662   21.3016  -32.9714 H   0  0  0  0  0  0  0  0  0  0  0  0
   -6.1360   18.9164  -33.6060 H   0  0  0  0  0  0  0  0  0  0  0  0
   -8.2577   17.7655  -32.9691 H   0  0  0  0  0  0  0  0  0  0  0  0
  -10.0165   19.0015  -31.7002 H   0  0  0  0  0  0  0  0  0  0  0  0
   -9.6593   21.3878  -31.0655 H   0  0  0  0  0  0  0  0  0  0  0  0
   -1.8293   24.6186  -27.8065 H   0  0  0  0  0  0  0  0  0  0  0  0
   -0.7288   24.0440  -29.1047 H   0  0  0  0  0  0  0  0  0  0  0  0
   -1.3067   25.7448  -29.1047 H   0  0  0  0  0  0  0  0  0  0  0  0
  1  2  1  0
  2  3  1  0
  3  4  1  0
  4  5  2  0
  5  6  1  0
  6  7  1  0
  7  8  1  0
  8  9  2  0
  9 10  1  0
 10 11  2  0
 11 12  1  0
 12 13  2  0
  5 14  1  0
 14 15  2  0
 14 16  1  0
 16 17  1  0
 17 18  1  0
 17  3  2  0
 13  8  1  0
  1 19  1  0
  1 20  1  0
  1 21  1  0
  2 22  1  0
  2 23  1  0
  4 24  1  0
  6 25  1  0
  7 26  1  0
  7 27  1  0
  9 28  1  0
 10 29  1  0
 11 30  1  0
 12 31  1  0
 13 32  1  0
 18 33  1  0
 18 34  1  0
 18 35  1  0
M  CHG  1  16  -1
M  END
>  <UniqueID>  (35) 
34

>  <SMILES>  (35) 
CCc1cc(NCc2ccccc2)c(=O)[n-]c1C

>  <Energy>  (35) 
32.53325960416495

>  <Genealogy>  (35) 
CCc1cc(NCc2ccccc2)c(=O)[n-]c1C (protonated)
CCc1cc(NCc2ccccc2)c(=O)[n-]c1C (3D coordinates assigned)
CCc1cc(NCc2ccccc2)c(=O)[n-]c1C (optimized conformer: 32.53325960416495 kcal/mol)

>  <smiles>  (35) 
CCc1cc(NCc2ccccc2)c(=O)[nH]c1C

>  <score_type>  (35) 
oracle

>  <origin>  (35) 
adg

>  <m_score__min__energy>  (35) 
-9.2300000000000004

>  <m_primary>  (35) 
energy

$$$$
35:0
     RDKit          3D

 47 50  0  0  0  0  0  0  0  0999 V2000
   -4.6480   25.1760  -31.1790 O   0  0  0  0  0  0  0  0  0  0  0  0
   -5.0830   24.1630  -30.6500 C   0  0  0  0  0  0  0  0  0  0  0  0
   -6.5060   24.1710  -30.1420 C   0  0  0  0  0  0  0  0  0  0  0  0
   -6.8400   22.9180  -29.5710 O   0  0  0  0  0  0  0  0  0  0  0  0
   -7.1450   21.9110  -30.5330 C   0  0  1  0  0  0  0  0  0  0  0  0
   -8.6510   21.9480  -30.8780 C   0  0  0  0  0  0  0  0  0  0  0  0
   -8.9460   21.5140  -32.3250 C   0  0  0  0  0  0  0  0  0  0  0  0
   -8.0990   20.3820  -32.7560 N   0  0  0  0  0  0  0  0  0  0  0  0
   -8.4660   19.1240  -32.0710 C   0  0  0  0  0  0  0  0  0  0  0  0
   -7.4080   18.0880  -32.2950 C   0  0  0  0  0  0  0  0  0  0  0  0
   -7.1930   17.3780  -33.4680 C   0  0  0  0  0  0  0  0  0  0  0  0
   -6.1510   16.4500  -33.3670 C   0  0  0  0  0  0  0  0  0  0  0  0
   -5.5470   16.4240  -32.1150 C   0  0  0  0  0  0  0  0  0  0  0  0
   -6.3130   17.5560  -31.1350 S   0  0  0  0  0  0  0  0  0  0  0  0
   -6.6390   20.6710  -32.6970 C   0  0  0  0  0  0  0  0  0  0  0  0
   -6.2640   21.8960  -31.8200 C   0  0  2  0  0  0  0  0  0  0  0  0
   -4.7310   21.9160  -31.5470 C   0  0  0  0  0  0  0  0  0  0  0  0
   -4.2880   22.9470  -30.5700 N   0  0  1  0  0  0  0  0  0  0  0  0
   -2.8200   23.1820  -30.5910 C   0  0  0  0  0  0  0  0  0  0  0  0
   -2.2830   23.9330  -29.3980 C   0  0  0  0  0  0  0  0  0  0  0  0
   -1.9240   23.3700  -28.1870 C   0  0  0  0  0  0  0  0  0  0  0  0
   -1.5030   24.4200  -27.4000 C   0  0  0  0  0  0  0  0  0  0  0  0
   -1.6380   25.5550  -28.1720 C   0  0  0  0  0  0  0  0  0  0  0  0
   -2.1070   25.2330  -29.3550 O   0  0  0  0  0  0  0  0  0  0  0  0
   -6.6127   24.9558  -29.3787 H   0  0  0  0  0  0  0  0  0  0  0  0
   -7.1825   24.3667  -30.9870 H   0  0  0  0  0  0  0  0  0  0  0  0
   -6.8872   20.9616  -30.0408 H   0  0  0  0  0  0  0  0  0  0  0  0
   -9.1844   21.2721  -30.1934 H   0  0  0  0  0  0  0  0  0  0  0  0
   -8.9882   22.9896  -30.7711 H   0  0  0  0  0  0  0  0  0  0  0  0
  -10.0016   21.2126  -32.3955 H   0  0  0  0  0  0  0  0  0  0  0  0
   -8.7265   22.3676  -32.9832 H   0  0  0  0  0  0  0  0  0  0  0  0
   -8.5670   19.3134  -30.9921 H   0  0  0  0  0  0  0  0  0  0  0  0
   -9.4201   18.7578  -32.4779 H   0  0  0  0  0  0  0  0  0  0  0  0
   -7.7823   17.5296  -34.3844 H   0  0  0  0  0  0  0  0  0  0  0  0
   -5.8391   15.8021  -34.1995 H   0  0  0  0  0  0  0  0  0  0  0  0
   -4.7111   15.7742  -31.8165 H   0  0  0  0  0  0  0  0  0  0  0  0
   -6.1291   19.7861  -32.2885 H   0  0  0  0  0  0  0  0  0  0  0  0
   -6.3241   20.9108  -33.7233 H   0  0  0  0  0  0  0  0  0  0  0  0
   -6.4817   22.8335  -32.3527 H   0  0  0  0  0  0  0  0  0  0  0  0
   -4.4388   20.9287  -31.1598 H   0  0  0  0  0  0  0  0  0  0  0  0
   -4.2479   22.1655  -32.5032 H   0  0  0  0  0  0  0  0  0  0  0  0
   -4.4610   22.5450  -29.6180 H   0  0  0  0  0  0  0  0  0  0  0  0
   -2.3174   22.2045  -30.6347 H   0  0  0  0  0  0  0  0  0  0  0  0
   -2.6196   23.8124  -31.4699 H   0  0  0  0  0  0  0  0  0  0  0  0
   -1.9658   22.3063  -27.9098 H   0  0  0  0  0  0  0  0  0  0  0  0
   -1.1339   24.3642  -26.3653 H   0  0  0  0  0  0  0  0  0  0  0  0
   -1.3901   26.5758  -27.8457 H   0  0  0  0  0  0  0  0  0  0  0  0
  1  2  2  0
  2  3  1  0
  3  4  1  0
  4  5  1  0
  5  6  1  0
  6  7  1  0
  7  8  1  0
  8  9  1  0
  9 10  1  0
 10 11  2  0
 11 12  1  0
 12 13  2  0
 13 14  1  0
  8 15  1  0
 15 16  1  0
 16 17  1  0
 17 18  1  0
 18 19  1  0
 19 20  1  0
 20 21  2  0
 21 22  1  0
 22 23  2  0
 23 24  1  0
 18  2  1  0
 24 20  1  0
 16  5  1  0
 14 10  1  0
  3 25  1  0
  3 26  1  0
  5 27  1  1
  6 28  1  0
  6 29  1  0
  7 30  1  0
  7 31  1  0
  9 32  1  0
  9 33  1  0
 11 34  1  0
 12 35  1  0
 13 36  1  0
 15 37  1  0
 15 38  1  0
 16 39  1  6
 17 40  1  0
 17 41  1  0
 18 42  1  1
 19 43  1  0
 19 44  1  0
 21 45  1  0
 22 46  1  0
 23 47  1  0
M  CHG  1  18   1
M  END
>  <UniqueID>  (36) 
35

>  <SMILES>  (36) 
O=C1CO[C@H]2CCN(Cc3cccs3)C[C@@H]2C[NH+]1Cc1ccco1

>  <Energy>  (36) 
132.5245988098873

>  <Genealogy>  (36) 
O=C1COC2CCN(Cc3cccs3)CC2C[NH+]1Cc1ccco1 (protonated)
O=C1CO[C@H]2CCN(Cc3cccs3)C[C@@H]2C[NH+]1Cc1ccco1 (chirality)
O=C1CO[C@H]2CCN(Cc3cccs3)C[C@@H]2C[NH+]1Cc1ccco1 (3D coordinates assigned)
O=C1CO[C@H]2CCN(Cc3cccs3)C[C@@H]2C[NH+]1Cc1ccco1 (nonaromatic ring conformer: 132.5245988098873 kcal/mol)

>  <smiles>  (36) 
O=C1COC2CCN(Cc3cccs3)CC2CN1Cc1ccco1

>  <score_type>  (36) 
oracle

>  <origin>  (36) 
adg

>  <m_score__min__energy>  (36) 
-6.7400000000000002

>  <m_primary>  (36) 
energy

$$$$
36:0
     RDKit          3D

 14 15  0  0  0  0  0  0  0  0999 V2000
   -6.4920   25.6700  -29.5440 C   0  0  0  0  0  0  0  0  0  0  0  0
   -5.8360   24.6940  -30.4600 C   0  0  0  0  0  0  0  0  0  0  0  0
   -4.5290   24.7330  -30.8330 N   0  0  0  0  0  0  0  0  0  0  0  0
   -4.2870   23.6600  -31.5910 N   0  0  0  0  0  0  0  0  0  0  0  0
   -5.4580   23.0050  -31.6410 C   0  0  0  0  0  0  0  0  0  0  0  0
   -5.9490   21.5680  -32.3520 S   0  0  0  0  0  0  0  0  0  0  0  0
   -7.5280   21.7720  -31.7060 C   0  0  0  0  0  0  0  0  0  0  0  0
   -8.9670   20.5500  -31.9650 Br  0  0  0  0  0  0  0  0  0  0  0  0
   -7.5990   22.9560  -30.9570 C   0  0  0  0  0  0  0  0  0  0  0  0
   -6.4130   23.5970  -30.9630 N   0  0  0  0  0  0  0  0  0  0  0  0
   -6.2979   25.3811  -28.5005 H   0  0  0  0  0  0  0  0  0  0  0  0
   -6.0857   26.6756  -29.7278 H   0  0  0  0  0  0  0  0  0  0  0  0
   -7.5765   25.6735  -29.7278 H   0  0  0  0  0  0  0  0  0  0  0  0
   -8.4996   23.3128  -30.4358 H   0  0  0  0  0  0  0  0  0  0  0  0
  1  2  1  0
  2  3  2  0
  3  4  1  0
  4  5  2  0
  5  6  1  0
  6  7  1  0
  7  8  1  0
  7  9  2  0
  9 10  1  0
 10  2  1  0
 10  5  1  0
  1 11  1  0
  1 12  1  0
  1 13  1  0
  9 14  1  0
M  END
>  <UniqueID>  (37) 
36

>  <SMILES>  (37) 
Cc1nnc2sc(Br)cn12

>  <Energy>  (37) 
99.57025983870076

>  <Genealogy>  (37) 
Cc1nnc2sc(Br)cn12 (3D coordinates assigned)
Cc1nnc2sc(Br)cn12 (optimized conformer: 99.57025983870076 kcal/mol)

>  <smiles>  (37) 
Cc1nnc2sc(Br)cn12

>  <score_type>  (37) 
oracle

>  <origin>  (37) 
adg

>  <m_score__min__energy>  (37) 
-5.9900000000000002

>  <m_primary>  (37) 
energy

$$$$
37:0
     RDKit          3D

 44 47  0  0  0  0  0  0  0  0999 V2000
   -0.7910   20.9980  -31.4020 C   0  0  0  0  0  0  0  0  0  0  0  0
   -0.1410   21.1220  -30.1410 O   0  0  0  0  0  0  0  0  0  0  0  0
   -0.6380   20.6050  -28.9340 C   0  0  0  0  0  0  0  0  0  0  0  0
   -0.5320   19.2370  -28.6120 C   0  0  0  0  0  0  0  0  0  0  0  0
   -1.0590   18.7510  -27.4130 C   0  0  0  0  0  0  0  0  0  0  0  0
   -1.6920   19.6170  -26.5240 C   0  0  0  0  0  0  0  0  0  0  0  0
   -1.8010   20.9750  -26.8290 C   0  0  0  0  0  0  0  0  0  0  0  0
   -1.2770   21.4790  -28.0300 C   0  0  0  0  0  0  0  0  0  0  0  0
   -1.3910   22.8800  -28.3280 N   0  0  0  0  0  0  0  0  0  0  0  0
   -0.4100   23.7220  -28.7030 C   0  0  0  0  0  0  0  0  0  0  0  0
   -0.8890   24.9650  -28.9050 N   0  0  0  0  0  0  0  0  0  0  0  0
   -2.1920   24.9270  -28.6660 N   0  0  0  0  0  0  0  0  0  0  0  0
   -2.4880   23.6610  -28.3170 C   0  0  0  0  0  0  0  0  0  0  0  0
   -4.1550   23.0990  -27.9560 S   0  0  0  0  0  0  0  0  0  0  0  0
   -4.9880   24.4150  -28.9140 C   0  0  0  0  0  0  0  0  0  0  0  0
   -4.5960   24.3580  -30.3620 C   0  0  0  0  0  0  0  0  0  0  0  0
   -3.9150   25.3020  -30.8440 O   0  0  0  0  0  0  0  0  0  0  0  0
   -4.8770   23.2100  -31.1810 N   0  0  0  0  0  0  0  0  0  0  0  0
   -3.8250   22.4120  -31.8140 C   0  0  0  0  0  0  0  0  0  0  0  0
   -4.5210   21.1560  -32.3860 C   0  0  0  0  0  0  0  0  0  0  0  0
   -5.9600   21.3990  -32.0980 C   0  0  0  0  0  0  0  0  0  0  0  0
   -7.0510   20.6170  -32.4840 C   0  0  0  0  0  0  0  0  0  0  0  0
   -8.3420   21.0670  -32.1720 C   0  0  0  0  0  0  0  0  0  0  0  0
   -8.5210   22.2920  -31.5030 C   0  0  0  0  0  0  0  0  0  0  0  0
   -7.4090   23.0650  -31.1330 C   0  0  0  0  0  0  0  0  0  0  0  0
   -6.1280   22.5750  -31.4160 C   0  0  0  0  0  0  0  0  0  0  0  0
   -1.8604   20.7940  -31.2448 H   0  0  0  0  0  0  0  0  0  0  0  0
   -0.6756   21.9343  -31.9676 H   0  0  0  0  0  0  0  0  0  0  0  0
   -0.3390   20.1699  -31.9676 H   0  0  0  0  0  0  0  0  0  0  0  0
   -0.0316   18.5482  -29.3086 H   0  0  0  0  0  0  0  0  0  0  0  0
   -0.9739   17.6815  -27.1701 H   0  0  0  0  0  0  0  0  0  0  0  0
   -2.1062   19.2305  -25.5811 H   0  0  0  0  0  0  0  0  0  0  0  0
   -2.3009   21.6548  -26.1234 H   0  0  0  0  0  0  0  0  0  0  0  0
    0.6440   23.4332  -28.8281 H   0  0  0  0  0  0  0  0  0  0  0  0
   -6.0772   24.2855  -28.8310 H   0  0  0  0  0  0  0  0  0  0  0  0
   -4.6832   25.3905  -28.5070 H   0  0  0  0  0  0  0  0  0  0  0  0
   -3.3467   22.9843  -32.6225 H   0  0  0  0  0  0  0  0  0  0  0  0
   -3.0391   22.1414  -31.0935 H   0  0  0  0  0  0  0  0  0  0  0  0
   -4.3456   21.0671  -33.4683 H   0  0  0  0  0  0  0  0  0  0  0  0
   -4.1469   20.2196  -31.9464 H   0  0  0  0  0  0  0  0  0  0  0  0
   -6.9008   19.6688  -33.0210 H   0  0  0  0  0  0  0  0  0  0  0  0
   -9.2167   20.4611  -32.4508 H   0  0  0  0  0  0  0  0  0  0  0  0
   -9.5361   22.6453  -31.2691 H   0  0  0  0  0  0  0  0  0  0  0  0
   -7.5411   24.0350  -30.6314 H   0  0  0  0  0  0  0  0  0  0  0  0
  1  2  1  0
  2  3  1  0
  3  4  2  0
  4  5  1  0
  5  6  2  0
  6  7  1  0
  7  8  2  0
  8  9  1  0
  9 10  1  0
 10 11  2  0
 11 12  1  0
 12 13  2  0
 13 14  1  0
 14 15  1  0
 15 16  1  0
 16 17  2  0
 16 18  1  0
 18 19  1  0
 19 20  1  0
 20 21  1  0
 21 22  2  0
 22 23  1  0
 23 24  2  0
 24 25  1  0
 25 26  2  0
  8  3  1  0
 13  9  1  0
 26 18  1  0
 26 21  1  0
  1 27  1  0
  1 28  1  0
  1 29  1  0
  4 30  1  0
  5 31  1  0
  6 32  1  0
  7 33  1  0
 10 34  1  0
 15 35  1  0
 15 36  1  0
 19 37  1  0
 19 38  1  0
 20 39  1  0
 20 40  1  0
 22 41  1  0
 23 42  1  0
 24 43  1  0
 25 44  1  0
M  END
>  <UniqueID>  (38) 
37

>  <SMILES>  (38) 
COc1ccccc1-n1cnnc1SCC(=O)N1CCc2ccccc21

>  <Energy>  (38) 
102.4222017564603

>  <Genealogy>  (38) 
COc1ccccc1-n1cnnc1SCC(=O)N1CCc2ccccc21 (3D coordinates assigned)
COc1ccccc1-n1cnnc1SCC(=O)N1CCc2ccccc21 (nonaromatic ring conformer: 102.4222017564603 kcal/mol)

>  <smiles>  (38) 
COc1ccccc1-n1cnnc1SCC(=O)N1CCc2ccccc21

>  <score_type>  (38) 
oracle

>  <origin>  (38) 
adg

>  <m_score__min__energy>  (38) 
-9.1199999999999992

>  <m_primary>  (38) 
energy

$$$$
38:0
     RDKit          3D

 46 48  0  0  0  0  0  0  0  0999 V2000
   -3.5320   16.6850  -34.2360 C   0  0  0  0  0  0  0  0  0  0  0  0
   -4.6880   17.2680  -34.8290 O   0  0  0  0  0  0  0  0  0  0  0  0
   -5.6810   17.9620  -34.1200 C   0  0  0  0  0  0  0  0  0  0  0  0
   -5.8170   19.3620  -34.2010 C   0  0  0  0  0  0  0  0  0  0  0  0
   -6.8090   20.0200  -33.4730 C   0  0  0  0  0  0  0  0  0  0  0  0
   -7.6750   19.2980  -32.6430 C   0  0  0  0  0  0  0  0  0  0  0  0
   -8.7420   20.0220  -31.9160 C   0  0  0  0  0  0  0  0  0  0  0  0
   -8.5530   21.0340  -31.0530 C   0  0  0  0  0  0  0  0  0  0  0  0
   -8.3880   22.4570  -31.4370 C   0  0  0  0  0  0  0  0  0  0  0  0
   -9.3230   23.0500  -32.0420 O   0  0  0  0  0  0  0  0  0  0  0  0
   -7.1500   23.2140  -31.1200 C   0  0  0  0  0  0  0  0  0  0  0  0
   -5.9020   22.6950  -31.5120 C   0  0  0  0  0  0  0  0  0  0  0  0
   -4.7210   23.3820  -31.2170 C   0  0  0  0  0  0  0  0  0  0  0  0
   -4.7590   24.5950  -30.5220 C   0  0  0  0  0  0  0  0  0  0  0  0
   -3.5210   25.2730  -30.2550 N   0  0  0  0  0  0  0  0  0  0  0  0
   -2.4930   24.8570  -29.3470 C   0  0  0  0  0  0  0  0  0  0  0  0
   -1.6080   25.6680  -28.9610 O   0  0  0  0  0  0  0  0  0  0  0  0
   -2.5050   23.4890  -28.8150 C   0  0  0  0  0  0  0  0  0  0  0  0
   -1.5220   22.5250  -29.0150 C   0  0  0  0  0  0  0  0  0  0  0  0
   -1.8020   21.3110  -28.3770 C   0  0  0  0  0  0  0  0  0  0  0  0
   -3.0010   21.3120  -27.6770 C   0  0  0  0  0  0  0  0  0  0  0  0
   -3.7130   22.8250  -27.8520 S   0  0  0  0  0  0  0  0  0  0  0  0
   -6.0030   25.1390  -30.1620 C   0  0  0  0  0  0  0  0  0  0  0  0
   -7.1860   24.4520  -30.4510 C   0  0  0  0  0  0  0  0  0  0  0  0
   -7.5700   17.8980  -32.5920 C   0  0  0  0  0  0  0  0  0  0  0  0
   -6.5620   17.2280  -33.3110 C   0  0  0  0  0  0  0  0  0  0  0  0
   -6.4040   15.8340  -33.2470 O   0  0  0  0  0  0  0  0  0  0  0  0
   -6.8780   14.9210  -34.2320 C   0  0  0  0  0  0  0  0  0  0  0  0
   -3.6200   16.7294  -33.1404 H   0  0  0  0  0  0  0  0  0  0  0  0
   -3.4460   15.6357  -34.5548 H   0  0  0  0  0  0  0  0  0  0  0  0
   -2.6371   17.2396  -34.5548 H   0  0  0  0  0  0  0  0  0  0  0  0
   -5.1362   19.9405  -34.8428 H   0  0  0  0  0  0  0  0  0  0  0  0
   -6.9112   21.1124  -33.5517 H   0  0  0  0  0  0  0  0  0  0  0  0
   -9.7791   19.7039  -32.0981 H   0  0  0  0  0  0  0  0  0  0  0  0
   -8.5180   20.7889  -29.9812 H   0  0  0  0  0  0  0  0  0  0  0  0
   -5.8555   21.7398  -32.0556 H   0  0  0  0  0  0  0  0  0  0  0  0
   -3.7537   22.9651  -31.5341 H   0  0  0  0  0  0  0  0  0  0  0  0
   -0.6161   22.6993  -29.6141 H   0  0  0  0  0  0  0  0  0  0  0  0
   -1.1346   20.4380  -28.4257 H   0  0  0  0  0  0  0  0  0  0  0  0
   -3.4143   20.4676  -27.1058 H   0  0  0  0  0  0  0  0  0  0  0  0
   -6.0468   26.1114  -29.6496 H   0  0  0  0  0  0  0  0  0  0  0  0
   -8.1533   24.8827  -30.1530 H   0  0  0  0  0  0  0  0  0  0  0  0
   -8.2820   17.3199  -31.9846 H   0  0  0  0  0  0  0  0  0  0  0  0
   -7.3305   14.0494  -33.7365 H   0  0  0  0  0  0  0  0  0  0  0  0
   -7.6319   15.4181  -34.8601 H   0  0  0  0  0  0  0  0  0  0  0  0
   -6.0377   14.5904  -34.8601 H   0  0  0  0  0  0  0  0  0  0  0  0
  1  2  1  0
  2  3  1  0
  3  4  2  0
  4  5  1  0
  5  6  2  0
  6  7  1  0
  7  8  2  3
  8  9  1  0
  9 10  2  0
  9 11  1  0
 11 12  2  0
 12 13  1  0
 13 14  2  0
 14 15  1  0
 15 16  1  0
 16 17  2  0
 16 18  1  0
 18 19  2  0
 19 20  1  0
 20 21  2  0
 21 22  1  0
 14 23  1  0
 23 24  2  0
  6 25  1  0
 25 26  2  0
 26 27  1  0
 27 28  1  0
 26  3  1  0
 24 11  1  0
 22 18  1  0
  1 29  1  0
  1 30  1  0
  1 31  1  0
  4 32  1  0
  5 33  1  0
  7 34  1  0
  8 35  1  0
 12 36  1  0
 13 37  1  0
 19 38  1  0
 20 39  1  0
 21 40  1  0
 23 41  1  0
 24 42  1  0
 25 43  1  0
 28 44  1  0
 28 45  1  0
 28 46  1  0
M  CHG  1  15  -1
M  END
>  <UniqueID>  (39) 
38

>  <SMILES>  (39) 
COc1ccc(C=CC(=O)c2ccc([N-]C(=O)c3cccs3)cc2)cc1OC

>  <Energy>  (39) 
87.34838743684328

>  <Genealogy>  (39) 
COc1ccc(C=CC(=O)c2ccc([N-]C(=O)c3cccs3)cc2)cc1OC (protonated)
COc1ccc(C=CC(=O)c2ccc([N-]C(=O)c3cccs3)cc2)cc1OC (3D coordinates assigned)
COc1ccc(C=CC(=O)c2ccc([N-]C(=O)c3cccs3)cc2)cc1OC (optimized conformer: 87.34838743684328 kcal/mol)

>  <smiles>  (39) 
COc1ccc(C=CC(=O)c2ccc(NC(=O)c3cccs3)cc2)cc1OC

>  <score_type>  (39) 
oracle

>  <origin>  (39) 
adg

>  <m_score__min__energy>  (39) 
-11.01

>  <m_primary>  (39) 
energy

$$$$
39:0
     RDKit          3D

 35 37  0  0  0  0  0  0  0  0999 V2000
   -2.2530   24.5760  -29.0160 C   0  0  0  0  0  0  0  0  0  0  0  0
   -3.2240   25.1020  -29.9140 O   0  0  0  0  0  0  0  0  0  0  0  0
   -4.4270   24.4600  -30.2490 C   0  0  0  0  0  0  0  0  0  0  0  0
   -5.5970   24.8760  -29.6100 C   0  0  0  0  0  0  0  0  0  0  0  0
   -6.8200   24.2690  -29.8960 C   0  0  0  0  0  0  0  0  0  0  0  0
   -6.8920   23.2320  -30.8360 C   0  0  0  0  0  0  0  0  0  0  0  0
   -8.1210   22.6160  -31.1120 C   0  0  0  0  0  0  0  0  0  0  0  0
   -8.1960   21.5850  -32.0460 C   0  0  0  0  0  0  0  0  0  0  0  0
   -7.0480   21.1590  -32.7160 C   0  0  0  0  0  0  0  0  0  0  0  0
   -5.8030   21.7520  -32.4540 C   0  0  0  0  0  0  0  0  0  0  0  0
   -4.6460   21.3300  -33.1960 N   0  0  0  0  0  0  0  0  0  0  0  0
   -3.5640   20.5910  -32.6010 C   0  0  0  0  0  0  0  0  0  0  0  0
   -3.6390   20.2340  -31.3940 O   0  0  0  0  0  0  0  0  0  0  0  0
   -2.3550   20.2430  -33.3840 C   0  0  0  0  0  0  0  0  0  0  0  0
   -2.1790   18.9310  -33.8570 C   0  0  0  0  0  0  0  0  0  0  0  0
   -1.0350   18.6070  -34.5880 C   0  0  0  0  0  0  0  0  0  0  0  0
   -0.0900   19.5510  -34.8340 N   0  0  0  0  0  0  0  0  0  0  0  0
   -0.2250   20.8250  -34.3800 C   0  0  0  0  0  0  0  0  0  0  0  0
   -1.3540   21.1940  -33.6450 C   0  0  0  0  0  0  0  0  0  0  0  0
   -5.7180   22.8030  -31.5080 C   0  0  0  0  0  0  0  0  0  0  0  0
   -4.4890   23.4190  -31.1960 C   0  0  0  0  0  0  0  0  0  0  0  0
   -2.5782   24.7522  -27.9800 H   0  0  0  0  0  0  0  0  0  0  0  0
   -2.1430   23.4950  -29.1870 H   0  0  0  0  0  0  0  0  0  0  0  0
   -1.2874   25.0744  -29.1870 H   0  0  0  0  0  0  0  0  0  0  0  0
   -5.5537   25.6914  -28.8729 H   0  0  0  0  0  0  0  0  0  0  0  0
   -7.7320   24.6058  -29.3814 H   0  0  0  0  0  0  0  0  0  0  0  0
   -9.0298   22.9482  -30.5888 H   0  0  0  0  0  0  0  0  0  0  0  0
   -9.1632   21.1051  -32.2562 H   0  0  0  0  0  0  0  0  0  0  0  0
   -7.1197   20.3497  -33.4575 H   0  0  0  0  0  0  0  0  0  0  0  0
   -4.6080   21.5750  -34.2090 H   0  0  0  0  0  0  0  0  0  0  0  0
   -2.9395   18.1631  -33.6519 H   0  0  0  0  0  0  0  0  0  0  0  0
   -0.8982   17.5832  -34.9663 H   0  0  0  0  0  0  0  0  0  0  0  0
    0.5577   21.5682  -34.5922 H   0  0  0  0  0  0  0  0  0  0  0  0
   -1.4590   22.2237  -33.2724 H   0  0  0  0  0  0  0  0  0  0  0  0
   -3.5691   23.0834  -31.6971 H   0  0  0  0  0  0  0  0  0  0  0  0
  1  2  1  0
  2  3  1  0
  3  4  2  0
  4  5  1  0
  5  6  2  0
  6  7  1  0
  7  8  2  0
  8  9  1  0
  9 10  2  0
 10 11  1  0
 11 12  1  0
 12 13  2  0
 12 14  1  0
 14 15  2  0
 15 16  1  0
 16 17  2  0
 17 18  1  0
 18 19  2  0
 10 20  1  0
 20 21  2  0
 21  3  1  0
 20  6  1  0
 19 14  1  0
  1 22  1  0
  1 23  1  0
  1 24  1  0
  4 25  1  0
  5 26  1  0
  7 27  1  0
  8 28  1  0
  9 29  1  0
 11 30  1  0
 15 31  1  0
 16 32  1  0
 18 33  1  0
 19 34  1  0
 21 35  1  0
M  END
>  <UniqueID>  (40) 
39

>  <SMILES>  (40) 
COc1ccc2cccc(NC(=O)c3ccncc3)c2c1

>  <Energy>  (40) 
49.81248515488822

>  <Genealogy>  (40) 
COc1ccc2cccc(NC(=O)c3ccncc3)c2c1 (3D coordinates assigned)
COc1ccc2cccc(NC(=O)c3ccncc3)c2c1 (optimized conformer: 49.81248515488822 kcal/mol)

>  <smiles>  (40) 
COc1ccc2cccc(NC(=O)c3ccncc3)c2c1

>  <score_type>  (40) 
oracle

>  <origin>  (40) 
adg

>  <m_score__min__energy>  (40) 
-7.5800000000000001

>  <m_primary>  (40) 
energy

$$$$
40:0
     RDKit          3D

 46 49  0  0  0  0  0  0  0  0999 V2000
   -6.6310   16.8890  -33.5170 C   0  0  0  0  0  0  0  0  0  0  0  0
   -7.6070   17.7680  -32.9650 O   0  0  0  0  0  0  0  0  0  0  0  0
   -7.3790   19.1180  -32.6520 C   0  0  0  0  0  0  0  0  0  0  0  0
   -6.1070   19.5930  -32.2760 C   0  0  0  0  0  0  0  0  0  0  0  0
   -5.8810   20.9630  -32.0160 C   0  0  0  0  0  0  0  0  0  0  0  0
   -7.0100   21.8140  -31.9530 C   0  0  0  0  0  0  0  0  0  0  0  0
   -6.8790   23.1100  -31.4590 C   0  0  0  0  0  0  0  0  0  0  0  0
   -5.6700   23.5430  -30.9330 C   0  0  0  0  0  0  0  0  0  0  0  0
   -4.5170   22.7300  -30.9900 C   0  0  0  0  0  0  0  0  0  0  0  0
   -3.2810   23.1190  -30.3990 C   0  0  0  0  0  0  0  0  0  0  0  0
   -3.1520   24.2360  -29.5380 C   0  0  0  0  0  0  0  0  0  0  0  0
   -1.9110   24.5770  -28.9660 C   0  0  0  0  0  0  0  0  0  0  0  0
   -1.7600   25.6840  -28.1140 O   0  0  0  0  0  0  0  0  0  0  0  0
   -1.9320   25.6520  -26.7010 C   0  0  0  0  0  0  0  0  0  0  0  0
   -0.7830   23.7980  -29.2390 C   0  0  0  0  0  0  0  0  0  0  0  0
    0.4400   24.1690  -28.6560 O   0  0  0  0  0  0  0  0  0  0  0  0
    0.9060   23.7060  -27.3920 C   0  0  0  0  0  0  0  0  0  0  0  0
   -0.9000   22.6770  -30.0760 C   0  0  0  0  0  0  0  0  0  0  0  0
   -2.1370   22.3340  -30.6440 C   0  0  0  0  0  0  0  0  0  0  0  0
   -2.2210   21.2380  -31.4990 C   0  0  0  0  0  0  0  0  0  0  0  0
   -3.4040   20.8740  -32.0740 N   0  0  0  0  0  0  0  0  0  0  0  0
   -3.2980   19.9480  -33.2160 C   0  0  0  0  0  0  0  0  0  0  0  0
   -4.5860   21.4900  -31.6980 C   0  0  0  0  0  0  0  0  0  0  0  0
   -8.2740   21.3470  -32.3420 C   0  0  0  0  0  0  0  0  0  0  0  0
   -8.4570   20.0140  -32.7060 C   0  0  0  0  0  0  0  0  0  0  0  0
   -9.7290   19.5900  -33.0950 O   0  0  0  0  0  0  0  0  0  0  0  0
   -6.0813   16.3939  -32.7030 H   0  0  0  0  0  0  0  0  0  0  0  0
   -7.1302   16.1298  -34.1371 H   0  0  0  0  0  0  0  0  0  0  0  0
   -5.9281   17.4646  -34.1371 H   0  0  0  0  0  0  0  0  0  0  0  0
   -5.2726   18.8823  -32.1830 H   0  0  0  0  0  0  0  0  0  0  0  0
   -7.7396   23.7946  -31.4861 H   0  0  0  0  0  0  0  0  0  0  0  0
   -5.6089   24.5361  -30.4639 H   0  0  0  0  0  0  0  0  0  0  0  0
   -4.0373   24.8485  -29.3119 H   0  0  0  0  0  0  0  0  0  0  0  0
   -0.9644   25.8320  -26.2097 H   0  0  0  0  0  0  0  0  0  0  0  0
   -2.6465   26.4326  -26.4008 H   0  0  0  0  0  0  0  0  0  0  0  0
   -2.3180   24.6666  -26.4008 H   0  0  0  0  0  0  0  0  0  0  0  0
    0.3731   24.2354  -26.5884 H   0  0  0  0  0  0  0  0  0  0  0  0
    0.7193   22.6254  -27.3058 H   0  0  0  0  0  0  0  0  0  0  0  0
    1.9854   23.8997  -27.3058 H   0  0  0  0  0  0  0  0  0  0  0  0
   -0.0136   22.0614  -30.2888 H   0  0  0  0  0  0  0  0  0  0  0  0
   -1.3147   20.6533  -31.7155 H   0  0  0  0  0  0  0  0  0  0  0  0
   -3.1803   18.9194  -32.8443 H   0  0  0  0  0  0  0  0  0  0  0  0
   -4.2096   20.0146  -33.8279 H   0  0  0  0  0  0  0  0  0  0  0  0
   -2.4250   20.2189  -33.8279 H   0  0  0  0  0  0  0  0  0  0  0  0
   -9.1288   22.0391  -32.3600 H   0  0  0  0  0  0  0  0  0  0  0  0
   -9.8690   18.9130  -33.8350 H   0  0  0  0  0  0  0  0  0  0  0  0
  1  2  1  0
  2  3  1  0
  3  4  2  0
  4  5  1  0
  5  6  2  0
  6  7  1  0
  7  8  2  0
  8  9  1  0
  9 10  2  0
 10 11  1  0
 11 12  2  0
 12 13  1  0
 13 14  1  0
 12 15  1  0
 15 16  1  0
 16 17  1  0
 15 18  2  0
 18 19  1  0
 19 20  2  0
 20 21  1  0
 21 22  1  0
 21 23  2  0
  6 24  1  0
 24 25  2  0
 25 26  1  0
 25  3  1  0
 23  5  1  0
 23  9  1  0
 19 10  1  0
  1 27  1  0
  1 28  1  0
  1 29  1  0
  4 30  1  0
  7 31  1  0
  8 32  1  0
 11 33  1  0
 14 34  1  0
 14 35  1  0
 14 36  1  0
 17 37  1  0
 17 38  1  0
 17 39  1  0
 18 40  1  0
 20 41  1  0
 22 42  1  0
 22 43  1  0
 22 44  1  0
 24 45  1  0
 26 46  1  0
M  CHG  1  21   1
M  END
>  <UniqueID>  (41) 
40

>  <SMILES>  (41) 
COc1cc2c(ccc3c4cc(OC)c(OC)cc4c[n+](C)c23)cc1O

>  <Energy>  (41) 
83.66722383482096

>  <Genealogy>  (41) 
COc1cc2c(ccc3c4cc(OC)c(OC)cc4c[n+](C)c23)cc1O (3D coordinates assigned)
COc1cc2c(ccc3c4cc(OC)c(OC)cc4c[n+](C)c23)cc1O (optimized conformer: 83.66722383482096 kcal/mol)

>  <smiles>  (41) 
COc1cc2c(ccc3c4cc(OC)c(OC)cc4c[n+](C)c23)cc1O

>  <score_type>  (41) 
oracle

>  <origin>  (41) 
adg

>  <m_score__min__energy>  (41) 
-7.5

>  <m_primary>  (41) 
energy

$$$$
41:0
     RDKit          3D

 37 39  0  0  0  0  0  0  0  0999 V2000
   -1.2370   20.5890  -27.6260 C   0  0  0  0  0  0  0  0  0  0  0  0
   -2.1650   21.6150  -28.2060 C   0  0  0  0  0  0  0  0  0  0  0  0
   -3.4680   21.7560  -27.7010 C   0  0  0  0  0  0  0  0  0  0  0  0
   -4.3450   22.6850  -28.2650 C   0  0  0  0  0  0  0  0  0  0  0  0
   -3.9360   23.4730  -29.3500 C   0  0  0  0  0  0  0  0  0  0  0  0
   -5.0340   24.6500  -30.0590 S   0  0  0  0  0  0  0  0  0  0  0  0
   -5.8020   25.3330  -28.9630 O   0  0  0  0  0  0  0  0  0  0  0  0
   -4.2430   25.6620  -30.8390 O   0  0  0  0  0  0  0  0  0  0  0  0
   -6.1180   23.8490  -31.1140 O   0  0  0  0  0  0  0  0  0  0  0  0
   -5.8280   22.6850  -31.8420 C   0  0  0  0  0  0  0  0  0  0  0  0
   -4.5390   22.4240  -32.3470 C   0  0  0  0  0  0  0  0  0  0  0  0
   -4.2910   21.2710  -33.0930 C   0  0  0  0  0  0  0  0  0  0  0  0
   -5.3190   20.3630  -33.3470 C   0  0  0  0  0  0  0  0  0  0  0  0
   -6.6040   20.5980  -32.8440 C   0  0  0  0  0  0  0  0  0  0  0  0
   -6.8620   21.7550  -32.0760 C   0  0  0  0  0  0  0  0  0  0  0  0
   -8.2790   22.0440  -31.6250 C   0  0  0  0  0  0  0  0  0  0  0  0
   -9.0620   20.7620  -31.3120 C   0  0  0  0  0  0  0  0  0  0  0  0
   -8.9050   19.7610  -32.4160 C   0  0  0  0  0  0  0  0  0  0  0  0
   -9.8450   18.9670  -32.6890 O   0  0  0  0  0  0  0  0  0  0  0  0
   -7.6570   19.6590  -33.1060 N   0  0  0  0  0  0  0  0  0  0  0  0
   -2.6410   23.3260  -29.8630 C   0  0  0  0  0  0  0  0  0  0  0  0
   -1.7630   22.3950  -29.3000 C   0  0  0  0  0  0  0  0  0  0  0  0
   -1.2792   20.6356  -26.5278 H   0  0  0  0  0  0  0  0  0  0  0  0
   -1.5418   19.5870  -27.9624 H   0  0  0  0  0  0  0  0  0  0  0  0
   -0.2096   20.7920  -27.9624 H   0  0  0  0  0  0  0  0  0  0  0  0
   -3.7991   21.1321  -26.8577 H   0  0  0  0  0  0  0  0  0  0  0  0
   -5.3600   22.7988  -27.8566 H   0  0  0  0  0  0  0  0  0  0  0  0
   -3.7220   23.1343  -32.1519 H   0  0  0  0  0  0  0  0  0  0  0  0
   -3.2806   21.0774  -33.4824 H   0  0  0  0  0  0  0  0  0  0  0  0
   -5.1195   19.4607  -33.9437 H   0  0  0  0  0  0  0  0  0  0  0  0
   -8.2421   22.6664  -30.7188 H   0  0  0  0  0  0  0  0  0  0  0  0
   -8.7952   22.5621  -32.4466 H   0  0  0  0  0  0  0  0  0  0  0  0
   -8.6837   20.3279  -30.3748 H   0  0  0  0  0  0  0  0  0  0  0  0
  -10.1281   21.0146  -31.2134 H   0  0  0  0  0  0  0  0  0  0  0  0
   -7.5090   18.8770  -33.7840 H   0  0  0  0  0  0  0  0  0  0  0  0
   -2.3138   23.9449  -30.7114 H   0  0  0  0  0  0  0  0  0  0  0  0
   -0.7523   22.2737  -29.7170 H   0  0  0  0  0  0  0  0  0  0  0  0
  1  2  1  0
  2  3  2  0
  3  4  1  0
  4  5  2  0
  5  6  1  0
  6  7  2  0
  6  8  2  0
  6  9  1  0
  9 10  1  0
 10 11  2  0
 11 12  1  0
 12 13  2  0
 13 14  1  0
 14 15  2  0
 15 16  1  0
 16 17  1  0
 17 18  1  0
 18 19  2  0
 18 20  1  0
  5 21  1  0
 21 22  2  0
 22  2  1  0
 15 10  1  0
 20 14  1  0
  1 23  1  0
  1 24  1  0
  1 25  1  0
  3 26  1  0
  4 27  1  0
 11 28  1  0
 12 29  1  0
 13 30  1  0
 16 31  1  0
 16 32  1  0
 17 33  1  0
 17 34  1  0
 20 35  1  0
 21 36  1  0
 22 37  1  0
M  END
>  <UniqueID>  (42) 
41

>  <SMILES>  (42) 
Cc1ccc(S(=O)(=O)Oc2cccc3c2CCC(=O)N3)cc1

>  <Energy>  (42) 
39.1236722366689

>  <Genealogy>  (42) 
Cc1ccc(S(=O)(=O)Oc2cccc3c2CCC(=O)N3)cc1 (3D coordinates assigned)
Cc1ccc(S(=O)(=O)Oc2cccc3c2CCC(=O)N3)cc1 (nonaromatic ring conformer: 39.1236722366689 kcal/mol)

>  <smiles>  (42) 
Cc1ccc(S(=O)(=O)Oc2cccc3c2CCC(=O)N3)cc1

>  <score_type>  (42) 
oracle

>  <origin>  (42) 
adg

>  <m_score__min__energy>  (42) 
-8.6600000000000001

>  <m_primary>  (42) 
energy

$$$$
42:0
     RDKit          3D

 29 30  0  0  0  0  0  0  0  0999 V2000
   -8.6920   18.6710  -31.9100 C   0  0  0  0  0  0  0  0  0  0  0  0
   -9.0790   20.0770  -32.3550 C   0  0  0  0  0  0  0  0  0  0  0  0
   -8.0210   21.0710  -31.9550 C   0  0  0  0  0  0  0  0  0  0  0  0
   -8.2430   21.9490  -30.8830 C   0  0  0  0  0  0  0  0  0  0  0  0
   -7.2690   22.8840  -30.5250 C   0  0  0  0  0  0  0  0  0  0  0  0
   -6.0730   22.9620  -31.2440 C   0  0  0  0  0  0  0  0  0  0  0  0
   -5.8490   22.1140  -32.3430 C   0  0  0  0  0  0  0  0  0  0  0  0
   -4.6210   22.1630  -33.0900 N   0  0  0  0  0  0  0  0  0  0  0  0
   -3.3730   21.6290  -32.6270 C   0  0  0  0  0  0  0  0  0  0  0  0
   -3.1700   21.2530  -31.4120 N   0  0  0  0  0  0  0  0  0  0  0  0
   -1.7880   20.8160  -31.2620 C   0  0  0  0  0  0  0  0  0  0  0  0
   -1.1460   21.0300  -32.6440 C   0  0  0  0  0  0  0  0  0  0  0  0
   -2.2300   21.5490  -33.4530 N   0  0  0  0  0  0  0  0  0  0  0  0
   -6.8220   21.1600  -32.6810 C   0  0  0  0  0  0  0  0  0  0  0  0
   -8.6793   18.6247  -30.8110 H   0  0  0  0  0  0  0  0  0  0  0  0
   -9.4247   17.9486  -32.2989 H   0  0  0  0  0  0  0  0  0  0  0  0
   -7.6928   18.4253  -32.2989 H   0  0  0  0  0  0  0  0  0  0  0  0
   -9.1928   20.0912  -33.4490 H   0  0  0  0  0  0  0  0  0  0  0  0
  -10.0265   20.3538  -31.8695 H   0  0  0  0  0  0  0  0  0  0  0  0
   -9.1881   21.9007  -30.3222 H   0  0  0  0  0  0  0  0  0  0  0  0
   -7.4436   23.5604  -29.6753 H   0  0  0  0  0  0  0  0  0  0  0  0
   -5.3033   23.6903  -30.9487 H   0  0  0  0  0  0  0  0  0  0  0  0
   -4.6100   22.6940  -33.9900 H   0  0  0  0  0  0  0  0  0  0  0  0
   -1.2731   21.4192  -30.4997 H   0  0  0  0  0  0  0  0  0  0  0  0
   -1.7210   19.7679  -30.9350 H   0  0  0  0  0  0  0  0  0  0  0  0
   -0.3202   21.7542  -32.5844 H   0  0  0  0  0  0  0  0  0  0  0  0
   -0.7105   20.1085  -33.0576 H   0  0  0  0  0  0  0  0  0  0  0  0
   -2.1720   21.8250  -34.4570 H   0  0  0  0  0  0  0  0  0  0  0  0
   -6.6434   20.4752  -33.5231 H   0  0  0  0  0  0  0  0  0  0  0  0
  1  2  1  0
  2  3  1  0
  3  4  2  0
  4  5  1  0
  5  6  2  0
  6  7  1  0
  7  8  1  0
  8  9  1  0
  9 10  2  0
 10 11  1  0
 11 12  1  0
 12 13  1  0
  7 14  2  0
 14  3  1  0
 13  9  1  0
  1 15  1  0
  1 16  1  0
  1 17  1  0
  2 18  1  0
  2 19  1  0
  4 20  1  0
  5 21  1  0
  6 22  1  0
  8 23  1  0
 11 24  1  0
 11 25  1  0
 12 26  1  0
 12 27  1  0
 13 28  1  0
 14 29  1  0
M  END
>  <UniqueID>  (43) 
42

>  <SMILES>  (43) 
CCc1cccc(NC2=NCCN2)c1

>  <Energy>  (43) 
39.89328303404999

>  <Genealogy>  (43) 
CCc1cccc(NC2=NCCN2)c1 (3D coordinates assigned)
CCc1cccc(NC2=NCCN2)c1 (nonaromatic ring conformer: 39.89328303404999 kcal/mol)

>  <smiles>  (43) 
CCc1cccc(NC2=NCCN2)c1

>  <score_type>  (43) 
oracle

>  <origin>  (43) 
adg

>  <m_score__min__energy>  (43) 
-6.4400000000000004

>  <m_primary>  (43) 
energy

$$$$
43:0
     RDKit          3D

 45 48  0  0  0  0  0  0  0  0999 V2000
   -8.3870   22.9130  -30.5230 H   0  0  0  0  0  0  0  0  0  0  0  0
   -7.4590   23.1180  -30.0890 N   0  0  0  0  0  0  0  0  0  0  0  0
   -6.3270   22.9090  -30.6840 C   0  0  0  0  0  0  0  0  0  0  0  0
   -6.2770   22.4030  -31.9930 C   0  0  0  0  0  0  0  0  0  0  0  0
   -7.4770   22.0590  -32.6410 O   0  0  0  0  0  0  0  0  0  0  0  0
   -8.2920   20.9260  -32.3440 C   0  0  0  0  0  0  0  0  0  0  0  0
   -8.4556   20.8606  -31.2582 H   0  0  0  0  0  0  0  0  0  0  0  0
   -9.2672   21.0208  -32.8440 H   0  0  0  0  0  0  0  0  0  0  0  0
   -7.5810   19.6880  -32.8270 C   0  0  0  0  0  0  0  0  0  0  0  0
   -6.5580   19.8120  -33.7940 C   0  0  0  0  0  0  0  0  0  0  0  0
   -6.2842   20.8066  -34.1759 H   0  0  0  0  0  0  0  0  0  0  0  0
   -5.8920   18.6780  -34.2680 C   0  0  0  0  0  0  0  0  0  0  0  0
   -5.1033   18.7821  -35.0277 H   0  0  0  0  0  0  0  0  0  0  0  0
   -6.2260   17.4130  -33.7790 C   0  0  0  0  0  0  0  0  0  0  0  0
   -5.6869   16.5249  -34.1404 H   0  0  0  0  0  0  0  0  0  0  0  0
   -7.2400   17.2740  -32.8350 C   0  0  0  0  0  0  0  0  0  0  0  0
   -7.4930   16.2732  -32.4551 H   0  0  0  0  0  0  0  0  0  0  0  0
   -7.9470   18.3960  -32.3590 C   0  0  0  0  0  0  0  0  0  0  0  0
   -9.0340   18.2050  -31.3270 C   0  0  0  0  0  0  0  0  0  0  0  0
   -8.6001   18.2812  -30.3191 H   0  0  0  0  0  0  0  0  0  0  0  0
   -9.8020   18.9820  -31.4553 H   0  0  0  0  0  0  0  0  0  0  0  0
   -9.4912   17.2128  -31.4553 H   0  0  0  0  0  0  0  0  0  0  0  0
   -5.0230   22.2220  -32.5850 C   0  0  0  0  0  0  0  0  0  0  0  0
   -4.9489   21.8648  -33.6227 H   0  0  0  0  0  0  0  0  0  0  0  0
   -3.8670   22.4960  -31.8550 C   0  0  0  0  0  0  0  0  0  0  0  0
   -2.7420   22.2340  -32.3690 O   0  0  0  0  0  0  0  0  0  0  0  0
   -3.9600   23.0100  -30.5880 N   0  0  0  0  0  0  0  0  0  0  0  0
   -2.7740   23.3560  -29.8330 C   0  0  0  0  0  0  0  0  0  0  0  0
   -1.6730   22.4540  -29.7560 C   0  0  0  0  0  0  0  0  0  0  0  0
   -1.7404   21.4714  -30.2459 H   0  0  0  0  0  0  0  0  0  0  0  0
   -0.5010   22.8050  -29.0610 C   0  0  0  0  0  0  0  0  0  0  0  0
    0.3477   22.1090  -28.9883 H   0  0  0  0  0  0  0  0  0  0  0  0
   -0.4530   24.0650  -28.4680 C   0  0  0  0  0  0  0  0  0  0  0  0
    0.5720   24.6190  -27.8050 N   0  0  0  0  0  0  0  0  0  0  0  0
    0.0870   25.8500  -27.4920 C   0  0  0  0  0  0  0  0  0  0  0  0
    0.9030   26.8850  -26.7940 C   0  0  0  0  0  0  0  0  0  0  0  0
    0.8031   26.7583  -25.7059 H   0  0  0  0  0  0  0  0  0  0  0  0
    1.9592   26.7740  -27.0806 H   0  0  0  0  0  0  0  0  0  0  0  0
    0.5486   27.8861  -27.0806 H   0  0  0  0  0  0  0  0  0  0  0  0
   -1.1730   26.0950  -27.9410 N   0  0  0  0  0  0  0  0  0  0  0  0
   -1.4890   24.9420  -28.5500 C   0  0  0  0  0  0  0  0  0  0  0  0
   -2.6710   24.6270  -29.2180 C   0  0  0  0  0  0  0  0  0  0  0  0
   -3.5016   25.3466  -29.2661 H   0  0  0  0  0  0  0  0  0  0  0  0
   -5.1670   23.2120  -30.0330 N   0  0  0  0  0  0  0  0  0  0  0  0
   -5.2360   23.6040  -29.0690 H   0  0  0  0  0  0  0  0  0  0  0  0
  1  2  1  0
  2  3  2  0
  3  4  1  0
  4  5  1  0
  5  6  1  0
  6  7  1  0
  6  8  1  0
  6  9  1  0
  9 10  2  0
 10 11  1  0
 10 12  1  0
 12 13  1  0
 12 14  2  0
 14 15  1  0
 14 16  1  0
 16 17  1  0
 16 18  2  0
 18 19  1  0
 19 20  1  0
 19 21  1  0
 19 22  1  0
  4 23  2  0
 23 24  1  0
 23 25  1  0
 25 26  2  0
 25 27  1  0
 27 28  1  0
 28 29  2  0
 29 30  1  0
 29 31  1  0
 31 32  1  0
 31 33  2  0
 33 34  1  0
 34 35  1  0
 35 36  1  0
 36 37  1  0
 36 38  1  0
 36 39  1  0
 35 40  2  0
 40 41  1  0
 41 42  2  0
 42 43  1  0
 27 44  1  0
 44 45  1  0
 44  3  1  0
 18  9  1  0
 42 28  1  0
 41 33  1  0
M  CHG  1  34  -1
M  END
>  <UniqueID>  (44) 
43

>  <SMILES>  (44) 
[H]/N=c1/[nH]n(-c2ccc3[n-]c(C)nc3c2)c(=O)cc1OCc1ccccc1C

>  <Energy>  (44) 
94.63938234683343

>  <Genealogy>  (44) 
Cc1nc2cc(-n3[nH]c(=N)c(OCc4ccccc4C)cc3=O)ccc2[n-]1 (protonated)
[H]/N=c1/[nH]n(-c2ccc3[n-]c(C)nc3c2)c(=O)cc1OCc1ccccc1C (cis-trans isomerization)
[H]/N=c1/[nH]n(-c2ccc3[n-]c(C)nc3c2)c(=O)cc1OCc1ccccc1C (3D coordinates assigned)
[H]/N=c1/[nH]n(-c2ccc3[n-]c(C)nc3c2)c(=O)cc1OCc1ccccc1C (optimized conformer: 94.63938234683343 kcal/mol)

>  <smiles>  (44) 
Cc1nc2cc(-n3[nH]c(=N)c(OCc4ccccc4C)cc3=O)ccc2[nH]1

>  <score_type>  (44) 
oracle

>  <origin>  (44) 
adg

>  <m_score__min__energy>  (44) 
-8.6300000000000008

>  <m_primary>  (44) 
energy

$$$$
44:0
     RDKit          3D

 47 49  0  0  0  0  0  0  0  0999 V2000
   -7.2660   23.7440  -31.2100 C   0  0  0  0  0  0  0  0  0  0  0  0
   -7.7120   22.3890  -31.6900 C   0  0  0  0  0  0  0  0  0  0  0  0
   -9.0690   22.0350  -31.5840 C   0  0  0  0  0  0  0  0  0  0  0  0
   -9.5160   20.7950  -32.0390 C   0  0  0  0  0  0  0  0  0  0  0  0
   -8.6170   19.8910  -32.5990 C   0  0  0  0  0  0  0  0  0  0  0  0
   -7.2640   20.2200  -32.7040 C   0  0  0  0  0  0  0  0  0  0  0  0
   -6.7930   21.4690  -32.2530 C   0  0  0  0  0  0  0  0  0  0  0  0
   -5.3930   21.8000  -32.3580 N   0  0  0  0  0  0  0  0  0  0  0  0
   -4.4110   20.9630  -33.0480 C   0  0  0  0  0  0  0  0  0  0  0  0
   -3.0400   21.1410  -32.4430 C   0  0  0  0  0  0  0  0  0  0  0  0
   -1.8950   20.9170  -33.2260 C   0  0  0  0  0  0  0  0  0  0  0  0
   -0.6210   21.1000  -32.6850 C   0  0  0  0  0  0  0  0  0  0  0  0
   -0.4770   21.5070  -31.3590 C   0  0  0  0  0  0  0  0  0  0  0  0
   -1.6060   21.7310  -30.5670 C   0  0  0  0  0  0  0  0  0  0  0  0
   -2.8990   21.5490  -31.0990 C   0  0  0  0  0  0  0  0  0  0  0  0
   -4.0580   21.7670  -30.3330 O   0  0  0  0  0  0  0  0  0  0  0  0
   -4.2950   22.8970  -29.4950 C   0  0  0  0  0  0  0  0  0  0  0  0
   -3.8550   24.1620  -30.1790 C   0  0  0  0  0  0  0  0  0  0  0  0
   -4.5130   24.5850  -31.1650 O   0  0  0  0  0  0  0  0  0  0  0  0
   -2.7380   24.9300  -29.7110 N   0  0  0  0  0  0  0  0  0  0  0  0
   -1.9250   24.6410  -28.5660 C   0  0  0  0  0  0  0  0  0  0  0  0
   -2.4580   24.8430  -27.2870 C   0  0  0  0  0  0  0  0  0  0  0  0
   -1.6810   24.5950  -26.1510 C   0  0  0  0  0  0  0  0  0  0  0  0
   -0.3590   24.1620  -26.2880 C   0  0  0  0  0  0  0  0  0  0  0  0
    0.1900   23.9850  -27.5620 C   0  0  0  0  0  0  0  0  0  0  0  0
    1.4780   23.5850  -27.6930 F   0  0  0  0  0  0  0  0  0  0  0  0
   -0.5860   24.2320  -28.6990 C   0  0  0  0  0  0  0  0  0  0  0  0
   -7.2608   23.7599  -30.1101 H   0  0  0  0  0  0  0  0  0  0  0  0
   -6.2525   23.9504  -31.5845 H   0  0  0  0  0  0  0  0  0  0  0  0
   -7.9588   24.5120  -31.5845 H   0  0  0  0  0  0  0  0  0  0  0  0
   -9.7839   22.7424  -31.1383 H   0  0  0  0  0  0  0  0  0  0  0  0
  -10.5805   20.5305  -31.9554 H   0  0  0  0  0  0  0  0  0  0  0  0
   -8.9737   18.9149  -32.9597 H   0  0  0  0  0  0  0  0  0  0  0  0
   -6.5597   19.4978  -33.1426 H   0  0  0  0  0  0  0  0  0  0  0  0
   -5.0580   22.7260  -32.0070 H   0  0  0  0  0  0  0  0  0  0  0  0
   -4.7103   19.9081  -32.9603 H   0  0  0  0  0  0  0  0  0  0  0  0
   -4.3724   21.2618  -34.1059 H   0  0  0  0  0  0  0  0  0  0  0  0
   -2.0031   20.5953  -34.2723 H   0  0  0  0  0  0  0  0  0  0  0  0
    0.2700   20.9230  -33.3053 H   0  0  0  0  0  0  0  0  0  0  0  0
    0.5278   21.6520  -30.9356 H   0  0  0  0  0  0  0  0  0  0  0  0
   -1.4853   22.0514  -29.5216 H   0  0  0  0  0  0  0  0  0  0  0  0
   -5.3699   22.9620  -29.2705 H   0  0  0  0  0  0  0  0  0  0  0  0
   -3.7198   22.7770  -28.5651 H   0  0  0  0  0  0  0  0  0  0  0  0
   -3.4930   25.1985  -27.1753 H   0  0  0  0  0  0  0  0  0  0  0  0
   -2.1105   24.7408  -25.1489 H   0  0  0  0  0  0  0  0  0  0  0  0
    0.2494   23.9605  -25.3940 H   0  0  0  0  0  0  0  0  0  0  0  0
   -0.1478   24.1060  -29.7001 H   0  0  0  0  0  0  0  0  0  0  0  0
  1  2  1  0
  2  3  2  0
  3  4  1  0
  4  5  2  0
  5  6  1  0
  6  7  2  0
  7  8  1  0
  8  9  1  0
  9 10  1  0
 10 11  2  0
 11 12  1  0
 12 13  2  0
 13 14  1  0
 14 15  2  0
 15 16  1  0
 16 17  1  0
 17 18  1  0
 18 19  2  0
 18 20  1  0
 20 21  1  0
 21 22  2  0
 22 23  1  0
 23 24  2  0
 24 25  1  0
 25 26  1  0
 25 27  2  0
  7  2  1  0
 15 10  1  0
 27 21  1  0
  1 28  1  0
  1 29  1  0
  1 30  1  0
  3 31  1  0
  4 32  1  0
  5 33  1  0
  6 34  1  0
  8 35  1  0
  9 36  1  0
  9 37  1  0
 11 38  1  0
 12 39  1  0
 13 40  1  0
 14 41  1  0
 17 42  1  0
 17 43  1  0
 22 44  1  0
 23 45  1  0
 24 46  1  0
 27 47  1  0
M  CHG  1  20  -1
M  END
>  <UniqueID>  (45) 
44

>  <SMILES>  (45) 
Cc1ccccc1NCc1ccccc1OCC(=O)[N-]c1cccc(F)c1

>  <Energy>  (45) 
53.65471742279441

>  <Genealogy>  (45) 
Cc1ccccc1NCc1ccccc1OCC(=O)[N-]c1cccc(F)c1 (protonated)
Cc1ccccc1NCc1ccccc1OCC(=O)[N-]c1cccc(F)c1 (3D coordinates assigned)
Cc1ccccc1NCc1ccccc1OCC(=O)[N-]c1cccc(F)c1 (optimized conformer: 53.65471742279441 kcal/mol)

>  <smiles>  (45) 
Cc1ccccc1NCc1ccccc1OCC(=O)Nc1cccc(F)c1

>  <score_type>  (45) 
oracle

>  <origin>  (45) 
adg

>  <m_score__min__energy>  (45) 
-9.9499999999999993

>  <m_primary>  (45) 
energy

$$$$
45:0
     RDKit          3D

 27 28  0  0  0  0  0  0  0  0999 V2000
   -0.7104   22.9627  -27.1298 H   0  0  0  0  0  0  0  0  0  0  0  0
   -1.3880   23.4430  -27.8510 C   0  0  0  0  0  0  0  0  0  0  0  0
   -2.5220   22.8130  -28.2500 N   0  0  0  0  0  0  0  0  0  0  0  0
   -3.3830   23.3930  -29.1270 C   0  0  0  0  0  0  0  0  0  0  0  0
   -4.2944   22.8634  -29.4413 H   0  0  0  0  0  0  0  0  0  0  0  0
   -3.0990   24.6790  -29.6310 C   0  0  0  0  0  0  0  0  0  0  0  0
   -3.8750   25.2950  -30.4780 N   0  0  0  0  0  0  0  0  0  0  0  0
   -5.2340   24.9700  -30.8100 C   0  0  0  0  0  0  0  0  0  0  0  0
   -6.1590   25.3620  -30.0530 O   0  0  0  0  0  0  0  0  0  0  0  0
   -5.5640   24.1800  -31.9600 N   0  0  0  0  0  0  0  0  0  0  0  0
   -6.3920   23.0090  -31.9650 C   0  0  0  0  0  0  0  0  0  0  0  0
   -7.7290   23.1290  -31.5670 C   0  0  0  0  0  0  0  0  0  0  0  0
   -8.1187   24.1082  -31.2518 H   0  0  0  0  0  0  0  0  0  0  0  0
   -8.5720   22.0150  -31.5670 C   0  0  0  0  0  0  0  0  0  0  0  0
   -9.6217   22.1221  -31.2560 H   0  0  0  0  0  0  0  0  0  0  0  0
   -8.0850   20.7610  -31.9620 C   0  0  0  0  0  0  0  0  0  0  0  0
   -8.9800   19.5570  -31.9250 C   0  0  0  0  0  0  0  0  0  0  0  0
   -9.1834   19.2833  -30.8792 H   0  0  0  0  0  0  0  0  0  0  0  0
   -9.9271   19.7884  -32.4343 H   0  0  0  0  0  0  0  0  0  0  0  0
   -8.4855   18.7167  -32.4343 H   0  0  0  0  0  0  0  0  0  0  0  0
   -6.7330   20.6260  -32.3120 C   0  0  0  0  0  0  0  0  0  0  0  0
   -6.3356   19.6381  -32.5880 H   0  0  0  0  0  0  0  0  0  0  0  0
   -5.8880   21.7400  -32.3120 C   0  0  0  0  0  0  0  0  0  0  0  0
   -4.5750   21.5660  -32.6010 F   0  0  0  0  0  0  0  0  0  0  0  0
   -1.9480   25.2890  -29.2400 N   0  0  0  0  0  0  0  0  0  0  0  0
   -1.0900   24.7050  -28.3640 C   0  0  0  0  0  0  0  0  0  0  0  0
   -0.1679   25.2231  -28.0618 H   0  0  0  0  0  0  0  0  0  0  0  0
  1  2  1  0
  2  3  1  0
  3  4  2  0
  4  5  1  0
  4  6  1  0
  6  7  2  0
  7  8  1  0
  8  9  2  0
  8 10  1  0
 10 11  1  0
 11 12  2  0
 12 13  1  0
 12 14  1  0
 14 15  1  0
 14 16  2  0
 16 17  1  0
 17 18  1  0
 17 19  1  0
 17 20  1  0
 16 21  1  0
 21 22  1  0
 21 23  2  0
 23 24  1  0
  6 25  1  0
 25 26  1  0
 26 27  1  0
 26  2  2  0
 23 11  1  0
M  CHG  2  10  -1  25  -1
M  END
>  <UniqueID>  (46) 
45

>  <SMILES>  (46) 
Cc1ccc([N-]C(=O)/N=c2\cncc[n-]2)c(F)c1

>  <Energy>  (46) 
41.559133302892945

>  <Genealogy>  (46) 
Cc1ccc([N-]C(=O)N=c2cncc[n-]2)c(F)c1 (protonated)
Cc1ccc([N-]C(=O)/N=c2\cncc[n-]2)c(F)c1 (cis-trans isomerization)
Cc1ccc([N-]C(=O)/N=c2\cncc[n-]2)c(F)c1 (3D coordinates assigned)
Cc1ccc([N-]C(=O)/N=c2\cncc[n-]2)c(F)c1 (optimized conformer: 41.559133302892945 kcal/mol)

>  <smiles>  (46) 
Cc1ccc(NC(=O)N=c2cncc[nH]2)c(F)c1

>  <score_type>  (46) 
oracle

>  <origin>  (46) 
adg

>  <m_score__min__energy>  (46) 
-8.8200000000000003

>  <m_primary>  (46) 
energy

$$$$
46:0
     RDKit          3D

 30 32  0  0  0  0  0  0  0  0999 V2000
   -5.7130   25.2750  -30.1570 C   0  0  0  0  0  0  0  0  0  0  0  0
   -4.4950   25.0340  -30.8520 O   0  0  0  0  0  0  0  0  0  0  0  0
   -3.8440   23.7960  -30.8330 C   0  0  0  0  0  0  0  0  0  0  0  0
   -2.7420   23.6070  -30.0530 N   0  0  0  0  0  0  0  0  0  0  0  0
   -2.0850   22.4180  -30.0110 C   0  0  0  0  0  0  0  0  0  0  0  0
   -2.5280   21.3480  -30.7870 C   0  0  0  0  0  0  0  0  0  0  0  0
   -3.6520   21.5110  -31.5970 C   0  0  0  0  0  0  0  0  0  0  0  0
   -4.3370   22.7370  -31.6160 C   0  0  0  0  0  0  0  0  0  0  0  0
   -5.4780   22.9380  -32.4670 N   0  0  0  0  0  0  0  0  0  0  0  0
   -6.7730   22.3750  -32.2060 C   0  0  0  0  0  0  0  0  0  0  0  0
   -7.9600   23.0490  -31.9320 C   0  0  0  0  0  0  0  0  0  0  0  0
   -8.9720   22.1550  -31.8430 N   0  0  0  0  0  0  0  0  0  0  0  0
   -8.4520   20.9580  -32.0610 N   0  0  0  0  0  0  0  0  0  0  0  0
   -9.1250   19.7790  -32.0740 C   0  0  0  0  0  0  0  0  0  0  0  0
   -8.4060   18.6050  -32.3410 C   0  0  0  0  0  0  0  0  0  0  0  0
   -7.0210   18.6790  -32.5880 C   0  0  0  0  0  0  0  0  0  0  0  0
   -6.3630   19.9190  -32.5670 C   0  0  0  0  0  0  0  0  0  0  0  0
   -7.1320   21.0510  -32.2940 C   0  0  0  0  0  0  0  0  0  0  0  0
   -5.5299   25.2388  -29.0729 H   0  0  0  0  0  0  0  0  0  0  0  0
   -6.1010   26.2673  -30.4304 H   0  0  0  0  0  0  0  0  0  0  0  0
   -6.4497   24.5052  -30.4304 H   0  0  0  0  0  0  0  0  0  0  0  0
   -1.2031   22.2999  -29.3642 H   0  0  0  0  0  0  0  0  0  0  0  0
   -1.9968   20.3851  -30.7609 H   0  0  0  0  0  0  0  0  0  0  0  0
   -4.0028   20.6770  -32.2226 H   0  0  0  0  0  0  0  0  0  0  0  0
   -5.3780   23.5740  -33.2890 H   0  0  0  0  0  0  0  0  0  0  0  0
   -8.0596   24.1374  -31.8074 H   0  0  0  0  0  0  0  0  0  0  0  0
  -10.2072   19.7455  -31.8799 H   0  0  0  0  0  0  0  0  0  0  0  0
   -8.9201   17.6327  -32.3575 H   0  0  0  0  0  0  0  0  0  0  0  0
   -6.4525   17.7610  -32.7983 H   0  0  0  0  0  0  0  0  0  0  0  0
   -5.2825   19.9953  -32.7584 H   0  0  0  0  0  0  0  0  0  0  0  0
  1  2  1  0
  2  3  1  0
  3  4  2  0
  4  5  1  0
  5  6  2  0
  6  7  1  0
  7  8  2  0
  8  9  1  0
  9 10  1  0
 10 11  1  0
 11 12  2  0
 12 13  1  0
 13 14  1  0
 14 15  2  0
 15 16  1  0
 16 17  2  0
 17 18  1  0
  8  3  1  0
 18 10  2  0
 18 13  1  0
  1 19  1  0
  1 20  1  0
  1 21  1  0
  5 22  1  0
  6 23  1  0
  7 24  1  0
  9 25  1  0
 11 26  1  0
 14 27  1  0
 15 28  1  0
 16 29  1  0
 17 30  1  0
M  END
>  <UniqueID>  (47) 
46

>  <SMILES>  (47) 
COc1ncccc1Nc1cnn2ccccc12

>  <Energy>  (47) 
72.509393756068

>  <Genealogy>  (47) 
COc1ncccc1Nc1cnn2ccccc12 (3D coordinates assigned)
COc1ncccc1Nc1cnn2ccccc12 (optimized conformer: 72.509393756068 kcal/mol)

>  <smiles>  (47) 
COc1ncccc1Nc1cnn2ccccc12

>  <score_type>  (47) 
oracle

>  <origin>  (47) 
adg

>  <m_score__min__energy>  (47) 
-7.3099999999999996

>  <m_primary>  (47) 
energy

$$$$
