0:0
     RDKit          3D

 30 31  0  0  0  0  0  0  0  0999 V2000
   -3.9670   24.4710  -29.2440 C   0  0  0  0  0  0  0  0  0  0  0  0
   -4.0380   25.2860  -30.4570 N   0  0  0  0  0  0  0  0  0  0  0  0
   -5.4250   25.3840  -30.9250 C   0  0  0  0  0  0  0  0  0  0  0  0
   -5.9380   24.0130  -31.2880 C   0  0  0  0  0  0  0  0  0  0  0  0
   -7.3160   23.7610  -31.2650 C   0  0  0  0  0  0  0  0  0  0  0  0
   -7.8070   22.5050  -31.6310 C   0  0  0  0  0  0  0  0  0  0  0  0
   -9.1830   22.2310  -31.6050 C   0  0  0  0  0  0  0  0  0  0  0  0
   -9.6530   20.9670  -31.9750 C   0  0  0  0  0  0  0  0  0  0  0  0
   -8.7550   19.9740  -32.3730 C   0  0  0  0  0  0  0  0  0  0  0  0
   -7.3820   20.2380  -32.4050 C   0  0  0  0  0  0  0  0  0  0  0  0
   -6.8970   21.5040  -32.0350 C   0  0  0  0  0  0  0  0  0  0  0  0
   -5.5600   21.7710  -32.0690 N   0  0  0  0  0  0  0  0  0  0  0  0
   -5.0610   22.9960  -31.7150 C   0  0  0  0  0  0  0  0  0  0  0  0
   -3.6840   23.2670  -31.7700 O   0  0  0  0  0  0  0  0  0  0  0  0
   -2.6630   22.3020  -31.5490 C   0  0  0  0  0  0  0  0  0  0  0  0
   -4.0238   25.1233  -28.3601 H   0  0  0  0  0  0  0  0  0  0  0  0
   -4.8067   23.7605  -29.2300 H   0  0  0  0  0  0  0  0  0  0  0  0
   -3.0171   23.9164  -29.2300 H   0  0  0  0  0  0  0  0  0  0  0  0
   -3.4780   24.7970  -31.1950 H   0  0  0  0  0  0  0  0  0  0  0  0
   -6.0510   25.8089  -30.1265 H   0  0  0  0  0  0  0  0  0  0  0  0
   -5.4649   26.0340  -31.8115 H   0  0  0  0  0  0  0  0  0  0  0  0
   -8.0135   24.5542  -30.9579 H   0  0  0  0  0  0  0  0  0  0  0  0
   -9.8927   23.0114  -31.2932 H   0  0  0  0  0  0  0  0  0  0  0  0
  -10.7320   20.7543  -31.9526 H   0  0  0  0  0  0  0  0  0  0  0  0
   -9.1290   18.9808  -32.6623 H   0  0  0  0  0  0  0  0  0  0  0  0
   -6.6797   19.4524  -32.7207 H   0  0  0  0  0  0  0  0  0  0  0  0
   -4.9090   21.0160  -32.3780 H   0  0  0  0  0  0  0  0  0  0  0  0
   -2.5169   22.1639  -30.4675 H   0  0  0  0  0  0  0  0  0  0  0  0
   -2.9581   21.3451  -32.0043 H   0  0  0  0  0  0  0  0  0  0  0  0
   -1.7243   22.6506  -32.0043 H   0  0  0  0  0  0  0  0  0  0  0  0
  1  2  1  0
  2  3  1  0
  3  4  1  0
  4  5  2  0
  5  6  1  0
  6  7  2  0
  7  8  1  0
  8  9  2  0
  9 10  1  0
 10 11  2  0
 11 12  1  0
 12 13  2  0
 13 14  1  0
 14 15  1  0
 13  4  1  0
 11  6  1  0
  1 16  1  0
  1 17  1  0
  1 18  1  0
  2 19  1  0
  3 20  1  0
  3 21  1  0
  5 22  1  0
  7 23  1  0
  8 24  1  0
  9 25  1  0
 10 26  1  0
 12 27  1  0
 15 28  1  0
 15 29  1  0
 15 30  1  0
M  CHG  1  12   1
M  END
>  <UniqueID>  (1) 
1

>  <SMILES>  (1) 
CNCc1cc2ccccc2[nH+]c1OC

>  <Energy>  (1) 
30.33397363170861

>  <Genealogy>  (1) 
CNCc1cc2ccccc2[nH+]c1OC (protonated)
CNCc1cc2ccccc2[nH+]c1OC (3D coordinates assigned)
CNCc1cc2ccccc2[nH+]c1OC (optimized conformer: 30.33397363170861 kcal/mol)

>  <smiles>  (1) 
CNCc1cc2ccccc2nc1OC

>  <score_type>  (1) 
oracle

>  <origin>  (1) 
adg

>  <m_score__min__energy>  (1) 
-6.1799999999999997

>  <m_primary>  (1) 
energy

$$$$
1:0
     RDKit          3D

 40 41  0  0  0  0  0  0  0  0999 V2000
   -9.8400   21.9320  -31.3160 C   0  0  0  0  0  0  0  0  0  0  0  0
   -9.0530   21.1040  -32.3310 C   0  0  0  0  0  0  0  0  0  0  0  0
   -7.7930   20.3610  -31.7760 C   0  0  2  0  0  0  0  0  0  0  0  0
   -6.6470   21.3370  -31.5310 C   0  0  0  0  0  0  0  0  0  0  0  0
   -6.7850   22.3240  -30.5410 C   0  0  0  0  0  0  0  0  0  0  0  0
   -5.7720   23.2760  -30.3180 C   0  0  0  0  0  0  0  0  0  0  0  0
   -5.8920   24.2780  -29.3420 O   0  0  0  0  0  0  0  0  0  0  0  0
   -6.3050   25.6160  -29.6030 C   0  0  0  0  0  0  0  0  0  0  0  0
   -4.6030   23.2330  -31.0870 C   0  0  0  0  0  0  0  0  0  0  0  0
   -3.6090   24.1940  -30.8410 O   0  0  0  0  0  0  0  0  0  0  0  0
   -2.7550   24.2010  -29.7020 C   0  0  0  0  0  0  0  0  0  0  0  0
   -4.4520   22.2370  -32.0680 C   0  0  0  0  0  0  0  0  0  0  0  0
   -5.4670   21.2960  -32.2990 C   0  0  0  0  0  0  0  0  0  0  0  0
   -5.2090   20.1900  -33.2790 C   0  0  0  0  0  0  0  0  0  0  0  0
   -6.4880   19.4580  -33.6960 C   0  0  0  0  0  0  0  0  0  0  0  0
   -7.3820   19.1370  -32.5470 N   0  0  1  0  0  0  0  0  0  0  0  0
   -6.7250   18.1670  -31.6310 C   0  0  0  0  0  0  0  0  0  0  0  0
   -8.5150   18.5400  -33.0340 O   0  0  0  0  0  0  0  0  0  0  0  0
   -9.5543   21.6314  -30.2972 H   0  0  0  0  0  0  0  0  0  0  0  0
   -9.6151   22.9991  -31.4601 H   0  0  0  0  0  0  0  0  0  0  0  0
  -10.9171   21.7616  -31.4601 H   0  0  0  0  0  0  0  0  0  0  0  0
   -9.7335   20.3476  -32.7491 H   0  0  0  0  0  0  0  0  0  0  0  0
   -8.6726   21.8233  -33.0713 H   0  0  0  0  0  0  0  0  0  0  0  0
   -8.0950   19.9466  -30.8028 H   0  0  0  0  0  0  0  0  0  0  0  0
   -7.6993   22.3536  -29.9301 H   0  0  0  0  0  0  0  0  0  0  0  0
   -6.4674   26.1420  -28.6507 H   0  0  0  0  0  0  0  0  0  0  0  0
   -5.5251   26.1345  -30.1800 H   0  0  0  0  0  0  0  0  0  0  0  0
   -7.2415   25.6047  -30.1800 H   0  0  0  0  0  0  0  0  0  0  0  0
   -3.3648   24.1960  -28.7865 H   0  0  0  0  0  0  0  0  0  0  0  0
   -2.1128   23.3081  -29.7197 H   0  0  0  0  0  0  0  0  0  0  0  0
   -2.1275   25.1043  -29.7197 H   0  0  0  0  0  0  0  0  0  0  0  0
   -3.5269   22.1950  -32.6616 H   0  0  0  0  0  0  0  0  0  0  0  0
   -4.7401   20.6182  -34.1772 H   0  0  0  0  0  0  0  0  0  0  0  0
   -4.5527   19.4571  -32.7869 H   0  0  0  0  0  0  0  0  0  0  0  0
   -7.0410   20.0950  -34.4020 H   0  0  0  0  0  0  0  0  0  0  0  0
   -6.1848   18.5035  -34.1510 H   0  0  0  0  0  0  0  0  0  0  0  0
   -6.9212   18.4567  -30.5881 H   0  0  0  0  0  0  0  0  0  0  0  0
   -7.1275   17.1597  -31.8137 H   0  0  0  0  0  0  0  0  0  0  0  0
   -5.6403   18.1671  -31.8137 H   0  0  0  0  0  0  0  0  0  0  0  0
   -8.8290   19.0480  -33.8310 H   0  0  0  0  0  0  0  0  0  0  0  0
  1  2  1  0
  2  3  1  0
  3  4  1  0
  4  5  2  0
  5  6  1  0
  6  7  1  0
  7  8  1  0
  6  9  2  0
  9 10  1  0
 10 11  1  0
  9 12  1  0
 12 13  2  0
 13 14  1  0
 14 15  1  0
 15 16  1  0
 16 17  1  0
 16 18  1  6
 16  3  1  0
 13  4  1  0
  1 19  1  0
  1 20  1  0
  1 21  1  0
  2 22  1  0
  2 23  1  0
  3 24  1  1
  5 25  1  0
  8 26  1  0
  8 27  1  0
  8 28  1  0
 11 29  1  0
 11 30  1  0
 11 31  1  0
 12 32  1  0
 14 33  1  0
 14 34  1  0
 15 35  1  0
 15 36  1  0
 17 37  1  0
 17 38  1  0
 17 39  1  0
 18 40  1  0
M  CHG  1  16   1
M  END
>  <UniqueID>  (2) 
2

>  <SMILES>  (2) 
CC[C@@H]1c2cc(OC)c(OC)cc2CC[N@+]1(C)O

>  <Energy>  (2) 
52.877219799895514

>  <Genealogy>  (2) 
CCC1c2cc(OC)c(OC)cc2CC[N+]1(C)O (protonated)
CC[C@@H]1c2cc(OC)c(OC)cc2CC[N@+]1(C)O (chirality)
CC[C@@H]1c2cc(OC)c(OC)cc2CC[N@+]1(C)O (3D coordinates assigned)
CC[C@@H]1c2cc(OC)c(OC)cc2CC[N@+]1(C)O (nonaromatic ring conformer: 52.877219799895514 kcal/mol)

>  <smiles>  (2) 
CCC1c2cc(OC)c(OC)cc2CC[N+]1(C)[O-]

>  <score_type>  (2) 
oracle

>  <origin>  (2) 
adg

>  <m_score__min__energy>  (2) 
-6.3700000000000001

>  <m_primary>  (2) 
energy

$$$$
2:0
     RDKit          3D

 63 66  0  0  0  0  0  0  0  0999 V2000
   -4.8060   24.3680  -29.0330 C   0  0  0  0  0  0  0  0  0  0  0  0
   -5.3990   25.0890  -30.2440 C   0  0  0  0  0  0  0  0  0  0  0  0
   -6.8710   24.7230  -30.4810 C   0  0  0  0  0  0  0  0  0  0  0  0
   -7.0200   23.3200  -31.0100 C   0  0  0  0  0  0  0  0  0  0  0  0
   -8.2840   22.7230  -31.0890 C   0  0  0  0  0  0  0  0  0  0  0  0
   -8.4350   21.4590  -31.6640 C   0  0  0  0  0  0  0  0  0  0  0  0
   -7.3220   20.7690  -32.1840 C   0  0  0  0  0  0  0  0  0  0  0  0
   -7.4580   19.4990  -32.7730 O   0  0  0  0  0  0  0  0  0  0  0  0
   -8.3470   18.4830  -32.3140 C   0  0  0  0  0  0  0  0  0  0  0  0
   -6.0420   21.3660  -32.1030 C   0  0  0  0  0  0  0  0  0  0  0  0
   -4.8410   20.6990  -32.6590 C   0  0  0  0  0  0  0  0  0  0  0  0
   -3.5360   21.1650  -32.5700 C   0  0  0  0  0  0  0  0  0  0  0  0
   -2.7970   20.2560  -33.3050 C   0  0  0  0  0  0  0  0  0  0  0  0
   -1.3580   20.3530  -33.5790 C   0  0  0  0  0  0  0  0  0  0  0  0
   -0.4850   19.3420  -33.1440 C   0  0  0  0  0  0  0  0  0  0  0  0
    0.8790   19.4300  -33.4310 C   0  0  0  0  0  0  0  0  0  0  0  0
    1.3780   20.5330  -34.1440 C   0  0  0  0  0  0  0  0  0  0  0  0
    0.5190   21.5580  -34.5730 C   0  0  0  0  0  0  0  0  0  0  0  0
    1.0700   22.6530  -35.2680 O   0  0  0  0  0  0  0  0  0  0  0  0
    2.4680   22.8950  -35.4160 C   0  0  0  0  0  0  0  0  0  0  0  0
   -0.8580   21.4600  -34.2900 C   0  0  0  0  0  0  0  0  0  0  0  0
   -3.6230   19.3160  -33.8130 N   0  0  0  0  0  0  0  0  0  0  0  0
   -3.2470   18.1290  -34.5850 C   0  0  0  0  0  0  0  0  0  0  0  0
   -3.2330   16.8760  -33.6980 C   0  0  0  0  0  0  0  0  0  0  0  0
   -4.4950   16.0620  -33.8600 C   0  0  0  0  0  0  0  0  0  0  0  0
   -4.4330   14.6590  -33.9200 C   0  0  0  0  0  0  0  0  0  0  0  0
   -5.6010   13.9090  -34.1070 C   0  0  0  0  0  0  0  0  0  0  0  0
   -6.8340   14.5540  -34.2450 C   0  0  0  0  0  0  0  0  0  0  0  0
   -6.9020   15.9510  -34.2000 C   0  0  0  0  0  0  0  0  0  0  0  0
   -5.7380   16.7030  -34.0100 C   0  0  0  0  0  0  0  0  0  0  0  0
   -4.8570   19.5780  -33.4150 N   0  0  0  0  0  0  0  0  0  0  0  0
   -5.9040   22.6350  -31.5090 C   0  0  0  0  0  0  0  0  0  0  0  0
   -5.1855   24.8295  -28.1094 H   0  0  0  0  0  0  0  0  0  0  0  0
   -5.0966   23.3074  -29.0592 H   0  0  0  0  0  0  0  0  0  0  0  0
   -3.7093   24.4484  -29.0592 H   0  0  0  0  0  0  0  0  0  0  0  0
   -5.3271   26.1742  -30.0790 H   0  0  0  0  0  0  0  0  0  0  0  0
   -4.8291   24.7773  -31.1317 H   0  0  0  0  0  0  0  0  0  0  0  0
   -7.4160   24.8044  -29.5290 H   0  0  0  0  0  0  0  0  0  0  0  0
   -7.2796   25.4165  -31.2307 H   0  0  0  0  0  0  0  0  0  0  0  0
   -9.1640   23.2529  -30.6956 H   0  0  0  0  0  0  0  0  0  0  0  0
   -9.4325   20.9978  -31.7113 H   0  0  0  0  0  0  0  0  0  0  0  0
   -8.3558   18.4730  -31.2141 H   0  0  0  0  0  0  0  0  0  0  0  0
   -9.3614   18.6876  -32.6869 H   0  0  0  0  0  0  0  0  0  0  0  0
   -8.0096   17.5047  -32.6869 H   0  0  0  0  0  0  0  0  0  0  0  0
   -3.1724   22.0553  -32.0360 H   0  0  0  0  0  0  0  0  0  0  0  0
   -0.8749   18.4828  -32.5785 H   0  0  0  0  0  0  0  0  0  0  0  0
    1.5630   18.6353  -33.0986 H   0  0  0  0  0  0  0  0  0  0  0  0
    2.4531   20.5944  -34.3687 H   0  0  0  0  0  0  0  0  0  0  0  0
    2.9334   22.9756  -34.4225 H   0  0  0  0  0  0  0  0  0  0  0  0
    2.9275   22.0630  -35.9698 H   0  0  0  0  0  0  0  0  0  0  0  0
    2.6211   23.8330  -35.9698 H   0  0  0  0  0  0  0  0  0  0  0  0
   -1.5444   22.2513  -34.6259 H   0  0  0  0  0  0  0  0  0  0  0  0
   -3.9725   17.9850  -35.3992 H   0  0  0  0  0  0  0  0  0  0  0  0
   -2.2362   18.2815  -34.9912 H   0  0  0  0  0  0  0  0  0  0  0  0
   -2.3694   16.2533  -33.9744 H   0  0  0  0  0  0  0  0  0  0  0  0
   -3.1663   17.1996  -32.6488 H   0  0  0  0  0  0  0  0  0  0  0  0
   -3.4639   14.1484  -33.8197 H   0  0  0  0  0  0  0  0  0  0  0  0
   -5.5483   12.8109  -34.1454 H   0  0  0  0  0  0  0  0  0  0  0  0
   -7.7506   13.9632  -34.3889 H   0  0  0  0  0  0  0  0  0  0  0  0
   -7.8715   16.4581  -34.3141 H   0  0  0  0  0  0  0  0  0  0  0  0
   -5.7950   17.8010  -33.9777 H   0  0  0  0  0  0  0  0  0  0  0  0
   -5.6950   19.0150  -33.6880 H   0  0  0  0  0  0  0  0  0  0  0  0
   -4.9073   23.0947  -31.4357 H   0  0  0  0  0  0  0  0  0  0  0  0
  1  2  1  0
  2  3  1  0
  3  4  1  0
  4  5  2  0
  5  6  1  0
  6  7  2  0
  7  8  1  0
  8  9  1  0
  7 10  1  0
 10 11  1  0
 11 12  1  0
 12 13  2  0
 13 14  1  0
 14 15  2  0
 15 16  1  0
 16 17  2  0
 17 18  1  0
 18 19  1  0
 19 20  1  0
 18 21  2  0
 13 22  1  0
 22 23  1  0
 23 24  1  0
 24 25  1  0
 25 26  2  0
 26 27  1  0
 27 28  2  0
 28 29  1  0
 29 30  2  0
 22 31  1  0
 10 32  2  0
 32  4  1  0
 31 11  2  0
 21 14  1  0
 30 25  1  0
  1 33  1  0
  1 34  1  0
  1 35  1  0
  2 36  1  0
  2 37  1  0
  3 38  1  0
  3 39  1  0
  5 40  1  0
  6 41  1  0
  9 42  1  0
  9 43  1  0
  9 44  1  0
 12 45  1  0
 15 46  1  0
 16 47  1  0
 17 48  1  0
 20 49  1  0
 20 50  1  0
 20 51  1  0
 21 52  1  0
 23 53  1  0
 23 54  1  0
 24 55  1  0
 24 56  1  0
 26 57  1  0
 27 58  1  0
 28 59  1  0
 29 60  1  0
 30 61  1  0
 31 62  1  0
 32 63  1  0
M  CHG  1  31   1
M  END
>  <UniqueID>  (3) 
3

>  <SMILES>  (3) 
CCCc1ccc(OC)c(-c2cc(-c3cccc(OC)c3)n(CCc3ccccc3)[nH+]2)c1

>  <Energy>  (3) 
96.1990859273209

>  <Genealogy>  (3) 
CCCc1ccc(OC)c(-c2cc(-c3cccc(OC)c3)n(CCc3ccccc3)[nH+]2)c1 (protonated)
CCCc1ccc(OC)c(-c2cc(-c3cccc(OC)c3)n(CCc3ccccc3)[nH+]2)c1 (3D coordinates assigned)
CCCc1ccc(OC)c(-c2cc(-c3cccc(OC)c3)n(CCc3ccccc3)[nH+]2)c1 (optimized conformer: 96.1990859273209 kcal/mol)

>  <smiles>  (3) 
CCCc1ccc(OC)c(-c2cc(-c3cccc(OC)c3)n(CCc3ccccc3)n2)c1

>  <score_type>  (3) 
oracle

>  <origin>  (3) 
adg

>  <m_score__min__energy>  (3) 
-8.8499999999999996

>  <m_primary>  (3) 
energy

$$$$
3:0
     RDKit          3D

 42 43  0  0  0  0  0  0  0  0999 V2000
   -9.4622   18.1248  -31.8609 H   0  0  0  0  0  0  0  0  0  0  0  0
   -8.6380   18.8470  -31.9570 C   0  0  0  0  0  0  0  0  0  0  0  0
   -8.7560   20.0150  -31.3100 C   0  0  0  0  0  0  0  0  0  0  0  0
   -8.5958   20.0126  -30.2217 H   0  0  0  0  0  0  0  0  0  0  0  0
   -9.0930   21.3360  -31.9650 C   0  0  0  0  0  0  0  0  0  0  0  0
  -10.1438   21.5817  -31.7517 H   0  0  0  0  0  0  0  0  0  0  0  0
   -8.9232   21.2350  -33.0471 H   0  0  0  0  0  0  0  0  0  0  0  0
   -8.2320   22.4330  -31.4630 N   0  0  1  0  0  0  0  0  0  0  0  0
   -8.7420   23.3380  -31.6030 H   0  0  0  0  0  0  0  0  0  0  0  0
   -7.9700   22.2990  -30.0170 C   0  0  0  0  0  0  0  0  0  0  0  0
   -8.8097   22.7285  -29.4509 H   0  0  0  0  0  0  0  0  0  0  0  0
   -7.8615   21.2347  -29.7611 H   0  0  0  0  0  0  0  0  0  0  0  0
   -7.0435   22.8340  -29.7611 H   0  0  0  0  0  0  0  0  0  0  0  0
   -6.9710   22.5460  -32.2400 C   0  0  0  0  0  0  0  0  0  0  0  0
   -7.1832   23.1018  -33.1652 H   0  0  0  0  0  0  0  0  0  0  0  0
   -6.6226   21.5207  -32.4330 H   0  0  0  0  0  0  0  0  0  0  0  0
   -5.8540   23.2580  -31.5010 C   0  0  0  0  0  0  0  0  0  0  0  0
   -5.9910   24.6050  -31.1300 C   0  0  0  0  0  0  0  0  0  0  0  0
   -6.9077   25.1536  -31.3923 H   0  0  0  0  0  0  0  0  0  0  0  0
   -4.9710   25.2530  -30.4300 C   0  0  0  0  0  0  0  0  0  0  0  0
   -5.0920   26.3078  -30.1425 H   0  0  0  0  0  0  0  0  0  0  0  0
   -3.7960   24.5720  -30.0910 C   0  0  0  0  0  0  0  0  0  0  0  0
   -2.8040   25.2650  -29.3810 O   0  0  0  0  0  0  0  0  0  0  0  0
   -2.1790   24.7830  -28.1960 C   0  0  0  0  0  0  0  0  0  0  0  0
   -2.7016   25.1860  -27.3159 H   0  0  0  0  0  0  0  0  0  0  0  0
   -2.2248   23.6841  -28.1783 H   0  0  0  0  0  0  0  0  0  0  0  0
   -1.1278   25.1065  -28.1783 H   0  0  0  0  0  0  0  0  0  0  0  0
   -3.6490   23.2260  -30.4750 C   0  0  0  0  0  0  0  0  0  0  0  0
   -2.7274   22.6819  -30.2206 H   0  0  0  0  0  0  0  0  0  0  0  0
   -4.6680   22.5770  -31.1780 C   0  0  0  0  0  0  0  0  0  0  0  0
   -4.5408   21.5270  -31.4802 H   0  0  0  0  0  0  0  0  0  0  0  0
   -7.4820   18.4600  -32.7890 C   0  0  0  0  0  0  0  0  0  0  0  0
   -7.0960   17.1140  -32.8500 C   0  0  0  0  0  0  0  0  0  0  0  0
   -7.6676   16.3541  -32.2970 H   0  0  0  0  0  0  0  0  0  0  0  0
   -5.9860   16.7340  -33.6120 C   0  0  0  0  0  0  0  0  0  0  0  0
   -5.6950   15.6747  -33.6684 H   0  0  0  0  0  0  0  0  0  0  0  0
   -5.2460   17.6990  -34.3020 C   0  0  0  0  0  0  0  0  0  0  0  0
   -4.3795   17.3978  -34.9090 H   0  0  0  0  0  0  0  0  0  0  0  0
   -5.6080   19.0470  -34.2200 C   0  0  0  0  0  0  0  0  0  0  0  0
   -5.0208   19.8073  -34.7558 H   0  0  0  0  0  0  0  0  0  0  0  0
   -6.7150   19.4290  -33.4580 C   0  0  0  0  0  0  0  0  0  0  0  0
   -6.9872   20.4920  -33.3815 H   0  0  0  0  0  0  0  0  0  0  0  0
  1  2  1  0
  2  3  2  0
  3  4  1  0
  3  5  1  0
  5  6  1  0
  5  7  1  0
  5  8  1  0
  8  9  1  1
  8 10  1  0
 10 11  1  0
 10 12  1  0
 10 13  1  0
  8 14  1  0
 14 15  1  0
 14 16  1  0
 14 17  1  0
 17 18  2  0
 18 19  1  0
 18 20  1  0
 20 21  1  0
 20 22  2  0
 22 23  1  0
 23 24  1  0
 24 25  1  0
 24 26  1  0
 24 27  1  0
 22 28  1  0
 28 29  1  0
 28 30  2  0
 30 31  1  0
  2 32  1  0
 32 33  2  0
 33 34  1  0
 33 35  1  0
 35 36  1  0
 35 37  2  0
 37 38  1  0
 37 39  1  0
 39 40  1  0
 39 41  2  0
 41 42  1  0
 30 17  1  0
 41 32  1  0
M  CHG  1   8   1
M  END
>  <UniqueID>  (4) 
4

>  <SMILES>  (4) 
COc1ccc(C[N@H+](C)C/C=C\c2ccccc2)cc1

>  <Energy>  (4) 
50.637542384434546

>  <Genealogy>  (4) 
COc1ccc(C[NH+](C)CC=Cc2ccccc2)cc1 (protonated)
COc1ccc(C[N@H+](C)CC=Cc2ccccc2)cc1 (chirality)
COc1ccc(C[N@H+](C)C/C=C\c2ccccc2)cc1 (cis-trans isomerization)
COc1ccc(C[N@H+](C)C/C=C\c2ccccc2)cc1 (3D coordinates assigned)
COc1ccc(C[N@H+](C)C/C=C\c2ccccc2)cc1 (optimized conformer: 50.637542384434546 kcal/mol)

>  <smiles>  (4) 
COc1ccc(CN(C)CC=Cc2ccccc2)cc1

>  <score_type>  (4) 
oracle

>  <origin>  (4) 
adg

>  <m_score__min__energy>  (4) 
-7.3700000000000001

>  <m_primary>  (4) 
energy

$$$$
4:0
     RDKit          3D

 27 29  0  0  0  0  0  0  0  0999 V2000
   -4.1260   20.4970  -32.6440 C   0  0  0  0  0  0  0  0  0  0  0  0
   -5.0990   21.4720  -32.0500 C   0  0  0  0  0  0  0  0  0  0  0  0
   -6.4790   21.3760  -32.0190 C   0  0  0  0  0  0  0  0  0  0  0  0
   -7.3240   20.3790  -32.5140 C   0  0  0  0  0  0  0  0  0  0  0  0
   -8.7060   20.5370  -32.3440 C   0  0  0  0  0  0  0  0  0  0  0  0
   -9.2170   21.6720  -31.6900 C   0  0  0  0  0  0  0  0  0  0  0  0
   -8.3540   22.6660  -31.1980 C   0  0  0  0  0  0  0  0  0  0  0  0
   -6.9690   22.4980  -31.3730 C   0  0  0  0  0  0  0  0  0  0  0  0
   -5.9380   23.3030  -30.9940 N   0  0  0  0  0  0  0  0  0  0  0  0
   -5.8870   24.5100  -30.3360 C   0  0  0  0  0  0  0  0  0  0  0  0
   -7.1070   25.2440  -29.8590 C   0  0  0  0  0  0  0  0  0  0  0  0
   -4.6190   25.0770  -30.1010 C   0  0  0  0  0  0  0  0  0  0  0  0
   -3.4930   24.4360  -30.5220 N   0  0  0  0  0  0  0  0  0  0  0  0
   -3.5510   23.2450  -31.1710 C   0  0  0  0  0  0  0  0  0  0  0  0
   -2.4880   22.6820  -31.5440 O   0  0  0  0  0  0  0  0  0  0  0  0
   -4.8060   22.6730  -31.4080 C   0  0  0  0  0  0  0  0  0  0  0  0
   -3.5981   19.9680  -31.8369 H   0  0  0  0  0  0  0  0  0  0  0  0
   -4.6689   19.7696  -33.2654 H   0  0  0  0  0  0  0  0  0  0  0  0
   -3.3975   21.0385  -33.2654 H   0  0  0  0  0  0  0  0  0  0  0  0
   -6.9152   19.4939  -33.0234 H   0  0  0  0  0  0  0  0  0  0  0  0
   -9.3951   19.7686  -32.7244 H   0  0  0  0  0  0  0  0  0  0  0  0
  -10.3039   21.7831  -31.5621 H   0  0  0  0  0  0  0  0  0  0  0  0
   -8.7528   23.5551  -30.6877 H   0  0  0  0  0  0  0  0  0  0  0  0
   -7.1226   25.2534  -28.7592 H   0  0  0  0  0  0  0  0  0  0  0  0
   -7.0830   26.2778  -30.2342 H   0  0  0  0  0  0  0  0  0  0  0  0
   -8.0091   24.7386  -30.2342 H   0  0  0  0  0  0  0  0  0  0  0  0
   -4.5378   26.0402  -29.5760 H   0  0  0  0  0  0  0  0  0  0  0  0
  1  2  1  0
  2  3  1  0
  3  4  2  0
  4  5  1  0
  5  6  2  0
  6  7  1  0
  7  8  2  0
  8  9  1  0
  9 10  1  0
 10 11  1  0
 10 12  2  0
 12 13  1  0
 13 14  1  0
 14 15  2  0
 14 16  1  0
 16  2  2  0
  8  3  1  0
 16  9  1  0
  1 17  1  0
  1 18  1  0
  1 19  1  0
  4 20  1  0
  5 21  1  0
  6 22  1  0
  7 23  1  0
 11 24  1  0
 11 25  1  0
 11 26  1  0
 12 27  1  0
M  CHG  1  13  -1
M  END
>  <UniqueID>  (5) 
5

>  <SMILES>  (5) 
Cc1c2ccccc2n2c(C)c[n-]c(=O)c12

>  <Energy>  (5) 
75.63988177412577

>  <Genealogy>  (5) 
Cc1c2ccccc2n2c(C)c[n-]c(=O)c12 (protonated)
Cc1c2ccccc2n2c(C)c[n-]c(=O)c12 (3D coordinates assigned)
Cc1c2ccccc2n2c(C)c[n-]c(=O)c12 (optimized conformer: 75.63988177412577 kcal/mol)

>  <smiles>  (5) 
Cc1c2ccccc2n2c(C)c[nH]c(=O)c12

>  <score_type>  (5) 
oracle

>  <origin>  (5) 
adg

>  <m_score__min__energy>  (5) 
-8.0199999999999996

>  <m_primary>  (5) 
energy

$$$$
5:0
     RDKit          3D

 34 36  0  0  0  0  0  0  0  0999 V2000
   -9.1440   21.7080  -30.9060 C   0  0  0  0  0  0  0  0  0  0  0  0
   -7.7290   21.5860  -30.8290 O   0  0  0  0  0  0  0  0  0  0  0  0
   -6.9890   20.7750  -31.6950 C   0  0  0  0  0  0  0  0  0  0  0  0
   -7.4510   19.5440  -32.0490 N   0  0  0  0  0  0  0  0  0  0  0  0
   -6.7410   18.7290  -32.8700 C   0  0  0  0  0  0  0  0  0  0  0  0
   -7.2360   17.4690  -33.2200 C   0  0  0  0  0  0  0  0  0  0  0  0
   -6.4950   16.6380  -34.0660 C   0  0  0  0  0  0  0  0  0  0  0  0
   -5.2580   17.0650  -34.5620 C   0  0  0  0  0  0  0  0  0  0  0  0
   -4.7570   18.3250  -34.2160 C   0  0  0  0  0  0  0  0  0  0  0  0
   -5.4950   19.1630  -33.3670 C   0  0  0  0  0  0  0  0  0  0  0  0
   -5.0310   20.3960  -33.0160 N   0  0  0  0  0  0  0  0  0  0  0  0
   -5.7490   21.2160  -32.1960 C   0  0  0  0  0  0  0  0  0  0  0  0
   -5.2270   22.5120  -31.8530 N   0  0  0  0  0  0  0  0  0  0  0  0
   -3.8120   22.6950  -31.5150 C   0  0  0  0  0  0  0  0  0  0  0  0
   -3.6830   23.7830  -30.4440 C   0  0  0  0  0  0  0  0  0  0  0  0
   -4.3530   24.9650  -30.8430 O   0  0  0  0  0  0  0  0  0  0  0  0
   -5.7450   24.7210  -30.9390 C   0  0  0  0  0  0  0  0  0  0  0  0
   -6.0460   23.7100  -32.0490 C   0  0  0  0  0  0  0  0  0  0  0  0
   -9.5647   21.7443  -29.8903 H   0  0  0  0  0  0  0  0  0  0  0  0
   -9.4037   22.6319  -31.4436 H   0  0  0  0  0  0  0  0  0  0  0  0
   -9.5580   20.8422  -31.4436 H   0  0  0  0  0  0  0  0  0  0  0  0
   -8.2077   17.1317  -32.8301 H   0  0  0  0  0  0  0  0  0  0  0  0
   -6.8850   15.6472  -34.3421 H   0  0  0  0  0  0  0  0  0  0  0  0
   -4.6775   16.4079  -35.2262 H   0  0  0  0  0  0  0  0  0  0  0  0
   -3.7853   18.6580  -34.6095 H   0  0  0  0  0  0  0  0  0  0  0  0
   -4.1150   20.7300  -33.3960 H   0  0  0  0  0  0  0  0  0  0  0  0
   -3.4011   21.7500  -31.1300 H   0  0  0  0  0  0  0  0  0  0  0  0
   -3.2546   22.9958  -32.4143 H   0  0  0  0  0  0  0  0  0  0  0  0
   -4.1242   23.4182  -29.5047 H   0  0  0  0  0  0  0  0  0  0  0  0
   -2.6167   24.0133  -30.3028 H   0  0  0  0  0  0  0  0  0  0  0  0
   -6.1079   24.3222  -29.9802 H   0  0  0  0  0  0  0  0  0  0  0  0
   -6.2526   25.6673  -31.1777 H   0  0  0  0  0  0  0  0  0  0  0  0
   -7.1107   23.4357  -32.0163 H   0  0  0  0  0  0  0  0  0  0  0  0
   -5.8127   24.1579  -33.0262 H   0  0  0  0  0  0  0  0  0  0  0  0
  1  2  1  0
  2  3  1  0
  3  4  2  0
  4  5  1  0
  5  6  2  0
  6  7  1  0
  7  8  2  0
  8  9  1  0
  9 10  2  0
 10 11  1  0
 11 12  2  0
 12 13  1  0
 13 14  1  0
 14 15  1  0
 15 16  1  0
 16 17  1  0
 17 18  1  0
 12  3  1  0
 18 13  1  0
 10  5  1  0
  1 19  1  0
  1 20  1  0
  1 21  1  0
  6 22  1  0
  7 23  1  0
  8 24  1  0
  9 25  1  0
 11 26  1  0
 14 27  1  0
 14 28  1  0
 15 29  1  0
 15 30  1  0
 17 31  1  0
 17 32  1  0
 18 33  1  0
 18 34  1  0
M  CHG  1  11   1
M  END
>  <UniqueID>  (6) 
6

>  <SMILES>  (6) 
COc1nc2ccccc2[nH+]c1N1CCOCC1

>  <Energy>  (6) 
42.66077773345409

>  <Genealogy>  (6) 
COc1nc2ccccc2[nH+]c1N1CCOCC1 (protonated)
COc1nc2ccccc2[nH+]c1N1CCOCC1 (3D coordinates assigned)
COc1nc2ccccc2[nH+]c1N1CCOCC1 (nonaromatic ring conformer: 42.66077773345409 kcal/mol)

>  <smiles>  (6) 
COc1nc2ccccc2nc1N1CCOCC1

>  <score_type>  (6) 
oracle

>  <origin>  (6) 
adg

>  <m_score__min__energy>  (6) 
-5.9100000000000001

>  <m_primary>  (6) 
energy

$$$$
6:0
     RDKit          3D

 33 35  0  0  0  0  0  0  0  0999 V2000
   -5.9040   25.9290  -30.1860 O   0  0  0  0  0  0  0  0  0  0  0  0
   -5.2890   24.9490  -30.6550 N   0  0  0  0  0  0  0  0  0  0  0  0
   -3.9280   25.0440  -30.8330 O   0  0  0  0  0  0  0  0  0  0  0  0
   -5.9910   23.7420  -31.0070 C   0  0  0  0  0  0  0  0  0  0  0  0
   -5.4720   22.8680  -31.9780 C   0  0  0  0  0  0  0  0  0  0  0  0
   -6.1560   21.6960  -32.3150 C   0  0  0  0  0  0  0  0  0  0  0  0
   -7.3660   21.3790  -31.6850 C   0  0  0  0  0  0  0  0  0  0  0  0
   -8.2140   19.8940  -32.1100 S   0  0  0  0  0  0  0  0  0  0  0  0
   -9.3180   19.6130  -31.1290 O   0  0  0  0  0  0  0  0  0  0  0  0
   -8.8190   20.0690  -33.4740 O   0  0  0  0  0  0  0  0  0  0  0  0
   -7.0810   18.5310  -32.0990 C   0  0  0  0  0  0  0  0  0  0  0  0
   -6.9330   17.7940  -30.9120 C   0  0  0  0  0  0  0  0  0  0  0  0
   -6.0720   16.6990  -30.8520 C   0  0  0  0  0  0  0  0  0  0  0  0
   -5.3430   16.3170  -31.9760 C   0  0  0  0  0  0  0  0  0  0  0  0
   -5.4700   17.0320  -33.1730 C   0  0  0  0  0  0  0  0  0  0  0  0
   -4.7420   16.6480  -34.3060 C   0  0  0  0  0  0  0  0  0  0  0  0
   -4.8770   17.3640  -35.4920 C   0  0  0  0  0  0  0  0  0  0  0  0
   -5.7380   18.4590  -35.5390 C   0  0  0  0  0  0  0  0  0  0  0  0
   -6.4430   18.8300  -34.4360 N   0  0  0  0  0  0  0  0  0  0  0  0
   -6.3410   18.1500  -33.2500 C   0  0  0  0  0  0  0  0  0  0  0  0
   -7.8910   22.2490  -30.7210 C   0  0  0  0  0  0  0  0  0  0  0  0
   -7.2090   23.4200  -30.3820 C   0  0  0  0  0  0  0  0  0  0  0  0
   -4.5211   23.1078  -32.4762 H   0  0  0  0  0  0  0  0  0  0  0  0
   -5.7421   21.0203  -33.0780 H   0  0  0  0  0  0  0  0  0  0  0  0
   -7.5041   18.0848  -30.0180 H   0  0  0  0  0  0  0  0  0  0  0  0
   -5.9679   16.1346  -29.9136 H   0  0  0  0  0  0  0  0  0  0  0  0
   -4.6660   15.4516  -31.9229 H   0  0  0  0  0  0  0  0  0  0  0  0
   -4.0649   15.7824  -34.2588 H   0  0  0  0  0  0  0  0  0  0  0  0
   -4.3082   17.0678  -36.3857 H   0  0  0  0  0  0  0  0  0  0  0  0
   -5.8483   19.0273  -36.4744 H   0  0  0  0  0  0  0  0  0  0  0  0
   -7.0650   19.6600  -34.5370 H   0  0  0  0  0  0  0  0  0  0  0  0
   -8.8449   22.0090  -30.2285 H   0  0  0  0  0  0  0  0  0  0  0  0
   -7.6275   24.0950  -29.6209 H   0  0  0  0  0  0  0  0  0  0  0  0
  1  2  2  0
  2  3  1  0
  2  4  1  0
  4  5  2  0
  5  6  1  0
  6  7  2  0
  7  8  1  0
  8  9  2  0
  8 10  2  0
  8 11  1  0
 11 12  2  0
 12 13  1  0
 13 14  2  0
 14 15  1  0
 15 16  2  0
 16 17  1  0
 17 18  2  0
 18 19  1  0
 19 20  2  0
  7 21  1  0
 21 22  2  0
 22  4  1  0
 20 11  1  0
 20 15  1  0
  5 23  1  0
  6 24  1  0
 12 25  1  0
 13 26  1  0
 14 27  1  0
 16 28  1  0
 17 29  1  0
 18 30  1  0
 19 31  1  0
 21 32  1  0
 22 33  1  0
M  CHG  3   2   1   3  -1  19   1
M  END
>  <UniqueID>  (7) 
7

>  <SMILES>  (7) 
O=[N+]([O-])c1ccc(S(=O)(=O)c2cccc3ccc[nH+]c23)cc1

>  <Energy>  (7) 
44.45425095169615

>  <Genealogy>  (7) 
O=[N+]([O-])c1ccc(S(=O)(=O)c2cccc3ccc[nH+]c23)cc1 (protonated)
O=[N+]([O-])c1ccc(S(=O)(=O)c2cccc3ccc[nH+]c23)cc1 (3D coordinates assigned)
O=[N+]([O-])c1ccc(S(=O)(=O)c2cccc3ccc[nH+]c23)cc1 (optimized conformer: 44.45425095169615 kcal/mol)

>  <smiles>  (7) 
O=[N+]([O-])c1ccc(S(=O)(=O)c2cccc3cccnc23)cc1

>  <score_type>  (7) 
oracle

>  <origin>  (7) 
adg

>  <m_score__min__energy>  (7) 
-7.9199999999999999

>  <m_primary>  (7) 
energy

$$$$
7:0
     RDKit          3D

 32 34  0  0  0  0  0  0  0  0999 V2000
   -5.0320   16.9840  -33.9340 Br  0  0  0  0  0  0  0  0  0  0  0  0
   -4.5090   18.8260  -34.2070 C   0  0  0  0  0  0  0  0  0  0  0  0
   -5.4170   19.7240  -33.4360 C   0  0  0  0  0  0  0  0  0  0  0  0
   -4.9170   20.8280  -32.8190 N   0  0  0  0  0  0  0  0  0  0  0  0
   -5.7200   21.6900  -32.1400 C   0  0  0  0  0  0  0  0  0  0  0  0
   -5.1390   22.8480  -31.5230 N   0  0  0  0  0  0  0  0  0  0  0  0
   -5.7410   24.1610  -31.7650 C   0  0  0  0  0  0  0  0  0  0  0  0
   -5.3360   25.1230  -30.6440 C   0  0  0  0  0  0  0  0  0  0  0  0
   -3.9300   25.1440  -30.4820 O   0  0  0  0  0  0  0  0  0  0  0  0
   -3.4770   23.8730  -30.0500 C   0  0  0  0  0  0  0  0  0  0  0  0
   -3.7330   22.8090  -31.1220 C   0  0  0  0  0  0  0  0  0  0  0  0
   -7.1030   21.4340  -32.0620 C   0  0  0  0  0  0  0  0  0  0  0  0
   -7.9880   22.2530  -31.3390 C   0  0  0  0  0  0  0  0  0  0  0  0
   -9.3530   21.9490  -31.3020 C   0  0  0  0  0  0  0  0  0  0  0  0
   -9.8430   20.8290  -31.9790 C   0  0  0  0  0  0  0  0  0  0  0  0
   -8.9700   19.9990  -32.6880 C   0  0  0  0  0  0  0  0  0  0  0  0
   -7.6010   20.2930  -32.7280 C   0  0  0  0  0  0  0  0  0  0  0  0
   -6.7520   19.4740  -33.3990 N   0  0  0  0  0  0  0  0  0  0  0  0
   -3.4743   18.9677  -33.8616 H   0  0  0  0  0  0  0  0  0  0  0  0
   -4.5768   19.0700  -35.2775 H   0  0  0  0  0  0  0  0  0  0  0  0
   -5.3886   24.5536  -32.7302 H   0  0  0  0  0  0  0  0  0  0  0  0
   -6.8365   24.0637  -31.7866 H   0  0  0  0  0  0  0  0  0  0  0  0
   -5.6852   26.1356  -30.8943 H   0  0  0  0  0  0  0  0  0  0  0  0
   -5.7937   24.7811  -29.7040 H   0  0  0  0  0  0  0  0  0  0  0  0
   -2.3975   23.9257  -29.8452 H   0  0  0  0  0  0  0  0  0  0  0  0
   -4.0272   23.5943  -29.1392 H   0  0  0  0  0  0  0  0  0  0  0  0
   -3.0967   23.0095  -31.9966 H   0  0  0  0  0  0  0  0  0  0  0  0
   -3.4956   21.8149  -30.7154 H   0  0  0  0  0  0  0  0  0  0  0  0
   -7.6066   23.1339  -30.8018 H   0  0  0  0  0  0  0  0  0  0  0  0
  -10.0430   22.5938  -30.7380 H   0  0  0  0  0  0  0  0  0  0  0  0
  -10.9186   20.6000  -31.9539 H   0  0  0  0  0  0  0  0  0  0  0  0
   -9.3581   19.1147  -33.2147 H   0  0  0  0  0  0  0  0  0  0  0  0
  1  2  1  0
  2  3  1  0
  3  4  2  0
  4  5  1  0
  5  6  1  0
  6  7  1  0
  7  8  1  0
  8  9  1  0
  9 10  1  0
 10 11  1  0
  5 12  2  0
 12 13  1  0
 13 14  2  0
 14 15  1  0
 15 16  2  0
 16 17  1  0
 17 18  2  0
 18  3  1  0
 11  6  1  0
 17 12  1  0
  2 19  1  0
  2 20  1  0
  7 21  1  0
  7 22  1  0
  8 23  1  0
  8 24  1  0
 10 25  1  0
 10 26  1  0
 11 27  1  0
 11 28  1  0
 13 29  1  0
 14 30  1  0
 15 31  1  0
 16 32  1  0
M  END
>  <UniqueID>  (8) 
8

>  <SMILES>  (8) 
BrCc1nc(N2CCOCC2)c2ccccc2n1

>  <Energy>  (8) 
41.2260810301833

>  <Genealogy>  (8) 
BrCc1nc(N2CCOCC2)c2ccccc2n1 (3D coordinates assigned)
BrCc1nc(N2CCOCC2)c2ccccc2n1 (nonaromatic ring conformer: 41.2260810301833 kcal/mol)

>  <smiles>  (8) 
BrCc1nc(N2CCOCC2)c2ccccc2n1

>  <score_type>  (8) 
oracle

>  <origin>  (8) 
adg

>  <m_score__min__energy>  (8) 
-8.0099999999999998

>  <m_primary>  (8) 
energy

$$$$
8:0
     RDKit          3D

 43 46  0  0  0  0  0  0  0  0999 V2000
   -9.5290   21.3990  -31.9670 C   0  0  0  0  0  0  0  0  0  0  0  0
   -8.6270   20.2160  -32.1030 C   0  0  0  0  0  0  0  0  0  0  0  0
   -9.1020   18.9270  -31.8320 C   0  0  0  0  0  0  0  0  0  0  0  0
   -8.2400   17.8360  -31.9730 C   0  0  0  0  0  0  0  0  0  0  0  0
   -6.9230   18.0400  -32.3870 C   0  0  0  0  0  0  0  0  0  0  0  0
   -6.4870   19.3400  -32.6650 C   0  0  0  0  0  0  0  0  0  0  0  0
   -5.1010   19.5830  -33.0900 C   0  0  0  0  0  0  0  0  0  0  0  0
   -4.2540   20.6130  -32.6920 C   0  0  0  0  0  0  0  0  0  0  0  0
   -4.5270   21.7140  -31.8010 N   0  0  0  0  0  0  0  0  0  0  0  0
   -3.9120   21.9030  -30.4980 C   0  0  0  0  0  0  0  0  0  0  0  0
   -4.4590   23.2290  -29.9680 C   0  0  1  0  0  0  0  0  0  0  0  0
   -3.4980   24.4010  -30.1350 C   0  0  0  0  0  0  0  0  0  0  0  0
   -4.3040   25.5860  -30.4090 N   0  0  0  0  0  0  0  0  0  0  0  0
   -5.5260   25.1110  -31.0640 C   0  0  0  0  0  0  0  0  0  0  0  0
   -5.6360   23.5970  -30.8450 C   0  0  1  0  0  0  0  0  0  0  0  0
   -5.4880   22.7570  -32.1210 C   0  0  0  0  0  0  0  0  0  0  0  0
   -3.0940   20.4380  -33.4270 C   0  0  0  0  0  0  0  0  0  0  0  0
   -3.2480   19.3570  -34.2160 N   0  0  0  0  0  0  0  0  0  0  0  0
   -4.4490   18.8410  -34.0110 N   0  0  0  0  0  0  0  0  0  0  0  0
   -4.9820   17.6970  -34.7480 C   0  0  0  0  0  0  0  0  0  0  0  0
   -7.3380   20.3890  -32.5080 N   0  0  0  0  0  0  0  0  0  0  0  0
   -9.6931   21.6143  -30.9008 H   0  0  0  0  0  0  0  0  0  0  0  0
   -9.0648   22.2715  -32.4500 H   0  0  0  0  0  0  0  0  0  0  0  0
  -10.4932   21.1823  -32.4500 H   0  0  0  0  0  0  0  0  0  0  0  0
  -10.1431   18.7746  -31.5114 H   0  0  0  0  0  0  0  0  0  0  0  0
   -8.5989   16.8186  -31.7581 H   0  0  0  0  0  0  0  0  0  0  0  0
   -6.2353   17.1881  -32.4936 H   0  0  0  0  0  0  0  0  0  0  0  0
   -4.1846   21.0787  -29.8225 H   0  0  0  0  0  0  0  0  0  0  0  0
   -2.8142   21.9161  -30.5663 H   0  0  0  0  0  0  0  0  0  0  0  0
   -4.6757   23.0798  -28.8999 H   0  0  0  0  0  0  0  0  0  0  0  0
   -2.9168   24.5459  -29.2124 H   0  0  0  0  0  0  0  0  0  0  0  0
   -2.7913   24.2117  -30.9564 H   0  0  0  0  0  0  0  0  0  0  0  0
   -4.5720   26.0090  -29.4890 H   0  0  0  0  0  0  0  0  0  0  0  0
   -6.4012   25.6141  -30.6270 H   0  0  0  0  0  0  0  0  0  0  0  0
   -5.4894   25.3353  -32.1403 H   0  0  0  0  0  0  0  0  0  0  0  0
   -6.6330   23.3897  -30.4291 H   0  0  0  0  0  0  0  0  0  0  0  0
   -6.4548   22.3137  -32.4017 H   0  0  0  0  0  0  0  0  0  0  0  0
   -5.1524   23.3690  -32.9712 H   0  0  0  0  0  0  0  0  0  0  0  0
   -2.1980   21.0741  -33.3755 H   0  0  0  0  0  0  0  0  0  0  0  0
   -2.5450   18.9920  -34.8980 H   0  0  0  0  0  0  0  0  0  0  0  0
   -5.3366   16.9359  -34.0373 H   0  0  0  0  0  0  0  0  0  0  0  0
   -5.8194   18.0263  -35.3807 H   0  0  0  0  0  0  0  0  0  0  0  0
   -4.1912   17.2677  -35.3807 H   0  0  0  0  0  0  0  0  0  0  0  0
  1  2  1  0
  2  3  2  0
  3  4  1  0
  4  5  2  0
  5  6  1  0
  6  7  1  0
  7  8  2  0
  8  9  1  0
  9 10  1  0
 10 11  1  0
 11 12  1  0
 12 13  1  0
 13 14  1  0
 14 15  1  0
 15 16  1  0
  8 17  1  0
 17 18  2  0
 18 19  1  0
 19 20  1  0
  6 21  2  0
 21  2  1  0
 19  7  1  0
 16  9  1  0
 15 11  1  0
  1 22  1  0
  1 23  1  0
  1 24  1  0
  3 25  1  0
  4 26  1  0
  5 27  1  0
 10 28  1  0
 10 29  1  0
 11 30  1  1
 12 31  1  0
 12 32  1  0
 13 33  1  0
 14 34  1  0
 14 35  1  0
 15 36  1  1
 16 37  1  0
 16 38  1  0
 17 39  1  0
 18 40  1  0
 20 41  1  0
 20 42  1  0
 20 43  1  0
M  CHG  1  18   1
M  END
>  <UniqueID>  (9) 
9

>  <SMILES>  (9) 
Cc1cccc(-c2c(N3C[C@H]4CNC[C@H]4C3)c[nH+]n2C)n1

>  <Energy>  (9) 
86.29948477860111

>  <Genealogy>  (9) 
Cc1cccc(-c2c(N3CC4CNCC4C3)c[nH+]n2C)n1 (protonated)
Cc1cccc(-c2c(N3C[C@H]4CNC[C@H]4C3)c[nH+]n2C)n1 (chirality)
Cc1cccc(-c2c(N3C[C@H]4CNC[C@H]4C3)c[nH+]n2C)n1 (3D coordinates assigned)
Cc1cccc(-c2c(N3C[C@H]4CNC[C@H]4C3)c[nH+]n2C)n1 (nonaromatic ring conformer: 86.29948477860111 kcal/mol)

>  <smiles>  (9) 
Cc1cccc(-c2c(N3CC4CNCC4C3)cnn2C)n1

>  <score_type>  (9) 
oracle

>  <origin>  (9) 
adg

>  <m_score__min__energy>  (9) 
-8.2899999999999991

>  <m_primary>  (9) 
energy

$$$$
9:0
     RDKit          3D

 25 26  0  0  0  0  0  0  0  0999 V2000
   -7.4982   23.1487  -29.7406 H   0  0  0  0  0  0  0  0  0  0  0  0
   -6.9710   23.1370  -30.7060 C   0  0  0  0  0  0  0  0  0  0  0  0
   -7.6320   22.6460  -31.7650 C   0  0  0  0  0  0  0  0  0  0  0  0
   -8.0943   23.3695  -32.4527 H   0  0  0  0  0  0  0  0  0  0  0  0
   -7.7890   21.2110  -32.0820 C   0  0  0  0  0  0  0  0  0  0  0  0
   -8.9270   20.4940  -31.6700 C   0  0  0  0  0  0  0  0  0  0  0  0
   -9.7357   21.0111  -31.1327 H   0  0  0  0  0  0  0  0  0  0  0  0
   -9.0340   19.1260  -31.9410 C   0  0  0  0  0  0  0  0  0  0  0  0
   -9.9339   18.5732  -31.6334 H   0  0  0  0  0  0  0  0  0  0  0  0
   -7.9970   18.4610  -32.6030 C   0  0  0  0  0  0  0  0  0  0  0  0
   -8.0845   17.3866  -32.8220 H   0  0  0  0  0  0  0  0  0  0  0  0
   -6.8510   19.1600  -32.9860 C   0  0  0  0  0  0  0  0  0  0  0  0
   -6.0331   18.6340  -33.5002 H   0  0  0  0  0  0  0  0  0  0  0  0
   -6.7410   20.5280  -32.7170 C   0  0  0  0  0  0  0  0  0  0  0  0
   -5.8286   21.0709  -33.0046 H   0  0  0  0  0  0  0  0  0  0  0  0
   -5.5890   23.6640  -30.7340 C   0  0  0  0  0  0  0  0  0  0  0  0
   -4.4920   22.9370  -31.0140 N   0  0  0  0  0  0  0  0  0  0  0  0
   -3.4710   23.8020  -30.8400 C   0  0  0  0  0  0  0  0  0  0  0  0
   -2.4178   23.5301  -31.0039 H   0  0  0  0  0  0  0  0  0  0  0  0
   -3.8630   25.0320  -30.4460 N   0  0  0  0  0  0  0  0  0  0  0  0
   -5.2020   24.9380  -30.3810 C   0  0  0  0  0  0  0  0  0  0  0  0
   -6.0930   26.0550  -29.9420 C   0  0  0  0  0  0  0  0  0  0  0  0
   -6.1216   26.0909  -28.8430 H   0  0  0  0  0  0  0  0  0  0  0  0
   -5.7044   27.0081  -30.3300 H   0  0  0  0  0  0  0  0  0  0  0  0
   -7.1087   25.8880  -30.3300 H   0  0  0  0  0  0  0  0  0  0  0  0
  1  2  1  0
  2  3  2  0
  3  4  1  0
  3  5  1  0
  5  6  2  0
  6  7  1  0
  6  8  1  0
  8  9  1  0
  8 10  2  0
 10 11  1  0
 10 12  1  0
 12 13  1  0
 12 14  2  0
 14 15  1  0
  2 16  1  0
 16 17  1  0
 17 18  1  0
 18 19  1  0
 18 20  2  0
 20 21  1  0
 21 22  1  0
 22 23  1  0
 22 24  1  0
 22 25  1  0
 14  5  1  0
 21 16  2  0
M  CHG  1  17  -1
M  END
>  <UniqueID>  (10) 
10

>  <SMILES>  (10) 
Cc1nc[n-]c1/C=C\c1ccccc1

>  <Energy>  (10) 
59.306281121053466

>  <Genealogy>  (10) 
Cc1nc[n-]c1C=Cc1ccccc1 (protonated)
Cc1nc[n-]c1/C=C\c1ccccc1 (cis-trans isomerization)
Cc1nc[n-]c1/C=C\c1ccccc1 (3D coordinates assigned)
Cc1nc[n-]c1/C=C\c1ccccc1 (optimized conformer: 59.306281121053466 kcal/mol)

>  <smiles>  (10) 
Cc1nc[nH]c1C=Cc1ccccc1

>  <score_type>  (10) 
oracle

>  <origin>  (10) 
adg

>  <m_score__min__energy>  (10) 
-7.6100000000000003

>  <m_primary>  (10) 
energy

$$$$
10:0
     RDKit          3D

 23 23  0  0  0  0  0  0  0  0999 V2000
   -2.6520   24.5890  -26.9900 C   0  0  0  0  0  0  0  0  0  0  0  0
   -2.8790   23.1990  -27.5820 C   0  0  0  0  0  0  0  0  0  0  0  0
   -4.0910   23.1490  -28.5200 C   0  0  0  0  0  0  0  0  0  0  0  0
   -4.8130   24.4250  -28.5040 N   0  0  0  0  0  0  0  0  0  0  0  0
   -5.1720   24.9190  -30.1310 S   0  0  0  0  0  0  0  0  0  0  0  0
   -6.0700   26.1240  -30.1070 O   0  0  0  0  0  0  0  0  0  0  0  0
   -3.8950   25.2730  -30.8390 O   0  0  0  0  0  0  0  0  0  0  0  0
   -5.9590   23.6100  -30.9940 C   0  0  0  0  0  0  0  0  0  0  0  0
   -7.3060   23.2900  -30.9360 C   0  0  0  0  0  0  0  0  0  0  0  0
   -7.6380   22.1860  -31.7300 C   0  0  0  0  0  0  0  0  0  0  0  0
   -6.5540   21.6420  -32.4100 C   0  0  0  0  0  0  0  0  0  0  0  0
   -5.1810   22.5340  -32.0230 S   0  0  0  0  0  0  0  0  0  0  0  0
   -2.6623   24.5260  -25.8919 H   0  0  0  0  0  0  0  0  0  0  0  0
   -1.6787   24.9762  -27.3260 H   0  0  0  0  0  0  0  0  0  0  0  0
   -3.4515   25.2657  -27.3260 H   0  0  0  0  0  0  0  0  0  0  0  0
   -1.9826   22.9065  -28.1485 H   0  0  0  0  0  0  0  0  0  0  0  0
   -3.0743   22.5091  -26.7478 H   0  0  0  0  0  0  0  0  0  0  0  0
   -3.7466   22.9420  -29.5440 H   0  0  0  0  0  0  0  0  0  0  0  0
   -4.7703   22.3545  -28.1774 H   0  0  0  0  0  0  0  0  0  0  0  0
   -5.7350   24.2740  -28.0350 H   0  0  0  0  0  0  0  0  0  0  0  0
   -8.0372   23.8450  -30.3300 H   0  0  0  0  0  0  0  0  0  0  0  0
   -8.6599   21.7866  -31.8086 H   0  0  0  0  0  0  0  0  0  0  0  0
   -6.5883   20.7752  -33.0864 H   0  0  0  0  0  0  0  0  0  0  0  0
  1  2  1  0
  2  3  1  0
  3  4  1  0
  4  5  1  0
  5  6  2  0
  5  7  2  0
  5  8  1  0
  8  9  2  0
  9 10  1  0
 10 11  2  0
 11 12  1  0
 12  8  1  0
  1 13  1  0
  1 14  1  0
  1 15  1  0
  2 16  1  0
  2 17  1  0
  3 18  1  0
  3 19  1  0
  4 20  1  0
  9 21  1  0
 10 22  1  0
 11 23  1  0
M  END
>  <UniqueID>  (11) 
11

>  <SMILES>  (11) 
CCCNS(=O)(=O)c1cccs1

>  <Energy>  (11) 
40.34338285596234

>  <Genealogy>  (11) 
CCCNS(=O)(=O)c1cccs1 (3D coordinates assigned)
CCCNS(=O)(=O)c1cccs1 (optimized conformer: 40.34338285596234 kcal/mol)

>  <smiles>  (11) 
CCCNS(=O)(=O)c1cccs1

>  <score_type>  (11) 
oracle

>  <origin>  (11) 
adg

>  <m_score__min__energy>  (11) 
-5.7400000000000002

>  <m_primary>  (11) 
energy

$$$$
11:0
     RDKit          3D

 43 46  0  0  0  0  0  0  0  0999 V2000
   -8.7660   20.1810  -32.4220 C   0  0  0  0  0  0  0  0  0  0  0  0
   -7.3810   20.0400  -32.2840 C   0  0  0  0  0  0  0  0  0  0  0  0
   -6.6400   21.0220  -31.6210 C   0  0  0  0  0  0  0  0  0  0  0  0
   -7.2790   22.1580  -31.0950 C   0  0  0  0  0  0  0  0  0  0  0  0
   -6.4890   23.1950  -30.3400 C   0  0  0  0  0  0  0  0  0  0  0  0
   -6.1970   24.4170  -31.2170 C   0  0  0  0  0  0  0  0  0  0  0  0
   -4.8130   24.7660  -31.1730 O   0  0  0  0  0  0  0  0  0  0  0  0
   -3.8580   24.0620  -30.4290 C   0  0  0  0  0  0  0  0  0  0  0  0
   -3.4200   24.5480  -29.2350 N   0  0  0  0  0  0  0  0  0  0  0  0
   -2.4890   23.8930  -28.4900 C   0  0  0  0  0  0  0  0  0  0  0  0
   -2.0360   24.4620  -27.1980 C   0  0  0  0  0  0  0  0  0  0  0  0
   -0.9040   23.9420  -26.5450 C   0  0  0  0  0  0  0  0  0  0  0  0
   -0.4940   24.4920  -25.3300 C   0  0  0  0  0  0  0  0  0  0  0  0
   -1.2050   25.5510  -24.7720 C   0  0  0  0  0  0  0  0  0  0  0  0
   -2.3240   26.0490  -25.4400 C   0  0  0  0  0  0  0  0  0  0  0  0
   -2.7150   25.5040  -26.6240 N   0  0  0  0  0  0  0  0  0  0  0  0
   -1.9750   22.7180  -28.9440 N   0  0  0  0  0  0  0  0  0  0  0  0
   -2.3740   22.1840  -30.1270 C   0  0  0  0  0  0  0  0  0  0  0  0
   -1.8260   20.9760  -30.5730 C   0  0  0  0  0  0  0  0  0  0  0  0
   -2.2310   20.4320  -31.7950 C   0  0  0  0  0  0  0  0  0  0  0  0
   -3.1830   21.0940  -32.5770 C   0  0  0  0  0  0  0  0  0  0  0  0
   -3.7390   22.3010  -32.1400 C   0  0  0  0  0  0  0  0  0  0  0  0
   -3.3380   22.8520  -30.9100 C   0  0  0  0  0  0  0  0  0  0  0  0
   -8.6720   22.2870  -31.2290 C   0  0  0  0  0  0  0  0  0  0  0  0
   -9.4100   21.3030  -31.8940 C   0  0  0  0  0  0  0  0  0  0  0  0
   -9.3480   19.4086  -32.9461 H   0  0  0  0  0  0  0  0  0  0  0  0
   -6.8748   19.1554  -32.6977 H   0  0  0  0  0  0  0  0  0  0  0  0
   -5.5518   20.9054  -31.5103 H   0  0  0  0  0  0  0  0  0  0  0  0
   -7.0660   23.5148  -29.4598 H   0  0  0  0  0  0  0  0  0  0  0  0
   -5.5310   22.7487  -30.0349 H   0  0  0  0  0  0  0  0  0  0  0  0
   -6.4763   24.1878  -32.2560 H   0  0  0  0  0  0  0  0  0  0  0  0
   -6.7825   25.2667  -30.8361 H   0  0  0  0  0  0  0  0  0  0  0  0
   -0.3447   23.1058  -26.9900 H   0  0  0  0  0  0  0  0  0  0  0  0
    0.3899   24.0894  -24.8136 H   0  0  0  0  0  0  0  0  0  0  0  0
   -0.8879   25.9903  -23.8147 H   0  0  0  0  0  0  0  0  0  0  0  0
   -2.8926   26.8856  -25.0078 H   0  0  0  0  0  0  0  0  0  0  0  0
   -3.5580   25.9080  -27.0920 H   0  0  0  0  0  0  0  0  0  0  0  0
   -1.0756   20.4540  -29.9610 H   0  0  0  0  0  0  0  0  0  0  0  0
   -1.8002   19.4814  -32.1424 H   0  0  0  0  0  0  0  0  0  0  0  0
   -3.4959   20.6637  -33.5398 H   0  0  0  0  0  0  0  0  0  0  0  0
   -4.4884   22.8180  -32.7573 H   0  0  0  0  0  0  0  0  0  0  0  0
   -9.1837   23.1655  -30.8091 H   0  0  0  0  0  0  0  0  0  0  0  0
  -10.4992   21.4123  -32.0017 H   0  0  0  0  0  0  0  0  0  0  0  0
  1  2  2  0
  2  3  1  0
  3  4  2  0
  4  5  1  0
  5  6  1  0
  6  7  1  0
  7  8  1  0
  8  9  2  0
  9 10  1  0
 10 11  1  0
 11 12  2  0
 12 13  1  0
 13 14  2  0
 14 15  1  0
 15 16  2  0
 10 17  2  0
 17 18  1  0
 18 19  2  0
 19 20  1  0
 20 21  2  0
 21 22  1  0
 22 23  2  0
  4 24  1  0
 24 25  2  0
 25  1  1  0
 23  8  1  0
 16 11  1  0
 23 18  1  0
  1 26  1  0
  2 27  1  0
  3 28  1  0
  5 29  1  0
  5 30  1  0
  6 31  1  0
  6 32  1  0
 12 33  1  0
 13 34  1  0
 14 35  1  0
 15 36  1  0
 16 37  1  0
 19 38  1  0
 20 39  1  0
 21 40  1  0
 22 41  1  0
 24 42  1  0
 25 43  1  0
M  CHG  1  16   1
M  END
>  <UniqueID>  (12) 
12

>  <SMILES>  (12) 
c1ccc(CCOc2nc(-c3cccc[nH+]3)nc3ccccc23)cc1

>  <Energy>  (12) 
47.71923725096454

>  <Genealogy>  (12) 
c1ccc(CCOc2nc(-c3cccc[nH+]3)nc3ccccc23)cc1 (protonated)
c1ccc(CCOc2nc(-c3cccc[nH+]3)nc3ccccc23)cc1 (3D coordinates assigned)
c1ccc(CCOc2nc(-c3cccc[nH+]3)nc3ccccc23)cc1 (optimized conformer: 47.71923725096454 kcal/mol)

>  <smiles>  (12) 
c1ccc(CCOc2nc(-c3ccccn3)nc3ccccc23)cc1

>  <score_type>  (12) 
oracle

>  <origin>  (12) 
adg

>  <m_score__min__energy>  (12) 
-8.1400000000000006

>  <m_primary>  (12) 
energy

$$$$
12:0
     RDKit          3D

 42 43  0  0  0  0  0  0  0  0999 V2000
   -9.3983   19.7996  -31.5349 H   0  0  0  0  0  0  0  0  0  0  0  0
   -8.5100   20.2360  -32.0150 C   0  0  0  0  0  0  0  0  0  0  0  0
   -8.3940   21.5740  -32.0000 C   0  0  0  0  0  0  0  0  0  0  0  0
   -9.2756   22.1605  -32.2980 H   0  0  0  0  0  0  0  0  0  0  0  0
   -7.1760   22.3250  -31.6150 C   0  0  0  0  0  0  0  0  0  0  0  0
   -5.9280   21.7070  -31.7390 C   0  0  0  0  0  0  0  0  0  0  0  0
   -5.8697   20.6742  -32.1132 H   0  0  0  0  0  0  0  0  0  0  0  0
   -4.7440   22.3870  -31.3920 C   0  0  0  0  0  0  0  0  0  0  0  0
   -3.4930   21.7580  -31.5060 O   0  0  0  0  0  0  0  0  0  0  0  0
   -2.9680   21.1940  -32.7040 C   0  0  0  0  0  0  0  0  0  0  0  0
   -2.2386   20.4104  -32.4514 H   0  0  0  0  0  0  0  0  0  0  0  0
   -3.7874   20.7561  -33.2929 H   0  0  0  0  0  0  0  0  0  0  0  0
   -2.4726   21.9800  -33.2929 H   0  0  0  0  0  0  0  0  0  0  0  0
   -4.8250   23.7240  -30.9210 C   0  0  0  0  0  0  0  0  0  0  0  0
   -3.7060   24.4860  -30.5360 O   0  0  0  0  0  0  0  0  0  0  0  0
   -2.8030   24.1930  -29.4750 C   0  0  0  0  0  0  0  0  0  0  0  0
   -3.3056   24.3561  -28.5102 H   0  0  0  0  0  0  0  0  0  0  0  0
   -2.4801   23.1440  -29.5475 H   0  0  0  0  0  0  0  0  0  0  0  0
   -1.9257   24.8526  -29.5475 H   0  0  0  0  0  0  0  0  0  0  0  0
   -6.0770   24.3520  -30.8250 C   0  0  0  0  0  0  0  0  0  0  0  0
   -6.1230   25.6740  -30.3530 O   0  0  0  0  0  0  0  0  0  0  0  0
   -6.4780   26.0460  -29.0250 C   0  0  0  0  0  0  0  0  0  0  0  0
   -5.9017   25.4421  -28.3086 H   0  0  0  0  0  0  0  0  0  0  0  0
   -6.2535   27.1117  -28.8703 H   0  0  0  0  0  0  0  0  0  0  0  0
   -7.5530   25.8715  -28.8703 H   0  0  0  0  0  0  0  0  0  0  0  0
   -7.2420   23.6580  -31.1950 C   0  0  0  0  0  0  0  0  0  0  0  0
   -8.2157   24.1682  -31.1539 H   0  0  0  0  0  0  0  0  0  0  0  0
   -7.5380   19.3020  -32.6260 C   0  0  0  0  0  0  0  0  0  0  0  0
   -7.2500   18.0560  -32.0430 C   0  0  0  0  0  0  0  0  0  0  0  0
   -7.7507   17.7601  -31.1093 H   0  0  0  0  0  0  0  0  0  0  0  0
   -6.3310   17.1910  -32.6430 C   0  0  0  0  0  0  0  0  0  0  0  0
   -6.1265   16.2096  -32.1902 H   0  0  0  0  0  0  0  0  0  0  0  0
   -5.6660   17.5700  -33.8240 C   0  0  0  0  0  0  0  0  0  0  0  0
   -4.7410   16.7360  -34.4680 O   0  0  0  0  0  0  0  0  0  0  0  0
   -3.4820   17.1700  -34.9720 C   0  0  0  0  0  0  0  0  0  0  0  0
   -2.8107   17.4014  -34.1318 H   0  0  0  0  0  0  0  0  0  0  0  0
   -3.0386   16.3728  -35.5868 H   0  0  0  0  0  0  0  0  0  0  0  0
   -3.6240   18.0711  -35.5868 H   0  0  0  0  0  0  0  0  0  0  0  0
   -5.9300   18.8260  -34.3830 C   0  0  0  0  0  0  0  0  0  0  0  0
   -5.4086   19.1350  -35.3010 H   0  0  0  0  0  0  0  0  0  0  0  0
   -6.8510   19.6910  -33.7840 C   0  0  0  0  0  0  0  0  0  0  0  0
   -7.0373   20.6818  -34.2239 H   0  0  0  0  0  0  0  0  0  0  0  0
  1  2  1  0
  2  3  2  0
  3  4  1  0
  3  5  1  0
  5  6  2  0
  6  7  1  0
  6  8  1  0
  8  9  1  0
  9 10  1  0
 10 11  1  0
 10 12  1  0
 10 13  1  0
  8 14  2  0
 14 15  1  0
 15 16  1  0
 16 17  1  0
 16 18  1  0
 16 19  1  0
 14 20  1  0
 20 21  1  0
 21 22  1  0
 22 23  1  0
 22 24  1  0
 22 25  1  0
 20 26  2  0
 26 27  1  0
  2 28  1  0
 28 29  2  0
 29 30  1  0
 29 31  1  0
 31 32  1  0
 31 33  2  0
 33 34  1  0
 34 35  1  0
 35 36  1  0
 35 37  1  0
 35 38  1  0
 33 39  1  0
 39 40  1  0
 39 41  2  0
 41 42  1  0
 26  5  1  0
 41 28  1  0
M  END
>  <UniqueID>  (13) 
13

>  <SMILES>  (13) 
COc1ccc(/C=C\c2cc(OC)c(OC)c(OC)c2)cc1

>  <Energy>  (13) 
51.676466379217175

>  <Genealogy>  (13) 
COc1ccc(/C=C\c2cc(OC)c(OC)c(OC)c2)cc1 (cis-trans isomerization)
COc1ccc(/C=C\c2cc(OC)c(OC)c(OC)c2)cc1 (3D coordinates assigned)
COc1ccc(/C=C\c2cc(OC)c(OC)c(OC)c2)cc1 (optimized conformer: 51.676466379217175 kcal/mol)

>  <smiles>  (13) 
COc1ccc(C=Cc2cc(OC)c(OC)c(OC)c2)cc1

>  <score_type>  (13) 
oracle

>  <origin>  (13) 
adg

>  <m_score__min__energy>  (13) 
-6.8799999999999999

>  <m_primary>  (13) 
energy

$$$$
13:0
     RDKit          3D

 58 61  0  0  0  0  0  0  0  0999 V2000
   -0.5290   27.4800  -27.8360 C   0  0  0  0  0  0  0  0  0  0  0  0
   -1.2210   26.4100  -28.4690 O   0  0  0  0  0  0  0  0  0  0  0  0
   -1.3080   25.1290  -27.9130 C   0  0  0  0  0  0  0  0  0  0  0  0
   -0.4080   24.7280  -26.9730 N   0  0  0  0  0  0  0  0  0  0  0  0
   -0.4530   23.4970  -26.4020 C   0  0  0  0  0  0  0  0  0  0  0  0
    0.5570   23.1280  -25.3460 C   0  0  0  0  0  0  0  0  0  0  0  0
    0.6340   24.1480  -24.2700 N   0  0  0  0  0  0  0  0  0  0  0  0
   -0.6710   24.8510  -24.1060 C   0  0  0  0  0  0  0  0  0  0  0  0
   -0.5080   26.2300  -23.4560 C   0  0  0  0  0  0  0  0  0  0  0  0
    0.3510   27.1530  -24.3390 C   0  0  0  0  0  0  0  0  0  0  0  0
    1.3630   26.3760  -25.1970 C   0  0  0  0  0  0  0  0  0  0  0  0
    1.7830   25.0710  -24.5040 C   0  0  0  0  0  0  0  0  0  0  0  0
   -1.4630   22.6010  -26.7680 C   0  0  0  0  0  0  0  0  0  0  0  0
   -2.4180   22.9800  -27.7200 C   0  0  0  0  0  0  0  0  0  0  0  0
   -2.3310   24.2550  -28.3220 C   0  0  0  0  0  0  0  0  0  0  0  0
   -3.3430   24.7180  -29.3470 C   0  0  0  0  0  0  0  0  0  0  0  0
   -4.2640   23.6490  -29.7490 N   0  0  0  0  0  0  0  0  0  0  0  0
   -5.0410   23.8180  -30.9490 C   0  0  0  0  0  0  0  0  0  0  0  0
   -5.0020   24.9210  -31.5620 O   0  0  0  0  0  0  0  0  0  0  0  0
   -5.8750   22.7190  -31.4900 C   0  0  0  0  0  0  0  0  0  0  0  0
   -7.2690   22.7340  -31.3270 C   0  0  0  0  0  0  0  0  0  0  0  0
   -8.0510   21.6990  -31.8440 C   0  0  0  0  0  0  0  0  0  0  0  0
   -7.4510   20.6300  -32.5100 C   0  0  0  0  0  0  0  0  0  0  0  0
   -6.0550   20.5730  -32.6480 C   0  0  0  0  0  0  0  0  0  0  0  0
   -5.4060   19.4400  -33.4040 C   0  0  0  0  0  0  0  0  0  0  0  0
   -4.1300   19.7880  -33.8110 F   0  0  0  0  0  0  0  0  0  0  0  0
   -5.3300   18.3300  -32.5830 F   0  0  0  0  0  0  0  0  0  0  0  0
   -6.1460   19.1190  -34.5300 F   0  0  0  0  0  0  0  0  0  0  0  0
   -5.2740   21.6320  -32.1490 C   0  0  0  0  0  0  0  0  0  0  0  0
   -4.6900   22.6790  -28.7360 C   0  0  0  0  0  0  0  0  0  0  0  0
   -3.4670   21.9850  -28.1440 C   0  0  0  0  0  0  0  0  0  0  0  0
   -0.6012   27.3683  -26.7441 H   0  0  0  0  0  0  0  0  0  0  0  0
    0.5288   27.4617  -28.1373 H   0  0  0  0  0  0  0  0  0  0  0  0
   -0.9796   28.4372  -28.1373 H   0  0  0  0  0  0  0  0  0  0  0  0
    0.2699   22.1637  -24.9014 H   0  0  0  0  0  0  0  0  0  0  0  0
    1.5444   23.0660  -25.8269 H   0  0  0  0  0  0  0  0  0  0  0  0
    0.8340   23.6410  -23.3740 H   0  0  0  0  0  0  0  0  0  0  0  0
   -1.1317   24.9785  -25.0967 H   0  0  0  0  0  0  0  0  0  0  0  0
   -1.3037   24.2392  -23.4462 H   0  0  0  0  0  0  0  0  0  0  0  0
   -1.5007   26.6836  -23.3190 H   0  0  0  0  0  0  0  0  0  0  0  0
   -0.0067   26.1048  -22.4849 H   0  0  0  0  0  0  0  0  0  0  0  0
   -0.3139   27.7211  -25.0063 H   0  0  0  0  0  0  0  0  0  0  0  0
    0.9201   27.8172  -23.6720 H   0  0  0  0  0  0  0  0  0  0  0  0
    0.9034   26.1365  -26.1673 H   0  0  0  0  0  0  0  0  0  0  0  0
    2.2566   27.0016  -25.3385 H   0  0  0  0  0  0  0  0  0  0  0  0
    2.5228   24.5588  -25.1367 H   0  0  0  0  0  0  0  0  0  0  0  0
    2.2018   25.3360  -23.5220 H   0  0  0  0  0  0  0  0  0  0  0  0
   -1.5071   21.6020  -26.3097 H   0  0  0  0  0  0  0  0  0  0  0  0
   -3.9278   25.5445  -28.9171 H   0  0  0  0  0  0  0  0  0  0  0  0
   -2.7899   25.0374  -30.2426 H   0  0  0  0  0  0  0  0  0  0  0  0
   -7.7480   23.5654  -30.7892 H   0  0  0  0  0  0  0  0  0  0  0  0
   -9.1443   21.7267  -31.7257 H   0  0  0  0  0  0  0  0  0  0  0  0
   -8.0752   19.8272  -32.9294 H   0  0  0  0  0  0  0  0  0  0  0  0
   -4.1816   21.6091  -32.2759 H   0  0  0  0  0  0  0  0  0  0  0  0
   -5.2371   23.2008  -27.9370 H   0  0  0  0  0  0  0  0  0  0  0  0
   -5.3453   21.9285  -29.2023 H   0  0  0  0  0  0  0  0  0  0  0  0
   -3.7785   21.3986  -27.2670 H   0  0  0  0  0  0  0  0  0  0  0  0
   -3.0323   21.3338  -28.9166 H   0  0  0  0  0  0  0  0  0  0  0  0
  1  2  1  0
  2  3  1  0
  3  4  2  0
  4  5  1  0
  5  6  1  0
  6  7  1  0
  7  8  1  0
  8  9  1  0
  9 10  1  0
 10 11  1  0
 11 12  1  0
  5 13  2  0
 13 14  1  0
 14 15  2  0
 15 16  1  0
 16 17  1  0
 17 18  1  0
 18 19  2  0
 18 20  1  0
 20 21  2  0
 21 22  1  0
 22 23  2  0
 23 24  1  0
 24 25  1  0
 25 26  1  0
 25 27  1  0
 25 28  1  0
 24 29  2  0
 17 30  1  0
 30 31  1  0
 15  3  1  0
 29 20  1  0
 12  7  1  0
 31 14  1  0
  1 32  1  0
  1 33  1  0
  1 34  1  0
  6 35  1  0
  6 36  1  0
  7 37  1  0
  8 38  1  0
  8 39  1  0
  9 40  1  0
  9 41  1  0
 10 42  1  0
 10 43  1  0
 11 44  1  0
 11 45  1  0
 12 46  1  0
 12 47  1  0
 13 48  1  0
 16 49  1  0
 16 50  1  0
 21 51  1  0
 22 52  1  0
 23 53  1  0
 29 54  1  0
 30 55  1  0
 30 56  1  0
 31 57  1  0
 31 58  1  0
M  CHG  1   7   1
M  END
>  <UniqueID>  (14) 
14

>  <SMILES>  (14) 
COc1nc(C[NH+]2CCCCC2)cc2c1CN(C(=O)c1cccc(C(F)(F)F)c1)CC2

>  <Energy>  (14) 
72.89719602848164

>  <Genealogy>  (14) 
COc1nc(C[NH+]2CCCCC2)cc2c1CN(C(=O)c1cccc(C(F)(F)F)c1)CC2 (protonated)
COc1nc(C[NH+]2CCCCC2)cc2c1CN(C(=O)c1cccc(C(F)(F)F)c1)CC2 (3D coordinates assigned)
COc1nc(C[NH+]2CCCCC2)cc2c1CN(C(=O)c1cccc(C(F)(F)F)c1)CC2 (nonaromatic ring conformer: 72.89719602848164 kcal/mol)

>  <smiles>  (14) 
COc1nc(CN2CCCCC2)cc2c1CN(C(=O)c1cccc(C(F)(F)F)c1)CC2

>  <score_type>  (14) 
oracle

>  <origin>  (14) 
adg

>  <m_score__min__energy>  (14) 
-8.6999999999999993

>  <m_primary>  (14) 
energy

$$$$
14:0
     RDKit          3D

 65 69  0  0  0  0  0  0  0  0999 V2000
   -7.5580   17.8530  -32.0150 C   0  0  0  0  0  0  0  0  0  0  0  0
   -6.3630   17.3660  -32.8300 C   0  0  0  0  0  0  0  0  0  0  0  0
   -5.0620   18.0160  -32.3480 C   0  0  0  0  0  0  0  0  0  0  0  0
   -4.3470   18.7360  -33.4960 C   0  0  0  0  0  0  0  0  0  0  0  0
   -4.5510   20.1880  -33.3910 N   0  0  0  0  0  0  0  0  0  0  0  0
   -3.3860   21.0880  -33.4710 C   0  0  0  0  0  0  0  0  0  0  0  0
   -2.3060   20.6500  -32.5150 C   0  0  0  0  0  0  0  0  0  0  0  0
   -1.0690   20.2970  -32.9350 N   0  0  0  0  0  0  0  0  0  0  0  0
   -0.4350   19.9090  -31.8160 C   0  0  0  0  0  0  0  0  0  0  0  0
   -1.2610   20.0330  -30.7460 C   0  0  0  0  0  0  0  0  0  0  0  0
   -0.8160   19.6510  -29.4800 C   0  0  0  0  0  0  0  0  0  0  0  0
   -1.5680   19.7490  -28.4740 O   0  0  0  0  0  0  0  0  0  0  0  0
    0.4630   19.1540  -29.3590 N   0  0  0  0  0  0  0  0  0  0  0  0
    0.9800   18.7170  -28.0510 C   0  0  0  0  0  0  0  0  0  0  0  0
    1.2730   19.0250  -30.4740 C   0  0  0  0  0  0  0  0  0  0  0  0
    2.4310   18.5340  -30.3470 O   0  0  0  0  0  0  0  0  0  0  0  0
    0.8300   19.4180  -31.7170 N   0  0  0  0  0  0  0  0  0  0  0  0
    1.6590   19.2760  -32.9230 C   0  0  0  0  0  0  0  0  0  0  0  0
   -2.4610   20.5080  -31.1640 N   0  0  0  0  0  0  0  0  0  0  0  0
   -3.6350   20.8810  -30.3630 C   0  0  0  0  0  0  0  0  0  0  0  0
   -3.3500   22.1260  -29.5670 C   0  0  0  0  0  0  0  0  0  0  0  0
   -4.0480   22.3760  -28.3740 C   0  0  0  0  0  0  0  0  0  0  0  0
   -3.7770   23.5260  -27.6260 C   0  0  0  0  0  0  0  0  0  0  0  0
   -2.8100   24.4350  -28.0620 C   0  0  0  0  0  0  0  0  0  0  0  0
   -2.1090   24.1930  -29.2480 C   0  0  0  0  0  0  0  0  0  0  0  0
   -2.3760   23.0430  -29.9970 C   0  0  0  0  0  0  0  0  0  0  0  0
   -5.8870   20.7080  -33.1740 C   0  0  0  0  0  0  0  0  0  0  0  0
   -6.8670   20.2070  -33.7870 O   0  0  0  0  0  0  0  0  0  0  0  0
   -6.1490   21.7760  -32.1960 C   0  0  0  0  0  0  0  0  0  0  0  0
   -7.2760   21.7000  -31.3430 C   0  0  0  0  0  0  0  0  0  0  0  0
   -7.5840   22.7610  -30.4740 C   0  0  0  0  0  0  0  0  0  0  0  0
   -6.7490   23.8720  -30.4930 C   0  0  0  0  0  0  0  0  0  0  0  0
   -6.8200   25.3070  -29.6580 S   0  0  0  0  0  0  0  0  0  0  0  0
   -5.4570   25.9930  -30.3340 N   0  0  0  0  0  0  0  0  0  0  0  0
   -4.9370   25.1290  -31.2080 N   0  0  0  0  0  0  0  0  0  0  0  0
   -5.6340   23.9600  -31.3060 C   0  0  0  0  0  0  0  0  0  0  0  0
   -5.3060   22.9070  -32.1600 C   0  0  0  0  0  0  0  0  0  0  0  0
   -7.3322   17.7610  -30.9424 H   0  0  0  0  0  0  0  0  0  0  0  0
   -7.7626   18.9062  -32.2576 H   0  0  0  0  0  0  0  0  0  0  0  0
   -8.4405   17.2428  -32.2576 H   0  0  0  0  0  0  0  0  0  0  0  0
   -6.2787   16.2742  -32.7259 H   0  0  0  0  0  0  0  0  0  0  0  0
   -6.5224   17.6440  -33.8823 H   0  0  0  0  0  0  0  0  0  0  0  0
   -5.2956   18.7442  -31.5573 H   0  0  0  0  0  0  0  0  0  0  0  0
   -4.3989   17.2271  -31.9634 H   0  0  0  0  0  0  0  0  0  0  0  0
   -3.2703   18.5161  -33.4480 H   0  0  0  0  0  0  0  0  0  0  0  0
   -4.7603   18.3841  -34.4527 H   0  0  0  0  0  0  0  0  0  0  0  0
   -2.9881   21.0729  -34.4964 H   0  0  0  0  0  0  0  0  0  0  0  0
   -3.7062   22.1049  -33.2001 H   0  0  0  0  0  0  0  0  0  0  0  0
   -0.7100   20.2940  -33.9170 H   0  0  0  0  0  0  0  0  0  0  0  0
    0.4053   19.2028  -27.2487 H   0  0  0  0  0  0  0  0  0  0  0  0
    0.8806   17.6250  -27.9637 H   0  0  0  0  0  0  0  0  0  0  0  0
    2.0402   18.9968  -27.9637 H   0  0  0  0  0  0  0  0  0  0  0  0
    2.7042   19.0970  -32.6305 H   0  0  0  0  0  0  0  0  0  0  0  0
    1.2949   18.4271  -33.5204 H   0  0  0  0  0  0  0  0  0  0  0  0
    1.5982   20.1976  -33.5204 H   0  0  0  0  0  0  0  0  0  0  0  0
   -4.4876   21.0659  -31.0330 H   0  0  0  0  0  0  0  0  0  0  0  0
   -3.8712   20.0597  -29.6704 H   0  0  0  0  0  0  0  0  0  0  0  0
   -4.8112   21.6640  -28.0266 H   0  0  0  0  0  0  0  0  0  0  0  0
   -4.3266   23.7153  -26.6921 H   0  0  0  0  0  0  0  0  0  0  0  0
   -2.6000   25.3401  -27.4733 H   0  0  0  0  0  0  0  0  0  0  0  0
   -1.3470   24.9081  -29.5917 H   0  0  0  0  0  0  0  0  0  0  0  0
   -1.8207   22.8551  -30.9278 H   0  0  0  0  0  0  0  0  0  0  0  0
   -7.9150   20.8048  -31.3603 H   0  0  0  0  0  0  0  0  0  0  0  0
   -8.4544   22.7138  -29.8031 H   0  0  0  0  0  0  0  0  0  0  0  0
   -4.4078   22.9573  -32.7930 H   0  0  0  0  0  0  0  0  0  0  0  0
  1  2  1  0
  2  3  1  0
  3  4  1  0
  4  5  1  0
  5  6  1  0
  6  7  1  0
  7  8  2  0
  8  9  1  0
  9 10  2  0
 10 11  1  0
 11 12  2  0
 11 13  1  0
 13 14  1  0
 13 15  1  0
 15 16  2  0
 15 17  1  0
 17 18  1  0
 10 19  1  0
 19 20  1  0
 20 21  1  0
 21 22  2  0
 22 23  1  0
 23 24  2  0
 24 25  1  0
 25 26  2  0
  5 27  1  0
 27 28  2  0
 27 29  1  0
 29 30  2  0
 30 31  1  0
 31 32  2  0
 32 33  1  0
 33 34  1  0
 34 35  2  0
 35 36  1  0
 36 37  2  0
 19  7  1  0
 26 21  1  0
 37 29  1  0
 17  9  1  0
 36 32  1  0
  1 38  1  0
  1 39  1  0
  1 40  1  0
  2 41  1  0
  2 42  1  0
  3 43  1  0
  3 44  1  0
  4 45  1  0
  4 46  1  0
  6 47  1  0
  6 48  1  0
  8 49  1  0
 14 50  1  0
 14 51  1  0
 14 52  1  0
 18 53  1  0
 18 54  1  0
 18 55  1  0
 20 56  1  0
 20 57  1  0
 22 58  1  0
 23 59  1  0
 24 60  1  0
 25 61  1  0
 26 62  1  0
 30 63  1  0
 31 64  1  0
 37 65  1  0
M  CHG  1   8   1
M  END
>  <UniqueID>  (15) 
15

>  <SMILES>  (15) 
CCCCN(Cc1[nH+]c2c(c(=O)n(C)c(=O)n2C)n1Cc1ccccc1)C(=O)c1ccc2snnc2c1

>  <Energy>  (15) 
154.4534701618617

>  <Genealogy>  (15) 
CCCCN(Cc1[nH+]c2c(c(=O)n(C)c(=O)n2C)n1Cc1ccccc1)C(=O)c1ccc2snnc2c1 (protonated)
CCCCN(Cc1[nH+]c2c(c(=O)n(C)c(=O)n2C)n1Cc1ccccc1)C(=O)c1ccc2snnc2c1 (3D coordinates assigned)
CCCCN(Cc1[nH+]c2c(c(=O)n(C)c(=O)n2C)n1Cc1ccccc1)C(=O)c1ccc2snnc2c1 (optimized conformer: 154.4534701618617 kcal/mol)

>  <smiles>  (15) 
CCCCN(Cc1nc2c(c(=O)n(C)c(=O)n2C)n1Cc1ccccc1)C(=O)c1ccc2snnc2c1

>  <score_type>  (15) 
oracle

>  <origin>  (15) 
adg

>  <m_score__min__energy>  (15) 
-9.7100000000000009

>  <m_primary>  (15) 
energy

$$$$
15:0
     RDKit          3D

 28 29  0  0  0  0  0  0  0  0999 V2000
   -6.0640   24.9440  -29.3430 C   0  0  0  0  0  0  0  0  0  0  0  0
   -6.8610   24.6230  -30.6040 C   0  0  0  0  0  0  0  0  0  0  0  0
   -6.3590   23.3820  -31.2290 N   0  0  0  0  0  0  0  0  0  0  0  0
   -7.2310   22.3490  -31.4890 C   0  0  0  0  0  0  0  0  0  0  0  0
   -8.4590   22.4440  -31.2140 O   0  0  0  0  0  0  0  0  0  0  0  0
   -6.7250   21.1860  -32.0570 C   0  0  0  0  0  0  0  0  0  0  0  0
   -5.4030   21.0800  -32.3280 C   0  0  0  0  0  0  0  0  0  0  0  0
   -5.1340   19.8620  -32.8320 N   0  0  0  0  0  0  0  0  0  0  0  0
   -6.3390   19.2420  -32.8560 C   0  0  0  0  0  0  0  0  0  0  0  0
   -6.5590   17.4410  -33.4650 Br  0  0  0  0  0  0  0  0  0  0  0  0
   -7.3420   20.0330  -32.3910 N   0  0  0  0  0  0  0  0  0  0  0  0
   -8.7550   19.6950  -32.2330 C   0  0  0  0  0  0  0  0  0  0  0  0
   -4.5190   22.0840  -32.0730 N   0  0  0  0  0  0  0  0  0  0  0  0
   -3.0900   21.8970  -32.3630 C   0  0  0  0  0  0  0  0  0  0  0  0
   -5.0070   23.2400  -31.5000 C   0  0  0  0  0  0  0  0  0  0  0  0
   -4.2100   24.1790  -31.2120 O   0  0  0  0  0  0  0  0  0  0  0  0
   -6.6675   24.7009  -28.4560 H   0  0  0  0  0  0  0  0  0  0  0  0
   -5.1394   24.3481  -29.3320 H   0  0  0  0  0  0  0  0  0  0  0  0
   -5.8105   26.0143  -29.3320 H   0  0  0  0  0  0  0  0  0  0  0  0
   -7.9207   24.4925  -30.3395 H   0  0  0  0  0  0  0  0  0  0  0  0
   -6.7487   25.4525  -31.3177 H   0  0  0  0  0  0  0  0  0  0  0  0
   -4.2130   19.4650  -33.1230 H   0  0  0  0  0  0  0  0  0  0  0  0
   -9.0005   19.6363  -31.1623 H   0  0  0  0  0  0  0  0  0  0  0  0
   -9.3730   20.4707  -32.7089 H   0  0  0  0  0  0  0  0  0  0  0  0
   -8.9551   18.7237  -32.7089 H   0  0  0  0  0  0  0  0  0  0  0  0
   -2.5307   21.8238  -31.4186 H   0  0  0  0  0  0  0  0  0  0  0  0
   -2.9515   20.9731  -32.9437 H   0  0  0  0  0  0  0  0  0  0  0  0
   -2.7185   22.7542  -32.9437 H   0  0  0  0  0  0  0  0  0  0  0  0
  1  2  1  0
  2  3  1  0
  3  4  1  0
  4  5  2  0
  4  6  1  0
  6  7  2  0
  7  8  1  0
  8  9  2  0
  9 10  1  0
  9 11  1  0
 11 12  1  0
  7 13  1  0
 13 14  1  0
 13 15  1  0
 15 16  2  0
 15  3  1  0
 11  6  1  0
  1 17  1  0
  1 18  1  0
  1 19  1  0
  2 20  1  0
  2 21  1  0
  8 22  1  0
 12 23  1  0
 12 24  1  0
 12 25  1  0
 14 26  1  0
 14 27  1  0
 14 28  1  0
M  CHG  1   8   1
M  END
>  <UniqueID>  (16) 
16

>  <SMILES>  (16) 
CCn1c(=O)c2c([nH+]c(Br)n2C)n(C)c1=O

>  <Energy>  (16) 
72.92466784323291

>  <Genealogy>  (16) 
CCn1c(=O)c2c([nH+]c(Br)n2C)n(C)c1=O (protonated)
CCn1c(=O)c2c([nH+]c(Br)n2C)n(C)c1=O (3D coordinates assigned)
CCn1c(=O)c2c([nH+]c(Br)n2C)n(C)c1=O (optimized conformer: 72.92466784323291 kcal/mol)

>  <smiles>  (16) 
CCn1c(=O)c2c(nc(Br)n2C)n(C)c1=O

>  <score_type>  (16) 
oracle

>  <origin>  (16) 
adg

>  <m_score__min__energy>  (16) 
-5.8099999999999996

>  <m_primary>  (16) 
energy

$$$$
16:0
     RDKit          3D

 32 34  0  0  0  0  0  0  0  0999 V2000
   -0.8820   27.5610  -24.7930 C   0  0  0  0  0  0  0  0  0  0  0  0
   -1.5890   26.3670  -24.9600 C   0  0  0  0  0  0  0  0  0  0  0  0
   -1.7480   25.8180  -26.2360 C   0  0  0  0  0  0  0  0  0  0  0  0
   -1.2120   26.4740  -27.3600 C   0  0  0  0  0  0  0  0  0  0  0  0
   -1.3520   25.9580  -28.6580 O   0  0  0  0  0  0  0  0  0  0  0  0
   -1.4160   24.5930  -28.9740 C   0  0  0  0  0  0  0  0  0  0  0  0
   -0.3650   23.7620  -28.5670 C   0  0  0  0  0  0  0  0  0  0  0  0
   -0.3920   22.3950  -28.8550 C   0  0  0  0  0  0  0  0  0  0  0  0
   -1.4620   21.8520  -29.5700 C   0  0  0  0  0  0  0  0  0  0  0  0
   -2.5030   22.6760  -30.0060 C   0  0  0  0  0  0  0  0  0  0  0  0
   -2.4890   24.0520  -29.7140 C   0  0  0  0  0  0  0  0  0  0  0  0
   -3.4880   24.9050  -30.2080 O   0  0  0  0  0  0  0  0  0  0  0  0
   -4.8050   24.5260  -30.5040 C   0  0  0  0  0  0  0  0  0  0  0  0
   -5.8990   24.9490  -29.7290 C   0  0  0  0  0  0  0  0  0  0  0  0
   -7.1550   24.5720  -30.0850 N   0  0  0  0  0  0  0  0  0  0  0  0
   -7.3760   23.7960  -31.1770 C   0  0  0  0  0  0  0  0  0  0  0  0
   -6.2930   23.3880  -31.9570 C   0  0  0  0  0  0  0  0  0  0  0  0
   -5.0370   23.7660  -31.6060 N   0  0  0  0  0  0  0  0  0  0  0  0
   -0.4870   27.6600  -27.1820 C   0  0  0  0  0  0  0  0  0  0  0  0
   -0.3280   28.2050  -25.9040 C   0  0  0  0  0  0  0  0  0  0  0  0
   -0.7614   27.9937  -23.7889 H   0  0  0  0  0  0  0  0  0  0  0  0
   -2.0212   25.8582  -24.0858 H   0  0  0  0  0  0  0  0  0  0  0  0
   -2.2934   24.8710  -26.3618 H   0  0  0  0  0  0  0  0  0  0  0  0
    0.4872   24.1880  -28.0171 H   0  0  0  0  0  0  0  0  0  0  0  0
    0.4299   21.7460  -28.5184 H   0  0  0  0  0  0  0  0  0  0  0  0
   -1.4852   20.7745  -29.7901 H   0  0  0  0  0  0  0  0  0  0  0  0
   -3.3372   22.2467  -30.5802 H   0  0  0  0  0  0  0  0  0  0  0  0
   -5.7396   25.5798  -28.8420 H   0  0  0  0  0  0  0  0  0  0  0  0
   -8.3987   23.4918  -31.4443 H   0  0  0  0  0  0  0  0  0  0  0  0
   -6.4556   22.7652  -32.8490 H   0  0  0  0  0  0  0  0  0  0  0  0
   -0.0409   28.1646  -28.0517 H   0  0  0  0  0  0  0  0  0  0  0  0
    0.2336   29.1416  -25.7724 H   0  0  0  0  0  0  0  0  0  0  0  0
  1  2  2  0
  2  3  1  0
  3  4  2  0
  4  5  1  0
  5  6  1  0
  6  7  2  0
  7  8  1  0
  8  9  2  0
  9 10  1  0
 10 11  2  0
 11 12  1  0
 12 13  1  0
 13 14  2  0
 14 15  1  0
 15 16  2  0
 16 17  1  0
 17 18  2  0
  4 19  1  0
 19 20  2  0
 20  1  1  0
 11  6  1  0
 18 13  1  0
  1 21  1  0
  2 22  1  0
  3 23  1  0
  7 24  1  0
  8 25  1  0
  9 26  1  0
 10 27  1  0
 14 28  1  0
 16 29  1  0
 17 30  1  0
 19 31  1  0
 20 32  1  0
M  END
>  <UniqueID>  (17) 
17

>  <SMILES>  (17) 
c1ccc(Oc2ccccc2Oc2cnccn2)cc1

>  <Energy>  (17) 
50.039117707094746

>  <Genealogy>  (17) 
c1ccc(Oc2ccccc2Oc2cnccn2)cc1 (3D coordinates assigned)
c1ccc(Oc2ccccc2Oc2cnccn2)cc1 (optimized conformer: 50.039117707094746 kcal/mol)

>  <smiles>  (17) 
c1ccc(Oc2ccccc2Oc2cnccn2)cc1

>  <score_type>  (17) 
oracle

>  <origin>  (17) 
adg

>  <m_score__min__energy>  (17) 
-7.29

>  <m_primary>  (17) 
energy

$$$$
17:0
     RDKit          3D

 55 57  0  0  0  0  0  0  0  0999 V2000
    0.0320   20.1820  -31.9160 C   0  0  0  0  0  0  0  0  0  0  0  0
   -1.1350   19.5450  -31.1560 C   0  0  0  0  0  0  0  0  0  0  0  0
   -2.4170   19.9860  -31.7140 N   0  0  0  0  0  0  0  0  0  0  0  0
   -3.1900   19.0980  -32.5860 C   0  0  0  0  0  0  0  0  0  0  0  0
   -2.2410   18.1730  -33.3630 C   0  0  0  0  0  0  0  0  0  0  0  0
   -2.7930   16.8140  -33.5310 N   0  0  2  0  0  0  0  0  0  0  0  0
   -2.9250   16.5230  -34.9350 C   0  0  0  0  0  0  0  0  0  0  0  0
   -1.9330   16.3570  -35.6910 O   0  0  0  0  0  0  0  0  0  0  0  0
   -4.2670   16.4690  -35.4150 N   0  0  0  0  0  0  0  0  0  0  0  0
   -5.0100   16.6040  -34.3710 C   0  0  0  0  0  0  0  0  0  0  0  0
   -6.4880   16.8160  -34.4320 C   0  0  0  0  0  0  0  0  0  0  0  0
   -6.8500   18.0340  -33.6210 C   0  0  0  0  0  0  0  0  0  0  0  0
   -7.6020   17.8960  -32.4420 C   0  0  0  0  0  0  0  0  0  0  0  0
   -7.8600   19.0090  -31.6360 C   0  0  0  0  0  0  0  0  0  0  0  0
   -7.3870   20.2710  -32.0100 C   0  0  0  0  0  0  0  0  0  0  0  0
   -7.7490   21.7030  -30.9870 S   0  0  0  0  0  0  0  0  0  0  0  0
   -9.4590   21.8470  -31.5980 C   0  0  0  0  0  0  0  0  0  0  0  0
   -6.6330   20.4140  -33.1810 C   0  0  0  0  0  0  0  0  0  0  0  0
   -6.3530   19.2980  -33.9770 C   0  0  0  0  0  0  0  0  0  0  0  0
   -4.1820   16.7640  -33.1870 C   0  0  0  0  0  0  0  0  0  0  0  0
   -4.6130   16.7740  -32.0040 O   0  0  0  0  0  0  0  0  0  0  0  0
   -2.9040   21.3070  -31.4390 C   0  0  0  0  0  0  0  0  0  0  0  0
   -4.0650   21.7730  -32.0690 C   0  0  0  0  0  0  0  0  0  0  0  0
   -4.5630   23.0430  -31.7690 C   0  0  0  0  0  0  0  0  0  0  0  0
   -3.9040   23.8630  -30.8290 C   0  0  0  0  0  0  0  0  0  0  0  0
   -4.3750   25.1390  -30.4860 O   0  0  0  0  0  0  0  0  0  0  0  0
   -5.7220   25.4260  -30.1230 C   0  0  0  0  0  0  0  0  0  0  0  0
   -2.7400   23.3900  -30.2080 C   0  0  0  0  0  0  0  0  0  0  0  0
   -2.2480   22.1190  -30.5040 C   0  0  0  0  0  0  0  0  0  0  0  0
    0.7632   20.5811  -31.1976 H   0  0  0  0  0  0  0  0  0  0  0  0
    0.5158   19.4229  -32.5482 H   0  0  0  0  0  0  0  0  0  0  0  0
   -0.3448   20.9996  -32.5482 H   0  0  0  0  0  0  0  0  0  0  0  0
   -1.0636   18.4502  -31.2357 H   0  0  0  0  0  0  0  0  0  0  0  0
   -1.0822   19.8543  -30.1017 H   0  0  0  0  0  0  0  0  0  0  0  0
   -3.8726   18.4898  -31.9744 H   0  0  0  0  0  0  0  0  0  0  0  0
   -3.7692   19.7039  -33.2983 H   0  0  0  0  0  0  0  0  0  0  0  0
   -2.0607   18.6066  -34.3577 H   0  0  0  0  0  0  0  0  0  0  0  0
   -1.3085   18.0875  -32.7859 H   0  0  0  0  0  0  0  0  0  0  0  0
   -2.2390   16.0760  -33.0420 H   0  0  0  0  0  0  0  0  0  0  0  0
   -6.7949   16.9661  -35.4776 H   0  0  0  0  0  0  0  0  0  0  0  0
   -7.0041   15.9345  -34.0238 H   0  0  0  0  0  0  0  0  0  0  0  0
   -7.9893   16.9082  -32.1519 H   0  0  0  0  0  0  0  0  0  0  0  0
   -8.4360   18.8919  -30.7062 H   0  0  0  0  0  0  0  0  0  0  0  0
  -10.1498   21.9052  -30.7440 H   0  0  0  0  0  0  0  0  0  0  0  0
   -9.5545   22.7564  -32.2095 H   0  0  0  0  0  0  0  0  0  0  0  0
   -9.7053   20.9664  -32.2095 H   0  0  0  0  0  0  0  0  0  0  0  0
   -6.2599   21.4059  -33.4758 H   0  0  0  0  0  0  0  0  0  0  0  0
   -5.7417   19.4112  -34.8844 H   0  0  0  0  0  0  0  0  0  0  0  0
   -4.5853   21.1379  -32.8011 H   0  0  0  0  0  0  0  0  0  0  0  0
   -5.4736   23.4057  -32.2682 H   0  0  0  0  0  0  0  0  0  0  0  0
   -5.8103   25.4448  -29.0267 H   0  0  0  0  0  0  0  0  0  0  0  0
   -6.0109   26.4059  -30.5310 H   0  0  0  0  0  0  0  0  0  0  0  0
   -6.3852   24.6490  -30.5310 H   0  0  0  0  0  0  0  0  0  0  0  0
   -2.2110   24.0254  -29.4824 H   0  0  0  0  0  0  0  0  0  0  0  0
   -1.3409   21.7523  -30.0013 H   0  0  0  0  0  0  0  0  0  0  0  0
  1  2  1  0
  2  3  1  0
  3  4  1  0
  4  5  1  0
  5  6  1  0
  6  7  1  0
  7  8  2  0
  7  9  1  0
  9 10  2  0
 10 11  1  0
 11 12  1  0
 12 13  2  0
 13 14  1  0
 14 15  2  0
 15 16  1  0
 16 17  1  0
 15 18  1  0
 18 19  2  0
 10 20  1  0
 20 21  2  0
  3 22  1  0
 22 23  2  0
 23 24  1  0
 24 25  2  0
 25 26  1  0
 26 27  1  0
 25 28  1  0
 28 29  2  0
 20  6  1  0
 29 22  1  0
 19 12  1  0
  1 30  1  0
  1 31  1  0
  1 32  1  0
  2 33  1  0
  2 34  1  0
  4 35  1  0
  4 36  1  0
  5 37  1  0
  5 38  1  0
  6 39  1  1
 11 40  1  0
 11 41  1  0
 13 42  1  0
 14 43  1  0
 17 44  1  0
 17 45  1  0
 17 46  1  0
 18 47  1  0
 19 48  1  0
 23 49  1  0
 24 50  1  0
 27 51  1  0
 27 52  1  0
 27 53  1  0
 28 54  1  0
 29 55  1  0
M  CHG  1   6   1
M  END
>  <UniqueID>  (18) 
18

>  <SMILES>  (18) 
CCN(CC[N@@H+]1C(=O)N=C(Cc2ccc(SC)cc2)C1=O)c1ccc(OC)cc1

>  <Energy>  (18) 
72.91115365669302

>  <Genealogy>  (18) 
CCN(CC[NH+]1C(=O)N=C(Cc2ccc(SC)cc2)C1=O)c1ccc(OC)cc1 (protonated)
CCN(CC[N@@H+]1C(=O)N=C(Cc2ccc(SC)cc2)C1=O)c1ccc(OC)cc1 (chirality)
CCN(CC[N@@H+]1C(=O)N=C(Cc2ccc(SC)cc2)C1=O)c1ccc(OC)cc1 (3D coordinates assigned)
CCN(CC[N@@H+]1C(=O)N=C(Cc2ccc(SC)cc2)C1=O)c1ccc(OC)cc1 (nonaromatic ring conformer: 72.91115365669302 kcal/mol)

>  <smiles>  (18) 
CCN(CCN1C(=O)N=C(Cc2ccc(SC)cc2)C1=O)c1ccc(OC)cc1

>  <score_type>  (18) 
oracle

>  <origin>  (18) 
adg

>  <m_score__min__energy>  (18) 
-8.5600000000000005

>  <m_primary>  (18) 
energy

$$$$
18:0
     RDKit          3D

 34 35  0  0  0  0  0  0  0  0999 V2000
   -6.6701   23.6808  -32.9975 H   0  0  0  0  0  0  0  0  0  0  0  0
   -6.4580   22.9090  -32.2430 C   0  0  0  0  0  0  0  0  0  0  0  0
   -5.4440   23.1280  -31.3940 C   0  0  0  0  0  0  0  0  0  0  0  0
   -4.7167   22.3165  -31.2438 H   0  0  0  0  0  0  0  0  0  0  0  0
   -5.1970   24.6280  -30.5020 S   0  0  0  0  0  0  0  0  0  0  0  0
   -5.8620   25.7640  -31.2310 O   0  0  0  0  0  0  0  0  0  0  0  0
   -5.7580   24.4890  -29.1140 O   0  0  0  0  0  0  0  0  0  0  0  0
   -3.4900   24.9260  -30.4160 N   0  0  0  0  0  0  0  0  0  0  0  0
   -2.4960   24.1690  -29.7030 C   0  0  0  0  0  0  0  0  0  0  0  0
   -2.6310   22.7730  -29.7130 C   0  0  0  0  0  0  0  0  0  0  0  0
   -3.4764   22.3132  -30.2458 H   0  0  0  0  0  0  0  0  0  0  0  0
   -1.7070   21.9600  -29.0560 C   0  0  0  0  0  0  0  0  0  0  0  0
   -1.8242   20.8665  -29.0770 H   0  0  0  0  0  0  0  0  0  0  0  0
   -0.6370   22.5320  -28.3740 C   0  0  0  0  0  0  0  0  0  0  0  0
    0.0951   21.8893  -27.8632 H   0  0  0  0  0  0  0  0  0  0  0  0
   -0.4910   23.9210  -28.3370 C   0  0  0  0  0  0  0  0  0  0  0  0
    0.3554   24.3660  -27.7934 H   0  0  0  0  0  0  0  0  0  0  0  0
   -1.4200   24.7580  -28.9910 C   0  0  0  0  0  0  0  0  0  0  0  0
   -1.3010   26.1540  -28.9270 O   0  0  0  0  0  0  0  0  0  0  0  0
   -0.8000   26.8810  -27.8100 C   0  0  0  0  0  0  0  0  0  0  0  0
   -1.1327   26.3983  -26.8792 H   0  0  0  0  0  0  0  0  0  0  0  0
    0.2994   26.8936  -27.8439 H   0  0  0  0  0  0  0  0  0  0  0  0
   -1.1797   27.9128  -27.8439 H   0  0  0  0  0  0  0  0  0  0  0  0
   -7.3090   21.7040  -32.2350 C   0  0  0  0  0  0  0  0  0  0  0  0
   -6.7810   20.4460  -32.5700 C   0  0  0  0  0  0  0  0  0  0  0  0
   -5.7149   20.3496  -32.8233 H   0  0  0  0  0  0  0  0  0  0  0  0
   -7.6050   19.3150  -32.5830 C   0  0  0  0  0  0  0  0  0  0  0  0
   -7.1829   18.3302  -32.8320 H   0  0  0  0  0  0  0  0  0  0  0  0
   -8.9630   19.4360  -32.2800 C   0  0  0  0  0  0  0  0  0  0  0  0
   -9.7610   18.3400  -32.2940 F   0  0  0  0  0  0  0  0  0  0  0  0
   -9.5020   20.6890  -31.9730 C   0  0  0  0  0  0  0  0  0  0  0  0
  -10.5733   20.7837  -31.7419 H   0  0  0  0  0  0  0  0  0  0  0  0
   -8.6820   21.8230  -31.9590 C   0  0  0  0  0  0  0  0  0  0  0  0
   -9.2220   23.0310  -31.6610 F   0  0  0  0  0  0  0  0  0  0  0  0
  1  2  1  0
  2  3  2  0
  3  4  1  0
  3  5  1  0
  5  6  2  0
  5  7  2  0
  5  8  1  0
  8  9  1  0
  9 10  2  0
 10 11  1  0
 10 12  1  0
 12 13  1  0
 12 14  2  0
 14 15  1  0
 14 16  1  0
 16 17  1  0
 16 18  2  0
 18 19  1  0
 19 20  1  0
 20 21  1  0
 20 22  1  0
 20 23  1  0
  2 24  1  0
 24 25  2  0
 25 26  1  0
 25 27  1  0
 27 28  1  0
 27 29  2  0
 29 30  1  0
 29 31  1  0
 31 32  1  0
 31 33  2  0
 33 34  1  0
 18  9  1  0
 33 24  1  0
M  CHG  1   8  -1
M  END
>  <UniqueID>  (19) 
19

>  <SMILES>  (19) 
COc1ccccc1[N-]S(=O)(=O)/C=C\c1ccc(F)cc1F

>  <Energy>  (19) 
48.244299966824876

>  <Genealogy>  (19) 
COc1ccccc1[N-]S(=O)(=O)C=Cc1ccc(F)cc1F (protonated)
COc1ccccc1[N-]S(=O)(=O)/C=C\c1ccc(F)cc1F (cis-trans isomerization)
COc1ccccc1[N-]S(=O)(=O)/C=C\c1ccc(F)cc1F (3D coordinates assigned)
COc1ccccc1[N-]S(=O)(=O)/C=C\c1ccc(F)cc1F (optimized conformer: 48.244299966824876 kcal/mol)

>  <smiles>  (19) 
COc1ccccc1NS(=O)(=O)C=Cc1ccc(F)cc1F

>  <score_type>  (19) 
oracle

>  <origin>  (19) 
adg

>  <m_score__min__energy>  (19) 
-9.8100000000000005

>  <m_primary>  (19) 
energy

$$$$
19:0
     RDKit          3D

 34 36  0  0  0  0  0  0  0  0999 V2000
   -3.9190   25.0130  -30.8350 O   0  0  0  0  0  0  0  0  0  0  0  0
   -4.9960   24.3590  -30.8410 C   0  0  0  0  0  0  0  0  0  0  0  0
   -5.9970   24.6580  -29.9170 C   0  0  0  0  0  0  0  0  0  0  0  0
   -7.1850   23.9310  -29.9370 C   0  0  0  0  0  0  0  0  0  0  0  0
   -7.3710   22.9090  -30.8780 C   0  0  0  0  0  0  0  0  0  0  0  0
   -6.3290   22.6230  -31.7810 C   0  0  0  0  0  0  0  0  0  0  0  0
   -5.1820   23.3620  -31.7510 N   0  0  0  0  0  0  0  0  0  0  0  0
   -6.4900   21.5430  -32.8170 C   0  0  0  0  0  0  0  0  0  0  0  0
   -7.4620   20.5150  -32.4090 N   0  0  0  0  0  0  0  0  0  0  0  0
   -6.9250   19.3800  -31.6240 C   0  0  0  0  0  0  0  0  0  0  0  0
   -6.3230   18.2750  -32.4610 C   0  0  0  0  0  0  0  0  0  0  0  0
   -6.1210   18.4590  -33.8400 C   0  0  0  0  0  0  0  0  0  0  0  0
   -5.5740   17.4340  -34.6180 C   0  0  0  0  0  0  0  0  0  0  0  0
   -5.2060   16.2240  -34.0230 C   0  0  0  0  0  0  0  0  0  0  0  0
   -4.6790   15.2290  -34.7790 F   0  0  0  0  0  0  0  0  0  0  0  0
   -5.3720   16.0430  -32.6470 C   0  0  0  0  0  0  0  0  0  0  0  0
   -5.9150   17.0680  -31.8660 C   0  0  0  0  0  0  0  0  0  0  0  0
   -8.7600   21.0630  -31.9730 C   0  0  0  0  0  0  0  0  0  0  0  0
   -8.6430   22.1050  -30.8450 C   0  0  0  0  0  0  0  0  0  0  0  0
   -5.8497   25.4605  -29.1793 H   0  0  0  0  0  0  0  0  0  0  0  0
   -7.9799   24.1597  -29.2118 H   0  0  0  0  0  0  0  0  0  0  0  0
   -4.4200   23.1580  -32.4380 H   0  0  0  0  0  0  0  0  0  0  0  0
   -6.8342   22.0021  -33.7555 H   0  0  0  0  0  0  0  0  0  0  0  0
   -5.5143   21.0510  -32.9434 H   0  0  0  0  0  0  0  0  0  0  0  0
   -6.1457   19.7653  -30.9500 H   0  0  0  0  0  0  0  0  0  0  0  0
   -7.7763   18.9389  -31.0849 H   0  0  0  0  0  0  0  0  0  0  0  0
   -6.3949   19.4151  -34.3098 H   0  0  0  0  0  0  0  0  0  0  0  0
   -5.4332   17.5800  -35.6991 H   0  0  0  0  0  0  0  0  0  0  0  0
   -5.0752   15.0933  -32.1780 H   0  0  0  0  0  0  0  0  0  0  0  0
   -6.0236   16.9293  -30.7802 H   0  0  0  0  0  0  0  0  0  0  0  0
   -9.2440   21.5400  -32.8380 H   0  0  0  0  0  0  0  0  0  0  0  0
   -9.3473   20.2223  -31.5752 H   0  0  0  0  0  0  0  0  0  0  0  0
   -9.4923   22.7993  -30.9271 H   0  0  0  0  0  0  0  0  0  0  0  0
   -8.6396   21.5464  -29.8974 H   0  0  0  0  0  0  0  0  0  0  0  0
  1  2  2  0
  2  3  1  0
  3  4  2  0
  4  5  1  0
  5  6  2  0
  6  7  1  0
  6  8  1  0
  8  9  1  0
  9 10  1  0
 10 11  1  0
 11 12  2  0
 12 13  1  0
 13 14  2  0
 14 15  1  0
 14 16  1  0
 16 17  2  0
  9 18  1  0
 18 19  1  0
  7  2  1  0
 17 11  1  0
 19  5  1  0
  3 20  1  0
  4 21  1  0
  7 22  1  0
  8 23  1  0
  8 24  1  0
 10 25  1  0
 10 26  1  0
 12 27  1  0
 13 28  1  0
 16 29  1  0
 17 30  1  0
 18 31  1  0
 18 32  1  0
 19 33  1  0
 19 34  1  0
M  END
>  <UniqueID>  (20) 
20

>  <SMILES>  (20) 
O=c1ccc2c([nH]1)CN(Cc1ccc(F)cc1)CC2

>  <Energy>  (20) 
45.76687162106448

>  <Genealogy>  (20) 
O=c1ccc2c([nH]1)CN(Cc1ccc(F)cc1)CC2 (3D coordinates assigned)
O=c1ccc2c([nH]1)CN(Cc1ccc(F)cc1)CC2 (nonaromatic ring conformer: 45.76687162106448 kcal/mol)

>  <smiles>  (20) 
O=c1ccc2c([nH]1)CN(Cc1ccc(F)cc1)CC2

>  <score_type>  (20) 
oracle

>  <origin>  (20) 
adg

>  <m_score__min__energy>  (20) 
-7.71

>  <m_primary>  (20) 
energy

$$$$
20:0
     RDKit          3D

 47 49  0  0  0  0  0  0  0  0999 V2000
   -0.8370   26.9710  -23.9610 C   0  0  0  0  0  0  0  0  0  0  0  0
   -1.1270   26.4710  -25.3460 C   0  0  0  0  0  0  0  0  0  0  0  0
   -0.3200   26.8570  -26.4230 C   0  0  0  0  0  0  0  0  0  0  0  0
   -0.5940   26.3950  -27.7110 C   0  0  0  0  0  0  0  0  0  0  0  0
   -1.6890   25.5390  -27.9460 C   0  0  0  0  0  0  0  0  0  0  0  0
   -1.9680   25.0160  -29.2230 O   0  0  0  0  0  0  0  0  0  0  0  0
   -1.6640   23.6930  -29.6650 C   0  0  0  0  0  0  0  0  0  0  0  0
   -2.7010   23.1830  -30.6190 C   0  0  0  0  0  0  0  0  0  0  0  0
   -2.5590   22.0380  -31.3260 N   0  0  0  0  0  0  0  0  0  0  0  0
   -3.7160   21.9570  -32.0100 C   0  0  0  0  0  0  0  0  0  0  0  0
   -4.0390   20.8950  -32.9220 C   0  0  0  0  0  0  0  0  0  0  0  0
   -4.3010   20.0380  -33.6540 N   0  0  0  0  0  0  0  0  0  0  0  0
   -4.5040   23.0360  -31.6900 C   0  0  0  0  0  0  0  0  0  0  0  0
   -5.8210   23.3160  -32.1780 N   0  0  0  0  0  0  0  0  0  0  0  0
   -6.9990   23.1450  -31.3300 C   0  0  0  0  0  0  0  0  0  0  0  0
   -8.1590   22.5530  -32.1370 C   0  0  0  0  0  0  0  0  0  0  0  0
   -8.0840   21.0500  -32.1650 C   0  0  0  0  0  0  0  0  0  0  0  0
   -7.2430   20.3920  -33.0770 C   0  0  0  0  0  0  0  0  0  0  0  0
   -7.1760   18.9940  -33.0890 C   0  0  0  0  0  0  0  0  0  0  0  0
   -7.9540   18.2470  -32.1970 C   0  0  0  0  0  0  0  0  0  0  0  0
   -8.8050   18.8960  -31.3000 C   0  0  0  0  0  0  0  0  0  0  0  0
   -8.8770   20.2910  -31.2890 C   0  0  0  0  0  0  0  0  0  0  0  0
   -3.8530   23.7830  -30.8360 O   0  0  0  0  0  0  0  0  0  0  0  0
   -2.5290   25.1870  -26.8710 C   0  0  0  0  0  0  0  0  0  0  0  0
   -3.6920   24.2600  -27.0900 C   0  0  0  0  0  0  0  0  0  0  0  0
   -2.2420   25.6550  -25.5780 C   0  0  0  0  0  0  0  0  0  0  0  0
   -1.2463   26.2652  -23.2232 H   0  0  0  0  0  0  0  0  0  0  0  0
    0.2509   27.0565  -23.8223 H   0  0  0  0  0  0  0  0  0  0  0  0
   -1.3030   27.9577  -23.8223 H   0  0  0  0  0  0  0  0  0  0  0  0
    0.5348   27.5282  -26.2530 H   0  0  0  0  0  0  0  0  0  0  0  0
    0.0493   26.7011  -28.5491 H   0  0  0  0  0  0  0  0  0  0  0  0
   -0.6864   23.7000  -30.1693 H   0  0  0  0  0  0  0  0  0  0  0  0
   -1.6458   23.0305  -28.7871 H   0  0  0  0  0  0  0  0  0  0  0  0
   -5.9430   23.6920  -33.1450 H   0  0  0  0  0  0  0  0  0  0  0  0
   -6.7522   22.4668  -30.4998 H   0  0  0  0  0  0  0  0  0  0  0  0
   -7.3021   24.1276  -30.9393 H   0  0  0  0  0  0  0  0  0  0  0  0
   -9.1103   22.8573  -31.6760 H   0  0  0  0  0  0  0  0  0  0  0  0
   -8.0946   22.9267  -33.1696 H   0  0  0  0  0  0  0  0  0  0  0  0
   -6.6355   20.9766  -33.7835 H   0  0  0  0  0  0  0  0  0  0  0  0
   -6.5112   18.4819  -33.8002 H   0  0  0  0  0  0  0  0  0  0  0  0
   -7.8951   17.1486  -32.2025 H   0  0  0  0  0  0  0  0  0  0  0  0
   -9.4190   18.3084  -30.6017 H   0  0  0  0  0  0  0  0  0  0  0  0
   -9.5587   20.7979  -30.5902 H   0  0  0  0  0  0  0  0  0  0  0  0
   -4.0938   23.9397  -26.1174 H   0  0  0  0  0  0  0  0  0  0  0  0
   -4.4764   24.7833  -27.6564 H   0  0  0  0  0  0  0  0  0  0  0  0
   -3.3568   23.3786  -27.6564 H   0  0  0  0  0  0  0  0  0  0  0  0
   -2.8987   25.3783  -24.7400 H   0  0  0  0  0  0  0  0  0  0  0  0
  1  2  1  0
  2  3  2  0
  3  4  1  0
  4  5  2  0
  5  6  1  0
  6  7  1  0
  7  8  1  0
  8  9  2  0
  9 10  1  0
 10 11  1  0
 11 12  3  0
 10 13  2  0
 13 14  1  0
 14 15  1  0
 15 16  1  0
 16 17  1  0
 17 18  2  0
 18 19  1  0
 19 20  2  0
 20 21  1  0
 21 22  2  0
 13 23  1  0
  5 24  1  0
 24 25  1  0
 24 26  2  0
 26  2  1  0
 23  8  1  0
 22 17  1  0
  1 27  1  0
  1 28  1  0
  1 29  1  0
  3 30  1  0
  4 31  1  0
  7 32  1  0
  7 33  1  0
 14 34  1  0
 15 35  1  0
 15 36  1  0
 16 37  1  0
 16 38  1  0
 18 39  1  0
 19 40  1  0
 20 41  1  0
 21 42  1  0
 22 43  1  0
 25 44  1  0
 25 45  1  0
 25 46  1  0
 26 47  1  0
M  END
>  <UniqueID>  (21) 
21

>  <SMILES>  (21) 
Cc1ccc(OCc2nc(C#N)c(NCCc3ccccc3)o2)c(C)c1

>  <Energy>  (21) 
67.49402552050302

>  <Genealogy>  (21) 
Cc1ccc(OCc2nc(C#N)c(NCCc3ccccc3)o2)c(C)c1 (3D coordinates assigned)
Cc1ccc(OCc2nc(C#N)c(NCCc3ccccc3)o2)c(C)c1 (optimized conformer: 67.49402552050302 kcal/mol)

>  <smiles>  (21) 
Cc1ccc(OCc2nc(C#N)c(NCCc3ccccc3)o2)c(C)c1

>  <score_type>  (21) 
oracle

>  <origin>  (21) 
adg

>  <m_score__min__energy>  (21) 
-8.9600000000000009

>  <m_primary>  (21) 
energy

$$$$
21:0
     RDKit          3D

 42 45  0  0  0  0  0  0  0  0999 V2000
   -9.4790   21.9120  -31.9490 C   0  0  0  0  0  0  0  0  0  0  0  0
   -8.5350   20.7620  -32.1350 C   0  0  0  0  0  0  0  0  0  0  0  0
   -9.0070   19.4450  -32.1150 C   0  0  0  0  0  0  0  0  0  0  0  0
   -8.1530   18.4120  -32.3220 N   0  0  0  0  0  0  0  0  0  0  0  0
   -6.8320   18.6140  -32.5610 C   0  0  0  0  0  0  0  0  0  0  0  0
   -5.8130   17.3000  -32.8140 S   0  0  0  0  0  0  0  0  0  0  0  0
   -4.2280   17.7850  -33.0950 C   0  0  0  0  0  0  0  0  0  0  0  0
   -3.9280   19.1500  -33.0890 C   0  0  0  0  0  0  0  0  0  0  0  0
   -2.5620   19.5350  -33.3200 N   0  0  0  0  0  0  0  0  0  0  0  0
   -1.9960   20.6540  -32.5490 C   0  0  0  0  0  0  0  0  0  0  0  0
   -0.4820   20.7510  -32.7460 C   0  0  0  0  0  0  0  0  0  0  0  0
   -0.1640   20.6380  -34.1770 N   0  0  0  0  0  0  0  0  0  0  0  0
    0.7480   21.5500  -34.8190 C   0  0  0  0  0  0  0  0  0  0  0  0
    2.1300   21.2920  -34.8550 C   0  0  0  0  0  0  0  0  0  0  0  0
    2.9850   22.2110  -35.4700 C   0  0  0  0  0  0  0  0  0  0  0  0
    2.4650   23.3770  -36.0310 C   0  0  0  0  0  0  0  0  0  0  0  0
    1.0900   23.6130  -35.9620 C   0  0  0  0  0  0  0  0  0  0  0  0
    0.2740   22.7070  -35.3610 N   0  0  0  0  0  0  0  0  0  0  0  0
   -0.7240   19.5270  -34.9610 C   0  0  0  0  0  0  0  0  0  0  0  0
   -1.6930   18.6730  -34.1320 C   0  0  0  0  0  0  0  0  0  0  0  0
   -4.9050   20.1630  -32.8720 C   0  0  0  0  0  0  0  0  0  0  0  0
   -4.5130   21.3620  -32.9250 O   0  0  0  0  0  0  0  0  0  0  0  0
   -6.2880   19.9160  -32.6130 C   0  0  0  0  0  0  0  0  0  0  0  0
   -7.1770   20.9910  -32.4010 C   0  0  0  0  0  0  0  0  0  0  0  0
   -9.6282   22.0938  -30.8744 H   0  0  0  0  0  0  0  0  0  0  0  0
   -9.0564   22.8128  -32.4181 H   0  0  0  0  0  0  0  0  0  0  0  0
  -10.4449   21.6731  -32.4181 H   0  0  0  0  0  0  0  0  0  0  0  0
  -10.0733   19.2470  -31.9310 H   0  0  0  0  0  0  0  0  0  0  0  0
   -3.4400   17.0402  -33.2805 H   0  0  0  0  0  0  0  0  0  0  0  0
   -2.4623   21.5925  -32.8835 H   0  0  0  0  0  0  0  0  0  0  0  0
   -2.1982   20.4795  -31.4819 H   0  0  0  0  0  0  0  0  0  0  0  0
   -0.1245   21.7197  -32.3667 H   0  0  0  0  0  0  0  0  0  0  0  0
    0.0115   19.9361  -32.1960 H   0  0  0  0  0  0  0  0  0  0  0  0
    2.5348   20.3745  -34.4029 H   0  0  0  0  0  0  0  0  0  0  0  0
    4.0666   22.0147  -35.5114 H   0  0  0  0  0  0  0  0  0  0  0  0
    3.1300   24.1026  -36.5222 H   0  0  0  0  0  0  0  0  0  0  0  0
    0.6674   24.5321  -36.3941 H   0  0  0  0  0  0  0  0  0  0  0  0
   -1.2640   19.9390  -35.8262 H   0  0  0  0  0  0  0  0  0  0  0  0
    0.1080   18.8834  -35.2827 H   0  0  0  0  0  0  0  0  0  0  0  0
   -2.3129   18.0665  -34.8087 H   0  0  0  0  0  0  0  0  0  0  0  0
   -1.1133   18.0178  -33.4651 H   0  0  0  0  0  0  0  0  0  0  0  0
   -6.7997   22.0233  -32.4450 H   0  0  0  0  0  0  0  0  0  0  0  0
  1  2  1  0
  2  3  2  0
  3  4  1  0
  4  5  2  0
  5  6  1  0
  6  7  1  0
  7  8  2  0
  8  9  1  0
  9 10  1  0
 10 11  1  0
 11 12  1  0
 12 13  1  0
 13 14  2  0
 14 15  1  0
 15 16  2  0
 16 17  1  0
 17 18  2  0
 12 19  1  0
 19 20  1  0
  8 21  1  0
 21 22  2  0
 21 23  1  0
 23 24  2  0
 24  2  1  0
 23  5  1  0
 20  9  1  0
 18 13  1  0
  1 25  1  0
  1 26  1  0
  1 27  1  0
  3 28  1  0
  7 29  1  0
 10 30  1  0
 10 31  1  0
 11 32  1  0
 11 33  1  0
 14 34  1  0
 15 35  1  0
 16 36  1  0
 17 37  1  0
 19 38  1  0
 19 39  1  0
 20 40  1  0
 20 41  1  0
 24 42  1  0
M  END
>  <UniqueID>  (22) 
22

>  <SMILES>  (22) 
Cc1cnc2scc(N3CCN(c4ccccn4)CC3)c(=O)c2c1

>  <Energy>  (22) 
62.88837910118872

>  <Genealogy>  (22) 
Cc1cnc2scc(N3CCN(c4ccccn4)CC3)c(=O)c2c1 (3D coordinates assigned)
Cc1cnc2scc(N3CCN(c4ccccn4)CC3)c(=O)c2c1 (nonaromatic ring conformer: 62.88837910118872 kcal/mol)

>  <smiles>  (22) 
Cc1cnc2scc(N3CCN(c4ccccn4)CC3)c(=O)c2c1

>  <score_type>  (22) 
oracle

>  <origin>  (22) 
adg

>  <m_score__min__energy>  (22) 
-7.8600000000000003

>  <m_primary>  (22) 
energy

$$$$
22:0
     RDKit          3D

 47 48  0  0  0  0  0  0  0  0999 V2000
   -0.8900   25.7160  -27.6950 C   0  0  0  0  0  0  0  0  0  0  0  0
   -1.2520   24.8820  -28.9190 C   0  0  0  0  0  0  0  0  0  0  0  0
   -2.5960   25.1190  -29.2940 O   0  0  0  0  0  0  0  0  0  0  0  0
   -3.4820   24.5410  -28.3560 C   0  0  0  0  0  0  0  0  0  0  0  0
   -4.2820   23.4260  -29.0240 C   0  0  0  0  0  0  0  0  0  0  0  0
   -4.5670   23.7610  -30.7560 S   0  0  0  0  0  0  0  0  0  0  0  0
   -4.6050   25.2460  -30.9860 O   0  0  0  0  0  0  0  0  0  0  0  0
   -3.4720   23.1630  -31.5930 O   0  0  0  0  0  0  0  0  0  0  0  0
   -6.1020   23.0580  -31.2310 C   0  0  0  0  0  0  0  0  0  0  0  0
   -7.3410   23.6750  -31.1420 C   0  0  0  0  0  0  0  0  0  0  0  0
   -8.3890   22.8610  -31.5880 C   0  0  0  0  0  0  0  0  0  0  0  0
   -7.9640   21.6080  -32.0150 C   0  0  0  0  0  0  0  0  0  0  0  0
   -8.8440   20.5360  -32.5760 C   0  0  0  0  0  0  0  0  0  0  0  0
   -8.0330   19.4160  -33.0500 N   0  0  0  0  0  0  0  0  0  0  0  0
   -7.4120   18.4820  -32.1500 C   0  0  0  0  0  0  0  0  0  0  0  0
   -7.5490   18.6360  -30.9060 O   0  0  0  0  0  0  0  0  0  0  0  0
   -6.6340   17.3750  -32.6510 N   0  0  0  0  0  0  0  0  0  0  0  0
   -6.8080   16.9140  -34.0390 C   0  0  0  0  0  0  0  0  0  0  0  0
   -6.2600   15.4960  -34.2310 C   0  0  0  0  0  0  0  0  0  0  0  0
   -4.7990   15.3780  -33.7690 C   0  0  0  0  0  0  0  0  0  0  0  0
   -4.4840   16.1870  -32.4930 C   0  0  0  0  0  0  0  0  0  0  0  0
   -5.7430   16.6360  -31.7450 C   0  0  0  0  0  0  0  0  0  0  0  0
   -6.2920   21.5080  -31.8520 S   0  0  0  0  0  0  0  0  0  0  0  0
   -1.1344   25.1529  -26.7822 H   0  0  0  0  0  0  0  0  0  0  0  0
    0.1867   25.9408  -27.7099 H   0  0  0  0  0  0  0  0  0  0  0  0
   -1.4611   26.6560  -27.7099 H   0  0  0  0  0  0  0  0  0  0  0  0
   -0.5889   25.1548  -29.7532 H   0  0  0  0  0  0  0  0  0  0  0  0
   -1.1309   23.8163  -28.6748 H   0  0  0  0  0  0  0  0  0  0  0  0
   -2.9055   24.1251  -27.5165 H   0  0  0  0  0  0  0  0  0  0  0  0
   -4.1724   25.3121  -27.9836 H   0  0  0  0  0  0  0  0  0  0  0  0
   -3.7243   22.4824  -28.9308 H   0  0  0  0  0  0  0  0  0  0  0  0
   -5.2590   23.3585  -28.5232 H   0  0  0  0  0  0  0  0  0  0  0  0
   -7.4851   24.6968  -30.7609 H   0  0  0  0  0  0  0  0  0  0  0  0
   -9.4416   23.1803  -31.5994 H   0  0  0  0  0  0  0  0  0  0  0  0
   -9.5304   20.1821  -31.7927 H   0  0  0  0  0  0  0  0  0  0  0  0
   -9.4180   20.9468  -33.4197 H   0  0  0  0  0  0  0  0  0  0  0  0
   -7.8890   19.3270  -34.0800 H   0  0  0  0  0  0  0  0  0  0  0  0
   -7.8799   16.9198  -34.2861 H   0  0  0  0  0  0  0  0  0  0  0  0
   -6.2506   17.5927  -34.7012 H   0  0  0  0  0  0  0  0  0  0  0  0
   -6.8751   14.7952  -33.6475 H   0  0  0  0  0  0  0  0  0  0  0  0
   -6.2980   15.2586  -35.3044 H   0  0  0  0  0  0  0  0  0  0  0  0
   -4.5822   14.3180  -33.5704 H   0  0  0  0  0  0  0  0  0  0  0  0
   -4.1732   15.7910  -34.5739 H   0  0  0  0  0  0  0  0  0  0  0  0
   -3.8809   15.5599  -31.8199 H   0  0  0  0  0  0  0  0  0  0  0  0
   -3.9433   17.0936  -32.8024 H   0  0  0  0  0  0  0  0  0  0  0  0
   -6.2705   15.7519  -31.3576 H   0  0  0  0  0  0  0  0  0  0  0  0
   -5.4513   17.2933  -30.9126 H   0  0  0  0  0  0  0  0  0  0  0  0
  1  2  1  0
  2  3  1  0
  3  4  1  0
  4  5  1  0
  5  6  1  0
  6  7  2  0
  6  8  2  0
  6  9  1  0
  9 10  2  0
 10 11  1  0
 11 12  2  0
 12 13  1  0
 13 14  1  0
 14 15  1  0
 15 16  2  0
 15 17  1  0
 17 18  1  0
 18 19  1  0
 19 20  1  0
 20 21  1  0
 21 22  1  0
 12 23  1  0
 23  9  1  0
 22 17  1  0
  1 24  1  0
  1 25  1  0
  1 26  1  0
  2 27  1  0
  2 28  1  0
  4 29  1  0
  4 30  1  0
  5 31  1  0
  5 32  1  0
 10 33  1  0
 11 34  1  0
 13 35  1  0
 13 36  1  0
 14 37  1  0
 18 38  1  0
 18 39  1  0
 19 40  1  0
 19 41  1  0
 20 42  1  0
 20 43  1  0
 21 44  1  0
 21 45  1  0
 22 46  1  0
 22 47  1  0
M  END
>  <UniqueID>  (23) 
23

>  <SMILES>  (23) 
CCOCCS(=O)(=O)c1ccc(CNC(=O)N2CCCCC2)s1

>  <Energy>  (23) 
64.53920676922687

>  <Genealogy>  (23) 
CCOCCS(=O)(=O)c1ccc(CNC(=O)N2CCCCC2)s1 (3D coordinates assigned)
CCOCCS(=O)(=O)c1ccc(CNC(=O)N2CCCCC2)s1 (nonaromatic ring conformer: 64.53920676922687 kcal/mol)

>  <smiles>  (23) 
CCOCCS(=O)(=O)c1ccc(CNC(=O)N2CCCCC2)s1

>  <score_type>  (23) 
oracle

>  <origin>  (23) 
adg

>  <m_score__min__energy>  (23) 
-8.9399999999999995

>  <m_primary>  (23) 
energy

$$$$
23:0
     RDKit          3D

 40 43  0  0  0  0  0  0  0  0999 V2000
    0.1390   21.3310  -35.2890 C   0  0  0  0  0  0  0  0  0  0  0  0
    0.0590   19.9850  -34.5770 C   0  0  0  0  0  0  0  0  0  0  0  0
   -1.1830   19.8510  -33.8850 O   0  0  0  0  0  0  0  0  0  0  0  0
   -1.6860   20.7480  -32.9270 C   0  0  0  0  0  0  0  0  0  0  0  0
   -0.8660   21.3970  -31.9840 C   0  0  0  0  0  0  0  0  0  0  0  0
   -1.4230   22.2780  -31.0520 C   0  0  0  0  0  0  0  0  0  0  0  0
   -2.8050   22.5230  -31.0430 C   0  0  0  0  0  0  0  0  0  0  0  0
   -3.3930   23.4010  -30.0620 N   0  0  0  0  0  0  0  0  0  0  0  0
   -4.6230   24.0820  -30.2820 C   0  0  0  0  0  0  0  0  0  0  0  0
   -5.1580   24.1440  -31.4210 O   0  0  0  0  0  0  0  0  0  0  0  0
   -5.2260   24.7480  -29.1050 C   0  0  0  0  0  0  0  0  0  0  0  0
   -4.2400   24.2580  -27.6520 S   0  0  0  0  0  0  0  0  0  0  0  0
   -2.9150   23.5290  -28.6850 C   0  0  2  0  0  0  0  0  0  0  0  0
   -1.6570   24.3460  -28.5880 C   0  0  0  0  0  0  0  0  0  0  0  0
   -1.5530   25.5420  -28.9680 O   0  0  0  0  0  0  0  0  0  0  0  0
   -0.5730   23.6150  -28.0240 N   0  0  0  0  0  0  0  0  0  0  0  0
   -1.1010   22.3280  -27.7600 C   0  0  0  0  0  0  0  0  0  0  0  0
   -0.4040   21.2420  -27.2310 C   0  0  0  0  0  0  0  0  0  0  0  0
   -1.0910   20.0290  -27.0620 C   0  0  0  0  0  0  0  0  0  0  0  0
   -2.4500   19.9230  -27.4240 C   0  0  0  0  0  0  0  0  0  0  0  0
   -3.1300   21.0300  -27.9570 C   0  0  0  0  0  0  0  0  0  0  0  0
   -2.4320   22.2280  -28.1140 C   0  0  0  0  0  0  0  0  0  0  0  0
   -3.6200   21.8720  -31.9810 C   0  0  0  0  0  0  0  0  0  0  0  0
   -3.0630   20.9920  -32.9130 C   0  0  0  0  0  0  0  0  0  0  0  0
    0.1870   22.1381  -34.5431 H   0  0  0  0  0  0  0  0  0  0  0  0
    1.0404   21.3597  -35.9188 H   0  0  0  0  0  0  0  0  0  0  0  0
   -0.7527   21.4663  -35.9188 H   0  0  0  0  0  0  0  0  0  0  0  0
    0.1471   19.1783  -35.3196 H   0  0  0  0  0  0  0  0  0  0  0  0
    0.8786   19.9233  -33.8460 H   0  0  0  0  0  0  0  0  0  0  0  0
    0.2180   21.2100  -31.9806 H   0  0  0  0  0  0  0  0  0  0  0  0
   -0.7739   22.7824  -30.3211 H   0  0  0  0  0  0  0  0  0  0  0  0
   -5.1948   25.8402  -29.2318 H   0  0  0  0  0  0  0  0  0  0  0  0
   -6.2785   24.4523  -28.9830 H   0  0  0  0  0  0  0  0  0  0  0  0
    0.4050   23.9470  -27.8700 H   0  0  0  0  0  0  0  0  0  0  0  0
    0.6565   21.3333  -26.9533 H   0  0  0  0  0  0  0  0  0  0  0  0
   -0.5664   19.1567  -26.6450 H   0  0  0  0  0  0  0  0  0  0  0  0
   -2.9798   18.9686  -27.2882 H   0  0  0  0  0  0  0  0  0  0  0  0
   -4.1891   20.9544  -28.2443 H   0  0  0  0  0  0  0  0  0  0  0  0
   -4.7046   22.0553  -31.9830 H   0  0  0  0  0  0  0  0  0  0  0  0
   -3.7135   20.4868  -33.6421 H   0  0  0  0  0  0  0  0  0  0  0  0
  1  2  1  0
  2  3  1  0
  3  4  1  0
  4  5  2  0
  5  6  1  0
  6  7  2  0
  7  8  1  0
  8  9  1  0
  9 10  2  0
  9 11  1  0
 11 12  1  0
 13 12  1  1
 13 14  1  0
 14 15  2  0
 14 16  1  0
 16 17  1  0
 17 18  2  0
 18 19  1  0
 19 20  2  0
 20 21  1  0
 21 22  2  0
  7 23  1  0
 23 24  2  0
 24  4  1  0
 13  8  1  0
 22 17  1  0
 22 13  1  0
  1 25  1  0
  1 26  1  0
  1 27  1  0
  2 28  1  0
  2 29  1  0
  5 30  1  0
  6 31  1  0
 11 32  1  0
 11 33  1  0
 16 34  1  0
 18 35  1  0
 19 36  1  0
 20 37  1  0
 21 38  1  0
 23 39  1  0
 24 40  1  0
M  END
>  <UniqueID>  (24) 
24

>  <SMILES>  (24) 
CCOc1ccc(N2C(=O)CS[C@]23C(=O)Nc2ccccc23)cc1

>  <Energy>  (24) 
65.57460431583463

>  <Genealogy>  (24) 
CCOc1ccc(N2C(=O)CS[C@]23C(=O)Nc2ccccc23)cc1 (chirality)
CCOc1ccc(N2C(=O)CS[C@]23C(=O)Nc2ccccc23)cc1 (3D coordinates assigned)
CCOc1ccc(N2C(=O)CS[C@]23C(=O)Nc2ccccc23)cc1 (nonaromatic ring conformer: 65.57460431583463 kcal/mol)

>  <smiles>  (24) 
CCOc1ccc(N2C(=O)CSC23C(=O)Nc2ccccc23)cc1

>  <score_type>  (24) 
oracle

>  <origin>  (24) 
adg

>  <m_score__min__energy>  (24) 
-7.2000000000000002

>  <m_primary>  (24) 
energy

$$$$
24:0
     RDKit          3D

 39 42  0  0  0  0  0  0  0  0999 V2000
   -6.4510   19.5080  -33.4880 C   0  0  0  0  0  0  0  0  0  0  0  0
   -7.1410   20.4840  -32.5820 C   0  0  0  0  0  0  0  0  0  0  0  0
   -8.5360   20.4460  -32.4340 C   0  0  0  0  0  0  0  0  0  0  0  0
   -9.1750   21.3300  -31.5620 C   0  0  0  0  0  0  0  0  0  0  0  0
   -8.4280   22.2510  -30.8230 C   0  0  0  0  0  0  0  0  0  0  0  0
   -7.0290   22.2900  -30.9450 C   0  0  0  0  0  0  0  0  0  0  0  0
   -6.2330   23.2530  -30.1590 C   0  0  0  0  0  0  0  0  0  0  0  0
   -4.9910   23.0050  -29.6890 N   0  0  0  0  0  0  0  0  0  0  0  0
   -4.7030   24.1600  -29.0510 C   0  0  0  0  0  0  0  0  0  0  0  0
   -3.3770   24.4650  -28.3910 C   0  0  1  0  0  0  0  0  0  0  0  0
   -2.9960   23.4540  -27.2940 C   0  0  0  0  0  0  0  0  0  0  0  0
   -2.4010   22.2060  -27.8770 C   0  0  0  0  0  0  0  0  0  0  0  0
   -2.2700   21.0530  -27.0870 C   0  0  0  0  0  0  0  0  0  0  0  0
   -1.6810   19.9020  -27.6150 C   0  0  0  0  0  0  0  0  0  0  0  0
   -1.2140   19.8950  -28.9320 C   0  0  0  0  0  0  0  0  0  0  0  0
   -1.3290   21.0420  -29.7210 C   0  0  0  0  0  0  0  0  0  0  0  0
   -1.9050   22.2080  -29.1930 C   0  0  0  0  0  0  0  0  0  0  0  0
   -2.0890   23.4220  -30.0710 C   0  0  0  0  0  0  0  0  0  0  0  0
   -2.3240   24.6130  -29.3340 O   0  0  0  0  0  0  0  0  0  0  0  0
   -5.7080   25.0450  -29.1520 N   0  0  0  0  0  0  0  0  0  0  0  0
   -6.6400   24.4580  -29.8340 O   0  0  0  0  0  0  0  0  0  0  0  0
   -6.3910   21.3970  -31.8240 C   0  0  0  0  0  0  0  0  0  0  0  0
   -5.9207   18.7579  -32.8830 H   0  0  0  0  0  0  0  0  0  0  0  0
   -7.1965   19.0067  -34.1227 H   0  0  0  0  0  0  0  0  0  0  0  0
   -5.7298   20.0436  -34.1227 H   0  0  0  0  0  0  0  0  0  0  0  0
   -9.1282   19.7173  -33.0069 H   0  0  0  0  0  0  0  0  0  0  0  0
  -10.2696   21.3012  -31.4566 H   0  0  0  0  0  0  0  0  0  0  0  0
   -8.9378   22.9488  -30.1425 H   0  0  0  0  0  0  0  0  0  0  0  0
   -3.5204   25.4351  -27.8926 H   0  0  0  0  0  0  0  0  0  0  0  0
   -2.2615   23.9186  -26.6196 H   0  0  0  0  0  0  0  0  0  0  0  0
   -3.9100   23.1774  -26.7480 H   0  0  0  0  0  0  0  0  0  0  0  0
   -2.6325   21.0561  -26.0485 H   0  0  0  0  0  0  0  0  0  0  0  0
   -1.5846   18.9997  -26.9933 H   0  0  0  0  0  0  0  0  0  0  0  0
   -0.7555   18.9856  -29.3477 H   0  0  0  0  0  0  0  0  0  0  0  0
   -0.9669   21.0314  -30.7596 H   0  0  0  0  0  0  0  0  0  0  0  0
   -1.1799   23.5580  -30.6751 H   0  0  0  0  0  0  0  0  0  0  0  0
   -2.9763   23.2429  -30.6959 H   0  0  0  0  0  0  0  0  0  0  0  0
   -5.7490   26.0180  -28.7760 H   0  0  0  0  0  0  0  0  0  0  0  0
   -5.2952   21.4140  -31.9185 H   0  0  0  0  0  0  0  0  0  0  0  0
  1  2  1  0
  2  3  2  0
  3  4  1  0
  4  5  2  0
  5  6  1  0
  6  7  1  0
  7  8  2  0
  8  9  1  0
  9 10  1  0
 10 11  1  0
 11 12  1  0
 12 13  2  0
 13 14  1  0
 14 15  2  0
 15 16  1  0
 16 17  2  0
 17 18  1  0
 18 19  1  0
  9 20  2  0
 20 21  1  0
  6 22  2  0
 22  2  1  0
 21  7  1  0
 19 10  1  0
 17 12  1  0
  1 23  1  0
  1 24  1  0
  1 25  1  0
  3 26  1  0
  4 27  1  0
  5 28  1  0
 10 29  1  1
 11 30  1  0
 11 31  1  0
 13 32  1  0
 14 33  1  0
 15 34  1  0
 16 35  1  0
 18 36  1  0
 18 37  1  0
 20 38  1  0
 22 39  1  0
M  CHG  1  20   1
M  END
>  <UniqueID>  (25) 
25

>  <SMILES>  (25) 
Cc1cccc(-c2nc([C@H]3Cc4ccccc4CO3)[nH+]o2)c1

>  <Energy>  (25) 
83.32027286498285

>  <Genealogy>  (25) 
Cc1cccc(-c2nc(C3Cc4ccccc4CO3)[nH+]o2)c1 (protonated)
Cc1cccc(-c2nc([C@H]3Cc4ccccc4CO3)[nH+]o2)c1 (chirality)
Cc1cccc(-c2nc([C@H]3Cc4ccccc4CO3)[nH+]o2)c1 (3D coordinates assigned)
Cc1cccc(-c2nc([C@H]3Cc4ccccc4CO3)[nH+]o2)c1 (nonaromatic ring conformer: 83.32027286498285 kcal/mol)

>  <smiles>  (25) 
Cc1cccc(-c2nc(C3Cc4ccccc4CO3)no2)c1

>  <score_type>  (25) 
oracle

>  <origin>  (25) 
adg

>  <m_score__min__energy>  (25) 
-7.9299999999999997

>  <m_primary>  (25) 
energy

$$$$
25:0
     RDKit          3D

 38 40  0  0  0  0  0  0  0  0999 V2000
   -1.2690   21.1430  -32.2700 C   0  0  0  0  0  0  0  0  0  0  0  0
   -1.8780   20.2480  -33.3360 C   0  0  0  0  0  0  0  0  0  0  0  0
   -3.2460   20.0060  -33.0290 O   0  0  0  0  0  0  0  0  0  0  0  0
   -4.2230   21.0030  -33.0930 C   0  0  0  0  0  0  0  0  0  0  0  0
   -3.9040   22.1830  -33.4010 O   0  0  0  0  0  0  0  0  0  0  0  0
   -5.6330   20.6550  -32.8400 C   0  0  0  0  0  0  0  0  0  0  0  0
   -6.3780   19.7020  -33.5430 C   0  0  0  0  0  0  0  0  0  0  0  0
   -5.8660   18.8190  -34.6380 C   0  0  0  0  0  0  0  0  0  0  0  0
   -7.6610   19.6870  -33.1190 N   0  0  0  0  0  0  0  0  0  0  0  0
   -7.7320   20.6180  -32.1560 C   0  0  0  0  0  0  0  0  0  0  0  0
   -8.8460   20.9420  -31.4580 N   0  0  0  0  0  0  0  0  0  0  0  0
   -8.7570   21.9040  -30.4970 C   0  0  0  0  0  0  0  0  0  0  0  0
   -7.5600   22.5130  -30.2300 N   0  0  0  0  0  0  0  0  0  0  0  0
   -6.4210   22.1840  -30.9160 C   0  0  0  0  0  0  0  0  0  0  0  0
   -5.1370   22.7910  -30.5160 C   0  0  0  0  0  0  0  0  0  0  0  0
   -4.1100   21.9720  -30.0320 C   0  0  0  0  0  0  0  0  0  0  0  0
   -2.9230   22.5150  -29.6600 N   0  0  0  0  0  0  0  0  0  0  0  0
   -2.7040   23.8510  -29.7620 C   0  0  0  0  0  0  0  0  0  0  0  0
   -3.6740   24.6640  -30.2560 N   0  0  0  0  0  0  0  0  0  0  0  0
   -4.8790   24.1710  -30.6490 C   0  0  0  0  0  0  0  0  0  0  0  0
   -5.9010   25.1200  -31.2060 C   0  0  0  0  0  0  0  0  0  0  0  0
   -6.5270   21.2260  -31.9350 C   0  0  0  0  0  0  0  0  0  0  0  0
   -1.5314   20.7574  -31.2738 H   0  0  0  0  0  0  0  0  0  0  0  0
   -0.1748   21.1545  -32.3822 H   0  0  0  0  0  0  0  0  0  0  0  0
   -1.6599   22.1651  -32.3822 H   0  0  0  0  0  0  0  0  0  0  0  0
   -1.8043   20.7427  -34.3157 H   0  0  0  0  0  0  0  0  0  0  0  0
   -1.3347   19.2920  -33.3655 H   0  0  0  0  0  0  0  0  0  0  0  0
   -5.3601   17.9464  -34.1991 H   0  0  0  0  0  0  0  0  0  0  0  0
   -6.7078   18.4803  -35.2598 H   0  0  0  0  0  0  0  0  0  0  0  0
   -5.1539   19.3814  -35.2598 H   0  0  0  0  0  0  0  0  0  0  0  0
   -8.4380   19.0850  -33.4700 H   0  0  0  0  0  0  0  0  0  0  0  0
   -9.6545   22.1938  -29.9309 H   0  0  0  0  0  0  0  0  0  0  0  0
   -7.5190   23.2250  -29.4670 H   0  0  0  0  0  0  0  0  0  0  0  0
   -4.2654   20.8859  -29.9530 H   0  0  0  0  0  0  0  0  0  0  0  0
   -1.7403   24.2756  -29.4444 H   0  0  0  0  0  0  0  0  0  0  0  0
   -6.4324   25.6134  -30.3789 H   0  0  0  0  0  0  0  0  0  0  0  0
   -5.3984   25.8790  -31.8236 H   0  0  0  0  0  0  0  0  0  0  0  0
   -6.6207   24.5627  -31.8236 H   0  0  0  0  0  0  0  0  0  0  0  0
  1  2  1  0
  2  3  1  0
  3  4  1  0
  4  5  2  0
  4  6  1  0
  6  7  2  0
  7  8  1  0
  7  9  1  0
  9 10  1  0
 10 11  2  0
 11 12  1  0
 12 13  2  0
 13 14  1  0
 14 15  1  0
 15 16  2  0
 16 17  1  0
 17 18  2  0
 18 19  1  0
 19 20  2  0
 20 21  1  0
 14 22  2  0
 22  6  1  0
 22 10  1  0
 20 15  1  0
  1 23  1  0
  1 24  1  0
  1 25  1  0
  2 26  1  0
  2 27  1  0
  8 28  1  0
  8 29  1  0
  8 30  1  0
  9 31  1  0
 12 32  1  0
 13 33  1  0
 16 34  1  0
 18 35  1  0
 21 36  1  0
 21 37  1  0
 21 38  1  0
M  CHG  1  13   1
M  END
>  <UniqueID>  (26) 
26

>  <SMILES>  (26) 
CCOC(=O)c1c(C)[nH]c2nc[nH+]c(-c3cncnc3C)c12

>  <Energy>  (26) 
80.79104321042894

>  <Genealogy>  (26) 
CCOC(=O)c1c(C)[nH]c2nc[nH+]c(-c3cncnc3C)c12 (protonated)
CCOC(=O)c1c(C)[nH]c2nc[nH+]c(-c3cncnc3C)c12 (3D coordinates assigned)
CCOC(=O)c1c(C)[nH]c2nc[nH+]c(-c3cncnc3C)c12 (optimized conformer: 80.79104321042894 kcal/mol)

>  <smiles>  (26) 
CCOC(=O)c1c(C)[nH]c2ncnc(-c3cncnc3C)c12

>  <score_type>  (26) 
oracle

>  <origin>  (26) 
adg

>  <m_score__min__energy>  (26) 
-6.5999999999999996

>  <m_primary>  (26) 
energy

$$$$
26:0
     RDKit          3D

 41 42  0  0  0  0  0  0  0  0999 V2000
   -8.8130   20.0580  -32.6590 C   0  0  0  0  0  0  0  0  0  0  0  0
   -7.9460   21.1230  -32.0540 C   0  0  0  0  0  0  0  0  0  0  0  0
   -6.7060   21.4410  -32.6290 C   0  0  0  0  0  0  0  0  0  0  0  0
   -5.8850   22.4080  -32.0410 C   0  0  0  0  0  0  0  0  0  0  0  0
   -6.2890   23.0580  -30.8670 C   0  0  0  0  0  0  0  0  0  0  0  0
   -5.2590   24.2860  -30.1370 S   0  0  0  0  0  0  0  0  0  0  0  0
   -6.0950   25.1900  -29.2730 O   0  0  0  0  0  0  0  0  0  0  0  0
   -4.6110   25.1190  -31.2090 O   0  0  0  0  0  0  0  0  0  0  0  0
   -4.0110   23.5340  -29.1800 N   0  0  0  0  0  0  0  0  0  0  0  0
   -3.7080   22.1170  -29.3910 C   0  0  0  0  0  0  0  0  0  0  0  0
   -3.2740   24.2990  -28.2010 C   0  0  0  0  0  0  0  0  0  0  0  0
   -3.8130   24.5410  -26.9260 C   0  0  0  0  0  0  0  0  0  0  0  0
   -3.1080   25.2960  -25.9860 C   0  0  0  0  0  0  0  0  0  0  0  0
   -1.8390   25.8320  -26.2910 C   0  0  0  0  0  0  0  0  0  0  0  0
   -1.1080   26.6200  -25.3140 N   0  0  0  0  0  0  0  0  0  0  0  0
   -0.6230   27.9640  -25.6540 C   0  0  0  0  0  0  0  0  0  0  0  0
   -0.8340   26.0850  -23.9750 C   0  0  0  0  0  0  0  0  0  0  0  0
   -1.3040   25.5850  -27.5710 C   0  0  0  0  0  0  0  0  0  0  0  0
   -2.0120   24.8330  -28.5120 C   0  0  0  0  0  0  0  0  0  0  0  0
   -7.5170   22.7240  -30.2780 C   0  0  0  0  0  0  0  0  0  0  0  0
   -8.3410   21.7600  -30.8660 C   0  0  0  0  0  0  0  0  0  0  0  0
   -9.2888   19.4735  -31.8578 H   0  0  0  0  0  0  0  0  0  0  0  0
   -9.5894   20.5269  -33.2814 H   0  0  0  0  0  0  0  0  0  0  0  0
   -8.1963   19.3929  -33.2814 H   0  0  0  0  0  0  0  0  0  0  0  0
   -6.3789   20.9278  -33.5453 H   0  0  0  0  0  0  0  0  0  0  0  0
   -4.9183   22.6595  -32.5016 H   0  0  0  0  0  0  0  0  0  0  0  0
   -3.6009   21.6160  -28.4176 H   0  0  0  0  0  0  0  0  0  0  0  0
   -4.5260   21.6474  -29.9570 H   0  0  0  0  0  0  0  0  0  0  0  0
   -2.7695   22.0231  -29.9570 H   0  0  0  0  0  0  0  0  0  0  0  0
   -4.8002   24.1316  -26.6656 H   0  0  0  0  0  0  0  0  0  0  0  0
   -3.5483   25.4753  -24.9940 H   0  0  0  0  0  0  0  0  0  0  0  0
   -0.4204   28.5254  -24.7300 H   0  0  0  0  0  0  0  0  0  0  0  0
    0.3022   27.8818  -26.2433 H   0  0  0  0  0  0  0  0  0  0  0  0
   -1.3875   28.4915  -26.2433 H   0  0  0  0  0  0  0  0  0  0  0  0
   -1.1968   26.7935  -23.2158 H   0  0  0  0  0  0  0  0  0  0  0  0
   -1.3493   25.1209  -23.8529 H   0  0  0  0  0  0  0  0  0  0  0  0
    0.2495   25.9397  -23.8529 H   0  0  0  0  0  0  0  0  0  0  0  0
   -0.3153   25.9898  -27.8330 H   0  0  0  0  0  0  0  0  0  0  0  0
   -1.5768   24.6571  -29.5068 H   0  0  0  0  0  0  0  0  0  0  0  0
   -7.8330   23.2225  -29.3498 H   0  0  0  0  0  0  0  0  0  0  0  0
   -9.3014   21.4995  -30.3971 H   0  0  0  0  0  0  0  0  0  0  0  0
  1  2  1  0
  2  3  2  0
  3  4  1  0
  4  5  2  0
  5  6  1  0
  6  7  2  0
  6  8  2  0
  6  9  1  0
  9 10  1  0
  9 11  1  0
 11 12  2  0
 12 13  1  0
 13 14  2  0
 14 15  1  0
 15 16  1  0
 15 17  1  0
 14 18  1  0
 18 19  2  0
  5 20  1  0
 20 21  2  0
 21  2  1  0
 19 11  1  0
  1 22  1  0
  1 23  1  0
  1 24  1  0
  3 25  1  0
  4 26  1  0
 10 27  1  0
 10 28  1  0
 10 29  1  0
 12 30  1  0
 13 31  1  0
 16 32  1  0
 16 33  1  0
 16 34  1  0
 17 35  1  0
 17 36  1  0
 17 37  1  0
 18 38  1  0
 19 39  1  0
 20 40  1  0
 21 41  1  0
M  END
>  <UniqueID>  (27) 
27

>  <SMILES>  (27) 
Cc1ccc(S(=O)(=O)N(C)c2ccc(N(C)C)cc2)cc1

>  <Energy>  (27) 
45.6781552126526

>  <Genealogy>  (27) 
Cc1ccc(S(=O)(=O)N(C)c2ccc(N(C)C)cc2)cc1 (3D coordinates assigned)
Cc1ccc(S(=O)(=O)N(C)c2ccc(N(C)C)cc2)cc1 (optimized conformer: 45.6781552126526 kcal/mol)

>  <smiles>  (27) 
Cc1ccc(S(=O)(=O)N(C)c2ccc(N(C)C)cc2)cc1

>  <score_type>  (27) 
oracle

>  <origin>  (27) 
adg

>  <m_score__min__energy>  (27) 
-8.0399999999999991

>  <m_primary>  (27) 
energy

$$$$
27:0
     RDKit          3D

 34 35  0  0  0  0  0  0  0  0999 V2000
   -3.1630   19.1840  -33.9070 C   0  0  0  0  0  0  0  0  0  0  0  0
   -4.5890   18.9040  -34.1100 N   0  0  0  0  0  0  0  0  0  0  0  0
   -4.9980   17.7980  -34.9830 C   0  0  0  0  0  0  0  0  0  0  0  0
   -5.5690   19.7310  -33.4400 C   0  0  0  0  0  0  0  0  0  0  0  0
   -5.1720   20.8870  -32.8380 N   0  0  0  0  0  0  0  0  0  0  0  0
   -6.0480   21.7070  -32.1990 C   0  0  0  0  0  0  0  0  0  0  0  0
   -5.5660   22.9060  -31.5630 N   0  0  0  0  0  0  0  0  0  0  0  0
   -4.2140   22.9070  -30.9830 C   0  0  0  0  0  0  0  0  0  0  0  0
   -3.9300   24.2030  -30.2100 C   0  0  0  0  0  0  0  0  0  0  0  0
   -5.1400   24.5860  -29.3480 C   0  0  0  0  0  0  0  0  0  0  0  0
   -6.4340   24.7570  -30.1760 C   0  0  0  0  0  0  0  0  0  0  0  0
   -6.3410   24.1540  -31.5860 C   0  0  0  0  0  0  0  0  0  0  0  0
   -7.3970   21.3390  -32.1330 C   0  0  0  0  0  0  0  0  0  0  0  0
   -7.7990   20.1560  -32.7510 C   0  0  0  0  0  0  0  0  0  0  0  0
   -9.4840   19.6690  -32.6830 Cl  0  0  0  0  0  0  0  0  0  0  0  0
   -6.8890   19.3770  -33.3950 N   0  0  0  0  0  0  0  0  0  0  0  0
   -2.9475   19.2263  -32.8292 H   0  0  0  0  0  0  0  0  0  0  0  0
   -2.5632   18.3865  -34.3698 H   0  0  0  0  0  0  0  0  0  0  0  0
   -2.9093   20.1491  -34.3698 H   0  0  0  0  0  0  0  0  0  0  0  0
   -5.3142   16.9428  -34.3676 H   0  0  0  0  0  0  0  0  0  0  0  0
   -5.8356   18.1225  -35.6179 H   0  0  0  0  0  0  0  0  0  0  0  0
   -4.1508   17.4995  -35.6179 H   0  0  0  0  0  0  0  0  0  0  0  0
   -4.1202   22.0536  -30.2953 H   0  0  0  0  0  0  0  0  0  0  0  0
   -3.4874   22.8314  -31.8054 H   0  0  0  0  0  0  0  0  0  0  0  0
   -3.0548   24.0536  -29.5606 H   0  0  0  0  0  0  0  0  0  0  0  0
   -3.7328   25.0120  -30.9288 H   0  0  0  0  0  0  0  0  0  0  0  0
   -5.3030   23.7961  -28.6000 H   0  0  0  0  0  0  0  0  0  0  0  0
   -4.9178   25.5545  -28.8762 H   0  0  0  0  0  0  0  0  0  0  0  0
   -7.2585   24.2643  -29.6399 H   0  0  0  0  0  0  0  0  0  0  0  0
   -6.6023   25.8375  -30.2956 H   0  0  0  0  0  0  0  0  0  0  0  0
   -7.3549   23.9435  -31.9570 H   0  0  0  0  0  0  0  0  0  0  0  0
   -5.8363   24.8735  -32.2475 H   0  0  0  0  0  0  0  0  0  0  0  0
   -8.1255   21.9709  -31.6039 H   0  0  0  0  0  0  0  0  0  0  0  0
   -7.2280   18.4990  -33.8440 H   0  0  0  0  0  0  0  0  0  0  0  0
  1  2  1  0
  2  3  1  0
  2  4  1  0
  4  5  2  0
  5  6  1  0
  6  7  1  0
  7  8  1  0
  8  9  1  0
  9 10  1  0
 10 11  1  0
 11 12  1  0
  6 13  2  0
 13 14  1  0
 14 15  1  0
 14 16  2  0
 16  4  1  0
 12  7  1  0
  1 17  1  0
  1 18  1  0
  1 19  1  0
  3 20  1  0
  3 21  1  0
  3 22  1  0
  8 23  1  0
  8 24  1  0
  9 25  1  0
  9 26  1  0
 10 27  1  0
 10 28  1  0
 11 29  1  0
 11 30  1  0
 12 31  1  0
 12 32  1  0
 13 33  1  0
 16 34  1  0
M  CHG  1  16   1
M  END
>  <UniqueID>  (28) 
28

>  <SMILES>  (28) 
CN(C)c1nc(N2CCCCC2)cc(Cl)[nH+]1

>  <Energy>  (28) 
35.434427630446876

>  <Genealogy>  (28) 
CN(C)c1nc(N2CCCCC2)cc(Cl)[nH+]1 (protonated)
CN(C)c1nc(N2CCCCC2)cc(Cl)[nH+]1 (3D coordinates assigned)
CN(C)c1nc(N2CCCCC2)cc(Cl)[nH+]1 (nonaromatic ring conformer: 35.434427630446876 kcal/mol)

>  <smiles>  (28) 
CN(C)c1nc(Cl)cc(N2CCCCC2)n1

>  <score_type>  (28) 
oracle

>  <origin>  (28) 
adg

>  <m_score__min__energy>  (28) 
-5.6799999999999997

>  <m_primary>  (28) 
energy

$$$$
28:0
     RDKit          3D

 43 46  0  0  1  0  0  0  0  0999 V2000
   -1.5860   25.0670  -28.0670 C   0  0  0  0  0  0  0  0  0  0  0  0
   -2.2140   25.2980  -29.3300 O   0  0  0  0  0  0  0  0  0  0  0  0
   -3.2360   24.4890  -29.7920 C   0  0  0  0  0  0  0  0  0  0  0  0
   -4.4950   24.9450  -30.1080 C   0  0  0  0  0  0  0  0  0  0  0  0
   -5.4650   24.0790  -30.5640 C   0  0  0  0  0  0  0  0  0  0  0  0
   -5.2090   22.7410  -30.7170 C   0  0  0  0  0  0  0  0  0  0  0  0
   -6.2550   21.8200  -31.2060 C   0  0  0  0  0  0  0  0  0  0  0  0
   -7.5190   22.2130  -31.5380 C   0  0  0  0  0  0  0  0  0  0  0  0
   -8.1830   21.0890  -31.9420 C   0  0  0  0  0  0  0  0  0  0  0  0
   -9.4390   20.9100  -32.3720 N   0  0  0  0  0  0  0  0  0  0  0  0
   -9.8600   19.6800  -32.7170 C   0  0  0  0  0  0  0  0  0  0  0  0
   -8.9780   18.6690  -32.6120 N   0  0  0  0  0  0  0  0  0  0  0  0
   -7.7200   18.8140  -32.1870 C   0  0  0  0  0  0  0  0  0  0  0  0
   -6.9640   17.8190  -32.1130 N   0  0  0  0  0  0  0  0  0  0  0  0
   -5.5800   17.7470  -32.3430 C   0  0  0  0  0  0  0  0  0  0  0  0
   -5.1330   18.2180  -33.7100 C   0  0  0  0  0  0  0  0  0  0  0  0
   -6.1120   17.4660  -34.6050 C   0  0  0  0  0  0  0  0  0  0  0  0
   -6.2800   16.1290  -33.9050 C   0  0  0  0  0  0  0  0  0  0  0  0
   -5.4090   16.2170  -32.6750 C   0  0  0  0  0  0  0  0  0  0  0  0
   -7.2670   20.0490  -31.8300 C   0  0  0  0  0  0  0  0  0  0  0  0
   -6.1030   20.4690  -31.3910 N   0  0  0  0  0  0  0  0  0  0  0  0
   -3.9410   22.3010  -30.3950 C   0  0  0  0  0  0  0  0  0  0  0  0
   -2.9440   23.1410  -29.9360 C   0  0  0  0  0  0  0  0  0  0  0  0
   -2.2850   25.3241  -27.2575 H   0  0  0  0  0  0  0  0  0  0  0  0
   -1.3049   24.0066  -27.9858 H   0  0  0  0  0  0  0  0  0  0  0  0
   -0.6848   25.6925  -27.9858 H   0  0  0  0  0  0  0  0  0  0  0  0
   -4.7301   26.0137  -29.9953 H   0  0  0  0  0  0  0  0  0  0  0  0
   -6.4638   24.4688  -30.8099 H   0  0  0  0  0  0  0  0  0  0  0  0
   -7.9241   23.2346  -31.4898 H   0  0  0  0  0  0  0  0  0  0  0  0
  -10.1350   21.6840  -32.4580 H   0  0  0  0  0  0  0  0  0  0  0  0
  -10.8868   19.5069  -33.0717 H   0  0  0  0  0  0  0  0  0  0  0  0
   -5.0764   18.2746  -31.5196 H   0  0  0  0  0  0  0  0  0  0  0  0
   -5.2404   19.3074  -33.8180 H   0  0  0  0  0  0  0  0  0  0  0  0
   -4.0729   18.0275  -33.9334 H   0  0  0  0  0  0  0  0  0  0  0  0
   -7.0724   17.9983  -34.6710 H   0  0  0  0  0  0  0  0  0  0  0  0
   -5.7540   17.3648  -35.6402 H   0  0  0  0  0  0  0  0  0  0  0  0
   -7.3313   15.9700  -33.6232 H   0  0  0  0  0  0  0  0  0  0  0  0
   -5.9954   15.2863  -34.5522 H   0  0  0  0  0  0  0  0  0  0  0  0
   -5.7816   15.5767  -31.8619 H   0  0  0  0  0  0  0  0  0  0  0  0
   -4.3705   15.8813  -32.8122 H   0  0  0  0  0  0  0  0  0  0  0  0
   -5.1800   20.0630  -31.1730 H   0  0  0  0  0  0  0  0  0  0  0  0
   -3.7131   21.2309  -30.5091 H   0  0  0  0  0  0  0  0  0  0  0  0
   -1.9452   22.7505  -29.6914 H   0  0  0  0  0  0  0  0  0  0  0  0
  1  2  1  0
  2  3  1  0
  3  4  2  0
  4  5  1  0
  5  6  2  0
  6  7  1  0
  7  8  2  0
  8  9  1  0
  9 10  1  0
 10 11  1  0
 11 12  2  0
 12 13  1  0
 13 14  2  0
 14 15  1  0
 15 16  1  0
 16 17  1  0
 17 18  1  0
 18 19  1  0
 13 20  1  0
 20 21  1  0
  6 22  1  0
 22 23  2  0
 23  3  1  0
 21  7  1  0
 20  9  2  0
 19 15  1  0
  1 24  1  0
  1 25  1  0
  1 26  1  0
  4 27  1  0
  5 28  1  0
  8 29  1  0
 10 30  1  0
 11 31  1  0
 15 32  1  0
 16 33  1  0
 16 34  1  0
 17 35  1  0
 17 36  1  0
 18 37  1  0
 18 38  1  0
 19 39  1  0
 19 40  1  0
 21 41  1  0
 22 42  1  0
 23 43  1  0
M  END
>  <smiles>  (29) 
COc1ccc(-c2cc3[nH]cnc(=NC4CCCC4)c3[nH]2)cc1

>  <score_type>  (29) 
oracle

>  <origin>  (29) 
adg

>  <m_score__min__energy>  (29) 
-8.1300000000000008

>  <m_primary>  (29) 
energy

$$$$
29:0
     RDKit          3D

 64 66  0  0  0  0  0  0  0  0999 V2000
   -5.2360   22.2660  -31.9470 C   0  0  0  0  0  0  0  0  0  0  0  0
   -6.6010   22.6350  -31.3820 C   0  0  0  0  0  0  0  0  0  0  0  0
   -7.6080   22.1560  -32.2650 O   0  0  0  0  0  0  0  0  0  0  0  0
   -8.6590   21.3250  -31.8520 C   0  0  0  0  0  0  0  0  0  0  0  0
   -9.8560   21.7230  -31.9050 O   0  0  0  0  0  0  0  0  0  0  0  0
   -8.3680   20.0420  -31.2160 C   0  0  0  0  0  0  0  0  0  0  0  0
   -8.3900   18.8560  -31.8430 C   0  0  0  0  0  0  0  0  0  0  0  0
   -7.3950   18.4300  -32.8400 C   0  0  0  0  0  0  0  0  0  0  0  0
   -7.2340   17.0600  -33.0930 C   0  0  0  0  0  0  0  0  0  0  0  0
   -6.2320   16.6120  -33.9560 C   0  0  0  0  0  0  0  0  0  0  0  0
   -5.3580   17.5240  -34.5590 C   0  0  0  0  0  0  0  0  0  0  0  0
   -4.1570   17.0360  -35.3300 C   0  0  0  0  0  0  0  0  0  0  0  0
   -3.0810   16.6540  -34.4070 N   0  0  0  0  0  0  0  0  0  0  0  0
   -2.6640   17.7410  -33.5000 C   0  0  2  0  0  0  0  0  0  0  0  0
   -2.3600   18.9960  -34.3250 C   0  0  0  0  0  0  0  0  0  0  0  0
   -1.6620   20.1060  -33.5060 C   0  0  0  0  0  0  0  0  0  0  0  0
   -1.6730   19.8260  -32.0520 N   0  0  2  0  0  0  0  0  0  0  0  0
   -1.0680   20.9040  -31.2820 C   0  0  0  0  0  0  0  0  0  0  0  0
   -0.1020   21.5630  -31.7490 O   0  0  0  0  0  0  0  0  0  0  0  0
   -1.5800   21.2650  -29.9330 C   0  0  0  0  0  0  0  0  0  0  0  0
   -2.0750   22.5590  -29.7060 C   0  0  0  0  0  0  0  0  0  0  0  0
   -2.5510   22.9450  -28.4440 C   0  0  0  0  0  0  0  0  0  0  0  0
   -3.0630   24.3510  -28.2140 C   0  0  0  0  0  0  0  0  0  0  0  0
   -2.4150   25.2510  -29.0510 F   0  0  0  0  0  0  0  0  0  0  0  0
   -4.4240   24.4210  -28.4760 F   0  0  0  0  0  0  0  0  0  0  0  0
   -2.8400   24.7160  -26.8990 F   0  0  0  0  0  0  0  0  0  0  0  0
   -2.4920   22.0310  -27.3820 C   0  0  0  0  0  0  0  0  0  0  0  0
   -2.0150   20.7270  -27.5850 C   0  0  0  0  0  0  0  0  0  0  0  0
   -2.0180   19.7590  -26.4260 C   0  0  0  0  0  0  0  0  0  0  0  0
   -1.1590   18.7120  -26.6930 F   0  0  0  0  0  0  0  0  0  0  0  0
   -3.2940   19.2580  -26.2490 F   0  0  0  0  0  0  0  0  0  0  0  0
   -1.6140   20.3670  -25.2500 F   0  0  0  0  0  0  0  0  0  0  0  0
   -1.5680   20.3500  -28.8610 C   0  0  0  0  0  0  0  0  0  0  0  0
   -0.9690   18.5460  -31.7670 C   0  0  0  0  0  0  0  0  0  0  0  0
   -1.4320   17.3720  -32.6570 C   0  0  0  0  0  0  0  0  0  0  0  0
   -5.5200   18.8960  -34.3180 C   0  0  0  0  0  0  0  0  0  0  0  0
   -6.5160   19.3410  -33.4430 C   0  0  0  0  0  0  0  0  0  0  0  0
   -4.5358   22.0767  -31.1200 H   0  0  0  0  0  0  0  0  0  0  0  0
   -5.3274   21.3603  -32.5646 H   0  0  0  0  0  0  0  0  0  0  0  0
   -4.8587   23.0944  -32.5646 H   0  0  0  0  0  0  0  0  0  0  0  0
   -6.7280   22.1737  -30.3915 H   0  0  0  0  0  0  0  0  0  0  0  0
   -6.6809   23.7275  -31.2820 H   0  0  0  0  0  0  0  0  0  0  0  0
   -8.1125   20.0490  -30.1461 H   0  0  0  0  0  0  0  0  0  0  0  0
   -9.2034   18.1578  -31.5961 H   0  0  0  0  0  0  0  0  0  0  0  0
   -7.9020   16.3330  -32.6080 H   0  0  0  0  0  0  0  0  0  0  0  0
   -6.1289   15.5366  -34.1631 H   0  0  0  0  0  0  0  0  0  0  0  0
   -4.4439   16.1629  -35.9345 H   0  0  0  0  0  0  0  0  0  0  0  0
   -3.7981   17.8447  -35.9836 H   0  0  0  0  0  0  0  0  0  0  0  0
   -3.3640   15.8080  -33.8550 H   0  0  0  0  0  0  0  0  0  0  0  0
   -3.4932   17.9231  -32.8006 H   0  0  0  0  0  0  0  0  0  0  0  0
   -1.7047   18.7142  -35.1624 H   0  0  0  0  0  0  0  0  0  0  0  0
   -3.3219   19.4008  -34.6728 H   0  0  0  0  0  0  0  0  0  0  0  0
   -0.6178   20.1893  -33.8419 H   0  0  0  0  0  0  0  0  0  0  0  0
   -2.2144   21.0427  -33.6714 H   0  0  0  0  0  0  0  0  0  0  0  0
   -2.6780   19.7620  -31.7560 H   0  0  0  0  0  0  0  0  0  0  0  0
   -2.0899   23.2839  -30.5332 H   0  0  0  0  0  0  0  0  0  0  0  0
   -2.8231   22.3395  -26.3794 H   0  0  0  0  0  0  0  0  0  0  0  0
   -1.2030   19.3256  -29.0268 H   0  0  0  0  0  0  0  0  0  0  0  0
    0.1085   18.6991  -31.9268 H   0  0  0  0  0  0  0  0  0  0  0  0
   -1.2044   18.2739  -30.7275 H   0  0  0  0  0  0  0  0  0  0  0  0
   -0.6100   17.0924  -33.3324 H   0  0  0  0  0  0  0  0  0  0  0  0
   -1.7080   16.5346  -31.9993 H   0  0  0  0  0  0  0  0  0  0  0  0
   -4.8629   19.6229  -34.8178 H   0  0  0  0  0  0  0  0  0  0  0  0
   -6.6107   20.4152  -33.2259 H   0  0  0  0  0  0  0  0  0  0  0  0
  1  2  1  0
  2  3  1  0
  3  4  1  0
  4  5  2  0
  4  6  1  0
  6  7  2  3
  7  8  1  0
  8  9  2  0
  9 10  1  0
 10 11  2  0
 11 12  1  0
 12 13  1  0
 13 14  1  0
 14 15  1  0
 15 16  1  0
 16 17  1  0
 17 18  1  0
 18 19  2  0
 18 20  1  0
 20 21  2  0
 21 22  1  0
 22 23  1  0
 23 24  1  0
 23 25  1  0
 23 26  1  0
 22 27  2  0
 27 28  1  0
 28 29  1  0
 29 30  1  0
 29 31  1  0
 29 32  1  0
 28 33  2  0
 17 34  1  0
 34 35  1  0
 11 36  1  0
 36 37  2  0
 37  8  1  0
 35 14  1  0
 33 20  1  0
  1 38  1  0
  1 39  1  0
  1 40  1  0
  2 41  1  0
  2 42  1  0
  6 43  1  0
  7 44  1  0
  9 45  1  0
 10 46  1  0
 12 47  1  0
 12 48  1  0
 13 49  1  0
 14 50  1  1
 15 51  1  0
 15 52  1  0
 16 53  1  0
 16 54  1  0
 17 55  1  1
 21 56  1  0
 27 57  1  0
 33 58  1  0
 34 59  1  0
 34 60  1  0
 35 61  1  0
 35 62  1  0
 36 63  1  0
 37 64  1  0
M  CHG  1  17   1
M  END
>  <UniqueID>  (30) 
29

>  <SMILES>  (30) 
CCOC(=O)C=Cc1ccc(CNC2CC[NH+](C(=O)c3cc(C(F)(F)F)cc(C(F)(F)F)c3)CC2)cc1

>  <Energy>  (30) 
89.96316178257706

>  <Genealogy>  (30) 
CCOC(=O)C=Cc1ccc(CNC2CC[NH+](C(=O)c3cc(C(F)(F)F)cc(C(F)(F)F)c3)CC2)cc1 (protonated)
CCOC(=O)C=Cc1ccc(CNC2CC[NH+](C(=O)c3cc(C(F)(F)F)cc(C(F)(F)F)c3)CC2)cc1 (3D coordinates assigned)
CCOC(=O)C=Cc1ccc(CNC2CC[NH+](C(=O)c3cc(C(F)(F)F)cc(C(F)(F)F)c3)CC2)cc1 (nonaromatic ring conformer: 89.96316178257706 kcal/mol)

>  <smiles>  (30) 
CCOC(=O)C=Cc1ccc(CNC2CCN(C(=O)c3cc(C(F)(F)F)cc(C(F)(F)F)c3)CC2)cc1

>  <score_type>  (30) 
oracle

>  <origin>  (30) 
adg

>  <m_score__min__energy>  (30) 
-8.6799999999999997

>  <m_primary>  (30) 
energy

$$$$
30:0
     RDKit          3D

 35 35  0  0  0  0  0  0  0  0999 V2000
   -9.8377   23.4152  -31.6453 H   0  0  0  0  0  0  0  0  0  0  0  0
   -9.0470   22.6770  -31.8450 C   0  0  0  0  0  0  0  0  0  0  0  0
   -9.3620   21.3310  -31.9380 C   0  0  0  0  0  0  0  0  0  0  0  0
  -10.4039   21.0006  -31.8146 H   0  0  0  0  0  0  0  0  0  0  0  0
   -8.3550   20.3910  -32.1890 C   0  0  0  0  0  0  0  0  0  0  0  0
   -8.7600   18.9370  -32.2820 C   0  0  0  0  0  0  0  0  0  0  0  0
   -8.8753   18.5230  -31.2694 H   0  0  0  0  0  0  0  0  0  0  0  0
   -9.7149   18.8562  -32.8221 H   0  0  0  0  0  0  0  0  0  0  0  0
   -7.9844   18.3742  -32.8221 H   0  0  0  0  0  0  0  0  0  0  0  0
   -7.0500   20.8080  -32.3780 N   0  0  0  0  0  0  0  0  0  0  0  0
   -5.9770   19.8220  -32.6550 C   0  0  0  0  0  0  0  0  0  0  0  0
   -4.9985   20.3037  -32.5117 H   0  0  0  0  0  0  0  0  0  0  0  0
   -6.0903   18.9735  -31.9641 H   0  0  0  0  0  0  0  0  0  0  0  0
   -6.0750   19.3040  -34.0870 C   0  0  0  0  0  0  0  0  0  0  0  0
   -6.2795   18.2233  -34.0728 H   0  0  0  0  0  0  0  0  0  0  0  0
   -6.8906   19.8246  -34.6102 H   0  0  0  0  0  0  0  0  0  0  0  0
   -5.1256   19.4907  -34.6102 H   0  0  0  0  0  0  0  0  0  0  0  0
   -6.7220   22.1480  -32.2750 C   0  0  0  0  0  0  0  0  0  0  0  0
   -5.4750   22.5180  -32.4220 N   0  0  0  0  0  0  0  0  0  0  0  0
   -4.3800   22.4720  -31.4480 C   0  0  0  0  0  0  0  0  0  0  0  0
   -3.4287   22.6657  -31.9652 H   0  0  0  0  0  0  0  0  0  0  0  0
   -4.3651   21.4765  -30.9802 H   0  0  0  0  0  0  0  0  0  0  0  0
   -4.5810   23.5240  -30.3570 C   0  0  0  0  0  0  0  0  0  0  0  0
   -3.9381   23.2849  -29.4971 H   0  0  0  0  0  0  0  0  0  0  0  0
   -5.6357   23.5243  -30.0446 H   0  0  0  0  0  0  0  0  0  0  0  0
   -4.2430   24.8030  -30.8530 O   0  0  0  0  0  0  0  0  0  0  0  0
   -5.3660   25.6630  -30.8250 C   0  0  0  0  0  0  0  0  0  0  0  0
   -5.8962   25.6003  -31.7867 H   0  0  0  0  0  0  0  0  0  0  0  0
   -5.0251   26.6944  -30.6518 H   0  0  0  0  0  0  0  0  0  0  0  0
   -6.3110   25.2550  -29.7010 C   0  0  0  0  0  0  0  0  0  0  0  0
   -5.8362   25.4600  -28.7302 H   0  0  0  0  0  0  0  0  0  0  0  0
   -7.2455   25.8298  -29.7808 H   0  0  0  0  0  0  0  0  0  0  0  0
   -6.5334   24.1807  -29.7808 H   0  0  0  0  0  0  0  0  0  0  0  0
   -7.7340   23.0920  -32.0040 C   0  0  0  0  0  0  0  0  0  0  0  0
   -7.4811   24.1591  -31.9187 H   0  0  0  0  0  0  0  0  0  0  0  0
  1  2  1  0
  2  3  1  0
  3  4  1  0
  3  5  2  0
  5  6  1  0
  6  7  1  0
  6  8  1  0
  6  9  1  0
  5 10  1  0
 10 11  1  0
 11 12  1  0
 11 13  1  0
 11 14  1  0
 14 15  1  0
 14 16  1  0
 14 17  1  0
 10 18  1  0
 18 19  2  0
 19 20  1  0
 20 21  1  0
 20 22  1  0
 20 23  1  0
 23 24  1  0
 23 25  1  0
 23 26  1  0
 26 27  1  0
 27 28  1  0
 27 29  1  0
 27 30  1  0
 30 31  1  0
 30 32  1  0
 30 33  1  0
 18 34  1  0
 34 35  1  0
 34  2  2  0
M  END
>  <UniqueID>  (31) 
30

>  <SMILES>  (31) 
CCOCC/N=c1\cccc(C)n1CC

>  <Energy>  (31) 
35.98416919256422

>  <Genealogy>  (31) 
CCOCC/N=c1\cccc(C)n1CC (cis-trans isomerization)
CCOCC/N=c1\cccc(C)n1CC (3D coordinates assigned)
CCOCC/N=c1\cccc(C)n1CC (optimized conformer: 35.98416919256422 kcal/mol)

>  <smiles>  (31) 
CCOCCN=c1cccc(C)n1CC

>  <score_type>  (31) 
oracle

>  <origin>  (31) 
adg

>  <m_score__min__energy>  (31) 
-6.0899999999999999

>  <m_primary>  (31) 
energy

$$$$
31:0
     RDKit          3D

 35 37  0  0  0  0  0  0  0  0999 V2000
   -7.2110   24.6470  -29.2000 H   0  0  0  0  0  0  0  0  0  0  0  0
   -7.1480   24.4850  -30.2270 N   0  0  0  0  0  0  0  0  0  0  0  0
   -6.4660   23.5420  -30.8140 C   0  0  0  0  0  0  0  0  0  0  0  0
   -7.1020   22.5510  -31.6240 C   0  0  0  0  0  0  0  0  0  0  0  0
   -6.3090   21.4550  -32.0680 C   0  0  0  0  0  0  0  0  0  0  0  0
   -4.9720   21.4430  -31.8340 N   0  0  0  0  0  0  0  0  0  0  0  0
   -4.3350   22.4230  -31.1530 C   0  0  0  0  0  0  0  0  0  0  0  0
   -2.9520   22.3430  -30.9660 C   0  0  0  0  0  0  0  0  0  0  0  0
   -2.3895   21.4990  -31.3918 H   0  0  0  0  0  0  0  0  0  0  0  0
   -2.2820   23.3300  -30.2410 C   0  0  0  0  0  0  0  0  0  0  0  0
   -1.1928   23.2614  -30.1030 H   0  0  0  0  0  0  0  0  0  0  0  0
   -2.9850   24.4050  -29.6890 C   0  0  0  0  0  0  0  0  0  0  0  0
   -2.2640   25.3680  -28.9680 O   0  0  0  0  0  0  0  0  0  0  0  0
   -1.8610   25.2250  -27.6090 C   0  0  0  0  0  0  0  0  0  0  0  0
   -2.6896   25.5190  -26.9480 H   0  0  0  0  0  0  0  0  0  0  0  0
   -1.5915   24.1763  -27.4149 H   0  0  0  0  0  0  0  0  0  0  0  0
   -0.9908   25.8692  -27.4149 H   0  0  0  0  0  0  0  0  0  0  0  0
   -4.3800   24.4850  -29.8730 C   0  0  0  0  0  0  0  0  0  0  0  0
   -4.9394   25.3263  -29.4379 H   0  0  0  0  0  0  0  0  0  0  0  0
   -5.0670   23.4950  -30.6110 C   0  0  0  0  0  0  0  0  0  0  0  0
   -6.8820   20.2670  -32.7870 C   0  0  0  0  0  0  0  0  0  0  0  0
   -7.2565   20.5935  -33.7684 H   0  0  0  0  0  0  0  0  0  0  0  0
   -6.0831   19.5183  -32.8926 H   0  0  0  0  0  0  0  0  0  0  0  0
   -8.0340   19.6200  -32.0090 C   0  0  0  0  0  0  0  0  0  0  0  0
   -8.0921   18.5591  -32.2937 H   0  0  0  0  0  0  0  0  0  0  0  0
   -7.8157   19.7574  -30.9397 H   0  0  0  0  0  0  0  0  0  0  0  0
   -9.4030   20.2690  -32.2740 C   0  0  0  0  0  0  0  0  0  0  0  0
   -9.4979   20.4668  -33.3519 H   0  0  0  0  0  0  0  0  0  0  0  0
  -10.1789   19.5726  -31.9233 H   0  0  0  0  0  0  0  0  0  0  0  0
   -9.5790   21.5890  -31.5130 C   0  0  0  0  0  0  0  0  0  0  0  0
  -10.6049   21.9505  -31.6766 H   0  0  0  0  0  0  0  0  0  0  0  0
   -9.3729   21.3799  -30.4529 H   0  0  0  0  0  0  0  0  0  0  0  0
   -8.5950   22.6950  -31.9560 C   0  0  0  0  0  0  0  0  0  0  0  0
   -8.6740   22.7751  -33.0502 H   0  0  0  0  0  0  0  0  0  0  0  0
   -8.9084   23.5719  -31.3704 H   0  0  0  0  0  0  0  0  0  0  0  0
  1  2  1  0
  2  3  2  0
  3  4  1  0
  4  5  2  0
  5  6  1  0
  6  7  1  0
  7  8  2  0
  8  9  1  0
  8 10  1  0
 10 11  1  0
 10 12  2  0
 12 13  1  0
 13 14  1  0
 14 15  1  0
 14 16  1  0
 14 17  1  0
 12 18  1  0
 18 19  1  0
 18 20  2  0
  5 21  1  0
 21 22  1  0
 21 23  1  0
 21 24  1  0
 24 25  1  0
 24 26  1  0
 24 27  1  0
 27 28  1  0
 27 29  1  0
 27 30  1  0
 30 31  1  0
 30 32  1  0
 30 33  1  0
 33 34  1  0
 33 35  1  0
 20  3  1  0
 33  4  1  0
 20  7  1  0
M  CHG  1   6  -1
M  END
>  <UniqueID>  (32) 
31

>  <SMILES>  (32) 
[H]/N=c1\c2c([n-]c3ccc(OC)cc13)CCCCC2

>  <Energy>  (32) 
54.06875640160159

>  <Genealogy>  (32) 
COc1ccc2[n-]c3c(c(=N)c2c1)CCCCC3 (protonated)
[H]/N=c1\c2c([n-]c3ccc(OC)cc13)CCCCC2 (cis-trans isomerization)
[H]/N=c1\c2c([n-]c3ccc(OC)cc13)CCCCC2 (3D coordinates assigned)
[H]/N=c1\c2c([n-]c3ccc(OC)cc13)CCCCC2 (nonaromatic ring conformer: 54.06875640160159 kcal/mol)

>  <smiles>  (32) 
COc1ccc2[nH]c3c(c(=N)c2c1)CCCCC3

>  <score_type>  (32) 
oracle

>  <origin>  (32) 
adg

>  <m_score__min__energy>  (32) 
-5.9900000000000002

>  <m_primary>  (32) 
energy

$$$$
32:0
     RDKit          3D

 32 34  0  0  0  0  0  0  0  0999 V2000
   -4.2960   20.2180  -33.1010 C   0  0  0  0  0  0  0  0  0  0  0  0
   -5.0280   18.9560  -33.4680 C   0  0  0  0  0  0  0  0  0  0  0  0
   -4.6150   18.2060  -34.5830 C   0  0  0  0  0  0  0  0  0  0  0  0
   -5.2810   17.0280  -34.9280 C   0  0  0  0  0  0  0  0  0  0  0  0
   -6.3650   16.5890  -34.1670 C   0  0  0  0  0  0  0  0  0  0  0  0
   -6.7860   17.3240  -33.0560 C   0  0  0  0  0  0  0  0  0  0  0  0
   -6.1210   18.5110  -32.6940 C   0  0  0  0  0  0  0  0  0  0  0  0
   -6.5280   19.2800  -31.5500 N   0  0  0  0  0  0  0  0  0  0  0  0
   -7.5050   20.7120  -31.5970 S   0  0  0  0  0  0  0  0  0  0  0  0
   -8.5760   20.6100  -30.5470 O   0  0  0  0  0  0  0  0  0  0  0  0
   -8.1510   20.8210  -32.9480 O   0  0  0  0  0  0  0  0  0  0  0  0
   -6.5050   22.1350  -31.3270 C   0  0  0  0  0  0  0  0  0  0  0  0
   -6.9060   23.3930  -31.8380 C   0  0  0  0  0  0  0  0  0  0  0  0
   -6.1190   24.5390  -31.6160 C   0  0  0  0  0  0  0  0  0  0  0  0
   -4.9420   24.3920  -30.8860 C   0  0  0  0  0  0  0  0  0  0  0  0
   -4.0650   25.3630  -30.5710 N   0  0  0  0  0  0  0  0  0  0  0  0
   -3.1090   24.7160  -29.8650 C   0  0  0  0  0  0  0  0  0  0  0  0
   -1.9950   25.3560  -29.3380 O   0  0  0  0  0  0  0  0  0  0  0  0
   -3.3640   23.3590  -29.7300 C   0  0  0  0  0  0  0  0  0  0  0  0
   -4.5510   23.1740  -30.3950 C   0  0  0  0  0  0  0  0  0  0  0  0
   -5.3040   22.0200  -30.5980 C   0  0  0  0  0  0  0  0  0  0  0  0
   -4.2445   20.3067  -32.0058 H   0  0  0  0  0  0  0  0  0  0  0  0
   -3.2772   20.1844  -33.5144 H   0  0  0  0  0  0  0  0  0  0  0  0
   -4.8310   21.0857  -33.5144 H   0  0  0  0  0  0  0  0  0  0  0  0
   -3.7622   18.5490  -35.1873 H   0  0  0  0  0  0  0  0  0  0  0  0
   -4.9506   16.4455  -35.8007 H   0  0  0  0  0  0  0  0  0  0  0  0
   -6.8893   15.6621  -34.4425 H   0  0  0  0  0  0  0  0  0  0  0  0
   -7.6419   16.9733  -32.4607 H   0  0  0  0  0  0  0  0  0  0  0  0
   -7.8400   23.4756  -32.4131 H   0  0  0  0  0  0  0  0  0  0  0  0
   -6.4244   25.5207  -32.0072 H   0  0  0  0  0  0  0  0  0  0  0  0
   -2.7553   22.6047  -29.2099 H   0  0  0  0  0  0  0  0  0  0  0  0
   -4.9718   21.0491  -30.2018 H   0  0  0  0  0  0  0  0  0  0  0  0
  1  2  1  0
  2  3  2  0
  3  4  1  0
  4  5  2  0
  5  6  1  0
  6  7  2  0
  7  8  1  0
  8  9  1  0
  9 10  2  0
  9 11  2  0
  9 12  1  0
 12 13  2  0
 13 14  1  0
 14 15  2  0
 15 16  1  0
 16 17  1  0
 17 18  1  0
 17 19  2  0
 19 20  1  0
 20 21  2  0
  7  2  1  0
 21 12  1  0
 20 15  1  0
  1 22  1  0
  1 23  1  0
  1 24  1  0
  3 25  1  0
  4 26  1  0
  5 27  1  0
  6 28  1  0
 13 29  1  0
 14 30  1  0
 19 31  1  0
 21 32  1  0
M  CHG  3   8  -1  16  -1  18  -1
M  END
>  <UniqueID>  (33) 
32

>  <SMILES>  (33) 
Cc1ccccc1[N-]S(=O)(=O)c1ccc2[n-]c([O-])cc2c1

>  <Energy>  (33) 
69.65039320709676

>  <Genealogy>  (33) 
Cc1ccccc1[N-]S(=O)(=O)c1ccc2[n-]c([O-])cc2c1 (protonated)
Cc1ccccc1[N-]S(=O)(=O)c1ccc2[n-]c([O-])cc2c1 (3D coordinates assigned)
Cc1ccccc1[N-]S(=O)(=O)c1ccc2[n-]c([O-])cc2c1 (optimized conformer: 69.65039320709676 kcal/mol)

>  <smiles>  (33) 
Cc1ccccc1NS(=O)(=O)c1ccc2[nH]c(O)cc2c1

>  <score_type>  (33) 
oracle

>  <origin>  (33) 
adg

>  <m_score__min__energy>  (33) 
-12.449999999999999

>  <m_primary>  (33) 
energy

$$$$
33:0
     RDKit          3D

 39 40  0  0  0  0  0  0  0  0999 V2000
   -1.8250   24.7820  -28.1450 C   0  0  0  0  0  0  0  0  0  0  0  0
   -2.4430   25.2980  -29.3160 O   0  0  0  0  0  0  0  0  0  0  0  0
   -3.6370   24.7840  -29.8290 C   0  0  0  0  0  0  0  0  0  0  0  0
   -4.1750   25.2970  -30.8480 O   0  0  0  0  0  0  0  0  0  0  0  0
   -4.2750   23.6060  -29.1640 C   0  0  0  0  0  0  0  0  0  0  0  0
   -5.7880   23.4670  -29.4650 C   0  0  0  0  0  0  0  0  0  0  0  0
   -6.1720   23.3860  -30.9010 N   0  0  2  0  0  0  0  0  0  0  0  0
   -7.6330   23.4800  -31.1410 C   0  0  0  0  0  0  0  0  0  0  0  0
   -8.0560   22.2720  -31.9990 C   0  0  0  0  0  0  0  0  0  0  0  0
   -6.8700   21.4450  -32.1090 N   0  0  0  0  0  0  0  0  0  0  0  0
   -6.8550   20.0780  -32.5640 C   0  0  0  0  0  0  0  0  0  0  0  0
   -7.6170   19.0930  -31.9130 C   0  0  0  0  0  0  0  0  0  0  0  0
   -7.6180   17.7740  -32.3770 C   0  0  0  0  0  0  0  0  0  0  0  0
   -6.8620   17.4190  -33.5100 C   0  0  0  0  0  0  0  0  0  0  0  0
   -6.8310   16.1090  -34.0110 O   0  0  0  0  0  0  0  0  0  0  0  0
   -5.7260   15.2220  -33.8750 C   0  0  0  0  0  0  0  0  0  0  0  0
   -6.1120   18.4030  -34.1650 C   0  0  0  0  0  0  0  0  0  0  0  0
   -5.3800   18.0800  -35.2600 F   0  0  0  0  0  0  0  0  0  0  0  0
   -6.1130   19.7220  -33.7010 C   0  0  0  0  0  0  0  0  0  0  0  0
   -5.7950   22.1610  -31.5280 C   0  0  0  0  0  0  0  0  0  0  0  0
   -4.5910   21.8030  -31.6460 O   0  0  0  0  0  0  0  0  0  0  0  0
   -2.3215   25.1966  -27.2553 H   0  0  0  0  0  0  0  0  0  0  0  0
   -1.9132   23.6856  -28.1366 H   0  0  0  0  0  0  0  0  0  0  0  0
   -0.7619   25.0644  -28.1366 H   0  0  0  0  0  0  0  0  0  0  0  0
   -3.7666   22.6940  -29.5100 H   0  0  0  0  0  0  0  0  0  0  0  0
   -4.1748   23.7553  -28.0788 H   0  0  0  0  0  0  0  0  0  0  0  0
   -6.1449   22.5513  -28.9709 H   0  0  0  0  0  0  0  0  0  0  0  0
   -6.2469   24.3943  -29.0915 H   0  0  0  0  0  0  0  0  0  0  0  0
   -5.6990   24.1670  -31.4170 H   0  0  0  0  0  0  0  0  0  0  0  0
   -8.1704   23.4621  -30.1814 H   0  0  0  0  0  0  0  0  0  0  0  0
   -7.8742   24.4193  -31.6602 H   0  0  0  0  0  0  0  0  0  0  0  0
   -8.8685   21.7165  -31.5079 H   0  0  0  0  0  0  0  0  0  0  0  0
   -8.4321   22.5818  -32.9852 H   0  0  0  0  0  0  0  0  0  0  0  0
   -8.2175   19.3617  -31.0314 H   0  0  0  0  0  0  0  0  0  0  0  0
   -8.2124   17.0102  -31.8542 H   0  0  0  0  0  0  0  0  0  0  0  0
   -5.5186   15.0556  -32.8076 H   0  0  0  0  0  0  0  0  0  0  0  0
   -5.9650   14.2621  -34.3561 H   0  0  0  0  0  0  0  0  0  0  0  0
   -4.8405   15.6629  -34.3561 H   0  0  0  0  0  0  0  0  0  0  0  0
   -5.5273   20.4872  -34.2315 H   0  0  0  0  0  0  0  0  0  0  0  0
  1  2  1  0
  2  3  1  0
  3  4  2  0
  3  5  1  0
  5  6  1  0
  6  7  1  0
  7  8  1  0
  8  9  1  0
  9 10  1  0
 10 11  1  0
 11 12  2  0
 12 13  1  0
 13 14  2  0
 14 15  1  0
 15 16  1  0
 14 17  1  0
 17 18  1  0
 17 19  2  0
 10 20  1  0
 20 21  2  0
 20  7  1  0
 19 11  1  0
  1 22  1  0
  1 23  1  0
  1 24  1  0
  5 25  1  0
  5 26  1  0
  6 27  1  0
  6 28  1  0
  7 29  1  6
  8 30  1  0
  8 31  1  0
  9 32  1  0
  9 33  1  0
 12 34  1  0
 13 35  1  0
 16 36  1  0
 16 37  1  0
 16 38  1  0
 19 39  1  0
M  CHG  1   7   1
M  END
>  <UniqueID>  (34) 
33

>  <SMILES>  (34) 
COC(=O)CC[N@@H+]1CCN(c2ccc(OC)c(F)c2)C1=O

>  <Energy>  (34) 
50.48366822008591

>  <Genealogy>  (34) 
COC(=O)CC[NH+]1CCN(c2ccc(OC)c(F)c2)C1=O (protonated)
COC(=O)CC[N@@H+]1CCN(c2ccc(OC)c(F)c2)C1=O (chirality)
COC(=O)CC[N@@H+]1CCN(c2ccc(OC)c(F)c2)C1=O (3D coordinates assigned)
COC(=O)CC[N@@H+]1CCN(c2ccc(OC)c(F)c2)C1=O (nonaromatic ring conformer: 50.48366822008591 kcal/mol)

>  <smiles>  (34) 
COC(=O)CCN1CCN(c2ccc(OC)c(F)c2)C1=O

>  <score_type>  (34) 
oracle

>  <origin>  (34) 
adg

>  <m_score__min__energy>  (34) 
-6.3600000000000003

>  <m_primary>  (34) 
energy

$$$$
34:0
     RDKit          3D

 32 33  0  0  0  0  0  0  0  0999 V2000
   -3.2490   23.8040  -29.5360 C   0  0  0  0  0  0  0  0  0  0  0  0
   -3.6790   24.7380  -30.5190 O   0  0  0  0  0  0  0  0  0  0  0  0
   -5.0280   24.9410  -30.8290 C   0  0  0  0  0  0  0  0  0  0  0  0
   -5.5210   26.1020  -30.7690 O   0  0  0  0  0  0  0  0  0  0  0  0
   -5.8750   23.7940  -31.2270 C   0  0  0  0  0  0  0  0  0  0  0  0
   -7.2380   23.7590  -30.8840 C   0  0  0  0  0  0  0  0  0  0  0  0
   -8.0350   22.6810  -31.2710 C   0  0  0  0  0  0  0  0  0  0  0  0
   -7.4850   21.6250  -32.0000 C   0  0  0  0  0  0  0  0  0  0  0  0
   -6.1220   21.6300  -32.3430 C   0  0  0  0  0  0  0  0  0  0  0  0
   -5.5540   20.5030  -33.1200 C   0  0  0  0  0  0  0  0  0  0  0  0
   -4.3140   20.2770  -33.0610 O   0  0  0  0  0  0  0  0  0  0  0  0
   -6.3880   19.6760  -33.9490 N   0  0  0  0  0  0  0  0  0  0  0  0
   -5.8800   18.4900  -34.6350 C   0  0  0  0  0  0  0  0  0  0  0  0
   -6.2870   17.2240  -33.8720 C   0  0  0  0  0  0  0  0  0  0  0  0
   -5.7910   17.1080  -32.4370 C   0  0  0  0  0  0  0  0  0  0  0  0
   -7.2380   17.4790  -32.7120 C   0  0  0  0  0  0  0  0  0  0  0  0
   -5.3260   22.7270  -31.9610 C   0  0  0  0  0  0  0  0  0  0  0  0
   -3.4379   24.2142  -28.5330 H   0  0  0  0  0  0  0  0  0  0  0  0
   -3.8041   22.8622  -29.6574 H   0  0  0  0  0  0  0  0  0  0  0  0
   -2.1725   23.6134  -29.6574 H   0  0  0  0  0  0  0  0  0  0  0  0
   -7.6785   24.5858  -30.3075 H   0  0  0  0  0  0  0  0  0  0  0  0
   -9.1011   22.6632  -31.0006 H   0  0  0  0  0  0  0  0  0  0  0  0
   -8.1227   20.7833  -32.3080 H   0  0  0  0  0  0  0  0  0  0  0  0
   -7.3940   19.9200  -34.0870 H   0  0  0  0  0  0  0  0  0  0  0  0
   -6.2972   18.4515  -35.6521 H   0  0  0  0  0  0  0  0  0  0  0  0
   -4.7823   18.5443  -34.6820 H   0  0  0  0  0  0  0  0  0  0  0  0
   -6.2625   16.5587  -34.7476 H   0  0  0  0  0  0  0  0  0  0  0  0
   -5.5465   16.1208  -32.0178 H   0  0  0  0  0  0  0  0  0  0  0  0
   -4.9694   17.5569  -31.8595 H   0  0  0  0  0  0  0  0  0  0  0  0
   -8.0412   16.7605  -32.4915 H   0  0  0  0  0  0  0  0  0  0  0  0
   -7.8976   18.3079  -32.4156 H   0  0  0  0  0  0  0  0  0  0  0  0
   -4.2622   22.7498  -32.2399 H   0  0  0  0  0  0  0  0  0  0  0  0
  1  2  1  0
  2  3  1  0
  3  4  2  0
  3  5  1  0
  5  6  2  0
  6  7  1  0
  7  8  2  0
  8  9  1  0
  9 10  1  0
 10 11  2  0
 10 12  1  0
 12 13  1  0
 13 14  1  0
 14 15  1  0
 15 16  1  0
  9 17  2  0
 17  5  1  0
 16 14  1  0
  1 18  1  0
  1 19  1  0
  1 20  1  0
  6 21  1  0
  7 22  1  0
  8 23  1  0
 12 24  1  0
 13 25  1  0
 13 26  1  0
 14 27  1  0
 15 28  1  0
 15 29  1  0
 16 30  1  0
 16 31  1  0
 17 32  1  0
M  END
>  <UniqueID>  (35) 
34

>  <SMILES>  (35) 
COC(=O)c1cccc(C(=O)NCC2CC2)c1

>  <Energy>  (35) 
292.731474692507

>  <Genealogy>  (35) 
COC(=O)c1cccc(C(=O)NCC2CC2)c1 (3D coordinates assigned)
COC(=O)c1cccc(C(=O)NCC2CC2)c1 (nonaromatic ring conformer: 292.731474692507 kcal/mol)

>  <smiles>  (35) 
COC(=O)c1cccc(C(=O)NCC2CC2)c1

>  <score_type>  (35) 
oracle

>  <origin>  (35) 
adg

>  <m_score__min__energy>  (35) 
-7.0700000000000003

>  <m_primary>  (35) 
energy

$$$$
35:0
     RDKit          3D

 49 52  0  0  0  0  0  0  0  0999 V2000
   -4.9480   14.5900  -33.1030 C   0  0  0  0  0  0  0  0  0  0  0  0
   -5.9450   15.5410  -33.4630 O   0  0  0  0  0  0  0  0  0  0  0  0
   -5.7680   16.9320  -33.4140 C   0  0  0  0  0  0  0  0  0  0  0  0
   -6.8500   17.8260  -33.3220 C   0  0  0  0  0  0  0  0  0  0  0  0
   -6.6350   19.2100  -33.2610 C   0  0  0  0  0  0  0  0  0  0  0  0
   -7.7670   20.0780  -33.1180 N   0  0  0  0  0  0  0  0  0  0  0  0
   -8.1800   20.5600  -31.7950 C   0  0  2  0  0  0  0  0  0  0  0  0
   -9.3640   21.4990  -31.9250 C   0  0  0  0  0  0  0  0  0  0  0  0
   -8.7380   22.8750  -31.9800 C   0  0  0  0  0  0  0  0  0  0  0  0
   -7.5200   22.8140  -31.1590 N   0  0  0  0  0  0  0  0  0  0  0  0
   -6.4690   23.7310  -31.6430 C   0  0  0  0  0  0  0  0  0  0  0  0
   -5.3700   23.8590  -30.6220 C   0  0  0  0  0  0  0  0  0  0  0  0
   -5.6220   24.4400  -29.3690 C   0  0  0  0  0  0  0  0  0  0  0  0
   -4.6030   24.5280  -28.4150 C   0  0  0  0  0  0  0  0  0  0  0  0
   -3.3280   24.0330  -28.7040 C   0  0  0  0  0  0  0  0  0  0  0  0
   -3.0710   23.4460  -29.9460 C   0  0  0  0  0  0  0  0  0  0  0  0
   -4.0880   23.3550  -30.9020 C   0  0  0  0  0  0  0  0  0  0  0  0
   -7.0730   21.4100  -31.1660 C   0  0  0  0  0  0  0  0  0  0  0  0
   -5.3190   19.7190  -33.3380 C   0  0  0  0  0  0  0  0  0  0  0  0
   -5.0740   21.0660  -33.3610 N   0  0  0  0  0  0  0  0  0  0  0  0
   -3.8070   21.5610  -33.4250 C   0  0  0  0  0  0  0  0  0  0  0  0
   -2.7130   20.6970  -33.4830 C   0  0  0  0  0  0  0  0  0  0  0  0
   -2.9270   19.3200  -33.4870 C   0  0  0  0  0  0  0  0  0  0  0  0
   -4.2310   18.8160  -33.4230 C   0  0  0  0  0  0  0  0  0  0  0  0
   -4.4650   17.4340  -33.4550 C   0  0  0  0  0  0  0  0  0  0  0  0
   -4.8810   14.5261  -32.0069 H   0  0  0  0  0  0  0  0  0  0  0  0
   -5.2164   13.6048  -33.5120 H   0  0  0  0  0  0  0  0  0  0  0  0
   -3.9765   14.9046  -33.5120 H   0  0  0  0  0  0  0  0  0  0  0  0
   -7.8776   17.4344  -33.2976 H   0  0  0  0  0  0  0  0  0  0  0  0
   -8.4910   20.0510  -33.8720 H   0  0  0  0  0  0  0  0  0  0  0  0
   -8.4151   19.6720  -31.1898 H   0  0  0  0  0  0  0  0  0  0  0  0
   -9.9292   21.2899  -32.8452 H   0  0  0  0  0  0  0  0  0  0  0  0
  -10.0801   21.3933  -31.0967 H   0  0  0  0  0  0  0  0  0  0  0  0
   -8.4837   23.1353  -33.0181 H   0  0  0  0  0  0  0  0  0  0  0  0
   -9.4316   23.6422  -31.6054 H   0  0  0  0  0  0  0  0  0  0  0  0
   -6.0485   23.3373  -32.5801 H   0  0  0  0  0  0  0  0  0  0  0  0
   -6.9132   24.7227  -31.8139 H   0  0  0  0  0  0  0  0  0  0  0  0
   -6.6249   24.8276  -29.1366 H   0  0  0  0  0  0  0  0  0  0  0  0
   -4.8051   24.9873  -27.4361 H   0  0  0  0  0  0  0  0  0  0  0  0
   -2.5269   24.1055  -27.9537 H   0  0  0  0  0  0  0  0  0  0  0  0
   -2.0679   23.0551  -30.1720 H   0  0  0  0  0  0  0  0  0  0  0  0
   -3.8838   22.8873  -31.8765 H   0  0  0  0  0  0  0  0  0  0  0  0
   -6.1498   21.3158  -31.7567 H   0  0  0  0  0  0  0  0  0  0  0  0
   -6.8693   21.0705  -30.1397 H   0  0  0  0  0  0  0  0  0  0  0  0
   -5.8570   21.7550  -33.3470 H   0  0  0  0  0  0  0  0  0  0  0  0
   -3.6450   22.6490  -33.4310 H   0  0  0  0  0  0  0  0  0  0  0  0
   -1.6901   21.0994  -33.5252 H   0  0  0  0  0  0  0  0  0  0  0  0
   -2.0720   18.6300  -33.5404 H   0  0  0  0  0  0  0  0  0  0  0  0
   -3.6147   16.7386  -33.5129 H   0  0  0  0  0  0  0  0  0  0  0  0
  1  2  1  0
  2  3  1  0
  3  4  2  0
  4  5  1  0
  5  6  1  0
  6  7  1  0
  7  8  1  0
  8  9  1  0
  9 10  1  0
 10 11  1  0
 11 12  1  0
 12 13  2  0
 13 14  1  0
 14 15  2  0
 15 16  1  0
 16 17  2  0
 10 18  1  0
  5 19  2  0
 19 20  1  0
 20 21  2  0
 21 22  1  0
 22 23  2  0
 23 24  1  0
 24 25  2  0
 25  3  1  0
 18  7  1  0
 24 19  1  0
 17 12  1  0
  1 26  1  0
  1 27  1  0
  1 28  1  0
  4 29  1  0
  6 30  1  0
  7 31  1  1
  8 32  1  0
  8 33  1  0
  9 34  1  0
  9 35  1  0
 11 36  1  0
 11 37  1  0
 13 38  1  0
 14 39  1  0
 15 40  1  0
 16 41  1  0
 17 42  1  0
 18 43  1  0
 18 44  1  0
 20 45  1  0
 21 46  1  0
 22 47  1  0
 23 48  1  0
 25 49  1  0
M  CHG  1  20   1
M  END
>  <UniqueID>  (36) 
35

>  <SMILES>  (36) 
COc1cc(N[C@@H]2CCN(Cc3ccccc3)C2)c2[nH+]cccc2c1

>  <Energy>  (36) 
62.60665972370841

>  <Genealogy>  (36) 
COc1cc(NC2CCN(Cc3ccccc3)C2)c2[nH+]cccc2c1 (protonated)
COc1cc(N[C@@H]2CCN(Cc3ccccc3)C2)c2[nH+]cccc2c1 (chirality)
COc1cc(N[C@@H]2CCN(Cc3ccccc3)C2)c2[nH+]cccc2c1 (3D coordinates assigned)
COc1cc(N[C@@H]2CCN(Cc3ccccc3)C2)c2[nH+]cccc2c1 (nonaromatic ring conformer: 62.60665972370841 kcal/mol)

>  <smiles>  (36) 
COc1cc(NC2CCN(Cc3ccccc3)C2)c2ncccc2c1

>  <score_type>  (36) 
oracle

>  <origin>  (36) 
adg

>  <m_score__min__energy>  (36) 
-8.4800000000000004

>  <m_primary>  (36) 
energy

$$$$
36:0
     RDKit          3D

 59 62  0  0  0  0  0  0  0  0999 V2000
   -0.5200   17.0110  -35.2260 C   0  0  0  0  0  0  0  0  0  0  0  0
   -0.3650   18.4040  -34.9750 O   0  0  0  0  0  0  0  0  0  0  0  0
   -1.3120   19.1600  -34.2750 C   0  0  0  0  0  0  0  0  0  0  0  0
   -2.3910   18.5500  -33.7080 N   0  0  0  0  0  0  0  0  0  0  0  0
   -3.3350   19.2400  -33.0200 C   0  0  0  0  0  0  0  0  0  0  0  0
   -3.2350   20.6350  -32.8830 C   0  0  0  0  0  0  0  0  0  0  0  0
   -4.2380   21.3800  -32.1590 N   0  0  0  0  0  0  0  0  0  0  0  0
   -5.6570   21.2400  -32.5470 C   0  0  0  0  0  0  0  0  0  0  0  0
   -6.6110   21.7240  -31.4500 C   0  0  0  0  0  0  0  0  0  0  0  0
   -6.1880   23.0760  -30.9690 C   0  0  0  0  0  0  0  0  0  0  0  0
   -7.1110   24.0370  -30.7030 N   0  0  0  0  0  0  0  0  0  0  0  0
   -6.7310   25.2610  -30.2540 C   0  0  0  0  0  0  0  0  0  0  0  0
   -5.4160   25.5360  -30.0530 N   0  0  0  0  0  0  0  0  0  0  0  0
   -4.4590   24.6000  -30.2960 C   0  0  0  0  0  0  0  0  0  0  0  0
   -3.1190   24.9110  -30.0650 O   0  0  0  0  0  0  0  0  0  0  0  0
   -2.4850   24.5620  -28.8380 C   0  0  0  0  0  0  0  0  0  0  0  0
   -1.4400   23.5160  -29.0240 C   0  0  0  0  0  0  0  0  0  0  0  0
   -2.1520   22.4490  -28.2880 N   0  0  0  0  0  0  0  0  0  0  0  0
   -1.9800   21.0860  -27.8850 C   0  0  0  0  0  0  0  0  0  0  0  0
   -2.8160   20.5960  -27.0760 O   0  0  0  0  0  0  0  0  0  0  0  0
   -0.8680   20.2100  -28.4580 C   0  0  0  0  0  0  0  0  0  0  0  0
   -1.0130   20.0770  -29.9880 C   0  0  0  0  0  0  0  0  0  0  0  0
    0.5170   20.8310  -28.1550 C   0  0  0  0  0  0  0  0  0  0  0  0
   -0.9330   18.8170  -27.8050 C   0  0  0  0  0  0  0  0  0  0  0  0
   -3.1930   23.4750  -28.0970 C   0  0  0  0  0  0  0  0  0  0  0  0
   -4.8290   23.3340  -30.7720 C   0  0  0  0  0  0  0  0  0  0  0  0
   -3.8240   22.2380  -31.0310 C   0  0  0  0  0  0  0  0  0  0  0  0
   -2.1320   21.2830  -33.4610 C   0  0  0  0  0  0  0  0  0  0  0  0
   -1.1530   20.5530  -34.1580 C   0  0  0  0  0  0  0  0  0  0  0  0
    0.0450   21.2340  -34.7770 C   0  0  0  0  0  0  0  0  0  0  0  0
    1.1370   21.0980  -33.9390 F   0  0  0  0  0  0  0  0  0  0  0  0
   -0.1820   22.5840  -34.9840 F   0  0  0  0  0  0  0  0  0  0  0  0
    0.3340   20.6470  -35.9960 F   0  0  0  0  0  0  0  0  0  0  0  0
   -0.5801   16.4706  -34.2698 H   0  0  0  0  0  0  0  0  0  0  0  0
   -1.4424   16.8425  -35.8011 H   0  0  0  0  0  0  0  0  0  0  0  0
    0.3428   16.6438  -35.8011 H   0  0  0  0  0  0  0  0  0  0  0  0
   -4.1828   18.7049  -32.5672 H   0  0  0  0  0  0  0  0  0  0  0  0
   -5.8349   21.8321  -33.4568 H   0  0  0  0  0  0  0  0  0  0  0  0
   -5.8551   20.1715  -32.7175 H   0  0  0  0  0  0  0  0  0  0  0  0
   -7.6321   21.7836  -31.8546 H   0  0  0  0  0  0  0  0  0  0  0  0
   -6.5857   21.0156  -30.6089 H   0  0  0  0  0  0  0  0  0  0  0  0
   -7.4898   26.0315  -30.0526 H   0  0  0  0  0  0  0  0  0  0  0  0
   -2.3008   25.5641  -28.4233 H   0  0  0  0  0  0  0  0  0  0  0  0
   -1.2749   23.2643  -30.0820 H   0  0  0  0  0  0  0  0  0  0  0  0
   -0.4212   23.7610  -28.6892 H   0  0  0  0  0  0  0  0  0  0  0  0
   -1.8055   19.3501  -30.2194 H   0  0  0  0  0  0  0  0  0  0  0  0
   -1.2756   21.0549  -30.4178 H   0  0  0  0  0  0  0  0  0  0  0  0
   -0.0613   19.7312  -30.4178 H   0  0  0  0  0  0  0  0  0  0  0  0
    0.6598   20.8950  -27.0662 H   0  0  0  0  0  0  0  0  0  0  0  0
    1.3052   20.2001  -28.5917 H   0  0  0  0  0  0  0  0  0  0  0  0
    0.5703   21.8392  -28.5917 H   0  0  0  0  0  0  0  0  0  0  0  0
   -0.9280   18.9246  -26.7103 H   0  0  0  0  0  0  0  0  0  0  0  0
   -1.8559   18.3075  -28.1191 H   0  0  0  0  0  0  0  0  0  0  0  0
   -0.0616   18.2238  -28.1191 H   0  0  0  0  0  0  0  0  0  0  0  0
   -4.1510   23.1990  -28.5618 H   0  0  0  0  0  0  0  0  0  0  0  0
   -3.4982   23.6914  -27.0626 H   0  0  0  0  0  0  0  0  0  0  0  0
   -2.8510   22.6937  -31.2668 H   0  0  0  0  0  0  0  0  0  0  0  0
   -3.7550   21.6126  -30.1287 H   0  0  0  0  0  0  0  0  0  0  0  0
   -2.0324   22.3745  -33.3676 H   0  0  0  0  0  0  0  0  0  0  0  0
  1  2  1  0
  2  3  1  0
  3  4  2  0
  4  5  1  0
  5  6  2  0
  6  7  1  0
  7  8  1  0
  8  9  1  0
  9 10  1  0
 10 11  2  0
 11 12  1  0
 12 13  2  0
 13 14  1  0
 14 15  1  0
 15 16  1  0
 16 17  1  0
 17 18  1  0
 18 19  1  0
 19 20  2  0
 19 21  1  0
 21 22  1  0
 21 23  1  0
 21 24  1  0
 18 25  1  0
 14 26  2  0
 26 27  1  0
  6 28  1  0
 28 29  2  0
 29 30  1  0
 30 31  1  0
 30 32  1  0
 30 33  1  0
 29  3  1  0
 27  7  1  0
 26 10  1  0
 25 16  1  0
  1 34  1  0
  1 35  1  0
  1 36  1  0
  5 37  1  0
  8 38  1  0
  8 39  1  0
  9 40  1  0
  9 41  1  0
 12 42  1  0
 16 43  1  0
 17 44  1  0
 17 45  1  0
 22 46  1  0
 22 47  1  0
 22 48  1  0
 23 49  1  0
 23 50  1  0
 23 51  1  0
 24 52  1  0
 24 53  1  0
 24 54  1  0
 25 55  1  0
 25 56  1  0
 27 57  1  0
 27 58  1  0
 28 59  1  0
M  END
>  <UniqueID>  (37) 
36

>  <SMILES>  (37) 
COc1ncc(N2CCc3ncnc(OC4CN(C(=O)C(C)(C)C)C4)c3C2)cc1C(F)(F)F

>  <Energy>  (37) 
116.07567654792207

>  <Genealogy>  (37) 
COc1ncc(N2CCc3ncnc(OC4CN(C(=O)C(C)(C)C)C4)c3C2)cc1C(F)(F)F (3D coordinates assigned)
COc1ncc(N2CCc3ncnc(OC4CN(C(=O)C(C)(C)C)C4)c3C2)cc1C(F)(F)F (nonaromatic ring conformer: 116.07567654792207 kcal/mol)

>  <smiles>  (37) 
COc1ncc(N2CCc3ncnc(OC4CN(C(=O)C(C)(C)C)C4)c3C2)cc1C(F)(F)F

>  <score_type>  (37) 
oracle

>  <origin>  (37) 
adg

>  <m_score__min__energy>  (37) 
-9.2899999999999991

>  <m_primary>  (37) 
energy

$$$$
37:0
     RDKit          3D

 45 49  0  0  0  0  0  0  0  0999 V2000
   -1.9870   19.9350  -26.4660 C   0  0  0  0  0  0  0  0  0  0  0  0
   -1.9940   21.2140  -27.0910 O   0  0  0  0  0  0  0  0  0  0  0  0
   -2.3770   21.4610  -28.4190 C   0  0  0  0  0  0  0  0  0  0  0  0
   -1.6930   20.8500  -29.4880 C   0  0  0  0  0  0  0  0  0  0  0  0
   -2.0670   21.0930  -30.8050 C   0  0  0  0  0  0  0  0  0  0  0  0
   -3.1370   21.9420  -31.0890 C   0  0  0  0  0  0  0  0  0  0  0  0
   -3.8300   22.5770  -30.0440 C   0  0  0  0  0  0  0  0  0  0  0  0
   -3.4640   22.3340  -28.6970 C   0  0  0  0  0  0  0  0  0  0  0  0
   -4.2170   22.9680  -27.6880 O   0  0  0  0  0  0  0  0  0  0  0  0
   -3.9480   24.2270  -27.0810 C   0  0  0  0  0  0  0  0  0  0  0  0
   -4.9710   23.4540  -30.4120 C   0  0  0  0  0  0  0  0  0  0  0  0
   -5.4270   24.2910  -29.5850 O   0  0  0  0  0  0  0  0  0  0  0  0
   -5.5680   23.3410  -31.7230 N   0  0  0  0  0  0  0  0  0  0  0  0
   -6.9970   23.6080  -31.8730 C   0  0  0  0  0  0  0  0  0  0  0  0
   -7.7660   22.3320  -31.5270 C   0  0  0  0  0  0  0  0  0  0  0  0
   -7.1300   21.0880  -32.1190 C   0  0  0  0  0  0  0  0  0  0  0  0
   -7.8750   19.8900  -32.0970 C   0  0  0  0  0  0  0  0  0  0  0  0
   -7.2980   18.7450  -32.6280 C   0  0  0  0  0  0  0  0  0  0  0  0
   -6.0540   18.7490  -33.1590 C   0  0  0  0  0  0  0  0  0  0  0  0
   -5.2700   19.8950  -33.1990 C   0  0  0  0  0  0  0  0  0  0  0  0
   -5.7870   21.0880  -32.6350 C   0  0  0  0  0  0  0  0  0  0  0  0
   -5.0100   22.4000  -32.7070 C   0  0  2  0  0  0  0  0  0  0  0  0
   -3.4830   22.2750  -32.5150 C   0  0  0  0  0  0  0  0  0  0  0  0
   -5.7490   17.4840  -33.6250 O   0  0  0  0  0  0  0  0  0  0  0  0
   -6.8710   16.6320  -33.3620 C   0  0  0  0  0  0  0  0  0  0  0  0
   -7.8390   17.4770  -32.7250 O   0  0  0  0  0  0  0  0  0  0  0  0
   -1.9877   20.0609  -25.3732 H   0  0  0  0  0  0  0  0  0  0  0  0
   -2.8821   19.3730  -26.7709 H   0  0  0  0  0  0  0  0  0  0  0  0
   -1.0858   19.3828  -26.7709 H   0  0  0  0  0  0  0  0  0  0  0  0
   -0.8524   20.1721  -29.2784 H   0  0  0  0  0  0  0  0  0  0  0  0
   -1.5162   20.6132  -31.6274 H   0  0  0  0  0  0  0  0  0  0  0  0
   -3.9711   24.1188  -25.9866 H   0  0  0  0  0  0  0  0  0  0  0  0
   -2.9542   24.5799  -27.3937 H   0  0  0  0  0  0  0  0  0  0  0  0
   -4.7108   24.9553  -27.3937 H   0  0  0  0  0  0  0  0  0  0  0  0
   -7.2969   24.4185  -31.1924 H   0  0  0  0  0  0  0  0  0  0  0  0
   -7.2177   23.9136  -32.9064 H   0  0  0  0  0  0  0  0  0  0  0  0
   -7.7967   22.2251  -30.4326 H   0  0  0  0  0  0  0  0  0  0  0  0
   -8.7753   22.4254  -31.9543 H   0  0  0  0  0  0  0  0  0  0  0  0
   -8.8882   19.8642  -31.6695 H   0  0  0  0  0  0  0  0  0  0  0  0
   -4.2705   19.8770  -33.6580 H   0  0  0  0  0  0  0  0  0  0  0  0
   -5.1333   22.7685  -33.7361 H   0  0  0  0  0  0  0  0  0  0  0  0
   -3.1033   21.4781  -33.1714 H   0  0  0  0  0  0  0  0  0  0  0  0
   -3.0209   23.2406  -32.7681 H   0  0  0  0  0  0  0  0  0  0  0  0
   -7.2735   16.2224  -34.3002 H   0  0  0  0  0  0  0  0  0  0  0  0
   -6.5974   15.7715  -32.7338 H   0  0  0  0  0  0  0  0  0  0  0  0
  1  2  1  0
  2  3  1  0
  3  4  2  0
  4  5  1  0
  5  6  2  0
  6  7  1  0
  7  8  2  0
  8  9  1  0
  9 10  1  0
  7 11  1  0
 11 12  2  0
 11 13  1  0
 13 14  1  0
 14 15  1  0
 15 16  1  0
 16 17  2  0
 17 18  1  0
 18 19  2  0
 19 20  1  0
 20 21  2  0
 21 22  1  0
 22 23  1  0
 19 24  1  0
 24 25  1  0
 25 26  1  0
  8  3  1  0
 22 13  1  0
 23  6  1  0
 21 16  1  0
 26 18  1  0
  1 27  1  0
  1 28  1  0
  1 29  1  0
  4 30  1  0
  5 31  1  0
 10 32  1  0
 10 33  1  0
 10 34  1  0
 14 35  1  0
 14 36  1  0
 15 37  1  0
 15 38  1  0
 17 39  1  0
 20 40  1  0
 22 41  1  6
 23 42  1  0
 23 43  1  0
 25 44  1  0
 25 45  1  0
M  END
>  <UniqueID>  (38) 
37

>  <SMILES>  (38) 
COc1ccc2c(c1OC)C(=O)N1CCc3cc4c(cc3[C@@H]1C2)OCO4

>  <Energy>  (38) 
91.67644640699343

>  <Genealogy>  (38) 
COc1ccc2c(c1OC)C(=O)N1CCc3cc4c(cc3[C@@H]1C2)OCO4 (chirality)
COc1ccc2c(c1OC)C(=O)N1CCc3cc4c(cc3[C@@H]1C2)OCO4 (3D coordinates assigned)
COc1ccc2c(c1OC)C(=O)N1CCc3cc4c(cc3[C@@H]1C2)OCO4 (nonaromatic ring conformer: 91.67644640699343 kcal/mol)

>  <smiles>  (38) 
COc1ccc2c(c1OC)C(=O)N1CCc3cc4c(cc3C1C2)OCO4

>  <score_type>  (38) 
oracle

>  <origin>  (38) 
adg

>  <m_score__min__energy>  (38) 
-7.1200000000000001

>  <m_primary>  (38) 
energy

$$$$
38:0
     RDKit          3D

 22 23  0  0  0  0  0  0  0  0999 V2000
   -4.6405   17.3057  -32.0669 H   0  0  0  0  0  0  0  0  0  0  0  0
   -5.4240   18.0050  -32.3940 C   0  0  0  0  0  0  0  0  0  0  0  0
   -6.9780   18.1130  -31.7600 S   0  0  0  0  0  0  0  0  0  0  0  0
   -7.5110   19.3490  -32.7720 C   0  0  0  0  0  0  0  0  0  0  0  0
   -8.8320   20.0070  -32.7200 C   0  0  0  0  0  0  0  0  0  0  0  0
   -9.8530   19.3660  -33.0820 O   0  0  0  0  0  0  0  0  0  0  0  0
   -8.9790   21.3810  -32.3360 N   0  0  0  0  0  0  0  0  0  0  0  0
   -8.1390   22.0470  -31.6030 C   0  0  0  0  0  0  0  0  0  0  0  0
   -8.0960   21.9910  -30.2530 N   0  0  0  0  0  0  0  0  0  0  0  0
   -7.1700   22.7920  -29.7310 N   0  0  0  0  0  0  0  0  0  0  0  0
   -6.4860   23.4890  -30.6650 C   0  0  0  0  0  0  0  0  0  0  0  0
   -5.2010   24.6190  -30.2850 S   0  0  0  0  0  0  0  0  0  0  0  0
   -3.9340   24.1850  -30.9670 O   0  0  0  0  0  0  0  0  0  0  0  0
   -5.5790   25.9880  -30.7760 O   0  0  0  0  0  0  0  0  0  0  0  0
   -4.9550   24.6730  -28.5750 N   0  0  0  0  0  0  0  0  0  0  0  0
   -5.0580   25.6720  -28.2840 H   0  0  0  0  0  0  0  0  0  0  0  0
   -5.7440   24.1480  -28.1350 H   0  0  0  0  0  0  0  0  0  0  0  0
   -7.0140   23.1320  -32.2250 S   0  0  0  0  0  0  0  0  0  0  0  0
   -6.4620   19.7080  -33.6100 C   0  0  0  0  0  0  0  0  0  0  0  0
   -6.5358   20.5071  -34.3623 H   0  0  0  0  0  0  0  0  0  0  0  0
   -5.3020   18.9520  -33.4020 C   0  0  0  0  0  0  0  0  0  0  0  0
   -4.3793   19.0951  -33.9835 H   0  0  0  0  0  0  0  0  0  0  0  0
  1  2  1  0
  2  3  1  0
  3  4  1  0
  4  5  1  0
  5  6  2  0
  5  7  1  0
  7  8  2  0
  8  9  1  0
  9 10  1  0
 10 11  2  0
 11 12  1  0
 12 13  2  0
 12 14  2  0
 12 15  1  0
 15 16  1  0
 15 17  1  0
 11 18  1  0
  4 19  2  0
 19 20  1  0
 19 21  1  0
 21 22  1  0
 21  2  2  0
 18  8  1  0
M  CHG  1   9  -1
M  END
>  <UniqueID>  (39) 
38

>  <SMILES>  (39) 
NS(=O)(=O)c1n[n-]/c(=N\C(=O)c2cccs2)s1

>  <Energy>  (39) 
87.29769902506969

>  <Genealogy>  (39) 
NS(=O)(=O)c1n[n-]c(=NC(=O)c2cccs2)s1 (protonated)
NS(=O)(=O)c1n[n-]/c(=N\C(=O)c2cccs2)s1 (cis-trans isomerization)
NS(=O)(=O)c1n[n-]/c(=N\C(=O)c2cccs2)s1 (3D coordinates assigned)
NS(=O)(=O)c1n[n-]/c(=N\C(=O)c2cccs2)s1 (optimized conformer: 87.29769902506969 kcal/mol)

>  <smiles>  (39) 
NS(=O)(=O)c1n[nH]c(=NC(=O)c2cccs2)s1

>  <score_type>  (39) 
oracle

>  <origin>  (39) 
adg

>  <m_score__min__energy>  (39) 
-8.0700000000000003

>  <m_primary>  (39) 
energy

$$$$
39:0
     RDKit          3D

 58 60  0  0  0  0  0  0  0  0999 V2000
   -2.3460   24.1650  -29.3380 C   0  0  0  0  0  0  0  0  0  0  0  0
   -3.1840   24.6320  -30.3900 O   0  0  0  0  0  0  0  0  0  0  0  0
   -4.5710   24.4200  -30.4600 C   0  0  0  0  0  0  0  0  0  0  0  0
   -5.4900   25.3650  -29.9590 C   0  0  0  0  0  0  0  0  0  0  0  0
   -6.8640   25.1460  -30.0710 C   0  0  0  0  0  0  0  0  0  0  0  0
   -7.3410   23.9870  -30.6820 C   0  0  0  0  0  0  0  0  0  0  0  0
   -6.4450   23.0390  -31.1780 C   0  0  0  0  0  0  0  0  0  0  0  0
   -5.0570   23.2390  -31.0670 C   0  0  0  0  0  0  0  0  0  0  0  0
   -4.1280   22.2090  -31.5900 C   0  0  0  0  0  0  0  0  0  0  0  0
   -3.4780   21.3210  -30.7150 C   0  0  0  0  0  0  0  0  0  0  0  0
   -2.6110   20.3450  -31.2120 C   0  0  0  0  0  0  0  0  0  0  0  0
   -2.3720   20.2450  -32.5920 C   0  0  0  0  0  0  0  0  0  0  0  0
   -1.4680   19.1700  -33.1280 C   0  0  0  0  0  0  0  0  0  0  0  0
   -2.1010   18.5360  -34.2920 N   0  0  0  0  0  0  0  0  0  0  0  0
   -2.6070   17.1880  -33.9880 C   0  0  0  0  0  0  0  0  0  0  0  0
   -3.6530   16.7070  -35.0110 C   0  0  0  0  0  0  0  0  0  0  0  0
   -4.9980   17.4570  -34.9070 C   0  0  0  0  0  0  0  0  0  0  0  0
   -5.0820   18.3520  -33.7170 N   0  0  0  0  0  0  0  0  0  0  0  0
   -5.6690   17.6210  -32.5650 C   0  0  0  0  0  0  0  0  0  0  0  0
   -6.1480   18.5870  -31.4720 C   0  0  0  0  0  0  0  0  0  0  0  0
   -7.1980   19.5160  -31.9600 N   0  0  0  0  0  0  0  0  0  0  0  0
   -8.5270   19.1360  -31.4570 C   0  0  0  0  0  0  0  0  0  0  0  0
   -7.2280   19.6510  -33.4330 C   0  0  0  0  0  0  0  0  0  0  0  0
   -5.8090   19.6230  -34.0200 C   0  0  0  0  0  0  0  0  0  0  0  0
   -3.0380   21.1140  -33.4690 C   0  0  0  0  0  0  0  0  0  0  0  0
   -3.9060   22.0900  -32.9720 C   0  0  0  0  0  0  0  0  0  0  0  0
   -2.7996   24.4178  -28.3683 H   0  0  0  0  0  0  0  0  0  0  0  0
   -2.2327   23.0737  -29.4165 H   0  0  0  0  0  0  0  0  0  0  0  0
   -1.3583   24.6428  -29.4165 H   0  0  0  0  0  0  0  0  0  0  0  0
   -5.1212   26.2820  -29.4761 H   0  0  0  0  0  0  0  0  0  0  0  0
   -7.5721   25.8895  -29.6763 H   0  0  0  0  0  0  0  0  0  0  0  0
   -8.4244   23.8198  -30.7731 H   0  0  0  0  0  0  0  0  0  0  0  0
   -6.8275   22.1272  -31.6601 H   0  0  0  0  0  0  0  0  0  0  0  0
   -3.6534   21.3953  -29.6316 H   0  0  0  0  0  0  0  0  0  0  0  0
   -2.1130   19.6512  -30.5187 H   0  0  0  0  0  0  0  0  0  0  0  0
   -0.5078   19.6143  -33.4290 H   0  0  0  0  0  0  0  0  0  0  0  0
   -1.2928   18.4144  -32.3480 H   0  0  0  0  0  0  0  0  0  0  0  0
   -1.4060   18.4810  -35.0730 H   0  0  0  0  0  0  0  0  0  0  0  0
   -1.7613   16.4846  -33.9907 H   0  0  0  0  0  0  0  0  0  0  0  0
   -3.0958   17.2283  -33.0034 H   0  0  0  0  0  0  0  0  0  0  0  0
   -3.2470   16.8567  -36.0223 H   0  0  0  0  0  0  0  0  0  0  0  0
   -3.8537   15.6467  -34.7979 H   0  0  0  0  0  0  0  0  0  0  0  0
   -5.1289   18.0670  -35.8130 H   0  0  0  0  0  0  0  0  0  0  0  0
   -5.7876   16.6984  -34.8014 H   0  0  0  0  0  0  0  0  0  0  0  0
   -4.1090   18.6140  -33.4270 H   0  0  0  0  0  0  0  0  0  0  0  0
   -6.5250   17.0267  -32.9172 H   0  0  0  0  0  0  0  0  0  0  0  0
   -4.8920   16.9714  -32.1358 H   0  0  0  0  0  0  0  0  0  0  0  0
   -6.5560   18.0003  -30.6357 H   0  0  0  0  0  0  0  0  0  0  0  0
   -5.2850   19.1915  -31.1562 H   0  0  0  0  0  0  0  0  0  0  0  0
   -8.5173   19.1388  -30.3570 H   0  0  0  0  0  0  0  0  0  0  0  0
   -9.2757   19.8561  -31.8189 H   0  0  0  0  0  0  0  0  0  0  0  0
   -8.7819   18.1290  -31.8189 H   0  0  0  0  0  0  0  0  0  0  0  0
   -7.8091   18.8194  -33.8582 H   0  0  0  0  0  0  0  0  0  0  0  0
   -7.6917   20.6159  -33.6860 H   0  0  0  0  0  0  0  0  0  0  0  0
   -5.8780   19.7368  -35.1119 H   0  0  0  0  0  0  0  0  0  0  0  0
   -5.2434   20.4462  -33.5591 H   0  0  0  0  0  0  0  0  0  0  0  0
   -2.8762   21.0267  -34.5535 H   0  0  0  0  0  0  0  0  0  0  0  0
   -4.4191   22.7700  -33.6680 H   0  0  0  0  0  0  0  0  0  0  0  0
  1  2  1  0
  2  3  1  0
  3  4  2  0
  4  5  1  0
  5  6  2  0
  6  7  1  0
  7  8  2  0
  8  9  1  0
  9 10  2  0
 10 11  1  0
 11 12  2  0
 12 13  1  0
 13 14  1  0
 14 15  1  0
 15 16  1  0
 16 17  1  0
 17 18  1  0
 18 19  1  0
 19 20  1  0
 20 21  1  0
 21 22  1  0
 21 23  1  0
 23 24  1  0
 12 25  1  0
 25 26  2  0
  8  3  1  0
 26  9  1  0
 24 18  1  0
  1 27  1  0
  1 28  1  0
  1 29  1  0
  4 30  1  0
  5 31  1  0
  6 32  1  0
  7 33  1  0
 10 34  1  0
 11 35  1  0
 13 36  1  0
 13 37  1  0
 14 38  1  0
 15 39  1  0
 15 40  1  0
 16 41  1  0
 16 42  1  0
 17 43  1  0
 17 44  1  0
 18 45  1  0
 19 46  1  0
 19 47  1  0
 20 48  1  0
 20 49  1  0
 22 50  1  0
 22 51  1  0
 22 52  1  0
 23 53  1  0
 23 54  1  0
 24 55  1  0
 24 56  1  0
 25 57  1  0
 26 58  1  0
M  CHG  1  18   1
M  END
>  <UniqueID>  (40) 
39

>  <SMILES>  (40) 
COc1ccccc1-c1ccc(CNCCC[NH+]2CCN(C)CC2)cc1

>  <Energy>  (40) 
77.34766220266367

>  <Genealogy>  (40) 
COc1ccccc1-c1ccc(CNCCC[NH+]2CCN(C)CC2)cc1 (protonated)
COc1ccccc1-c1ccc(CNCCC[NH+]2CCN(C)CC2)cc1 (3D coordinates assigned)
COc1ccccc1-c1ccc(CNCCC[NH+]2CCN(C)CC2)cc1 (nonaromatic ring conformer: 77.34766220266367 kcal/mol)

>  <smiles>  (40) 
COc1ccccc1-c1ccc(CNCCCN2CCN(C)CC2)cc1

>  <score_type>  (40) 
oracle

>  <origin>  (40) 
adg

>  <m_score__min__energy>  (40) 
-8.1300000000000008

>  <m_primary>  (40) 
energy

$$$$
40:0
     RDKit          3D

 25 26  0  0  0  0  0  0  0  0999 V2000
   -9.4865   18.3554  -31.6168 H   0  0  0  0  0  0  0  0  0  0  0  0
   -8.7210   19.1060  -31.8630 C   0  0  0  0  0  0  0  0  0  0  0  0
   -7.7370   18.8110  -32.8260 C   0  0  0  0  0  0  0  0  0  0  0  0
   -7.7397   17.8305  -33.3246 H   0  0  0  0  0  0  0  0  0  0  0  0
   -6.7440   19.7640  -33.1590 C   0  0  0  0  0  0  0  0  0  0  0  0
   -5.7440   19.5120  -34.1110 O   0  0  0  0  0  0  0  0  0  0  0  0
   -5.4670   18.2290  -34.6630 C   0  0  0  0  0  0  0  0  0  0  0  0
   -5.3108   17.5056  -33.8491 H   0  0  0  0  0  0  0  0  0  0  0  0
   -6.3160   17.9056  -35.2831 H   0  0  0  0  0  0  0  0  0  0  0  0
   -4.5602   18.2847  -35.2831 H   0  0  0  0  0  0  0  0  0  0  0  0
   -6.7740   21.0030  -32.5040 C   0  0  0  0  0  0  0  0  0  0  0  0
   -7.7500   21.2750  -31.5560 C   0  0  0  0  0  0  0  0  0  0  0  0
   -7.5160   22.8190  -30.9420 S   0  0  0  0  0  0  0  0  0  0  0  0
   -6.1700   23.0890  -31.9280 C   0  0  0  0  0  0  0  0  0  0  0  0
   -5.4860   24.1970  -31.8900 N   0  0  0  0  0  0  0  0  0  0  0  0
   -5.0620   24.9410  -30.7390 C   0  0  0  0  0  0  0  0  0  0  0  0
   -3.8620   25.2980  -30.5920 O   0  0  0  0  0  0  0  0  0  0  0  0
   -6.0860   25.4090  -29.7600 C   0  0  0  0  0  0  0  0  0  0  0  0
   -5.7187   25.2411  -28.7368 H   0  0  0  0  0  0  0  0  0  0  0  0
   -6.2738   26.4823  -29.9107 H   0  0  0  0  0  0  0  0  0  0  0  0
   -7.0205   24.8486  -29.9107 H   0  0  0  0  0  0  0  0  0  0  0  0
   -5.8860   22.0140  -32.7120 N   0  0  0  0  0  0  0  0  0  0  0  0
   -5.0810   21.9300  -33.3670 H   0  0  0  0  0  0  0  0  0  0  0  0
   -8.7320   20.3490  -31.2160 C   0  0  0  0  0  0  0  0  0  0  0  0
   -9.4954   20.5863  -30.4605 H   0  0  0  0  0  0  0  0  0  0  0  0
  1  2  1  0
  2  3  2  0
  3  4  1  0
  3  5  1  0
  5  6  1  0
  6  7  1  0
  7  8  1  0
  7  9  1  0
  7 10  1  0
  5 11  2  0
 11 12  1  0
 12 13  1  0
 13 14  1  0
 14 15  2  0
 15 16  1  0
 16 17  2  0
 16 18  1  0
 18 19  1  0
 18 20  1  0
 18 21  1  0
 14 22  1  0
 22 23  1  0
 12 24  2  0
 24 25  1  0
 24  2  1  0
 22 11  1  0
M  END
>  <UniqueID>  (41) 
40

>  <SMILES>  (41) 
COc1cccc2s/c(=N/C(C)=O)[nH]c12

>  <Energy>  (41) 
62.43768962633413

>  <Genealogy>  (41) 
COc1cccc2s/c(=N/C(C)=O)[nH]c12 (cis-trans isomerization)
COc1cccc2s/c(=N/C(C)=O)[nH]c12 (3D coordinates assigned)
COc1cccc2s/c(=N/C(C)=O)[nH]c12 (optimized conformer: 62.43768962633413 kcal/mol)

>  <smiles>  (41) 
COc1cccc2sc(=NC(C)=O)[nH]c12

>  <score_type>  (41) 
oracle

>  <origin>  (41) 
adg

>  <m_score__min__energy>  (41) 
-7.2800000000000002

>  <m_primary>  (41) 
energy

$$$$
41:0
     RDKit          3D

 40 42  0  0  0  0  0  0  0  0999 V2000
   -5.5320   25.0480  -29.2800 O   0  0  0  0  0  0  0  0  0  0  0  0
   -5.0310   24.6690  -30.3720 C   0  0  0  0  0  0  0  0  0  0  0  0
   -3.8610   25.2700  -30.8200 O   0  0  0  0  0  0  0  0  0  0  0  0
   -5.6760   23.5980  -31.1660 C   0  0  0  0  0  0  0  0  0  0  0  0
   -4.8970   22.6060  -31.7760 C   0  0  0  0  0  0  0  0  0  0  0  0
   -5.5010   21.5870  -32.5140 C   0  0  0  0  0  0  0  0  0  0  0  0
   -6.8980   21.5370  -32.6720 C   0  0  0  0  0  0  0  0  0  0  0  0
   -7.4900   20.4010  -33.3440 N   0  0  0  0  0  0  0  0  0  0  0  0
   -6.6990   19.2190  -33.1000 C   0  0  0  0  0  0  0  0  0  0  0  0
   -5.7710   18.7750  -34.0580 C   0  0  0  0  0  0  0  0  0  0  0  0
   -4.9770   17.6530  -33.8100 C   0  0  0  0  0  0  0  0  0  0  0  0
   -5.0850   16.9620  -32.5980 C   0  0  0  0  0  0  0  0  0  0  0  0
   -4.2740   15.8380  -32.3880 O   0  0  0  0  0  0  0  0  0  0  0  0
   -4.7190   14.5080  -32.3610 C   0  0  0  0  0  0  0  0  0  0  0  0
   -5.2770   13.9630  -33.5240 C   0  0  0  0  0  0  0  0  0  0  0  0
   -5.7160   12.6350  -33.5400 C   0  0  0  0  0  0  0  0  0  0  0  0
   -5.5890   11.8400  -32.3970 C   0  0  0  0  0  0  0  0  0  0  0  0
   -5.0170   12.3700  -31.2380 C   0  0  0  0  0  0  0  0  0  0  0  0
   -4.5760   13.6970  -31.2180 C   0  0  0  0  0  0  0  0  0  0  0  0
   -6.0340   17.3820  -31.6490 C   0  0  0  0  0  0  0  0  0  0  0  0
   -6.8300   18.5040  -31.8960 C   0  0  0  0  0  0  0  0  0  0  0  0
   -7.6910   22.5520  -32.0720 C   0  0  0  0  0  0  0  0  0  0  0  0
   -9.1180   22.5720  -32.2070 N   0  0  0  0  0  0  0  0  0  0  0  0
   -9.7180   23.6570  -32.3450 O   0  0  0  0  0  0  0  0  0  0  0  0
   -9.8480   21.4510  -31.8820 O   0  0  0  0  0  0  0  0  0  0  0  0
   -7.0700   23.5600  -31.3170 C   0  0  0  0  0  0  0  0  0  0  0  0
   -3.8021   22.6305  -31.6726 H   0  0  0  0  0  0  0  0  0  0  0  0
   -4.8752   20.8111  -32.9792 H   0  0  0  0  0  0  0  0  0  0  0  0
   -8.4790   20.2600  -33.0430 H   0  0  0  0  0  0  0  0  0  0  0  0
   -7.5340   20.5700  -34.3760 H   0  0  0  0  0  0  0  0  0  0  0  0
   -5.6693   19.3156  -35.0106 H   0  0  0  0  0  0  0  0  0  0  0  0
   -4.2620   17.3103  -34.5725 H   0  0  0  0  0  0  0  0  0  0  0  0
   -5.3705   14.5818  -34.4287 H   0  0  0  0  0  0  0  0  0  0  0  0
   -6.1621   12.2153  -34.4537 H   0  0  0  0  0  0  0  0  0  0  0  0
   -5.9394   10.7974  -32.4103 H   0  0  0  0  0  0  0  0  0  0  0  0
   -4.9133   11.7430  -30.3402 H   0  0  0  0  0  0  0  0  0  0  0  0
   -4.1163   14.1086  -30.3074 H   0  0  0  0  0  0  0  0  0  0  0  0
   -6.1504   16.8248  -30.7077 H   0  0  0  0  0  0  0  0  0  0  0  0
   -7.5636   18.8299  -31.1439 H   0  0  0  0  0  0  0  0  0  0  0  0
   -7.6872   24.3330  -30.8358 H   0  0  0  0  0  0  0  0  0  0  0  0
  1  2  2  0
  2  3  1  0
  2  4  1  0
  4  5  2  0
  5  6  1  0
  6  7  2  0
  7  8  1  0
  8  9  1  0
  9 10  2  0
 10 11  1  0
 11 12  2  0
 12 13  1  0
 13 14  1  0
 14 15  2  0
 15 16  1  0
 16 17  2  0
 17 18  1  0
 18 19  2  0
 12 20  1  0
 20 21  2  0
  7 22  1  0
 22 23  1  0
 23 24  2  0
 23 25  1  0
 22 26  2  0
 26  4  1  0
 21  9  1  0
 19 14  1  0
  5 27  1  0
  6 28  1  0
  8 29  1  0
  8 30  1  0
 10 31  1  0
 11 32  1  0
 15 33  1  0
 16 34  1  0
 17 35  1  0
 18 36  1  0
 19 37  1  0
 20 38  1  0
 21 39  1  0
 26 40  1  0
M  CHG  4   3  -1   8   1  23   1  25  -1
M  END
>  <UniqueID>  (42) 
41

>  <SMILES>  (42) 
O=C([O-])c1ccc([NH2+]c2ccc(Oc3ccccc3)cc2)c([N+](=O)[O-])c1

>  <Energy>  (42) 
59.00083514514953

>  <Genealogy>  (42) 
O=C([O-])c1ccc([NH2+]c2ccc(Oc3ccccc3)cc2)c([N+](=O)[O-])c1 (protonated)
O=C([O-])c1ccc([NH2+]c2ccc(Oc3ccccc3)cc2)c([N+](=O)[O-])c1 (3D coordinates assigned)
O=C([O-])c1ccc([NH2+]c2ccc(Oc3ccccc3)cc2)c([N+](=O)[O-])c1 (optimized conformer: 59.00083514514953 kcal/mol)

>  <smiles>  (42) 
O=C(O)c1ccc(Nc2ccc(Oc3ccccc3)cc2)c([N+](=O)[O-])c1

>  <score_type>  (42) 
oracle

>  <origin>  (42) 
adg

>  <m_score__min__energy>  (42) 
-9.1600000000000001

>  <m_primary>  (42) 
energy

$$$$
42:0
     RDKit          3D

 64 67  0  0  0  0  0  0  0  0999 V2000
    1.3740   26.1200  -24.2870 C   0  0  0  0  0  0  0  0  0  0  0  0
    0.0630   25.6370  -23.8140 N   0  0  0  0  0  0  0  0  0  0  0  0
   -0.7320   26.7760  -23.3220 C   0  0  0  0  0  0  0  0  0  0  0  0
   -0.6630   24.9050  -24.8930 C   0  0  0  0  0  0  0  0  0  0  0  0
   -1.5350   25.8380  -25.7580 C   0  0  0  0  0  0  0  0  0  0  0  0
   -2.6990   25.0950  -26.4330 C   0  0  0  0  0  0  0  0  0  0  0  0
   -2.2150   24.2370  -27.5380 N   0  0  0  0  0  0  0  0  0  0  0  0
   -2.7670   24.6750  -28.8480 C   0  0  0  0  0  0  0  0  0  0  0  0
   -2.9180   23.5070  -29.8340 C   0  0  0  0  0  0  0  0  0  0  0  0
   -3.8430   22.4650  -29.3220 N   0  0  0  0  0  0  0  0  0  0  0  0
   -5.2260   22.6830  -29.8080 C   0  0  0  0  0  0  0  0  0  0  0  0
   -5.3120   23.8010  -30.8610 C   0  0  0  0  0  0  0  0  0  0  0  0
   -5.7380   23.3850  -32.2980 C   0  0  0  0  0  0  0  0  0  0  0  0
   -5.7300   21.9240  -32.5490 N   0  0  0  0  0  0  0  0  0  0  0  0
   -4.4870   21.2410  -32.9230 C   0  0  0  0  0  0  0  0  0  0  0  0
   -3.2140   21.8260  -32.7180 C   0  0  0  0  0  0  0  0  0  0  0  0
   -2.0420   21.0810  -32.8820 C   0  0  0  0  0  0  0  0  0  0  0  0
   -2.1070   19.7490  -33.2800 C   0  0  0  0  0  0  0  0  0  0  0  0
   -3.3410   19.1760  -33.5780 C   0  0  0  0  0  0  0  0  0  0  0  0
   -4.5160   19.9250  -33.4380 C   0  0  0  0  0  0  0  0  0  0  0  0
   -6.0020   19.2860  -34.1770 S   0  0  0  0  0  0  0  0  0  0  0  0
   -7.0300   19.8100  -32.8230 C   0  0  0  0  0  0  0  0  0  0  0  0
   -8.0640   18.9610  -32.4130 C   0  0  0  0  0  0  0  0  0  0  0  0
   -9.0920   19.4500  -31.6070 C   0  0  0  0  0  0  0  0  0  0  0  0
   -9.1170   20.7990  -31.2630 C   0  0  0  0  0  0  0  0  0  0  0  0
   -8.0740   21.6450  -31.6540 C   0  0  0  0  0  0  0  0  0  0  0  0
   -6.9550   21.1410  -32.3590 C   0  0  0  0  0  0  0  0  0  0  0  0
   -3.7940   22.3220  -27.8440 C   0  0  0  0  0  0  0  0  0  0  0  0
   -2.4590   22.8010  -27.2570 C   0  0  0  0  0  0  0  0  0  0  0  0
    2.0119   26.3550  -23.4223 H   0  0  0  0  0  0  0  0  0  0  0  0
    1.8544   25.3398  -24.8957 H   0  0  0  0  0  0  0  0  0  0  0  0
    1.2334   27.0253  -24.8957 H   0  0  0  0  0  0  0  0  0  0  0  0
    0.2320   25.0110  -22.9900 H   0  0  0  0  0  0  0  0  0  0  0  0
   -0.7316   26.7755  -22.2220 H   0  0  0  0  0  0  0  0  0  0  0  0
   -0.2924   27.7154  -23.6884 H   0  0  0  0  0  0  0  0  0  0  0  0
   -1.7654   26.6873  -23.6884 H   0  0  0  0  0  0  0  0  0  0  0  0
    0.0750   24.4106  -25.5417 H   0  0  0  0  0  0  0  0  0  0  0  0
   -1.3310   24.1763  -24.4106 H   0  0  0  0  0  0  0  0  0  0  0  0
   -1.9470   26.6311  -25.1167 H   0  0  0  0  0  0  0  0  0  0  0  0
   -0.8965   26.2520  -26.5523 H   0  0  0  0  0  0  0  0  0  0  0  0
   -3.2055   24.4665  -25.6857 H   0  0  0  0  0  0  0  0  0  0  0  0
   -3.3946   25.8393  -26.8479 H   0  0  0  0  0  0  0  0  0  0  0  0
   -3.7553   25.1285  -28.6821 H   0  0  0  0  0  0  0  0  0  0  0  0
   -2.0631   25.3979  -29.2862 H   0  0  0  0  0  0  0  0  0  0  0  0
   -3.3105   23.8940  -30.7860 H   0  0  0  0  0  0  0  0  0  0  0  0
   -1.9284   23.0465  -29.9703 H   0  0  0  0  0  0  0  0  0  0  0  0
   -5.5939   21.7480  -30.2556 H   0  0  0  0  0  0  0  0  0  0  0  0
   -5.8384   22.9879  -28.9466 H   0  0  0  0  0  0  0  0  0  0  0  0
   -6.0407   24.5418  -30.5000 H   0  0  0  0  0  0  0  0  0  0  0  0
   -4.2831   24.1760  -30.9649 H   0  0  0  0  0  0  0  0  0  0  0  0
   -6.7581   23.7571  -32.4740 H   0  0  0  0  0  0  0  0  0  0  0  0
   -4.9938   23.8211  -32.9807 H   0  0  0  0  0  0  0  0  0  0  0  0
   -3.1458   22.8840  -32.4249 H   0  0  0  0  0  0  0  0  0  0  0  0
   -1.0645   21.5498  -32.6956 H   0  0  0  0  0  0  0  0  0  0  0  0
   -1.1872   19.1509  -33.3589 H   0  0  0  0  0  0  0  0  0  0  0  0
   -3.3928   18.1331  -33.9240 H   0  0  0  0  0  0  0  0  0  0  0  0
   -8.0661   17.9067  -32.7267 H   0  0  0  0  0  0  0  0  0  0  0  0
   -9.8795   18.7729  -31.2447 H   0  0  0  0  0  0  0  0  0  0  0  0
   -9.9600   21.2008  -30.6817 H   0  0  0  0  0  0  0  0  0  0  0  0
   -8.1241   22.7165  -31.4103 H   0  0  0  0  0  0  0  0  0  0  0  0
   -4.6079   22.9168  -27.4038 H   0  0  0  0  0  0  0  0  0  0  0  0
   -3.9030   21.2538  -27.6052 H   0  0  0  0  0  0  0  0  0  0  0  0
   -2.4746   22.6494  -26.1676 H   0  0  0  0  0  0  0  0  0  0  0  0
   -1.6518   22.2197  -27.7266 H   0  0  0  0  0  0  0  0  0  0  0  0
  1  2  1  0
  2  3  1  0
  2  4  1  0
  4  5  1  0
  5  6  1  0
  6  7  1  0
  7  8  1  0
  8  9  1  0
  9 10  1  0
 10 11  1  0
 11 12  1  0
 12 13  1  0
 13 14  1  0
 14 15  1  0
 15 16  2  0
 16 17  1  0
 17 18  2  0
 18 19  1  0
 19 20  2  0
 20 21  1  0
 21 22  1  0
 22 23  2  0
 23 24  1  0
 24 25  2  0
 25 26  1  0
 26 27  2  0
 10 28  1  0
 28 29  1  0
 29  7  1  0
 27 14  1  0
 20 15  1  0
 27 22  1  0
  1 30  1  0
  1 31  1  0
  1 32  1  0
  2 33  1  0
  3 34  1  0
  3 35  1  0
  3 36  1  0
  4 37  1  0
  4 38  1  0
  5 39  1  0
  5 40  1  0
  6 41  1  0
  6 42  1  0
  8 43  1  0
  8 44  1  0
  9 45  1  0
  9 46  1  0
 11 47  1  0
 11 48  1  0
 12 49  1  0
 12 50  1  0
 13 51  1  0
 13 52  1  0
 16 53  1  0
 17 54  1  0
 18 55  1  0
 19 56  1  0
 23 57  1  0
 24 58  1  0
 25 59  1  0
 26 60  1  0
 28 61  1  0
 28 62  1  0
 29 63  1  0
 29 64  1  0
M  CHG  1   2   1
M  END
>  <UniqueID>  (43) 
42

>  <SMILES>  (43) 
C[NH+](C)CCCN1CCN(CCCN2c3ccccc3Sc3ccccc32)CC1

>  <Energy>  (43) 
104.44735745000065

>  <Genealogy>  (43) 
C[NH+](C)CCCN1CCN(CCCN2c3ccccc3Sc3ccccc32)CC1 (protonated)
C[NH+](C)CCCN1CCN(CCCN2c3ccccc3Sc3ccccc32)CC1 (3D coordinates assigned)
C[NH+](C)CCCN1CCN(CCCN2c3ccccc3Sc3ccccc32)CC1 (nonaromatic ring conformer: 104.44735745000065 kcal/mol)

>  <smiles>  (43) 
CN(C)CCCN1CCN(CCCN2c3ccccc3Sc3ccccc32)CC1

>  <score_type>  (43) 
oracle

>  <origin>  (43) 
adg

>  <m_score__min__energy>  (43) 
-9.8499999999999996

>  <m_primary>  (43) 
energy

$$$$
43:0
     RDKit          3D

 30 31  0  0  0  0  0  0  0  0999 V2000
   -6.1100   17.7850  -34.1920 C   0  0  0  0  0  0  0  0  0  0  0  0
   -6.0630   19.2960  -33.9980 C   0  0  0  0  0  0  0  0  0  0  0  0
   -7.1220   19.7240  -33.0880 N   0  0  0  0  0  0  0  0  0  0  0  0
   -8.2500   18.9070  -32.6710 C   0  0  0  0  0  0  0  0  0  0  0  0
   -9.0320   19.8200  -31.7100 C   0  0  0  0  0  0  0  0  0  0  0  0
   -8.2530   21.0500  -31.6470 N   0  0  0  0  0  0  0  0  0  0  0  0
   -7.2090   20.9590  -32.3970 C   0  0  0  0  0  0  0  0  0  0  0  0
   -6.2620   22.0270  -32.5670 N   0  0  0  0  0  0  0  0  0  0  0  0
   -6.0100   23.0440  -31.5830 C   0  0  0  0  0  0  0  0  0  0  0  0
   -7.0820   23.7920  -31.0720 C   0  0  0  0  0  0  0  0  0  0  0  0
   -6.8550   24.8040  -30.1350 C   0  0  0  0  0  0  0  0  0  0  0  0
   -5.5540   25.0880  -29.7110 C   0  0  0  0  0  0  0  0  0  0  0  0
   -4.4780   24.3650  -30.2310 C   0  0  0  0  0  0  0  0  0  0  0  0
   -4.7000   23.3510  -31.1690 C   0  0  0  0  0  0  0  0  0  0  0  0
   -6.1254   17.2896  -33.2100 H   0  0  0  0  0  0  0  0  0  0  0  0
   -7.0170   17.5154  -34.7530 H   0  0  0  0  0  0  0  0  0  0  0  0
   -5.2215   17.4595  -34.7530 H   0  0  0  0  0  0  0  0  0  0  0  0
   -5.0867   19.5774  -33.5764 H   0  0  0  0  0  0  0  0  0  0  0  0
   -6.2087   19.7862  -34.9719 H   0  0  0  0  0  0  0  0  0  0  0  0
   -8.8700   18.6253  -33.5349 H   0  0  0  0  0  0  0  0  0  0  0  0
   -7.9392   17.9625  -32.2006 H   0  0  0  0  0  0  0  0  0  0  0  0
  -10.0407   20.0200  -32.1005 H   0  0  0  0  0  0  0  0  0  0  0  0
   -9.1650   19.3620  -30.7188 H   0  0  0  0  0  0  0  0  0  0  0  0
   -8.5300   21.8940  -31.0990 H   0  0  0  0  0  0  0  0  0  0  0  0
   -5.7380   22.0820  -33.4680 H   0  0  0  0  0  0  0  0  0  0  0  0
   -8.1069   23.5806  -31.4109 H   0  0  0  0  0  0  0  0  0  0  0  0
   -7.7018   25.3779  -29.7306 H   0  0  0  0  0  0  0  0  0  0  0  0
   -5.3775   25.8802  -28.9685 H   0  0  0  0  0  0  0  0  0  0  0  0
   -3.4535   24.5934  -29.9022 H   0  0  0  0  0  0  0  0  0  0  0  0
   -3.8485   22.7920  -31.5842 H   0  0  0  0  0  0  0  0  0  0  0  0
  1  2  1  0
  2  3  1  0
  3  4  1  0
  4  5  1  0
  5  6  1  0
  6  7  2  0
  7  8  1  0
  8  9  1  0
  9 10  2  0
 10 11  1  0
 11 12  2  0
 12 13  1  0
 13 14  2  0
  7  3  1  0
 14  9  1  0
  1 15  1  0
  1 16  1  0
  1 17  1  0
  2 18  1  0
  2 19  1  0
  4 20  1  0
  4 21  1  0
  5 22  1  0
  5 23  1  0
  6 24  1  0
  8 25  1  0
 10 26  1  0
 11 27  1  0
 12 28  1  0
 13 29  1  0
 14 30  1  0
M  CHG  1   6   1
M  END
>  <UniqueID>  (44) 
43

>  <SMILES>  (44) 
CCN1CC[NH+]=C1Nc1ccccc1

>  <Energy>  (44) 
40.51851766444892

>  <Genealogy>  (44) 
CCN1CC[NH+]=C1Nc1ccccc1 (protonated)
CCN1CC[NH+]=C1Nc1ccccc1 (3D coordinates assigned)
CCN1CC[NH+]=C1Nc1ccccc1 (nonaromatic ring conformer: 40.51851766444892 kcal/mol)

>  <smiles>  (44) 
CCN1CCN=C1Nc1ccccc1

>  <score_type>  (44) 
oracle

>  <origin>  (44) 
adg

>  <m_score__min__energy>  (44) 
-5.2800000000000002

>  <m_primary>  (44) 
energy

$$$$
44:0
     RDKit          3D

 50 54  0  0  0  0  0  0  0  0999 V2000
    1.3900   15.8510  -28.2220 C   0  0  0  0  0  0  0  0  0  0  0  0
    0.9770   17.0390  -28.8900 O   0  0  0  0  0  0  0  0  0  0  0  0
    0.4140   18.1520  -28.2490 C   0  0  0  0  0  0  0  0  0  0  0  0
    0.9970   19.4070  -28.4610 C   0  0  0  0  0  0  0  0  0  0  0  0
    0.4750   20.5470  -27.8450 C   0  0  0  0  0  0  0  0  0  0  0  0
   -0.6440   20.4490  -27.0030 C   0  0  0  0  0  0  0  0  0  0  0  0
   -1.1870   21.6760  -26.3170 C   0  0  0  0  0  0  0  0  0  0  0  0
   -1.7450   22.6220  -27.3090 N   0  0  0  0  0  0  0  0  0  0  0  0
   -2.7170   22.2060  -28.1880 C   0  0  0  0  0  0  0  0  0  0  0  0
   -3.1500   21.0200  -28.1400 O   0  0  0  0  0  0  0  0  0  0  0  0
   -3.2350   23.0840  -29.1630 C   0  0  0  0  0  0  0  0  0  0  0  0
   -4.2840   22.6320  -30.1090 C   0  0  0  0  0  0  0  0  0  0  0  0
   -5.2270   23.4650  -30.4350 N   0  0  0  0  0  0  0  0  0  0  0  0
   -6.5100   23.0730  -31.5180 S   0  0  0  0  0  0  0  0  0  0  0  0
   -7.8190   23.1140  -30.7850 O   0  0  0  0  0  0  0  0  0  0  0  0
   -6.5170   24.0510  -32.6590 O   0  0  0  0  0  0  0  0  0  0  0  0
   -6.2140   21.4660  -32.1200 C   0  0  0  0  0  0  0  0  0  0  0  0
   -7.0640   20.9070  -33.0820 C   0  0  0  0  0  0  0  0  0  0  0  0
   -6.8310   19.6130  -33.5530 C   0  0  0  0  0  0  0  0  0  0  0  0
   -5.7500   18.8760  -33.0620 C   0  0  0  0  0  0  0  0  0  0  0  0
   -4.9020   19.4330  -32.1010 C   0  0  0  0  0  0  0  0  0  0  0  0
   -5.1250   20.7350  -31.6210 C   0  0  0  0  0  0  0  0  0  0  0  0
   -4.2370   21.2850  -30.6290 N   0  0  0  0  0  0  0  0  0  0  0  0
   -2.7510   24.3980  -29.2240 C   0  0  0  0  0  0  0  0  0  0  0  0
   -3.2780   25.2950  -30.1520 O   0  0  0  0  0  0  0  0  0  0  0  0
   -1.7530   24.8150  -28.3360 C   0  0  0  0  0  0  0  0  0  0  0  0
   -1.2340   26.1200  -28.3740 C   0  0  0  0  0  0  0  0  0  0  0  0
   -0.2400   26.5010  -27.4730 C   0  0  0  0  0  0  0  0  0  0  0  0
    0.2280   25.5800  -26.5400 C   0  0  0  0  0  0  0  0  0  0  0  0
   -0.2840   24.3220  -26.5110 N   0  0  0  0  0  0  0  0  0  0  0  0
   -1.2550   23.9060  -27.3750 C   0  0  0  0  0  0  0  0  0  0  0  0
   -1.2310   19.1920  -26.7880 C   0  0  0  0  0  0  0  0  0  0  0  0
   -0.7080   18.0510  -27.4050 C   0  0  0  0  0  0  0  0  0  0  0  0
    1.3366   16.0046  -27.1341 H   0  0  0  0  0  0  0  0  0  0  0  0
    0.7279   15.0205  -28.5080 H   0  0  0  0  0  0  0  0  0  0  0  0
    2.4245   15.6103  -28.5080 H   0  0  0  0  0  0  0  0  0  0  0  0
    1.8742   19.4963  -29.1187 H   0  0  0  0  0  0  0  0  0  0  0  0
    0.9433   21.5267  -28.0207 H   0  0  0  0  0  0  0  0  0  0  0  0
   -1.9803   21.3773  -25.6160 H   0  0  0  0  0  0  0  0  0  0  0  0
   -0.3680   22.1717  -25.7751 H   0  0  0  0  0  0  0  0  0  0  0  0
   -7.9156   21.4872  -33.4669 H   0  0  0  0  0  0  0  0  0  0  0  0
   -7.4979   19.1743  -34.3099 H   0  0  0  0  0  0  0  0  0  0  0  0
   -5.5664   17.8566  -33.4323 H   0  0  0  0  0  0  0  0  0  0  0  0
   -4.0533   18.8478  -31.7172 H   0  0  0  0  0  0  0  0  0  0  0  0
   -3.5010   20.6530  -30.2430 H   0  0  0  0  0  0  0  0  0  0  0  0
   -1.6115   26.8409  -29.1141 H   0  0  0  0  0  0  0  0  0  0  0  0
    0.1709   27.5210  -27.4994 H   0  0  0  0  0  0  0  0  0  0  0  0
    1.0126   25.8709  -25.8260 H   0  0  0  0  0  0  0  0  0  0  0  0
   -2.1080   19.1039  -26.1299 H   0  0  0  0  0  0  0  0  0  0  0  0
   -1.1753   17.0707  -27.2300 H   0  0  0  0  0  0  0  0  0  0  0  0
  1  2  1  0
  2  3  1  0
  3  4  2  0
  4  5  1  0
  5  6  2  0
  6  7  1  0
  7  8  1  0
  8  9  1  0
  9 10  2  0
  9 11  1  0
 11 12  1  0
 12 13  2  0
 13 14  1  0
 14 15  2  0
 14 16  2  0
 14 17  1  0
 17 18  2  0
 18 19  1  0
 19 20  2  0
 20 21  1  0
 21 22  2  0
 22 23  1  0
 11 24  2  0
 24 25  1  0
 24 26  1  0
 26 27  2  0
 27 28  1  0
 28 29  2  0
 29 30  1  0
 30 31  2  0
  6 32  1  0
 32 33  2  0
 33  3  1  0
 31  8  1  0
 23 12  1  0
 31 26  1  0
 22 17  1  0
  1 34  1  0
  1 35  1  0
  1 36  1  0
  4 37  1  0
  5 38  1  0
  7 39  1  0
  7 40  1  0
 18 41  1  0
 19 42  1  0
 20 43  1  0
 21 44  1  0
 23 45  1  0
 27 46  1  0
 28 47  1  0
 29 48  1  0
 32 49  1  0
 33 50  1  0
M  CHG  1  25  -1
M  END
>  <UniqueID>  (45) 
44

>  <SMILES>  (45) 
COc1ccc(Cn2c(=O)c(C3=NS(=O)(=O)c4ccccc4N3)c([O-])c3cccnc32)cc1

>  <Energy>  (45) 
75.83090110930196

>  <Genealogy>  (45) 
COc1ccc(Cn2c(=O)c(C3=NS(=O)(=O)c4ccccc4N3)c([O-])c3cccnc32)cc1 (protonated)
COc1ccc(Cn2c(=O)c(C3=NS(=O)(=O)c4ccccc4N3)c([O-])c3cccnc32)cc1 (3D coordinates assigned)
COc1ccc(Cn2c(=O)c(C3=NS(=O)(=O)c4ccccc4N3)c([O-])c3cccnc32)cc1 (nonaromatic ring conformer: 75.83090110930196 kcal/mol)

>  <smiles>  (45) 
COc1ccc(Cn2c(=O)c(C3=NS(=O)(=O)c4ccccc4N3)c(O)c3cccnc32)cc1

>  <score_type>  (45) 
oracle

>  <origin>  (45) 
adg

>  <m_score__min__energy>  (45) 
-11.48

>  <m_primary>  (45) 
energy

$$$$
45:0
     RDKit          3D

 54 57  0  0  0  0  0  0  0  0999 V2000
   -0.5720   23.6170  -28.9560 C   0  0  0  0  0  0  0  0  0  0  0  0
   -1.0460   25.0050  -28.5400 C   0  0  0  0  0  0  0  0  0  0  0  0
   -2.3580   25.2650  -29.0350 O   0  0  0  0  0  0  0  0  0  0  0  0
   -3.4930   24.5470  -28.6420 C   0  0  0  0  0  0  0  0  0  0  0  0
   -3.4430   23.7720  -27.6470 O   0  0  0  0  0  0  0  0  0  0  0  0
   -4.7580   24.6580  -29.4550 C   0  0  0  0  0  0  0  0  0  0  0  0
   -4.6570   24.1880  -30.8600 N   0  0  0  0  0  0  0  0  0  0  0  0
   -3.4220   23.4230  -31.1630 C   0  0  0  0  0  0  0  0  0  0  0  0
   -3.8250   21.9810  -31.5460 C   0  0  0  0  0  0  0  0  0  0  0  0
   -5.2790   21.9100  -31.1350 C   0  0  1  0  0  0  0  0  0  0  0  0
   -5.7360   23.3280  -31.3600 C   0  0  1  0  0  0  0  0  0  0  0  0
   -7.1810   23.5120  -30.8530 C   0  0  0  0  0  0  0  0  0  0  0  0
   -8.1350   22.5720  -31.6510 C   0  0  0  0  0  0  0  0  0  0  0  0
   -7.4820   21.2490  -32.0100 C   0  0  0  0  0  0  0  0  0  0  0  0
   -8.1380   20.1540  -32.4500 N   0  0  0  0  0  0  0  0  0  0  0  0
   -7.2120   19.2120  -32.5910 N   0  0  0  0  0  0  0  0  0  0  0  0
   -7.5050   17.8180  -32.9070 C   0  0  0  0  0  0  0  0  0  0  0  0
   -6.3290   17.1980  -33.6090 C   0  0  0  0  0  0  0  0  0  0  0  0
   -5.7540   17.8270  -34.7230 C   0  0  0  0  0  0  0  0  0  0  0  0
   -4.6270   17.2780  -35.3420 C   0  0  0  0  0  0  0  0  0  0  0  0
   -4.0500   16.0940  -34.8440 C   0  0  0  0  0  0  0  0  0  0  0  0
   -2.9180   15.5070  -35.4260 O   0  0  0  0  0  0  0  0  0  0  0  0
   -1.5770   15.7840  -35.0340 C   0  0  0  0  0  0  0  0  0  0  0  0
   -4.6210   15.4750  -33.7260 C   0  0  0  0  0  0  0  0  0  0  0  0
   -5.7490   16.0230  -33.1080 C   0  0  0  0  0  0  0  0  0  0  0  0
   -6.0270   19.7320  -32.2170 C   0  0  0  0  0  0  0  0  0  0  0  0
   -4.9570   19.0750  -32.1190 O   0  0  0  0  0  0  0  0  0  0  0  0
   -6.1530   21.0290  -31.8970 N   0  0  0  0  0  0  0  0  0  0  0  0
   -0.3665   23.0154  -28.0583 H   0  0  0  0  0  0  0  0  0  0  0  0
   -1.3537   23.1268  -29.5549 H   0  0  0  0  0  0  0  0  0  0  0  0
    0.3462   23.7073  -29.5549 H   0  0  0  0  0  0  0  0  0  0  0  0
   -1.0565   25.0677  -27.4418 H   0  0  0  0  0  0  0  0  0  0  0  0
   -0.3573   25.7521  -28.9612 H   0  0  0  0  0  0  0  0  0  0  0  0
   -5.5364   24.0640  -28.9538 H   0  0  0  0  0  0  0  0  0  0  0  0
   -4.9882   25.7322  -29.5112 H   0  0  0  0  0  0  0  0  0  0  0  0
   -2.8885   23.8950  -32.0012 H   0  0  0  0  0  0  0  0  0  0  0  0
   -2.7594   23.4104  -30.2850 H   0  0  0  0  0  0  0  0  0  0  0  0
   -3.7117   21.8134  -32.6272 H   0  0  0  0  0  0  0  0  0  0  0  0
   -3.2012   21.2150  -31.0622 H   0  0  0  0  0  0  0  0  0  0  0  0
   -5.3412   21.4971  -30.1173 H   0  0  0  0  0  0  0  0  0  0  0  0
   -5.8663   23.6303  -32.4096 H   0  0  0  0  0  0  0  0  0  0  0  0
   -7.2291   23.2608  -29.7832 H   0  0  0  0  0  0  0  0  0  0  0  0
   -7.4903   24.5576  -30.9982 H   0  0  0  0  0  0  0  0  0  0  0  0
   -9.0259   22.3707  -31.0379 H   0  0  0  0  0  0  0  0  0  0  0  0
   -8.3968   23.0811  -32.5903 H   0  0  0  0  0  0  0  0  0  0  0  0
   -7.7071   17.2671  -31.9766 H   0  0  0  0  0  0  0  0  0  0  0  0
   -8.3863   17.7715  -33.5636 H   0  0  0  0  0  0  0  0  0  0  0  0
   -6.1924   18.7579  -35.1120 H   0  0  0  0  0  0  0  0  0  0  0  0
   -4.1893   17.7729  -36.2215 H   0  0  0  0  0  0  0  0  0  0  0  0
   -1.5113   15.7976  -33.9360 H   0  0  0  0  0  0  0  0  0  0  0  0
   -0.9103   15.0046  -35.4316 H   0  0  0  0  0  0  0  0  0  0  0  0
   -1.2737   16.7638  -35.4316 H   0  0  0  0  0  0  0  0  0  0  0  0
   -4.1783   14.5491  -33.3301 H   0  0  0  0  0  0  0  0  0  0  0  0
   -6.1835   15.5309  -32.2254 H   0  0  0  0  0  0  0  0  0  0  0  0
  1  2  1  0
  2  3  1  0
  3  4  1  0
  4  5  2  0
  4  6  1  0
  6  7  1  0
  7  8  1  0
  8  9  1  0
  9 10  1  0
 10 11  1  0
 11 12  1  0
 12 13  1  0
 13 14  1  0
 14 15  2  0
 15 16  1  0
 16 17  1  0
 17 18  1  0
 18 19  2  0
 19 20  1  0
 20 21  2  0
 21 22  1  0
 22 23  1  0
 21 24  1  0
 24 25  2  0
 16 26  1  0
 26 27  2  0
 26 28  1  0
 11  7  1  0
 28 14  1  0
 28 10  1  0
 25 18  1  0
  1 29  1  0
  1 30  1  0
  1 31  1  0
  2 32  1  0
  2 33  1  0
  6 34  1  0
  6 35  1  0
  8 36  1  0
  8 37  1  0
  9 38  1  0
  9 39  1  0
 10 40  1  1
 11 41  1  6
 12 42  1  0
 12 43  1  0
 13 44  1  0
 13 45  1  0
 17 46  1  0
 17 47  1  0
 19 48  1  0
 20 49  1  0
 23 50  1  0
 23 51  1  0
 23 52  1  0
 24 53  1  0
 25 54  1  0
M  END
>  <UniqueID>  (46) 
45

>  <SMILES>  (46) 
CCOC(=O)CN1CC[C@H]2[C@H]1CCc1nn(Cc3ccc(OC)cc3)c(=O)n12

>  <Energy>  (46) 
109.41420486986073

>  <Genealogy>  (46) 
CCOC(=O)CN1CC[C@H]2[C@H]1CCc1nn(Cc3ccc(OC)cc3)c(=O)n12 (chirality)
CCOC(=O)CN1CC[C@H]2[C@H]1CCc1nn(Cc3ccc(OC)cc3)c(=O)n12 (3D coordinates assigned)
CCOC(=O)CN1CC[C@H]2[C@H]1CCc1nn(Cc3ccc(OC)cc3)c(=O)n12 (nonaromatic ring conformer: 109.41420486986073 kcal/mol)

>  <smiles>  (46) 
CCOC(=O)CN1CCC2C1CCc1nn(Cc3ccc(OC)cc3)c(=O)n12

>  <score_type>  (46) 
oracle

>  <origin>  (46) 
adg

>  <m_score__min__energy>  (46) 
-8.2200000000000006

>  <m_primary>  (46) 
energy

$$$$
46:0
     RDKit          3D

 57 60  0  0  0  0  0  0  0  0999 V2000
   -9.2260   22.3360  -31.9310 C   0  0  0  0  0  0  0  0  0  0  0  0
   -8.3310   21.4930  -31.0240 C   0  0  0  0  0  0  0  0  0  0  0  0
   -6.9040   21.8030  -31.2550 N   0  0  0  0  0  0  0  0  0  0  0  0
   -6.5050   23.0670  -30.9120 C   0  0  0  0  0  0  0  0  0  0  0  0
   -5.2120   23.5230  -31.1650 C   0  0  0  0  0  0  0  0  0  0  0  0
   -4.8450   24.9020  -30.7850 C   0  0  0  0  0  0  0  0  0  0  0  0
   -5.7160   25.8080  -30.8480 O   0  0  0  0  0  0  0  0  0  0  0  0
   -3.5150   25.2440  -30.3790 N   0  0  0  0  0  0  0  0  0  0  0  0
   -2.9450   24.9140  -29.0780 C   0  0  0  0  0  0  0  0  0  0  0  0
   -2.4990   23.4810  -29.0800 C   0  0  0  0  0  0  0  0  0  0  0  0
   -3.2820   22.4970  -28.4530 C   0  0  0  0  0  0  0  0  0  0  0  0
   -2.8530   21.1650  -28.4270 C   0  0  0  0  0  0  0  0  0  0  0  0
   -1.6370   20.8090  -29.0170 C   0  0  0  0  0  0  0  0  0  0  0  0
   -1.2230   19.5170  -28.9920 F   0  0  0  0  0  0  0  0  0  0  0  0
   -0.8430   21.7860  -29.6280 C   0  0  0  0  0  0  0  0  0  0  0  0
   -1.2690   23.1190  -29.6560 C   0  0  0  0  0  0  0  0  0  0  0  0
   -4.2850   22.6560  -31.7470 C   0  0  0  0  0  0  0  0  0  0  0  0
   -3.1020   23.0500  -31.9510 O   0  0  0  0  0  0  0  0  0  0  0  0
   -4.6660   21.3430  -32.0750 C   0  0  0  0  0  0  0  0  0  0  0  0
   -3.7410   20.4670  -32.6700 C   0  0  0  0  0  0  0  0  0  0  0  0
   -4.0920   19.1570  -32.9690 C   0  0  0  0  0  0  0  0  0  0  0  0
   -3.1790   18.3310  -33.5400 F   0  0  0  0  0  0  0  0  0  0  0  0
   -5.3650   18.6850  -32.6540 C   0  0  0  0  0  0  0  0  0  0  0  0
   -5.7060   17.3210  -32.9350 N   0  0  0  0  0  0  0  0  0  0  0  0
   -6.5350   17.0240  -34.1100 C   0  0  0  0  0  0  0  0  0  0  0  0
   -6.8310   15.5230  -34.2190 C   0  0  0  0  0  0  0  0  0  0  0  0
   -5.5450   14.7110  -34.0260 C   0  0  0  0  0  0  0  0  0  0  0  0
   -4.8340   15.0100  -32.6770 C   0  0  1  0  0  0  0  0  0  0  0  0
   -3.3880   15.1160  -32.8930 N   0  0  0  0  0  0  0  0  0  0  0  0
   -5.3800   16.2720  -31.9620 C   0  0  0  0  0  0  0  0  0  0  0  0
   -6.3110   19.5390  -32.0660 C   0  0  0  0  0  0  0  0  0  0  0  0
   -7.5120   18.9900  -31.7550 F   0  0  0  0  0  0  0  0  0  0  0  0
   -5.9920   20.9030  -31.7900 C   0  0  0  0  0  0  0  0  0  0  0  0
   -9.8890   22.9604  -31.3141 H   0  0  0  0  0  0  0  0  0  0  0  0
   -8.6009   22.9810  -32.5660 H   0  0  0  0  0  0  0  0  0  0  0  0
   -9.8325   21.6735  -32.5660 H   0  0  0  0  0  0  0  0  0  0  0  0
   -8.5803   21.7055  -29.9739 H   0  0  0  0  0  0  0  0  0  0  0  0
   -8.5011   20.4304  -31.2519 H   0  0  0  0  0  0  0  0  0  0  0  0
   -7.2241   23.7410  -30.4236 H   0  0  0  0  0  0  0  0  0  0  0  0
   -2.0824   25.5669  -28.8786 H   0  0  0  0  0  0  0  0  0  0  0  0
   -3.7036   25.0623  -28.2954 H   0  0  0  0  0  0  0  0  0  0  0  0
   -4.2359   22.7746  -27.9807 H   0  0  0  0  0  0  0  0  0  0  0  0
   -3.4736   20.3974  -27.9416 H   0  0  0  0  0  0  0  0  0  0  0  0
    0.1168   21.5061  -30.0867 H   0  0  0  0  0  0  0  0  0  0  0  0
   -0.6391   23.8859  -30.1304 H   0  0  0  0  0  0  0  0  0  0  0  0
   -2.7266   20.8238  -32.9016 H   0  0  0  0  0  0  0  0  0  0  0  0
   -7.4854   17.5713  -34.0254 H   0  0  0  0  0  0  0  0  0  0  0  0
   -5.9850   17.3354  -35.0103 H   0  0  0  0  0  0  0  0  0  0  0  0
   -7.5587   15.2396  -33.4443 H   0  0  0  0  0  0  0  0  0  0  0  0
   -7.2412   15.3111  -35.2174 H   0  0  0  0  0  0  0  0  0  0  0  0
   -5.7979   13.6410  -34.0592 H   0  0  0  0  0  0  0  0  0  0  0  0
   -4.8528   14.9949  -34.8324 H   0  0  0  0  0  0  0  0  0  0  0  0
   -5.0485   14.1668  -32.0039 H   0  0  0  0  0  0  0  0  0  0  0  0
   -3.0040   15.8510  -32.2550 H   0  0  0  0  0  0  0  0  0  0  0  0
   -3.2080   15.4270  -33.8760 H   0  0  0  0  0  0  0  0  0  0  0  0
   -6.2881   16.0048  -31.4017 H   0  0  0  0  0  0  0  0  0  0  0  0
   -4.6069   16.6526  -31.2783 H   0  0  0  0  0  0  0  0  0  0  0  0
  1  2  1  0
  2  3  1  0
  3  4  1  0
  4  5  2  0
  5  6  1  0
  6  7  2  0
  6  8  1  0
  8  9  1  0
  9 10  1  0
 10 11  2  0
 11 12  1  0
 12 13  2  0
 13 14  1  0
 13 15  1  0
 15 16  2  0
  5 17  1  0
 17 18  2  0
 17 19  1  0
 19 20  2  0
 20 21  1  0
 21 22  1  0
 21 23  2  0
 23 24  1  0
 24 25  1  0
 25 26  1  0
 26 27  1  0
 27 28  1  0
 28 29  1  0
 28 30  1  0
 23 31  1  0
 31 32  1  0
 31 33  2  0
 33  3  1  0
 16 10  1  0
 33 19  1  0
 30 24  1  0
  1 34  1  0
  1 35  1  0
  1 36  1  0
  2 37  1  0
  2 38  1  0
  4 39  1  0
  9 40  1  0
  9 41  1  0
 11 42  1  0
 12 43  1  0
 15 44  1  0
 16 45  1  0
 20 46  1  0
 25 47  1  0
 25 48  1  0
 26 49  1  0
 26 50  1  0
 27 51  1  0
 27 52  1  0
 28 53  1  1
 29 54  1  0
 29 55  1  0
 30 56  1  0
 30 57  1  0
M  CHG  1   8  -1
M  END
>  <UniqueID>  (47) 
46

>  <SMILES>  (47) 
CCn1cc(C(=O)[N-]Cc2ccc(F)cc2)c(=O)c2cc(F)c(N3CCC[C@@H](N)C3)c(F)c21

>  <Energy>  (47) 
83.53207230827118

>  <Genealogy>  (47) 
CCn1cc(C(=O)[N-]Cc2ccc(F)cc2)c(=O)c2cc(F)c(N3CCCC(N)C3)c(F)c21 (protonated)
CCn1cc(C(=O)[N-]Cc2ccc(F)cc2)c(=O)c2cc(F)c(N3CCC[C@@H](N)C3)c(F)c21 (chirality)
CCn1cc(C(=O)[N-]Cc2ccc(F)cc2)c(=O)c2cc(F)c(N3CCC[C@@H](N)C3)c(F)c21 (3D coordinates assigned)
CCn1cc(C(=O)[N-]Cc2ccc(F)cc2)c(=O)c2cc(F)c(N3CCC[C@@H](N)C3)c(F)c21 (nonaromatic ring conformer: 83.53207230827118 kcal/mol)

>  <smiles>  (47) 
CCn1cc(C(=O)NCc2ccc(F)cc2)c(=O)c2cc(F)c(N3CCCC(N)C3)c(F)c21

>  <score_type>  (47) 
oracle

>  <origin>  (47) 
adg

>  <m_score__min__energy>  (47) 
-10.49

>  <m_primary>  (47) 
energy

$$$$
47:0
     RDKit          3D

 56 59  0  0  0  0  0  0  0  0999 V2000
  -10.3818   21.7945  -30.7626 H   0  0  0  0  0  0  0  0  0  0  0  0
   -9.3680   21.6130  -31.1490 C   0  0  0  0  0  0  0  0  0  0  0  0
   -8.3680   22.4820  -30.8620 N   0  0  0  0  0  0  0  0  0  0  0  0
   -7.1110   22.2630  -31.3350 C   0  0  0  0  0  0  0  0  0  0  0  0
   -6.0400   23.1820  -31.0350 N   0  0  0  0  0  0  0  0  0  0  0  0
   -4.6720   22.9410  -31.5190 C   0  0  0  0  0  0  0  0  0  0  0  0
   -4.5815   21.8901  -31.8312 H   0  0  0  0  0  0  0  0  0  0  0  0
   -4.4780   23.6148  -32.3665 H   0  0  0  0  0  0  0  0  0  0  0  0
   -3.6360   23.2290  -30.4200 C   0  0  0  0  0  0  0  0  0  0  0  0
   -3.5563   22.3378  -29.7802 H   0  0  0  0  0  0  0  0  0  0  0  0
   -2.6942   23.4742  -30.9327 H   0  0  0  0  0  0  0  0  0  0  0  0
   -3.9790   24.4440  -29.5190 C   0  0  0  0  0  0  0  0  0  0  0  0
   -4.3152   24.0511  -28.5481 H   0  0  0  0  0  0  0  0  0  0  0  0
   -2.8270   25.2620  -29.3640 O   0  0  0  0  0  0  0  0  0  0  0  0
   -1.8580   24.6570  -28.5280 C   0  0  0  0  0  0  0  0  0  0  0  0
   -2.2480   23.6946  -28.1650 H   0  0  0  0  0  0  0  0  0  0  0  0
   -0.9384   24.5074  -29.1128 H   0  0  0  0  0  0  0  0  0  0  0  0
   -1.5340   25.5330  -27.3460 C   0  0  0  0  0  0  0  0  0  0  0  0
   -2.2000   25.3410  -26.1250 C   0  0  0  0  0  0  0  0  0  0  0  0
   -2.9386   24.5320  -26.0250 H   0  0  0  0  0  0  0  0  0  0  0  0
   -1.9280   26.1740  -25.0360 C   0  0  0  0  0  0  0  0  0  0  0  0
   -2.4501   26.0169  -24.0806 H   0  0  0  0  0  0  0  0  0  0  0  0
   -0.9940   27.2060  -25.1590 C   0  0  0  0  0  0  0  0  0  0  0  0
   -0.7813   27.8608  -24.3011 H   0  0  0  0  0  0  0  0  0  0  0  0
   -0.3300   27.4060  -26.3730 C   0  0  0  0  0  0  0  0  0  0  0  0
    0.4050   28.2187  -26.4696 H   0  0  0  0  0  0  0  0  0  0  0  0
   -0.5990   26.5740  -27.4650 C   0  0  0  0  0  0  0  0  0  0  0  0
   -0.0767   26.7357  -28.4195 H   0  0  0  0  0  0  0  0  0  0  0  0
   -5.1030   25.2980  -30.1180 C   0  0  0  0  0  0  0  0  0  0  0  0
   -5.3431   26.1190  -29.4264 H   0  0  0  0  0  0  0  0  0  0  0  0
   -4.7680   25.7050  -31.0834 H   0  0  0  0  0  0  0  0  0  0  0  0
   -6.3560   24.4440  -30.3440 C   0  0  0  0  0  0  0  0  0  0  0  0
   -6.8097   24.2123  -29.3691 H   0  0  0  0  0  0  0  0  0  0  0  0
   -7.0503   25.0161  -30.9770 H   0  0  0  0  0  0  0  0  0  0  0  0
   -6.8710   21.1630  -32.0950 N   0  0  0  0  0  0  0  0  0  0  0  0
   -7.8720   20.2940  -32.3970 C   0  0  0  0  0  0  0  0  0  0  0  0
   -7.6490   19.2270  -33.1090 N   0  0  0  0  0  0  0  0  0  0  0  0
   -6.3660   18.6800  -33.4620 C   0  0  0  0  0  0  0  0  0  0  0  0
   -6.2360   17.4050  -34.0430 C   0  0  0  0  0  0  0  0  0  0  0  0
   -7.1340   16.8107  -34.2678 H   0  0  0  0  0  0  0  0  0  0  0  0
   -4.9710   16.8920  -34.3350 C   0  0  0  0  0  0  0  0  0  0  0  0
   -4.8530   15.6630  -34.8960 F   0  0  0  0  0  0  0  0  0  0  0  0
   -3.8260   17.6340  -34.0370 C   0  0  0  0  0  0  0  0  0  0  0  0
   -2.8328   17.2242  -34.2730 H   0  0  0  0  0  0  0  0  0  0  0  0
   -3.9340   18.9020  -33.4370 C   0  0  0  0  0  0  0  0  0  0  0  0
   -2.7090   19.6700  -33.1070 C   0  0  0  0  0  0  0  0  0  0  0  0
   -2.0840   19.4090  -32.0420 O   0  0  0  0  0  0  0  0  0  0  0  0
   -2.2130   20.6920  -33.9850 N   0  0  0  0  0  0  0  0  0  0  0  0
   -2.6170   20.8080  -34.9410 H   0  0  0  0  0  0  0  0  0  0  0  0
   -1.0950   21.5480  -33.6050 C   0  0  0  0  0  0  0  0  0  0  0  0
   -1.0285   21.5989  -32.5082 H   0  0  0  0  0  0  0  0  0  0  0  0
   -0.1606   21.1322  -34.0101 H   0  0  0  0  0  0  0  0  0  0  0  0
   -1.2527   22.5585  -34.0101 H   0  0  0  0  0  0  0  0  0  0  0  0
   -5.2140   19.4060  -33.1360 C   0  0  0  0  0  0  0  0  0  0  0  0
   -5.3100   20.3824  -32.6385 H   0  0  0  0  0  0  0  0  0  0  0  0
   -9.1190   20.5190  -31.9130 N   0  0  0  0  0  0  0  0  0  0  0  0
  1  2  1  0
  2  3  2  0
  3  4  1  0
  4  5  1  0
  5  6  1  0
  6  7  1  0
  6  8  1  0
  6  9  1  0
  9 10  1  0
  9 11  1  0
  9 12  1  0
 12 13  1  0
 12 14  1  0
 14 15  1  0
 15 16  1  0
 15 17  1  0
 15 18  1  0
 18 19  2  0
 19 20  1  0
 19 21  1  0
 21 22  1  0
 21 23  2  0
 23 24  1  0
 23 25  1  0
 25 26  1  0
 25 27  2  0
 27 28  1  0
 12 29  1  0
 29 30  1  0
 29 31  1  0
 29 32  1  0
 32 33  1  0
 32 34  1  0
  4 35  2  0
 35 36  1  0
 36 37  2  0
 37 38  1  0
 38 39  2  0
 39 40  1  0
 39 41  1  0
 41 42  1  0
 41 43  2  0
 43 44  1  0
 43 45  1  0
 45 46  1  0
 46 47  2  0
 46 48  1  0
 48 49  1  0
 48 50  1  0
 50 51  1  0
 50 52  1  0
 50 53  1  0
 45 54  2  0
 54 55  1  0
 36 56  1  0
 56  2  1  0
 32  5  1  0
 54 38  1  0
 27 18  1  0
M  CHG  1  56  -1
M  END
>  <UniqueID>  (48) 
47

>  <SMILES>  (48) 
CNC(=O)c1cc(F)cc(/N=c2\nc(N3CCC(OCc4ccccc4)CC3)nc[n-]2)c1

>  <Energy>  (48) 
70.40488661929898

>  <Genealogy>  (48) 
CNC(=O)c1cc(F)cc(N=c2nc(N3CCC(OCc4ccccc4)CC3)nc[n-]2)c1 (protonated)
CNC(=O)c1cc(F)cc(/N=c2\nc(N3CCC(OCc4ccccc4)CC3)nc[n-]2)c1 (cis-trans isomerization)
CNC(=O)c1cc(F)cc(/N=c2\nc(N3CCC(OCc4ccccc4)CC3)nc[n-]2)c1 (3D coordinates assigned)
CNC(=O)c1cc(F)cc(/N=c2\nc(N3CCC(OCc4ccccc4)CC3)nc[n-]2)c1 (nonaromatic ring conformer: 70.40488661929898 kcal/mol)

>  <smiles>  (48) 
CNC(=O)c1cc(F)cc(N=c2nc(N3CCC(OCc4ccccc4)CC3)nc[nH]2)c1

>  <score_type>  (48) 
oracle

>  <origin>  (48) 
adg

>  <m_score__min__energy>  (48) 
-10.74

>  <m_primary>  (48) 
energy

$$$$
48:0
     RDKit          3D

 42 44  0  0  0  0  0  0  0  0999 V2000
   -8.7120   19.4850  -32.0290 C   0  0  0  0  0  0  0  0  0  0  0  0
   -8.8060   20.8980  -31.4610 C   0  0  0  0  0  0  0  0  0  0  0  0
   -8.0430   21.8130  -32.2490 O   0  0  0  0  0  0  0  0  0  0  0  0
   -6.9990   22.6250  -31.7750 C   0  0  0  0  0  0  0  0  0  0  0  0
   -5.6830   22.2610  -32.0900 C   0  0  0  0  0  0  0  0  0  0  0  0
   -4.6060   23.0350  -31.6490 C   0  0  0  0  0  0  0  0  0  0  0  0
   -4.8240   24.1890  -30.8880 C   0  0  0  0  0  0  0  0  0  0  0  0
   -3.6900   24.9610  -30.4670 N   0  0  0  0  0  0  0  0  0  0  0  0
   -2.5930   24.5120  -29.2020 S   0  0  0  0  0  0  0  0  0  0  0  0
   -1.4180   25.4510  -29.2160 O   0  0  0  0  0  0  0  0  0  0  0  0
   -3.2930   24.6230  -27.8780 O   0  0  0  0  0  0  0  0  0  0  0  0
   -2.0630   22.8470  -29.4290 C   0  0  0  0  0  0  0  0  0  0  0  0
   -2.1590   21.9260  -28.3800 C   0  0  0  0  0  0  0  0  0  0  0  0
   -1.6990   20.6200  -28.5540 C   0  0  0  0  0  0  0  0  0  0  0  0
   -1.1460   20.2250  -29.7740 C   0  0  0  0  0  0  0  0  0  0  0  0
   -1.0490   21.1340  -30.8450 C   0  0  0  0  0  0  0  0  0  0  0  0
   -0.4450   20.6940  -32.1330 C   0  0  0  0  0  0  0  0  0  0  0  0
    0.1920   19.4630  -32.3330 C   0  0  0  0  0  0  0  0  0  0  0  0
    0.7340   19.4050  -33.9250 S   0  0  0  0  0  0  0  0  0  0  0  0
    0.1280   20.9220  -34.3030 C   0  0  0  0  0  0  0  0  0  0  0  0
    0.3050   21.6090  -35.6140 C   0  0  0  0  0  0  0  0  0  0  0  0
   -0.4630   21.4970  -33.2340 N   0  0  0  0  0  0  0  0  0  0  0  0
   -1.5140   22.4520  -30.6570 C   0  0  0  0  0  0  0  0  0  0  0  0
   -6.1420   24.5580  -30.5650 C   0  0  0  0  0  0  0  0  0  0  0  0
   -7.2210   23.7870  -31.0100 C   0  0  0  0  0  0  0  0  0  0  0  0
   -8.6638   18.7602  -31.2029 H   0  0  0  0  0  0  0  0  0  0  0  0
   -9.5984   19.2784  -32.6468 H   0  0  0  0  0  0  0  0  0  0  0  0
   -7.8061   19.3977  -32.6468 H   0  0  0  0  0  0  0  0  0  0  0  0
   -9.8590   21.2160  -31.4575 H   0  0  0  0  0  0  0  0  0  0  0  0
   -8.4040   20.8940  -30.4371 H   0  0  0  0  0  0  0  0  0  0  0  0
   -5.4959   21.3580  -32.6897 H   0  0  0  0  0  0  0  0  0  0  0  0
   -3.5786   22.7346  -31.9022 H   0  0  0  0  0  0  0  0  0  0  0  0
   -2.5970   22.2314  -27.4183 H   0  0  0  0  0  0  0  0  0  0  0  0
   -1.7723   19.8987  -27.7267 H   0  0  0  0  0  0  0  0  0  0  0  0
   -0.7829   19.1943  -29.8995 H   0  0  0  0  0  0  0  0  0  0  0  0
    0.3165   18.6711  -31.5798 H   0  0  0  0  0  0  0  0  0  0  0  0
    0.5761   22.6612  -35.4429 H   0  0  0  0  0  0  0  0  0  0  0  0
    1.1045   21.1123  -36.1833 H   0  0  0  0  0  0  0  0  0  0  0  0
   -0.6350   21.5604  -36.1833 H   0  0  0  0  0  0  0  0  0  0  0  0
   -1.4453   23.1769  -31.4815 H   0  0  0  0  0  0  0  0  0  0  0  0
   -6.3254   25.4577  -29.9592 H   0  0  0  0  0  0  0  0  0  0  0  0
   -8.2488   24.0898  -30.7612 H   0  0  0  0  0  0  0  0  0  0  0  0
  1  2  1  0
  2  3  1  0
  3  4  1  0
  4  5  2  0
  5  6  1  0
  6  7  2  0
  7  8  1  0
  8  9  1  0
  9 10  2  0
  9 11  2  0
  9 12  1  0
 12 13  2  0
 13 14  1  0
 14 15  2  0
 15 16  1  0
 16 17  1  0
 17 18  2  0
 18 19  1  0
 19 20  1  0
 20 21  1  0
 20 22  2  0
 16 23  2  0
  7 24  1  0
 24 25  2  0
 25  4  1  0
 23 12  1  0
 22 17  1  0
  1 26  1  0
  1 27  1  0
  1 28  1  0
  2 29  1  0
  2 30  1  0
  5 31  1  0
  6 32  1  0
 13 33  1  0
 14 34  1  0
 15 35  1  0
 18 36  1  0
 21 37  1  0
 21 38  1  0
 21 39  1  0
 23 40  1  0
 24 41  1  0
 25 42  1  0
M  CHG  1   8  -1
M  END
>  <UniqueID>  (49) 
48

>  <SMILES>  (49) 
CCOc1ccc([N-]S(=O)(=O)c2cccc(-c3csc(C)n3)c2)cc1

>  <Energy>  (49) 
75.14319307959151

>  <Genealogy>  (49) 
CCOc1ccc([N-]S(=O)(=O)c2cccc(-c3csc(C)n3)c2)cc1 (protonated)
CCOc1ccc([N-]S(=O)(=O)c2cccc(-c3csc(C)n3)c2)cc1 (3D coordinates assigned)
CCOc1ccc([N-]S(=O)(=O)c2cccc(-c3csc(C)n3)c2)cc1 (optimized conformer: 75.14319307959151 kcal/mol)

>  <smiles>  (49) 
CCOc1ccc(NS(=O)(=O)c2cccc(-c3csc(C)n3)c2)cc1

>  <score_type>  (49) 
oracle

>  <origin>  (49) 
adg

>  <m_score__min__energy>  (49) 
-9.5600000000000005

>  <m_primary>  (49) 
energy

$$$$
