0:0
     RDKit          3D

 71 73  0  0  0  0  0  0  0  0999 V2000
   -4.2850   24.5500  -29.8520 C   0  0  0  0  0  0  0  0  0  0  0  0
   -3.7750   23.1240  -29.6840 C   0  0  0  0  0  0  0  0  0  0  0  0
   -2.4480   22.9840  -30.3000 N   0  0  0  0  0  0  0  0  0  0  0  0
   -1.8150   21.7060  -29.9410 C   0  0  0  0  0  0  0  0  0  0  0  0
   -1.1010   21.1050  -31.1550 C   0  0  0  0  0  0  0  0  0  0  0  0
   -1.3250   21.9000  -32.3070 O   0  0  0  0  0  0  0  0  0  0  0  0
   -1.4770   21.0830  -33.4490 C   0  0  0  0  0  0  0  0  0  0  0  0
   -2.9510   21.0340  -33.8420 C   0  0  0  0  0  0  0  0  0  0  0  0
   -3.7920   21.3180  -32.6820 N   0  0  0  0  0  0  0  0  0  0  0  0
   -5.0820   20.6970  -32.5430 C   0  0  0  0  0  0  0  0  0  0  0  0
   -6.2170   21.4830  -32.2830 C   0  0  0  0  0  0  0  0  0  0  0  0
   -6.0970   22.8710  -32.0590 C   0  0  0  0  0  0  0  0  0  0  0  0
   -7.2170   23.6440  -31.7640 C   0  0  0  0  0  0  0  0  0  0  0  0
   -8.4680   23.0470  -31.6650 C   0  0  0  0  0  0  0  0  0  0  0  0
   -8.6100   21.6760  -31.8790 C   0  0  0  0  0  0  0  0  0  0  0  0
   -7.4960   20.8680  -32.2230 C   0  0  0  0  0  0  0  0  0  0  0  0
   -7.6270   19.5160  -32.4780 N   0  0  0  0  0  0  0  0  0  0  0  0
   -8.9710   18.9360  -32.7030 C   0  0  0  0  0  0  0  0  0  0  0  0
   -6.5030   18.7130  -32.5530 C   0  0  0  0  0  0  0  0  0  0  0  0
   -6.5970   17.2990  -32.5510 C   0  0  0  0  0  0  0  0  0  0  0  0
   -5.4650   16.4880  -32.7370 C   0  0  0  0  0  0  0  0  0  0  0  0
   -5.5380   15.0850  -32.7910 O   0  0  0  0  0  0  0  0  0  0  0  0
   -5.3120   14.2730  -33.9440 C   0  0  0  0  0  0  0  0  0  0  0  0
   -4.0940   13.3300  -33.7810 C   0  0  0  0  0  0  0  0  0  0  0  0
   -3.7630   12.9100  -32.3880 N   0  0  0  0  0  0  0  0  0  0  0  0
   -4.9790   12.5580  -31.6160 C   0  0  0  0  0  0  0  0  0  0  0  0
   -2.7890   11.7920  -32.3660 C   0  0  0  0  0  0  0  0  0  0  0  0
   -3.1850   14.0070  -31.8020 O   0  0  0  0  0  0  0  0  0  0  0  0
   -4.2070   17.0790  -32.8740 C   0  0  0  0  0  0  0  0  0  0  0  0
   -3.1000   16.2410  -33.0830 O   0  0  0  0  0  0  0  0  0  0  0  0
   -1.7610   16.6960  -33.2520 C   0  0  0  0  0  0  0  0  0  0  0  0
   -4.0830   18.4730  -32.7970 C   0  0  0  0  0  0  0  0  0  0  0  0
   -5.2130   19.2970  -32.6260 C   0  0  0  0  0  0  0  0  0  0  0  0
   -4.4462   25.0008  -28.8617 H   0  0  0  0  0  0  0  0  0  0  0  0
   -3.5428   25.1418  -30.4078 H   0  0  0  0  0  0  0  0  0  0  0  0
   -5.2342   24.5369  -30.4078 H   0  0  0  0  0  0  0  0  0  0  0  0
   -3.7049   22.8870  -28.6121 H   0  0  0  0  0  0  0  0  0  0  0  0
   -4.4742   22.4322  -30.1765 H   0  0  0  0  0  0  0  0  0  0  0  0
   -2.5750   22.9930  -31.3400 H   0  0  0  0  0  0  0  0  0  0  0  0
   -1.0831   21.8769  -29.1378 H   0  0  0  0  0  0  0  0  0  0  0  0
   -2.5922   21.0057  -29.6010 H   0  0  0  0  0  0  0  0  0  0  0  0
   -0.0208   21.0573  -30.9526 H   0  0  0  0  0  0  0  0  0  0  0  0
   -1.4978   20.0954  -31.3371 H   0  0  0  0  0  0  0  0  0  0  0  0
   -0.8889   21.4999  -34.2799 H   0  0  0  0  0  0  0  0  0  0  0  0
   -1.1216   20.0665  -33.2246 H   0  0  0  0  0  0  0  0  0  0  0  0
   -3.1439   21.7841  -34.6231 H   0  0  0  0  0  0  0  0  0  0  0  0
   -3.1885   20.0287  -34.2200 H   0  0  0  0  0  0  0  0  0  0  0  0
   -3.3450   21.7450  -31.8390 H   0  0  0  0  0  0  0  0  0  0  0  0
   -5.1075   23.3478  -32.1181 H   0  0  0  0  0  0  0  0  0  0  0  0
   -7.1115   24.7279  -31.6092 H   0  0  0  0  0  0  0  0  0  0  0  0
   -9.3489   23.6575  -31.4171 H   0  0  0  0  0  0  0  0  0  0  0  0
   -9.6030   21.2134  -31.7793 H   0  0  0  0  0  0  0  0  0  0  0  0
   -9.4484   18.7300  -31.7337 H   0  0  0  0  0  0  0  0  0  0  0  0
   -9.5873   19.6483  -33.2712 H   0  0  0  0  0  0  0  0  0  0  0  0
   -8.8755   17.9990  -33.2712 H   0  0  0  0  0  0  0  0  0  0  0  0
   -7.5785   16.8257  -32.4004 H   0  0  0  0  0  0  0  0  0  0  0  0
   -6.2085   13.6619  -34.1254 H   0  0  0  0  0  0  0  0  0  0  0  0
   -5.1009   14.9458  -34.7883 H   0  0  0  0  0  0  0  0  0  0  0  0
   -4.2940   12.4204  -34.3664 H   0  0  0  0  0  0  0  0  0  0  0  0
   -3.2259   13.9111  -34.1255 H   0  0  0  0  0  0  0  0  0  0  0  0
   -4.7610   12.6211  -30.5397 H   0  0  0  0  0  0  0  0  0  0  0  0
   -5.7888   13.2586  -31.8678 H   0  0  0  0  0  0  0  0  0  0  0  0
   -5.2893   11.5332  -31.8678 H   0  0  0  0  0  0  0  0  0  0  0  0
   -2.5583   11.5272  -31.3236 H   0  0  0  0  0  0  0  0  0  0  0  0
   -3.2203   10.9198  -32.8791 H   0  0  0  0  0  0  0  0  0  0  0  0
   -1.8659   12.0997  -32.8791 H   0  0  0  0  0  0  0  0  0  0  0  0
   -3.4720   14.8240  -32.2910 H   0  0  0  0  0  0  0  0  0  0  0  0
   -1.2998   16.8527  -32.2657 H   0  0  0  0  0  0  0  0  0  0  0  0
   -1.1856   15.9430  -33.8104 H   0  0  0  0  0  0  0  0  0  0  0  0
   -1.7635   17.6437  -33.8104 H   0  0  0  0  0  0  0  0  0  0  0  0
   -3.0860   18.9317  -32.8714 H   0  0  0  0  0  0  0  0  0  0  0  0
  1  2  1  0
  2  3  1  0
  3  4  1  0
  4  5  1  0
  5  6  1  0
  6  7  1  0
  7  8  1  0
  8  9  1  0
  9 10  1  0
 10 11  2  0
 11 12  1  0
 12 13  2  0
 13 14  1  0
 14 15  2  0
 15 16  1  0
 16 17  2  0
 17 18  1  0
 17 19  1  0
 19 20  2  0
 20 21  1  0
 21 22  1  0
 22 23  1  0
 23 24  1  0
 24 25  1  0
 25 26  1  0
 25 27  1  0
 25 28  1  0
 21 29  2  0
 29 30  1  0
 30 31  1  0
 29 32  1  0
 32 33  2  0
 33 10  1  0
 16 11  1  0
 33 19  1  0
  1 34  1  0
  1 35  1  0
  1 36  1  0
  2 37  1  0
  2 38  1  0
  3 39  1  0
  4 40  1  0
  4 41  1  0
  5 42  1  0
  5 43  1  0
  7 44  1  0
  7 45  1  0
  8 46  1  0
  8 47  1  0
  9 48  1  0
 12 49  1  0
 13 50  1  0
 14 51  1  0
 15 52  1  0
 18 53  1  0
 18 54  1  0
 18 55  1  0
 20 56  1  0
 23 57  1  0
 23 58  1  0
 24 59  1  0
 24 60  1  0
 26 61  1  0
 26 62  1  0
 26 63  1  0
 27 64  1  0
 27 65  1  0
 27 66  1  0
 28 67  1  0
 31 68  1  0
 31 69  1  0
 31 70  1  0
 32 71  1  0
M  CHG  2  17   1  25   1
M  END
>  <UniqueID>  (1) 
1

>  <SMILES>  (1) 
CCNCCOCCNc1c2ccccc2[n+](C)c2cc(OCC[N+](C)(C)O)c(OC)cc12

>  <Energy>  (1) 
98.52773000550837

>  <Genealogy>  (1) 
CCNCCOCCNc1c2ccccc2[n+](C)c2cc(OCC[N+](C)(C)O)c(OC)cc12 (protonated)
CCNCCOCCNc1c2ccccc2[n+](C)c2cc(OCC[N+](C)(C)O)c(OC)cc12 (3D coordinates assigned)
CCNCCOCCNc1c2ccccc2[n+](C)c2cc(OCC[N+](C)(C)O)c(OC)cc12 (optimized conformer: 98.52773000550837 kcal/mol)

>  <smiles>  (1) 
CCNCCOCCNc1c2ccccc2[n+](C)c2cc(OCC[N+](C)(C)[O-])c(OC)cc12

>  <score_type>  (1) 
oracle

>  <origin>  (1) 
adg

>  <m_score__min__energy>  (1) 
-7.8300000000000001

>  <m_primary>  (1) 
energy

$$$$
1:0
     RDKit          3D

 72 74  0  0  0  0  0  0  0  0999 V2000
    0.2970   27.0880  -23.3000 C   0  0  0  0  0  0  0  0  0  0  0  0
   -0.7820   26.3010  -24.0580 C   0  0  0  0  0  0  0  0  0  0  0  0
   -1.4440   27.1090  -25.1190 N   0  0  0  0  0  0  0  0  0  0  0  0
   -0.5810   28.2400  -25.5500 C   0  0  0  0  0  0  0  0  0  0  0  0
   -1.2030   29.6150  -25.2700 C   0  0  0  0  0  0  0  0  0  0  0  0
   -1.9300   26.2490  -26.2360 C   0  0  0  0  0  0  0  0  0  0  0  0
   -1.1500   26.3700  -27.5650 C   0  0  0  0  0  0  0  0  0  0  0  0
   -1.7430   25.5430  -28.6260 N   0  0  0  0  0  0  0  0  0  0  0  0
   -1.5140   24.1120  -28.3880 C   0  0  0  0  0  0  0  0  0  0  0  0
   -2.2330   23.2880  -29.4480 C   0  0  0  0  0  0  0  0  0  0  0  0
   -3.3950   22.7140  -28.8720 O   0  0  0  0  0  0  0  0  0  0  0  0
   -4.0020   23.6180  -27.9760 C   0  0  0  0  0  0  0  0  0  0  0  0
   -4.9760   24.5180  -28.7420 C   0  0  0  0  0  0  0  0  0  0  0  0
   -4.3990   25.0370  -29.9240 O   0  0  0  0  0  0  0  0  0  0  0  0
   -5.3820   25.4630  -30.8510 C   0  0  0  0  0  0  0  0  0  0  0  0
   -6.0050   24.2370  -31.5170 C   0  0  0  0  0  0  0  0  0  0  0  0
   -5.2530   23.0270  -31.2000 N   0  0  0  0  0  0  0  0  0  0  0  0
   -5.4480   21.8320  -31.9700 C   0  0  0  0  0  0  0  0  0  0  0  0
   -6.7150   21.2300  -32.0260 C   0  0  0  0  0  0  0  0  0  0  0  0
   -7.8160   21.8040  -31.3560 C   0  0  0  0  0  0  0  0  0  0  0  0
   -9.0580   21.1770  -31.3600 C   0  0  0  0  0  0  0  0  0  0  0  0
   -9.2210   19.9660  -32.0200 C   0  0  0  0  0  0  0  0  0  0  0  0
   -8.1550   19.3930  -32.7120 C   0  0  0  0  0  0  0  0  0  0  0  0
   -6.8860   20.0270  -32.7590 C   0  0  0  0  0  0  0  0  0  0  0  0
   -5.8290   19.4930  -33.4790 N   0  0  0  0  0  0  0  0  0  0  0  0
   -6.0770   18.3980  -34.4420 C   0  0  0  0  0  0  0  0  0  0  0  0
   -4.5520   20.0040  -33.3180 C   0  0  0  0  0  0  0  0  0  0  0  0
   -3.4090   19.3420  -33.8330 C   0  0  0  0  0  0  0  0  0  0  0  0
   -2.1390   19.9100  -33.7250 C   0  0  0  0  0  0  0  0  0  0  0  0
   -1.9660   21.1200  -33.0640 C   0  0  0  0  0  0  0  0  0  0  0  0
   -3.0590   21.7620  -32.4940 C   0  0  0  0  0  0  0  0  0  0  0  0
   -4.3540   21.2110  -32.5990 C   0  0  0  0  0  0  0  0  0  0  0  0
    0.1410   26.9742  -22.2171 H   0  0  0  0  0  0  0  0  0  0  0  0
    1.2907   26.7011  -23.5700 H   0  0  0  0  0  0  0  0  0  0  0  0
    0.2322   28.1524  -23.5700 H   0  0  0  0  0  0  0  0  0  0  0  0
   -0.3135   25.4224  -24.5256 H   0  0  0  0  0  0  0  0  0  0  0  0
   -1.5545   26.0113  -23.3305 H   0  0  0  0  0  0  0  0  0  0  0  0
   -2.3060   27.5300  -24.7010 H   0  0  0  0  0  0  0  0  0  0  0  0
    0.3768   28.1735  -25.0131 H   0  0  0  0  0  0  0  0  0  0  0  0
   -0.4505   28.1555  -26.6390 H   0  0  0  0  0  0  0  0  0  0  0  0
   -1.2736   29.7711  -24.1834 H   0  0  0  0  0  0  0  0  0  0  0  0
   -0.5723   30.3998  -25.7130 H   0  0  0  0  0  0  0  0  0  0  0  0
   -2.2089   29.6595  -25.7130 H   0  0  0  0  0  0  0  0  0  0  0  0
   -1.8730   25.2015  -25.9051 H   0  0  0  0  0  0  0  0  0  0  0  0
   -2.9514   26.5931  -26.4560 H   0  0  0  0  0  0  0  0  0  0  0  0
   -1.1579   27.4216  -27.8875 H   0  0  0  0  0  0  0  0  0  0  0  0
   -0.1231   26.0163  -27.3910 H   0  0  0  0  0  0  0  0  0  0  0  0
   -2.7810   25.6990  -28.6200 H   0  0  0  0  0  0  0  0  0  0  0  0
   -0.4350   23.9029  -28.4335 H   0  0  0  0  0  0  0  0  0  0  0  0
   -1.9036   23.8434  -27.3950 H   0  0  0  0  0  0  0  0  0  0  0  0
   -2.5193   23.9367  -30.2889 H   0  0  0  0  0  0  0  0  0  0  0  0
   -1.5681   22.4934  -29.8175 H   0  0  0  0  0  0  0  0  0  0  0  0
   -4.5500   23.0574  -27.2044 H   0  0  0  0  0  0  0  0  0  0  0  0
   -3.2281   24.2371  -27.4987 H   0  0  0  0  0  0  0  0  0  0  0  0
   -5.8667   23.9307  -29.0097 H   0  0  0  0  0  0  0  0  0  0  0  0
   -5.2391   25.3653  -28.0917 H   0  0  0  0  0  0  0  0  0  0  0  0
   -6.1621   26.0329  -30.3250 H   0  0  0  0  0  0  0  0  0  0  0  0
   -4.9182   26.1044  -31.6148 H   0  0  0  0  0  0  0  0  0  0  0  0
   -7.0390   24.1210  -31.1602 H   0  0  0  0  0  0  0  0  0  0  0  0
   -5.9860   24.3843  -32.6069 H   0  0  0  0  0  0  0  0  0  0  0  0
   -4.6090   22.9940  -30.3760 H   0  0  0  0  0  0  0  0  0  0  0  0
   -7.6909   22.7587  -30.8241 H   0  0  0  0  0  0  0  0  0  0  0  0
   -9.9101   21.6401  -30.8409 H   0  0  0  0  0  0  0  0  0  0  0  0
  -10.1957   19.4566  -31.9966 H   0  0  0  0  0  0  0  0  0  0  0  0
   -8.2998   18.4336  -33.2302 H   0  0  0  0  0  0  0  0  0  0  0  0
   -6.2876   17.4680  -33.8935 H   0  0  0  0  0  0  0  0  0  0  0  0
   -6.9399   18.6542  -35.0743 H   0  0  0  0  0  0  0  0  0  0  0  0
   -5.1879   18.2574  -35.0743 H   0  0  0  0  0  0  0  0  0  0  0  0
   -3.5251   18.3653  -34.3255 H   0  0  0  0  0  0  0  0  0  0  0  0
   -1.2708   19.3976  -34.1651 H   0  0  0  0  0  0  0  0  0  0  0  0
   -0.9646   21.5695  -32.9919 H   0  0  0  0  0  0  0  0  0  0  0  0
   -2.9131   22.7098  -31.9552 H   0  0  0  0  0  0  0  0  0  0  0  0
  1  2  1  0
  2  3  1  0
  3  4  1  0
  4  5  1  0
  3  6  1  0
  6  7  1  0
  7  8  1  0
  8  9  1  0
  9 10  1  0
 10 11  1  0
 11 12  1  0
 12 13  1  0
 13 14  1  0
 14 15  1  0
 15 16  1  0
 16 17  1  0
 17 18  1  0
 18 19  2  0
 19 20  1  0
 20 21  2  0
 21 22  1  0
 22 23  2  0
 23 24  1  0
 24 25  2  0
 25 26  1  0
 25 27  1  0
 27 28  2  0
 28 29  1  0
 29 30  2  0
 30 31  1  0
 31 32  2  0
 32 18  1  0
 24 19  1  0
 32 27  1  0
  1 33  1  0
  1 34  1  0
  1 35  1  0
  2 36  1  0
  2 37  1  0
  3 38  1  0
  4 39  1  0
  4 40  1  0
  5 41  1  0
  5 42  1  0
  5 43  1  0
  6 44  1  0
  6 45  1  0
  7 46  1  0
  7 47  1  0
  8 48  1  0
  9 49  1  0
  9 50  1  0
 10 51  1  0
 10 52  1  0
 12 53  1  0
 12 54  1  0
 13 55  1  0
 13 56  1  0
 15 57  1  0
 15 58  1  0
 16 59  1  0
 16 60  1  0
 17 61  1  0
 20 62  1  0
 21 63  1  0
 22 64  1  0
 23 65  1  0
 26 66  1  0
 26 67  1  0
 26 68  1  0
 28 69  1  0
 29 70  1  0
 30 71  1  0
 31 72  1  0
M  CHG  2   3   1  25   1
M  END
>  <UniqueID>  (2) 
2

>  <SMILES>  (2) 
CC[NH+](CC)CCNCCOCCOCCNc1c2ccccc2[n+](C)c2ccccc12

>  <Energy>  (2) 
95.88751751529664

>  <Genealogy>  (2) 
CC[NH+](CC)CCNCCOCCOCCNc1c2ccccc2[n+](C)c2ccccc12 (protonated)
CC[NH+](CC)CCNCCOCCOCCNc1c2ccccc2[n+](C)c2ccccc12 (3D coordinates assigned)
CC[NH+](CC)CCNCCOCCOCCNc1c2ccccc2[n+](C)c2ccccc12 (optimized conformer: 95.88751751529664 kcal/mol)

>  <smiles>  (2) 
CCN(CC)CCNCCOCCOCCNc1c2ccccc2[n+](C)c2ccccc12

>  <score_type>  (2) 
oracle

>  <origin>  (2) 
adg

>  <m_score__min__energy>  (2) 
-8.75

>  <m_primary>  (2) 
energy

$$$$
2:0
     RDKit          3D

 51 53  0  0  0  0  0  0  0  0999 V2000
   -3.4500   18.5770  -25.9730 C   0  0  0  0  0  0  0  0  0  0  0  0
   -2.3000   19.3680  -26.6040 C   0  0  0  0  0  0  0  0  0  0  0  0
   -2.6540   19.9200  -27.9240 N   0  0  0  0  0  0  0  0  0  0  0  0
   -3.0440   21.3390  -27.8480 C   0  0  0  0  0  0  0  0  0  0  0  0
   -3.0570   21.9750  -29.2420 C   0  0  0  0  0  0  0  0  0  0  0  0
   -2.6650   21.0240  -30.2150 O   0  0  0  0  0  0  0  0  0  0  0  0
   -2.0610   21.6420  -31.3360 C   0  0  0  0  0  0  0  0  0  0  0  0
   -2.2170   20.7810  -32.5930 C   0  0  0  0  0  0  0  0  0  0  0  0
   -3.4480   21.1160  -33.3110 N   0  0  0  0  0  0  0  0  0  0  0  0
   -4.7400   20.7010  -32.8270 C   0  0  0  0  0  0  0  0  0  0  0  0
   -5.5660   21.6080  -32.1370 C   0  0  0  0  0  0  0  0  0  0  0  0
   -5.1110   22.9070  -31.8210 C   0  0  0  0  0  0  0  0  0  0  0  0
   -5.9570   23.8290  -31.2080 C   0  0  0  0  0  0  0  0  0  0  0  0
   -5.3780   25.4450  -30.8410 Cl  0  0  0  0  0  0  0  0  0  0  0  0
   -7.2660   23.4760  -30.9030 C   0  0  0  0  0  0  0  0  0  0  0  0
   -7.7220   22.1850  -31.1660 C   0  0  0  0  0  0  0  0  0  0  0  0
   -6.8690   21.2080  -31.7390 C   0  0  0  0  0  0  0  0  0  0  0  0
   -7.2790   19.8990  -31.9180 N   0  0  0  0  0  0  0  0  0  0  0  0
   -8.5090   19.4120  -31.2490 C   0  0  0  0  0  0  0  0  0  0  0  0
   -6.5210   19.0320  -32.6850 C   0  0  0  0  0  0  0  0  0  0  0  0
   -7.0200   17.7680  -33.0930 C   0  0  0  0  0  0  0  0  0  0  0  0
   -6.2260   16.8780  -33.8170 C   0  0  0  0  0  0  0  0  0  0  0  0
   -6.8700   15.3170  -34.2970 Cl  0  0  0  0  0  0  0  0  0  0  0  0
   -4.9270   17.2270  -34.1630 C   0  0  0  0  0  0  0  0  0  0  0  0
   -4.4250   18.4780  -33.8170 C   0  0  0  0  0  0  0  0  0  0  0  0
   -5.2150   19.4040  -33.1030 C   0  0  0  0  0  0  0  0  0  0  0  0
   -3.3733   18.6298  -24.8769 H   0  0  0  0  0  0  0  0  0  0  0  0
   -4.4103   19.0066  -26.2945 H   0  0  0  0  0  0  0  0  0  0  0  0
   -3.3923   17.5266  -26.2945 H   0  0  0  0  0  0  0  0  0  0  0  0
   -2.0334   20.1986  -25.9339 H   0  0  0  0  0  0  0  0  0  0  0  0
   -1.4561   18.6767  -26.7455 H   0  0  0  0  0  0  0  0  0  0  0  0
   -1.8520   19.8050  -28.5880 H   0  0  0  0  0  0  0  0  0  0  0  0
   -3.4640   19.3680  -28.2950 H   0  0  0  0  0  0  0  0  0  0  0  0
   -4.0495   21.4136  -27.4081 H   0  0  0  0  0  0  0  0  0  0  0  0
   -2.3124   21.8728  -27.2236 H   0  0  0  0  0  0  0  0  0  0  0  0
   -4.0725   22.3311  -29.4699 H   0  0  0  0  0  0  0  0  0  0  0  0
   -2.3516   22.8188  -29.2590 H   0  0  0  0  0  0  0  0  0  0  0  0
   -2.5380   22.6182  -31.5081 H   0  0  0  0  0  0  0  0  0  0  0  0
   -0.9877   21.7662  -31.1295 H   0  0  0  0  0  0  0  0  0  0  0  0
   -1.3561   20.9533  -33.2558 H   0  0  0  0  0  0  0  0  0  0  0  0
   -2.2656   19.7248  -32.2896 H   0  0  0  0  0  0  0  0  0  0  0  0
   -3.4000   21.8630  -34.0420 H   0  0  0  0  0  0  0  0  0  0  0  0
   -4.0768   23.1943  -32.0616 H   0  0  0  0  0  0  0  0  0  0  0  0
   -7.9437   24.2166  -30.4532 H   0  0  0  0  0  0  0  0  0  0  0  0
   -8.7619   21.9197  -30.9247 H   0  0  0  0  0  0  0  0  0  0  0  0
   -8.3781   19.4638  -30.1581 H   0  0  0  0  0  0  0  0  0  0  0  0
   -9.3614   20.0405  -31.5463 H   0  0  0  0  0  0  0  0  0  0  0  0
   -8.7002   18.3703  -31.5463 H   0  0  0  0  0  0  0  0  0  0  0  0
   -8.0509   17.4848  -32.8340 H   0  0  0  0  0  0  0  0  0  0  0  0
   -4.2941   16.5136  -34.7112 H   0  0  0  0  0  0  0  0  0  0  0  0
   -3.3982   18.7487  -34.1041 H   0  0  0  0  0  0  0  0  0  0  0  0
  1  2  1  0
  2  3  1  0
  3  4  1  0
  4  5  1  0
  5  6  1  0
  6  7  1  0
  7  8  1  0
  8  9  1  0
  9 10  1  0
 10 11  2  0
 11 12  1  0
 12 13  2  0
 13 14  1  0
 13 15  1  0
 15 16  2  0
 16 17  1  0
 17 18  2  0
 18 19  1  0
 18 20  1  0
 20 21  2  0
 21 22  1  0
 22 23  1  0
 22 24  2  0
 24 25  1  0
 25 26  2  0
 26 10  1  0
 17 11  1  0
 26 20  1  0
  1 27  1  0
  1 28  1  0
  1 29  1  0
  2 30  1  0
  2 31  1  0
  3 32  1  0
  3 33  1  0
  4 34  1  0
  4 35  1  0
  5 36  1  0
  5 37  1  0
  7 38  1  0
  7 39  1  0
  8 40  1  0
  8 41  1  0
  9 42  1  0
 12 43  1  0
 15 44  1  0
 16 45  1  0
 19 46  1  0
 19 47  1  0
 19 48  1  0
 21 49  1  0
 24 50  1  0
 25 51  1  0
M  CHG  2   3   1  18   1
M  END
>  <UniqueID>  (3) 
3

>  <SMILES>  (3) 
CC[NH2+]CCOCCNc1c2cc(Cl)ccc2[n+](C)c2cc(Cl)ccc12

>  <Energy>  (3) 
75.2866754059002

>  <Genealogy>  (3) 
CC[NH2+]CCOCCNc1c2cc(Cl)ccc2[n+](C)c2cc(Cl)ccc12 (protonated)
CC[NH2+]CCOCCNc1c2cc(Cl)ccc2[n+](C)c2cc(Cl)ccc12 (3D coordinates assigned)
CC[NH2+]CCOCCNc1c2cc(Cl)ccc2[n+](C)c2cc(Cl)ccc12 (optimized conformer: 75.2866754059002 kcal/mol)

>  <smiles>  (3) 
CCNCCOCCNc1c2cc(Cl)ccc2[n+](C)c2cc(Cl)ccc12

>  <score_type>  (3) 
oracle

>  <origin>  (3) 
adg

>  <m_score__min__energy>  (3) 
-7.6900000000000004

>  <m_primary>  (3) 
energy

$$$$
3:0
     RDKit          3D

 51 54  0  0  0  0  0  0  0  0999 V2000
    0.2620   21.5590  -35.6990 C   0  0  0  0  0  0  0  0  0  0  0  0
    0.0350   21.0350  -34.2780 C   0  0  0  0  0  0  0  0  0  0  0  0
   -1.3650   21.1660  -33.8420 N   0  0  0  0  0  0  0  0  0  0  0  0
   -1.4730   21.4860  -32.4130 C   0  0  0  0  0  0  0  0  0  0  0  0
   -2.8540   21.0770  -31.8940 C   0  0  0  0  0  0  0  0  0  0  0  0
   -3.7410   20.6990  -32.9960 N   0  0  0  0  0  0  0  0  0  0  0  0
   -5.1660   20.7180  -32.8420 C   0  0  0  0  0  0  0  0  0  0  0  0
   -5.8210   21.8610  -32.3270 C   0  0  0  0  0  0  0  0  0  0  0  0
   -5.1150   23.0680  -32.1420 C   0  0  0  0  0  0  0  0  0  0  0  0
   -5.7430   24.1810  -31.5890 C   0  0  0  0  0  0  0  0  0  0  0  0
   -7.0780   24.1130  -31.2040 C   0  0  0  0  0  0  0  0  0  0  0  0
   -7.8060   22.9370  -31.3920 C   0  0  0  0  0  0  0  0  0  0  0  0
   -7.2100   21.7940  -31.9800 C   0  0  0  0  0  0  0  0  0  0  0  0
   -7.9310   20.6310  -32.2000 N   0  0  0  0  0  0  0  0  0  0  0  0
   -9.3790   20.5660  -31.9230 C   0  0  0  0  0  0  0  0  0  0  0  0
   -7.2670   19.5320  -32.6850 C   0  0  0  0  0  0  0  0  0  0  0  0
   -7.7880   18.2920  -32.8460 N   0  0  0  0  0  0  0  0  0  0  0  0
   -6.7870   17.5500  -33.3550 C   0  0  0  0  0  0  0  0  0  0  0  0
   -6.8590   16.2010  -33.6910 C   0  0  0  0  0  0  0  0  0  0  0  0
   -5.7210   15.5940  -34.2370 C   0  0  0  0  0  0  0  0  0  0  0  0
   -4.5510   16.3420  -34.4620 C   0  0  0  0  0  0  0  0  0  0  0  0
   -4.4930   17.7180  -34.1310 C   0  0  0  0  0  0  0  0  0  0  0  0
   -3.3710   18.5010  -34.4260 O   0  0  0  0  0  0  0  0  0  0  0  0
   -2.0230   18.0970  -34.2110 C   0  0  0  0  0  0  0  0  0  0  0  0
   -5.6310   18.2900  -33.5280 C   0  0  0  0  0  0  0  0  0  0  0  0
   -5.9340   19.5680  -33.0550 C   0  0  0  0  0  0  0  0  0  0  0  0
    0.6989   22.5675  -35.6525 H   0  0  0  0  0  0  0  0  0  0  0  0
    0.9492   20.8859  -36.2326 H   0  0  0  0  0  0  0  0  0  0  0  0
   -0.6990   21.6000  -36.2326 H   0  0  0  0  0  0  0  0  0  0  0  0
    0.3158   19.9719  -34.2457 H   0  0  0  0  0  0  0  0  0  0  0  0
    0.6532   21.6394  -33.5979 H   0  0  0  0  0  0  0  0  0  0  0  0
   -1.8300   21.9220  -34.3980 H   0  0  0  0  0  0  0  0  0  0  0  0
   -0.6971   20.9398  -31.8566 H   0  0  0  0  0  0  0  0  0  0  0  0
   -1.3372   22.5684  -32.2715 H   0  0  0  0  0  0  0  0  0  0  0  0
   -2.7425   20.2206  -31.2127 H   0  0  0  0  0  0  0  0  0  0  0  0
   -3.2974   21.9350  -31.3675 H   0  0  0  0  0  0  0  0  0  0  0  0
   -3.3470   20.6210  -33.9610 H   0  0  0  0  0  0  0  0  0  0  0  0
   -4.0573   23.1307  -32.4376 H   0  0  0  0  0  0  0  0  0  0  0  0
   -5.1814   25.1174  -31.4561 H   0  0  0  0  0  0  0  0  0  0  0  0
   -7.5621   24.9899  -30.7494 H   0  0  0  0  0  0  0  0  0  0  0  0
   -8.8596   22.8970  -31.0785 H   0  0  0  0  0  0  0  0  0  0  0  0
   -9.5443   20.5586  -30.8355 H   0  0  0  0  0  0  0  0  0  0  0  0
   -9.8763   21.4427  -32.3635 H   0  0  0  0  0  0  0  0  0  0  0  0
   -9.7957   19.6482  -32.3635 H   0  0  0  0  0  0  0  0  0  0  0  0
   -8.7400   17.9380  -32.6090 H   0  0  0  0  0  0  0  0  0  0  0  0
   -7.7842   15.6276  -33.5321 H   0  0  0  0  0  0  0  0  0  0  0  0
   -5.7422   14.5241  -34.4919 H   0  0  0  0  0  0  0  0  0  0  0  0
   -3.6695   15.8518  -34.9008 H   0  0  0  0  0  0  0  0  0  0  0  0
   -1.8258   18.0379  -33.1304 H   0  0  0  0  0  0  0  0  0  0  0  0
   -1.8586   17.1101  -34.6682 H   0  0  0  0  0  0  0  0  0  0  0  0
   -1.3429   18.8308  -34.6682 H   0  0  0  0  0  0  0  0  0  0  0  0
  1  2  1  0
  2  3  1  0
  3  4  1  0
  4  5  1  0
  5  6  1  0
  6  7  1  0
  7  8  2  0
  8  9  1  0
  9 10  2  0
 10 11  1  0
 11 12  2  0
 12 13  1  0
 13 14  2  0
 14 15  1  0
 14 16  1  0
 16 17  1  0
 17 18  1  0
 18 19  2  0
 19 20  1  0
 20 21  2  0
 21 22  1  0
 22 23  1  0
 23 24  1  0
 22 25  2  0
 25 26  1  0
 26  7  1  0
 13  8  1  0
 26 16  2  0
 25 18  1  0
  1 27  1  0
  1 28  1  0
  1 29  1  0
  2 30  1  0
  2 31  1  0
  3 32  1  0
  4 33  1  0
  4 34  1  0
  5 35  1  0
  5 36  1  0
  6 37  1  0
  9 38  1  0
 10 39  1  0
 11 40  1  0
 12 41  1  0
 15 42  1  0
 15 43  1  0
 15 44  1  0
 17 45  1  0
 19 46  1  0
 20 47  1  0
 21 48  1  0
 24 49  1  0
 24 50  1  0
 24 51  1  0
M  CHG  1  14   1
M  END
>  <UniqueID>  (4) 
4

>  <SMILES>  (4) 
CCNCCNc1c2ccccc2[n+](C)c2[nH]c3cccc(OC)c3c12

>  <Energy>  (4) 
109.15293109559825

>  <Genealogy>  (4) 
CCNCCNc1c2ccccc2[n+](C)c2[nH]c3cccc(OC)c3c12 (3D coordinates assigned)
CCNCCNc1c2ccccc2[n+](C)c2[nH]c3cccc(OC)c3c12 (optimized conformer: 109.15293109559825 kcal/mol)

>  <smiles>  (4) 
CCNCCNc1c2ccccc2[n+](C)c2[nH]c3cccc(OC)c3c12

>  <score_type>  (4) 
oracle

>  <origin>  (4) 
adg

>  <m_score__min__energy>  (4) 
-8.5899999999999999

>  <m_primary>  (4) 
energy

$$$$
4:0
     RDKit          3D

 54 56  0  0  0  0  0  0  0  0999 V2000
   -2.4190   21.0190  -32.4100 C   0  0  0  0  0  0  0  0  0  0  0  0
   -3.8530   20.9800  -32.9330 C   0  0  0  0  0  0  0  0  0  0  0  0
   -4.4740   22.3110  -32.8610 N   0  0  0  0  0  0  0  0  0  0  0  0
   -5.7840   22.2230  -32.2570 C   0  0  0  0  0  0  0  0  0  0  0  0
   -6.6500   21.1880  -32.6630 C   0  0  0  0  0  0  0  0  0  0  0  0
   -7.9320   21.0720  -32.1280 C   0  0  0  0  0  0  0  0  0  0  0  0
   -8.3760   21.9840  -31.1750 C   0  0  0  0  0  0  0  0  0  0  0  0
   -7.5320   23.0090  -30.7430 C   0  0  0  0  0  0  0  0  0  0  0  0
   -6.2260   23.1340  -31.2510 C   0  0  0  0  0  0  0  0  0  0  0  0
   -5.3700   24.2520  -30.6970 C   0  0  0  0  0  0  0  0  0  0  0  0
   -3.9520   23.9780  -30.9740 N   0  0  0  0  0  0  0  0  0  0  0  0
   -3.2590   23.4360  -29.7890 C   0  0  0  0  0  0  0  0  0  0  0  0
   -2.8780   24.5770  -28.8120 C   0  0  0  0  0  0  0  0  0  0  0  0
   -3.0050   24.1810  -27.3290 C   0  0  0  0  0  0  0  0  0  0  0  0
   -2.6170   22.7770  -27.0880 N   0  0  0  0  0  0  0  0  0  0  0  0
   -1.1660   22.5590  -27.2580 C   0  0  0  0  0  0  0  0  0  0  0  0
   -0.9070   21.1740  -27.7880 C   0  0  0  0  0  0  0  0  0  0  0  0
   -0.5480   20.9950  -29.1340 C   0  0  0  0  0  0  0  0  0  0  0  0
   -0.2950   19.7140  -29.6310 C   0  0  0  0  0  0  0  0  0  0  0  0
   -0.4020   18.6030  -28.7900 C   0  0  0  0  0  0  0  0  0  0  0  0
   -0.7610   18.7730  -27.4500 C   0  0  0  0  0  0  0  0  0  0  0  0
   -1.0090   20.0540  -26.9480 C   0  0  0  0  0  0  0  0  0  0  0  0
   -3.4470   21.8060  -27.8470 C   0  0  0  0  0  0  0  0  0  0  0  0
   -4.1530   22.4060  -29.0820 C   0  0  0  0  0  0  0  0  0  0  0  0
   -2.4297   21.0187  -31.3101 H   0  0  0  0  0  0  0  0  0  0  0  0
   -1.8727   20.1354  -32.7716 H   0  0  0  0  0  0  0  0  0  0  0  0
   -1.9215   21.9310  -32.7716 H   0  0  0  0  0  0  0  0  0  0  0  0
   -3.8455   20.6422  -33.9798 H   0  0  0  0  0  0  0  0  0  0  0  0
   -4.4358   20.2860  -32.3095 H   0  0  0  0  0  0  0  0  0  0  0  0
   -4.5620   22.6940  -33.8330 H   0  0  0  0  0  0  0  0  0  0  0  0
   -3.8700   22.9860  -32.3400 H   0  0  0  0  0  0  0  0  0  0  0  0
   -6.3089   20.4602  -33.4139 H   0  0  0  0  0  0  0  0  0  0  0  0
   -8.5938   20.2583  -32.4596 H   0  0  0  0  0  0  0  0  0  0  0  0
   -9.3919   21.8973  -30.7621 H   0  0  0  0  0  0  0  0  0  0  0  0
   -7.8935   23.7294  -29.9944 H   0  0  0  0  0  0  0  0  0  0  0  0
   -5.6579   25.2017  -31.1715 H   0  0  0  0  0  0  0  0  0  0  0  0
   -5.5210   24.3202  -29.6095 H   0  0  0  0  0  0  0  0  0  0  0  0
   -3.5100   24.8960  -31.2280 H   0  0  0  0  0  0  0  0  0  0  0  0
   -2.3348   22.9392  -30.1191 H   0  0  0  0  0  0  0  0  0  0  0  0
   -1.8355   24.8691  -29.0068 H   0  0  0  0  0  0  0  0  0  0  0  0
   -3.5817   25.4039  -28.9885 H   0  0  0  0  0  0  0  0  0  0  0  0
   -2.3536   24.8355  -26.7312 H   0  0  0  0  0  0  0  0  0  0  0  0
   -4.0606   24.2923  -27.0405 H   0  0  0  0  0  0  0  0  0  0  0  0
   -0.7679   23.2997  -27.9671 H   0  0  0  0  0  0  0  0  0  0  0  0
   -0.6698   22.6686  -26.2824 H   0  0  0  0  0  0  0  0  0  0  0  0
   -0.4657   21.8669  -29.7996 H   0  0  0  0  0  0  0  0  0  0  0  0
   -0.0113   19.5798  -30.6853 H   0  0  0  0  0  0  0  0  0  0  0  0
   -0.2037   17.5948  -29.1827 H   0  0  0  0  0  0  0  0  0  0  0  0
   -0.8485   17.8977  -26.7895 H   0  0  0  0  0  0  0  0  0  0  0  0
   -1.2850   20.1847  -25.8912 H   0  0  0  0  0  0  0  0  0  0  0  0
   -2.7960   20.9867  -28.1860 H   0  0  0  0  0  0  0  0  0  0  0  0
   -4.2395   21.4661  -27.1641 H   0  0  0  0  0  0  0  0  0  0  0  0
   -4.3930   21.5960  -29.7865 H   0  0  0  0  0  0  0  0  0  0  0  0
   -5.0695   22.9133  -28.7463 H   0  0  0  0  0  0  0  0  0  0  0  0
  1  2  1  0
  2  3  1  0
  3  4  1  0
  4  5  2  0
  5  6  1  0
  6  7  2  0
  7  8  1  0
  8  9  2  0
  9 10  1  0
 10 11  1  0
 11 12  1  0
 12 13  1  0
 13 14  1  0
 14 15  1  0
 15 16  1  0
 16 17  1  0
 17 18  2  0
 18 19  1  0
 19 20  2  0
 20 21  1  0
 21 22  2  0
 15 23  1  0
 23 24  1  0
  9  4  1  0
 24 12  1  0
 22 17  1  0
  1 25  1  0
  1 26  1  0
  1 27  1  0
  2 28  1  0
  2 29  1  0
  3 30  1  0
  3 31  1  0
  5 32  1  0
  6 33  1  0
  7 34  1  0
  8 35  1  0
 10 36  1  0
 10 37  1  0
 11 38  1  0
 12 39  1  0
 13 40  1  0
 13 41  1  0
 14 42  1  0
 14 43  1  0
 16 44  1  0
 16 45  1  0
 18 46  1  0
 19 47  1  0
 20 48  1  0
 21 49  1  0
 22 50  1  0
 23 51  1  0
 23 52  1  0
 24 53  1  0
 24 54  1  0
M  CHG  1   3   1
M  END
>  <UniqueID>  (5) 
5

>  <SMILES>  (5) 
CC[NH2+]c1ccccc1CNC1CCN(Cc2ccccc2)CC1

>  <Energy>  (5) 
64.48623363489135

>  <Genealogy>  (5) 
CC[NH2+]c1ccccc1CNC1CCN(Cc2ccccc2)CC1 (protonated)
CC[NH2+]c1ccccc1CNC1CCN(Cc2ccccc2)CC1 (3D coordinates assigned)
CC[NH2+]c1ccccc1CNC1CCN(Cc2ccccc2)CC1 (nonaromatic ring conformer: 64.48623363489135 kcal/mol)

>  <smiles>  (5) 
CCNc1ccccc1CNC1CCN(Cc2ccccc2)CC1

>  <score_type>  (5) 
oracle

>  <origin>  (5) 
adg

>  <m_score__min__energy>  (5) 
-7.8799999999999999

>  <m_primary>  (5) 
energy

$$$$
5:0
     RDKit          3D

 42 44  0  0  0  0  0  0  0  0999 V2000
   -3.2110   23.1530  -30.5660 O   0  0  0  0  0  0  0  0  0  0  0  0
   -4.1470   23.9410  -30.8070 N   0  0  0  0  0  0  0  0  0  0  0  0
   -3.9130   25.2960  -30.7920 O   0  0  0  0  0  0  0  0  0  0  0  0
   -5.4510   23.4350  -31.0960 C   0  0  0  0  0  0  0  0  0  0  0  0
   -6.5150   24.1820  -31.5630 C   0  0  0  0  0  0  0  0  0  0  0  0
   -7.5580   23.2890  -31.6960 C   0  0  0  0  0  0  0  0  0  0  0  0
   -7.0550   22.0610  -31.3000 C   0  0  0  0  0  0  0  0  0  0  0  0
   -7.8250   20.7790  -31.2570 C   0  0  0  0  0  0  0  0  0  0  0  0
   -7.1280   19.7430  -32.0420 N   0  0  0  0  0  0  0  0  0  0  0  0
   -6.9960   20.1350  -33.4550 C   0  0  0  0  0  0  0  0  0  0  0  0
   -6.1080   19.1280  -34.2180 C   0  0  0  0  0  0  0  0  0  0  0  0
   -5.9750   17.8150  -33.5340 N   0  0  0  0  0  0  0  0  0  0  0  0
   -4.8280   17.8030  -32.5850 C   0  0  0  0  0  0  0  0  0  0  0  0
   -3.7700   18.8340  -32.9370 C   0  0  0  0  0  0  0  0  0  0  0  0
   -3.8020   20.0850  -32.2940 C   0  0  0  0  0  0  0  0  0  0  0  0
   -2.8570   21.0670  -32.5990 C   0  0  0  0  0  0  0  0  0  0  0  0
   -1.8660   20.8140  -33.5460 C   0  0  0  0  0  0  0  0  0  0  0  0
   -0.9500   21.7690  -33.8410 F   0  0  0  0  0  0  0  0  0  0  0  0
   -1.8130   19.5740  -34.1860 C   0  0  0  0  0  0  0  0  0  0  0  0
   -2.7530   18.5790  -33.8900 C   0  0  0  0  0  0  0  0  0  0  0  0
   -2.6000   17.0350  -34.7200 Cl  0  0  0  0  0  0  0  0  0  0  0  0
   -7.2580   17.4010  -32.9180 C   0  0  0  0  0  0  0  0  0  0  0  0
   -7.8330   18.4520  -31.9410 C   0  0  0  0  0  0  0  0  0  0  0  0
   -5.7960   22.1780  -30.9470 O   0  0  0  0  0  0  0  0  0  0  0  0
   -6.5279   25.2599  -31.7822 H   0  0  0  0  0  0  0  0  0  0  0  0
   -8.5783   23.5072  -32.0445 H   0  0  0  0  0  0  0  0  0  0  0  0
   -7.9167   20.4444  -30.2131 H   0  0  0  0  0  0  0  0  0  0  0  0
   -8.8243   20.9445  -31.6859 H   0  0  0  0  0  0  0  0  0  0  0  0
   -7.9936   20.1603  -33.9178 H   0  0  0  0  0  0  0  0  0  0  0  0
   -6.5279   21.1292  -33.5049 H   0  0  0  0  0  0  0  0  0  0  0  0
   -6.5482   18.9594  -35.2119 H   0  0  0  0  0  0  0  0  0  0  0  0
   -5.1003   19.5654  -34.2757 H   0  0  0  0  0  0  0  0  0  0  0  0
   -5.7600   17.1150  -34.2840 H   0  0  0  0  0  0  0  0  0  0  0  0
   -5.2049   18.0157  -31.5737 H   0  0  0  0  0  0  0  0  0  0  0  0
   -4.3583   16.8099  -32.6416 H   0  0  0  0  0  0  0  0  0  0  0  0
   -4.5792   20.2917  -31.5435 H   0  0  0  0  0  0  0  0  0  0  0  0
   -2.8948   22.0419  -32.0910 H   0  0  0  0  0  0  0  0  0  0  0  0
   -1.0262   19.3771  -34.9290 H   0  0  0  0  0  0  0  0  0  0  0  0
   -7.9917   17.2310  -33.7197 H   0  0  0  0  0  0  0  0  0  0  0  0
   -7.0613   16.4881  -32.3366 H   0  0  0  0  0  0  0  0  0  0  0  0
   -8.8966   18.6089  -32.1736 H   0  0  0  0  0  0  0  0  0  0  0  0
   -7.7018   18.0721  -30.9170 H   0  0  0  0  0  0  0  0  0  0  0  0
  1  2  2  0
  2  3  1  0
  2  4  1  0
  4  5  2  0
  5  6  1  0
  6  7  2  0
  7  8  1  0
  8  9  1  0
  9 10  1  0
 10 11  1  0
 11 12  1  0
 12 13  1  0
 13 14  1  0
 14 15  2  0
 15 16  1  0
 16 17  2  0
 17 18  1  0
 17 19  1  0
 19 20  2  0
 20 21  1  0
 12 22  1  0
 22 23  1  0
  7 24  1  0
 24  4  1  0
 23  9  1  0
 20 14  1  0
  5 25  1  0
  6 26  1  0
  8 27  1  0
  8 28  1  0
 10 29  1  0
 10 30  1  0
 11 31  1  0
 11 32  1  0
 12 33  1  0
 13 34  1  0
 13 35  1  0
 15 36  1  0
 16 37  1  0
 19 38  1  0
 22 39  1  0
 22 40  1  0
 23 41  1  0
 23 42  1  0
M  CHG  3   2   1   3  -1  12   1
M  END
>  <UniqueID>  (6) 
6

>  <SMILES>  (6) 
O=[N+]([O-])c1ccc(CN2CC[NH+](Cc3ccc(F)cc3Cl)CC2)o1

>  <Energy>  (6) 
82.17809993932923

>  <Genealogy>  (6) 
O=[N+]([O-])c1ccc(CN2CC[NH+](Cc3ccc(F)cc3Cl)CC2)o1 (protonated)
O=[N+]([O-])c1ccc(CN2CC[NH+](Cc3ccc(F)cc3Cl)CC2)o1 (3D coordinates assigned)
O=[N+]([O-])c1ccc(CN2CC[NH+](Cc3ccc(F)cc3Cl)CC2)o1 (nonaromatic ring conformer: 82.17809993932923 kcal/mol)

>  <smiles>  (6) 
O=[N+]([O-])c1ccc(CN2CCN(Cc3ccc(F)cc3Cl)CC2)o1

>  <score_type>  (6) 
oracle

>  <origin>  (6) 
adg

>  <m_score__min__energy>  (6) 
-7.2999999999999998

>  <m_primary>  (6) 
energy

$$$$
6:0
     RDKit          3D

 37 37  0  0  0  0  0  0  0  0999 V2000
   -4.7560   18.1250  -34.6030 C   0  0  0  0  0  0  0  0  0  0  0  0
   -6.1050   18.7150  -34.2010 C   0  0  0  0  0  0  0  0  0  0  0  0
   -6.9290   17.6940  -33.5150 N   0  0  0  0  0  0  0  0  0  0  0  0
   -6.5010   16.3350  -33.8970 C   0  0  0  0  0  0  0  0  0  0  0  0
   -6.8770   17.8540  -32.0440 C   0  0  0  0  0  0  0  0  0  0  0  0
   -8.1940   18.4670  -31.5390 C   0  0  0  0  0  0  0  0  0  0  0  0
   -9.0700   18.9570  -32.6180 N   0  0  0  0  0  0  0  0  0  0  0  0
   -9.1900   20.4230  -32.7140 C   0  0  0  0  0  0  0  0  0  0  0  0
   -8.8390   21.1500  -31.3980 C   0  0  0  0  0  0  0  0  0  0  0  0
   -7.5240   21.8910  -31.4670 C   0  0  0  0  0  0  0  0  0  0  0  0
   -6.4420   21.3480  -32.1840 C   0  0  0  0  0  0  0  0  0  0  0  0
   -5.2160   22.0190  -32.2300 C   0  0  0  0  0  0  0  0  0  0  0  0
   -3.8640   21.3170  -33.1000 Cl  0  0  0  0  0  0  0  0  0  0  0  0
   -5.0650   23.2470  -31.5780 C   0  0  0  0  0  0  0  0  0  0  0  0
   -6.1440   23.8100  -30.8890 C   0  0  0  0  0  0  0  0  0  0  0  0
   -5.9560   25.3540  -30.0780 Cl  0  0  0  0  0  0  0  0  0  0  0  0
   -7.3720   23.1410  -30.8440 C   0  0  0  0  0  0  0  0  0  0  0  0
   -4.1817   17.8738  -33.6991 H   0  0  0  0  0  0  0  0  0  0  0  0
   -4.9169   17.2151  -35.1998 H   0  0  0  0  0  0  0  0  0  0  0  0
   -4.1972   18.8609  -35.1998 H   0  0  0  0  0  0  0  0  0  0  0  0
   -5.9414   19.5651  -33.5223 H   0  0  0  0  0  0  0  0  0  0  0  0
   -6.6323   19.0511  -35.1060 H   0  0  0  0  0  0  0  0  0  0  0  0
   -6.3139   15.7410  -32.9902 H   0  0  0  0  0  0  0  0  0  0  0  0
   -7.2916   15.8555  -34.4928 H   0  0  0  0  0  0  0  0  0  0  0  0
   -5.5783   16.3951  -34.4928 H   0  0  0  0  0  0  0  0  0  0  0  0
   -6.7287   16.8702  -31.5748 H   0  0  0  0  0  0  0  0  0  0  0  0
   -6.0422   18.5202  -31.7807 H   0  0  0  0  0  0  0  0  0  0  0  0
   -8.7392   17.6992  -30.9704 H   0  0  0  0  0  0  0  0  0  0  0  0
   -7.9280   19.3367  -30.9202 H   0  0  0  0  0  0  0  0  0  0  0  0
   -8.6960   18.6020  -33.5290 H   0  0  0  0  0  0  0  0  0  0  0  0
   -8.5097   20.7785  -33.5019 H   0  0  0  0  0  0  0  0  0  0  0  0
  -10.2417   20.6504  -32.9423 H   0  0  0  0  0  0  0  0  0  0  0  0
   -9.6373   21.8724  -31.1726 H   0  0  0  0  0  0  0  0  0  0  0  0
   -8.7453   20.3846  -30.6135 H   0  0  0  0  0  0  0  0  0  0  0  0
   -6.5612   20.3901  -32.7114 H   0  0  0  0  0  0  0  0  0  0  0  0
   -4.0977   23.7700  -31.6071 H   0  0  0  0  0  0  0  0  0  0  0  0
   -8.2237   23.5966  -30.3176 H   0  0  0  0  0  0  0  0  0  0  0  0
  1  2  1  0
  2  3  1  0
  3  4  1  0
  3  5  1  0
  5  6  1  0
  6  7  1  0
  7  8  1  0
  8  9  1  0
  9 10  1  0
 10 11  2  0
 11 12  1  0
 12 13  1  0
 12 14  2  0
 14 15  1  0
 15 16  1  0
 15 17  2  0
 17 10  1  0
  1 18  1  0
  1 19  1  0
  1 20  1  0
  2 21  1  0
  2 22  1  0
  4 23  1  0
  4 24  1  0
  4 25  1  0
  5 26  1  0
  5 27  1  0
  6 28  1  0
  6 29  1  0
  7 30  1  0
  8 31  1  0
  8 32  1  0
  9 33  1  0
  9 34  1  0
 11 35  1  0
 14 36  1  0
 17 37  1  0
M  END
>  <UniqueID>  (7) 
7

>  <SMILES>  (7) 
CCN(C)CCNCCc1cc(Cl)cc(Cl)c1

>  <Energy>  (7) 
33.65177903836377

>  <Genealogy>  (7) 
CCN(C)CCNCCc1cc(Cl)cc(Cl)c1 (3D coordinates assigned)
CCN(C)CCNCCc1cc(Cl)cc(Cl)c1 (optimized conformer: 33.65177903836377 kcal/mol)

>  <smiles>  (7) 
CCN(C)CCNCCc1cc(Cl)cc(Cl)c1

>  <score_type>  (7) 
oracle

>  <origin>  (7) 
adg

>  <m_score__min__energy>  (7) 
-7.0800000000000001

>  <m_primary>  (7) 
energy

$$$$
7:0
     RDKit          3D

 44 46  0  0  0  0  0  0  0  0999 V2000
   -2.1918   20.2683  -33.3162 H   0  0  0  0  0  0  0  0  0  0  0  0
   -3.2480   20.2020  -33.0160 C   0  0  0  0  0  0  0  0  0  0  0  0
   -4.1680   19.5560  -33.8450 C   0  0  0  0  0  0  0  0  0  0  0  0
   -3.8289   19.0958  -34.7848 H   0  0  0  0  0  0  0  0  0  0  0  0
   -5.5260   19.4910  -33.4840 C   0  0  0  0  0  0  0  0  0  0  0  0
   -6.4800   18.8350  -34.3480 N   0  0  0  0  0  0  0  0  0  0  0  0
   -7.4230   18.8690  -33.8960 H   0  0  0  0  0  0  0  0  0  0  0  0
   -6.5610   19.3410  -35.2620 H   0  0  0  0  0  0  0  0  0  0  0  0
   -6.1220   17.4260  -34.5820 C   0  0  0  0  0  0  0  0  0  0  0  0
   -5.0552   17.3711  -34.8443 H   0  0  0  0  0  0  0  0  0  0  0  0
   -6.7565   17.0488  -35.3976 H   0  0  0  0  0  0  0  0  0  0  0  0
   -6.3720   16.5500  -33.3510 C   0  0  0  0  0  0  0  0  0  0  0  0
   -6.2031   17.1419  -32.4393 H   0  0  0  0  0  0  0  0  0  0  0  0
   -7.4099   16.1859  -33.3647 H   0  0  0  0  0  0  0  0  0  0  0  0
   -5.6826   15.6930  -33.3647 H   0  0  0  0  0  0  0  0  0  0  0  0
   -5.9460   20.0980  -32.2860 C   0  0  0  0  0  0  0  0  0  0  0  0
   -7.0072   20.0645  -31.9983 H   0  0  0  0  0  0  0  0  0  0  0  0
   -5.0220   20.7430  -31.4600 C   0  0  0  0  0  0  0  0  0  0  0  0
   -5.3621   21.2345  -30.5366 H   0  0  0  0  0  0  0  0  0  0  0  0
   -3.6660   20.7660  -31.8030 C   0  0  0  0  0  0  0  0  0  0  0  0
   -2.7380   21.4840  -30.9830 N   0  0  0  0  0  0  0  0  0  0  0  0
   -2.8270   22.6740  -30.4450 C   0  0  0  0  0  0  0  0  0  0  0  0
   -3.9350   23.4370  -30.8340 C   0  0  0  0  0  0  0  0  0  0  0  0
   -4.6919   22.9978  -31.5005 H   0  0  0  0  0  0  0  0  0  0  0  0
   -4.0880   24.7470  -30.3850 C   0  0  0  0  0  0  0  0  0  0  0  0
   -5.2490   25.5730  -30.8400 C   0  0  0  0  0  0  0  0  0  0  0  0
   -5.7907   25.9584  -29.9636 H   0  0  0  0  0  0  0  0  0  0  0  0
   -4.8844   26.4159  -31.4455 H   0  0  0  0  0  0  0  0  0  0  0  0
   -5.9257   24.9522  -31.4455 H   0  0  0  0  0  0  0  0  0  0  0  0
   -3.1600   25.2860  -29.5610 N   0  0  0  0  0  0  0  0  0  0  0  0
   -2.0790   24.5910  -29.1200 C   0  0  0  0  0  0  0  0  0  0  0  0
   -1.8950   23.2340  -29.5090 C   0  0  0  0  0  0  0  0  0  0  0  0
   -0.7360   22.4420  -28.9210 C   0  0  0  0  0  0  0  0  0  0  0  0
   -1.1023   21.4402  -28.6522 H   0  0  0  0  0  0  0  0  0  0  0  0
    0.0518   22.4123  -29.6882 H   0  0  0  0  0  0  0  0  0  0  0  0
   -0.1180   23.0790  -27.6750 C   0  0  0  0  0  0  0  0  0  0  0  0
   -0.8120   22.9699  -26.8286 H   0  0  0  0  0  0  0  0  0  0  0  0
    0.8328   22.5749  -27.4474 H   0  0  0  0  0  0  0  0  0  0  0  0
    0.1490   24.5590  -27.9200 C   0  0  0  0  0  0  0  0  0  0  0  0
    0.6663   24.9870  -27.0487 H   0  0  0  0  0  0  0  0  0  0  0  0
    0.7788   24.6739  -28.8145 H   0  0  0  0  0  0  0  0  0  0  0  0
   -1.1740   25.2880  -28.1340 C   0  0  0  0  0  0  0  0  0  0  0  0
   -1.6958   25.3579  -27.1682 H   0  0  0  0  0  0  0  0  0  0  0  0
   -0.9397   26.2802  -28.5472 H   0  0  0  0  0  0  0  0  0  0  0  0
  1  2  1  0
  2  3  2  0
  3  4  1  0
  3  5  1  0
  5  6  1  0
  6  7  1  0
  6  8  1  0
  6  9  1  0
  9 10  1  0
  9 11  1  0
  9 12  1  0
 12 13  1  0
 12 14  1  0
 12 15  1  0
  5 16  2  0
 16 17  1  0
 16 18  1  0
 18 19  1  0
 18 20  2  0
 20 21  1  0
 21 22  2  0
 22 23  1  0
 23 24  1  0
 23 25  2  0
 25 26  1  0
 26 27  1  0
 26 28  1  0
 26 29  1  0
 25 30  1  0
 30 31  1  0
 31 32  2  0
 32 33  1  0
 33 34  1  0
 33 35  1  0
 33 36  1  0
 36 37  1  0
 36 38  1  0
 36 39  1  0
 39 40  1  0
 39 41  1  0
 39 42  1  0
 42 43  1  0
 42 44  1  0
 20  2  1  0
 32 22  1  0
 42 31  1  0
M  CHG  2   6   1  30  -1
M  END
>  <UniqueID>  (8) 
8

>  <SMILES>  (8) 
CC[NH2+]c1ccc(/N=c2/cc(C)[n-]c3c2CCCC3)cc1

>  <Energy>  (8) 
61.09725347458032

>  <Genealogy>  (8) 
CC[NH2+]c1ccc(N=c2cc(C)[n-]c3c2CCCC3)cc1 (protonated)
CC[NH2+]c1ccc(/N=c2/cc(C)[n-]c3c2CCCC3)cc1 (cis-trans isomerization)
CC[NH2+]c1ccc(/N=c2/cc(C)[n-]c3c2CCCC3)cc1 (3D coordinates assigned)
CC[NH2+]c1ccc(/N=c2/cc(C)[n-]c3c2CCCC3)cc1 (nonaromatic ring conformer: 61.09725347458032 kcal/mol)

>  <smiles>  (8) 
CCNc1ccc(N=c2cc(C)[nH]c3c2CCCC3)cc1

>  <score_type>  (8) 
oracle

>  <origin>  (8) 
adg

>  <m_score__min__energy>  (8) 
-8.2799999999999994

>  <m_primary>  (8) 
energy

$$$$
8:0
     RDKit          3D

 53 54  0  0  0  0  0  0  0  0999 V2000
   -7.3232   25.5794  -31.1157 H   0  0  0  0  0  0  0  0  0  0  0  0
   -6.4580   24.9280  -30.9230 C   0  0  0  0  0  0  0  0  0  0  0  0
   -6.5170   23.5710  -31.2680 C   0  0  0  0  0  0  0  0  0  0  0  0
   -7.7410   23.0110  -31.9290 C   0  0  0  0  0  0  0  0  0  0  0  0
   -8.4560   22.6839  -31.1597 H   0  0  0  0  0  0  0  0  0  0  0  0
   -8.2061   23.7859  -32.5561 H   0  0  0  0  0  0  0  0  0  0  0  0
   -7.4588   22.1524  -32.5561 H   0  0  0  0  0  0  0  0  0  0  0  0
   -5.3990   22.7520  -31.0510 C   0  0  0  0  0  0  0  0  0  0  0  0
   -5.4296   21.6956  -31.3562 H   0  0  0  0  0  0  0  0  0  0  0  0
   -4.2360   23.2710  -30.4450 C   0  0  0  0  0  0  0  0  0  0  0  0
   -3.1060   22.4640  -30.1760 C   0  0  0  0  0  0  0  0  0  0  0  0
   -3.1400   21.1910  -30.4650 N   0  0  0  0  0  0  0  0  0  0  0  0
   -2.2930   20.4890  -31.4280 C   0  0  0  0  0  0  0  0  0  0  0  0
   -1.7172   19.7103  -30.9063 H   0  0  0  0  0  0  0  0  0  0  0  0
   -1.6076   21.2100  -31.8974 H   0  0  0  0  0  0  0  0  0  0  0  0
   -3.1610   19.8360  -32.5180 C   0  0  0  0  0  0  0  0  0  0  0  0
   -2.9250   18.7624  -32.5583 H   0  0  0  0  0  0  0  0  0  0  0  0
   -2.9331   20.3412  -33.4682 H   0  0  0  0  0  0  0  0  0  0  0  0
   -4.6060   19.9910  -32.2700 N   0  0  0  0  0  0  0  0  0  0  0  0
   -4.7570   20.6730  -31.4910 H   0  0  0  0  0  0  0  0  0  0  0  0
   -4.9560   19.0670  -31.9220 H   0  0  0  0  0  0  0  0  0  0  0  0
   -5.3850   20.3520  -33.4790 C   0  0  0  0  0  0  0  0  0  0  0  0
   -4.8403   20.0073  -34.3703 H   0  0  0  0  0  0  0  0  0  0  0  0
   -5.5110   21.4447  -33.4926 H   0  0  0  0  0  0  0  0  0  0  0  0
   -6.7880   19.7050  -33.4680 C   0  0  0  0  0  0  0  0  0  0  0  0
   -6.8573   19.0205  -34.3263 H   0  0  0  0  0  0  0  0  0  0  0  0
   -7.5133   20.5306  -33.5161 H   0  0  0  0  0  0  0  0  0  0  0  0
   -7.1030   18.9380  -32.2370 N   0  0  0  0  0  0  0  0  0  0  0  0
   -6.8800   17.4750  -32.3370 C   0  0  0  0  0  0  0  0  0  0  0  0
   -7.8163   16.9647  -32.0669 H   0  0  0  0  0  0  0  0  0  0  0  0
   -6.0503   17.2360  -31.6555 H   0  0  0  0  0  0  0  0  0  0  0  0
   -6.4540   16.9920  -33.7360 C   0  0  0  0  0  0  0  0  0  0  0  0
   -5.7294   16.1705  -33.6354 H   0  0  0  0  0  0  0  0  0  0  0  0
   -7.3377   16.6362  -34.2859 H   0  0  0  0  0  0  0  0  0  0  0  0
   -5.9906   17.8244  -34.2859 H   0  0  0  0  0  0  0  0  0  0  0  0
   -8.3370   19.3510  -31.5330 C   0  0  0  0  0  0  0  0  0  0  0  0
   -8.7297   18.4956  -30.9637 H   0  0  0  0  0  0  0  0  0  0  0  0
   -8.0928   20.1842  -30.8577 H   0  0  0  0  0  0  0  0  0  0  0  0
   -9.4010   19.8230  -32.5230 C   0  0  0  0  0  0  0  0  0  0  0  0
  -10.2705   20.2087  -31.9706 H   0  0  0  0  0  0  0  0  0  0  0  0
   -8.9850   20.6210  -33.1556 H   0  0  0  0  0  0  0  0  0  0  0  0
   -9.7134   18.9790  -33.1556 H   0  0  0  0  0  0  0  0  0  0  0  0
   -1.9710   23.0590  -29.5870 C   0  0  0  0  0  0  0  0  0  0  0  0
   -1.0752   22.4537  -29.3839 H   0  0  0  0  0  0  0  0  0  0  0  0
   -1.9850   24.4200  -29.2610 C   0  0  0  0  0  0  0  0  0  0  0  0
   -0.7960   25.0520  -28.6090 C   0  0  0  0  0  0  0  0  0  0  0  0
   -0.9037   24.9948  -27.5158 H   0  0  0  0  0  0  0  0  0  0  0  0
    0.1165   24.5199  -28.9159 H   0  0  0  0  0  0  0  0  0  0  0  0
   -0.7266   26.1060  -28.9159 H   0  0  0  0  0  0  0  0  0  0  0  0
   -3.0900   25.1680  -29.5150 N   0  0  0  0  0  0  0  0  0  0  0  0
   -4.2000   24.6400  -30.0930 C   0  0  0  0  0  0  0  0  0  0  0  0
   -5.3070   25.4580  -30.3360 C   0  0  0  0  0  0  0  0  0  0  0  0
   -5.2715   26.5232  -30.0639 H   0  0  0  0  0  0  0  0  0  0  0  0
  1  2  1  0
  2  3  2  0
  3  4  1  0
  4  5  1  0
  4  6  1  0
  4  7  1  0
  3  8  1  0
  8  9  1  0
  8 10  2  0
 10 11  1  0
 11 12  2  0
 12 13  1  0
 13 14  1  0
 13 15  1  0
 13 16  1  0
 16 17  1  0
 16 18  1  0
 16 19  1  0
 19 20  1  0
 19 21  1  0
 19 22  1  0
 22 23  1  0
 22 24  1  0
 22 25  1  0
 25 26  1  0
 25 27  1  0
 25 28  1  0
 28 29  1  0
 29 30  1  0
 29 31  1  0
 29 32  1  0
 32 33  1  0
 32 34  1  0
 32 35  1  0
 28 36  1  0
 36 37  1  0
 36 38  1  0
 36 39  1  0
 39 40  1  0
 39 41  1  0
 39 42  1  0
 11 43  1  0
 43 44  1  0
 43 45  2  0
 45 46  1  0
 46 47  1  0
 46 48  1  0
 46 49  1  0
 45 50  1  0
 50 51  1  0
 51 52  2  0
 52 53  1  0
 52  2  1  0
 51 10  1  0
M  CHG  2  19   1  50  -1
M  END
>  <UniqueID>  (9) 
9

>  <SMILES>  (9) 
CCN(CC)CC[NH2+]CC/N=c1\cc(C)[n-]c2ccc(C)cc12

>  <Energy>  (9) 
59.84153597760754

>  <Genealogy>  (9) 
CCN(CC)CC[NH2+]CCN=c1cc(C)[n-]c2ccc(C)cc12 (protonated)
CCN(CC)CC[NH2+]CC/N=c1\cc(C)[n-]c2ccc(C)cc12 (cis-trans isomerization)
CCN(CC)CC[NH2+]CC/N=c1\cc(C)[n-]c2ccc(C)cc12 (3D coordinates assigned)
CCN(CC)CC[NH2+]CC/N=c1\cc(C)[n-]c2ccc(C)cc12 (optimized conformer: 59.84153597760754 kcal/mol)

>  <smiles>  (9) 
CCN(CC)CCNCCN=c1cc(C)[nH]c2ccc(C)cc12

>  <score_type>  (9) 
oracle

>  <origin>  (9) 
adg

>  <m_score__min__energy>  (9) 
-8.1699999999999999

>  <m_primary>  (9) 
energy

$$$$
9:0
     RDKit          3D

 58 60  0  0  0  0  0  0  0  0999 V2000
   -0.0850   23.9480  -27.9760 C   0  0  0  0  0  0  0  0  0  0  0  0
   -1.0850   24.3660  -29.0540 C   0  0  0  0  0  0  0  0  0  0  0  0
   -1.9680   25.4370  -28.5670 N   0  0  0  0  0  0  0  0  0  0  0  0
   -2.1570   25.4010  -27.1050 C   0  0  0  0  0  0  0  0  0  0  0  0
   -3.3600   24.5210  -26.7670 C   0  0  0  0  0  0  0  0  0  0  0  0
   -4.3320   24.5450  -27.8700 N   0  0  0  0  0  0  0  0  0  0  0  0
   -4.3860   23.2580  -28.5820 C   0  0  0  0  0  0  0  0  0  0  0  0
   -3.9960   23.3950  -30.0650 C   0  0  0  0  0  0  0  0  0  0  0  0
   -4.1340   24.7350  -30.4970 O   0  0  0  0  0  0  0  0  0  0  0  0
   -5.4780   25.0510  -30.8130 C   0  0  0  0  0  0  0  0  0  0  0  0
   -6.2670   23.7740  -31.1030 C   0  0  0  0  0  0  0  0  0  0  0  0
   -5.9380   23.2410  -32.4240 N   0  0  0  0  0  0  0  0  0  0  0  0
   -5.9100   21.8210  -32.6340 C   0  0  0  0  0  0  0  0  0  0  0  0
   -4.6970   21.1680  -32.9160 C   0  0  0  0  0  0  0  0  0  0  0  0
   -3.4790   21.8820  -32.9390 C   0  0  0  0  0  0  0  0  0  0  0  0
   -2.2730   21.2250  -33.1760 C   0  0  0  0  0  0  0  0  0  0  0  0
   -2.2590   19.8510  -33.3880 C   0  0  0  0  0  0  0  0  0  0  0  0
   -3.4530   19.1270  -33.3880 C   0  0  0  0  0  0  0  0  0  0  0  0
   -4.7000   19.7730  -33.1840 C   0  0  0  0  0  0  0  0  0  0  0  0
   -5.8950   19.0780  -33.2300 N   0  0  0  0  0  0  0  0  0  0  0  0
   -5.9350   17.7100  -33.7940 C   0  0  0  0  0  0  0  0  0  0  0  0
   -7.0590   19.6720  -32.7760 C   0  0  0  0  0  0  0  0  0  0  0  0
   -8.2420   18.9230  -32.5470 C   0  0  0  0  0  0  0  0  0  0  0  0
   -9.4180   19.5450  -32.1270 C   0  0  0  0  0  0  0  0  0  0  0  0
   -9.4460   20.9180  -31.9150 C   0  0  0  0  0  0  0  0  0  0  0  0
   -8.2910   21.6750  -32.0970 C   0  0  0  0  0  0  0  0  0  0  0  0
   -7.0880   21.0670  -32.5090 C   0  0  0  0  0  0  0  0  0  0  0  0
   -0.5199   24.1298  -26.9821 H   0  0  0  0  0  0  0  0  0  0  0  0
    0.1459   22.8780  -28.0851 H   0  0  0  0  0  0  0  0  0  0  0  0
    0.8386   24.5354  -28.0851 H   0  0  0  0  0  0  0  0  0  0  0  0
   -0.5342   24.7267  -29.9352 H   0  0  0  0  0  0  0  0  0  0  0  0
   -1.7028   23.4944  -29.3159 H   0  0  0  0  0  0  0  0  0  0  0  0
   -2.9040   25.3080  -29.0230 H   0  0  0  0  0  0  0  0  0  0  0  0
   -1.2555   24.9878  -26.6290 H   0  0  0  0  0  0  0  0  0  0  0  0
   -2.3337   26.4212  -26.7335 H   0  0  0  0  0  0  0  0  0  0  0  0
   -3.0201   23.4875  -26.6045 H   0  0  0  0  0  0  0  0  0  0  0  0
   -3.8414   24.9054  -25.8557 H   0  0  0  0  0  0  0  0  0  0  0  0
   -4.0840   25.3100  -28.5400 H   0  0  0  0  0  0  0  0  0  0  0  0
   -3.6920   22.5558  -28.0970 H   0  0  0  0  0  0  0  0  0  0  0  0
   -5.4225   22.8922  -28.5386 H   0  0  0  0  0  0  0  0  0  0  0  0
   -2.9499   23.0801  -30.1938 H   0  0  0  0  0  0  0  0  0  0  0  0
   -4.6629   22.7594  -30.6660 H   0  0  0  0  0  0  0  0  0  0  0  0
   -5.9372   25.5765  -29.9627 H   0  0  0  0  0  0  0  0  0  0  0  0
   -5.4951   25.6937  -31.7056 H   0  0  0  0  0  0  0  0  0  0  0  0
   -6.0230   23.0199  -30.3403 H   0  0  0  0  0  0  0  0  0  0  0  0
   -7.3404   24.0135  -31.0801 H   0  0  0  0  0  0  0  0  0  0  0  0
   -6.1080   23.8520  -33.2570 H   0  0  0  0  0  0  0  0  0  0  0  0
   -3.4821   22.9686  -32.7680 H   0  0  0  0  0  0  0  0  0  0  0  0
   -1.3317   21.7938  -33.1953 H   0  0  0  0  0  0  0  0  0  0  0  0
   -1.3037   19.3323  -33.5564 H   0  0  0  0  0  0  0  0  0  0  0  0
   -3.4266   18.0391  -33.5486 H   0  0  0  0  0  0  0  0  0  0  0  0
   -5.9565   16.9762  -32.9748 H   0  0  0  0  0  0  0  0  0  0  0  0
   -6.8369   17.5949  -34.4131 H   0  0  0  0  0  0  0  0  0  0  0  0
   -5.0414   17.5424  -34.4131 H   0  0  0  0  0  0  0  0  0  0  0  0
   -8.2318   17.8342  -32.7032 H   0  0  0  0  0  0  0  0  0  0  0  0
  -10.3262   18.9465  -31.9631 H   0  0  0  0  0  0  0  0  0  0  0  0
  -10.3806   21.4073  -31.6033 H   0  0  0  0  0  0  0  0  0  0  0  0
   -8.3181   22.7599  -31.9171 H   0  0  0  0  0  0  0  0  0  0  0  0
  1  2  1  0
  2  3  1  0
  3  4  1  0
  4  5  1  0
  5  6  1  0
  6  7  1  0
  7  8  1  0
  8  9  1  0
  9 10  1  0
 10 11  1  0
 11 12  1  0
 12 13  1  0
 13 14  2  0
 14 15  1  0
 15 16  2  0
 16 17  1  0
 17 18  2  0
 18 19  1  0
 19 20  2  0
 20 21  1  0
 20 22  1  0
 22 23  2  0
 23 24  1  0
 24 25  2  0
 25 26  1  0
 26 27  2  0
 27 13  1  0
 19 14  1  0
 27 22  1  0
  1 28  1  0
  1 29  1  0
  1 30  1  0
  2 31  1  0
  2 32  1  0
  3 33  1  0
  4 34  1  0
  4 35  1  0
  5 36  1  0
  5 37  1  0
  6 38  1  0
  7 39  1  0
  7 40  1  0
  8 41  1  0
  8 42  1  0
 10 43  1  0
 10 44  1  0
 11 45  1  0
 11 46  1  0
 12 47  1  0
 15 48  1  0
 16 49  1  0
 17 50  1  0
 18 51  1  0
 21 52  1  0
 21 53  1  0
 21 54  1  0
 23 55  1  0
 24 56  1  0
 25 57  1  0
 26 58  1  0
M  CHG  1  20   1
M  END
>  <UniqueID>  (10) 
10

>  <SMILES>  (10) 
CCNCCNCCOCCNc1c2ccccc2[n+](C)c2ccccc12

>  <Energy>  (10) 
82.58233648035832

>  <Genealogy>  (10) 
CCNCCNCCOCCNc1c2ccccc2[n+](C)c2ccccc12 (3D coordinates assigned)
CCNCCNCCOCCNc1c2ccccc2[n+](C)c2ccccc12 (optimized conformer: 82.58233648035832 kcal/mol)

>  <smiles>  (10) 
CCNCCNCCOCCNc1c2ccccc2[n+](C)c2ccccc12

>  <score_type>  (10) 
oracle

>  <origin>  (10) 
adg

>  <m_score__min__energy>  (10) 
-8.5800000000000001

>  <m_primary>  (10) 
energy

$$$$
10:0
     RDKit          3D

 43 45  0  0  0  0  0  0  0  0999 V2000
   -6.1700   25.6440  -29.8080 C   0  0  0  0  0  0  0  0  0  0  0  0
   -4.9700   24.7960  -30.2150 C   0  0  0  0  0  0  0  0  0  0  0  0
   -4.7790   23.7000  -29.2410 N   0  0  0  0  0  0  0  0  0  0  0  0
   -4.2010   24.1620  -27.9690 C   0  0  0  0  0  0  0  0  0  0  0  0
   -4.1360   22.4820  -29.7910 C   0  0  0  0  0  0  0  0  0  0  0  0
   -3.5190   22.6170  -31.2060 C   0  0  0  0  0  0  0  0  0  0  0  0
   -3.9640   21.5570  -32.2300 C   0  0  0  0  0  0  0  0  0  0  0  0
   -5.0550   22.0440  -33.0920 N   0  0  0  0  0  0  0  0  0  0  0  0
   -6.3340   21.6810  -32.5300 C   0  0  0  0  0  0  0  0  0  0  0  0
   -7.0960   22.6870  -31.8940 C   0  0  0  0  0  0  0  0  0  0  0  0
   -8.3130   22.3800  -31.2740 C   0  0  0  0  0  0  0  0  0  0  0  0
   -8.7810   21.1060  -31.2790 N   0  0  0  0  0  0  0  0  0  0  0  0
   -8.0820   20.1290  -31.9030 C   0  0  0  0  0  0  0  0  0  0  0  0
   -8.5550   18.5220  -31.9830 S   0  0  0  0  0  0  0  0  0  0  0  0
   -7.2230   18.0640  -32.8980 C   0  0  0  0  0  0  0  0  0  0  0  0
   -6.9600   16.7830  -33.3740 C   0  0  0  0  0  0  0  0  0  0  0  0
   -5.8230   16.5830  -34.1600 C   0  0  0  0  0  0  0  0  0  0  0  0
   -4.9810   17.6610  -34.4710 C   0  0  0  0  0  0  0  0  0  0  0  0
   -3.8960   17.4600  -35.2580 F   0  0  0  0  0  0  0  0  0  0  0  0
   -5.2600   18.9490  -33.9860 C   0  0  0  0  0  0  0  0  0  0  0  0
   -6.3880   19.1590  -33.1660 C   0  0  0  0  0  0  0  0  0  0  0  0
   -6.8710   20.3610  -32.5670 C   0  0  0  0  0  0  0  0  0  0  0  0
   -6.2325   25.6882  -28.7107 H   0  0  0  0  0  0  0  0  0  0  0  0
   -6.0533   26.6613  -30.2099 H   0  0  0  0  0  0  0  0  0  0  0  0
   -7.0900   25.1943  -30.2099 H   0  0  0  0  0  0  0  0  0  0  0  0
   -5.1453   24.3705  -31.2141 H   0  0  0  0  0  0  0  0  0  0  0  0
   -4.0689   25.4266  -30.2342 H   0  0  0  0  0  0  0  0  0  0  0  0
   -4.7572   23.7174  -27.1306 H   0  0  0  0  0  0  0  0  0  0  0  0
   -3.1461   23.8554  -27.9128 H   0  0  0  0  0  0  0  0  0  0  0  0
   -4.2676   25.2585  -27.9128 H   0  0  0  0  0  0  0  0  0  0  0  0
   -3.3325   22.1853  -29.1008 H   0  0  0  0  0  0  0  0  0  0  0  0
   -4.9427   21.7408  -29.8898 H   0  0  0  0  0  0  0  0  0  0  0  0
   -3.7933   23.6060  -31.6018 H   0  0  0  0  0  0  0  0  0  0  0  0
   -2.4360   22.4743  -31.0767 H   0  0  0  0  0  0  0  0  0  0  0  0
   -3.1039   21.2913  -32.8622 H   0  0  0  0  0  0  0  0  0  0  0  0
   -4.3352   20.6834  -31.6742 H   0  0  0  0  0  0  0  0  0  0  0  0
   -4.9640   21.6000  -34.0350 H   0  0  0  0  0  0  0  0  0  0  0  0
   -5.0110   23.0690  -33.2740 H   0  0  0  0  0  0  0  0  0  0  0  0
   -6.7284   23.7237  -31.8860 H   0  0  0  0  0  0  0  0  0  0  0  0
   -8.8923   23.1745  -30.7808 H   0  0  0  0  0  0  0  0  0  0  0  0
   -7.6331   15.9461  -33.1363 H   0  0  0  0  0  0  0  0  0  0  0  0
   -5.5869   15.5767  -34.5365 H   0  0  0  0  0  0  0  0  0  0  0  0
   -4.6012   19.7910  -34.2447 H   0  0  0  0  0  0  0  0  0  0  0  0
  1  2  1  0
  2  3  1  0
  3  4  1  0
  3  5  1  0
  5  6  1  0
  6  7  1  0
  7  8  1  0
  8  9  1  0
  9 10  2  0
 10 11  1  0
 11 12  2  0
 12 13  1  0
 13 14  1  0
 14 15  1  0
 15 16  2  0
 16 17  1  0
 17 18  2  0
 18 19  1  0
 18 20  1  0
 20 21  2  0
 21 22  1  0
 22  9  1  0
 22 13  2  0
 21 15  1  0
  1 23  1  0
  1 24  1  0
  1 25  1  0
  2 26  1  0
  2 27  1  0
  4 28  1  0
  4 29  1  0
  4 30  1  0
  5 31  1  0
  5 32  1  0
  6 33  1  0
  6 34  1  0
  7 35  1  0
  7 36  1  0
  8 37  1  0
  8 38  1  0
 10 39  1  0
 11 40  1  0
 16 41  1  0
 17 42  1  0
 20 43  1  0
M  CHG  1   8   1
M  END
>  <UniqueID>  (11) 
11

>  <SMILES>  (11) 
CCN(C)CCC[NH2+]c1ccnc2sc3ccc(F)cc3c12

>  <Energy>  (11) 
93.01106512891458

>  <Genealogy>  (11) 
CCN(C)CCC[NH2+]c1ccnc2sc3ccc(F)cc3c12 (protonated)
CCN(C)CCC[NH2+]c1ccnc2sc3ccc(F)cc3c12 (3D coordinates assigned)
CCN(C)CCC[NH2+]c1ccnc2sc3ccc(F)cc3c12 (optimized conformer: 93.01106512891458 kcal/mol)

>  <smiles>  (11) 
CCN(C)CCCNc1ccnc2sc3ccc(F)cc3c12

>  <score_type>  (11) 
oracle

>  <origin>  (11) 
adg

>  <m_score__min__energy>  (11) 
-7.9199999999999999

>  <m_primary>  (11) 
energy

$$$$
11:0
     RDKit          3D

 76 79  0  0  0  0  0  0  0  0999 V2000
   -4.0220   24.4810  -27.0210 C   0  0  0  0  0  0  0  0  0  0  0  0
   -3.7510   23.7660  -28.3530 C   0  0  0  0  0  0  0  0  0  0  0  0
   -4.9520   23.5170  -29.1910 N   0  0  0  0  0  0  0  0  0  0  0  0
   -5.8650   24.6590  -29.4340 C   0  0  0  0  0  0  0  0  0  0  0  0
   -5.2440   25.6570  -30.4190 C   0  0  0  0  0  0  0  0  0  0  0  0
   -3.8710   25.4280  -30.5760 O   0  0  0  0  0  0  0  0  0  0  0  0
   -4.7200   22.6550  -30.3710 C   0  0  0  0  0  0  0  0  0  0  0  0
   -5.6990   22.9240  -31.5240 C   0  0  0  0  0  0  0  0  0  0  0  0
   -5.3160   22.1620  -32.7120 N   0  0  0  0  0  0  0  0  0  0  0  0
   -5.4530   20.7310  -32.7710 C   0  0  0  0  0  0  0  0  0  0  0  0
   -6.7070   20.1260  -32.5760 C   0  0  0  0  0  0  0  0  0  0  0  0
   -7.8280   20.8910  -32.1870 C   0  0  0  0  0  0  0  0  0  0  0  0
   -9.0620   20.2850  -31.9680 C   0  0  0  0  0  0  0  0  0  0  0  0
   -9.1970   18.9090  -32.1090 C   0  0  0  0  0  0  0  0  0  0  0  0
   -8.1010   18.1300  -32.4750 C   0  0  0  0  0  0  0  0  0  0  0  0
   -6.8370   18.7200  -32.7380 C   0  0  0  0  0  0  0  0  0  0  0  0
   -5.7440   17.9620  -33.1180 N   0  0  0  0  0  0  0  0  0  0  0  0
   -5.9320   16.5630  -33.5590 C   0  0  0  0  0  0  0  0  0  0  0  0
   -4.4780   18.5190  -33.1010 C   0  0  0  0  0  0  0  0  0  0  0  0
   -3.3120   17.7220  -33.2020 C   0  0  0  0  0  0  0  0  0  0  0  0
   -2.0430   18.3000  -33.2460 C   0  0  0  0  0  0  0  0  0  0  0  0
   -1.8960   19.6920  -33.1840 C   0  0  0  0  0  0  0  0  0  0  0  0
   -0.6440   20.3280  -33.2620 O   0  0  0  0  0  0  0  0  0  0  0  0
   -0.0660   21.1510  -32.2480 C   0  0  0  0  0  0  0  0  0  0  0  0
   -0.0660   20.4100  -30.8900 C   0  0  0  0  0  0  0  0  0  0  0  0
   -0.8450   21.0750  -29.7940 N   0  0  0  0  0  0  0  0  0  0  0  0
   -0.9850   22.5260  -30.0970 C   0  0  0  0  0  0  0  0  0  0  0  0
   -0.0550   20.9490  -28.5170 C   0  0  0  0  0  0  0  0  0  0  0  0
   -0.4080   19.6840  -27.7170 C   0  0  0  0  0  0  0  0  0  0  0  0
   -1.8820   19.7080  -27.2790 C   0  0  0  0  0  0  0  0  0  0  0  0
   -2.7710   20.5090  -28.2440 C   0  0  0  0  0  0  0  0  0  0  0  0
   -2.2090   20.4540  -29.6740 C   0  0  0  0  0  0  0  0  0  0  0  0
   -3.0290   20.4890  -33.0260 C   0  0  0  0  0  0  0  0  0  0  0  0
   -4.3200   19.9220  -32.9630 C   0  0  0  0  0  0  0  0  0  0  0  0
   -3.7679   23.8106  -26.1867 H   0  0  0  0  0  0  0  0  0  0  0  0
   -3.4062   25.3905  -26.9612 H   0  0  0  0  0  0  0  0  0  0  0  0
   -5.0859   24.7539  -26.9612 H   0  0  0  0  0  0  0  0  0  0  0  0
   -3.0516   24.3840  -28.9352 H   0  0  0  0  0  0  0  0  0  0  0  0
   -3.3489   22.7758  -28.0926 H   0  0  0  0  0  0  0  0  0  0  0  0
   -6.8102   24.2818  -29.8516 H   0  0  0  0  0  0  0  0  0  0  0  0
   -6.0450   25.1741  -28.4789 H   0  0  0  0  0  0  0  0  0  0  0  0
   -5.7390   25.5520  -31.3957 H   0  0  0  0  0  0  0  0  0  0  0  0
   -5.3838   26.6724  -30.0197 H   0  0  0  0  0  0  0  0  0  0  0  0
   -3.7630   24.4560  -30.7460 H   0  0  0  0  0  0  0  0  0  0  0  0
   -3.6965   22.8293  -30.7345 H   0  0  0  0  0  0  0  0  0  0  0  0
   -4.8749   21.6146  -30.0491 H   0  0  0  0  0  0  0  0  0  0  0  0
   -6.7121   22.6270  -31.2150 H   0  0  0  0  0  0  0  0  0  0  0  0
   -5.6748   23.9965  -31.7672 H   0  0  0  0  0  0  0  0  0  0  0  0
   -4.9700   22.6720  -33.5560 H   0  0  0  0  0  0  0  0  0  0  0  0
   -7.7252   21.9783  -32.0555 H   0  0  0  0  0  0  0  0  0  0  0  0
   -9.9312   20.8959  -31.6830 H   0  0  0  0  0  0  0  0  0  0  0  0
  -10.1726   18.4330  -31.9310 H   0  0  0  0  0  0  0  0  0  0  0  0
   -8.2173   17.0396  -32.5615 H   0  0  0  0  0  0  0  0  0  0  0  0
   -6.0198   15.9096  -32.6784 H   0  0  0  0  0  0  0  0  0  0  0  0
   -6.8482   16.4890  -34.1633 H   0  0  0  0  0  0  0  0  0  0  0  0
   -5.0679   16.2498  -34.1633 H   0  0  0  0  0  0  0  0  0  0  0  0
   -3.4085   16.6271  -33.2466 H   0  0  0  0  0  0  0  0  0  0  0  0
   -1.1528   17.6593  -33.3298 H   0  0  0  0  0  0  0  0  0  0  0  0
    0.9692   21.3973  -32.5269 H   0  0  0  0  0  0  0  0  0  0  0  0
   -0.6601   22.0719  -32.1530 H   0  0  0  0  0  0  0  0  0  0  0  0
   -0.4923   19.4086  -31.0498 H   0  0  0  0  0  0  0  0  0  0  0  0
    0.9808   20.3962  -30.5523 H   0  0  0  0  0  0  0  0  0  0  0  0
   -1.0397   23.0934  -29.1562 H   0  0  0  0  0  0  0  0  0  0  0  0
   -0.1153   22.8646  -30.6793 H   0  0  0  0  0  0  0  0  0  0  0  0
   -1.9033   22.6920  -30.6793 H   0  0  0  0  0  0  0  0  0  0  0  0
    1.0155   20.9180  -28.7682 H   0  0  0  0  0  0  0  0  0  0  0  0
   -0.3032   21.8169  -27.8884 H   0  0  0  0  0  0  0  0  0  0  0  0
   -0.2332   18.7989  -28.3463 H   0  0  0  0  0  0  0  0  0  0  0  0
    0.2260   19.6467  -26.8188 H   0  0  0  0  0  0  0  0  0  0  0  0
   -2.2533   18.6735  -27.2340 H   0  0  0  0  0  0  0  0  0  0  0  0
   -1.9301   20.1987  -26.2957 H   0  0  0  0  0  0  0  0  0  0  0  0
   -3.7852   20.0832  -28.2381 H   0  0  0  0  0  0  0  0  0  0  0  0
   -2.7952   21.5580  -27.9139 H   0  0  0  0  0  0  0  0  0  0  0  0
   -2.1430   19.4007  -29.9843 H   0  0  0  0  0  0  0  0  0  0  0  0
   -2.8903   21.0301  -30.3174 H   0  0  0  0  0  0  0  0  0  0  0  0
   -2.9146   21.5803  -32.9490 H   0  0  0  0  0  0  0  0  0  0  0  0
  1  2  1  0
  2  3  1  0
  3  4  1  0
  4  5  1  0
  5  6  1  0
  3  7  1  0
  7  8  1  0
  8  9  1  0
  9 10  1  0
 10 11  2  0
 11 12  1  0
 12 13  2  0
 13 14  1  0
 14 15  2  0
 15 16  1  0
 16 17  2  0
 17 18  1  0
 17 19  1  0
 19 20  2  0
 20 21  1  0
 21 22  2  0
 22 23  1  0
 23 24  1  0
 24 25  1  0
 25 26  1  0
 26 27  1  0
 26 28  1  0
 28 29  1  0
 29 30  1  0
 30 31  1  0
 31 32  1  0
 22 33  1  0
 33 34  2  0
 34 10  1  0
 16 11  1  0
 34 19  1  0
 32 26  1  0
  1 35  1  0
  1 36  1  0
  1 37  1  0
  2 38  1  0
  2 39  1  0
  4 40  1  0
  4 41  1  0
  5 42  1  0
  5 43  1  0
  6 44  1  0
  7 45  1  0
  7 46  1  0
  8 47  1  0
  8 48  1  0
  9 49  1  0
 12 50  1  0
 13 51  1  0
 14 52  1  0
 15 53  1  0
 18 54  1  0
 18 55  1  0
 18 56  1  0
 20 57  1  0
 21 58  1  0
 24 59  1  0
 24 60  1  0
 25 61  1  0
 25 62  1  0
 27 63  1  0
 27 64  1  0
 27 65  1  0
 28 66  1  0
 28 67  1  0
 29 68  1  0
 29 69  1  0
 30 70  1  0
 30 71  1  0
 31 72  1  0
 31 73  1  0
 32 74  1  0
 32 75  1  0
 33 76  1  0
M  CHG  2  17   1  26   1
M  END
>  <UniqueID>  (12) 
12

>  <SMILES>  (12) 
CCN(CCO)CCNc1c2ccccc2[n+](C)c2ccc(OCC[N+]3(C)CCCCC3)cc12

>  <Energy>  (12) 
124.25431281196559

>  <Genealogy>  (12) 
CCN(CCO)CCNc1c2ccccc2[n+](C)c2ccc(OCC[N+]3(C)CCCCC3)cc12 (3D coordinates assigned)
CCN(CCO)CCNc1c2ccccc2[n+](C)c2ccc(OCC[N+]3(C)CCCCC3)cc12 (nonaromatic ring conformer: 124.25431281196559 kcal/mol)

>  <smiles>  (12) 
CCN(CCO)CCNc1c2ccccc2[n+](C)c2ccc(OCC[N+]3(C)CCCCC3)cc12

>  <score_type>  (12) 
oracle

>  <origin>  (12) 
adg

>  <m_score__min__energy>  (12) 
-8.6999999999999993

>  <m_primary>  (12) 
energy

$$$$
12:0
     RDKit          3D

 70 73  0  0  0  0  0  0  0  0999 V2000
   -6.7630   25.2530  -29.7240 C   0  0  0  0  0  0  0  0  0  0  0  0
   -5.5760   25.8910  -30.4410 C   0  0  0  0  0  0  0  0  0  0  0  0
   -4.5960   24.8580  -30.8440 N   0  0  0  0  0  0  0  0  0  0  0  0
   -3.7120   24.5330  -29.7100 C   0  0  0  0  0  0  0  0  0  0  0  0
   -5.2710   23.6380  -31.3470 C   0  0  0  0  0  0  0  0  0  0  0  0
   -4.2460   22.6300  -31.8810 C   0  0  0  0  0  0  0  0  0  0  0  0
   -4.7460   21.9430  -33.0780 N   0  0  0  0  0  0  0  0  0  0  0  0
   -5.2050   20.5860  -32.9790 C   0  0  0  0  0  0  0  0  0  0  0  0
   -6.5630   20.3620  -32.6810 C   0  0  0  0  0  0  0  0  0  0  0  0
   -7.3760   21.4140  -32.2010 C   0  0  0  0  0  0  0  0  0  0  0  0
   -8.7350   21.2190  -31.9720 C   0  0  0  0  0  0  0  0  0  0  0  0
   -9.3100   19.9800  -32.2230 C   0  0  0  0  0  0  0  0  0  0  0  0
   -8.5250   18.9220  -32.6790 C   0  0  0  0  0  0  0  0  0  0  0  0
   -7.1270   19.0780  -32.8810 C   0  0  0  0  0  0  0  0  0  0  0  0
   -6.3330   18.0330  -33.3030 N   0  0  0  0  0  0  0  0  0  0  0  0
   -6.8650   16.6500  -33.2910 C   0  0  0  0  0  0  0  0  0  0  0  0
   -5.0270   18.2630  -33.6950 C   0  0  0  0  0  0  0  0  0  0  0  0
   -4.2990   17.2830  -34.4110 C   0  0  0  0  0  0  0  0  0  0  0  0
   -2.9550   17.4580  -34.7050 C   0  0  0  0  0  0  0  0  0  0  0  0
   -2.2850   18.5830  -34.2530 C   0  0  0  0  0  0  0  0  0  0  0  0
   -2.9650   19.6060  -33.5740 C   0  0  0  0  0  0  0  0  0  0  0  0
   -2.1580   20.6200  -32.9260 N   0  0  0  0  0  0  0  0  0  0  0  0
   -0.7210   20.3950  -33.1630 C   0  0  0  0  0  0  0  0  0  0  0  0
    0.0550   20.3570  -31.8390 C   0  0  0  0  0  0  0  0  0  0  0  0
   -0.8410   20.6500  -30.6980 N   0  0  0  0  0  0  0  0  0  0  0  0
   -0.4920   19.8400  -29.5130 C   0  0  0  0  0  0  0  0  0  0  0  0
   -1.5800   19.9680  -28.4290 C   0  0  0  0  0  0  0  0  0  0  0  0
   -2.3690   21.2820  -28.5420 C   0  0  0  0  0  0  0  0  0  0  0  0
   -1.4650   22.4220  -29.0140 C   0  0  0  0  0  0  0  0  0  0  0  0
   -0.7960   22.0950  -30.3680 C   0  0  0  0  0  0  0  0  0  0  0  0
   -4.3890   19.5080  -33.4060 C   0  0  0  0  0  0  0  0  0  0  0  0
   -6.6190   25.3304  -28.6362 H   0  0  0  0  0  0  0  0  0  0  0  0
   -7.6879   25.7755  -30.0096 H   0  0  0  0  0  0  0  0  0  0  0  0
   -6.8375   24.1933  -30.0096 H   0  0  0  0  0  0  0  0  0  0  0  0
   -5.9354   26.4179  -31.3372 H   0  0  0  0  0  0  0  0  0  0  0  0
   -5.0854   26.5980  -29.7558 H   0  0  0  0  0  0  0  0  0  0  0  0
   -4.2409   24.7275  -28.7653 H   0  0  0  0  0  0  0  0  0  0  0  0
   -3.4276   23.4715  -29.7592 H   0  0  0  0  0  0  0  0  0  0  0  0
   -2.8078   25.1575  -29.7592 H   0  0  0  0  0  0  0  0  0  0  0  0
   -5.8382   23.1751  -30.5260 H   0  0  0  0  0  0  0  0  0  0  0  0
   -5.9472   23.9216  -32.1670 H   0  0  0  0  0  0  0  0  0  0  0  0
   -3.3182   23.1633  -32.1354 H   0  0  0  0  0  0  0  0  0  0  0  0
   -4.0611   21.8770  -31.1007 H   0  0  0  0  0  0  0  0  0  0  0  0
   -4.4710   22.2950  -34.0230 H   0  0  0  0  0  0  0  0  0  0  0  0
   -6.9287   22.3998  -32.0059 H   0  0  0  0  0  0  0  0  0  0  0  0
   -9.3533   22.0458  -31.5924 H   0  0  0  0  0  0  0  0  0  0  0  0
  -10.3881   19.8330  -32.0615 H   0  0  0  0  0  0  0  0  0  0  0  0
   -8.9958   17.9497  -32.8860 H   0  0  0  0  0  0  0  0  0  0  0  0
   -6.9936   16.3156  -32.2510 H   0  0  0  0  0  0  0  0  0  0  0  0
   -7.8364   16.6263  -33.8066 H   0  0  0  0  0  0  0  0  0  0  0  0
   -6.1599   15.9814  -33.8066 H   0  0  0  0  0  0  0  0  0  0  0  0
   -4.8086   16.3655  -34.7404 H   0  0  0  0  0  0  0  0  0  0  0  0
   -2.4200   16.7019  -35.2983 H   0  0  0  0  0  0  0  0  0  0  0  0
   -1.2032   18.6761  -34.4290 H   0  0  0  0  0  0  0  0  0  0  0  0
   -2.4510   21.5830  -33.1900 H   0  0  0  0  0  0  0  0  0  0  0  0
   -2.3280   20.5630  -31.8940 H   0  0  0  0  0  0  0  0  0  0  0  0
   -0.5883   19.4362  -33.6855 H   0  0  0  0  0  0  0  0  0  0  0  0
   -0.3324   21.2233  -33.7736 H   0  0  0  0  0  0  0  0  0  0  0  0
    0.4934   19.3569  -31.7061 H   0  0  0  0  0  0  0  0  0  0  0  0
    0.8467   21.1199  -31.8715 H   0  0  0  0  0  0  0  0  0  0  0  0
   -0.4004   18.7850  -29.8105 H   0  0  0  0  0  0  0  0  0  0  0  0
    0.4617   20.2039  -29.1030 H   0  0  0  0  0  0  0  0  0  0  0  0
   -2.2803   19.1258  -28.5304 H   0  0  0  0  0  0  0  0  0  0  0  0
   -1.0795   19.9609  -27.4495 H   0  0  0  0  0  0  0  0  0  0  0  0
   -3.1882   21.1493  -29.2640 H   0  0  0  0  0  0  0  0  0  0  0  0
   -2.7693   21.5383  -27.5500 H   0  0  0  0  0  0  0  0  0  0  0  0
   -2.0697   23.3340  -29.1258 H   0  0  0  0  0  0  0  0  0  0  0  0
   -0.6725   22.5651  -28.2647 H   0  0  0  0  0  0  0  0  0  0  0  0
   -1.3162   22.6527  -31.1607 H   0  0  0  0  0  0  0  0  0  0  0  0
    0.2626   22.3842  -30.2924 H   0  0  0  0  0  0  0  0  0  0  0  0
  1  2  1  0
  2  3  1  0
  3  4  1  0
  3  5  1  0
  5  6  1  0
  6  7  1  0
  7  8  1  0
  8  9  2  0
  9 10  1  0
 10 11  2  0
 11 12  1  0
 12 13  2  0
 13 14  1  0
 14 15  2  0
 15 16  1  0
 15 17  1  0
 17 18  2  0
 18 19  1  0
 19 20  2  0
 20 21  1  0
 21 22  1  0
 22 23  1  0
 23 24  1  0
 24 25  1  0
 25 26  1  0
 26 27  1  0
 27 28  1  0
 28 29  1  0
 29 30  1  0
 21 31  2  0
 31  8  1  0
 14  9  1  0
 31 17  1  0
 30 25  1  0
  1 32  1  0
  1 33  1  0
  1 34  1  0
  2 35  1  0
  2 36  1  0
  4 37  1  0
  4 38  1  0
  4 39  1  0
  5 40  1  0
  5 41  1  0
  6 42  1  0
  6 43  1  0
  7 44  1  0
 10 45  1  0
 11 46  1  0
 12 47  1  0
 13 48  1  0
 16 49  1  0
 16 50  1  0
 16 51  1  0
 18 52  1  0
 19 53  1  0
 20 54  1  0
 22 55  1  0
 22 56  1  0
 23 57  1  0
 23 58  1  0
 24 59  1  0
 24 60  1  0
 26 61  1  0
 26 62  1  0
 27 63  1  0
 27 64  1  0
 28 65  1  0
 28 66  1  0
 29 67  1  0
 29 68  1  0
 30 69  1  0
 30 70  1  0
M  CHG  2  15   1  22   1
M  END
>  <UniqueID>  (13) 
13

>  <SMILES>  (13) 
CCN(C)CCNc1c2ccccc2[n+](C)c2cccc([NH2+]CCN3CCCCC3)c12

>  <Energy>  (13) 
110.34536441607482

>  <Genealogy>  (13) 
CCN(C)CCNc1c2ccccc2[n+](C)c2cccc([NH2+]CCN3CCCCC3)c12 (protonated)
CCN(C)CCNc1c2ccccc2[n+](C)c2cccc([NH2+]CCN3CCCCC3)c12 (3D coordinates assigned)
CCN(C)CCNc1c2ccccc2[n+](C)c2cccc([NH2+]CCN3CCCCC3)c12 (nonaromatic ring conformer: 110.34536441607482 kcal/mol)

>  <smiles>  (13) 
CCN(C)CCNc1c2ccccc2[n+](C)c2cccc(NCCN3CCCCC3)c12

>  <score_type>  (13) 
oracle

>  <origin>  (13) 
adg

>  <m_score__min__energy>  (13) 
-8.4600000000000009

>  <m_primary>  (13) 
energy

$$$$
13:0
     RDKit          3D

 57 59  0  0  0  0  0  0  0  0999 V2000
    1.2350   20.6000  -36.2020 C   0  0  0  0  0  0  0  0  0  0  0  0
    1.2480   21.7770  -35.2330 C   0  0  0  0  0  0  0  0  0  0  0  0
   -0.0500   21.9920  -34.6780 O   0  0  0  0  0  0  0  0  0  0  0  0
   -0.7320   21.1060  -33.8270 C   0  0  0  0  0  0  0  0  0  0  0  0
   -0.8300   21.4390  -32.4710 C   0  0  0  0  0  0  0  0  0  0  0  0
   -1.5020   20.6000  -31.5800 C   0  0  0  0  0  0  0  0  0  0  0  0
   -2.0870   19.4170  -32.0360 C   0  0  0  0  0  0  0  0  0  0  0  0
   -2.0030   19.0640  -33.3910 C   0  0  0  0  0  0  0  0  0  0  0  0
   -2.6560   17.7930  -33.8850 C   0  0  0  0  0  0  0  0  0  0  0  0
   -4.1380   17.8900  -33.9210 N   0  0  1  0  0  0  0  0  0  0  0  0
   -4.7930   17.0340  -32.8930 C   0  0  0  0  0  0  0  0  0  0  0  0
   -6.2510   16.6500  -33.1760 C   0  0  0  0  0  0  0  0  0  0  0  0
   -7.3090   17.6900  -32.7710 C   0  0  0  0  0  0  0  0  0  0  0  0
   -6.8240   19.0890  -32.7590 N   0  0  0  0  0  0  0  0  0  0  0  0
   -7.8660   20.0430  -32.3250 C   0  0  0  0  0  0  0  0  0  0  0  0
   -7.2450   21.3540  -31.9200 C   0  0  0  0  0  0  0  0  0  0  0  0
   -8.0260   22.5180  -31.8270 C   0  0  0  0  0  0  0  0  0  0  0  0
   -7.4360   23.7360  -31.4790 C   0  0  0  0  0  0  0  0  0  0  0  0
   -6.0610   23.8040  -31.2280 C   0  0  0  0  0  0  0  0  0  0  0  0
   -5.3040   25.3680  -30.7810 S   0  0  0  0  0  0  0  0  0  0  0  0
   -6.4490   25.6650  -29.3980 C   0  0  0  0  0  0  0  0  0  0  0  0
   -5.2770   22.6470  -31.3200 C   0  0  0  0  0  0  0  0  0  0  0  0
   -5.8660   21.4280  -31.6680 C   0  0  0  0  0  0  0  0  0  0  0  0
   -6.0870   19.5570  -33.9660 C   0  0  0  0  0  0  0  0  0  0  0  0
   -4.5600   19.3230  -33.9310 C   0  0  0  0  0  0  0  0  0  0  0  0
   -1.3250   19.9110  -34.2840 C   0  0  0  0  0  0  0  0  0  0  0  0
    1.2246   19.6578  -35.6344 H   0  0  0  0  0  0  0  0  0  0  0  0
    0.3374   20.6564  -36.8354 H   0  0  0  0  0  0  0  0  0  0  0  0
    2.1336   20.6366  -36.8354 H   0  0  0  0  0  0  0  0  0  0  0  0
    1.9576   21.5663  -34.4193 H   0  0  0  0  0  0  0  0  0  0  0  0
    1.5510   22.6813  -35.7811 H   0  0  0  0  0  0  0  0  0  0  0  0
   -0.3735   22.3701  -32.1040 H   0  0  0  0  0  0  0  0  0  0  0  0
   -1.5707   20.8716  -30.5163 H   0  0  0  0  0  0  0  0  0  0  0  0
   -2.6156   18.7595  -31.3301 H   0  0  0  0  0  0  0  0  0  0  0  0
   -2.2918   17.5815  -34.9012 H   0  0  0  0  0  0  0  0  0  0  0  0
   -2.3913   16.9877  -33.1840 H   0  0  0  0  0  0  0  0  0  0  0  0
   -4.4460   17.4960  -34.8430 H   0  0  0  0  0  0  0  0  0  0  0  0
   -4.2100   16.1053  -32.8056 H   0  0  0  0  0  0  0  0  0  0  0  0
   -4.8153   17.6358  -31.9725 H   0  0  0  0  0  0  0  0  0  0  0  0
   -6.3492   16.4724  -34.2571 H   0  0  0  0  0  0  0  0  0  0  0  0
   -6.4516   15.7636  -32.5562 H   0  0  0  0  0  0  0  0  0  0  0  0
   -8.1459   17.6229  -33.4817 H   0  0  0  0  0  0  0  0  0  0  0  0
   -7.6010   17.4520  -31.7375 H   0  0  0  0  0  0  0  0  0  0  0  0
   -8.5671   20.2156  -33.1549 H   0  0  0  0  0  0  0  0  0  0  0  0
   -8.3985   19.6194  -31.4607 H   0  0  0  0  0  0  0  0  0  0  0  0
   -9.1063   22.4705  -32.0289 H   0  0  0  0  0  0  0  0  0  0  0  0
   -8.0536   24.6430  -31.4022 H   0  0  0  0  0  0  0  0  0  0  0  0
   -5.9168   25.5270  -28.4453 H   0  0  0  0  0  0  0  0  0  0  0  0
   -6.8356   26.6932  -29.4564 H   0  0  0  0  0  0  0  0  0  0  0  0
   -7.2866   24.9544  -29.4564 H   0  0  0  0  0  0  0  0  0  0  0  0
   -4.1968   22.6976  -31.1182 H   0  0  0  0  0  0  0  0  0  0  0  0
   -5.2461   20.5226  -31.7447 H   0  0  0  0  0  0  0  0  0  0  0  0
   -6.4933   19.0275  -34.8404 H   0  0  0  0  0  0  0  0  0  0  0  0
   -6.2298   20.6468  -34.0097 H   0  0  0  0  0  0  0  0  0  0  0  0
   -4.1217   19.8010  -34.8195 H   0  0  0  0  0  0  0  0  0  0  0  0
   -4.2061   19.7529  -32.9823 H   0  0  0  0  0  0  0  0  0  0  0  0
   -1.2563   19.6398  -35.3478 H   0  0  0  0  0  0  0  0  0  0  0  0
  1  2  1  0
  2  3  1  0
  3  4  1  0
  4  5  2  0
  5  6  1  0
  6  7  2  0
  7  8  1  0
  8  9  1  0
  9 10  1  0
 10 11  1  0
 11 12  1  0
 12 13  1  0
 13 14  1  0
 14 15  1  0
 15 16  1  0
 16 17  2  0
 17 18  1  0
 18 19  2  0
 19 20  1  0
 20 21  1  0
 19 22  1  0
 22 23  2  0
 14 24  1  0
 24 25  1  0
  8 26  2  0
 26  4  1  0
 25 10  1  0
 23 16  1  0
  1 27  1  0
  1 28  1  0
  1 29  1  0
  2 30  1  0
  2 31  1  0
  5 32  1  0
  6 33  1  0
  7 34  1  0
  9 35  1  0
  9 36  1  0
 10 37  1  6
 11 38  1  0
 11 39  1  0
 12 40  1  0
 12 41  1  0
 13 42  1  0
 13 43  1  0
 15 44  1  0
 15 45  1  0
 17 46  1  0
 18 47  1  0
 21 48  1  0
 21 49  1  0
 21 50  1  0
 22 51  1  0
 23 52  1  0
 24 53  1  0
 24 54  1  0
 25 55  1  0
 25 56  1  0
 26 57  1  0
M  CHG  1  10   1
M  END
>  <UniqueID>  (14) 
14

>  <SMILES>  (14) 
CCOc1cccc(C[N@H+]2CCCN(Cc3ccc(SC)cc3)CC2)c1

>  <Energy>  (14) 
74.65283306120192

>  <Genealogy>  (14) 
CCOc1cccc(C[NH+]2CCCN(Cc3ccc(SC)cc3)CC2)c1 (protonated)
CCOc1cccc(C[N@H+]2CCCN(Cc3ccc(SC)cc3)CC2)c1 (chirality)
CCOc1cccc(C[N@H+]2CCCN(Cc3ccc(SC)cc3)CC2)c1 (3D coordinates assigned)
CCOc1cccc(C[N@H+]2CCCN(Cc3ccc(SC)cc3)CC2)c1 (nonaromatic ring conformer: 74.65283306120192 kcal/mol)

>  <smiles>  (14) 
CCOc1cccc(CN2CCCN(Cc3ccc(SC)cc3)CC2)c1

>  <score_type>  (14) 
oracle

>  <origin>  (14) 
adg

>  <m_score__min__energy>  (14) 
-5.8700000000000001

>  <m_primary>  (14) 
energy

$$$$
14:0
     RDKit          3D

 41 43  0  0  0  0  0  0  0  0999 V2000
   -4.9090   23.2680  -29.0770 C   0  0  0  0  0  0  0  0  0  0  0  0
   -3.9810   24.3840  -29.5430 C   0  0  0  0  0  0  0  0  0  0  0  0
   -4.2450   24.7180  -30.9490 N   0  0  0  0  0  0  0  0  0  0  0  0
   -5.5770   24.2620  -31.3720 C   0  0  0  0  0  0  0  0  0  0  0  0
   -5.4700   23.0480  -32.3010 C   0  0  0  0  0  0  0  0  0  0  0  0
   -6.7380   22.2980  -32.3580 N   0  0  0  0  0  0  0  0  0  0  0  0
   -7.9780   23.0040  -32.0060 C   0  0  0  0  0  0  0  0  0  0  0  0
   -8.7590   22.1910  -30.9780 C   0  0  0  0  0  0  0  0  0  0  0  0
   -9.1280   20.8260  -31.5610 C   0  0  0  0  0  0  0  0  0  0  0  0
   -7.9430   20.1350  -32.1940 C   0  0  0  0  0  0  0  0  0  0  0  0
   -8.0180   18.7530  -32.4320 C   0  0  0  0  0  0  0  0  0  0  0  0
   -6.9690   18.0910  -33.0650 C   0  0  0  0  0  0  0  0  0  0  0  0
   -5.8270   18.7970  -33.4520 C   0  0  0  0  0  0  0  0  0  0  0  0
   -5.7480   20.1760  -33.2500 C   0  0  0  0  0  0  0  0  0  0  0  0
   -6.8040   20.8690  -32.6170 C   0  0  0  0  0  0  0  0  0  0  0  0
   -4.7670   18.1010  -34.0450 O   0  0  0  0  0  0  0  0  0  0  0  0
   -4.7100   16.6740  -34.0110 C   0  0  0  0  0  0  0  0  0  0  0  0
   -6.1120   16.0820  -34.2030 C   0  0  0  0  0  0  0  0  0  0  0  0
   -7.0410   16.7180  -33.3230 O   0  0  0  0  0  0  0  0  0  0  0  0
   -4.9295   23.2433  -27.9775 H   0  0  0  0  0  0  0  0  0  0  0  0
   -5.9241   23.4519  -29.4586 H   0  0  0  0  0  0  0  0  0  0  0  0
   -4.5430   22.3034  -29.4586 H   0  0  0  0  0  0  0  0  0  0  0  0
   -4.1470   25.2763  -28.9215 H   0  0  0  0  0  0  0  0  0  0  0  0
   -2.9392   24.0442  -29.4472 H   0  0  0  0  0  0  0  0  0  0  0  0
   -3.5400   24.2010  -31.5260 H   0  0  0  0  0  0  0  0  0  0  0  0
   -6.1619   23.9845  -30.4827 H   0  0  0  0  0  0  0  0  0  0  0  0
   -6.0714   25.0794  -31.9174 H   0  0  0  0  0  0  0  0  0  0  0  0
   -5.2135   23.3940  -33.3132 H   0  0  0  0  0  0  0  0  0  0  0  0
   -4.6908   22.3792  -31.9066 H   0  0  0  0  0  0  0  0  0  0  0  0
   -7.7305   23.9884  -31.5820 H   0  0  0  0  0  0  0  0  0  0  0  0
   -8.5917   23.1345  -32.9095 H   0  0  0  0  0  0  0  0  0  0  0  0
   -8.1399   22.0482  -30.0800 H   0  0  0  0  0  0  0  0  0  0  0  0
   -9.6799   22.7317  -30.7143 H   0  0  0  0  0  0  0  0  0  0  0  0
   -9.5186   20.1899  -30.7531 H   0  0  0  0  0  0  0  0  0  0  0  0
   -9.8826   20.9871  -32.3450 H   0  0  0  0  0  0  0  0  0  0  0  0
   -8.9095   18.1908  -32.1170 H   0  0  0  0  0  0  0  0  0  0  0  0
   -4.8572   20.7270  -33.5861 H   0  0  0  0  0  0  0  0  0  0  0  0
   -4.0518   16.3175  -34.8170 H   0  0  0  0  0  0  0  0  0  0  0  0
   -4.3164   16.3541  -33.0349 H   0  0  0  0  0  0  0  0  0  0  0  0
   -6.4326   16.2373  -35.2437 H   0  0  0  0  0  0  0  0  0  0  0  0
   -6.0815   15.0061  -33.9760 H   0  0  0  0  0  0  0  0  0  0  0  0
  1  2  1  0
  2  3  1  0
  3  4  1  0
  4  5  1  0
  5  6  1  0
  6  7  1  0
  7  8  1  0
  8  9  1  0
  9 10  1  0
 10 11  2  0
 11 12  1  0
 12 13  2  0
 13 14  1  0
 14 15  2  0
 13 16  1  0
 16 17  1  0
 17 18  1  0
 18 19  1  0
 15  6  1  0
 15 10  1  0
 19 12  1  0
  1 20  1  0
  1 21  1  0
  1 22  1  0
  2 23  1  0
  2 24  1  0
  3 25  1  0
  4 26  1  0
  4 27  1  0
  5 28  1  0
  5 29  1  0
  7 30  1  0
  7 31  1  0
  8 32  1  0
  8 33  1  0
  9 34  1  0
  9 35  1  0
 11 36  1  0
 14 37  1  0
 17 38  1  0
 17 39  1  0
 18 40  1  0
 18 41  1  0
M  END
>  <UniqueID>  (15) 
15

>  <SMILES>  (15) 
CCNCCN1CCCc2cc3c(cc21)OCCO3

>  <Energy>  (15) 
38.79606062975663

>  <Genealogy>  (15) 
CCNCCN1CCCc2cc3c(cc21)OCCO3 (3D coordinates assigned)
CCNCCN1CCCc2cc3c(cc21)OCCO3 (nonaromatic ring conformer: 38.79606062975663 kcal/mol)

>  <smiles>  (15) 
CCNCCN1CCCc2cc3c(cc21)OCCO3

>  <score_type>  (15) 
oracle

>  <origin>  (15) 
adg

>  <m_score__min__energy>  (15) 
-7.4900000000000002

>  <m_primary>  (15) 
energy

$$$$
15:0
     RDKit          3D

 58 60  0  0  0  0  0  0  0  0999 V2000
   -0.1680   27.1850  -35.4180 C   0  0  0  0  0  0  0  0  0  0  0  0
    0.3720   25.8740  -36.0030 C   0  0  0  0  0  0  0  0  0  0  0  0
    1.5800   25.3770  -35.2940 N   0  0  2  0  0  0  0  0  0  0  0  0
    2.7530   26.2220  -35.6070 C   0  0  0  0  0  0  0  0  0  0  0  0
    1.8370   23.9640  -35.6790 C   0  0  0  0  0  0  0  0  0  0  0  0
    0.5370   23.1770  -35.9480 C   0  0  0  0  0  0  0  0  0  0  0  0
    0.4500   21.9010  -35.1040 C   0  0  0  0  0  0  0  0  0  0  0  0
   -0.7710   21.9140  -34.2810 N   0  0  0  0  0  0  0  0  0  0  0  0
   -0.6050   21.1340  -33.0480 C   0  0  0  0  0  0  0  0  0  0  0  0
   -1.9620   20.8890  -32.3850 C   0  0  0  0  0  0  0  0  0  0  0  0
   -3.0610   21.1980  -33.2990 N   0  0  0  0  0  0  0  0  0  0  0  0
   -4.3840   20.7170  -33.0290 C   0  0  0  0  0  0  0  0  0  0  0  0
   -4.7930   19.4640  -33.5110 C   0  0  0  0  0  0  0  0  0  0  0  0
   -3.9330   18.6880  -34.3180 C   0  0  0  0  0  0  0  0  0  0  0  0
   -4.3570   17.4660  -34.8340 C   0  0  0  0  0  0  0  0  0  0  0  0
   -5.6420   17.0060  -34.5720 C   0  0  0  0  0  0  0  0  0  0  0  0
   -6.5060   17.7550  -33.7740 C   0  0  0  0  0  0  0  0  0  0  0  0
   -6.0940   18.9860  -33.2020 C   0  0  0  0  0  0  0  0  0  0  0  0
   -6.9270   19.7240  -32.3790 N   0  0  0  0  0  0  0  0  0  0  0  0
   -8.1560   19.1120  -31.8290 C   0  0  0  0  0  0  0  0  0  0  0  0
   -6.5990   21.0280  -32.0550 C   0  0  0  0  0  0  0  0  0  0  0  0
   -7.5310   21.9050  -31.4450 C   0  0  0  0  0  0  0  0  0  0  0  0
   -7.1680   23.2000  -31.0770 C   0  0  0  0  0  0  0  0  0  0  0  0
   -5.8770   23.6620  -31.3150 C   0  0  0  0  0  0  0  0  0  0  0  0
   -5.4250   25.2890  -30.8420 Cl  0  0  0  0  0  0  0  0  0  0  0  0
   -4.9500   22.8370  -31.9510 C   0  0  0  0  0  0  0  0  0  0  0  0
   -5.3020   21.5290  -32.3460 C   0  0  0  0  0  0  0  0  0  0  0  0
   -0.1464   27.1327  -34.3195 H   0  0  0  0  0  0  0  0  0  0  0  0
    0.4580   28.0233  -35.7575 H   0  0  0  0  0  0  0  0  0  0  0  0
   -1.2029   27.3392  -35.7575 H   0  0  0  0  0  0  0  0  0  0  0  0
   -0.4150   25.1086  -35.9338 H   0  0  0  0  0  0  0  0  0  0  0  0
    0.6603   26.0726  -37.0458 H   0  0  0  0  0  0  0  0  0  0  0  0
    1.3990   25.4230  -34.2630 H   0  0  0  0  0  0  0  0  0  0  0  0
    3.2218   26.5597  -34.6710 H   0  0  0  0  0  0  0  0  0  0  0  0
    3.4797   25.6386  -36.1914 H   0  0  0  0  0  0  0  0  0  0  0  0
    2.4298   27.0961  -36.1914 H   0  0  0  0  0  0  0  0  0  0  0  0
    2.4506   23.9535  -36.5919 H   0  0  0  0  0  0  0  0  0  0  0  0
    2.3531   23.4779  -34.8380 H   0  0  0  0  0  0  0  0  0  0  0  0
   -0.3228   23.8199  -35.7084 H   0  0  0  0  0  0  0  0  0  0  0  0
    0.5325   22.8828  -37.0079 H   0  0  0  0  0  0  0  0  0  0  0  0
    0.4290   21.0261  -35.7704 H   0  0  0  0  0  0  0  0  0  0  0  0
    1.3269   21.8499  -34.4419 H   0  0  0  0  0  0  0  0  0  0  0  0
   -1.5480   21.4810  -34.8330 H   0  0  0  0  0  0  0  0  0  0  0  0
   -0.1403   20.1670  -33.2907 H   0  0  0  0  0  0  0  0  0  0  0  0
    0.0352   21.6972  -32.3530 H   0  0  0  0  0  0  0  0  0  0  0  0
   -2.0299   19.8324  -32.0865 H   0  0  0  0  0  0  0  0  0  0  0  0
   -2.0442   21.5463  -31.5068 H   0  0  0  0  0  0  0  0  0  0  0  0
   -2.9280   21.8590  -34.0970 H   0  0  0  0  0  0  0  0  0  0  0  0
   -2.9192   19.0518  -34.5412 H   0  0  0  0  0  0  0  0  0  0  0  0
   -3.6734   16.8636  -35.4503 H   0  0  0  0  0  0  0  0  0  0  0  0
   -5.9785   16.0482  -34.9954 H   0  0  0  0  0  0  0  0  0  0  0  0
   -7.5245   17.3850  -33.5848 H   0  0  0  0  0  0  0  0  0  0  0  0
   -8.1155   19.1322  -30.7299 H   0  0  0  0  0  0  0  0  0  0  0  0
   -9.0337   19.6783  -32.1740 H   0  0  0  0  0  0  0  0  0  0  0  0
   -8.2329   18.0703  -32.1740 H   0  0  0  0  0  0  0  0  0  0  0  0
   -8.5581   21.5579  -31.2588 H   0  0  0  0  0  0  0  0  0  0  0  0
   -7.9055   23.8595  -30.5963 H   0  0  0  0  0  0  0  0  0  0  0  0
   -3.9338   23.2098  -32.1468 H   0  0  0  0  0  0  0  0  0  0  0  0
  1  2  1  0
  2  3  1  0
  3  4  1  0
  3  5  1  0
  5  6  1  0
  6  7  1  0
  7  8  1  0
  8  9  1  0
  9 10  1  0
 10 11  1  0
 11 12  1  0
 12 13  2  0
 13 14  1  0
 14 15  2  0
 15 16  1  0
 16 17  2  0
 17 18  1  0
 18 19  2  0
 19 20  1  0
 19 21  1  0
 21 22  2  0
 22 23  1  0
 23 24  2  0
 24 25  1  0
 24 26  1  0
 26 27  2  0
 27 12  1  0
 18 13  1  0
 27 21  1  0
  1 28  1  0
  1 29  1  0
  1 30  1  0
  2 31  1  0
  2 32  1  0
  3 33  1  1
  4 34  1  0
  4 35  1  0
  4 36  1  0
  5 37  1  0
  5 38  1  0
  6 39  1  0
  6 40  1  0
  7 41  1  0
  7 42  1  0
  8 43  1  0
  9 44  1  0
  9 45  1  0
 10 46  1  0
 10 47  1  0
 11 48  1  0
 14 49  1  0
 15 50  1  0
 16 51  1  0
 17 52  1  0
 20 53  1  0
 20 54  1  0
 20 55  1  0
 22 56  1  0
 23 57  1  0
 26 58  1  0
M  CHG  2   3   1  19   1
M  END
>  <UniqueID>  (16) 
16

>  <SMILES>  (16) 
CC[N@H+](C)CCCNCCNc1c2ccccc2[n+](C)c2ccc(Cl)cc12

>  <Energy>  (16) 
81.28146010533635

>  <Genealogy>  (16) 
CC[NH+](C)CCCNCCNc1c2ccccc2[n+](C)c2ccc(Cl)cc12 (protonated)
CC[N@H+](C)CCCNCCNc1c2ccccc2[n+](C)c2ccc(Cl)cc12 (chirality)
CC[N@H+](C)CCCNCCNc1c2ccccc2[n+](C)c2ccc(Cl)cc12 (3D coordinates assigned)
CC[N@H+](C)CCCNCCNc1c2ccccc2[n+](C)c2ccc(Cl)cc12 (optimized conformer: 81.28146010533635 kcal/mol)

>  <smiles>  (16) 
CCN(C)CCCNCCNc1c2ccccc2[n+](C)c2ccc(Cl)cc12

>  <score_type>  (16) 
oracle

>  <origin>  (16) 
adg

>  <m_score__min__energy>  (16) 
-8.1300000000000008

>  <m_primary>  (16) 
energy

$$$$
16:0
     RDKit          3D

 66 68  0  0  0  0  0  0  0  0999 V2000
   -2.7990   23.4780  -28.4420 C   0  0  0  0  0  0  0  0  0  0  0  0
   -3.7490   22.2890  -28.5400 C   0  0  0  0  0  0  0  0  0  0  0  0
   -3.0100   21.0720  -28.9480 N   0  0  0  0  0  0  0  0  0  0  0  0
   -2.1910   20.5100  -27.8440 C   0  0  0  0  0  0  0  0  0  0  0  0
   -2.8760   19.3800  -27.0620 C   0  0  0  0  0  0  0  0  0  0  0  0
   -2.2610   21.2760  -30.2100 C   0  0  0  0  0  0  0  0  0  0  0  0
   -2.9990   20.6430  -31.4030 C   0  0  0  0  0  0  0  0  0  0  0  0
   -2.8250   21.4540  -32.6930 C   0  0  0  0  0  0  0  0  0  0  0  0
   -4.1170   21.9070  -33.2090 N   0  0  0  0  0  0  0  0  0  0  0  0
   -5.3210   21.7590  -32.4370 C   0  0  0  0  0  0  0  0  0  0  0  0
   -5.7070   22.7600  -31.5290 C   0  0  0  0  0  0  0  0  0  0  0  0
   -4.9050   23.9030  -31.3300 C   0  0  0  0  0  0  0  0  0  0  0  0
   -5.2680   24.8760  -30.4030 C   0  0  0  0  0  0  0  0  0  0  0  0
   -6.4260   24.7200  -29.6490 C   0  0  0  0  0  0  0  0  0  0  0  0
   -7.2430   23.6050  -29.8390 C   0  0  0  0  0  0  0  0  0  0  0  0
   -6.9230   22.6200  -30.8080 C   0  0  0  0  0  0  0  0  0  0  0  0
   -7.7530   21.5400  -31.0520 N   0  0  0  0  0  0  0  0  0  0  0  0
   -9.1380   21.5370  -30.5230 C   0  0  0  0  0  0  0  0  0  0  0  0
   -7.2980   20.4740  -31.8050 C   0  0  0  0  0  0  0  0  0  0  0  0
   -8.0020   19.2430  -31.8590 C   0  0  0  0  0  0  0  0  0  0  0  0
   -7.5490   18.1880  -32.6490 C   0  0  0  0  0  0  0  0  0  0  0  0
   -6.3740   18.3120  -33.3910 C   0  0  0  0  0  0  0  0  0  0  0  0
   -5.9000   17.2190  -34.1980 N   0  0  0  0  0  0  0  0  0  0  0  0
   -6.4490   15.8730  -33.9910 C   0  0  0  0  0  0  0  0  0  0  0  0
   -5.3760   14.9430  -33.4340 C   0  0  0  0  0  0  0  0  0  0  0  0
   -4.9620   17.4690  -35.3000 C   0  0  0  0  0  0  0  0  0  0  0  0
   -3.5210   17.3980  -34.8050 C   0  0  0  0  0  0  0  0  0  0  0  0
   -5.6440   19.5020  -33.3260 C   0  0  0  0  0  0  0  0  0  0  0  0
   -6.0860   20.5830  -32.5350 C   0  0  0  0  0  0  0  0  0  0  0  0
   -2.6122   23.7118  -27.3835 H   0  0  0  0  0  0  0  0  0  0  0  0
   -1.8481   23.2293  -28.9359 H   0  0  0  0  0  0  0  0  0  0  0  0
   -3.2515   24.3505  -28.9359 H   0  0  0  0  0  0  0  0  0  0  0  0
   -4.2176   22.1173  -27.5597 H   0  0  0  0  0  0  0  0  0  0  0  0
   -4.5200   22.5085  -29.2933 H   0  0  0  0  0  0  0  0  0  0  0  0
   -1.2581   20.1157  -28.2732 H   0  0  0  0  0  0  0  0  0  0  0  0
   -2.0200   21.3290  -27.1298 H   0  0  0  0  0  0  0  0  0  0  0  0
   -2.7658   19.5618  -25.9827 H   0  0  0  0  0  0  0  0  0  0  0  0
   -3.9445   19.3499  -27.3215 H   0  0  0  0  0  0  0  0  0  0  0  0
   -2.4084   18.4187  -27.3215 H   0  0  0  0  0  0  0  0  0  0  0  0
   -2.1478   22.3553  -30.3897 H   0  0  0  0  0  0  0  0  0  0  0  0
   -1.2770   20.7939  -30.1132 H   0  0  0  0  0  0  0  0  0  0  0  0
   -2.6033   19.6297  -31.5663 H   0  0  0  0  0  0  0  0  0  0  0  0
   -4.0720   20.6217  -31.1615 H   0  0  0  0  0  0  0  0  0  0  0  0
   -2.1944   22.3307  -32.4838 H   0  0  0  0  0  0  0  0  0  0  0  0
   -2.3532   20.8098  -33.4496 H   0  0  0  0  0  0  0  0  0  0  0  0
   -4.1930   22.2030  -34.2070 H   0  0  0  0  0  0  0  0  0  0  0  0
   -3.9814   24.0271  -31.9144 H   0  0  0  0  0  0  0  0  0  0  0  0
   -4.6390   25.7681  -30.2669 H   0  0  0  0  0  0  0  0  0  0  0  0
   -6.6988   25.4782  -28.9002 H   0  0  0  0  0  0  0  0  0  0  0  0
   -8.1498   23.4880  -29.2275 H   0  0  0  0  0  0  0  0  0  0  0  0
   -9.1105   21.5371  -29.4233 H   0  0  0  0  0  0  0  0  0  0  0  0
   -9.6675   22.4340  -30.8766 H   0  0  0  0  0  0  0  0  0  0  0  0
   -9.6636   20.6377  -30.8766 H   0  0  0  0  0  0  0  0  0  0  0  0
   -8.9210   19.1194  -31.2672 H   0  0  0  0  0  0  0  0  0  0  0  0
   -8.1224   17.2501  -32.6878 H   0  0  0  0  0  0  0  0  0  0  0  0
   -7.2862   15.9281  -33.2796 H   0  0  0  0  0  0  0  0  0  0  0  0
   -6.7994   15.4774  -34.9558 H   0  0  0  0  0  0  0  0  0  0  0  0
   -5.4043   14.9675  -32.3346 H   0  0  0  0  0  0  0  0  0  0  0  0
   -5.5632   13.9167  -33.7828 H   0  0  0  0  0  0  0  0  0  0  0  0
   -4.3867   15.2741  -33.7828 H   0  0  0  0  0  0  0  0  0  0  0  0
   -5.1132   16.7108  -36.0825 H   0  0  0  0  0  0  0  0  0  0  0  0
   -5.1491   18.4750  -35.7037 H   0  0  0  0  0  0  0  0  0  0  0  0
   -3.5108   17.3975  -33.7050 H   0  0  0  0  0  0  0  0  0  0  0  0
   -3.0507   16.4756  -35.1765 H   0  0  0  0  0  0  0  0  0  0  0  0
   -2.9623   18.2697  -35.1765 H   0  0  0  0  0  0  0  0  0  0  0  0
   -4.7107   19.5970  -33.9004 H   0  0  0  0  0  0  0  0  0  0  0  0
  1  2  1  0
  2  3  1  0
  3  4  1  0
  4  5  1  0
  3  6  1  0
  6  7  1  0
  7  8  1  0
  8  9  1  0
  9 10  1  0
 10 11  2  0
 11 12  1  0
 12 13  2  0
 13 14  1  0
 14 15  2  0
 15 16  1  0
 16 17  2  0
 17 18  1  0
 17 19  1  0
 19 20  2  0
 20 21  1  0
 21 22  2  0
 22 23  1  0
 23 24  1  0
 24 25  1  0
 23 26  1  0
 26 27  1  0
 22 28  1  0
 28 29  2  0
 29 10  1  0
 16 11  1  0
 29 19  1  0
  1 30  1  0
  1 31  1  0
  1 32  1  0
  2 33  1  0
  2 34  1  0
  4 35  1  0
  4 36  1  0
  5 37  1  0
  5 38  1  0
  5 39  1  0
  6 40  1  0
  6 41  1  0
  7 42  1  0
  7 43  1  0
  8 44  1  0
  8 45  1  0
  9 46  1  0
 12 47  1  0
 13 48  1  0
 14 49  1  0
 15 50  1  0
 18 51  1  0
 18 52  1  0
 18 53  1  0
 20 54  1  0
 21 55  1  0
 24 56  1  0
 24 57  1  0
 25 58  1  0
 25 59  1  0
 25 60  1  0
 26 61  1  0
 26 62  1  0
 27 63  1  0
 27 64  1  0
 27 65  1  0
 28 66  1  0
M  CHG  1  17   1
M  END
>  <UniqueID>  (17) 
17

>  <SMILES>  (17) 
CCN(CC)CCCNc1c2ccccc2[n+](C)c2ccc(N(CC)CC)cc12

>  <Energy>  (17) 
87.68707014956208

>  <Genealogy>  (17) 
CCN(CC)CCCNc1c2ccccc2[n+](C)c2ccc(N(CC)CC)cc12 (3D coordinates assigned)
CCN(CC)CCCNc1c2ccccc2[n+](C)c2ccc(N(CC)CC)cc12 (optimized conformer: 87.68707014956208 kcal/mol)

>  <smiles>  (17) 
CCN(CC)CCCNc1c2ccccc2[n+](C)c2ccc(N(CC)CC)cc12

>  <score_type>  (17) 
oracle

>  <origin>  (17) 
adg

>  <m_score__min__energy>  (17) 
-8.1400000000000006

>  <m_primary>  (17) 
energy

$$$$
17:0
     RDKit          3D

 59 61  0  0  0  0  0  0  0  0999 V2000
   -0.8700   17.3570  -32.6290 C   0  0  0  0  0  0  0  0  0  0  0  0
   -0.3490   17.9440  -33.9400 C   0  0  0  0  0  0  0  0  0  0  0  0
    0.4470   19.2480  -33.7470 C   0  0  0  0  0  0  0  0  0  0  0  0
   -0.4410   20.4330  -33.8180 N   0  0  0  0  0  0  0  0  0  0  0  0
    0.0720   21.5250  -34.6770 C   0  0  0  0  0  0  0  0  0  0  0  0
    0.2620   21.0020  -36.0940 C   0  0  0  0  0  0  0  0  0  0  0  0
   -0.8780   20.9090  -32.4860 C   0  0  0  0  0  0  0  0  0  0  0  0
   -2.4170   21.0560  -32.3510 C   0  0  0  0  0  0  0  0  0  0  0  0
   -3.1160   20.7050  -33.5990 N   0  0  0  0  0  0  0  0  0  0  0  0
   -4.4500   20.2030  -33.3020 C   0  0  0  0  0  0  0  0  0  0  0  0
   -4.8050   18.8620  -33.6080 C   0  0  0  0  0  0  0  0  0  0  0  0
   -3.8630   17.9450  -34.1330 C   0  0  0  0  0  0  0  0  0  0  0  0
   -4.2440   16.6630  -34.5240 C   0  0  0  0  0  0  0  0  0  0  0  0
   -5.5650   16.2640  -34.4050 C   0  0  0  0  0  0  0  0  0  0  0  0
   -6.5040   17.1240  -33.8370 C   0  0  0  0  0  0  0  0  0  0  0  0
   -6.1360   18.4160  -33.3790 C   0  0  0  0  0  0  0  0  0  0  0  0
   -7.0430   19.2300  -32.7330 N   0  0  0  0  0  0  0  0  0  0  0  0
   -8.3080   18.6580  -32.2140 C   0  0  0  0  0  0  0  0  0  0  0  0
   -6.7530   20.5640  -32.5200 C   0  0  0  0  0  0  0  0  0  0  0  0
   -7.7510   21.4740  -32.0900 C   0  0  0  0  0  0  0  0  0  0  0  0
   -7.4450   22.7960  -31.7860 C   0  0  0  0  0  0  0  0  0  0  0  0
   -6.1390   23.2650  -31.9230 C   0  0  0  0  0  0  0  0  0  0  0  0
   -5.7880   24.6170  -31.5920 N   0  0  0  0  0  0  0  0  0  0  0  0
   -5.0940   25.0580  -30.4170 C   0  0  0  0  0  0  0  0  0  0  0  0
   -5.7940   25.2750  -29.1090 C   0  0  0  0  0  0  0  0  0  0  0  0
   -3.8620   25.2950  -30.4930 O   0  0  0  0  0  0  0  0  0  0  0  0
   -5.1400   22.3920  -32.3550 C   0  0  0  0  0  0  0  0  0  0  0  0
   -5.4340   21.0550  -32.7290 C   0  0  0  0  0  0  0  0  0  0  0  0
   -0.4044   17.8816  -31.7817 H   0  0  0  0  0  0  0  0  0  0  0  0
   -1.9621   17.4796  -32.5808 H   0  0  0  0  0  0  0  0  0  0  0  0
   -0.6186   16.2872  -32.5808 H   0  0  0  0  0  0  0  0  0  0  0  0
    0.3065   17.2019  -34.4192 H   0  0  0  0  0  0  0  0  0  0  0  0
   -1.2244   18.1844  -34.5612 H   0  0  0  0  0  0  0  0  0  0  0  0
    0.9385   19.2262  -32.7631 H   0  0  0  0  0  0  0  0  0  0  0  0
    1.1934   19.3231  -34.5515 H   0  0  0  0  0  0  0  0  0  0  0  0
   -0.6489   22.3558  -34.6853 H   0  0  0  0  0  0  0  0  0  0  0  0
    1.0350   21.8826  -34.2835 H   0  0  0  0  0  0  0  0  0  0  0  0
    0.6374   19.9687  -36.0562 H   0  0  0  0  0  0  0  0  0  0  0  0
   -0.7012   21.0230  -36.6248 H   0  0  0  0  0  0  0  0  0  0  0  0
    0.9871   21.6364  -36.6248 H   0  0  0  0  0  0  0  0  0  0  0  0
   -0.5299   20.1909  -31.7290 H   0  0  0  0  0  0  0  0  0  0  0  0
   -0.4454   21.9104  -32.3442 H   0  0  0  0  0  0  0  0  0  0  0  0
   -2.7682   20.3912  -31.5481 H   0  0  0  0  0  0  0  0  0  0  0  0
   -2.6391   22.1086  -32.1215 H   0  0  0  0  0  0  0  0  0  0  0  0
   -3.1600   21.5220  -34.2460 H   0  0  0  0  0  0  0  0  0  0  0  0
   -2.5650   20.0110  -34.1470 H   0  0  0  0  0  0  0  0  0  0  0  0
   -2.8110   18.2501  -34.2341 H   0  0  0  0  0  0  0  0  0  0  0  0
   -3.4944   15.9666  -34.9279 H   0  0  0  0  0  0  0  0  0  0  0  0
   -5.8732   15.2690  -34.7585 H   0  0  0  0  0  0  0  0  0  0  0  0
   -7.5494   16.7951  -33.7421 H   0  0  0  0  0  0  0  0  0  0  0  0
   -8.2900   18.6661  -31.1142 H   0  0  0  0  0  0  0  0  0  0  0  0
   -9.1564   19.2601  -32.5713 H   0  0  0  0  0  0  0  0  0  0  0  0
   -8.4164   17.6233  -32.5713 H   0  0  0  0  0  0  0  0  0  0  0  0
   -8.7904   21.1269  -31.9947 H   0  0  0  0  0  0  0  0  0  0  0  0
   -8.2367   23.4747  -31.4359 H   0  0  0  0  0  0  0  0  0  0  0  0
   -5.1010   25.0602  -28.2822 H   0  0  0  0  0  0  0  0  0  0  0  0
   -6.1313   26.3199  -29.0426 H   0  0  0  0  0  0  0  0  0  0  0  0
   -6.6632   24.6041  -29.0426 H   0  0  0  0  0  0  0  0  0  0  0  0
   -4.1006   22.7483  -32.4069 H   0  0  0  0  0  0  0  0  0  0  0  0
  1  2  1  0
  2  3  1  0
  3  4  1  0
  4  5  1  0
  5  6  1  0
  4  7  1  0
  7  8  1  0
  8  9  1  0
  9 10  1  0
 10 11  2  0
 11 12  1  0
 12 13  2  0
 13 14  1  0
 14 15  2  0
 15 16  1  0
 16 17  2  0
 17 18  1  0
 17 19  1  0
 19 20  2  0
 20 21  1  0
 21 22  2  0
 22 23  1  0
 23 24  1  0
 24 25  1  0
 24 26  2  0
 22 27  1  0
 27 28  2  0
 28 10  1  0
 16 11  1  0
 28 19  1  0
  1 29  1  0
  1 30  1  0
  1 31  1  0
  2 32  1  0
  2 33  1  0
  3 34  1  0
  3 35  1  0
  5 36  1  0
  5 37  1  0
  6 38  1  0
  6 39  1  0
  6 40  1  0
  7 41  1  0
  7 42  1  0
  8 43  1  0
  8 44  1  0
  9 45  1  0
  9 46  1  0
 12 47  1  0
 13 48  1  0
 14 49  1  0
 15 50  1  0
 18 51  1  0
 18 52  1  0
 18 53  1  0
 20 54  1  0
 21 55  1  0
 25 56  1  0
 25 57  1  0
 25 58  1  0
 27 59  1  0
M  CHG  3   9   1  17   1  23  -1
M  END
>  <UniqueID>  (18) 
18

>  <SMILES>  (18) 
CCCN(CC)CC[NH2+]c1c2ccccc2[n+](C)c2ccc([N-]C(C)=O)cc12

>  <Energy>  (18) 
95.22974597611874

>  <Genealogy>  (18) 
CCCN(CC)CC[NH2+]c1c2ccccc2[n+](C)c2ccc([N-]C(C)=O)cc12 (protonated)
CCCN(CC)CC[NH2+]c1c2ccccc2[n+](C)c2ccc([N-]C(C)=O)cc12 (3D coordinates assigned)
CCCN(CC)CC[NH2+]c1c2ccccc2[n+](C)c2ccc([N-]C(C)=O)cc12 (optimized conformer: 95.22974597611874 kcal/mol)

>  <smiles>  (18) 
CCCN(CC)CCNc1c2ccccc2[n+](C)c2ccc(NC(C)=O)cc12

>  <score_type>  (18) 
oracle

>  <origin>  (18) 
adg

>  <m_score__min__energy>  (18) 
-8.9600000000000009

>  <m_primary>  (18) 
energy

$$$$
18:0
     RDKit          3D

 59 61  0  0  0  0  0  0  0  0999 V2000
   -2.7690   19.6700  -27.0720 C   0  0  0  0  0  0  0  0  0  0  0  0
   -2.3100   21.0860  -27.4190 C   0  0  0  0  0  0  0  0  0  0  0  0
   -3.2330   21.7060  -28.3960 N   0  0  0  0  0  0  0  0  0  0  0  0
   -3.0220   23.1690  -28.4900 C   0  0  0  0  0  0  0  0  0  0  0  0
   -3.8790   23.9000  -27.4580 C   0  0  0  0  0  0  0  0  0  0  0  0
   -3.1630   21.0450  -29.7260 C   0  0  0  0  0  0  0  0  0  0  0  0
   -2.9660   22.0980  -30.8210 C   0  0  0  0  0  0  0  0  0  0  0  0
   -2.7970   21.4650  -32.2090 C   0  0  0  0  0  0  0  0  0  0  0  0
   -3.8610   21.8560  -33.1600 N   0  0  0  0  0  0  0  0  0  0  0  0
   -5.0840   21.0770  -32.9860 C   0  0  0  0  0  0  0  0  0  0  0  0
   -5.1020   19.7250  -33.4560 C   0  0  0  0  0  0  0  0  0  0  0  0
   -3.9940   19.1490  -34.1400 C   0  0  0  0  0  0  0  0  0  0  0  0
   -4.0410   17.8470  -34.6320 C   0  0  0  0  0  0  0  0  0  0  0  0
   -5.1820   17.0820  -34.4680 C   0  0  0  0  0  0  0  0  0  0  0  0
   -6.2740   17.6050  -33.7860 C   0  0  0  0  0  0  0  0  0  0  0  0
   -6.2470   18.9150  -33.2400 C   0  0  0  0  0  0  0  0  0  0  0  0
   -7.3130   19.4030  -32.5270 N   0  0  0  0  0  0  0  0  0  0  0  0
   -8.3290   18.4660  -31.9950 C   0  0  0  0  0  0  0  0  0  0  0  0
   -7.4290   20.7540  -32.2870 C   0  0  0  0  0  0  0  0  0  0  0  0
   -8.6840   21.2930  -31.9170 C   0  0  0  0  0  0  0  0  0  0  0  0
   -8.8330   22.6260  -31.5930 C   0  0  0  0  0  0  0  0  0  0  0  0
   -7.7360   23.4610  -31.6040 C   0  0  0  0  0  0  0  0  0  0  0  0
   -6.4670   22.9940  -31.9770 C   0  0  0  0  0  0  0  0  0  0  0  0
   -5.3940   23.9420  -31.9520 N   0  0  0  0  0  0  0  0  0  0  0  0
   -5.0160   24.7780  -30.8530 C   0  0  0  0  0  0  0  0  0  0  0  0
   -6.0310   25.1280  -29.8180 C   0  0  0  0  0  0  0  0  0  0  0  0
   -3.8660   25.2940  -30.8000 O   0  0  0  0  0  0  0  0  0  0  0  0
   -6.2980   21.6300  -32.4230 C   0  0  0  0  0  0  0  0  0  0  0  0
   -2.8065   19.5543  -25.9787 H   0  0  0  0  0  0  0  0  0  0  0  0
   -3.7698   19.4953  -27.4938 H   0  0  0  0  0  0  0  0  0  0  0  0
   -2.0610   18.9414  -27.4938 H   0  0  0  0  0  0  0  0  0  0  0  0
   -2.2904   21.6947  -26.5030 H   0  0  0  0  0  0  0  0  0  0  0  0
   -1.3047   21.0351  -27.8625 H   0  0  0  0  0  0  0  0  0  0  0  0
   -1.9614   23.3945  -28.3050 H   0  0  0  0  0  0  0  0  0  0  0  0
   -3.3112   23.5065  -29.4962 H   0  0  0  0  0  0  0  0  0  0  0  0
   -3.5517   23.6208  -26.4456 H   0  0  0  0  0  0  0  0  0  0  0  0
   -3.7683   24.9861  -27.5926 H   0  0  0  0  0  0  0  0  0  0  0  0
   -4.9341   23.6194  -27.5926 H   0  0  0  0  0  0  0  0  0  0  0  0
   -2.3174   20.3416  -29.7398 H   0  0  0  0  0  0  0  0  0  0  0  0
   -4.1014   20.5014  -29.9105 H   0  0  0  0  0  0  0  0  0  0  0  0
   -3.8442   22.7602  -30.8380 H   0  0  0  0  0  0  0  0  0  0  0  0
   -2.0475   22.6577  -30.5905 H   0  0  0  0  0  0  0  0  0  0  0  0
   -1.8267   21.7792  -32.6210 H   0  0  0  0  0  0  0  0  0  0  0  0
   -2.8570   20.3741  -32.0809 H   0  0  0  0  0  0  0  0  0  0  0  0
   -3.5080   21.9130  -34.1300 H   0  0  0  0  0  0  0  0  0  0  0  0
   -4.0830   22.8650  -33.0080 H   0  0  0  0  0  0  0  0  0  0  0  0
   -3.0809   19.7455  -34.2830 H   0  0  0  0  0  0  0  0  0  0  0  0
   -3.1684   17.4256  -35.1525 H   0  0  0  0  0  0  0  0  0  0  0  0
   -5.2247   16.0616  -34.8767 H   0  0  0  0  0  0  0  0  0  0  0  0
   -7.1787   16.9907  -33.6667 H   0  0  0  0  0  0  0  0  0  0  0  0
   -8.3067   18.4866  -30.8954 H   0  0  0  0  0  0  0  0  0  0  0  0
   -9.3264   18.7680  -32.3472 H   0  0  0  0  0  0  0  0  0  0  0  0
   -8.1086   17.4475  -32.3472 H   0  0  0  0  0  0  0  0  0  0  0  0
   -9.5632   20.6326  -31.8869 H   0  0  0  0  0  0  0  0  0  0  0  0
   -9.8243   23.0213  -31.3267 H   0  0  0  0  0  0  0  0  0  0  0  0
   -7.8584   24.5151  -31.3143 H   0  0  0  0  0  0  0  0  0  0  0  0
   -5.6001   24.9794  -28.8169 H   0  0  0  0  0  0  0  0  0  0  0  0
   -6.3280   26.1805  -29.9368 H   0  0  0  0  0  0  0  0  0  0  0  0
   -6.9136   24.4823  -29.9368 H   0  0  0  0  0  0  0  0  0  0  0  0
  1  2  1  0
  2  3  1  0
  3  4  1  0
  4  5  1  0
  3  6  1  0
  6  7  1  0
  7  8  1  0
  8  9  1  0
  9 10  1  0
 10 11  2  0
 11 12  1  0
 12 13  2  0
 13 14  1  0
 14 15  2  0
 15 16  1  0
 16 17  2  0
 17 18  1  0
 17 19  1  0
 19 20  2  0
 20 21  1  0
 21 22  2  0
 22 23  1  0
 23 24  1  0
 24 25  1  0
 25 26  1  0
 25 27  2  0
 23 28  2  0
 28 10  1  0
 16 11  1  0
 28 19  1  0
  1 29  1  0
  1 30  1  0
  1 31  1  0
  2 32  1  0
  2 33  1  0
  4 34  1  0
  4 35  1  0
  5 36  1  0
  5 37  1  0
  5 38  1  0
  6 39  1  0
  6 40  1  0
  7 41  1  0
  7 42  1  0
  8 43  1  0
  8 44  1  0
  9 45  1  0
  9 46  1  0
 12 47  1  0
 13 48  1  0
 14 49  1  0
 15 50  1  0
 18 51  1  0
 18 52  1  0
 18 53  1  0
 20 54  1  0
 21 55  1  0
 22 56  1  0
 26 57  1  0
 26 58  1  0
 26 59  1  0
M  CHG  3   9   1  17   1  24  -1
M  END
>  <UniqueID>  (19) 
19

>  <SMILES>  (19) 
CCN(CC)CCC[NH2+]c1c2ccccc2[n+](C)c2cccc([N-]C(C)=O)c12

>  <Energy>  (19) 
99.43249200197934

>  <Genealogy>  (19) 
CCN(CC)CCC[NH2+]c1c2ccccc2[n+](C)c2cccc([N-]C(C)=O)c12 (protonated)
CCN(CC)CCC[NH2+]c1c2ccccc2[n+](C)c2cccc([N-]C(C)=O)c12 (3D coordinates assigned)
CCN(CC)CCC[NH2+]c1c2ccccc2[n+](C)c2cccc([N-]C(C)=O)c12 (optimized conformer: 99.43249200197934 kcal/mol)

>  <smiles>  (19) 
CCN(CC)CCCNc1c2ccccc2[n+](C)c2cccc(NC(C)=O)c12

>  <score_type>  (19) 
oracle

>  <origin>  (19) 
adg

>  <m_score__min__energy>  (19) 
-9.5399999999999991

>  <m_primary>  (19) 
energy

$$$$
19:0
     RDKit          3D

 30 32  0  0  0  0  0  0  0  0999 V2000
  -10.9074   21.3427  -31.7898 H   0  0  0  0  0  0  0  0  0  0  0  0
   -9.8280   21.2250  -31.9660 C   0  0  0  0  0  0  0  0  0  0  0  0
   -9.3300   20.0290  -32.4790 C   0  0  0  0  0  0  0  0  0  0  0  0
  -10.0191   19.2024  -32.7065 H   0  0  0  0  0  0  0  0  0  0  0  0
   -7.9600   19.8740  -32.7060 C   0  0  0  0  0  0  0  0  0  0  0  0
   -7.5809   18.9256  -33.1143 H   0  0  0  0  0  0  0  0  0  0  0  0
   -7.0510   20.9260  -32.4160 C   0  0  0  0  0  0  0  0  0  0  0  0
   -7.5810   22.1290  -31.9000 C   0  0  0  0  0  0  0  0  0  0  0  0
   -6.7620   23.1540  -31.5830 N   0  0  0  0  0  0  0  0  0  0  0  0
   -5.4180   23.1370  -31.7510 C   0  0  0  0  0  0  0  0  0  0  0  0
   -4.7820   24.1690  -31.2560 N   0  0  0  0  0  0  0  0  0  0  0  0
   -4.7970   24.8210  -29.9520 C   0  0  0  0  0  0  0  0  0  0  0  0
   -3.9673   25.5406  -29.8906 H   0  0  0  0  0  0  0  0  0  0  0  0
   -4.6822   24.0666  -29.1597 H   0  0  0  0  0  0  0  0  0  0  0  0
   -6.1190   25.5520  -29.7750 C   0  0  0  0  0  0  0  0  0  0  0  0
   -6.3321   25.6698  -28.7023 H   0  0  0  0  0  0  0  0  0  0  0  0
   -6.0559   26.5434  -30.2474 H   0  0  0  0  0  0  0  0  0  0  0  0
   -6.9251   24.9714  -30.2474 H   0  0  0  0  0  0  0  0  0  0  0  0
   -4.8160   21.9870  -32.3660 C   0  0  0  0  0  0  0  0  0  0  0  0
   -3.4580   21.9270  -32.7660 C   0  0  0  0  0  0  0  0  0  0  0  0
   -2.8260   22.8210  -32.6590 H   0  0  0  0  0  0  0  0  0  0  0  0
   -2.9060   20.7630  -33.2910 C   0  0  0  0  0  0  0  0  0  0  0  0
   -1.8427   20.7398  -33.5716 H   0  0  0  0  0  0  0  0  0  0  0  0
   -3.6880   19.6340  -33.4620 C   0  0  0  0  0  0  0  0  0  0  0  0
   -3.2359   18.7045  -33.8384 H   0  0  0  0  0  0  0  0  0  0  0  0
   -5.0430   19.6730  -33.1590 C   0  0  0  0  0  0  0  0  0  0  0  0
   -5.6588   18.7763  -33.3222 H   0  0  0  0  0  0  0  0  0  0  0  0
   -5.6470   20.8480  -32.6430 C   0  0  0  0  0  0  0  0  0  0  0  0
   -8.9550   22.2710  -31.6770 C   0  0  0  0  0  0  0  0  0  0  0  0
   -9.3481   23.2147  -31.2709 H   0  0  0  0  0  0  0  0  0  0  0  0
  1  2  1  0
  2  3  2  0
  3  4  1  0
  3  5  1  0
  5  6  1  0
  5  7  2  0
  7  8  1  0
  8  9  1  0
  9 10  1  0
 10 11  2  0
 11 12  1  0
 12 13  1  0
 12 14  1  0
 12 15  1  0
 15 16  1  0
 15 17  1  0
 15 18  1  0
 10 19  1  0
 19 20  2  0
 20 21  1  0
 20 22  1  0
 22 23  1  0
 22 24  2  0
 24 25  1  0
 24 26  1  0
 26 27  1  0
 26 28  2  0
  8 29  2  0
 29 30  1  0
 29  2  1  0
 28  7  1  0
 28 19  1  0
M  CHG  1   9  -1
M  END
>  <UniqueID>  (20) 
20

>  <SMILES>  (20) 
CC/N=c1/[n-]c2ccccc2c2ccccc12

>  <Energy>  (20) 
57.12390644403559

>  <Genealogy>  (20) 
CCN=c1[n-]c2ccccc2c2ccccc12 (protonated)
CC/N=c1/[n-]c2ccccc2c2ccccc12 (cis-trans isomerization)
CC/N=c1/[n-]c2ccccc2c2ccccc12 (3D coordinates assigned)
CC/N=c1/[n-]c2ccccc2c2ccccc12 (optimized conformer: 57.12390644403559 kcal/mol)

>  <smiles>  (20) 
CCN=c1[nH]c2ccccc2c2ccccc12

>  <score_type>  (20) 
oracle

>  <origin>  (20) 
adg

>  <m_score__min__energy>  (20) 
-8.0299999999999994

>  <m_primary>  (20) 
energy

$$$$
20:0
     RDKit          3D

 66 68  0  0  1  0  0  0  0  0999 V2000
   -3.5530   24.5650  -26.9160 C   0  0  0  0  0  0  0  0  0  0  0  0
   -2.2490   25.1600  -27.4010 C   0  0  0  0  0  0  0  0  0  0  0  0
   -2.3350   25.2880  -28.7980 O   0  0  0  0  0  0  0  0  0  0  0  0
   -2.4600   24.1410  -29.5640 C   0  0  0  0  0  0  0  0  0  0  0  0
   -1.6070   23.1020  -29.2780 C   0  0  0  0  0  0  0  0  0  0  0  0
   -1.7440   21.9670  -30.0490 C   0  0  0  0  0  0  0  0  0  0  0  0
   -0.8920   20.9550  -29.7710 N   0  0  0  0  0  0  0  0  0  0  0  0
   -0.9810   19.8360  -30.5060 C   0  0  0  0  0  0  0  0  0  0  0  0
    0.1170   18.4400  -30.1670 S   0  0  0  0  0  0  0  0  0  0  0  0
    0.5630   18.4280  -28.3950 C   0  0  0  0  0  0  0  0  0  0  0  0
   -0.6510   18.5230  -27.5120 C   0  0  0  0  0  0  0  0  0  0  0  0
   -1.2400   19.7950  -27.3830 N   0  0  0  0  0  0  0  0  0  0  0  0
   -0.4730   20.8440  -26.8230 C   0  0  0  0  0  0  0  0  0  0  0  0
   -1.1960   21.9200  -26.0990 C   0  0  0  0  0  0  0  0  0  0  0  0
   -2.6400   19.9170  -27.2920 C   0  0  0  0  0  0  0  0  0  0  0  0
   -3.1960   18.8960  -26.3320 C   0  0  0  0  0  0  0  0  0  0  0  0
   -1.8890   19.7520  -31.4720 N   0  0  0  0  0  0  0  0  0  0  0  0
   -2.7600   20.7660  -31.7680 C   0  0  0  0  0  0  0  0  0  0  0  0
   -3.5650   20.5640  -32.6750 N   0  0  0  0  0  0  0  0  0  0  0  0
   -4.8540   20.1500  -32.6350 C   0  0  0  0  0  0  0  0  0  0  0  0
   -5.8670   21.1340  -32.4850 C   0  0  0  0  0  0  0  0  0  0  0  0
   -7.1740   20.8080  -32.3240 C   0  0  0  0  0  0  0  0  0  0  0  0
   -7.5180   19.4620  -32.3070 C   0  0  0  0  0  0  0  0  0  0  0  0
   -8.9590   19.1550  -32.1290 C   0  0  0  0  0  0  0  0  0  0  0  0
   -9.8200   20.3790  -32.3590 C   0  0  0  0  0  0  0  0  0  0  0  0
   -6.5450   18.4970  -32.4510 C   0  0  0  0  0  0  0  0  0  0  0  0
   -5.2040   18.7940  -32.6170 C   0  0  0  0  0  0  0  0  0  0  0  0
   -2.6960   21.9170  -31.0400 C   0  0  0  0  0  0  0  0  0  0  0  0
   -3.5240   22.9680  -31.2950 C   0  0  0  0  0  0  0  0  0  0  0  0
   -3.4140   24.1440  -30.5300 C   0  0  0  0  0  0  0  0  0  0  0  0
   -4.2380   25.2390  -30.7570 O   0  0  0  0  0  0  0  0  0  0  0  0
   -5.5810   25.1880  -30.3920 C   0  0  0  0  0  0  0  0  0  0  0  0
   -3.5666   24.5588  -25.8161 H   0  0  0  0  0  0  0  0  0  0  0  0
   -4.3930   25.1689  -27.2897 H   0  0  0  0  0  0  0  0  0  0  0  0
   -3.6474   23.5347  -27.2897 H   0  0  0  0  0  0  0  0  0  0  0  0
   -2.0937   26.1478  -26.9425 H   0  0  0  0  0  0  0  0  0  0  0  0
   -1.4025   24.5149  -27.1231 H   0  0  0  0  0  0  0  0  0  0  0  0
   -0.8558   23.1720  -28.4775 H   0  0  0  0  0  0  0  0  0  0  0  0
   -0.1730   21.0080  -29.0100 H   0  0  0  0  0  0  0  0  0  0  0  0
    1.0956   17.4926  -28.1684 H   0  0  0  0  0  0  0  0  0  0  0  0
    1.1988   19.3035  -28.1969 H   0  0  0  0  0  0  0  0  0  0  0  0
   -1.4133   17.8422  -27.9187 H   0  0  0  0  0  0  0  0  0  0  0  0
   -0.2962   18.2647  -26.5033 H   0  0  0  0  0  0  0  0  0  0  0  0
    0.2353   20.3903  -26.1142 H   0  0  0  0  0  0  0  0  0  0  0  0
   -0.0201   21.3488  -27.6890 H   0  0  0  0  0  0  0  0  0  0  0  0
   -1.0925   21.7660  -25.0148 H   0  0  0  0  0  0  0  0  0  0  0  0
   -0.7701   22.8965  -26.3729 H   0  0  0  0  0  0  0  0  0  0  0  0
   -2.2610   21.8947  -26.3729 H   0  0  0  0  0  0  0  0  0  0  0  0
   -2.8933   20.9260  -26.9346 H   0  0  0  0  0  0  0  0  0  0  0  0
   -3.0781   19.7469  -28.2866 H   0  0  0  0  0  0  0  0  0  0  0  0
   -3.0154   19.2276  -25.2988 H   0  0  0  0  0  0  0  0  0  0  0  0
   -4.2779   18.7873  -26.4984 H   0  0  0  0  0  0  0  0  0  0  0  0
   -2.7003   17.9282  -26.4984 H   0  0  0  0  0  0  0  0  0  0  0  0
   -5.5822   22.1964  -32.4999 H   0  0  0  0  0  0  0  0  0  0  0  0
   -7.9408   21.5884  -32.2100 H   0  0  0  0  0  0  0  0  0  0  0  0
   -9.2493   18.3738  -32.8470 H   0  0  0  0  0  0  0  0  0  0  0  0
   -9.1138   18.8137  -31.0948 H   0  0  0  0  0  0  0  0  0  0  0  0
  -10.1192   20.8043  -31.3896 H   0  0  0  0  0  0  0  0  0  0  0  0
   -9.2486   21.1277  -32.9272 H   0  0  0  0  0  0  0  0  0  0  0  0
  -10.7178   20.0943  -32.9272 H   0  0  0  0  0  0  0  0  0  0  0  0
   -6.8490   17.4400  -32.4331 H   0  0  0  0  0  0  0  0  0  0  0  0
   -4.4484   18.0026  -32.7295 H   0  0  0  0  0  0  0  0  0  0  0  0
   -4.2753   22.8978  -32.0954 H   0  0  0  0  0  0  0  0  0  0  0  0
   -5.6630   25.1849  -29.2951 H   0  0  0  0  0  0  0  0  0  0  0  0
   -6.1045   26.0669  -30.7963 H   0  0  0  0  0  0  0  0  0  0  0  0
   -6.0363   24.2719  -30.7963 H   0  0  0  0  0  0  0  0  0  0  0  0
  1  2  1  0
  2  3  1  0
  3  4  1  0
  4  5  2  0
  5  6  1  0
  6  7  1  0
  7  8  1  0
  8  9  1  0
  9 10  1  0
 10 11  1  0
 11 12  1  0
 12 13  1  0
 13 14  1  0
 12 15  1  0
 15 16  1  0
  8 17  2  0
 17 18  1  0
 18 19  2  0
 19 20  1  0
 20 21  2  0
 21 22  1  0
 22 23  2  0
 23 24  1  0
 24 25  1  0
 23 26  1  0
 26 27  2  0
 18 28  1  0
 28 29  1  0
 29 30  2  0
 30 31  1  0
 31 32  1  0
 30  4  1  0
 28  6  2  0
 27 20  1  0
  1 33  1  0
  1 34  1  0
  1 35  1  0
  2 36  1  0
  2 37  1  0
  5 38  1  0
  7 39  1  0
 10 40  1  0
 10 41  1  0
 11 42  1  0
 11 43  1  0
 13 44  1  0
 13 45  1  0
 14 46  1  0
 14 47  1  0
 14 48  1  0
 15 49  1  0
 15 50  1  0
 16 51  1  0
 16 52  1  0
 16 53  1  0
 21 54  1  0
 22 55  1  0
 24 56  1  0
 24 57  1  0
 25 58  1  0
 25 59  1  0
 25 60  1  0
 26 61  1  0
 27 62  1  0
 29 63  1  0
 32 64  1  0
 32 65  1  0
 32 66  1  0
M  END
>  <smiles>  (21) 
CCOc1cc2[nH]c(SCCN(CC)CC)nc(=Nc3ccc(CC)cc3)c2cc1OC

>  <score_type>  (21) 
oracle

>  <origin>  (21) 
adg

>  <m_score__min__energy>  (21) 
-8.9800000000000004

>  <m_primary>  (21) 
energy

$$$$
21:0
     RDKit          3D

 53 56  0  0  0  0  0  0  0  0999 V2000
   -6.0900   25.0070  -29.7770 C   0  0  0  0  0  0  0  0  0  0  0  0
   -5.0030   25.2510  -30.8160 C   0  0  0  0  0  0  0  0  0  0  0  0
   -3.9260   24.2450  -30.6620 N   0  0  0  0  0  0  0  0  0  0  0  0
   -3.2250   24.3700  -29.3580 C   0  0  0  0  0  0  0  0  0  0  0  0
   -1.8150   23.7580  -29.3300 C   0  0  0  0  0  0  0  0  0  0  0  0
   -4.3910   22.8790  -30.9920 C   0  0  0  0  0  0  0  0  0  0  0  0
   -3.6600   22.2990  -32.2130 C   0  0  0  0  0  0  0  0  0  0  0  0
   -4.6120   21.7640  -33.1880 N   0  0  0  0  0  0  0  0  0  0  0  0
   -5.7060   20.9240  -32.7940 C   0  0  0  0  0  0  0  0  0  0  0  0
   -6.9640   21.4590  -32.4280 C   0  0  0  0  0  0  0  0  0  0  0  0
   -7.1360   22.8490  -32.2720 C   0  0  0  0  0  0  0  0  0  0  0  0
   -8.3880   23.3810  -31.9700 C   0  0  0  0  0  0  0  0  0  0  0  0
   -9.4850   22.5430  -31.8110 C   0  0  0  0  0  0  0  0  0  0  0  0
   -9.3380   21.1590  -31.9200 C   0  0  0  0  0  0  0  0  0  0  0  0
   -8.0740   20.5790  -32.1950 C   0  0  0  0  0  0  0  0  0  0  0  0
   -7.9030   19.2030  -32.2500 N   0  0  0  0  0  0  0  0  0  0  0  0
   -9.0120   18.2830  -31.9290 C   0  0  0  0  0  0  0  0  0  0  0  0
   -6.6740   18.7130  -32.6110 C   0  0  0  0  0  0  0  0  0  0  0  0
   -6.3490   17.4100  -32.8060 N   0  0  0  0  0  0  0  0  0  0  0  0
   -5.0470   17.4200  -33.1560 C   0  0  0  0  0  0  0  0  0  0  0  0
   -4.2580   16.3130  -33.4620 C   0  0  0  0  0  0  0  0  0  0  0  0
   -2.9130   16.5330  -33.8060 C   0  0  0  0  0  0  0  0  0  0  0  0
   -2.1140   15.4810  -34.1080 F   0  0  0  0  0  0  0  0  0  0  0  0
   -2.3890   17.8430  -33.8330 C   0  0  0  0  0  0  0  0  0  0  0  0
   -3.2040   18.9450  -33.5230 C   0  0  0  0  0  0  0  0  0  0  0  0
   -4.5400   18.7020  -33.1940 C   0  0  0  0  0  0  0  0  0  0  0  0
   -5.5930   19.5370  -32.8550 C   0  0  0  0  0  0  0  0  0  0  0  0
   -5.6615   25.1032  -28.7685 H   0  0  0  0  0  0  0  0  0  0  0  0
   -6.8934   25.7471  -29.9061 H   0  0  0  0  0  0  0  0  0  0  0  0
   -6.5000   23.9945  -29.9061 H   0  0  0  0  0  0  0  0  0  0  0  0
   -5.4365   25.1704  -31.8238 H   0  0  0  0  0  0  0  0  0  0  0  0
   -4.5829   26.2574  -30.6724 H   0  0  0  0  0  0  0  0  0  0  0  0
   -3.1401   25.4394  -29.1149 H   0  0  0  0  0  0  0  0  0  0  0  0
   -3.8240   23.8083  -28.6261 H   0  0  0  0  0  0  0  0  0  0  0  0
   -1.4960   23.6196  -28.2864 H   0  0  0  0  0  0  0  0  0  0  0  0
   -1.8276   22.7844  -29.8418 H   0  0  0  0  0  0  0  0  0  0  0  0
   -1.1124   24.4322  -29.8418 H   0  0  0  0  0  0  0  0  0  0  0  0
   -4.2109   22.2242  -30.1267 H   0  0  0  0  0  0  0  0  0  0  0  0
   -5.4627   22.9350  -31.2337 H   0  0  0  0  0  0  0  0  0  0  0  0
   -3.0666   23.0939  -32.6883 H   0  0  0  0  0  0  0  0  0  0  0  0
   -3.0069   21.4809  -31.8750 H   0  0  0  0  0  0  0  0  0  0  0  0
   -4.5200   22.0330  -34.1940 H   0  0  0  0  0  0  0  0  0  0  0  0
   -6.2731   23.5209  -32.3898 H   0  0  0  0  0  0  0  0  0  0  0  0
   -8.5084   24.4685  -31.8570 H   0  0  0  0  0  0  0  0  0  0  0  0
  -10.4750   22.9726  -31.5980 H   0  0  0  0  0  0  0  0  0  0  0  0
  -10.2159   20.5090  -31.7906 H   0  0  0  0  0  0  0  0  0  0  0  0
   -9.1139   18.1985  -30.8370 H   0  0  0  0  0  0  0  0  0  0  0  0
   -9.9477   18.6738  -32.3554 H   0  0  0  0  0  0  0  0  0  0  0  0
   -8.8008   17.2913  -32.3554 H   0  0  0  0  0  0  0  0  0  0  0  0
   -6.9500   16.5600  -32.7440 H   0  0  0  0  0  0  0  0  0  0  0  0
   -4.6758   15.2958  -33.4351 H   0  0  0  0  0  0  0  0  0  0  0  0
   -1.3337   18.0029  -34.0990 H   0  0  0  0  0  0  0  0  0  0  0  0
   -2.8020   19.9688  -33.5389 H   0  0  0  0  0  0  0  0  0  0  0  0
  1  2  1  0
  2  3  1  0
  3  4  1  0
  4  5  1  0
  3  6  1  0
  6  7  1  0
  7  8  1  0
  8  9  1  0
  9 10  2  0
 10 11  1  0
 11 12  2  0
 12 13  1  0
 13 14  2  0
 14 15  1  0
 15 16  2  0
 16 17  1  0
 16 18  1  0
 18 19  1  0
 19 20  1  0
 20 21  2  0
 21 22  1  0
 22 23  1  0
 22 24  2  0
 24 25  1  0
 25 26  2  0
 26 27  1  0
 27  9  1  0
 15 10  1  0
 27 18  2  0
 26 20  1  0
  1 28  1  0
  1 29  1  0
  1 30  1  0
  2 31  1  0
  2 32  1  0
  4 33  1  0
  4 34  1  0
  5 35  1  0
  5 36  1  0
  5 37  1  0
  6 38  1  0
  6 39  1  0
  7 40  1  0
  7 41  1  0
  8 42  1  0
 11 43  1  0
 12 44  1  0
 13 45  1  0
 14 46  1  0
 17 47  1  0
 17 48  1  0
 17 49  1  0
 19 50  1  0
 21 51  1  0
 24 52  1  0
 25 53  1  0
M  CHG  1  16   1
M  END
>  <UniqueID>  (22) 
21

>  <SMILES>  (22) 
CCN(CC)CCNc1c2ccccc2[n+](C)c2[nH]c3cc(F)ccc3c12

>  <Energy>  (22) 
114.32821358397894

>  <Genealogy>  (22) 
CCN(CC)CCNc1c2ccccc2[n+](C)c2[nH]c3cc(F)ccc3c12 (3D coordinates assigned)
CCN(CC)CCNc1c2ccccc2[n+](C)c2[nH]c3cc(F)ccc3c12 (optimized conformer: 114.32821358397894 kcal/mol)

>  <smiles>  (22) 
CCN(CC)CCNc1c2ccccc2[n+](C)c2[nH]c3cc(F)ccc3c12

>  <score_type>  (22) 
oracle

>  <origin>  (22) 
adg

>  <m_score__min__energy>  (22) 
-8.7699999999999996

>  <m_primary>  (22) 
energy

$$$$
22:0
     RDKit          3D

 69 71  0  0  0  0  0  0  0  0999 V2000
   -1.6560   20.9490  -27.9870 C   0  0  0  0  0  0  0  0  0  0  0  0
   -0.5460   21.3750  -28.9440 C   0  0  0  0  0  0  0  0  0  0  0  0
   -0.2270   20.2840  -29.8780 N   0  0  0  0  0  0  0  0  0  0  0  0
    0.1010   20.7970  -31.2190 C   0  0  0  0  0  0  0  0  0  0  0  0
   -1.0770   20.6670  -32.1860 C   0  0  0  0  0  0  0  0  0  0  0  0
   -2.2640   20.1660  -31.5000 N   0  0  0  0  0  0  0  0  0  0  0  0
   -3.5690   20.6300  -31.8810 C   0  0  0  0  0  0  0  0  0  0  0  0
   -4.3800   19.8550  -32.7250 C   0  0  0  0  0  0  0  0  0  0  0  0
   -3.8880   18.6740  -33.3180 C   0  0  0  0  0  0  0  0  0  0  0  0
   -4.6750   17.9500  -34.2100 C   0  0  0  0  0  0  0  0  0  0  0  0
   -5.9490   18.4020  -34.5420 C   0  0  0  0  0  0  0  0  0  0  0  0
   -6.4620   19.5520  -33.9480 C   0  0  0  0  0  0  0  0  0  0  0  0
   -5.7070   20.2820  -32.9960 C   0  0  0  0  0  0  0  0  0  0  0  0
   -6.2250   21.3870  -32.3470 N   0  0  0  0  0  0  0  0  0  0  0  0
   -7.6870   21.6260  -32.3430 C   0  0  0  0  0  0  0  0  0  0  0  0
   -5.3800   22.2480  -31.6690 C   0  0  0  0  0  0  0  0  0  0  0  0
   -5.8160   23.5180  -31.2120 C   0  0  0  0  0  0  0  0  0  0  0  0
   -4.9460   24.3910  -30.5310 C   0  0  0  0  0  0  0  0  0  0  0  0
   -5.3630   25.6510  -30.0660 O   0  0  0  0  0  0  0  0  0  0  0  0
   -6.4900   25.8670  -29.2240 C   0  0  0  0  0  0  0  0  0  0  0  0
   -3.6140   24.0210  -30.3290 C   0  0  0  0  0  0  0  0  0  0  0  0
   -2.7560   24.9390  -29.7020 O   0  0  0  0  0  0  0  0  0  0  0  0
   -1.8500   24.6200  -28.6420 C   0  0  0  0  0  0  0  0  0  0  0  0
   -2.6170   24.4670  -27.3200 C   0  0  0  0  0  0  0  0  0  0  0  0
   -2.3450   25.6570  -26.3720 C   0  0  0  0  0  0  0  0  0  0  0  0
   -1.0480   25.5890  -25.6270 N   0  0  0  0  0  0  0  0  0  0  0  0
   -1.2000   26.3570  -24.3670 C   0  0  0  0  0  0  0  0  0  0  0  0
    0.0510   26.2040  -26.4130 C   0  0  0  0  0  0  0  0  0  0  0  0
   -0.6900   24.1930  -25.2790 C   0  0  0  0  0  0  0  0  0  0  0  0
   -3.1690   22.7610  -30.7590 C   0  0  0  0  0  0  0  0  0  0  0  0
   -4.0320   21.8770  -31.4300 C   0  0  0  0  0  0  0  0  0  0  0  0
   -1.3156   21.0797  -26.9492 H   0  0  0  0  0  0  0  0  0  0  0  0
   -2.5480   21.5687  -28.1610 H   0  0  0  0  0  0  0  0  0  0  0  0
   -1.9044   19.8916  -28.1610 H   0  0  0  0  0  0  0  0  0  0  0  0
   -0.8774   22.2552  -29.5145 H   0  0  0  0  0  0  0  0  0  0  0  0
    0.3538   21.6195  -28.3604 H   0  0  0  0  0  0  0  0  0  0  0  0
    0.6310   19.7990  -29.5220 H   0  0  0  0  0  0  0  0  0  0  0  0
    0.3765   21.8587  -31.1355 H   0  0  0  0  0  0  0  0  0  0  0  0
    0.9347   20.1998  -31.6168 H   0  0  0  0  0  0  0  0  0  0  0  0
   -1.3000   21.6546  -32.6161 H   0  0  0  0  0  0  0  0  0  0  0  0
   -0.8032   19.9546  -32.9782 H   0  0  0  0  0  0  0  0  0  0  0  0
   -2.1590   19.6740  -30.5840 H   0  0  0  0  0  0  0  0  0  0  0  0
   -2.8748   18.3219  -33.0741 H   0  0  0  0  0  0  0  0  0  0  0  0
   -4.2894   17.0198  -34.6528 H   0  0  0  0  0  0  0  0  0  0  0  0
   -6.5527   17.8486  -35.2764 H   0  0  0  0  0  0  0  0  0  0  0  0
   -7.4691   19.8996  -34.2218 H   0  0  0  0  0  0  0  0  0  0  0  0
   -8.0461   21.6847  -31.3049 H   0  0  0  0  0  0  0  0  0  0  0  0
   -7.9053   22.5718  -32.8606 H   0  0  0  0  0  0  0  0  0  0  0  0
   -8.1951   20.7990  -32.8606 H   0  0  0  0  0  0  0  0  0  0  0  0
   -6.8558   23.8275  -31.3934 H   0  0  0  0  0  0  0  0  0  0  0  0
   -6.1778   25.8072  -28.1709 H   0  0  0  0  0  0  0  0  0  0  0  0
   -6.9126   26.8625  -29.4252 H   0  0  0  0  0  0  0  0  0  0  0  0
   -7.2507   25.0983  -29.4252 H   0  0  0  0  0  0  0  0  0  0  0  0
   -1.3351   23.6763  -28.8752 H   0  0  0  0  0  0  0  0  0  0  0  0
   -1.1151   25.4321  -28.5399 H   0  0  0  0  0  0  0  0  0  0  0  0
   -3.6948   24.4189  -27.5346 H   0  0  0  0  0  0  0  0  0  0  0  0
   -2.2770   23.5448  -26.8260 H   0  0  0  0  0  0  0  0  0  0  0  0
   -2.3457   26.5787  -26.9724 H   0  0  0  0  0  0  0  0  0  0  0  0
   -3.1385   25.6311  -25.6107 H   0  0  0  0  0  0  0  0  0  0  0  0
   -1.0665   25.6827  -23.5082 H   0  0  0  0  0  0  0  0  0  0  0  0
   -0.4420   27.1533  -24.3292 H   0  0  0  0  0  0  0  0  0  0  0  0
   -2.2041   26.8045  -24.3292 H   0  0  0  0  0  0  0  0  0  0  0  0
    0.8016   26.6240  -25.7273 H   0  0  0  0  0  0  0  0  0  0  0  0
    0.5215   25.4381  -27.0470 H   0  0  0  0  0  0  0  0  0  0  0  0
   -0.3557   27.0056  -27.0470 H   0  0  0  0  0  0  0  0  0  0  0  0
   -0.6619   24.0836  -24.1848 H   0  0  0  0  0  0  0  0  0  0  0  0
   -1.4412   23.5067  -25.6970 H   0  0  0  0  0  0  0  0  0  0  0  0
    0.2988   23.9530  -25.6970 H   0  0  0  0  0  0  0  0  0  0  0  0
   -2.1283   22.4605  -30.5679 H   0  0  0  0  0  0  0  0  0  0  0  0
  1  2  1  0
  2  3  1  0
  3  4  1  0
  4  5  1  0
  5  6  1  0
  6  7  1  0
  7  8  2  0
  8  9  1  0
  9 10  2  0
 10 11  1  0
 11 12  2  0
 12 13  1  0
 13 14  2  0
 14 15  1  0
 14 16  1  0
 16 17  2  0
 17 18  1  0
 18 19  1  0
 19 20  1  0
 18 21  2  0
 21 22  1  0
 22 23  1  0
 23 24  1  0
 24 25  1  0
 25 26  1  0
 26 27  1  0
 26 28  1  0
 26 29  1  0
 21 30  1  0
 30 31  2  0
 31  7  1  0
 13  8  1  0
 31 16  1  0
  1 32  1  0
  1 33  1  0
  1 34  1  0
  2 35  1  0
  2 36  1  0
  3 37  1  0
  4 38  1  0
  4 39  1  0
  5 40  1  0
  5 41  1  0
  6 42  1  0
  9 43  1  0
 10 44  1  0
 11 45  1  0
 12 46  1  0
 15 47  1  0
 15 48  1  0
 15 49  1  0
 17 50  1  0
 20 51  1  0
 20 52  1  0
 20 53  1  0
 23 54  1  0
 23 55  1  0
 24 56  1  0
 24 57  1  0
 25 58  1  0
 25 59  1  0
 27 60  1  0
 27 61  1  0
 27 62  1  0
 28 63  1  0
 28 64  1  0
 28 65  1  0
 29 66  1  0
 29 67  1  0
 29 68  1  0
 30 69  1  0
M  CHG  2  14   1  26   1
M  END
>  <UniqueID>  (23) 
22

>  <SMILES>  (23) 
CCNCCNc1c2ccccc2[n+](C)c2cc(OC)c(OCCC[N+](C)(C)C)cc12

>  <Energy>  (23) 
96.10791877217274

>  <Genealogy>  (23) 
CCNCCNc1c2ccccc2[n+](C)c2cc(OC)c(OCCC[N+](C)(C)C)cc12 (3D coordinates assigned)
CCNCCNc1c2ccccc2[n+](C)c2cc(OC)c(OCCC[N+](C)(C)C)cc12 (optimized conformer: 96.10791877217274 kcal/mol)

>  <smiles>  (23) 
CCNCCNc1c2ccccc2[n+](C)c2cc(OC)c(OCCC[N+](C)(C)C)cc12

>  <score_type>  (23) 
oracle

>  <origin>  (23) 
adg

>  <m_score__min__energy>  (23) 
-7.96

>  <m_primary>  (23) 
energy

$$$$
23:0
     RDKit          3D

 30 31  0  0  0  0  0  0  0  0999 V2000
   -4.9980   25.1770  -30.2120 C   0  0  0  0  0  0  0  0  0  0  0  0
   -3.5980   24.9610  -30.3590 O   0  0  0  0  0  0  0  0  0  0  0  0
   -2.9910   23.6990  -30.4550 C   0  0  0  0  0  0  0  0  0  0  0  0
   -3.5220   22.6800  -31.2720 C   0  0  0  0  0  0  0  0  0  0  0  0
   -2.8880   21.4390  -31.3580 C   0  0  0  0  0  0  0  0  0  0  0  0
   -1.7160   21.1990  -30.6390 C   0  0  0  0  0  0  0  0  0  0  0  0
   -0.9190   19.6410  -30.7550 Cl  0  0  0  0  0  0  0  0  0  0  0  0
   -1.1790   22.2000  -29.8260 C   0  0  0  0  0  0  0  0  0  0  0  0
   -1.8150   23.4470  -29.7190 C   0  0  0  0  0  0  0  0  0  0  0  0
   -1.1200   24.6920  -28.6760 S   0  0  0  0  0  0  0  0  0  0  0  0
    0.3320   24.3820  -28.4540 O   0  0  0  0  0  0  0  0  0  0  0  0
   -1.2420   26.0470  -29.3150 O   0  0  0  0  0  0  0  0  0  0  0  0
   -1.9270   24.7260  -27.1400 N   0  0  0  0  0  0  0  0  0  0  0  0
   -1.3860   25.2830  -25.9350 C   0  0  0  0  0  0  0  0  0  0  0  0
   -1.7200   26.5950  -25.5870 C   0  0  0  0  0  0  0  0  0  0  0  0
   -1.2010   27.1660  -24.4250 C   0  0  0  0  0  0  0  0  0  0  0  0
   -0.3470   26.4160  -23.6170 C   0  0  0  0  0  0  0  0  0  0  0  0
   -0.0260   25.1400  -23.9630 N   0  0  0  0  0  0  0  0  0  0  0  0
   -0.5210   24.5620  -25.0920 C   0  0  0  0  0  0  0  0  0  0  0  0
   -5.2526   25.2163  -29.1426 H   0  0  0  0  0  0  0  0  0  0  0  0
   -5.2744   26.1284  -30.6899 H   0  0  0  0  0  0  0  0  0  0  0  0
   -5.5483   24.3531  -30.6899 H   0  0  0  0  0  0  0  0  0  0  0  0
   -4.4423   22.8640  -31.8457 H   0  0  0  0  0  0  0  0  0  0  0  0
   -3.3132   20.6485  -31.9939 H   0  0  0  0  0  0  0  0  0  0  0  0
   -0.2516   22.0099  -29.2659 H   0  0  0  0  0  0  0  0  0  0  0  0
   -2.3939   27.1787  -26.2313 H   0  0  0  0  0  0  0  0  0  0  0  0
   -1.4628   28.1980  -24.1486 H   0  0  0  0  0  0  0  0  0  0  0  0
    0.0677   26.8568  -22.6985 H   0  0  0  0  0  0  0  0  0  0  0  0
    0.6170   24.5910  -23.3480 H   0  0  0  0  0  0  0  0  0  0  0  0
   -0.2437   23.5282  -25.3457 H   0  0  0  0  0  0  0  0  0  0  0  0
  1  2  1  0
  2  3  1  0
  3  4  2  0
  4  5  1  0
  5  6  2  0
  6  7  1  0
  6  8  1  0
  8  9  2  0
  9 10  1  0
 10 11  2  0
 10 12  2  0
 10 13  1  0
 13 14  1  0
 14 15  2  0
 15 16  1  0
 16 17  2  0
 17 18  1  0
 18 19  2  0
  9  3  1  0
 19 14  1  0
  1 20  1  0
  1 21  1  0
  1 22  1  0
  4 23  1  0
  5 24  1  0
  8 25  1  0
 15 26  1  0
 16 27  1  0
 17 28  1  0
 18 29  1  0
 19 30  1  0
M  CHG  2  13  -1  18   1
M  END
>  <UniqueID>  (24) 
23

>  <SMILES>  (24) 
COc1ccc(Cl)cc1S(=O)(=O)[N-]c1ccc[nH+]c1

>  <Energy>  (24) 
33.62681082063109

>  <Genealogy>  (24) 
COc1ccc(Cl)cc1S(=O)(=O)[N-]c1ccc[nH+]c1 (protonated)
COc1ccc(Cl)cc1S(=O)(=O)[N-]c1ccc[nH+]c1 (3D coordinates assigned)
COc1ccc(Cl)cc1S(=O)(=O)[N-]c1ccc[nH+]c1 (optimized conformer: 33.62681082063109 kcal/mol)

>  <smiles>  (24) 
COc1ccc(Cl)cc1S(=O)(=O)Nc1cccnc1

>  <score_type>  (24) 
oracle

>  <origin>  (24) 
adg

>  <m_score__min__energy>  (24) 
-8.1899999999999995

>  <m_primary>  (24) 
energy

$$$$
24:0
     RDKit          3D

 37 39  0  0  0  0  0  0  0  0999 V2000
   -0.4130   27.2900  -24.2420 C   0  0  0  0  0  0  0  0  0  0  0  0
   -1.0900   26.4030  -25.1800 N   0  0  0  0  0  0  0  0  0  0  0  0
   -0.5350   25.8330  -26.2710 C   0  0  0  0  0  0  0  0  0  0  0  0
   -1.5340   25.1580  -26.9420 C   0  0  0  0  0  0  0  0  0  0  0  0
   -2.6730   25.3470  -26.1990 C   0  0  0  0  0  0  0  0  0  0  0  0
   -2.3870   26.1280  -25.1430 N   0  0  0  0  0  0  0  0  0  0  0  0
   -4.0260   24.8650  -26.6180 C   0  0  0  0  0  0  0  0  0  0  0  0
   -3.8720   23.7050  -27.6190 C   0  0  0  0  0  0  0  0  0  0  0  0
   -2.8500   24.0250  -28.6360 N   0  0  0  0  0  0  0  0  0  0  0  0
   -3.2280   24.1300  -30.0190 C   0  0  0  0  0  0  0  0  0  0  0  0
   -2.9680   23.1810  -30.8050 O   0  0  0  0  0  0  0  0  0  0  0  0
   -3.8680   25.3010  -30.5390 N   0  0  0  0  0  0  0  0  0  0  0  0
   -5.3010   25.5590  -30.4810 C   0  0  0  0  0  0  0  0  0  0  0  0
   -6.0440   24.2960  -30.7850 C   0  0  0  0  0  0  0  0  0  0  0  0
   -6.8640   23.6990  -29.8160 C   0  0  0  0  0  0  0  0  0  0  0  0
   -7.5200   22.5020  -30.1170 C   0  0  0  0  0  0  0  0  0  0  0  0
   -7.3460   21.9120  -31.3710 C   0  0  0  0  0  0  0  0  0  0  0  0
   -6.5120   22.5270  -32.3060 C   0  0  0  0  0  0  0  0  0  0  0  0
   -5.8820   23.6920  -31.9950 N   0  0  0  0  0  0  0  0  0  0  0  0
   -1.4800   24.3580  -28.2040 C   0  0  0  0  0  0  0  0  0  0  0  0
   -0.6476   26.9826  -23.2122 H   0  0  0  0  0  0  0  0  0  0  0  0
    0.6737   27.2334  -24.4030 H   0  0  0  0  0  0  0  0  0  0  0  0
   -0.7542   28.3233  -24.4030 H   0  0  0  0  0  0  0  0  0  0  0  0
    0.5216   25.8954  -26.5705 H   0  0  0  0  0  0  0  0  0  0  0  0
   -3.0600   26.4840  -24.4270 H   0  0  0  0  0  0  0  0  0  0  0  0
   -4.5802   24.5154  -25.7345 H   0  0  0  0  0  0  0  0  0  0  0  0
   -4.5768   25.6892  -27.0948 H   0  0  0  0  0  0  0  0  0  0  0  0
   -3.5694   22.7974  -27.0761 H   0  0  0  0  0  0  0  0  0  0  0  0
   -4.8356   23.5440  -28.1246 H   0  0  0  0  0  0  0  0  0  0  0  0
   -5.5705   25.9105  -29.4741 H   0  0  0  0  0  0  0  0  0  0  0  0
   -5.5667   26.3296  -31.2197 H   0  0  0  0  0  0  0  0  0  0  0  0
   -6.9895   24.1682  -28.8290 H   0  0  0  0  0  0  0  0  0  0  0  0
   -8.1711   22.0263  -29.3688 H   0  0  0  0  0  0  0  0  0  0  0  0
   -7.8610   20.9722  -31.6192 H   0  0  0  0  0  0  0  0  0  0  0  0
   -6.3640   22.0693  -33.2953 H   0  0  0  0  0  0  0  0  0  0  0  0
   -0.9164   23.4303  -28.0258 H   0  0  0  0  0  0  0  0  0  0  0  0
   -0.9816   24.9459  -28.9888 H   0  0  0  0  0  0  0  0  0  0  0  0
  1  2  1  0
  2  3  1  0
  3  4  2  0
  4  5  1  0
  5  6  2  0
  5  7  1  0
  7  8  1  0
  8  9  1  0
  9 10  1  0
 10 11  2  0
 10 12  1  0
 12 13  1  0
 13 14  1  0
 14 15  2  0
 15 16  1  0
 16 17  2  0
 17 18  1  0
 18 19  2  0
  9 20  1  0
  6  2  1  0
 19 14  1  0
 20  4  1  0
  1 21  1  0
  1 22  1  0
  1 23  1  0
  3 24  1  0
  6 25  1  0
  7 26  1  0
  7 27  1  0
  8 28  1  0
  8 29  1  0
 13 30  1  0
 13 31  1  0
 15 32  1  0
 16 33  1  0
 17 34  1  0
 18 35  1  0
 20 36  1  0
 20 37  1  0
M  CHG  2   6   1  12  -1
M  END
>  <UniqueID>  (25) 
24

>  <SMILES>  (25) 
Cn1cc2c([nH+]1)CCN(C(=O)[N-]Cc1ccccn1)C2

>  <Energy>  (25) 
73.19913976042001

>  <Genealogy>  (25) 
Cn1cc2c([nH+]1)CCN(C(=O)[N-]Cc1ccccn1)C2 (protonated)
Cn1cc2c([nH+]1)CCN(C(=O)[N-]Cc1ccccn1)C2 (3D coordinates assigned)
Cn1cc2c([nH+]1)CCN(C(=O)[N-]Cc1ccccn1)C2 (nonaromatic ring conformer: 73.19913976042001 kcal/mol)

>  <smiles>  (25) 
Cn1cc2c(n1)CCN(C(=O)NCc1ccccn1)C2

>  <score_type>  (25) 
oracle

>  <origin>  (25) 
adg

>  <m_score__min__energy>  (25) 
-8.4700000000000006

>  <m_primary>  (25) 
energy

$$$$
25:0
     RDKit          3D

 40 42  0  0  0  0  0  0  0  0999 V2000
   -3.8530   22.5540  -28.3060 C   0  0  0  0  0  0  0  0  0  0  0  0
   -3.4920   21.9100  -29.6470 C   0  0  0  0  0  0  0  0  0  0  0  0
   -4.2170   22.5340  -30.7770 N   0  0  0  0  0  0  0  0  0  0  0  0
   -4.6700   23.9090  -30.4940 C   0  0  0  0  0  0  0  0  0  0  0  0
   -5.7860   24.3910  -31.4400 C   0  0  0  0  0  0  0  0  0  0  0  0
   -6.1930   23.3540  -32.3930 N   0  0  0  0  0  0  0  0  0  0  0  0
   -7.2090   22.3670  -32.1240 C   0  0  0  0  0  0  0  0  0  0  0  0
   -8.4300   22.8050  -31.5750 C   0  0  0  0  0  0  0  0  0  0  0  0
   -9.4880   21.9270  -31.3780 C   0  0  0  0  0  0  0  0  0  0  0  0
   -9.3600   20.5950  -31.7380 C   0  0  0  0  0  0  0  0  0  0  0  0
   -8.1600   20.1270  -32.2760 C   0  0  0  0  0  0  0  0  0  0  0  0
   -8.0500   18.5040  -32.7040 S   0  0  0  0  0  0  0  0  0  0  0  0
   -6.5410   18.1030  -33.3100 C   0  0  0  0  0  0  0  0  0  0  0  0
   -6.2800   16.7920  -33.7250 C   0  0  0  0  0  0  0  0  0  0  0  0
   -5.0200   16.4540  -34.2130 C   0  0  0  0  0  0  0  0  0  0  0  0
   -4.0210   17.4220  -34.2850 C   0  0  0  0  0  0  0  0  0  0  0  0
   -4.2780   18.7330  -33.8710 C   0  0  0  0  0  0  0  0  0  0  0  0
   -5.5510   19.1070  -33.3730 C   0  0  0  0  0  0  0  0  0  0  0  0
   -5.7810   20.4590  -32.9530 C   0  0  0  0  0  0  0  0  0  0  0  0
   -4.7890   21.2360  -33.0000 O   0  0  0  0  0  0  0  0  0  0  0  0
   -7.0380   20.9800  -32.4680 C   0  0  0  0  0  0  0  0  0  0  0  0
   -3.4952   21.9158  -27.4846 H   0  0  0  0  0  0  0  0  0  0  0  0
   -3.3781   23.5437  -28.2349 H   0  0  0  0  0  0  0  0  0  0  0  0
   -4.9450   22.6653  -28.2349 H   0  0  0  0  0  0  0  0  0  0  0  0
   -2.4106   22.0215  -29.8144 H   0  0  0  0  0  0  0  0  0  0  0  0
   -3.7815   20.8497  -29.6027 H   0  0  0  0  0  0  0  0  0  0  0  0
   -3.6570   22.5160  -31.6590 H   0  0  0  0  0  0  0  0  0  0  0  0
   -5.0750   21.9630  -30.9650 H   0  0  0  0  0  0  0  0  0  0  0  0
   -5.0475   23.9464  -29.4615 H   0  0  0  0  0  0  0  0  0  0  0  0
   -3.8064   24.5735  -30.6446 H   0  0  0  0  0  0  0  0  0  0  0  0
   -6.6597   24.6808  -30.8378 H   0  0  0  0  0  0  0  0  0  0  0  0
   -5.3950   25.2428  -32.0157 H   0  0  0  0  0  0  0  0  0  0  0  0
   -5.8080   23.4270  -33.3620 H   0  0  0  0  0  0  0  0  0  0  0  0
   -8.5479   23.8627  -31.2970 H   0  0  0  0  0  0  0  0  0  0  0  0
  -10.4279   22.2891  -30.9360 H   0  0  0  0  0  0  0  0  0  0  0  0
  -10.2056   19.9052  -31.5996 H   0  0  0  0  0  0  0  0  0  0  0  0
   -7.0699   16.0287  -33.6658 H   0  0  0  0  0  0  0  0  0  0  0  0
   -4.8142   15.4244  -34.5410 H   0  0  0  0  0  0  0  0  0  0  0  0
   -3.0256   17.1542  -34.6691 H   0  0  0  0  0  0  0  0  0  0  0  0
   -3.4788   19.4863  -33.9330 H   0  0  0  0  0  0  0  0  0  0  0  0
  1  2  1  0
  2  3  1  0
  3  4  1  0
  4  5  1  0
  5  6  1  0
  6  7  1  0
  7  8  2  0
  8  9  1  0
  9 10  2  0
 10 11  1  0
 11 12  1  0
 12 13  1  0
 13 14  2  0
 14 15  1  0
 15 16  2  0
 16 17  1  0
 17 18  2  0
 18 19  1  0
 19 20  2  0
 19 21  1  0
 21  7  1  0
 21 11  2  0
 18 13  1  0
  1 22  1  0
  1 23  1  0
  1 24  1  0
  2 25  1  0
  2 26  1  0
  3 27  1  0
  3 28  1  0
  4 29  1  0
  4 30  1  0
  5 31  1  0
  5 32  1  0
  6 33  1  0
  8 34  1  0
  9 35  1  0
 10 36  1  0
 14 37  1  0
 15 38  1  0
 16 39  1  0
 17 40  1  0
M  CHG  1   3   1
M  END
>  <UniqueID>  (26) 
25

>  <SMILES>  (26) 
CC[NH2+]CCNc1cccc2sc3ccccc3c(=O)c12

>  <Energy>  (26) 
60.81831023141784

>  <Genealogy>  (26) 
CC[NH2+]CCNc1cccc2sc3ccccc3c(=O)c12 (protonated)
CC[NH2+]CCNc1cccc2sc3ccccc3c(=O)c12 (3D coordinates assigned)
CC[NH2+]CCNc1cccc2sc3ccccc3c(=O)c12 (optimized conformer: 60.81831023141784 kcal/mol)

>  <smiles>  (26) 
CCNCCNc1cccc2sc3ccccc3c(=O)c12

>  <score_type>  (26) 
oracle

>  <origin>  (26) 
adg

>  <m_score__min__energy>  (26) 
-6.6399999999999997

>  <m_primary>  (26) 
energy

$$$$
26:0
     RDKit          3D

 60 63  0  0  0  0  0  0  0  0999 V2000
   -3.1120   22.1210  -29.1490 C   0  0  0  0  0  0  0  0  0  0  0  0
   -2.7210   23.5030  -29.6710 C   0  0  0  0  0  0  0  0  0  0  0  0
   -3.8200   24.5440  -29.4220 C   0  0  0  0  0  0  0  0  0  0  0  0
   -4.1430   25.2810  -30.6540 N   0  0  0  0  0  0  0  0  0  0  0  0
   -5.4850   24.9380  -31.1490 C   0  0  0  0  0  0  0  0  0  0  0  0
   -5.7220   23.4300  -31.0740 C   0  0  0  0  0  0  0  0  0  0  0  0
   -5.6530   22.8100  -32.3990 N   0  0  0  0  0  0  0  0  0  0  0  0
   -5.7220   21.3840  -32.5800 C   0  0  0  0  0  0  0  0  0  0  0  0
   -4.5880   20.6660  -33.0130 C   0  0  0  0  0  0  0  0  0  0  0  0
   -4.6690   19.2550  -33.1370 C   0  0  0  0  0  0  0  0  0  0  0  0
   -5.8160   18.5840  -32.7660 N   0  0  0  0  0  0  0  0  0  0  0  0
   -5.8040   17.1090  -32.6490 C   0  0  0  0  0  0  0  0  0  0  0  0
   -6.9710   19.2860  -32.4870 C   0  0  0  0  0  0  0  0  0  0  0  0
   -8.2170   18.6280  -32.3140 C   0  0  0  0  0  0  0  0  0  0  0  0
   -9.3800   19.3470  -32.0450 C   0  0  0  0  0  0  0  0  0  0  0  0
   -9.3400   20.7330  -31.9580 C   0  0  0  0  0  0  0  0  0  0  0  0
   -8.1360   21.4090  -32.1380 C   0  0  0  0  0  0  0  0  0  0  0  0
   -6.9390   20.7020  -32.3900 C   0  0  0  0  0  0  0  0  0  0  0  0
   -3.4890   18.5120  -33.6820 C   0  0  0  0  0  0  0  0  0  0  0  0
   -3.6550   17.7060  -34.7700 N   0  0  0  0  0  0  0  0  0  0  0  0
   -2.6170   17.0330  -35.3280 C   0  0  0  0  0  0  0  0  0  0  0  0
   -1.3310   17.1700  -34.8120 C   0  0  0  0  0  0  0  0  0  0  0  0
   -1.1040   18.0060  -33.7110 C   0  0  0  0  0  0  0  0  0  0  0  0
    0.3010   18.1600  -33.1910 C   0  0  0  0  0  0  0  0  0  0  0  0
   -2.2010   18.6730  -33.1150 C   0  0  0  0  0  0  0  0  0  0  0  0
   -2.0360   19.6070  -31.9320 C   0  0  0  0  0  0  0  0  0  0  0  0
   -2.1460   21.0800  -32.3580 C   0  0  0  0  0  0  0  0  0  0  0  0
   -3.2840   21.3790  -33.3570 C   0  0  0  0  0  0  0  0  0  0  0  0
   -3.1094   22.1303  -28.0490 H   0  0  0  0  0  0  0  0  0  0  0  0
   -4.1183   21.8635  -29.5111 H   0  0  0  0  0  0  0  0  0  0  0  0
   -2.3898   21.3745  -29.5111 H   0  0  0  0  0  0  0  0  0  0  0  0
   -1.8020   23.8281  -29.1614 H   0  0  0  0  0  0  0  0  0  0  0  0
   -2.5674   23.4247  -30.7574 H   0  0  0  0  0  0  0  0  0  0  0  0
   -4.7247   24.0318  -29.0625 H   0  0  0  0  0  0  0  0  0  0  0  0
   -3.4568   25.2616  -28.6716 H   0  0  0  0  0  0  0  0  0  0  0  0
   -3.4510   24.9860  -31.3810 H   0  0  0  0  0  0  0  0  0  0  0  0
   -6.2385   25.4525  -30.5345 H   0  0  0  0  0  0  0  0  0  0  0  0
   -5.5654   25.2558  -32.1990 H   0  0  0  0  0  0  0  0  0  0  0  0
   -4.9544   22.9791  -30.4278 H   0  0  0  0  0  0  0  0  0  0  0  0
   -6.7283   23.2584  -30.6643 H   0  0  0  0  0  0  0  0  0  0  0  0
   -5.5120   23.4220  -33.2340 H   0  0  0  0  0  0  0  0  0  0  0  0
   -5.8017   16.8255  -31.5862 H   0  0  0  0  0  0  0  0  0  0  0  0
   -6.6988   16.6952  -33.1369 H   0  0  0  0  0  0  0  0  0  0  0  0
   -4.9026   16.7098  -33.1369 H   0  0  0  0  0  0  0  0  0  0  0  0
   -8.2652   17.5319  -32.3936 H   0  0  0  0  0  0  0  0  0  0  0  0
  -10.3324   18.8157  -31.9011 H   0  0  0  0  0  0  0  0  0  0  0  0
  -10.2605   21.2970  -31.7467 H   0  0  0  0  0  0  0  0  0  0  0  0
   -8.1166   22.5075  -32.0833 H   0  0  0  0  0  0  0  0  0  0  0  0
   -4.6000   17.6060  -35.2050 H   0  0  0  0  0  0  0  0  0  0  0  0
   -2.7925   16.3758  -36.1925 H   0  0  0  0  0  0  0  0  0  0  0  0
   -0.4936   16.6220  -35.2687 H   0  0  0  0  0  0  0  0  0  0  0  0
    0.2871   18.1585  -32.0911 H   0  0  0  0  0  0  0  0  0  0  0  0
    0.9189   17.3242  -33.5511 H   0  0  0  0  0  0  0  0  0  0  0  0
    0.7232   19.1098  -33.5511 H   0  0  0  0  0  0  0  0  0  0  0  0
   -2.8206   19.3892  -31.1924 H   0  0  0  0  0  0  0  0  0  0  0  0
   -1.0367   19.4458  -31.5015 H   0  0  0  0  0  0  0  0  0  0  0  0
   -2.3142   21.6861  -31.4556 H   0  0  0  0  0  0  0  0  0  0  0  0
   -1.2064   21.3250  -32.8748 H   0  0  0  0  0  0  0  0  0  0  0  0
   -3.4691   22.4633  -33.3619 H   0  0  0  0  0  0  0  0  0  0  0  0
   -2.9599   21.0109  -34.3416 H   0  0  0  0  0  0  0  0  0  0  0  0
  1  2  1  0
  2  3  1  0
  3  4  1  0
  4  5  1  0
  5  6  1  0
  6  7  1  0
  7  8  1  0
  8  9  2  0
  9 10  1  0
 10 11  2  0
 11 12  1  0
 11 13  1  0
 13 14  2  0
 14 15  1  0
 15 16  2  0
 16 17  1  0
 17 18  2  0
 10 19  1  0
 19 20  2  0
 20 21  1  0
 21 22  2  0
 22 23  1  0
 23 24  1  0
 23 25  2  0
 25 26  1  0
 26 27  1  0
 27 28  1  0
 18  8  1  0
 25 19  1  0
 28  9  1  0
 18 13  1  0
  1 29  1  0
  1 30  1  0
  1 31  1  0
  2 32  1  0
  2 33  1  0
  3 34  1  0
  3 35  1  0
  4 36  1  0
  5 37  1  0
  5 38  1  0
  6 39  1  0
  6 40  1  0
  7 41  1  0
 12 42  1  0
 12 43  1  0
 12 44  1  0
 14 45  1  0
 15 46  1  0
 16 47  1  0
 17 48  1  0
 20 49  1  0
 21 50  1  0
 22 51  1  0
 24 52  1  0
 24 53  1  0
 24 54  1  0
 26 55  1  0
 26 56  1  0
 27 57  1  0
 27 58  1  0
 28 59  1  0
 28 60  1  0
M  CHG  2  11   1  20   1
M  END
>  <UniqueID>  (27) 
26

>  <SMILES>  (27) 
CCCNCCNc1c2c([n+](C)c3ccccc13)-c1[nH+]ccc(C)c1CCC2

>  <Energy>  (27) 
88.83849225661987

>  <Genealogy>  (27) 
CCCNCCNc1c2c([n+](C)c3ccccc13)-c1[nH+]ccc(C)c1CCC2 (protonated)
CCCNCCNc1c2c([n+](C)c3ccccc13)-c1[nH+]ccc(C)c1CCC2 (3D coordinates assigned)
CCCNCCNc1c2c([n+](C)c3ccccc13)-c1[nH+]ccc(C)c1CCC2 (nonaromatic ring conformer: 88.83849225661987 kcal/mol)

>  <smiles>  (27) 
CCCNCCNc1c2c([n+](C)c3ccccc13)-c1nccc(C)c1CCC2

>  <score_type>  (27) 
oracle

>  <origin>  (27) 
adg

>  <m_score__min__energy>  (27) 
-7.6100000000000003

>  <m_primary>  (27) 
energy

$$$$
27:0
     RDKit          3D

 76 79  0  0  0  0  0  0  0  0999 V2000
    1.2420   18.6020  -36.5040 C   0  0  0  0  0  0  0  0  0  0  0  0
    2.5620   18.4230  -35.7530 C   0  0  0  0  0  0  0  0  0  0  0  0
    2.5190   17.2680  -34.7220 C   0  0  0  0  0  0  0  0  0  0  0  0
    1.3240   17.3350  -33.8210 N   0  0  0  0  0  0  0  0  0  0  0  0
    1.7550   17.5070  -32.4070 C   0  0  0  0  0  0  0  0  0  0  0  0
    0.5650   17.5380  -31.4210 C   0  0  0  0  0  0  0  0  0  0  0  0
    0.2340   18.9700  -31.0090 C   0  0  0  0  0  0  0  0  0  0  0  0
    0.4910   16.1090  -33.9620 C   0  0  0  0  0  0  0  0  0  0  0  0
   -0.7610   16.3660  -34.8260 C   0  0  0  0  0  0  0  0  0  0  0  0
   -2.0450   16.4460  -33.9720 C   0  0  0  0  0  0  0  0  0  0  0  0
   -2.8890   17.5780  -34.3680 N   0  0  0  0  0  0  0  0  0  0  0  0
   -2.5780   18.9330  -34.0070 C   0  0  0  0  0  0  0  0  0  0  0  0
   -1.2600   19.3620  -34.2030 C   0  0  0  0  0  0  0  0  0  0  0  0
   -0.8350   20.6230  -33.7940 C   0  0  0  0  0  0  0  0  0  0  0  0
    0.5250   21.0390  -34.0260 N   0  0  0  0  0  0  0  0  0  0  0  0
    1.4800   20.2940  -33.7250 O   0  0  0  0  0  0  0  0  0  0  0  0
    0.7970   22.2590  -34.6080 O   0  0  0  0  0  0  0  0  0  0  0  0
   -1.7430   21.4660  -33.1440 C   0  0  0  0  0  0  0  0  0  0  0  0
   -3.0790   21.0730  -32.8950 C   0  0  0  0  0  0  0  0  0  0  0  0
   -3.5350   19.8020  -33.3980 C   0  0  0  0  0  0  0  0  0  0  0  0
   -4.9170   19.4620  -33.2410 C   0  0  0  0  0  0  0  0  0  0  0  0
   -5.4870   18.2770  -33.8150 N   0  0  0  0  0  0  0  0  0  0  0  0
   -5.7230   18.2150  -35.2620 C   0  0  0  0  0  0  0  0  0  0  0  0
   -5.6070   17.0760  -32.9820 C   0  0  0  0  0  0  0  0  0  0  0  0
   -5.7580   20.4130  -32.6500 C   0  0  0  0  0  0  0  0  0  0  0  0
   -7.1340   20.4510  -32.4490 C   0  0  0  0  0  0  0  0  0  0  0  0
   -8.1550   19.5230  -32.6890 C   0  0  0  0  0  0  0  0  0  0  0  0
   -9.4760   19.8930  -32.3970 C   0  0  0  0  0  0  0  0  0  0  0  0
   -9.7650   21.1700  -31.8800 C   0  0  0  0  0  0  0  0  0  0  0  0
   -8.7330   22.0900  -31.6470 C   0  0  0  0  0  0  0  0  0  0  0  0
   -7.4170   21.7010  -31.9380 C   0  0  0  0  0  0  0  0  0  0  0  0
   -6.2940   22.4470  -31.8070 N   0  0  0  0  0  0  0  0  0  0  0  0
   -6.2720   23.8890  -31.5250 C   0  0  0  0  0  0  0  0  0  0  0  0
   -5.2740   21.6260  -32.1980 C   0  0  0  0  0  0  0  0  0  0  0  0
   -3.9310   21.9050  -32.1900 N   0  0  0  0  0  0  0  0  0  0  0  0
   -3.3850   22.9590  -31.3140 C   0  0  0  0  0  0  0  0  0  0  0  0
    0.4208   18.7134  -35.7807 H   0  0  0  0  0  0  0  0  0  0  0  0
    1.2985   19.5007  -37.1358 H   0  0  0  0  0  0  0  0  0  0  0  0
    1.0572   17.7207  -37.1358 H   0  0  0  0  0  0  0  0  0  0  0  0
    3.3556   18.2107  -36.4845 H   0  0  0  0  0  0  0  0  0  0  0  0
    2.7538   19.3531  -35.1979 H   0  0  0  0  0  0  0  0  0  0  0  0
    2.4951   16.3124  -35.2663 H   0  0  0  0  0  0  0  0  0  0  0  0
    3.4146   17.3566  -34.0896 H   0  0  0  0  0  0  0  0  0  0  0  0
    0.7380   18.1630  -34.0880 H   0  0  0  0  0  0  0  0  0  0  0  0
    2.4151   16.6699  -32.1359 H   0  0  0  0  0  0  0  0  0  0  0  0
    2.2737   18.4742  -32.3327 H   0  0  0  0  0  0  0  0  0  0  0  0
   -0.3153   17.0903  -31.9053 H   0  0  0  0  0  0  0  0  0  0  0  0
    0.8404   16.9688  -30.5209 H   0  0  0  0  0  0  0  0  0  0  0  0
    0.2175   19.0412  -29.9114 H   0  0  0  0  0  0  0  0  0  0  0  0
    0.9980   19.6526  -31.4093 H   0  0  0  0  0  0  0  0  0  0  0  0
   -0.7521   19.2481  -31.4093 H   0  0  0  0  0  0  0  0  0  0  0  0
    1.0947   15.3203  -34.4348 H   0  0  0  0  0  0  0  0  0  0  0  0
    0.1586   15.8031  -32.9590 H   0  0  0  0  0  0  0  0  0  0  0  0
   -0.6324   17.3167  -35.3642 H   0  0  0  0  0  0  0  0  0  0  0  0
   -0.8698   15.5247  -35.5263 H   0  0  0  0  0  0  0  0  0  0  0  0
   -2.6159   15.5142  -34.0981 H   0  0  0  0  0  0  0  0  0  0  0  0
   -1.7505   16.5882  -32.9217 H   0  0  0  0  0  0  0  0  0  0  0  0
   -3.6200   17.4040  -35.0910 H   0  0  0  0  0  0  0  0  0  0  0  0
   -0.5428   18.6864  -34.6920 H   0  0  0  0  0  0  0  0  0  0  0  0
   -1.4088   22.4619  -32.8176 H   0  0  0  0  0  0  0  0  0  0  0  0
   -6.7711   17.9397  -35.4511 H   0  0  0  0  0  0  0  0  0  0  0  0
   -5.5156   19.1981  -35.7098 H   0  0  0  0  0  0  0  0  0  0  0  0
   -5.0592   17.4608  -35.7098 H   0  0  0  0  0  0  0  0  0  0  0  0
   -5.5784   17.3619  -31.9202 H   0  0  0  0  0  0  0  0  0  0  0  0
   -6.5600   16.5719  -33.2005 H   0  0  0  0  0  0  0  0  0  0  0  0
   -4.7726   16.3933  -33.2005 H   0  0  0  0  0  0  0  0  0  0  0  0
   -7.9263   18.5274  -33.0969 H   0  0  0  0  0  0  0  0  0  0  0  0
  -10.2937   19.1787  -32.5736 H   0  0  0  0  0  0  0  0  0  0  0  0
  -10.8059   21.4475  -31.6576 H   0  0  0  0  0  0  0  0  0  0  0  0
   -8.9497   23.0912  -31.2463 H   0  0  0  0  0  0  0  0  0  0  0  0
   -6.2695   24.0498  -30.4368 H   0  0  0  0  0  0  0  0  0  0  0  0
   -5.3670   24.3346  -31.9635 H   0  0  0  0  0  0  0  0  0  0  0  0
   -7.1630   24.3620  -31.9635 H   0  0  0  0  0  0  0  0  0  0  0  0
   -3.5326   22.6742  -30.2618 H   0  0  0  0  0  0  0  0  0  0  0  0
   -2.3102   23.0812  -31.5135 H   0  0  0  0  0  0  0  0  0  0  0  0
   -3.9052   23.9075  -31.5135 H   0  0  0  0  0  0  0  0  0  0  0  0
  1  2  1  0
  2  3  1  0
  3  4  1  0
  4  5  1  0
  5  6  1  0
  6  7  1  0
  4  8  1  0
  8  9  1  0
  9 10  1  0
 10 11  1  0
 11 12  1  0
 12 13  2  0
 13 14  1  0
 14 15  1  0
 15 16  2  0
 15 17  1  0
 14 18  2  0
 18 19  1  0
 19 20  2  0
 20 21  1  0
 21 22  1  0
 22 23  1  0
 22 24  1  0
 21 25  2  0
 25 26  1  0
 26 27  2  0
 27 28  1  0
 28 29  2  0
 29 30  1  0
 30 31  2  0
 31 32  1  0
 32 33  1  0
 32 34  1  0
 34 35  2  0
 35 36  1  0
 20 12  1  0
 34 25  1  0
 35 19  1  0
 31 26  1  0
  1 37  1  0
  1 38  1  0
  1 39  1  0
  2 40  1  0
  2 41  1  0
  3 42  1  0
  3 43  1  0
  4 44  1  0
  5 45  1  0
  5 46  1  0
  6 47  1  0
  6 48  1  0
  7 49  1  0
  7 50  1  0
  7 51  1  0
  8 52  1  0
  8 53  1  0
  9 54  1  0
  9 55  1  0
 10 56  1  0
 10 57  1  0
 11 58  1  0
 13 59  1  0
 18 60  1  0
 23 61  1  0
 23 62  1  0
 23 63  1  0
 24 64  1  0
 24 65  1  0
 24 66  1  0
 27 67  1  0
 28 68  1  0
 29 69  1  0
 30 70  1  0
 33 71  1  0
 33 72  1  0
 33 73  1  0
 36 74  1  0
 36 75  1  0
 36 76  1  0
M  CHG  4   4   1  15   1  17  -1  35   1
M  END
>  <UniqueID>  (28) 
27

>  <SMILES>  (28) 
CCC[NH+](CCC)CCCNc1cc([N+](=O)[O-])cc2c1c(N(C)C)c1c3ccccc3n(C)c1[n+]2C

>  <Energy>  (28) 
153.37842157106408

>  <Genealogy>  (28) 
CCC[NH+](CCC)CCCNc1cc([N+](=O)[O-])cc2c1c(N(C)C)c1c3ccccc3n(C)c1[n+]2C (protonated)
CCC[NH+](CCC)CCCNc1cc([N+](=O)[O-])cc2c1c(N(C)C)c1c3ccccc3n(C)c1[n+]2C (3D coordinates assigned)
CCC[NH+](CCC)CCCNc1cc([N+](=O)[O-])cc2c1c(N(C)C)c1c3ccccc3n(C)c1[n+]2C (optimized conformer: 153.37842157106408 kcal/mol)

>  <smiles>  (28) 
CCCN(CCC)CCCNc1cc([N+](=O)[O-])cc2c1c(N(C)C)c1c3ccccc3n(C)c1[n+]2C

>  <score_type>  (28) 
oracle

>  <origin>  (28) 
adg

>  <m_score__min__energy>  (28) 
-7.4299999999999997

>  <m_primary>  (28) 
energy

$$$$
