0:0
     RDKit          3D

 60 63  0  0  0  0  0  0  0  0999 V2000
   -4.2420   24.8840  -26.3510 C   0  0  0  0  0  0  0  0  0  0  0  0
   -3.7830   24.3580  -27.6800 C   0  0  0  0  0  0  0  0  0  0  0  0
   -2.5200   23.7630  -27.8020 C   0  0  0  0  0  0  0  0  0  0  0  0
   -2.0760   23.2890  -29.0450 C   0  0  0  0  0  0  0  0  0  0  0  0
   -0.7520   22.5850  -29.1570 C   0  0  0  0  0  0  0  0  0  0  0  0
   -0.9500   21.2220  -29.6580 N   0  0  0  0  0  0  0  0  0  0  0  0
   -1.2080   20.9690  -31.0760 C   0  0  0  0  0  0  0  0  0  0  0  0
   -1.0570   20.1350  -28.7270 C   0  0  0  0  0  0  0  0  0  0  0  0
   -2.1910   20.0380  -27.9100 C   0  0  0  0  0  0  0  0  0  0  0  0
   -2.2840   19.0100  -26.9640 C   0  0  0  0  0  0  0  0  0  0  0  0
   -3.4670   18.9290  -26.0540 C   0  0  0  0  0  0  0  0  0  0  0  0
   -1.2700   18.1110  -26.8410 N   0  0  0  0  0  0  0  0  0  0  0  0
   -0.1600   18.1680  -27.6230 C   0  0  0  0  0  0  0  0  0  0  0  0
    0.8570   17.2230  -27.4740 C   0  0  0  0  0  0  0  0  0  0  0  0
    1.9920   17.2940  -28.2830 C   0  0  0  0  0  0  0  0  0  0  0  0
    2.0960   18.3120  -29.2350 C   0  0  0  0  0  0  0  0  0  0  0  0
    1.0990   19.2300  -29.3750 N   0  0  0  0  0  0  0  0  0  0  0  0
   -0.0230   19.1880  -28.5930 C   0  0  0  0  0  0  0  0  0  0  0  0
   -2.9070   23.4110  -30.1680 C   0  0  0  0  0  0  0  0  0  0  0  0
   -4.1590   24.0300  -30.0690 C   0  0  0  0  0  0  0  0  0  0  0  0
   -4.9360   24.1370  -31.2340 O   0  0  0  0  0  0  0  0  0  0  0  0
   -5.4510   23.0410  -31.9940 C   0  0  0  0  0  0  0  0  0  0  0  0
   -6.7780   22.5310  -31.3850 C   0  0  1  0  0  0  0  0  0  0  0  0
   -8.0040   23.2700  -31.9130 C   0  0  0  0  0  0  0  0  0  0  0  0
   -9.1400   22.2700  -31.7740 C   0  0  0  0  0  0  0  0  0  0  0  0
   -8.4830   20.9570  -31.3480 C   0  0  0  0  0  0  0  0  0  0  0  0
   -7.0310   21.0860  -31.5580 N   0  0  0  0  0  0  0  0  0  0  0  0
   -6.6700   20.5740  -32.8970 C   0  0  0  0  0  0  0  0  0  0  0  0
   -4.5910   24.5090  -28.8160 C   0  0  0  0  0  0  0  0  0  0  0  0
   -3.7504   24.3207  -25.5441 H   0  0  0  0  0  0  0  0  0  0  0  0
   -3.9792   25.9489  -26.2675 H   0  0  0  0  0  0  0  0  0  0  0  0
   -5.3327   24.7678  -26.2675 H   0  0  0  0  0  0  0  0  0  0  0  0
   -1.8731   23.6672  -26.9175 H   0  0  0  0  0  0  0  0  0  0  0  0
   -0.1030   23.1379  -29.8521 H   0  0  0  0  0  0  0  0  0  0  0  0
   -0.2818   22.5399  -28.1636 H   0  0  0  0  0  0  0  0  0  0  0  0
   -1.9902   20.2020  -31.1752 H   0  0  0  0  0  0  0  0  0  0  0  0
   -1.5427   21.8987  -31.5594 H   0  0  0  0  0  0  0  0  0  0  0  0
   -0.2850   20.6162  -31.5594 H   0  0  0  0  0  0  0  0  0  0  0  0
   -3.0071   20.7685  -28.0116 H   0  0  0  0  0  0  0  0  0  0  0  0
   -3.1273   18.9523  -25.0080 H   0  0  0  0  0  0  0  0  0  0  0  0
   -4.1335   19.7836  -26.2421 H   0  0  0  0  0  0  0  0  0  0  0  0
   -4.0108   17.9915  -26.2421 H   0  0  0  0  0  0  0  0  0  0  0  0
    0.7640   16.4257  -26.7219 H   0  0  0  0  0  0  0  0  0  0  0  0
    2.7986   16.5544  -28.1722 H   0  0  0  0  0  0  0  0  0  0  0  0
    2.9884   18.3724  -29.8753 H   0  0  0  0  0  0  0  0  0  0  0  0
    1.2150   19.9700  -30.1040 H   0  0  0  0  0  0  0  0  0  0  0  0
   -2.5713   23.0157  -31.1381 H   0  0  0  0  0  0  0  0  0  0  0  0
   -5.6311   23.3711  -33.0277 H   0  0  0  0  0  0  0  0  0  0  0  0
   -4.7162   22.2225  -31.9780 H   0  0  0  0  0  0  0  0  0  0  0  0
   -6.6321   22.7361  -30.3142 H   0  0  0  0  0  0  0  0  0  0  0  0
   -8.2032   24.1706  -31.3136 H   0  0  0  0  0  0  0  0  0  0  0  0
   -7.8720   23.6117  -32.9502 H   0  0  0  0  0  0  0  0  0  0  0  0
   -9.8562   22.6065  -31.0099 H   0  0  0  0  0  0  0  0  0  0  0  0
   -9.7007   22.1581  -32.7137 H   0  0  0  0  0  0  0  0  0  0  0  0
   -8.6908   20.7631  -30.2854 H   0  0  0  0  0  0  0  0  0  0  0  0
   -8.8820   20.1201  -31.9400 H   0  0  0  0  0  0  0  0  0  0  0  0
   -6.0392   19.6793  -32.7896 H   0  0  0  0  0  0  0  0  0  0  0  0
   -7.5851   20.3133  -33.4489 H   0  0  0  0  0  0  0  0  0  0  0  0
   -6.1171   21.3484  -33.4489 H   0  0  0  0  0  0  0  0  0  0  0  0
   -5.5690   25.0049  -28.7285 H   0  0  0  0  0  0  0  0  0  0  0  0
  1  2  1  0
  2  3  2  0
  3  4  1  0
  4  5  1  0
  5  6  1  0
  6  7  1  0
  6  8  1  0
  8  9  2  0
  9 10  1  0
 10 11  1  0
 10 12  2  0
 12 13  1  0
 13 14  2  0
 14 15  1  0
 15 16  2  0
 16 17  1  0
 17 18  2  0
  4 19  2  0
 19 20  1  0
 20 21  1  0
 21 22  1  0
 22 23  1  0
 23 24  1  0
 24 25  1  0
 25 26  1  0
 26 27  1  0
 27 28  1  0
 20 29  2  0
 29  2  1  0
 18  8  1  0
 27 23  1  0
 18 13  1  0
  1 30  1  0
  1 31  1  0
  1 32  1  0
  3 33  1  0
  5 34  1  0
  5 35  1  0
  7 36  1  0
  7 37  1  0
  7 38  1  0
  9 39  1  0
 11 40  1  0
 11 41  1  0
 11 42  1  0
 14 43  1  0
 15 44  1  0
 16 45  1  0
 17 46  1  0
 19 47  1  0
 22 48  1  0
 22 49  1  0
 23 50  1  1
 24 51  1  0
 24 52  1  0
 25 53  1  0
 25 54  1  0
 26 55  1  0
 26 56  1  0
 28 57  1  0
 28 58  1  0
 28 59  1  0
 29 60  1  0
M  CHG  1  17   1
M  END
>  <UniqueID>  (1) 
1

>  <SMILES>  (1) 
Cc1cc(CN(C)c2cc(C)nc3ccc[nH+]c23)cc(OC[C@H]2CCCN2C)c1

>  <Energy>  (1) 
71.92134243161189

>  <Genealogy>  (1) 
Cc1cc(CN(C)c2cc(C)nc3ccc[nH+]c23)cc(OCC2CCCN2C)c1 (protonated)
Cc1cc(CN(C)c2cc(C)nc3ccc[nH+]c23)cc(OC[C@H]2CCCN2C)c1 (chirality)
Cc1cc(CN(C)c2cc(C)nc3ccc[nH+]c23)cc(OC[C@H]2CCCN2C)c1 (3D coordinates assigned)
Cc1cc(CN(C)c2cc(C)nc3ccc[nH+]c23)cc(OC[C@H]2CCCN2C)c1 (nonaromatic ring conformer: 71.92134243161189 kcal/mol)

>  <smiles>  (1) 
Cc1cc(CN(C)c2cc(C)nc3cccnc23)cc(OCC2CCCN2C)c1

>  <score_type>  (1) 
oracle

>  <origin>  (1) 
adg

>  <m_score__min__energy>  (1) 
-9.0199999999999996

>  <m_primary>  (1) 
energy

$$$$
1:0
     RDKit          3D

 32 33  0  0  0  0  0  0  0  0999 V2000
   -5.2870   20.7830  -31.9840 C   0  0  0  0  0  0  0  0  0  0  0  0
   -6.7060   20.7050  -32.3060 N   0  0  0  0  0  0  0  0  0  0  0  0
   -7.2260   19.9600  -33.2650 N   0  0  0  0  0  0  0  0  0  0  0  0
   -8.5430   20.0730  -33.2010 N   0  0  0  0  0  0  0  0  0  0  0  0
   -8.9070   20.8690  -32.2030 N   0  0  0  0  0  0  0  0  0  0  0  0
   -7.7430   21.2520  -31.6470 C   0  0  0  0  0  0  0  0  0  0  0  0
   -7.6120   22.3210  -30.2130 S   0  0  0  0  0  0  0  0  0  0  0  0
   -6.7360   23.6360  -31.1270 C   0  0  0  0  0  0  0  0  0  0  0  0
   -6.2610   24.7470  -30.1850 C   0  0  0  0  0  0  0  0  0  0  0  0
   -5.2160   25.6740  -30.8250 C   0  0  0  0  0  0  0  0  0  0  0  0
   -3.8850   25.2860  -30.4810 O   0  0  0  0  0  0  0  0  0  0  0  0
   -3.5240   24.1030  -29.8170 C   0  0  0  0  0  0  0  0  0  0  0  0
   -3.5970   24.0860  -28.4180 C   0  0  0  0  0  0  0  0  0  0  0  0
   -3.2460   22.9370  -27.7020 C   0  0  0  0  0  0  0  0  0  0  0  0
   -2.8220   21.7910  -28.3810 C   0  0  0  0  0  0  0  0  0  0  0  0
   -2.3430   20.2220  -27.4040 Br  0  0  0  0  0  0  0  0  0  0  0  0
   -2.7510   21.7960  -29.7780 C   0  0  0  0  0  0  0  0  0  0  0  0
   -3.1010   22.9430  -30.4950 C   0  0  0  0  0  0  0  0  0  0  0  0
   -5.1588   20.7900  -30.8915 H   0  0  0  0  0  0  0  0  0  0  0  0
   -4.7662   19.9121  -32.4087 H   0  0  0  0  0  0  0  0  0  0  0  0
   -4.8648   21.7057  -32.4087 H   0  0  0  0  0  0  0  0  0  0  0  0
   -9.2100   19.5920  -33.8450 H   0  0  0  0  0  0  0  0  0  0  0  0
   -5.8634   23.1992  -31.6347 H   0  0  0  0  0  0  0  0  0  0  0  0
   -7.4322   24.0741  -31.8574 H   0  0  0  0  0  0  0  0  0  0  0  0
   -7.1313   25.3516  -29.8898 H   0  0  0  0  0  0  0  0  0  0  0  0
   -5.7839   24.2623  -29.3205 H   0  0  0  0  0  0  0  0  0  0  0  0
   -5.3273   25.6354  -31.9187 H   0  0  0  0  0  0  0  0  0  0  0  0
   -5.3846   26.6934  -30.4476 H   0  0  0  0  0  0  0  0  0  0  0  0
   -3.9331   24.9837  -27.8783 H   0  0  0  0  0  0  0  0  0  0  0  0
   -3.3036   22.9351  -26.6035 H   0  0  0  0  0  0  0  0  0  0  0  0
   -2.4187   20.8945  -30.3136 H   0  0  0  0  0  0  0  0  0  0  0  0
   -3.0460   22.9402  -31.5936 H   0  0  0  0  0  0  0  0  0  0  0  0
  1  2  1  0
  2  3  1  0
  3  4  2  0
  4  5  1  0
  5  6  2  0
  6  7  1  0
  7  8  1  0
  8  9  1  0
  9 10  1  0
 10 11  1  0
 11 12  1  0
 12 13  2  0
 13 14  1  0
 14 15  2  0
 15 16  1  0
 15 17  1  0
 17 18  2  0
  6  2  1  0
 18 12  1  0
  1 19  1  0
  1 20  1  0
  1 21  1  0
  4 22  1  0
  8 23  1  0
  8 24  1  0
  9 25  1  0
  9 26  1  0
 10 27  1  0
 10 28  1  0
 13 29  1  0
 14 30  1  0
 17 31  1  0
 18 32  1  0
M  CHG  1   4   1
M  END
>  <UniqueID>  (2) 
2

>  <SMILES>  (2) 
Cn1n[nH+]nc1SCCCOc1ccc(Br)cc1

>  <Energy>  (2) 
63.961599303742744

>  <Genealogy>  (2) 
Cn1n[nH+]nc1SCCCOc1ccc(Br)cc1 (protonated)
Cn1n[nH+]nc1SCCCOc1ccc(Br)cc1 (3D coordinates assigned)
Cn1n[nH+]nc1SCCCOc1ccc(Br)cc1 (optimized conformer: 63.961599303742744 kcal/mol)

>  <smiles>  (2) 
Cn1nnnc1SCCCOc1ccc(Br)cc1

>  <score_type>  (2) 
oracle

>  <origin>  (2) 
adg

>  <m_score__min__energy>  (2) 
-7.9400000000000004

>  <m_primary>  (2) 
energy

$$$$
2:0
     RDKit          3D

 73 75  0  0  0  0  0  0  0  0999 V2000
   -3.1250   18.5790  -26.1090 C   0  0  0  0  0  0  0  0  0  0  0  0
   -2.7420   19.6980  -27.0790 C   0  0  0  0  0  0  0  0  0  0  0  0
   -1.2770   19.7380  -27.3010 N   0  0  0  0  0  0  0  0  0  0  0  0
   -0.7530   18.3630  -27.3950 C   0  0  0  0  0  0  0  0  0  0  0  0
   -0.9510   20.4960  -28.5320 C   0  0  0  0  0  0  0  0  0  0  0  0
   -0.6450   19.5630  -29.7170 C   0  0  0  0  0  0  0  0  0  0  0  0
   -1.3630   19.9150  -30.8840 O   0  0  0  0  0  0  0  0  0  0  0  0
   -2.1120   21.0990  -30.6910 C   0  0  0  0  0  0  0  0  0  0  0  0
   -2.0650   21.9500  -31.9610 C   0  0  0  0  0  0  0  0  0  0  0  0
   -2.8950   21.3780  -33.0260 N   0  0  0  0  0  0  0  0  0  0  0  0
   -4.1930   20.8000  -32.7850 C   0  0  0  0  0  0  0  0  0  0  0  0
   -5.2300   21.6380  -32.3280 C   0  0  0  0  0  0  0  0  0  0  0  0
   -4.9540   22.9450  -31.8670 C   0  0  0  0  0  0  0  0  0  0  0  0
   -5.9780   23.7830  -31.4340 C   0  0  0  0  0  0  0  0  0  0  0  0
   -7.2950   23.3470  -31.4710 C   0  0  0  0  0  0  0  0  0  0  0  0
   -7.5960   22.0670  -31.9330 C   0  0  0  0  0  0  0  0  0  0  0  0
   -6.5730   21.1790  -32.3590 C   0  0  0  0  0  0  0  0  0  0  0  0
   -6.8650   19.9230  -32.8530 N   0  0  0  0  0  0  0  0  0  0  0  0
   -8.2380   19.3800  -32.7400 C   0  0  0  0  0  0  0  0  0  0  0  0
   -5.8690   19.1560  -33.4230 C   0  0  0  0  0  0  0  0  0  0  0  0
   -6.1750   18.0400  -34.2380 C   0  0  0  0  0  0  0  0  0  0  0  0
   -5.1740   17.2000  -34.7110 C   0  0  0  0  0  0  0  0  0  0  0  0
   -3.8590   17.3980  -34.3140 C   0  0  0  0  0  0  0  0  0  0  0  0
   -3.5050   18.4960  -33.5120 C   0  0  0  0  0  0  0  0  0  0  0  0
   -2.2140   18.4540  -32.8510 N   0  0  0  0  0  0  0  0  0  0  0  0
   -1.3530   17.4450  -33.4940 C   0  0  0  0  0  0  0  0  0  0  0  0
   -0.1200   18.0760  -34.1710 C   0  0  0  0  0  0  0  0  0  0  0  0
   -0.4780   19.3210  -35.0010 C   0  0  0  0  0  0  0  0  0  0  0  0
   -0.4360   20.5430  -34.1650 N   0  0  0  0  0  0  0  0  0  0  0  0
    0.5690   20.4210  -33.0930 C   0  0  0  0  0  0  0  0  0  0  0  0
   -0.1110   21.7120  -35.0020 C   0  0  0  0  0  0  0  0  0  0  0  0
   -4.5000   19.4870  -33.2220 C   0  0  0  0  0  0  0  0  0  0  0  0
   -3.0038   18.9330  -25.0746 H   0  0  0  0  0  0  0  0  0  0  0  0
   -4.1730   18.2905  -26.2774 H   0  0  0  0  0  0  0  0  0  0  0  0
   -2.4735   17.7088  -26.2774 H   0  0  0  0  0  0  0  0  0  0  0  0
   -3.2460   19.5264  -28.0415 H   0  0  0  0  0  0  0  0  0  0  0  0
   -3.0542   20.6584  -26.6430 H   0  0  0  0  0  0  0  0  0  0  0  0
   -0.5991   17.9593  -26.3834 H   0  0  0  0  0  0  0  0  0  0  0  0
   -1.4737   17.7321  -27.9359 H   0  0  0  0  0  0  0  0  0  0  0  0
    0.2048   18.3718  -27.9359 H   0  0  0  0  0  0  0  0  0  0  0  0
   -1.8078   21.1341  -28.7940 H   0  0  0  0  0  0  0  0  0  0  0  0
   -0.0531   21.0994  -28.3328 H   0  0  0  0  0  0  0  0  0  0  0  0
    0.4316   19.6135  -29.9367 H   0  0  0  0  0  0  0  0  0  0  0  0
   -0.9523   18.5466  -29.4297 H   0  0  0  0  0  0  0  0  0  0  0  0
   -3.1562   20.8384  -30.4636 H   0  0  0  0  0  0  0  0  0  0  0  0
   -1.6835   21.6693  -29.8536 H   0  0  0  0  0  0  0  0  0  0  0  0
   -2.4311   22.9606  -31.7271 H   0  0  0  0  0  0  0  0  0  0  0  0
   -1.0242   21.9811  -32.3156 H   0  0  0  0  0  0  0  0  0  0  0  0
   -2.5060   21.3550  -33.9950 H   0  0  0  0  0  0  0  0  0  0  0  0
   -3.9149   23.3056  -31.8500 H   0  0  0  0  0  0  0  0  0  0  0  0
   -5.7430   24.7913  -31.0623 H   0  0  0  0  0  0  0  0  0  0  0  0
   -8.1032   24.0132  -31.1349 H   0  0  0  0  0  0  0  0  0  0  0  0
   -8.6452   21.7386  -31.9683 H   0  0  0  0  0  0  0  0  0  0  0  0
   -8.5044   19.2747  -31.6780 H   0  0  0  0  0  0  0  0  0  0  0  0
   -8.9451   20.0662  -33.2291 H   0  0  0  0  0  0  0  0  0  0  0  0
   -8.2845   18.3958  -33.2291 H   0  0  0  0  0  0  0  0  0  0  0  0
   -7.2229   17.8341  -34.5015 H   0  0  0  0  0  0  0  0  0  0  0  0
   -5.4237   16.3791  -35.3993 H   0  0  0  0  0  0  0  0  0  0  0  0
   -3.0833   16.6856  -34.6315 H   0  0  0  0  0  0  0  0  0  0  0  0
   -2.2820   18.2040  -31.8450 H   0  0  0  0  0  0  0  0  0  0  0  0
   -1.7720   19.4000  -32.9170 H   0  0  0  0  0  0  0  0  0  0  0  0
   -1.0109   16.7323  -32.7291 H   0  0  0  0  0  0  0  0  0  0  0  0
   -1.9456   16.9433  -34.2732 H   0  0  0  0  0  0  0  0  0  0  0  0
    0.6006   18.3662  -33.3922 H   0  0  0  0  0  0  0  0  0  0  0  0
    0.3054   17.3278  -34.8560 H   0  0  0  0  0  0  0  0  0  0  0  0
    0.2428   19.4237  -35.8256 H   0  0  0  0  0  0  0  0  0  0  0  0
   -1.4977   19.1995  -35.3952 H   0  0  0  0  0  0  0  0  0  0  0  0
    0.0704   20.4815  -32.1144 H   0  0  0  0  0  0  0  0  0  0  0  0
    1.0849   19.4536  -33.1824 H   0  0  0  0  0  0  0  0  0  0  0  0
    1.3014   21.2368  -33.1824 H   0  0  0  0  0  0  0  0  0  0  0  0
    0.1276   22.5702  -34.3565 H   0  0  0  0  0  0  0  0  0  0  0  0
    0.7563   21.4785  -35.6370 H   0  0  0  0  0  0  0  0  0  0  0  0
   -0.9744   21.9597  -35.6370 H   0  0  0  0  0  0  0  0  0  0  0  0
  1  2  1  0
  2  3  1  0
  3  4  1  0
  3  5  1  0
  5  6  1  0
  6  7  1  0
  7  8  1  0
  8  9  1  0
  9 10  1  0
 10 11  1  0
 11 12  2  0
 12 13  1  0
 13 14  2  0
 14 15  1  0
 15 16  2  0
 16 17  1  0
 17 18  2  0
 18 19  1  0
 18 20  1  0
 20 21  2  0
 21 22  1  0
 22 23  2  0
 23 24  1  0
 24 25  1  0
 25 26  1  0
 26 27  1  0
 27 28  1  0
 28 29  1  0
 29 30  1  0
 29 31  1  0
 24 32  2  0
 32 11  1  0
 17 12  1  0
 32 20  1  0
  1 33  1  0
  1 34  1  0
  1 35  1  0
  2 36  1  0
  2 37  1  0
  4 38  1  0
  4 39  1  0
  4 40  1  0
  5 41  1  0
  5 42  1  0
  6 43  1  0
  6 44  1  0
  8 45  1  0
  8 46  1  0
  9 47  1  0
  9 48  1  0
 10 49  1  0
 13 50  1  0
 14 51  1  0
 15 52  1  0
 16 53  1  0
 19 54  1  0
 19 55  1  0
 19 56  1  0
 21 57  1  0
 22 58  1  0
 23 59  1  0
 25 60  1  0
 25 61  1  0
 26 62  1  0
 26 63  1  0
 27 64  1  0
 27 65  1  0
 28 66  1  0
 28 67  1  0
 30 68  1  0
 30 69  1  0
 30 70  1  0
 31 71  1  0
 31 72  1  0
 31 73  1  0
M  CHG  2  18   1  25   1
M  END
>  <UniqueID>  (3) 
3

>  <SMILES>  (3) 
CCN(C)CCOCCNc1c2ccccc2[n+](C)c2cccc([NH2+]CCCN(C)C)c12

>  <Energy>  (3) 
106.40464751674867

>  <Genealogy>  (3) 
CCN(C)CCOCCNc1c2ccccc2[n+](C)c2cccc([NH2+]CCCN(C)C)c12 (protonated)
CCN(C)CCOCCNc1c2ccccc2[n+](C)c2cccc([NH2+]CCCN(C)C)c12 (3D coordinates assigned)
CCN(C)CCOCCNc1c2ccccc2[n+](C)c2cccc([NH2+]CCCN(C)C)c12 (optimized conformer: 106.40464751674867 kcal/mol)

>  <smiles>  (3) 
CCN(C)CCOCCNc1c2ccccc2[n+](C)c2cccc(NCCCN(C)C)c12

>  <score_type>  (3) 
oracle

>  <origin>  (3) 
adg

>  <m_score__min__energy>  (3) 
-7.6600000000000001

>  <m_primary>  (3) 
energy

$$$$
3:0
     RDKit          3D

 44 45  0  0  0  0  0  0  0  0999 V2000
   -6.2280   17.4190  -31.6010 C   0  0  0  0  0  0  0  0  0  0  0  0
   -6.5240   17.3510  -33.0970 C   0  0  0  0  0  0  0  0  0  0  0  0
   -6.5670   18.7250  -33.7100 C   0  0  0  0  0  0  0  0  0  0  0  0
   -6.0750   18.9070  -34.8570 O   0  0  0  0  0  0  0  0  0  0  0  0
   -7.1840   19.8280  -33.0300 N   0  0  0  0  0  0  0  0  0  0  0  0
   -8.6130   19.8870  -32.7210 C   0  0  0  0  0  0  0  0  0  0  0  0
   -8.8040   21.1330  -31.8230 C   0  0  0  0  0  0  0  0  0  0  0  0
   -7.4440   21.7350  -31.7730 C   0  0  0  0  0  0  0  0  0  0  0  0
   -7.0590   22.9290  -31.1610 C   0  0  0  0  0  0  0  0  0  0  0  0
   -5.7240   23.3530  -31.2890 C   0  0  0  0  0  0  0  0  0  0  0  0
   -5.1980   24.8350  -30.4950 S   0  0  0  0  0  0  0  0  0  0  0  0
   -5.7260   24.8530  -29.0880 O   0  0  0  0  0  0  0  0  0  0  0  0
   -5.7430   26.0330  -31.2220 O   0  0  0  0  0  0  0  0  0  0  0  0
   -3.4630   24.9140  -30.4530 N   0  0  0  0  0  0  0  0  0  0  0  0
   -2.9770   24.4430  -29.1590 C   0  0  0  0  0  0  0  0  0  0  0  0
   -1.5230   23.9650  -29.3100 C   0  0  0  0  0  0  0  0  0  0  0  0
   -0.5210   24.8390  -28.6590 N   0  0  0  0  0  0  0  0  0  0  0  0
   -1.1280   25.8810  -27.8140 C   0  0  0  0  0  0  0  0  0  0  0  0
    0.5040   24.0870  -27.9190 C   0  0  0  0  0  0  0  0  0  0  0  0
   -4.8100   22.5780  -32.0350 C   0  0  0  0  0  0  0  0  0  0  0  0
   -5.2250   21.3840  -32.6460 C   0  0  0  0  0  0  0  0  0  0  0  0
   -6.5500   20.9700  -32.4720 C   0  0  0  0  0  0  0  0  0  0  0  0
   -7.1475   17.2078  -31.0353 H   0  0  0  0  0  0  0  0  0  0  0  0
   -5.4605   16.6738  -31.3448 H   0  0  0  0  0  0  0  0  0  0  0  0
   -5.8627   18.4245  -31.3448 H   0  0  0  0  0  0  0  0  0  0  0  0
   -5.7369   16.7627  -33.5914 H   0  0  0  0  0  0  0  0  0  0  0  0
   -7.5080   16.8789  -33.2347 H   0  0  0  0  0  0  0  0  0  0  0  0
   -9.2001   19.9886  -33.6456 H   0  0  0  0  0  0  0  0  0  0  0  0
   -8.9545   18.9708  -32.2170 H   0  0  0  0  0  0  0  0  0  0  0  0
   -9.5275   21.8318  -32.2683 H   0  0  0  0  0  0  0  0  0  0  0  0
   -9.2013   20.8873  -30.8271 H   0  0  0  0  0  0  0  0  0  0  0  0
   -7.7851   23.5264  -30.5901 H   0  0  0  0  0  0  0  0  0  0  0  0
   -3.0206   25.2641  -28.4283 H   0  0  0  0  0  0  0  0  0  0  0  0
   -3.6055   23.6113  -28.8079 H   0  0  0  0  0  0  0  0  0  0  0  0
   -1.4432   22.9611  -28.8674 H   0  0  0  0  0  0  0  0  0  0  0  0
   -1.2985   23.9781  -30.3868 H   0  0  0  0  0  0  0  0  0  0  0  0
   -0.9796   25.6262  -26.7543 H   0  0  0  0  0  0  0  0  0  0  0  0
   -0.6529   26.8497  -28.0282 H   0  0  0  0  0  0  0  0  0  0  0  0
   -2.2050   25.9455  -28.0282 H   0  0  0  0  0  0  0  0  0  0  0  0
    0.3388   24.2082  -26.8382 H   0  0  0  0  0  0  0  0  0  0  0  0
    0.4386   23.0211  -28.1827 H   0  0  0  0  0  0  0  0  0  0  0  0
    1.5011   24.4694  -28.1827 H   0  0  0  0  0  0  0  0  0  0  0  0
   -3.7668   22.9114  -32.1382 H   0  0  0  0  0  0  0  0  0  0  0  0
   -4.5240   20.7873  -33.2481 H   0  0  0  0  0  0  0  0  0  0  0  0
  1  2  1  0
  2  3  1  0
  3  4  2  0
  3  5  1  0
  5  6  1  0
  6  7  1  0
  7  8  1  0
  8  9  2  0
  9 10  1  0
 10 11  1  0
 11 12  2  0
 11 13  2  0
 11 14  1  0
 14 15  1  0
 15 16  1  0
 16 17  1  0
 17 18  1  0
 17 19  1  0
 10 20  2  0
 20 21  1  0
 21 22  2  0
 22  5  1  0
 22  8  1  0
  1 23  1  0
  1 24  1  0
  1 25  1  0
  2 26  1  0
  2 27  1  0
  6 28  1  0
  6 29  1  0
  7 30  1  0
  7 31  1  0
  9 32  1  0
 15 33  1  0
 15 34  1  0
 16 35  1  0
 16 36  1  0
 18 37  1  0
 18 38  1  0
 18 39  1  0
 19 40  1  0
 19 41  1  0
 19 42  1  0
 20 43  1  0
 21 44  1  0
M  CHG  1  14  -1
M  END
>  <UniqueID>  (4) 
4

>  <SMILES>  (4) 
CCC(=O)N1CCc2cc(S(=O)(=O)[N-]CCN(C)C)ccc21

>  <Energy>  (4) 
57.00505773972132

>  <Genealogy>  (4) 
CCC(=O)N1CCc2cc(S(=O)(=O)[N-]CCN(C)C)ccc21 (protonated)
CCC(=O)N1CCc2cc(S(=O)(=O)[N-]CCN(C)C)ccc21 (3D coordinates assigned)
CCC(=O)N1CCc2cc(S(=O)(=O)[N-]CCN(C)C)ccc21 (nonaromatic ring conformer: 57.00505773972132 kcal/mol)

>  <smiles>  (4) 
CCC(=O)N1CCc2cc(S(=O)(=O)NCCN(C)C)ccc21

>  <score_type>  (4) 
oracle

>  <origin>  (4) 
adg

>  <m_score__min__energy>  (4) 
-9.8399999999999999

>  <m_primary>  (4) 
energy

$$$$
4:0
     RDKit          3D

 58 60  0  0  0  0  0  0  0  0999 V2000
   -0.1510   22.6280  -23.8300 C   0  0  0  0  0  0  0  0  0  0  0  0
   -0.1600   23.9820  -24.5440 C   0  0  0  0  0  0  0  0  0  0  0  0
    1.1800   24.4640  -24.9540 N   0  0  0  0  0  0  0  0  0  0  0  0
    1.6120   25.7360  -24.3280 C   0  0  0  0  0  0  0  0  0  0  0  0
    0.4690   26.5870  -23.7510 C   0  0  0  0  0  0  0  0  0  0  0  0
    1.4890   24.3220  -26.3920 C   0  0  0  0  0  0  0  0  0  0  0  0
    0.2220   24.4050  -27.2200 C   0  0  0  0  0  0  0  0  0  0  0  0
   -0.3320   23.2060  -27.6920 C   0  0  0  0  0  0  0  0  0  0  0  0
   -1.5030   23.2080  -28.4510 C   0  0  0  0  0  0  0  0  0  0  0  0
   -2.1460   24.4130  -28.7640 C   0  0  0  0  0  0  0  0  0  0  0  0
   -3.3930   24.4020  -29.5670 C   0  0  0  0  0  0  0  0  0  0  0  0
   -3.5580   25.2710  -30.4680 O   0  0  0  0  0  0  0  0  0  0  0  0
   -4.4310   23.4420  -29.3100 N   0  0  0  0  0  0  0  0  0  0  0  0
   -5.4820   23.1590  -30.2510 C   0  0  0  0  0  0  0  0  0  0  0  0
   -5.5600   21.8870  -30.8460 C   0  0  0  0  0  0  0  0  0  0  0  0
   -6.6050   21.5640  -31.7280 C   0  0  0  0  0  0  0  0  0  0  0  0
   -6.6790   20.2170  -32.3520 C   0  0  0  0  0  0  0  0  0  0  0  0
   -7.5870   19.2550  -31.8680 C   0  0  0  0  0  0  0  0  0  0  0  0
   -7.6560   17.9890  -32.4570 C   0  0  0  0  0  0  0  0  0  0  0  0
   -6.8240   17.6690  -33.5320 C   0  0  0  0  0  0  0  0  0  0  0  0
   -5.9190   18.6150  -34.0200 C   0  0  0  0  0  0  0  0  0  0  0  0
   -5.8460   19.8830  -33.4350 C   0  0  0  0  0  0  0  0  0  0  0  0
   -7.5840   22.5310  -32.0050 C   0  0  0  0  0  0  0  0  0  0  0  0
   -7.5190   23.7930  -31.4130 C   0  0  0  0  0  0  0  0  0  0  0  0
   -6.4740   24.1210  -30.5400 C   0  0  0  0  0  0  0  0  0  0  0  0
   -6.4170   25.4440  -29.9870 N   0  0  0  0  0  0  0  0  0  0  0  0
   -1.6050   25.6180  -28.2850 C   0  0  0  0  0  0  0  0  0  0  0  0
   -0.4260   25.6310  -27.5190 C   0  0  0  0  0  0  0  0  0  0  0  0
    0.1130   26.9520  -27.0350 C   0  0  0  0  0  0  0  0  0  0  0  0
   -0.1521   22.7874  -22.7416 H   0  0  0  0  0  0  0  0  0  0  0  0
   -1.0454   22.0558  -24.1177 H   0  0  0  0  0  0  0  0  0  0  0  0
    0.7509   22.0678  -24.1177 H   0  0  0  0  0  0  0  0  0  0  0  0
   -0.7844   23.8922  -25.4451 H   0  0  0  0  0  0  0  0  0  0  0  0
   -0.5519   24.7153  -23.8238 H   0  0  0  0  0  0  0  0  0  0  0  0
    2.3079   25.4968  -23.5104 H   0  0  0  0  0  0  0  0  0  0  0  0
    2.0736   26.3351  -25.1268 H   0  0  0  0  0  0  0  0  0  0  0  0
    0.5086   26.5575  -22.6521 H   0  0  0  0  0  0  0  0  0  0  0  0
    0.5767   27.6266  -24.0940 H   0  0  0  0  0  0  0  0  0  0  0  0
   -0.4961   26.1858  -24.0940 H   0  0  0  0  0  0  0  0  0  0  0  0
    2.1732   25.1278  -26.6962 H   0  0  0  0  0  0  0  0  0  0  0  0
    1.9585   23.3413  -26.5590 H   0  0  0  0  0  0  0  0  0  0  0  0
    0.1632   22.2514  -27.4608 H   0  0  0  0  0  0  0  0  0  0  0  0
   -1.9246   22.2562  -28.8064 H   0  0  0  0  0  0  0  0  0  0  0  0
   -4.4550   22.9670  -28.3810 H   0  0  0  0  0  0  0  0  0  0  0  0
   -4.7915   21.1339  -30.6175 H   0  0  0  0  0  0  0  0  0  0  0  0
   -8.2454   19.5012  -31.0219 H   0  0  0  0  0  0  0  0  0  0  0  0
   -8.3674   17.2431  -32.0728 H   0  0  0  0  0  0  0  0  0  0  0  0
   -6.8811   16.6725  -33.9944 H   0  0  0  0  0  0  0  0  0  0  0  0
   -5.2628   18.3619  -34.8658 H   0  0  0  0  0  0  0  0  0  0  0  0
   -5.1324   20.6241  -33.8243 H   0  0  0  0  0  0  0  0  0  0  0  0
   -8.4081   22.2924  -32.6934 H   0  0  0  0  0  0  0  0  0  0  0  0
   -8.2970   24.5384  -31.6344 H   0  0  0  0  0  0  0  0  0  0  0  0
   -7.2790   25.9900  -29.7700 H   0  0  0  0  0  0  0  0  0  0  0  0
   -5.5000   25.8670  -29.7210 H   0  0  0  0  0  0  0  0  0  0  0  0
   -2.1123   26.5670  -28.5131 H   0  0  0  0  0  0  0  0  0  0  0  0
    0.1183   26.9650  -25.9351 H   0  0  0  0  0  0  0  0  0  0  0  0
    1.1387   27.0884  -27.4083 H   0  0  0  0  0  0  0  0  0  0  0  0
   -0.5245   27.7670  -27.4083 H   0  0  0  0  0  0  0  0  0  0  0  0
  1  2  1  0
  2  3  1  0
  3  4  1  0
  4  5  1  0
  3  6  1  0
  6  7  1  0
  7  8  2  0
  8  9  1  0
  9 10  2  0
 10 11  1  0
 11 12  2  0
 11 13  1  0
 13 14  1  0
 14 15  2  0
 15 16  1  0
 16 17  1  0
 17 18  2  0
 18 19  1  0
 19 20  2  0
 20 21  1  0
 21 22  2  0
 16 23  2  0
 23 24  1  0
 24 25  2  0
 25 26  1  0
 10 27  1  0
 27 28  2  0
 28 29  1  0
 28  7  1  0
 25 14  1  0
 22 17  1  0
  1 30  1  0
  1 31  1  0
  1 32  1  0
  2 33  1  0
  2 34  1  0
  4 35  1  0
  4 36  1  0
  5 37  1  0
  5 38  1  0
  5 39  1  0
  6 40  1  0
  6 41  1  0
  8 42  1  0
  9 43  1  0
 13 44  1  0
 15 45  1  0
 18 46  1  0
 19 47  1  0
 20 48  1  0
 21 49  1  0
 22 50  1  0
 23 51  1  0
 24 52  1  0
 26 53  1  0
 26 54  1  0
 27 55  1  0
 29 56  1  0
 29 57  1  0
 29 58  1  0
M  END
>  <UniqueID>  (5) 
5

>  <SMILES>  (5) 
CCN(CC)Cc1ccc(C(=O)Nc2cc(-c3ccccc3)ccc2N)cc1C

>  <Energy>  (5) 
78.76855703916736

>  <Genealogy>  (5) 
CCN(CC)Cc1ccc(C(=O)Nc2cc(-c3ccccc3)ccc2N)cc1C (3D coordinates assigned)
CCN(CC)Cc1ccc(C(=O)Nc2cc(-c3ccccc3)ccc2N)cc1C (optimized conformer: 78.76855703916736 kcal/mol)

>  <smiles>  (5) 
CCN(CC)Cc1ccc(C(=O)Nc2cc(-c3ccccc3)ccc2N)cc1C

>  <score_type>  (5) 
oracle

>  <origin>  (5) 
adg

>  <m_score__min__energy>  (5) 
-8.7699999999999996

>  <m_primary>  (5) 
energy

$$$$
5:0
     RDKit          3D

 74 77  0  0  0  0  0  0  0  0999 V2000
    1.8530   18.3060  -30.6140 C   0  0  0  0  0  0  0  0  0  0  0  0
    1.6020   19.4690  -31.5720 C   0  0  0  0  0  0  0  0  0  0  0  0
    0.1600   19.5910  -31.8880 N   0  0  0  0  0  0  0  0  0  0  0  0
   -0.3870   18.2770  -32.2810 C   0  0  0  0  0  0  0  0  0  0  0  0
   -0.0520   20.5920  -32.9590 C   0  0  0  0  0  0  0  0  0  0  0  0
   -1.4790   21.1730  -32.9590 C   0  0  0  0  0  0  0  0  0  0  0  0
   -2.3200   20.6270  -31.8820 N   0  0  0  0  0  0  0  0  0  0  0  0
   -3.7380   20.8600  -31.7930 C   0  0  0  0  0  0  0  0  0  0  0  0
   -4.6480   19.9670  -32.3810 C   0  0  0  0  0  0  0  0  0  0  0  0
   -6.0080   20.3080  -32.4570 C   0  0  0  0  0  0  0  0  0  0  0  0
   -6.5030   21.3720  -31.7350 N   0  0  0  0  0  0  0  0  0  0  0  0
   -7.9640   21.5320  -31.5800 C   0  0  0  0  0  0  0  0  0  0  0  0
   -5.6310   22.2690  -31.1450 C   0  0  0  0  0  0  0  0  0  0  0  0
   -6.0910   23.4640  -30.5390 C   0  0  0  0  0  0  0  0  0  0  0  0
   -5.2070   24.3600  -29.9420 C   0  0  0  0  0  0  0  0  0  0  0  0
   -3.8260   24.1120  -29.9450 C   0  0  0  0  0  0  0  0  0  0  0  0
   -2.8820   25.0330  -29.3590 N   0  0  0  0  0  0  0  0  0  0  0  0
   -1.5810   24.6520  -28.8080 C   0  0  0  0  0  0  0  0  0  0  0  0
   -1.6760   24.4220  -27.2940 C   0  0  0  0  0  0  0  0  0  0  0  0
   -0.8610   23.1770  -26.8910 C   0  0  0  0  0  0  0  0  0  0  0  0
   -1.1590   21.9610  -27.6770 N   0  0  0  0  0  0  0  0  0  0  0  0
   -0.1850   20.8700  -27.5070 C   0  0  0  0  0  0  0  0  0  0  0  0
   -0.4590   19.7740  -28.5610 C   0  0  0  0  0  0  0  0  0  0  0  0
   -1.6870   19.9760  -29.2450 O   0  0  0  0  0  0  0  0  0  0  0  0
   -2.7360   20.1650  -28.3160 C   0  0  0  0  0  0  0  0  0  0  0  0
   -2.5410   21.4700  -27.5180 C   0  0  0  0  0  0  0  0  0  0  0  0
   -3.3530   22.9420  -30.5480 C   0  0  0  0  0  0  0  0  0  0  0  0
   -4.2300   22.0210  -31.1610 C   0  0  0  0  0  0  0  0  0  0  0  0
   -6.8860   19.4440  -33.3510 C   0  0  0  0  0  0  0  0  0  0  0  0
   -6.0950   18.9740  -34.5840 C   0  0  0  0  0  0  0  0  0  0  0  0
   -4.7830   18.2440  -34.2230 C   0  0  0  0  0  0  0  0  0  0  0  0
   -4.2670   18.5680  -32.8100 C   0  0  0  0  0  0  0  0  0  0  0  0
    1.7760   18.6626  -29.5763 H   0  0  0  0  0  0  0  0  0  0  0  0
    1.1039   17.5195  -30.7879 H   0  0  0  0  0  0  0  0  0  0  0  0
    2.8598   17.8984  -30.7879 H   0  0  0  0  0  0  0  0  0  0  0  0
    1.9485   20.4023  -31.1042 H   0  0  0  0  0  0  0  0  0  0  0  0
    2.1519   19.2804  -32.5058 H   0  0  0  0  0  0  0  0  0  0  0  0
   -0.6289   17.6959  -31.3789 H   0  0  0  0  0  0  0  0  0  0  0  0
   -1.2990   18.4233  -32.8784 H   0  0  0  0  0  0  0  0  0  0  0  0
    0.3594   17.7329  -32.8784 H   0  0  0  0  0  0  0  0  0  0  0  0
    0.6629   21.4158  -32.8167 H   0  0  0  0  0  0  0  0  0  0  0  0
    0.0985   20.0831  -33.9225 H   0  0  0  0  0  0  0  0  0  0  0  0
   -1.4137   22.2640  -32.8344 H   0  0  0  0  0  0  0  0  0  0  0  0
   -1.9475   20.8973  -33.9153 H   0  0  0  0  0  0  0  0  0  0  0  0
   -1.8380   20.1940  -31.0670 H   0  0  0  0  0  0  0  0  0  0  0  0
   -8.2183   21.5599  -30.5102 H   0  0  0  0  0  0  0  0  0  0  0  0
   -8.2828   22.4704  -32.0572 H   0  0  0  0  0  0  0  0  0  0  0  0
   -8.4783   20.6848  -32.0572 H   0  0  0  0  0  0  0  0  0  0  0  0
   -7.1678   23.6889  -30.5399 H   0  0  0  0  0  0  0  0  0  0  0  0
   -5.5956   25.2711  -29.4635 H   0  0  0  0  0  0  0  0  0  0  0  0
   -3.1130   26.0530  -29.3640 H   0  0  0  0  0  0  0  0  0  0  0  0
   -1.2417   23.7248  -29.2929 H   0  0  0  0  0  0  0  0  0  0  0  0
   -0.8663   25.4667  -28.9964 H   0  0  0  0  0  0  0  0  0  0  0  0
   -1.2786   25.3022  -26.7674 H   0  0  0  0  0  0  0  0  0  0  0  0
   -2.7298   24.2642  -27.0210 H   0  0  0  0  0  0  0  0  0  0  0  0
    0.2065   23.4117  -27.0149 H   0  0  0  0  0  0  0  0  0  0  0  0
   -1.1368   22.9492  -25.8508 H   0  0  0  0  0  0  0  0  0  0  0  0
    0.8338   21.2625  -27.6409 H   0  0  0  0  0  0  0  0  0  0  0  0
   -0.2809   20.4436  -26.4976 H   0  0  0  0  0  0  0  0  0  0  0  0
    0.3595   19.7780  -29.2958 H   0  0  0  0  0  0  0  0  0  0  0  0
   -0.5229   18.8104  -28.0343 H   0  0  0  0  0  0  0  0  0  0  0  0
   -3.6918   20.2147  -28.8583 H   0  0  0  0  0  0  0  0  0  0  0  0
   -2.7354   19.3205  -27.6111 H   0  0  0  0  0  0  0  0  0  0  0  0
   -3.2425   22.2316  -27.8894 H   0  0  0  0  0  0  0  0  0  0  0  0
   -2.7320   21.2721  -26.4529 H   0  0  0  0  0  0  0  0  0  0  0  0
   -2.2727   22.7346  -30.5445 H   0  0  0  0  0  0  0  0  0  0  0  0
   -7.2287   18.5661  -32.7836 H   0  0  0  0  0  0  0  0  0  0  0  0
   -7.7496   20.0377  -33.6853 H   0  0  0  0  0  0  0  0  0  0  0  0
   -6.7285   18.2876  -35.1650 H   0  0  0  0  0  0  0  0  0  0  0  0
   -5.8223   19.8712  -35.1590 H   0  0  0  0  0  0  0  0  0  0  0  0
   -4.9585   17.1601  -34.2892 H   0  0  0  0  0  0  0  0  0  0  0  0
   -4.0165   18.5876  -34.9332 H   0  0  0  0  0  0  0  0  0  0  0  0
   -4.6984   17.8476  -32.0994 H   0  0  0  0  0  0  0  0  0  0  0  0
   -3.1691   18.5010  -32.8228 H   0  0  0  0  0  0  0  0  0  0  0  0
  1  2  1  0
  2  3  1  0
  3  4  1  0
  3  5  1  0
  5  6  1  0
  6  7  1  0
  7  8  1  0
  8  9  2  0
  9 10  1  0
 10 11  2  0
 11 12  1  0
 11 13  1  0
 13 14  2  0
 14 15  1  0
 15 16  2  0
 16 17  1  0
 17 18  1  0
 18 19  1  0
 19 20  1  0
 20 21  1  0
 21 22  1  0
 22 23  1  0
 23 24  1  0
 24 25  1  0
 25 26  1  0
 16 27  1  0
 27 28  2  0
 10 29  1  0
 29 30  1  0
 30 31  1  0
 31 32  1  0
 28  8  1  0
 32  9  1  0
 28 13  1  0
 26 21  1  0
  1 33  1  0
  1 34  1  0
  1 35  1  0
  2 36  1  0
  2 37  1  0
  4 38  1  0
  4 39  1  0
  4 40  1  0
  5 41  1  0
  5 42  1  0
  6 43  1  0
  6 44  1  0
  7 45  1  0
 12 46  1  0
 12 47  1  0
 12 48  1  0
 14 49  1  0
 15 50  1  0
 17 51  1  0
 18 52  1  0
 18 53  1  0
 19 54  1  0
 19 55  1  0
 20 56  1  0
 20 57  1  0
 22 58  1  0
 22 59  1  0
 23 60  1  0
 23 61  1  0
 25 62  1  0
 25 63  1  0
 26 64  1  0
 26 65  1  0
 27 66  1  0
 29 67  1  0
 29 68  1  0
 30 69  1  0
 30 70  1  0
 31 71  1  0
 31 72  1  0
 32 73  1  0
 32 74  1  0
M  CHG  1  11   1
M  END
>  <UniqueID>  (6) 
6

>  <SMILES>  (6) 
CCN(C)CCNc1c2c([n+](C)c3ccc(NCCCN4CCOCC4)cc13)CCCC2

>  <Energy>  (6) 
106.02101105926064

>  <Genealogy>  (6) 
CCN(C)CCNc1c2c([n+](C)c3ccc(NCCCN4CCOCC4)cc13)CCCC2 (3D coordinates assigned)
CCN(C)CCNc1c2c([n+](C)c3ccc(NCCCN4CCOCC4)cc13)CCCC2 (nonaromatic ring conformer: 106.02101105926064 kcal/mol)

>  <smiles>  (6) 
CCN(C)CCNc1c2c([n+](C)c3ccc(NCCCN4CCOCC4)cc13)CCCC2

>  <score_type>  (6) 
oracle

>  <origin>  (6) 
adg

>  <m_score__min__energy>  (6) 
-10.02

>  <m_primary>  (6) 
energy

$$$$
6:0
     RDKit          3D

 68 70  0  0  0  0  0  0  0  0999 V2000
   -4.9646   15.2042  -34.2031 H   0  0  0  0  0  0  0  0  0  0  0  0
   -4.8220   16.2850  -34.0560 C   0  0  0  0  0  0  0  0  0  0  0  0
   -4.1450   16.9580  -34.9180 N   0  0  0  0  0  0  0  0  0  0  0  0
   -2.8040   16.5840  -35.2930 C   0  0  0  0  0  0  0  0  0  0  0  0
   -2.2031   16.4164  -34.3870 H   0  0  0  0  0  0  0  0  0  0  0  0
   -2.8342   15.6600  -35.8891 H   0  0  0  0  0  0  0  0  0  0  0  0
   -2.3516   17.3902  -35.8891 H   0  0  0  0  0  0  0  0  0  0  0  0
   -5.4250   16.9580  -32.8430 C   0  0  0  0  0  0  0  0  0  0  0  0
   -4.9924   16.4933  -31.9447 H   0  0  0  0  0  0  0  0  0  0  0  0
   -6.5134   16.8210  -32.9249 H   0  0  0  0  0  0  0  0  0  0  0  0
   -5.1960   18.4260  -32.7590 N   0  0  0  0  0  0  0  0  0  0  0  0
   -4.6740   18.7520  -33.5850 H   0  0  0  0  0  0  0  0  0  0  0  0
   -4.5040   18.5870  -31.9890 H   0  0  0  0  0  0  0  0  0  0  0  0
   -6.3850   19.1930  -32.4290 C   0  0  0  0  0  0  0  0  0  0  0  0
   -7.5910   18.4680  -32.4650 C   0  0  0  0  0  0  0  0  0  0  0  0
   -7.5582   17.3855  -32.6574 H   0  0  0  0  0  0  0  0  0  0  0  0
   -8.8120   19.0760  -32.2660 C   0  0  0  0  0  0  0  0  0  0  0  0
   -9.7350   18.4782  -32.2947 H   0  0  0  0  0  0  0  0  0  0  0  0
   -8.8770   20.4330  -32.0310 C   0  0  0  0  0  0  0  0  0  0  0  0
   -9.8598   20.9076  -31.8939 H   0  0  0  0  0  0  0  0  0  0  0  0
   -7.7110   21.2290  -31.9620 C   0  0  0  0  0  0  0  0  0  0  0  0
   -6.4200   20.6110  -32.1150 C   0  0  0  0  0  0  0  0  0  0  0  0
   -5.2770   21.4480  -31.8780 C   0  0  0  0  0  0  0  0  0  0  0  0
   -3.9230   21.0320  -32.1220 N   0  0  0  0  0  0  0  0  0  0  0  0
   -3.3650   20.7130  -31.2980 H   0  0  0  0  0  0  0  0  0  0  0  0
   -3.2060   21.2470  -33.3870 C   0  0  0  0  0  0  0  0  0  0  0  0
   -2.5254   22.1016  -33.2591 H   0  0  0  0  0  0  0  0  0  0  0  0
   -3.9672   21.4274  -34.1603 H   0  0  0  0  0  0  0  0  0  0  0  0
   -2.3830   20.0380  -33.8440 C   0  0  0  0  0  0  0  0  0  0  0  0
   -1.3152   20.3023  -33.8397 H   0  0  0  0  0  0  0  0  0  0  0  0
   -2.6946   19.7541  -34.8600 H   0  0  0  0  0  0  0  0  0  0  0  0
   -2.5980   18.9440  -32.9710 O   0  0  0  0  0  0  0  0  0  0  0  0
   -1.3980   18.5320  -32.3410 C   0  0  0  0  0  0  0  0  0  0  0  0
   -0.7894   17.9737  -33.0675 H   0  0  0  0  0  0  0  0  0  0  0  0
   -1.6660   17.9035  -31.4790 H   0  0  0  0  0  0  0  0  0  0  0  0
   -0.5790   19.7260  -31.8210 C   0  0  0  0  0  0  0  0  0  0  0  0
   -0.3184   20.3803  -32.6660 H   0  0  0  0  0  0  0  0  0  0  0  0
    0.3326   19.3451  -31.3372 H   0  0  0  0  0  0  0  0  0  0  0  0
   -1.3570   20.5030  -30.8260 N   0  0  0  0  0  0  0  0  0  0  0  0
   -1.0180   21.9450  -30.8940 C   0  0  0  0  0  0  0  0  0  0  0  0
   -1.6297   22.4222  -31.6738 H   0  0  0  0  0  0  0  0  0  0  0  0
    0.0518   22.0433  -31.1303 H   0  0  0  0  0  0  0  0  0  0  0  0
   -1.2870   22.6330  -29.5570 C   0  0  0  0  0  0  0  0  0  0  0  0
   -1.0210   21.9527  -28.7345 H   0  0  0  0  0  0  0  0  0  0  0  0
   -0.6804   23.5479  -29.4868 H   0  0  0  0  0  0  0  0  0  0  0  0
   -2.3533   22.8938  -29.4868 H   0  0  0  0  0  0  0  0  0  0  0  0
   -1.1310   19.9820  -29.4560 C   0  0  0  0  0  0  0  0  0  0  0  0
   -1.1938   20.8126  -28.7375 H   0  0  0  0  0  0  0  0  0  0  0  0
   -1.8991   19.2277  -29.2301 H   0  0  0  0  0  0  0  0  0  0  0  0
    0.2460   19.3320  -29.3540 C   0  0  0  0  0  0  0  0  0  0  0  0
    0.5142   19.2054  -28.2947 H   0  0  0  0  0  0  0  0  0  0  0  0
    0.2248   18.3488  -29.8469 H   0  0  0  0  0  0  0  0  0  0  0  0
    0.9916   19.9732  -29.8469 H   0  0  0  0  0  0  0  0  0  0  0  0
   -5.4580   22.7160  -31.2820 C   0  0  0  0  0  0  0  0  0  0  0  0
   -4.3600   23.4450  -30.7680 C   0  0  0  0  0  0  0  0  0  0  0  0
   -3.3472   23.0215  -30.8386 H   0  0  0  0  0  0  0  0  0  0  0  0
   -4.5430   24.6910  -30.1740 C   0  0  0  0  0  0  0  0  0  0  0  0
   -3.6783   25.2420  -29.7756 H   0  0  0  0  0  0  0  0  0  0  0  0
   -5.8160   25.2390  -30.0840 C   0  0  0  0  0  0  0  0  0  0  0  0
   -5.9588   26.2248  -29.6172 H   0  0  0  0  0  0  0  0  0  0  0  0
   -6.9120   24.5400  -30.5850 C   0  0  0  0  0  0  0  0  0  0  0  0
   -7.9173   24.9786  -30.5019 H   0  0  0  0  0  0  0  0  0  0  0  0
   -6.7530   23.2730  -31.2000 C   0  0  0  0  0  0  0  0  0  0  0  0
   -7.8230   22.5810  -31.7090 N   0  0  0  0  0  0  0  0  0  0  0  0
   -9.0980   23.2850  -31.9710 C   0  0  0  0  0  0  0  0  0  0  0  0
   -9.5747   23.5482  -31.0152 H   0  0  0  0  0  0  0  0  0  0  0  0
   -8.8994   24.2013  -32.5463 H   0  0  0  0  0  0  0  0  0  0  0  0
   -9.7677   22.6288  -32.5463 H   0  0  0  0  0  0  0  0  0  0  0  0
  1  2  1  0
  2  3  2  0
  3  4  1  0
  4  5  1  0
  4  6  1  0
  4  7  1  0
  2  8  1  0
  8  9  1  0
  8 10  1  0
  8 11  1  0
 11 12  1  0
 11 13  1  0
 11 14  1  0
 14 15  2  0
 15 16  1  0
 15 17  1  0
 17 18  1  0
 17 19  2  0
 19 20  1  0
 19 21  1  0
 21 22  2  0
 22 23  1  0
 23 24  1  0
 24 25  1  0
 24 26  1  0
 26 27  1  0
 26 28  1  0
 26 29  1  0
 29 30  1  0
 29 31  1  0
 29 32  1  0
 32 33  1  0
 33 34  1  0
 33 35  1  0
 33 36  1  0
 36 37  1  0
 36 38  1  0
 36 39  1  0
 39 40  1  0
 40 41  1  0
 40 42  1  0
 40 43  1  0
 43 44  1  0
 43 45  1  0
 43 46  1  0
 39 47  1  0
 47 48  1  0
 47 49  1  0
 47 50  1  0
 50 51  1  0
 50 52  1  0
 50 53  1  0
 23 54  2  0
 54 55  1  0
 55 56  1  0
 55 57  2  0
 57 58  1  0
 57 59  1  0
 59 60  1  0
 59 61  2  0
 61 62  1  0
 61 63  1  0
 63 64  2  0
 64 65  1  0
 65 66  1  0
 65 67  1  0
 65 68  1  0
 22 14  1  0
 63 54  1  0
 64 21  1  0
M  CHG  2  11   1  64   1
M  END
>  <UniqueID>  (7) 
7

>  <SMILES>  (7) 
CCN(CC)CCOCCNc1c2ccccc2[n+](C)c2cccc([NH2+]C/C=N/C)c12

>  <Energy>  (7) 
109.72331376029649

>  <Genealogy>  (7) 
CCN(CC)CCOCCNc1c2ccccc2[n+](C)c2cccc([NH2+]CC=NC)c12 (protonated)
CCN(CC)CCOCCNc1c2ccccc2[n+](C)c2cccc([NH2+]C/C=N/C)c12 (cis-trans isomerization)
CCN(CC)CCOCCNc1c2ccccc2[n+](C)c2cccc([NH2+]C/C=N/C)c12 (3D coordinates assigned)
CCN(CC)CCOCCNc1c2ccccc2[n+](C)c2cccc([NH2+]C/C=N/C)c12 (optimized conformer: 109.72331376029649 kcal/mol)

>  <smiles>  (7) 
CCN(CC)CCOCCNc1c2ccccc2[n+](C)c2cccc(NCC=NC)c12

>  <score_type>  (7) 
oracle

>  <origin>  (7) 
adg

>  <m_score__min__energy>  (7) 
-7.8499999999999996

>  <m_primary>  (7) 
energy

$$$$
7:0
     RDKit          3D

 45 45  0  0  0  0  0  0  0  0999 V2000
   -6.1020   19.0820  -34.2330 C   0  0  0  0  0  0  0  0  0  0  0  0
   -5.1060   19.0440  -33.0640 C   0  0  0  0  0  0  0  0  0  0  0  0
   -3.8950   19.8870  -33.2570 N   0  0  0  0  0  0  0  0  0  0  0  0
   -2.8360   19.1360  -33.9830 C   0  0  0  0  0  0  0  0  0  0  0  0
   -1.5720   19.9720  -34.2230 C   0  0  0  0  0  0  0  0  0  0  0  0
   -3.3670   20.4650  -31.9920 C   0  0  0  0  0  0  0  0  0  0  0  0
   -3.4050   22.0100  -31.9530 C   0  0  0  0  0  0  0  0  0  0  0  0
   -3.8970   22.4770  -30.7090 O   0  0  0  0  0  0  0  0  0  0  0  0
   -2.8650   23.1100  -29.9770 C   0  0  0  0  0  0  0  0  0  0  0  0
   -3.2810   24.5410  -29.6400 C   0  0  0  0  0  0  0  0  0  0  0  0
   -3.9880   25.1370  -30.7890 N   0  0  0  0  0  0  0  0  0  0  0  0
   -5.4060   25.4070  -30.5050 C   0  0  0  0  0  0  0  0  0  0  0  0
   -6.2670   24.2150  -30.8370 C   0  0  0  0  0  0  0  0  0  0  0  0
   -6.4200   23.7960  -32.1690 C   0  0  0  0  0  0  0  0  0  0  0  0
   -7.1480   22.6400  -32.4660 C   0  0  0  0  0  0  0  0  0  0  0  0
   -7.7300   21.8950  -31.4370 C   0  0  0  0  0  0  0  0  0  0  0  0
   -8.6830   20.2910  -31.8420 Br  0  0  0  0  0  0  0  0  0  0  0  0
   -7.5980   22.3170  -30.1090 C   0  0  0  0  0  0  0  0  0  0  0  0
   -6.8730   23.4740  -29.8100 C   0  0  0  0  0  0  0  0  0  0  0  0
   -7.1283   19.1212  -33.8391 H   0  0  0  0  0  0  0  0  0  0  0  0
   -5.9112   19.9735  -34.8485 H   0  0  0  0  0  0  0  0  0  0  0  0
   -5.9797   18.1785  -34.8485 H   0  0  0  0  0  0  0  0  0  0  0  0
   -5.6255   19.3912  -32.1587 H   0  0  0  0  0  0  0  0  0  0  0  0
   -4.7543   18.0046  -32.9865 H   0  0  0  0  0  0  0  0  0  0  0  0
   -4.1950   20.6850  -33.8670 H   0  0  0  0  0  0  0  0  0  0  0  0
   -2.5641   18.2502  -33.3901 H   0  0  0  0  0  0  0  0  0  0  0  0
   -3.2419   18.8596  -34.9673 H   0  0  0  0  0  0  0  0  0  0  0  0
   -1.1346   20.2613  -33.2560 H   0  0  0  0  0  0  0  0  0  0  0  0
   -0.8421   19.3779  -34.7925 H   0  0  0  0  0  0  0  0  0  0  0  0
   -1.8330   20.8762  -34.7925 H   0  0  0  0  0  0  0  0  0  0  0  0
   -3.9704   20.0813  -31.1561 H   0  0  0  0  0  0  0  0  0  0  0  0
   -2.3108   20.1668  -31.9178 H   0  0  0  0  0  0  0  0  0  0  0  0
   -2.3872   22.3983  -32.1054 H   0  0  0  0  0  0  0  0  0  0  0  0
   -4.0769   22.3631  -32.7492 H   0  0  0  0  0  0  0  0  0  0  0  0
   -2.6813   22.5531  -29.0463 H   0  0  0  0  0  0  0  0  0  0  0  0
   -1.9462   23.1288  -30.5815 H   0  0  0  0  0  0  0  0  0  0  0  0
   -3.9479   24.5315  -28.7653 H   0  0  0  0  0  0  0  0  0  0  0  0
   -2.3846   25.1374  -29.4147 H   0  0  0  0  0  0  0  0  0  0  0  0
   -3.9570   24.4540  -31.5830 H   0  0  0  0  0  0  0  0  0  0  0  0
   -5.5188   25.6443  -29.4368 H   0  0  0  0  0  0  0  0  0  0  0  0
   -5.7300   26.2539  -31.1277 H   0  0  0  0  0  0  0  0  0  0  0  0
   -5.9648   24.3803  -32.9823 H   0  0  0  0  0  0  0  0  0  0  0  0
   -7.2628   22.3165  -33.5111 H   0  0  0  0  0  0  0  0  0  0  0  0
   -8.0655   21.7373  -29.2995 H   0  0  0  0  0  0  0  0  0  0  0  0
   -6.7768   23.8054  -28.7655 H   0  0  0  0  0  0  0  0  0  0  0  0
  1  2  1  0
  2  3  1  0
  3  4  1  0
  4  5  1  0
  3  6  1  0
  6  7  1  0
  7  8  1  0
  8  9  1  0
  9 10  1  0
 10 11  1  0
 11 12  1  0
 12 13  1  0
 13 14  2  0
 14 15  1  0
 15 16  2  0
 16 17  1  0
 16 18  1  0
 18 19  2  0
 19 13  1  0
  1 20  1  0
  1 21  1  0
  1 22  1  0
  2 23  1  0
  2 24  1  0
  3 25  1  0
  4 26  1  0
  4 27  1  0
  5 28  1  0
  5 29  1  0
  5 30  1  0
  6 31  1  0
  6 32  1  0
  7 33  1  0
  7 34  1  0
  9 35  1  0
  9 36  1  0
 10 37  1  0
 10 38  1  0
 11 39  1  0
 12 40  1  0
 12 41  1  0
 14 42  1  0
 15 43  1  0
 18 44  1  0
 19 45  1  0
M  CHG  1   3   1
M  END
>  <UniqueID>  (8) 
8

>  <SMILES>  (8) 
CC[NH+](CC)CCOCCNCc1ccc(Br)cc1

>  <Energy>  (8) 
41.56823006133434

>  <Genealogy>  (8) 
CC[NH+](CC)CCOCCNCc1ccc(Br)cc1 (protonated)
CC[NH+](CC)CCOCCNCc1ccc(Br)cc1 (3D coordinates assigned)
CC[NH+](CC)CCOCCNCc1ccc(Br)cc1 (optimized conformer: 41.56823006133434 kcal/mol)

>  <smiles>  (8) 
CCN(CC)CCOCCNCc1ccc(Br)cc1

>  <score_type>  (8) 
oracle

>  <origin>  (8) 
adg

>  <m_score__min__energy>  (8) 
-6.2400000000000002

>  <m_primary>  (8) 
energy

$$$$
8:0
     RDKit          3D

 48 49  0  0  0  0  0  0  0  0999 V2000
   -6.1020   25.6630  -29.3870 C   0  0  0  0  0  0  0  0  0  0  0  0
   -5.4000   25.2360  -30.6400 C   0  0  0  0  0  0  0  0  0  0  0  0
   -4.2180   25.6200  -30.8360 O   0  0  0  0  0  0  0  0  0  0  0  0
   -6.0460   24.4380  -31.6410 N   0  0  0  0  0  0  0  0  0  0  0  0
   -5.7620   23.0680  -31.9580 C   0  0  0  0  0  0  0  0  0  0  0  0
   -6.6300   22.0730  -31.4940 C   0  0  0  0  0  0  0  0  0  0  0  0
   -6.3990   20.7290  -31.8060 C   0  0  0  0  0  0  0  0  0  0  0  0
   -5.3000   20.3660  -32.6000 C   0  0  0  0  0  0  0  0  0  0  0  0
   -5.0700   18.9240  -32.9660 C   0  0  0  0  0  0  0  0  0  0  0  0
   -3.8310   18.7640  -33.8580 C   0  0  0  0  0  0  0  0  0  0  0  0
   -2.7660   19.5860  -33.4150 O   0  0  0  0  0  0  0  0  0  0  0  0
   -2.2360   19.1260  -32.1870 C   0  0  0  0  0  0  0  0  0  0  0  0
   -1.9130   20.2880  -31.2780 C   0  0  0  0  0  0  0  0  0  0  0  0
   -0.7140   20.9280  -31.2650 C   0  0  0  0  0  0  0  0  0  0  0  0
    0.4540   20.4870  -32.0610 C   0  0  0  0  0  0  0  0  0  0  0  0
    0.6780   21.0090  -33.1850 O   0  0  0  0  0  0  0  0  0  0  0  0
    1.3600   19.5640  -31.5520 O   0  0  0  0  0  0  0  0  0  0  0  0
   -0.5040   22.0680  -30.2900 C   0  0  2  0  0  0  0  0  0  0  0  0
    0.0030   21.5000  -29.0250 C   0  0  0  0  0  0  0  0  0  0  0  0
    0.4000   21.0570  -28.0310 N   0  0  0  0  0  0  0  0  0  0  0  0
   -1.8130   22.8750  -30.0880 C   0  0  2  0  0  0  0  0  0  0  0  0
   -1.6550   23.9230  -29.0100 C   0  0  0  0  0  0  0  0  0  0  0  0
   -1.8740   25.2970  -29.3230 N   0  0  0  0  0  0  0  0  0  0  0  0
   -1.2980   23.5990  -27.8450 O   0  0  0  0  0  0  0  0  0  0  0  0
   -2.9830   21.9340  -29.8630 C   0  0  0  0  0  0  0  0  0  0  0  0
   -4.2300   22.3580  -29.1400 C   0  0  0  0  0  0  0  0  0  0  0  0
   -2.9930   20.7800  -30.4640 N   0  0  0  0  0  0  0  0  0  0  0  0
   -4.4520   21.3660  -33.1000 C   0  0  0  0  0  0  0  0  0  0  0  0
   -4.6840   22.7090  -32.7860 C   0  0  0  0  0  0  0  0  0  0  0  0
   -5.5328   25.3168  -28.5117 H   0  0  0  0  0  0  0  0  0  0  0  0
   -6.1775   26.7602  -29.3647 H   0  0  0  0  0  0  0  0  0  0  0  0
   -7.1110   25.2255  -29.3647 H   0  0  0  0  0  0  0  0  0  0  0  0
   -7.4997   22.3496  -30.8799 H   0  0  0  0  0  0  0  0  0  0  0  0
   -7.0814   19.9536  -31.4276 H   0  0  0  0  0  0  0  0  0  0  0  0
   -4.9262   18.3395  -32.0453 H   0  0  0  0  0  0  0  0  0  0  0  0
   -5.9472   18.5639  -33.5236 H   0  0  0  0  0  0  0  0  0  0  0  0
   -3.5060   17.7134  -33.8342 H   0  0  0  0  0  0  0  0  0  0  0  0
   -4.0994   19.0663  -34.8810 H   0  0  0  0  0  0  0  0  0  0  0  0
   -2.9752   18.4769  -31.6949 H   0  0  0  0  0  0  0  0  0  0  0  0
   -1.3110   18.5657  -32.3881 H   0  0  0  0  0  0  0  0  0  0  0  0
    0.2342   22.7806  -30.6865 H   0  0  0  0  0  0  0  0  0  0  0  0
   -2.0366   23.4367  -31.0069 H   0  0  0  0  0  0  0  0  0  0  0  0
   -1.2310   25.8070  -29.9690 H   0  0  0  0  0  0  0  0  0  0  0  0
   -4.0618   22.3008  -28.0544 H   0  0  0  0  0  0  0  0  0  0  0  0
   -4.4814   23.3921  -29.4181 H   0  0  0  0  0  0  0  0  0  0  0  0
   -5.0597   21.6915  -29.4181 H   0  0  0  0  0  0  0  0  0  0  0  0
   -3.6013   21.0925  -33.7415 H   0  0  0  0  0  0  0  0  0  0  0  0
   -4.0199   23.4880  -33.1887 H   0  0  0  0  0  0  0  0  0  0  0  0
  1  2  1  0
  2  3  2  0
  2  4  1  0
  4  5  1  0
  5  6  2  0
  6  7  1  0
  7  8  2  0
  8  9  1  0
  9 10  1  0
 10 11  1  0
 11 12  1  0
 12 13  1  0
 13 14  2  0
 14 15  1  0
 15 16  2  0
 15 17  1  0
 14 18  1  0
 18 19  1  0
 19 20  3  0
 18 21  1  0
 21 22  1  0
 22 23  1  0
 22 24  2  0
 21 25  1  0
 25 26  1  0
 25 27  2  0
  8 28  1  0
 28 29  2  0
 29  5  1  0
 27 13  1  0
  1 30  1  0
  1 31  1  0
  1 32  1  0
  6 33  1  0
  7 34  1  0
  9 35  1  0
  9 36  1  0
 10 37  1  0
 10 38  1  0
 12 39  1  0
 12 40  1  0
 18 41  1  6
 21 42  1  6
 23 43  1  0
 26 44  1  0
 26 45  1  0
 26 46  1  0
 28 47  1  0
 29 48  1  0
M  CHG  3   4  -1  17  -1  23  -1
M  END
>  <UniqueID>  (9) 
9

>  <SMILES>  (9) 
CC(=O)[N-]c1ccc(CCOCC2=C(C(=O)[O-])[C@H](C#N)[C@H](C([NH-])=O)C(C)=N2)cc1

>  <Energy>  (9) 
60.72129940450199

>  <Genealogy>  (9) 
CC(=O)[N-]c1ccc(CCOCC2=C(C(=O)[O-])C(C#N)C(C([NH-])=O)C(C)=N2)cc1 (protonated)
CC(=O)[N-]c1ccc(CCOCC2=C(C(=O)[O-])[C@H](C#N)[C@H](C([NH-])=O)C(C)=N2)cc1 (chirality)
CC(=O)[N-]c1ccc(CCOCC2=C(C(=O)[O-])[C@H](C#N)[C@H](C([NH-])=O)C(C)=N2)cc1 (3D coordinates assigned)
CC(=O)[N-]c1ccc(CCOCC2=C(C(=O)[O-])[C@H](C#N)[C@H](C([NH-])=O)C(C)=N2)cc1 (nonaromatic ring conformer: 60.72129940450199 kcal/mol)

>  <smiles>  (9) 
CC(=O)Nc1ccc(CCOCC2=C(C(=O)[O-])C(C#N)C(C(N)=O)C(C)=N2)cc1

>  <score_type>  (9) 
oracle

>  <origin>  (9) 
adg

>  <m_score__min__energy>  (9) 
-10.06

>  <m_primary>  (9) 
energy

$$$$
9:0
     RDKit          3D

 42 44  0  0  0  0  0  0  0  0999 V2000
    1.5770   28.9010  -23.5930 C   0  0  0  0  0  0  0  0  0  0  0  0
    0.6120   27.8280  -23.7900 N   0  0  0  0  0  0  0  0  0  0  0  0
   -0.3910   27.8210  -24.6900 C   0  0  0  0  0  0  0  0  0  0  0  0
   -1.1300   26.6700  -24.4930 C   0  0  0  0  0  0  0  0  0  0  0  0
   -2.3590   26.2500  -25.2400 C   0  0  0  0  0  0  0  0  0  0  0  0
   -2.0800   25.0530  -26.0590 N   0  0  0  0  0  0  0  0  0  0  0  0
   -3.3120   24.6000  -26.7510 C   0  0  0  0  0  0  0  0  0  0  0  0
   -2.9870   23.6950  -27.9440 C   0  0  0  0  0  0  0  0  0  0  0  0
   -2.1920   24.4610  -29.0210 C   0  0  0  0  0  0  0  0  0  0  0  0
   -3.1150   25.0160  -29.9620 O   0  0  0  0  0  0  0  0  0  0  0  0
   -4.3980   24.5340  -30.2770 C   0  0  0  0  0  0  0  0  0  0  0  0
   -5.4920   25.2700  -29.8020 C   0  0  0  0  0  0  0  0  0  0  0  0
   -6.8010   24.8670  -30.0790 C   0  0  0  0  0  0  0  0  0  0  0  0
   -7.0320   23.7130  -30.8280 C   0  0  0  0  0  0  0  0  0  0  0  0
   -5.9550   22.9590  -31.2960 C   0  0  0  0  0  0  0  0  0  0  0  0
   -4.6400   23.3560  -31.0250 C   0  0  0  0  0  0  0  0  0  0  0  0
   -3.6340   22.5640  -31.4660 F   0  0  0  0  0  0  0  0  0  0  0  0
   -1.3270   25.5840  -28.4020 C   0  0  0  0  0  0  0  0  0  0  0  0
   -0.9140   25.2510  -26.9620 C   0  0  0  0  0  0  0  0  0  0  0  0
   -0.5280   26.0160  -23.4330 C   0  0  0  0  0  0  0  0  0  0  0  0
    0.5230   26.7500  -23.0260 N   0  0  0  0  0  0  0  0  0  0  0  0
    1.7261   29.0668  -22.5158 H   0  0  0  0  0  0  0  0  0  0  0  0
    2.5346   28.6227  -24.0572 H   0  0  0  0  0  0  0  0  0  0  0  0
    1.1990   29.8239  -24.0572 H   0  0  0  0  0  0  0  0  0  0  0  0
   -0.5868   28.5944  -25.4473 H   0  0  0  0  0  0  0  0  0  0  0  0
   -3.1588   26.0189  -24.5211 H   0  0  0  0  0  0  0  0  0  0  0  0
   -2.6717   27.0706  -25.9025 H   0  0  0  0  0  0  0  0  0  0  0  0
   -3.9369   24.0414  -26.0387 H   0  0  0  0  0  0  0  0  0  0  0  0
   -3.8426   25.4875  -27.1262 H   0  0  0  0  0  0  0  0  0  0  0  0
   -2.3880   22.8411  -27.5946 H   0  0  0  0  0  0  0  0  0  0  0  0
   -3.9321   23.3484  -28.3875 H   0  0  0  0  0  0  0  0  0  0  0  0
   -1.5084   23.7594  -29.5216 H   0  0  0  0  0  0  0  0  0  0  0  0
   -5.3180   26.1764  -29.2035 H   0  0  0  0  0  0  0  0  0  0  0  0
   -7.6494   25.4598  -29.7064 H   0  0  0  0  0  0  0  0  0  0  0  0
   -8.0623   23.3976  -31.0495 H   0  0  0  0  0  0  0  0  0  0  0  0
   -6.1405   22.0466  -31.8818 H   0  0  0  0  0  0  0  0  0  0  0  0
   -0.4210   25.7140  -29.0121 H   0  0  0  0  0  0  0  0  0  0  0  0
   -1.9243   26.5075  -28.3835 H   0  0  0  0  0  0  0  0  0  0  0  0
   -0.3166   24.3274  -26.9723 H   0  0  0  0  0  0  0  0  0  0  0  0
   -0.3379   26.1052  -26.5767 H   0  0  0  0  0  0  0  0  0  0  0  0
   -0.8531   25.0596  -22.9976 H   0  0  0  0  0  0  0  0  0  0  0  0
    1.1600   26.5270  -22.2280 H   0  0  0  0  0  0  0  0  0  0  0  0
  1  2  1  0
  2  3  1  0
  3  4  2  0
  4  5  1  0
  5  6  1  0
  6  7  1  0
  7  8  1  0
  8  9  1  0
  9 10  1  0
 10 11  1  0
 11 12  2  0
 12 13  1  0
 13 14  2  0
 14 15  1  0
 15 16  2  0
 16 17  1  0
  9 18  1  0
 18 19  1  0
  4 20  1  0
 20 21  2  0
 21  2  1  0
 19  6  1  0
 16 11  1  0
  1 22  1  0
  1 23  1  0
  1 24  1  0
  3 25  1  0
  5 26  1  0
  5 27  1  0
  7 28  1  0
  7 29  1  0
  8 30  1  0
  8 31  1  0
  9 32  1  0
 12 33  1  0
 13 34  1  0
 14 35  1  0
 15 36  1  0
 18 37  1  0
 18 38  1  0
 19 39  1  0
 19 40  1  0
 20 41  1  0
 21 42  1  0
M  CHG  1  21   1
M  END
>  <UniqueID>  (10) 
10

>  <SMILES>  (10) 
Cn1cc(CN2CCC(Oc3ccccc3F)CC2)c[nH+]1

>  <Energy>  (10) 
82.87541790816228

>  <Genealogy>  (10) 
Cn1cc(CN2CCC(Oc3ccccc3F)CC2)c[nH+]1 (protonated)
Cn1cc(CN2CCC(Oc3ccccc3F)CC2)c[nH+]1 (3D coordinates assigned)
Cn1cc(CN2CCC(Oc3ccccc3F)CC2)c[nH+]1 (nonaromatic ring conformer: 82.87541790816228 kcal/mol)

>  <smiles>  (10) 
Cn1cc(CN2CCC(Oc3ccccc3F)CC2)cn1

>  <score_type>  (10) 
oracle

>  <origin>  (10) 
adg

>  <m_score__min__energy>  (10) 
-8.4399999999999995

>  <m_primary>  (10) 
energy

$$$$
10:0
     RDKit          3D

 28 29  0  0  0  0  0  0  0  0999 V2000
   -9.1400   21.4850  -31.2280 Cl  0  0  0  0  0  0  0  0  0  0  0  0
   -7.6000   21.0720  -31.9790 C   0  0  0  0  0  0  0  0  0  0  0  0
   -7.6250   20.0590  -32.9470 C   0  0  0  0  0  0  0  0  0  0  0  0
   -6.4550   19.6700  -33.5990 C   0  0  0  0  0  0  0  0  0  0  0  0
   -5.2470   20.2900  -33.2900 C   0  0  0  0  0  0  0  0  0  0  0  0
   -5.2030   21.3010  -32.3300 C   0  0  0  0  0  0  0  0  0  0  0  0
   -6.3710   21.7140  -31.6560 C   0  0  0  0  0  0  0  0  0  0  0  0
   -6.2460   22.8200  -30.6110 C   0  0  0  0  0  0  0  0  0  0  0  0
   -6.6870   24.1930  -31.1500 C   0  0  0  0  0  0  0  0  0  0  0  0
   -6.6510   25.2720  -30.0450 C   0  0  0  0  0  0  0  0  0  0  0  0
   -5.6670   24.9940  -28.9750 N   0  0  0  0  0  0  0  0  0  0  0  0
   -4.4800   24.2830  -29.4730 C   0  0  0  0  0  0  0  0  0  0  0  0
   -4.8450   22.8680  -29.9530 C   0  0  0  0  0  0  0  0  0  0  0  0
   -8.5765   19.5659  -33.1950 H   0  0  0  0  0  0  0  0  0  0  0  0
   -6.4865   18.8736  -34.3571 H   0  0  0  0  0  0  0  0  0  0  0  0
   -4.3249   19.9816  -33.8044 H   0  0  0  0  0  0  0  0  0  0  0  0
   -4.2428   21.7835  -32.0951 H   0  0  0  0  0  0  0  0  0  0  0  0
   -6.9518   22.5589  -29.8087 H   0  0  0  0  0  0  0  0  0  0  0  0
   -6.0101   24.4919  -31.9639 H   0  0  0  0  0  0  0  0  0  0  0  0
   -7.7214   24.1054  -31.5139 H   0  0  0  0  0  0  0  0  0  0  0  0
   -6.3965   26.2363  -30.5091 H   0  0  0  0  0  0  0  0  0  0  0  0
   -7.6447   25.2830  -29.5734 H   0  0  0  0  0  0  0  0  0  0  0  0
   -6.1180   24.4270  -28.2200 H   0  0  0  0  0  0  0  0  0  0  0  0
   -5.3630   25.9010  -28.5510 H   0  0  0  0  0  0  0  0  0  0  0  0
   -4.0488   24.8475  -30.3129 H   0  0  0  0  0  0  0  0  0  0  0  0
   -3.7530   24.1975  -28.6519 H   0  0  0  0  0  0  0  0  0  0  0  0
   -4.0962   22.5386  -30.6884 H   0  0  0  0  0  0  0  0  0  0  0  0
   -4.8600   22.2055  -29.0750 H   0  0  0  0  0  0  0  0  0  0  0  0
  1  2  1  0
  2  3  2  0
  3  4  1  0
  4  5  2  0
  5  6  1  0
  6  7  2  0
  7  8  1  0
  8  9  1  0
  9 10  1  0
 10 11  1  0
 11 12  1  0
 12 13  1  0
  7  2  1  0
 13  8  1  0
  3 14  1  0
  4 15  1  0
  5 16  1  0
  6 17  1  0
  8 18  1  0
  9 19  1  0
  9 20  1  0
 10 21  1  0
 10 22  1  0
 11 23  1  0
 11 24  1  0
 12 25  1  0
 12 26  1  0
 13 27  1  0
 13 28  1  0
M  CHG  1  11   1
M  END
>  <UniqueID>  (11) 
11

>  <SMILES>  (11) 
Clc1ccccc1C1CC[NH2+]CC1

>  <Energy>  (11) 
36.78599007419814

>  <Genealogy>  (11) 
Clc1ccccc1C1CC[NH2+]CC1 (protonated)
Clc1ccccc1C1CC[NH2+]CC1 (3D coordinates assigned)
Clc1ccccc1C1CC[NH2+]CC1 (nonaromatic ring conformer: 36.78599007419814 kcal/mol)

>  <smiles>  (11) 
Clc1ccccc1C1CCNCC1

>  <score_type>  (11) 
oracle

>  <origin>  (11) 
adg

>  <m_score__min__energy>  (11) 
-6.2199999999999998

>  <m_primary>  (11) 
energy

$$$$
11:0
     RDKit          3D

 54 56  0  0  0  0  0  0  0  0999 V2000
   -7.6220   22.7270  -30.1140 C   0  0  0  0  0  0  0  0  0  0  0  0
   -8.0690   23.0630  -31.5330 C   0  0  0  0  0  0  0  0  0  0  0  0
   -7.5120   22.1220  -32.5080 N   0  0  0  0  0  0  0  0  0  0  0  0
   -7.5370   20.6820  -32.3750 C   0  0  0  0  0  0  0  0  0  0  0  0
   -8.7120   20.0580  -31.9210 C   0  0  0  0  0  0  0  0  0  0  0  0
   -8.8440   18.6790  -31.9520 C   0  0  0  0  0  0  0  0  0  0  0  0
   -7.8420   17.8930  -32.5010 C   0  0  0  0  0  0  0  0  0  0  0  0
   -6.6490   18.4680  -32.9980 C   0  0  0  0  0  0  0  0  0  0  0  0
   -6.4440   19.8680  -32.8200 C   0  0  0  0  0  0  0  0  0  0  0  0
   -5.1490   20.3890  -33.0610 C   0  0  0  0  0  0  0  0  0  0  0  0
   -4.8020   21.7170  -32.6480 N   0  0  0  0  0  0  0  0  0  0  0  0
   -4.3540   21.9650  -31.2790 C   0  0  0  0  0  0  0  0  0  0  0  0
   -3.2560   23.0330  -31.2550 C   0  0  0  0  0  0  0  0  0  0  0  0
   -3.7920   24.3200  -30.7630 N   0  0  0  0  0  0  0  0  0  0  0  0
   -5.2210   24.4870  -31.0830 C   0  0  0  0  0  0  0  0  0  0  0  0
   -3.5140   24.5410  -29.3250 C   0  0  0  0  0  0  0  0  0  0  0  0
   -4.5320   23.8850  -28.3830 C   0  0  0  0  0  0  0  0  0  0  0  0
   -4.1320   19.5470  -33.5470 C   0  0  0  0  0  0  0  0  0  0  0  0
   -2.8250   20.0420  -33.7550 C   0  0  0  0  0  0  0  0  0  0  0  0
   -1.8050   19.2010  -34.1930 C   0  0  0  0  0  0  0  0  0  0  0  0
   -2.0620   17.8550  -34.4140 C   0  0  0  0  0  0  0  0  0  0  0  0
   -3.3440   17.3430  -34.2170 C   0  0  0  0  0  0  0  0  0  0  0  0
   -4.4140   18.1820  -33.8070 C   0  0  0  0  0  0  0  0  0  0  0  0
   -5.6900   17.6920  -33.6210 N   0  0  0  0  0  0  0  0  0  0  0  0
   -6.0410   16.3420  -34.1210 C   0  0  0  0  0  0  0  0  0  0  0  0
   -8.2858   23.2260  -29.3926 H   0  0  0  0  0  0  0  0  0  0  0  0
   -7.6686   21.6384  -29.9630 H   0  0  0  0  0  0  0  0  0  0  0  0
   -6.5892   23.0743  -29.9630 H   0  0  0  0  0  0  0  0  0  0  0  0
   -9.1671   23.0199  -31.5816 H   0  0  0  0  0  0  0  0  0  0  0  0
   -7.7056   24.0715  -31.7798 H   0  0  0  0  0  0  0  0  0  0  0  0
   -7.2310   22.5290  -33.4280 H   0  0  0  0  0  0  0  0  0  0  0  0
   -9.5384   20.6732  -31.5356 H   0  0  0  0  0  0  0  0  0  0  0  0
   -9.7473   18.2058  -31.5395 H   0  0  0  0  0  0  0  0  0  0  0  0
   -7.9774   16.8025  -32.5509 H   0  0  0  0  0  0  0  0  0  0  0  0
   -4.6690   22.4470  -33.3850 H   0  0  0  0  0  0  0  0  0  0  0  0
   -5.2072   22.3103  -30.6766 H   0  0  0  0  0  0  0  0  0  0  0  0
   -3.9482   21.0304  -30.8644 H   0  0  0  0  0  0  0  0  0  0  0  0
   -2.4442   22.7019  -30.5906 H   0  0  0  0  0  0  0  0  0  0  0  0
   -2.8770   23.1747  -32.2779 H   0  0  0  0  0  0  0  0  0  0  0  0
   -5.8001   24.5547  -30.1503 H   0  0  0  0  0  0  0  0  0  0  0  0
   -5.3604   25.4076  -31.6688 H   0  0  0  0  0  0  0  0  0  0  0  0
   -5.5689   23.6234  -31.6688 H   0  0  0  0  0  0  0  0  0  0  0  0
   -2.5189   24.1306  -29.0983 H   0  0  0  0  0  0  0  0  0  0  0  0
   -3.5750   25.6257  -29.1528 H   0  0  0  0  0  0  0  0  0  0  0  0
   -4.2400   24.0731  -27.3393 H   0  0  0  0  0  0  0  0  0  0  0  0
   -5.5294   24.3107  -28.5672 H   0  0  0  0  0  0  0  0  0  0  0  0
   -4.5564   22.8008  -28.5672 H   0  0  0  0  0  0  0  0  0  0  0  0
   -2.6105   21.1047  -33.5687 H   0  0  0  0  0  0  0  0  0  0  0  0
   -0.7956   19.6035  -34.3638 H   0  0  0  0  0  0  0  0  0  0  0  0
   -1.2513   17.1897  -34.7458 H   0  0  0  0  0  0  0  0  0  0  0  0
   -3.5296   16.2714  -34.3819 H   0  0  0  0  0  0  0  0  0  0  0  0
   -6.2159   15.6693  -33.2685 H   0  0  0  0  0  0  0  0  0  0  0  0
   -6.9531   16.4033  -34.7329 H   0  0  0  0  0  0  0  0  0  0  0  0
   -5.2146   15.9513  -34.7329 H   0  0  0  0  0  0  0  0  0  0  0  0
  1  2  1  0
  2  3  1  0
  3  4  1  0
  4  5  2  0
  5  6  1  0
  6  7  2  0
  7  8  1  0
  8  9  2  0
  9 10  1  0
 10 11  1  0
 11 12  1  0
 12 13  1  0
 13 14  1  0
 14 15  1  0
 14 16  1  0
 16 17  1  0
 10 18  2  0
 18 19  1  0
 19 20  2  0
 20 21  1  0
 21 22  2  0
 22 23  1  0
 23 24  2  0
 24 25  1  0
  9  4  1  0
 23 18  1  0
 24  8  1  0
  1 26  1  0
  1 27  1  0
  1 28  1  0
  2 29  1  0
  2 30  1  0
  3 31  1  0
  5 32  1  0
  6 33  1  0
  7 34  1  0
 11 35  1  0
 12 36  1  0
 12 37  1  0
 13 38  1  0
 13 39  1  0
 15 40  1  0
 15 41  1  0
 15 42  1  0
 16 43  1  0
 16 44  1  0
 17 45  1  0
 17 46  1  0
 17 47  1  0
 19 48  1  0
 20 49  1  0
 21 50  1  0
 22 51  1  0
 25 52  1  0
 25 53  1  0
 25 54  1  0
M  CHG  1  24   1
M  END
>  <UniqueID>  (12) 
12

>  <SMILES>  (12) 
CCNc1cccc2c1c(NCCN(C)CC)c1ccccc1[n+]2C

>  <Energy>  (12) 
85.79902653116568

>  <Genealogy>  (12) 
CCNc1cccc2c1c(NCCN(C)CC)c1ccccc1[n+]2C (3D coordinates assigned)
CCNc1cccc2c1c(NCCN(C)CC)c1ccccc1[n+]2C (optimized conformer: 85.79902653116568 kcal/mol)

>  <smiles>  (12) 
CCNc1cccc2c1c(NCCN(C)CC)c1ccccc1[n+]2C

>  <score_type>  (12) 
oracle

>  <origin>  (12) 
adg

>  <m_score__min__energy>  (12) 
-8.2699999999999996

>  <m_primary>  (12) 
energy

$$$$
12:0
     RDKit          3D

 71 75  0  0  0  0  0  0  0  0999 V2000
   -2.8570   23.8290  -28.2290 C   0  0  0  0  0  0  0  0  0  0  0  0
   -4.1000   24.5190  -28.7900 C   0  0  0  0  0  0  0  0  0  0  0  0
   -4.0270   24.7020  -30.2610 N   0  0  0  0  0  0  0  0  0  0  0  0
   -5.2670   25.3200  -30.7870 C   0  0  0  0  0  0  0  0  0  0  0  0
   -6.3730   25.2860  -29.7320 C   0  0  0  0  0  0  0  0  0  0  0  0
   -3.6540   23.4760  -31.0100 C   0  0  0  0  0  0  0  0  0  0  0  0
   -4.8180   22.4860  -31.2050 C   0  0  0  0  0  0  0  0  0  0  0  0
   -4.8490   21.9820  -32.5790 N   0  0  0  0  0  0  0  0  0  0  0  0
   -5.3510   20.6670  -32.8520 C   0  0  0  0  0  0  0  0  0  0  0  0
   -6.7280   20.4360  -32.6560 C   0  0  0  0  0  0  0  0  0  0  0  0
   -7.6130   21.5080  -32.3950 C   0  0  0  0  0  0  0  0  0  0  0  0
   -8.9740   21.2820  -32.2140 C   0  0  0  0  0  0  0  0  0  0  0  0
   -9.4840   19.9940  -32.3100 C   0  0  0  0  0  0  0  0  0  0  0  0
   -8.6330   18.9230  -32.5750 C   0  0  0  0  0  0  0  0  0  0  0  0
   -7.2360   19.1190  -32.7330 C   0  0  0  0  0  0  0  0  0  0  0  0
   -6.3800   18.0690  -32.9710 N   0  0  0  0  0  0  0  0  0  0  0  0
   -6.8390   16.6810  -32.7340 C   0  0  0  0  0  0  0  0  0  0  0  0
   -5.1020   18.3090  -33.4380 C   0  0  0  0  0  0  0  0  0  0  0  0
   -4.3640   17.2690  -34.0490 C   0  0  0  0  0  0  0  0  0  0  0  0
   -3.0800   17.4720  -34.5200 C   0  0  0  0  0  0  0  0  0  0  0  0
   -2.4830   18.7080  -34.3890 C   0  0  0  0  0  0  0  0  0  0  0  0
   -3.1500   19.7930  -33.7890 C   0  0  0  0  0  0  0  0  0  0  0  0
   -2.4120   21.0470  -33.7240 N   0  0  0  0  0  0  0  0  0  0  0  0
   -0.9610   20.9130  -33.8060 C   0  0  0  0  0  0  0  0  0  0  0  0
   -0.2720   21.3490  -34.9550 C   0  0  0  0  0  0  0  0  0  0  0  0
    1.0730   21.0810  -35.1300 C   0  0  0  0  0  0  0  0  0  0  0  0
    1.7800   20.3760  -34.2040 N   0  0  0  0  0  0  0  0  0  0  0  0
    3.1920   20.0750  -34.5050 C   0  0  0  0  0  0  0  0  0  0  0  0
    1.1830   19.9800  -33.0240 C   0  0  0  0  0  0  0  0  0  0  0  0
    1.9240   19.2630  -32.0560 C   0  0  0  0  0  0  0  0  0  0  0  0
    1.3570   18.8940  -30.8450 C   0  0  0  0  0  0  0  0  0  0  0  0
    0.0560   19.2620  -30.5450 C   0  0  0  0  0  0  0  0  0  0  0  0
   -0.7200   19.9750  -31.4620 C   0  0  0  0  0  0  0  0  0  0  0  0
   -2.2670   20.5140  -30.8100 Cl  0  0  0  0  0  0  0  0  0  0  0  0
   -0.1950   20.2990  -32.7580 C   0  0  0  0  0  0  0  0  0  0  0  0
   -4.5170   19.6160  -33.3420 C   0  0  0  0  0  0  0  0  0  0  0  0
   -2.8916   23.8482  -27.1297 H   0  0  0  0  0  0  0  0  0  0  0  0
   -2.8283   22.7858  -28.5768 H   0  0  0  0  0  0  0  0  0  0  0  0
   -1.9565   24.3564  -28.5768 H   0  0  0  0  0  0  0  0  0  0  0  0
   -4.9821   23.9060  -28.5531 H   0  0  0  0  0  0  0  0  0  0  0  0
   -4.1682   25.5158  -28.3298 H   0  0  0  0  0  0  0  0  0  0  0  0
   -5.0617   26.3650  -31.0623 H   0  0  0  0  0  0  0  0  0  0  0  0
   -5.5999   24.7531  -31.6690 H   0  0  0  0  0  0  0  0  0  0  0  0
   -5.9229   25.2998  -28.7284 H   0  0  0  0  0  0  0  0  0  0  0  0
   -7.0235   26.1646  -29.8543 H   0  0  0  0  0  0  0  0  0  0  0  0
   -6.9683   24.3691  -29.8543 H   0  0  0  0  0  0  0  0  0  0  0  0
   -3.2837   23.7751  -32.0017 H   0  0  0  0  0  0  0  0  0  0  0  0
   -2.8897   22.9570  -30.4130 H   0  0  0  0  0  0  0  0  0  0  0  0
   -4.6911   21.6399  -30.5136 H   0  0  0  0  0  0  0  0  0  0  0  0
   -5.7635   23.0098  -31.0009 H   0  0  0  0  0  0  0  0  0  0  0  0
   -4.6100   22.6030  -33.3810 H   0  0  0  0  0  0  0  0  0  0  0  0
   -7.2203   22.5337  -32.3343 H   0  0  0  0  0  0  0  0  0  0  0  0
   -9.6465   22.1244  -31.9947 H   0  0  0  0  0  0  0  0  0  0  0  0
  -10.5618   19.8189  -32.1766 H   0  0  0  0  0  0  0  0  0  0  0  0
   -9.0505   17.9091  -32.6632 H   0  0  0  0  0  0  0  0  0  0  0  0
   -6.9005   16.4949  -31.6516 H   0  0  0  0  0  0  0  0  0  0  0  0
   -7.8314   16.5406  -33.1872 H   0  0  0  0  0  0  0  0  0  0  0  0
   -6.1260   15.9766  -33.1872 H   0  0  0  0  0  0  0  0  0  0  0  0
   -4.8225   16.2744  -34.1521 H   0  0  0  0  0  0  0  0  0  0  0  0
   -2.5340   16.6464  -34.9999 H   0  0  0  0  0  0  0  0  0  0  0  0
   -1.4584   18.8501  -34.7632 H   0  0  0  0  0  0  0  0  0  0  0  0
   -2.6290   21.4600  -32.7880 H   0  0  0  0  0  0  0  0  0  0  0  0
   -2.7790   21.7420  -34.4010 H   0  0  0  0  0  0  0  0  0  0  0  0
   -0.8146   21.9135  -35.7277 H   0  0  0  0  0  0  0  0  0  0  0  0
    1.5820   21.4444  -36.0349 H   0  0  0  0  0  0  0  0  0  0  0  0
    3.7501   19.9560  -33.5646 H   0  0  0  0  0  0  0  0  0  0  0  0
    3.2523   19.1438  -35.0875 H   0  0  0  0  0  0  0  0  0  0  0  0
    3.6268   20.9006  -35.0875 H   0  0  0  0  0  0  0  0  0  0  0  0
    2.9692   18.9930  -32.2673 H   0  0  0  0  0  0  0  0  0  0  0  0
    1.9421   18.3077  -30.1212 H   0  0  0  0  0  0  0  0  0  0  0  0
   -0.3729   18.9886  -29.5696 H   0  0  0  0  0  0  0  0  0  0  0  0
  1  2  1  0
  2  3  1  0
  3  4  1  0
  4  5  1  0
  3  6  1  0
  6  7  1  0
  7  8  1  0
  8  9  1  0
  9 10  2  0
 10 11  1  0
 11 12  2  0
 12 13  1  0
 13 14  2  0
 14 15  1  0
 15 16  2  0
 16 17  1  0
 16 18  1  0
 18 19  2  0
 19 20  1  0
 20 21  2  0
 21 22  1  0
 22 23  1  0
 23 24  1  0
 24 25  2  0
 25 26  1  0
 26 27  2  0
 27 28  1  0
 27 29  1  0
 29 30  2  0
 30 31  1  0
 31 32  2  0
 32 33  1  0
 33 34  1  0
 33 35  2  0
 22 36  2  0
 36  9  1  0
 15 10  1  0
 36 18  1  0
 35 24  1  0
 35 29  1  0
  1 37  1  0
  1 38  1  0
  1 39  1  0
  2 40  1  0
  2 41  1  0
  4 42  1  0
  4 43  1  0
  5 44  1  0
  5 45  1  0
  5 46  1  0
  6 47  1  0
  6 48  1  0
  7 49  1  0
  7 50  1  0
  8 51  1  0
 11 52  1  0
 12 53  1  0
 13 54  1  0
 14 55  1  0
 17 56  1  0
 17 57  1  0
 17 58  1  0
 19 59  1  0
 20 60  1  0
 21 61  1  0
 23 62  1  0
 23 63  1  0
 25 64  1  0
 26 65  1  0
 28 66  1  0
 28 67  1  0
 28 68  1  0
 30 69  1  0
 31 70  1  0
 32 71  1  0
M  CHG  3  16   1  23   1  27   1
M  END
>  <UniqueID>  (13) 
13

>  <SMILES>  (13) 
CCN(CC)CCNc1c2ccccc2[n+](C)c2cccc([NH2+]c3cc[n+](C)c4cccc(Cl)c34)c12

>  <Energy>  (13) 
139.05187476877157

>  <Genealogy>  (13) 
CCN(CC)CCNc1c2ccccc2[n+](C)c2cccc([NH2+]c3cc[n+](C)c4cccc(Cl)c34)c12 (protonated)
CCN(CC)CCNc1c2ccccc2[n+](C)c2cccc([NH2+]c3cc[n+](C)c4cccc(Cl)c34)c12 (3D coordinates assigned)
CCN(CC)CCNc1c2ccccc2[n+](C)c2cccc([NH2+]c3cc[n+](C)c4cccc(Cl)c34)c12 (optimized conformer: 139.05187476877157 kcal/mol)

>  <smiles>  (13) 
CCN(CC)CCNc1c2ccccc2[n+](C)c2cccc(Nc3cc[n+](C)c4cccc(Cl)c34)c12

>  <score_type>  (13) 
oracle

>  <origin>  (13) 
adg

>  <m_score__min__energy>  (13) 
-9.1500000000000004

>  <m_primary>  (13) 
energy

$$$$
13:0
     RDKit          3D

 82 86  0  0  0  0  0  0  0  0999 V2000
   -0.1150   19.2630  -31.7550 C   0  0  0  0  0  0  0  0  0  0  0  0
    0.0450   20.5120  -32.6330 C   0  0  0  0  0  0  0  0  0  0  0  0
   -0.6690   20.4330  -33.9300 N   0  0  0  0  0  0  0  0  0  0  0  0
   -0.0470   21.2850  -34.9590 C   0  0  0  0  0  0  0  0  0  0  0  0
   -2.1200   20.6910  -33.7950 C   0  0  0  0  0  0  0  0  0  0  0  0
   -2.9210   19.3950  -33.9210 C   0  0  0  0  0  0  0  0  0  0  0  0
   -4.2840   19.7200  -34.0980 O   0  0  0  0  0  0  0  0  0  0  0  0
   -5.0660   18.5530  -34.2610 C   0  0  0  0  0  0  0  0  0  0  0  0
   -4.8490   17.5980  -33.0850 C   0  0  0  0  0  0  0  0  0  0  0  0
   -5.4300   18.1550  -31.8650 N   0  0  0  0  0  0  0  0  0  0  0  0
   -5.8190   19.5340  -31.7680 C   0  0  0  0  0  0  0  0  0  0  0  0
   -7.1550   19.9580  -31.9760 C   0  0  0  0  0  0  0  0  0  0  0  0
   -8.1520   19.0400  -32.3600 C   0  0  0  0  0  0  0  0  0  0  0  0
   -9.4720   19.4530  -32.5270 C   0  0  0  0  0  0  0  0  0  0  0  0
   -9.8220   20.7810  -32.3110 C   0  0  0  0  0  0  0  0  0  0  0  0
   -8.8540   21.7190  -31.9540 C   0  0  0  0  0  0  0  0  0  0  0  0
   -7.4960   21.3460  -31.8150 C   0  0  0  0  0  0  0  0  0  0  0  0
   -6.5120   22.2770  -31.5140 N   0  0  0  0  0  0  0  0  0  0  0  0
   -6.7570   23.7250  -31.6160 C   0  0  0  0  0  0  0  0  0  0  0  0
   -5.2620   21.8120  -31.1990 C   0  0  0  0  0  0  0  0  0  0  0  0
   -4.9010   20.4920  -31.3550 C   0  0  0  0  0  0  0  0  0  0  0  0
   -3.6410   20.2990  -31.0270 O   0  0  0  0  0  0  0  0  0  0  0  0
   -3.1670   21.4610  -30.6300 C   0  0  0  0  0  0  0  0  0  0  0  0
   -1.8850   21.7220  -30.1590 C   0  0  0  0  0  0  0  0  0  0  0  0
   -1.5970   23.0220  -29.7090 C   0  0  0  0  0  0  0  0  0  0  0  0
   -2.5900   24.0290  -29.7090 C   0  0  0  0  0  0  0  0  0  0  0  0
   -2.2470   25.2940  -29.2010 O   0  0  0  0  0  0  0  0  0  0  0  0
   -1.1490   25.5650  -28.3260 C   0  0  0  0  0  0  0  0  0  0  0  0
   -1.6030   25.4800  -26.8490 C   0  0  0  0  0  0  0  0  0  0  0  0
   -0.5060   25.4260  -25.8230 N   0  0  0  0  0  0  0  0  0  0  0  0
    0.0380   24.0420  -25.7690 C   0  0  0  0  0  0  0  0  0  0  0  0
    0.6240   26.3470  -26.1490 C   0  0  0  0  0  0  0  0  0  0  0  0
    0.2130   27.8330  -26.1730 C   0  0  0  0  0  0  0  0  0  0  0  0
   -0.7980   28.1980  -25.0740 C   0  0  0  0  0  0  0  0  0  0  0  0
   -0.7970   27.1710  -23.9470 C   0  0  0  0  0  0  0  0  0  0  0  0
   -1.0880   25.7440  -24.4680 C   0  0  0  0  0  0  0  0  0  0  0  0
   -3.8860   23.7320  -30.1980 C   0  0  0  0  0  0  0  0  0  0  0  0
   -4.1320   22.4470  -30.6940 C   0  0  0  0  0  0  0  0  0  0  0  0
   -0.0778   19.5530  -30.6946 H   0  0  0  0  0  0  0  0  0  0  0  0
   -1.0818   18.7846  -31.9706 H   0  0  0  0  0  0  0  0  0  0  0  0
    0.7000   18.5564  -31.9706 H   0  0  0  0  0  0  0  0  0  0  0  0
   -0.3432   21.3779  -32.0767 H   0  0  0  0  0  0  0  0  0  0  0  0
    1.1165   20.6030  -32.8646 H   0  0  0  0  0  0  0  0  0  0  0  0
    0.5348   22.0819  -34.4726 H   0  0  0  0  0  0  0  0  0  0  0  0
    0.6197   20.6750  -35.5862 H   0  0  0  0  0  0  0  0  0  0  0  0
   -0.8311   21.7341  -35.5862 H   0  0  0  0  0  0  0  0  0  0  0  0
   -2.3154   21.1403  -32.8101 H   0  0  0  0  0  0  0  0  0  0  0  0
   -2.4307   21.3745  -34.5989 H   0  0  0  0  0  0  0  0  0  0  0  0
   -2.5619   18.8208  -34.7878 H   0  0  0  0  0  0  0  0  0  0  0  0
   -2.7957   18.7873  -33.0127 H   0  0  0  0  0  0  0  0  0  0  0  0
   -6.1288   18.8325  -34.3098 H   0  0  0  0  0  0  0  0  0  0  0  0
   -4.7653   18.0485  -35.1911 H   0  0  0  0  0  0  0  0  0  0  0  0
   -5.3286   16.6334  -33.3077 H   0  0  0  0  0  0  0  0  0  0  0  0
   -3.7687   17.4560  -32.9342 H   0  0  0  0  0  0  0  0  0  0  0  0
   -5.7100   17.4910  -31.1090 H   0  0  0  0  0  0  0  0  0  0  0  0
   -7.8856   17.9863  -32.5297 H   0  0  0  0  0  0  0  0  0  0  0  0
  -10.2397   18.7261  -32.8307 H   0  0  0  0  0  0  0  0  0  0  0  0
  -10.8706   21.0942  -32.4226 H   0  0  0  0  0  0  0  0  0  0  0  0
   -9.1501   22.7637  -31.7779 H   0  0  0  0  0  0  0  0  0  0  0  0
   -6.8300   24.1565  -30.6068 H   0  0  0  0  0  0  0  0  0  0  0  0
   -5.9265   24.2001  -32.1587 H   0  0  0  0  0  0  0  0  0  0  0  0
   -7.6976   23.9004  -32.1587 H   0  0  0  0  0  0  0  0  0  0  0  0
   -1.1182   20.9336  -30.1392 H   0  0  0  0  0  0  0  0  0  0  0  0
   -0.5842   23.2597  -29.3515 H   0  0  0  0  0  0  0  0  0  0  0  0
   -0.3531   24.8268  -28.5037 H   0  0  0  0  0  0  0  0  0  0  0  0
   -0.7747   26.5797  -28.5266 H   0  0  0  0  0  0  0  0  0  0  0  0
   -2.2199   26.3653  -26.6354 H   0  0  0  0  0  0  0  0  0  0  0  0
   -2.1396   24.5240  -26.7590 H   0  0  0  0  0  0  0  0  0  0  0  0
    0.1583   23.7360  -24.7193 H   0  0  0  0  0  0  0  0  0  0  0  0
   -0.6570   23.3549  -26.2739 H   0  0  0  0  0  0  0  0  0  0  0  0
    1.0148   24.0120  -26.2739 H   0  0  0  0  0  0  0  0  0  0  0  0
    1.4114   26.2148  -25.3924 H   0  0  0  0  0  0  0  0  0  0  0  0
    0.9727   26.0893  -27.1599 H   0  0  0  0  0  0  0  0  0  0  0  0
    1.1150   28.4477  -26.0368 H   0  0  0  0  0  0  0  0  0  0  0  0
   -0.2731   28.0228  -27.1413 H   0  0  0  0  0  0  0  0  0  0  0  0
   -0.5352   29.1826  -24.6599 H   0  0  0  0  0  0  0  0  0  0  0  0
   -1.8023   28.2158  -25.5225 H   0  0  0  0  0  0  0  0  0  0  0  0
    0.1895   27.1778  -23.4603 H   0  0  0  0  0  0  0  0  0  0  0  0
   -1.5912   27.4434  -23.2363 H   0  0  0  0  0  0  0  0  0  0  0  0
   -0.6762   25.0262  -23.7433 H   0  0  0  0  0  0  0  0  0  0  0  0
   -2.1801   25.6758  -24.5802 H   0  0  0  0  0  0  0  0  0  0  0  0
   -4.6799   24.4934  -30.1880 H   0  0  0  0  0  0  0  0  0  0  0  0
  1  2  1  0
  2  3  1  0
  3  4  1  0
  3  5  1  0
  5  6  1  0
  6  7  1  0
  7  8  1  0
  8  9  1  0
  9 10  1  0
 10 11  1  0
 11 12  2  0
 12 13  1  0
 13 14  2  0
 14 15  1  0
 15 16  2  0
 16 17  1  0
 17 18  2  0
 18 19  1  0
 18 20  1  0
 20 21  2  0
 21 22  1  0
 22 23  1  0
 23 24  2  0
 24 25  1  0
 25 26  2  0
 26 27  1  0
 27 28  1  0
 28 29  1  0
 29 30  1  0
 30 31  1  0
 30 32  1  0
 32 33  1  0
 33 34  1  0
 34 35  1  0
 35 36  1  0
 26 37  1  0
 37 38  2  0
 21 11  1  0
 38 23  1  0
 17 12  1  0
 38 20  1  0
 36 30  1  0
  1 39  1  0
  1 40  1  0
  1 41  1  0
  2 42  1  0
  2 43  1  0
  4 44  1  0
  4 45  1  0
  4 46  1  0
  5 47  1  0
  5 48  1  0
  6 49  1  0
  6 50  1  0
  8 51  1  0
  8 52  1  0
  9 53  1  0
  9 54  1  0
 10 55  1  0
 13 56  1  0
 14 57  1  0
 15 58  1  0
 16 59  1  0
 19 60  1  0
 19 61  1  0
 19 62  1  0
 24 63  1  0
 25 64  1  0
 28 65  1  0
 28 66  1  0
 29 67  1  0
 29 68  1  0
 31 69  1  0
 31 70  1  0
 31 71  1  0
 32 72  1  0
 32 73  1  0
 33 74  1  0
 33 75  1  0
 34 76  1  0
 34 77  1  0
 35 78  1  0
 35 79  1  0
 36 80  1  0
 36 81  1  0
 37 82  1  0
M  CHG  2  18   1  30   1
M  END
>  <UniqueID>  (14) 
14

>  <SMILES>  (14) 
CCN(C)CCOCCNc1c2ccccc2[n+](C)c2c1oc1ccc(OCC[N+]3(C)CCCCC3)cc12

>  <Energy>  (14) 
163.1127507154698

>  <Genealogy>  (14) 
CCN(C)CCOCCNc1c2ccccc2[n+](C)c2c1oc1ccc(OCC[N+]3(C)CCCCC3)cc12 (3D coordinates assigned)
CCN(C)CCOCCNc1c2ccccc2[n+](C)c2c1oc1ccc(OCC[N+]3(C)CCCCC3)cc12 (nonaromatic ring conformer: 163.1127507154698 kcal/mol)

>  <smiles>  (14) 
CCN(C)CCOCCNc1c2ccccc2[n+](C)c2c1oc1ccc(OCC[N+]3(C)CCCCC3)cc12

>  <score_type>  (14) 
oracle

>  <origin>  (14) 
adg

>  <m_score__min__energy>  (14) 
-8.8800000000000008

>  <m_primary>  (14) 
energy

$$$$
14:0
     RDKit          3D

 43 45  0  0  0  0  0  0  0  0999 V2000
   -5.7590   25.6900  -30.1600 C   0  0  0  0  0  0  0  0  0  0  0  0
   -5.3200   24.3860  -30.6450 N   0  0  0  0  0  0  0  0  0  0  0  0
   -4.0510   24.0770  -30.8520 N   0  0  0  0  0  0  0  0  0  0  0  0
   -4.0110   22.8050  -31.2980 C   0  0  0  0  0  0  0  0  0  0  0  0
   -2.7890   22.1080  -31.6190 N   0  0  0  0  0  0  0  0  0  0  0  0
   -1.5990   22.2760  -30.7760 C   0  0  0  0  0  0  0  0  0  0  0  0
   -0.6230   21.1100  -30.9740 C   0  0  0  0  0  0  0  0  0  0  0  0
   -0.3790   20.8850  -32.3470 O   0  0  0  0  0  0  0  0  0  0  0  0
   -1.5670   20.4410  -32.9680 C   0  0  0  0  0  0  0  0  0  0  0  0
   -2.6250   21.5480  -32.9670 C   0  0  0  0  0  0  0  0  0  0  0  0
   -5.2970   22.2890  -31.3760 C   0  0  0  0  0  0  0  0  0  0  0  0
   -6.1020   23.3280  -30.9550 C   0  0  0  0  0  0  0  0  0  0  0  0
   -7.6010   23.2650  -30.8100 C   0  0  0  0  0  0  0  0  0  0  0  0
   -8.2640   22.9290  -32.0800 N   0  0  0  0  0  0  0  0  0  0  0  0
   -9.1440   21.7620  -31.9440 C   0  0  0  0  0  0  0  0  0  0  0  0
   -8.3710   20.5080  -32.2420 C   0  0  0  0  0  0  0  0  0  0  0  0
   -8.7180   19.2960  -31.6240 C   0  0  0  0  0  0  0  0  0  0  0  0
   -7.9760   18.1380  -31.8740 C   0  0  0  0  0  0  0  0  0  0  0  0
   -6.8740   18.1850  -32.7350 C   0  0  0  0  0  0  0  0  0  0  0  0
   -5.9420   16.7310  -33.0460 Cl  0  0  0  0  0  0  0  0  0  0  0  0
   -6.5120   19.3920  -33.3410 C   0  0  0  0  0  0  0  0  0  0  0  0
   -7.2530   20.5510  -33.0920 C   0  0  0  0  0  0  0  0  0  0  0  0
   -5.7593   25.6910  -29.0600 H   0  0  0  0  0  0  0  0  0  0  0  0
   -5.0731   26.4677  -30.5272 H   0  0  0  0  0  0  0  0  0  0  0  0
   -6.7755   25.8946  -30.5272 H   0  0  0  0  0  0  0  0  0  0  0  0
   -1.0964   23.2168  -31.0449 H   0  0  0  0  0  0  0  0  0  0  0  0
   -1.9134   22.2978  -29.7221 H   0  0  0  0  0  0  0  0  0  0  0  0
    0.3274   21.3468  -30.4733 H   0  0  0  0  0  0  0  0  0  0  0  0
   -1.0684   20.2015  -30.5425 H   0  0  0  0  0  0  0  0  0  0  0  0
   -1.3459   20.1538  -34.0066 H   0  0  0  0  0  0  0  0  0  0  0  0
   -1.9574   19.5783  -32.4082 H   0  0  0  0  0  0  0  0  0  0  0  0
   -2.3118   22.3475  -33.6545 H   0  0  0  0  0  0  0  0  0  0  0  0
   -3.5850   21.1201  -33.2915 H   0  0  0  0  0  0  0  0  0  0  0  0
   -5.6040   21.2833  -31.6990 H   0  0  0  0  0  0  0  0  0  0  0  0
   -7.8537   22.4975  -30.0636 H   0  0  0  0  0  0  0  0  0  0  0  0
   -7.9539   24.2580  -30.4948 H   0  0  0  0  0  0  0  0  0  0  0  0
   -7.5340   22.7250  -32.8050 H   0  0  0  0  0  0  0  0  0  0  0  0
   -9.5340   21.7158  -30.9165 H   0  0  0  0  0  0  0  0  0  0  0  0
   -9.9805   21.8517  -32.6526 H   0  0  0  0  0  0  0  0  0  0  0  0
   -9.5782   19.2575  -30.9395 H   0  0  0  0  0  0  0  0  0  0  0  0
   -8.2585   17.1896  -31.3937 H   0  0  0  0  0  0  0  0  0  0  0  0
   -5.6431   19.4296  -34.0145 H   0  0  0  0  0  0  0  0  0  0  0  0
   -6.9596   21.5005  -33.5635 H   0  0  0  0  0  0  0  0  0  0  0  0
  1  2  1  0
  2  3  1  0
  3  4  2  0
  4  5  1  0
  5  6  1  0
  6  7  1  0
  7  8  1  0
  8  9  1  0
  9 10  1  0
  4 11  1  0
 11 12  2  0
 12 13  1  0
 13 14  1  0
 14 15  1  0
 15 16  1  0
 16 17  2  0
 17 18  1  0
 18 19  2  0
 19 20  1  0
 19 21  1  0
 21 22  2  0
 12  2  1  0
 22 16  1  0
 10  5  1  0
  1 23  1  0
  1 24  1  0
  1 25  1  0
  6 26  1  0
  6 27  1  0
  7 28  1  0
  7 29  1  0
  9 30  1  0
  9 31  1  0
 10 32  1  0
 10 33  1  0
 11 34  1  0
 13 35  1  0
 13 36  1  0
 14 37  1  0
 15 38  1  0
 15 39  1  0
 17 40  1  0
 18 41  1  0
 21 42  1  0
 22 43  1  0
M  END
>  <UniqueID>  (15) 
15

>  <SMILES>  (15) 
Cn1nc(N2CCOCC2)cc1CNCc1ccc(Cl)cc1

>  <Energy>  (15) 
73.50081453599724

>  <Genealogy>  (15) 
Cn1nc(N2CCOCC2)cc1CNCc1ccc(Cl)cc1 (3D coordinates assigned)
Cn1nc(N2CCOCC2)cc1CNCc1ccc(Cl)cc1 (nonaromatic ring conformer: 73.50081453599724 kcal/mol)

>  <smiles>  (15) 
Cn1nc(N2CCOCC2)cc1CNCc1ccc(Cl)cc1

>  <score_type>  (15) 
oracle

>  <origin>  (15) 
adg

>  <m_score__min__energy>  (15) 
-8.0099999999999998

>  <m_primary>  (15) 
energy

$$$$
15:0
     RDKit          3D

 42 43  0  0  0  0  0  0  0  0999 V2000
   -6.3260   25.6400  -29.6770 C   0  0  0  0  0  0  0  0  0  0  0  0
   -5.3860   25.2780  -30.8340 C   0  0  0  0  0  0  0  0  0  0  0  0
   -3.9940   25.0950  -30.3870 N   0  0  0  0  0  0  0  0  0  0  0  0
   -3.5110   23.7190  -30.5800 C   0  0  0  0  0  0  0  0  0  0  0  0
   -3.6040   22.9340  -29.2710 C   0  0  0  0  0  0  0  0  0  0  0  0
   -4.6010   23.5030  -28.4440 O   0  0  0  0  0  0  0  0  0  0  0  0
   -4.0170   24.2560  -27.4010 C   0  0  0  0  0  0  0  0  0  0  0  0
   -2.5710   23.8080  -27.1910 C   0  0  0  0  0  0  0  0  0  0  0  0
   -1.6000   24.8620  -27.6380 C   0  0  0  0  0  0  0  0  0  0  0  0
   -1.8980   25.6240  -28.5980 O   0  0  0  0  0  0  0  0  0  0  0  0
   -0.3490   25.0310  -26.9570 N   0  0  0  0  0  0  0  0  0  0  0  0
    0.8460   24.4820  -27.6210 C   0  0  0  0  0  0  0  0  0  0  0  0
    2.1440   24.8610  -26.9080 C   0  0  0  0  0  0  0  0  0  0  0  0
    2.0620   24.2420  -25.2060 S   0  0  0  0  0  0  0  0  0  0  0  0
    0.7670   25.4030  -24.7660 C   0  0  0  0  0  0  0  0  0  0  0  0
    0.8400   26.0580  -23.5710 N   0  0  0  0  0  0  0  0  0  0  0  0
   -0.1370   26.9110  -23.1650 C   0  0  0  0  0  0  0  0  0  0  0  0
   -1.2360   27.1600  -23.9850 C   0  0  0  0  0  0  0  0  0  0  0  0
   -1.3170   26.5320  -25.2270 C   0  0  0  0  0  0  0  0  0  0  0  0
   -0.3150   25.6350  -25.6390 C   0  0  0  0  0  0  0  0  0  0  0  0
   -5.8207   25.4454  -28.7195 H   0  0  0  0  0  0  0  0  0  0  0  0
   -6.5929   26.7052  -29.7409 H   0  0  0  0  0  0  0  0  0  0  0  0
   -7.2384   25.0289  -29.7409 H   0  0  0  0  0  0  0  0  0  0  0  0
   -5.7357   24.3422  -31.2943 H   0  0  0  0  0  0  0  0  0  0  0  0
   -5.4019   26.1099  -31.5535 H   0  0  0  0  0  0  0  0  0  0  0  0
   -3.9120   25.3530  -29.3750 H   0  0  0  0  0  0  0  0  0  0  0  0
   -4.1262   23.2227  -31.3450 H   0  0  0  0  0  0  0  0  0  0  0  0
   -2.4601   23.7513  -30.9033 H   0  0  0  0  0  0  0  0  0  0  0  0
   -3.8636   21.8877  -29.4897 H   0  0  0  0  0  0  0  0  0  0  0  0
   -2.6345   22.9733  -28.7528 H   0  0  0  0  0  0  0  0  0  0  0  0
   -4.0344   25.3234  -27.6663 H   0  0  0  0  0  0  0  0  0  0  0  0
   -4.5865   24.0971  -26.4734 H   0  0  0  0  0  0  0  0  0  0  0  0
   -2.4111   23.6046  -26.1219 H   0  0  0  0  0  0  0  0  0  0  0  0
   -2.3989   22.9023  -27.7910 H   0  0  0  0  0  0  0  0  0  0  0  0
    0.7638   23.3853  -27.6428 H   0  0  0  0  0  0  0  0  0  0  0  0
    0.8875   24.9072  -28.6346 H   0  0  0  0  0  0  0  0  0  0  0  0
    3.0001   24.4065  -27.4280 H   0  0  0  0  0  0  0  0  0  0  0  0
    2.2705   25.9537  -26.9076 H   0  0  0  0  0  0  0  0  0  0  0  0
    1.6470   25.8790  -22.9330 H   0  0  0  0  0  0  0  0  0  0  0  0
   -0.0601   27.4065  -22.1859 H   0  0  0  0  0  0  0  0  0  0  0  0
   -2.0313   27.8449  -23.6557 H   0  0  0  0  0  0  0  0  0  0  0  0
   -2.1704   26.7394  -25.8893 H   0  0  0  0  0  0  0  0  0  0  0  0
  1  2  1  0
  2  3  1  0
  3  4  1  0
  4  5  1  0
  5  6  1  0
  6  7  1  0
  7  8  1  0
  8  9  1  0
  9 10  2  0
  9 11  1  0
 11 12  1  0
 12 13  1  0
 13 14  1  0
 14 15  1  0
 15 16  2  0
 16 17  1  0
 17 18  2  0
 18 19  1  0
 19 20  2  0
 20 11  1  0
 20 15  1  0
  1 21  1  0
  1 22  1  0
  1 23  1  0
  2 24  1  0
  2 25  1  0
  3 26  1  0
  4 27  1  0
  4 28  1  0
  5 29  1  0
  5 30  1  0
  7 31  1  0
  7 32  1  0
  8 33  1  0
  8 34  1  0
 12 35  1  0
 12 36  1  0
 13 37  1  0
 13 38  1  0
 16 39  1  0
 17 40  1  0
 18 41  1  0
 19 42  1  0
M  CHG  1  16   1
M  END
>  <UniqueID>  (16) 
16

>  <SMILES>  (16) 
CCNCCOCCC(=O)N1CCSc2[nH+]cccc21

>  <Energy>  (16) 
49.48073871146738

>  <Genealogy>  (16) 
CCNCCOCCC(=O)N1CCSc2[nH+]cccc21 (protonated)
CCNCCOCCC(=O)N1CCSc2[nH+]cccc21 (3D coordinates assigned)
CCNCCOCCC(=O)N1CCSc2[nH+]cccc21 (nonaromatic ring conformer: 49.48073871146738 kcal/mol)

>  <smiles>  (16) 
CCNCCOCCC(=O)N1CCSc2ncccc21

>  <score_type>  (16) 
oracle

>  <origin>  (16) 
adg

>  <m_score__min__energy>  (16) 
-7.2199999999999998

>  <m_primary>  (16) 
energy

$$$$
16:0
     RDKit          3D

 62 64  0  0  0  0  0  0  0  0999 V2000
   -3.1900   21.6630  -27.8450 C   0  0  0  0  0  0  0  0  0  0  0  0
   -3.3290   21.5610  -29.3630 C   0  0  0  0  0  0  0  0  0  0  0  0
   -2.6760   22.7170  -30.0180 N   0  0  0  0  0  0  0  0  0  0  0  0
   -1.2390   22.4500  -30.2600 C   0  0  0  0  0  0  0  0  0  0  0  0
   -0.9760   20.9470  -30.2870 C   0  0  0  0  0  0  0  0  0  0  0  0
   -2.8630   23.9570  -29.2290 C   0  0  0  0  0  0  0  0  0  0  0  0
   -4.2610   24.5310  -29.4630 C   0  0  0  0  0  0  0  0  0  0  0  0
   -4.3870   24.9010  -30.8210 O   0  0  0  0  0  0  0  0  0  0  0  0
   -5.7470   24.9270  -31.2090 C   0  0  0  0  0  0  0  0  0  0  0  0
   -6.0610   23.7370  -32.1180 C   0  0  0  0  0  0  0  0  0  0  0  0
   -5.1490   22.6280  -31.8430 N   0  0  0  0  0  0  0  0  0  0  0  0
   -5.3610   21.3220  -32.4090 C   0  0  0  0  0  0  0  0  0  0  0  0
   -6.6210   20.7010  -32.3080 C   0  0  0  0  0  0  0  0  0  0  0  0
   -7.7070   21.3610  -31.6910 C   0  0  0  0  0  0  0  0  0  0  0  0
   -8.9350   20.7210  -31.5370 C   0  0  0  0  0  0  0  0  0  0  0  0
   -9.1010   19.4170  -31.9880 C   0  0  0  0  0  0  0  0  0  0  0  0
   -8.0540   18.7600  -32.6330 C   0  0  0  0  0  0  0  0  0  0  0  0
   -6.8070   19.4020  -32.8490 C   0  0  0  0  0  0  0  0  0  0  0  0
   -5.7870   18.7930  -33.5570 N   0  0  0  0  0  0  0  0  0  0  0  0
   -6.0720   17.5850  -34.3660 C   0  0  0  0  0  0  0  0  0  0  0  0
   -4.5140   19.3330  -33.5440 C   0  0  0  0  0  0  0  0  0  0  0  0
   -3.3970   18.6110  -34.0280 C   0  0  0  0  0  0  0  0  0  0  0  0
   -2.1150   19.1800  -34.0760 C   0  0  0  0  0  0  0  0  0  0  0  0
   -0.9620   18.3670  -34.6080 C   0  0  0  0  0  0  0  0  0  0  0  0
   -1.9250   20.4990  -33.6210 C   0  0  0  0  0  0  0  0  0  0  0  0
   -0.5660   21.1510  -33.6640 C   0  0  0  0  0  0  0  0  0  0  0  0
   -3.0090   21.2030  -33.0830 C   0  0  0  0  0  0  0  0  0  0  0  0
   -4.2950   20.6310  -33.0160 C   0  0  0  0  0  0  0  0  0  0  0  0
   -3.9874   21.0778  -27.3636 H   0  0  0  0  0  0  0  0  0  0  0  0
   -2.2099   21.2682  -27.5392 H   0  0  0  0  0  0  0  0  0  0  0  0
   -3.2726   22.7164  -27.5392 H   0  0  0  0  0  0  0  0  0  0  0  0
   -2.8534   20.6315  -29.7092 H   0  0  0  0  0  0  0  0  0  0  0  0
   -4.3974   21.5581  -29.6249 H   0  0  0  0  0  0  0  0  0  0  0  0
   -0.9466   22.8868  -31.2263 H   0  0  0  0  0  0  0  0  0  0  0  0
   -0.6498   22.9015  -29.4482 H   0  0  0  0  0  0  0  0  0  0  0  0
   -0.9096   20.5678  -29.2566 H   0  0  0  0  0  0  0  0  0  0  0  0
   -1.7991   20.4401  -30.8120 H   0  0  0  0  0  0  0  0  0  0  0  0
   -0.0297   20.7497  -30.8120 H   0  0  0  0  0  0  0  0  0  0  0  0
   -2.7390   23.7288  -28.1601 H   0  0  0  0  0  0  0  0  0  0  0  0
   -2.1148   24.6984  -29.5461 H   0  0  0  0  0  0  0  0  0  0  0  0
   -5.0173   23.7712  -29.2164 H   0  0  0  0  0  0  0  0  0  0  0  0
   -4.4117   25.4128  -28.8229 H   0  0  0  0  0  0  0  0  0  0  0  0
   -6.3816   24.8762  -30.3120 H   0  0  0  0  0  0  0  0  0  0  0  0
   -5.9455   25.8595  -31.7577 H   0  0  0  0  0  0  0  0  0  0  0  0
   -7.0953   23.4080  -31.9393 H   0  0  0  0  0  0  0  0  0  0  0  0
   -5.9376   24.0476  -33.1660 H   0  0  0  0  0  0  0  0  0  0  0  0
   -4.4770   22.7270  -31.0500 H   0  0  0  0  0  0  0  0  0  0  0  0
   -7.5817   22.3918  -31.3281 H   0  0  0  0  0  0  0  0  0  0  0  0
   -9.7734   21.2481  -31.0583 H   0  0  0  0  0  0  0  0  0  0  0  0
  -10.0609   18.9019  -31.8357 H   0  0  0  0  0  0  0  0  0  0  0  0
   -8.1970   17.7262  -32.9804 H   0  0  0  0  0  0  0  0  0  0  0  0
   -6.2726   16.7349  -33.6974 H   0  0  0  0  0  0  0  0  0  0  0  0
   -6.9517   17.7679  -35.0006 H   0  0  0  0  0  0  0  0  0  0  0  0
   -5.2034   17.3554  -35.0006 H   0  0  0  0  0  0  0  0  0  0  0  0
   -3.5374   17.5769  -34.3756 H   0  0  0  0  0  0  0  0  0  0  0  0
   -0.3826   17.9584  -33.7670 H   0  0  0  0  0  0  0  0  0  0  0  0
   -1.3487   17.5407  -35.2226 H   0  0  0  0  0  0  0  0  0  0  0  0
   -0.3136   19.0087  -35.2226 H   0  0  0  0  0  0  0  0  0  0  0  0
   -0.2089   21.3223  -32.6378 H   0  0  0  0  0  0  0  0  0  0  0  0
    0.1396   20.4934  -34.1928 H   0  0  0  0  0  0  0  0  0  0  0  0
   -0.6374   22.1129  -34.1928 H   0  0  0  0  0  0  0  0  0  0  0  0
   -2.8535   22.2241  -32.7047 H   0  0  0  0  0  0  0  0  0  0  0  0
  1  2  1  0
  2  3  1  0
  3  4  1  0
  4  5  1  0
  3  6  1  0
  6  7  1  0
  7  8  1  0
  8  9  1  0
  9 10  1  0
 10 11  1  0
 11 12  1  0
 12 13  2  0
 13 14  1  0
 14 15  2  0
 15 16  1  0
 16 17  2  0
 17 18  1  0
 18 19  2  0
 19 20  1  0
 19 21  1  0
 21 22  2  0
 22 23  1  0
 23 24  1  0
 23 25  2  0
 25 26  1  0
 25 27  1  0
 27 28  2  0
 28 12  1  0
 18 13  1  0
 28 21  1  0
  1 29  1  0
  1 30  1  0
  1 31  1  0
  2 32  1  0
  2 33  1  0
  4 34  1  0
  4 35  1  0
  5 36  1  0
  5 37  1  0
  5 38  1  0
  6 39  1  0
  6 40  1  0
  7 41  1  0
  7 42  1  0
  9 43  1  0
  9 44  1  0
 10 45  1  0
 10 46  1  0
 11 47  1  0
 14 48  1  0
 15 49  1  0
 16 50  1  0
 17 51  1  0
 20 52  1  0
 20 53  1  0
 20 54  1  0
 22 55  1  0
 24 56  1  0
 24 57  1  0
 24 58  1  0
 26 59  1  0
 26 60  1  0
 26 61  1  0
 27 62  1  0
M  CHG  1  19   1
M  END
>  <UniqueID>  (17) 
17

>  <SMILES>  (17) 
CCN(CC)CCOCCNc1c2ccccc2[n+](C)c2cc(C)c(C)cc12

>  <Energy>  (17) 
86.89632600236635

>  <Genealogy>  (17) 
CCN(CC)CCOCCNc1c2ccccc2[n+](C)c2cc(C)c(C)cc12 (3D coordinates assigned)
CCN(CC)CCOCCNc1c2ccccc2[n+](C)c2cc(C)c(C)cc12 (optimized conformer: 86.89632600236635 kcal/mol)

>  <smiles>  (17) 
CCN(CC)CCOCCNc1c2ccccc2[n+](C)c2cc(C)c(C)cc12

>  <score_type>  (17) 
oracle

>  <origin>  (17) 
adg

>  <m_score__min__energy>  (17) 
-9.0600000000000005

>  <m_primary>  (17) 
energy

$$$$
17:0
     RDKit          3D

 72 76  0  0  0  0  0  0  0  0999 V2000
   -1.4170   17.7490  -33.1490 C   0  0  0  0  0  0  0  0  0  0  0  0
   -0.6000   18.8430  -33.7630 C   0  0  0  0  0  0  0  0  0  0  0  0
   -1.1590   19.9460  -34.3250 N   0  0  0  0  0  0  0  0  0  0  0  0
   -0.0890   20.6480  -34.7440 C   0  0  0  0  0  0  0  0  0  0  0  0
   -0.0820   21.8880  -35.3770 C   0  0  0  0  0  0  0  0  0  0  0  0
    1.1670   22.4500  -35.7080 C   0  0  0  0  0  0  0  0  0  0  0  0
    2.3640   21.7650  -35.3960 C   0  0  0  0  0  0  0  0  0  0  0  0
    2.3240   20.5140  -34.7560 C   0  0  0  0  0  0  0  0  0  0  0  0
    1.0670   19.9850  -34.4470 C   0  0  0  0  0  0  0  0  0  0  0  0
    0.7590   18.8290  -33.8350 N   0  0  0  0  0  0  0  0  0  0  0  0
    1.6800   17.8330  -33.2790 C   0  0  0  0  0  0  0  0  0  0  0  0
    1.7880   18.0040  -31.7530 C   0  0  0  0  0  0  0  0  0  0  0  0
    1.4130   19.3540  -31.2930 N   0  0  0  0  0  0  0  0  0  0  0  0
    0.4940   19.3710  -30.1450 C   0  0  0  0  0  0  0  0  0  0  0  0
   -0.6310   20.3990  -30.3270 C   0  0  0  0  0  0  0  0  0  0  0  0
   -0.4190   21.1490  -31.5730 N   0  0  0  0  0  0  0  0  0  0  0  0
   -1.6250   21.8910  -31.9730 C   0  0  0  0  0  0  0  0  0  0  0  0
   -2.8750   20.9910  -31.9600 C   0  0  0  0  0  0  0  0  0  0  0  0
   -3.6000   20.9840  -33.2490 N   0  0  0  0  0  0  0  0  0  0  0  0
   -5.0100   20.6290  -33.0970 C   0  0  0  0  0  0  0  0  0  0  0  0
   -5.4730   19.3250  -33.4200 C   0  0  0  0  0  0  0  0  0  0  0  0
   -6.7850   18.9280  -33.0340 C   0  0  0  0  0  0  0  0  0  0  0  0
   -7.6680   19.8540  -32.5100 N   0  0  0  0  0  0  0  0  0  0  0  0
   -9.0850   19.4870  -32.2680 C   0  0  0  0  0  0  0  0  0  0  0  0
   -7.2480   21.1370  -32.2150 C   0  0  0  0  0  0  0  0  0  0  0  0
   -8.1050   22.0570  -31.5510 C   0  0  0  0  0  0  0  0  0  0  0  0
   -7.7080   23.3700  -31.3120 C   0  0  0  0  0  0  0  0  0  0  0  0
   -6.4570   23.8050  -31.7230 C   0  0  0  0  0  0  0  0  0  0  0  0
   -5.5770   22.9180  -32.3370 C   0  0  0  0  0  0  0  0  0  0  0  0
   -5.9330   21.5620  -32.5540 C   0  0  0  0  0  0  0  0  0  0  0  0
   -7.2250   17.4780  -33.2280 C   0  0  0  0  0  0  0  0  0  0  0  0
   -6.0800   16.5070  -33.4980 C   0  0  0  0  0  0  0  0  0  0  0  0
   -5.2150   17.0620  -34.6120 C   0  0  0  0  0  0  0  0  0  0  0  0
   -4.5460   18.3510  -34.1450 C   0  0  0  0  0  0  0  0  0  0  0  0
   -1.3626   17.8219  -32.0528 H   0  0  0  0  0  0  0  0  0  0  0  0
   -2.4640   17.8481  -33.4715 H   0  0  0  0  0  0  0  0  0  0  0  0
   -1.0247   16.7733  -33.4715 H   0  0  0  0  0  0  0  0  0  0  0  0
   -1.0206   22.4117  -35.6110 H   0  0  0  0  0  0  0  0  0  0  0  0
    1.2111   23.4268  -36.2118 H   0  0  0  0  0  0  0  0  0  0  0  0
    3.3338   22.2144  -35.6560 H   0  0  0  0  0  0  0  0  0  0  0  0
    3.2478   19.9711  -34.5074 H   0  0  0  0  0  0  0  0  0  0  0  0
    1.3049   16.8242  -33.5062 H   0  0  0  0  0  0  0  0  0  0  0  0
    2.6745   17.9731  -33.7277 H   0  0  0  0  0  0  0  0  0  0  0  0
    1.1224   17.2727  -31.2710 H   0  0  0  0  0  0  0  0  0  0  0  0
    2.8416   17.8458  -31.4795 H   0  0  0  0  0  0  0  0  0  0  0  0
    0.9570   19.8570  -32.0890 H   0  0  0  0  0  0  0  0  0  0  0  0
    0.0478   18.3719  -30.0319 H   0  0  0  0  0  0  0  0  0  0  0  0
    1.0705   19.6516  -29.2512 H   0  0  0  0  0  0  0  0  0  0  0  0
   -1.5986   19.8779  -30.3739 H   0  0  0  0  0  0  0  0  0  0  0  0
   -0.6284   21.0967  -29.4766 H   0  0  0  0  0  0  0  0  0  0  0  0
   -0.2220   20.4490  -32.3270 H   0  0  0  0  0  0  0  0  0  0  0  0
   -1.7789   22.7258  -31.2734 H   0  0  0  0  0  0  0  0  0  0  0  0
   -1.4775   22.2600  -32.9987 H   0  0  0  0  0  0  0  0  0  0  0  0
   -2.5627   19.9619  -31.7287 H   0  0  0  0  0  0  0  0  0  0  0  0
   -3.5611   21.3945  -31.2007 H   0  0  0  0  0  0  0  0  0  0  0  0
   -3.5260   21.9260  -33.6950 H   0  0  0  0  0  0  0  0  0  0  0  0
   -3.0820   20.3630  -33.9060 H   0  0  0  0  0  0  0  0  0  0  0  0
   -9.2714   19.4387  -31.1850 H   0  0  0  0  0  0  0  0  0  0  0  0
   -9.7423   20.2445  -32.7198 H   0  0  0  0  0  0  0  0  0  0  0  0
   -9.2919   18.5056  -32.7198 H   0  0  0  0  0  0  0  0  0  0  0  0
   -9.1002   21.7253  -31.2200 H   0  0  0  0  0  0  0  0  0  0  0  0
   -8.3881   24.0637  -30.7961 H   0  0  0  0  0  0  0  0  0  0  0  0
   -6.1597   24.8520  -31.5637 H   0  0  0  0  0  0  0  0  0  0  0  0
   -4.5878   23.2750  -32.6597 H   0  0  0  0  0  0  0  0  0  0  0  0
   -7.7466   17.1511  -32.3164 H   0  0  0  0  0  0  0  0  0  0  0  0
   -7.8705   17.4604  -34.1185 H   0  0  0  0  0  0  0  0  0  0  0  0
   -5.4757   16.3868  -32.5868 H   0  0  0  0  0  0  0  0  0  0  0  0
   -6.4848   15.5280  -33.7943 H   0  0  0  0  0  0  0  0  0  0  0  0
   -4.4435   16.3247  -34.8786 H   0  0  0  0  0  0  0  0  0  0  0  0
   -5.8416   17.2728  -35.4912 H   0  0  0  0  0  0  0  0  0  0  0  0
   -3.7272   18.0836  -33.4608 H   0  0  0  0  0  0  0  0  0  0  0  0
   -4.2005   18.8680  -35.0524 H   0  0  0  0  0  0  0  0  0  0  0  0
  1  2  1  0
  2  3  2  0
  3  4  1  0
  4  5  2  0
  5  6  1  0
  6  7  2  0
  7  8  1  0
  8  9  2  0
  9 10  1  0
 10 11  1  0
 11 12  1  0
 12 13  1  0
 13 14  1  0
 14 15  1  0
 15 16  1  0
 16 17  1  0
 17 18  1  0
 18 19  1  0
 19 20  1  0
 20 21  2  0
 21 22  1  0
 22 23  2  0
 23 24  1  0
 23 25  1  0
 25 26  2  0
 26 27  1  0
 27 28  2  0
 28 29  1  0
 29 30  2  0
 22 31  1  0
 31 32  1  0
 32 33  1  0
 33 34  1  0
 10  2  1  0
 30 20  1  0
  9  4  1  0
 34 21  1  0
 30 25  1  0
  1 35  1  0
  1 36  1  0
  1 37  1  0
  5 38  1  0
  6 39  1  0
  7 40  1  0
  8 41  1  0
 11 42  1  0
 11 43  1  0
 12 44  1  0
 12 45  1  0
 13 46  1  0
 14 47  1  0
 14 48  1  0
 15 49  1  0
 15 50  1  0
 16 51  1  0
 17 52  1  0
 17 53  1  0
 18 54  1  0
 18 55  1  0
 19 56  1  0
 19 57  1  0
 24 58  1  0
 24 59  1  0
 24 60  1  0
 26 61  1  0
 27 62  1  0
 28 63  1  0
 29 64  1  0
 31 65  1  0
 31 66  1  0
 32 67  1  0
 32 68  1  0
 33 69  1  0
 33 70  1  0
 34 71  1  0
 34 72  1  0
M  CHG  2  19   1  23   1
M  END
>  <UniqueID>  (18) 
18

>  <SMILES>  (18) 
Cc1nc2ccccc2n1CCNCCNCC[NH2+]c1c2c([n+](C)c3ccccc13)CCCC2

>  <Energy>  (18) 
133.51813582219242

>  <Genealogy>  (18) 
Cc1nc2ccccc2n1CCNCCNCC[NH2+]c1c2c([n+](C)c3ccccc13)CCCC2 (protonated)
Cc1nc2ccccc2n1CCNCCNCC[NH2+]c1c2c([n+](C)c3ccccc13)CCCC2 (3D coordinates assigned)
Cc1nc2ccccc2n1CCNCCNCC[NH2+]c1c2c([n+](C)c3ccccc13)CCCC2 (nonaromatic ring conformer: 133.51813582219242 kcal/mol)

>  <smiles>  (18) 
Cc1nc2ccccc2n1CCNCCNCCNc1c2c([n+](C)c3ccccc13)CCCC2

>  <score_type>  (18) 
oracle

>  <origin>  (18) 
adg

>  <m_score__min__energy>  (18) 
-10.25

>  <m_primary>  (18) 
energy

$$$$
18:0
     RDKit          3D

 56 58  0  0  0  0  0  0  0  0999 V2000
    0.2200   19.3160  -30.7100 C   0  0  0  0  0  0  0  0  0  0  0  0
    0.2520   20.4670  -31.7310 C   0  0  0  0  0  0  0  0  0  0  0  0
   -1.0460   21.1670  -31.9530 N   0  0  0  0  0  0  0  0  0  0  0  0
   -1.4060   21.3090  -33.3890 C   0  0  0  0  0  0  0  0  0  0  0  0
   -1.2730   19.9990  -34.1780 C   0  0  0  0  0  0  0  0  0  0  0  0
   -2.1410   20.6530  -31.0840 C   0  0  0  0  0  0  0  0  0  0  0  0
   -2.9010   21.7250  -30.2820 C   0  0  0  0  0  0  0  0  0  0  0  0
   -2.3910   23.0110  -30.5920 O   0  0  0  0  0  0  0  0  0  0  0  0
   -2.2580   23.7950  -29.4240 C   0  0  0  0  0  0  0  0  0  0  0  0
   -3.5340   24.6110  -29.2260 C   0  0  0  0  0  0  0  0  0  0  0  0
   -3.9150   25.2970  -30.4720 N   0  0  0  0  0  0  0  0  0  0  0  0
   -5.3720   25.3410  -30.6860 C   0  0  0  0  0  0  0  0  0  0  0  0
   -5.9160   24.0210  -31.1730 C   0  0  0  0  0  0  0  0  0  0  0  0
   -7.2450   23.6530  -30.9150 C   0  0  0  0  0  0  0  0  0  0  0  0
   -7.7210   22.4200  -31.3670 C   0  0  0  0  0  0  0  0  0  0  0  0
   -6.8710   21.5620  -32.0730 C   0  0  0  0  0  0  0  0  0  0  0  0
   -7.3190   20.3190  -32.5460 C   0  0  0  0  0  0  0  0  0  0  0  0
   -6.4450   19.4900  -33.2570 C   0  0  0  0  0  0  0  0  0  0  0  0
   -5.1170   19.8810  -33.4700 C   0  0  0  0  0  0  0  0  0  0  0  0
   -4.6650   21.1230  -33.0130 C   0  0  0  0  0  0  0  0  0  0  0  0
   -5.5370   21.9650  -32.3140 C   0  0  0  0  0  0  0  0  0  0  0  0
   -5.1020   23.1720  -31.8600 N   0  0  0  0  0  0  0  0  0  0  0  0
   -4.2530   19.0140  -34.1470 O   0  0  0  0  0  0  0  0  0  0  0  0
   -4.6120   17.6510  -34.3840 C   0  0  0  0  0  0  0  0  0  0  0  0
   -6.1020   17.5440  -34.7240 C   0  0  0  0  0  0  0  0  0  0  0  0
   -6.8820   18.2640  -33.7680 O   0  0  0  0  0  0  0  0  0  0  0  0
    0.2315   19.7296  -29.6908 H   0  0  0  0  0  0  0  0  0  0  0  0
   -0.6950   18.7228  -30.8547 H   0  0  0  0  0  0  0  0  0  0  0  0
    1.1006   18.6729  -30.8547 H   0  0  0  0  0  0  0  0  0  0  0  0
    0.9821   21.2110  -31.3797 H   0  0  0  0  0  0  0  0  0  0  0  0
    0.5149   20.0072  -32.6951 H   0  0  0  0  0  0  0  0  0  0  0  0
   -0.8810   22.1450  -31.6100 H   0  0  0  0  0  0  0  0  0  0  0  0
   -2.4487   21.6530  -33.4557 H   0  0  0  0  0  0  0  0  0  0  0  0
   -0.7038   22.0304  -33.8323 H   0  0  0  0  0  0  0  0  0  0  0  0
   -1.1874   19.1558  -33.4769 H   0  0  0  0  0  0  0  0  0  0  0  0
   -2.1617   19.8605  -34.8113 H   0  0  0  0  0  0  0  0  0  0  0  0
   -0.3746   20.0420  -34.8113 H   0  0  0  0  0  0  0  0  0  0  0  0
   -2.8662   20.1297  -31.7245 H   0  0  0  0  0  0  0  0  0  0  0  0
   -1.6593   20.0008  -30.3406 H   0  0  0  0  0  0  0  0  0  0  0  0
   -3.9695   21.6844  -30.5401 H   0  0  0  0  0  0  0  0  0  0  0  0
   -2.7708   21.5332  -29.2067 H   0  0  0  0  0  0  0  0  0  0  0  0
   -2.1010   23.1389  -28.5551 H   0  0  0  0  0  0  0  0  0  0  0  0
   -1.3962   24.4709  -29.5258 H   0  0  0  0  0  0  0  0  0  0  0  0
   -4.3489   23.9378  -28.9214 H   0  0  0  0  0  0  0  0  0  0  0  0
   -3.3514   25.3677  -28.4487 H   0  0  0  0  0  0  0  0  0  0  0  0
   -3.4690   24.8040  -31.2800 H   0  0  0  0  0  0  0  0  0  0  0  0
   -5.8622   25.5972  -29.7352 H   0  0  0  0  0  0  0  0  0  0  0  0
   -5.5774   26.0968  -31.4584 H   0  0  0  0  0  0  0  0  0  0  0  0
   -7.9088   24.3319  -30.3596 H   0  0  0  0  0  0  0  0  0  0  0  0
   -8.7617   22.1244  -31.1683 H   0  0  0  0  0  0  0  0  0  0  0  0
   -8.3541   19.9977  -32.3582 H   0  0  0  0  0  0  0  0  0  0  0  0
   -3.6279   21.4368  -33.2023 H   0  0  0  0  0  0  0  0  0  0  0  0
   -4.0193   17.2607  -35.2244 H   0  0  0  0  0  0  0  0  0  0  0  0
   -4.4098   17.0650  -33.4753 H   0  0  0  0  0  0  0  0  0  0  0  0
   -6.2767   17.9644  -35.7253 H   0  0  0  0  0  0  0  0  0  0  0  0
   -6.3985   16.4849  -34.7028 H   0  0  0  0  0  0  0  0  0  0  0  0
  1  2  1  0
  2  3  1  0
  3  4  1  0
  4  5  1  0
  3  6  1  0
  6  7  1  0
  7  8  1  0
  8  9  1  0
  9 10  1  0
 10 11  1  0
 11 12  1  0
 12 13  1  0
 13 14  2  0
 14 15  1  0
 15 16  2  0
 16 17  1  0
 17 18  2  0
 18 19  1  0
 19 20  2  0
 20 21  1  0
 21 22  2  0
 19 23  1  0
 23 24  1  0
 24 25  1  0
 25 26  1  0
 22 13  1  0
 21 16  1  0
 26 18  1  0
  1 27  1  0
  1 28  1  0
  1 29  1  0
  2 30  1  0
  2 31  1  0
  3 32  1  0
  4 33  1  0
  4 34  1  0
  5 35  1  0
  5 36  1  0
  5 37  1  0
  6 38  1  0
  6 39  1  0
  7 40  1  0
  7 41  1  0
  9 42  1  0
  9 43  1  0
 10 44  1  0
 10 45  1  0
 11 46  1  0
 12 47  1  0
 12 48  1  0
 14 49  1  0
 15 50  1  0
 17 51  1  0
 20 52  1  0
 24 53  1  0
 24 54  1  0
 25 55  1  0
 25 56  1  0
M  CHG  1   3   1
M  END
>  <UniqueID>  (19) 
19

>  <SMILES>  (19) 
CC[NH+](CC)CCOCCNCc1ccc2cc3c(cc2n1)OCCO3

>  <Energy>  (19) 
68.69822409556795

>  <Genealogy>  (19) 
CC[NH+](CC)CCOCCNCc1ccc2cc3c(cc2n1)OCCO3 (protonated)
CC[NH+](CC)CCOCCNCc1ccc2cc3c(cc2n1)OCCO3 (3D coordinates assigned)
CC[NH+](CC)CCOCCNCc1ccc2cc3c(cc2n1)OCCO3 (nonaromatic ring conformer: 68.69822409556795 kcal/mol)

>  <smiles>  (19) 
CCN(CC)CCOCCNCc1ccc2cc3c(cc2n1)OCCO3

>  <score_type>  (19) 
oracle

>  <origin>  (19) 
adg

>  <m_score__min__energy>  (19) 
-8.4900000000000002

>  <m_primary>  (19) 
energy

$$$$
19:0
     RDKit          3D

 71 74  0  0  0  0  0  0  0  0999 V2000
   -6.1310   25.1750  -29.7620 C   0  0  0  0  0  0  0  0  0  0  0  0
   -5.0290   25.2850  -30.8260 C   0  0  0  0  0  0  0  0  0  0  0  0
   -3.9180   24.3180  -30.6700 N   0  0  0  0  0  0  0  0  0  0  0  0
   -3.0580   24.5110  -29.4920 C   0  0  0  0  0  0  0  0  0  0  0  0
   -4.2500   22.9070  -30.9620 C   0  0  0  0  0  0  0  0  0  0  0  0
   -3.4360   22.2900  -32.1080 C   0  0  0  0  0  0  0  0  0  0  0  0
   -4.2670   21.9650  -33.2870 N   0  0  0  0  0  0  0  0  0  0  0  0
   -5.3190   20.9920  -33.0030 C   0  0  0  0  0  0  0  0  0  0  0  0
   -6.5940   21.4530  -32.5490 C   0  0  0  0  0  0  0  0  0  0  0  0
   -6.8820   22.8350  -32.3870 C   0  0  0  0  0  0  0  0  0  0  0  0
   -8.1160   23.2690  -31.9140 C   0  0  0  0  0  0  0  0  0  0  0  0
   -9.1090   22.3520  -31.6180 C   0  0  0  0  0  0  0  0  0  0  0  0
   -8.8780   20.9930  -31.8020 C   0  0  0  0  0  0  0  0  0  0  0  0
   -7.6250   20.5140  -32.2650 C   0  0  0  0  0  0  0  0  0  0  0  0
   -7.4220   19.1740  -32.4990 N   0  0  0  0  0  0  0  0  0  0  0  0
   -8.3850   18.1740  -31.9850 C   0  0  0  0  0  0  0  0  0  0  0  0
   -6.3250   18.7610  -33.2170 C   0  0  0  0  0  0  0  0  0  0  0  0
   -6.3360   17.5150  -33.8840 C   0  0  0  0  0  0  0  0  0  0  0  0
   -5.2320   17.0730  -34.5930 C   0  0  0  0  0  0  0  0  0  0  0  0
   -4.0540   17.7980  -34.5590 C   0  0  0  0  0  0  0  0  0  0  0  0
   -3.9710   19.0030  -33.8400 C   0  0  0  0  0  0  0  0  0  0  0  0
   -2.7100   19.5620  -33.5600 O   0  0  0  0  0  0  0  0  0  0  0  0
   -1.5980   18.8950  -32.9540 C   0  0  0  0  0  0  0  0  0  0  0  0
   -0.3160   19.7690  -32.8160 C   0  0  0  0  0  0  0  0  0  0  0  0
    0.3220   20.2620  -34.0820 N   0  0  0  0  0  0  0  0  0  0  0  0
    0.2400   19.2000  -35.1200 C   0  0  0  0  0  0  0  0  0  0  0  0
   -0.4620   21.4530  -34.5370 C   0  0  0  0  0  0  0  0  0  0  0  0
    0.2500   22.2610  -35.6400 C   0  0  0  0  0  0  0  0  0  0  0  0
    1.5420   22.6500  -35.2260 O   0  0  0  0  0  0  0  0  0  0  0  0
    2.3210   21.4970  -34.9920 C   0  0  0  0  0  0  0  0  0  0  0  0
    1.7360   20.6670  -33.8380 C   0  0  0  0  0  0  0  0  0  0  0  0
   -5.1760   19.5990  -33.3330 C   0  0  0  0  0  0  0  0  0  0  0  0
   -5.6791   25.2201  -28.7601 H   0  0  0  0  0  0  0  0  0  0  0  0
   -6.8408   26.0068  -29.8819 H   0  0  0  0  0  0  0  0  0  0  0  0
   -6.6624   24.2193  -29.8819 H   0  0  0  0  0  0  0  0  0  0  0  0
   -5.4880   25.1230  -31.8124 H   0  0  0  0  0  0  0  0  0  0  0  0
   -4.5872   26.2860  -30.7128 H   0  0  0  0  0  0  0  0  0  0  0  0
   -3.6539   24.3773  -28.5771 H   0  0  0  0  0  0  0  0  0  0  0  0
   -2.2419   23.7737  -29.5091 H   0  0  0  0  0  0  0  0  0  0  0  0
   -2.6352   25.5264  -29.5091 H   0  0  0  0  0  0  0  0  0  0  0  0
   -4.0681   22.3151  -30.0528 H   0  0  0  0  0  0  0  0  0  0  0  0
   -5.3030   22.8907  -31.2796 H   0  0  0  0  0  0  0  0  0  0  0  0
   -2.6580   23.0056  -32.4122 H   0  0  0  0  0  0  0  0  0  0  0  0
   -3.0012   21.3496  -31.7383 H   0  0  0  0  0  0  0  0  0  0  0  0
   -4.7080   22.8430  -33.6390 H   0  0  0  0  0  0  0  0  0  0  0  0
   -3.6610   21.7050  -34.0890 H   0  0  0  0  0  0  0  0  0  0  0  0
   -6.1119   23.5782  -32.6413 H   0  0  0  0  0  0  0  0  0  0  0  0
   -8.3029   24.3440  -31.7749 H   0  0  0  0  0  0  0  0  0  0  0  0
  -10.0812   22.6979  -31.2371 H   0  0  0  0  0  0  0  0  0  0  0  0
   -9.6825   20.2751  -31.5843 H   0  0  0  0  0  0  0  0  0  0  0  0
   -8.3737   18.1857  -30.8851 H   0  0  0  0  0  0  0  0  0  0  0  0
   -9.3953   18.4196  -32.3440 H   0  0  0  0  0  0  0  0  0  0  0  0
   -8.1015   17.1736  -32.3440 H   0  0  0  0  0  0  0  0  0  0  0  0
   -7.2371   16.8857  -33.8391 H   0  0  0  0  0  0  0  0  0  0  0  0
   -5.2913   16.1464  -35.1828 H   0  0  0  0  0  0  0  0  0  0  0  0
   -3.1718   17.4269  -35.1012 H   0  0  0  0  0  0  0  0  0  0  0  0
   -1.9004   18.5678  -31.9483 H   0  0  0  0  0  0  0  0  0  0  0  0
   -1.3357   18.0585  -33.6184 H   0  0  0  0  0  0  0  0  0  0  0  0
   -0.5809   20.6511  -32.2145 H   0  0  0  0  0  0  0  0  0  0  0  0
    0.4328   19.1017  -32.3644 H   0  0  0  0  0  0  0  0  0  0  0  0
    0.1641   18.2165  -34.6332 H   0  0  0  0  0  0  0  0  0  0  0  0
   -0.6478   19.3681  -35.7473 H   0  0  0  0  0  0  0  0  0  0  0  0
    1.1431   19.2299  -35.7473 H   0  0  0  0  0  0  0  0  0  0  0  0
   -1.4304   21.1064  -34.9269 H   0  0  0  0  0  0  0  0  0  0  0  0
   -0.5814   22.1179  -33.6689 H   0  0  0  0  0  0  0  0  0  0  0  0
    0.3334   21.6401  -36.5441 H   0  0  0  0  0  0  0  0  0  0  0  0
   -0.3394   23.1662  -35.8481 H   0  0  0  0  0  0  0  0  0  0  0  0
    2.3393   20.8830  -35.9045 H   0  0  0  0  0  0  0  0  0  0  0  0
    3.3399   21.8096  -34.7199 H   0  0  0  0  0  0  0  0  0  0  0  0
    2.3455   19.7600  -33.7122 H   0  0  0  0  0  0  0  0  0  0  0  0
    1.7515   21.2949  -32.9349 H   0  0  0  0  0  0  0  0  0  0  0  0
  1  2  1  0
  2  3  1  0
  3  4  1  0
  3  5  1  0
  5  6  1  0
  6  7  1  0
  7  8  1  0
  8  9  2  0
  9 10  1  0
 10 11  2  0
 11 12  1  0
 12 13  2  0
 13 14  1  0
 14 15  2  0
 15 16  1  0
 15 17  1  0
 17 18  2  0
 18 19  1  0
 19 20  2  0
 20 21  1  0
 21 22  1  0
 22 23  1  0
 23 24  1  0
 24 25  1  0
 25 26  1  0
 25 27  1  0
 27 28  1  0
 28 29  1  0
 29 30  1  0
 30 31  1  0
 21 32  2  0
 32  8  1  0
 14  9  1  0
 32 17  1  0
 31 25  1  0
  1 33  1  0
  1 34  1  0
  1 35  1  0
  2 36  1  0
  2 37  1  0
  4 38  1  0
  4 39  1  0
  4 40  1  0
  5 41  1  0
  5 42  1  0
  6 43  1  0
  6 44  1  0
  7 45  1  0
  7 46  1  0
 10 47  1  0
 11 48  1  0
 12 49  1  0
 13 50  1  0
 16 51  1  0
 16 52  1  0
 16 53  1  0
 18 54  1  0
 19 55  1  0
 20 56  1  0
 23 57  1  0
 23 58  1  0
 24 59  1  0
 24 60  1  0
 26 61  1  0
 26 62  1  0
 26 63  1  0
 27 64  1  0
 27 65  1  0
 28 66  1  0
 28 67  1  0
 30 68  1  0
 30 69  1  0
 31 70  1  0
 31 71  1  0
M  CHG  3   7   1  15   1  25   1
M  END
>  <UniqueID>  (20) 
20

>  <SMILES>  (20) 
CCN(C)CC[NH2+]c1c2ccccc2[n+](C)c2cccc(OCC[N+]3(C)CCOCC3)c12

>  <Energy>  (20) 
135.19569211833647

>  <Genealogy>  (20) 
CCN(C)CC[NH2+]c1c2ccccc2[n+](C)c2cccc(OCC[N+]3(C)CCOCC3)c12 (protonated)
CCN(C)CC[NH2+]c1c2ccccc2[n+](C)c2cccc(OCC[N+]3(C)CCOCC3)c12 (3D coordinates assigned)
CCN(C)CC[NH2+]c1c2ccccc2[n+](C)c2cccc(OCC[N+]3(C)CCOCC3)c12 (nonaromatic ring conformer: 135.19569211833647 kcal/mol)

>  <smiles>  (20) 
CCN(C)CCNc1c2ccccc2[n+](C)c2cccc(OCC[N+]3(C)CCOCC3)c12

>  <score_type>  (20) 
oracle

>  <origin>  (20) 
adg

>  <m_score__min__energy>  (20) 
-8.6899999999999995

>  <m_primary>  (20) 
energy

$$$$
20:0
     RDKit          3D

 57 60  0  0  0  0  0  0  0  0999 V2000
   -4.2240   24.9110  -26.3400 C   0  0  0  0  0  0  0  0  0  0  0  0
   -2.7550   24.9770  -26.7420 C   0  0  0  0  0  0  0  0  0  0  0  0
   -2.4490   23.9740  -27.7800 N   0  0  0  0  0  0  0  0  0  0  0  0
   -2.2760   24.4700  -29.1590 C   0  0  0  0  0  0  0  0  0  0  0  0
   -3.4830   24.1100  -30.0260 C   0  0  0  0  0  0  0  0  0  0  0  0
   -3.9320   25.2660  -30.7020 O   0  0  0  0  0  0  0  0  0  0  0  0
   -5.3430   25.2990  -30.6960 C   0  0  0  0  0  0  0  0  0  0  0  0
   -5.8720   23.8670  -30.7350 C   0  0  0  0  0  0  0  0  0  0  0  0
   -5.9270   23.3670  -32.1080 N   0  0  0  0  0  0  0  0  0  0  0  0
   -5.9820   21.9590  -32.3680 C   0  0  0  0  0  0  0  0  0  0  0  0
   -4.8270   21.2250  -32.7090 C   0  0  0  0  0  0  0  0  0  0  0  0
   -3.5690   21.8560  -32.7640 C   0  0  0  0  0  0  0  0  0  0  0  0
   -2.4190   21.1220  -33.0470 C   0  0  0  0  0  0  0  0  0  0  0  0
   -2.5020   19.7500  -33.2650 C   0  0  0  0  0  0  0  0  0  0  0  0
   -3.7360   19.1000  -33.2190 C   0  0  0  0  0  0  0  0  0  0  0  0
   -4.9310   19.8190  -32.9640 C   0  0  0  0  0  0  0  0  0  0  0  0
   -6.1700   19.1910  -32.9380 N   0  0  0  0  0  0  0  0  0  0  0  0
   -6.3090   17.7740  -33.3310 C   0  0  0  0  0  0  0  0  0  0  0  0
   -7.2720   19.9100  -32.5320 C   0  0  0  0  0  0  0  0  0  0  0  0
   -8.5780   19.4090  -32.3330 C   0  0  0  0  0  0  0  0  0  0  0  0
   -9.4910   20.3880  -31.9520 C   0  0  0  0  0  0  0  0  0  0  0  0
   -8.6940   21.8660  -31.8420 S   0  0  0  0  0  0  0  0  0  0  0  0
   -7.1820   21.2670  -32.2670 C   0  0  0  0  0  0  0  0  0  0  0  0
   -2.3140   22.5520  -27.4530 C   0  0  0  0  0  0  0  0  0  0  0  0
   -3.2330   21.5930  -27.9450 C   0  0  0  0  0  0  0  0  0  0  0  0
   -3.1060   20.2380  -27.6220 C   0  0  0  0  0  0  0  0  0  0  0  0
   -2.0620   19.8050  -26.8090 C   0  0  0  0  0  0  0  0  0  0  0  0
   -1.1410   20.7260  -26.3140 C   0  0  0  0  0  0  0  0  0  0  0  0
   -1.2610   22.0830  -26.6280 C   0  0  0  0  0  0  0  0  0  0  0  0
   -4.3041   24.9074  -25.2429 H   0  0  0  0  0  0  0  0  0  0  0  0
   -4.7542   25.7862  -26.7435 H   0  0  0  0  0  0  0  0  0  0  0  0
   -4.6736   23.9917  -26.7435 H   0  0  0  0  0  0  0  0  0  0  0  0
   -2.5334   25.9806  -27.1341 H   0  0  0  0  0  0  0  0  0  0  0  0
   -2.1378   24.7664  -25.8562 H   0  0  0  0  0  0  0  0  0  0  0  0
   -2.1628   25.5639  -29.1363 H   0  0  0  0  0  0  0  0  0  0  0  0
   -1.3809   23.9989  -29.5913 H   0  0  0  0  0  0  0  0  0  0  0  0
   -3.1929   23.3440  -30.7603 H   0  0  0  0  0  0  0  0  0  0  0  0
   -4.2902   23.7174  -29.3901 H   0  0  0  0  0  0  0  0  0  0  0  0
   -5.6967   25.7984  -29.7820 H   0  0  0  0  0  0  0  0  0  0  0  0
   -5.7063   25.8543  -31.5733 H   0  0  0  0  0  0  0  0  0  0  0  0
   -5.2066   23.2213  -30.1432 H   0  0  0  0  0  0  0  0  0  0  0  0
   -6.8894   23.8573  -30.3170 H   0  0  0  0  0  0  0  0  0  0  0  0
   -5.7100   24.0060  -32.9080 H   0  0  0  0  0  0  0  0  0  0  0  0
   -3.4937   22.9382  -32.5819 H   0  0  0  0  0  0  0  0  0  0  0  0
   -1.4436   21.6279  -33.0982 H   0  0  0  0  0  0  0  0  0  0  0  0
   -1.5887   19.1740  -33.4750 H   0  0  0  0  0  0  0  0  0  0  0  0
   -3.7822   18.0133  -33.3831 H   0  0  0  0  0  0  0  0  0  0  0  0
   -6.3704   17.1476  -32.4289 H   0  0  0  0  0  0  0  0  0  0  0  0
   -7.2239   17.6472  -33.9284 H   0  0  0  0  0  0  0  0  0  0  0  0
   -5.4362   17.4719  -33.9284 H   0  0  0  0  0  0  0  0  0  0  0  0
   -8.8465   18.3506  -32.4659 H   0  0  0  0  0  0  0  0  0  0  0  0
  -10.5604   20.2224  -31.7547 H   0  0  0  0  0  0  0  0  0  0  0  0
   -4.0605   21.9194  -28.5920 H   0  0  0  0  0  0  0  0  0  0  0  0
   -3.8340   19.5114  -28.0120 H   0  0  0  0  0  0  0  0  0  0  0  0
   -1.9645   18.7385  -26.5581 H   0  0  0  0  0  0  0  0  0  0  0  0
   -0.3153   20.3836  -25.6729 H   0  0  0  0  0  0  0  0  0  0  0  0
   -0.5267   22.7981  -26.2286 H   0  0  0  0  0  0  0  0  0  0  0  0
  1  2  1  0
  2  3  1  0
  3  4  1  0
  4  5  1  0
  5  6  1  0
  6  7  1  0
  7  8  1  0
  8  9  1  0
  9 10  1  0
 10 11  1  0
 11 12  2  0
 12 13  1  0
 13 14  2  0
 14 15  1  0
 15 16  2  0
 16 17  1  0
 17 18  1  0
 17 19  2  0
 19 20  1  0
 20 21  2  0
 21 22  1  0
 22 23  1  0
  3 24  1  0
 24 25  2  0
 25 26  1  0
 26 27  2  0
 27 28  1  0
 28 29  2  0
 23 10  2  0
 29 24  1  0
 16 11  1  0
 23 19  1  0
  1 30  1  0
  1 31  1  0
  1 32  1  0
  2 33  1  0
  2 34  1  0
  4 35  1  0
  4 36  1  0
  5 37  1  0
  5 38  1  0
  7 39  1  0
  7 40  1  0
  8 41  1  0
  8 42  1  0
  9 43  1  0
 12 44  1  0
 13 45  1  0
 14 46  1  0
 15 47  1  0
 18 48  1  0
 18 49  1  0
 18 50  1  0
 20 51  1  0
 21 52  1  0
 25 53  1  0
 26 54  1  0
 27 55  1  0
 28 56  1  0
 29 57  1  0
M  CHG  1  17   1
M  END
>  <UniqueID>  (21) 
21

>  <SMILES>  (21) 
CCN(CCOCCNc1c2ccccc2[n+](C)c2ccsc12)c1ccccc1

>  <Energy>  (21) 
106.954332591041

>  <Genealogy>  (21) 
CCN(CCOCCNc1c2ccccc2[n+](C)c2ccsc12)c1ccccc1 (3D coordinates assigned)
CCN(CCOCCNc1c2ccccc2[n+](C)c2ccsc12)c1ccccc1 (optimized conformer: 106.954332591041 kcal/mol)

>  <smiles>  (21) 
CCN(CCOCCNc1c2ccccc2[n+](C)c2ccsc12)c1ccccc1

>  <score_type>  (21) 
oracle

>  <origin>  (21) 
adg

>  <m_score__min__energy>  (21) 
-9.3900000000000006

>  <m_primary>  (21) 
energy

$$$$
21:0
     RDKit          3D

 31 33  0  0  0  0  0  0  0  0999 V2000
   -6.1490   25.4050  -29.7680 C   0  0  0  0  0  0  0  0  0  0  0  0
   -5.6800   24.5450  -30.4720 C   0  0  0  0  0  0  0  0  0  0  0  0
   -5.1110   23.4980  -31.3260 C   0  0  0  0  0  0  0  0  0  0  0  0
   -6.0410   23.1470  -32.4020 N   0  0  0  0  0  0  0  0  0  0  0  0
   -7.1520   22.2520  -32.1970 C   0  0  0  0  0  0  0  0  0  0  0  0
   -8.3690   22.7560  -31.6990 C   0  0  0  0  0  0  0  0  0  0  0  0
   -9.4790   21.9260  -31.5510 C   0  0  0  0  0  0  0  0  0  0  0  0
   -9.4000   20.5800  -31.8950 C   0  0  0  0  0  0  0  0  0  0  0  0
   -8.1990   20.0430  -32.3780 C   0  0  0  0  0  0  0  0  0  0  0  0
   -8.1230   18.6880  -32.7070 C   0  0  0  0  0  0  0  0  0  0  0  0
   -6.9140   18.1480  -33.1620 C   0  0  0  0  0  0  0  0  0  0  0  0
   -6.8410   16.7860  -33.4910 C   0  0  0  0  0  0  0  0  0  0  0  0
   -5.6350   16.2490  -33.9330 C   0  0  0  0  0  0  0  0  0  0  0  0
   -4.5130   17.0660  -34.0430 C   0  0  0  0  0  0  0  0  0  0  0  0
   -4.6120   18.4180  -33.7100 C   0  0  0  0  0  0  0  0  0  0  0  0
   -5.7990   18.9480  -33.2780 N   0  0  0  0  0  0  0  0  0  0  0  0
   -5.8570   20.2780  -32.9620 C   0  0  0  0  0  0  0  0  0  0  0  0
   -7.0590   20.8710  -32.5240 C   0  0  0  0  0  0  0  0  0  0  0  0
   -6.5767   26.1892  -29.1260 H   0  0  0  0  0  0  0  0  0  0  0  0
   -4.1705   23.8617  -31.7656 H   0  0  0  0  0  0  0  0  0  0  0  0
   -4.9244   22.6037  -30.7133 H   0  0  0  0  0  0  0  0  0  0  0  0
   -5.8960   23.5710  -33.3460 H   0  0  0  0  0  0  0  0  0  0  0  0
   -8.4446   23.8182  -31.4233 H   0  0  0  0  0  0  0  0  0  0  0  0
  -10.4217   22.3369  -31.1605 H   0  0  0  0  0  0  0  0  0  0  0  0
  -10.2842   19.9346  -31.7873 H   0  0  0  0  0  0  0  0  0  0  0  0
   -9.0110   18.0463  -32.6089 H   0  0  0  0  0  0  0  0  0  0  0  0
   -7.7313   16.1464  -33.4002 H   0  0  0  0  0  0  0  0  0  0  0  0
   -5.5688   15.1826  -34.1945 H   0  0  0  0  0  0  0  0  0  0  0  0
   -3.5558   16.6493  -34.3897 H   0  0  0  0  0  0  0  0  0  0  0  0
   -3.7267   19.0652  -33.7955 H   0  0  0  0  0  0  0  0  0  0  0  0
   -4.9507   20.8950  -33.0511 H   0  0  0  0  0  0  0  0  0  0  0  0
  1  2  3  0
  2  3  1  0
  3  4  1  0
  4  5  1  0
  5  6  2  0
  6  7  1  0
  7  8  2  0
  8  9  1  0
  9 10  2  0
 10 11  1  0
 11 12  2  0
 12 13  1  0
 13 14  2  0
 14 15  1  0
 15 16  2  0
 16 17  1  0
 17 18  2  0
 18  5  1  0
 18  9  1  0
 16 11  1  0
  1 19  1  0
  3 20  1  0
  3 21  1  0
  4 22  1  0
  6 23  1  0
  7 24  1  0
  8 25  1  0
 10 26  1  0
 12 27  1  0
 13 28  1  0
 14 29  1  0
 15 30  1  0
 17 31  1  0
M  CHG  1  16   1
M  END
>  <UniqueID>  (22) 
22

>  <SMILES>  (22) 
C#CCNc1cccc2cc3cccc[n+]3cc12

>  <Energy>  (22) 
42.145816641370864

>  <Genealogy>  (22) 
C#CCNc1cccc2cc3cccc[n+]3cc12 (3D coordinates assigned)
C#CCNc1cccc2cc3cccc[n+]3cc12 (optimized conformer: 42.145816641370864 kcal/mol)

>  <smiles>  (22) 
C#CCNc1cccc2cc3cccc[n+]3cc12

>  <score_type>  (22) 
oracle

>  <origin>  (22) 
adg

>  <m_score__min__energy>  (22) 
-7.2300000000000004

>  <m_primary>  (22) 
energy

$$$$
22:0
     RDKit          3D

 26 27  0  0  0  0  0  0  0  0999 V2000
   -5.6010   18.1640  -34.6360 C   0  0  0  0  0  0  0  0  0  0  0  0
   -6.1190   18.8180  -33.3510 C   0  0  0  0  0  0  0  0  0  0  0  0
   -7.2470   19.7310  -33.6050 N   0  0  0  0  0  0  0  0  0  0  0  0
   -7.2350   20.8550  -32.6990 C   0  0  0  0  0  0  0  0  0  0  0  0
   -8.3720   21.1610  -31.9260 C   0  0  0  0  0  0  0  0  0  0  0  0
   -8.3680   22.2570  -31.0600 C   0  0  0  0  0  0  0  0  0  0  0  0
   -7.2280   23.0640  -30.9560 C   0  0  0  0  0  0  0  0  0  0  0  0
   -7.1880   24.1700  -30.1020 C   0  0  0  0  0  0  0  0  0  0  0  0
   -6.0290   24.9430  -30.0350 C   0  0  0  0  0  0  0  0  0  0  0  0
   -4.9330   24.5900  -30.8310 C   0  0  0  0  0  0  0  0  0  0  0  0
   -3.8780   25.2750  -30.7860 O   0  0  0  0  0  0  0  0  0  0  0  0
   -4.9980   23.5320  -31.6360 O   0  0  0  0  0  0  0  0  0  0  0  0
   -6.0840   22.7690  -31.7280 C   0  0  0  0  0  0  0  0  0  0  0  0
   -6.0930   21.6700  -32.5930 C   0  0  0  0  0  0  0  0  0  0  0  0
   -4.9370   17.3256  -34.3788 H   0  0  0  0  0  0  0  0  0  0  0  0
   -6.4511   17.7908  -35.2259 H   0  0  0  0  0  0  0  0  0  0  0  0
   -5.0430   18.9061  -35.2259 H   0  0  0  0  0  0  0  0  0  0  0  0
   -6.4512   18.0283  -32.6610 H   0  0  0  0  0  0  0  0  0  0  0  0
   -5.2979   19.4089  -32.9190 H   0  0  0  0  0  0  0  0  0  0  0  0
   -7.2290   20.0550  -34.6000 H   0  0  0  0  0  0  0  0  0  0  0  0
   -8.1400   19.2000  -33.4720 H   0  0  0  0  0  0  0  0  0  0  0  0
   -9.2707   20.5316  -32.0049 H   0  0  0  0  0  0  0  0  0  0  0  0
   -9.2606   22.4864  -30.4594 H   0  0  0  0  0  0  0  0  0  0  0  0
   -8.0633   24.4285  -29.4880 H   0  0  0  0  0  0  0  0  0  0  0  0
   -5.9770   25.8158  -29.3675 H   0  0  0  0  0  0  0  0  0  0  0  0
   -5.2010   21.4412  -33.1947 H   0  0  0  0  0  0  0  0  0  0  0  0
  1  2  1  0
  2  3  1  0
  3  4  1  0
  4  5  2  0
  5  6  1  0
  6  7  2  0
  7  8  1  0
  8  9  2  0
  9 10  1  0
 10 11  2  0
 10 12  1  0
 12 13  1  0
 13 14  2  0
 14  4  1  0
 13  7  1  0
  1 15  1  0
  1 16  1  0
  1 17  1  0
  2 18  1  0
  2 19  1  0
  3 20  1  0
  3 21  1  0
  5 22  1  0
  6 23  1  0
  8 24  1  0
  9 25  1  0
 14 26  1  0
M  CHG  1   3   1
M  END
>  <UniqueID>  (23) 
23

>  <SMILES>  (23) 
CC[NH2+]c1ccc2ccc(=O)oc2c1

>  <Energy>  (23) 
29.261672933309516

>  <Genealogy>  (23) 
CC[NH2+]c1ccc2ccc(=O)oc2c1 (protonated)
CC[NH2+]c1ccc2ccc(=O)oc2c1 (3D coordinates assigned)
CC[NH2+]c1ccc2ccc(=O)oc2c1 (optimized conformer: 29.261672933309516 kcal/mol)

>  <smiles>  (23) 
CCNc1ccc2ccc(=O)oc2c1

>  <score_type>  (23) 
oracle

>  <origin>  (23) 
adg

>  <m_score__min__energy>  (23) 
-6.79

>  <m_primary>  (23) 
energy

$$$$
23:0
     RDKit          3D

101107  0  0  0  0  0  0  0  0999 V2000
   -5.6040   15.4490  -33.7740 C   0  0  0  0  0  0  0  0  0  0  0  0
   -6.7810   16.3090  -34.2210 C   0  0  0  0  0  0  0  0  0  0  0  0
   -6.3350   17.6630  -34.5740 N   0  0  0  0  0  0  0  0  0  0  0  0
   -4.9210   17.6780  -34.9820 C   0  0  0  0  0  0  0  0  0  0  0  0
   -4.0820   18.4240  -33.9360 C   0  0  0  0  0  0  0  0  0  0  0  0
   -4.7170   18.3770  -32.6070 N   0  0  0  0  0  0  0  0  0  0  0  0
   -4.9930   19.7210  -32.1180 C   0  0  0  0  0  0  0  0  0  0  0  0
   -6.3300   20.1860  -32.0020 C   0  0  0  0  0  0  0  0  0  0  0  0
   -7.4360   19.3190  -32.1910 C   0  0  0  0  0  0  0  0  0  0  0  0
   -8.7430   19.7720  -32.0300 C   0  0  0  0  0  0  0  0  0  0  0  0
   -8.9810   21.0900  -31.6670 C   0  0  0  0  0  0  0  0  0  0  0  0
   -7.9190   21.9690  -31.4810 C   0  0  0  0  0  0  0  0  0  0  0  0
   -6.5720   21.5480  -31.6670 C   0  0  0  0  0  0  0  0  0  0  0  0
   -5.5170   22.4240  -31.5090 N   0  0  0  0  0  0  0  0  0  0  0  0
   -5.7650   23.8840  -31.4940 C   0  0  0  0  0  0  0  0  0  0  0  0
   -4.2300   21.9410  -31.3860 C   0  0  0  0  0  0  0  0  0  0  0  0
   -3.1700   22.7650  -30.9290 C   0  0  0  0  0  0  0  0  0  0  0  0
   -1.8620   22.2910  -30.8580 C   0  0  0  0  0  0  0  0  0  0  0  0
   -1.5770   20.9640  -31.1860 C   0  0  0  0  0  0  0  0  0  0  0  0
   -0.2860   20.4210  -31.1480 O   0  0  0  0  0  0  0  0  0  0  0  0
    0.6090   20.2640  -32.2440 C   0  0  0  0  0  0  0  0  0  0  0  0
    1.7500   19.2340  -32.0010 C   0  0  0  0  0  0  0  0  0  0  0  0
    1.3850   17.7700  -31.8630 N   0  0  1  0  0  0  0  0  0  0  0  0
    1.0250   17.2410  -33.2090 C   0  0  0  0  0  0  0  0  0  0  0  0
    2.5970   17.0000  -31.3950 C   0  0  0  0  0  0  0  0  0  0  0  0
    2.6600   16.8460  -29.8540 C   0  0  0  0  0  0  0  0  0  0  0  0
    1.4620   16.1300  -29.2700 N   0  0  1  0  0  0  0  0  0  0  0  0
    1.8110   14.6940  -29.0880 C   0  0  0  0  0  0  0  0  0  0  0  0
    1.1510   16.7250  -27.9150 C   0  0  0  0  0  0  0  0  0  0  0  0
    0.8200   18.2070  -27.9020 C   0  0  0  0  0  0  0  0  0  0  0  0
    1.8240   19.1760  -27.9410 C   0  0  0  0  0  0  0  0  0  0  0  0
    1.4970   20.5290  -27.8460 C   0  0  0  0  0  0  0  0  0  0  0  0
    0.1610   20.9320  -27.6980 C   0  0  0  0  0  0  0  0  0  0  0  0
   -0.1580   22.2870  -27.6260 C   0  0  0  0  0  0  0  0  0  0  0  0
   -1.4910   22.6910  -27.5700 C   0  0  0  0  0  0  0  0  0  0  0  0
   -1.8090   24.0600  -27.5810 C   0  0  0  0  0  0  0  0  0  0  0  0
   -3.1410   24.4710  -27.5980 C   0  0  0  0  0  0  0  0  0  0  0  0
   -4.1640   23.5220  -27.6160 C   0  0  0  0  0  0  0  0  0  0  0  0
   -3.8620   22.1570  -27.5720 C   0  0  0  0  0  0  0  0  0  0  0  0
   -2.5160   21.7110  -27.5140 C   0  0  0  0  0  0  0  0  0  0  0  0
   -2.1860   20.3690  -27.4300 N   0  0  0  0  0  0  0  0  0  0  0  0
   -3.2280   19.3750  -27.0820 C   0  0  0  0  0  0  0  0  0  0  0  0
   -0.8760   19.9670  -27.6260 C   0  0  0  0  0  0  0  0  0  0  0  0
   -0.5220   18.6100  -27.7870 C   0  0  0  0  0  0  0  0  0  0  0  0
    0.3070   16.1900  -30.2290 C   0  0  0  0  0  0  0  0  0  0  0  0
    0.2320   17.5540  -30.9250 C   0  0  0  0  0  0  0  0  0  0  0  0
   -2.6130   20.1230  -31.5850 C   0  0  0  0  0  0  0  0  0  0  0  0
   -3.9410   20.5830  -31.7040 C   0  0  0  0  0  0  0  0  0  0  0  0
   -5.5665   15.4216  -32.6750 H   0  0  0  0  0  0  0  0  0  0  0  0
   -5.7281   14.4273  -34.1623 H   0  0  0  0  0  0  0  0  0  0  0  0
   -4.6683   15.8777  -34.1623 H   0  0  0  0  0  0  0  0  0  0  0  0
   -7.2535   15.8448  -35.0992 H   0  0  0  0  0  0  0  0  0  0  0  0
   -7.4999   16.3803  -33.3915 H   0  0  0  0  0  0  0  0  0  0  0  0
   -6.9040   17.9740  -35.3970 H   0  0  0  0  0  0  0  0  0  0  0  0
   -4.5565   16.6440  -35.0716 H   0  0  0  0  0  0  0  0  0  0  0  0
   -4.8297   18.1905  -35.9511 H   0  0  0  0  0  0  0  0  0  0  0  0
   -3.0879   17.9570  -33.8748 H   0  0  0  0  0  0  0  0  0  0  0  0
   -3.9994   19.4767  -34.2441 H   0  0  0  0  0  0  0  0  0  0  0  0
   -4.1160   17.8600  -31.9240 H   0  0  0  0  0  0  0  0  0  0  0  0
   -5.5880   17.8000  -32.6400 H   0  0  0  0  0  0  0  0  0  0  0  0
   -7.2584   18.2698  -32.4698 H   0  0  0  0  0  0  0  0  0  0  0  0
   -9.5869   19.0849  -32.1906 H   0  0  0  0  0  0  0  0  0  0  0  0
  -10.0138   21.4412  -31.5257 H   0  0  0  0  0  0  0  0  0  0  0  0
   -8.1239   23.0084  -31.1848 H   0  0  0  0  0  0  0  0  0  0  0  0
   -5.8246   24.2351  -30.4532 H   0  0  0  0  0  0  0  0  0  0  0  0
   -4.9418   24.4011  -32.0088 H   0  0  0  0  0  0  0  0  0  0  0  0
   -6.7127   24.1002  -32.0088 H   0  0  0  0  0  0  0  0  0  0  0  0
   -3.3852   23.7998  -30.6243 H   0  0  0  0  0  0  0  0  0  0  0  0
   -1.0512   22.9641  -30.5426 H   0  0  0  0  0  0  0  0  0  0  0  0
    0.0281   19.9338  -33.1178 H   0  0  0  0  0  0  0  0  0  0  0  0
    1.0942   21.2396  -32.3948 H   0  0  0  0  0  0  0  0  0  0  0  0
    2.4475   19.3164  -32.8476 H   0  0  0  0  0  0  0  0  0  0  0  0
    2.1521   19.5055  -31.0138 H   0  0  0  0  0  0  0  0  0  0  0  0
    0.4095   16.3365  -33.0949 H   0  0  0  0  0  0  0  0  0  0  0  0
    0.4574   18.0033  -33.7628 H   0  0  0  0  0  0  0  0  0  0  0  0
    1.9424   16.9927  -33.7628 H   0  0  0  0  0  0  0  0  0  0  0  0
    2.5709   15.9973  -31.8465 H   0  0  0  0  0  0  0  0  0  0  0  0
    3.4868   17.5675  -31.7052 H   0  0  0  0  0  0  0  0  0  0  0  0
    3.5653   16.2762  -29.5977 H   0  0  0  0  0  0  0  0  0  0  0  0
    2.6708   17.8599  -29.4275 H   0  0  0  0  0  0  0  0  0  0  0  0
    1.8670   14.4636  -28.0139 H   0  0  0  0  0  0  0  0  0  0  0  0
    1.0392   14.0667  -29.5578 H   0  0  0  0  0  0  0  0  0  0  0  0
    2.7847   14.4909  -29.5578 H   0  0  0  0  0  0  0  0  0  0  0  0
    0.2888   16.1833  -27.4988 H   0  0  0  0  0  0  0  0  0  0  0  0
    2.0735   16.6207  -27.3250 H   0  0  0  0  0  0  0  0  0  0  0  0
    2.8759   18.8720  -28.0469 H   0  0  0  0  0  0  0  0  0  0  0  0
    2.2935   21.2865  -27.8875 H   0  0  0  0  0  0  0  0  0  0  0  0
    0.6442   23.0395  -27.6133 H   0  0  0  0  0  0  0  0  0  0  0  0
   -1.0041   24.8097  -27.5762 H   0  0  0  0  0  0  0  0  0  0  0  0
   -3.3857   25.5434  -27.5972 H   0  0  0  0  0  0  0  0  0  0  0  0
   -5.2131   23.8491  -27.6650 H   0  0  0  0  0  0  0  0  0  0  0  0
   -4.6783   21.4197  -27.5825 H   0  0  0  0  0  0  0  0  0  0  0  0
   -3.3096   19.2971  -25.9878 H   0  0  0  0  0  0  0  0  0  0  0  0
   -4.1940   19.6948  -27.4999 H   0  0  0  0  0  0  0  0  0  0  0  0
   -2.9541   18.3950  -27.4999 H   0  0  0  0  0  0  0  0  0  0  0  0
   -1.3156   17.8492  -27.8234 H   0  0  0  0  0  0  0  0  0  0  0  0
    0.4319   15.4056  -30.9900 H   0  0  0  0  0  0  0  0  0  0  0  0
   -0.6234   16.0374  -29.6624 H   0  0  0  0  0  0  0  0  0  0  0  0
   -0.7063   17.6102  -31.4964 H   0  0  0  0  0  0  0  0  0  0  0  0
    0.2729   18.3339  -30.1504 H   0  0  0  0  0  0  0  0  0  0  0  0
   -2.3893   19.0706  -31.8137 H   0  0  0  0  0  0  0  0  0  0  0  0
  1  2  1  0
  2  3  1  0
  3  4  1  0
  4  5  1  0
  5  6  1  0
  6  7  1  0
  7  8  2  0
  8  9  1  0
  9 10  2  0
 10 11  1  0
 11 12  2  0
 12 13  1  0
 13 14  2  0
 14 15  1  0
 14 16  1  0
 16 17  2  0
 17 18  1  0
 18 19  2  0
 19 20  1  0
 20 21  1  0
 21 22  1  0
 23 22  1  6
 23 24  1  0
 23 25  1  0
 25 26  1  0
 26 27  1  0
 27 28  1  1
 27 29  1  0
 29 30  1  0
 30 31  2  0
 31 32  1  0
 32 33  2  0
 33 34  1  0
 34 35  2  0
 35 36  1  0
 36 37  2  0
 37 38  1  0
 38 39  2  0
 39 40  1  0
 40 41  2  0
 41 42  1  0
 41 43  1  0
 43 44  2  0
 27 45  1  0
 45 46  1  0
 19 47  1  0
 47 48  2  0
 48  7  1  0
 13  8  1  0
 48 16  1  0
 46 23  1  0
 44 30  1  0
 43 33  1  0
 40 35  1  0
  1 49  1  0
  1 50  1  0
  1 51  1  0
  2 52  1  0
  2 53  1  0
  3 54  1  0
  4 55  1  0
  4 56  1  0
  5 57  1  0
  5 58  1  0
  6 59  1  0
  6 60  1  0
  9 61  1  0
 10 62  1  0
 11 63  1  0
 12 64  1  0
 15 65  1  0
 15 66  1  0
 15 67  1  0
 17 68  1  0
 18 69  1  0
 21 70  1  0
 21 71  1  0
 22 72  1  0
 22 73  1  0
 24 74  1  0
 24 75  1  0
 24 76  1  0
 25 77  1  0
 25 78  1  0
 26 79  1  0
 26 80  1  0
 28 81  1  0
 28 82  1  0
 28 83  1  0
 29 84  1  0
 29 85  1  0
 31 86  1  0
 32 87  1  0
 34 88  1  0
 36 89  1  0
 37 90  1  0
 38 91  1  0
 39 92  1  0
 42 93  1  0
 42 94  1  0
 42 95  1  0
 44 96  1  0
 45 97  1  0
 45 98  1  0
 46 99  1  0
 46100  1  0
 47101  1  0
M  CHG  5   6   1  14   1  23   1  27   1  41   1
M  END
>  <UniqueID>  (24) 
24

>  <SMILES>  (24) 
CCNCC[NH2+]c1c2ccccc2[n+](C)c2ccc(OCC[N+]3(C)CC[N+](C)(Cc4ccc5cc6ccccc6[n+](C)c5c4)CC3)cc12

>  <Energy>  (24) 
190.30107741205774

>  <Genealogy>  (24) 
CCNCC[NH2+]c1c2ccccc2[n+](C)c2ccc(OCC[N+]3(C)CC[N+](C)(Cc4ccc5cc6ccccc6[n+](C)c5c4)CC3)cc12 (protonated)
CCNCC[NH2+]c1c2ccccc2[n+](C)c2ccc(OCC[N+]3(C)CC[N+](C)(Cc4ccc5cc6ccccc6[n+](C)c5c4)CC3)cc12 (3D coordinates assigned)
CCNCC[NH2+]c1c2ccccc2[n+](C)c2ccc(OCC[N+]3(C)CC[N+](C)(Cc4ccc5cc6ccccc6[n+](C)c5c4)CC3)cc12 (nonaromatic ring conformer: 190.30107741205774 kcal/mol)

>  <smiles>  (24) 
CCNCCNc1c2ccccc2[n+](C)c2ccc(OCC[N+]3(C)CC[N+](C)(Cc4ccc5cc6ccccc6[n+](C)c5c4)CC3)cc12

>  <score_type>  (24) 
oracle

>  <origin>  (24) 
adg

>  <m_score__min__energy>  (24) 
-10.029999999999999

>  <m_primary>  (24) 
energy

$$$$
24:0
     RDKit          3D

 70 74  0  0  0  0  0  0  0  0999 V2000
   -6.2630   24.8940  -30.4900 C   0  0  0  0  0  0  0  0  0  0  0  0
   -6.0600   25.3020  -29.0340 C   0  0  0  0  0  0  0  0  0  0  0  0
   -4.7720   24.8030  -28.5300 N   0  0  0  0  0  0  0  0  0  0  0  0
   -4.6050   24.6910  -27.0750 C   0  0  0  0  0  0  0  0  0  0  0  0
   -3.6410   24.4480  -29.3720 C   0  0  0  0  0  0  0  0  0  0  0  0
   -3.5150   25.0380  -30.4810 O   0  0  0  0  0  0  0  0  0  0  0  0
   -2.5550   23.4350  -28.9990 C   0  0  2  0  0  0  0  0  0  0  0  0
   -1.1450   23.9900  -29.3500 C   0  0  0  0  0  0  0  0  0  0  0  0
    0.0270   23.0200  -29.0720 C   0  0  1  0  0  0  0  0  0  0  0  0
    0.6860   23.1680  -27.6790 C   0  0  0  0  0  0  0  0  0  0  0  0
   -0.2500   23.5960  -26.5730 C   0  0  0  0  0  0  0  0  0  0  0  0
   -0.9800   22.7010  -26.0640 O   0  0  0  0  0  0  0  0  0  0  0  0
   -0.3530   24.9570  -26.0810 N   0  0  0  0  0  0  0  0  0  0  0  0
   -1.4500   25.2530  -25.1400 C   0  0  0  0  0  0  0  0  0  0  0  0
   -1.4220   26.7030  -24.6450 C   0  0  0  0  0  0  0  0  0  0  0  0
   -1.1940   27.6460  -25.8220 C   0  0  0  0  0  0  0  0  0  0  0  0
    0.1460   27.3680  -26.5270 C   0  0  0  0  0  0  0  0  0  0  0  0
    0.7140   25.9590  -26.2700 C   0  0  0  0  0  0  0  0  0  0  0  0
   -0.3400   21.6070  -29.4200 C   0  0  0  0  0  0  0  0  0  0  0  0
    0.4990   20.6780  -29.2730 O   0  0  0  0  0  0  0  0  0  0  0  0
   -1.6040   21.3390  -30.0430 N   0  0  0  0  0  0  0  0  0  0  0  0
   -1.5590   20.7970  -31.4170 C   0  0  0  0  0  0  0  0  0  0  0  0
   -2.8500   20.0810  -31.8180 C   0  0  0  0  0  0  0  0  0  0  0  0
   -4.0180   20.9130  -31.4300 C   0  0  0  0  0  0  0  0  0  0  0  0
   -4.0340   21.7260  -30.3140 C   0  0  0  0  0  0  0  0  0  0  0  0
   -5.3050   22.1060  -30.0250 N   0  0  0  0  0  0  0  0  0  0  0  0
   -6.0750   21.5630  -30.9850 C   0  0  0  0  0  0  0  0  0  0  0  0
   -7.4630   21.6400  -31.0960 C   0  0  0  0  0  0  0  0  0  0  0  0
   -8.0800   20.9280  -32.1410 C   0  0  0  0  0  0  0  0  0  0  0  0
   -9.8230   20.9950  -32.3300 Cl  0  0  0  0  0  0  0  0  0  0  0  0
   -7.3060   20.1470  -33.0300 C   0  0  0  0  0  0  0  0  0  0  0  0
   -5.9080   20.0770  -32.8840 C   0  0  0  0  0  0  0  0  0  0  0  0
   -5.3250   20.8140  -31.8550 C   0  0  0  0  0  0  0  0  0  0  0  0
   -2.8240   21.9180  -29.4120 C   0  0  2  0  0  0  0  0  0  0  0  0
   -3.1290   21.0750  -28.1520 C   0  0  0  0  0  0  0  0  0  0  0  0
   -6.7527   23.9098  -30.5301 H   0  0  0  0  0  0  0  0  0  0  0  0
   -6.8955   25.6391  -30.9948 H   0  0  0  0  0  0  0  0  0  0  0  0
   -5.2872   24.8389  -30.9948 H   0  0  0  0  0  0  0  0  0  0  0  0
   -6.0759   26.3994  -28.9608 H   0  0  0  0  0  0  0  0  0  0  0  0
   -6.8693   24.8678  -28.4286 H   0  0  0  0  0  0  0  0  0  0  0  0
   -5.4165   25.2353  -26.5698 H   0  0  0  0  0  0  0  0  0  0  0  0
   -4.6370   23.6310  -26.7828 H   0  0  0  0  0  0  0  0  0  0  0  0
   -3.6364   25.1229  -26.7828 H   0  0  0  0  0  0  0  0  0  0  0  0
   -2.5980   23.3338  -27.9045 H   0  0  0  0  0  0  0  0  0  0  0  0
   -1.1338   24.2406  -30.4210 H   0  0  0  0  0  0  0  0  0  0  0  0
   -0.9856   24.8601  -28.6962 H   0  0  0  0  0  0  0  0  0  0  0  0
    0.8335   23.3258  -29.7547 H   0  0  0  0  0  0  0  0  0  0  0  0
    1.1202   22.1961  -27.4018 H   0  0  0  0  0  0  0  0  0  0  0  0
    1.4343   23.9684  -27.7760 H   0  0  0  0  0  0  0  0  0  0  0  0
   -2.4089   25.0718  -25.6475 H   0  0  0  0  0  0  0  0  0  0  0  0
   -1.3261   24.5982  -24.2649 H   0  0  0  0  0  0  0  0  0  0  0  0
   -2.3820   26.9436  -24.1648 H   0  0  0  0  0  0  0  0  0  0  0  0
   -0.6043   26.8235  -23.9192 H   0  0  0  0  0  0  0  0  0  0  0  0
   -2.0113   27.5150  -26.5465 H   0  0  0  0  0  0  0  0  0  0  0  0
   -1.1693   28.6754  -25.4351 H   0  0  0  0  0  0  0  0  0  0  0  0
   -0.0027   27.4878  -27.6103 H   0  0  0  0  0  0  0  0  0  0  0  0
    0.8741   28.0824  -26.1154 H   0  0  0  0  0  0  0  0  0  0  0  0
    1.3307   25.6625  -27.1313 H   0  0  0  0  0  0  0  0  0  0  0  0
    1.3107   25.9972  -25.3467 H   0  0  0  0  0  0  0  0  0  0  0  0
   -1.3870   21.6283  -32.1166 H   0  0  0  0  0  0  0  0  0  0  0  0
   -0.7464   20.0564  -31.4529 H   0  0  0  0  0  0  0  0  0  0  0  0
   -2.8583   19.9220  -32.9064 H   0  0  0  0  0  0  0  0  0  0  0  0
   -2.9051   19.1093  -31.3053 H   0  0  0  0  0  0  0  0  0  0  0  0
   -5.6360   22.6430  -29.1940 H   0  0  0  0  0  0  0  0  0  0  0  0
   -8.0565   22.2383  -30.3891 H   0  0  0  0  0  0  0  0  0  0  0  0
   -7.7995   19.5908  -33.8406 H   0  0  0  0  0  0  0  0  0  0  0  0
   -5.2960   19.4612  -33.5595 H   0  0  0  0  0  0  0  0  0  0  0  0
   -2.9138   21.6697  -27.2520 H   0  0  0  0  0  0  0  0  0  0  0  0
   -4.1896   20.7834  -28.1539 H   0  0  0  0  0  0  0  0  0  0  0  0
   -2.5005   20.1722  -28.1539 H   0  0  0  0  0  0  0  0  0  0  0  0
  1  2  1  0
  2  3  1  0
  3  4  1  0
  3  5  1  0
  5  6  2  0
  5  7  1  0
  7  8  1  0
  8  9  1  0
  9 10  1  0
 10 11  1  0
 11 12  2  0
 11 13  1  0
 13 14  1  0
 14 15  1  0
 15 16  1  0
 16 17  1  0
 17 18  1  0
  9 19  1  0
 19 20  2  0
 19 21  1  0
 21 22  1  0
 22 23  1  0
 23 24  1  0
 24 25  2  0
 25 26  1  0
 26 27  1  0
 27 28  2  0
 28 29  1  0
 29 30  1  0
 29 31  2  0
 31 32  1  0
 32 33  2  0
 25 34  1  0
 34 35  1  1
 34  7  1  0
 18 13  1  0
 34 21  1  0
 33 24  1  0
 33 27  1  0
  1 36  1  0
  1 37  1  0
  1 38  1  0
  2 39  1  0
  2 40  1  0
  4 41  1  0
  4 42  1  0
  4 43  1  0
  7 44  1  1
  8 45  1  0
  8 46  1  0
  9 47  1  6
 10 48  1  0
 10 49  1  0
 14 50  1  0
 14 51  1  0
 15 52  1  0
 15 53  1  0
 16 54  1  0
 16 55  1  0
 17 56  1  0
 17 57  1  0
 18 58  1  0
 18 59  1  0
 22 60  1  0
 22 61  1  0
 23 62  1  0
 23 63  1  0
 26 64  1  0
 28 65  1  0
 31 66  1  0
 32 67  1  0
 35 68  1  0
 35 69  1  0
 35 70  1  0
M  END
>  <UniqueID>  (25) 
25

>  <SMILES>  (25) 
CCN(C)C(=O)[C@@H]1C[C@@H](CC(=O)N2CCCCC2)C(=O)N2CCc3c([nH]c4cc(Cl)ccc34)C12C

>  <Energy>  (25) 
127.11920626837755

>  <Genealogy>  (25) 
CCN(C)C(=O)[C@@H]1C[C@@H](CC(=O)N2CCCCC2)C(=O)N2CCc3c([nH]c4cc(Cl)ccc34)C12C (chirality)
CCN(C)C(=O)[C@@H]1C[C@@H](CC(=O)N2CCCCC2)C(=O)N2CCc3c([nH]c4cc(Cl)ccc34)C12C (3D coordinates assigned)
CCN(C)C(=O)[C@@H]1C[C@@H](CC(=O)N2CCCCC2)C(=O)N2CCc3c([nH]c4cc(Cl)ccc34)C12C (nonaromatic ring conformer: 127.11920626837755 kcal/mol)

>  <smiles>  (25) 
CCN(C)C(=O)C1CC(CC(=O)N2CCCCC2)C(=O)N2CCc3c([nH]c4cc(Cl)ccc34)C12C

>  <score_type>  (25) 
oracle

>  <origin>  (25) 
adg

>  <m_score__min__energy>  (25) 
-9.5399999999999991

>  <m_primary>  (25) 
energy

$$$$
25:0
     RDKit          3D

 49 51  0  0  0  0  0  0  0  0999 V2000
   -2.8460   21.5330  -32.2690 C   0  0  0  0  0  0  0  0  0  0  0  0
   -3.6580   22.6980  -32.3630 O   0  0  0  0  0  0  0  0  0  0  0  0
   -4.9960   22.7680  -31.9420 C   0  0  0  0  0  0  0  0  0  0  0  0
   -5.9900   22.1180  -32.6220 N   0  0  0  0  0  0  0  0  0  0  0  0
   -7.2860   22.1640  -32.2130 C   0  0  0  0  0  0  0  0  0  0  0  0
   -7.6390   22.8900  -31.0780 C   0  0  0  0  0  0  0  0  0  0  0  0
   -6.6520   23.5660  -30.3650 C   0  0  0  0  0  0  0  0  0  0  0  0
   -5.3150   23.5120  -30.7860 C   0  0  0  0  0  0  0  0  0  0  0  0
   -4.2730   24.2490  -30.0330 C   0  0  0  0  0  0  0  0  0  0  0  0
   -3.8660   25.3580  -30.4760 O   0  0  0  0  0  0  0  0  0  0  0  0
   -3.7400   23.7450  -28.7900 N   0  0  0  0  0  0  0  0  0  0  0  0
   -4.0110   22.3350  -28.4560 C   0  0  0  0  0  0  0  0  0  0  0  0
   -2.7460   21.5250  -28.1610 C   0  0  0  0  0  0  0  0  0  0  0  0
   -1.5240   22.0140  -28.9560 C   0  0  0  0  0  0  0  0  0  0  0  0
   -0.7530   23.0950  -28.2990 N   0  0  0  0  0  0  0  0  0  0  0  0
   -0.1980   22.7530  -26.9750 C   0  0  0  0  0  0  0  0  0  0  0  0
    0.0640   24.0110  -26.2000 C   0  0  0  0  0  0  0  0  0  0  0  0
   -0.8000   24.5670  -25.2740 C   0  0  0  0  0  0  0  0  0  0  0  0
   -0.1490   25.6650  -24.7450 C   0  0  0  0  0  0  0  0  0  0  0  0
    1.0850   25.7320  -25.3620 C   0  0  0  0  0  0  0  0  0  0  0  0
    1.2090   24.7270  -26.2510 N   0  0  0  0  0  0  0  0  0  0  0  0
    2.4020   24.4270  -27.0370 C   0  0  0  0  0  0  0  0  0  0  0  0
   -1.3270   24.4510  -28.4100 C   0  0  0  0  0  0  0  0  0  0  0  0
   -2.8170   24.5760  -27.9960 C   0  0  0  0  0  0  0  0  0  0  0  0
   -2.6760   21.2890  -31.2100 H   0  0  0  0  0  0  0  0  0  0  0  0
   -3.3540   20.6912  -32.7622 H   0  0  0  0  0  0  0  0  0  0  0  0
   -1.8804   21.7183  -32.7622 H   0  0  0  0  0  0  0  0  0  0  0  0
   -5.7750   21.5610  -33.4780 H   0  0  0  0  0  0  0  0  0  0  0  0
   -8.0589   21.6255  -32.7810 H   0  0  0  0  0  0  0  0  0  0  0  0
   -8.6876   22.9291  -30.7479 H   0  0  0  0  0  0  0  0  0  0  0  0
   -6.9217   24.1441  -29.4689 H   0  0  0  0  0  0  0  0  0  0  0  0
   -4.6587   22.3057  -27.5674 H   0  0  0  0  0  0  0  0  0  0  0  0
   -4.4898   21.8797  -29.3355 H   0  0  0  0  0  0  0  0  0  0  0  0
   -2.5209   21.6042  -27.0872 H   0  0  0  0  0  0  0  0  0  0  0  0
   -2.9417   20.4854  -28.4624 H   0  0  0  0  0  0  0  0  0  0  0  0
   -0.8508   21.1580  -29.1113 H   0  0  0  0  0  0  0  0  0  0  0  0
   -1.9114   22.4343  -29.8958 H   0  0  0  0  0  0  0  0  0  0  0  0
   -0.9180   22.1280  -26.4263 H   0  0  0  0  0  0  0  0  0  0  0  0
    0.7443   22.2005  -27.1050 H   0  0  0  0  0  0  0  0  0  0  0  0
   -1.8055   24.2067  -25.0110 H   0  0  0  0  0  0  0  0  0  0  0  0
   -0.5383   26.3530  -23.9801 H   0  0  0  0  0  0  0  0  0  0  0  0
    1.8527   26.4929  -25.1579 H   0  0  0  0  0  0  0  0  0  0  0  0
    3.2432   24.2155  -26.3605 H   0  0  0  0  0  0  0  0  0  0  0  0
    2.2118   23.5487  -27.6714 H   0  0  0  0  0  0  0  0  0  0  0  0
    2.6499   25.2908  -27.6714 H   0  0  0  0  0  0  0  0  0  0  0  0
   -0.7384   25.1228  -27.7680 H   0  0  0  0  0  0  0  0  0  0  0  0
   -1.2849   24.7128  -29.4776 H   0  0  0  0  0  0  0  0  0  0  0  0
   -2.9073   24.2787  -26.9408 H   0  0  0  0  0  0  0  0  0  0  0  0
   -3.1056   25.6228  -28.1721 H   0  0  0  0  0  0  0  0  0  0  0  0
  1  2  1  0
  2  3  1  0
  3  4  2  0
  4  5  1  0
  5  6  2  0
  6  7  1  0
  7  8  2  0
  8  9  1  0
  9 10  2  0
  9 11  1  0
 11 12  1  0
 12 13  1  0
 13 14  1  0
 14 15  1  0
 15 16  1  0
 16 17  1  0
 17 18  2  0
 18 19  1  0
 19 20  2  0
 20 21  1  0
 21 22  1  0
 15 23  1  0
 23 24  1  0
  8  3  1  0
 24 11  1  0
 21 17  1  0
  1 25  1  0
  1 26  1  0
  1 27  1  0
  4 28  1  0
  5 29  1  0
  6 30  1  0
  7 31  1  0
 12 32  1  0
 12 33  1  0
 13 34  1  0
 13 35  1  0
 14 36  1  0
 14 37  1  0
 16 38  1  0
 16 39  1  0
 18 40  1  0
 19 41  1  0
 20 42  1  0
 22 43  1  0
 22 44  1  0
 22 45  1  0
 23 46  1  0
 23 47  1  0
 24 48  1  0
 24 49  1  0
M  CHG  1   4   1
M  END
>  <UniqueID>  (26) 
26

>  <SMILES>  (26) 
COc1[nH+]cccc1C(=O)N1CCCN(Cc2cccn2C)CC1

>  <Energy>  (26) 
94.10704718826076

>  <Genealogy>  (26) 
COc1[nH+]cccc1C(=O)N1CCCN(Cc2cccn2C)CC1 (protonated)
COc1[nH+]cccc1C(=O)N1CCCN(Cc2cccn2C)CC1 (3D coordinates assigned)
COc1[nH+]cccc1C(=O)N1CCCN(Cc2cccn2C)CC1 (nonaromatic ring conformer: 94.10704718826076 kcal/mol)

>  <smiles>  (26) 
COc1ncccc1C(=O)N1CCCN(Cc2cccn2C)CC1

>  <score_type>  (26) 
oracle

>  <origin>  (26) 
adg

>  <m_score__min__energy>  (26) 
-4.9199999999999999

>  <m_primary>  (26) 
energy

$$$$
