0:0
     RDKit          3D

 38 39  0  0  0  0  0  0  0  0999 V2000
   -9.1230   18.7290  -32.1860 C   0  0  0  0  0  0  0  0  0  0  0  0
   -7.9460   19.6800  -32.2050 C   0  0  0  0  0  0  0  0  0  0  0  0
   -8.1020   21.0650  -31.9240 C   0  0  0  0  0  0  0  0  0  0  0  0
   -9.4650   21.5880  -31.4960 C   0  0  0  0  0  0  0  0  0  0  0  0
   -7.0270   21.9260  -32.0710 N   0  0  0  0  0  0  0  0  0  0  0  0
   -7.2310   23.3810  -31.9110 C   0  0  0  0  0  0  0  0  0  0  0  0
   -5.7590   21.4230  -32.2980 C   0  0  0  0  0  0  0  0  0  0  0  0
   -4.5220   22.3040  -32.3510 C   0  0  0  0  0  0  0  0  0  0  0  0
   -4.0480   22.6330  -31.0050 N   0  0  0  0  0  0  0  0  0  0  0  0
   -4.0790   23.9690  -30.4720 C   0  0  0  0  0  0  0  0  0  0  0  0
   -4.6010   24.8990  -31.1440 O   0  0  0  0  0  0  0  0  0  0  0  0
   -3.5190   24.2740  -29.1340 C   0  0  0  0  0  0  0  0  0  0  0  0
   -4.3570   24.2590  -28.0040 C   0  0  0  0  0  0  0  0  0  0  0  0
   -3.8450   24.5470  -26.7350 C   0  0  0  0  0  0  0  0  0  0  0  0
   -2.4930   24.8630  -26.5800 C   0  0  0  0  0  0  0  0  0  0  0  0
   -2.0010   25.1440  -25.3480 F   0  0  0  0  0  0  0  0  0  0  0  0
   -1.6530   24.8960  -27.6970 C   0  0  0  0  0  0  0  0  0  0  0  0
   -0.3430   25.2180  -27.5500 F   0  0  0  0  0  0  0  0  0  0  0  0
   -2.1600   24.6070  -28.9670 C   0  0  0  0  0  0  0  0  0  0  0  0
   -5.5760   20.0480  -32.4790 C   0  0  0  0  0  0  0  0  0  0  0  0
   -6.6590   19.1840  -32.4540 C   0  0  0  0  0  0  0  0  0  0  0  0
   -6.4640   17.9540  -32.6480 O   0  0  0  0  0  0  0  0  0  0  0  0
   -9.3980   18.5068  -31.1444 H   0  0  0  0  0  0  0  0  0  0  0  0
   -9.9777   19.1931  -32.6999 H   0  0  0  0  0  0  0  0  0  0  0  0
   -8.8488   17.7959  -32.6999 H   0  0  0  0  0  0  0  0  0  0  0  0
   -9.5211   21.6095  -30.3976 H   0  0  0  0  0  0  0  0  0  0  0  0
   -9.6080   22.6048  -31.8904 H   0  0  0  0  0  0  0  0  0  0  0  0
  -10.2515   20.9278  -31.8904 H   0  0  0  0  0  0  0  0  0  0  0  0
   -7.2660   23.6308  -30.8403 H   0  0  0  0  0  0  0  0  0  0  0  0
   -6.4000   23.9223  -32.3868 H   0  0  0  0  0  0  0  0  0  0  0  0
   -8.1789   23.6729  -32.3868 H   0  0  0  0  0  0  0  0  0  0  0  0
   -3.7255   21.7719  -32.8918 H   0  0  0  0  0  0  0  0  0  0  0  0
   -4.7828   23.2399  -32.8669 H   0  0  0  0  0  0  0  0  0  0  0  0
   -3.6490   21.8600  -30.4290 H   0  0  0  0  0  0  0  0  0  0  0  0
   -5.4242   24.0186  -28.1197 H   0  0  0  0  0  0  0  0  0  0  0  0
   -4.5078   24.5247  -25.8574 H   0  0  0  0  0  0  0  0  0  0  0  0
   -1.4939   24.6397  -29.8418 H   0  0  0  0  0  0  0  0  0  0  0  0
   -4.5639   19.6493  -32.6425 H   0  0  0  0  0  0  0  0  0  0  0  0
  1  2  1  0
  2  3  2  0
  3  4  1  0
  3  5  1  0
  5  6  1  0
  5  7  1  0
  7  8  1  0
  8  9  1  0
  9 10  1  0
 10 11  2  0
 10 12  1  0
 12 13  2  0
 13 14  1  0
 14 15  2  0
 15 16  1  0
 15 17  1  0
 17 18  1  0
 17 19  2  0
  7 20  2  0
 20 21  1  0
 21 22  2  0
 21  2  1  0
 19 12  1  0
  1 23  1  0
  1 24  1  0
  1 25  1  0
  4 26  1  0
  4 27  1  0
  4 28  1  0
  6 29  1  0
  6 30  1  0
  6 31  1  0
  8 32  1  0
  8 33  1  0
  9 34  1  0
 13 35  1  0
 14 36  1  0
 19 37  1  0
 20 38  1  0
M  END
>  <UniqueID>  (1) 
1

>  <SMILES>  (1) 
Cc1c(C)n(C)c(CNC(=O)c2ccc(F)c(F)c2)cc1=O

>  <Energy>  (1) 
50.46177921800108

>  <Genealogy>  (1) 
Cc1c(C)n(C)c(CNC(=O)c2ccc(F)c(F)c2)cc1=O (3D coordinates assigned)
Cc1c(C)n(C)c(CNC(=O)c2ccc(F)c(F)c2)cc1=O (optimized conformer: 50.46177921800108 kcal/mol)

>  <smiles>  (1) 
Cc1c(C)n(C)c(CNC(=O)c2ccc(F)c(F)c2)cc1=O

>  <score_type>  (1) 
oracle

>  <origin>  (1) 
adg

>  <m_score__min__energy>  (1) 
-7.9100000000000001

>  <m_primary>  (1) 
energy

$$$$
1:0
     RDKit          3D

 73 75  0  0  0  0  0  0  0  0999 V2000
   -5.4470   25.7180  -30.4730 C   0  0  0  0  0  0  0  0  0  0  0  0
   -5.4950   24.8690  -29.2010 C   0  0  0  0  0  0  0  0  0  0  0  0
   -4.1910   24.2890  -28.8130 N   0  0  0  0  0  0  0  0  0  0  0  0
   -4.0170   24.0640  -27.3550 C   0  0  0  0  0  0  0  0  0  0  0  0
   -2.8580   24.8400  -26.7120 C   0  0  0  0  0  0  0  0  0  0  0  0
   -3.7170   23.2190  -29.7200 C   0  0  0  0  0  0  0  0  0  0  0  0
   -2.1840   23.0920  -29.7170 C   0  0  0  0  0  0  0  0  0  0  0  0
   -1.6560   21.7960  -30.3500 C   0  0  0  0  0  0  0  0  0  0  0  0
   -2.6830   21.0910  -31.2430 C   0  0  0  0  0  0  0  0  0  0  0  0
   -2.9950   21.9090  -32.5120 C   0  0  0  0  0  0  0  0  0  0  0  0
   -3.8670   21.2200  -33.4780 N   0  0  0  0  0  0  0  0  0  0  0  0
   -5.0950   20.5370  -33.1560 C   0  0  0  0  0  0  0  0  0  0  0  0
   -6.1590   21.2480  -32.5630 C   0  0  0  0  0  0  0  0  0  0  0  0
   -6.0110   22.5990  -32.1790 C   0  0  0  0  0  0  0  0  0  0  0  0
   -7.0950   23.3300  -31.7020 C   0  0  0  0  0  0  0  0  0  0  0  0
   -8.3420   22.7300  -31.5920 C   0  0  0  0  0  0  0  0  0  0  0  0
   -8.4970   21.3800  -31.8990 C   0  0  0  0  0  0  0  0  0  0  0  0
   -7.3960   20.5960  -32.3320 C   0  0  0  0  0  0  0  0  0  0  0  0
   -7.5100   19.2370  -32.5290 N   0  0  0  0  0  0  0  0  0  0  0  0
   -8.6830   18.5120  -31.9860 C   0  0  0  0  0  0  0  0  0  0  0  0
   -6.5100   18.5410  -33.1830 C   0  0  0  0  0  0  0  0  0  0  0  0
   -6.7160   17.2090  -33.6140 C   0  0  0  0  0  0  0  0  0  0  0  0
   -5.6890   16.4680  -34.1750 C   0  0  0  0  0  0  0  0  0  0  0  0
   -4.4350   17.0270  -34.3440 C   0  0  0  0  0  0  0  0  0  0  0  0
   -4.1960   18.3730  -34.0170 C   0  0  0  0  0  0  0  0  0  0  0  0
   -2.9240   18.9410  -34.2240 O   0  0  0  0  0  0  0  0  0  0  0  0
   -1.6660   18.3580  -33.8720 C   0  0  0  0  0  0  0  0  0  0  0  0
   -0.4920   19.0760  -34.5530 C   0  0  0  0  0  0  0  0  0  0  0  0
   -0.5820   20.5400  -34.3880 N   0  0  0  0  0  0  0  0  0  0  0  0
   -0.0830   21.2170  -35.5970 C   0  0  0  0  0  0  0  0  0  0  0  0
    0.1870   20.9960  -33.2170 C   0  0  0  0  0  0  0  0  0  0  0  0
   -5.2540   19.1590  -33.4590 C   0  0  0  0  0  0  0  0  0  0  0  0
   -5.3868   26.7823  -30.2014 H   0  0  0  0  0  0  0  0  0  0  0  0
   -4.5631   25.4404  -31.0660 H   0  0  0  0  0  0  0  0  0  0  0  0
   -6.3565   25.5418  -31.0660 H   0  0  0  0  0  0  0  0  0  0  0  0
   -5.8504   25.5032  -28.3755 H   0  0  0  0  0  0  0  0  0  0  0  0
   -6.1688   24.0246  -29.4083 H   0  0  0  0  0  0  0  0  0  0  0  0
   -4.9481   24.3613  -26.8504 H   0  0  0  0  0  0  0  0  0  0  0  0
   -3.7765   22.9973  -27.2352 H   0  0  0  0  0  0  0  0  0  0  0  0
   -2.9421   24.7837  -25.6167 H   0  0  0  0  0  0  0  0  0  0  0  0
   -1.9012   24.3997  -27.0294 H   0  0  0  0  0  0  0  0  0  0  0  0
   -2.9006   25.8923  -27.0294 H   0  0  0  0  0  0  0  0  0  0  0  0
   -4.1524   22.2619  -29.3969 H   0  0  0  0  0  0  0  0  0  0  0  0
   -4.0326   23.4776  -30.7415 H   0  0  0  0  0  0  0  0  0  0  0  0
   -1.7667   23.9430  -30.2753 H   0  0  0  0  0  0  0  0  0  0  0  0
   -1.8711   23.0778  -28.6625 H   0  0  0  0  0  0  0  0  0  0  0  0
   -0.7736   22.0403  -30.9596 H   0  0  0  0  0  0  0  0  0  0  0  0
   -1.4155   21.1075  -29.5265 H   0  0  0  0  0  0  0  0  0  0  0  0
   -2.2826   20.1107  -31.5407 H   0  0  0  0  0  0  0  0  0  0  0  0
   -3.6153   20.9796  -30.6700 H   0  0  0  0  0  0  0  0  0  0  0  0
   -3.4894   22.8431  -32.2069 H   0  0  0  0  0  0  0  0  0  0  0  0
   -2.0347   22.0799  -33.0206 H   0  0  0  0  0  0  0  0  0  0  0  0
   -3.4860   21.0770  -34.4400 H   0  0  0  0  0  0  0  0  0  0  0  0
   -5.0250   23.0803  -32.2580 H   0  0  0  0  0  0  0  0  0  0  0  0
   -6.9637   24.3830  -31.4122 H   0  0  0  0  0  0  0  0  0  0  0  0
   -9.2089   23.3213  -31.2620 H   0  0  0  0  0  0  0  0  0  0  0  0
   -9.4889   20.9141  -31.8043 H   0  0  0  0  0  0  0  0  0  0  0  0
   -8.6500   18.5324  -30.8867 H   0  0  0  0  0  0  0  0  0  0  0  0
   -9.6070   18.9967  -32.3341 H   0  0  0  0  0  0  0  0  0  0  0  0
   -8.6626   17.4687  -32.3341 H   0  0  0  0  0  0  0  0  0  0  0  0
   -7.7108   16.7533  -33.5013 H   0  0  0  0  0  0  0  0  0  0  0  0
   -5.8716   15.4293  -34.4878 H   0  0  0  0  0  0  0  0  0  0  0  0
   -3.6144   16.4103  -34.7393 H   0  0  0  0  0  0  0  0  0  0  0  0
   -1.5373   18.4214  -32.7814 H   0  0  0  0  0  0  0  0  0  0  0  0
   -1.6684   17.3114  -34.2107 H   0  0  0  0  0  0  0  0  0  0  0  0
    0.4496   18.7235  -34.1066 H   0  0  0  0  0  0  0  0  0  0  0  0
   -0.5260   18.8479  -35.6286 H   0  0  0  0  0  0  0  0  0  0  0  0
    0.5464   22.0709  -35.3058 H   0  0  0  0  0  0  0  0  0  0  0  0
    0.5116   20.5100  -36.1941 H   0  0  0  0  0  0  0  0  0  0  0  0
   -0.9343   21.5758  -36.1941 H   0  0  0  0  0  0  0  0  0  0  0  0
   -0.3306   20.6891  -32.2962 H   0  0  0  0  0  0  0  0  0  0  0  0
    1.1910   20.5472  -33.2402 H   0  0  0  0  0  0  0  0  0  0  0  0
    0.2748   22.0922  -33.2402 H   0  0  0  0  0  0  0  0  0  0  0  0
  1  2  1  0
  2  3  1  0
  3  4  1  0
  4  5  1  0
  3  6  1  0
  6  7  1  0
  7  8  1  0
  8  9  1  0
  9 10  1  0
 10 11  1  0
 11 12  1  0
 12 13  2  0
 13 14  1  0
 14 15  2  0
 15 16  1  0
 16 17  2  0
 17 18  1  0
 18 19  2  0
 19 20  1  0
 19 21  1  0
 21 22  2  0
 22 23  1  0
 23 24  2  0
 24 25  1  0
 25 26  1  0
 26 27  1  0
 27 28  1  0
 28 29  1  0
 29 30  1  0
 29 31  1  0
 25 32  2  0
 32 12  1  0
 18 13  1  0
 32 21  1  0
  1 33  1  0
  1 34  1  0
  1 35  1  0
  2 36  1  0
  2 37  1  0
  4 38  1  0
  4 39  1  0
  5 40  1  0
  5 41  1  0
  5 42  1  0
  6 43  1  0
  6 44  1  0
  7 45  1  0
  7 46  1  0
  8 47  1  0
  8 48  1  0
  9 49  1  0
  9 50  1  0
 10 51  1  0
 10 52  1  0
 11 53  1  0
 14 54  1  0
 15 55  1  0
 16 56  1  0
 17 57  1  0
 20 58  1  0
 20 59  1  0
 20 60  1  0
 22 61  1  0
 23 62  1  0
 24 63  1  0
 27 64  1  0
 27 65  1  0
 28 66  1  0
 28 67  1  0
 30 68  1  0
 30 69  1  0
 30 70  1  0
 31 71  1  0
 31 72  1  0
 31 73  1  0
M  CHG  1  19   1
M  END
>  <UniqueID>  (2) 
2

>  <SMILES>  (2) 
CCN(CC)CCCCCNc1c2ccccc2[n+](C)c2cccc(OCCN(C)C)c12

>  <Energy>  (2) 
98.08720520969084

>  <Genealogy>  (2) 
CCN(CC)CCCCCNc1c2ccccc2[n+](C)c2cccc(OCCN(C)C)c12 (3D coordinates assigned)
CCN(CC)CCCCCNc1c2ccccc2[n+](C)c2cccc(OCCN(C)C)c12 (optimized conformer: 98.08720520969084 kcal/mol)

>  <smiles>  (2) 
CCN(CC)CCCCCNc1c2ccccc2[n+](C)c2cccc(OCCN(C)C)c12

>  <score_type>  (2) 
oracle

>  <origin>  (2) 
adg

>  <m_score__min__energy>  (2) 
-8.3100000000000005

>  <m_primary>  (2) 
energy

$$$$
2:0
     RDKit          3D

 38 39  0  0  0  0  0  0  0  0999 V2000
   -8.3610   19.5010  -32.2820 C   0  0  0  0  0  0  0  0  0  0  0  0
   -8.7480   20.9450  -31.9830 C   0  0  0  0  0  0  0  0  0  0  0  0
   -7.5850   21.8280  -32.1440 N   0  0  0  0  0  0  0  0  0  0  0  0
   -7.5250   22.8500  -31.0880 C   0  0  0  0  0  0  0  0  0  0  0  0
   -6.6040   24.0180  -31.4790 C   0  0  0  0  0  0  0  0  0  0  0  0
   -5.3330   23.5370  -32.0260 N   0  0  0  0  0  0  0  0  0  0  0  0
   -4.2010   23.1860  -31.2060 C   0  0  0  0  0  0  0  0  0  0  0  0
   -3.7680   21.8460  -31.1470 C   0  0  0  0  0  0  0  0  0  0  0  0
   -4.4560   20.8200  -31.8980 C   0  0  0  0  0  0  0  0  0  0  0  0
   -5.0070   20.0000  -32.5010 N   0  0  0  0  0  0  0  0  0  0  0  0
   -2.7060   21.5070  -30.3590 N   0  0  0  0  0  0  0  0  0  0  0  0
   -2.3060   20.1880  -30.3000 O   0  0  0  0  0  0  0  0  0  0  0  0
   -2.0440   22.4540  -29.6320 C   0  0  0  0  0  0  0  0  0  0  0  0
   -0.9550   22.1080  -28.8100 C   0  0  0  0  0  0  0  0  0  0  0  0
   -0.2790   23.0880  -28.0800 C   0  0  0  0  0  0  0  0  0  0  0  0
   -0.6660   24.4310  -28.1690 C   0  0  0  0  0  0  0  0  0  0  0  0
    0.0400   25.4740  -27.3540 C   0  0  0  0  0  0  0  0  0  0  0  0
   -1.7600   24.7840  -28.9710 C   0  0  0  0  0  0  0  0  0  0  0  0
   -2.4550   23.8050  -29.7100 C   0  0  0  0  0  0  0  0  0  0  0  0
   -3.5160   24.1420  -30.5040 N   0  0  0  0  0  0  0  0  0  0  0  0
   -3.8600   25.4690  -30.6470 O   0  0  0  0  0  0  0  0  0  0  0  0
   -8.2153   18.9573  -31.3370 H   0  0  0  0  0  0  0  0  0  0  0  0
   -9.1618   19.0194  -32.8624 H   0  0  0  0  0  0  0  0  0  0  0  0
   -7.4267   19.4844  -32.8624 H   0  0  0  0  0  0  0  0  0  0  0  0
   -9.5412   21.2593  -32.6772 H   0  0  0  0  0  0  0  0  0  0  0  0
   -9.1072   21.0118  -30.9455 H   0  0  0  0  0  0  0  0  0  0  0  0
   -6.7250   21.2380  -32.0470 H   0  0  0  0  0  0  0  0  0  0  0  0
   -8.5384   23.2391  -30.9104 H   0  0  0  0  0  0  0  0  0  0  0  0
   -7.1181   22.3814  -30.1798 H   0  0  0  0  0  0  0  0  0  0  0  0
   -7.1096   24.6340  -32.2372 H   0  0  0  0  0  0  0  0  0  0  0  0
   -6.3907   24.6079  -30.5754 H   0  0  0  0  0  0  0  0  0  0  0  0
   -5.2440   23.4490  -33.0630 H   0  0  0  0  0  0  0  0  0  0  0  0
   -0.6341   21.0580  -28.7421 H   0  0  0  0  0  0  0  0  0  0  0  0
    0.5625   22.8034  -27.4312 H   0  0  0  0  0  0  0  0  0  0  0  0
   -0.1033   25.2623  -26.2841 H   0  0  0  0  0  0  0  0  0  0  0  0
    1.1142   25.4588  -27.5901 H   0  0  0  0  0  0  0  0  0  0  0  0
   -0.3733   26.4657  -27.5901 H   0  0  0  0  0  0  0  0  0  0  0  0
   -2.0794   25.8352  -29.0243 H   0  0  0  0  0  0  0  0  0  0  0  0
  1  2  1  0
  2  3  1  0
  3  4  1  0
  4  5  1  0
  5  6  1  0
  6  7  1  0
  7  8  2  0
  8  9  1  0
  9 10  3  0
  8 11  1  0
 11 12  1  0
 11 13  2  0
 13 14  1  0
 14 15  2  0
 15 16  1  0
 16 17  1  0
 16 18  2  0
 18 19  1  0
 19 20  2  0
 20 21  1  0
 20  7  1  0
 19 13  1  0
  1 22  1  0
  1 23  1  0
  1 24  1  0
  2 25  1  0
  2 26  1  0
  3 27  1  0
  4 28  1  0
  4 29  1  0
  5 30  1  0
  5 31  1  0
  6 32  1  0
 14 33  1  0
 15 34  1  0
 17 35  1  0
 17 36  1  0
 17 37  1  0
 18 38  1  0
M  CHG  4  11   1  12  -1  20   1  21  -1
M  END
>  <UniqueID>  (3) 
3

>  <SMILES>  (3) 
CCNCCNc1c(C#N)[n+]([O-])c2ccc(C)cc2[n+]1[O-]

>  <Energy>  (3) 
44.18543363945402

>  <Genealogy>  (3) 
CCNCCNc1c(C#N)[n+]([O-])c2ccc(C)cc2[n+]1[O-] (3D coordinates assigned)
CCNCCNc1c(C#N)[n+]([O-])c2ccc(C)cc2[n+]1[O-] (optimized conformer: 44.18543363945402 kcal/mol)

>  <smiles>  (3) 
CCNCCNc1c(C#N)[n+]([O-])c2ccc(C)cc2[n+]1[O-]

>  <score_type>  (3) 
oracle

>  <origin>  (3) 
adg

>  <m_score__min__energy>  (3) 
-7.5899999999999999

>  <m_primary>  (3) 
energy

$$$$
3:0
     RDKit          3D

 55 57  0  0  0  0  0  0  0  0999 V2000
   -0.0290   27.8470  -24.4220 C   0  0  0  0  0  0  0  0  0  0  0  0
   -0.3830   26.8420  -23.3230 C   0  0  0  0  0  0  0  0  0  0  0  0
   -0.0790   25.4540  -23.7150 N   0  0  0  0  0  0  0  0  0  0  0  0
   -0.5780   25.1530  -25.0360 C   0  0  0  0  0  0  0  0  0  0  0  0
   -1.9420   25.2640  -25.3250 C   0  0  0  0  0  0  0  0  0  0  0  0
   -2.4060   24.9710  -26.6080 C   0  0  0  0  0  0  0  0  0  0  0  0
   -1.5440   24.5640  -27.5920 N   0  0  0  0  0  0  0  0  0  0  0  0
   -2.0760   24.2610  -28.9350 C   0  0  0  0  0  0  0  0  0  0  0  0
   -3.5990   24.5130  -29.0500 C   0  0  0  0  0  0  0  0  0  0  0  0
   -4.1450   24.4010  -30.4190 N   0  0  0  0  0  0  0  0  0  0  0  0
   -3.9370   23.0960  -31.0810 C   0  0  0  0  0  0  0  0  0  0  0  0
   -4.9010   22.8950  -32.2480 C   0  0  0  0  0  0  0  0  0  0  0  0
   -6.2720   23.0470  -31.7580 N   0  0  0  0  0  0  0  0  0  0  0  0
   -7.2160   21.9700  -31.8990 C   0  0  0  0  0  0  0  0  0  0  0  0
   -8.5920   22.2400  -31.8350 C   0  0  0  0  0  0  0  0  0  0  0  0
   -9.5240   21.2160  -32.0060 C   0  0  0  0  0  0  0  0  0  0  0  0
   -9.0910   19.9090  -32.2340 C   0  0  0  0  0  0  0  0  0  0  0  0
   -7.7250   19.6230  -32.2860 C   0  0  0  0  0  0  0  0  0  0  0  0
   -6.7730   20.6490  -32.1120 C   0  0  0  0  0  0  0  0  0  0  0  0
   -5.3940   20.3880  -32.1270 O   0  0  0  0  0  0  0  0  0  0  0  0
   -4.7360   19.5650  -33.0860 C   0  0  0  0  0  0  0  0  0  0  0  0
   -6.6120   24.1980  -30.9090 C   0  0  0  0  0  0  0  0  0  0  0  0
   -5.4070   25.1300  -30.6900 C   0  0  0  0  0  0  0  0  0  0  0  0
   -0.1960   24.4940  -27.3370 C   0  0  0  0  0  0  0  0  0  0  0  0
    0.6180   24.1870  -28.2510 O   0  0  0  0  0  0  0  0  0  0  0  0
    0.2990   24.7730  -26.0590 C   0  0  0  0  0  0  0  0  0  0  0  0
    0.3032   28.7900  -23.9633 H   0  0  0  0  0  0  0  0  0  0  0  0
    0.7792   27.4382  -25.0462 H   0  0  0  0  0  0  0  0  0  0  0  0
   -0.9150   28.0350  -25.0462 H   0  0  0  0  0  0  0  0  0  0  0  0
    0.1934   27.0886  -22.4192 H   0  0  0  0  0  0  0  0  0  0  0  0
   -1.4656   26.9106  -23.1404 H   0  0  0  0  0  0  0  0  0  0  0  0
    0.9600   25.3270  -23.7090 H   0  0  0  0  0  0  0  0  0  0  0  0
   -0.4720   24.7880  -23.0090 H   0  0  0  0  0  0  0  0  0  0  0  0
   -2.6472   25.5815  -24.5428 H   0  0  0  0  0  0  0  0  0  0  0  0
   -3.4785   25.0681  -26.8324 H   0  0  0  0  0  0  0  0  0  0  0  0
   -1.5586   24.8962  -29.6691 H   0  0  0  0  0  0  0  0  0  0  0  0
   -1.9028   23.1915  -29.1253 H   0  0  0  0  0  0  0  0  0  0  0  0
   -4.1161   23.7791  -28.4144 H   0  0  0  0  0  0  0  0  0  0  0  0
   -3.7649   25.5538  -28.7350 H   0  0  0  0  0  0  0  0  0  0  0  0
   -2.9050   23.0483  -31.4588 H   0  0  0  0  0  0  0  0  0  0  0  0
   -4.1231   22.3029  -30.3418 H   0  0  0  0  0  0  0  0  0  0  0  0
   -4.7011   23.6461  -33.0264 H   0  0  0  0  0  0  0  0  0  0  0  0
   -4.7659   21.8907  -32.6760 H   0  0  0  0  0  0  0  0  0  0  0  0
   -8.9383   23.2673  -31.6485 H   0  0  0  0  0  0  0  0  0  0  0  0
  -10.6003   21.4388  -31.9611 H   0  0  0  0  0  0  0  0  0  0  0  0
   -9.8266   19.1030  -32.3729 H   0  0  0  0  0  0  0  0  0  0  0  0
   -7.3893   18.5907  -32.4638 H   0  0  0  0  0  0  0  0  0  0  0  0
   -4.1308   18.8080  -32.5658 H   0  0  0  0  0  0  0  0  0  0  0  0
   -5.4861   19.0650  -33.7163 H   0  0  0  0  0  0  0  0  0  0  0  0
   -4.0831   20.1867  -33.7163 H   0  0  0  0  0  0  0  0  0  0  0  0
   -7.4191   24.7688  -31.3914 H   0  0  0  0  0  0  0  0  0  0  0  0
   -6.9271   23.8143  -29.9274 H   0  0  0  0  0  0  0  0  0  0  0  0
   -5.2698   25.7419  -31.5937 H   0  0  0  0  0  0  0  0  0  0  0  0
   -5.6260   25.7438  -29.8039 H   0  0  0  0  0  0  0  0  0  0  0  0
    1.3775   24.6939  -25.8576 H   0  0  0  0  0  0  0  0  0  0  0  0
  1  2  1  0
  2  3  1  0
  3  4  1  0
  4  5  1  0
  5  6  2  0
  6  7  1  0
  7  8  1  0
  8  9  1  0
  9 10  1  0
 10 11  1  0
 11 12  1  0
 12 13  1  0
 13 14  1  0
 14 15  2  0
 15 16  1  0
 16 17  2  0
 17 18  1  0
 18 19  2  0
 19 20  1  0
 20 21  1  0
 13 22  1  0
 22 23  1  0
  7 24  1  0
 24 25  2  0
 24 26  1  0
 26  4  2  0
 23 10  1  0
 19 14  1  0
  1 27  1  0
  1 28  1  0
  1 29  1  0
  2 30  1  0
  2 31  1  0
  3 32  1  0
  3 33  1  0
  5 34  1  0
  6 35  1  0
  8 36  1  0
  8 37  1  0
  9 38  1  0
  9 39  1  0
 11 40  1  0
 11 41  1  0
 12 42  1  0
 12 43  1  0
 15 44  1  0
 16 45  1  0
 17 46  1  0
 18 47  1  0
 21 48  1  0
 21 49  1  0
 21 50  1  0
 22 51  1  0
 22 52  1  0
 23 53  1  0
 23 54  1  0
 26 55  1  0
M  CHG  1   3   1
M  END
>  <UniqueID>  (4) 
4

>  <SMILES>  (4) 
CC[NH2+]c1ccn(CCN2CCN(c3ccccc3OC)CC2)c(=O)c1

>  <Energy>  (4) 
71.80235525682284

>  <Genealogy>  (4) 
CC[NH2+]c1ccn(CCN2CCN(c3ccccc3OC)CC2)c(=O)c1 (protonated)
CC[NH2+]c1ccn(CCN2CCN(c3ccccc3OC)CC2)c(=O)c1 (3D coordinates assigned)
CC[NH2+]c1ccn(CCN2CCN(c3ccccc3OC)CC2)c(=O)c1 (nonaromatic ring conformer: 71.80235525682284 kcal/mol)

>  <smiles>  (4) 
CCNc1ccn(CCN2CCN(c3ccccc3OC)CC2)c(=O)c1

>  <score_type>  (4) 
oracle

>  <origin>  (4) 
adg

>  <m_score__min__energy>  (4) 
-9.1199999999999992

>  <m_primary>  (4) 
energy

$$$$
4:0
     RDKit          3D

 47 50  0  0  0  0  0  0  0  0999 V2000
   -2.6800   24.5700  -27.1610 C   0  0  0  0  0  0  0  0  0  0  0  0
   -1.6230   24.8300  -28.2270 C   0  0  0  0  0  0  0  0  0  0  0  0
   -1.6580   23.7780  -29.2410 N   0  0  0  0  0  0  0  0  0  0  0  0
   -0.6210   23.0230  -29.6860 C   0  0  0  0  0  0  0  0  0  0  0  0
   -0.9770   22.2030  -30.7080 N   0  0  0  0  0  0  0  0  0  0  0  0
   -2.2800   22.4750  -30.9050 C   0  0  0  0  0  0  0  0  0  0  0  0
   -3.1650   21.9790  -31.8490 C   0  0  0  0  0  0  0  0  0  0  0  0
   -2.8160   21.1070  -32.6870 O   0  0  0  0  0  0  0  0  0  0  0  0
   -4.4370   22.4750  -31.8480 N   0  0  0  0  0  0  0  0  0  0  0  0
   -4.8360   23.4340  -30.9440 C   0  0  0  0  0  0  0  0  0  0  0  0
   -6.2290   24.0200  -31.0020 C   0  0  0  0  0  0  0  0  0  0  0  0
   -6.8600   23.7780  -32.3840 C   0  0  0  0  0  0  0  0  0  0  0  0
   -7.2190   22.2930  -32.6200 C   0  0  0  0  0  0  0  0  0  0  0  0
   -7.3210   21.5190  -31.3590 N   0  0  0  0  0  0  0  0  0  0  0  0
   -7.9750   20.2150  -31.5790 C   0  0  0  0  0  0  0  0  0  0  0  0
   -7.0770   19.3150  -32.3810 C   0  0  0  0  0  0  0  0  0  0  0  0
   -7.4700   18.0080  -32.7080 C   0  0  0  0  0  0  0  0  0  0  0  0
   -6.6270   17.2170  -33.4890 C   0  0  0  0  0  0  0  0  0  0  0  0
   -5.4090   17.7320  -33.9390 C   0  0  0  0  0  0  0  0  0  0  0  0
   -5.0540   19.0380  -33.6000 C   0  0  0  0  0  0  0  0  0  0  0  0
   -5.8880   19.7950  -32.8380 N   0  0  0  0  0  0  0  0  0  0  0  0
   -8.0180   22.2950  -30.3180 C   0  0  0  0  0  0  0  0  0  0  0  0
   -7.1540   23.4930  -29.8760 C   0  0  0  0  0  0  0  0  0  0  0  0
   -3.9430   23.9260  -30.0290 N   0  0  0  0  0  0  0  0  0  0  0  0
   -2.6850   23.4210  -30.0270 C   0  0  0  0  0  0  0  0  0  0  0  0
   -2.2298   24.6808  -26.1635 H   0  0  0  0  0  0  0  0  0  0  0  0
   -3.5012   25.2929  -27.2749 H   0  0  0  0  0  0  0  0  0  0  0  0
   -3.0722   23.5486  -27.2749 H   0  0  0  0  0  0  0  0  0  0  0  0
   -1.8199   25.8013  -28.7044 H   0  0  0  0  0  0  0  0  0  0  0  0
   -0.6303   24.8383  -27.7531 H   0  0  0  0  0  0  0  0  0  0  0  0
    0.3943   23.0703  -29.2655 H   0  0  0  0  0  0  0  0  0  0  0  0
   -0.3710   21.5370  -31.2370 H   0  0  0  0  0  0  0  0  0  0  0  0
   -6.1237   25.1027  -30.8388 H   0  0  0  0  0  0  0  0  0  0  0  0
   -7.7776   24.3794  -32.4628 H   0  0  0  0  0  0  0  0  0  0  0  0
   -6.1197   24.0674  -33.1443 H   0  0  0  0  0  0  0  0  0  0  0  0
   -8.1861   22.2439  -33.1418 H   0  0  0  0  0  0  0  0  0  0  0  0
   -6.4099   21.8476  -33.2175 H   0  0  0  0  0  0  0  0  0  0  0  0
   -8.1863   19.7455  -30.6070 H   0  0  0  0  0  0  0  0  0  0  0  0
   -8.9134   20.3717  -32.1311 H   0  0  0  0  0  0  0  0  0  0  0  0
   -8.4324   17.6115  -32.3523 H   0  0  0  0  0  0  0  0  0  0  0  0
   -6.9209   16.1896  -33.7500 H   0  0  0  0  0  0  0  0  0  0  0  0
   -4.7373   17.1148  -34.5537 H   0  0  0  0  0  0  0  0  0  0  0  0
   -4.0984   19.4558  -33.9495 H   0  0  0  0  0  0  0  0  0  0  0  0
   -8.9731   22.6647  -30.7193 H   0  0  0  0  0  0  0  0  0  0  0  0
   -8.2008   21.6455  -29.4493 H   0  0  0  0  0  0  0  0  0  0  0  0
   -7.8210   24.3085  -29.5597 H   0  0  0  0  0  0  0  0  0  0  0  0
   -6.5089   23.1483  -29.0544 H   0  0  0  0  0  0  0  0  0  0  0  0
  1  2  1  0
  2  3  1  0
  3  4  1  0
  4  5  2  0
  5  6  1  0
  6  7  1  0
  7  8  2  0
  7  9  1  0
  9 10  2  0
 10 11  1  0
 11 12  1  0
 12 13  1  0
 13 14  1  0
 14 15  1  0
 15 16  1  0
 16 17  2  0
 17 18  1  0
 18 19  2  0
 19 20  1  0
 20 21  2  0
 14 22  1  0
 22 23  1  0
 10 24  1  0
 24 25  1  0
 25  3  1  0
 25  6  2  0
 23 11  1  0
 21 16  1  0
  1 26  1  0
  1 27  1  0
  1 28  1  0
  2 29  1  0
  2 30  1  0
  4 31  1  0
  5 32  1  0
 11 33  1  0
 12 34  1  0
 12 35  1  0
 13 36  1  0
 13 37  1  0
 15 38  1  0
 15 39  1  0
 17 40  1  0
 18 41  1  0
 19 42  1  0
 20 43  1  0
 22 44  1  0
 22 45  1  0
 23 46  1  0
 23 47  1  0
M  CHG  2   5   1  24  -1
M  END
>  <UniqueID>  (5) 
5

>  <SMILES>  (5) 
CCn1c[nH+]c2c(=O)nc(C3CCN(Cc4ccccn4)CC3)[n-]c21

>  <Energy>  (5) 
95.06500297755495

>  <Genealogy>  (5) 
CCn1c[nH+]c2c(=O)nc(C3CCN(Cc4ccccn4)CC3)[n-]c21 (protonated)
CCn1c[nH+]c2c(=O)nc(C3CCN(Cc4ccccn4)CC3)[n-]c21 (3D coordinates assigned)
CCn1c[nH+]c2c(=O)nc(C3CCN(Cc4ccccn4)CC3)[n-]c21 (nonaromatic ring conformer: 95.06500297755495 kcal/mol)

>  <smiles>  (5) 
CCn1cnc2c(=O)nc(C3CCN(Cc4ccccn4)CC3)[nH]c21

>  <score_type>  (5) 
oracle

>  <origin>  (5) 
adg

>  <m_score__min__energy>  (5) 
-8.5

>  <m_primary>  (5) 
energy

$$$$
5:0
     RDKit          3D

 26 27  0  0  0  0  0  0  0  0999 V2000
   -7.0820   20.6700  -32.5720 C   0  0  0  0  0  0  0  0  0  0  0  0
   -8.1860   21.1650  -31.7300 N   0  0  0  0  0  0  0  0  0  0  0  0
   -9.4560   20.5880  -32.1980 C   0  0  0  0  0  0  0  0  0  0  0  0
   -8.2570   22.6390  -31.7700 C   0  0  0  0  0  0  0  0  0  0  0  0
   -6.9150   23.2370  -31.4750 C   0  0  0  0  0  0  0  0  0  0  0  0
   -6.3650   23.2750  -30.2430 N   0  0  0  0  0  0  0  0  0  0  0  0
   -5.1720   23.8560  -30.5030 C   0  0  0  0  0  0  0  0  0  0  0  0
   -4.1590   24.1430  -29.4850 C   0  0  0  0  0  0  0  0  0  0  0  0
   -4.1800   23.7100  -28.1730 C   0  0  0  0  0  0  0  0  0  0  0  0
   -3.0340   24.2170  -27.5990 C   0  0  0  0  0  0  0  0  0  0  0  0
   -2.3880   24.9260  -28.5920 C   0  0  0  0  0  0  0  0  0  0  0  0
   -3.0830   24.8630  -29.7040 O   0  0  0  0  0  0  0  0  0  0  0  0
   -5.0290   24.1320  -31.7770 O   0  0  0  0  0  0  0  0  0  0  0  0
   -6.0970   23.7560  -32.4070 N   0  0  0  0  0  0  0  0  0  0  0  0
   -6.2668   20.3045  -31.9302 H   0  0  0  0  0  0  0  0  0  0  0  0
   -7.4451   19.8485  -33.2071 H   0  0  0  0  0  0  0  0  0  0  0  0
   -6.7102   21.4876  -33.2071 H   0  0  0  0  0  0  0  0  0  0  0  0
  -10.0728   20.3078  -31.3314 H   0  0  0  0  0  0  0  0  0  0  0  0
   -9.9938   21.3301  -32.8062 H   0  0  0  0  0  0  0  0  0  0  0  0
   -9.2508   19.6947  -32.8062 H   0  0  0  0  0  0  0  0  0  0  0  0
   -8.5838   22.9587  -32.7705 H   0  0  0  0  0  0  0  0  0  0  0  0
   -8.9742   22.9815  -31.0095 H   0  0  0  0  0  0  0  0  0  0  0  0
   -4.9494   23.0909  -27.6885 H   0  0  0  0  0  0  0  0  0  0  0  0
   -2.7011   24.0836  -26.5591 H   0  0  0  0  0  0  0  0  0  0  0  0
   -1.4354   25.4624  -28.4700 H   0  0  0  0  0  0  0  0  0  0  0  0
   -6.2610   23.8410  -33.4350 H   0  0  0  0  0  0  0  0  0  0  0  0
  1  2  1  0
  2  3  1  0
  2  4  1  0
  4  5  1  0
  5  6  1  0
  6  7  2  0
  7  8  1  0
  8  9  2  0
  9 10  1  0
 10 11  2  0
 11 12  1  0
  7 13  1  0
 13 14  1  0
 14  5  2  0
 12  8  1  0
  1 15  1  0
  1 16  1  0
  1 17  1  0
  3 18  1  0
  3 19  1  0
  3 20  1  0
  4 21  1  0
  4 22  1  0
  9 23  1  0
 10 24  1  0
 11 25  1  0
 14 26  1  0
M  CHG  1  14   1
M  END
>  <UniqueID>  (6) 
6

>  <SMILES>  (6) 
CN(C)Cc1nc(-c2ccco2)o[nH+]1

>  <Energy>  (6) 
83.71928919997438

>  <Genealogy>  (6) 
CN(C)Cc1nc(-c2ccco2)o[nH+]1 (protonated)
CN(C)Cc1nc(-c2ccco2)o[nH+]1 (3D coordinates assigned)
CN(C)Cc1nc(-c2ccco2)o[nH+]1 (optimized conformer: 83.71928919997438 kcal/mol)

>  <smiles>  (6) 
CN(C)Cc1noc(-c2ccco2)n1

>  <score_type>  (6) 
oracle

>  <origin>  (6) 
adg

>  <m_score__min__energy>  (6) 
-5.4400000000000004

>  <m_primary>  (6) 
energy

$$$$
6:0
     RDKit          3D

 49 51  0  0  0  0  0  0  0  0999 V2000
   -9.4790   23.4260  -32.3080 C   0  0  0  0  0  0  0  0  0  0  0  0
   -9.8280   21.9370  -32.2730 C   0  0  0  0  0  0  0  0  0  0  0  0
   -8.7910   21.1490  -31.5670 N   0  0  0  0  0  0  0  0  0  0  0  0
   -8.6690   21.5860  -30.1610 C   0  0  0  0  0  0  0  0  0  0  0  0
   -9.1000   19.7010  -31.6310 C   0  0  0  0  0  0  0  0  0  0  0  0
   -8.1380   18.9960  -32.6000 C   0  0  0  0  0  0  0  0  0  0  0  0
   -7.4240   19.9400  -33.4870 N   0  0  0  0  0  0  0  0  0  0  0  0
   -5.9930   20.0010  -33.2090 C   0  0  0  0  0  0  0  0  0  0  0  0
   -5.1040   18.9840  -33.6650 C   0  0  0  0  0  0  0  0  0  0  0  0
   -5.5390   17.9040  -34.4770 C   0  0  0  0  0  0  0  0  0  0  0  0
   -4.6430   16.9540  -34.9590 C   0  0  0  0  0  0  0  0  0  0  0  0
   -3.2940   17.0530  -34.6590 C   0  0  0  0  0  0  0  0  0  0  0  0
   -2.8360   18.0860  -33.8490 C   0  0  0  0  0  0  0  0  0  0  0  0
   -3.7260   19.0470  -33.3040 C   0  0  0  0  0  0  0  0  0  0  0  0
   -3.2740   20.0300  -32.4510 N   0  0  0  0  0  0  0  0  0  0  0  0
   -1.9440   19.8970  -31.8100 C   0  0  0  0  0  0  0  0  0  0  0  0
   -4.0670   21.1210  -32.1660 C   0  0  0  0  0  0  0  0  0  0  0  0
   -3.5260   22.2820  -31.5530 C   0  0  0  0  0  0  0  0  0  0  0  0
   -4.3340   23.3690  -31.1890 C   0  0  0  0  0  0  0  0  0  0  0  0
   -3.7670   24.5330  -30.5570 N   0  0  0  0  0  0  0  0  0  0  0  0
   -4.2340   25.6690  -30.7740 O   0  0  0  0  0  0  0  0  0  0  0  0
   -2.6950   24.4120  -29.7030 O   0  0  0  0  0  0  0  0  0  0  0  0
   -5.7010   23.3070  -31.4530 C   0  0  0  0  0  0  0  0  0  0  0  0
   -6.2510   22.2050  -32.0990 C   0  0  0  0  0  0  0  0  0  0  0  0
   -5.4490   21.1070  -32.4950 C   0  0  0  0  0  0  0  0  0  0  0  0
   -9.3899   23.8060  -31.2796 H   0  0  0  0  0  0  0  0  0  0  0  0
   -8.5236   23.5664  -32.8348 H   0  0  0  0  0  0  0  0  0  0  0  0
  -10.2725   23.9763  -32.8348 H   0  0  0  0  0  0  0  0  0  0  0  0
  -10.7891   21.8080  -31.7538 H   0  0  0  0  0  0  0  0  0  0  0  0
   -9.8889   21.5740  -33.3096 H   0  0  0  0  0  0  0  0  0  0  0  0
   -8.9041   20.7438  -29.4936 H   0  0  0  0  0  0  0  0  0  0  0  0
   -7.6410   21.9283  -29.9713 H   0  0  0  0  0  0  0  0  0  0  0  0
   -9.3711   22.4113  -29.9713 H   0  0  0  0  0  0  0  0  0  0  0  0
   -8.9925   19.2617  -30.6283 H   0  0  0  0  0  0  0  0  0  0  0  0
  -10.1315   19.5694  -31.9897 H   0  0  0  0  0  0  0  0  0  0  0  0
   -7.3956   18.4357  -32.0127 H   0  0  0  0  0  0  0  0  0  0  0  0
   -8.7389   18.3317  -33.2385 H   0  0  0  0  0  0  0  0  0  0  0  0
   -7.5660   19.6460  -34.4790 H   0  0  0  0  0  0  0  0  0  0  0  0
   -7.8840   20.8740  -33.4720 H   0  0  0  0  0  0  0  0  0  0  0  0
   -6.6058   17.8160  -34.7305 H   0  0  0  0  0  0  0  0  0  0  0  0
   -5.0071   16.1222  -35.5799 H   0  0  0  0  0  0  0  0  0  0  0  0
   -2.5854   16.3143  -35.0617 H   0  0  0  0  0  0  0  0  0  0  0  0
   -1.7613   18.1597  -33.6261 H   0  0  0  0  0  0  0  0  0  0  0  0
   -2.0613   19.9087  -30.7163 H   0  0  0  0  0  0  0  0  0  0  0  0
   -1.4813   18.9481  -32.1190 H   0  0  0  0  0  0  0  0  0  0  0  0
   -1.3025   20.7355  -32.1190 H   0  0  0  0  0  0  0  0  0  0  0  0
   -2.4444   22.3301  -31.3585 H   0  0  0  0  0  0  0  0  0  0  0  0
   -6.3523   24.1390  -31.1470 H   0  0  0  0  0  0  0  0  0  0  0  0
   -7.3311   22.1858  -32.3066 H   0  0  0  0  0  0  0  0  0  0  0  0
  1  2  1  0
  2  3  1  0
  3  4  1  0
  3  5  1  0
  5  6  1  0
  6  7  1  0
  7  8  1  0
  8  9  2  0
  9 10  1  0
 10 11  2  0
 11 12  1  0
 12 13  2  0
 13 14  1  0
 14 15  2  0
 15 16  1  0
 15 17  1  0
 17 18  2  0
 18 19  1  0
 19 20  1  0
 20 21  2  0
 20 22  1  0
 19 23  2  0
 23 24  1  0
 24 25  2  0
 25  8  1  0
 14  9  1  0
 25 17  1  0
  1 26  1  0
  1 27  1  0
  1 28  1  0
  2 29  1  0
  2 30  1  0
  4 31  1  0
  4 32  1  0
  4 33  1  0
  5 34  1  0
  5 35  1  0
  6 36  1  0
  6 37  1  0
  7 38  1  0
  7 39  1  0
 10 40  1  0
 11 41  1  0
 12 42  1  0
 13 43  1  0
 16 44  1  0
 16 45  1  0
 16 46  1  0
 18 47  1  0
 23 48  1  0
 24 49  1  0
M  CHG  4   7   1  15   1  20   1  22  -1
M  END
>  <UniqueID>  (7) 
7

>  <SMILES>  (7) 
CCN(C)CC[NH2+]c1c2ccccc2[n+](C)c2cc([N+](=O)[O-])ccc12

>  <Energy>  (7) 
81.68439949898071

>  <Genealogy>  (7) 
CCN(C)CC[NH2+]c1c2ccccc2[n+](C)c2cc([N+](=O)[O-])ccc12 (protonated)
CCN(C)CC[NH2+]c1c2ccccc2[n+](C)c2cc([N+](=O)[O-])ccc12 (3D coordinates assigned)
CCN(C)CC[NH2+]c1c2ccccc2[n+](C)c2cc([N+](=O)[O-])ccc12 (optimized conformer: 81.68439949898071 kcal/mol)

>  <smiles>  (7) 
CCN(C)CCNc1c2ccccc2[n+](C)c2cc([N+](=O)[O-])ccc12

>  <score_type>  (7) 
oracle

>  <origin>  (7) 
adg

>  <m_score__min__energy>  (7) 
-8.0099999999999998

>  <m_primary>  (7) 
energy

$$$$
7:0
     RDKit          3D

 69 72  0  0  0  0  0  0  0  0999 V2000
   -3.4240   18.5940  -26.0690 C   0  0  0  0  0  0  0  0  0  0  0  0
   -2.3030   19.5740  -26.4100 C   0  0  0  0  0  0  0  0  0  0  0  0
   -1.9180   19.4780  -27.8380 N   0  0  0  0  0  0  0  0  0  0  0  0
   -0.6330   18.7530  -28.0250 C   0  0  0  0  0  0  0  0  0  0  0  0
    0.4150   19.7080  -28.5870 C   0  0  0  0  0  0  0  0  0  0  0  0
   -1.8860   20.8220  -28.4580 C   0  0  0  0  0  0  0  0  0  0  0  0
   -3.1220   21.6480  -28.0850 C   0  0  0  0  0  0  0  0  0  0  0  0
   -3.8590   21.9380  -29.2560 O   0  0  0  0  0  0  0  0  0  0  0  0
   -4.3680   23.2540  -29.1890 C   0  0  0  0  0  0  0  0  0  0  0  0
   -3.8060   24.0810  -30.3490 C   0  0  0  0  0  0  0  0  0  0  0  0
   -4.8470   24.4940  -31.2180 O   0  0  0  0  0  0  0  0  0  0  0  0
   -6.1270   24.3770  -30.6210 C   0  0  0  0  0  0  0  0  0  0  0  0
   -7.0690   23.4680  -31.4380 C   0  0  0  0  0  0  0  0  0  0  0  0
   -6.4650   23.0200  -32.7070 N   0  0  0  0  0  0  0  0  0  0  0  0
   -5.9370   21.6630  -32.6060 C   0  0  0  0  0  0  0  0  0  0  0  0
   -4.5530   21.5940  -32.3760 C   0  0  0  0  0  0  0  0  0  0  0  0
   -3.7460   20.4850  -32.4190 C   0  0  0  0  0  0  0  0  0  0  0  0
   -2.3670   20.4860  -32.3030 C   0  0  0  0  0  0  0  0  0  0  0  0
   -1.4740   21.4960  -31.9180 C   0  0  0  0  0  0  0  0  0  0  0  0
   -0.0980   21.2040  -31.9220 C   0  0  0  0  0  0  0  0  0  0  0  0
    0.3570   19.9200  -32.2920 C   0  0  0  0  0  0  0  0  0  0  0  0
   -0.5570   18.9310  -32.6940 C   0  0  0  0  0  0  0  0  0  0  0  0
   -1.9130   19.2540  -32.7040 C   0  0  0  0  0  0  0  0  0  0  0  0
   -2.9160   18.4400  -33.0780 N   0  0  0  0  0  0  0  0  0  0  0  0
   -4.0580   19.1560  -32.9110 C   0  0  0  0  0  0  0  0  0  0  0  0
   -5.2910   18.6210  -33.1270 N   0  0  0  0  0  0  0  0  0  0  0  0
   -5.3210   17.3220  -33.8350 C   0  0  0  0  0  0  0  0  0  0  0  0
   -6.4630   19.1250  -32.5920 C   0  0  0  0  0  0  0  0  0  0  0  0
   -7.4410   18.1750  -32.1880 C   0  0  0  0  0  0  0  0  0  0  0  0
   -8.7650   18.5230  -31.9610 C   0  0  0  0  0  0  0  0  0  0  0  0
   -9.1680   19.8240  -32.1570 C   0  0  0  0  0  0  0  0  0  0  0  0
   -8.2350   20.8020  -32.4740 C   0  0  0  0  0  0  0  0  0  0  0  0
   -6.8340   20.5280  -32.5760 C   0  0  0  0  0  0  0  0  0  0  0  0
   -3.5188   18.5111  -24.9762 H   0  0  0  0  0  0  0  0  0  0  0  0
   -4.3714   18.9588  -26.4926 H   0  0  0  0  0  0  0  0  0  0  0  0
   -3.1891   17.6064  -26.4926 H   0  0  0  0  0  0  0  0  0  0  0  0
   -2.6461   20.5978  -26.1997 H   0  0  0  0  0  0  0  0  0  0  0  0
   -1.4250   19.3234  -25.7966 H   0  0  0  0  0  0  0  0  0  0  0  0
   -0.2893   18.3609  -27.0564 H   0  0  0  0  0  0  0  0  0  0  0  0
   -0.7822   17.9194  -28.7271 H   0  0  0  0  0  0  0  0  0  0  0  0
    0.9494   20.1950  -27.7580 H   0  0  0  0  0  0  0  0  0  0  0  0
    1.1307   19.1450  -29.2042 H   0  0  0  0  0  0  0  0  0  0  0  0
   -0.0792   20.4728  -29.2042 H   0  0  0  0  0  0  0  0  0  0  0  0
   -0.9858   21.3521  -28.1136 H   0  0  0  0  0  0  0  0  0  0  0  0
   -1.8752   20.6954  -29.5506 H   0  0  0  0  0  0  0  0  0  0  0  0
   -3.7505   21.0749  -27.3874 H   0  0  0  0  0  0  0  0  0  0  0  0
   -2.8078   22.5864  -27.6047 H   0  0  0  0  0  0  0  0  0  0  0  0
   -5.4655   23.2261  -29.2571 H   0  0  0  0  0  0  0  0  0  0  0  0
   -4.0703   23.7131  -28.2347 H   0  0  0  0  0  0  0  0  0  0  0  0
   -3.2974   24.9694  -29.9464 H   0  0  0  0  0  0  0  0  0  0  0  0
   -3.0964   23.4603  -30.9158 H   0  0  0  0  0  0  0  0  0  0  0  0
   -6.0105   23.9521  -29.6131 H   0  0  0  0  0  0  0  0  0  0  0  0
   -6.5752   25.3808  -30.5823 H   0  0  0  0  0  0  0  0  0  0  0  0
   -7.3162   22.5828  -30.8336 H   0  0  0  0  0  0  0  0  0  0  0  0
   -7.9665   24.0542  -31.6848 H   0  0  0  0  0  0  0  0  0  0  0  0
   -5.7390   23.6930  -33.0350 H   0  0  0  0  0  0  0  0  0  0  0  0
   -7.1820   23.1020  -33.4660 H   0  0  0  0  0  0  0  0  0  0  0  0
   -4.0557   22.5443  -32.1318 H   0  0  0  0  0  0  0  0  0  0  0  0
   -1.8396   22.4900  -31.6208 H   0  0  0  0  0  0  0  0  0  0  0  0
    0.6270   21.9800  -31.6354 H   0  0  0  0  0  0  0  0  0  0  0  0
    1.4328   19.6923  -32.2655 H   0  0  0  0  0  0  0  0  0  0  0  0
   -0.2120   17.9300  -32.9924 H   0  0  0  0  0  0  0  0  0  0  0  0
   -5.3399   16.5040  -33.0998 H   0  0  0  0  0  0  0  0  0  0  0  0
   -6.2206   17.2689  -34.4658 H   0  0  0  0  0  0  0  0  0  0  0  0
   -4.4248   17.2274  -34.4658 H   0  0  0  0  0  0  0  0  0  0  0  0
   -7.1371   17.1268  -32.0505 H   0  0  0  0  0  0  0  0  0  0  0  0
   -9.4875   17.7639  -31.6266 H   0  0  0  0  0  0  0  0  0  0  0  0
  -10.2312   20.0896  -32.0624 H   0  0  0  0  0  0  0  0  0  0  0  0
   -8.5867   21.8286  -32.6540 H   0  0  0  0  0  0  0  0  0  0  0  0
  1  2  1  0
  2  3  1  0
  3  4  1  0
  4  5  1  0
  3  6  1  0
  6  7  1  0
  7  8  1  0
  8  9  1  0
  9 10  1  0
 10 11  1  0
 11 12  1  0
 12 13  1  0
 13 14  1  0
 14 15  1  0
 15 16  2  0
 16 17  1  0
 17 18  2  0
 18 19  1  0
 19 20  2  0
 20 21  1  0
 21 22  2  0
 22 23  1  0
 23 24  2  0
 24 25  1  0
 25 26  2  0
 26 27  1  0
 26 28  1  0
 28 29  2  0
 29 30  1  0
 30 31  2  0
 31 32  1  0
 32 33  2  0
 33 15  1  0
 25 17  1  0
 33 28  1  0
 23 18  1  0
  1 34  1  0
  1 35  1  0
  1 36  1  0
  2 37  1  0
  2 38  1  0
  4 39  1  0
  4 40  1  0
  5 41  1  0
  5 42  1  0
  5 43  1  0
  6 44  1  0
  6 45  1  0
  7 46  1  0
  7 47  1  0
  9 48  1  0
  9 49  1  0
 10 50  1  0
 10 51  1  0
 12 52  1  0
 12 53  1  0
 13 54  1  0
 13 55  1  0
 14 56  1  0
 14 57  1  0
 16 58  1  0
 19 59  1  0
 20 60  1  0
 21 61  1  0
 22 62  1  0
 27 63  1  0
 27 64  1  0
 27 65  1  0
 29 66  1  0
 30 67  1  0
 31 68  1  0
 32 69  1  0
M  CHG  2  14   1  26   1
M  END
>  <UniqueID>  (8) 
8

>  <SMILES>  (8) 
CCN(CC)CCOCCOCC[NH2+]c1cc2c3ccccc3nc-2[n+](C)c2ccccc12

>  <Energy>  (8) 
154.8246237915915

>  <Genealogy>  (8) 
CCN(CC)CCOCCOCC[NH2+]c1cc2c3ccccc3nc-2[n+](C)c2ccccc12 (protonated)
CCN(CC)CCOCCOCC[NH2+]c1cc2c3ccccc3nc-2[n+](C)c2ccccc12 (3D coordinates assigned)
CCN(CC)CCOCCOCC[NH2+]c1cc2c3ccccc3nc-2[n+](C)c2ccccc12 (optimized conformer: 154.8246237915915 kcal/mol)

>  <smiles>  (8) 
CCN(CC)CCOCCOCCNc1cc2c3ccccc3nc-2[n+](C)c2ccccc12

>  <score_type>  (8) 
oracle

>  <origin>  (8) 
adg

>  <m_score__min__energy>  (8) 
-8.9900000000000002

>  <m_primary>  (8) 
energy

$$$$
8:0
     RDKit          3D

 33 34  0  0  0  0  0  0  0  0999 V2000
   -1.7380   22.4820  -30.2800 Cl  0  0  0  0  0  0  0  0  0  0  0  0
   -3.3530   23.0000  -29.7230 C   0  0  0  0  0  0  0  0  0  0  0  0
   -3.3540   24.4870  -29.3750 C   0  0  0  0  0  0  0  0  0  0  0  0
   -3.8690   25.2690  -30.5020 N   0  0  0  0  0  0  0  0  0  0  0  0
   -5.2970   25.5540  -30.3340 C   0  0  0  0  0  0  0  0  0  0  0  0
   -6.1370   24.3490  -30.7680 C   0  0  0  0  0  0  0  0  0  0  0  0
   -5.6450   23.8040  -31.9950 O   0  0  0  0  0  0  0  0  0  0  0  0
   -5.6110   22.4400  -32.3410 C   0  0  0  0  0  0  0  0  0  0  0  0
   -4.4150   21.7950  -32.7110 C   0  0  0  0  0  0  0  0  0  0  0  0
   -4.4140   20.4430  -33.0600 C   0  0  0  0  0  0  0  0  0  0  0  0
   -5.5970   19.7080  -33.0390 C   0  0  0  0  0  0  0  0  0  0  0  0
   -6.7990   20.3210  -32.6610 C   0  0  0  0  0  0  0  0  0  0  0  0
   -7.9930   19.5830  -32.6360 C   0  0  0  0  0  0  0  0  0  0  0  0
   -9.1910   20.1960  -32.2610 C   0  0  0  0  0  0  0  0  0  0  0  0
   -9.2080   21.5470  -31.9120 C   0  0  0  0  0  0  0  0  0  0  0  0
   -8.0280   22.2950  -31.9320 C   0  0  0  0  0  0  0  0  0  0  0  0
   -6.8100   21.6950  -32.3040 C   0  0  0  0  0  0  0  0  0  0  0  0
   -4.0865   22.8158  -30.5218 H   0  0  0  0  0  0  0  0  0  0  0  0
   -3.6167   22.4263  -28.8222 H   0  0  0  0  0  0  0  0  0  0  0  0
   -3.9923   24.6540  -28.4948 H   0  0  0  0  0  0  0  0  0  0  0  0
   -2.3240   24.8058  -29.1572 H   0  0  0  0  0  0  0  0  0  0  0  0
   -3.7560   24.6960  -31.3720 H   0  0  0  0  0  0  0  0  0  0  0  0
   -5.5003   25.7752  -29.2758 H   0  0  0  0  0  0  0  0  0  0  0  0
   -5.5641   26.4187  -30.9592 H   0  0  0  0  0  0  0  0  0  0  0  0
   -6.0911   23.5767  -29.9860 H   0  0  0  0  0  0  0  0  0  0  0  0
   -7.1755   24.6786  -30.9193 H   0  0  0  0  0  0  0  0  0  0  0  0
   -3.4724   22.3618  -32.7252 H   0  0  0  0  0  0  0  0  0  0  0  0
   -3.4728   19.9552  -33.3535 H   0  0  0  0  0  0  0  0  0  0  0  0
   -5.5876   18.6444  -33.3197 H   0  0  0  0  0  0  0  0  0  0  0  0
   -7.9852   18.5184  -32.9126 H   0  0  0  0  0  0  0  0  0  0  0  0
  -10.1232   19.6123  -32.2408 H   0  0  0  0  0  0  0  0  0  0  0  0
  -10.1546   22.0252  -31.6199 H   0  0  0  0  0  0  0  0  0  0  0  0
   -8.0509   23.3594  -31.6553 H   0  0  0  0  0  0  0  0  0  0  0  0
  1  2  1  0
  2  3  1  0
  3  4  1  0
  4  5  1  0
  5  6  1  0
  6  7  1  0
  7  8  1  0
  8  9  2  0
  9 10  1  0
 10 11  2  0
 11 12  1  0
 12 13  2  0
 13 14  1  0
 14 15  2  0
 15 16  1  0
 16 17  2  0
 17  8  1  0
 17 12  1  0
  2 18  1  0
  2 19  1  0
  3 20  1  0
  3 21  1  0
  4 22  1  0
  5 23  1  0
  5 24  1  0
  6 25  1  0
  6 26  1  0
  9 27  1  0
 10 28  1  0
 11 29  1  0
 13 30  1  0
 14 31  1  0
 15 32  1  0
 16 33  1  0
M  END
>  <UniqueID>  (9) 
9

>  <SMILES>  (9) 
ClCCNCCOc1cccc2ccccc12

>  <Energy>  (9) 
31.265702157806267

>  <Genealogy>  (9) 
ClCCNCCOc1cccc2ccccc12 (3D coordinates assigned)
ClCCNCCOc1cccc2ccccc12 (optimized conformer: 31.265702157806267 kcal/mol)

>  <smiles>  (9) 
ClCCNCCOc1cccc2ccccc12

>  <score_type>  (9) 
oracle

>  <origin>  (9) 
adg

>  <m_score__min__energy>  (9) 
-7.25

>  <m_primary>  (9) 
energy

$$$$
9:0
     RDKit          3D

 72 74  0  0  0  0  0  0  0  0999 V2000
   -1.9830   20.0380  -27.9010 C   0  0  0  0  0  0  0  0  0  0  0  0
   -2.6430   20.9790  -28.9000 C   0  0  0  0  0  0  0  0  0  0  0  0
   -1.7430   21.1750  -30.0630 N   0  0  0  0  0  0  0  0  0  0  0  0
   -1.0530   22.4850  -30.0460 C   0  0  0  0  0  0  0  0  0  0  0  0
   -0.1350   22.6860  -28.8290 C   0  0  0  0  0  0  0  0  0  0  0  0
   -0.8230   20.0400  -30.2900 C   0  0  0  0  0  0  0  0  0  0  0  0
   -0.1760   20.1380  -31.6730 C   0  0  0  0  0  0  0  0  0  0  0  0
   -1.1270   19.7580  -32.6460 O   0  0  0  0  0  0  0  0  0  0  0  0
   -1.3260   20.7910  -33.5940 C   0  0  0  0  0  0  0  0  0  0  0  0
   -2.7290   21.4020  -33.4610 C   0  0  0  0  0  0  0  0  0  0  0  0
   -3.3450   21.1220  -32.1470 N   0  0  0  0  0  0  0  0  0  0  0  0
   -4.7410   20.7220  -32.2810 C   0  0  0  0  0  0  0  0  0  0  0  0
   -5.0700   19.4150  -32.7640 C   0  0  0  0  0  0  0  0  0  0  0  0
   -4.0810   18.4670  -33.1540 C   0  0  0  0  0  0  0  0  0  0  0  0
   -4.4290   17.2240  -33.6760 C   0  0  0  0  0  0  0  0  0  0  0  0
   -5.7600   16.8870  -33.8390 C   0  0  0  0  0  0  0  0  0  0  0  0
   -6.7530   17.7730  -33.4430 C   0  0  0  0  0  0  0  0  0  0  0  0
   -6.4350   19.0260  -32.8570 C   0  0  0  0  0  0  0  0  0  0  0  0
   -7.4270   19.8570  -32.3930 N   0  0  0  0  0  0  0  0  0  0  0  0
   -8.7870   19.3140  -32.1560 C   0  0  0  0  0  0  0  0  0  0  0  0
   -7.1560   21.1790  -32.1110 C   0  0  0  0  0  0  0  0  0  0  0  0
   -8.2180   22.1050  -31.9760 C   0  0  0  0  0  0  0  0  0  0  0  0
   -7.9900   23.4160  -31.6090 C   0  0  0  0  0  0  0  0  0  0  0  0
   -6.7040   23.8490  -31.3580 C   0  0  0  0  0  0  0  0  0  0  0  0
   -5.6020   22.9890  -31.5050 C   0  0  0  0  0  0  0  0  0  0  0  0
   -4.3150   23.4740  -31.2070 O   0  0  0  0  0  0  0  0  0  0  0  0
   -3.9360   24.3240  -30.1180 C   0  0  0  0  0  0  0  0  0  0  0  0
   -4.4720   23.7880  -28.7850 C   0  0  0  0  0  0  0  0  0  0  0  0
   -3.5430   24.1000  -27.6780 N   0  0  0  0  0  0  0  0  0  0  0  0
   -4.2240   24.8630  -26.6180 C   0  0  0  0  0  0  0  0  0  0  0  0
   -2.3840   24.8630  -28.1690 C   0  0  0  0  0  0  0  0  0  0  0  0
   -5.8090   21.6370  -31.9660 C   0  0  0  0  0  0  0  0  0  0  0  0
   -2.2148   20.3684  -26.8777 H   0  0  0  0  0  0  0  0  0  0  0  0
   -2.3641   19.0172  -28.0518 H   0  0  0  0  0  0  0  0  0  0  0  0
   -0.8934   20.0487  -28.0518 H   0  0  0  0  0  0  0  0  0  0  0  0
   -3.5937   20.5435  -29.2413 H   0  0  0  0  0  0  0  0  0  0  0  0
   -2.8363   21.9488  -28.4181 H   0  0  0  0  0  0  0  0  0  0  0  0
   -0.4435   22.5680  -30.9579 H   0  0  0  0  0  0  0  0  0  0  0  0
   -1.8336   23.2580  -29.9902 H   0  0  0  0  0  0  0  0  0  0  0  0
   -0.7179   22.5584  -27.9049 H   0  0  0  0  0  0  0  0  0  0  0  0
    0.6769   21.9444  -28.8557 H   0  0  0  0  0  0  0  0  0  0  0  0
    0.2927   23.6991  -28.8557 H   0  0  0  0  0  0  0  0  0  0  0  0
   -0.0363   20.0533  -29.5213 H   0  0  0  0  0  0  0  0  0  0  0  0
   -1.3960   19.1028  -30.2327 H   0  0  0  0  0  0  0  0  0  0  0  0
    0.1488   21.1727  -31.8572 H   0  0  0  0  0  0  0  0  0  0  0  0
    0.6993   19.4739  -31.7251 H   0  0  0  0  0  0  0  0  0  0  0  0
   -0.5747   21.5778  -33.4308 H   0  0  0  0  0  0  0  0  0  0  0  0
   -1.2257   20.3633  -34.6025 H   0  0  0  0  0  0  0  0  0  0  0  0
   -2.6531   22.4917  -33.5902 H   0  0  0  0  0  0  0  0  0  0  0  0
   -3.3667   20.9471  -34.2333 H   0  0  0  0  0  0  0  0  0  0  0  0
   -2.8170   20.3910  -31.6270 H   0  0  0  0  0  0  0  0  0  0  0  0
   -3.1940   21.9240  -31.5050 H   0  0  0  0  0  0  0  0  0  0  0  0
   -3.0173   18.7229  -33.0401 H   0  0  0  0  0  0  0  0  0  0  0  0
   -3.6431   16.5084  -33.9594 H   0  0  0  0  0  0  0  0  0  0  0  0
   -6.0320   15.9176  -34.2821 H   0  0  0  0  0  0  0  0  0  0  0  0
   -7.8084   17.4980  -33.5865 H   0  0  0  0  0  0  0  0  0  0  0  0
   -8.9693   19.2412  -31.0736 H   0  0  0  0  0  0  0  0  0  0  0  0
   -9.5331   19.9832  -32.6093 H   0  0  0  0  0  0  0  0  0  0  0  0
   -8.8671   18.3149  -32.6093 H   0  0  0  0  0  0  0  0  0  0  0  0
   -9.2487   21.7722  -32.1680 H   0  0  0  0  0  0  0  0  0  0  0  0
   -8.8337   24.1158  -31.5166 H   0  0  0  0  0  0  0  0  0  0  0  0
   -6.5380   24.8878  -31.0365 H   0  0  0  0  0  0  0  0  0  0  0  0
   -2.8384   24.3763  -30.0686 H   0  0  0  0  0  0  0  0  0  0  0  0
   -4.3640   25.3227  -30.2898 H   0  0  0  0  0  0  0  0  0  0  0  0
   -5.4480   24.2509  -28.5772 H   0  0  0  0  0  0  0  0  0  0  0  0
   -4.5729   22.6953  -28.8611 H   0  0  0  0  0  0  0  0  0  0  0  0
   -3.8965   24.4961  -25.6340 H   0  0  0  0  0  0  0  0  0  0  0  0
   -3.9719   25.9294  -26.7142 H   0  0  0  0  0  0  0  0  0  0  0  0
   -5.3121   24.7333  -26.7142 H   0  0  0  0  0  0  0  0  0  0  0  0
   -1.8063   25.2433  -27.3136 H   0  0  0  0  0  0  0  0  0  0  0  0
   -1.7459   24.2078  -28.7802 H   0  0  0  0  0  0  0  0  0  0  0  0
   -2.7336   25.7081  -28.7802 H   0  0  0  0  0  0  0  0  0  0  0  0
  1  2  1  0
  2  3  1  0
  3  4  1  0
  4  5  1  0
  3  6  1  0
  6  7  1  0
  7  8  1  0
  8  9  1  0
  9 10  1  0
 10 11  1  0
 11 12  1  0
 12 13  2  0
 13 14  1  0
 14 15  2  0
 15 16  1  0
 16 17  2  0
 17 18  1  0
 18 19  2  0
 19 20  1  0
 19 21  1  0
 21 22  2  0
 22 23  1  0
 23 24  2  0
 24 25  1  0
 25 26  1  0
 26 27  1  0
 27 28  1  0
 28 29  1  0
 29 30  1  0
 29 31  1  0
 25 32  2  0
 32 12  1  0
 18 13  1  0
 32 21  1  0
  1 33  1  0
  1 34  1  0
  1 35  1  0
  2 36  1  0
  2 37  1  0
  4 38  1  0
  4 39  1  0
  5 40  1  0
  5 41  1  0
  5 42  1  0
  6 43  1  0
  6 44  1  0
  7 45  1  0
  7 46  1  0
  9 47  1  0
  9 48  1  0
 10 49  1  0
 10 50  1  0
 11 51  1  0
 11 52  1  0
 14 53  1  0
 15 54  1  0
 16 55  1  0
 17 56  1  0
 20 57  1  0
 20 58  1  0
 20 59  1  0
 22 60  1  0
 23 61  1  0
 24 62  1  0
 27 63  1  0
 27 64  1  0
 28 65  1  0
 28 66  1  0
 30 67  1  0
 30 68  1  0
 30 69  1  0
 31 70  1  0
 31 71  1  0
 31 72  1  0
M  CHG  2  11   1  19   1
M  END
>  <UniqueID>  (10) 
10

>  <SMILES>  (10) 
CCN(CC)CCOCC[NH2+]c1c2ccccc2[n+](C)c2cccc(OCCN(C)C)c12

>  <Energy>  (10) 
111.09903202528513

>  <Genealogy>  (10) 
CCN(CC)CCOCC[NH2+]c1c2ccccc2[n+](C)c2cccc(OCCN(C)C)c12 (protonated)
CCN(CC)CCOCC[NH2+]c1c2ccccc2[n+](C)c2cccc(OCCN(C)C)c12 (3D coordinates assigned)
CCN(CC)CCOCC[NH2+]c1c2ccccc2[n+](C)c2cccc(OCCN(C)C)c12 (optimized conformer: 111.09903202528513 kcal/mol)

>  <smiles>  (10) 
CCN(CC)CCOCCNc1c2ccccc2[n+](C)c2cccc(OCCN(C)C)c12

>  <score_type>  (10) 
oracle

>  <origin>  (10) 
adg

>  <m_score__min__energy>  (10) 
-7.5599999999999996

>  <m_primary>  (10) 
energy

$$$$
10:0
     RDKit          3D

 73 75  0  0  0  0  0  0  0  0999 V2000
   -1.8450   21.9100  -28.1870 C   0  0  0  0  0  0  0  0  0  0  0  0
   -3.3190   22.1610  -27.8320 C   0  0  0  0  0  0  0  0  0  0  0  0
   -3.8310   23.4770  -28.2770 N   0  0  0  0  0  0  0  0  0  0  0  0
   -4.0660   24.3970  -27.1480 C   0  0  0  0  0  0  0  0  0  0  0  0
   -5.0130   23.3590  -29.1590 C   0  0  0  0  0  0  0  0  0  0  0  0
   -4.9540   24.3800  -30.3000 C   0  0  0  0  0  0  0  0  0  0  0  0
   -4.4440   23.7780  -31.4740 O   0  0  0  0  0  0  0  0  0  0  0  0
   -3.5770   22.7090  -31.1630 C   0  0  0  0  0  0  0  0  0  0  0  0
   -3.4970   21.7490  -32.3560 C   0  0  0  0  0  0  0  0  0  0  0  0
   -4.6090   21.9230  -33.3150 N   0  0  0  0  0  0  0  0  0  0  0  0
   -5.6980   20.9780  -33.0830 C   0  0  0  0  0  0  0  0  0  0  0  0
   -6.9480   21.4380  -32.5790 C   0  0  0  0  0  0  0  0  0  0  0  0
   -7.1910   22.8130  -32.3230 C   0  0  0  0  0  0  0  0  0  0  0  0
   -8.4370   23.2570  -31.8910 C   0  0  0  0  0  0  0  0  0  0  0  0
   -9.4740   22.3550  -31.7140 C   0  0  0  0  0  0  0  0  0  0  0  0
   -9.2610   20.9970  -31.9280 C   0  0  0  0  0  0  0  0  0  0  0  0
   -7.9880   20.5040  -32.3170 C   0  0  0  0  0  0  0  0  0  0  0  0
   -7.7590   19.1510  -32.4510 N   0  0  0  0  0  0  0  0  0  0  0  0
   -8.7060   18.1800  -31.8520 C   0  0  0  0  0  0  0  0  0  0  0  0
   -6.6280   18.6980  -33.0950 C   0  0  0  0  0  0  0  0  0  0  0  0
   -6.5110   17.3400  -33.4930 C   0  0  0  0  0  0  0  0  0  0  0  0
   -5.3230   16.8380  -34.0430 C   0  0  0  0  0  0  0  0  0  0  0  0
   -5.1700   15.4960  -34.4210 O   0  0  0  0  0  0  0  0  0  0  0  0
   -5.7370   14.3860  -33.7280 C   0  0  0  0  0  0  0  0  0  0  0  0
   -4.7440   13.2060  -33.6790 C   0  0  0  0  0  0  0  0  0  0  0  0
   -3.8540   13.1430  -32.4760 N   0  0  0  0  0  0  0  0  0  0  0  0
   -2.7380   14.1170  -32.5740 C   0  0  0  0  0  0  0  0  0  0  0  0
   -3.2720   11.7790  -32.4180 C   0  0  0  0  0  0  0  0  0  0  0  0
   -4.6100   13.3780  -31.2230 C   0  0  0  0  0  0  0  0  0  0  0  0
   -4.2460   17.6940  -34.2200 C   0  0  0  0  0  0  0  0  0  0  0  0
   -4.3540   19.0450  -33.9060 C   0  0  0  0  0  0  0  0  0  0  0  0
   -5.5510   19.5880  -33.3720 C   0  0  0  0  0  0  0  0  0  0  0  0
   -1.2571   21.8099  -27.2627 H   0  0  0  0  0  0  0  0  0  0  0  0
   -1.7622   20.9848  -28.7762 H   0  0  0  0  0  0  0  0  0  0  0  0
   -1.4606   22.7556  -28.7762 H   0  0  0  0  0  0  0  0  0  0  0  0
   -3.9270   21.3757  -28.3048 H   0  0  0  0  0  0  0  0  0  0  0  0
   -3.3882   22.1478  -26.7343 H   0  0  0  0  0  0  0  0  0  0  0  0
   -3.9280   23.8567  -26.1999 H   0  0  0  0  0  0  0  0  0  0  0  0
   -3.3524   25.2325  -27.2012 H   0  0  0  0  0  0  0  0  0  0  0  0
   -5.0928   24.7879  -27.2012 H   0  0  0  0  0  0  0  0  0  0  0  0
   -5.0435   22.3454  -29.5852 H   0  0  0  0  0  0  0  0  0  0  0  0
   -5.9157   23.5545  -28.5615 H   0  0  0  0  0  0  0  0  0  0  0  0
   -5.9667   24.7608  -30.4984 H   0  0  0  0  0  0  0  0  0  0  0  0
   -4.2906   25.2065  -30.0055 H   0  0  0  0  0  0  0  0  0  0  0  0
   -2.5741   23.1032  -30.9422 H   0  0  0  0  0  0  0  0  0  0  0  0
   -3.9618   22.1697  -30.2848 H   0  0  0  0  0  0  0  0  0  0  0  0
   -2.5483   21.9249  -32.8841 H   0  0  0  0  0  0  0  0  0  0  0  0
   -3.5630   20.7253  -31.9588 H   0  0  0  0  0  0  0  0  0  0  0  0
   -4.2440   21.9130  -34.2880 H   0  0  0  0  0  0  0  0  0  0  0  0
   -4.9730   22.9010  -33.2430 H   0  0  0  0  0  0  0  0  0  0  0  0
   -6.3793   23.5409  -32.4688 H   0  0  0  0  0  0  0  0  0  0  0  0
   -8.5991   24.3262  -31.6896 H   0  0  0  0  0  0  0  0  0  0  0  0
  -10.4667   22.7132  -31.4039 H   0  0  0  0  0  0  0  0  0  0  0  0
  -10.0946   20.2921  -31.7932 H   0  0  0  0  0  0  0  0  0  0  0  0
   -8.6477   18.2398  -30.7552 H   0  0  0  0  0  0  0  0  0  0  0  0
   -9.7294   18.4170  -32.1782 H   0  0  0  0  0  0  0  0  0  0  0  0
   -8.4435   17.1628  -32.1782 H   0  0  0  0  0  0  0  0  0  0  0  0
   -7.3717   16.6667  -33.3670 H   0  0  0  0  0  0  0  0  0  0  0  0
   -5.9858   14.6909  -32.7008 H   0  0  0  0  0  0  0  0  0  0  0  0
   -6.6431   14.0626  -34.2613 H   0  0  0  0  0  0  0  0  0  0  0  0
   -5.3274   12.2741  -33.7145 H   0  0  0  0  0  0  0  0  0  0  0  0
   -4.0710   13.3505  -34.5370 H   0  0  0  0  0  0  0  0  0  0  0  0
   -2.4108   14.4026  -31.5634 H   0  0  0  0  0  0  0  0  0  0  0  0
   -1.8976   13.6584  -33.1156 H   0  0  0  0  0  0  0  0  0  0  0  0
   -3.0787   15.0117  -33.1156 H   0  0  0  0  0  0  0  0  0  0  0  0
   -3.1441   11.4793  -31.3674 H   0  0  0  0  0  0  0  0  0  0  0  0
   -3.9463   11.0709  -32.9218 H   0  0  0  0  0  0  0  0  0  0  0  0
   -2.2942   11.7758  -32.9218 H   0  0  0  0  0  0  0  0  0  0  0  0
   -3.9598   13.1759  -30.3591 H   0  0  0  0  0  0  0  0  0  0  0  0
   -4.9490   14.4239  -31.1900 H   0  0  0  0  0  0  0  0  0  0  0  0
   -5.4822   12.7086  -31.1900 H   0  0  0  0  0  0  0  0  0  0  0  0
   -3.2968   17.3006  -34.6127 H   0  0  0  0  0  0  0  0  0  0  0  0
   -3.4920   19.7070  -34.0755 H   0  0  0  0  0  0  0  0  0  0  0  0
  1  2  1  0
  2  3  1  0
  3  4  1  0
  3  5  1  0
  5  6  1  0
  6  7  1  0
  7  8  1  0
  8  9  1  0
  9 10  1  0
 10 11  1  0
 11 12  2  0
 12 13  1  0
 13 14  2  0
 14 15  1  0
 15 16  2  0
 16 17  1  0
 17 18  2  0
 18 19  1  0
 18 20  1  0
 20 21  2  0
 21 22  1  0
 22 23  1  0
 23 24  1  0
 24 25  1  0
 25 26  1  0
 26 27  1  0
 26 28  1  0
 26 29  1  0
 22 30  2  0
 30 31  1  0
 31 32  2  0
 32 11  1  0
 17 12  1  0
 32 20  1  0
  1 33  1  0
  1 34  1  0
  1 35  1  0
  2 36  1  0
  2 37  1  0
  4 38  1  0
  4 39  1  0
  4 40  1  0
  5 41  1  0
  5 42  1  0
  6 43  1  0
  6 44  1  0
  8 45  1  0
  8 46  1  0
  9 47  1  0
  9 48  1  0
 10 49  1  0
 10 50  1  0
 13 51  1  0
 14 52  1  0
 15 53  1  0
 16 54  1  0
 19 55  1  0
 19 56  1  0
 19 57  1  0
 21 58  1  0
 24 59  1  0
 24 60  1  0
 25 61  1  0
 25 62  1  0
 27 63  1  0
 27 64  1  0
 27 65  1  0
 28 66  1  0
 28 67  1  0
 28 68  1  0
 29 69  1  0
 29 70  1  0
 29 71  1  0
 30 72  1  0
 31 73  1  0
M  CHG  3  10   1  18   1  26   1
M  END
>  <UniqueID>  (11) 
11

>  <SMILES>  (11) 
CCN(C)CCOCC[NH2+]c1c2ccccc2[n+](C)c2cc(OCC[N+](C)(C)C)ccc12

>  <Energy>  (11) 
109.15926339225054

>  <Genealogy>  (11) 
CCN(C)CCOCC[NH2+]c1c2ccccc2[n+](C)c2cc(OCC[N+](C)(C)C)ccc12 (protonated)
CCN(C)CCOCC[NH2+]c1c2ccccc2[n+](C)c2cc(OCC[N+](C)(C)C)ccc12 (3D coordinates assigned)
CCN(C)CCOCC[NH2+]c1c2ccccc2[n+](C)c2cc(OCC[N+](C)(C)C)ccc12 (optimized conformer: 109.15926339225054 kcal/mol)

>  <smiles>  (11) 
CCN(C)CCOCCNc1c2ccccc2[n+](C)c2cc(OCC[N+](C)(C)C)ccc12

>  <score_type>  (11) 
oracle

>  <origin>  (11) 
adg

>  <m_score__min__energy>  (11) 
-7.2300000000000004

>  <m_primary>  (11) 
energy

$$$$
11:0
     RDKit          3D

 55 57  0  0  0  0  0  0  0  0999 V2000
   -0.9040   22.2160  -30.2210 C   0  0  0  0  0  0  0  0  0  0  0  0
   -1.9180   23.3140  -29.9080 C   0  0  0  0  0  0  0  0  0  0  0  0
   -3.2730   22.7460  -29.7490 N   0  0  0  0  0  0  0  0  0  0  0  0
   -3.1950   21.2930  -29.5220 C   0  0  0  0  0  0  0  0  0  0  0  0
   -4.0520   23.4130  -28.6760 C   0  0  0  0  0  0  0  0  0  0  0  0
   -4.9790   24.4710  -29.2800 C   0  0  0  0  0  0  0  0  0  0  0  0
   -4.5910   24.7590  -30.6720 N   0  0  0  0  0  0  0  0  0  0  0  0
   -5.7410   24.7690  -31.5930 C   0  0  0  0  0  0  0  0  0  0  0  0
   -6.0530   23.3660  -32.1450 C   0  0  0  0  0  0  0  0  0  0  0  0
   -5.1500   22.3260  -31.6070 N   0  0  0  0  0  0  0  0  0  0  0  0
   -5.3250   21.0350  -32.2650 C   0  0  0  0  0  0  0  0  0  0  0  0
   -6.5710   20.3500  -32.1760 C   0  0  0  0  0  0  0  0  0  0  0  0
   -7.6540   20.8640  -31.4170 C   0  0  0  0  0  0  0  0  0  0  0  0
   -8.8480   20.1590  -31.2930 C   0  0  0  0  0  0  0  0  0  0  0  0
   -8.9940   18.9240  -31.9060 C   0  0  0  0  0  0  0  0  0  0  0  0
   -7.9590   18.4010  -32.6730 C   0  0  0  0  0  0  0  0  0  0  0  0
   -6.7450   19.1130  -32.8580 C   0  0  0  0  0  0  0  0  0  0  0  0
   -5.7450   18.6170  -33.6670 N   0  0  0  0  0  0  0  0  0  0  0  0
   -6.0410   17.5220  -34.6200 C   0  0  0  0  0  0  0  0  0  0  0  0
   -4.4770   19.1560  -33.6120 C   0  0  0  0  0  0  0  0  0  0  0  0
   -3.3700   18.4790  -34.1860 C   0  0  0  0  0  0  0  0  0  0  0  0
   -2.1000   19.0430  -34.1910 C   0  0  0  0  0  0  0  0  0  0  0  0
   -1.8930   20.2920  -33.6270 C   0  0  0  0  0  0  0  0  0  0  0  0
   -0.1460   21.0670  -33.6380 Br  0  0  0  0  0  0  0  0  0  0  0  0
   -2.9500   20.9690  -33.0240 C   0  0  0  0  0  0  0  0  0  0  0  0
   -4.2510   20.4040  -32.9610 C   0  0  0  0  0  0  0  0  0  0  0  0
   -0.5163   21.7962  -29.2811 H   0  0  0  0  0  0  0  0  0  0  0  0
   -1.3924   21.4211  -30.8037 H   0  0  0  0  0  0  0  0  0  0  0  0
   -0.0728   22.6398  -30.8037 H   0  0  0  0  0  0  0  0  0  0  0  0
   -1.6267   23.8189  -28.9751 H   0  0  0  0  0  0  0  0  0  0  0  0
   -1.9313   24.0305  -30.7426 H   0  0  0  0  0  0  0  0  0  0  0  0
   -3.1841   21.0909  -28.4408 H   0  0  0  0  0  0  0  0  0  0  0  0
   -4.0681   20.8033  -29.9778 H   0  0  0  0  0  0  0  0  0  0  0  0
   -2.2744   20.8996  -29.9778 H   0  0  0  0  0  0  0  0  0  0  0  0
   -4.6546   22.6625  -28.1435 H   0  0  0  0  0  0  0  0  0  0  0  0
   -3.3573   23.9000  -27.9759 H   0  0  0  0  0  0  0  0  0  0  0  0
   -6.0141   24.0991  -29.2617 H   0  0  0  0  0  0  0  0  0  0  0  0
   -4.8991   25.3951  -28.6887 H   0  0  0  0  0  0  0  0  0  0  0  0
   -3.8850   24.0540  -30.9920 H   0  0  0  0  0  0  0  0  0  0  0  0
   -6.6240   25.1425  -31.0538 H   0  0  0  0  0  0  0  0  0  0  0  0
   -5.4882   25.4192  -32.4435 H   0  0  0  0  0  0  0  0  0  0  0  0
   -7.0879   23.1053  -31.8784 H   0  0  0  0  0  0  0  0  0  0  0  0
   -5.9090   23.3988  -33.2350 H   0  0  0  0  0  0  0  0  0  0  0  0
   -4.1620   22.6420  -31.7210 H   0  0  0  0  0  0  0  0  0  0  0  0
   -5.2370   22.2740  -30.5720 H   0  0  0  0  0  0  0  0  0  0  0  0
   -7.5482   21.8381  -30.9170 H   0  0  0  0  0  0  0  0  0  0  0  0
   -9.6773   20.5826  -30.7075 H   0  0  0  0  0  0  0  0  0  0  0  0
   -9.9292   18.3576  -31.7854 H   0  0  0  0  0  0  0  0  0  0  0  0
   -8.0834   17.4157  -33.1460 H   0  0  0  0  0  0  0  0  0  0  0  0
   -6.2883   16.6070  -34.0618 H   0  0  0  0  0  0  0  0  0  0  0  0
   -6.8942   17.8074  -35.2529 H   0  0  0  0  0  0  0  0  0  0  0  0
   -5.1602   17.3386  -35.2529 H   0  0  0  0  0  0  0  0  0  0  0  0
   -3.5203   17.4868  -34.6365 H   0  0  0  0  0  0  0  0  0  0  0  0
   -1.2583   18.4977  -34.6429 H   0  0  0  0  0  0  0  0  0  0  0  0
   -2.7732   21.9629  -32.5871 H   0  0  0  0  0  0  0  0  0  0  0  0
  1  2  1  0
  2  3  1  0
  3  4  1  0
  3  5  1  0
  5  6  1  0
  6  7  1  0
  7  8  1  0
  8  9  1  0
  9 10  1  0
 10 11  1  0
 11 12  2  0
 12 13  1  0
 13 14  2  0
 14 15  1  0
 15 16  2  0
 16 17  1  0
 17 18  2  0
 18 19  1  0
 18 20  1  0
 20 21  2  0
 21 22  1  0
 22 23  2  0
 23 24  1  0
 23 25  1  0
 25 26  2  0
 26 11  1  0
 17 12  1  0
 26 20  1  0
  1 27  1  0
  1 28  1  0
  1 29  1  0
  2 30  1  0
  2 31  1  0
  4 32  1  0
  4 33  1  0
  4 34  1  0
  5 35  1  0
  5 36  1  0
  6 37  1  0
  6 38  1  0
  7 39  1  0
  8 40  1  0
  8 41  1  0
  9 42  1  0
  9 43  1  0
 10 44  1  0
 10 45  1  0
 13 46  1  0
 14 47  1  0
 15 48  1  0
 16 49  1  0
 19 50  1  0
 19 51  1  0
 19 52  1  0
 21 53  1  0
 22 54  1  0
 25 55  1  0
M  CHG  2  10   1  18   1
M  END
>  <UniqueID>  (12) 
12

>  <SMILES>  (12) 
CCN(C)CCNCC[NH2+]c1c2ccccc2[n+](C)c2ccc(Br)cc12

>  <Energy>  (12) 
84.38373236171391

>  <Genealogy>  (12) 
CCN(C)CCNCC[NH2+]c1c2ccccc2[n+](C)c2ccc(Br)cc12 (protonated)
CCN(C)CCNCC[NH2+]c1c2ccccc2[n+](C)c2ccc(Br)cc12 (3D coordinates assigned)
CCN(C)CCNCC[NH2+]c1c2ccccc2[n+](C)c2ccc(Br)cc12 (optimized conformer: 84.38373236171391 kcal/mol)

>  <smiles>  (12) 
CCN(C)CCNCCNc1c2ccccc2[n+](C)c2ccc(Br)cc12

>  <score_type>  (12) 
oracle

>  <origin>  (12) 
adg

>  <m_score__min__energy>  (12) 
-8.75

>  <m_primary>  (12) 
energy

$$$$
12:0
     RDKit          3D

 42 44  0  0  0  0  0  0  0  0999 V2000
   -8.0248   23.1835  -32.0043 H   0  0  0  0  0  0  0  0  0  0  0  0
   -7.0450   23.3690  -31.5400 C   0  0  0  0  0  0  0  0  0  0  0  0
   -5.9290   22.6360  -31.9480 C   0  0  0  0  0  0  0  0  0  0  0  0
   -6.0307   21.8729  -32.7337 H   0  0  0  0  0  0  0  0  0  0  0  0
   -4.6830   22.8700  -31.3600 C   0  0  0  0  0  0  0  0  0  0  0  0
   -3.8078   22.2892  -31.6867 H   0  0  0  0  0  0  0  0  0  0  0  0
   -4.5390   23.8430  -30.3530 C   0  0  0  0  0  0  0  0  0  0  0  0
   -3.2090   24.0790  -29.7380 C   0  0  0  0  0  0  0  0  0  0  0  0
   -2.7760   25.2930  -29.3430 N   0  0  0  0  0  0  0  0  0  0  0  0
   -1.5530   25.1710  -28.8430 N   0  0  0  0  0  0  0  0  0  0  0  0
   -0.8890   26.3270  -28.2330 C   0  0  0  0  0  0  0  0  0  0  0  0
    0.1604   26.3470  -28.5622 H   0  0  0  0  0  0  0  0  0  0  0  0
   -1.4267   27.2320  -28.5523 H   0  0  0  0  0  0  0  0  0  0  0  0
   -0.9240   26.2760  -26.7280 C   0  0  0  0  0  0  0  0  0  0  0  0
   -0.9260   25.0420  -26.0510 C   0  0  0  0  0  0  0  0  0  0  0  0
   -0.9331   24.1029  -26.6238 H   0  0  0  0  0  0  0  0  0  0  0  0
   -0.9190   25.0050  -24.6530 C   0  0  0  0  0  0  0  0  0  0  0  0
   -0.9387   24.0378  -24.1294 H   0  0  0  0  0  0  0  0  0  0  0  0
   -0.8870   26.1940  -23.9200 C   0  0  0  0  0  0  0  0  0  0  0  0
   -0.8909   26.1627  -22.8205 H   0  0  0  0  0  0  0  0  0  0  0  0
   -0.8500   27.4230  -24.5840 C   0  0  0  0  0  0  0  0  0  0  0  0
   -0.8153   28.3586  -24.0065 H   0  0  0  0  0  0  0  0  0  0  0  0
   -0.8570   27.4650  -25.9820 C   0  0  0  0  0  0  0  0  0  0  0  0
   -0.8098   28.4341  -26.5004 H   0  0  0  0  0  0  0  0  0  0  0  0
   -1.1970   23.8570  -28.9200 C   0  0  0  0  0  0  0  0  0  0  0  0
   -0.0740   23.2890  -28.5670 N   0  0  0  0  0  0  0  0  0  0  0  0
    0.2210   22.0590  -27.8350 C   0  0  0  0  0  0  0  0  0  0  0  0
    1.2361   22.1050  -27.4137 H   0  0  0  0  0  0  0  0  0  0  0  0
   -0.7990   21.9020  -26.7080 C   0  0  0  0  0  0  0  0  0  0  0  0
   -0.2878   21.9807  -25.7372 H   0  0  0  0  0  0  0  0  0  0  0  0
   -1.5584   22.6938  -26.7878 H   0  0  0  0  0  0  0  0  0  0  0  0
   -1.2851   20.9185  -26.7878 H   0  0  0  0  0  0  0  0  0  0  0  0
    0.1310   20.8620  -28.7880 C   0  0  0  0  0  0  0  0  0  0  0  0
    0.0611   19.9326  -28.2037 H   0  0  0  0  0  0  0  0  0  0  0  0
   -0.7620   20.9645  -29.4221 H   0  0  0  0  0  0  0  0  0  0  0  0
    1.0293   20.8298  -29.4221 H   0  0  0  0  0  0  0  0  0  0  0  0
   -2.2330   23.1360  -29.4730 C   0  0  0  0  0  0  0  0  0  0  0  0
   -2.2743   22.0530  -29.6614 H   0  0  0  0  0  0  0  0  0  0  0  0
   -5.6730   24.5750  -29.9500 C   0  0  0  0  0  0  0  0  0  0  0  0
   -5.5790   25.3386  -29.1638 H   0  0  0  0  0  0  0  0  0  0  0  0
   -6.9170   24.3380  -30.5420 C   0  0  0  0  0  0  0  0  0  0  0  0
   -7.7966   24.9155  -30.2214 H   0  0  0  0  0  0  0  0  0  0  0  0
  1  2  1  0
  2  3  2  0
  3  4  1  0
  3  5  1  0
  5  6  1  0
  5  7  2  0
  7  8  1  0
  8  9  1  0
  9 10  1  0
 10 11  1  0
 11 12  1  0
 11 13  1  0
 11 14  1  0
 14 15  2  0
 15 16  1  0
 15 17  1  0
 17 18  1  0
 17 19  2  0
 19 20  1  0
 19 21  1  0
 21 22  1  0
 21 23  2  0
 23 24  1  0
 10 25  1  0
 25 26  2  0
 26 27  1  0
 27 28  1  0
 27 29  1  0
 29 30  1  0
 29 31  1  0
 29 32  1  0
 27 33  1  0
 33 34  1  0
 33 35  1  0
 33 36  1  0
 25 37  1  0
 37 38  1  0
  7 39  1  0
 39 40  1  0
 39 41  2  0
 41 42  1  0
 41  2  1  0
 37  8  2  0
 23 14  1  0
M  CHG  1   9  -1
M  END
>  <UniqueID>  (13) 
13

>  <SMILES>  (13) 
CC(C)/N=c1/cc(-c2ccccc2)[n-]n1Cc1ccccc1

>  <Energy>  (13) 
81.5317245039362

>  <Genealogy>  (13) 
CC(C)N=c1cc(-c2ccccc2)[n-]n1Cc1ccccc1 (protonated)
CC(C)/N=c1/cc(-c2ccccc2)[n-]n1Cc1ccccc1 (cis-trans isomerization)
CC(C)/N=c1/cc(-c2ccccc2)[n-]n1Cc1ccccc1 (3D coordinates assigned)
CC(C)/N=c1/cc(-c2ccccc2)[n-]n1Cc1ccccc1 (optimized conformer: 81.5317245039362 kcal/mol)

>  <smiles>  (13) 
CC(C)N=c1cc(-c2ccccc2)[nH]n1Cc1ccccc1

>  <score_type>  (13) 
oracle

>  <origin>  (13) 
adg

>  <m_score__min__energy>  (13) 
-8.8200000000000003

>  <m_primary>  (13) 
energy

$$$$
13:0
     RDKit          3D

 55 57  0  0  0  0  0  0  0  0999 V2000
   -4.2700   23.4400  -28.1800 C   0  0  0  0  0  0  0  0  0  0  0  0
   -5.1370   23.0100  -29.3640 C   0  0  0  0  0  0  0  0  0  0  0  0
   -4.6060   23.5290  -30.6480 N   0  0  0  0  0  0  0  0  0  0  0  0
   -5.0000   24.9400  -30.8670 C   0  0  0  0  0  0  0  0  0  0  0  0
   -6.2020   25.3000  -29.9930 C   0  0  0  0  0  0  0  0  0  0  0  0
   -3.1420   23.3260  -30.8020 C   0  0  0  0  0  0  0  0  0  0  0  0
   -2.7160   21.9850  -30.3580 N   0  0  0  0  0  0  0  0  0  0  0  0
   -3.4350   20.9130  -31.0620 C   0  0  0  0  0  0  0  0  0  0  0  0
   -3.3190   21.0920  -32.5840 C   0  0  0  0  0  0  0  0  0  0  0  0
   -4.5230   21.7290  -33.1490 N   0  0  0  0  0  0  0  0  0  0  0  0
   -5.6880   20.8730  -32.9990 C   0  0  0  0  0  0  0  0  0  0  0  0
   -6.9110   21.3860  -32.4930 C   0  0  0  0  0  0  0  0  0  0  0  0
   -7.1190   22.7740  -32.3100 C   0  0  0  0  0  0  0  0  0  0  0  0
   -8.3380   23.2630  -31.8510 C   0  0  0  0  0  0  0  0  0  0  0  0
   -9.3770   22.3900  -31.5700 C   0  0  0  0  0  0  0  0  0  0  0  0
   -9.2020   21.0190  -31.7320 C   0  0  0  0  0  0  0  0  0  0  0  0
   -7.9640   20.4840  -32.1710 C   0  0  0  0  0  0  0  0  0  0  0  0
   -7.7770   19.1230  -32.2990 N   0  0  0  0  0  0  0  0  0  0  0  0
   -8.7160   18.1810  -31.6510 C   0  0  0  0  0  0  0  0  0  0  0  0
   -6.7060   18.6410  -33.0220 C   0  0  0  0  0  0  0  0  0  0  0  0
   -6.6510   17.2880  -33.4440 C   0  0  0  0  0  0  0  0  0  0  0  0
   -5.5550   16.7980  -34.1510 C   0  0  0  0  0  0  0  0  0  0  0  0
   -4.4990   17.6380  -34.4710 C   0  0  0  0  0  0  0  0  0  0  0  0
   -4.5350   18.9770  -34.0960 C   0  0  0  0  0  0  0  0  0  0  0  0
   -5.6320   19.5050  -33.3730 C   0  0  0  0  0  0  0  0  0  0  0  0
   -4.7815   23.1863  -27.2398 H   0  0  0  0  0  0  0  0  0  0  0  0
   -3.3034   22.9169  -28.2243 H   0  0  0  0  0  0  0  0  0  0  0  0
   -4.1015   24.5261  -28.2243 H   0  0  0  0  0  0  0  0  0  0  0  0
   -5.1629   21.9111  -29.4068 H   0  0  0  0  0  0  0  0  0  0  0  0
   -6.1465   23.4219  -29.2181 H   0  0  0  0  0  0  0  0  0  0  0  0
   -4.1554   25.5962  -30.6098 H   0  0  0  0  0  0  0  0  0  0  0  0
   -5.2746   25.0737  -31.9237 H   0  0  0  0  0  0  0  0  0  0  0  0
   -5.9224   25.2163  -28.9324 H   0  0  0  0  0  0  0  0  0  0  0  0
   -6.5165   26.3317  -30.2089 H   0  0  0  0  0  0  0  0  0  0  0  0
   -7.0318   24.6110  -30.2089 H   0  0  0  0  0  0  0  0  0  0  0  0
   -2.8768   23.4490  -31.8625 H   0  0  0  0  0  0  0  0  0  0  0  0
   -2.6298   24.0688  -30.1728 H   0  0  0  0  0  0  0  0  0  0  0  0
   -2.9350   21.9080  -29.3370 H   0  0  0  0  0  0  0  0  0  0  0  0
   -3.0035   19.9417  -30.7784 H   0  0  0  0  0  0  0  0  0  0  0  0
   -4.4975   20.9546  -30.7803 H   0  0  0  0  0  0  0  0  0  0  0  0
   -2.4450   21.7227  -32.8037 H   0  0  0  0  0  0  0  0  0  0  0  0
   -3.2100   20.0970  -33.0401 H   0  0  0  0  0  0  0  0  0  0  0  0
   -4.3640   21.9660  -34.1530 H   0  0  0  0  0  0  0  0  0  0  0  0
   -4.7040   22.6570  -32.7070 H   0  0  0  0  0  0  0  0  0  0  0  0
   -6.3037   23.4775  -32.5343 H   0  0  0  0  0  0  0  0  0  0  0  0
   -8.4774   24.3451  -31.7108 H   0  0  0  0  0  0  0  0  0  0  0  0
  -10.3427   22.7819  -31.2179 H   0  0  0  0  0  0  0  0  0  0  0  0
  -10.0385   20.3382  -31.5158 H   0  0  0  0  0  0  0  0  0  0  0  0
   -8.6280   18.2692  -30.5581 H   0  0  0  0  0  0  0  0  0  0  0  0
   -9.7451   18.4208  -31.9566 H   0  0  0  0  0  0  0  0  0  0  0  0
   -8.4730   17.1526  -31.9566 H   0  0  0  0  0  0  0  0  0  0  0  0
   -7.4880   16.6140  -33.2091 H   0  0  0  0  0  0  0  0  0  0  0  0
   -5.5272   15.7416  -34.4563 H   0  0  0  0  0  0  0  0  0  0  0  0
   -3.6319   17.2449  -35.0220 H   0  0  0  0  0  0  0  0  0  0  0  0
   -3.6972   19.6368  -34.3657 H   0  0  0  0  0  0  0  0  0  0  0  0
  1  2  1  0
  2  3  1  0
  3  4  1  0
  4  5  1  0
  3  6  1  0
  6  7  1  0
  7  8  1  0
  8  9  1  0
  9 10  1  0
 10 11  1  0
 11 12  2  0
 12 13  1  0
 13 14  2  0
 14 15  1  0
 15 16  2  0
 16 17  1  0
 17 18  2  0
 18 19  1  0
 18 20  1  0
 20 21  2  0
 21 22  1  0
 22 23  2  0
 23 24  1  0
 24 25  2  0
 25 11  1  0
 17 12  1  0
 25 20  1  0
  1 26  1  0
  1 27  1  0
  1 28  1  0
  2 29  1  0
  2 30  1  0
  4 31  1  0
  4 32  1  0
  5 33  1  0
  5 34  1  0
  5 35  1  0
  6 36  1  0
  6 37  1  0
  7 38  1  0
  8 39  1  0
  8 40  1  0
  9 41  1  0
  9 42  1  0
 10 43  1  0
 10 44  1  0
 13 45  1  0
 14 46  1  0
 15 47  1  0
 16 48  1  0
 19 49  1  0
 19 50  1  0
 19 51  1  0
 21 52  1  0
 22 53  1  0
 23 54  1  0
 24 55  1  0
M  CHG  2  10   1  18   1
M  END
>  <UniqueID>  (14) 
14

>  <SMILES>  (14) 
CCN(CC)CNCC[NH2+]c1c2ccccc2[n+](C)c2ccccc12

>  <Energy>  (14) 
84.48061647391343

>  <Genealogy>  (14) 
CCN(CC)CNCC[NH2+]c1c2ccccc2[n+](C)c2ccccc12 (protonated)
CCN(CC)CNCC[NH2+]c1c2ccccc2[n+](C)c2ccccc12 (3D coordinates assigned)
CCN(CC)CNCC[NH2+]c1c2ccccc2[n+](C)c2ccccc12 (optimized conformer: 84.48061647391343 kcal/mol)

>  <smiles>  (14) 
CCN(CC)CNCCNc1c2ccccc2[n+](C)c2ccccc12

>  <score_type>  (14) 
oracle

>  <origin>  (14) 
adg

>  <m_score__min__energy>  (14) 
-8.4700000000000006

>  <m_primary>  (14) 
energy

$$$$
14:0
     RDKit          3D

 54 56  0  0  0  0  0  0  0  0999 V2000
   -6.8450   25.2340  -29.7340 C   0  0  0  0  0  0  0  0  0  0  0  0
   -5.3530   24.9610  -29.5130 C   0  0  0  0  0  0  0  0  0  0  0  0
   -5.1010   23.6170  -28.9200 N   0  0  0  0  0  0  0  0  0  0  0  0
   -3.9780   23.6320  -27.9390 C   0  0  0  0  0  0  0  0  0  0  0  0
   -4.1760   24.5770  -26.7380 C   0  0  0  0  0  0  0  0  0  0  0  0
   -4.8930   22.5830  -29.9700 C   0  0  0  0  0  0  0  0  0  0  0  0
   -4.2850   23.1500  -31.2700 C   0  0  0  0  0  0  0  0  0  0  0  0
   -5.0320   22.7040  -32.4500 N   0  0  0  0  0  0  0  0  0  0  0  0
   -5.6700   21.4140  -32.4960 C   0  0  0  0  0  0  0  0  0  0  0  0
   -7.0530   21.2950  -32.2650 C   0  0  0  0  0  0  0  0  0  0  0  0
   -7.8190   22.4100  -31.8650 C   0  0  0  0  0  0  0  0  0  0  0  0
   -9.2000   22.3110  -31.7230 C   0  0  0  0  0  0  0  0  0  0  0  0
   -9.8400   21.1040  -31.9740 C   0  0  0  0  0  0  0  0  0  0  0  0
   -9.0980   19.9760  -32.3230 C   0  0  0  0  0  0  0  0  0  0  0  0
   -7.6840   20.0310  -32.4250 C   0  0  0  0  0  0  0  0  0  0  0  0
   -6.9270   18.9020  -32.6840 N   0  0  0  0  0  0  0  0  0  0  0  0
   -7.5400   17.5580  -32.5740 C   0  0  0  0  0  0  0  0  0  0  0  0
   -5.5880   19.0240  -33.0070 C   0  0  0  0  0  0  0  0  0  0  0  0
   -4.8380   17.9300  -33.5110 C   0  0  0  0  0  0  0  0  0  0  0  0
   -3.4710   18.0360  -33.7750 C   0  0  0  0  0  0  0  0  0  0  0  0
   -2.8020   16.9050  -34.2700 O   0  0  0  0  0  0  0  0  0  0  0  0
   -3.2550   16.0820  -35.3440 C   0  0  0  0  0  0  0  0  0  0  0  0
   -3.9060   14.9830  -34.8200 F   0  0  0  0  0  0  0  0  0  0  0  0
   -4.1390   16.7850  -36.1430 F   0  0  0  0  0  0  0  0  0  0  0  0
   -2.1800   15.6460  -36.0970 F   0  0  0  0  0  0  0  0  0  0  0  0
   -2.8230   19.2560  -33.5430 C   0  0  0  0  0  0  0  0  0  0  0  0
   -3.5420   20.3590  -33.0960 C   0  0  0  0  0  0  0  0  0  0  0  0
   -4.9290   20.2730  -32.8580 C   0  0  0  0  0  0  0  0  0  0  0  0
   -7.3490   25.3262  -28.7606 H   0  0  0  0  0  0  0  0  0  0  0  0
   -6.9667   26.1693  -30.3000 H   0  0  0  0  0  0  0  0  0  0  0  0
   -7.2900   24.4024  -30.3000 H   0  0  0  0  0  0  0  0  0  0  0  0
   -4.8358   25.0218  -30.4819 H   0  0  0  0  0  0  0  0  0  0  0  0
   -4.9762   25.7146  -28.8058 H   0  0  0  0  0  0  0  0  0  0  0  0
   -5.9520   23.3430  -28.3750 H   0  0  0  0  0  0  0  0  0  0  0  0
   -3.8491   22.6104  -27.5520 H   0  0  0  0  0  0  0  0  0  0  0  0
   -3.0986   24.0064  -28.4835 H   0  0  0  0  0  0  0  0  0  0  0  0
   -4.0574   24.0108  -25.8024 H   0  0  0  0  0  0  0  0  0  0  0  0
   -3.4269   25.3816  -26.7771 H   0  0  0  0  0  0  0  0  0  0  0  0
   -5.1850   25.0132  -26.7771 H   0  0  0  0  0  0  0  0  0  0  0  0
   -4.2143   21.8136  -29.5733 H   0  0  0  0  0  0  0  0  0  0  0  0
   -5.8811   22.1716  -30.2237 H   0  0  0  0  0  0  0  0  0  0  0  0
   -4.3083   24.2489  -31.2262 H   0  0  0  0  0  0  0  0  0  0  0  0
   -3.2513   22.7841  -31.3565 H   0  0  0  0  0  0  0  0  0  0  0  0
   -5.2580   23.4060  -33.1920 H   0  0  0  0  0  0  0  0  0  0  0  0
   -7.3191   23.3688  -31.6630 H   0  0  0  0  0  0  0  0  0  0  0  0
   -9.7850   23.1891  -31.4118 H   0  0  0  0  0  0  0  0  0  0  0  0
  -10.9353   21.0377  -31.8973 H   0  0  0  0  0  0  0  0  0  0  0  0
   -9.6179   19.0274  -32.5226 H   0  0  0  0  0  0  0  0  0  0  0  0
   -7.6598   17.2954  -31.5125 H   0  0  0  0  0  0  0  0  0  0  0  0
   -8.5249   17.5630  -33.0639 H   0  0  0  0  0  0  0  0  0  0  0  0
   -6.8906   16.8176  -33.0639 H   0  0  0  0  0  0  0  0  0  0  0  0
   -5.3470   16.9731  -33.6987 H   0  0  0  0  0  0  0  0  0  0  0  0
   -1.7400   19.3419  -33.7153 H   0  0  0  0  0  0  0  0  0  0  0  0
   -3.0210   21.3127  -32.9256 H   0  0  0  0  0  0  0  0  0  0  0  0
  1  2  1  0
  2  3  1  0
  3  4  1  0
  4  5  1  0
  3  6  1  0
  6  7  1  0
  7  8  1  0
  8  9  1  0
  9 10  2  0
 10 11  1  0
 11 12  2  0
 12 13  1  0
 13 14  2  0
 14 15  1  0
 15 16  2  0
 16 17  1  0
 16 18  1  0
 18 19  2  0
 19 20  1  0
 20 21  1  0
 21 22  1  0
 22 23  1  0
 22 24  1  0
 22 25  1  0
 20 26  2  0
 26 27  1  0
 27 28  2  0
 28  9  1  0
 15 10  1  0
 28 18  1  0
  1 29  1  0
  1 30  1  0
  1 31  1  0
  2 32  1  0
  2 33  1  0
  3 34  1  0
  4 35  1  0
  4 36  1  0
  5 37  1  0
  5 38  1  0
  5 39  1  0
  6 40  1  0
  6 41  1  0
  7 42  1  0
  7 43  1  0
  8 44  1  0
 11 45  1  0
 12 46  1  0
 13 47  1  0
 14 48  1  0
 17 49  1  0
 17 50  1  0
 17 51  1  0
 19 52  1  0
 26 53  1  0
 27 54  1  0
M  CHG  2   3   1  16   1
M  END
>  <UniqueID>  (15) 
15

>  <SMILES>  (15) 
CC[NH+](CC)CCNc1c2ccccc2[n+](C)c2cc(OC(F)(F)F)ccc12

>  <Energy>  (15) 
84.80990460209551

>  <Genealogy>  (15) 
CC[NH+](CC)CCNc1c2ccccc2[n+](C)c2cc(OC(F)(F)F)ccc12 (protonated)
CC[NH+](CC)CCNc1c2ccccc2[n+](C)c2cc(OC(F)(F)F)ccc12 (3D coordinates assigned)
CC[NH+](CC)CCNc1c2ccccc2[n+](C)c2cc(OC(F)(F)F)ccc12 (optimized conformer: 84.80990460209551 kcal/mol)

>  <smiles>  (15) 
CCN(CC)CCNc1c2ccccc2[n+](C)c2cc(OC(F)(F)F)ccc12

>  <score_type>  (15) 
oracle

>  <origin>  (15) 
adg

>  <m_score__min__energy>  (15) 
-6.6699999999999999

>  <m_primary>  (15) 
energy

$$$$
15:0
     RDKit          3D

 54 56  0  0  0  0  0  0  0  0999 V2000
    1.1290   22.3740  -35.7600 C   0  0  0  0  0  0  0  0  0  0  0  0
    0.1290   21.2250  -35.8670 C   0  0  0  0  0  0  0  0  0  0  0  0
   -0.6860   21.1180  -34.6440 N   0  0  0  0  0  0  0  0  0  0  0  0
    0.1460   21.1460  -33.4270 C   0  0  0  0  0  0  0  0  0  0  0  0
   -0.5940   20.5820  -32.2080 C   0  0  0  0  0  0  0  0  0  0  0  0
   -1.9080   20.2270  -32.5930 O   0  0  0  0  0  0  0  0  0  0  0  0
   -2.8570   20.7160  -31.6640 C   0  0  0  0  0  0  0  0  0  0  0  0
   -3.6370   21.9270  -32.2030 C   0  0  0  0  0  0  0  0  0  0  0  0
   -4.5750   21.5490  -33.2630 N   0  0  0  0  0  0  0  0  0  0  0  0
   -5.7440   20.7470  -33.0150 C   0  0  0  0  0  0  0  0  0  0  0  0
   -6.9130   21.3500  -32.5210 C   0  0  0  0  0  0  0  0  0  0  0  0
   -6.9880   22.7490  -32.3490 C   0  0  0  0  0  0  0  0  0  0  0  0
   -8.1600   23.3470  -31.8960 C   0  0  0  0  0  0  0  0  0  0  0  0
   -9.2770   22.5690  -31.6170 C   0  0  0  0  0  0  0  0  0  0  0  0
   -9.2180   21.1820  -31.7580 C   0  0  0  0  0  0  0  0  0  0  0  0
   -8.0260   20.5390  -32.1750 C   0  0  0  0  0  0  0  0  0  0  0  0
   -7.9290   19.1610  -32.2510 N   0  0  0  0  0  0  0  0  0  0  0  0
   -8.9540   18.3130  -31.6010 C   0  0  0  0  0  0  0  0  0  0  0  0
   -6.8620   18.5790  -32.9100 C   0  0  0  0  0  0  0  0  0  0  0  0
   -6.8550   17.2000  -33.2430 C   0  0  0  0  0  0  0  0  0  0  0  0
   -5.7590   16.6120  -33.8870 C   0  0  0  0  0  0  0  0  0  0  0  0
   -5.7500   15.1380  -34.1660 C   0  0  0  0  0  0  0  0  0  0  0  0
   -4.6560   17.3980  -34.2240 C   0  0  0  0  0  0  0  0  0  0  0  0
   -4.6570   18.7620  -33.9520 C   0  0  0  0  0  0  0  0  0  0  0  0
   -5.7420   19.3670  -33.2870 C   0  0  0  0  0  0  0  0  0  0  0  0
    1.3214   22.5951  -34.6998 H   0  0  0  0  0  0  0  0  0  0  0  0
    2.0705   22.0877  -36.2516 H   0  0  0  0  0  0  0  0  0  0  0  0
    0.7155   23.2670  -36.2516 H   0  0  0  0  0  0  0  0  0  0  0  0
   -0.5339   21.4040  -36.7264 H   0  0  0  0  0  0  0  0  0  0  0  0
    0.6869   20.2863  -35.9993 H   0  0  0  0  0  0  0  0  0  0  0  0
   -1.3400   21.9350  -34.6120 H   0  0  0  0  0  0  0  0  0  0  0  0
   -1.2610   20.2430  -34.6700 H   0  0  0  0  0  0  0  0  0  0  0  0
    1.0505   20.5449  -33.6020 H   0  0  0  0  0  0  0  0  0  0  0  0
    0.3985   22.1952  -33.2139 H   0  0  0  0  0  0  0  0  0  0  0  0
   -0.0657   19.6924  -31.8345 H   0  0  0  0  0  0  0  0  0  0  0  0
   -0.6311   21.3396  -31.4114 H   0  0  0  0  0  0  0  0  0  0  0  0
   -3.5704   19.9116  -31.4316 H   0  0  0  0  0  0  0  0  0  0  0  0
   -2.3101   21.0423  -30.7671 H   0  0  0  0  0  0  0  0  0  0  0  0
   -4.2010   22.3828  -31.3758 H   0  0  0  0  0  0  0  0  0  0  0  0
   -2.9115   22.6359  -32.6286 H   0  0  0  0  0  0  0  0  0  0  0  0
   -4.4280   21.9360  -34.2230 H   0  0  0  0  0  0  0  0  0  0  0  0
   -6.1109   23.3730  -32.5754 H   0  0  0  0  0  0  0  0  0  0  0  0
   -8.2023   24.4376  -31.7585 H   0  0  0  0  0  0  0  0  0  0  0  0
  -10.2099   23.0476  -31.2842 H   0  0  0  0  0  0  0  0  0  0  0  0
  -10.1114   20.5778  -31.5419 H   0  0  0  0  0  0  0  0  0  0  0  0
   -8.8570   18.3932  -30.5082 H   0  0  0  0  0  0  0  0  0  0  0  0
   -9.9558   18.6499  -31.9059 H   0  0  0  0  0  0  0  0  0  0  0  0
   -8.8107   17.2659  -31.9059 H   0  0  0  0  0  0  0  0  0  0  0  0
   -7.7279   16.5801  -32.9903 H   0  0  0  0  0  0  0  0  0  0  0  0
   -5.7466   14.5849  -33.2152 H   0  0  0  0  0  0  0  0  0  0  0  0
   -6.6465   14.8687  -34.7437 H   0  0  0  0  0  0  0  0  0  0  0  0
   -4.8503   14.8797  -34.7437 H   0  0  0  0  0  0  0  0  0  0  0  0
   -3.7820   16.9366  -34.7069 H   0  0  0  0  0  0  0  0  0  0  0  0
   -3.7987   19.3771  -34.2603 H   0  0  0  0  0  0  0  0  0  0  0  0
  1  2  1  0
  2  3  1  0
  3  4  1  0
  4  5  1  0
  5  6  1  0
  6  7  1  0
  7  8  1  0
  8  9  1  0
  9 10  1  0
 10 11  2  0
 11 12  1  0
 12 13  2  0
 13 14  1  0
 14 15  2  0
 15 16  1  0
 16 17  2  0
 17 18  1  0
 17 19  1  0
 19 20  2  0
 20 21  1  0
 21 22  1  0
 21 23  2  0
 23 24  1  0
 24 25  2  0
 25 10  1  0
 16 11  1  0
 25 19  1  0
  1 26  1  0
  1 27  1  0
  1 28  1  0
  2 29  1  0
  2 30  1  0
  3 31  1  0
  3 32  1  0
  4 33  1  0
  4 34  1  0
  5 35  1  0
  5 36  1  0
  7 37  1  0
  7 38  1  0
  8 39  1  0
  8 40  1  0
  9 41  1  0
 12 42  1  0
 13 43  1  0
 14 44  1  0
 15 45  1  0
 18 46  1  0
 18 47  1  0
 18 48  1  0
 20 49  1  0
 22 50  1  0
 22 51  1  0
 22 52  1  0
 23 53  1  0
 24 54  1  0
M  CHG  2   3   1  17   1
M  END
>  <UniqueID>  (16) 
16

>  <SMILES>  (16) 
CC[NH2+]CCOCCNc1c2ccccc2[n+](C)c2cc(C)ccc12

>  <Energy>  (16) 
72.01947494256667

>  <Genealogy>  (16) 
CC[NH2+]CCOCCNc1c2ccccc2[n+](C)c2cc(C)ccc12 (protonated)
CC[NH2+]CCOCCNc1c2ccccc2[n+](C)c2cc(C)ccc12 (3D coordinates assigned)
CC[NH2+]CCOCCNc1c2ccccc2[n+](C)c2cc(C)ccc12 (optimized conformer: 72.01947494256667 kcal/mol)

>  <smiles>  (16) 
CCNCCOCCNc1c2ccccc2[n+](C)c2cc(C)ccc12

>  <score_type>  (16) 
oracle

>  <origin>  (16) 
adg

>  <m_score__min__energy>  (16) 
-8.4199999999999999

>  <m_primary>  (16) 
energy

$$$$
16:0
     RDKit          3D

 45 48  0  0  0  0  0  0  0  0999 V2000
   -2.9100   19.2130  -34.1880 C   0  0  0  0  0  0  0  0  0  0  0  0
   -4.3010   19.4760  -34.2080 O   0  0  0  0  0  0  0  0  0  0  0  0
   -5.1530   18.4080  -33.9620 C   0  0  0  0  0  0  0  0  0  0  0  0
   -4.9190   17.1310  -34.4270 C   0  0  0  0  0  0  0  0  0  0  0  0
   -5.7540   16.1040  -34.1820 N   0  0  0  0  0  0  0  0  0  0  0  0
   -6.8530   16.3120  -33.4620 C   0  0  0  0  0  0  0  0  0  0  0  0
   -7.1790   17.5510  -32.9510 C   0  0  0  0  0  0  0  0  0  0  0  0
   -6.3110   18.5980  -33.2120 C   0  0  0  0  0  0  0  0  0  0  0  0
   -6.6420   19.9170  -32.6780 C   0  0  0  0  0  0  0  0  0  0  0  0
   -7.8400   20.6000  -32.7340 C   0  0  0  0  0  0  0  0  0  0  0  0
   -7.6380   21.7700  -32.1000 N   0  0  0  0  0  0  0  0  0  0  0  0
   -8.6650   22.7980  -31.9330 C   0  0  0  0  0  0  0  0  0  0  0  0
   -6.3700   21.8410  -31.6550 C   0  0  0  0  0  0  0  0  0  0  0  0
   -5.7310   22.8580  -30.9530 C   0  0  0  0  0  0  0  0  0  0  0  0
   -4.3960   22.6770  -30.6090 C   0  0  0  0  0  0  0  0  0  0  0  0
   -3.6100   23.9660  -29.7280 S   0  0  0  0  0  0  0  0  0  0  0  0
   -3.8730   25.2420  -30.4740 O   0  0  0  0  0  0  0  0  0  0  0  0
   -4.1650   24.0170  -28.3450 O   0  0  0  0  0  0  0  0  0  0  0  0
   -1.9010   23.7490  -29.6690 N   0  0  0  0  0  0  0  0  0  0  0  0
   -1.2240   24.4460  -28.8360 C   0  0  0  0  0  0  0  0  0  0  0  0
    0.0520   24.1840  -28.5020 N   0  0  0  0  0  0  0  0  0  0  0  0
    0.7180   24.9620  -27.6110 C   0  0  0  0  0  0  0  0  0  0  0  0
    0.1020   26.0600  -27.0110 C   0  0  0  0  0  0  0  0  0  0  0  0
   -1.2100   26.3060  -27.3730 C   0  0  0  0  0  0  0  0  0  0  0  0
   -1.8370   25.5110  -28.2600 N   0  0  0  0  0  0  0  0  0  0  0  0
   -3.7120   21.5100  -30.9550 C   0  0  0  0  0  0  0  0  0  0  0  0
   -4.3810   20.5200  -31.6530 C   0  0  0  0  0  0  0  0  0  0  0  0
   -5.7000   20.6910  -31.9970 C   0  0  0  0  0  0  0  0  0  0  0  0
   -2.5642   19.1476  -33.1458 H   0  0  0  0  0  0  0  0  0  0  0  0
   -2.7094   18.2610  -34.7013 H   0  0  0  0  0  0  0  0  0  0  0  0
   -2.3757   20.0260  -34.7013 H   0  0  0  0  0  0  0  0  0  0  0  0
   -4.0131   16.9440  -35.0223 H   0  0  0  0  0  0  0  0  0  0  0  0
   -7.5267   15.4646  -33.2669 H   0  0  0  0  0  0  0  0  0  0  0  0
   -8.0936   17.7017  -32.3587 H   0  0  0  0  0  0  0  0  0  0  0  0
   -8.7738   20.2566  -33.2032 H   0  0  0  0  0  0  0  0  0  0  0  0
   -8.8388   22.9719  -30.8608 H   0  0  0  0  0  0  0  0  0  0  0  0
   -8.3289   23.7324  -32.4063 H   0  0  0  0  0  0  0  0  0  0  0  0
   -9.5997   22.4628  -32.4063 H   0  0  0  0  0  0  0  0  0  0  0  0
   -6.2664   23.7787  -30.6780 H   0  0  0  0  0  0  0  0  0  0  0  0
    1.7613   24.7223  -27.3579 H   0  0  0  0  0  0  0  0  0  0  0  0
    0.6319   26.6971  -26.2876 H   0  0  0  0  0  0  0  0  0  0  0  0
   -1.7461   27.1593  -26.9319 H   0  0  0  0  0  0  0  0  0  0  0  0
   -2.8280   25.7240  -28.5120 H   0  0  0  0  0  0  0  0  0  0  0  0
   -2.6559   21.3794  -30.6766 H   0  0  0  0  0  0  0  0  0  0  0  0
   -3.8559   19.5948  -31.9328 H   0  0  0  0  0  0  0  0  0  0  0  0
  1  2  1  0
  2  3  1  0
  3  4  2  0
  4  5  1  0
  5  6  2  0
  6  7  1  0
  7  8  2  0
  8  9  1  0
  9 10  2  0
 10 11  1  0
 11 12  1  0
 11 13  1  0
 13 14  2  0
 14 15  1  0
 15 16  1  0
 16 17  2  0
 16 18  2  0
 16 19  1  0
 19 20  2  3
 20 21  1  0
 21 22  2  0
 22 23  1  0
 23 24  2  0
 24 25  1  0
 15 26  2  0
 26 27  1  0
 27 28  2  0
  8  3  1  0
 28  9  1  0
 28 13  1  0
 25 20  1  0
  1 29  1  0
  1 30  1  0
  1 31  1  0
  4 32  1  0
  6 33  1  0
  7 34  1  0
 10 35  1  0
 12 36  1  0
 12 37  1  0
 12 38  1  0
 14 39  1  0
 22 40  1  0
 23 41  1  0
 24 42  1  0
 25 43  1  0
 26 44  1  0
 27 45  1  0
M  END
>  <smiles>  (17) 
COc1cnccc1-c1cn(C)c2cc(S(=O)(=O)N=c3nccc[nH]3)ccc12

>  <score_type>  (17) 
oracle

>  <origin>  (17) 
adg

>  <m_score__min__energy>  (17) 
-9.7300000000000004

>  <m_primary>  (17) 
energy

$$$$
17:0
     RDKit          3D

 44 47  0  0  0  0  0  0  0  0999 V2000
   -1.9680   24.2140  -29.3170 C   0  0  0  0  0  0  0  0  0  0  0  0
   -3.3670   24.2810  -29.7170 N   0  0  0  0  0  0  0  0  0  0  0  0
   -4.2970   23.3360  -29.4850 C   0  0  0  0  0  0  0  0  0  0  0  0
   -5.4690   23.7480  -30.0800 C   0  0  0  0  0  0  0  0  0  0  0  0
   -6.7930   23.0450  -30.0550 C   0  0  0  0  0  0  0  0  0  0  0  0
   -7.5150   23.2290  -31.3330 N   0  0  0  0  0  0  0  0  0  0  0  0
   -6.6490   23.1430  -32.5290 C   0  0  0  0  0  0  0  0  0  0  0  0
   -6.0290   21.7490  -32.7160 C   0  0  0  0  0  0  0  0  0  0  0  0
   -7.0010   20.6290  -32.4280 C   0  0  0  0  0  0  0  0  0  0  0  0
   -8.2260   20.8870  -31.7720 C   0  0  0  0  0  0  0  0  0  0  0  0
   -9.1010   19.8280  -31.4910 C   0  0  0  0  0  0  0  0  0  0  0  0
   -8.7510   18.5190  -31.8210 C   0  0  0  0  0  0  0  0  0  0  0  0
   -7.5310   18.2540  -32.4430 C   0  0  0  0  0  0  0  0  0  0  0  0
   -6.6440   19.3030  -32.7500 C   0  0  0  0  0  0  0  0  0  0  0  0
   -5.4020   19.0700  -33.3680 O   0  0  0  0  0  0  0  0  0  0  0  0
   -4.2090   18.6550  -32.7020 C   0  0  0  0  0  0  0  0  0  0  0  0
   -3.2270   19.7810  -32.6290 C   0  0  0  0  0  0  0  0  0  0  0  0
   -2.4730   20.1850  -33.6730 N   0  0  0  0  0  0  0  0  0  0  0  0
   -1.6460   21.2090  -33.3320 C   0  0  0  0  0  0  0  0  0  0  0  0
   -1.7310   21.6220  -32.0090 C   0  0  0  0  0  0  0  0  0  0  0  0
   -2.8840   20.6680  -31.2420 S   0  0  0  0  0  0  0  0  0  0  0  0
   -8.6560   22.3010  -31.4580 C   0  0  0  0  0  0  0  0  0  0  0  0
   -5.1780   24.9650  -30.6650 C   0  0  0  0  0  0  0  0  0  0  0  0
   -3.8840   25.2640  -30.4380 N   0  0  0  0  0  0  0  0  0  0  0  0
   -1.9003   24.2108  -28.2191 H   0  0  0  0  0  0  0  0  0  0  0  0
   -1.5166   23.2932  -29.7149 H   0  0  0  0  0  0  0  0  0  0  0  0
   -1.4306   25.0874  -29.7149 H   0  0  0  0  0  0  0  0  0  0  0  0
   -4.1480   22.4029  -28.9218 H   0  0  0  0  0  0  0  0  0  0  0  0
   -6.6268   21.9707  -29.8872 H   0  0  0  0  0  0  0  0  0  0  0  0
   -7.4013   23.4720  -29.2441 H   0  0  0  0  0  0  0  0  0  0  0  0
   -7.2520   23.3816  -33.4175 H   0  0  0  0  0  0  0  0  0  0  0  0
   -5.8236   23.8572  -32.3925 H   0  0  0  0  0  0  0  0  0  0  0  0
   -5.6839   21.6552  -33.7562 H   0  0  0  0  0  0  0  0  0  0  0  0
   -5.1995   21.6582  -31.9993 H   0  0  0  0  0  0  0  0  0  0  0  0
  -10.0682   20.0307  -31.0079 H   0  0  0  0  0  0  0  0  0  0  0  0
   -9.4394   17.6927  -31.5900 H   0  0  0  0  0  0  0  0  0  0  0  0
   -7.2602   17.2182  -32.6954 H   0  0  0  0  0  0  0  0  0  0  0  0
   -4.4597   18.3275  -31.6823 H   0  0  0  0  0  0  0  0  0  0  0  0
   -3.7571   17.8269  -33.2678 H   0  0  0  0  0  0  0  0  0  0  0  0
   -0.9589   21.6767  -34.0525 H   0  0  0  0  0  0  0  0  0  0  0  0
   -1.1472   22.4304  -31.5447 H   0  0  0  0  0  0  0  0  0  0  0  0
   -9.3122   22.6569  -32.2660 H   0  0  0  0  0  0  0  0  0  0  0  0
   -9.1768   22.2825  -30.4893 H   0  0  0  0  0  0  0  0  0  0  0  0
   -5.8886   25.5897  -31.2261 H   0  0  0  0  0  0  0  0  0  0  0  0
  1  2  1  0
  2  3  1  0
  3  4  2  0
  4  5  1  0
  5  6  1  0
  6  7  1  0
  7  8  1  0
  8  9  1  0
  9 10  2  0
 10 11  1  0
 11 12  2  0
 12 13  1  0
 13 14  2  0
 14 15  1  0
 15 16  1  0
 16 17  1  0
 17 18  2  0
 18 19  1  0
 19 20  2  0
 20 21  1  0
 10 22  1  0
  4 23  1  0
 23 24  2  0
 24  2  1  0
 22  6  1  0
 14  9  1  0
 21 17  1  0
  1 25  1  0
  1 26  1  0
  1 27  1  0
  3 28  1  0
  5 29  1  0
  5 30  1  0
  7 31  1  0
  7 32  1  0
  8 33  1  0
  8 34  1  0
 11 35  1  0
 12 36  1  0
 13 37  1  0
 16 38  1  0
 16 39  1  0
 19 40  1  0
 20 41  1  0
 22 42  1  0
 22 43  1  0
 23 44  1  0
M  END
>  <UniqueID>  (18) 
17

>  <SMILES>  (18) 
Cn1cc(CN2CCc3c(cccc3OCc3nccs3)C2)cn1

>  <Energy>  (18) 
110.60562321448656

>  <Genealogy>  (18) 
Cn1cc(CN2CCc3c(cccc3OCc3nccs3)C2)cn1 (3D coordinates assigned)
Cn1cc(CN2CCc3c(cccc3OCc3nccs3)C2)cn1 (nonaromatic ring conformer: 110.60562321448656 kcal/mol)

>  <smiles>  (18) 
Cn1cc(CN2CCc3c(cccc3OCc3nccs3)C2)cn1

>  <score_type>  (18) 
oracle

>  <origin>  (18) 
adg

>  <m_score__min__energy>  (18) 
-8.4600000000000009

>  <m_primary>  (18) 
energy

$$$$
18:0
     RDKit          3D

 39 42  0  0  0  0  0  0  0  0999 V2000
   -3.4990   21.9690  -29.3310 C   0  0  0  0  0  0  0  0  0  0  0  0
   -3.2140   21.6810  -30.7800 C   0  0  0  0  0  0  0  0  0  0  0  0
   -2.0660   20.9520  -31.1340 C   0  0  0  0  0  0  0  0  0  0  0  0
   -1.7950   20.6650  -32.4750 C   0  0  0  0  0  0  0  0  0  0  0  0
   -2.6700   21.0960  -33.4730 C   0  0  0  0  0  0  0  0  0  0  0  0
   -3.8220   21.8090  -33.1340 C   0  0  0  0  0  0  0  0  0  0  0  0
   -4.1060   22.1000  -31.7930 C   0  0  0  0  0  0  0  0  0  0  0  0
   -5.3110   22.8200  -31.4680 N   0  0  0  0  0  0  0  0  0  0  0  0
   -5.2340   24.1050  -30.9980 C   0  0  0  0  0  0  0  0  0  0  0  0
   -4.1160   24.6710  -30.8420 O   0  0  0  0  0  0  0  0  0  0  0  0
   -6.4050   24.8040  -30.6800 C   0  0  0  0  0  0  0  0  0  0  0  0
   -7.6120   24.2040  -30.8410 N   0  0  0  0  0  0  0  0  0  0  0  0
   -7.7020   22.9340  -31.3080 C   0  0  0  0  0  0  0  0  0  0  0  0
   -8.9360   22.3120  -31.4820 C   0  0  0  0  0  0  0  0  0  0  0  0
   -8.9870   21.0410  -31.9570 N   0  0  0  0  0  0  0  0  0  0  0  0
   -7.8510   20.3540  -32.2630 C   0  0  0  0  0  0  0  0  0  0  0  0
   -7.9070   19.0510  -32.7730 O   0  0  0  0  0  0  0  0  0  0  0  0
   -6.7980   18.2800  -33.1510 C   0  0  0  0  0  0  0  0  0  0  0  0
   -6.3660   17.1700  -32.4000 C   0  0  0  0  0  0  0  0  0  0  0  0
   -5.2450   16.4390  -32.8080 C   0  0  0  0  0  0  0  0  0  0  0  0
   -4.5430   16.8150  -33.9560 C   0  0  0  0  0  0  0  0  0  0  0  0
   -4.9550   17.9280  -34.6930 C   0  0  0  0  0  0  0  0  0  0  0  0
   -6.0750   18.6610  -34.2870 C   0  0  0  0  0  0  0  0  0  0  0  0
   -6.6390   20.9500  -32.1080 N   0  0  0  0  0  0  0  0  0  0  0  0
   -6.5330   22.2230  -31.6320 C   0  0  0  0  0  0  0  0  0  0  0  0
   -2.8659   21.3293  -28.6986 H   0  0  0  0  0  0  0  0  0  0  0  0
   -3.2813   23.0259  -29.1175 H   0  0  0  0  0  0  0  0  0  0  0  0
   -4.5581   21.7624  -29.1175 H   0  0  0  0  0  0  0  0  0  0  0  0
   -1.3761   20.6049  -30.3507 H   0  0  0  0  0  0  0  0  0  0  0  0
   -0.8910   20.0988  -32.7438 H   0  0  0  0  0  0  0  0  0  0  0  0
   -2.4521   20.8739  -34.5281 H   0  0  0  0  0  0  0  0  0  0  0  0
   -4.5102   22.1440  -33.9240 H   0  0  0  0  0  0  0  0  0  0  0  0
   -6.3470   25.8351  -30.3013 H   0  0  0  0  0  0  0  0  0  0  0  0
   -9.8646   22.8478  -31.2358 H   0  0  0  0  0  0  0  0  0  0  0  0
   -6.9111   16.8770  -31.4906 H   0  0  0  0  0  0  0  0  0  0  0  0
   -4.9158   15.5669  -32.2240 H   0  0  0  0  0  0  0  0  0  0  0  0
   -3.6662   16.2348  -34.2794 H   0  0  0  0  0  0  0  0  0  0  0  0
   -4.3983   18.2281  -35.5930 H   0  0  0  0  0  0  0  0  0  0  0  0
   -6.3896   19.5428  -34.8645 H   0  0  0  0  0  0  0  0  0  0  0  0
  1  2  1  0
  2  3  2  0
  3  4  1  0
  4  5  2  0
  5  6  1  0
  6  7  2  0
  7  8  1  0
  8  9  1  0
  9 10  2  0
  9 11  1  0
 11 12  2  0
 12 13  1  0
 13 14  2  0
 14 15  1  0
 15 16  2  0
 16 17  1  0
 17 18  1  0
 18 19  2  0
 19 20  1  0
 20 21  2  0
 21 22  1  0
 22 23  2  0
 16 24  1  0
 24 25  2  0
  7  2  1  0
 25  8  1  0
 25 13  1  0
 23 18  1  0
  1 26  1  0
  1 27  1  0
  1 28  1  0
  3 29  1  0
  4 30  1  0
  5 31  1  0
  6 32  1  0
 11 33  1  0
 14 34  1  0
 19 35  1  0
 20 36  1  0
 21 37  1  0
 22 38  1  0
 23 39  1  0
M  END
>  <UniqueID>  (19) 
18

>  <SMILES>  (19) 
Cc1ccccc1-n1c(=O)cnc2cnc(Oc3ccccc3)nc21

>  <Energy>  (19) 
63.12161223620604

>  <Genealogy>  (19) 
Cc1ccccc1-n1c(=O)cnc2cnc(Oc3ccccc3)nc21 (3D coordinates assigned)
Cc1ccccc1-n1c(=O)cnc2cnc(Oc3ccccc3)nc21 (optimized conformer: 63.12161223620604 kcal/mol)

>  <smiles>  (19) 
Cc1ccccc1-n1c(=O)cnc2cnc(Oc3ccccc3)nc21

>  <score_type>  (19) 
oracle

>  <origin>  (19) 
adg

>  <m_score__min__energy>  (19) 
-8.5399999999999991

>  <m_primary>  (19) 
energy

$$$$
19:0
     RDKit          3D

 46 48  0  0  0  0  0  0  0  0999 V2000
   -2.8780   21.1890  -34.5820 H   0  0  0  0  0  0  0  0  0  0  0  0
   -3.3860   20.7340  -33.8340 O   0  0  0  0  0  0  0  0  0  0  0  0
   -4.7430   20.9230  -33.6980 N   0  0  0  0  0  0  0  0  0  0  0  0
   -5.1180   21.8910  -33.8310 H   0  0  0  0  0  0  0  0  0  0  0  0
   -5.5670   19.9330  -33.4830 C   0  0  0  0  0  0  0  0  0  0  0  0
   -6.7710   20.1810  -32.6590 C   0  0  0  0  0  0  0  0  0  0  0  0
   -7.1970   21.4850  -32.3180 C   0  0  0  0  0  0  0  0  0  0  0  0
   -6.4740   22.6240  -32.6930 O   0  0  0  0  0  0  0  0  0  0  0  0
   -5.5970   23.3200  -31.8520 C   0  0  0  0  0  0  0  0  0  0  0  0
   -5.9280   24.5740  -31.3100 C   0  0  0  0  0  0  0  0  0  0  0  0
   -6.8984   25.0338  -31.5487 H   0  0  0  0  0  0  0  0  0  0  0  0
   -5.0320   25.2400  -30.4700 C   0  0  0  0  0  0  0  0  0  0  0  0
   -5.3055   26.2145  -30.0392 H   0  0  0  0  0  0  0  0  0  0  0  0
   -3.7800   24.6680  -30.1730 C   0  0  0  0  0  0  0  0  0  0  0  0
   -2.8410   25.2870  -29.3310 O   0  0  0  0  0  0  0  0  0  0  0  0
   -2.4260   24.8020  -28.0530 C   0  0  0  0  0  0  0  0  0  0  0  0
   -1.7772   25.5516  -27.5764 H   0  0  0  0  0  0  0  0  0  0  0  0
   -1.8805   23.8574  -28.1950 H   0  0  0  0  0  0  0  0  0  0  0  0
   -3.6300   24.5400  -27.1550 C   0  0  0  0  0  0  0  0  0  0  0  0
   -3.3227   24.6069  -26.1009 H   0  0  0  0  0  0  0  0  0  0  0  0
   -4.4089   25.2897  -27.3581 H   0  0  0  0  0  0  0  0  0  0  0  0
   -4.0270   23.5344  -27.3581 H   0  0  0  0  0  0  0  0  0  0  0  0
   -3.4490   23.4270  -30.7310 C   0  0  0  0  0  0  0  0  0  0  0  0
   -2.4726   22.9721  -30.5078 H   0  0  0  0  0  0  0  0  0  0  0  0
   -4.3480   22.7610  -31.5690 C   0  0  0  0  0  0  0  0  0  0  0  0
   -4.0706   21.7914  -32.0082 H   0  0  0  0  0  0  0  0  0  0  0  0
   -8.3570   21.6530  -31.6250 N   0  0  0  0  0  0  0  0  0  0  0  0
   -9.1100   20.5990  -31.2110 C   0  0  0  0  0  0  0  0  0  0  0  0
  -10.0390   20.7743  -30.6487 H   0  0  0  0  0  0  0  0  0  0  0  0
   -8.7050   19.2960  -31.4990 C   0  0  0  0  0  0  0  0  0  0  0  0
   -9.3037   18.4397  -31.1551 H   0  0  0  0  0  0  0  0  0  0  0  0
   -7.5340   19.0890  -32.2270 C   0  0  0  0  0  0  0  0  0  0  0  0
   -7.2085   18.0650  -32.4627 H   0  0  0  0  0  0  0  0  0  0  0  0
   -5.2920   18.5980  -33.9710 N   0  0  0  0  0  0  0  0  0  0  0  0
   -6.3150   17.5640  -34.0780 C   0  0  0  0  0  0  0  0  0  0  0  0
   -6.8410   17.4456  -33.1192 H   0  0  0  0  0  0  0  0  0  0  0  0
   -7.0713   17.8211  -34.8343 H   0  0  0  0  0  0  0  0  0  0  0  0
   -5.5770   16.2820  -34.4390 C   0  0  0  0  0  0  0  0  0  0  0  0
   -5.9795   15.4324  -33.8679 H   0  0  0  0  0  0  0  0  0  0  0  0
   -5.6883   16.0321  -35.5044 H   0  0  0  0  0  0  0  0  0  0  0  0
   -4.1210   16.5340  -34.0650 C   0  0  0  0  0  0  0  0  0  0  0  0
   -3.9099   16.1462  -33.0575 H   0  0  0  0  0  0  0  0  0  0  0  0
   -3.4285   16.0281  -34.7539 H   0  0  0  0  0  0  0  0  0  0  0  0
   -3.9500   18.0440  -34.1000 C   0  0  0  0  0  0  0  0  0  0  0  0
   -3.3160   18.3773  -33.2652 H   0  0  0  0  0  0  0  0  0  0  0  0
   -3.4625   18.3751  -35.0288 H   0  0  0  0  0  0  0  0  0  0  0  0
  1  2  1  0
  2  3  1  0
  3  4  1  0
  3  5  2  0
  5  6  1  0
  6  7  1  0
  7  8  1  0
  8  9  1  0
  9 10  2  0
 10 11  1  0
 10 12  1  0
 12 13  1  0
 12 14  2  0
 14 15  1  0
 15 16  1  0
 16 17  1  0
 16 18  1  0
 16 19  1  0
 19 20  1  0
 19 21  1  0
 19 22  1  0
 14 23  1  0
 23 24  1  0
 23 25  2  0
 25 26  1  0
  7 27  2  0
 27 28  1  0
 28 29  1  0
 28 30  2  0
 30 31  1  0
 30 32  1  0
 32 33  1  0
  5 34  1  0
 34 35  1  0
 35 36  1  0
 35 37  1  0
 35 38  1  0
 38 39  1  0
 38 40  1  0
 38 41  1  0
 41 42  1  0
 41 43  1  0
 41 44  1  0
 44 45  1  0
 44 46  1  0
 32  6  2  0
 44 34  1  0
 25  9  1  0
M  CHG  1   3   1
M  END
>  <UniqueID>  (20) 
19

>  <SMILES>  (20) 
CCOc1ccc(Oc2ncccc2/C(=[NH+]/O)N2CCCC2)cc1

>  <Energy>  (20) 
61.42865829187222

>  <Genealogy>  (20) 
CCOc1ccc(Oc2ncccc2C(=[NH+]O)N2CCCC2)cc1 (protonated)
CCOc1ccc(Oc2ncccc2/C(=[NH+]/O)N2CCCC2)cc1 (cis-trans isomerization)
CCOc1ccc(Oc2ncccc2/C(=[NH+]/O)N2CCCC2)cc1 (3D coordinates assigned)
CCOc1ccc(Oc2ncccc2/C(=[NH+]/O)N2CCCC2)cc1 (nonaromatic ring conformer: 61.42865829187222 kcal/mol)

>  <smiles>  (20) 
CCOc1ccc(Oc2ncccc2C(=NO)N2CCCC2)cc1

>  <score_type>  (20) 
oracle

>  <origin>  (20) 
adg

>  <m_score__min__energy>  (20) 
-8.0800000000000001

>  <m_primary>  (20) 
energy

$$$$
20:0
     RDKit          3D

 49 51  0  0  0  0  0  0  0  0999 V2000
   -9.0800   23.0460  -32.0360 C   0  0  0  0  0  0  0  0  0  0  0  0
   -8.2500   22.0240  -32.2200 C   0  0  0  0  0  0  0  0  0  0  0  0
   -6.9050   22.2000  -32.6400 N   0  0  0  0  0  0  0  0  0  0  0  0
   -6.2690   20.9380  -32.8070 C   0  0  0  0  0  0  0  0  0  0  0  0
   -4.9460   20.7600  -33.2400 C   0  0  0  0  0  0  0  0  0  0  0  0
   -4.0910   21.9120  -33.4570 N   0  0  0  0  0  0  0  0  0  0  0  0
   -3.3870   22.2680  -32.2140 C   0  0  0  0  0  0  0  0  0  0  0  0
   -4.3740   22.8460  -31.1720 C   0  0  0  0  0  0  0  0  0  0  0  0
   -4.1500   24.2740  -30.8380 N   0  0  0  0  0  0  0  0  0  0  0  0
   -3.2220   24.5200  -29.7120 C   0  0  0  0  0  0  0  0  0  0  0  0
   -3.8170   24.0550  -28.3830 C   0  0  0  0  0  0  0  0  0  0  0  0
   -5.3700   25.1150  -30.8640 C   0  0  0  0  0  0  0  0  0  0  0  0
   -6.5810   24.4970  -30.1590 C   0  0  0  0  0  0  0  0  0  0  0  0
   -4.5070   19.4320  -33.4930 C   0  0  0  0  0  0  0  0  0  0  0  0
   -3.2310   19.1650  -34.0450 C   0  0  0  0  0  0  0  0  0  0  0  0
   -2.8150   17.8600  -34.2920 C   0  0  0  0  0  0  0  0  0  0  0  0
   -3.6550   16.7930  -34.0050 C   0  0  0  0  0  0  0  0  0  0  0  0
   -4.9220   17.0200  -33.4720 C   0  0  0  0  0  0  0  0  0  0  0  0
   -5.3790   18.3350  -33.2020 C   0  0  0  0  0  0  0  0  0  0  0  0
   -6.6420   18.5630  -32.6830 N   0  0  0  0  0  0  0  0  0  0  0  0
   -7.5260   17.4350  -32.3270 C   0  0  0  0  0  0  0  0  0  0  0  0
   -7.0840   19.8520  -32.5280 C   0  0  0  0  0  0  0  0  0  0  0  0
   -8.7480   20.3210  -31.9920 S   0  0  0  0  0  0  0  0  0  0  0  0
  -10.1144   22.8626  -31.7098 H   0  0  0  0  0  0  0  0  0  0  0  0
   -8.7324   24.0750  -32.2099 H   0  0  0  0  0  0  0  0  0  0  0  0
   -6.4950   23.1300  -32.8810 H   0  0  0  0  0  0  0  0  0  0  0  0
   -4.6430   22.7210  -33.8170 H   0  0  0  0  0  0  0  0  0  0  0  0
   -3.3950   21.7100  -34.2100 H   0  0  0  0  0  0  0  0  0  0  0  0
   -2.9100   21.3679  -31.7989 H   0  0  0  0  0  0  0  0  0  0  0  0
   -2.6286   23.0309  -32.4435 H   0  0  0  0  0  0  0  0  0  0  0  0
   -5.3940   22.7424  -31.5706 H   0  0  0  0  0  0  0  0  0  0  0  0
   -4.2154   22.2789  -30.2429 H   0  0  0  0  0  0  0  0  0  0  0  0
   -2.2853   23.9731  -29.8950 H   0  0  0  0  0  0  0  0  0  0  0  0
   -3.0376   25.6025  -29.6473 H   0  0  0  0  0  0  0  0  0  0  0  0
   -3.2493   24.4987  -27.5519 H   0  0  0  0  0  0  0  0  0  0  0  0
   -4.8680   24.3735  -28.3204 H   0  0  0  0  0  0  0  0  0  0  0  0
   -3.7619   22.9582  -28.3204 H   0  0  0  0  0  0  0  0  0  0  0  0
   -5.1383   26.0721  -30.3739 H   0  0  0  0  0  0  0  0  0  0  0  0
   -5.6485   25.2306  -31.9219 H   0  0  0  0  0  0  0  0  0  0  0  0
   -6.4457   24.5660  -29.0695 H   0  0  0  0  0  0  0  0  0  0  0  0
   -7.4918   25.0405  -30.4505 H   0  0  0  0  0  0  0  0  0  0  0  0
   -6.6753   23.4405  -30.4505 H   0  0  0  0  0  0  0  0  0  0  0  0
   -2.5578   20.0020  -34.2824 H   0  0  0  0  0  0  0  0  0  0  0  0
   -1.8173   17.6736  -34.7160 H   0  0  0  0  0  0  0  0  0  0  0  0
   -3.3189   15.7638  -34.1992 H   0  0  0  0  0  0  0  0  0  0  0  0
   -5.5792   16.1645  -33.2569 H   0  0  0  0  0  0  0  0  0  0  0  0
   -7.5913   17.3517  -31.2321 H   0  0  0  0  0  0  0  0  0  0  0  0
   -8.5295   17.6105  -32.7419 H   0  0  0  0  0  0  0  0  0  0  0  0
   -7.1157   16.5025  -32.7419 H   0  0  0  0  0  0  0  0  0  0  0  0
  1  2  2  0
  2  3  1  0
  3  4  1  0
  4  5  2  0
  5  6  1  0
  6  7  1  0
  7  8  1  0
  8  9  1  0
  9 10  1  0
 10 11  1  0
  9 12  1  0
 12 13  1  0
  5 14  1  0
 14 15  2  0
 15 16  1  0
 16 17  2  0
 17 18  1  0
 18 19  2  0
 19 20  1  0
 20 21  1  0
 20 22  2  0
 22 23  1  0
 23  2  1  0
 22  4  1  0
 19 14  1  0
  1 24  1  0
  1 25  1  0
  3 26  1  0
  6 27  1  0
  6 28  1  0
  7 29  1  0
  7 30  1  0
  8 31  1  0
  8 32  1  0
 10 33  1  0
 10 34  1  0
 11 35  1  0
 11 36  1  0
 11 37  1  0
 12 38  1  0
 12 39  1  0
 13 40  1  0
 13 41  1  0
 13 42  1  0
 15 43  1  0
 16 44  1  0
 17 45  1  0
 18 46  1  0
 21 47  1  0
 21 48  1  0
 21 49  1  0
M  CHG  2   6   1  20   1
M  END
>  <UniqueID>  (21) 
20

>  <SMILES>  (21) 
C=C1Nc2c([NH2+]CCN(CC)CC)c3ccccc3[n+](C)c2S1

>  <Energy>  (21) 
88.76439342317475

>  <Genealogy>  (21) 
C=C1Nc2c([NH2+]CCN(CC)CC)c3ccccc3[n+](C)c2S1 (protonated)
C=C1Nc2c([NH2+]CCN(CC)CC)c3ccccc3[n+](C)c2S1 (3D coordinates assigned)
C=C1Nc2c([NH2+]CCN(CC)CC)c3ccccc3[n+](C)c2S1 (nonaromatic ring conformer: 88.76439342317475 kcal/mol)

>  <smiles>  (21) 
C=C1Nc2c(NCCN(CC)CC)c3ccccc3[n+](C)c2S1

>  <score_type>  (21) 
oracle

>  <origin>  (21) 
adg

>  <m_score__min__energy>  (21) 
-7.7000000000000002

>  <m_primary>  (21) 
energy

$$$$
21:0
     RDKit          3D

 76 78  0  0  0  0  0  0  0  0999 V2000
   -1.9700   19.6110  -27.3110 C   0  0  0  0  0  0  0  0  0  0  0  0
   -1.2440   20.3670  -28.4250 C   0  0  0  0  0  0  0  0  0  0  0  0
   -2.0980   21.4330  -29.0030 N   0  0  0  0  0  0  0  0  0  0  0  0
   -3.4820   21.4200  -28.4580 C   0  0  0  0  0  0  0  0  0  0  0  0
   -3.8260   22.6000  -27.5370 C   0  0  0  0  0  0  0  0  0  0  0  0
   -1.4160   22.7490  -28.9340 C   0  0  0  0  0  0  0  0  0  0  0  0
   -2.1400   23.8530  -29.7180 C   0  0  0  0  0  0  0  0  0  0  0  0
   -2.9890   23.3050  -30.7330 O   0  0  0  0  0  0  0  0  0  0  0  0
   -4.3860   23.4890  -30.7870 C   0  0  0  0  0  0  0  0  0  0  0  0
   -4.9430   24.7450  -30.4740 C   0  0  0  0  0  0  0  0  0  0  0  0
   -6.3150   24.9300  -30.4470 C   0  0  0  0  0  0  0  0  0  0  0  0
   -7.1690   23.8700  -30.7040 C   0  0  0  0  0  0  0  0  0  0  0  0
   -6.6710   22.5870  -31.0250 C   0  0  0  0  0  0  0  0  0  0  0  0
   -5.2570   22.4090  -31.1380 C   0  0  0  0  0  0  0  0  0  0  0  0
   -4.7770   21.1730  -31.6350 C   0  0  0  0  0  0  0  0  0  0  0  0
   -3.3770   20.9630  -31.8650 N   0  0  0  0  0  0  0  0  0  0  0  0
   -2.8100   21.1660  -33.1990 C   0  0  0  0  0  0  0  0  0  0  0  0
   -1.3190   21.5320  -33.1440 C   0  0  0  0  0  0  0  0  0  0  0  0
   -0.8010   21.5340  -31.7650 N   0  0  0  0  0  0  0  0  0  0  0  0
   -0.1670   20.2570  -31.3960 C   0  0  0  0  0  0  0  0  0  0  0  0
    0.0390   19.3420  -32.6340 C   0  0  0  0  0  0  0  0  0  0  0  0
   -0.3420   17.9120  -32.4610 N   0  0  1  0  0  0  0  0  0  0  0  0
    0.1190   17.2980  -31.1990 C   0  0  0  0  0  0  0  0  0  0  0  0
   -1.7670   17.6150  -32.7670 C   0  0  0  0  0  0  0  0  0  0  0  0
   -2.2070   17.9390  -34.1960 C   0  0  0  0  0  0  0  0  0  0  0  0
   -5.6880   20.1870  -32.0650 C   0  0  0  0  0  0  0  0  0  0  0  0
   -5.2360   18.9980  -32.6830 C   0  0  0  0  0  0  0  0  0  0  0  0
   -6.1390   18.0470  -33.1530 C   0  0  0  0  0  0  0  0  0  0  0  0
   -7.5040   18.2640  -33.0260 C   0  0  0  0  0  0  0  0  0  0  0  0
   -7.9750   19.4220  -32.4080 C   0  0  0  0  0  0  0  0  0  0  0  0
   -7.0790   20.3940  -31.8900 C   0  0  0  0  0  0  0  0  0  0  0  0
   -7.5320   21.5320  -31.2580 N   0  0  0  0  0  0  0  0  0  0  0  0
   -8.9470   21.6170  -30.8210 C   0  0  0  0  0  0  0  0  0  0  0  0
   -1.6209   19.9746  -26.3333 H   0  0  0  0  0  0  0  0  0  0  0  0
   -3.0534   19.7795  -27.3993 H   0  0  0  0  0  0  0  0  0  0  0  0
   -1.7578   18.5353  -27.3993 H   0  0  0  0  0  0  0  0  0  0  0  0
   -0.3324   20.8236  -28.0121 H   0  0  0  0  0  0  0  0  0  0  0  0
   -0.9961   19.6519  -29.2233 H   0  0  0  0  0  0  0  0  0  0  0  0
   -4.1830   21.4326  -29.3056 H   0  0  0  0  0  0  0  0  0  0  0  0
   -3.5615   20.5134  -27.8402 H   0  0  0  0  0  0  0  0  0  0  0  0
   -3.7341   22.2847  -26.4872 H   0  0  0  0  0  0  0  0  0  0  0  0
   -3.1329   23.4316  -27.7321 H   0  0  0  0  0  0  0  0  0  0  0  0
   -4.8574   22.9289  -27.7321 H   0  0  0  0  0  0  0  0  0  0  0  0
   -1.3533   23.0543  -27.8791 H   0  0  0  0  0  0  0  0  0  0  0  0
   -0.4230   22.6244  -29.3906 H   0  0  0  0  0  0  0  0  0  0  0  0
   -2.7520   24.4440  -29.0207 H   0  0  0  0  0  0  0  0  0  0  0  0
   -1.3822   24.4841  -30.2053 H   0  0  0  0  0  0  0  0  0  0  0  0
   -4.2778   25.5913  -30.2477 H   0  0  0  0  0  0  0  0  0  0  0  0
   -6.7289   25.9237  -30.2203 H   0  0  0  0  0  0  0  0  0  0  0  0
   -8.2563   24.0301  -30.6573 H   0  0  0  0  0  0  0  0  0  0  0  0
   -2.7660   21.0620  -31.0240 H   0  0  0  0  0  0  0  0  0  0  0  0
   -2.9263   20.2384  -33.7787 H   0  0  0  0  0  0  0  0  0  0  0  0
   -3.3466   22.0020  -33.6714 H   0  0  0  0  0  0  0  0  0  0  0  0
   -0.7514   20.7985  -33.7354 H   0  0  0  0  0  0  0  0  0  0  0  0
   -1.2034   22.5472  -33.5515 H   0  0  0  0  0  0  0  0  0  0  0  0
   -1.6190   21.6900  -31.1350 H   0  0  0  0  0  0  0  0  0  0  0  0
    0.8116   20.4635  -30.9380 H   0  0  0  0  0  0  0  0  0  0  0  0
   -0.8294   19.7356  -30.6893 H   0  0  0  0  0  0  0  0  0  0  0  0
   -0.5612   19.7526  -33.4593 H   0  0  0  0  0  0  0  0  0  0  0  0
    1.1226   19.3390  -32.8230 H   0  0  0  0  0  0  0  0  0  0  0  0
    0.1870   17.4020  -33.2090 H   0  0  0  0  0  0  0  0  0  0  0  0
   -0.2985   17.8541  -30.3467 H   0  0  0  0  0  0  0  0  0  0  0  0
   -0.2188   16.2521  -31.1553 H   0  0  0  0  0  0  0  0  0  0  0  0
    1.2176   17.3306  -31.1553 H   0  0  0  0  0  0  0  0  0  0  0  0
   -1.9359   16.5419  -32.5939 H   0  0  0  0  0  0  0  0  0  0  0  0
   -2.3626   18.2650  -32.1091 H   0  0  0  0  0  0  0  0  0  0  0  0
   -3.0925   18.5910  -34.1681 H   0  0  0  0  0  0  0  0  0  0  0  0
   -1.3899   18.4527  -34.7237 H   0  0  0  0  0  0  0  0  0  0  0  0
   -2.4550   17.0062  -34.7237 H   0  0  0  0  0  0  0  0  0  0  0  0
   -4.1559   18.8216  -32.7942 H   0  0  0  0  0  0  0  0  0  0  0  0
   -5.7703   17.1242  -33.6247 H   0  0  0  0  0  0  0  0  0  0  0  0
   -8.2161   17.5207  -33.4138 H   0  0  0  0  0  0  0  0  0  0  0  0
   -9.0593   19.5852  -32.3203 H   0  0  0  0  0  0  0  0  0  0  0  0
   -8.9918   21.6197  -29.7219 H   0  0  0  0  0  0  0  0  0  0  0  0
   -9.3954   22.5437  -31.2085 H   0  0  0  0  0  0  0  0  0  0  0  0
   -9.5031   20.7506  -31.2085 H   0  0  0  0  0  0  0  0  0  0  0  0
  1  2  1  0
  2  3  1  0
  3  4  1  0
  4  5  1  0
  3  6  1  0
  6  7  1  0
  7  8  1  0
  8  9  1  0
  9 10  2  0
 10 11  1  0
 11 12  2  0
 12 13  1  0
 13 14  2  0
 14 15  1  0
 15 16  1  0
 16 17  1  0
 17 18  1  0
 18 19  1  0
 19 20  1  0
 20 21  1  0
 21 22  1  0
 22 23  1  0
 22 24  1  0
 24 25  1  0
 15 26  2  0
 26 27  1  0
 27 28  2  0
 28 29  1  0
 29 30  2  0
 30 31  1  0
 31 32  2  0
 32 33  1  0
 14  9  1  0
 31 26  1  0
 32 13  1  0
  1 34  1  0
  1 35  1  0
  1 36  1  0
  2 37  1  0
  2 38  1  0
  4 39  1  0
  4 40  1  0
  5 41  1  0
  5 42  1  0
  5 43  1  0
  6 44  1  0
  6 45  1  0
  7 46  1  0
  7 47  1  0
 10 48  1  0
 11 49  1  0
 12 50  1  0
 16 51  1  0
 17 52  1  0
 17 53  1  0
 18 54  1  0
 18 55  1  0
 19 56  1  0
 20 57  1  0
 20 58  1  0
 21 59  1  0
 21 60  1  0
 22 61  1  6
 23 62  1  0
 23 63  1  0
 23 64  1  0
 24 65  1  0
 24 66  1  0
 25 67  1  0
 25 68  1  0
 25 69  1  0
 27 70  1  0
 28 71  1  0
 29 72  1  0
 30 73  1  0
 33 74  1  0
 33 75  1  0
 33 76  1  0
M  CHG  2  22   1  32   1
M  END
>  <UniqueID>  (22) 
21

>  <SMILES>  (22) 
CCN(CC)CCOc1cccc2c1c(NCCNCC[N@@H+](C)CC)c1ccccc1[n+]2C

>  <Energy>  (22) 
114.75402974192588

>  <Genealogy>  (22) 
CCN(CC)CCOc1cccc2c1c(NCCNCC[NH+](C)CC)c1ccccc1[n+]2C (protonated)
CCN(CC)CCOc1cccc2c1c(NCCNCC[N@@H+](C)CC)c1ccccc1[n+]2C (chirality)
CCN(CC)CCOc1cccc2c1c(NCCNCC[N@@H+](C)CC)c1ccccc1[n+]2C (3D coordinates assigned)
CCN(CC)CCOc1cccc2c1c(NCCNCC[N@@H+](C)CC)c1ccccc1[n+]2C (optimized conformer: 114.75402974192588 kcal/mol)

>  <smiles>  (22) 
CCN(C)CCNCCNc1c2ccccc2[n+](C)c2cccc(OCCN(CC)CC)c12

>  <score_type>  (22) 
oracle

>  <origin>  (22) 
adg

>  <m_score__min__energy>  (22) 
-7.0300000000000002

>  <m_primary>  (22) 
energy

$$$$
22:0
     RDKit          3D

 51 53  0  0  0  0  0  0  0  0999 V2000
   -4.1090   22.8650  -28.2590 C   0  0  0  0  0  0  0  0  0  0  0  0
   -3.0560   22.0920  -29.0540 C   0  0  0  0  0  0  0  0  0  0  0  0
   -2.2370   22.9900  -29.9020 N   0  0  0  0  0  0  0  0  0  0  0  0
   -1.4240   23.8700  -29.0430 C   0  0  0  0  0  0  0  0  0  0  0  0
   -1.3690   22.2380  -30.8440 C   0  0  0  0  0  0  0  0  0  0  0  0
   -2.0340   20.9180  -31.2580 C   0  0  0  0  0  0  0  0  0  0  0  0
   -2.0540   20.6910  -32.7850 C   0  0  0  0  0  0  0  0  0  0  0  0
   -3.3120   21.0980  -33.4300 N   0  0  0  0  0  0  0  0  0  0  0  0
   -4.6330   20.7460  -32.9520 C   0  0  0  0  0  0  0  0  0  0  0  0
   -5.1810   19.4860  -33.2710 C   0  0  0  0  0  0  0  0  0  0  0  0
   -4.3990   18.4950  -33.9040 C   0  0  0  0  0  0  0  0  0  0  0  0
   -4.9610   17.2820  -34.2990 C   0  0  0  0  0  0  0  0  0  0  0  0
   -6.3090   17.0390  -34.0840 C   0  0  0  0  0  0  0  0  0  0  0  0
   -7.1000   17.9900  -33.4400 C   0  0  0  0  0  0  0  0  0  0  0  0
   -6.5480   19.2160  -32.9780 C   0  0  0  0  0  0  0  0  0  0  0  0
   -7.3110   20.1450  -32.2940 N   0  0  0  0  0  0  0  0  0  0  0  0
   -8.6510   19.7680  -31.7870 C   0  0  0  0  0  0  0  0  0  0  0  0
   -6.8010   21.4030  -32.0290 C   0  0  0  0  0  0  0  0  0  0  0  0
   -7.6160   22.4490  -31.5240 C   0  0  0  0  0  0  0  0  0  0  0  0
   -7.0650   23.6650  -31.1250 C   0  0  0  0  0  0  0  0  0  0  0  0
   -5.6840   23.8760  -31.1950 C   0  0  0  0  0  0  0  0  0  0  0  0
   -5.1030   25.1040  -30.7120 N   0  0  0  0  0  0  0  0  0  0  0  0
   -3.8720   25.3030  -30.7960 O   0  0  0  0  0  0  0  0  0  0  0  0
   -5.8940   26.0790  -30.1460 O   0  0  0  0  0  0  0  0  0  0  0  0
   -4.8740   22.8770  -31.7540 C   0  0  0  0  0  0  0  0  0  0  0  0
   -5.4280   21.6830  -32.2600 C   0  0  0  0  0  0  0  0  0  0  0  0
   -3.9269   22.7313  -27.1825 H   0  0  0  0  0  0  0  0  0  0  0  0
   -4.0473   23.9339  -28.5113 H   0  0  0  0  0  0  0  0  0  0  0  0
   -5.1103   22.4859  -28.5113 H   0  0  0  0  0  0  0  0  0  0  0  0
   -2.3943   21.5655  -28.3504 H   0  0  0  0  0  0  0  0  0  0  0  0
   -3.5781   21.3823  -29.7126 H   0  0  0  0  0  0  0  0  0  0  0  0
   -1.6319   23.6450  -27.9865 H   0  0  0  0  0  0  0  0  0  0  0  0
   -0.3570   23.7013  -29.2508 H   0  0  0  0  0  0  0  0  0  0  0  0
   -1.6765   24.9203  -29.2508 H   0  0  0  0  0  0  0  0  0  0  0  0
   -1.1933   22.8506  -31.7406 H   0  0  0  0  0  0  0  0  0  0  0  0
   -0.4159   22.0122  -30.3434 H   0  0  0  0  0  0  0  0  0  0  0  0
   -1.4832   20.0888  -30.7899 H   0  0  0  0  0  0  0  0  0  0  0  0
   -3.0810   20.9644  -30.9240 H   0  0  0  0  0  0  0  0  0  0  0  0
   -1.2321   21.2694  -33.2323 H   0  0  0  0  0  0  0  0  0  0  0  0
   -1.9457   19.6087  -32.9492 H   0  0  0  0  0  0  0  0  0  0  0  0
   -3.2360   21.7330  -34.2490 H   0  0  0  0  0  0  0  0  0  0  0  0
   -3.3309   18.6830  -34.0880 H   0  0  0  0  0  0  0  0  0  0  0  0
   -4.3347   16.5172  -34.7815 H   0  0  0  0  0  0  0  0  0  0  0  0
   -6.7561   16.0927  -34.4226 H   0  0  0  0  0  0  0  0  0  0  0  0
   -8.1704   17.7879  -33.2867 H   0  0  0  0  0  0  0  0  0  0  0  0
   -8.6410   19.7708  -30.6870 H   0  0  0  0  0  0  0  0  0  0  0  0
   -9.3967   20.4912  -32.1488 H   0  0  0  0  0  0  0  0  0  0  0  0
   -8.9102   18.7621  -32.1488 H   0  0  0  0  0  0  0  0  0  0  0  0
   -8.7027   22.2971  -31.4461 H   0  0  0  0  0  0  0  0  0  0  0  0
   -7.7211   24.4653  -30.7521 H   0  0  0  0  0  0  0  0  0  0  0  0
   -3.7853   23.0277  -31.7986 H   0  0  0  0  0  0  0  0  0  0  0  0
  1  2  1  0
  2  3  1  0
  3  4  1  0
  3  5  1  0
  5  6  1  0
  6  7  1  0
  7  8  1  0
  8  9  1  0
  9 10  2  0
 10 11  1  0
 11 12  2  0
 12 13  1  0
 13 14  2  0
 14 15  1  0
 15 16  2  0
 16 17  1  0
 16 18  1  0
 18 19  2  0
 19 20  1  0
 20 21  2  0
 21 22  1  0
 22 23  2  0
 22 24  1  0
 21 25  1  0
 25 26  2  0
 26  9  1  0
 15 10  1  0
 26 18  1  0
  1 27  1  0
  1 28  1  0
  1 29  1  0
  2 30  1  0
  2 31  1  0
  4 32  1  0
  4 33  1  0
  4 34  1  0
  5 35  1  0
  5 36  1  0
  6 37  1  0
  6 38  1  0
  7 39  1  0
  7 40  1  0
  8 41  1  0
 11 42  1  0
 12 43  1  0
 13 44  1  0
 14 45  1  0
 17 46  1  0
 17 47  1  0
 17 48  1  0
 19 49  1  0
 20 50  1  0
 25 51  1  0
M  CHG  3  16   1  22   1  24  -1
M  END
>  <UniqueID>  (23) 
22

>  <SMILES>  (23) 
CCN(C)CCCNc1c2ccccc2[n+](C)c2ccc([N+](=O)[O-])cc12

>  <Energy>  (23) 
79.85181215887478

>  <Genealogy>  (23) 
CCN(C)CCCNc1c2ccccc2[n+](C)c2ccc([N+](=O)[O-])cc12 (3D coordinates assigned)
CCN(C)CCCNc1c2ccccc2[n+](C)c2ccc([N+](=O)[O-])cc12 (optimized conformer: 79.85181215887478 kcal/mol)

>  <smiles>  (23) 
CCN(C)CCCNc1c2ccccc2[n+](C)c2ccc([N+](=O)[O-])cc12

>  <score_type>  (23) 
oracle

>  <origin>  (23) 
adg

>  <m_score__min__energy>  (23) 
-9.2200000000000006

>  <m_primary>  (23) 
energy

$$$$
23:0
     RDKit          3D

 19 18  0  0  0  0  0  0  0  0999 V2000
   -7.5520   21.9930  -31.9250 C   0  0  0  0  0  0  0  0  0  0  0  0
   -7.2250   23.4920  -31.8700 C   0  0  0  0  0  0  0  0  0  0  0  0
   -5.7820   23.8120  -31.9350 N   0  0  0  0  0  0  0  0  0  0  0  0
   -4.9470   22.6460  -32.2520 C   0  0  0  0  0  0  0  0  0  0  0  0
   -5.1840   24.6310  -30.5100 S   0  0  0  0  0  0  0  0  0  0  0  0
   -4.9860   23.5000  -29.1470 C   0  0  0  0  0  0  0  0  0  0  0  0
   -3.8650   25.2960  -30.7960 O   0  0  0  0  0  0  0  0  0  0  0  0
   -6.1760   25.6840  -30.1030 O   0  0  0  0  0  0  0  0  0  0  0  0
   -7.6380   21.5987  -30.9017 H   0  0  0  0  0  0  0  0  0  0  0  0
   -8.5036   21.8446  -32.4563 H   0  0  0  0  0  0  0  0  0  0  0  0
   -6.7486   21.4617  -32.4563 H   0  0  0  0  0  0  0  0  0  0  0  0
   -7.7236   23.9830  -32.7188 H   0  0  0  0  0  0  0  0  0  0  0  0
   -7.5797   23.8521  -30.8930 H   0  0  0  0  0  0  0  0  0  0  0  0
   -4.6082   22.1729  -31.3185 H   0  0  0  0  0  0  0  0  0  0  0  0
   -5.5339   21.9230  -32.8375 H   0  0  0  0  0  0  0  0  0  0  0  0
   -4.0735   22.9688  -32.8375 H   0  0  0  0  0  0  0  0  0  0  0  0
   -5.0820   24.0486  -28.1984 H   0  0  0  0  0  0  0  0  0  0  0  0
   -5.7616   22.7218  -29.2007 H   0  0  0  0  0  0  0  0  0  0  0  0
   -3.9922   23.0315  -29.2007 H   0  0  0  0  0  0  0  0  0  0  0  0
  1  2  1  0
  2  3  1  0
  3  4  1  0
  3  5  1  0
  5  6  1  0
  5  7  2  0
  5  8  2  0
  1  9  1  0
  1 10  1  0
  1 11  1  0
  2 12  1  0
  2 13  1  0
  4 14  1  0
  4 15  1  0
  4 16  1  0
  6 17  1  0
  6 18  1  0
  6 19  1  0
M  END
>  <UniqueID>  (24) 
23

>  <SMILES>  (24) 
CCN(C)S(C)(=O)=O

>  <Energy>  (24) 
10.668053418495939

>  <Genealogy>  (24) 
CCN(C)S(C)(=O)=O (3D coordinates assigned)
CCN(C)S(C)(=O)=O (optimized conformer: 10.668053418495939 kcal/mol)

>  <smiles>  (24) 
CCN(C)S(C)(=O)=O

>  <score_type>  (24) 
oracle

>  <origin>  (24) 
adg

>  <m_score__min__energy>  (24) 
-4.4800000000000004

>  <m_primary>  (24) 
energy

$$$$
24:0
     RDKit          3D

 51 53  0  0  0  0  0  0  0  0999 V2000
   -3.4920   22.1640  -28.2050 C   0  0  0  0  0  0  0  0  0  0  0  0
   -2.5260   21.0260  -28.5440 C   0  0  0  0  0  0  0  0  0  0  0  0
   -2.1100   21.0400  -29.9550 N   0  0  0  0  0  0  0  0  0  0  0  0
   -0.8840   20.2620  -30.1810 C   0  0  0  0  0  0  0  0  0  0  0  0
   -0.3190   20.5650  -31.5660 C   0  0  0  0  0  0  0  0  0  0  0  0
   -1.1060   21.5600  -32.1880 O   0  0  0  0  0  0  0  0  0  0  0  0
   -1.4640   21.1640  -33.4990 C   0  0  0  0  0  0  0  0  0  0  0  0
   -2.8930   20.6120  -33.5120 C   0  0  0  0  0  0  0  0  0  0  0  0
   -3.4570   20.5790  -32.1530 N   0  0  0  0  0  0  0  0  0  0  0  0
   -4.8880   20.3180  -32.2010 C   0  0  0  0  0  0  0  0  0  0  0  0
   -5.3800   19.0610  -32.6420 C   0  0  0  0  0  0  0  0  0  0  0  0
   -4.5090   17.9780  -32.9240 C   0  0  0  0  0  0  0  0  0  0  0  0
   -4.9930   16.7840  -33.4520 C   0  0  0  0  0  0  0  0  0  0  0  0
   -6.3470   16.6380  -33.7150 C   0  0  0  0  0  0  0  0  0  0  0  0
   -7.2330   17.6640  -33.4020 C   0  0  0  0  0  0  0  0  0  0  0  0
   -6.7810   18.8710  -32.8060 C   0  0  0  0  0  0  0  0  0  0  0  0
   -7.6700   19.8480  -32.4020 N   0  0  0  0  0  0  0  0  0  0  0  0
   -9.1130   19.5300  -32.2930 C   0  0  0  0  0  0  0  0  0  0  0  0
   -7.2130   21.1010  -32.0450 C   0  0  0  0  0  0  0  0  0  0  0  0
   -8.1090   22.1860  -31.8580 C   0  0  0  0  0  0  0  0  0  0  0  0
   -7.6620   23.4210  -31.3980 C   0  0  0  0  0  0  0  0  0  0  0  0
   -6.3170   23.6140  -31.1170 C   0  0  0  0  0  0  0  0  0  0  0  0
   -5.7170   25.2960  -30.4380 Br  0  0  0  0  0  0  0  0  0  0  0  0
   -5.4030   22.5880  -31.3470 C   0  0  0  0  0  0  0  0  0  0  0  0
   -5.8210   21.3350  -31.8640 C   0  0  0  0  0  0  0  0  0  0  0  0
   -3.5748   22.2615  -27.1125 H   0  0  0  0  0  0  0  0  0  0  0  0
   -3.1130   23.1054  -28.6295 H   0  0  0  0  0  0  0  0  0  0  0  0
   -4.4824   21.9429  -28.6295 H   0  0  0  0  0  0  0  0  0  0  0  0
   -1.6312   21.1231  -27.9117 H   0  0  0  0  0  0  0  0  0  0  0  0
   -3.0509   20.0769  -28.3603 H   0  0  0  0  0  0  0  0  0  0  0  0
   -1.9500   22.0290  -30.2600 H   0  0  0  0  0  0  0  0  0  0  0  0
   -0.1382   20.5281  -29.4175 H   0  0  0  0  0  0  0  0  0  0  0  0
   -1.1205   19.1897  -30.1151 H   0  0  0  0  0  0  0  0  0  0  0  0
    0.7164   20.9237  -31.4693 H   0  0  0  0  0  0  0  0  0  0  0  0
   -0.3344   19.6502  -32.1766 H   0  0  0  0  0  0  0  0  0  0  0  0
   -1.4039   22.0332  -34.1705 H   0  0  0  0  0  0  0  0  0  0  0  0
   -0.7724   20.3790  -33.8388 H   0  0  0  0  0  0  0  0  0  0  0  0
   -3.5211   21.2542  -34.1469 H   0  0  0  0  0  0  0  0  0  0  0  0
   -2.8691   19.5856  -33.9070 H   0  0  0  0  0  0  0  0  0  0  0  0
   -3.2540   21.4720  -31.6510 H   0  0  0  0  0  0  0  0  0  0  0  0
   -2.9620   19.8700  -31.5690 H   0  0  0  0  0  0  0  0  0  0  0  0
   -3.4328   18.0830  -32.7222 H   0  0  0  0  0  0  0  0  0  0  0  0
   -4.3005   15.9552  -33.6609 H   0  0  0  0  0  0  0  0  0  0  0  0
   -6.7208   15.7097  -34.1717 H   0  0  0  0  0  0  0  0  0  0  0  0
   -8.3037   17.5378  -33.6203 H   0  0  0  0  0  0  0  0  0  0  0  0
   -9.3956   19.4677  -31.2317 H   0  0  0  0  0  0  0  0  0  0  0  0
   -9.7007   20.3202  -32.7832 H   0  0  0  0  0  0  0  0  0  0  0  0
   -9.3141   18.5660  -32.7832 H   0  0  0  0  0  0  0  0  0  0  0  0
   -9.1773   22.0479  -32.0810 H   0  0  0  0  0  0  0  0  0  0  0  0
   -8.3762   24.2456  -31.2569 H   0  0  0  0  0  0  0  0  0  0  0  0
   -4.3385   22.7525  -31.1238 H   0  0  0  0  0  0  0  0  0  0  0  0
  1  2  1  0
  2  3  1  0
  3  4  1  0
  4  5  1  0
  5  6  1  0
  6  7  1  0
  7  8  1  0
  8  9  1  0
  9 10  1  0
 10 11  2  0
 11 12  1  0
 12 13  2  0
 13 14  1  0
 14 15  2  0
 15 16  1  0
 16 17  2  0
 17 18  1  0
 17 19  1  0
 19 20  2  0
 20 21  1  0
 21 22  2  0
 22 23  1  0
 22 24  1  0
 24 25  2  0
 25 10  1  0
 16 11  1  0
 25 19  1  0
  1 26  1  0
  1 27  1  0
  1 28  1  0
  2 29  1  0
  2 30  1  0
  3 31  1  0
  4 32  1  0
  4 33  1  0
  5 34  1  0
  5 35  1  0
  7 36  1  0
  7 37  1  0
  8 38  1  0
  8 39  1  0
  9 40  1  0
  9 41  1  0
 12 42  1  0
 13 43  1  0
 14 44  1  0
 15 45  1  0
 18 46  1  0
 18 47  1  0
 18 48  1  0
 20 49  1  0
 21 50  1  0
 24 51  1  0
M  CHG  2   9   1  17   1
M  END
>  <UniqueID>  (25) 
24

>  <SMILES>  (25) 
CCNCCOCC[NH2+]c1c2ccccc2[n+](C)c2ccc(Br)cc12

>  <Energy>  (25) 
76.7023300283265

>  <Genealogy>  (25) 
CCNCCOCC[NH2+]c1c2ccccc2[n+](C)c2ccc(Br)cc12 (protonated)
CCNCCOCC[NH2+]c1c2ccccc2[n+](C)c2ccc(Br)cc12 (3D coordinates assigned)
CCNCCOCC[NH2+]c1c2ccccc2[n+](C)c2ccc(Br)cc12 (optimized conformer: 76.7023300283265 kcal/mol)

>  <smiles>  (25) 
CCNCCOCCNc1c2ccccc2[n+](C)c2ccc(Br)cc12

>  <score_type>  (25) 
oracle

>  <origin>  (25) 
adg

>  <m_score__min__energy>  (25) 
-8.6500000000000004

>  <m_primary>  (25) 
energy

$$$$
25:0
     RDKit          3D

 63 65  0  0  0  0  0  0  0  0999 V2000
   -1.3400   21.3570  -29.8430 C   0  0  0  0  0  0  0  0  0  0  0  0
   -2.7040   20.8790  -29.3560 C   0  0  0  0  0  0  0  0  0  0  0  0
   -3.7390   21.8660  -29.6890 N   0  0  0  0  0  0  0  0  0  0  0  0
   -4.1680   22.5770  -28.4770 C   0  0  0  0  0  0  0  0  0  0  0  0
   -3.3750   23.8770  -28.2910 C   0  0  0  0  0  0  0  0  0  0  0  0
   -3.0470   24.5640  -29.6290 C   0  0  0  0  0  0  0  0  0  0  0  0
   -4.1850   24.5160  -30.5650 N   0  0  0  0  0  0  0  0  0  0  0  0
   -5.0630   25.6890  -30.4480 C   0  0  0  0  0  0  0  0  0  0  0  0
   -6.3770   25.3030  -29.7620 C   0  0  0  0  0  0  0  0  0  0  0  0
   -6.6910   23.8930  -30.0310 N   0  0  0  0  0  0  0  0  0  0  0  0
   -7.3880   23.7310  -31.3180 C   0  0  0  0  0  0  0  0  0  0  0  0
   -6.5170   22.9290  -32.2940 C   0  0  0  0  0  0  0  0  0  0  0  0
   -5.4700   22.1760  -31.5800 N   0  0  0  0  0  0  0  0  0  0  0  0
   -5.3520   20.8270  -32.1120 C   0  0  0  0  0  0  0  0  0  0  0  0
   -6.4530   19.9320  -32.0610 C   0  0  0  0  0  0  0  0  0  0  0  0
   -7.6470   20.2620  -31.3740 C   0  0  0  0  0  0  0  0  0  0  0  0
   -8.7630   19.4300  -31.4260 C   0  0  0  0  0  0  0  0  0  0  0  0
   -8.7170   18.2510  -32.1540 C   0  0  0  0  0  0  0  0  0  0  0  0
   -7.5410   17.8720  -32.7950 C   0  0  0  0  0  0  0  0  0  0  0  0
   -6.3690   18.6710  -32.7160 C   0  0  0  0  0  0  0  0  0  0  0  0
   -5.1760   18.2510  -33.2680 N   0  0  0  0  0  0  0  0  0  0  0  0
   -5.0080   16.8370  -33.6810 C   0  0  0  0  0  0  0  0  0  0  0  0
   -4.1180   19.1310  -33.3950 C   0  0  0  0  0  0  0  0  0  0  0  0
   -2.9750   18.8010  -34.1680 C   0  0  0  0  0  0  0  0  0  0  0  0
   -1.8710   19.6490  -34.2260 C   0  0  0  0  0  0  0  0  0  0  0  0
   -1.8750   20.8420  -33.5200 C   0  0  0  0  0  0  0  0  0  0  0  0
   -3.0010   21.2200  -32.7940 C   0  0  0  0  0  0  0  0  0  0  0  0
   -4.1600   20.4040  -32.7600 C   0  0  0  0  0  0  0  0  0  0  0  0
   -0.6996   21.5814  -28.9773 H   0  0  0  0  0  0  0  0  0  0  0  0
   -0.8713   20.5696  -30.4515 H   0  0  0  0  0  0  0  0  0  0  0  0
   -1.4654   22.2648  -30.4515 H   0  0  0  0  0  0  0  0  0  0  0  0
   -2.9468   19.9214  -29.8398 H   0  0  0  0  0  0  0  0  0  0  0  0
   -2.6694   20.7516  -28.2640 H   0  0  0  0  0  0  0  0  0  0  0  0
   -3.3030   22.5680  -30.3330 H   0  0  0  0  0  0  0  0  0  0  0  0
   -5.2381   22.8176  -28.5611 H   0  0  0  0  0  0  0  0  0  0  0  0
   -3.9854   21.9283  -27.6076 H   0  0  0  0  0  0  0  0  0  0  0  0
   -3.9700   24.5683  -27.6761 H   0  0  0  0  0  0  0  0  0  0  0  0
   -2.4223   23.6207  -27.8045 H   0  0  0  0  0  0  0  0  0  0  0  0
   -2.7901   25.6159  -29.4351 H   0  0  0  0  0  0  0  0  0  0  0  0
   -2.2039   24.0283  -30.0896 H   0  0  0  0  0  0  0  0  0  0  0  0
   -4.7440   23.6440  -30.4040 H   0  0  0  0  0  0  0  0  0  0  0  0
   -4.5567   26.4633  -29.8529 H   0  0  0  0  0  0  0  0  0  0  0  0
   -5.2842   26.0723  -31.4550 H   0  0  0  0  0  0  0  0  0  0  0  0
   -6.2789   25.4534  -28.6768 H   0  0  0  0  0  0  0  0  0  0  0  0
   -7.1877   25.9341  -30.1551 H   0  0  0  0  0  0  0  0  0  0  0  0
   -7.3250   23.5570  -29.2670 H   0  0  0  0  0  0  0  0  0  0  0  0
   -8.3356   23.1972  -31.1535 H   0  0  0  0  0  0  0  0  0  0  0  0
   -7.5866   24.7244  -31.7466 H   0  0  0  0  0  0  0  0  0  0  0  0
   -7.1542   22.2221  -32.8457 H   0  0  0  0  0  0  0  0  0  0  0  0
   -6.0297   23.6329  -32.9847 H   0  0  0  0  0  0  0  0  0  0  0  0
   -5.6700   22.1610  -30.5560 H   0  0  0  0  0  0  0  0  0  0  0  0
   -4.5570   22.6780  -31.6270 H   0  0  0  0  0  0  0  0  0  0  0  0
   -7.6938   21.1922  -30.7888 H   0  0  0  0  0  0  0  0  0  0  0  0
   -9.6816   19.7087  -30.8890 H   0  0  0  0  0  0  0  0  0  0  0  0
   -9.6111   17.6142  -32.2251 H   0  0  0  0  0  0  0  0  0  0  0  0
   -7.5187   16.9366  -33.3734 H   0  0  0  0  0  0  0  0  0  0  0  0
   -4.9324   16.2004  -32.7871 H   0  0  0  0  0  0  0  0  0  0  0  0
   -5.8754   16.5248  -34.2812 H   0  0  0  0  0  0  0  0  0  0  0  0
   -4.0916   16.7367  -34.2812 H   0  0  0  0  0  0  0  0  0  0  0  0
   -2.9601   17.8571  -34.7326 H   0  0  0  0  0  0  0  0  0  0  0  0
   -0.9960   19.3718  -34.8322 H   0  0  0  0  0  0  0  0  0  0  0  0
   -0.9870   21.4910  -33.5335 H   0  0  0  0  0  0  0  0  0  0  0  0
   -2.9914   22.1684  -32.2369 H   0  0  0  0  0  0  0  0  0  0  0  0
  1  2  1  0
  2  3  1  0
  3  4  1  0
  4  5  1  0
  5  6  1  0
  6  7  1  0
  7  8  1  0
  8  9  1  0
  9 10  1  0
 10 11  1  0
 11 12  1  0
 12 13  1  0
 13 14  1  0
 14 15  2  0
 15 16  1  0
 16 17  2  0
 17 18  1  0
 18 19  2  0
 19 20  1  0
 20 21  2  0
 21 22  1  0
 21 23  1  0
 23 24  2  0
 24 25  1  0
 25 26  2  0
 26 27  1  0
 27 28  2  0
 28 14  1  0
 20 15  1  0
 28 23  1  0
  1 29  1  0
  1 30  1  0
  1 31  1  0
  2 32  1  0
  2 33  1  0
  3 34  1  0
  4 35  1  0
  4 36  1  0
  5 37  1  0
  5 38  1  0
  6 39  1  0
  6 40  1  0
  7 41  1  0
  8 42  1  0
  8 43  1  0
  9 44  1  0
  9 45  1  0
 10 46  1  0
 11 47  1  0
 11 48  1  0
 12 49  1  0
 12 50  1  0
 13 51  1  0
 13 52  1  0
 16 53  1  0
 17 54  1  0
 18 55  1  0
 19 56  1  0
 22 57  1  0
 22 58  1  0
 22 59  1  0
 24 60  1  0
 25 61  1  0
 26 62  1  0
 27 63  1  0
M  CHG  2  13   1  21   1
M  END
>  <UniqueID>  (26) 
25

>  <SMILES>  (26) 
CCNCCCNCCNCC[NH2+]c1c2ccccc2[n+](C)c2ccccc12

>  <Energy>  (26) 
81.21242557542085

>  <Genealogy>  (26) 
CCNCCCNCCNCC[NH2+]c1c2ccccc2[n+](C)c2ccccc12 (protonated)
CCNCCCNCCNCC[NH2+]c1c2ccccc2[n+](C)c2ccccc12 (3D coordinates assigned)
CCNCCCNCCNCC[NH2+]c1c2ccccc2[n+](C)c2ccccc12 (optimized conformer: 81.21242557542085 kcal/mol)

>  <smiles>  (26) 
CCNCCCNCCNCCNc1c2ccccc2[n+](C)c2ccccc12

>  <score_type>  (26) 
oracle

>  <origin>  (26) 
adg

>  <m_score__min__energy>  (26) 
-7.6100000000000003

>  <m_primary>  (26) 
energy

$$$$
26:0
     RDKit          3D

 38 40  0  0  0  0  0  0  0  0999 V2000
   -6.0760   25.3250  -30.2100 C   0  0  0  0  0  0  0  0  0  0  0  0
   -5.6640   24.1320  -30.9420 N   0  0  0  0  0  0  0  0  0  0  0  0
   -4.3990   23.7750  -31.0970 N   0  0  0  0  0  0  0  0  0  0  0  0
   -4.3760   22.6400  -31.8280 C   0  0  0  0  0  0  0  0  0  0  0  0
   -3.1290   21.9300  -32.2000 C   0  0  0  0  0  0  0  0  0  0  0  0
   -3.0540   21.2380  -33.4240 C   0  0  0  0  0  0  0  0  0  0  0  0
   -1.8840   20.5640  -33.7880 C   0  0  0  0  0  0  0  0  0  0  0  0
   -0.7760   20.5720  -32.9370 C   0  0  0  0  0  0  0  0  0  0  0  0
   -0.8370   21.2550  -31.7210 C   0  0  0  0  0  0  0  0  0  0  0  0
   -2.0050   21.9300  -31.3510 C   0  0  0  0  0  0  0  0  0  0  0  0
   -5.6760   22.2700  -32.1460 C   0  0  0  0  0  0  0  0  0  0  0  0
   -6.4640   23.2450  -31.5700 C   0  0  0  0  0  0  0  0  0  0  0  0
   -7.9710   23.2780  -31.5960 C   0  0  0  0  0  0  0  0  0  0  0  0
   -8.5560   22.0850  -30.9640 N   0  0  0  0  0  0  0  0  0  0  0  0
   -9.2070   21.2060  -31.9480 C   0  0  0  0  0  0  0  0  0  0  0  0
   -8.3550   20.0030  -32.2180 C   0  0  0  0  0  0  0  0  0  0  0  0
   -8.4600   18.7730  -31.5830 C   0  0  0  0  0  0  0  0  0  0  0  0
   -7.5830   17.8120  -32.0990 C   0  0  0  0  0  0  0  0  0  0  0  0
   -6.8010   18.2760  -33.1480 C   0  0  0  0  0  0  0  0  0  0  0  0
   -7.2020   19.8840  -33.4360 S   0  0  0  0  0  0  0  0  0  0  0  0
   -6.0097   25.1330  -29.1289 H   0  0  0  0  0  0  0  0  0  0  0  0
   -5.4155   26.1639  -30.4746 H   0  0  0  0  0  0  0  0  0  0  0  0
   -7.1134   25.5775  -30.4746 H   0  0  0  0  0  0  0  0  0  0  0  0
   -3.9224   21.2275  -34.0991 H   0  0  0  0  0  0  0  0  0  0  0  0
   -1.8360   20.0264  -34.7465 H   0  0  0  0  0  0  0  0  0  0  0  0
    0.1433   20.0408  -33.2248 H   0  0  0  0  0  0  0  0  0  0  0  0
    0.0360   21.2624  -31.0518 H   0  0  0  0  0  0  0  0  0  0  0  0
   -2.0460   22.4645  -30.3904 H   0  0  0  0  0  0  0  0  0  0  0  0
   -6.0041   21.3955  -32.7270 H   0  0  0  0  0  0  0  0  0  0  0  0
   -8.3167   24.1721  -31.0565 H   0  0  0  0  0  0  0  0  0  0  0  0
   -8.2938   23.3003  -32.6473 H   0  0  0  0  0  0  0  0  0  0  0  0
   -7.7840   21.5540  -30.4960 H   0  0  0  0  0  0  0  0  0  0  0  0
   -9.2460   22.3740  -30.2300 H   0  0  0  0  0  0  0  0  0  0  0  0
  -10.1808   20.8795  -31.5541 H   0  0  0  0  0  0  0  0  0  0  0  0
   -9.3464   21.7625  -32.8865 H   0  0  0  0  0  0  0  0  0  0  0  0
   -9.1607   18.5740  -30.7587 H   0  0  0  0  0  0  0  0  0  0  0  0
   -7.5193   16.7851  -31.7098 H   0  0  0  0  0  0  0  0  0  0  0  0
   -6.0478   17.6919  -33.6971 H   0  0  0  0  0  0  0  0  0  0  0  0
  1  2  1  0
  2  3  1  0
  3  4  2  0
  4  5  1  0
  5  6  2  0
  6  7  1  0
  7  8  2  0
  8  9  1  0
  9 10  2  0
  4 11  1  0
 11 12  2  0
 12 13  1  0
 13 14  1  0
 14 15  1  0
 15 16  1  0
 16 17  2  0
 17 18  1  0
 18 19  2  0
 19 20  1  0
 12  2  1  0
 20 16  1  0
 10  5  1  0
  1 21  1  0
  1 22  1  0
  1 23  1  0
  6 24  1  0
  7 25  1  0
  8 26  1  0
  9 27  1  0
 10 28  1  0
 11 29  1  0
 13 30  1  0
 13 31  1  0
 14 32  1  0
 14 33  1  0
 15 34  1  0
 15 35  1  0
 17 36  1  0
 18 37  1  0
 19 38  1  0
M  CHG  1  14   1
M  END
>  <UniqueID>  (27) 
26

>  <SMILES>  (27) 
Cn1nc(-c2ccccc2)cc1C[NH2+]Cc1cccs1

>  <Energy>  (27) 
94.11752734796704

>  <Genealogy>  (27) 
Cn1nc(-c2ccccc2)cc1C[NH2+]Cc1cccs1 (protonated)
Cn1nc(-c2ccccc2)cc1C[NH2+]Cc1cccs1 (3D coordinates assigned)
Cn1nc(-c2ccccc2)cc1C[NH2+]Cc1cccs1 (optimized conformer: 94.11752734796704 kcal/mol)

>  <smiles>  (27) 
Cn1nc(-c2ccccc2)cc1CNCc1cccs1

>  <score_type>  (27) 
oracle

>  <origin>  (27) 
adg

>  <m_score__min__energy>  (27) 
-6.8700000000000001

>  <m_primary>  (27) 
energy

$$$$
27:0
     RDKit          3D

 53 55  0  0  0  0  0  0  0  0999 V2000
   -9.8590   21.5290  -31.5240 C   0  0  0  0  0  0  0  0  0  0  0  0
   -8.5550   20.8820  -31.9280 C   0  0  0  0  0  0  0  0  0  0  0  0
   -8.5900   19.5750  -32.4180 C   0  0  0  0  0  0  0  0  0  0  0  0
   -7.4130   18.8890  -32.7130 C   0  0  0  0  0  0  0  0  0  0  0  0
   -7.4790   17.5290  -33.0650 C   0  0  0  0  0  0  0  0  0  0  0  0
   -6.3120   16.7840  -33.2160 C   0  0  0  0  0  0  0  0  0  0  0  0
   -5.0760   17.3770  -32.9790 C   0  0  0  0  0  0  0  0  0  0  0  0
   -4.9980   18.7320  -32.6500 C   0  0  0  0  0  0  0  0  0  0  0  0
   -6.1560   19.5410  -32.5980 C   0  0  0  0  0  0  0  0  0  0  0  0
   -6.1150   20.9440  -32.3160 C   0  0  0  0  0  0  0  0  0  0  0  0
   -4.9540   21.7720  -32.4970 C   0  0  0  0  0  0  0  0  0  0  0  0
   -3.8250   21.4580  -33.4670 C   0  0  0  0  0  0  0  0  0  0  0  0
   -2.4300   21.4570  -32.7900 C   0  0  0  0  0  0  0  0  0  0  0  0
   -1.3160   21.3910  -33.7580 N   0  0  0  0  0  0  0  0  0  0  0  0
   -0.8720   20.0130  -34.0550 C   0  0  0  0  0  0  0  0  0  0  0  0
   -0.0570   19.8840  -35.3620 C   0  0  0  0  0  0  0  0  0  0  0  0
    0.0170   21.1860  -36.1830 C   0  0  0  0  0  0  0  0  0  0  0  0
    0.4660   22.3260  -35.3550 N   0  0  0  0  0  0  0  0  0  0  0  0
    0.2710   23.5930  -36.0760 C   0  0  0  0  0  0  0  0  0  0  0  0
    1.8850   22.1870  -34.9800 C   0  0  0  0  0  0  0  0  0  0  0  0
   -4.9410   23.0640  -31.9450 C   0  0  0  0  0  0  0  0  0  0  0  0
   -6.0680   23.5940  -31.3370 C   0  0  0  0  0  0  0  0  0  0  0  0
   -7.2570   22.8780  -31.3300 C   0  0  0  0  0  0  0  0  0  0  0  0
   -7.3160   21.5680  -31.8500 C   0  0  0  0  0  0  0  0  0  0  0  0
   -9.9270   21.5628  -30.4266 H   0  0  0  0  0  0  0  0  0  0  0  0
   -9.9005   22.5522  -31.9256 H   0  0  0  0  0  0  0  0  0  0  0  0
  -10.6989   20.9431  -31.9256 H   0  0  0  0  0  0  0  0  0  0  0  0
   -9.5599   19.0798  -32.5734 H   0  0  0  0  0  0  0  0  0  0  0  0
   -8.4573   17.0512  -33.2219 H   0  0  0  0  0  0  0  0  0  0  0  0
   -6.3674   15.7289  -33.5220 H   0  0  0  0  0  0  0  0  0  0  0  0
   -4.1571   16.7766  -33.0510 H   0  0  0  0  0  0  0  0  0  0  0  0
   -4.0174   19.1779  -32.4272 H   0  0  0  0  0  0  0  0  0  0  0  0
   -4.0038   20.4644  -33.9038 H   0  0  0  0  0  0  0  0  0  0  0  0
   -3.8193   22.2472  -34.2332 H   0  0  0  0  0  0  0  0  0  0  0  0
   -2.3267   22.3795  -32.1998 H   0  0  0  0  0  0  0  0  0  0  0  0
   -2.3715   20.5566  -32.1608 H   0  0  0  0  0  0  0  0  0  0  0  0
   -1.6110   21.8460  -34.6540 H   0  0  0  0  0  0  0  0  0  0  0  0
   -0.5170   21.9560  -33.3960 H   0  0  0  0  0  0  0  0  0  0  0  0
   -0.2458   19.6638  -33.2208 H   0  0  0  0  0  0  0  0  0  0  0  0
   -1.7805   19.4065  -34.1848 H   0  0  0  0  0  0  0  0  0  0  0  0
    0.9677   19.5795  -35.1025 H   0  0  0  0  0  0  0  0  0  0  0  0
   -0.5728   19.1409  -35.9878 H   0  0  0  0  0  0  0  0  0  0  0  0
    0.7262   21.0456  -37.0121 H   0  0  0  0  0  0  0  0  0  0  0  0
   -0.9906   21.4117  -36.5624 H   0  0  0  0  0  0  0  0  0  0  0  0
    0.1451   24.4114  -35.3518 H   0  0  0  0  0  0  0  0  0  0  0  0
    1.1487   23.7942  -36.7077 H   0  0  0  0  0  0  0  0  0  0  0  0
   -0.6266   23.5210  -36.7077 H   0  0  0  0  0  0  0  0  0  0  0  0
    1.9754   22.1781  -33.8838 H   0  0  0  0  0  0  0  0  0  0  0  0
    2.2816   21.2457  -35.3882 H   0  0  0  0  0  0  0  0  0  0  0  0
    2.4567   23.0334  -35.3882 H   0  0  0  0  0  0  0  0  0  0  0  0
   -4.0210   23.6648  -31.9963 H   0  0  0  0  0  0  0  0  0  0  0  0
   -6.0201   24.5837  -30.8592 H   0  0  0  0  0  0  0  0  0  0  0  0
   -8.1652   23.3381  -30.9135 H   0  0  0  0  0  0  0  0  0  0  0  0
  1  2  1  0
  2  3  2  0
  3  4  1  0
  4  5  2  0
  5  6  1  0
  6  7  2  0
  7  8  1  0
  8  9  2  0
  9 10  1  0
 10 11  2  0
 11 12  1  0
 12 13  1  0
 13 14  1  0
 14 15  1  0
 15 16  1  0
 16 17  1  0
 17 18  1  0
 18 19  1  0
 18 20  1  0
 11 21  1  0
 21 22  2  0
 22 23  1  0
 23 24  2  0
 24  2  1  0
  9  4  1  0
 24 10  1  0
  1 25  1  0
  1 26  1  0
  1 27  1  0
  3 28  1  0
  5 29  1  0
  6 30  1  0
  7 31  1  0
  8 32  1  0
 12 33  1  0
 12 34  1  0
 13 35  1  0
 13 36  1  0
 14 37  1  0
 14 38  1  0
 15 39  1  0
 15 40  1  0
 16 41  1  0
 16 42  1  0
 17 43  1  0
 17 44  1  0
 19 45  1  0
 19 46  1  0
 19 47  1  0
 20 48  1  0
 20 49  1  0
 20 50  1  0
 21 51  1  0
 22 52  1  0
 23 53  1  0
M  CHG  1  14   1
M  END
>  <UniqueID>  (28) 
27

>  <SMILES>  (28) 
Cc1cc2ccccc2c2c(CC[NH2+]CCCN(C)C)cccc12

>  <Energy>  (28) 
84.80774945781796

>  <Genealogy>  (28) 
Cc1cc2ccccc2c2c(CC[NH2+]CCCN(C)C)cccc12 (protonated)
Cc1cc2ccccc2c2c(CC[NH2+]CCCN(C)C)cccc12 (3D coordinates assigned)
Cc1cc2ccccc2c2c(CC[NH2+]CCCN(C)C)cccc12 (optimized conformer: 84.80774945781796 kcal/mol)

>  <smiles>  (28) 
Cc1cc2ccccc2c2c(CCNCCCN(C)C)cccc12

>  <score_type>  (28) 
oracle

>  <origin>  (28) 
adg

>  <m_score__min__energy>  (28) 
-8.4900000000000002

>  <m_primary>  (28) 
energy

$$$$
28:0
     RDKit          3D

 35 35  0  0  0  0  0  0  0  0999 V2000
   -9.1090   21.1370  -30.9500 C   0  0  0  0  0  0  0  0  0  0  0  0
   -9.7280   20.8290  -32.3170 C   0  0  0  0  0  0  0  0  0  0  0  0
   -9.1260   19.6430  -32.9530 N   0  0  0  0  0  0  0  0  0  0  0  0
   -8.9220   18.5400  -31.9970 C   0  0  0  0  0  0  0  0  0  0  0  0
   -7.4690   18.0280  -32.0060 C   0  0  0  0  0  0  0  0  0  0  0  0
   -6.7780   18.1510  -33.3710 C   0  0  0  0  0  0  0  0  0  0  0  0
   -6.6630   19.5600  -33.7680 N   0  0  0  0  0  0  0  0  0  0  0  0
   -5.3150   20.0670  -33.4930 C   0  0  0  0  0  0  0  0  0  0  0  0
   -5.4090   21.3410  -32.7010 C   0  0  0  0  0  0  0  0  0  0  0  0
   -4.3120   21.7810  -31.9430 C   0  0  0  0  0  0  0  0  0  0  0  0
   -4.4070   22.9450  -31.1770 C   0  0  0  0  0  0  0  0  0  0  0  0
   -5.6000   23.6740  -31.1520 C   0  0  0  0  0  0  0  0  0  0  0  0
   -5.7290   25.2630  -30.1020 Br  0  0  0  0  0  0  0  0  0  0  0  0
   -6.7020   23.2330  -31.8930 C   0  0  0  0  0  0  0  0  0  0  0  0
   -6.6100   22.0680  -32.6610 C   0  0  0  0  0  0  0  0  0  0  0  0
   -9.7894   20.7985  -30.1547 H   0  0  0  0  0  0  0  0  0  0  0  0
   -8.1465   20.6128  -30.8568 H   0  0  0  0  0  0  0  0  0  0  0  0
   -8.9467   22.2210  -30.8568 H   0  0  0  0  0  0  0  0  0  0  0  0
  -10.8053   20.6502  -32.1846 H   0  0  0  0  0  0  0  0  0  0  0  0
   -9.5399   21.6923  -32.9722 H   0  0  0  0  0  0  0  0  0  0  0  0
   -9.7400   19.3280  -33.7410 H   0  0  0  0  0  0  0  0  0  0  0  0
   -8.2000   19.9280  -33.3500 H   0  0  0  0  0  0  0  0  0  0  0  0
   -9.1662   18.8972  -30.9857 H   0  0  0  0  0  0  0  0  0  0  0  0
   -9.5768   17.7077  -32.2946 H   0  0  0  0  0  0  0  0  0  0  0  0
   -6.8919   18.6088  -31.2714 H   0  0  0  0  0  0  0  0  0  0  0  0
   -7.5051   16.9564  -31.7603 H   0  0  0  0  0  0  0  0  0  0  0  0
   -5.7722   17.7101  -33.3079 H   0  0  0  0  0  0  0  0  0  0  0  0
   -7.3805   17.6194  -34.1222 H   0  0  0  0  0  0  0  0  0  0  0  0
   -6.8270   19.6180  -34.8020 H   0  0  0  0  0  0  0  0  0  0  0  0
   -4.7524   19.3179  -32.9165 H   0  0  0  0  0  0  0  0  0  0  0  0
   -4.7972   20.2642  -34.4433 H   0  0  0  0  0  0  0  0  0  0  0  0
   -3.3739   21.2066  -31.9525 H   0  0  0  0  0  0  0  0  0  0  0  0
   -3.5413   23.2891  -30.5920 H   0  0  0  0  0  0  0  0  0  0  0  0
   -7.6422   23.8036  -31.8714 H   0  0  0  0  0  0  0  0  0  0  0  0
   -7.4810   21.7199  -33.2356 H   0  0  0  0  0  0  0  0  0  0  0  0
  1  2  1  0
  2  3  1  0
  3  4  1  0
  4  5  1  0
  5  6  1  0
  6  7  1  0
  7  8  1  0
  8  9  1  0
  9 10  2  0
 10 11  1  0
 11 12  2  0
 12 13  1  0
 12 14  1  0
 14 15  2  0
 15  9  1  0
  1 16  1  0
  1 17  1  0
  1 18  1  0
  2 19  1  0
  2 20  1  0
  3 21  1  0
  3 22  1  0
  4 23  1  0
  4 24  1  0
  5 25  1  0
  5 26  1  0
  6 27  1  0
  6 28  1  0
  7 29  1  0
  8 30  1  0
  8 31  1  0
 10 32  1  0
 11 33  1  0
 14 34  1  0
 15 35  1  0
M  CHG  1   3   1
M  END
>  <UniqueID>  (29) 
28

>  <SMILES>  (29) 
CC[NH2+]CCCNCc1ccc(Br)cc1

>  <Energy>  (29) 
24.97518653411565

>  <Genealogy>  (29) 
CC[NH2+]CCCNCc1ccc(Br)cc1 (protonated)
CC[NH2+]CCCNCc1ccc(Br)cc1 (3D coordinates assigned)
CC[NH2+]CCCNCc1ccc(Br)cc1 (optimized conformer: 24.97518653411565 kcal/mol)

>  <smiles>  (29) 
CCNCCCNCc1ccc(Br)cc1

>  <score_type>  (29) 
oracle

>  <origin>  (29) 
adg

>  <m_score__min__energy>  (29) 
-6.2800000000000002

>  <m_primary>  (29) 
energy

$$$$
29:0
     RDKit          3D

 49 52  0  0  0  0  0  0  0  0999 V2000
   -9.2500   21.6110  -31.2910 C   0  0  0  0  0  0  0  0  0  0  0  0
   -8.0990   20.8380  -31.8740 C   0  0  0  0  0  0  0  0  0  0  0  0
   -8.0730   19.4810  -32.0010 N   0  0  0  0  0  0  0  0  0  0  0  0
   -9.1170   18.5350  -31.6040 C   0  0  0  0  0  0  0  0  0  0  0  0
   -6.8960   19.2170  -32.6100 C   0  0  0  0  0  0  0  0  0  0  0  0
   -6.3570   17.9870  -32.9990 C   0  0  0  0  0  0  0  0  0  0  0  0
   -5.0980   17.9920  -33.6270 C   0  0  0  0  0  0  0  0  0  0  0  0
   -4.4140   19.2060  -33.8530 C   0  0  0  0  0  0  0  0  0  0  0  0
   -4.9820   20.4290  -33.4550 C   0  0  0  0  0  0  0  0  0  0  0  0
   -6.2310   20.3930  -32.8320 C   0  0  0  0  0  0  0  0  0  0  0  0
   -6.9740   21.4210  -32.3730 N   0  0  0  0  0  0  0  0  0  0  0  0
   -6.6230   22.8460  -32.3910 C   0  0  0  0  0  0  0  0  0  0  0  0
   -5.6070   23.1550  -31.3220 C   0  0  0  0  0  0  0  0  0  0  0  0
   -4.2650   22.7770  -31.4910 C   0  0  0  0  0  0  0  0  0  0  0  0
   -3.3210   23.0580  -30.4990 C   0  0  0  0  0  0  0  0  0  0  0  0
   -3.7130   23.7030  -29.3210 C   0  0  0  0  0  0  0  0  0  0  0  0
   -2.5030   24.0400  -28.0380 S   0  0  0  0  0  0  0  0  0  0  0  0
   -1.2870   22.8100  -28.6310 C   0  0  0  0  0  0  0  0  0  0  0  0
   -1.5270   21.4640  -28.0040 C   0  0  0  0  0  0  0  0  0  0  0  0
   -0.4650   20.5560  -27.8560 C   0  0  0  0  0  0  0  0  0  0  0  0
   -0.6930   19.2890  -27.3100 C   0  0  0  0  0  0  0  0  0  0  0  0
   -1.9800   18.9190  -26.9120 C   0  0  0  0  0  0  0  0  0  0  0  0
   -3.0430   19.8150  -27.0600 C   0  0  0  0  0  0  0  0  0  0  0  0
   -2.8190   21.0840  -27.6020 C   0  0  0  0  0  0  0  0  0  0  0  0
   -5.0470   24.0850  -29.1460 C   0  0  0  0  0  0  0  0  0  0  0  0
   -5.9920   23.8070  -30.1380 C   0  0  0  0  0  0  0  0  0  0  0  0
   -9.1969   21.5753  -30.1929 H   0  0  0  0  0  0  0  0  0  0  0  0
   -9.1967   22.6571  -31.6269 H   0  0  0  0  0  0  0  0  0  0  0  0
  -10.1982   21.1659  -31.6269 H   0  0  0  0  0  0  0  0  0  0  0  0
   -9.1701   18.4869  -30.5063 H   0  0  0  0  0  0  0  0  0  0  0  0
  -10.0858   18.8691  -32.0037 H   0  0  0  0  0  0  0  0  0  0  0  0
   -8.8797   17.5380  -32.0037 H   0  0  0  0  0  0  0  0  0  0  0  0
   -6.8992   17.0468  -32.8200 H   0  0  0  0  0  0  0  0  0  0  0  0
   -4.6430   17.0422  -33.9445 H   0  0  0  0  0  0  0  0  0  0  0  0
   -3.4297   19.1951  -34.3439 H   0  0  0  0  0  0  0  0  0  0  0  0
   -4.4602   21.3817  -33.6285 H   0  0  0  0  0  0  0  0  0  0  0  0
   -6.2024   23.1024  -33.3745 H   0  0  0  0  0  0  0  0  0  0  0  0
   -7.5305   23.4374  -32.1996 H   0  0  0  0  0  0  0  0  0  0  0  0
   -3.9549   22.2568  -32.4093 H   0  0  0  0  0  0  0  0  0  0  0  0
   -2.2690   22.7717  -30.6447 H   0  0  0  0  0  0  0  0  0  0  0  0
   -1.3734   22.7176  -29.7237 H   0  0  0  0  0  0  0  0  0  0  0  0
   -0.2798   23.1514  -28.3497 H   0  0  0  0  0  0  0  0  0  0  0  0
    0.5492   20.8428  -28.1707 H   0  0  0  0  0  0  0  0  0  0  0  0
    0.1422   18.5827  -27.1937 H   0  0  0  0  0  0  0  0  0  0  0  0
   -2.1571   17.9222  -26.4819 H   0  0  0  0  0  0  0  0  0  0  0  0
   -4.0566   19.5211  -26.7497 H   0  0  0  0  0  0  0  0  0  0  0  0
   -3.6570   21.7877  -27.7143 H   0  0  0  0  0  0  0  0  0  0  0  0
   -5.3531   24.6050  -28.2263 H   0  0  0  0  0  0  0  0  0  0  0  0
   -7.0420   24.1000  -29.9911 H   0  0  0  0  0  0  0  0  0  0  0  0
  1  2  1  0
  2  3  1  0
  3  4  1  0
  3  5  1  0
  5  6  2  0
  6  7  1  0
  7  8  2  0
  8  9  1  0
  9 10  2  0
 10 11  1  0
 11 12  1  0
 12 13  1  0
 13 14  2  0
 14 15  1  0
 15 16  2  0
 16 17  1  0
 17 18  1  0
 18 19  1  0
 19 20  2  0
 20 21  1  0
 21 22  2  0
 22 23  1  0
 23 24  2  0
 16 25  1  0
 25 26  2  0
 11  2  2  0
 26 13  1  0
 10  5  1  0
 24 19  1  0
  1 27  1  0
  1 28  1  0
  1 29  1  0
  4 30  1  0
  4 31  1  0
  4 32  1  0
  6 33  1  0
  7 34  1  0
  8 35  1  0
  9 36  1  0
 12 37  1  0
 12 38  1  0
 14 39  1  0
 15 40  1  0
 18 41  1  0
 18 42  1  0
 20 43  1  0
 21 44  1  0
 22 45  1  0
 23 46  1  0
 24 47  1  0
 25 48  1  0
 26 49  1  0
M  CHG  1  11   1
M  END
>  <UniqueID>  (30) 
29

>  <SMILES>  (30) 
Cc1n(C)c2ccccc2[n+]1Cc1ccc(SCc2ccccc2)cc1

>  <Energy>  (30) 
86.51086965586038

>  <Genealogy>  (30) 
Cc1n(C)c2ccccc2[n+]1Cc1ccc(SCc2ccccc2)cc1 (3D coordinates assigned)
Cc1n(C)c2ccccc2[n+]1Cc1ccc(SCc2ccccc2)cc1 (optimized conformer: 86.51086965586038 kcal/mol)

>  <smiles>  (30) 
Cc1n(C)c2ccccc2[n+]1Cc1ccc(SCc2ccccc2)cc1

>  <score_type>  (30) 
oracle

>  <origin>  (30) 
adg

>  <m_score__min__energy>  (30) 
-8.5199999999999996

>  <m_primary>  (30) 
energy

$$$$
30:0
     RDKit          3D

 76 78  0  0  0  0  0  0  0  0999 V2000
   -2.7150   19.7270  -27.1080 C   0  0  0  0  0  0  0  0  0  0  0  0
   -2.4930   20.8960  -28.0630 C   0  0  0  0  0  0  0  0  0  0  0  0
   -2.2920   20.4390  -29.4640 N   0  0  0  0  0  0  0  0  0  0  0  0
   -0.9120   20.7400  -29.9200 C   0  0  0  0  0  0  0  0  0  0  0  0
   -0.0350   19.4880  -29.9920 C   0  0  0  0  0  0  0  0  0  0  0  0
   -3.2820   21.0600  -30.3840 C   0  0  0  0  0  0  0  0  0  0  0  0
   -2.5910   21.8290  -31.5310 C   0  0  0  0  0  0  0  0  0  0  0  0
   -3.4030   21.8240  -32.7500 N   0  0  0  0  0  0  0  0  0  0  0  0
   -4.6700   21.1450  -32.8010 C   0  0  0  0  0  0  0  0  0  0  0  0
   -5.8420   21.7970  -32.3140 C   0  0  0  0  0  0  0  0  0  0  0  0
   -5.8160   23.0810  -31.6690 C   0  0  0  0  0  0  0  0  0  0  0  0
   -4.6100   23.7890  -31.5000 O   0  0  0  0  0  0  0  0  0  0  0  0
   -4.3280   24.7450  -30.4680 C   0  0  0  0  0  0  0  0  0  0  0  0
   -3.6960   24.1540  -29.1770 C   0  0  0  0  0  0  0  0  0  0  0  0
   -2.4110   24.7420  -28.7430 N   0  0  0  0  0  0  0  0  0  0  0  0
   -2.3140   24.9450  -27.2940 C   0  0  0  0  0  0  0  0  0  0  0  0
   -1.2360   24.0530  -29.2970 C   0  0  0  0  0  0  0  0  0  0  0  0
   -7.0140   23.6400  -31.1960 C   0  0  0  0  0  0  0  0  0  0  0  0
   -8.2300   23.0370  -31.4410 C   0  0  0  0  0  0  0  0  0  0  0  0
   -8.2760   21.8070  -32.0700 C   0  0  0  0  0  0  0  0  0  0  0  0
   -7.0910   21.1180  -32.4250 C   0  0  0  0  0  0  0  0  0  0  0  0
   -7.1500   19.8110  -32.8520 N   0  0  0  0  0  0  0  0  0  0  0  0
   -8.3810   19.0140  -32.6190 C   0  0  0  0  0  0  0  0  0  0  0  0
   -6.0460   19.2090  -33.4180 C   0  0  0  0  0  0  0  0  0  0  0  0
   -6.1730   17.9540  -34.0640 C   0  0  0  0  0  0  0  0  0  0  0  0
   -5.0620   17.2250  -34.4470 C   0  0  0  0  0  0  0  0  0  0  0  0
   -3.7990   17.7470  -34.2560 C   0  0  0  0  0  0  0  0  0  0  0  0
   -3.6200   19.0580  -33.7980 C   0  0  0  0  0  0  0  0  0  0  0  0
   -2.2120   19.4820  -33.6760 C   0  0  0  0  0  0  0  0  0  0  0  0
   -1.4650   18.8520  -32.8820 O   0  0  0  0  0  0  0  0  0  0  0  0
   -1.6250   20.5110  -34.4980 N   0  0  0  0  0  0  0  0  0  0  0  0
   -0.4680   21.3980  -34.2930 C   0  0  0  0  0  0  0  0  0  0  0  0
    0.4770   20.8780  -33.2040 C   0  0  0  0  0  0  0  0  0  0  0  0
    0.2770   21.7250  -35.5900 C   0  0  0  0  0  0  0  0  0  0  0  0
   -4.7580   19.8240  -33.3460 C   0  0  0  0  0  0  0  0  0  0  0  0
   -2.6472   20.0838  -26.0697 H   0  0  0  0  0  0  0  0  0  0  0  0
   -3.7113   19.2948  -27.2829 H   0  0  0  0  0  0  0  0  0  0  0  0
   -1.9465   18.9596  -27.2829 H   0  0  0  0  0  0  0  0  0  0  0  0
   -3.3723   21.5560  -28.0272 H   0  0  0  0  0  0  0  0  0  0  0  0
   -1.5840   21.4275  -27.7447 H   0  0  0  0  0  0  0  0  0  0  0  0
   -0.9618   21.1944  -30.9205 H   0  0  0  0  0  0  0  0  0  0  0  0
   -0.4590   21.4250  -29.1882 H   0  0  0  0  0  0  0  0  0  0  0  0
    0.2031   19.1481  -28.9733 H   0  0  0  0  0  0  0  0  0  0  0  0
   -0.5745   18.6927  -30.5272 H   0  0  0  0  0  0  0  0  0  0  0  0
    0.8968   19.7233  -30.5272 H   0  0  0  0  0  0  0  0  0  0  0  0
   -3.9136   20.2691  -30.8147 H   0  0  0  0  0  0  0  0  0  0  0  0
   -3.8857   21.7753  -29.8062 H   0  0  0  0  0  0  0  0  0  0  0  0
   -2.4277   22.8700  -31.2152 H   0  0  0  0  0  0  0  0  0  0  0  0
   -1.6355   21.3309  -31.7523 H   0  0  0  0  0  0  0  0  0  0  0  0
   -2.9330   22.0310  -33.6610 H   0  0  0  0  0  0  0  0  0  0  0  0
   -3.6321   25.4925  -30.8768 H   0  0  0  0  0  0  0  0  0  0  0  0
   -5.2983   25.1677  -30.1684 H   0  0  0  0  0  0  0  0  0  0  0  0
   -4.4187   24.2893  -28.3589 H   0  0  0  0  0  0  0  0  0  0  0  0
   -3.4696   23.1048  -29.4176 H   0  0  0  0  0  0  0  0  0  0  0  0
   -2.7316   24.0711  -26.7726 H   0  0  0  0  0  0  0  0  0  0  0  0
   -1.2584   25.0709  -27.0112 H   0  0  0  0  0  0  0  0  0  0  0  0
   -2.8792   25.8453  -27.0112 H   0  0  0  0  0  0  0  0  0  0  0  0
   -0.6060   23.6836  -28.4745 H   0  0  0  0  0  0  0  0  0  0  0  0
   -1.5658   23.2052  -29.9155 H   0  0  0  0  0  0  0  0  0  0  0  0
   -0.6572   24.7548  -29.9155 H   0  0  0  0  0  0  0  0  0  0  0  0
   -6.9822   24.5762  -30.6194 H   0  0  0  0  0  0  0  0  0  0  0  0
   -9.1625   23.5345  -31.1361 H   0  0  0  0  0  0  0  0  0  0  0  0
   -9.2521   21.3546  -32.2992 H   0  0  0  0  0  0  0  0  0  0  0  0
   -8.5484   18.9056  -31.5372 H   0  0  0  0  0  0  0  0  0  0  0  0
   -9.2414   19.5269  -33.0736 H   0  0  0  0  0  0  0  0  0  0  0  0
   -8.2652   18.0190  -33.0736 H   0  0  0  0  0  0  0  0  0  0  0  0
   -7.1767   17.5512  -34.2650 H   0  0  0  0  0  0  0  0  0  0  0  0
   -5.1848   16.2314  -34.9028 H   0  0  0  0  0  0  0  0  0  0  0  0
   -2.9182   17.1228  -34.4671 H   0  0  0  0  0  0  0  0  0  0  0  0
   -0.8830   22.3506  -33.9321 H   0  0  0  0  0  0  0  0  0  0  0  0
    0.0575   21.1088  -32.2137 H   0  0  0  0  0  0  0  0  0  0  0  0
    0.5928   19.7891  -33.3084 H   0  0  0  0  0  0  0  0  0  0  0  0
    1.4588   21.3629  -33.3084 H   0  0  0  0  0  0  0  0  0  0  0  0
    1.2599   22.1564  -35.3495 H   0  0  0  0  0  0  0  0  0  0  0  0
    0.4142   20.8044  -36.1762 H   0  0  0  0  0  0  0  0  0  0  0  0
   -0.3078   22.4492  -36.1762 H   0  0  0  0  0  0  0  0  0  0  0  0
  1  2  1  0
  2  3  1  0
  3  4  1  0
  4  5  1  0
  3  6  1  0
  6  7  1  0
  7  8  1  0
  8  9  1  0
  9 10  2  0
 10 11  1  0
 11 12  1  0
 12 13  1  0
 13 14  1  0
 14 15  1  0
 15 16  1  0
 15 17  1  0
 11 18  2  0
 18 19  1  0
 19 20  2  0
 20 21  1  0
 21 22  2  0
 22 23  1  0
 22 24  1  0
 24 25  2  0
 25 26  1  0
 26 27  2  0
 27 28  1  0
 28 29  1  0
 29 30  2  0
 29 31  1  0
 31 32  1  0
 32 33  1  0
 32 34  1  0
 28 35  2  0
 35  9  1  0
 21 10  1  0
 35 24  1  0
  1 36  1  0
  1 37  1  0
  1 38  1  0
  2 39  1  0
  2 40  1  0
  4 41  1  0
  4 42  1  0
  5 43  1  0
  5 44  1  0
  5 45  1  0
  6 46  1  0
  6 47  1  0
  7 48  1  0
  7 49  1  0
  8 50  1  0
 13 51  1  0
 13 52  1  0
 14 53  1  0
 14 54  1  0
 16 55  1  0
 16 56  1  0
 16 57  1  0
 17 58  1  0
 17 59  1  0
 17 60  1  0
 18 61  1  0
 19 62  1  0
 20 63  1  0
 23 64  1  0
 23 65  1  0
 23 66  1  0
 25 67  1  0
 26 68  1  0
 27 69  1  0
 32 70  1  0
 33 71  1  0
 33 72  1  0
 33 73  1  0
 34 74  1  0
 34 75  1  0
 34 76  1  0
M  CHG  2  22   1  31  -1
M  END
>  <UniqueID>  (31) 
30

>  <SMILES>  (31) 
CCN(CC)CCNc1c2c(OCCN(C)C)cccc2[n+](C)c2cccc(C(=O)[N-]C(C)C)c12

>  <Energy>  (31) 
130.77904143424635

>  <Genealogy>  (31) 
CCN(CC)CCNc1c2c(OCCN(C)C)cccc2[n+](C)c2cccc(C(=O)[N-]C(C)C)c12 (protonated)
CCN(CC)CCNc1c2c(OCCN(C)C)cccc2[n+](C)c2cccc(C(=O)[N-]C(C)C)c12 (3D coordinates assigned)
CCN(CC)CCNc1c2c(OCCN(C)C)cccc2[n+](C)c2cccc(C(=O)[N-]C(C)C)c12 (optimized conformer: 130.77904143424635 kcal/mol)

>  <smiles>  (31) 
CCN(CC)CCNc1c2c(OCCN(C)C)cccc2[n+](C)c2cccc(C(=O)NC(C)C)c12

>  <score_type>  (31) 
oracle

>  <origin>  (31) 
adg

>  <m_score__min__energy>  (31) 
-9.7100000000000009

>  <m_primary>  (31) 
energy

$$$$
31:0
     RDKit          3D

 47 47  0  0  0  0  0  0  0  0999 V2000
   -2.2790   20.2470  -33.4460 C   0  0  0  0  0  0  0  0  0  0  0  0
   -3.0730   21.5440  -33.4620 C   0  0  0  0  0  0  0  0  0  0  0  0
   -3.4130   21.9020  -32.1400 O   0  0  0  0  0  0  0  0  0  0  0  0
   -2.7840   21.0390  -31.2100 C   0  0  0  0  0  0  0  0  0  0  0  0
   -3.4540   21.1660  -29.8410 C   0  0  0  0  0  0  0  0  0  0  0  0
   -4.4810   22.1360  -29.8820 O   0  0  0  0  0  0  0  0  0  0  0  0
   -4.3360   23.0670  -28.8300 C   0  0  0  0  0  0  0  0  0  0  0  0
   -4.6150   24.4700  -29.3610 C   0  0  0  0  0  0  0  0  0  0  0  0
   -4.5990   24.4670  -30.8280 N   0  0  0  0  0  0  0  0  0  0  0  0
   -5.8940   24.9110  -31.3580 C   0  0  0  0  0  0  0  0  0  0  0  0
   -6.4490   23.8860  -32.3630 C   0  0  0  0  0  0  0  0  0  0  0  0
   -5.9230   22.5250  -32.1480 N   0  0  0  0  0  0  0  0  0  0  0  0
   -6.9740   21.5330  -32.0720 C   0  0  0  0  0  0  0  0  0  0  0  0
   -8.1070   21.7700  -31.2690 C   0  0  0  0  0  0  0  0  0  0  0  0
   -9.1270   20.8220  -31.1850 C   0  0  0  0  0  0  0  0  0  0  0  0
   -9.0390   19.6330  -31.9070 C   0  0  0  0  0  0  0  0  0  0  0  0
   -7.9210   19.3780  -32.7040 C   0  0  0  0  0  0  0  0  0  0  0  0
   -6.8760   20.3200  -32.7920 C   0  0  0  0  0  0  0  0  0  0  0  0
   -5.7350   20.0850  -33.5750 O   0  0  0  0  0  0  0  0  0  0  0  0
   -5.4330   18.8490  -34.2130 C   0  0  0  0  0  0  0  0  0  0  0  0
   -2.0933   19.9436  -32.4051 H   0  0  0  0  0  0  0  0  0  0  0  0
   -2.8507   19.4607  -33.9607 H   0  0  0  0  0  0  0  0  0  0  0  0
   -1.3187   20.3986  -33.9607 H   0  0  0  0  0  0  0  0  0  0  0  0
   -2.4642   22.3414  -33.9131 H   0  0  0  0  0  0  0  0  0  0  0  0
   -3.9906   21.4057  -34.0527 H   0  0  0  0  0  0  0  0  0  0  0  0
   -2.8690   20.0003  -31.5620 H   0  0  0  0  0  0  0  0  0  0  0  0
   -1.7236   21.3173  -31.1198 H   0  0  0  0  0  0  0  0  0  0  0  0
   -3.8845   20.1944  -29.5569 H   0  0  0  0  0  0  0  0  0  0  0  0
   -2.7000   21.4764  -29.1027 H   0  0  0  0  0  0  0  0  0  0  0  0
   -5.0489   22.8289  -28.0269 H   0  0  0  0  0  0  0  0  0  0  0  0
   -3.3117   23.0190  -28.4320 H   0  0  0  0  0  0  0  0  0  0  0  0
   -5.6026   24.8025  -29.0087 H   0  0  0  0  0  0  0  0  0  0  0  0
   -3.8363   25.1549  -28.9942 H   0  0  0  0  0  0  0  0  0  0  0  0
   -4.4400   23.4810  -31.1470 H   0  0  0  0  0  0  0  0  0  0  0  0
   -6.6054   25.0236  -30.5265 H   0  0  0  0  0  0  0  0  0  0  0  0
   -5.7550   25.8729  -31.8732 H   0  0  0  0  0  0  0  0  0  0  0  0
   -7.5444   23.8578  -32.2661 H   0  0  0  0  0  0  0  0  0  0  0  0
   -6.1336   24.2058  -33.3671 H   0  0  0  0  0  0  0  0  0  0  0  0
   -5.3340   22.5080  -31.2830 H   0  0  0  0  0  0  0  0  0  0  0  0
   -5.2880   22.2830  -32.9440 H   0  0  0  0  0  0  0  0  0  0  0  0
   -8.1880   22.7101  -30.7037 H   0  0  0  0  0  0  0  0  0  0  0  0
  -10.0028   21.0133  -30.5475 H   0  0  0  0  0  0  0  0  0  0  0  0
   -9.8518   18.8941  -31.8489 H   0  0  0  0  0  0  0  0  0  0  0  0
   -7.8553   18.4354  -33.2671 H   0  0  0  0  0  0  0  0  0  0  0  0
   -5.2449   18.0790  -33.4503 H   0  0  0  0  0  0  0  0  0  0  0  0
   -6.2828   18.5432  -34.8409 H   0  0  0  0  0  0  0  0  0  0  0  0
   -4.5379   18.9696  -34.8409 H   0  0  0  0  0  0  0  0  0  0  0  0
  1  2  1  0
  2  3  1  0
  3  4  1  0
  4  5  1  0
  5  6  1  0
  6  7  1  0
  7  8  1  0
  8  9  1  0
  9 10  1  0
 10 11  1  0
 11 12  1  0
 12 13  1  0
 13 14  2  0
 14 15  1  0
 15 16  2  0
 16 17  1  0
 17 18  2  0
 18 19  1  0
 19 20  1  0
 18 13  1  0
  1 21  1  0
  1 22  1  0
  1 23  1  0
  2 24  1  0
  2 25  1  0
  4 26  1  0
  4 27  1  0
  5 28  1  0
  5 29  1  0
  7 30  1  0
  7 31  1  0
  8 32  1  0
  8 33  1  0
  9 34  1  0
 10 35  1  0
 10 36  1  0
 11 37  1  0
 11 38  1  0
 12 39  1  0
 12 40  1  0
 14 41  1  0
 15 42  1  0
 16 43  1  0
 17 44  1  0
 20 45  1  0
 20 46  1  0
 20 47  1  0
M  CHG  1  12   1
M  END
>  <UniqueID>  (32) 
31

>  <SMILES>  (32) 
CCOCCOCCNCC[NH2+]c1ccccc1OC

>  <Energy>  (32) 
36.53106926411216

>  <Genealogy>  (32) 
CCOCCOCCNCC[NH2+]c1ccccc1OC (protonated)
CCOCCOCCNCC[NH2+]c1ccccc1OC (3D coordinates assigned)
CCOCCOCCNCC[NH2+]c1ccccc1OC (optimized conformer: 36.53106926411216 kcal/mol)

>  <smiles>  (32) 
CCOCCOCCNCCNc1ccccc1OC

>  <score_type>  (32) 
oracle

>  <origin>  (32) 
adg

>  <m_score__min__energy>  (32) 
-4.7800000000000002

>  <m_primary>  (32) 
energy

$$$$
32:0
     RDKit          3D

 26 28  0  0  0  0  0  0  0  0999 V2000
   -1.9170   22.1990  -29.3910 C   0  0  0  0  0  0  0  0  0  0  0  0
   -2.9490   23.1080  -29.9060 N   0  0  0  0  0  0  0  0  0  0  0  0
   -2.8690   24.4720  -29.7190 C   0  0  0  0  0  0  0  0  0  0  0  0
   -1.8810   24.9790  -29.1220 O   0  0  0  0  0  0  0  0  0  0  0  0
   -3.8660   25.2990  -30.1780 N   0  0  0  0  0  0  0  0  0  0  0  0
   -4.9650   24.8040  -30.8160 C   0  0  0  0  0  0  0  0  0  0  0  0
   -5.8700   25.5750  -31.2310 O   0  0  0  0  0  0  0  0  0  0  0  0
   -5.0470   23.4340  -30.9810 C   0  0  0  0  0  0  0  0  0  0  0  0
   -6.0000   22.6810  -31.5490 N   0  0  0  0  0  0  0  0  0  0  0  0
   -5.5630   21.4270  -31.4140 N   0  0  0  0  0  0  0  0  0  0  0  0
   -6.2700   20.2870  -31.9350 C   0  0  0  0  0  0  0  0  0  0  0  0
   -5.5440   19.2640  -32.5730 C   0  0  0  0  0  0  0  0  0  0  0  0
   -6.1930   18.1330  -33.0730 C   0  0  0  0  0  0  0  0  0  0  0  0
   -7.5760   18.0100  -32.9500 C   0  0  0  0  0  0  0  0  0  0  0  0
   -8.3160   19.0210  -32.3340 C   0  0  0  0  0  0  0  0  0  0  0  0
   -7.6780   20.1620  -31.8280 C   0  0  0  0  0  0  0  0  0  0  0  0
   -8.7970   21.5340  -31.0870 Br  0  0  0  0  0  0  0  0  0  0  0  0
   -4.3780   21.3570  -30.8050 N   0  0  0  0  0  0  0  0  0  0  0  0
   -4.0630   22.6310  -30.5290 C   0  0  0  0  0  0  0  0  0  0  0  0
   -1.9323   22.2124  -28.2912 H   0  0  0  0  0  0  0  0  0  0  0  0
   -2.1165   21.1779  -29.7480 H   0  0  0  0  0  0  0  0  0  0  0  0
   -0.9292   22.5258  -29.7480 H   0  0  0  0  0  0  0  0  0  0  0  0
   -4.4530   19.3563  -32.6790 H   0  0  0  0  0  0  0  0  0  0  0  0
   -5.6122   17.3385  -33.5644 H   0  0  0  0  0  0  0  0  0  0  0  0
   -8.0848   17.1155  -33.3386 H   0  0  0  0  0  0  0  0  0  0  0  0
   -9.4079   18.9214  -32.2451 H   0  0  0  0  0  0  0  0  0  0  0  0
  1  2  1  0
  2  3  1  0
  3  4  2  0
  3  5  1  0
  5  6  1  0
  6  7  2  0
  6  8  1  0
  8  9  2  0
  9 10  1  0
 10 11  1  0
 11 12  2  0
 12 13  1  0
 13 14  2  0
 14 15  1  0
 15 16  2  0
 16 17  1  0
 10 18  1  0
 18 19  2  0
 19  2  1  0
 19  8  1  0
 16 11  1  0
  1 20  1  0
  1 21  1  0
  1 22  1  0
 12 23  1  0
 13 24  1  0
 14 25  1  0
 15 26  1  0
M  CHG  1   5  -1
M  END
>  <UniqueID>  (33) 
32

>  <SMILES>  (33) 
Cn1c(=O)[n-]c(=O)c2nn(-c3ccccc3Br)nc21

>  <Energy>  (33) 
81.46792297401514

>  <Genealogy>  (33) 
Cn1c(=O)[n-]c(=O)c2nn(-c3ccccc3Br)nc21 (protonated)
Cn1c(=O)[n-]c(=O)c2nn(-c3ccccc3Br)nc21 (3D coordinates assigned)
Cn1c(=O)[n-]c(=O)c2nn(-c3ccccc3Br)nc21 (optimized conformer: 81.46792297401514 kcal/mol)

>  <smiles>  (33) 
Cn1c(=O)[nH]c(=O)c2nn(-c3ccccc3Br)nc21

>  <score_type>  (33) 
oracle

>  <origin>  (33) 
adg

>  <m_score__min__energy>  (33) 
-8.6999999999999993

>  <m_primary>  (33) 
energy

$$$$
33:0
     RDKit          3D

 39 40  0  0  0  0  0  0  0  0999 V2000
   -3.5460   20.0320  -33.1860 C   0  0  0  0  0  0  0  0  0  0  0  0
   -3.4060   21.5330  -33.4160 C   0  0  0  0  0  0  0  0  0  0  0  0
   -3.9170   22.2650  -32.3020 O   0  0  0  0  0  0  0  0  0  0  0  0
   -3.2120   22.5650  -31.1230 C   0  0  0  0  0  0  0  0  0  0  0  0
   -2.2400   21.6990  -30.5830 C   0  0  0  0  0  0  0  0  0  0  0  0
   -1.5670   22.0370  -29.4080 C   0  0  0  0  0  0  0  0  0  0  0  0
   -1.8540   23.2380  -28.7590 C   0  0  0  0  0  0  0  0  0  0  0  0
   -2.8180   24.1030  -29.2810 C   0  0  0  0  0  0  0  0  0  0  0  0
   -3.5060   23.7720  -30.4650 C   0  0  0  0  0  0  0  0  0  0  0  0
   -4.4830   24.6120  -31.0280 O   0  0  0  0  0  0  0  0  0  0  0  0
   -5.7820   24.8580  -30.4890 C   0  0  0  0  0  0  0  0  0  0  0  0
   -6.8590   24.1490  -31.3270 C   0  0  0  0  0  0  0  0  0  0  0  0
   -6.3030   23.0500  -32.1330 N   0  0  0  0  0  0  0  0  0  0  0  0
   -7.2210   21.9380  -32.2250 C   0  0  0  0  0  0  0  0  0  0  0  0
   -6.7760   20.6800  -32.6710 C   0  0  0  0  0  0  0  0  0  0  0  0
   -7.6650   19.6020  -32.7420 C   0  0  0  0  0  0  0  0  0  0  0  0
   -9.0020   19.7690  -32.3700 C   0  0  0  0  0  0  0  0  0  0  0  0
   -9.4520   21.0150  -31.9250 C   0  0  0  0  0  0  0  0  0  0  0  0
   -8.5670   22.0950  -31.8510 C   0  0  0  0  0  0  0  0  0  0  0  0
   -3.5651   19.8268  -32.1055 H   0  0  0  0  0  0  0  0  0  0  0  0
   -4.4812   19.6766  -33.6433 H   0  0  0  0  0  0  0  0  0  0  0  0
   -2.6927   19.5098  -33.6433 H   0  0  0  0  0  0  0  0  0  0  0  0
   -2.3427   21.7795  -33.5528 H   0  0  0  0  0  0  0  0  0  0  0  0
   -3.9805   21.8080  -34.3128 H   0  0  0  0  0  0  0  0  0  0  0  0
   -2.0103   20.7507  -31.0909 H   0  0  0  0  0  0  0  0  0  0  0  0
   -0.8095   21.3557  -28.9933 H   0  0  0  0  0  0  0  0  0  0  0  0
   -1.3202   23.5040  -27.8347 H   0  0  0  0  0  0  0  0  0  0  0  0
   -3.0415   25.0483  -28.7648 H   0  0  0  0  0  0  0  0  0  0  0  0
   -5.8219   24.4819  -29.4561 H   0  0  0  0  0  0  0  0  0  0  0  0
   -5.9743   25.9409  -30.5074 H   0  0  0  0  0  0  0  0  0  0  0  0
   -7.6227   23.7399  -30.6492 H   0  0  0  0  0  0  0  0  0  0  0  0
   -7.2908   24.8887  -32.0172 H   0  0  0  0  0  0  0  0  0  0  0  0
   -6.1100   23.4070  -33.0980 H   0  0  0  0  0  0  0  0  0  0  0  0
   -5.3850   22.7420  -31.7320 H   0  0  0  0  0  0  0  0  0  0  0  0
   -5.7249   20.5435  -32.9651 H   0  0  0  0  0  0  0  0  0  0  0  0
   -7.3110   18.6208  -33.0913 H   0  0  0  0  0  0  0  0  0  0  0  0
   -9.6994   18.9203  -32.4275 H   0  0  0  0  0  0  0  0  0  0  0  0
  -10.5042   21.1463  -31.6325 H   0  0  0  0  0  0  0  0  0  0  0  0
   -8.9260   23.0730  -31.4981 H   0  0  0  0  0  0  0  0  0  0  0  0
  1  2  1  0
  2  3  1  0
  3  4  1  0
  4  5  2  0
  5  6  1  0
  6  7  2  0
  7  8  1  0
  8  9  2  0
  9 10  1  0
 10 11  1  0
 11 12  1  0
 12 13  1  0
 13 14  1  0
 14 15  2  0
 15 16  1  0
 16 17  2  0
 17 18  1  0
 18 19  2  0
  9  4  1  0
 19 14  1  0
  1 20  1  0
  1 21  1  0
  1 22  1  0
  2 23  1  0
  2 24  1  0
  5 25  1  0
  6 26  1  0
  7 27  1  0
  8 28  1  0
 11 29  1  0
 11 30  1  0
 12 31  1  0
 12 32  1  0
 13 33  1  0
 13 34  1  0
 15 35  1  0
 16 36  1  0
 17 37  1  0
 18 38  1  0
 19 39  1  0
M  CHG  1  13   1
M  END
>  <UniqueID>  (34) 
33

>  <SMILES>  (34) 
CCOc1ccccc1OCC[NH2+]c1ccccc1

>  <Energy>  (34) 
37.61606560503248

>  <Genealogy>  (34) 
CCOc1ccccc1OCC[NH2+]c1ccccc1 (protonated)
CCOc1ccccc1OCC[NH2+]c1ccccc1 (3D coordinates assigned)
CCOc1ccccc1OCC[NH2+]c1ccccc1 (optimized conformer: 37.61606560503248 kcal/mol)

>  <smiles>  (34) 
CCOc1ccccc1OCCNc1ccccc1

>  <score_type>  (34) 
oracle

>  <origin>  (34) 
adg

>  <m_score__min__energy>  (34) 
-6.0199999999999996

>  <m_primary>  (34) 
energy

$$$$
34:0
     RDKit          3D

 46 48  0  0  0  0  0  0  0  0999 V2000
   -1.6680   19.9440  -34.2380 C   0  0  0  0  0  0  0  0  0  0  0  0
   -1.9180   18.9120  -33.1430 C   0  0  0  0  0  0  0  0  0  0  0  0
   -3.1700   19.1490  -32.4990 O   0  0  0  0  0  0  0  0  0  0  0  0
   -3.6950   20.4130  -32.1760 C   0  0  0  0  0  0  0  0  0  0  0  0
   -2.8200   21.3730  -31.6290 C   0  0  0  0  0  0  0  0  0  0  0  0
   -3.2810   22.6550  -31.2960 C   0  0  0  0  0  0  0  0  0  0  0  0
   -4.6260   22.9500  -31.5070 C   0  0  0  0  0  0  0  0  0  0  0  0
   -5.5000   22.0270  -32.0240 C   0  0  0  0  0  0  0  0  0  0  0  0
   -5.0520   20.7520  -32.3880 C   0  0  0  0  0  0  0  0  0  0  0  0
   -6.8840   22.5910  -32.1970 C   0  0  1  0  0  0  0  0  0  0  0  0
   -7.9350   21.7640  -31.4210 C   0  0  0  0  0  0  0  0  0  0  0  0
   -9.1170   21.3270  -32.3020 C   0  0  0  0  0  0  0  0  0  0  0  0
   -8.9950   19.9200  -32.7110 N   0  0  0  0  0  0  0  0  0  0  0  0
   -7.9480   19.2250  -31.9450 C   0  0  0  0  0  0  0  0  0  0  0  0
   -7.7750   17.7890  -32.4480 C   0  0  0  0  0  0  0  0  0  0  0  0
   -6.5400   17.6380  -33.2830 C   0  0  0  0  0  0  0  0  0  0  0  0
   -5.6100   16.6120  -33.1830 C   0  0  0  0  0  0  0  0  0  0  0  0
   -4.5900   16.6990  -34.1380 C   0  0  0  0  0  0  0  0  0  0  0  0
   -4.7200   17.7850  -34.9950 C   0  0  0  0  0  0  0  0  0  0  0  0
   -6.1070   18.6350  -34.5660 S   0  0  0  0  0  0  0  0  0  0  0  0
   -6.7600   24.0550  -31.6720 C   0  0  0  0  0  0  0  0  0  0  0  0
   -5.3260   24.1890  -31.2870 C   0  0  0  0  0  0  0  0  0  0  0  0
   -4.8020   25.2400  -30.8320 O   0  0  0  0  0  0  0  0  0  0  0  0
   -1.4326   20.9157  -33.7792 H   0  0  0  0  0  0  0  0  0  0  0  0
   -0.8226   19.6188  -34.8622 H   0  0  0  0  0  0  0  0  0  0  0  0
   -2.5684   20.0417  -34.8622 H   0  0  0  0  0  0  0  0  0  0  0  0
   -1.9270   17.9069  -33.5900 H   0  0  0  0  0  0  0  0  0  0  0  0
   -1.1160   18.9911  -32.3943 H   0  0  0  0  0  0  0  0  0  0  0  0
   -1.7641   21.1140  -31.4615 H   0  0  0  0  0  0  0  0  0  0  0  0
   -2.5974   23.4089  -30.8785 H   0  0  0  0  0  0  0  0  0  0  0  0
   -5.7457   20.0234  -32.8329 H   0  0  0  0  0  0  0  0  0  0  0  0
   -7.2335   22.5597  -33.2395 H   0  0  0  0  0  0  0  0  0  0  0  0
   -7.4465   20.8651  -31.0168 H   0  0  0  0  0  0  0  0  0  0  0  0
   -8.3363   22.4042  -30.6216 H   0  0  0  0  0  0  0  0  0  0  0  0
  -10.0511   21.4545  -31.7353 H   0  0  0  0  0  0  0  0  0  0  0  0
   -9.1198   21.9502  -33.2085 H   0  0  0  0  0  0  0  0  0  0  0  0
   -8.7100   19.9090  -33.7180 H   0  0  0  0  0  0  0  0  0  0  0  0
   -6.9969   19.7654  -32.0603 H   0  0  0  0  0  0  0  0  0  0  0  0
   -8.2436   19.1964  -30.8859 H   0  0  0  0  0  0  0  0  0  0  0  0
   -7.7043   17.1143  -31.5821 H   0  0  0  0  0  0  0  0  0  0  0  0
   -8.6442   17.5384  -33.0739 H   0  0  0  0  0  0  0  0  0  0  0  0
   -5.6686   15.8122  -32.4301 H   0  0  0  0  0  0  0  0  0  0  0  0
   -3.7637   15.9759  -34.2037 H   0  0  0  0  0  0  0  0  0  0  0  0
   -4.0332   18.0446  -35.8141 H   0  0  0  0  0  0  0  0  0  0  0  0
   -7.0203   24.7753  -32.4616 H   0  0  0  0  0  0  0  0  0  0  0  0
   -7.4410   24.2592  -30.8326 H   0  0  0  0  0  0  0  0  0  0  0  0
  1  2  1  0
  2  3  1  0
  3  4  1  0
  4  5  2  0
  5  6  1  0
  6  7  2  0
  7  8  1  0
  8  9  2  0
  8 10  1  0
 10 11  1  0
 11 12  1  0
 12 13  1  0
 13 14  1  0
 14 15  1  0
 15 16  1  0
 16 17  2  0
 17 18  1  0
 18 19  2  0
 19 20  1  0
 10 21  1  0
 21 22  1  0
 22 23  2  0
  9  4  1  0
 20 16  1  0
 22  7  1  0
  1 24  1  0
  1 25  1  0
  1 26  1  0
  2 27  1  0
  2 28  1  0
  5 29  1  0
  6 30  1  0
  9 31  1  0
 10 32  1  6
 11 33  1  0
 11 34  1  0
 12 35  1  0
 12 36  1  0
 13 37  1  0
 14 38  1  0
 14 39  1  0
 15 40  1  0
 15 41  1  0
 17 42  1  0
 18 43  1  0
 19 44  1  0
 21 45  1  0
 21 46  1  0
M  END
>  <UniqueID>  (35) 
34

>  <SMILES>  (35) 
CCOc1ccc2c(c1)[C@@H](CCNCCc1cccs1)CC2=O

>  <Energy>  (35) 
78.6337663563149

>  <Genealogy>  (35) 
CCOc1ccc2c(c1)[C@@H](CCNCCc1cccs1)CC2=O (chirality)
CCOc1ccc2c(c1)[C@@H](CCNCCc1cccs1)CC2=O (3D coordinates assigned)
CCOc1ccc2c(c1)[C@@H](CCNCCc1cccs1)CC2=O (nonaromatic ring conformer: 78.6337663563149 kcal/mol)

>  <smiles>  (35) 
CCOc1ccc2c(c1)C(CCNCCc1cccs1)CC2=O

>  <score_type>  (35) 
oracle

>  <origin>  (35) 
adg

>  <m_score__min__energy>  (35) 
-8.4499999999999993

>  <m_primary>  (35) 
energy

$$$$
35:0
     RDKit          3D

 53 56  0  0  0  0  0  0  0  0999 V2000
   -6.4570   17.7950  -31.5770 C   0  0  0  0  0  0  0  0  0  0  0  0
   -7.6520   17.6990  -32.3180 O   0  0  0  0  0  0  0  0  0  0  0  0
   -8.6730   18.4170  -31.6550 C   0  0  0  0  0  0  0  0  0  0  0  0
   -9.4860   19.2020  -32.6830 C   0  0  0  0  0  0  0  0  0  0  0  0
   -8.8020   20.3920  -33.0780 O   0  0  0  0  0  0  0  0  0  0  0  0
   -7.8640   21.0920  -32.3010 C   0  0  0  0  0  0  0  0  0  0  0  0
   -8.2030   21.7500  -31.1050 C   0  0  0  0  0  0  0  0  0  0  0  0
   -7.2270   22.4330  -30.3740 C   0  0  0  0  0  0  0  0  0  0  0  0
   -5.8930   22.4750  -30.8180 C   0  0  0  0  0  0  0  0  0  0  0  0
   -4.8640   23.2040  -30.0320 C   0  0  0  0  0  0  0  0  0  0  0  0
   -4.2430   24.4110  -30.3660 C   0  0  0  0  0  0  0  0  0  0  0  0
   -3.3290   24.8600  -29.4650 N   0  0  0  0  0  0  0  0  0  0  0  0
   -3.2050   24.0410  -28.3970 C   0  0  0  0  0  0  0  0  0  0  0  0
   -2.2340   24.2950  -27.3080 C   0  0  0  0  0  0  0  0  0  0  0  0
   -1.9540   25.5430  -26.8810 N   0  0  0  0  0  0  0  0  0  0  0  0
   -1.0270   25.4060  -25.9140 C   0  0  0  0  0  0  0  0  0  0  0  0
   -0.4590   26.5440  -25.1610 C   0  0  0  0  0  0  0  0  0  0  0  0
   -0.1000   27.7370  -25.8130 C   0  0  0  0  0  0  0  0  0  0  0  0
    0.4550   28.7980  -25.0910 C   0  0  0  0  0  0  0  0  0  0  0  0
    0.6660   28.6750  -23.7150 C   0  0  0  0  0  0  0  0  0  0  0  0
    0.3270   27.4870  -23.0610 C   0  0  0  0  0  0  0  0  0  0  0  0
   -0.2270   26.4230  -23.7800 C   0  0  0  0  0  0  0  0  0  0  0  0
   -0.7370   24.0560  -25.7740 C   0  0  0  0  0  0  0  0  0  0  0  0
    0.2920   23.4490  -24.8630 C   0  0  0  0  0  0  0  0  0  0  0  0
   -1.5210   23.3590  -26.6310 N   0  0  0  0  0  0  0  0  0  0  0  0
   -1.5830   21.9030  -26.7740 C   0  0  0  0  0  0  0  0  0  0  0  0
   -4.2220   22.7100  -28.5540 S   0  0  0  0  0  0  0  0  0  0  0  0
   -5.5600   21.8070  -32.0110 C   0  0  0  0  0  0  0  0  0  0  0  0
   -6.5370   21.1240  -32.7410 C   0  0  0  0  0  0  0  0  0  0  0  0
   -6.6896   17.7763  -30.5020 H   0  0  0  0  0  0  0  0  0  0  0  0
   -5.8024   16.9465  -31.8253 H   0  0  0  0  0  0  0  0  0  0  0  0
   -5.9463   18.7371  -31.8253 H   0  0  0  0  0  0  0  0  0  0  0  0
   -9.3319   17.7138  -31.1245 H   0  0  0  0  0  0  0  0  0  0  0  0
   -8.2242   19.1125  -30.9306 H   0  0  0  0  0  0  0  0  0  0  0  0
   -9.6505   18.5710  -33.5689 H   0  0  0  0  0  0  0  0  0  0  0  0
  -10.4462   19.4854  -32.2271 H   0  0  0  0  0  0  0  0  0  0  0  0
   -9.2415   21.7269  -30.7431 H   0  0  0  0  0  0  0  0  0  0  0  0
   -7.5054   22.9438  -29.4404 H   0  0  0  0  0  0  0  0  0  0  0  0
   -4.4769   24.9582  -31.2911 H   0  0  0  0  0  0  0  0  0  0  0  0
   -2.3760   26.4360  -27.2250 H   0  0  0  0  0  0  0  0  0  0  0  0
   -0.2567   27.8361  -26.8973 H   0  0  0  0  0  0  0  0  0  0  0  0
    0.7260   29.7310  -25.6069 H   0  0  0  0  0  0  0  0  0  0  0  0
    1.0984   29.5121  -23.1472 H   0  0  0  0  0  0  0  0  0  0  0  0
    0.4963   27.3888  -21.9786 H   0  0  0  0  0  0  0  0  0  0  0  0
   -0.4825   25.4867  -23.2621 H   0  0  0  0  0  0  0  0  0  0  0  0
    0.0015   23.6204  -23.8160 H   0  0  0  0  0  0  0  0  0  0  0  0
    0.3576   22.3675  -25.0530 H   0  0  0  0  0  0  0  0  0  0  0  0
    1.2703   23.9147  -25.0530 H   0  0  0  0  0  0  0  0  0  0  0  0
   -1.6028   21.4372  -25.7777 H   0  0  0  0  0  0  0  0  0  0  0  0
   -2.4937   21.6272  -27.3259 H   0  0  0  0  0  0  0  0  0  0  0  0
   -0.6990   21.5508  -27.3259 H   0  0  0  0  0  0  0  0  0  0  0  0
   -4.5212   21.8225  -32.3724 H   0  0  0  0  0  0  0  0  0  0  0  0
   -6.2592   20.6064  -33.6710 H   0  0  0  0  0  0  0  0  0  0  0  0
  1  2  1  0
  2  3  1  0
  3  4  1  0
  4  5  1  0
  5  6  1  0
  6  7  2  0
  7  8  1  0
  8  9  2  0
  9 10  1  0
 10 11  2  0
 11 12  1  0
 12 13  2  0
 13 14  1  0
 14 15  2  0
 15 16  1  0
 16 17  1  0
 17 18  2  0
 18 19  1  0
 19 20  2  0
 20 21  1  0
 21 22  2  0
 16 23  2  0
 23 24  1  0
 23 25  1  0
 25 26  1  0
 13 27  1  0
  9 28  1  0
 28 29  2  0
 29  6  1  0
 27 10  1  0
 25 14  1  0
 22 17  1  0
  1 30  1  0
  1 31  1  0
  1 32  1  0
  3 33  1  0
  3 34  1  0
  4 35  1  0
  4 36  1  0
  7 37  1  0
  8 38  1  0
 11 39  1  0
 15 40  1  0
 18 41  1  0
 19 42  1  0
 20 43  1  0
 21 44  1  0
 22 45  1  0
 24 46  1  0
 24 47  1  0
 24 48  1  0
 26 49  1  0
 26 50  1  0
 26 51  1  0
 28 52  1  0
 29 53  1  0
M  CHG  1  15   1
M  END
>  <UniqueID>  (36) 
35

>  <SMILES>  (36) 
COCCOc1ccc(-c2cnc(-c3[nH+]c(-c4ccccc4)c(C)n3C)s2)cc1

>  <Energy>  (36) 
125.3800294502288

>  <Genealogy>  (36) 
COCCOc1ccc(-c2cnc(-c3[nH+]c(-c4ccccc4)c(C)n3C)s2)cc1 (protonated)
COCCOc1ccc(-c2cnc(-c3[nH+]c(-c4ccccc4)c(C)n3C)s2)cc1 (3D coordinates assigned)
COCCOc1ccc(-c2cnc(-c3[nH+]c(-c4ccccc4)c(C)n3C)s2)cc1 (optimized conformer: 125.3800294502288 kcal/mol)

>  <smiles>  (36) 
COCCOc1ccc(-c2cnc(-c3nc(-c4ccccc4)c(C)n3C)s2)cc1

>  <score_type>  (36) 
oracle

>  <origin>  (36) 
adg

>  <m_score__min__energy>  (36) 
-7.46

>  <m_primary>  (36) 
energy

$$$$
