0:0
     RDKit          3D

 35 37  0  0  0  0  0  0  0  0999 V2000
   -7.5742   24.8012  -30.2597 H   0  0  0  0  0  0  0  0  0  0  0  0
   -6.9110   24.0480  -30.7100 C   0  0  0  0  0  0  0  0  0  0  0  0
   -5.6140   23.8030  -30.0520 C   0  0  0  0  0  0  0  0  0  0  0  0
   -5.4500   22.8490  -29.1830 N   0  0  0  0  0  0  0  0  0  0  0  0
   -4.1020   22.9470  -28.7200 C   0  0  0  0  0  0  0  0  0  0  0  0
   -3.4760   22.1220  -27.7870 C   0  0  0  0  0  0  0  0  0  0  0  0
   -4.0138   21.2817  -27.3238 H   0  0  0  0  0  0  0  0  0  0  0  0
   -2.1370   22.3950  -27.4550 C   0  0  0  0  0  0  0  0  0  0  0  0
   -1.6155   21.7603  -26.7235 H   0  0  0  0  0  0  0  0  0  0  0  0
   -1.4560   23.4800  -28.0550 C   0  0  0  0  0  0  0  0  0  0  0  0
    0.3610   23.8370  -27.5890 Br  0  0  0  0  0  0  0  0  0  0  0  0
   -2.1130   24.2990  -28.9910 C   0  0  0  0  0  0  0  0  0  0  0  0
   -1.5990   25.1496  -29.4625 H   0  0  0  0  0  0  0  0  0  0  0  0
   -3.4360   23.9960  -29.3000 C   0  0  0  0  0  0  0  0  0  0  0  0
   -4.3940   24.6150  -30.1820 C   0  0  0  0  0  0  0  0  0  0  0  0
   -4.2390   25.6750  -30.8430 O   0  0  0  0  0  0  0  0  0  0  0  0
   -7.3440   23.4240  -31.8140 C   0  0  0  0  0  0  0  0  0  0  0  0
   -7.6950   24.0505  -32.6472 H   0  0  0  0  0  0  0  0  0  0  0  0
   -7.3860   21.9530  -31.9980 C   0  0  0  0  0  0  0  0  0  0  0  0
   -8.5970   21.2610  -31.8240 C   0  0  0  0  0  0  0  0  0  0  0  0
   -9.5020   21.8130  -31.5303 H   0  0  0  0  0  0  0  0  0  0  0  0
   -8.6630   19.8810  -32.0200 C   0  0  0  0  0  0  0  0  0  0  0  0
   -9.6162   19.3522  -31.8726 H   0  0  0  0  0  0  0  0  0  0  0  0
   -7.5230   19.1670  -32.4030 C   0  0  0  0  0  0  0  0  0  0  0  0
   -7.6060   17.6910  -32.6560 C   0  0  0  0  0  0  0  0  0  0  0  0
   -7.6361   17.1555  -31.6956 H   0  0  0  0  0  0  0  0  0  0  0  0
   -8.5181   17.4679  -33.2290 H   0  0  0  0  0  0  0  0  0  0  0  0
   -6.7247   17.3671  -33.2290 H   0  0  0  0  0  0  0  0  0  0  0  0
   -6.3200   19.8540  -32.6230 C   0  0  0  0  0  0  0  0  0  0  0  0
   -5.4315   19.3003  -32.9606 H   0  0  0  0  0  0  0  0  0  0  0  0
   -6.2370   21.2420  -32.4170 C   0  0  0  0  0  0  0  0  0  0  0  0
   -4.9270   21.9460  -32.6540 C   0  0  0  0  0  0  0  0  0  0  0  0
   -4.4643   22.1947  -31.6875 H   0  0  0  0  0  0  0  0  0  0  0  0
   -4.2548   21.2876  -33.2238 H   0  0  0  0  0  0  0  0  0  0  0  0
   -5.1051   22.8699  -33.2238 H   0  0  0  0  0  0  0  0  0  0  0  0
  1  2  1  0
  2  3  1  0
  3  4  2  0
  4  5  1  0
  5  6  2  0
  6  7  1  0
  6  8  1  0
  8  9  1  0
  8 10  2  0
 10 11  1  0
 10 12  1  0
 12 13  1  0
 12 14  2  0
 14 15  1  0
 15 16  2  0
  2 17  2  0
 17 18  1  0
 17 19  1  0
 19 20  2  0
 20 21  1  0
 20 22  1  0
 22 23  1  0
 22 24  2  0
 24 25  1  0
 25 26  1  0
 25 27  1  0
 25 28  1  0
 24 29  1  0
 29 30  1  0
 29 31  2  0
 31 32  1  0
 32 33  1  0
 32 34  1  0
 32 35  1  0
 15  3  1  0
 31 19  1  0
 14  5  1  0
M  END
>  <UniqueID>  (1) 
1

>  <SMILES>  (1) 
Cc1ccc(/C=C\C2=Nc3ccc(Br)cc3C2=O)c(C)c1

>  <Energy>  (1) 
78.12856653981741

>  <Genealogy>  (1) 
Cc1ccc(/C=C\C2=Nc3ccc(Br)cc3C2=O)c(C)c1 (cis-trans isomerization)
Cc1ccc(/C=C\C2=Nc3ccc(Br)cc3C2=O)c(C)c1 (3D coordinates assigned)
Cc1ccc(/C=C\C2=Nc3ccc(Br)cc3C2=O)c(C)c1 (nonaromatic ring conformer: 78.12856653981741 kcal/mol)

>  <smiles>  (1) 
Cc1ccc(C=CC2=Nc3ccc(Br)cc3C2=O)c(C)c1

>  <score_type>  (1) 
oracle

>  <origin>  (1) 
adg

>  <m_score__min__energy>  (1) 
-9.1899999999999995

>  <m_primary>  (1) 
energy

$$$$
1:0
     RDKit          3D

 36 38  0  0  0  0  0  0  0  0999 V2000
   -1.4620   25.3550  -27.9020 C   0  0  0  0  0  0  0  0  0  0  0  0
   -1.9810   25.2700  -29.2250 O   0  0  0  0  0  0  0  0  0  0  0  0
   -2.6520   24.1520  -29.7460 C   0  0  0  0  0  0  0  0  0  0  0  0
   -2.1340   22.8500  -29.6300 C   0  0  0  0  0  0  0  0  0  0  0  0
   -2.8290   21.7610  -30.1600 C   0  0  0  0  0  0  0  0  0  0  0  0
   -4.0590   21.9470  -30.8140 C   0  0  0  0  0  0  0  0  0  0  0  0
   -4.8110   20.8010  -31.3840 C   0  0  0  0  0  0  0  0  0  0  0  0
   -4.2070   19.8070  -32.0930 N   0  0  0  0  0  0  0  0  0  0  0  0
   -5.2300   18.9980  -32.4180 C   0  0  0  0  0  0  0  0  0  0  0  0
   -5.1830   17.8190  -33.1570 C   0  0  0  0  0  0  0  0  0  0  0  0
   -6.3950   17.1270  -33.3760 C   0  0  0  0  0  0  0  0  0  0  0  0
   -6.4070   15.8740  -34.2000 C   0  0  0  0  0  0  0  0  0  0  0  0
   -7.6120   17.6580  -32.8740 C   0  0  0  0  0  0  0  0  0  0  0  0
   -7.6180   18.8540  -32.1310 C   0  0  0  0  0  0  0  0  0  0  0  0
   -6.3980   19.4920  -31.9260 C   0  0  0  0  0  0  0  0  0  0  0  0
   -6.1560   20.6320  -31.2680 N   0  0  0  0  0  0  0  0  0  0  0  0
   -4.5720   23.2510  -30.9310 C   0  0  0  0  0  0  0  0  0  0  0  0
   -3.8760   24.3540  -30.4000 C   0  0  0  0  0  0  0  0  0  0  0  0
   -4.3680   25.6650  -30.4990 O   0  0  0  0  0  0  0  0  0  0  0  0
   -5.7140   26.0460  -30.2330 C   0  0  0  0  0  0  0  0  0  0  0  0
   -2.2794   25.2211  -27.1782 H   0  0  0  0  0  0  0  0  0  0  0  0
   -0.7076   24.5684  -27.7528 H   0  0  0  0  0  0  0  0  0  0  0  0
   -0.9980   26.3411  -27.7528 H   0  0  0  0  0  0  0  0  0  0  0  0
   -1.1740   22.6881  -29.1179 H   0  0  0  0  0  0  0  0  0  0  0  0
   -2.4100   20.7484  -30.0648 H   0  0  0  0  0  0  0  0  0  0  0  0
   -4.2320   17.4383  -33.5578 H   0  0  0  0  0  0  0  0  0  0  0  0
   -6.4154   14.9979  -33.5349 H   0  0  0  0  0  0  0  0  0  0  0  0
   -7.3053   15.8611  -34.8347 H   0  0  0  0  0  0  0  0  0  0  0  0
   -5.5091   15.8439  -34.8347 H   0  0  0  0  0  0  0  0  0  0  0  0
   -8.5580   17.1309  -33.0670 H   0  0  0  0  0  0  0  0  0  0  0  0
   -8.5531   19.2692  -31.7271 H   0  0  0  0  0  0  0  0  0  0  0  0
   -6.8610   21.2420  -30.7990 H   0  0  0  0  0  0  0  0  0  0  0  0
   -5.5312   23.4119  -31.4449 H   0  0  0  0  0  0  0  0  0  0  0  0
   -5.8742   26.0913  -29.1457 H   0  0  0  0  0  0  0  0  0  0  0  0
   -5.9092   27.0347  -30.6739 H   0  0  0  0  0  0  0  0  0  0  0  0
   -6.3984   25.3063  -30.6739 H   0  0  0  0  0  0  0  0  0  0  0  0
  1  2  1  0
  2  3  1  0
  3  4  2  0
  4  5  1  0
  5  6  2  0
  6  7  1  0
  7  8  2  0
  8  9  1  0
  9 10  2  0
 10 11  1  0
 11 12  1  0
 11 13  2  0
 13 14  1  0
 14 15  2  0
 15 16  1  0
  6 17  1  0
 17 18  2  0
 18 19  1  0
 19 20  1  0
 18  3  1  0
 16  7  1  0
 15  9  1  0
  1 21  1  0
  1 22  1  0
  1 23  1  0
  4 24  1  0
  5 25  1  0
 10 26  1  0
 12 27  1  0
 12 28  1  0
 12 29  1  0
 13 30  1  0
 14 31  1  0
 16 32  1  0
 17 33  1  0
 20 34  1  0
 20 35  1  0
 20 36  1  0
M  END
>  <UniqueID>  (2) 
2

>  <SMILES>  (2) 
COc1ccc(-c2nc3cc(C)ccc3[nH]2)cc1OC

>  <Energy>  (2) 
74.43539362295873

>  <Genealogy>  (2) 
COc1ccc(-c2nc3cc(C)ccc3[nH]2)cc1OC (3D coordinates assigned)
COc1ccc(-c2nc3cc(C)ccc3[nH]2)cc1OC (optimized conformer: 74.43539362295873 kcal/mol)

>  <smiles>  (2) 
COc1ccc(-c2nc3cc(C)ccc3[nH]2)cc1OC

>  <score_type>  (2) 
oracle

>  <origin>  (2) 
adg

>  <m_score__min__energy>  (2) 
-7.3899999999999997

>  <m_primary>  (2) 
energy

$$$$
2:0
     RDKit          3D

 55 58  0  0  0  0  0  0  0  0999 V2000
   -7.0530   17.8720  -31.9720 C   0  0  0  0  0  0  0  0  0  0  0  0
   -8.3860   18.5450  -31.6900 C   0  0  0  0  0  0  0  0  0  0  0  0
   -8.4420   19.7950  -32.3710 O   0  0  0  0  0  0  0  0  0  0  0  0
   -8.4880   21.0220  -31.7020 C   0  0  0  0  0  0  0  0  0  0  0  0
   -9.5080   21.3350  -31.0290 O   0  0  0  0  0  0  0  0  0  0  0  0
   -7.3720   21.9290  -31.7800 N   0  0  0  0  0  0  0  0  0  0  0  0
   -6.1470   21.5340  -32.4850 C   0  0  0  0  0  0  0  0  0  0  0  0
   -4.9100   22.0500  -31.7390 C   0  0  0  0  0  0  0  0  0  0  0  0
   -5.0560   23.4540  -31.3210 N   0  0  0  0  0  0  0  0  0  0  0  0
   -3.9350   24.1630  -30.7490 C   0  0  0  0  0  0  0  0  0  0  0  0
   -3.8910   25.4230  -30.8120 O   0  0  0  0  0  0  0  0  0  0  0  0
   -2.8150   23.4400  -30.0500 C   0  0  0  0  0  0  0  0  0  0  0  0
   -2.5220   24.0460  -28.7530 N   0  0  0  0  0  0  0  0  0  0  0  0
   -3.3760   24.1330  -27.6260 C   0  0  0  0  0  0  0  0  0  0  0  0
   -4.6040   23.8590  -27.6610 O   0  0  0  0  0  0  0  0  0  0  0  0
   -2.7090   24.5430  -26.4380 N   0  0  0  0  0  0  0  0  0  0  0  0
   -1.2900   24.7170  -26.7660 C   0  0  2  0  0  0  0  0  0  0  0  0
   -0.4300   23.7410  -25.9410 C   0  0  0  0  0  0  0  0  0  0  0  0
   -0.4020   24.0550  -24.4260 C   0  0  0  0  0  0  0  0  0  0  0  0
   -0.8440   25.4830  -24.0400 C   0  0  0  0  0  0  0  0  0  0  0  0
   -0.6010   26.4950  -25.1320 C   0  0  0  0  0  0  0  0  0  0  0  0
   -0.2290   27.8090  -24.8080 C   0  0  0  0  0  0  0  0  0  0  0  0
   -0.1070   28.7730  -25.8120 C   0  0  0  0  0  0  0  0  0  0  0  0
   -0.3780   28.4390  -27.1390 C   0  0  0  0  0  0  0  0  0  0  0  0
   -0.7650   27.1380  -27.4710 C   0  0  0  0  0  0  0  0  0  0  0  0
   -0.8670   26.1470  -26.4730 C   0  0  0  0  0  0  0  0  0  0  0  0
   -1.2360   24.3470  -28.2290 C   0  0  0  0  0  0  0  0  0  0  0  0
   -0.1800   24.2900  -28.9150 O   0  0  0  0  0  0  0  0  0  0  0  0
   -6.3070   24.1700  -31.6060 C   0  0  0  0  0  0  0  0  0  0  0  0
   -7.5130   23.2930  -31.2480 C   0  0  0  0  0  0  0  0  0  0  0  0
   -6.5596   17.6229  -31.0210 H   0  0  0  0  0  0  0  0  0  0  0  0
   -7.2221   16.9512  -32.5496 H   0  0  0  0  0  0  0  0  0  0  0  0
   -6.4125   18.5547  -32.5496 H   0  0  0  0  0  0  0  0  0  0  0  0
   -9.2041   17.8992  -32.0416 H   0  0  0  0  0  0  0  0  0  0  0  0
   -8.4896   18.7128  -30.6078 H   0  0  0  0  0  0  0  0  0  0  0  0
   -6.1018   20.4366  -32.5459 H   0  0  0  0  0  0  0  0  0  0  0  0
   -6.1612   21.9687  -33.4954 H   0  0  0  0  0  0  0  0  0  0  0  0
   -4.7514   21.4292  -30.8449 H   0  0  0  0  0  0  0  0  0  0  0  0
   -4.0530   21.9904  -32.4261 H   0  0  0  0  0  0  0  0  0  0  0  0
   -3.1057   22.3901  -29.8978 H   0  0  0  0  0  0  0  0  0  0  0  0
   -1.9134   23.5063  -30.6767 H   0  0  0  0  0  0  0  0  0  0  0  0
   -0.8317   22.7260  -26.0768 H   0  0  0  0  0  0  0  0  0  0  0  0
    0.6030   23.8394  -26.3061 H   0  0  0  0  0  0  0  0  0  0  0  0
   -1.0705   23.3436  -23.9191 H   0  0  0  0  0  0  0  0  0  0  0  0
    0.6500   23.9681  -24.1167 H   0  0  0  0  0  0  0  0  0  0  0  0
   -1.9199   25.4664  -23.8116 H   0  0  0  0  0  0  0  0  0  0  0  0
   -0.2423   25.7882  -23.1712 H   0  0  0  0  0  0  0  0  0  0  0  0
   -0.0329   28.0807  -23.7603 H   0  0  0  0  0  0  0  0  0  0  0  0
    0.2032   29.7968  -25.5557 H   0  0  0  0  0  0  0  0  0  0  0  0
   -0.2868   29.2019  -27.9262 H   0  0  0  0  0  0  0  0  0  0  0  0
   -0.9915   26.8853  -28.5174 H   0  0  0  0  0  0  0  0  0  0  0  0
   -6.3404   25.0942  -31.0105 H   0  0  0  0  0  0  0  0  0  0  0  0
   -6.3454   24.4124  -32.6783 H   0  0  0  0  0  0  0  0  0  0  0  0
   -7.6030   23.2408  -30.1529 H   0  0  0  0  0  0  0  0  0  0  0  0
   -8.4101   23.7446  -31.6967 H   0  0  0  0  0  0  0  0  0  0  0  0
  1  2  1  0
  2  3  1  0
  3  4  1  0
  4  5  2  0
  4  6  1  0
  6  7  1  0
  7  8  1  0
  8  9  1  0
  9 10  1  0
 10 11  2  0
 10 12  1  0
 12 13  1  0
 13 14  1  0
 14 15  2  0
 14 16  1  0
 17 16  1  1
 17 18  1  0
 18 19  1  0
 19 20  1  0
 20 21  1  0
 21 22  2  0
 22 23  1  0
 23 24  2  0
 24 25  1  0
 25 26  2  0
 17 27  1  0
 27 28  2  0
  9 29  1  0
 29 30  1  0
 30  6  1  0
 27 13  1  0
 26 17  1  0
 26 21  1  0
  1 31  1  0
  1 32  1  0
  1 33  1  0
  2 34  1  0
  2 35  1  0
  7 36  1  0
  7 37  1  0
  8 38  1  0
  8 39  1  0
 12 40  1  0
 12 41  1  0
 18 42  1  0
 18 43  1  0
 19 44  1  0
 19 45  1  0
 20 46  1  0
 20 47  1  0
 22 48  1  0
 23 49  1  0
 24 50  1  0
 25 51  1  0
 29 52  1  0
 29 53  1  0
 30 54  1  0
 30 55  1  0
M  CHG  1  16  -1
M  END
>  <UniqueID>  (3) 
3

>  <SMILES>  (3) 
CCOC(=O)N1CCN(C(=O)CN2C(=O)[N-][C@@]3(CCCc4ccccc43)C2=O)CC1

>  <Energy>  (3) 
77.10589932735215

>  <Genealogy>  (3) 
CCOC(=O)N1CCN(C(=O)CN2C(=O)[N-]C3(CCCc4ccccc43)C2=O)CC1 (protonated)
CCOC(=O)N1CCN(C(=O)CN2C(=O)[N-][C@@]3(CCCc4ccccc43)C2=O)CC1 (chirality)
CCOC(=O)N1CCN(C(=O)CN2C(=O)[N-][C@@]3(CCCc4ccccc43)C2=O)CC1 (3D coordinates assigned)
CCOC(=O)N1CCN(C(=O)CN2C(=O)[N-][C@@]3(CCCc4ccccc43)C2=O)CC1 (nonaromatic ring conformer: 77.10589932735215 kcal/mol)

>  <smiles>  (3) 
CCOC(=O)N1CCN(C(=O)CN2C(=O)NC3(CCCc4ccccc43)C2=O)CC1

>  <score_type>  (3) 
oracle

>  <origin>  (3) 
adg

>  <m_score__min__energy>  (3) 
-10.34

>  <m_primary>  (3) 
energy

$$$$
3:0
     RDKit          3D

 33 34  0  0  1  0  0  0  0  0999 V2000
   -0.4770   22.4840  -29.1400 C   0  0  0  0  0  0  0  0  0  0  0  0
    0.0350   23.7860  -28.5930 C   0  0  0  0  0  0  0  0  0  0  0  0
   -0.8630   24.8710  -28.8420 N   0  0  0  0  0  0  0  0  0  0  0  0
   -2.1450   24.6980  -28.7130 C   0  0  0  0  0  0  0  0  0  0  0  0
   -2.7250   24.4740  -27.4790 C   0  0  0  0  0  0  0  0  0  0  0  0
   -4.0970   24.3010  -27.4640 C   0  0  0  0  0  0  0  0  0  0  0  0
   -4.8100   24.3550  -28.6090 N   0  0  0  0  0  0  0  0  0  0  0  0
   -4.1990   24.5770  -29.7970 C   0  0  0  0  0  0  0  0  0  0  0  0
   -4.8480   24.6340  -30.9120 N   0  0  0  0  0  0  0  0  0  0  0  0
   -5.7780   23.6120  -31.2470 C   0  0  0  0  0  0  0  0  0  0  0  0
   -7.1220   23.6890  -30.8650 C   0  0  0  0  0  0  0  0  0  0  0  0
   -7.9760   22.6460  -31.2320 C   0  0  0  0  0  0  0  0  0  0  0  0
   -7.4730   21.5720  -31.9550 C   0  0  0  0  0  0  0  0  0  0  0  0
   -8.3470   20.4390  -32.3660 C   0  0  0  0  0  0  0  0  0  0  0  0
   -6.1450   21.5010  -32.3280 C   0  0  0  0  0  0  0  0  0  0  0  0
   -5.3010   22.5310  -31.9680 C   0  0  0  0  0  0  0  0  0  0  0  0
   -2.8790   24.7450  -29.8390 N   0  0  0  0  0  0  0  0  0  0  0  0
   -0.7402   21.8148  -28.3076 H   0  0  0  0  0  0  0  0  0  0  0  0
   -1.3687   22.6706  -29.7565 H   0  0  0  0  0  0  0  0  0  0  0  0
    0.3030   22.0132  -29.7565 H   0  0  0  0  0  0  0  0  0  0  0  0
    0.1728   23.6833  -27.5065 H   0  0  0  0  0  0  0  0  0  0  0  0
    0.9849   24.0129  -29.0992 H   0  0  0  0  0  0  0  0  0  0  0  0
   -2.1267   24.4353  -26.5568 H   0  0  0  0  0  0  0  0  0  0  0  0
   -4.6124   24.1176  -26.5097 H   0  0  0  0  0  0  0  0  0  0  0  0
   -5.8470   24.2240  -28.5820 H   0  0  0  0  0  0  0  0  0  0  0  0
   -7.4966   24.5489  -30.2903 H   0  0  0  0  0  0  0  0  0  0  0  0
   -9.0390   22.6751  -30.9504 H   0  0  0  0  0  0  0  0  0  0  0  0
   -8.7371   19.9333  -31.4704 H   0  0  0  0  0  0  0  0  0  0  0  0
   -9.1860   20.8219  -32.9656 H   0  0  0  0  0  0  0  0  0  0  0  0
   -7.7637   19.7247  -32.9656 H   0  0  0  0  0  0  0  0  0  0  0  0
   -5.7681   20.6406  -32.9005 H   0  0  0  0  0  0  0  0  0  0  0  0
   -4.2401   22.4930  -32.2563 H   0  0  0  0  0  0  0  0  0  0  0  0
   -2.4080   24.9170  -30.7560 H   0  0  0  0  0  0  0  0  0  0  0  0
  1  2  1  0
  2  3  1  0
  3  4  2  0
  4  5  1  0
  5  6  2  0
  6  7  1  0
  7  8  1  0
  8  9  2  0
  9 10  1  0
 10 11  2  0
 11 12  1  0
 12 13  2  0
 13 14  1  0
 13 15  1  0
 15 16  2  0
  8 17  1  0
 17  4  1  0
 16 10  1  0
  1 18  1  0
  1 19  1  0
  1 20  1  0
  2 21  1  0
  2 22  1  0
  5 23  1  0
  6 24  1  0
  7 25  1  0
 11 26  1  0
 12 27  1  0
 14 28  1  0
 14 29  1  0
 14 30  1  0
 15 31  1  0
 16 32  1  0
 17 33  1  0
M  END
>  <smiles>  (4) 
CCN=c1cc[nH]c(=Nc2ccc(C)cc2)[nH]1

>  <score_type>  (4) 
oracle

>  <origin>  (4) 
adg

>  <m_score__min__energy>  (4) 
-7.1200000000000001

>  <m_primary>  (4) 
energy

$$$$
4:0
     RDKit          3D

 34 35  0  0  1  0  0  0  0  0999 V2000
   -4.6070   24.1390  -28.8950 C   0  0  0  0  0  0  0  0  0  0  0  0
   -4.9430   24.7930  -30.2420 C   0  0  0  0  0  0  0  0  0  0  0  0
   -4.7180   23.7920  -31.2520 N   0  0  0  0  0  0  0  0  0  0  0  0
   -5.7130   23.0720  -31.6340 C   0  0  0  0  0  0  0  0  0  0  0  0
   -7.0260   23.4730  -31.5790 C   0  0  0  0  0  0  0  0  0  0  0  0
   -8.0310   22.6510  -32.0040 C   0  0  0  0  0  0  0  0  0  0  0  0
   -9.4740   23.0390  -31.9660 C   0  0  0  0  0  0  0  0  0  0  0  0
   -7.7240   21.4120  -32.4910 N   0  0  0  0  0  0  0  0  0  0  0  0
   -6.4210   21.0120  -32.5460 C   0  0  0  0  0  0  0  0  0  0  0  0
   -6.1210   19.7140  -33.0570 N   0  0  0  0  0  0  0  0  0  0  0  0
   -5.0810   19.4080  -33.8300 N   0  0  0  0  0  0  0  0  0  0  0  0
   -5.1310   18.1070  -34.1060 C   0  0  0  0  0  0  0  0  0  0  0  0
   -4.2040   17.2740  -34.9290 C   0  0  0  0  0  0  0  0  0  0  0  0
   -6.2530   17.5790  -33.4800 C   0  0  0  0  0  0  0  0  0  0  0  0
   -6.8660   18.6210  -32.8180 C   0  0  0  0  0  0  0  0  0  0  0  0
   -8.0930   18.4900  -32.0250 C   0  0  0  0  0  0  0  0  0  0  0  0
   -5.4540   21.8440  -32.1190 N   0  0  0  0  0  0  0  0  0  0  0  0
   -4.9427   24.7924  -28.0763 H   0  0  0  0  0  0  0  0  0  0  0  0
   -5.1176   23.1675  -28.8216 H   0  0  0  0  0  0  0  0  0  0  0  0
   -3.5198   23.9883  -28.8216 H   0  0  0  0  0  0  0  0  0  0  0  0
   -5.9944   25.1162  -30.2554 H   0  0  0  0  0  0  0  0  0  0  0  0
   -4.3195   25.6819  -30.4182 H   0  0  0  0  0  0  0  0  0  0  0  0
   -7.2717   24.4709  -31.1869 H   0  0  0  0  0  0  0  0  0  0  0  0
   -9.8025   23.1273  -30.9199 H   0  0  0  0  0  0  0  0  0  0  0  0
   -9.6075   24.0049  -32.4751 H   0  0  0  0  0  0  0  0  0  0  0  0
  -10.0739   22.2703  -32.4751 H   0  0  0  0  0  0  0  0  0  0  0  0
   -3.5513   16.6875  -34.2656 H   0  0  0  0  0  0  0  0  0  0  0  0
   -4.7893   16.5924  -35.5638 H   0  0  0  0  0  0  0  0  0  0  0  0
   -3.5886   17.9285  -35.5638 H   0  0  0  0  0  0  0  0  0  0  0  0
   -6.5877   16.5315  -33.5073 H   0  0  0  0  0  0  0  0  0  0  0  0
   -7.8422   18.5168  -30.9543 H   0  0  0  0  0  0  0  0  0  0  0  0
   -8.7738   19.3206  -32.2630 H   0  0  0  0  0  0  0  0  0  0  0  0
   -8.5831   17.5344  -32.2630 H   0  0  0  0  0  0  0  0  0  0  0  0
   -4.4740   21.5210  -32.1700 H   0  0  0  0  0  0  0  0  0  0  0  0
  1  2  1  0
  2  3  1  0
  3  4  2  0
  4  5  1  0
  5  6  2  0
  6  7  1  0
  6  8  1  0
  8  9  2  0
  9 10  1  0
 10 11  1  0
 11 12  2  0
 12 13  1  0
 12 14  1  0
 14 15  2  0
 15 16  1  0
  9 17  1  0
 17  4  1  0
 15 10  1  0
  1 18  1  0
  1 19  1  0
  1 20  1  0
  2 21  1  0
  2 22  1  0
  5 23  1  0
  7 24  1  0
  7 25  1  0
  7 26  1  0
 13 27  1  0
 13 28  1  0
 13 29  1  0
 14 30  1  0
 16 31  1  0
 16 32  1  0
 16 33  1  0
 17 34  1  0
M  END
>  <smiles>  (5) 
CCN=c1cc(C)nc(-n2nc(C)cc2C)[nH]1

>  <score_type>  (5) 
oracle

>  <origin>  (5) 
adg

>  <m_score__min__energy>  (5) 
-6.3899999999999997

>  <m_primary>  (5) 
energy

$$$$
5:0
     RDKit          3D

 32 34  0  0  0  0  0  0  0  0999 V2000
   -2.4500   24.5390  -28.1010 C   0  0  0  0  0  0  0  0  0  0  0  0
   -2.8760   25.1060  -29.3360 O   0  0  0  0  0  0  0  0  0  0  0  0
   -3.8680   24.5540  -30.1600 C   0  0  0  0  0  0  0  0  0  0  0  0
   -3.6870   23.3430  -30.8530 C   0  0  0  0  0  0  0  0  0  0  0  0
   -4.7080   22.8340  -31.6610 C   0  0  0  0  0  0  0  0  0  0  0  0
   -5.9270   23.5200  -31.7870 C   0  0  0  0  0  0  0  0  0  0  0  0
   -7.0200   22.9760  -32.6750 C   0  0  2  0  0  0  0  0  0  0  0  0
   -8.3500   23.0600  -31.9590 C   0  0  0  0  0  0  0  0  0  0  0  0
   -8.9800   21.9750  -31.5030 C   0  0  0  0  0  0  0  0  0  0  0  0
   -8.4420   20.6310  -31.7580 C   0  0  0  0  0  0  0  0  0  0  0  0
   -9.0660   19.4900  -31.2330 C   0  0  0  0  0  0  0  0  0  0  0  0
   -8.5490   18.2220  -31.5130 C   0  0  0  0  0  0  0  0  0  0  0  0
   -7.4150   18.0880  -32.3200 C   0  0  0  0  0  0  0  0  0  0  0  0
   -6.7920   19.2240  -32.8490 C   0  0  0  0  0  0  0  0  0  0  0  0
   -5.2380   19.0230  -33.9460 Br  0  0  0  0  0  0  0  0  0  0  0  0
   -7.3040   20.4970  -32.5640 C   0  0  0  0  0  0  0  0  0  0  0  0
   -6.6910   21.6420  -33.0880 O   0  0  0  0  0  0  0  0  0  0  0  0
   -6.1000   24.7340  -31.1010 C   0  0  0  0  0  0  0  0  0  0  0  0
   -5.0790   25.2420  -30.2930 C   0  0  0  0  0  0  0  0  0  0  0  0
   -2.8805   25.1120  -27.2666 H   0  0  0  0  0  0  0  0  0  0  0  0
   -2.7883   23.4940  -28.0413 H   0  0  0  0  0  0  0  0  0  0  0  0
   -1.3521   24.5730  -28.0413 H   0  0  0  0  0  0  0  0  0  0  0  0
   -2.7382   22.7945  -30.7587 H   0  0  0  0  0  0  0  0  0  0  0  0
   -4.5554   21.8887  -32.2024 H   0  0  0  0  0  0  0  0  0  0  0  0
   -7.1075   23.5828  -33.5883 H   0  0  0  0  0  0  0  0  0  0  0  0
   -8.8127   24.0467  -31.8093 H   0  0  0  0  0  0  0  0  0  0  0  0
   -9.9122   22.0880  -30.9300 H   0  0  0  0  0  0  0  0  0  0  0  0
   -9.9610   19.5929  -30.6018 H   0  0  0  0  0  0  0  0  0  0  0  0
   -9.0355   17.3272  -31.0974 H   0  0  0  0  0  0  0  0  0  0  0  0
   -7.0120   17.0883  -32.5394 H   0  0  0  0  0  0  0  0  0  0  0  0
   -7.0450   25.2881  -31.2005 H   0  0  0  0  0  0  0  0  0  0  0  0
   -5.2288   26.1908  -29.7570 H   0  0  0  0  0  0  0  0  0  0  0  0
  1  2  1  0
  2  3  1  0
  3  4  2  0
  4  5  1  0
  5  6  2  0
  6  7  1  0
  7  8  1  0
  8  9  2  0
  9 10  1  0
 10 11  2  0
 11 12  1  0
 12 13  2  0
 13 14  1  0
 14 15  1  0
 14 16  2  0
 16 17  1  0
  6 18  1  0
 18 19  2  0
 19  3  1  0
 17  7  1  0
 16 10  1  0
  1 20  1  0
  1 21  1  0
  1 22  1  0
  4 23  1  0
  5 24  1  0
  7 25  1  6
  8 26  1  0
  9 27  1  0
 11 28  1  0
 12 29  1  0
 13 30  1  0
 18 31  1  0
 19 32  1  0
M  END
>  <UniqueID>  (6) 
4

>  <SMILES>  (6) 
COc1ccc([C@@H]2C=Cc3cccc(Br)c3O2)cc1

>  <Energy>  (6) 
36.16835839409904

>  <Genealogy>  (6) 
COc1ccc([C@@H]2C=Cc3cccc(Br)c3O2)cc1 (chirality)
COc1ccc([C@@H]2C=Cc3cccc(Br)c3O2)cc1 (3D coordinates assigned)
COc1ccc([C@@H]2C=Cc3cccc(Br)c3O2)cc1 (nonaromatic ring conformer: 36.16835839409904 kcal/mol)

>  <smiles>  (6) 
COc1ccc(C2C=Cc3cccc(Br)c3O2)cc1

>  <score_type>  (6) 
oracle

>  <origin>  (6) 
adg

>  <m_score__min__energy>  (6) 
-8.8699999999999992

>  <m_primary>  (6) 
energy

$$$$
6:0
     RDKit          3D

 53 56  0  0  0  0  0  0  0  0999 V2000
   -1.8330   20.3250  -26.7340 C   0  0  0  0  0  0  0  0  0  0  0  0
   -1.7520   21.7400  -26.6170 O   0  0  0  0  0  0  0  0  0  0  0  0
   -2.2360   22.6450  -27.5740 C   0  0  0  0  0  0  0  0  0  0  0  0
   -3.4500   23.2920  -27.3220 C   0  0  0  0  0  0  0  0  0  0  0  0
   -3.9970   24.1720  -28.2620 C   0  0  0  0  0  0  0  0  0  0  0  0
   -3.3310   24.4110  -29.4790 C   0  0  0  0  0  0  0  0  0  0  0  0
   -3.8780   25.2190  -30.4900 O   0  0  0  0  0  0  0  0  0  0  0  0
   -5.2640   25.2650  -30.8360 C   0  0  0  0  0  0  0  0  0  0  0  0
   -5.9350   23.9600  -30.5110 C   0  0  0  0  0  0  0  0  0  0  0  0
   -6.5160   23.8140  -29.4020 O   0  0  0  0  0  0  0  0  0  0  0  0
   -5.9320   22.8880  -31.4630 N   0  0  0  0  0  0  0  0  0  0  0  0
   -7.0950   22.7030  -32.3380 C   0  0  0  0  0  0  0  0  0  0  0  0
   -7.5260   21.2610  -32.3240 C   0  0  0  0  0  0  0  0  0  0  0  0
   -6.8160   20.3070  -33.0640 C   0  0  0  0  0  0  0  0  0  0  0  0
   -7.2410   18.9780  -33.0790 C   0  0  0  0  0  0  0  0  0  0  0  0
   -8.3810   18.6160  -32.3590 C   0  0  0  0  0  0  0  0  0  0  0  0
   -9.0660   19.5530  -31.6530 N   0  0  0  0  0  0  0  0  0  0  0  0
   -8.6700   20.8540  -31.6190 C   0  0  0  0  0  0  0  0  0  0  0  0
   -4.7170   22.1440  -31.6690 C   0  0  0  0  0  0  0  0  0  0  0  0
   -3.9940   22.1910  -32.8180 N   0  0  0  0  0  0  0  0  0  0  0  0
   -2.8050   21.5480  -32.6890 C   0  0  0  0  0  0  0  0  0  0  0  0
   -1.8270   21.4820  -33.6800 C   0  0  0  0  0  0  0  0  0  0  0  0
   -0.6160   20.8310  -33.3920 C   0  0  0  0  0  0  0  0  0  0  0  0
   -0.3850   20.2580  -32.1230 C   0  0  0  0  0  0  0  0  0  0  0  0
    0.8520   19.6380  -31.8910 O   0  0  0  0  0  0  0  0  0  0  0  0
    1.2790   19.1520  -30.6220 C   0  0  0  0  0  0  0  0  0  0  0  0
   -1.3900   20.3310  -31.1320 C   0  0  0  0  0  0  0  0  0  0  0  0
   -2.5800   20.9790  -31.4460 C   0  0  0  0  0  0  0  0  0  0  0  0
   -3.9000   21.2870  -30.4520 S   0  0  0  0  0  0  0  0  0  0  0  0
   -2.0940   23.8000  -29.7100 C   0  0  0  0  0  0  0  0  0  0  0  0
   -1.5510   22.9160  -28.7720 C   0  0  0  0  0  0  0  0  0  0  0  0
   -1.8588   19.8750  -25.7306 H   0  0  0  0  0  0  0  0  0  0  0  0
   -2.7481   20.0541  -27.2810 H   0  0  0  0  0  0  0  0  0  0  0  0
   -0.9548   19.9514  -27.2810 H   0  0  0  0  0  0  0  0  0  0  0  0
   -3.9797   23.1072  -26.3758 H   0  0  0  0  0  0  0  0  0  0  0  0
   -4.9501   24.6785  -28.0496 H   0  0  0  0  0  0  0  0  0  0  0  0
   -5.7511   26.0726  -30.2699 H   0  0  0  0  0  0  0  0  0  0  0  0
   -5.3533   25.4497  -31.9167 H   0  0  0  0  0  0  0  0  0  0  0  0
   -7.9227   23.3340  -31.9819 H   0  0  0  0  0  0  0  0  0  0  0  0
   -6.8231   22.9885  -33.3649 H   0  0  0  0  0  0  0  0  0  0  0  0
   -5.9234   20.6054  -33.6333 H   0  0  0  0  0  0  0  0  0  0  0  0
   -6.6833   18.2230  -33.6525 H   0  0  0  0  0  0  0  0  0  0  0  0
   -8.7249   17.5711  -32.3633 H   0  0  0  0  0  0  0  0  0  0  0  0
   -9.2471   21.5885  -31.0381 H   0  0  0  0  0  0  0  0  0  0  0  0
   -4.2740   22.7130  -33.6760 H   0  0  0  0  0  0  0  0  0  0  0  0
   -2.0002   21.9313  -34.6690 H   0  0  0  0  0  0  0  0  0  0  0  0
    0.1629   20.7669  -34.1661 H   0  0  0  0  0  0  0  0  0  0  0  0
    0.7791   19.7210  -29.8243 H   0  0  0  0  0  0  0  0  0  0  0  0
    1.0191   18.0870  -30.5308 H   0  0  0  0  0  0  0  0  0  0  0  0
    2.3686   19.2726  -30.5308 H   0  0  0  0  0  0  0  0  0  0  0  0
   -1.2350   19.8867  -30.1377 H   0  0  0  0  0  0  0  0  0  0  0  0
   -1.5436   24.0167  -30.6374 H   0  0  0  0  0  0  0  0  0  0  0  0
   -0.5843   22.4308  -28.9721 H   0  0  0  0  0  0  0  0  0  0  0  0
  1  2  1  0
  2  3  1  0
  3  4  2  0
  4  5  1  0
  5  6  2  0
  6  7  1  0
  7  8  1  0
  8  9  1  0
  9 10  2  0
  9 11  1  0
 11 12  1  0
 12 13  1  0
 13 14  2  0
 14 15  1  0
 15 16  2  0
 16 17  1  0
 17 18  2  0
 11 19  1  0
 19 20  2  0
 20 21  1  0
 21 22  2  0
 22 23  1  0
 23 24  2  0
 24 25  1  0
 25 26  1  0
 24 27  1  0
 27 28  2  0
 28 29  1  0
  6 30  1  0
 30 31  2  0
 31  3  1  0
 18 13  1  0
 29 19  1  0
 28 21  1  0
  1 32  1  0
  1 33  1  0
  1 34  1  0
  4 35  1  0
  5 36  1  0
  8 37  1  0
  8 38  1  0
 12 39  1  0
 12 40  1  0
 14 41  1  0
 15 42  1  0
 16 43  1  0
 18 44  1  0
 20 45  1  0
 22 46  1  0
 23 47  1  0
 26 48  1  0
 26 49  1  0
 26 50  1  0
 27 51  1  0
 30 52  1  0
 31 53  1  0
M  CHG  1  20   1
M  END
>  <UniqueID>  (7) 
5

>  <SMILES>  (7) 
COc1ccc(OCC(=O)N(Cc2cccnc2)c2[nH+]c3ccc(OC)cc3s2)cc1

>  <Energy>  (7) 
92.304429107868

>  <Genealogy>  (7) 
COc1ccc(OCC(=O)N(Cc2cccnc2)c2[nH+]c3ccc(OC)cc3s2)cc1 (protonated)
COc1ccc(OCC(=O)N(Cc2cccnc2)c2[nH+]c3ccc(OC)cc3s2)cc1 (3D coordinates assigned)
COc1ccc(OCC(=O)N(Cc2cccnc2)c2[nH+]c3ccc(OC)cc3s2)cc1 (optimized conformer: 92.304429107868 kcal/mol)

>  <smiles>  (7) 
COc1ccc(OCC(=O)N(Cc2cccnc2)c2nc3ccc(OC)cc3s2)cc1

>  <score_type>  (7) 
oracle

>  <origin>  (7) 
adg

>  <m_score__min__energy>  (7) 
-7.7999999999999998

>  <m_primary>  (7) 
energy

$$$$
7:0
     RDKit          3D

 56 60  0  0  0  0  0  0  0  0999 V2000
   -8.0130   18.6350  -31.4190 C   0  0  0  0  0  0  0  0  0  0  0  0
   -6.6250   18.5640  -31.5670 C   0  0  0  0  0  0  0  0  0  0  0  0
   -5.9200   19.6490  -32.0960 C   0  0  0  0  0  0  0  0  0  0  0  0
   -6.5990   20.8190  -32.4840 C   0  0  0  0  0  0  0  0  0  0  0  0
   -5.8770   21.9250  -33.0630 N   0  0  0  0  0  0  0  0  0  0  0  0
   -5.0540   22.5530  -32.0580 C   0  0  0  0  0  0  0  0  0  0  0  0
   -3.7840   22.1470  -31.6530 C   0  0  0  0  0  0  0  0  0  0  0  0
   -2.9530   21.0950  -32.2610 C   0  0  0  0  0  0  0  0  0  0  0  0
   -2.6600   21.1050  -33.6320 C   0  0  0  0  0  0  0  0  0  0  0  0
   -1.8960   20.0790  -34.1890 C   0  0  0  0  0  0  0  0  0  0  0  0
   -1.4260   19.0490  -33.3710 C   0  0  0  0  0  0  0  0  0  0  0  0
   -0.6800   18.0080  -33.9360 O   0  0  0  0  0  0  0  0  0  0  0  0
   -1.2050   16.7010  -34.1600 C   0  0  0  0  0  0  0  0  0  0  0  0
   -2.5890   16.7920  -34.8360 C   0  0  0  0  0  0  0  0  0  0  0  0
   -3.6770   17.2680  -33.9480 N   0  0  0  0  0  0  0  0  0  0  0  0
   -4.4790   16.1800  -33.3670 C   0  0  0  0  0  0  0  0  0  0  0  0
   -5.9060   16.3000  -33.8950 C   0  0  0  0  0  0  0  0  0  0  0  0
   -5.8870   17.4440  -34.8880 C   0  0  0  0  0  0  0  0  0  0  0  0
   -4.6060   18.2020  -34.5950 C   0  0  0  0  0  0  0  0  0  0  0  0
   -1.6990   19.0710  -32.0360 N   0  0  0  0  0  0  0  0  0  0  0  0
   -2.4340   20.0630  -31.4680 C   0  0  0  0  0  0  0  0  0  0  0  0
   -3.4270   22.8110  -30.5280 N   0  0  0  0  0  0  0  0  0  0  0  0
   -4.4840   23.6120  -30.2830 C   0  0  0  0  0  0  0  0  0  0  0  0
   -4.5990   24.4920  -29.2070 C   0  0  0  0  0  0  0  0  0  0  0  0
   -5.7870   25.2270  -29.0890 C   0  0  0  0  0  0  0  0  0  0  0  0
   -6.8200   25.0650  -30.0310 C   0  0  0  0  0  0  0  0  0  0  0  0
   -6.6530   24.1640  -31.0920 C   0  0  0  0  0  0  0  0  0  0  0  0
   -5.4820   23.4740  -31.1760 N   0  0  0  0  0  0  0  0  0  0  0  0
   -7.9970   20.8800  -32.3250 C   0  0  0  0  0  0  0  0  0  0  0  0
   -8.6980   19.7920  -31.7980 C   0  0  0  0  0  0  0  0  0  0  0  0
   -8.5662   17.7796  -31.0040 H   0  0  0  0  0  0  0  0  0  0  0  0
   -6.0866   17.6530  -31.2668 H   0  0  0  0  0  0  0  0  0  0  0  0
   -4.8276   19.5879  -32.2097 H   0  0  0  0  0  0  0  0  0  0  0  0
   -5.2760   21.6000  -33.8540 H   0  0  0  0  0  0  0  0  0  0  0  0
   -6.5520   22.6120  -33.4670 H   0  0  0  0  0  0  0  0  0  0  0  0
   -3.0323   21.9214  -34.2683 H   0  0  0  0  0  0  0  0  0  0  0  0
   -1.6655   20.0812  -35.2646 H   0  0  0  0  0  0  0  0  0  0  0  0
   -0.5185   16.1403  -34.8114 H   0  0  0  0  0  0  0  0  0  0  0  0
   -1.3104   16.1858  -33.1938 H   0  0  0  0  0  0  0  0  0  0  0  0
   -2.5112   17.4857  -35.6862 H   0  0  0  0  0  0  0  0  0  0  0  0
   -2.8572   15.7690  -35.1386 H   0  0  0  0  0  0  0  0  0  0  0  0
   -4.0548   15.2083  -33.6599 H   0  0  0  0  0  0  0  0  0  0  0  0
   -4.4744   16.2511  -32.2693 H   0  0  0  0  0  0  0  0  0  0  0  0
   -6.2097   15.3669  -34.3922 H   0  0  0  0  0  0  0  0  0  0  0  0
   -6.6233   16.4835  -33.0815 H   0  0  0  0  0  0  0  0  0  0  0  0
   -5.8812   17.0602  -35.9189 H   0  0  0  0  0  0  0  0  0  0  0  0
   -6.7756   18.0855  -34.7940 H   0  0  0  0  0  0  0  0  0  0  0  0
   -4.1691   18.5770  -35.5323 H   0  0  0  0  0  0  0  0  0  0  0  0
   -4.8071   19.0630  -33.9406 H   0  0  0  0  0  0  0  0  0  0  0  0
   -2.6217   20.0557  -30.3842 H   0  0  0  0  0  0  0  0  0  0  0  0
   -3.7851   24.6055  -28.4757 H   0  0  0  0  0  0  0  0  0  0  0  0
   -5.9124   25.9341  -28.2557 H   0  0  0  0  0  0  0  0  0  0  0  0
   -7.7520   25.6414  -29.9354 H   0  0  0  0  0  0  0  0  0  0  0  0
   -7.4481   24.0180  -31.8380 H   0  0  0  0  0  0  0  0  0  0  0  0
   -8.5408   21.7903  -32.6176 H   0  0  0  0  0  0  0  0  0  0  0  0
   -9.7904   19.8467  -31.6815 H   0  0  0  0  0  0  0  0  0  0  0  0
  1  2  2  0
  2  3  1  0
  3  4  2  0
  4  5  1  0
  5  6  1  0
  6  7  2  0
  7  8  1  0
  8  9  2  0
  9 10  1  0
 10 11  2  0
 11 12  1  0
 12 13  1  0
 13 14  1  0
 14 15  1  0
 15 16  1  0
 16 17  1  0
 17 18  1  0
 18 19  1  0
 11 20  1  0
 20 21  2  0
  7 22  1  0
 22 23  2  0
 23 24  1  0
 24 25  2  0
 25 26  1  0
 26 27  2  0
 27 28  1  0
  4 29  1  0
 29 30  2  0
 30  1  1  0
 28  6  1  0
 21  8  1  0
 28 23  1  0
 19 15  1  0
  1 31  1  0
  2 32  1  0
  3 33  1  0
  5 34  1  0
  5 35  1  0
  9 36  1  0
 10 37  1  0
 13 38  1  0
 13 39  1  0
 14 40  1  0
 14 41  1  0
 16 42  1  0
 16 43  1  0
 17 44  1  0
 17 45  1  0
 18 46  1  0
 18 47  1  0
 19 48  1  0
 19 49  1  0
 21 50  1  0
 24 51  1  0
 25 52  1  0
 26 53  1  0
 27 54  1  0
 29 55  1  0
 30 56  1  0
M  CHG  1   5   1
M  END
>  <UniqueID>  (8) 
6

>  <SMILES>  (8) 
c1ccc([NH2+]c2c(-c3ccc(OCCN4CCCC4)nc3)nc3ccccn23)cc1

>  <Energy>  (8) 
106.33523808138742

>  <Genealogy>  (8) 
c1ccc([NH2+]c2c(-c3ccc(OCCN4CCCC4)nc3)nc3ccccn23)cc1 (protonated)
c1ccc([NH2+]c2c(-c3ccc(OCCN4CCCC4)nc3)nc3ccccn23)cc1 (3D coordinates assigned)
c1ccc([NH2+]c2c(-c3ccc(OCCN4CCCC4)nc3)nc3ccccn23)cc1 (nonaromatic ring conformer: 106.33523808138742 kcal/mol)

>  <smiles>  (8) 
c1ccc(Nc2c(-c3ccc(OCCN4CCCC4)nc3)nc3ccccn23)cc1

>  <score_type>  (8) 
oracle

>  <origin>  (8) 
adg

>  <m_score__min__energy>  (8) 
-9.0500000000000007

>  <m_primary>  (8) 
energy

$$$$
8:0
     RDKit          3D

 66 69  0  0  0  0  0  0  0  0999 V2000
   -4.7940   22.6600  -32.6960 C   0  0  0  0  0  0  0  0  0  0  0  0
   -5.5640   21.4640  -32.7560 O   0  0  0  0  0  0  0  0  0  0  0  0
   -6.9310   21.3780  -32.4440 C   0  0  0  0  0  0  0  0  0  0  0  0
   -7.6580   22.4880  -31.9680 C   0  0  0  0  0  0  0  0  0  0  0  0
   -9.0220   22.3740  -31.6940 C   0  0  0  0  0  0  0  0  0  0  0  0
   -9.6800   21.1600  -31.9000 C   0  0  0  0  0  0  0  0  0  0  0  0
   -8.9700   20.0530  -32.3690 C   0  0  0  0  0  0  0  0  0  0  0  0
   -7.5940   20.1490  -32.6320 C   0  0  0  0  0  0  0  0  0  0  0  0
   -6.8810   19.0020  -33.1240 N   0  0  0  0  0  0  0  0  0  0  0  0
   -6.0520   19.1230  -34.3270 C   0  0  0  0  0  0  0  0  0  0  0  0
   -5.5180   17.7520  -34.7670 C   0  0  0  0  0  0  0  0  0  0  0  0
   -4.8560   17.0030  -33.6650 N   0  0  0  0  0  0  0  0  0  0  0  0
   -3.3960   17.2400  -33.6220 C   0  0  0  0  0  0  0  0  0  0  0  0
   -3.0560   18.6760  -34.0380 C   0  0  0  0  0  0  0  0  0  0  0  0
   -3.2910   19.6000  -32.9310 N   0  0  0  0  0  0  0  0  0  0  0  0
   -2.2430   20.0370  -32.0470 C   0  0  0  0  0  0  0  0  0  0  0  0
   -1.0950   19.5220  -32.1350 O   0  0  0  0  0  0  0  0  0  0  0  0
   -2.4910   21.0940  -31.0390 C   0  0  0  0  0  0  0  0  0  0  0  0
   -1.5880   22.1610  -30.8730 C   0  0  0  0  0  0  0  0  0  0  0  0
   -1.8230   23.1470  -29.9090 C   0  0  0  0  0  0  0  0  0  0  0  0
   -2.9630   23.0850  -29.0950 C   0  0  0  0  0  0  0  0  0  0  0  0
   -3.2190   24.1660  -28.0790 C   0  0  0  0  0  0  0  0  0  0  0  0
   -1.9540   24.7140  -27.5930 N   0  0  0  0  0  0  0  0  0  0  0  0
   -1.6090   25.9840  -27.7410 N   0  0  0  0  0  0  0  0  0  0  0  0
   -0.4300   26.1570  -27.1120 C   0  0  0  0  0  0  0  0  0  0  0  0
    0.3200   27.4480  -27.0910 C   0  0  0  0  0  0  0  0  0  0  0  0
   -0.0060   24.9640  -26.5580 C   0  0  0  0  0  0  0  0  0  0  0  0
   -1.0040   24.0690  -26.8830 C   0  0  0  0  0  0  0  0  0  0  0  0
   -1.0630   22.6350  -26.4510 C   0  0  0  0  0  0  0  0  0  0  0  0
   -3.8590   22.0180  -29.2470 C   0  0  0  0  0  0  0  0  0  0  0  0
   -3.6240   21.0280  -30.2080 C   0  0  0  0  0  0  0  0  0  0  0  0
   -5.4800   17.1820  -32.3260 C   0  0  0  0  0  0  0  0  0  0  0  0
   -6.9070   17.7300  -32.4000 C   0  0  0  0  0  0  0  0  0  0  0  0
   -4.6194   22.9313  -31.6444 H   0  0  0  0  0  0  0  0  0  0  0  0
   -3.8287   22.5002  -33.1986 H   0  0  0  0  0  0  0  0  0  0  0  0
   -5.3390   23.4726  -33.1986 H   0  0  0  0  0  0  0  0  0  0  0  0
   -7.1474   23.4497  -31.8116 H   0  0  0  0  0  0  0  0  0  0  0  0
   -9.5799   23.2429  -31.3148 H   0  0  0  0  0  0  0  0  0  0  0  0
  -10.7570   21.0757  -31.6930 H   0  0  0  0  0  0  0  0  0  0  0  0
   -9.4922   19.0990  -32.5336 H   0  0  0  0  0  0  0  0  0  0  0  0
   -6.6574   19.5510  -35.1396 H   0  0  0  0  0  0  0  0  0  0  0  0
   -5.1965   19.7758  -34.0991 H   0  0  0  0  0  0  0  0  0  0  0  0
   -6.3603   17.1519  -35.1417 H   0  0  0  0  0  0  0  0  0  0  0  0
   -4.7606   17.9290  -35.5448 H   0  0  0  0  0  0  0  0  0  0  0  0
   -3.0344   17.0679  -32.5975 H   0  0  0  0  0  0  0  0  0  0  0  0
   -2.9095   16.5486  -34.3258 H   0  0  0  0  0  0  0  0  0  0  0  0
   -1.9974   18.7262  -34.3326 H   0  0  0  0  0  0  0  0  0  0  0  0
   -3.6995   18.9629  -34.8828 H   0  0  0  0  0  0  0  0  0  0  0  0
   -4.2830   19.8220  -32.6930 H   0  0  0  0  0  0  0  0  0  0  0  0
   -0.6905   22.2199  -31.5063 H   0  0  0  0  0  0  0  0  0  0  0  0
   -1.1095   23.9756  -29.7889 H   0  0  0  0  0  0  0  0  0  0  0  0
   -3.8078   24.9699  -28.5448 H   0  0  0  0  0  0  0  0  0  0  0  0
   -3.7728   23.7367  -27.2310 H   0  0  0  0  0  0  0  0  0  0  0  0
    0.4968   27.7524  -26.0489 H   0  0  0  0  0  0  0  0  0  0  0  0
    1.2844   27.3202  -27.6043 H   0  0  0  0  0  0  0  0  0  0  0  0
   -0.2688   28.2225  -27.6043 H   0  0  0  0  0  0  0  0  0  0  0  0
    0.9155   24.7723  -25.9887 H   0  0  0  0  0  0  0  0  0  0  0  0
   -1.0651   22.5829  -25.3522 H   0  0  0  0  0  0  0  0  0  0  0  0
   -1.9810   22.1718  -26.8419 H   0  0  0  0  0  0  0  0  0  0  0  0
   -0.1862   22.0979  -26.8419 H   0  0  0  0  0  0  0  0  0  0  0  0
   -4.7519   21.9583  -28.6074 H   0  0  0  0  0  0  0  0  0  0  0  0
   -4.3308   20.1918  -30.3143 H   0  0  0  0  0  0  0  0  0  0  0  0
   -5.5049   16.2068  -31.8176 H   0  0  0  0  0  0  0  0  0  0  0  0
   -4.8735   17.9164  -31.7758 H   0  0  0  0  0  0  0  0  0  0  0  0
   -7.5519   17.0143  -32.9310 H   0  0  0  0  0  0  0  0  0  0  0  0
   -7.3044   17.8826  -31.3857 H   0  0  0  0  0  0  0  0  0  0  0  0
  1  2  1  0
  2  3  1  0
  3  4  2  0
  4  5  1  0
  5  6  2  0
  6  7  1  0
  7  8  2  0
  8  9  1  0
  9 10  1  0
 10 11  1  0
 11 12  1  0
 12 13  1  0
 13 14  1  0
 14 15  1  0
 15 16  1  0
 16 17  2  0
 16 18  1  0
 18 19  2  0
 19 20  1  0
 20 21  2  0
 21 22  1  0
 22 23  1  0
 23 24  1  0
 24 25  2  0
 25 26  1  0
 25 27  1  0
 27 28  2  0
 28 29  1  0
 21 30  1  0
 30 31  2  0
 12 32  1  0
 32 33  1  0
  8  3  1  0
 33  9  1  0
 31 18  1  0
 28 23  1  0
  1 34  1  0
  1 35  1  0
  1 36  1  0
  4 37  1  0
  5 38  1  0
  6 39  1  0
  7 40  1  0
 10 41  1  0
 10 42  1  0
 11 43  1  0
 11 44  1  0
 13 45  1  0
 13 46  1  0
 14 47  1  0
 14 48  1  0
 15 49  1  0
 19 50  1  0
 20 51  1  0
 22 52  1  0
 22 53  1  0
 26 54  1  0
 26 55  1  0
 26 56  1  0
 27 57  1  0
 29 58  1  0
 29 59  1  0
 29 60  1  0
 30 61  1  0
 31 62  1  0
 32 63  1  0
 32 64  1  0
 33 65  1  0
 33 66  1  0
M  END
>  <UniqueID>  (9) 
7

>  <SMILES>  (9) 
COc1ccccc1N1CCN(CCNC(=O)c2ccc(Cn3nc(C)cc3C)cc2)CC1

>  <Energy>  (9) 
106.56068390622752

>  <Genealogy>  (9) 
COc1ccccc1N1CCN(CCNC(=O)c2ccc(Cn3nc(C)cc3C)cc2)CC1 (3D coordinates assigned)
COc1ccccc1N1CCN(CCNC(=O)c2ccc(Cn3nc(C)cc3C)cc2)CC1 (nonaromatic ring conformer: 106.56068390622752 kcal/mol)

>  <smiles>  (9) 
COc1ccccc1N1CCN(CCNC(=O)c2ccc(Cn3nc(C)cc3C)cc2)CC1

>  <score_type>  (9) 
oracle

>  <origin>  (9) 
adg

>  <m_score__min__energy>  (9) 
-9.4299999999999997

>  <m_primary>  (9) 
energy

$$$$
9:0
     RDKit          3D

 52 55  0  0  0  0  0  0  0  0999 V2000
   -5.6490   25.4060  -30.1440 C   0  0  0  0  0  0  0  0  0  0  0  0
   -4.2510   25.3570  -30.4090 O   0  0  0  0  0  0  0  0  0  0  0  0
   -3.4870   24.1800  -30.4370 C   0  0  0  0  0  0  0  0  0  0  0  0
   -3.8920   23.0440  -31.1640 C   0  0  0  0  0  0  0  0  0  0  0  0
   -3.1050   21.8910  -31.1700 C   0  0  0  0  0  0  0  0  0  0  0  0
   -1.8970   21.8550  -30.4620 C   0  0  0  0  0  0  0  0  0  0  0  0
   -1.0780   20.5970  -30.4360 C   0  0  0  0  0  0  0  0  0  0  0  0
   -0.7370   20.2210  -31.8010 N   0  0  0  0  0  0  0  0  0  0  0  0
   -0.8260   18.8790  -32.2860 C   0  0  0  0  0  0  0  0  0  0  0  0
    0.1130   18.0650  -32.0690 O   0  0  0  0  0  0  0  0  0  0  0  0
   -2.0500   18.4150  -32.9770 C   0  0  0  0  0  0  0  0  0  0  0  0
   -3.2330   19.0180  -32.6640 N   0  0  0  0  0  0  0  0  0  0  0  0
   -4.3790   18.7260  -33.2920 N   0  0  0  0  0  0  0  0  0  0  0  0
   -5.5770   19.4290  -32.9070 C   0  0  0  0  0  0  0  0  0  0  0  0
   -5.6570   20.8280  -33.0240 C   0  0  0  0  0  0  0  0  0  0  0  0
   -6.8180   21.5040  -32.6350 C   0  0  0  0  0  0  0  0  0  0  0  0
   -7.9030   20.7910  -32.1180 C   0  0  0  0  0  0  0  0  0  0  0  0
   -9.4870   21.7160  -31.5850 Br  0  0  0  0  0  0  0  0  0  0  0  0
   -7.8280   19.4000  -31.9870 C   0  0  0  0  0  0  0  0  0  0  0  0
   -6.6690   18.7220  -32.3760 C   0  0  0  0  0  0  0  0  0  0  0  0
   -4.4140   17.7770  -34.2780 C   0  0  0  0  0  0  0  0  0  0  0  0
   -5.5060   17.4940  -34.8490 O   0  0  0  0  0  0  0  0  0  0  0  0
   -3.2390   17.0970  -34.6350 C   0  0  0  0  0  0  0  0  0  0  0  0
   -3.2470   16.1050  -35.6360 C   0  0  0  0  0  0  0  0  0  0  0  0
   -2.0810   15.4080  -35.9510 C   0  0  0  0  0  0  0  0  0  0  0  0
   -0.8990   15.6790  -35.2650 C   0  0  0  0  0  0  0  0  0  0  0  0
   -0.8720   16.6610  -34.2730 C   0  0  0  0  0  0  0  0  0  0  0  0
   -2.0330   17.4040  -33.9640 C   0  0  0  0  0  0  0  0  0  0  0  0
   -1.4980   22.9770  -29.7220 C   0  0  0  0  0  0  0  0  0  0  0  0
   -2.2870   24.1450  -29.7090 C   0  0  0  0  0  0  0  0  0  0  0  0
   -1.9140   25.2890  -28.9850 O   0  0  0  0  0  0  0  0  0  0  0  0
   -1.6060   25.2990  -27.5940 C   0  0  0  0  0  0  0  0  0  0  0  0
   -5.8161   25.4119  -29.0568 H   0  0  0  0  0  0  0  0  0  0  0  0
   -6.0740   26.3196  -30.5852 H   0  0  0  0  0  0  0  0  0  0  0  0
   -6.1370   24.5244  -30.5852 H   0  0  0  0  0  0  0  0  0  0  0  0
   -4.8345   23.0653  -31.7308 H   0  0  0  0  0  0  0  0  0  0  0  0
   -3.4353   21.0061  -31.7337 H   0  0  0  0  0  0  0  0  0  0  0  0
   -0.1566   20.7694  -29.8605 H   0  0  0  0  0  0  0  0  0  0  0  0
   -1.6554   19.7891  -29.9627 H   0  0  0  0  0  0  0  0  0  0  0  0
   -3.2310   19.7670  -31.9320 H   0  0  0  0  0  0  0  0  0  0  0  0
   -4.8022   21.3935  -33.4234 H   0  0  0  0  0  0  0  0  0  0  0  0
   -6.8771   22.5977  -32.7361 H   0  0  0  0  0  0  0  0  0  0  0  0
   -8.6815   18.8396  -31.5777 H   0  0  0  0  0  0  0  0  0  0  0  0
   -6.6116   17.6290  -32.2658 H   0  0  0  0  0  0  0  0  0  0  0  0
   -4.1801   15.8788  -36.1729 H   0  0  0  0  0  0  0  0  0  0  0  0
   -2.0945   14.6435  -36.7418 H   0  0  0  0  0  0  0  0  0  0  0  0
    0.0158   15.1175  -35.5057 H   0  0  0  0  0  0  0  0  0  0  0  0
    0.0623   16.8580  -33.7268 H   0  0  0  0  0  0  0  0  0  0  0  0
   -0.5611   22.9455  -29.1465 H   0  0  0  0  0  0  0  0  0  0  0  0
   -2.5387   25.2687  -27.0117 H   0  0  0  0  0  0  0  0  0  0  0  0
   -0.9916   24.4203  -27.3482 H   0  0  0  0  0  0  0  0  0  0  0  0
   -1.0499   26.2157  -27.3482 H   0  0  0  0  0  0  0  0  0  0  0  0
  1  2  1  0
  2  3  1  0
  3  4  2  0
  4  5  1  0
  5  6  2  0
  6  7  1  0
  7  8  1  0
  8  9  1  0
  9 10  2  0
  9 11  1  0
 11 12  2  0
 12 13  1  0
 13 14  1  0
 14 15  2  0
 15 16  1  0
 16 17  2  0
 17 18  1  0
 17 19  1  0
 19 20  2  0
 13 21  1  0
 21 22  2  0
 21 23  1  0
 23 24  2  0
 24 25  1  0
 25 26  2  0
 26 27  1  0
 27 28  2  0
  6 29  1  0
 29 30  2  0
 30 31  1  0
 31 32  1  0
 30  3  1  0
 28 11  1  0
 20 14  1  0
 28 23  1  0
  1 33  1  0
  1 34  1  0
  1 35  1  0
  4 36  1  0
  5 37  1  0
  7 38  1  0
  7 39  1  0
 12 40  1  0
 15 41  1  0
 16 42  1  0
 19 43  1  0
 20 44  1  0
 24 45  1  0
 25 46  1  0
 26 47  1  0
 27 48  1  0
 29 49  1  0
 32 50  1  0
 32 51  1  0
 32 52  1  0
M  CHG  2   8  -1  12   1
M  END
>  <UniqueID>  (10) 
8

>  <SMILES>  (10) 
COc1ccc(C[N-]C(=O)c2[nH+]n(-c3ccc(Br)cc3)c(=O)c3ccccc23)cc1OC

>  <Energy>  (10) 
72.3009665102494

>  <Genealogy>  (10) 
COc1ccc(C[N-]C(=O)c2[nH+]n(-c3ccc(Br)cc3)c(=O)c3ccccc23)cc1OC (protonated)
COc1ccc(C[N-]C(=O)c2[nH+]n(-c3ccc(Br)cc3)c(=O)c3ccccc23)cc1OC (3D coordinates assigned)
COc1ccc(C[N-]C(=O)c2[nH+]n(-c3ccc(Br)cc3)c(=O)c3ccccc23)cc1OC (optimized conformer: 72.3009665102494 kcal/mol)

>  <smiles>  (10) 
COc1ccc(CNC(=O)c2nn(-c3ccc(Br)cc3)c(=O)c3ccccc23)cc1OC

>  <score_type>  (10) 
oracle

>  <origin>  (10) 
adg

>  <m_score__min__energy>  (10) 
-10.48

>  <m_primary>  (10) 
energy

$$$$
10:0
     RDKit          3D

 35 38  0  0  0  0  0  0  0  0999 V2000
   -6.8250   17.0740  -33.4110 C   0  0  0  0  0  0  0  0  0  0  0  0
   -8.0950   17.8380  -32.3560 S   0  0  0  0  0  0  0  0  0  0  0  0
   -7.0990   19.2850  -32.0070 C   0  0  0  0  0  0  0  0  0  0  0  0
   -5.7430   19.1500  -31.6990 C   0  0  0  0  0  0  0  0  0  0  0  0
   -4.9790   20.2880  -31.4300 C   0  0  0  0  0  0  0  0  0  0  0  0
   -5.5720   21.5610  -31.4970 C   0  0  0  0  0  0  0  0  0  0  0  0
   -6.9620   21.6450  -31.7570 C   0  0  0  0  0  0  0  0  0  0  0  0
   -7.6760   20.5150  -32.0130 N   0  0  0  0  0  0  0  0  0  0  0  0
   -7.5930   22.9100  -31.7150 C   0  0  0  0  0  0  0  0  0  0  0  0
   -9.0640   23.0480  -31.9640 C   0  0  0  0  0  0  0  0  0  0  0  0
   -6.8660   24.0210  -31.4040 N   0  0  0  0  0  0  0  0  0  0  0  0
   -5.5360   23.9060  -31.1770 C   0  0  0  0  0  0  0  0  0  0  0  0
   -4.7150   24.9250  -30.8800 N   0  0  0  0  0  0  0  0  0  0  0  0
   -3.5000   24.3980  -30.7880 N   0  0  0  0  0  0  0  0  0  0  0  0
   -3.6090   23.0700  -31.0250 C   0  0  0  0  0  0  0  0  0  0  0  0
   -2.4260   22.2130  -31.1960 C   0  0  0  0  0  0  0  0  0  0  0  0
   -2.1930   21.5780  -32.4250 C   0  0  0  0  0  0  0  0  0  0  0  0
   -1.0940   20.7260  -32.5770 C   0  0  0  0  0  0  0  0  0  0  0  0
   -0.2350   20.4910  -31.5000 C   0  0  0  0  0  0  0  0  0  0  0  0
   -0.4770   21.1000  -30.2660 C   0  0  0  0  0  0  0  0  0  0  0  0
   -1.5750   21.9510  -30.1100 C   0  0  0  0  0  0  0  0  0  0  0  0
   -4.8990   22.7280  -31.2600 N   0  0  0  0  0  0  0  0  0  0  0  0
   -6.0537   16.6100  -32.7787 H   0  0  0  0  0  0  0  0  0  0  0  0
   -7.2897   16.3054  -34.0461 H   0  0  0  0  0  0  0  0  0  0  0  0
   -6.3637   17.8446  -34.0461 H   0  0  0  0  0  0  0  0  0  0  0  0
   -5.2795   18.1529  -31.6685 H   0  0  0  0  0  0  0  0  0  0  0  0
   -3.9157   20.1884  -31.1663 H   0  0  0  0  0  0  0  0  0  0  0  0
   -9.5956   23.0979  -31.0023 H   0  0  0  0  0  0  0  0  0  0  0  0
   -9.2543   23.9679  -32.5363 H   0  0  0  0  0  0  0  0  0  0  0  0
   -9.4221   22.1795  -32.5363 H   0  0  0  0  0  0  0  0  0  0  0  0
   -2.8754   21.7503  -33.2703 H   0  0  0  0  0  0  0  0  0  0  0  0
   -0.9056   20.2402  -33.5458 H   0  0  0  0  0  0  0  0  0  0  0  0
    0.6324   19.8260  -31.6239 H   0  0  0  0  0  0  0  0  0  0  0  0
    0.1964   20.9098  -29.4173 H   0  0  0  0  0  0  0  0  0  0  0  0
   -1.7731   22.4169  -29.1334 H   0  0  0  0  0  0  0  0  0  0  0  0
  1  2  1  0
  2  3  1  0
  3  4  2  0
  4  5  1  0
  5  6  2  0
  6  7  1  0
  7  8  2  0
  7  9  1  0
  9 10  1  0
  9 11  2  0
 11 12  1  0
 12 13  2  0
 13 14  1  0
 14 15  2  0
 15 16  1  0
 16 17  2  0
 17 18  1  0
 18 19  2  0
 19 20  1  0
 20 21  2  0
 15 22  1  0
  8  3  1  0
 22 12  1  0
 22  6  1  0
 21 16  1  0
  1 23  1  0
  1 24  1  0
  1 25  1  0
  4 26  1  0
  5 27  1  0
 10 28  1  0
 10 29  1  0
 10 30  1  0
 17 31  1  0
 18 32  1  0
 19 33  1  0
 20 34  1  0
 21 35  1  0
M  END
>  <UniqueID>  (11) 
9

>  <SMILES>  (11) 
CSc1ccc2c(n1)c(C)nc1nnc(-c3ccccc3)n12

>  <Energy>  (11) 
90.62081883320813

>  <Genealogy>  (11) 
CSc1ccc2c(n1)c(C)nc1nnc(-c3ccccc3)n12 (3D coordinates assigned)
CSc1ccc2c(n1)c(C)nc1nnc(-c3ccccc3)n12 (optimized conformer: 90.62081883320813 kcal/mol)

>  <smiles>  (11) 
CSc1ccc2c(n1)c(C)nc1nnc(-c3ccccc3)n12

>  <score_type>  (11) 
oracle

>  <origin>  (11) 
adg

>  <m_score__min__energy>  (11) 
-8.2200000000000006

>  <m_primary>  (11) 
energy

$$$$
11:0
     RDKit          3D

 51 52  0  0  0  0  0  0  0  0999 V2000
   -2.4120   24.6330  -26.3660 C   0  0  0  0  0  0  0  0  0  0  0  0
   -4.2020   24.6330  -26.7160 S   0  0  0  0  0  0  0  0  0  0  0  0
   -4.2070   23.0770  -27.6760 C   0  0  0  0  0  0  0  0  0  0  0  0
   -2.7770   22.6740  -28.0550 C   0  0  0  0  0  0  0  0  0  0  0  0
   -2.4060   23.0920  -29.4920 C   0  0  1  0  0  0  0  0  0  0  0  0
   -3.2390   22.3680  -30.4600 N   0  0  0  0  0  0  0  0  0  0  0  0
   -3.1780   20.9400  -30.6010 C   0  0  0  0  0  0  0  0  0  0  0  0
   -2.5240   20.2590  -29.7650 O   0  0  0  0  0  0  0  0  0  0  0  0
   -3.8840   20.2520  -31.7080 C   0  0  0  0  0  0  0  0  0  0  0  0
   -3.1930   19.9270  -32.8870 C   0  0  0  0  0  0  0  0  0  0  0  0
   -3.8500   19.2860  -33.9390 C   0  0  0  0  0  0  0  0  0  0  0  0
   -5.2070   18.9790  -33.8370 C   0  0  0  0  0  0  0  0  0  0  0  0
   -5.9300   19.3320  -32.6850 C   0  0  0  0  0  0  0  0  0  0  0  0
   -7.3940   18.9930  -32.5600 C   0  0  0  0  0  0  0  0  0  0  0  0
   -7.6580   17.7690  -33.1520 F   0  0  0  0  0  0  0  0  0  0  0  0
   -8.1430   19.9690  -33.1900 F   0  0  0  0  0  0  0  0  0  0  0  0
   -7.7760   18.9200  -31.2310 F   0  0  0  0  0  0  0  0  0  0  0  0
   -5.2550   19.9470  -31.6150 C   0  0  0  0  0  0  0  0  0  0  0  0
   -2.5870   24.5760  -29.6720 C   0  0  0  0  0  0  0  0  0  0  0  0
   -1.8310   25.3750  -29.0540 O   0  0  0  0  0  0  0  0  0  0  0  0
   -3.6490   25.0740  -30.4900 N   0  0  0  0  0  0  0  0  0  0  0  0
   -5.0360   25.1060  -30.0390 C   0  0  0  0  0  0  0  0  0  0  0  0
   -5.9870   24.8400  -31.2140 C   0  0  0  0  0  0  0  0  0  0  0  0
   -6.0260   23.3630  -31.6280 C   0  0  0  0  0  0  0  0  0  0  0  0
   -7.3500   22.7830  -31.4200 N   0  0  0  0  0  0  0  0  0  0  0  0
   -8.4440   23.0190  -32.1670 C   0  0  0  0  0  0  0  0  0  0  0  0
   -9.4740   22.2450  -31.6790 C   0  0  0  0  0  0  0  0  0  0  0  0
   -8.9280   21.5680  -30.6060 C   0  0  0  0  0  0  0  0  0  0  0  0
   -7.6330   21.9080  -30.4680 N   0  0  0  0  0  0  0  0  0  0  0  0
   -2.0522   23.5959  -26.2956 H   0  0  0  0  0  0  0  0  0  0  0  0
   -1.8798   25.1515  -27.1771 H   0  0  0  0  0  0  0  0  0  0  0  0
   -2.2245   25.1515  -25.4142 H   0  0  0  0  0  0  0  0  0  0  0  0
   -4.6590   22.2788  -27.0689 H   0  0  0  0  0  0  0  0  0  0  0  0
   -4.7890   23.2295  -28.5969 H   0  0  0  0  0  0  0  0  0  0  0  0
   -2.0778   23.1561  -27.3559 H   0  0  0  0  0  0  0  0  0  0  0  0
   -2.7134   21.5772  -27.9994 H   0  0  0  0  0  0  0  0  0  0  0  0
   -1.3495   22.8402  -29.6662 H   0  0  0  0  0  0  0  0  0  0  0  0
   -3.9370   22.9040  -31.0230 H   0  0  0  0  0  0  0  0  0  0  0  0
   -2.1266   20.1793  -32.9821 H   0  0  0  0  0  0  0  0  0  0  0  0
   -3.2956   19.0221  -34.8517 H   0  0  0  0  0  0  0  0  0  0  0  0
   -5.7137   18.4579  -34.6627 H   0  0  0  0  0  0  0  0  0  0  0  0
   -5.8051   20.1925  -30.6946 H   0  0  0  0  0  0  0  0  0  0  0  0
   -5.1850   24.3336  -29.2701 H   0  0  0  0  0  0  0  0  0  0  0  0
   -5.2529   26.1007  -29.6226 H   0  0  0  0  0  0  0  0  0  0  0  0
   -7.0013   25.1495  -30.9216 H   0  0  0  0  0  0  0  0  0  0  0  0
   -5.6161   25.4146  -32.0755 H   0  0  0  0  0  0  0  0  0  0  0  0
   -5.7645   23.2835  -32.6935 H   0  0  0  0  0  0  0  0  0  0  0  0
   -5.3062   22.8113  -31.0056 H   0  0  0  0  0  0  0  0  0  0  0  0
   -8.5054   23.7106  -33.0202 H   0  0  0  0  0  0  0  0  0  0  0  0
  -10.5039   22.1804  -32.0599 H   0  0  0  0  0  0  0  0  0  0  0  0
   -9.4691   20.8589  -29.9623 H   0  0  0  0  0  0  0  0  0  0  0  0
  1  2  1  0
  2  3  1  0
  3  4  1  0
  4  5  1  0
  5  6  1  0
  6  7  1  0
  7  8  2  0
  7  9  1  0
  9 10  2  0
 10 11  1  0
 11 12  2  0
 12 13  1  0
 13 14  1  0
 14 15  1  0
 14 16  1  0
 14 17  1  0
 13 18  2  0
  5 19  1  0
 19 20  2  0
 19 21  1  0
 21 22  1  0
 22 23  1  0
 23 24  1  0
 24 25  1  0
 25 26  1  0
 26 27  2  0
 27 28  1  0
 28 29  2  0
 18  9  1  0
 29 25  1  0
  1 30  1  0
  1 31  1  0
  1 32  1  0
  3 33  1  0
  3 34  1  0
  4 35  1  0
  4 36  1  0
  5 37  1  6
  6 38  1  0
 10 39  1  0
 11 40  1  0
 12 41  1  0
 18 42  1  0
 22 43  1  0
 22 44  1  0
 23 45  1  0
 23 46  1  0
 24 47  1  0
 24 48  1  0
 26 49  1  0
 27 50  1  0
 28 51  1  0
M  CHG  1  21  -1
M  END
>  <UniqueID>  (12) 
10

>  <SMILES>  (12) 
CSCC[C@@H](NC(=O)c1cccc(C(F)(F)F)c1)C(=O)[N-]CCCn1cccn1

>  <Energy>  (12) 
65.11718848134603

>  <Genealogy>  (12) 
CSCCC(NC(=O)c1cccc(C(F)(F)F)c1)C(=O)[N-]CCCn1cccn1 (protonated)
CSCC[C@@H](NC(=O)c1cccc(C(F)(F)F)c1)C(=O)[N-]CCCn1cccn1 (chirality)
CSCC[C@@H](NC(=O)c1cccc(C(F)(F)F)c1)C(=O)[N-]CCCn1cccn1 (3D coordinates assigned)
CSCC[C@@H](NC(=O)c1cccc(C(F)(F)F)c1)C(=O)[N-]CCCn1cccn1 (optimized conformer: 65.11718848134603 kcal/mol)

>  <smiles>  (12) 
CSCCC(NC(=O)c1cccc(C(F)(F)F)c1)C(=O)NCCCn1cccn1

>  <score_type>  (12) 
oracle

>  <origin>  (12) 
adg

>  <m_score__min__energy>  (12) 
-9.0399999999999991

>  <m_primary>  (12) 
energy

$$$$
12:0
     RDKit          3D

 46 50  0  0  1  0  0  0  0  0999 V2000
   -1.9240   24.9130  -28.0270 C   0  0  0  0  0  0  0  0  0  0  0  0
   -2.4590   25.2990  -29.2860 O   0  0  0  0  0  0  0  0  0  0  0  0
   -3.1490   24.3410  -30.0300 C   0  0  0  0  0  0  0  0  0  0  0  0
   -2.5410   23.0920  -30.1080 C   0  0  0  0  0  0  0  0  0  0  0  0
   -3.1690   22.0750  -30.8370 C   0  0  0  0  0  0  0  0  0  0  0  0
   -4.3720   22.3410  -31.4560 C   0  0  0  0  0  0  0  0  0  0  0  0
   -5.0000   21.2640  -32.2050 C   0  0  0  0  0  0  0  0  0  0  0  0
   -6.3460   21.2180  -32.4960 C   0  0  0  0  0  0  0  0  0  0  0  0
   -6.8280   20.1460  -33.2150 C   0  0  0  0  0  0  0  0  0  0  0  0
   -8.0770   20.0610  -33.5100 N   0  0  0  0  0  0  0  0  0  0  0  0
   -9.0120   19.5300  -32.5590 C   0  0  0  0  0  0  0  0  0  0  0  0
   -8.7560   19.3970  -31.1260 C   0  0  0  0  0  0  0  0  0  0  0  0
   -8.5910   18.1760  -31.9630 C   0  0  0  0  0  0  0  0  0  0  0  0
   -6.0280   19.1380  -33.6430 N   0  0  0  0  0  0  0  0  0  0  0  0
   -6.2350   18.0260  -34.3320 N   0  0  0  0  0  0  0  0  0  0  0  0
   -5.0550   17.3650  -34.4840 C   0  0  0  0  0  0  0  0  0  0  0  0
   -4.0640   18.1040  -33.8580 C   0  0  0  0  0  0  0  0  0  0  0  0
   -2.7770   17.8700  -33.7420 C   0  0  0  0  0  0  0  0  0  0  0  0
   -1.8180   18.8700  -34.1970 C   0  0  0  0  0  0  0  0  0  0  0  0
   -1.8310   20.2110  -33.9490 N   0  0  0  0  0  0  0  0  0  0  0  0
   -0.7500   20.7230  -34.5710 C   0  0  0  0  0  0  0  0  0  0  0  0
   -0.3870   21.9450  -34.5920 O   0  0  0  0  0  0  0  0  0  0  0  0
   -0.0930   19.7380  -35.1840 N   0  0  0  0  0  0  0  0  0  0  0  0
   -0.7190   18.5670  -34.9800 C   0  0  0  0  0  0  0  0  0  0  0  0
   -0.3460   17.3210  -35.4500 O   0  0  0  0  0  0  0  0  0  0  0  0
   -4.7220   19.2120  -33.3440 C   0  0  0  0  0  0  0  0  0  0  0  0
   -4.2140   20.2620  -32.6340 N   0  0  0  0  0  0  0  0  0  0  0  0
   -4.9100   23.6030  -31.3310 C   0  0  0  0  0  0  0  0  0  0  0  0
   -4.3180   24.5830  -30.6370 N   0  0  0  0  0  0  0  0  0  0  0  0
   -2.5310   25.3509  -27.2209 H   0  0  0  0  0  0  0  0  0  0  0  0
   -1.9390   23.8163  -27.9429 H   0  0  0  0  0  0  0  0  0  0  0  0
   -0.8880   25.2730  -27.9429 H   0  0  0  0  0  0  0  0  0  0  0  0
   -1.5809   22.9063  -29.6043 H   0  0  0  0  0  0  0  0  0  0  0  0
   -2.7095   21.0786  -30.9148 H   0  0  0  0  0  0  0  0  0  0  0  0
   -7.0210   22.0196  -32.1616 H   0  0  0  0  0  0  0  0  0  0  0  0
   -9.8532   19.9898  -33.0983 H   0  0  0  0  0  0  0  0  0  0  0  0
   -7.8690   19.8771  -30.6870 H   0  0  0  0  0  0  0  0  0  0  0  0
   -9.3416   19.6276  -30.2238 H   0  0  0  0  0  0  0  0  0  0  0  0
   -7.5886   17.7687  -32.1610 H   0  0  0  0  0  0  0  0  0  0  0  0
   -8.9962   17.1533  -31.9587 H   0  0  0  0  0  0  0  0  0  0  0  0
   -4.9128   16.4104  -35.0118 H   0  0  0  0  0  0  0  0  0  0  0  0
   -2.4242   16.9247  -33.3039 H   0  0  0  0  0  0  0  0  0  0  0  0
   -2.5510   20.7330  -33.3780 H   0  0  0  0  0  0  0  0  0  0  0  0
    0.7920   19.8300  -35.7520 H   0  0  0  0  0  0  0  0  0  0  0  0
   -0.8270   16.8930  -36.2280 H   0  0  0  0  0  0  0  0  0  0  0  0
   -5.8701   23.8153  -31.8240 H   0  0  0  0  0  0  0  0  0  0  0  0
  1  2  1  0
  2  3  1  0
  3  4  2  0
  4  5  1  0
  5  6  2  0
  6  7  1  0
  7  8  2  0
  8  9  1  0
  9 10  2  0
 10 11  1  0
 11 12  1  0
 12 13  1  0
  9 14  1  0
 14 15  1  0
 15 16  2  0
 16 17  1  0
 17 18  2  0
 18 19  1  0
 19 20  1  0
 20 21  1  0
 21 22  2  0
 21 23  1  0
 23 24  1  0
 24 25  1  0
 17 26  1  0
 26 27  2  0
  6 28  1  0
 28 29  2  0
 29  3  1  0
 27  7  1  0
 13 11  1  0
 26 14  1  0
 24 19  2  0
  1 30  1  0
  1 31  1  0
  1 32  1  0
  4 33  1  0
  5 34  1  0
  8 35  1  0
 11 36  1  0
 12 37  1  0
 12 38  1  0
 13 39  1  0
 13 40  1  0
 16 41  1  0
 18 42  1  0
 20 43  1  0
 23 44  1  0
 25 45  1  0
 28 46  1  0
M  END
>  <smiles>  (13) 
COc1ccc(-c2cc(=NC3CC3)n3ncc(=Cc4[nH]c(=O)[nH]c4O)c3n2)cn1

>  <score_type>  (13) 
oracle

>  <origin>  (13) 
adg

>  <m_score__min__energy>  (13) 
-8.9499999999999993

>  <m_primary>  (13) 
energy

$$$$
13:0
     RDKit          3D

 41 43  0  0  0  0  0  0  0  0999 V2000
   -7.0314   25.5139  -31.1732 H   0  0  0  0  0  0  0  0  0  0  0  0
   -6.1200   24.8980  -31.1780 C   0  0  0  0  0  0  0  0  0  0  0  0
   -5.0420   25.2740  -30.4410 N   0  0  0  0  0  0  0  0  0  0  0  0
   -3.9060   24.5280  -30.4310 C   0  0  0  0  0  0  0  0  0  0  0  0
   -2.8940   24.9200  -29.7160 N   0  0  0  0  0  0  0  0  0  0  0  0
   -2.6150   24.4820  -28.3480 C   0  0  0  0  0  0  0  0  0  0  0  0
   -3.5616   24.4151  -27.7916 H   0  0  0  0  0  0  0  0  0  0  0  0
   -1.9416   25.2129  -27.8766 H   0  0  0  0  0  0  0  0  0  0  0  0
   -1.9400   23.1300  -28.3390 C   0  0  0  0  0  0  0  0  0  0  0  0
   -2.7330   21.9760  -28.2240 C   0  0  0  0  0  0  0  0  0  0  0  0
   -3.8261   22.0706  -28.1452 H   0  0  0  0  0  0  0  0  0  0  0  0
   -2.1450   20.7110  -28.2090 C   0  0  0  0  0  0  0  0  0  0  0  0
   -2.7745   19.8139  -28.1142 H   0  0  0  0  0  0  0  0  0  0  0  0
   -0.7610   20.5820  -28.3140 C   0  0  0  0  0  0  0  0  0  0  0  0
   -0.2999   19.5834  -28.3015 H   0  0  0  0  0  0  0  0  0  0  0  0
    0.0410   21.7190  -28.4350 C   0  0  0  0  0  0  0  0  0  0  0  0
    1.1319   21.6104  -28.5247 H   0  0  0  0  0  0  0  0  0  0  0  0
   -0.5370   23.0050  -28.4430 C   0  0  0  0  0  0  0  0  0  0  0  0
    0.2490   24.1640  -28.5480 O   0  0  0  0  0  0  0  0  0  0  0  0
    0.8110   24.8670  -27.4440 C   0  0  0  0  0  0  0  0  0  0  0  0
    0.4537   24.4201  -26.5045 H   0  0  0  0  0  0  0  0  0  0  0  0
    1.9082   24.8011  -27.4875 H   0  0  0  0  0  0  0  0  0  0  0  0
    0.5051   25.9227  -27.4875 H   0  0  0  0  0  0  0  0  0  0  0  0
   -3.8420   23.3870  -31.1700 N   0  0  0  0  0  0  0  0  0  0  0  0
   -4.8980   22.9710  -31.9210 C   0  0  0  0  0  0  0  0  0  0  0  0
   -4.7690   21.7360  -32.7630 C   0  0  0  0  0  0  0  0  0  0  0  0
   -4.8330   22.0123  -33.8258 H   0  0  0  0  0  0  0  0  0  0  0  0
   -3.7989   21.2603  -32.5568 H   0  0  0  0  0  0  0  0  0  0  0  0
   -5.8720   20.7660  -32.4340 C   0  0  0  0  0  0  0  0  0  0  0  0
   -5.5660   19.5110  -31.8830 C   0  0  0  0  0  0  0  0  0  0  0  0
   -4.5197   19.2479  -31.6684 H   0  0  0  0  0  0  0  0  0  0  0  0
   -6.5840   18.5950  -31.6060 C   0  0  0  0  0  0  0  0  0  0  0  0
   -6.3383   17.6168  -31.1670 H   0  0  0  0  0  0  0  0  0  0  0  0
   -7.9140   18.9200  -31.8860 C   0  0  0  0  0  0  0  0  0  0  0  0
   -8.7149   18.1988  -31.6658 H   0  0  0  0  0  0  0  0  0  0  0  0
   -8.2260   20.1620  -32.4460 C   0  0  0  0  0  0  0  0  0  0  0  0
   -9.2729   20.4165  -32.6678 H   0  0  0  0  0  0  0  0  0  0  0  0
   -7.2100   21.0820  -32.7250 C   0  0  0  0  0  0  0  0  0  0  0  0
   -7.4589   22.0552  -33.1733 H   0  0  0  0  0  0  0  0  0  0  0  0
   -6.0710   23.7320  -31.9400 C   0  0  0  0  0  0  0  0  0  0  0  0
   -6.9357   23.4174  -32.5428 H   0  0  0  0  0  0  0  0  0  0  0  0
  1  2  1  0
  2  3  1  0
  3  4  1  0
  4  5  2  0
  5  6  1  0
  6  7  1  0
  6  8  1  0
  6  9  1  0
  9 10  2  0
 10 11  1  0
 10 12  1  0
 12 13  1  0
 12 14  2  0
 14 15  1  0
 14 16  1  0
 16 17  1  0
 16 18  2  0
 18 19  1  0
 19 20  1  0
 20 21  1  0
 20 22  1  0
 20 23  1  0
  4 24  1  0
 24 25  2  0
 25 26  1  0
 26 27  1  0
 26 28  1  0
 26 29  1  0
 29 30  2  0
 30 31  1  0
 30 32  1  0
 32 33  1  0
 32 34  2  0
 34 35  1  0
 34 36  1  0
 36 37  1  0
 36 38  2  0
 38 39  1  0
 25 40  1  0
 40 41  1  0
 40  2  2  0
 18  9  1  0
 38 29  1  0
M  CHG  1   3  -1
M  END
>  <UniqueID>  (14) 
11

>  <SMILES>  (14) 
COc1ccccc1C/N=c1\nc(Cc2ccccc2)cc[n-]1

>  <Energy>  (14) 
39.46442731908552

>  <Genealogy>  (14) 
COc1ccccc1CN=c1nc(Cc2ccccc2)cc[n-]1 (protonated)
COc1ccccc1C/N=c1\nc(Cc2ccccc2)cc[n-]1 (cis-trans isomerization)
COc1ccccc1C/N=c1\nc(Cc2ccccc2)cc[n-]1 (3D coordinates assigned)
COc1ccccc1C/N=c1\nc(Cc2ccccc2)cc[n-]1 (optimized conformer: 39.46442731908552 kcal/mol)

>  <smiles>  (14) 
COc1ccccc1CN=c1nc(Cc2ccccc2)cc[nH]1

>  <score_type>  (14) 
oracle

>  <origin>  (14) 
adg

>  <m_score__min__energy>  (14) 
-9.5199999999999996

>  <m_primary>  (14) 
energy

$$$$
14:0
     RDKit          3D

 59 62  0  0  0  0  0  0  0  0999 V2000
    1.8760   24.5300  -27.4650 C   0  0  0  0  0  0  0  0  0  0  0  0
    0.8090   24.2350  -28.3600 O   0  0  0  0  0  0  0  0  0  0  0  0
   -0.3610   23.5350  -28.0200 C   0  0  0  0  0  0  0  0  0  0  0  0
   -0.3090   22.1710  -27.6700 C   0  0  0  0  0  0  0  0  0  0  0  0
   -1.4730   21.4670  -27.3720 C   0  0  0  0  0  0  0  0  0  0  0  0
   -2.7110   22.0990  -27.4510 C   0  0  0  0  0  0  0  0  0  0  0  0
   -2.7990   23.4540  -27.8000 C   0  0  0  0  0  0  0  0  0  0  0  0
   -4.1680   24.0930  -27.8840 C   0  0  0  0  0  0  0  0  0  0  0  0
   -4.7680   23.9030  -29.2150 N   0  0  0  0  0  0  0  0  0  0  0  0
   -6.2080   23.6620  -29.3440 C   0  0  0  0  0  0  0  0  0  0  0  0
   -3.9940   24.1270  -30.4130 C   0  0  0  0  0  0  0  0  0  0  0  0
   -3.8210   25.3000  -30.8450 O   0  0  0  0  0  0  0  0  0  0  0  0
   -3.3910   23.0070  -31.1530 C   0  0  0  0  0  0  0  0  0  0  0  0
   -2.0560   22.6570  -30.9220 C   0  0  0  0  0  0  0  0  0  0  0  0
   -1.4980   21.5560  -31.5810 C   0  0  0  0  0  0  0  0  0  0  0  0
   -0.1710   21.1720  -31.3510 C   0  0  0  0  0  0  0  0  0  0  0  0
    0.3560   20.0550  -32.0030 C   0  0  0  0  0  0  0  0  0  0  0  0
   -0.4360   19.3140  -32.8850 C   0  0  0  0  0  0  0  0  0  0  0  0
   -1.7670   19.6860  -33.1320 C   0  0  0  0  0  0  0  0  0  0  0  0
   -2.6160   18.8750  -34.0710 C   0  0  0  0  0  0  0  0  0  0  0  0
   -2.3000   20.8150  -32.4790 C   0  0  0  0  0  0  0  0  0  0  0  0
   -3.5860   21.1980  -32.7020 N   0  0  0  0  0  0  0  0  0  0  0  0
   -4.1430   22.2800  -32.0900 C   0  0  0  0  0  0  0  0  0  0  0  0
   -5.4700   22.6570  -32.3510 O   0  0  0  0  0  0  0  0  0  0  0  0
   -6.6000   21.8240  -32.3290 C   0  0  0  0  0  0  0  0  0  0  0  0
   -7.8630   22.2530  -31.8700 C   0  0  0  0  0  0  0  0  0  0  0  0
   -8.9550   21.3810  -31.8980 C   0  0  0  0  0  0  0  0  0  0  0  0
   -8.7930   20.0670  -32.3490 C   0  0  0  0  0  0  0  0  0  0  0  0
   -9.8510   19.2210  -32.3680 F   0  0  0  0  0  0  0  0  0  0  0  0
   -7.5360   19.6230  -32.7610 C   0  0  0  0  0  0  0  0  0  0  0  0
   -6.4450   20.4970  -32.7470 C   0  0  0  0  0  0  0  0  0  0  0  0
   -1.6180   24.1990  -28.0420 C   0  0  0  0  0  0  0  0  0  0  0  0
   -1.7510   25.5790  -28.2990 O   0  0  0  0  0  0  0  0  0  0  0  0
   -0.9120   26.6190  -27.8120 C   0  0  0  0  0  0  0  0  0  0  0  0
    1.5224   24.4322  -26.4280 H   0  0  0  0  0  0  0  0  0  0  0  0
    2.7044   23.8272  -27.6377 H   0  0  0  0  0  0  0  0  0  0  0  0
    2.2257   25.5585  -27.6377 H   0  0  0  0  0  0  0  0  0  0  0  0
    0.6624   21.6563  -27.6317 H   0  0  0  0  0  0  0  0  0  0  0  0
   -1.4142   20.4098  -27.0737 H   0  0  0  0  0  0  0  0  0  0  0  0
   -3.6281   21.5303  -27.2377 H   0  0  0  0  0  0  0  0  0  0  0  0
   -4.8232   23.6365  -27.1275 H   0  0  0  0  0  0  0  0  0  0  0  0
   -4.0581   25.1727  -27.7044 H   0  0  0  0  0  0  0  0  0  0  0  0
   -6.6583   23.5866  -28.3432 H   0  0  0  0  0  0  0  0  0  0  0  0
   -6.6715   24.4951  -29.8928 H   0  0  0  0  0  0  0  0  0  0  0  0
   -6.3750   22.7234  -29.8928 H   0  0  0  0  0  0  0  0  0  0  0  0
   -1.4455   23.2471  -30.2227 H   0  0  0  0  0  0  0  0  0  0  0  0
    0.4563   21.7503  -30.6567 H   0  0  0  0  0  0  0  0  0  0  0  0
    1.3992   19.7569  -31.8217 H   0  0  0  0  0  0  0  0  0  0  0  0
   -0.0131   18.4327  -33.3894 H   0  0  0  0  0  0  0  0  0  0  0  0
   -3.2914   18.2298  -33.4901 H   0  0  0  0  0  0  0  0  0  0  0  0
   -3.2093   19.5504  -34.7050 H   0  0  0  0  0  0  0  0  0  0  0  0
   -1.9685   18.2515  -34.7050 H   0  0  0  0  0  0  0  0  0  0  0  0
   -7.9889   23.2771  -31.4888 H   0  0  0  0  0  0  0  0  0  0  0  0
   -9.9439   21.7289  -31.5646 H   0  0  0  0  0  0  0  0  0  0  0  0
   -7.4033   18.5841  -33.0972 H   0  0  0  0  0  0  0  0  0  0  0  0
   -5.4556   20.1387  -33.0674 H   0  0  0  0  0  0  0  0  0  0  0  0
   -0.9187   26.6107  -26.7121 H   0  0  0  0  0  0  0  0  0  0  0  0
    0.1148   26.4614  -28.1736 H   0  0  0  0  0  0  0  0  0  0  0  0
   -1.2832   27.5893  -28.1736 H   0  0  0  0  0  0  0  0  0  0  0  0
  1  2  1  0
  2  3  1  0
  3  4  2  0
  4  5  1  0
  5  6  2  0
  6  7  1  0
  7  8  1  0
  8  9  1  0
  9 10  1  0
  9 11  1  0
 11 12  2  0
 11 13  1  0
 13 14  2  0
 14 15  1  0
 15 16  2  0
 16 17  1  0
 17 18  2  0
 18 19  1  0
 19 20  1  0
 19 21  2  0
 21 22  1  0
 22 23  2  0
 23 24  1  0
 24 25  1  0
 25 26  2  0
 26 27  1  0
 27 28  2  0
 28 29  1  0
 28 30  1  0
 30 31  2  0
  7 32  2  0
 32 33  1  0
 33 34  1  0
 32  3  1  0
 23 13  1  0
 31 25  1  0
 21 15  1  0
  1 35  1  0
  1 36  1  0
  1 37  1  0
  4 38  1  0
  5 39  1  0
  6 40  1  0
  8 41  1  0
  8 42  1  0
 10 43  1  0
 10 44  1  0
 10 45  1  0
 14 46  1  0
 16 47  1  0
 17 48  1  0
 18 49  1  0
 20 50  1  0
 20 51  1  0
 20 52  1  0
 26 53  1  0
 27 54  1  0
 30 55  1  0
 31 56  1  0
 34 57  1  0
 34 58  1  0
 34 59  1  0
M  END
>  <UniqueID>  (15) 
12

>  <SMILES>  (15) 
COc1cccc(CN(C)C(=O)c2cc3cccc(C)c3nc2Oc2ccc(F)cc2)c1OC

>  <Energy>  (15) 
71.64859917325686

>  <Genealogy>  (15) 
COc1cccc(CN(C)C(=O)c2cc3cccc(C)c3nc2Oc2ccc(F)cc2)c1OC (3D coordinates assigned)
COc1cccc(CN(C)C(=O)c2cc3cccc(C)c3nc2Oc2ccc(F)cc2)c1OC (optimized conformer: 71.64859917325686 kcal/mol)

>  <smiles>  (15) 
COc1cccc(CN(C)C(=O)c2cc3cccc(C)c3nc2Oc2ccc(F)cc2)c1OC

>  <score_type>  (15) 
oracle

>  <origin>  (15) 
adg

>  <m_score__min__energy>  (15) 
-10.25

>  <m_primary>  (15) 
energy

$$$$
15:0
     RDKit          3D

 50 51  0  0  0  0  0  0  0  0999 V2000
   -6.4090   16.6380  -33.9230 C   0  0  0  0  0  0  0  0  0  0  0  0
   -7.0520   17.0850  -32.7330 O   0  0  0  0  0  0  0  0  0  0  0  0
   -7.5220   18.3900  -32.5300 C   0  0  0  0  0  0  0  0  0  0  0  0
   -6.7980   19.4520  -33.0840 C   0  0  0  0  0  0  0  0  0  0  0  0
   -7.2250   20.7710  -32.9100 C   0  0  0  0  0  0  0  0  0  0  0  0
   -8.3940   21.0460  -32.1850 C   0  0  0  0  0  0  0  0  0  0  0  0
   -8.8360   22.4690  -31.9650 C   0  0  0  0  0  0  0  0  0  0  0  0
   -7.6260   23.4040  -31.8810 C   0  0  0  0  0  0  0  0  0  0  0  0
   -7.0640   23.3920  -30.5120 N   0  0  0  0  0  0  0  0  0  0  0  0
   -5.9640   22.4250  -30.3320 C   0  0  0  0  0  0  0  0  0  0  0  0
   -4.6450   22.8690  -30.9940 C   0  0  0  0  0  0  0  0  0  0  0  0
   -4.3020   24.2840  -30.7430 N   0  0  0  0  0  0  0  0  0  0  0  0
   -3.2260   24.5440  -29.7630 C   0  0  0  0  0  0  0  0  0  0  0  0
   -3.2450   23.5730  -28.5600 C   0  0  0  0  0  0  0  0  0  0  0  0
   -3.0240   24.2270  -27.2500 N   0  0  0  0  0  0  0  0  0  0  0  0
   -4.2470   24.8230  -26.6890 C   0  0  0  0  0  0  0  0  0  0  0  0
   -1.9160   25.1940  -27.2670 C   0  0  0  0  0  0  0  0  0  0  0  0
   -5.4180   25.2460  -30.7750 C   0  0  0  0  0  0  0  0  0  0  0  0
   -6.6620   24.7280  -30.0400 C   0  0  0  0  0  0  0  0  0  0  0  0
   -9.1160   19.9860  -31.6170 C   0  0  0  0  0  0  0  0  0  0  0  0
   -8.6880   18.6670  -31.7900 C   0  0  0  0  0  0  0  0  0  0  0  0
   -5.5322   16.0284  -33.6592 H   0  0  0  0  0  0  0  0  0  0  0  0
   -7.1118   16.0327  -34.5144 H   0  0  0  0  0  0  0  0  0  0  0  0
   -6.0865   17.5077  -34.5144 H   0  0  0  0  0  0  0  0  0  0  0  0
   -5.8847   19.2464  -33.6615 H   0  0  0  0  0  0  0  0  0  0  0  0
   -6.6421   21.5971  -33.3433 H   0  0  0  0  0  0  0  0  0  0  0  0
   -9.4768   22.7818  -32.8026 H   0  0  0  0  0  0  0  0  0  0  0  0
   -9.3926   22.5244  -31.0178 H   0  0  0  0  0  0  0  0  0  0  0  0
   -6.8571   23.0678  -32.5922 H   0  0  0  0  0  0  0  0  0  0  0  0
   -7.9455   24.4271  -32.1285 H   0  0  0  0  0  0  0  0  0  0  0  0
   -5.7868   22.2950  -29.2542 H   0  0  0  0  0  0  0  0  0  0  0  0
   -6.2723   21.4878  -30.8184 H   0  0  0  0  0  0  0  0  0  0  0  0
   -3.8315   22.2399  -30.6037 H   0  0  0  0  0  0  0  0  0  0  0  0
   -4.7769   22.7578  -32.0804 H   0  0  0  0  0  0  0  0  0  0  0  0
   -2.2571   24.4467  -30.2746 H   0  0  0  0  0  0  0  0  0  0  0  0
   -3.3858   25.5572  -29.3657 H   0  0  0  0  0  0  0  0  0  0  0  0
   -4.2245   23.0731  -28.5354 H   0  0  0  0  0  0  0  0  0  0  0  0
   -2.4120   22.8699  -28.7074 H   0  0  0  0  0  0  0  0  0  0  0  0
   -4.1963   24.7983  -25.5904 H   0  0  0  0  0  0  0  0  0  0  0  0
   -4.3360   25.8655  -27.0286 H   0  0  0  0  0  0  0  0  0  0  0  0
   -5.1229   24.2507  -27.0286 H   0  0  0  0  0  0  0  0  0  0  0  0
   -1.6307   25.4430  -26.2342 H   0  0  0  0  0  0  0  0  0  0  0  0
   -1.0537   24.7545  -27.7897 H   0  0  0  0  0  0  0  0  0  0  0  0
   -2.2348   26.1078  -27.7897 H   0  0  0  0  0  0  0  0  0  0  0  0
   -5.0908   26.1818  -30.2983 H   0  0  0  0  0  0  0  0  0  0  0  0
   -5.6935   25.4033  -31.8283 H   0  0  0  0  0  0  0  0  0  0  0  0
   -6.4417   24.6732  -28.9637 H   0  0  0  0  0  0  0  0  0  0  0  0
   -7.4902   25.4234  -30.2411 H   0  0  0  0  0  0  0  0  0  0  0  0
  -10.0241   20.1941  -31.0322 H   0  0  0  0  0  0  0  0  0  0  0  0
   -9.2641   17.8416  -31.3464 H   0  0  0  0  0  0  0  0  0  0  0  0
  1  2  1  0
  2  3  1  0
  3  4  2  0
  4  5  1  0
  5  6  2  0
  6  7  1  0
  7  8  1  0
  8  9  1  0
  9 10  1  0
 10 11  1  0
 11 12  1  0
 12 13  1  0
 13 14  1  0
 14 15  1  0
 15 16  1  0
 15 17  1  0
 12 18  1  0
 18 19  1  0
  6 20  1  0
 20 21  2  0
 21  3  1  0
 19  9  1  0
  1 22  1  0
  1 23  1  0
  1 24  1  0
  4 25  1  0
  5 26  1  0
  7 27  1  0
  7 28  1  0
  8 29  1  0
  8 30  1  0
 10 31  1  0
 10 32  1  0
 11 33  1  0
 11 34  1  0
 13 35  1  0
 13 36  1  0
 14 37  1  0
 14 38  1  0
 16 39  1  0
 16 40  1  0
 16 41  1  0
 17 42  1  0
 17 43  1  0
 17 44  1  0
 18 45  1  0
 18 46  1  0
 19 47  1  0
 19 48  1  0
 20 49  1  0
 21 50  1  0
M  END
>  <UniqueID>  (16) 
13

>  <SMILES>  (16) 
COc1ccc(CCN2CCN(CCN(C)C)CC2)cc1

>  <Energy>  (16) 
62.19970847629124

>  <Genealogy>  (16) 
COc1ccc(CCN2CCN(CCN(C)C)CC2)cc1 (3D coordinates assigned)
COc1ccc(CCN2CCN(CCN(C)C)CC2)cc1 (nonaromatic ring conformer: 62.19970847629124 kcal/mol)

>  <smiles>  (16) 
COc1ccc(CCN2CCN(CCN(C)C)CC2)cc1

>  <score_type>  (16) 
oracle

>  <origin>  (16) 
adg

>  <m_score__min__energy>  (16) 
-7.9100000000000001

>  <m_primary>  (16) 
energy

$$$$
16:0
     RDKit          3D

 56 58  0  0  0  0  0  0  0  0999 V2000
   -3.2480   19.9270  -33.4280 C   0  0  0  0  0  0  0  0  0  0  0  0
   -4.3720   19.4910  -34.1850 O   0  0  0  0  0  0  0  0  0  0  0  0
   -4.9820   18.2310  -34.0630 C   0  0  0  0  0  0  0  0  0  0  0  0
   -4.4150   17.0820  -34.6530 C   0  0  0  0  0  0  0  0  0  0  0  0
   -5.0410   15.8410  -34.5320 C   0  0  0  0  0  0  0  0  0  0  0  0
   -6.2370   15.7250  -33.8270 C   0  0  0  0  0  0  0  0  0  0  0  0
   -6.8100   16.8500  -33.2310 C   0  0  0  0  0  0  0  0  0  0  0  0
   -6.1930   18.1110  -33.3380 C   0  0  0  0  0  0  0  0  0  0  0  0
   -6.8360   19.2770  -32.6850 C   0  0  0  0  0  0  0  0  0  0  0  0
   -6.1720   20.1990  -31.9520 N   0  0  0  0  0  0  0  0  0  0  0  0
   -7.1380   21.0510  -31.5620 C   0  0  0  0  0  0  0  0  0  0  0  0
   -6.8660   22.2950  -30.7720 C   0  0  0  0  0  0  0  0  0  0  0  0
   -6.1950   23.5770  -31.8180 S   0  0  0  0  0  0  0  0  0  0  0  0
   -4.8790   23.1160  -32.3810 O   0  0  0  0  0  0  0  0  0  0  0  0
   -7.1530   23.8310  -32.9480 O   0  0  0  0  0  0  0  0  0  0  0  0
   -5.9550   25.0860  -30.8880 C   0  0  0  0  0  0  0  0  0  0  0  0
   -4.8740   24.9240  -29.8640 C   0  0  0  0  0  0  0  0  0  0  0  0
   -5.1700   24.5550  -28.6950 O   0  0  0  0  0  0  0  0  0  0  0  0
   -3.5100   25.1660  -30.2210 N   0  0  0  0  0  0  0  0  0  0  0  0
   -2.3920   24.8480  -29.3430 C   0  0  0  0  0  0  0  0  0  0  0  0
   -2.2280   23.3240  -29.2230 C   0  0  0  0  0  0  0  0  0  0  0  0
   -2.6840   22.5960  -30.5150 C   0  0  0  0  0  0  0  0  0  0  0  0
   -3.0500   21.1120  -30.2890 C   0  0  0  0  0  0  0  0  0  0  0  0
   -2.3520   20.5260  -29.0570 C   0  0  0  0  0  0  0  0  0  0  0  0
   -2.7380   21.2850  -27.7730 C   0  0  0  0  0  0  0  0  0  0  0  0
   -2.9960   22.7900  -28.0010 C   0  0  0  0  0  0  0  0  0  0  0  0
   -8.3460   20.6250  -32.0750 C   0  0  0  0  0  0  0  0  0  0  0  0
   -9.6810   21.2820  -31.9490 C   0  0  0  0  0  0  0  0  0  0  0  0
   -8.1260   19.5310  -32.7600 O   0  0  0  0  0  0  0  0  0  0  0  0
   -3.4727   19.8399  -32.3547 H   0  0  0  0  0  0  0  0  0  0  0  0
   -2.3766   19.3017  -33.6722 H   0  0  0  0  0  0  0  0  0  0  0  0
   -3.0262   20.9764  -33.6722 H   0  0  0  0  0  0  0  0  0  0  0  0
   -3.4718   17.1651  -35.2129 H   0  0  0  0  0  0  0  0  0  0  0  0
   -4.5888   14.9514  -34.9947 H   0  0  0  0  0  0  0  0  0  0  0  0
   -6.7305   14.7458  -33.7398 H   0  0  0  0  0  0  0  0  0  0  0  0
   -7.7524   16.7502  -32.6725 H   0  0  0  0  0  0  0  0  0  0  0  0
   -7.8057   22.6503  -30.3240 H   0  0  0  0  0  0  0  0  0  0  0  0
   -6.1319   22.0605  -29.9870 H   0  0  0  0  0  0  0  0  0  0  0  0
   -5.6755   25.8938  -31.5804 H   0  0  0  0  0  0  0  0  0  0  0  0
   -6.8938   25.3285  -30.3686 H   0  0  0  0  0  0  0  0  0  0  0  0
   -1.4698   25.2812  -29.7576 H   0  0  0  0  0  0  0  0  0  0  0  0
   -2.5885   25.2675  -28.3453 H   0  0  0  0  0  0  0  0  0  0  0  0
   -1.1569   23.1156  -29.0840 H   0  0  0  0  0  0  0  0  0  0  0  0
   -3.5674   23.1157  -30.9143 H   0  0  0  0  0  0  0  0  0  0  0  0
   -1.8359   22.6174  -31.2152 H   0  0  0  0  0  0  0  0  0  0  0  0
   -4.1384   21.0324  -30.1511 H   0  0  0  0  0  0  0  0  0  0  0  0
   -2.7159   20.5434  -31.1694 H   0  0  0  0  0  0  0  0  0  0  0  0
   -2.6436   19.4708  -28.9495 H   0  0  0  0  0  0  0  0  0  0  0  0
   -1.2653   20.6203  -29.1994 H   0  0  0  0  0  0  0  0  0  0  0  0
   -3.6533   20.8330  -27.3633 H   0  0  0  0  0  0  0  0  0  0  0  0
   -1.8867   21.2039  -27.0811 H   0  0  0  0  0  0  0  0  0  0  0  0
   -4.0730   22.9461  -28.1615 H   0  0  0  0  0  0  0  0  0  0  0  0
   -2.6450   23.3350  -27.1123 H   0  0  0  0  0  0  0  0  0  0  0  0
   -9.9303   21.4047  -30.8847 H   0  0  0  0  0  0  0  0  0  0  0  0
   -9.6515   22.2685  -32.4348 H   0  0  0  0  0  0  0  0  0  0  0  0
  -10.4447   20.6568  -32.4348 H   0  0  0  0  0  0  0  0  0  0  0  0
  1  2  1  0
  2  3  1  0
  3  4  2  0
  4  5  1  0
  5  6  2  0
  6  7  1  0
  7  8  2  0
  8  9  1  0
  9 10  2  0
 10 11  1  0
 11 12  1  0
 12 13  1  0
 13 14  2  0
 13 15  2  0
 13 16  1  0
 16 17  1  0
 17 18  2  0
 17 19  1  0
 19 20  1  0
 20 21  1  0
 21 22  1  0
 22 23  1  0
 23 24  1  0
 24 25  1  0
 25 26  1  0
 11 27  2  0
 27 28  1  0
 27 29  1  0
  8  3  1  0
 29  9  1  0
 26 21  1  0
  1 30  1  0
  1 31  1  0
  1 32  1  0
  4 33  1  0
  5 34  1  0
  6 35  1  0
  7 36  1  0
 12 37  1  0
 12 38  1  0
 16 39  1  0
 16 40  1  0
 20 41  1  0
 20 42  1  0
 21 43  1  0
 22 44  1  0
 22 45  1  0
 23 46  1  0
 23 47  1  0
 24 48  1  0
 24 49  1  0
 25 50  1  0
 25 51  1  0
 26 52  1  0
 26 53  1  0
 28 54  1  0
 28 55  1  0
 28 56  1  0
M  CHG  1  19  -1
M  END
>  <UniqueID>  (17) 
14

>  <SMILES>  (17) 
COc1ccccc1-c1nc(CS(=O)(=O)CC(=O)[N-]CC2CCCCC2)c(C)o1

>  <Energy>  (17) 
74.41406742352683

>  <Genealogy>  (17) 
COc1ccccc1-c1nc(CS(=O)(=O)CC(=O)[N-]CC2CCCCC2)c(C)o1 (protonated)
COc1ccccc1-c1nc(CS(=O)(=O)CC(=O)[N-]CC2CCCCC2)c(C)o1 (3D coordinates assigned)
COc1ccccc1-c1nc(CS(=O)(=O)CC(=O)[N-]CC2CCCCC2)c(C)o1 (nonaromatic ring conformer: 74.41406742352683 kcal/mol)

>  <smiles>  (17) 
COc1ccccc1-c1nc(CS(=O)(=O)CC(=O)NCC2CCCCC2)c(C)o1

>  <score_type>  (17) 
oracle

>  <origin>  (17) 
adg

>  <m_score__min__energy>  (17) 
-11.26

>  <m_primary>  (17) 
energy

$$$$
17:0
     RDKit          3D

 37 39  0  0  0  0  0  0  0  0999 V2000
   -6.4640   14.6110  -34.2140 C   0  0  0  0  0  0  0  0  0  0  0  0
   -7.1610   15.8510  -34.1670 O   0  0  0  0  0  0  0  0  0  0  0  0
   -6.6100   17.0520  -33.6980 C   0  0  0  0  0  0  0  0  0  0  0  0
   -7.2100   17.8100  -32.6760 C   0  0  0  0  0  0  0  0  0  0  0  0
   -6.6220   19.0020  -32.2430 C   0  0  0  0  0  0  0  0  0  0  0  0
   -5.4260   19.4610  -32.8200 C   0  0  0  0  0  0  0  0  0  0  0  0
   -4.8170   20.7280  -32.3470 C   0  0  0  0  0  0  0  0  0  0  0  0
   -4.4670   20.9660  -31.0660 N   0  0  0  0  0  0  0  0  0  0  0  0
   -3.9710   22.1940  -31.0870 N   0  0  0  0  0  0  0  0  0  0  0  0
   -3.4090   22.8710  -29.9260 C   0  0  0  0  0  0  0  0  0  0  0  0
   -3.5480   24.3610  -30.0770 C   0  0  0  0  0  0  0  0  0  0  0  0
   -4.3770   24.8200  -30.9050 O   0  0  0  0  0  0  0  0  0  0  0  0
   -2.7350   25.2780  -29.3330 N   0  0  0  0  0  0  0  0  0  0  0  0
   -1.5390   24.9620  -28.6050 C   0  0  0  0  0  0  0  0  0  0  0  0
   -1.4550   25.3000  -27.2500 C   0  0  0  0  0  0  0  0  0  0  0  0
   -0.3120   24.9760  -26.5180 C   0  0  0  0  0  0  0  0  0  0  0  0
    0.7320   24.2930  -27.1460 C   0  0  0  0  0  0  0  0  0  0  0  0
    0.6240   23.9430  -28.4550 N   0  0  0  0  0  0  0  0  0  0  0  0
   -0.4770   24.2530  -29.1910 C   0  0  0  0  0  0  0  0  0  0  0  0
   -3.9910   22.6980  -32.3100 N   0  0  0  0  0  0  0  0  0  0  0  0
   -4.5230   21.7980  -33.1160 N   0  0  0  0  0  0  0  0  0  0  0  0
   -4.8300   18.7000  -33.8420 C   0  0  0  0  0  0  0  0  0  0  0  0
   -5.4200   17.5080  -34.2740 C   0  0  0  0  0  0  0  0  0  0  0  0
   -6.2677   14.2617  -33.1896 H   0  0  0  0  0  0  0  0  0  0  0  0
   -7.0758   13.8664  -34.7444 H   0  0  0  0  0  0  0  0  0  0  0  0
   -5.5099   14.7466  -34.7444 H   0  0  0  0  0  0  0  0  0  0  0  0
   -8.1466   17.4629  -32.2153 H   0  0  0  0  0  0  0  0  0  0  0  0
   -7.1002   19.5862  -31.4430 H   0  0  0  0  0  0  0  0  0  0  0  0
   -3.9438   22.5458  -29.0214 H   0  0  0  0  0  0  0  0  0  0  0  0
   -2.3421   22.6162  -29.8430 H   0  0  0  0  0  0  0  0  0  0  0  0
   -2.2909   25.8217  -26.7611 H   0  0  0  0  0  0  0  0  0  0  0  0
   -0.2340   25.2557  -25.4570 H   0  0  0  0  0  0  0  0  0  0  0  0
    1.6412   24.0385  -26.5816 H   0  0  0  0  0  0  0  0  0  0  0  0
   -0.5360   23.9482  -30.2463 H   0  0  0  0  0  0  0  0  0  0  0  0
   -4.6620   21.9300  -34.1410 H   0  0  0  0  0  0  0  0  0  0  0  0
   -3.8935   19.0449  -34.3045 H   0  0  0  0  0  0  0  0  0  0  0  0
   -4.9434   16.9233  -35.0747 H   0  0  0  0  0  0  0  0  0  0  0  0
  1  2  1  0
  2  3  1  0
  3  4  2  0
  4  5  1  0
  5  6  2  0
  6  7  1  0
  7  8  2  0
  8  9  1  0
  9 10  1  0
 10 11  1  0
 11 12  2  0
 11 13  1  0
 13 14  1  0
 14 15  2  0
 15 16  1  0
 16 17  2  0
 17 18  1  0
 18 19  2  0
  9 20  1  0
 20 21  2  0
  6 22  1  0
 22 23  2  0
 23  3  1  0
 21  7  1  0
 19 14  1  0
  1 24  1  0
  1 25  1  0
  1 26  1  0
  4 27  1  0
  5 28  1  0
 10 29  1  0
 10 30  1  0
 15 31  1  0
 16 32  1  0
 17 33  1  0
 19 34  1  0
 21 35  1  0
 22 36  1  0
 23 37  1  0
M  CHG  2  13  -1  21   1
M  END
>  <UniqueID>  (18) 
15

>  <SMILES>  (18) 
COc1ccc(-c2nn(CC(=O)[N-]c3cccnc3)n[nH+]2)cc1

>  <Energy>  (18) 
83.83997003559445

>  <Genealogy>  (18) 
COc1ccc(-c2nn(CC(=O)[N-]c3cccnc3)n[nH+]2)cc1 (protonated)
COc1ccc(-c2nn(CC(=O)[N-]c3cccnc3)n[nH+]2)cc1 (3D coordinates assigned)
COc1ccc(-c2nn(CC(=O)[N-]c3cccnc3)n[nH+]2)cc1 (optimized conformer: 83.83997003559445 kcal/mol)

>  <smiles>  (18) 
COc1ccc(-c2nnn(CC(=O)Nc3cccnc3)n2)cc1

>  <score_type>  (18) 
oracle

>  <origin>  (18) 
adg

>  <m_score__min__energy>  (18) 
-9.0600000000000005

>  <m_primary>  (18) 
energy

$$$$
18:0
     RDKit          3D

 21 22  0  0  0  0  0  0  0  0999 V2000
   -6.8520   18.1820  -33.0880 C   0  0  0  0  0  0  0  0  0  0  0  0
   -6.5050   19.5000  -33.5000 O   0  0  0  0  0  0  0  0  0  0  0  0
   -6.7200   20.6560  -32.7310 C   0  0  0  0  0  0  0  0  0  0  0  0
   -7.9910   20.9880  -32.2220 C   0  0  0  0  0  0  0  0  0  0  0  0
   -8.1710   22.1460  -31.4600 C   0  0  0  0  0  0  0  0  0  0  0  0
   -7.0830   22.9870  -31.1970 C   0  0  0  0  0  0  0  0  0  0  0  0
   -7.2280   24.1520  -30.4380 C   0  0  0  0  0  0  0  0  0  0  0  0
   -6.1160   24.9590  -30.2020 C   0  0  0  0  0  0  0  0  0  0  0  0
   -4.8790   24.5800  -30.7330 C   0  0  0  0  0  0  0  0  0  0  0  0
   -3.8630   25.2930  -30.5320 O   0  0  0  0  0  0  0  0  0  0  0  0
   -4.7690   23.4640  -31.4510 O   0  0  0  0  0  0  0  0  0  0  0  0
   -5.8030   22.6640  -31.7010 C   0  0  0  0  0  0  0  0  0  0  0  0
   -5.6290   21.5010  -32.4670 C   0  0  0  0  0  0  0  0  0  0  0  0
   -4.0350   21.0990  -33.0960 Cl  0  0  0  0  0  0  0  0  0  0  0  0
   -6.8650   18.1328  -31.9892 H   0  0  0  0  0  0  0  0  0  0  0  0
   -7.8481   17.9261  -33.4783 H   0  0  0  0  0  0  0  0  0  0  0  0
   -6.1110   17.4688  -33.4783 H   0  0  0  0  0  0  0  0  0  0  0  0
   -8.8489   20.3305  -32.4259 H   0  0  0  0  0  0  0  0  0  0  0  0
   -9.1674   22.3965  -31.0670 H   0  0  0  0  0  0  0  0  0  0  0  0
   -8.2113   24.4296  -30.0304 H   0  0  0  0  0  0  0  0  0  0  0  0
   -6.2101   25.8796  -29.6073 H   0  0  0  0  0  0  0  0  0  0  0  0
  1  2  1  0
  2  3  1  0
  3  4  2  0
  4  5  1  0
  5  6  2  0
  6  7  1  0
  7  8  2  0
  8  9  1  0
  9 10  2  0
  9 11  1  0
 11 12  1  0
 12 13  2  0
 13 14  1  0
 13  3  1  0
 12  6  1  0
  1 15  1  0
  1 16  1  0
  1 17  1  0
  4 18  1  0
  5 19  1  0
  7 20  1  0
  8 21  1  0
M  END
>  <UniqueID>  (19) 
16

>  <SMILES>  (19) 
COc1ccc2ccc(=O)oc2c1Cl

>  <Energy>  (19) 
25.83285047258028

>  <Genealogy>  (19) 
COc1ccc2ccc(=O)oc2c1Cl (3D coordinates assigned)
COc1ccc2ccc(=O)oc2c1Cl (optimized conformer: 25.83285047258028 kcal/mol)

>  <smiles>  (19) 
COc1ccc2ccc(=O)oc2c1Cl

>  <score_type>  (19) 
oracle

>  <origin>  (19) 
adg

>  <m_score__min__energy>  (19) 
-6.6600000000000001

>  <m_primary>  (19) 
energy

$$$$
19:0
     RDKit          3D

 51 54  0  0  0  0  0  0  0  0999 V2000
   -5.3610   14.8820  -34.0390 C   0  0  0  0  0  0  0  0  0  0  0  0
   -5.5670   16.3020  -33.6160 C   0  0  0  0  0  0  0  0  0  0  0  0
   -6.8500   16.7860  -33.3590 C   0  0  0  0  0  0  0  0  0  0  0  0
   -7.0420   18.1240  -32.9790 C   0  0  0  0  0  0  0  0  0  0  0  0
   -8.4630   18.5680  -32.7160 C   0  0  0  0  0  0  0  0  0  0  0  0
   -5.9060   18.9880  -32.8630 C   0  0  0  0  0  0  0  0  0  0  0  0
   -4.6330   18.4360  -33.1470 C   0  0  0  0  0  0  0  0  0  0  0  0
   -3.4900   19.2210  -33.0590 C   0  0  0  0  0  0  0  0  0  0  0  0
   -3.5930   20.5540  -32.6900 C   0  0  0  0  0  0  0  0  0  0  0  0
   -4.8090   21.1190  -32.4060 N   0  0  0  0  0  0  0  0  0  0  0  0
   -4.8790   22.4440  -32.0430 C   0  0  0  0  0  0  0  0  0  0  0  0
   -3.8260   23.1390  -31.9690 O   0  0  0  0  0  0  0  0  0  0  0  0
   -6.1190   23.0460  -31.7480 C   0  0  0  0  0  0  0  0  0  0  0  0
   -6.2000   24.5180  -31.3870 C   0  0  0  0  0  0  0  0  0  0  0  0
   -5.7480   24.7510  -29.9750 C   0  0  0  0  0  0  0  0  0  0  0  0
   -6.2810   25.6690  -29.2950 O   0  0  0  0  0  0  0  0  0  0  0  0
   -4.7260   23.9290  -29.3970 N   0  0  0  0  0  0  0  0  0  0  0  0
   -4.2160   24.1790  -28.0490 C   0  0  0  0  0  0  0  0  0  0  0  0
   -2.7080   24.1250  -28.0350 C   0  0  0  0  0  0  0  0  0  0  0  0
   -1.9790   25.2920  -27.7430 C   0  0  0  0  0  0  0  0  0  0  0  0
   -0.5810   25.2750  -27.7540 C   0  0  0  0  0  0  0  0  0  0  0  0
    0.1010   24.0980  -28.0660 C   0  0  0  0  0  0  0  0  0  0  0  0
   -0.6110   22.9370  -28.3750 C   0  0  0  0  0  0  0  0  0  0  0  0
   -2.0110   22.9440  -28.3680 C   0  0  0  0  0  0  0  0  0  0  0  0
   -2.8580   21.4590  -28.7940 Cl  0  0  0  0  0  0  0  0  0  0  0  0
   -7.2720   22.2470  -31.8410 C   0  0  0  0  0  0  0  0  0  0  0  0
   -8.6460   22.7770  -31.5500 C   0  0  0  0  0  0  0  0  0  0  0  0
   -7.1530   20.9480  -32.2010 N   0  0  0  0  0  0  0  0  0  0  0  0
   -5.9630   20.3640  -32.4860 C   0  0  0  0  0  0  0  0  0  0  0  0
   -4.5030   17.1340  -33.5100 N   0  0  0  0  0  0  0  0  0  0  0  0
   -5.2684   14.2437  -33.1479 H   0  0  0  0  0  0  0  0  0  0  0  0
   -6.2204   14.5501  -34.6401 H   0  0  0  0  0  0  0  0  0  0  0  0
   -4.4427   14.8080  -34.6401 H   0  0  0  0  0  0  0  0  0  0  0  0
   -7.7166   16.1152  -33.4547 H   0  0  0  0  0  0  0  0  0  0  0  0
   -8.6354   18.6219  -31.6309 H   0  0  0  0  0  0  0  0  0  0  0  0
   -8.6259   19.5599  -33.1629 H   0  0  0  0  0  0  0  0  0  0  0  0
   -9.1616   17.8453  -33.1629 H   0  0  0  0  0  0  0  0  0  0  0  0
   -2.5046   18.7858  -33.2817 H   0  0  0  0  0  0  0  0  0  0  0  0
   -2.6830   21.1684  -32.6241 H   0  0  0  0  0  0  0  0  0  0  0  0
   -5.5565   25.0919  -32.0701 H   0  0  0  0  0  0  0  0  0  0  0  0
   -7.2465   24.8442  -31.4784 H   0  0  0  0  0  0  0  0  0  0  0  0
   -4.3350   23.1410  -29.9610 H   0  0  0  0  0  0  0  0  0  0  0  0
   -4.5455   25.1744  -27.7163 H   0  0  0  0  0  0  0  0  0  0  0  0
   -4.6056   23.4042  -27.3723 H   0  0  0  0  0  0  0  0  0  0  0  0
   -2.5123   26.2241  -27.5044 H   0  0  0  0  0  0  0  0  0  0  0  0
   -0.0183   26.1899  -27.5166 H   0  0  0  0  0  0  0  0  0  0  0  0
    1.2009   24.0848  -28.0685 H   0  0  0  0  0  0  0  0  0  0  0  0
   -0.0694   22.0128  -28.6250 H   0  0  0  0  0  0  0  0  0  0  0  0
   -8.7940   22.8341  -30.4615 H   0  0  0  0  0  0  0  0  0  0  0  0
   -8.7522   23.7806  -31.9876 H   0  0  0  0  0  0  0  0  0  0  0  0
   -9.3986   22.1047  -31.9876 H   0  0  0  0  0  0  0  0  0  0  0  0
  1  2  1  0
  2  3  2  0
  3  4  1  0
  4  5  1  0
  4  6  2  0
  6  7  1  0
  7  8  1  0
  8  9  2  0
  9 10  1  0
 10 11  1  0
 11 12  2  0
 11 13  1  0
 13 14  1  0
 14 15  1  0
 15 16  2  0
 15 17  1  0
 17 18  1  0
 18 19  1  0
 19 20  2  0
 20 21  1  0
 21 22  2  0
 22 23  1  0
 23 24  2  0
 24 25  1  0
 13 26  2  0
 26 27  1  0
 26 28  1  0
 28 29  2  0
  7 30  2  0
 30  2  1  0
 29  6  1  0
 29 10  1  0
 24 19  1  0
  1 31  1  0
  1 32  1  0
  1 33  1  0
  3 34  1  0
  5 35  1  0
  5 36  1  0
  5 37  1  0
  8 38  1  0
  9 39  1  0
 14 40  1  0
 14 41  1  0
 17 42  1  0
 18 43  1  0
 18 44  1  0
 20 45  1  0
 21 46  1  0
 22 47  1  0
 23 48  1  0
 27 49  1  0
 27 50  1  0
 27 51  1  0
M  END
>  <UniqueID>  (20) 
17

>  <SMILES>  (20) 
Cc1cc(C)c2c(ccn3c(=O)c(CC(=O)NCc4ccccc4Cl)c(C)nc23)n1

>  <Energy>  (20) 
67.32379876114831

>  <Genealogy>  (20) 
Cc1cc(C)c2c(ccn3c(=O)c(CC(=O)NCc4ccccc4Cl)c(C)nc23)n1 (3D coordinates assigned)
Cc1cc(C)c2c(ccn3c(=O)c(CC(=O)NCc4ccccc4Cl)c(C)nc23)n1 (optimized conformer: 67.32379876114831 kcal/mol)

>  <smiles>  (20) 
Cc1cc(C)c2c(ccn3c(=O)c(CC(=O)NCc4ccccc4Cl)c(C)nc23)n1

>  <score_type>  (20) 
oracle

>  <origin>  (20) 
adg

>  <m_score__min__energy>  (20) 
-11.07

>  <m_primary>  (20) 
energy

$$$$
20:0
     RDKit          3D

 46 48  0  0  0  0  0  0  0  0999 V2000
   -5.2670   25.5690  -30.5130 C   0  0  0  0  0  0  0  0  0  0  0  0
   -3.8680   25.2970  -30.4730 O   0  0  0  0  0  0  0  0  0  0  0  0
   -3.2920   24.2040  -29.8060 C   0  0  0  0  0  0  0  0  0  0  0  0
   -2.1410   24.3320  -29.0010 C   0  0  0  0  0  0  0  0  0  0  0  0
   -1.6080   23.2120  -28.3570 C   0  0  0  0  0  0  0  0  0  0  0  0
   -2.2130   21.9580  -28.5060 C   0  0  0  0  0  0  0  0  0  0  0  0
   -1.5280   20.5300  -27.6540 S   0  0  0  0  0  0  0  0  0  0  0  0
   -0.0680   20.3700  -28.7420 C   0  0  0  0  0  0  0  0  0  0  0  0
   -0.4540   19.9910  -30.1410 C   0  0  0  0  0  0  0  0  0  0  0  0
   -0.7110   18.7850  -30.4060 O   0  0  0  0  0  0  0  0  0  0  0  0
   -0.5050   20.9860  -31.1750 N   0  0  0  0  0  0  0  0  0  0  0  0
   -0.8490   20.6620  -32.5590 C   0  0  0  0  0  0  0  0  0  0  0  0
   -1.9640   21.5790  -33.0670 C   0  0  0  0  0  0  0  0  0  0  0  0
   -3.2590   20.8370  -33.1520 C   0  0  0  0  0  0  0  0  0  0  0  0
   -4.4380   21.3500  -32.7380 N   0  0  0  0  0  0  0  0  0  0  0  0
   -5.4660   20.4660  -32.8810 C   0  0  0  0  0  0  0  0  0  0  0  0
   -6.8530   20.8250  -32.4860 C   0  0  0  0  0  0  0  0  0  0  0  0
   -7.1240   22.1100  -31.9720 C   0  0  0  0  0  0  0  0  0  0  0  0
   -8.4250   22.4650  -31.5990 C   0  0  0  0  0  0  0  0  0  0  0  0
   -9.4690   21.5490  -31.7390 C   0  0  0  0  0  0  0  0  0  0  0  0
   -9.2160   20.2760  -32.2540 C   0  0  0  0  0  0  0  0  0  0  0  0
   -7.9180   19.9140  -32.6270 C   0  0  0  0  0  0  0  0  0  0  0  0
   -5.0910   19.2250  -33.4090 C   0  0  0  0  0  0  0  0  0  0  0  0
   -3.4340   19.2570  -33.6930 S   0  0  0  0  0  0  0  0  0  0  0  0
   -3.3620   21.8280  -29.2940 C   0  0  0  0  0  0  0  0  0  0  0  0
   -3.8940   22.9460  -29.9460 C   0  0  0  0  0  0  0  0  0  0  0  0
   -5.6553   25.6445  -29.4866 H   0  0  0  0  0  0  0  0  0  0  0  0
   -5.4411   26.5178  -31.0416 H   0  0  0  0  0  0  0  0  0  0  0  0
   -5.7839   24.7545  -31.0416 H   0  0  0  0  0  0  0  0  0  0  0  0
   -1.6621   25.3148  -28.8799 H   0  0  0  0  0  0  0  0  0  0  0  0
   -0.7097   23.3160  -27.7306 H   0  0  0  0  0  0  0  0  0  0  0  0
    0.4638   21.3325  -28.7679 H   0  0  0  0  0  0  0  0  0  0  0  0
    0.5742   19.5739  -28.3372 H   0  0  0  0  0  0  0  0  0  0  0  0
   -0.2190   21.9660  -30.9490 H   0  0  0  0  0  0  0  0  0  0  0  0
    0.0412   20.7907  -33.1922 H   0  0  0  0  0  0  0  0  0  0  0  0
   -1.2000   19.6204  -32.6021 H   0  0  0  0  0  0  0  0  0  0  0  0
   -2.0780   22.4267  -32.3753 H   0  0  0  0  0  0  0  0  0  0  0  0
   -1.6960   21.9399  -34.0710 H   0  0  0  0  0  0  0  0  0  0  0  0
   -6.3068   22.8383  -31.8636 H   0  0  0  0  0  0  0  0  0  0  0  0
   -8.6256   23.4681  -31.1946 H   0  0  0  0  0  0  0  0  0  0  0  0
  -10.4907   21.8299  -31.4437 H   0  0  0  0  0  0  0  0  0  0  0  0
  -10.0400   19.5561  -32.3666 H   0  0  0  0  0  0  0  0  0  0  0  0
   -7.7270   18.9100  -33.0337 H   0  0  0  0  0  0  0  0  0  0  0  0
   -5.7633   18.3765  -33.6042 H   0  0  0  0  0  0  0  0  0  0  0  0
   -3.8472   20.8466  -29.4010 H   0  0  0  0  0  0  0  0  0  0  0  0
   -4.7912   22.8368  -30.5730 H   0  0  0  0  0  0  0  0  0  0  0  0
  1  2  1  0
  2  3  1  0
  3  4  2  0
  4  5  1  0
  5  6  2  0
  6  7  1  0
  7  8  1  0
  8  9  1  0
  9 10  2  0
  9 11  1  0
 11 12  1  0
 12 13  1  0
 13 14  1  0
 14 15  2  0
 15 16  1  0
 16 17  1  0
 17 18  2  0
 18 19  1  0
 19 20  2  0
 20 21  1  0
 21 22  2  0
 16 23  2  0
 23 24  1  0
  6 25  1  0
 25 26  2  0
 26  3  1  0
 24 14  1  0
 22 17  1  0
  1 27  1  0
  1 28  1  0
  1 29  1  0
  4 30  1  0
  5 31  1  0
  8 32  1  0
  8 33  1  0
 11 34  1  0
 12 35  1  0
 12 36  1  0
 13 37  1  0
 13 38  1  0
 18 39  1  0
 19 40  1  0
 20 41  1  0
 21 42  1  0
 22 43  1  0
 23 44  1  0
 25 45  1  0
 26 46  1  0
M  END
>  <UniqueID>  (21) 
18

>  <SMILES>  (21) 
COc1ccc(SCC(=O)NCCc2nc(-c3ccccc3)cs2)cc1

>  <Energy>  (21) 
67.54031970653749

>  <Genealogy>  (21) 
COc1ccc(SCC(=O)NCCc2nc(-c3ccccc3)cs2)cc1 (3D coordinates assigned)
COc1ccc(SCC(=O)NCCc2nc(-c3ccccc3)cs2)cc1 (optimized conformer: 67.54031970653749 kcal/mol)

>  <smiles>  (21) 
COc1ccc(SCC(=O)NCCc2nc(-c3ccccc3)cs2)cc1

>  <score_type>  (21) 
oracle

>  <origin>  (21) 
adg

>  <m_score__min__energy>  (21) 
-8.9800000000000004

>  <m_primary>  (21) 
energy

$$$$
21:0
     RDKit          3D

 34 35  0  0  0  0  0  0  0  0999 V2000
   -4.2280   25.2600  -30.8340 N   0  0  0  0  0  0  0  0  0  0  0  0
   -5.4520   25.6660  -30.1530 C   0  0  0  0  0  0  0  0  0  0  0  0
   -6.5210   24.5850  -30.3000 C   0  0  0  0  0  0  0  0  0  0  0  0
   -6.4000   23.7800  -31.9420 S   0  0  0  0  0  0  0  0  0  0  0  0
   -6.0060   22.0520  -31.4210 C   0  0  0  0  0  0  0  0  0  0  0  0
   -7.0970   21.0800  -31.8390 C   0  0  0  0  0  0  0  0  0  0  0  0
   -6.7560   19.7410  -32.1000 C   0  0  0  0  0  0  0  0  0  0  0  0
   -7.7400   18.8110  -32.4490 C   0  0  0  0  0  0  0  0  0  0  0  0
   -9.0770   19.2060  -32.5340 C   0  0  0  0  0  0  0  0  0  0  0  0
   -9.4320   20.5300  -32.2710 C   0  0  0  0  0  0  0  0  0  0  0  0
   -8.4520   21.4630  -31.9240 C   0  0  0  0  0  0  0  0  0  0  0  0
   -4.5960   21.5700  -31.7510 C   0  0  0  0  0  0  0  0  0  0  0  0
   -3.6820   21.1230  -30.7740 C   0  0  0  0  0  0  0  0  0  0  0  0
   -2.4020   20.6950  -31.1410 C   0  0  0  0  0  0  0  0  0  0  0  0
   -2.0180   20.7010  -32.4830 C   0  0  0  0  0  0  0  0  0  0  0  0
   -2.9150   21.1300  -33.4630 C   0  0  0  0  0  0  0  0  0  0  0  0
   -4.1950   21.5570  -33.1010 C   0  0  0  0  0  0  0  0  0  0  0  0
   -4.2570   24.2210  -30.9650 H   0  0  0  0  0  0  0  0  0  0  0  0
   -4.2420   25.6780  -31.7920 H   0  0  0  0  0  0  0  0  0  0  0  0
   -5.2387   25.8233  -29.0854 H   0  0  0  0  0  0  0  0  0  0  0  0
   -5.8209   26.5991  -30.6038 H   0  0  0  0  0  0  0  0  0  0  0  0
   -6.3803   23.8278  -29.5146 H   0  0  0  0  0  0  0  0  0  0  0  0
   -7.5129   25.0509  -30.2049 H   0  0  0  0  0  0  0  0  0  0  0  0
   -5.9956   22.0804  -30.3214 H   0  0  0  0  0  0  0  0  0  0  0  0
   -5.7056   19.4223  -32.0290 H   0  0  0  0  0  0  0  0  0  0  0  0
   -7.4610   17.7675  -32.6568 H   0  0  0  0  0  0  0  0  0  0  0  0
   -9.8504   18.4735  -32.8083 H   0  0  0  0  0  0  0  0  0  0  0  0
  -10.4855   20.8393  -32.3371 H   0  0  0  0  0  0  0  0  0  0  0  0
   -8.7391   22.5042  -31.7155 H   0  0  0  0  0  0  0  0  0  0  0  0
   -3.9784   21.1109  -29.7147 H   0  0  0  0  0  0  0  0  0  0  0  0
   -1.6960   20.3527  -30.3700 H   0  0  0  0  0  0  0  0  0  0  0  0
   -1.0092   20.3679  -32.7682 H   0  0  0  0  0  0  0  0  0  0  0  0
   -2.6137   21.1318  -34.5209 H   0  0  0  0  0  0  0  0  0  0  0  0
   -4.8982   21.8871  -33.8799 H   0  0  0  0  0  0  0  0  0  0  0  0
  1  2  1  0
  2  3  1  0
  3  4  1  0
  4  5  1  0
  5  6  1  0
  6  7  2  0
  7  8  1  0
  8  9  2  0
  9 10  1  0
 10 11  2  0
  5 12  1  0
 12 13  2  0
 13 14  1  0
 14 15  2  0
 15 16  1  0
 16 17  2  0
 11  6  1  0
 17 12  1  0
  1 18  1  0
  1 19  1  0
  2 20  1  0
  2 21  1  0
  3 22  1  0
  3 23  1  0
  5 24  1  0
  7 25  1  0
  8 26  1  0
  9 27  1  0
 10 28  1  0
 11 29  1  0
 13 30  1  0
 14 31  1  0
 15 32  1  0
 16 33  1  0
 17 34  1  0
M  END
>  <UniqueID>  (22) 
19

>  <SMILES>  (22) 
NCCSC(c1ccccc1)c1ccccc1

>  <Energy>  (22) 
35.04965482781568

>  <Genealogy>  (22) 
NCCSC(c1ccccc1)c1ccccc1 (3D coordinates assigned)
NCCSC(c1ccccc1)c1ccccc1 (optimized conformer: 35.04965482781568 kcal/mol)

>  <smiles>  (22) 
NCCSC(c1ccccc1)c1ccccc1

>  <score_type>  (22) 
oracle

>  <origin>  (22) 
adg

>  <m_score__min__energy>  (22) 
-7.7599999999999998

>  <m_primary>  (22) 
energy

$$$$
22:0
     RDKit          3D

 35 35  0  0  0  0  0  0  0  0999 V2000
   -1.1480   26.0990  -27.6850 C   0  0  0  0  0  0  0  0  0  0  0  0
   -1.5960   25.6970  -28.9610 O   0  0  0  0  0  0  0  0  0  0  0  0
   -1.6240   24.2840  -29.0520 C   0  0  0  0  0  0  0  0  0  0  0  0
   -2.8150   23.8210  -29.8880 C   0  0  0  0  0  0  0  0  0  0  0  0
   -3.4970   24.9750  -30.4620 N   0  0  0  0  0  0  0  0  0  0  0  0
   -4.9060   25.2250  -30.3790 C   0  0  0  0  0  0  0  0  0  0  0  0
   -5.3200   26.4030  -30.5350 O   0  0  0  0  0  0  0  0  0  0  0  0
   -5.9060   24.1320  -30.1020 C   0  0  0  0  0  0  0  0  0  0  0  0
   -5.7960   22.9940  -31.1200 C   0  0  0  0  0  0  0  0  0  0  0  0
   -7.1570   23.0590  -32.3440 S   0  0  0  0  0  0  0  0  0  0  0  0
   -7.4570   21.2820  -32.3730 C   0  0  0  0  0  0  0  0  0  0  0  0
   -6.4990   20.4470  -32.9640 C   0  0  0  0  0  0  0  0  0  0  0  0
   -6.6910   19.0650  -32.9980 C   0  0  0  0  0  0  0  0  0  0  0  0
   -7.8450   18.5060  -32.4480 C   0  0  0  0  0  0  0  0  0  0  0  0
   -8.8140   19.3290  -31.8680 C   0  0  0  0  0  0  0  0  0  0  0  0
   -8.6370   20.7230  -31.8320 C   0  0  0  0  0  0  0  0  0  0  0  0
   -9.6900   21.5920  -31.2010 C   0  0  0  0  0  0  0  0  0  0  0  0
   -1.7297   25.5770  -26.9109 H   0  0  0  0  0  0  0  0  0  0  0  0
   -0.0827   25.8482  -27.5746 H   0  0  0  0  0  0  0  0  0  0  0  0
   -1.2823   27.1852  -27.5746 H   0  0  0  0  0  0  0  0  0  0  0  0
   -0.6939   23.9339  -29.5235 H   0  0  0  0  0  0  0  0  0  0  0  0
   -1.7189   23.8660  -28.0390 H   0  0  0  0  0  0  0  0  0  0  0  0
   -2.4598   23.1671  -30.6981 H   0  0  0  0  0  0  0  0  0  0  0  0
   -3.5161   23.2689  -29.2449 H   0  0  0  0  0  0  0  0  0  0  0  0
   -5.7237   23.7286  -29.0950 H   0  0  0  0  0  0  0  0  0  0  0  0
   -6.9153   24.5631  -30.1767 H   0  0  0  0  0  0  0  0  0  0  0  0
   -4.8350   23.0781  -31.6485 H   0  0  0  0  0  0  0  0  0  0  0  0
   -5.8617   22.0382  -30.5795 H   0  0  0  0  0  0  0  0  0  0  0  0
   -5.5901   20.8836  -33.4038 H   0  0  0  0  0  0  0  0  0  0  0  0
   -5.9318   18.4159  -33.4588 H   0  0  0  0  0  0  0  0  0  0  0  0
   -7.9922   17.4161  -32.4710 H   0  0  0  0  0  0  0  0  0  0  0  0
   -9.7220   18.8827  -31.4364 H   0  0  0  0  0  0  0  0  0  0  0  0
   -9.6111   21.5269  -30.1058 H   0  0  0  0  0  0  0  0  0  0  0  0
   -9.5428   22.6350  -31.5179 H   0  0  0  0  0  0  0  0  0  0  0  0
  -10.6862   21.2496  -31.5179 H   0  0  0  0  0  0  0  0  0  0  0  0
  1  2  1  0
  2  3  1  0
  3  4  1  0
  4  5  1  0
  5  6  1  0
  6  7  2  0
  6  8  1  0
  8  9  1  0
  9 10  1  0
 10 11  1  0
 11 12  2  0
 12 13  1  0
 13 14  2  0
 14 15  1  0
 15 16  2  0
 16 17  1  0
 16 11  1  0
  1 18  1  0
  1 19  1  0
  1 20  1  0
  3 21  1  0
  3 22  1  0
  4 23  1  0
  4 24  1  0
  8 25  1  0
  8 26  1  0
  9 27  1  0
  9 28  1  0
 12 29  1  0
 13 30  1  0
 14 31  1  0
 15 32  1  0
 17 33  1  0
 17 34  1  0
 17 35  1  0
M  CHG  1   5  -1
M  END
>  <UniqueID>  (23) 
20

>  <SMILES>  (23) 
COCC[N-]C(=O)CCSc1ccccc1C

>  <Energy>  (23) 
25.36386555560801

>  <Genealogy>  (23) 
COCC[N-]C(=O)CCSc1ccccc1C (protonated)
COCC[N-]C(=O)CCSc1ccccc1C (3D coordinates assigned)
COCC[N-]C(=O)CCSc1ccccc1C (optimized conformer: 25.36386555560801 kcal/mol)

>  <smiles>  (23) 
COCCNC(=O)CCSc1ccccc1C

>  <score_type>  (23) 
oracle

>  <origin>  (23) 
adg

>  <m_score__min__energy>  (23) 
-9.2599999999999998

>  <m_primary>  (23) 
energy

$$$$
23:0
     RDKit          3D

 47 49  0  0  0  0  0  0  0  0999 V2000
   -2.7770   21.5350  -32.6230 C   0  0  0  0  0  0  0  0  0  0  0  0
   -4.1610   20.9680  -32.7420 C   0  0  0  0  0  0  0  0  0  0  0  0
   -4.3710   19.7940  -33.4800 C   0  0  0  0  0  0  0  0  0  0  0  0
   -5.6540   19.2540  -33.5910 C   0  0  0  0  0  0  0  0  0  0  0  0
   -6.7340   19.8740  -32.9580 C   0  0  0  0  0  0  0  0  0  0  0  0
   -6.5350   21.0330  -32.1900 C   0  0  0  0  0  0  0  0  0  0  0  0
   -7.6500   21.6800  -31.5480 N   0  0  0  0  0  0  0  0  0  0  0  0
   -9.0120   21.2210  -31.8370 C   0  0  0  0  0  0  0  0  0  0  0  0
   -7.4610   22.7320  -30.5740 C   0  0  0  0  0  0  0  0  0  0  0  0
   -7.6110   22.4770  -29.3470 O   0  0  0  0  0  0  0  0  0  0  0  0
   -7.1810   24.1590  -30.9750 C   0  0  0  0  0  0  0  0  0  0  0  0
   -6.3970   24.9010  -29.8890 C   0  0  0  0  0  0  0  0  0  0  0  0
   -5.3790   24.0300  -29.3040 N   0  0  0  0  0  0  0  0  0  0  0  0
   -4.0040   24.0550  -29.7210 C   0  0  0  0  0  0  0  0  0  0  0  0
   -3.5990   24.9610  -30.4990 O   0  0  0  0  0  0  0  0  0  0  0  0
   -3.0650   23.0100  -29.2600 C   0  0  0  0  0  0  0  0  0  0  0  0
   -1.7360   22.9800  -29.7140 C   0  0  0  0  0  0  0  0  0  0  0  0
   -0.8850   21.9550  -29.2990 C   0  0  0  0  0  0  0  0  0  0  0  0
   -1.3590   20.9640  -28.4310 C   0  0  0  0  0  0  0  0  0  0  0  0
   -0.5360   19.9130  -28.0030 C   0  0  0  0  0  0  0  0  0  0  0  0
   -1.0430   18.9350  -27.1400 C   0  0  0  0  0  0  0  0  0  0  0  0
   -2.3690   19.0050  -26.6990 C   0  0  0  0  0  0  0  0  0  0  0  0
   -3.1950   20.0520  -27.1190 C   0  0  0  0  0  0  0  0  0  0  0  0
   -2.6980   21.0310  -27.9860 C   0  0  0  0  0  0  0  0  0  0  0  0
   -3.5040   22.0380  -28.4120 N   0  0  0  0  0  0  0  0  0  0  0  0
   -5.2450   21.5800  -32.0940 C   0  0  0  0  0  0  0  0  0  0  0  0
   -2.5149   21.6424  -31.5601 H   0  0  0  0  0  0  0  0  0  0  0  0
   -2.0602   20.8581  -33.1108 H   0  0  0  0  0  0  0  0  0  0  0  0
   -2.7412   22.5203  -33.1108 H   0  0  0  0  0  0  0  0  0  0  0  0
   -3.5224   19.2971  -33.9729 H   0  0  0  0  0  0  0  0  0  0  0  0
   -5.8147   18.3380  -34.1784 H   0  0  0  0  0  0  0  0  0  0  0  0
   -7.7448   19.4526  -33.0615 H   0  0  0  0  0  0  0  0  0  0  0  0
   -9.5464   21.0409  -30.8925 H   0  0  0  0  0  0  0  0  0  0  0  0
   -9.5426   21.9900  -32.4177 H   0  0  0  0  0  0  0  0  0  0  0  0
   -8.9690   20.2877  -32.4177 H   0  0  0  0  0  0  0  0  0  0  0  0
   -6.5934   24.1607  -31.9049 H   0  0  0  0  0  0  0  0  0  0  0  0
   -8.1427   24.6729  -31.1199 H   0  0  0  0  0  0  0  0  0  0  0  0
   -5.9084   25.7808  -30.3330 H   0  0  0  0  0  0  0  0  0  0  0  0
   -7.0948   25.2125  -29.0977 H   0  0  0  0  0  0  0  0  0  0  0  0
   -5.7090   23.2670  -28.6710 H   0  0  0  0  0  0  0  0  0  0  0  0
   -1.3674   23.7619  -30.3943 H   0  0  0  0  0  0  0  0  0  0  0  0
    0.1560   21.9256  -29.6531 H   0  0  0  0  0  0  0  0  0  0  0  0
    0.5079   19.8571  -28.3454 H   0  0  0  0  0  0  0  0  0  0  0  0
   -0.3973   18.1089  -26.8074 H   0  0  0  0  0  0  0  0  0  0  0  0
   -2.7627   18.2343  -26.0201 H   0  0  0  0  0  0  0  0  0  0  0  0
   -4.2360   20.1060  -26.7676 H   0  0  0  0  0  0  0  0  0  0  0  0
   -5.0830   22.4955  -31.5061 H   0  0  0  0  0  0  0  0  0  0  0  0
  1  2  1  0
  2  3  2  0
  3  4  1  0
  4  5  2  0
  5  6  1  0
  6  7  1  0
  7  8  1  0
  7  9  1  0
  9 10  2  0
  9 11  1  0
 11 12  1  0
 12 13  1  0
 13 14  1  0
 14 15  2  0
 14 16  1  0
 16 17  2  0
 17 18  1  0
 18 19  2  0
 19 20  1  0
 20 21  2  0
 21 22  1  0
 22 23  2  0
 23 24  1  0
 24 25  2  0
  6 26  2  0
 26  2  1  0
 25 16  1  0
 24 19  1  0
  1 27  1  0
  1 28  1  0
  1 29  1  0
  3 30  1  0
  4 31  1  0
  5 32  1  0
  8 33  1  0
  8 34  1  0
  8 35  1  0
 11 36  1  0
 11 37  1  0
 12 38  1  0
 12 39  1  0
 13 40  1  0
 17 41  1  0
 18 42  1  0
 20 43  1  0
 21 44  1  0
 22 45  1  0
 23 46  1  0
 26 47  1  0
M  END
>  <UniqueID>  (24) 
21

>  <SMILES>  (24) 
Cc1cccc(N(C)C(=O)CCNC(=O)c2ccc3ccccc3n2)c1

>  <Energy>  (24) 
48.73501259722625

>  <Genealogy>  (24) 
Cc1cccc(N(C)C(=O)CCNC(=O)c2ccc3ccccc3n2)c1 (3D coordinates assigned)
Cc1cccc(N(C)C(=O)CCNC(=O)c2ccc3ccccc3n2)c1 (optimized conformer: 48.73501259722625 kcal/mol)

>  <smiles>  (24) 
Cc1cccc(N(C)C(=O)CCNC(=O)c2ccc3ccccc3n2)c1

>  <score_type>  (24) 
oracle

>  <origin>  (24) 
adg

>  <m_score__min__energy>  (24) 
-9.6199999999999992

>  <m_primary>  (24) 
energy

$$$$
24:0
     RDKit          3D

 44 46  0  0  0  0  0  0  0  0999 V2000
   -3.3270   24.1370  -29.7370 C   0  0  0  0  0  0  0  0  0  0  0  0
   -4.2530   24.4660  -30.7690 O   0  0  0  0  0  0  0  0  0  0  0  0
   -5.4370   23.7600  -31.0250 C   0  0  0  0  0  0  0  0  0  0  0  0
   -5.7360   23.4200  -32.3500 C   0  0  0  0  0  0  0  0  0  0  0  0
   -6.9050   22.7190  -32.6570 C   0  0  0  0  0  0  0  0  0  0  0  0
   -7.7960   22.3450  -31.6390 C   0  0  0  0  0  0  0  0  0  0  0  0
   -9.0760   21.6300  -31.9780 C   0  0  0  0  0  0  0  0  0  0  0  0
   -8.9680   20.1070  -31.7800 C   0  0  0  0  0  0  0  0  0  0  0  0
   -8.6050   19.3850  -33.0220 N   0  0  0  0  0  0  0  0  0  0  0  0
   -7.6750   18.2590  -32.8030 C   0  0  0  0  0  0  0  0  0  0  0  0
   -6.2510   18.6140  -33.1660 C   0  0  0  0  0  0  0  0  0  0  0  0
   -5.5860   17.9200  -34.1930 C   0  0  0  0  0  0  0  0  0  0  0  0
   -4.2690   18.2510  -34.5320 C   0  0  0  0  0  0  0  0  0  0  0  0
   -3.6100   19.2720  -33.8450 C   0  0  0  0  0  0  0  0  0  0  0  0
   -4.2750   19.9850  -32.8370 C   0  0  0  0  0  0  0  0  0  0  0  0
   -5.5850   19.6480  -32.4870 C   0  0  0  0  0  0  0  0  0  0  0  0
   -3.6080   21.0320  -32.1940 O   0  0  0  0  0  0  0  0  0  0  0  0
   -2.3900   21.5650  -32.7180 C   0  0  0  0  0  0  0  0  0  0  0  0
   -1.5150   20.4370  -33.2800 C   0  0  0  0  0  0  0  0  0  0  0  0
   -2.2840   19.5990  -34.1460 O   0  0  0  0  0  0  0  0  0  0  0  0
   -7.5000   22.6840  -30.3090 C   0  0  0  0  0  0  0  0  0  0  0  0
   -6.3300   23.3850  -30.0020 C   0  0  0  0  0  0  0  0  0  0  0  0
   -3.7965   24.3038  -28.7563 H   0  0  0  0  0  0  0  0  0  0  0  0
   -3.0356   23.0803  -29.8291 H   0  0  0  0  0  0  0  0  0  0  0  0
   -2.4342   24.7729  -29.8291 H   0  0  0  0  0  0  0  0  0  0  0  0
   -5.0447   23.7072  -33.1560 H   0  0  0  0  0  0  0  0  0  0  0  0
   -7.1283   22.4588  -33.7022 H   0  0  0  0  0  0  0  0  0  0  0  0
   -9.8776   22.0144  -31.3302 H   0  0  0  0  0  0  0  0  0  0  0  0
   -9.2924   21.8155  -33.0404 H   0  0  0  0  0  0  0  0  0  0  0  0
   -8.1982   19.9062  -31.0203 H   0  0  0  0  0  0  0  0  0  0  0  0
   -9.9586   19.7452  -31.4672 H   0  0  0  0  0  0  0  0  0  0  0  0
   -9.4780   19.0190  -33.4690 H   0  0  0  0  0  0  0  0  0  0  0  0
   -8.1730   20.0420  -33.7130 H   0  0  0  0  0  0  0  0  0  0  0  0
   -7.7090   17.9732  -31.7413 H   0  0  0  0  0  0  0  0  0  0  0  0
   -7.9915   17.4292  -33.4520 H   0  0  0  0  0  0  0  0  0  0  0  0
   -6.1036   17.1131  -34.7324 H   0  0  0  0  0  0  0  0  0  0  0  0
   -3.7543   17.7077  -35.3381 H   0  0  0  0  0  0  0  0  0  0  0  0
   -6.0954   20.1928  -31.6791 H   0  0  0  0  0  0  0  0  0  0  0  0
   -2.6223   22.2792  -33.5218 H   0  0  0  0  0  0  0  0  0  0  0  0
   -1.8440   22.0731  -31.9095 H   0  0  0  0  0  0  0  0  0  0  0  0
   -0.6787   20.8736  -33.8457 H   0  0  0  0  0  0  0  0  0  0  0  0
   -1.1297   19.8326  -32.4456 H   0  0  0  0  0  0  0  0  0  0  0  0
   -8.1925   22.3964  -29.5042 H   0  0  0  0  0  0  0  0  0  0  0  0
   -6.1057   23.6449  -28.9569 H   0  0  0  0  0  0  0  0  0  0  0  0
  1  2  1  0
  2  3  1  0
  3  4  2  0
  4  5  1  0
  5  6  2  0
  6  7  1  0
  7  8  1  0
  8  9  1  0
  9 10  1  0
 10 11  1  0
 11 12  2  0
 12 13  1  0
 13 14  2  0
 14 15  1  0
 15 16  2  0
 15 17  1  0
 17 18  1  0
 18 19  1  0
 19 20  1  0
  6 21  1  0
 21 22  2  0
 22  3  1  0
 16 11  1  0
 20 14  1  0
  1 23  1  0
  1 24  1  0
  1 25  1  0
  4 26  1  0
  5 27  1  0
  7 28  1  0
  7 29  1  0
  8 30  1  0
  8 31  1  0
  9 32  1  0
  9 33  1  0
 10 34  1  0
 10 35  1  0
 12 36  1  0
 13 37  1  0
 16 38  1  0
 18 39  1  0
 18 40  1  0
 19 41  1  0
 19 42  1  0
 21 43  1  0
 22 44  1  0
M  CHG  1   9   1
M  END
>  <UniqueID>  (25) 
22

>  <SMILES>  (25) 
COc1ccc(CC[NH2+]Cc2ccc3c(c2)OCCO3)cc1

>  <Energy>  (25) 
44.95795539892849

>  <Genealogy>  (25) 
COc1ccc(CC[NH2+]Cc2ccc3c(c2)OCCO3)cc1 (protonated)
COc1ccc(CC[NH2+]Cc2ccc3c(c2)OCCO3)cc1 (3D coordinates assigned)
COc1ccc(CC[NH2+]Cc2ccc3c(c2)OCCO3)cc1 (nonaromatic ring conformer: 44.95795539892849 kcal/mol)

>  <smiles>  (25) 
COc1ccc(CCNCc2ccc3c(c2)OCCO3)cc1

>  <score_type>  (25) 
oracle

>  <origin>  (25) 
adg

>  <m_score__min__energy>  (25) 
-6.7999999999999998

>  <m_primary>  (25) 
energy

$$$$
25:0
     RDKit          3D

 41 43  0  0  0  0  0  0  0  0999 V2000
   -0.4960   30.0110  -25.6730 C   0  0  0  0  0  0  0  0  0  0  0  0
   -0.1360   29.2720  -24.4700 N   0  0  0  0  0  0  0  0  0  0  0  0
   -0.2550   27.8480  -24.3910 C   0  0  0  0  0  0  0  0  0  0  0  0
    0.2390   27.0440  -23.3840 C   0  0  0  0  0  0  0  0  0  0  0  0
   -0.0740   25.7690  -23.6810 N   0  0  0  0  0  0  0  0  0  0  0  0
   -0.7420   25.7450  -24.8270 N   0  0  0  0  0  0  0  0  0  0  0  0
   -1.2420   24.5330  -25.4880 C   0  0  2  0  0  0  0  0  0  0  0  0
   -0.0920   23.5490  -25.7690 C   0  0  0  0  0  0  0  0  0  0  0  0
   -0.5710   22.2560  -26.4670 C   0  0  0  0  0  0  0  0  0  0  0  0
   -1.9920   22.3590  -27.0440 C   0  0  0  0  0  0  0  0  0  0  0  0
   -2.2250   23.6910  -27.6140 N   0  0  0  0  0  0  0  0  0  0  0  0
   -2.4910   23.8320  -29.0220 C   0  0  0  0  0  0  0  0  0  0  0  0
   -1.5330   23.7980  -29.8400 O   0  0  0  0  0  0  0  0  0  0  0  0
   -3.8590   24.0420  -29.5330 C   0  0  0  0  0  0  0  0  0  0  0  0
   -4.9060   23.1700  -29.1940 C   0  0  0  0  0  0  0  0  0  0  0  0
   -6.1820   23.3940  -29.7150 C   0  0  0  0  0  0  0  0  0  0  0  0
   -6.4020   24.4710  -30.5750 C   0  0  0  0  0  0  0  0  0  0  0  0
   -5.3350   25.3070  -30.9090 C   0  0  0  0  0  0  0  0  0  0  0  0
   -4.0990   25.0740  -30.3900 N   0  0  0  0  0  0  0  0  0  0  0  0
   -1.9670   24.8900  -26.7990 C   0  0  0  0  0  0  0  0  0  0  0  0
   -0.8710   27.0030  -25.2940 C   0  0  0  0  0  0  0  0  0  0  0  0
   -0.9616   30.9668  -25.3906 H   0  0  0  0  0  0  0  0  0  0  0  0
    0.4083   30.2054  -26.2683 H   0  0  0  0  0  0  0  0  0  0  0  0
   -1.2065   29.4187  -26.2683 H   0  0  0  0  0  0  0  0  0  0  0  0
    0.2170   29.7980  -23.6390 H   0  0  0  0  0  0  0  0  0  0  0  0
    0.7910   27.3848  -22.4957 H   0  0  0  0  0  0  0  0  0  0  0  0
    0.1720   24.9320  -23.1080 H   0  0  0  0  0  0  0  0  0  0  0  0
   -1.9589   24.0472  -24.8097 H   0  0  0  0  0  0  0  0  0  0  0  0
    0.6460   24.0456  -26.4161 H   0  0  0  0  0  0  0  0  0  0  0  0
    0.3440   23.2621  -24.8007 H   0  0  0  0  0  0  0  0  0  0  0  0
    0.1227   22.0273  -27.2895 H   0  0  0  0  0  0  0  0  0  0  0  0
   -0.5893   21.4646  -25.7032 H   0  0  0  0  0  0  0  0  0  0  0  0
   -2.1175   21.6020  -27.8321 H   0  0  0  0  0  0  0  0  0  0  0  0
   -2.7160   22.1896  -26.2334 H   0  0  0  0  0  0  0  0  0  0  0  0
   -4.7226   22.3175  -28.5235 H   0  0  0  0  0  0  0  0  0  0  0  0
   -7.0119   22.7231  -29.4482 H   0  0  0  0  0  0  0  0  0  0  0  0
   -7.4052   24.6591  -30.9852 H   0  0  0  0  0  0  0  0  0  0  0  0
   -5.4936   26.1545  -31.5921 H   0  0  0  0  0  0  0  0  0  0  0  0
   -1.3412   25.5869  -27.3757 H   0  0  0  0  0  0  0  0  0  0  0  0
   -2.9331   25.3510  -26.5459 H   0  0  0  0  0  0  0  0  0  0  0  0
   -1.3751   27.3023  -26.2248 H   0  0  0  0  0  0  0  0  0  0  0  0
  1  2  1  0
  2  3  1  0
  3  4  1  0
  4  5  2  0
  5  6  1  0
  6  7  1  0
  7  8  1  0
  8  9  1  0
  9 10  1  0
 10 11  1  0
 11 12  1  0
 12 13  2  0
 12 14  1  0
 14 15  2  0
 15 16  1  0
 16 17  2  0
 17 18  1  0
 18 19  2  0
 11 20  1  0
  6 21  1  0
 21  3  2  0
 20  7  1  0
 19 14  1  0
  1 22  1  0
  1 23  1  0
  1 24  1  0
  2 25  1  0
  4 26  1  0
  5 27  1  0
  7 28  1  1
  8 29  1  0
  8 30  1  0
  9 31  1  0
  9 32  1  0
 10 33  1  0
 10 34  1  0
 15 35  1  0
 16 36  1  0
 17 37  1  0
 18 38  1  0
 20 39  1  0
 20 40  1  0
 21 41  1  0
M  CHG  1   5   1
M  END
>  <UniqueID>  (26) 
23

>  <SMILES>  (26) 
CNc1c[nH+]n([C@@H]2CCCN(C(=O)c3ccccn3)C2)c1

>  <Energy>  (26) 
77.82526169182911

>  <Genealogy>  (26) 
CNc1c[nH+]n(C2CCCN(C(=O)c3ccccn3)C2)c1 (protonated)
CNc1c[nH+]n([C@@H]2CCCN(C(=O)c3ccccn3)C2)c1 (chirality)
CNc1c[nH+]n([C@@H]2CCCN(C(=O)c3ccccn3)C2)c1 (3D coordinates assigned)
CNc1c[nH+]n([C@@H]2CCCN(C(=O)c3ccccn3)C2)c1 (nonaromatic ring conformer: 77.82526169182911 kcal/mol)

>  <smiles>  (26) 
CNc1cnn(C2CCCN(C(=O)c3ccccn3)C2)c1

>  <score_type>  (26) 
oracle

>  <origin>  (26) 
adg

>  <m_score__min__energy>  (26) 
-7.6299999999999999

>  <m_primary>  (26) 
energy

$$$$
26:0
     RDKit          3D

 30 32  0  0  0  0  0  0  0  0999 V2000
   -1.5970   25.3730  -29.3410 O   0  0  0  0  0  0  0  0  0  0  0  0
   -2.6980   24.7630  -29.3350 C   0  0  0  0  0  0  0  0  0  0  0  0
   -3.0270   23.9160  -28.2730 C   0  0  0  0  0  0  0  0  0  0  0  0
   -4.2490   23.2450  -28.2870 C   0  0  0  0  0  0  0  0  0  0  0  0
   -5.1340   23.4190  -29.3610 C   0  0  0  0  0  0  0  0  0  0  0  0
   -4.7740   24.2980  -30.4000 C   0  0  0  0  0  0  0  0  0  0  0  0
   -3.5680   24.9300  -30.3650 N   0  0  0  0  0  0  0  0  0  0  0  0
   -5.6600   24.4770  -31.5990 C   0  0  0  0  0  0  0  0  0  0  0  0
   -7.0590   24.1470  -31.2940 N   0  0  0  0  0  0  0  0  0  0  0  0
   -7.2060   22.8030  -30.7070 C   0  0  1  0  0  0  0  0  0  0  0  0
   -6.8480   21.6990  -31.7000 C   0  0  0  0  0  0  0  0  0  0  0  0
   -5.5470   21.5380  -32.2230 C   0  0  0  0  0  0  0  0  0  0  0  0
   -5.2780   20.5340  -33.1570 C   0  0  0  0  0  0  0  0  0  0  0  0
   -6.2980   19.6840  -33.5900 C   0  0  0  0  0  0  0  0  0  0  0  0
   -6.0330   18.7130  -34.4970 F   0  0  0  0  0  0  0  0  0  0  0  0
   -7.5920   19.8410  -33.0910 C   0  0  0  0  0  0  0  0  0  0  0  0
   -7.8680   20.8430  -32.1570 C   0  0  0  0  0  0  0  0  0  0  0  0
   -6.4700   22.7200  -29.3510 C   0  0  0  0  0  0  0  0  0  0  0  0
   -2.3285   23.7801  -27.4342 H   0  0  0  0  0  0  0  0  0  0  0  0
   -4.5193   22.5784  -27.4548 H   0  0  0  0  0  0  0  0  0  0  0  0
   -5.6047   25.5245  -31.9301 H   0  0  0  0  0  0  0  0  0  0  0  0
   -5.3108   23.7955  -32.3887 H   0  0  0  0  0  0  0  0  0  0  0  0
   -7.6100   24.1950  -32.1830 H   0  0  0  0  0  0  0  0  0  0  0  0
   -8.2683   22.6256  -30.4832 H   0  0  0  0  0  0  0  0  0  0  0  0
   -4.7391   22.2076  -31.8930 H   0  0  0  0  0  0  0  0  0  0  0  0
   -4.2588   20.4127  -33.5527 H   0  0  0  0  0  0  0  0  0  0  0  0
   -8.3968   19.1741  -33.4339 H   0  0  0  0  0  0  0  0  0  0  0  0
   -8.8924   20.9642  -31.7750 H   0  0  0  0  0  0  0  0  0  0  0  0
   -7.1025   23.1842  -28.5800 H   0  0  0  0  0  0  0  0  0  0  0  0
   -6.2827   21.6561  -29.1433 H   0  0  0  0  0  0  0  0  0  0  0  0
  1  2  2  0
  2  3  1  0
  3  4  2  0
  4  5  1  0
  5  6  2  0
  6  7  1  0
  6  8  1  0
  8  9  1  0
  9 10  1  0
 10 11  1  0
 11 12  2  0
 12 13  1  0
 13 14  2  0
 14 15  1  0
 14 16  1  0
 16 17  2  0
 10 18  1  0
  7  2  1  0
 17 11  1  0
 18  5  1  0
  3 19  1  0
  4 20  1  0
  8 21  1  0
  8 22  1  0
  9 23  1  0
 10 24  1  1
 12 25  1  0
 13 26  1  0
 16 27  1  0
 17 28  1  0
 18 29  1  0
 18 30  1  0
M  CHG  1   7  -1
M  END
>  <UniqueID>  (27) 
24

>  <SMILES>  (27) 
O=c1ccc2c([n-]1)CN[C@@H](c1ccc(F)cc1)C2

>  <Energy>  (27) 
39.129863638336694

>  <Genealogy>  (27) 
O=c1ccc2c([n-]1)CNC(c1ccc(F)cc1)C2 (protonated)
O=c1ccc2c([n-]1)CN[C@@H](c1ccc(F)cc1)C2 (chirality)
O=c1ccc2c([n-]1)CN[C@@H](c1ccc(F)cc1)C2 (3D coordinates assigned)
O=c1ccc2c([n-]1)CN[C@@H](c1ccc(F)cc1)C2 (nonaromatic ring conformer: 39.129863638336694 kcal/mol)

>  <smiles>  (27) 
O=c1ccc2c([nH]1)CNC(c1ccc(F)cc1)C2

>  <score_type>  (27) 
oracle

>  <origin>  (27) 
adg

>  <m_score__min__energy>  (27) 
-8.9100000000000001

>  <m_primary>  (27) 
energy

$$$$
27:0
     RDKit          3D

 28 30  0  0  0  0  0  0  0  0999 V2000
   -5.8240   24.7800  -30.1410 C   0  0  0  0  0  0  0  0  0  0  0  0
   -4.9950   24.3960  -31.2320 O   0  0  0  0  0  0  0  0  0  0  0  0
   -5.0450   23.1240  -31.8120 C   0  0  0  0  0  0  0  0  0  0  0  0
   -3.9350   22.5680  -32.3410 N   0  0  0  0  0  0  0  0  0  0  0  0
   -3.9800   21.3420  -32.9020 C   0  0  0  0  0  0  0  0  0  0  0  0
   -2.9170   20.8600  -33.3840 O   0  0  0  0  0  0  0  0  0  0  0  0
   -5.1610   20.6410  -32.9440 N   0  0  0  0  0  0  0  0  0  0  0  0
   -5.1790   19.3980  -33.5190 C   0  0  0  0  0  0  0  0  0  0  0  0
   -6.3450   18.6600  -33.5810 C   0  0  0  0  0  0  0  0  0  0  0  0
   -7.5110   19.1810  -33.0560 C   0  0  0  0  0  0  0  0  0  0  0  0
   -7.5490   20.4490  -32.4550 C   0  0  0  0  0  0  0  0  0  0  0  0
   -8.9570   20.8110  -31.9460 C   0  0  0  0  0  0  0  0  0  0  0  0
   -9.1240   21.5520  -30.6330 C   0  0  0  0  0  0  0  0  0  0  0  0
   -9.4270   22.2520  -31.9680 C   0  0  0  0  0  0  0  0  0  0  0  0
   -6.3120   21.2000  -32.4040 C   0  0  0  0  0  0  0  0  0  0  0  0
   -6.2190   22.4490  -31.8430 N   0  0  0  0  0  0  0  0  0  0  0  0
   -5.3161   24.5448  -29.1940 H   0  0  0  0  0  0  0  0  0  0  0  0
   -6.0208   25.8610  -30.1928 H   0  0  0  0  0  0  0  0  0  0  0  0
   -6.7758   24.2311  -30.1928 H   0  0  0  0  0  0  0  0  0  0  0  0
   -4.2511   18.9812  -33.9377 H   0  0  0  0  0  0  0  0  0  0  0  0
   -6.3447   17.6631  -34.0459 H   0  0  0  0  0  0  0  0  0  0  0  0
   -8.4349   18.5865  -33.1102 H   0  0  0  0  0  0  0  0  0  0  0  0
   -9.3446   19.8661  -32.3546 H   0  0  0  0  0  0  0  0  0  0  0  0
   -9.9451   21.2867  -29.9507 H   0  0  0  0  0  0  0  0  0  0  0  0
   -8.4774   21.7649  -29.7690 H   0  0  0  0  0  0  0  0  0  0  0  0
  -10.4654   22.4889  -32.2429 H   0  0  0  0  0  0  0  0  0  0  0  0
   -9.0879   23.1760  -32.4592 H   0  0  0  0  0  0  0  0  0  0  0  0
   -7.0100   22.9540  -31.4160 H   0  0  0  0  0  0  0  0  0  0  0  0
  1  2  1  0
  2  3  1  0
  3  4  2  0
  4  5  1  0
  5  6  2  0
  5  7  1  0
  7  8  1  0
  8  9  2  0
  9 10  1  0
 10 11  2  0
 11 12  1  0
 12 13  1  0
 13 14  1  0
 11 15  1  0
 15 16  2  0
 16  3  1  0
 15  7  1  0
 14 12  1  0
  1 17  1  0
  1 18  1  0
  1 19  1  0
  8 20  1  0
  9 21  1  0
 10 22  1  0
 12 23  1  0
 13 24  1  0
 13 25  1  0
 14 26  1  0
 14 27  1  0
 16 28  1  0
M  CHG  1  16   1
M  END
>  <UniqueID>  (28) 
25

>  <SMILES>  (28) 
COc1nc(=O)n2cccc(C3CC3)c2[nH+]1

>  <Energy>  (28) 
316.5149269098583

>  <Genealogy>  (28) 
COc1nc(=O)n2cccc(C3CC3)c2[nH+]1 (protonated)
COc1nc(=O)n2cccc(C3CC3)c2[nH+]1 (3D coordinates assigned)
COc1nc(=O)n2cccc(C3CC3)c2[nH+]1 (nonaromatic ring conformer: 316.5149269098583 kcal/mol)

>  <smiles>  (28) 
COc1nc(=O)n2cccc(C3CC3)c2n1

>  <score_type>  (28) 
oracle

>  <origin>  (28) 
adg

>  <m_score__min__energy>  (28) 
-6.0199999999999996

>  <m_primary>  (28) 
energy

$$$$
28:0
     RDKit          3D

 41 44  0  0  0  0  0  0  0  0999 V2000
   -4.9720   15.0380  -32.9350 C   0  0  0  0  0  0  0  0  0  0  0  0
   -5.9600   15.5670  -33.9670 C   0  0  0  0  0  0  0  0  0  0  0  0
   -5.9670   17.0300  -33.9650 N   0  0  0  0  0  0  0  0  0  0  0  0
   -5.0310   17.8220  -34.5400 C   0  0  0  0  0  0  0  0  0  0  0  0
   -5.2700   19.1550  -34.2390 C   0  0  0  0  0  0  0  0  0  0  0  0
   -6.3950   19.1460  -33.4440 C   0  0  0  0  0  0  0  0  0  0  0  0
   -6.8110   17.8460  -33.2980 C   0  0  0  0  0  0  0  0  0  0  0  0
   -7.9110   17.4410  -32.3310 C   0  0  0  0  0  0  0  0  0  0  0  0
   -8.9040   18.6040  -32.0110 C   0  0  0  0  0  0  0  0  0  0  0  0
   -8.2300   19.9550  -32.0430 C   0  0  0  0  0  0  0  0  0  0  0  0
   -8.6460   21.1840  -31.5690 C   0  0  0  0  0  0  0  0  0  0  0  0
   -7.7570   22.1120  -31.9950 N   0  0  0  0  0  0  0  0  0  0  0  0
   -7.7770   23.5330  -31.6630 C   0  0  0  0  0  0  0  0  0  0  0  0
   -6.5610   23.8830  -30.8530 C   0  0  0  0  0  0  0  0  0  0  0  0
   -6.1550   23.0540  -29.7930 C   0  0  0  0  0  0  0  0  0  0  0  0
   -4.9990   23.3570  -29.0660 C   0  0  0  0  0  0  0  0  0  0  0  0
   -4.2360   24.4790  -29.4000 C   0  0  0  0  0  0  0  0  0  0  0  0
   -4.6250   25.2990  -30.4640 C   0  0  0  0  0  0  0  0  0  0  0  0
   -5.7800   24.9990  -31.1930 C   0  0  0  0  0  0  0  0  0  0  0  0
   -6.8090   21.5260  -32.7170 N   0  0  0  0  0  0  0  0  0  0  0  0
   -7.0980   20.2180  -32.7640 C   0  0  0  0  0  0  0  0  0  0  0  0
   -5.3535   15.2423  -31.9237 H   0  0  0  0  0  0  0  0  0  0  0  0
   -4.8485   13.9531  -33.0681 H   0  0  0  0  0  0  0  0  0  0  0  0
   -4.0006   15.5367  -33.0681 H   0  0  0  0  0  0  0  0  0  0  0  0
   -5.6686   15.2075  -34.9649 H   0  0  0  0  0  0  0  0  0  0  0  0
   -6.9676   15.2055  -33.7137 H   0  0  0  0  0  0  0  0  0  0  0  0
   -4.1975   17.4590  -35.1593 H   0  0  0  0  0  0  0  0  0  0  0  0
   -4.6875   20.0295  -34.5645 H   0  0  0  0  0  0  0  0  0  0  0  0
   -8.4776   16.6087  -32.7739 H   0  0  0  0  0  0  0  0  0  0  0  0
   -7.4275   17.1530  -31.3859 H   0  0  0  0  0  0  0  0  0  0  0  0
   -9.7131   18.5941  -32.7562 H   0  0  0  0  0  0  0  0  0  0  0  0
   -9.2937   18.4451  -30.9947 H   0  0  0  0  0  0  0  0  0  0  0  0
   -9.5391   21.3745  -30.9557 H   0  0  0  0  0  0  0  0  0  0  0  0
   -7.7810   24.1247  -32.5903 H   0  0  0  0  0  0  0  0  0  0  0  0
   -8.6807   23.7566  -31.0771 H   0  0  0  0  0  0  0  0  0  0  0  0
   -6.7480   22.1644  -29.5344 H   0  0  0  0  0  0  0  0  0  0  0  0
   -4.6903   22.7114  -28.2306 H   0  0  0  0  0  0  0  0  0  0  0  0
   -3.3287   24.7174  -28.8256 H   0  0  0  0  0  0  0  0  0  0  0  0
   -4.0221   26.1805  -30.7276 H   0  0  0  0  0  0  0  0  0  0  0  0
   -6.0777   25.6398  -32.0360 H   0  0  0  0  0  0  0  0  0  0  0  0
   -5.9960   22.0110  -33.1590 H   0  0  0  0  0  0  0  0  0  0  0  0
  1  2  1  0
  2  3  1  0
  3  4  1  0
  4  5  2  0
  5  6  1  0
  6  7  2  0
  7  8  1  0
  8  9  1  0
  9 10  1  0
 10 11  2  0
 11 12  1  0
 12 13  1  0
 13 14  1  0
 14 15  2  0
 15 16  1  0
 16 17  2  0
 17 18  1  0
 18 19  2  0
 12 20  1  0
 20 21  2  0
  7  3  1  0
 21 10  1  0
 21  6  1  0
 19 14  1  0
  1 22  1  0
  1 23  1  0
  1 24  1  0
  2 25  1  0
  2 26  1  0
  4 27  1  0
  5 28  1  0
  8 29  1  0
  8 30  1  0
  9 31  1  0
  9 32  1  0
 11 33  1  0
 13 34  1  0
 13 35  1  0
 15 36  1  0
 16 37  1  0
 17 38  1  0
 18 39  1  0
 19 40  1  0
 20 41  1  0
M  CHG  1  20   1
M  END
>  <UniqueID>  (29) 
26

>  <SMILES>  (29) 
CCn1ccc2c1CCc1cn(Cc3ccccc3)[nH+]c1-2

>  <Energy>  (29) 
105.50389848071859

>  <Genealogy>  (29) 
CCn1ccc2c1CCc1cn(Cc3ccccc3)[nH+]c1-2 (protonated)
CCn1ccc2c1CCc1cn(Cc3ccccc3)[nH+]c1-2 (3D coordinates assigned)
CCn1ccc2c1CCc1cn(Cc3ccccc3)[nH+]c1-2 (nonaromatic ring conformer: 105.50389848071859 kcal/mol)

>  <smiles>  (29) 
CCn1ccc2c1CCc1cn(Cc3ccccc3)nc1-2

>  <score_type>  (29) 
oracle

>  <origin>  (29) 
adg

>  <m_score__min__energy>  (29) 
-7.8300000000000001

>  <m_primary>  (29) 
energy

$$$$
29:0
     RDKit          3D

 50 52  0  0  0  0  0  0  0  0999 V2000
   -3.2725   24.2001  -27.0887 H   0  0  0  0  0  0  0  0  0  0  0  0
   -3.5310   23.8560  -28.1010 C   0  0  0  0  0  0  0  0  0  0  0  0
   -2.8120   22.8140  -28.6900 C   0  0  0  0  0  0  0  0  0  0  0  0
   -1.9893   22.3350  -28.1389 H   0  0  0  0  0  0  0  0  0  0  0  0
   -3.1350   22.3780  -29.9780 C   0  0  0  0  0  0  0  0  0  0  0  0
   -2.5876   21.5340  -30.4230 H   0  0  0  0  0  0  0  0  0  0  0  0
   -4.1570   23.0130  -30.7090 C   0  0  0  0  0  0  0  0  0  0  0  0
   -4.8860   24.0480  -30.1010 C   0  0  0  0  0  0  0  0  0  0  0  0
   -4.5790   24.4610  -28.7990 C   0  0  0  0  0  0  0  0  0  0  0  0
   -5.1638   25.2630  -28.3249 H   0  0  0  0  0  0  0  0  0  0  0  0
   -6.2970   24.7620  -30.9470 S   0  0  0  0  0  0  0  0  0  0  0  0
   -7.0420   23.1330  -31.3780 C   0  0  0  0  0  0  0  0  0  0  0  0
   -8.3620   23.4140  -32.1170 C   0  0  0  0  0  0  0  0  0  0  0  0
   -9.1637   23.5847  -31.3835 H   0  0  0  0  0  0  0  0  0  0  0  0
   -8.2460   24.3076  -32.7479 H   0  0  0  0  0  0  0  0  0  0  0  0
   -8.6200   22.5506  -32.7479 H   0  0  0  0  0  0  0  0  0  0  0  0
   -7.3680   22.3210  -30.1040 C   0  0  0  0  0  0  0  0  0  0  0  0
   -7.1268   22.9217  -29.2146 H   0  0  0  0  0  0  0  0  0  0  0  0
   -8.4381   22.0663  -30.0953 H   0  0  0  0  0  0  0  0  0  0  0  0
   -6.7711   21.3971  -30.0953 H   0  0  0  0  0  0  0  0  0  0  0  0
   -6.0840   22.3370  -32.3180 C   0  0  0  0  0  0  0  0  0  0  0  0
   -6.2718   22.6658  -33.3508 H   0  0  0  0  0  0  0  0  0  0  0  0
   -6.3050   21.2734  -32.1449 H   0  0  0  0  0  0  0  0  0  0  0  0
   -4.6040   22.5070  -32.0350 C   0  0  0  0  0  0  0  0  0  0  0  0
   -3.7800   22.2790  -33.0230 N   0  0  0  0  0  0  0  0  0  0  0  0
   -2.6210   21.3860  -33.0490 C   0  0  0  0  0  0  0  0  0  0  0  0
   -2.1800   21.3328  -32.0427 H   0  0  0  0  0  0  0  0  0  0  0  0
   -1.8804   21.7777  -33.7618 H   0  0  0  0  0  0  0  0  0  0  0  0
   -3.0500   19.9760  -33.4920 C   0  0  0  0  0  0  0  0  0  0  0  0
   -2.4463   19.2354  -32.9470 H   0  0  0  0  0  0  0  0  0  0  0  0
   -2.8927   19.9031  -34.5782 H   0  0  0  0  0  0  0  0  0  0  0  0
   -4.4830   19.7120  -33.2240 N   0  0  0  0  0  0  0  0  0  0  0  0
   -5.0250   20.5750  -33.4770 H   0  0  0  0  0  0  0  0  0  0  0  0
   -4.7190   19.3970  -31.7910 C   0  0  0  0  0  0  0  0  0  0  0  0
   -4.6723   20.3314  -31.2124 H   0  0  0  0  0  0  0  0  0  0  0  0
   -3.9430   18.6847  -31.4740 H   0  0  0  0  0  0  0  0  0  0  0  0
   -6.0910   18.7330  -31.5480 C   0  0  0  0  0  0  0  0  0  0  0  0
   -6.5319   19.1374  -30.6250 H   0  0  0  0  0  0  0  0  0  0  0  0
   -5.9517   17.6460  -31.4530 H   0  0  0  0  0  0  0  0  0  0  0  0
   -6.9940   19.0040  -32.6770 N   0  0  0  0  0  0  0  0  0  0  0  0
   -8.3480   18.5140  -32.3820 C   0  0  0  0  0  0  0  0  0  0  0  0
   -8.4900   18.4626  -31.2924 H   0  0  0  0  0  0  0  0  0  0  0  0
   -9.0893   19.2009  -32.8164 H   0  0  0  0  0  0  0  0  0  0  0  0
   -8.4780   17.5118  -32.8164 H   0  0  0  0  0  0  0  0  0  0  0  0
   -6.4780   18.3760  -33.9100 C   0  0  0  0  0  0  0  0  0  0  0  0
   -7.0043   18.8057  -34.7751 H   0  0  0  0  0  0  0  0  0  0  0  0
   -6.6513   17.2921  -33.8388 H   0  0  0  0  0  0  0  0  0  0  0  0
   -4.9600   18.6080  -34.0830 C   0  0  0  0  0  0  0  0  0  0  0  0
   -4.7534   18.8573  -35.1343 H   0  0  0  0  0  0  0  0  0  0  0  0
   -4.4331   17.6880  -33.7897 H   0  0  0  0  0  0  0  0  0  0  0  0
  1  2  1  0
  2  3  2  0
  3  4  1  0
  3  5  1  0
  5  6  1  0
  5  7  2  0
  7  8  1  0
  8  9  2  0
  9 10  1  0
  8 11  1  0
 11 12  1  0
 12 13  1  0
 13 14  1  0
 13 15  1  0
 13 16  1  0
 12 17  1  0
 17 18  1  0
 17 19  1  0
 17 20  1  0
 12 21  1  0
 21 22  1  0
 21 23  1  0
 21 24  1  0
 24 25  2  0
 25 26  1  0
 26 27  1  0
 26 28  1  0
 26 29  1  0
 29 30  1  0
 29 31  1  0
 29 32  1  0
 32 33  1  0
 32 34  1  0
 34 35  1  0
 34 36  1  0
 34 37  1  0
 37 38  1  0
 37 39  1  0
 37 40  1  0
 40 41  1  0
 41 42  1  0
 41 43  1  0
 41 44  1  0
 40 45  1  0
 45 46  1  0
 45 47  1  0
 45 48  1  0
 48 49  1  0
 48 50  1  0
  9  2  1  0
 48 32  1  0
 24  7  1  0
M  CHG  1  32   1
M  END
>  <UniqueID>  (30) 
27

>  <SMILES>  (30) 
CN1CC[NH+](CC/N=C2/CC(C)(C)Sc3ccccc32)CC1

>  <Energy>  (30) 
69.89406016049671

>  <Genealogy>  (30) 
CN1CC[NH+](CCN=C2CC(C)(C)Sc3ccccc32)CC1 (protonated)
CN1CC[NH+](CC/N=C2/CC(C)(C)Sc3ccccc32)CC1 (cis-trans isomerization)
CN1CC[NH+](CC/N=C2/CC(C)(C)Sc3ccccc32)CC1 (3D coordinates assigned)
CN1CC[NH+](CC/N=C2/CC(C)(C)Sc3ccccc32)CC1 (nonaromatic ring conformer: 69.89406016049671 kcal/mol)

>  <smiles>  (30) 
CN1CCN(CCN=C2CC(C)(C)Sc3ccccc32)CC1

>  <score_type>  (30) 
oracle

>  <origin>  (30) 
adg

>  <m_score__min__energy>  (30) 
-7.5199999999999996

>  <m_primary>  (30) 
energy

$$$$
30:0
     RDKit          3D

 28 29  0  0  0  0  0  0  0  0999 V2000
   -6.5000   17.2540  -33.6790 C   0  0  0  0  0  0  0  0  0  0  0  0
   -5.4000   18.5310  -34.3600 S   0  0  0  0  0  0  0  0  0  0  0  0
   -6.2200   19.8590  -33.4830 C   0  0  0  0  0  0  0  0  0  0  0  0
   -7.5500   20.0020  -33.3890 N   0  0  0  0  0  0  0  0  0  0  0  0
   -7.7810   21.0850  -32.6680 N   0  0  0  0  0  0  0  0  0  0  0  0
   -6.5630   21.5710  -32.3450 C   0  0  0  0  0  0  0  0  0  0  0  0
   -6.3360   22.7840  -31.5360 C   0  0  0  0  0  0  0  0  0  0  0  0
   -7.4180   23.4780  -30.9690 C   0  0  0  0  0  0  0  0  0  0  0  0
   -7.1950   24.6370  -30.2200 C   0  0  0  0  0  0  0  0  0  0  0  0
   -5.8950   25.1040  -30.0200 C   0  0  0  0  0  0  0  0  0  0  0  0
   -4.8030   24.4070  -30.5510 C   0  0  0  0  0  0  0  0  0  0  0  0
   -3.4830   24.9310  -30.3460 N   0  0  0  0  0  0  0  0  0  0  0  0
   -2.6880   24.8060  -29.1590 C   0  0  0  0  0  0  0  0  0  0  0  0
   -2.9690   23.7670  -28.1170 C   0  0  0  0  0  0  0  0  0  0  0  0
   -1.7450   25.6190  -28.9710 O   0  0  0  0  0  0  0  0  0  0  0  0
   -5.0300   23.2610  -31.3320 C   0  0  0  0  0  0  0  0  0  0  0  0
   -5.6020   20.8210  -32.8430 O   0  0  0  0  0  0  0  0  0  0  0  0
   -6.4683   17.2908  -32.5801 H   0  0  0  0  0  0  0  0  0  0  0  0
   -7.5292   17.4354  -34.0224 H   0  0  0  0  0  0  0  0  0  0  0  0
   -6.1682   16.2631  -34.0224 H   0  0  0  0  0  0  0  0  0  0  0  0
   -8.2850   19.3830  -33.7980 H   0  0  0  0  0  0  0  0  0  0  0  0
   -8.4437   23.1082  -31.1149 H   0  0  0  0  0  0  0  0  0  0  0  0
   -8.0464   25.1825  -29.7870 H   0  0  0  0  0  0  0  0  0  0  0  0
   -5.7275   26.0248  -29.4420 H   0  0  0  0  0  0  0  0  0  0  0  0
   -2.8494   24.2090  -27.1168 H   0  0  0  0  0  0  0  0  0  0  0  0
   -3.9989   23.3990  -28.2345 H   0  0  0  0  0  0  0  0  0  0  0  0
   -2.2649   22.9300  -28.2345 H   0  0  0  0  0  0  0  0  0  0  0  0
   -4.1789   22.7333  -31.7871 H   0  0  0  0  0  0  0  0  0  0  0  0
  1  2  1  0
  2  3  1  0
  3  4  2  0
  4  5  1  0
  5  6  2  0
  6  7  1  0
  7  8  2  0
  8  9  1  0
  9 10  2  0
 10 11  1  0
 11 12  1  0
 12 13  1  0
 13 14  1  0
 13 15  2  0
 11 16  2  0
  6 17  1  0
 17  3  1  0
 16  7  1  0
  1 18  1  0
  1 19  1  0
  1 20  1  0
  4 21  1  0
  8 22  1  0
  9 23  1  0
 10 24  1  0
 14 25  1  0
 14 26  1  0
 14 27  1  0
 16 28  1  0
M  CHG  2   4   1  12  -1
M  END
>  <UniqueID>  (31) 
28

>  <SMILES>  (31) 
CSc1[nH+]nc(-c2cccc([N-]C(C)=O)c2)o1

>  <Energy>  (31) 
62.78929244349824

>  <Genealogy>  (31) 
CSc1[nH+]nc(-c2cccc([N-]C(C)=O)c2)o1 (protonated)
CSc1[nH+]nc(-c2cccc([N-]C(C)=O)c2)o1 (3D coordinates assigned)
CSc1[nH+]nc(-c2cccc([N-]C(C)=O)c2)o1 (optimized conformer: 62.78929244349824 kcal/mol)

>  <smiles>  (31) 
CSc1nnc(-c2cccc(NC(C)=O)c2)o1

>  <score_type>  (31) 
oracle

>  <origin>  (31) 
adg

>  <m_score__min__energy>  (31) 
-8.9100000000000001

>  <m_primary>  (31) 
energy

$$$$
31:0
     RDKit          3D

 48 50  0  0  0  0  0  0  0  0999 V2000
   -6.3600   15.7630  -33.9000 C   0  0  0  0  0  0  0  0  0  0  0  0
   -6.1430   17.0820  -34.3850 O   0  0  0  0  0  0  0  0  0  0  0  0
   -5.0330   17.8750  -34.0530 C   0  0  0  0  0  0  0  0  0  0  0  0
   -3.7820   17.5790  -34.5190 N   0  0  0  0  0  0  0  0  0  0  0  0
   -2.7170   18.3750  -34.2360 C   0  0  0  0  0  0  0  0  0  0  0  0
   -2.8970   19.5180  -33.4610 C   0  0  0  0  0  0  0  0  0  0  0  0
   -4.1330   19.8130  -32.9870 N   0  0  0  0  0  0  0  0  0  0  0  0
   -5.2080   19.0190  -33.2460 C   0  0  0  0  0  0  0  0  0  0  0  0
   -6.5290   19.4020  -32.6940 C   0  0  0  0  0  0  0  0  0  0  0  0
   -7.6690   18.6160  -32.9310 C   0  0  0  0  0  0  0  0  0  0  0  0
   -8.9020   18.9780  -32.3840 C   0  0  0  0  0  0  0  0  0  0  0  0
   -9.0090   20.1240  -31.5940 C   0  0  0  0  0  0  0  0  0  0  0  0
   -7.8820   20.9210  -31.3420 C   0  0  0  0  0  0  0  0  0  0  0  0
   -8.0020   22.1650  -30.4860 C   0  0  0  0  0  0  0  0  0  0  0  0
   -6.8680   23.1070  -30.6370 N   0  0  0  0  0  0  0  0  0  0  0  0
   -7.2440   24.5190  -30.4180 C   0  0  0  0  0  0  0  0  0  0  0  0
   -6.0580   25.3460  -29.8670 C   0  0  0  0  0  0  0  0  0  0  0  0
   -4.8220   25.3650  -30.7960 C   0  0  0  0  0  0  0  0  0  0  0  0
   -3.8290   24.2810  -30.5460 N   0  0  0  0  0  0  0  0  0  0  0  0
   -3.1690   24.4750  -29.2430 C   0  0  0  0  0  0  0  0  0  0  0  0
   -4.3500   22.8970  -30.6370 C   0  0  0  0  0  0  0  0  0  0  0  0
   -5.6730   22.6860  -29.8770 C   0  0  0  0  0  0  0  0  0  0  0  0
   -6.6400   20.5420  -31.8810 C   0  0  0  0  0  0  0  0  0  0  0  0
   -6.3585   15.7719  -32.8000 H   0  0  0  0  0  0  0  0  0  0  0  0
   -7.3309   15.3942  -34.2624 H   0  0  0  0  0  0  0  0  0  0  0  0
   -5.5584   15.1026  -34.2624 H   0  0  0  0  0  0  0  0  0  0  0  0
   -3.6150   16.7370  -35.1130 H   0  0  0  0  0  0  0  0  0  0  0  0
   -1.7178   18.1175  -34.6173 H   0  0  0  0  0  0  0  0  0  0  0  0
   -2.0445   20.1755  -33.2354 H   0  0  0  0  0  0  0  0  0  0  0  0
   -7.5901   17.7106  -33.5507 H   0  0  0  0  0  0  0  0  0  0  0  0
   -9.7907   18.3588  -32.5761 H   0  0  0  0  0  0  0  0  0  0  0  0
   -9.9830   20.4040  -31.1663 H   0  0  0  0  0  0  0  0  0  0  0  0
   -8.9279   22.6895  -30.7645 H   0  0  0  0  0  0  0  0  0  0  0  0
   -8.0051   21.8330  -29.4373 H   0  0  0  0  0  0  0  0  0  0  0  0
   -7.5687   24.9543  -31.3746 H   0  0  0  0  0  0  0  0  0  0  0  0
   -8.0566   24.5475  -29.6771 H   0  0  0  0  0  0  0  0  0  0  0  0
   -6.3969   26.3822  -29.7202 H   0  0  0  0  0  0  0  0  0  0  0  0
   -5.7440   24.8672  -28.9277 H   0  0  0  0  0  0  0  0  0  0  0  0
   -5.1739   25.2726  -31.8341 H   0  0  0  0  0  0  0  0  0  0  0  0
   -4.3004   26.3122  -30.5943 H   0  0  0  0  0  0  0  0  0  0  0  0
   -3.8847   24.2646  -28.4346 H   0  0  0  0  0  0  0  0  0  0  0  0
   -2.3115   23.7909  -29.1608 H   0  0  0  0  0  0  0  0  0  0  0  0
   -2.8181   25.5143  -29.1608 H   0  0  0  0  0  0  0  0  0  0  0  0
   -4.5158   22.6567  -31.6975 H   0  0  0  0  0  0  0  0  0  0  0  0
   -3.6016   22.2389  -30.1715 H   0  0  0  0  0  0  0  0  0  0  0  0
   -5.7709   21.6162  -29.6405 H   0  0  0  0  0  0  0  0  0  0  0  0
   -5.6287   23.3130  -28.9742 H   0  0  0  0  0  0  0  0  0  0  0  0
   -5.7458   21.1446  -31.6637 H   0  0  0  0  0  0  0  0  0  0  0  0
  1  2  1  0
  2  3  1  0
  3  4  2  0
  4  5  1  0
  5  6  2  0
  6  7  1  0
  7  8  2  0
  8  9  1  0
  9 10  2  0
 10 11  1  0
 11 12  2  0
 12 13  1  0
 13 14  1  0
 14 15  1  0
 15 16  1  0
 16 17  1  0
 17 18  1  0
 18 19  1  0
 19 20  1  0
 19 21  1  0
 21 22  1  0
 13 23  2  0
  8  3  1  0
 23  9  1  0
 22 15  1  0
  1 24  1  0
  1 25  1  0
  1 26  1  0
  4 27  1  0
  5 28  1  0
  6 29  1  0
 10 30  1  0
 11 31  1  0
 12 32  1  0
 14 33  1  0
 14 34  1  0
 16 35  1  0
 16 36  1  0
 17 37  1  0
 17 38  1  0
 18 39  1  0
 18 40  1  0
 20 41  1  0
 20 42  1  0
 20 43  1  0
 21 44  1  0
 21 45  1  0
 22 46  1  0
 22 47  1  0
 23 48  1  0
M  CHG  1   4   1
M  END
>  <UniqueID>  (32) 
29

>  <SMILES>  (32) 
COc1[nH+]ccnc1-c1cccc(CN2CCCN(C)CC2)c1

>  <Energy>  (32) 
73.16156389251806

>  <Genealogy>  (32) 
COc1[nH+]ccnc1-c1cccc(CN2CCCN(C)CC2)c1 (protonated)
COc1[nH+]ccnc1-c1cccc(CN2CCCN(C)CC2)c1 (3D coordinates assigned)
COc1[nH+]ccnc1-c1cccc(CN2CCCN(C)CC2)c1 (nonaromatic ring conformer: 73.16156389251806 kcal/mol)

>  <smiles>  (32) 
COc1nccnc1-c1cccc(CN2CCCN(C)CC2)c1

>  <score_type>  (32) 
oracle

>  <origin>  (32) 
adg

>  <m_score__min__energy>  (32) 
-5.96

>  <m_primary>  (32) 
energy

$$$$
32:0
     RDKit          3D

 28 31  0  0  0  0  0  0  0  0999 V2000
   -6.4800   26.0010  -29.3410 C   0  0  0  0  0  0  0  0  0  0  0  0
   -5.9720   24.8950  -30.1990 C   0  0  0  0  0  0  0  0  0  0  0  0
   -4.7830   24.9270  -30.8380 N   0  0  0  0  0  0  0  0  0  0  0  0
   -4.5060   23.7990  -31.4910 N   0  0  0  0  0  0  0  0  0  0  0  0
   -5.4600   22.8440  -31.3750 C   0  0  0  0  0  0  0  0  0  0  0  0
   -5.3520   21.5040  -32.0170 C   0  0  0  0  0  0  0  0  0  0  0  0
   -4.1810   21.1800  -32.7300 C   0  0  0  0  0  0  0  0  0  0  0  0
   -4.0370   19.9990  -33.3180 O   0  0  0  0  0  0  0  0  0  0  0  0
   -4.9750   19.0650  -33.2720 C   0  0  0  0  0  0  0  0  0  0  0  0
   -4.7920   17.8350  -33.9010 C   0  0  0  0  0  0  0  0  0  0  0  0
   -5.7400   16.8650  -33.8650 C   0  0  0  0  0  0  0  0  0  0  0  0
   -6.9510   17.0380  -33.2000 C   0  0  0  0  0  0  0  0  0  0  0  0
   -7.1790   18.2660  -32.5510 C   0  0  0  0  0  0  0  0  0  0  0  0
   -6.1920   19.2890  -32.5820 C   0  0  0  0  0  0  0  0  0  0  0  0
   -6.3750   20.5300  -31.9470 C   0  0  0  0  0  0  0  0  0  0  0  0
   -7.4480   20.7620  -31.3270 O   0  0  0  0  0  0  0  0  0  0  0  0
   -5.2950   15.7610  -34.5660 O   0  0  0  0  0  0  0  0  0  0  0  0
   -3.9860   16.0570  -35.0730 C   0  0  0  0  0  0  0  0  0  0  0  0
   -3.7040   17.3900  -34.6250 O   0  0  0  0  0  0  0  0  0  0  0  0
   -6.7270   23.4080  -30.4050 S   0  0  0  0  0  0  0  0  0  0  0  0
   -6.3557   25.7303  -28.2821 H   0  0  0  0  0  0  0  0  0  0  0  0
   -5.9136   26.9197  -29.5536 H   0  0  0  0  0  0  0  0  0  0  0  0
   -7.5460   26.1700  -29.5536 H   0  0  0  0  0  0  0  0  0  0  0  0
   -3.3704   21.9202  -32.8007 H   0  0  0  0  0  0  0  0  0  0  0  0
   -7.7068   16.2390  -33.1824 H   0  0  0  0  0  0  0  0  0  0  0  0
   -8.1257   18.4351  -32.0170 H   0  0  0  0  0  0  0  0  0  0  0  0
   -3.2466   15.3495  -34.6695 H   0  0  0  0  0  0  0  0  0  0  0  0
   -3.9397   15.9722  -36.1687 H   0  0  0  0  0  0  0  0  0  0  0  0
  1  2  1  0
  2  3  2  0
  3  4  1  0
  4  5  2  0
  5  6  1  0
  6  7  2  0
  7  8  1  0
  8  9  1  0
  9 10  2  0
 10 11  1  0
 11 12  2  0
 12 13  1  0
 13 14  2  0
 14 15  1  0
 15 16  2  0
 11 17  1  0
 17 18  1  0
 18 19  1  0
  5 20  1  0
 20  2  1  0
 15  6  1  0
 14  9  1  0
 19 10  1  0
  1 21  1  0
  1 22  1  0
  1 23  1  0
  7 24  1  0
 12 25  1  0
 13 26  1  0
 18 27  1  0
 18 28  1  0
M  END
>  <UniqueID>  (33) 
30

>  <SMILES>  (33) 
Cc1nnc(-c2coc3c4c(ccc3c2=O)OCO4)s1

>  <Energy>  (33) 
100.9312478489538

>  <Genealogy>  (33) 
Cc1nnc(-c2coc3c4c(ccc3c2=O)OCO4)s1 (3D coordinates assigned)
Cc1nnc(-c2coc3c4c(ccc3c2=O)OCO4)s1 (nonaromatic ring conformer: 100.9312478489538 kcal/mol)

>  <smiles>  (33) 
Cc1nnc(-c2coc3c4c(ccc3c2=O)OCO4)s1

>  <score_type>  (33) 
oracle

>  <origin>  (33) 
adg

>  <m_score__min__energy>  (33) 
-7.3499999999999996

>  <m_primary>  (33) 
energy

$$$$
33:0
     RDKit          3D

 48 50  0  0  0  0  0  0  0  0999 V2000
   -1.9790   27.4200  -23.9770 H   0  0  0  0  0  0  0  0  0  0  0  0
   -1.2260   27.0300  -24.5860 N   0  0  0  0  0  0  0  0  0  0  0  0
   -1.2050   25.7810  -24.9360 C   0  0  0  0  0  0  0  0  0  0  0  0
   -1.9680   25.3420  -26.1310 C   0  0  0  0  0  0  0  0  0  0  0  0
   -1.3700   25.2970  -27.4020 C   0  0  0  0  0  0  0  0  0  0  0  0
   -0.3152   25.5855  -27.5208 H   0  0  0  0  0  0  0  0  0  0  0  0
   -2.0880   24.8990  -28.4850 N   0  0  0  0  0  0  0  0  0  0  0  0
   -3.3970   24.5320  -28.4010 C   0  0  0  0  0  0  0  0  0  0  0  0
   -4.1000   24.1100  -29.5890 N   0  0  0  0  0  0  0  0  0  0  0  0
   -5.4560   24.5960  -29.8840 C   0  0  0  0  0  0  0  0  0  0  0  0
   -6.1870   23.9763  -29.3440 H   0  0  0  0  0  0  0  0  0  0  0  0
   -5.5332   25.6451  -29.5625 H   0  0  0  0  0  0  0  0  0  0  0  0
   -5.7450   24.5190  -31.3900 C   0  0  0  0  0  0  0  0  0  0  0  0
   -6.7985   24.7860  -31.5596 H   0  0  0  0  0  0  0  0  0  0  0  0
   -5.0603   25.2168  -31.8942 H   0  0  0  0  0  0  0  0  0  0  0  0
   -5.5020   23.1710  -31.9540 N   0  0  0  0  0  0  0  0  0  0  0  0
   -6.7270   22.4200  -32.3120 C   0  0  0  0  0  0  0  0  0  0  0  0
   -7.4959   22.6293  -31.5537 H   0  0  0  0  0  0  0  0  0  0  0  0
   -7.0243   22.7535  -33.3172 H   0  0  0  0  0  0  0  0  0  0  0  0
   -6.5260   20.9180  -32.3870 C   0  0  0  0  0  0  0  0  0  0  0  0
   -5.5980   20.3710  -33.2860 C   0  0  0  0  0  0  0  0  0  0  0  0
   -5.0197   21.0357  -33.9445 H   0  0  0  0  0  0  0  0  0  0  0  0
   -5.4020   18.9880  -33.3520 C   0  0  0  0  0  0  0  0  0  0  0  0
   -4.6593   18.5744  -34.0501 H   0  0  0  0  0  0  0  0  0  0  0  0
   -6.1460   18.1240  -32.5340 C   0  0  0  0  0  0  0  0  0  0  0  0
   -5.9270   16.6560  -32.6030 C   0  0  0  0  0  0  0  0  0  0  0  0
   -6.1270   16.0030  -33.7060 N   0  0  0  0  0  0  0  0  0  0  0  0
   -6.8440   16.2850  -34.4100 H   0  0  0  0  0  0  0  0  0  0  0  0
   -5.4790   15.9410  -31.4480 N   0  0  0  0  0  0  0  0  0  0  0  0
   -5.3900   16.4120  -30.5220 H   0  0  0  0  0  0  0  0  0  0  0  0
   -5.2840   14.9170  -31.5060 H   0  0  0  0  0  0  0  0  0  0  0  0
   -7.0970   18.6700  -31.6550 C   0  0  0  0  0  0  0  0  0  0  0  0
   -7.6938   18.0043  -31.0143 H   0  0  0  0  0  0  0  0  0  0  0  0
   -7.2900   20.0530  -31.5890 C   0  0  0  0  0  0  0  0  0  0  0  0
   -8.0468   20.4664  -30.9061 H   0  0  0  0  0  0  0  0  0  0  0  0
   -4.4830   22.3540  -31.2560 C   0  0  0  0  0  0  0  0  0  0  0  0
   -4.9848   21.7251  -30.5058 H   0  0  0  0  0  0  0  0  0  0  0  0
   -3.9661   21.7399  -32.0081 H   0  0  0  0  0  0  0  0  0  0  0  0
   -3.4360   23.2220  -30.5530 C   0  0  0  0  0  0  0  0  0  0  0  0
   -2.7205   22.5759  -30.0232 H   0  0  0  0  0  0  0  0  0  0  0  0
   -2.9017   23.8274  -31.3000 H   0  0  0  0  0  0  0  0  0  0  0  0
   -4.0340   24.5650  -27.1480 C   0  0  0  0  0  0  0  0  0  0  0  0
   -5.0895   24.2694  -27.0559 H   0  0  0  0  0  0  0  0  0  0  0  0
   -3.3190   24.9750  -26.0220 C   0  0  0  0  0  0  0  0  0  0  0  0
   -3.8173   25.0110  -25.0420 H   0  0  0  0  0  0  0  0  0  0  0  0
   -0.4590   24.8410  -24.1520 N   0  0  0  0  0  0  0  0  0  0  0  0
    0.1280   25.1670  -23.3510 H   0  0  0  0  0  0  0  0  0  0  0  0
   -0.5430   23.8130  -24.3050 H   0  0  0  0  0  0  0  0  0  0  0  0
  1  2  1  0
  2  3  2  0
  3  4  1  0
  4  5  2  0
  5  6  1  0
  5  7  1  0
  7  8  2  0
  8  9  1  0
  9 10  1  0
 10 11  1  0
 10 12  1  0
 10 13  1  0
 13 14  1  0
 13 15  1  0
 13 16  1  0
 16 17  1  0
 17 18  1  0
 17 19  1  0
 17 20  1  0
 20 21  2  0
 21 22  1  0
 21 23  1  0
 23 24  1  0
 23 25  2  0
 25 26  1  0
 26 27  2  0
 27 28  1  0
 26 29  1  0
 29 30  1  0
 29 31  1  0
 25 32  1  0
 32 33  1  0
 32 34  2  0
 34 35  1  0
 16 36  1  0
 36 37  1  0
 36 38  1  0
 36 39  1  0
 39 40  1  0
 39 41  1  0
  8 42  1  0
 42 43  1  0
 42 44  2  0
 44 45  1  0
  3 46  1  0
 46 47  1  0
 46 48  1  0
 44  4  1  0
 39  9  1  0
 34 20  1  0
M  END
>  <UniqueID>  (34) 
31

>  <SMILES>  (34) 
[H]/N=C(\N)c1ccc(N2CCN(Cc3ccc(/C(N)=N\[H])cc3)CC2)nc1

>  <Energy>  (34) 
65.25024130463453

>  <Genealogy>  (34) 
[H]/N=C(\N)c1ccc(N2CCN(Cc3ccc(/C(N)=N\[H])cc3)CC2)nc1 (cis-trans isomerization)
[H]/N=C(\N)c1ccc(N2CCN(Cc3ccc(/C(N)=N\[H])cc3)CC2)nc1 (3D coordinates assigned)
[H]/N=C(\N)c1ccc(N2CCN(Cc3ccc(/C(N)=N\[H])cc3)CC2)nc1 (nonaromatic ring conformer: 65.25024130463453 kcal/mol)

>  <smiles>  (34) 
N=C(N)c1ccc(CN2CCN(c3ccc(C(=N)N)cn3)CC2)cc1

>  <score_type>  (34) 
oracle

>  <origin>  (34) 
adg

>  <m_score__min__energy>  (34) 
-7.8300000000000001

>  <m_primary>  (34) 
energy

$$$$
34:0
     RDKit          3D

 50 53  0  0  1  0  0  0  0  0999 V2000
   -6.0190   14.1940  -34.2540 C   0  0  0  0  0  0  0  0  0  0  0  0
   -6.8740   15.2810  -34.5180 O   0  0  0  0  0  0  0  0  0  0  0  0
   -6.5270   16.5550  -34.1000 C   0  0  0  0  0  0  0  0  0  0  0  0
   -5.7780   17.4240  -34.8720 C   0  0  0  0  0  0  0  0  0  0  0  0
   -5.4420   18.6970  -34.4330 C   0  0  0  0  0  0  0  0  0  0  0  0
   -5.8480   19.1390  -33.1980 C   0  0  0  0  0  0  0  0  0  0  0  0
   -5.4810   20.4550  -32.7790 N   0  0  0  0  0  0  0  0  0  0  0  0
   -4.2240   20.8470  -32.7180 N   0  0  0  0  0  0  0  0  0  0  0  0
   -4.1160   22.1440  -32.2940 C   0  0  0  0  0  0  0  0  0  0  0  0
   -5.3950   22.5480  -32.0910 C   0  0  0  0  0  0  0  0  0  0  0  0
   -5.9570   23.7110  -31.6740 C   0  0  0  0  0  0  0  0  0  0  0  0
   -5.2120   24.7010  -31.3880 N   0  0  0  0  0  0  0  0  0  0  0  0
   -5.0440   25.3230  -30.1050 C   0  0  0  0  0  0  0  0  0  0  0  0
   -5.3610   24.1770  -29.1080 C   0  0  0  0  0  0  0  0  0  0  0  0
   -4.2550   23.5870  -28.5160 N   0  0  0  0  0  0  0  0  0  0  0  0
   -3.7730   22.3310  -28.8930 C   0  0  0  0  0  0  0  0  0  0  0  0
   -2.2990   22.4820  -29.2580 C   0  0  0  0  0  0  0  0  0  0  0  0
   -1.8860   23.9560  -29.2930 C   0  0  0  0  0  0  0  0  0  0  0  0
   -2.1380   24.5090  -27.9010 C   0  0  0  0  0  0  0  0  0  0  0  0
   -3.5610   24.1930  -27.4600 C   0  0  0  0  0  0  0  0  0  0  0  0
   -7.3020   23.8150  -31.5640 N   0  0  0  0  0  0  0  0  0  0  0  0
   -8.1060   22.7730  -31.8650 C   0  0  0  0  0  0  0  0  0  0  0  0
   -7.5660   21.5980  -32.2860 N   0  0  0  0  0  0  0  0  0  0  0  0
   -6.2230   21.4860  -32.3970 C   0  0  0  0  0  0  0  0  0  0  0  0
   -6.6020   18.2900  -32.4010 C   0  0  0  0  0  0  0  0  0  0  0  0
   -6.9420   17.0060  -32.8440 C   0  0  0  0  0  0  0  0  0  0  0  0
   -5.9166   14.0638  -33.1666 H   0  0  0  0  0  0  0  0  0  0  0  0
   -6.4422   13.2792  -34.6946 H   0  0  0  0  0  0  0  0  0  0  0  0
   -5.0303   14.3898  -34.6946 H   0  0  0  0  0  0  0  0  0  0  0  0
   -5.4378   17.0960  -35.8653 H   0  0  0  0  0  0  0  0  0  0  0  0
   -4.8455   19.3573  -35.0797 H   0  0  0  0  0  0  0  0  0  0  0  0
   -3.1958   22.7292  -32.1498 H   0  0  0  0  0  0  0  0  0  0  0  0
   -4.0135   25.6849  -29.9745 H   0  0  0  0  0  0  0  0  0  0  0  0
   -5.6876   26.2042  -29.9664 H   0  0  0  0  0  0  0  0  0  0  0  0
   -5.9965   24.5870  -28.3092 H   0  0  0  0  0  0  0  0  0  0  0  0
   -5.8501   23.3869  -29.6966 H   0  0  0  0  0  0  0  0  0  0  0  0
   -3.8801   21.6238  -28.0573 H   0  0  0  0  0  0  0  0  0  0  0  0
   -4.3419   21.9453  -29.7518 H   0  0  0  0  0  0  0  0  0  0  0  0
   -1.6882   21.9558  -28.5096 H   0  0  0  0  0  0  0  0  0  0  0  0
   -2.1418   22.0521  -30.2582 H   0  0  0  0  0  0  0  0  0  0  0  0
   -0.8203   24.0458  -29.5501 H   0  0  0  0  0  0  0  0  0  0  0  0
   -2.4586   24.5111  -30.0506 H   0  0  0  0  0  0  0  0  0  0  0  0
   -1.4288   24.0527  -27.1947 H   0  0  0  0  0  0  0  0  0  0  0  0
   -2.0011   25.6003  -27.9178 H   0  0  0  0  0  0  0  0  0  0  0  0
   -3.5344   23.5092  -26.5988 H   0  0  0  0  0  0  0  0  0  0  0  0
   -4.0709   25.1247  -27.1737 H   0  0  0  0  0  0  0  0  0  0  0  0
   -9.1972   22.8744  -31.7698 H   0  0  0  0  0  0  0  0  0  0  0  0
   -8.2110   20.7860  -32.5170 H   0  0  0  0  0  0  0  0  0  0  0  0
   -6.9366   18.6294  -31.4096 H   0  0  0  0  0  0  0  0  0  0  0  0
   -7.5407   16.3468  -32.1982 H   0  0  0  0  0  0  0  0  0  0  0  0
  1  2  1  0
  2  3  1  0
  3  4  2  0
  4  5  1  0
  5  6  2  0
  6  7  1  0
  7  8  1  0
  8  9  2  0
  9 10  1  0
 10 11  1  0
 11 12  2  0
 12 13  1  0
 13 14  1  0
 14 15  1  0
 15 16  1  0
 16 17  1  0
 17 18  1  0
 18 19  1  0
 19 20  1  0
 11 21  1  0
 21 22  2  0
 22 23  1  0
 23 24  1  0
  6 25  1  0
 25 26  2  0
 26  3  1  0
 24  7  1  0
 24 10  2  0
 20 15  1  0
  1 27  1  0
  1 28  1  0
  1 29  1  0
  4 30  1  0
  5 31  1  0
  9 32  1  0
 13 33  1  0
 13 34  1  0
 14 35  1  0
 14 36  1  0
 16 37  1  0
 16 38  1  0
 17 39  1  0
 17 40  1  0
 18 41  1  0
 18 42  1  0
 19 43  1  0
 19 44  1  0
 20 45  1  0
 20 46  1  0
 22 47  1  0
 23 48  1  0
 25 49  1  0
 26 50  1  0
M  END
>  <smiles>  (35) 
COc1ccc(-n2ncc3c(=NCCN4CCCCC4)nc[nH]c32)cc1

>  <score_type>  (35) 
oracle

>  <origin>  (35) 
adg

>  <m_score__min__energy>  (35) 
-8.5299999999999994

>  <m_primary>  (35) 
energy

$$$$
35:0
     RDKit          3D

 34 35  0  0  0  0  0  0  0  0999 V2000
   -3.8140   22.7430  -27.8750 C   0  0  0  0  0  0  0  0  0  0  0  0
   -4.3320   23.3320  -29.1450 C   0  0  0  0  0  0  0  0  0  0  0  0
   -4.0110   24.5610  -29.6860 C   0  0  0  0  0  0  0  0  0  0  0  0
   -4.6020   24.6790  -30.8920 N   0  0  0  0  0  0  0  0  0  0  0  0
   -5.2770   23.5630  -31.1190 N   0  0  0  0  0  0  0  0  0  0  0  0
   -6.0170   23.2950  -32.3490 C   0  0  0  0  0  0  0  0  0  0  0  0
   -7.5260   23.4470  -32.1280 C   0  0  0  0  0  0  0  0  0  0  0  0
   -8.0600   22.4530  -31.0830 C   0  0  0  0  0  0  0  0  0  0  0  0
   -9.0100   21.4140  -31.6980 C   0  0  0  0  0  0  0  0  0  0  0  0
   -8.2700   20.2070  -32.2150 C   0  0  0  0  0  0  0  0  0  0  0  0
   -7.1560   20.3660  -33.0550 C   0  0  0  0  0  0  0  0  0  0  0  0
   -6.4550   19.2480  -33.5170 C   0  0  0  0  0  0  0  0  0  0  0  0
   -6.8580   17.9630  -33.1400 C   0  0  0  0  0  0  0  0  0  0  0  0
   -5.9760   16.5620  -33.7190 Cl  0  0  0  0  0  0  0  0  0  0  0  0
   -7.9620   17.7960  -32.2990 C   0  0  0  0  0  0  0  0  0  0  0  0
   -8.6660   18.9130  -31.8370 C   0  0  0  0  0  0  0  0  0  0  0  0
   -5.1250   22.7120  -30.0850 C   0  0  0  0  0  0  0  0  0  0  0  0
   -4.2695   23.2609  -27.0181 H   0  0  0  0  0  0  0  0  0  0  0  0
   -4.0698   21.6739  -27.8355 H   0  0  0  0  0  0  0  0  0  0  0  0
   -2.7210   22.8602  -27.8355 H   0  0  0  0  0  0  0  0  0  0  0  0
   -3.3752   25.3217  -29.2096 H   0  0  0  0  0  0  0  0  0  0  0  0
   -5.6940   24.0049  -33.1247 H   0  0  0  0  0  0  0  0  0  0  0  0
   -5.8118   22.2608  -32.6625 H   0  0  0  0  0  0  0  0  0  0  0  0
   -7.7326   24.4706  -31.7821 H   0  0  0  0  0  0  0  0  0  0  0  0
   -8.0311   23.2391  -33.0828 H   0  0  0  0  0  0  0  0  0  0  0  0
   -7.2080   21.9272  -30.6273 H   0  0  0  0  0  0  0  0  0  0  0  0
   -8.6268   23.0250  -30.3336 H   0  0  0  0  0  0  0  0  0  0  0  0
   -9.7261   21.0888  -30.9290 H   0  0  0  0  0  0  0  0  0  0  0  0
   -9.5249   21.8860  -32.5478 H   0  0  0  0  0  0  0  0  0  0  0  0
   -6.8333   21.3751  -33.3510 H   0  0  0  0  0  0  0  0  0  0  0  0
   -5.5855   19.3793  -34.1778 H   0  0  0  0  0  0  0  0  0  0  0  0
   -8.2774   16.7854  -32.0003 H   0  0  0  0  0  0  0  0  0  0  0  0
   -9.5337   18.7777  -31.1746 H   0  0  0  0  0  0  0  0  0  0  0  0
   -5.5568   21.7034  -30.0060 H   0  0  0  0  0  0  0  0  0  0  0  0
  1  2  1  0
  2  3  1  0
  3  4  2  0
  4  5  1  0
  5  6  1  0
  6  7  1  0
  7  8  1  0
  8  9  1  0
  9 10  1  0
 10 11  2  0
 11 12  1  0
 12 13  2  0
 13 14  1  0
 13 15  1  0
 15 16  2  0
  5 17  1  0
 17  2  2  0
 16 10  1  0
  1 18  1  0
  1 19  1  0
  1 20  1  0
  3 21  1  0
  6 22  1  0
  6 23  1  0
  7 24  1  0
  7 25  1  0
  8 26  1  0
  8 27  1  0
  9 28  1  0
  9 29  1  0
 11 30  1  0
 12 31  1  0
 15 32  1  0
 16 33  1  0
 17 34  1  0
M  END
>  <UniqueID>  (36) 
32

>  <SMILES>  (36) 
Cc1cnn(CCCCc2ccc(Cl)cc2)c1

>  <Energy>  (36) 
55.106385042863124

>  <Genealogy>  (36) 
Cc1cnn(CCCCc2ccc(Cl)cc2)c1 (3D coordinates assigned)
Cc1cnn(CCCCc2ccc(Cl)cc2)c1 (optimized conformer: 55.106385042863124 kcal/mol)

>  <smiles>  (36) 
Cc1cnn(CCCCc2ccc(Cl)cc2)c1

>  <score_type>  (36) 
oracle

>  <origin>  (36) 
adg

>  <m_score__min__energy>  (36) 
-7.4800000000000004

>  <m_primary>  (36) 
energy

$$$$
36:0
     RDKit          3D

 49 52  0  0  0  0  0  0  0  0999 V2000
   -6.6240   17.8790  -31.2070 C   0  0  0  0  0  0  0  0  0  0  0  0
   -7.5320   17.7630  -32.3560 N   0  0  0  0  0  0  0  0  0  0  0  0
   -8.7060   18.6620  -32.3160 C   0  0  0  0  0  0  0  0  0  0  0  0
   -8.3780   20.0810  -31.9550 C   0  0  0  0  0  0  0  0  0  0  0  0
   -7.4870   20.8480  -32.6200 N   0  0  0  0  0  0  0  0  0  0  0  0
   -7.5440   21.9980  -31.9180 C   0  0  0  0  0  0  0  0  0  0  0  0
   -6.7890   23.2360  -32.2890 C   0  0  0  0  0  0  0  0  0  0  0  0
   -5.4170   23.2110  -31.6650 C   0  0  0  0  0  0  0  0  0  0  0  0
   -4.4660   22.2920  -32.1480 C   0  0  0  0  0  0  0  0  0  0  0  0
   -3.1940   22.2190  -31.5750 C   0  0  0  0  0  0  0  0  0  0  0  0
   -2.8600   23.0490  -30.5040 C   0  0  0  0  0  0  0  0  0  0  0  0
   -3.7990   23.9500  -30.0030 C   0  0  0  0  0  0  0  0  0  0  0  0
   -5.0780   24.0340  -30.5680 C   0  0  0  0  0  0  0  0  0  0  0  0
   -6.3040   25.2990  -29.8160 Br  0  0  0  0  0  0  0  0  0  0  0  0
   -8.4140   21.9200  -30.8980 N   0  0  0  0  0  0  0  0  0  0  0  0
   -8.9060   20.7240  -30.9390 O   0  0  0  0  0  0  0  0  0  0  0  0
   -6.8610   17.6310  -33.6680 C   0  0  0  0  0  0  0  0  0  0  0  0
   -5.3760   17.8660  -33.6310 C   0  0  0  0  0  0  0  0  0  0  0  0
   -4.3870   16.9060  -33.8220 C   0  0  0  0  0  0  0  0  0  0  0  0
   -3.0890   17.4300  -33.8000 C   0  0  0  0  0  0  0  0  0  0  0  0
   -3.0560   18.8080  -33.5900 C   0  0  0  0  0  0  0  0  0  0  0  0
   -1.8470   19.6420  -33.4810 C   0  0  0  0  0  0  0  0  0  0  0  0
   -1.0990   19.6470  -32.2930 C   0  0  0  0  0  0  0  0  0  0  0  0
    0.0600   20.4150  -32.1910 C   0  0  0  0  0  0  0  0  0  0  0  0
    0.4740   21.1940  -33.2690 C   0  0  0  0  0  0  0  0  0  0  0  0
   -0.2680   21.2000  -34.4520 C   0  0  0  0  0  0  0  0  0  0  0  0
   -1.4220   20.4270  -34.5610 C   0  0  0  0  0  0  0  0  0  0  0  0
   -4.6390   19.3660  -33.4630 S   0  0  0  0  0  0  0  0  0  0  0  0
   -7.2020   17.8052  -30.2740 H   0  0  0  0  0  0  0  0  0  0  0  0
   -5.8812   17.0684  -31.2433 H   0  0  0  0  0  0  0  0  0  0  0  0
   -6.1089   18.8503  -31.2433 H   0  0  0  0  0  0  0  0  0  0  0  0
   -9.1780   18.6584  -33.3096 H   0  0  0  0  0  0  0  0  0  0  0  0
   -9.3720   18.2798  -31.5284 H   0  0  0  0  0  0  0  0  0  0  0  0
   -6.6903   23.2880  -33.3833 H   0  0  0  0  0  0  0  0  0  0  0  0
   -7.3365   24.1162  -31.9209 H   0  0  0  0  0  0  0  0  0  0  0  0
   -4.7268   21.6258  -32.9836 H   0  0  0  0  0  0  0  0  0  0  0  0
   -2.4545   21.5061  -31.9687 H   0  0  0  0  0  0  0  0  0  0  0  0
   -1.8572   22.9926  -30.0555 H   0  0  0  0  0  0  0  0  0  0  0  0
   -3.5330   24.6004  -29.1567 H   0  0  0  0  0  0  0  0  0  0  0  0
   -8.6670   22.6650  -30.2130 H   0  0  0  0  0  0  0  0  0  0  0  0
   -7.0393   16.6131  -34.0451 H   0  0  0  0  0  0  0  0  0  0  0  0
   -7.2866   18.4091  -34.3187 H   0  0  0  0  0  0  0  0  0  0  0  0
   -4.6041   15.8386  -33.9754 H   0  0  0  0  0  0  0  0  0  0  0  0
   -2.1861   16.8164  -33.9348 H   0  0  0  0  0  0  0  0  0  0  0  0
   -1.4297   19.0408  -31.4368 H   0  0  0  0  0  0  0  0  0  0  0  0
    0.6467   20.4058  -31.2606 H   0  0  0  0  0  0  0  0  0  0  0  0
    1.3855   21.8045  -33.1884 H   0  0  0  0  0  0  0  0  0  0  0  0
    0.0599   21.8175  -35.3012 H   0  0  0  0  0  0  0  0  0  0  0  0
   -2.0005   20.4330  -35.4966 H   0  0  0  0  0  0  0  0  0  0  0  0
  1  2  1  0
  2  3  1  0
  3  4  1  0
  4  5  2  0
  5  6  1  0
  6  7  1  0
  7  8  1  0
  8  9  2  0
  9 10  1  0
 10 11  2  0
 11 12  1  0
 12 13  2  0
 13 14  1  0
  6 15  2  0
 15 16  1  0
  2 17  1  0
 17 18  1  0
 18 19  2  0
 19 20  1  0
 20 21  2  0
 21 22  1  0
 22 23  2  0
 23 24  1  0
 24 25  2  0
 25 26  1  0
 26 27  2  0
 21 28  1  0
 16  4  1  0
 28 18  1  0
 13  8  1  0
 27 22  1  0
  1 29  1  0
  1 30  1  0
  1 31  1  0
  3 32  1  0
  3 33  1  0
  7 34  1  0
  7 35  1  0
  9 36  1  0
 10 37  1  0
 11 38  1  0
 12 39  1  0
 15 40  1  0
 17 41  1  0
 17 42  1  0
 19 43  1  0
 20 44  1  0
 23 45  1  0
 24 46  1  0
 25 47  1  0
 26 48  1  0
 27 49  1  0
M  CHG  1  15   1
M  END
>  <UniqueID>  (37) 
33

>  <SMILES>  (37) 
CN(Cc1nc(Cc2ccccc2Br)[nH+]o1)Cc1ccc(-c2ccccc2)s1

>  <Energy>  (37) 
113.72960130899621

>  <Genealogy>  (37) 
CN(Cc1nc(Cc2ccccc2Br)[nH+]o1)Cc1ccc(-c2ccccc2)s1 (protonated)
CN(Cc1nc(Cc2ccccc2Br)[nH+]o1)Cc1ccc(-c2ccccc2)s1 (3D coordinates assigned)
CN(Cc1nc(Cc2ccccc2Br)[nH+]o1)Cc1ccc(-c2ccccc2)s1 (optimized conformer: 113.72960130899621 kcal/mol)

>  <smiles>  (37) 
CN(Cc1nc(Cc2ccccc2Br)no1)Cc1ccc(-c2ccccc2)s1

>  <score_type>  (37) 
oracle

>  <origin>  (37) 
adg

>  <m_score__min__energy>  (37) 
-9.1500000000000004

>  <m_primary>  (37) 
energy

$$$$
37:0
     RDKit          3D

 39 41  0  0  0  0  0  0  0  0999 V2000
   -2.5760   20.9910  -31.2710 C   0  0  0  0  0  0  0  0  0  0  0  0
   -2.4200   22.3960  -31.1090 O   0  0  0  0  0  0  0  0  0  0  0  0
   -2.0310   23.0210  -29.9130 C   0  0  0  0  0  0  0  0  0  0  0  0
   -1.1450   22.4140  -29.0060 C   0  0  0  0  0  0  0  0  0  0  0  0
   -0.7810   23.0690  -27.8270 C   0  0  0  0  0  0  0  0  0  0  0  0
   -1.2890   24.3470  -27.5310 C   0  0  0  0  0  0  0  0  0  0  0  0
   -0.9230   25.0550  -26.2770 C   0  0  0  0  0  0  0  0  0  0  0  0
   -1.7340   26.0690  -25.7350 C   0  0  0  0  0  0  0  0  0  0  0  0
   -1.3480   26.7010  -24.5520 C   0  0  0  0  0  0  0  0  0  0  0  0
   -0.1670   26.3230  -23.9130 C   0  0  0  0  0  0  0  0  0  0  0  0
    0.6120   25.3070  -24.4690 C   0  0  0  0  0  0  0  0  0  0  0  0
    0.2210   24.7030  -25.6230 N   0  0  0  0  0  0  0  0  0  0  0  0
   -2.1850   24.9440  -28.4350 C   0  0  0  0  0  0  0  0  0  0  0  0
   -2.5540   24.2880  -29.6150 C   0  0  0  0  0  0  0  0  0  0  0  0
   -3.4870   24.9080  -30.4990 N   0  0  0  0  0  0  0  0  0  0  0  0
   -5.1670   24.9830  -30.0960 S   0  0  0  0  0  0  0  0  0  0  0  0
   -5.3320   24.9040  -28.6040 O   0  0  0  0  0  0  0  0  0  0  0  0
   -5.7310   26.2900  -30.5730 O   0  0  0  0  0  0  0  0  0  0  0  0
   -6.0230   23.6530  -30.8700 C   0  0  0  0  0  0  0  0  0  0  0  0
   -7.3050   23.2950  -30.4280 C   0  0  0  0  0  0  0  0  0  0  0  0
   -7.9630   22.2000  -30.9940 C   0  0  0  0  0  0  0  0  0  0  0  0
   -7.3450   21.4560  -32.0040 C   0  0  0  0  0  0  0  0  0  0  0  0
   -8.1670   20.0730  -32.7050 Cl  0  0  0  0  0  0  0  0  0  0  0  0
   -6.0660   21.8080  -32.4480 C   0  0  0  0  0  0  0  0  0  0  0  0
   -5.4050   22.9020  -31.8810 C   0  0  0  0  0  0  0  0  0  0  0  0
   -2.6292   20.5116  -30.2824 H   0  0  0  0  0  0  0  0  0  0  0  0
   -3.5023   20.7867  -31.8279 H   0  0  0  0  0  0  0  0  0  0  0  0
   -1.7170   20.5885  -31.8279 H   0  0  0  0  0  0  0  0  0  0  0  0
   -0.7357   21.4170  -29.2260 H   0  0  0  0  0  0  0  0  0  0  0  0
   -0.0906   22.5808  -27.1234 H   0  0  0  0  0  0  0  0  0  0  0  0
   -2.6662   26.3617  -26.2403 H   0  0  0  0  0  0  0  0  0  0  0  0
   -1.9749   27.4969  -24.1236 H   0  0  0  0  0  0  0  0  0  0  0  0
    0.1464   26.8193  -22.9827 H   0  0  0  0  0  0  0  0  0  0  0  0
    1.5430   24.9946  -23.9733 H   0  0  0  0  0  0  0  0  0  0  0  0
   -2.6007   25.9378  -28.2124 H   0  0  0  0  0  0  0  0  0  0  0  0
   -7.7939   23.8779  -29.6335 H   0  0  0  0  0  0  0  0  0  0  0  0
   -8.9685   21.9228  -30.6446 H   0  0  0  0  0  0  0  0  0  0  0  0
   -5.5801   21.2240  -33.2435 H   0  0  0  0  0  0  0  0  0  0  0  0
   -4.3976   23.1745  -32.2287 H   0  0  0  0  0  0  0  0  0  0  0  0
  1  2  1  0
  2  3  1  0
  3  4  2  0
  4  5  1  0
  5  6  2  0
  6  7  1  0
  7  8  2  0
  8  9  1  0
  9 10  2  0
 10 11  1  0
 11 12  2  0
  6 13  1  0
 13 14  2  0
 14 15  1  0
 15 16  1  0
 16 17  2  0
 16 18  2  0
 16 19  1  0
 19 20  2  0
 20 21  1  0
 21 22  2  0
 22 23  1  0
 22 24  1  0
 24 25  2  0
 14  3  1  0
 25 19  1  0
 12  7  1  0
  1 26  1  0
  1 27  1  0
  1 28  1  0
  4 29  1  0
  5 30  1  0
  8 31  1  0
  9 32  1  0
 10 33  1  0
 11 34  1  0
 13 35  1  0
 20 36  1  0
 21 37  1  0
 24 38  1  0
 25 39  1  0
M  CHG  1  15  -1
M  END
>  <UniqueID>  (38) 
34

>  <SMILES>  (38) 
COc1ccc(-c2ccccn2)cc1[N-]S(=O)(=O)c1ccc(Cl)cc1

>  <Energy>  (38) 
53.71169385491769

>  <Genealogy>  (38) 
COc1ccc(-c2ccccn2)cc1[N-]S(=O)(=O)c1ccc(Cl)cc1 (protonated)
COc1ccc(-c2ccccn2)cc1[N-]S(=O)(=O)c1ccc(Cl)cc1 (3D coordinates assigned)
COc1ccc(-c2ccccn2)cc1[N-]S(=O)(=O)c1ccc(Cl)cc1 (optimized conformer: 53.71169385491769 kcal/mol)

>  <smiles>  (38) 
COc1ccc(-c2ccccn2)cc1NS(=O)(=O)c1ccc(Cl)cc1

>  <score_type>  (38) 
oracle

>  <origin>  (38) 
adg

>  <m_score__min__energy>  (38) 
-10.27

>  <m_primary>  (38) 
energy

$$$$
38:0
     RDKit          3D

 46 49  0  0  0  0  0  0  0  0999 V2000
    0.0970   20.5710  -34.0690 C   0  0  0  0  0  0  0  0  0  0  0  0
   -0.9470   19.6930  -33.6610 O   0  0  0  0  0  0  0  0  0  0  0  0
   -2.2290   20.1120  -33.2770 C   0  0  0  0  0  0  0  0  0  0  0  0
   -2.5710   21.4580  -33.4590 C   0  0  0  0  0  0  0  0  0  0  0  0
   -3.8360   21.9250  -33.0920 C   0  0  0  0  0  0  0  0  0  0  0  0
   -4.7770   21.0510  -32.5260 C   0  0  0  0  0  0  0  0  0  0  0  0
   -6.1220   21.5400  -32.1500 C   0  0  0  0  0  0  0  0  0  0  0  0
   -7.2390   20.7990  -32.5730 C   0  0  0  0  0  0  0  0  0  0  0  0
   -8.5330   21.2560  -32.3260 C   0  0  0  0  0  0  0  0  0  0  0  0
   -8.7310   22.4620  -31.6570 C   0  0  0  0  0  0  0  0  0  0  0  0
   -7.6360   23.2070  -31.2160 C   0  0  0  0  0  0  0  0  0  0  0  0
   -6.3220   22.7540  -31.4370 C   0  0  0  0  0  0  0  0  0  0  0  0
   -5.2000   23.5450  -30.8750 C   0  0  0  0  0  0  0  0  0  0  0  0
   -4.9260   24.8220  -31.2100 N   0  0  0  0  0  0  0  0  0  0  0  0
   -3.8600   25.1270  -30.5370 O   0  0  0  0  0  0  0  0  0  0  0  0
   -3.4780   24.0950  -29.8250 C   0  0  0  0  0  0  0  0  0  0  0  0
   -2.2690   24.1030  -28.9230 C   0  0  0  0  0  0  0  0  0  0  0  0
   -1.0590   23.4050  -29.5740 C   0  0  0  0  0  0  0  0  0  0  0  0
   -1.1480   21.8750  -29.4770 C   0  0  0  0  0  0  0  0  0  0  0  0
   -1.3300   21.4570  -28.0820 N   0  0  0  0  0  0  0  0  0  0  0  0
   -2.5940   21.9760  -27.5480 C   0  0  0  0  0  0  0  0  0  0  0  0
   -2.5840   23.5100  -27.5360 C   0  0  0  0  0  0  0  0  0  0  0  0
   -4.2990   23.0430  -30.0050 N   0  0  0  0  0  0  0  0  0  0  0  0
   -4.4430   19.6990  -32.3550 C   0  0  0  0  0  0  0  0  0  0  0  0
   -3.1780   19.2320  -32.7230 C   0  0  0  0  0  0  0  0  0  0  0  0
    0.5933   20.9884  -33.1805 H   0  0  0  0  0  0  0  0  0  0  0  0
    0.8302   20.0141  -34.6709 H   0  0  0  0  0  0  0  0  0  0  0  0
   -0.3259   21.3888  -34.6709 H   0  0  0  0  0  0  0  0  0  0  0  0
   -1.8380   22.1531  -33.8943 H   0  0  0  0  0  0  0  0  0  0  0  0
   -4.0954   22.9826  -33.2475 H   0  0  0  0  0  0  0  0  0  0  0  0
   -7.0906   19.8477  -33.1050 H   0  0  0  0  0  0  0  0  0  0  0  0
   -9.3980   20.6640  -32.6595 H   0  0  0  0  0  0  0  0  0  0  0  0
   -9.7524   22.8279  -31.4759 H   0  0  0  0  0  0  0  0  0  0  0  0
   -7.8020   24.1587  -30.6899 H   0  0  0  0  0  0  0  0  0  0  0  0
   -1.9929   25.1571  -28.7726 H   0  0  0  0  0  0  0  0  0  0  0  0
   -1.0148   23.6903  -30.6354 H   0  0  0  0  0  0  0  0  0  0  0  0
   -0.1553   23.7247  -29.0344 H   0  0  0  0  0  0  0  0  0  0  0  0
   -2.0023   21.5237  -30.0743 H   0  0  0  0  0  0  0  0  0  0  0  0
   -0.2128   21.4398  -29.8591 H   0  0  0  0  0  0  0  0  0  0  0  0
   -1.3830   20.4120  -28.0670 H   0  0  0  0  0  0  0  0  0  0  0  0
   -3.4244   21.6245  -28.1780 H   0  0  0  0  0  0  0  0  0  0  0  0
   -2.7197   21.6135  -26.5171 H   0  0  0  0  0  0  0  0  0  0  0  0
   -3.5733   23.8678  -27.2145 H   0  0  0  0  0  0  0  0  0  0  0  0
   -1.7945   23.8362  -26.8430 H   0  0  0  0  0  0  0  0  0  0  0  0
   -5.1806   19.0029  -31.9291 H   0  0  0  0  0  0  0  0  0  0  0  0
   -2.9228   18.1718  -32.5790 H   0  0  0  0  0  0  0  0  0  0  0  0
  1  2  1  0
  2  3  1  0
  3  4  2  0
  4  5  1  0
  5  6  2  0
  6  7  1  0
  7  8  2  0
  8  9  1  0
  9 10  2  0
 10 11  1  0
 11 12  2  0
 12 13  1  0
 13 14  2  0
 14 15  1  0
 15 16  1  0
 16 17  1  0
 17 18  1  0
 18 19  1  0
 19 20  1  0
 20 21  1  0
 21 22  1  0
 16 23  2  0
  6 24  1  0
 24 25  2  0
 25  3  1  0
 12  7  1  0
 23 13  1  0
 22 17  1  0
  1 26  1  0
  1 27  1  0
  1 28  1  0
  4 29  1  0
  5 30  1  0
  8 31  1  0
  9 32  1  0
 10 33  1  0
 11 34  1  0
 17 35  1  0
 18 36  1  0
 18 37  1  0
 19 38  1  0
 19 39  1  0
 20 40  1  0
 21 41  1  0
 21 42  1  0
 22 43  1  0
 22 44  1  0
 24 45  1  0
 25 46  1  0
M  END
>  <UniqueID>  (39) 
35

>  <SMILES>  (39) 
COc1ccc(-c2ccccc2-c2noc(C3CCNCC3)n2)cc1

>  <Energy>  (39) 
88.50035808156898

>  <Genealogy>  (39) 
COc1ccc(-c2ccccc2-c2noc(C3CCNCC3)n2)cc1 (3D coordinates assigned)
COc1ccc(-c2ccccc2-c2noc(C3CCNCC3)n2)cc1 (nonaromatic ring conformer: 88.50035808156898 kcal/mol)

>  <smiles>  (39) 
COc1ccc(-c2ccccc2-c2noc(C3CCNCC3)n2)cc1

>  <score_type>  (39) 
oracle

>  <origin>  (39) 
adg

>  <m_score__min__energy>  (39) 
-9

>  <m_primary>  (39) 
energy

$$$$
39:0
     RDKit          3D

 35 37  0  0  0  0  0  0  0  0999 V2000
   -3.0460   17.7910  -33.6010 C   0  0  0  0  0  0  0  0  0  0  0  0
   -4.2520   18.5540  -33.1340 C   0  0  0  0  0  0  0  0  0  0  0  0
   -5.2450   17.9110  -32.3790 C   0  0  0  0  0  0  0  0  0  0  0  0
   -6.3840   18.6120  -31.9740 C   0  0  0  0  0  0  0  0  0  0  0  0
   -6.5520   19.9590  -32.3280 C   0  0  0  0  0  0  0  0  0  0  0  0
   -7.7210   20.6810  -31.9060 N   0  0  0  0  0  0  0  0  0  0  0  0
   -7.8080   21.9430  -31.4150 C   0  0  0  0  0  0  0  0  0  0  0  0
   -6.6670   22.8100  -31.0430 C   0  0  0  0  0  0  0  0  0  0  0  0
   -5.5080   22.2740  -30.4570 C   0  0  0  0  0  0  0  0  0  0  0  0
   -4.4440   23.1100  -30.1050 C   0  0  0  0  0  0  0  0  0  0  0  0
   -4.5340   24.4880  -30.3220 C   0  0  0  0  0  0  0  0  0  0  0  0
   -3.5020   25.2980  -29.9780 F   0  0  0  0  0  0  0  0  0  0  0  0
   -5.6920   25.0320  -30.8830 C   0  0  0  0  0  0  0  0  0  0  0  0
   -6.7580   24.1980  -31.2380 C   0  0  0  0  0  0  0  0  0  0  0  0
   -9.0940   22.3270  -31.2720 N   0  0  0  0  0  0  0  0  0  0  0  0
   -9.8350   21.3060  -31.6720 N   0  0  0  0  0  0  0  0  0  0  0  0
   -9.0120   20.3180  -32.0640 C   0  0  0  0  0  0  0  0  0  0  0  0
   -9.4840   19.0120  -32.6230 C   0  0  0  0  0  0  0  0  0  0  0  0
   -5.5680   20.5950  -33.1000 C   0  0  0  0  0  0  0  0  0  0  0  0
   -4.4270   19.8950  -33.5060 C   0  0  0  0  0  0  0  0  0  0  0  0
   -2.4789   17.4322  -32.7294 H   0  0  0  0  0  0  0  0  0  0  0  0
   -3.3680   16.9319  -34.2079 H   0  0  0  0  0  0  0  0  0  0  0  0
   -2.4076   18.4499  -34.2079 H   0  0  0  0  0  0  0  0  0  0  0  0
   -5.1264   16.8522  -32.1053 H   0  0  0  0  0  0  0  0  0  0  0  0
   -7.1536   18.1045  -31.3739 H   0  0  0  0  0  0  0  0  0  0  0  0
   -5.4373   21.1916  -30.2743 H   0  0  0  0  0  0  0  0  0  0  0  0
   -3.5349   22.6828  -29.6567 H   0  0  0  0  0  0  0  0  0  0  0  0
   -5.7659   26.1174  -31.0459 H   0  0  0  0  0  0  0  0  0  0  0  0
   -7.6713   24.6313  -31.6717 H   0  0  0  0  0  0  0  0  0  0  0  0
  -10.8790   21.3000  -31.6880 H   0  0  0  0  0  0  0  0  0  0  0  0
   -9.7312   18.3279  -31.7979 H   0  0  0  0  0  0  0  0  0  0  0  0
  -10.3785   19.1795  -33.2410 H   0  0  0  0  0  0  0  0  0  0  0  0
   -8.6891   18.5689  -33.2410 H   0  0  0  0  0  0  0  0  0  0  0  0
   -5.6944   21.6492  -33.3874 H   0  0  0  0  0  0  0  0  0  0  0  0
   -3.6645   20.3979  -34.1190 H   0  0  0  0  0  0  0  0  0  0  0  0
  1  2  1  0
  2  3  2  0
  3  4  1  0
  4  5  2  0
  5  6  1  0
  6  7  1  0
  7  8  1  0
  8  9  2  0
  9 10  1  0
 10 11  2  0
 11 12  1  0
 11 13  1  0
 13 14  2  0
  7 15  2  0
 15 16  1  0
 16 17  2  0
 17 18  1  0
  5 19  1  0
 19 20  2  0
 20  2  1  0
 17  6  1  0
 14  8  1  0
  1 21  1  0
  1 22  1  0
  1 23  1  0
  3 24  1  0
  4 25  1  0
  9 26  1  0
 10 27  1  0
 13 28  1  0
 14 29  1  0
 16 30  1  0
 18 31  1  0
 18 32  1  0
 18 33  1  0
 19 34  1  0
 20 35  1  0
M  CHG  1  16   1
M  END
>  <UniqueID>  (40) 
36

>  <SMILES>  (40) 
Cc1ccc(-n2c(-c3ccc(F)cc3)n[nH+]c2C)cc1

>  <Energy>  (40) 
80.17920323687831

>  <Genealogy>  (40) 
Cc1ccc(-n2c(-c3ccc(F)cc3)n[nH+]c2C)cc1 (protonated)
Cc1ccc(-n2c(-c3ccc(F)cc3)n[nH+]c2C)cc1 (3D coordinates assigned)
Cc1ccc(-n2c(-c3ccc(F)cc3)n[nH+]c2C)cc1 (optimized conformer: 80.17920323687831 kcal/mol)

>  <smiles>  (40) 
Cc1ccc(-n2c(C)nnc2-c2ccc(F)cc2)cc1

>  <score_type>  (40) 
oracle

>  <origin>  (40) 
adg

>  <m_score__min__energy>  (40) 
-7.21

>  <m_primary>  (40) 
energy

$$$$
40:0
     RDKit          3D

 36 37  0  0  0  0  0  0  0  0999 V2000
    0.0790   26.3030  -27.4350 C   0  0  0  0  0  0  0  0  0  0  0  0
   -1.2540   25.6280  -27.2940 C   0  0  0  0  0  0  0  0  0  0  0  0
   -2.0590   25.8840  -26.1750 C   0  0  0  0  0  0  0  0  0  0  0  0
   -3.3220   25.2980  -26.0700 C   0  0  0  0  0  0  0  0  0  0  0  0
   -3.7910   24.4540  -27.0790 C   0  0  0  0  0  0  0  0  0  0  0  0
   -2.9960   24.1800  -28.2030 C   0  0  0  0  0  0  0  0  0  0  0  0
   -3.5130   23.3270  -29.2390 N   0  0  0  0  0  0  0  0  0  0  0  0
   -4.1340   23.8080  -30.4420 C   0  0  0  0  0  0  0  0  0  0  0  0
   -4.0080   25.0160  -30.7870 O   0  0  0  0  0  0  0  0  0  0  0  0
   -4.8680   22.8530  -31.3430 C   0  0  2  0  0  0  0  0  0  0  0  0
   -3.9160   22.2990  -32.4050 C   0  0  0  0  0  0  0  0  0  0  0  0
   -6.2800   23.7220  -32.1250 S   0  0  0  0  0  0  0  0  0  0  0  0
   -7.3720   22.2960  -32.1460 C   0  0  0  0  0  0  0  0  0  0  0  0
   -6.9300   21.0830  -32.6890 C   0  0  0  0  0  0  0  0  0  0  0  0
   -7.7760   19.9700  -32.7000 C   0  0  0  0  0  0  0  0  0  0  0  0
   -9.0640   20.0650  -32.1630 C   0  0  0  0  0  0  0  0  0  0  0  0
   -9.5040   21.2720  -31.6100 C   0  0  0  0  0  0  0  0  0  0  0  0
   -8.6580   22.3850  -31.5980 C   0  0  0  0  0  0  0  0  0  0  0  0
   -1.7350   24.7950  -28.3170 C   0  0  0  0  0  0  0  0  0  0  0  0
    0.4916   26.5119  -26.4369 H   0  0  0  0  0  0  0  0  0  0  0  0
    0.7670   25.6446  -27.9857 H   0  0  0  0  0  0  0  0  0  0  0  0
   -0.0445   27.2472  -27.9857 H   0  0  0  0  0  0  0  0  0  0  0  0
   -1.6946   26.5483  -25.3776 H   0  0  0  0  0  0  0  0  0  0  0  0
   -3.9495   25.5017  -25.1898 H   0  0  0  0  0  0  0  0  0  0  0  0
   -4.7897   24.0011  -26.9924 H   0  0  0  0  0  0  0  0  0  0  0  0
   -3.3570   22.2990  -29.1490 H   0  0  0  0  0  0  0  0  0  0  0  0
   -5.2525   22.0081  -30.7528 H   0  0  0  0  0  0  0  0  0  0  0  0
   -3.0657   21.8042  -31.9129 H   0  0  0  0  0  0  0  0  0  0  0  0
   -4.4507   21.5710  -33.0328 H   0  0  0  0  0  0  0  0  0  0  0  0
   -3.5472   23.1235  -33.0328 H   0  0  0  0  0  0  0  0  0  0  0  0
   -5.9156   21.0059  -33.1075 H   0  0  0  0  0  0  0  0  0  0  0  0
   -7.4286   19.0195  -33.1310 H   0  0  0  0  0  0  0  0  0  0  0  0
   -9.7310   19.1904  -32.1756 H   0  0  0  0  0  0  0  0  0  0  0  0
  -10.5157   21.3456  -31.1845 H   0  0  0  0  0  0  0  0  0  0  0  0
   -9.0028   23.3321  -31.1575 H   0  0  0  0  0  0  0  0  0  0  0  0
   -1.1220   24.6218  -29.2138 H   0  0  0  0  0  0  0  0  0  0  0  0
  1  2  1  0
  2  3  2  0
  3  4  1  0
  4  5  2  0
  5  6  1  0
  6  7  1  0
  7  8  1  0
  8  9  2  0
  8 10  1  0
 10 11  1  0
 10 12  1  0
 12 13  1  0
 13 14  2  0
 14 15  1  0
 15 16  2  0
 16 17  1  0
 17 18  2  0
  6 19  2  0
 19  2  1  0
 18 13  1  0
  1 20  1  0
  1 21  1  0
  1 22  1  0
  3 23  1  0
  4 24  1  0
  5 25  1  0
  7 26  1  0
 10 27  1  1
 11 28  1  0
 11 29  1  0
 11 30  1  0
 14 31  1  0
 15 32  1  0
 16 33  1  0
 17 34  1  0
 18 35  1  0
 19 36  1  0
M  END
>  <UniqueID>  (41) 
37

>  <SMILES>  (41) 
Cc1cccc(NC(=O)[C@H](C)Sc2ccccc2)c1

>  <Energy>  (41) 
32.46171330290147

>  <Genealogy>  (41) 
Cc1cccc(NC(=O)[C@H](C)Sc2ccccc2)c1 (chirality)
Cc1cccc(NC(=O)[C@H](C)Sc2ccccc2)c1 (3D coordinates assigned)
Cc1cccc(NC(=O)[C@H](C)Sc2ccccc2)c1 (optimized conformer: 32.46171330290147 kcal/mol)

>  <smiles>  (41) 
Cc1cccc(NC(=O)C(C)Sc2ccccc2)c1

>  <score_type>  (41) 
oracle

>  <origin>  (41) 
adg

>  <m_score__min__energy>  (41) 
-8.1400000000000006

>  <m_primary>  (41) 
energy

$$$$
41:0
     RDKit          3D

 33 35  0  0  0  0  0  0  0  0999 V2000
   -1.2070   21.2520  -30.6080 C   0  0  0  0  0  0  0  0  0  0  0  0
   -1.8460   22.5530  -30.2370 C   0  0  0  0  0  0  0  0  0  0  0  0
   -1.2170   23.4220  -29.3410 C   0  0  0  0  0  0  0  0  0  0  0  0
   -1.8490   24.6260  -29.0240 C   0  0  0  0  0  0  0  0  0  0  0  0
   -1.2140   25.5890  -28.0710 C   0  0  0  0  0  0  0  0  0  0  0  0
   -3.0480   24.9250  -29.5900 N   0  0  0  0  0  0  0  0  0  0  0  0
   -3.6530   24.0730  -30.4630 C   0  0  0  0  0  0  0  0  0  0  0  0
   -4.8010   24.3540  -31.0050 N   0  0  0  0  0  0  0  0  0  0  0  0
   -5.8520   23.4460  -31.3800 C   0  0  0  0  0  0  0  0  0  0  0  0
   -5.5990   22.1790  -31.7710 N   0  0  0  0  0  0  0  0  0  0  0  0
   -6.7320   21.4880  -32.0930 C   0  0  0  0  0  0  0  0  0  0  0  0
   -6.7290   20.0800  -32.5610 C   0  0  0  0  0  0  0  0  0  0  0  0
   -7.6220   19.1230  -32.0470 C   0  0  0  0  0  0  0  0  0  0  0  0
   -7.5770   17.8120  -32.5260 C   0  0  0  0  0  0  0  0  0  0  0  0
   -6.6530   17.4610  -33.5100 C   0  0  0  0  0  0  0  0  0  0  0  0
   -5.7850   18.4330  -34.0060 C   0  0  0  0  0  0  0  0  0  0  0  0
   -5.8430   19.7050  -33.5280 N   0  0  0  0  0  0  0  0  0  0  0  0
   -7.9090   22.2280  -31.9620 C   0  0  0  0  0  0  0  0  0  0  0  0
   -7.5050   23.7690  -31.4240 S   0  0  0  0  0  0  0  0  0  0  0  0
   -3.0470   22.8980  -30.7760 N   0  0  0  0  0  0  0  0  0  0  0  0
   -0.9370   20.7023  -29.6942 H   0  0  0  0  0  0  0  0  0  0  0  0
   -1.9132   20.6526  -31.2013 H   0  0  0  0  0  0  0  0  0  0  0  0
   -0.3009   21.4445  -31.2013 H   0  0  0  0  0  0  0  0  0  0  0  0
   -0.2453   23.1630  -28.8953 H   0  0  0  0  0  0  0  0  0  0  0  0
   -1.4220   25.2735  -27.0379 H   0  0  0  0  0  0  0  0  0  0  0  0
   -0.1268   25.6063  -28.2372 H   0  0  0  0  0  0  0  0  0  0  0  0
   -1.6264   26.5951  -28.2372 H   0  0  0  0  0  0  0  0  0  0  0  0
   -4.6290   21.7990  -31.8350 H   0  0  0  0  0  0  0  0  0  0  0  0
   -8.3509   19.4051  -31.2730 H   0  0  0  0  0  0  0  0  0  0  0  0
   -8.2700   17.0565  -32.1274 H   0  0  0  0  0  0  0  0  0  0  0  0
   -6.6095   16.4297  -33.8902 H   0  0  0  0  0  0  0  0  0  0  0  0
   -5.0530   18.1709  -34.7842 H   0  0  0  0  0  0  0  0  0  0  0  0
   -8.9255   21.8652  -32.1742 H   0  0  0  0  0  0  0  0  0  0  0  0
  1  2  1  0
  2  3  1  0
  3  4  2  0
  4  5  1  0
  4  6  1  0
  6  7  1  0
  7  8  2  3
  8  9  1  0
  9 10  2  0
 10 11  1  0
 11 12  1  0
 12 13  2  0
 13 14  1  0
 14 15  2  0
 15 16  1  0
 16 17  2  0
 11 18  2  0
 18 19  1  0
  7 20  1  0
 20  2  2  0
 19  9  1  0
 17 12  1  0
  1 21  1  0
  1 22  1  0
  1 23  1  0
  3 24  1  0
  5 25  1  0
  5 26  1  0
  5 27  1  0
 10 28  1  0
 13 29  1  0
 14 30  1  0
 15 31  1  0
 16 32  1  0
 18 33  1  0
M  CHG  2   6  -1  10   1
M  END
>  <UniqueID>  (42) 
38

>  <SMILES>  (42) 
Cc1cc(C)[n-]c(=Nc2[nH+]c(-c3ccccn3)cs2)n1

>  <Energy>  (42) 
69.54015770624788

>  <Genealogy>  (42) 
Cc1cc(C)[n-]c(=Nc2[nH+]c(-c3ccccn3)cs2)n1 (protonated)
Cc1cc(C)[n-]c(=Nc2[nH+]c(-c3ccccn3)cs2)n1 (3D coordinates assigned)
Cc1cc(C)[n-]c(=Nc2[nH+]c(-c3ccccn3)cs2)n1 (optimized conformer: 69.54015770624788 kcal/mol)

>  <smiles>  (42) 
Cc1cc(C)[nH]c(=Nc2nc(-c3ccccn3)cs2)n1

>  <score_type>  (42) 
oracle

>  <origin>  (42) 
adg

>  <m_score__min__energy>  (42) 
-7.4800000000000004

>  <m_primary>  (42) 
energy

$$$$
42:0
     RDKit          3D

 31 33  0  0  0  0  0  0  0  0999 V2000
   -1.4000   25.1990  -27.9950 C   0  0  0  0  0  0  0  0  0  0  0  0
   -1.9610   25.3000  -29.3000 O   0  0  0  0  0  0  0  0  0  0  0  0
   -3.0580   24.5500  -29.7500 C   0  0  0  0  0  0  0  0  0  0  0  0
   -4.2560   25.2210  -30.0180 C   0  0  0  0  0  0  0  0  0  0  0  0
   -5.3780   24.5210  -30.4700 C   0  0  0  0  0  0  0  0  0  0  0  0
   -5.3190   23.1280  -30.6710 C   0  0  0  0  0  0  0  0  0  0  0  0
   -6.4970   22.3560  -31.1410 C   0  0  0  0  0  0  0  0  0  0  0  0
   -7.6870   22.9890  -31.5430 C   0  0  0  0  0  0  0  0  0  0  0  0
   -8.7620   22.2130  -31.9770 C   0  0  0  0  0  0  0  0  0  0  0  0
   -9.8320   22.7770  -32.3380 O   0  0  0  0  0  0  0  0  0  0  0  0
   -8.6360   20.8160  -32.0080 C   0  0  0  0  0  0  0  0  0  0  0  0
   -9.6800   19.9750  -32.4350 C   0  0  0  0  0  0  0  0  0  0  0  0
   -9.5000   18.5880  -32.4510 C   0  0  0  0  0  0  0  0  0  0  0  0
   -8.2830   18.0320  -32.0470 C   0  0  0  0  0  0  0  0  0  0  0  0
   -7.2390   18.8600  -31.6230 C   0  0  0  0  0  0  0  0  0  0  0  0
   -7.4090   20.2480  -31.6000 C   0  0  0  0  0  0  0  0  0  0  0  0
   -6.4100   21.0270  -31.1940 O   0  0  0  0  0  0  0  0  0  0  0  0
   -4.1180   22.4550  -30.3880 C   0  0  0  0  0  0  0  0  0  0  0  0
   -2.9960   23.1580  -29.9370 C   0  0  0  0  0  0  0  0  0  0  0  0
   -2.1909   25.3414  -27.2439 H   0  0  0  0  0  0  0  0  0  0  0  0
   -0.9470   24.2049  -27.8666 H   0  0  0  0  0  0  0  0  0  0  0  0
   -0.6287   25.9727  -27.8666 H   0  0  0  0  0  0  0  0  0  0  0  0
   -4.3154   26.3096  -29.8716 H   0  0  0  0  0  0  0  0  0  0  0  0
   -6.3145   25.0621  -30.6704 H   0  0  0  0  0  0  0  0  0  0  0  0
   -7.7692   24.0856  -31.5154 H   0  0  0  0  0  0  0  0  0  0  0  0
  -10.6385   20.4086  -32.7565 H   0  0  0  0  0  0  0  0  0  0  0  0
  -10.3189   17.9327  -32.7826 H   0  0  0  0  0  0  0  0  0  0  0  0
   -8.1462   16.9407  -32.0626 H   0  0  0  0  0  0  0  0  0  0  0  0
   -6.2822   18.4188  -31.3069 H   0  0  0  0  0  0  0  0  0  0  0  0
   -4.0598   21.3648  -30.5225 H   0  0  0  0  0  0  0  0  0  0  0  0
   -2.0603   22.6189  -29.7276 H   0  0  0  0  0  0  0  0  0  0  0  0
  1  2  1  0
  2  3  1  0
  3  4  2  0
  4  5  1  0
  5  6  2  0
  6  7  1  0
  7  8  2  0
  8  9  1  0
  9 10  2  0
  9 11  1  0
 11 12  2  0
 12 13  1  0
 13 14  2  0
 14 15  1  0
 15 16  2  0
 16 17  1  0
  6 18  1  0
 18 19  2  0
 19  3  1  0
 17  7  1  0
 16 11  1  0
  1 20  1  0
  1 21  1  0
  1 22  1  0
  4 23  1  0
  5 24  1  0
  8 25  1  0
 12 26  1  0
 13 27  1  0
 14 28  1  0
 15 29  1  0
 18 30  1  0
 19 31  1  0
M  END
>  <UniqueID>  (43) 
39

>  <SMILES>  (43) 
COc1ccc(-c2cc(=O)c3ccccc3o2)cc1

>  <Energy>  (43) 
41.87605023071054

>  <Genealogy>  (43) 
COc1ccc(-c2cc(=O)c3ccccc3o2)cc1 (3D coordinates assigned)
COc1ccc(-c2cc(=O)c3ccccc3o2)cc1 (optimized conformer: 41.87605023071054 kcal/mol)

>  <smiles>  (43) 
COc1ccc(-c2cc(=O)c3ccccc3o2)cc1

>  <score_type>  (43) 
oracle

>  <origin>  (43) 
adg

>  <m_score__min__energy>  (43) 
-7.0899999999999999

>  <m_primary>  (43) 
energy

$$$$
43:0
     RDKit          3D

 35 35  0  0  0  0  0  0  0  0999 V2000
   -1.9250   20.0600  -27.3330 C   0  0  0  0  0  0  0  0  0  0  0  0
   -1.4740   20.7800  -28.4760 O   0  0  0  0  0  0  0  0  0  0  0  0
   -2.0770   21.9470  -28.9640 C   0  0  0  0  0  0  0  0  0  0  0  0
   -3.2530   21.8250  -29.7120 C   0  0  0  0  0  0  0  0  0  0  0  0
   -3.8870   22.9560  -30.2300 C   0  0  0  0  0  0  0  0  0  0  0  0
   -3.3570   24.2390  -29.9990 C   0  0  0  0  0  0  0  0  0  0  0  0
   -3.9420   25.3950  -30.5420 O   0  0  0  0  0  0  0  0  0  0  0  0
   -5.3360   25.6830  -30.5140 C   0  0  0  0  0  0  0  0  0  0  0  0
   -2.1940   24.3690  -29.2140 C   0  0  0  0  0  0  0  0  0  0  0  0
   -1.6160   25.6540  -28.9520 N   0  0  0  0  0  0  0  0  0  0  0  0
   -0.8730   26.0090  -27.7800 C   0  0  0  0  0  0  0  0  0  0  0  0
    0.3850   26.0090  -27.8370 O   0  0  0  0  0  0  0  0  0  0  0  0
   -1.5490   26.2960  -26.4540 C   0  0  0  0  0  0  0  0  0  0  0  0
   -0.6110   26.3380  -25.3070 N   0  0  0  0  0  0  0  0  0  0  0  0
   -0.8080   27.5350  -24.4700 C   0  0  0  0  0  0  0  0  0  0  0  0
   -0.6700   25.1130  -24.4900 C   0  0  0  0  0  0  0  0  0  0  0  0
   -1.5450   23.2280  -28.7290 C   0  0  0  0  0  0  0  0  0  0  0  0
   -1.5993   20.5800  -26.4200 H   0  0  0  0  0  0  0  0  0  0  0  0
   -3.0232   19.9987  -27.3481 H   0  0  0  0  0  0  0  0  0  0  0  0
   -1.5009   19.0452  -27.3481 H   0  0  0  0  0  0  0  0  0  0  0  0
   -3.6822   20.8286  -29.8937 H   0  0  0  0  0  0  0  0  0  0  0  0
   -4.8069   22.8434  -30.8226 H   0  0  0  0  0  0  0  0  0  0  0  0
   -5.6750   25.7530  -29.4699 H   0  0  0  0  0  0  0  0  0  0  0  0
   -5.5233   26.6388  -31.0252 H   0  0  0  0  0  0  0  0  0  0  0  0
   -5.8867   24.8797  -31.0252 H   0  0  0  0  0  0  0  0  0  0  0  0
   -2.0552   27.2700  -26.5252 H   0  0  0  0  0  0  0  0  0  0  0  0
   -2.2527   25.4719  -26.2654 H   0  0  0  0  0  0  0  0  0  0  0  0
    0.3570   26.3960  -25.7060 H   0  0  0  0  0  0  0  0  0  0  0  0
   -0.7614   27.2516  -23.4081 H   0  0  0  0  0  0  0  0  0  0  0  0
   -0.0186   28.2692  -24.6886 H   0  0  0  0  0  0  0  0  0  0  0  0
   -1.7911   27.9775  -24.6886 H   0  0  0  0  0  0  0  0  0  0  0  0
   -0.6570   25.3825  -23.4236 H   0  0  0  0  0  0  0  0  0  0  0  0
   -1.5956   24.5642  -24.7183 H   0  0  0  0  0  0  0  0  0  0  0  0
    0.1986   24.4778  -24.7183 H   0  0  0  0  0  0  0  0  0  0  0  0
   -0.6103   23.3337  -28.1588 H   0  0  0  0  0  0  0  0  0  0  0  0
  1  2  1  0
  2  3  1  0
  3  4  2  0
  4  5  1  0
  5  6  2  0
  6  7  1  0
  7  8  1  0
  6  9  1  0
  9 10  1  0
 10 11  1  0
 11 12  2  0
 11 13  1  0
 13 14  1  0
 14 15  1  0
 14 16  1  0
  9 17  2  0
 17  3  1  0
  1 18  1  0
  1 19  1  0
  1 20  1  0
  4 21  1  0
  5 22  1  0
  8 23  1  0
  8 24  1  0
  8 25  1  0
 13 26  1  0
 13 27  1  0
 14 28  1  0
 15 29  1  0
 15 30  1  0
 15 31  1  0
 16 32  1  0
 16 33  1  0
 16 34  1  0
 17 35  1  0
M  CHG  2  10  -1  14   1
M  END
>  <UniqueID>  (44) 
40

>  <SMILES>  (44) 
COc1ccc(OC)c([N-]C(=O)C[NH+](C)C)c1

>  <Energy>  (44) 
38.729817401770525

>  <Genealogy>  (44) 
COc1ccc(OC)c([N-]C(=O)C[NH+](C)C)c1 (protonated)
COc1ccc(OC)c([N-]C(=O)C[NH+](C)C)c1 (3D coordinates assigned)
COc1ccc(OC)c([N-]C(=O)C[NH+](C)C)c1 (optimized conformer: 38.729817401770525 kcal/mol)

>  <smiles>  (44) 
COc1ccc(OC)c(NC(=O)CN(C)C)c1

>  <score_type>  (44) 
oracle

>  <origin>  (44) 
adg

>  <m_score__min__energy>  (44) 
-6.5499999999999998

>  <m_primary>  (44) 
energy

$$$$
44:0
     RDKit          3D

 44 46  0  0  0  0  0  0  0  0999 V2000
   -3.4010   18.8970  -26.2590 C   0  0  0  0  0  0  0  0  0  0  0  0
   -1.9740   19.3340  -26.3700 C   0  0  0  0  0  0  0  0  0  0  0  0
   -1.5960   20.3300  -25.7760 O   0  0  0  0  0  0  0  0  0  0  0  0
   -0.8050   18.3950  -27.3610 S   0  0  0  0  0  0  0  0  0  0  0  0
    0.2370   19.8370  -27.7940 C   0  0  0  0  0  0  0  0  0  0  0  0
   -0.3660   20.6360  -28.9170 C   0  0  0  0  0  0  0  0  0  0  0  0
    0.1430   20.5330  -30.0670 O   0  0  0  0  0  0  0  0  0  0  0  0
   -1.5040   21.5640  -28.7030 C   0  0  0  0  0  0  0  0  0  0  0  0
   -2.8010   21.1850  -29.0960 C   0  0  0  0  0  0  0  0  0  0  0  0
   -3.8620   22.0910  -29.0080 C   0  0  0  0  0  0  0  0  0  0  0  0
   -3.6470   23.3880  -28.5250 C   0  0  0  0  0  0  0  0  0  0  0  0
   -4.7090   24.3510  -28.5790 N   0  0  0  0  0  0  0  0  0  0  0  0
   -5.3390   24.9260  -30.0920 S   0  0  0  0  0  0  0  0  0  0  0  0
   -6.4810   25.8670  -29.8360 O   0  0  0  0  0  0  0  0  0  0  0  0
   -4.2510   25.6560  -30.8300 O   0  0  0  0  0  0  0  0  0  0  0  0
   -5.9280   23.5620  -31.0420 C   0  0  0  0  0  0  0  0  0  0  0  0
   -5.0570   22.8400  -31.8710 C   0  0  0  0  0  0  0  0  0  0  0  0
   -5.5000   21.6870  -32.5250 C   0  0  0  0  0  0  0  0  0  0  0  0
   -6.8170   21.2390  -32.3530 C   0  0  0  0  0  0  0  0  0  0  0  0
   -7.2620   20.0650  -32.9790 C   0  0  0  0  0  0  0  0  0  0  0  0
   -8.5740   19.6210  -32.7890 C   0  0  0  0  0  0  0  0  0  0  0  0
   -9.4500   20.3480  -31.9780 C   0  0  0  0  0  0  0  0  0  0  0  0
   -9.0210   21.5210  -31.3510 C   0  0  0  0  0  0  0  0  0  0  0  0
   -7.7040   21.9730  -31.5300 C   0  0  0  0  0  0  0  0  0  0  0  0
   -7.2550   23.1360  -30.8880 C   0  0  0  0  0  0  0  0  0  0  0  0
   -2.3720   23.7410  -28.0550 C   0  0  0  0  0  0  0  0  0  0  0  0
   -1.3090   22.8420  -28.1530 C   0  0  0  0  0  0  0  0  0  0  0  0
   -3.6771   18.8125  -25.1976 H   0  0  0  0  0  0  0  0  0  0  0  0
   -4.0504   19.6374  -26.7489 H   0  0  0  0  0  0  0  0  0  0  0  0
   -3.5244   17.9199  -26.7489 H   0  0  0  0  0  0  0  0  0  0  0  0
    0.3380   20.4833  -26.9097 H   0  0  0  0  0  0  0  0  0  0  0  0
    1.2192   19.4666  -28.1228 H   0  0  0  0  0  0  0  0  0  0  0  0
   -2.9813   20.1683  -29.4753 H   0  0  0  0  0  0  0  0  0  0  0  0
   -4.8711   21.7836  -29.3198 H   0  0  0  0  0  0  0  0  0  0  0  0
   -5.2910   24.5150  -27.7270 H   0  0  0  0  0  0  0  0  0  0  0  0
   -4.0206   23.1827  -32.0070 H   0  0  0  0  0  0  0  0  0  0  0  0
   -4.8123   21.1288  -33.1774 H   0  0  0  0  0  0  0  0  0  0  0  0
   -6.5767   19.4922  -33.6211 H   0  0  0  0  0  0  0  0  0  0  0  0
   -8.9175   18.6978  -33.2787 H   0  0  0  0  0  0  0  0  0  0  0  0
  -10.4817   19.9953  -31.8326 H   0  0  0  0  0  0  0  0  0  0  0  0
   -9.7160   22.0907  -30.7166 H   0  0  0  0  0  0  0  0  0  0  0  0
   -7.9471   23.7169  -30.2606 H   0  0  0  0  0  0  0  0  0  0  0  0
   -2.2099   24.7323  -27.6067 H   0  0  0  0  0  0  0  0  0  0  0  0
   -0.3107   23.1363  -27.7968 H   0  0  0  0  0  0  0  0  0  0  0  0
  1  2  1  0
  2  3  2  0
  2  4  1  0
  4  5  1  0
  5  6  1  0
  6  7  2  0
  6  8  1  0
  8  9  2  0
  9 10  1  0
 10 11  2  0
 11 12  1  0
 12 13  1  0
 13 14  2  0
 13 15  2  0
 13 16  1  0
 16 17  2  0
 17 18  1  0
 18 19  2  0
 19 20  1  0
 20 21  2  0
 21 22  1  0
 22 23  2  0
 23 24  1  0
 24 25  2  0
 11 26  1  0
 26 27  2  0
 27  8  1  0
 25 16  1  0
 24 19  1  0
  1 28  1  0
  1 29  1  0
  1 30  1  0
  5 31  1  0
  5 32  1  0
  9 33  1  0
 10 34  1  0
 12 35  1  0
 17 36  1  0
 18 37  1  0
 20 38  1  0
 21 39  1  0
 22 40  1  0
 23 41  1  0
 25 42  1  0
 26 43  1  0
 27 44  1  0
M  END
>  <UniqueID>  (45) 
41

>  <SMILES>  (45) 
CC(=O)SCC(=O)c1ccc(NS(=O)(=O)c2ccc3ccccc3c2)cc1

>  <Energy>  (45) 
44.80126192075777

>  <Genealogy>  (45) 
CC(=O)SCC(=O)c1ccc(NS(=O)(=O)c2ccc3ccccc3c2)cc1 (3D coordinates assigned)
CC(=O)SCC(=O)c1ccc(NS(=O)(=O)c2ccc3ccccc3c2)cc1 (optimized conformer: 44.80126192075777 kcal/mol)

>  <smiles>  (45) 
CC(=O)SCC(=O)c1ccc(NS(=O)(=O)c2ccc3ccccc3c2)cc1

>  <score_type>  (45) 
oracle

>  <origin>  (45) 
adg

>  <m_score__min__energy>  (45) 
-10.43

>  <m_primary>  (45) 
energy

$$$$
45:0
     RDKit          3D

 43 45  0  0  0  0  0  0  0  0999 V2000
   -5.3260   25.1430  -30.1120 C   0  0  0  0  0  0  0  0  0  0  0  0
   -4.0130   24.7570  -30.5030 O   0  0  0  0  0  0  0  0  0  0  0  0
   -3.6220   23.4390  -30.7880 C   0  0  0  0  0  0  0  0  0  0  0  0
   -4.1140   22.7360  -31.9050 C   0  0  0  0  0  0  0  0  0  0  0  0
   -3.7000   21.4240  -32.1510 C   0  0  0  0  0  0  0  0  0  0  0  0
   -2.7940   20.8010  -31.2920 C   0  0  0  0  0  0  0  0  0  0  0  0
   -2.3000   21.4880  -30.1810 C   0  0  0  0  0  0  0  0  0  0  0  0
   -2.7090   22.8030  -29.9260 C   0  0  0  0  0  0  0  0  0  0  0  0
   -2.1900   23.4920  -28.7810 N   0  0  0  0  0  0  0  0  0  0  0  0
   -1.7160   24.8630  -28.9520 C   0  0  0  0  0  0  0  0  0  0  0  0
   -0.6790   25.2130  -27.8780 C   0  0  0  0  0  0  0  0  0  0  0  0
   -1.1000   24.8130  -26.5210 N   0  0  0  0  0  0  0  0  0  0  0  0
   -1.7530   25.8460  -25.6900 C   0  0  0  0  0  0  0  0  0  0  0  0
   -0.7900   26.6710  -24.8700 C   0  0  0  0  0  0  0  0  0  0  0  0
   -0.5050   27.9980  -25.2220 C   0  0  0  0  0  0  0  0  0  0  0  0
    0.3920   28.7460  -24.4580 C   0  0  0  0  0  0  0  0  0  0  0  0
    1.0140   28.1540  -23.3580 C   0  0  0  0  0  0  0  0  0  0  0  0
    0.7510   26.8570  -23.0420 N   0  0  0  0  0  0  0  0  0  0  0  0
   -0.1190   26.1090  -23.7730 C   0  0  0  0  0  0  0  0  0  0  0  0
   -1.6050   23.4320  -26.3920 C   0  0  0  0  0  0  0  0  0  0  0  0
   -2.6470   23.0770  -27.4570 C   0  0  0  0  0  0  0  0  0  0  0  0
   -5.3909   25.1621  -29.0141 H   0  0  0  0  0  0  0  0  0  0  0  0
   -5.5476   26.1443  -30.5099 H   0  0  0  0  0  0  0  0  0  0  0  0
   -6.0542   24.4209  -30.5099 H   0  0  0  0  0  0  0  0  0  0  0  0
   -4.8274   23.2219  -32.5869 H   0  0  0  0  0  0  0  0  0  0  0  0
   -4.0896   20.8808  -33.0246 H   0  0  0  0  0  0  0  0  0  0  0  0
   -2.4689   19.7689  -31.4898 H   0  0  0  0  0  0  0  0  0  0  0  0
   -1.5872   20.9946  -29.5039 H   0  0  0  0  0  0  0  0  0  0  0  0
   -1.2558   24.9652  -29.9459 H   0  0  0  0  0  0  0  0  0  0  0  0
   -2.5710   25.5485  -28.8565 H   0  0  0  0  0  0  0  0  0  0  0  0
    0.2631   24.6989  -28.1190 H   0  0  0  0  0  0  0  0  0  0  0  0
   -0.5602   26.3066  -27.8778 H   0  0  0  0  0  0  0  0  0  0  0  0
   -2.3106   26.5230  -26.3539 H   0  0  0  0  0  0  0  0  0  0  0  0
   -2.4062   25.3181  -24.9796 H   0  0  0  0  0  0  0  0  0  0  0  0
   -0.9886   28.4497  -26.1007 H   0  0  0  0  0  0  0  0  0  0  0  0
    0.6067   29.7924  -24.7205 H   0  0  0  0  0  0  0  0  0  0  0  0
    1.7179   28.7367  -22.7456 H   0  0  0  0  0  0  0  0  0  0  0  0
    1.2310   26.4250  -22.2200 H   0  0  0  0  0  0  0  0  0  0  0  0
   -0.2975   25.0578  -23.5027 H   0  0  0  0  0  0  0  0  0  0  0  0
   -0.7568   22.7379  -26.4856 H   0  0  0  0  0  0  0  0  0  0  0  0
   -2.0947   23.3497  -25.4104 H   0  0  0  0  0  0  0  0  0  0  0  0
   -2.8098   21.9891  -27.4552 H   0  0  0  0  0  0  0  0  0  0  0  0
   -3.5852   23.6022  -27.2246 H   0  0  0  0  0  0  0  0  0  0  0  0
  1  2  1  0
  2  3  1  0
  3  4  2  0
  4  5  1  0
  5  6  2  0
  6  7  1  0
  7  8  2  0
  8  9  1  0
  9 10  1  0
 10 11  1  0
 11 12  1  0
 12 13  1  0
 13 14  1  0
 14 15  2  0
 15 16  1  0
 16 17  2  0
 17 18  1  0
 18 19  2  0
 12 20  1  0
 20 21  1  0
  8  3  1  0
 21  9  1  0
 19 14  1  0
  1 22  1  0
  1 23  1  0
  1 24  1  0
  4 25  1  0
  5 26  1  0
  6 27  1  0
  7 28  1  0
 10 29  1  0
 10 30  1  0
 11 31  1  0
 11 32  1  0
 13 33  1  0
 13 34  1  0
 15 35  1  0
 16 36  1  0
 17 37  1  0
 18 38  1  0
 19 39  1  0
 20 40  1  0
 20 41  1  0
 21 42  1  0
 21 43  1  0
M  CHG  1  18   1
M  END
>  <UniqueID>  (46) 
42

>  <SMILES>  (46) 
COc1ccccc1N1CCN(Cc2ccc[nH+]c2)CC1

>  <Energy>  (46) 
56.29449572003996

>  <Genealogy>  (46) 
COc1ccccc1N1CCN(Cc2ccc[nH+]c2)CC1 (protonated)
COc1ccccc1N1CCN(Cc2ccc[nH+]c2)CC1 (3D coordinates assigned)
COc1ccccc1N1CCN(Cc2ccc[nH+]c2)CC1 (nonaromatic ring conformer: 56.29449572003996 kcal/mol)

>  <smiles>  (46) 
COc1ccccc1N1CCN(Cc2cccnc2)CC1

>  <score_type>  (46) 
oracle

>  <origin>  (46) 
adg

>  <m_score__min__energy>  (46) 
-7.5199999999999996

>  <m_primary>  (46) 
energy

$$$$
46:0
     RDKit          3D

 33 35  0  0  0  0  0  0  0  0999 V2000
   -5.7360   25.9230  -30.0970 C   0  0  0  0  0  0  0  0  0  0  0  0
   -5.7810   24.5590  -30.7080 C   0  0  0  0  0  0  0  0  0  0  0  0
   -6.9520   23.7930  -30.6420 C   0  0  0  0  0  0  0  0  0  0  0  0
   -6.9710   22.5130  -31.2000 C   0  0  0  0  0  0  0  0  0  0  0  0
   -5.8210   22.0060  -31.8250 C   0  0  0  0  0  0  0  0  0  0  0  0
   -5.7610   20.7270  -32.4070 C   0  0  0  0  0  0  0  0  0  0  0  0
   -6.9080   19.8720  -32.4550 N   0  0  0  0  0  0  0  0  0  0  0  0
   -7.0440   18.7020  -31.6070 C   0  0  0  0  0  0  0  0  0  0  0  0
   -8.4400   18.1650  -31.8850 C   0  0  0  0  0  0  0  0  0  0  0  0
   -9.2120   19.3200  -32.5200 C   0  0  0  0  0  0  0  0  0  0  0  0
   -8.1600   20.2790  -33.0640 C   0  0  0  0  0  0  0  0  0  0  0  0
   -4.5880   20.2930  -32.9420 N   0  0  0  0  0  0  0  0  0  0  0  0
   -3.4780   21.0770  -32.9550 C   0  0  0  0  0  0  0  0  0  0  0  0
   -2.2010   20.5530  -33.5210 C   0  0  0  0  0  0  0  0  0  0  0  0
   -3.5160   22.3180  -32.4020 N   0  0  0  0  0  0  0  0  0  0  0  0
   -4.6560   22.8000  -31.8450 C   0  0  0  0  0  0  0  0  0  0  0  0
   -4.6670   24.0410  -31.2920 N   0  0  0  0  0  0  0  0  0  0  0  0
   -5.7389   25.8339  -29.0006 H   0  0  0  0  0  0  0  0  0  0  0  0
   -4.8203   26.4396  -30.4205 H   0  0  0  0  0  0  0  0  0  0  0  0
   -6.6156   26.4989  -30.4205 H   0  0  0  0  0  0  0  0  0  0  0  0
   -7.8510   24.1972  -30.1537 H   0  0  0  0  0  0  0  0  0  0  0  0
   -7.8852   21.9034  -31.1498 H   0  0  0  0  0  0  0  0  0  0  0  0
   -6.2836   17.9497  -31.8635 H   0  0  0  0  0  0  0  0  0  0  0  0
   -6.9030   18.9473  -30.5440 H   0  0  0  0  0  0  0  0  0  0  0  0
   -8.3911   17.3110  -32.5766 H   0  0  0  0  0  0  0  0  0  0  0  0
   -8.9275   17.8098  -30.9651 H   0  0  0  0  0  0  0  0  0  0  0  0
   -9.8506   18.9502  -33.3358 H   0  0  0  0  0  0  0  0  0  0  0  0
   -9.8696   19.8148  -31.7901 H   0  0  0  0  0  0  0  0  0  0  0  0
   -8.0978   20.1994  -34.1593 H   0  0  0  0  0  0  0  0  0  0  0  0
   -8.4044   21.3258  -32.8307 H   0  0  0  0  0  0  0  0  0  0  0  0
   -1.5231   20.2748  -32.7006 H   0  0  0  0  0  0  0  0  0  0  0  0
   -2.4101   19.6680  -34.1399 H   0  0  0  0  0  0  0  0  0  0  0  0
   -1.7282   21.3298  -34.1399 H   0  0  0  0  0  0  0  0  0  0  0  0
  1  2  1  0
  2  3  2  0
  3  4  1  0
  4  5  2  0
  5  6  1  0
  6  7  1  0
  7  8  1  0
  8  9  1  0
  9 10  1  0
 10 11  1  0
  6 12  2  0
 12 13  1  0
 13 14  1  0
 13 15  2  0
 15 16  1  0
 16 17  2  0
 17  2  1  0
 16  5  1  0
 11  7  1  0
  1 18  1  0
  1 19  1  0
  1 20  1  0
  3 21  1  0
  4 22  1  0
  8 23  1  0
  8 24  1  0
  9 25  1  0
  9 26  1  0
 10 27  1  0
 10 28  1  0
 11 29  1  0
 11 30  1  0
 14 31  1  0
 14 32  1  0
 14 33  1  0
M  END
>  <UniqueID>  (47) 
43

>  <SMILES>  (47) 
Cc1ccc2c(N3CCCC3)nc(C)nc2n1

>  <Energy>  (47) 
41.55744912052357

>  <Genealogy>  (47) 
Cc1ccc2c(N3CCCC3)nc(C)nc2n1 (3D coordinates assigned)
Cc1ccc2c(N3CCCC3)nc(C)nc2n1 (nonaromatic ring conformer: 41.55744912052357 kcal/mol)

>  <smiles>  (47) 
Cc1ccc2c(N3CCCC3)nc(C)nc2n1

>  <score_type>  (47) 
oracle

>  <origin>  (47) 
adg

>  <m_score__min__energy>  (47) 
-7.2599999999999998

>  <m_primary>  (47) 
energy

$$$$
47:0
     RDKit          3D

 48 50  0  0  0  0  0  0  0  0999 V2000
   -5.4660   18.0430  -34.5500 C   0  0  0  0  0  0  0  0  0  0  0  0
   -6.4920   19.1050  -34.1730 C   0  0  0  0  0  0  0  0  0  0  0  0
   -6.6620   19.1730  -32.7150 N   0  0  0  0  0  0  0  0  0  0  0  0
   -7.3870   18.1160  -31.9980 C   0  0  0  0  0  0  0  0  0  0  0  0
   -8.8780   18.4310  -31.9530 C   0  0  0  0  0  0  0  0  0  0  0  0
   -6.0230   20.2210  -31.9690 C   0  0  0  0  0  0  0  0  0  0  0  0
   -4.6730   20.0890  -31.6150 C   0  0  0  0  0  0  0  0  0  0  0  0
   -4.0270   21.0950  -30.8950 C   0  0  0  0  0  0  0  0  0  0  0  0
   -4.7220   22.2550  -30.5150 C   0  0  0  0  0  0  0  0  0  0  0  0
   -4.0710   23.2890  -29.7500 N   0  0  0  0  0  0  0  0  0  0  0  0
   -3.4590   23.1140  -28.4380 C   0  0  0  0  0  0  0  0  0  0  0  0
   -2.7030   24.4460  -28.1550 C   0  0  1  0  0  0  0  0  0  0  0  0
   -1.1860   24.2550  -28.0820 C   0  0  0  0  0  0  0  0  0  0  0  0
   -0.6870   23.7460  -29.3540 N   0  0  0  0  0  0  0  0  0  0  0  0
   -0.7800   22.3950  -29.8280 C   0  0  0  0  0  0  0  0  0  0  0  0
   -0.7910   22.2000  -31.0720 O   0  0  0  0  0  0  0  0  0  0  0  0
   -0.8070   21.2160  -28.9390 C   0  0  0  0  0  0  0  0  0  0  0  0
    0.2240   20.3320  -28.6630 C   0  0  0  0  0  0  0  0  0  0  0  0
   -0.2870   19.4250  -27.7600 C   0  0  0  0  0  0  0  0  0  0  0  0
   -1.5890   19.8120  -27.5360 C   0  0  0  0  0  0  0  0  0  0  0  0
   -2.8200   18.9430  -26.3700 Br  0  0  0  0  0  0  0  0  0  0  0  0
   -1.8700   20.8800  -28.2430 O   0  0  0  0  0  0  0  0  0  0  0  0
   -3.0230   25.2970  -29.2490 O   0  0  0  0  0  0  0  0  0  0  0  0
   -3.8020   24.6180  -30.1560 C   0  0  0  0  0  0  0  0  0  0  0  0
   -4.2680   25.1480  -31.1980 O   0  0  0  0  0  0  0  0  0  0  0  0
   -6.0810   22.3790  -30.8550 C   0  0  0  0  0  0  0  0  0  0  0  0
   -6.7280   21.3740  -31.5850 C   0  0  0  0  0  0  0  0  0  0  0  0
   -8.4320   21.5730  -31.9700 Cl  0  0  0  0  0  0  0  0  0  0  0  0
   -5.0409   17.6030  -33.6358 H   0  0  0  0  0  0  0  0  0  0  0  0
   -5.9542   17.2557  -35.1431 H   0  0  0  0  0  0  0  0  0  0  0  0
   -4.6623   18.5038  -35.1431 H   0  0  0  0  0  0  0  0  0  0  0  0
   -6.1505   20.0833  -34.5421 H   0  0  0  0  0  0  0  0  0  0  0  0
   -7.4575   18.8394  -34.6282 H   0  0  0  0  0  0  0  0  0  0  0  0
   -7.2345   17.1571  -32.5150 H   0  0  0  0  0  0  0  0  0  0  0  0
   -7.0038   18.0555  -30.9687 H   0  0  0  0  0  0  0  0  0  0  0  0
   -9.2066   18.5004  -30.9055 H   0  0  0  0  0  0  0  0  0  0  0  0
   -9.0659   19.3887  -32.4605 H   0  0  0  0  0  0  0  0  0  0  0  0
   -9.4372   17.6312  -32.4605 H   0  0  0  0  0  0  0  0  0  0  0  0
   -4.1183   19.1851  -31.9071 H   0  0  0  0  0  0  0  0  0  0  0  0
   -2.9674   20.9788  -30.6235 H   0  0  0  0  0  0  0  0  0  0  0  0
   -4.2303   22.9390  -27.6735 H   0  0  0  0  0  0  0  0  0  0  0  0
   -2.7834   22.2463  -28.4135 H   0  0  0  0  0  0  0  0  0  0  0  0
   -3.0058   24.8577  -27.1809 H   0  0  0  0  0  0  0  0  0  0  0  0
   -0.7071   25.2207  -27.8627 H   0  0  0  0  0  0  0  0  0  0  0  0
   -0.9502   23.5332  -27.2861 H   0  0  0  0  0  0  0  0  0  0  0  0
    1.2419   20.3505  -29.0795 H   0  0  0  0  0  0  0  0  0  0  0  0
    0.2373   18.5686  -27.3109 H   0  0  0  0  0  0  0  0  0  0  0  0
   -6.6409   23.2735  -30.5447 H   0  0  0  0  0  0  0  0  0  0  0  0
  1  2  1  0
  2  3  1  0
  3  4  1  0
  4  5  1  0
  3  6  1  0
  6  7  2  0
  7  8  1  0
  8  9  2  0
  9 10  1  0
 10 11  1  0
 11 12  1  0
 12 13  1  0
 13 14  1  0
 14 15  1  0
 15 16  2  0
 15 17  1  0
 17 18  2  0
 18 19  1  0
 19 20  2  0
 20 21  1  0
 20 22  1  0
 12 23  1  0
 23 24  1  0
 24 25  2  0
  9 26  1  0
 26 27  2  0
 27 28  1  0
 27  6  1  0
 24 10  1  0
 22 17  1  0
  1 29  1  0
  1 30  1  0
  1 31  1  0
  2 32  1  0
  2 33  1  0
  4 34  1  0
  4 35  1  0
  5 36  1  0
  5 37  1  0
  5 38  1  0
  7 39  1  0
  8 40  1  0
 11 41  1  0
 11 42  1  0
 12 43  1  1
 13 44  1  0
 13 45  1  0
 18 46  1  0
 19 47  1  0
 26 48  1  0
M  CHG  1  14  -1
M  END
>  <UniqueID>  (48) 
44

>  <SMILES>  (48) 
CCN(CC)c1ccc(N2C[C@@H](C[N-]C(=O)c3ccc(Br)o3)OC2=O)cc1Cl

>  <Energy>  (48) 
92.65802379733168

>  <Genealogy>  (48) 
CCN(CC)c1ccc(N2CC(C[N-]C(=O)c3ccc(Br)o3)OC2=O)cc1Cl (protonated)
CCN(CC)c1ccc(N2C[C@@H](C[N-]C(=O)c3ccc(Br)o3)OC2=O)cc1Cl (chirality)
CCN(CC)c1ccc(N2C[C@@H](C[N-]C(=O)c3ccc(Br)o3)OC2=O)cc1Cl (3D coordinates assigned)
CCN(CC)c1ccc(N2C[C@@H](C[N-]C(=O)c3ccc(Br)o3)OC2=O)cc1Cl (nonaromatic ring conformer: 92.65802379733168 kcal/mol)

>  <smiles>  (48) 
CCN(CC)c1ccc(N2CC(CNC(=O)c3ccc(Br)o3)OC2=O)cc1Cl

>  <score_type>  (48) 
oracle

>  <origin>  (48) 
adg

>  <m_score__min__energy>  (48) 
-10.550000000000001

>  <m_primary>  (48) 
energy

$$$$
