0:0
     RDKit          3D

 35 37  0  0  0  0  0  0  0  0999 V2000
   -8.6280   19.9300  -32.6950 C   0  0  0  0  0  0  0  0  0  0  0  0
   -7.8090   21.0930  -32.2210 C   0  0  0  0  0  0  0  0  0  0  0  0
   -8.3630   22.0400  -31.3470 C   0  0  0  0  0  0  0  0  0  0  0  0
   -7.5820   23.0930  -30.8620 C   0  0  0  0  0  0  0  0  0  0  0  0
   -6.2350   23.2020  -31.2320 C   0  0  0  0  0  0  0  0  0  0  0  0
   -5.2420   24.4900  -30.5530 S   0  0  0  0  0  0  0  0  0  0  0  0
   -5.5580   25.8030  -31.2140 O   0  0  0  0  0  0  0  0  0  0  0  0
   -5.5320   24.5990  -29.0830 O   0  0  0  0  0  0  0  0  0  0  0  0
   -3.5560   24.1400  -30.7800 N   0  0  0  0  0  0  0  0  0  0  0  0
   -2.6880   24.1680  -29.8170 C   0  0  0  0  0  0  0  0  0  0  0  0
   -2.5590   25.1900  -28.9460 N   0  0  0  0  0  0  0  0  0  0  0  0
   -1.5490   24.9800  -28.0570 C   0  0  0  0  0  0  0  0  0  0  0  0
   -1.1990   25.9980  -27.0360 C   0  0  0  0  0  0  0  0  0  0  0  0
   -1.5530   25.8380  -25.6820 C   0  0  0  0  0  0  0  0  0  0  0  0
   -1.2080   26.8100  -24.7390 C   0  0  0  0  0  0  0  0  0  0  0  0
   -0.5070   27.9520  -25.1330 C   0  0  0  0  0  0  0  0  0  0  0  0
   -0.1540   28.1260  -26.4720 C   0  0  0  0  0  0  0  0  0  0  0  0
   -0.4980   27.1580  -27.4190 C   0  0  0  0  0  0  0  0  0  0  0  0
   -0.8750   23.7650  -28.2300 C   0  0  0  0  0  0  0  0  0  0  0  0
   -1.5680   22.9540  -29.5330 S   0  0  0  0  0  0  0  0  0  0  0  0
   -5.6770   22.2540  -32.1020 C   0  0  0  0  0  0  0  0  0  0  0  0
   -6.4580   21.2020  -32.5890 C   0  0  0  0  0  0  0  0  0  0  0  0
   -9.0171   19.3775  -31.8270 H   0  0  0  0  0  0  0  0  0  0  0  0
   -9.4682   20.2967  -33.3029 H   0  0  0  0  0  0  0  0  0  0  0  0
   -7.9996   19.2625  -33.3029 H   0  0  0  0  0  0  0  0  0  0  0  0
   -9.4163   21.9537  -31.0420 H   0  0  0  0  0  0  0  0  0  0  0  0
   -8.0267   23.8391  -30.1871 H   0  0  0  0  0  0  0  0  0  0  0  0
   -2.1052   24.9412  -25.3645 H   0  0  0  0  0  0  0  0  0  0  0  0
   -1.4892   26.6754  -23.6841 H   0  0  0  0  0  0  0  0  0  0  0  0
   -0.2333   28.7139  -24.3883 H   0  0  0  0  0  0  0  0  0  0  0  0
    0.3959   29.0267  -26.7823 H   0  0  0  0  0  0  0  0  0  0  0  0
   -0.2189   27.3032  -28.4730 H   0  0  0  0  0  0  0  0  0  0  0  0
   -0.0356   23.4020  -27.6188 H   0  0  0  0  0  0  0  0  0  0  0  0
   -4.6220   22.3386  -32.4019 H   0  0  0  0  0  0  0  0  0  0  0  0
   -6.0124   20.4561  -33.2636 H   0  0  0  0  0  0  0  0  0  0  0  0
  1  2  1  0
  2  3  2  0
  3  4  1  0
  4  5  2  0
  5  6  1  0
  6  7  2  0
  6  8  2  0
  6  9  1  0
  9 10  2  3
 10 11  1  0
 11 12  1  0
 12 13  1  0
 13 14  2  0
 14 15  1  0
 15 16  2  0
 16 17  1  0
 17 18  2  0
 12 19  2  0
 19 20  1  0
  5 21  1  0
 21 22  2  0
 22  2  1  0
 20 10  1  0
 18 13  1  0
  1 23  1  0
  1 24  1  0
  1 25  1  0
  3 26  1  0
  4 27  1  0
 14 28  1  0
 15 29  1  0
 16 30  1  0
 17 31  1  0
 18 32  1  0
 19 33  1  0
 21 34  1  0
 22 35  1  0
M  CHG  1  11  -1
M  END
>  <UniqueID>  (1) 
1

>  <SMILES>  (1) 
Cc1ccc(S(=O)(=O)N=c2[n-]c(-c3ccccc3)cs2)cc1

>  <Energy>  (1) 
70.16379209252138

>  <Genealogy>  (1) 
Cc1ccc(S(=O)(=O)N=c2[n-]c(-c3ccccc3)cs2)cc1 (protonated)
Cc1ccc(S(=O)(=O)N=c2[n-]c(-c3ccccc3)cs2)cc1 (3D coordinates assigned)
Cc1ccc(S(=O)(=O)N=c2[n-]c(-c3ccccc3)cs2)cc1 (optimized conformer: 70.16379209252138 kcal/mol)

>  <smiles>  (1) 
Cc1ccc(S(=O)(=O)N=c2[nH]c(-c3ccccc3)cs2)cc1

>  <score_type>  (1) 
oracle

>  <origin>  (1) 
adg

>  <m_score__min__energy>  (1) 
-9.6999999999999993

>  <m_primary>  (1) 
energy

$$$$
1:0
     RDKit          3D

 44 46  0  0  0  0  0  0  0  0999 V2000
   -4.2230   24.2350  -27.3230 C   0  0  0  0  0  0  0  0  0  0  0  0
   -2.8630   23.9480  -27.8880 C   0  0  0  0  0  0  0  0  0  0  0  0
   -1.7300   23.8590  -27.0850 C   0  0  0  0  0  0  0  0  0  0  0  0
   -0.4190   23.4890  -28.0660 S   0  0  0  0  0  0  0  0  0  0  0  0
   -1.2610   23.4310  -29.5170 C   0  0  0  0  0  0  0  0  0  0  0  0
   -2.6010   23.7070  -29.2560 C   0  0  0  0  0  0  0  0  0  0  0  0
   -3.6410   23.7410  -30.3520 C   0  0  0  0  0  0  0  0  0  0  0  0
   -4.2860   25.0620  -30.4710 N   0  0  0  0  0  0  0  0  0  0  0  0
   -5.6860   24.9840  -30.9390 C   0  0  0  0  0  0  0  0  0  0  0  0
   -5.8100   23.9400  -32.0760 C   0  0  0  0  0  0  0  0  0  0  0  0
   -7.2490   23.4250  -32.1950 C   0  0  0  0  0  0  0  0  0  0  0  0
   -7.7110   22.7560  -30.9540 N   0  0  0  0  0  0  0  0  0  0  0  0
   -7.8590   21.2880  -31.0740 C   0  0  0  0  0  0  0  0  0  0  0  0
   -6.8000   20.6400  -31.9360 C   0  0  0  0  0  0  0  0  0  0  0  0
   -7.1510   19.8540  -33.0450 C   0  0  0  0  0  0  0  0  0  0  0  0
   -6.1450   19.2750  -33.8220 C   0  0  0  0  0  0  0  0  0  0  0  0
   -4.8060   19.4750  -33.4870 C   0  0  0  0  0  0  0  0  0  0  0  0
   -4.4900   20.2490  -32.3690 C   0  0  0  0  0  0  0  0  0  0  0  0
   -5.4840   20.8060  -31.6250 N   0  0  0  0  0  0  0  0  0  0  0  0
   -7.0090   23.1700  -29.7170 C   0  0  0  0  0  0  0  0  0  0  0  0
   -6.6390   24.6570  -29.7570 C   0  0  0  0  0  0  0  0  0  0  0  0
   -4.1732   24.2245  -26.2242 H   0  0  0  0  0  0  0  0  0  0  0  0
   -4.5610   25.2242  -27.6653 H   0  0  0  0  0  0  0  0  0  0  0  0
   -4.9319   23.4667  -27.6653 H   0  0  0  0  0  0  0  0  0  0  0  0
   -1.6988   24.0058  -25.9953 H   0  0  0  0  0  0  0  0  0  0  0  0
   -0.8286   23.2125  -30.5046 H   0  0  0  0  0  0  0  0  0  0  0  0
   -3.1552   23.4972  -31.3083 H   0  0  0  0  0  0  0  0  0  0  0  0
   -4.4207   23.0075  -30.0989 H   0  0  0  0  0  0  0  0  0  0  0  0
   -4.2400   25.5330  -29.5360 H   0  0  0  0  0  0  0  0  0  0  0  0
   -5.9841   25.9627  -31.3430 H   0  0  0  0  0  0  0  0  0  0  0  0
   -5.5155   24.4075  -33.0272 H   0  0  0  0  0  0  0  0  0  0  0  0
   -5.1517   23.0898  -31.8442 H   0  0  0  0  0  0  0  0  0  0  0  0
   -7.9131   24.2760  -32.4066 H   0  0  0  0  0  0  0  0  0  0  0  0
   -7.2755   22.6837  -33.0073 H   0  0  0  0  0  0  0  0  0  0  0  0
   -7.8032   20.8497  -30.0667 H   0  0  0  0  0  0  0  0  0  0  0  0
   -8.8281   21.1008  -31.5595 H   0  0  0  0  0  0  0  0  0  0  0  0
   -8.2093   19.6955  -33.2999 H   0  0  0  0  0  0  0  0  0  0  0  0
   -6.4084   18.6623  -34.6967 H   0  0  0  0  0  0  0  0  0  0  0  0
   -4.0075   19.0277  -34.0972 H   0  0  0  0  0  0  0  0  0  0  0  0
   -3.4381   20.4085  -32.0896 H   0  0  0  0  0  0  0  0  0  0  0  0
   -7.6662   22.9875  -28.8540 H   0  0  0  0  0  0  0  0  0  0  0  0
   -6.0820   22.5840  -29.6315 H   0  0  0  0  0  0  0  0  0  0  0  0
   -7.5590   25.2498  -29.8673 H   0  0  0  0  0  0  0  0  0  0  0  0
   -6.1183   24.9045  -28.8202 H   0  0  0  0  0  0  0  0  0  0  0  0
  1  2  1  0
  2  3  2  0
  3  4  1  0
  4  5  1  0
  5  6  2  0
  6  7  1  0
  7  8  1  0
  8  9  1  0
  9 10  1  0
 10 11  1  0
 11 12  1  0
 12 13  1  0
 13 14  1  0
 14 15  2  0
 15 16  1  0
 16 17  2  0
 17 18  1  0
 18 19  2  0
 12 20  1  0
 20 21  1  0
  6  2  1  0
 21  9  1  0
 19 14  1  0
  1 22  1  0
  1 23  1  0
  1 24  1  0
  3 25  1  0
  5 26  1  0
  7 27  1  0
  7 28  1  0
  8 29  1  0
  9 30  1  0
 10 31  1  0
 10 32  1  0
 11 33  1  0
 11 34  1  0
 13 35  1  0
 13 36  1  0
 15 37  1  0
 16 38  1  0
 17 39  1  0
 18 40  1  0
 20 41  1  0
 20 42  1  0
 21 43  1  0
 21 44  1  0
M  END
>  <UniqueID>  (2) 
2

>  <SMILES>  (2) 
Cc1cscc1CNC1CCN(Cc2ccccn2)CC1

>  <Energy>  (2) 
81.79605953509329

>  <Genealogy>  (2) 
Cc1cscc1CNC1CCN(Cc2ccccn2)CC1 (3D coordinates assigned)
Cc1cscc1CNC1CCN(Cc2ccccn2)CC1 (nonaromatic ring conformer: 81.79605953509329 kcal/mol)

>  <smiles>  (2) 
Cc1cscc1CNC1CCN(Cc2ccccn2)CC1

>  <score_type>  (2) 
oracle

>  <origin>  (2) 
adg

>  <m_score__min__energy>  (2) 
-8.3300000000000001

>  <m_primary>  (2) 
energy

$$$$
2:0
     RDKit          3D

 33 35  0  0  0  0  0  0  0  0999 V2000
   -8.8167   20.2794  -32.9681 H   0  0  0  0  0  0  0  0  0  0  0  0
   -7.7400   20.2780  -32.7430 C   0  0  0  0  0  0  0  0  0  0  0  0
   -7.2190   21.3740  -32.1760 C   0  0  0  0  0  0  0  0  0  0  0  0
   -5.8430   21.5850  -32.0630 O   0  0  0  0  0  0  0  0  0  0  0  0
   -5.6610   22.8080  -31.4200 C   0  0  0  0  0  0  0  0  0  0  0  0
   -4.4480   23.4160  -31.1040 C   0  0  0  0  0  0  0  0  0  0  0  0
   -3.4921   22.9382  -31.3649 H   0  0  0  0  0  0  0  0  0  0  0  0
   -4.4780   24.6580  -30.4420 C   0  0  0  0  0  0  0  0  0  0  0  0
   -3.2870   25.2930  -30.1100 O   0  0  0  0  0  0  0  0  0  0  0  0
   -5.7120   25.2600  -30.1120 C   0  0  0  0  0  0  0  0  0  0  0  0
   -5.7251   26.2306  -29.5945 H   0  0  0  0  0  0  0  0  0  0  0  0
   -6.9230   24.6280  -30.4400 C   0  0  0  0  0  0  0  0  0  0  0  0
   -7.8895   25.0866  -30.1838 H   0  0  0  0  0  0  0  0  0  0  0  0
   -6.8620   23.4020  -31.1000 C   0  0  0  0  0  0  0  0  0  0  0  0
   -7.9120   22.5130  -31.5540 C   0  0  0  0  0  0  0  0  0  0  0  0
   -9.1480   22.6580  -31.3630 O   0  0  0  0  0  0  0  0  0  0  0  0
   -6.9670   19.0690  -33.0860 C   0  0  0  0  0  0  0  0  0  0  0  0
   -7.1640   17.8610  -32.3970 C   0  0  0  0  0  0  0  0  0  0  0  0
   -7.8803   17.8171  -31.5633 H   0  0  0  0  0  0  0  0  0  0  0  0
   -6.4550   16.7150  -32.7650 C   0  0  0  0  0  0  0  0  0  0  0  0
   -6.5969   15.7795  -32.2039 H   0  0  0  0  0  0  0  0  0  0  0  0
   -5.5620   16.7520  -33.8480 C   0  0  0  0  0  0  0  0  0  0  0  0
   -4.7710   15.5290  -34.2230 C   0  0  0  0  0  0  0  0  0  0  0  0
   -3.8057   15.8404  -34.6488 H   0  0  0  0  0  0  0  0  0  0  0  0
   -5.3458   14.9498  -34.9606 H   0  0  0  0  0  0  0  0  0  0  0  0
   -4.5190   14.6520  -33.0020 C   0  0  0  0  0  0  0  0  0  0  0  0
   -4.6878   15.2395  -32.0875 H   0  0  0  0  0  0  0  0  0  0  0  0
   -5.2069   13.7938  -33.0187 H   0  0  0  0  0  0  0  0  0  0  0  0
   -3.4805   14.2899  -33.0187 H   0  0  0  0  0  0  0  0  0  0  0  0
   -5.3790   17.9560  -34.5470 C   0  0  0  0  0  0  0  0  0  0  0  0
   -4.6727   17.9978  -35.3892 H   0  0  0  0  0  0  0  0  0  0  0  0
   -6.0900   19.1020  -34.1780 C   0  0  0  0  0  0  0  0  0  0  0  0
   -5.9601   20.0339  -34.7478 H   0  0  0  0  0  0  0  0  0  0  0  0
  1  2  1  0
  2  3  2  0
  3  4  1  0
  4  5  1  0
  5  6  2  0
  6  7  1  0
  6  8  1  0
  8  9  1  0
  8 10  2  0
 10 11  1  0
 10 12  1  0
 12 13  1  0
 12 14  2  0
 14 15  1  0
 15 16  2  0
  2 17  1  0
 17 18  2  0
 18 19  1  0
 18 20  1  0
 20 21  1  0
 20 22  2  0
 22 23  1  0
 23 24  1  0
 23 25  1  0
 23 26  1  0
 26 27  1  0
 26 28  1  0
 26 29  1  0
 22 30  1  0
 30 31  1  0
 30 32  2  0
 32 33  1  0
 15  3  1  0
 32 17  1  0
 14  5  1  0
M  CHG  1   9  -1
M  END
>  <UniqueID>  (3) 
3

>  <SMILES>  (3) 
CCc1ccc(/C=C2/Oc3cc([O-])ccc3C2=O)cc1

>  <Energy>  (3) 
70.39284435217951

>  <Genealogy>  (3) 
CCc1ccc(C=C2Oc3cc([O-])ccc3C2=O)cc1 (protonated)
CCc1ccc(/C=C2/Oc3cc([O-])ccc3C2=O)cc1 (cis-trans isomerization)
CCc1ccc(/C=C2/Oc3cc([O-])ccc3C2=O)cc1 (3D coordinates assigned)
CCc1ccc(/C=C2/Oc3cc([O-])ccc3C2=O)cc1 (nonaromatic ring conformer: 70.39284435217951 kcal/mol)

>  <smiles>  (3) 
CCc1ccc(C=C2Oc3cc(O)ccc3C2=O)cc1

>  <score_type>  (3) 
oracle

>  <origin>  (3) 
adg

>  <m_score__min__energy>  (3) 
-11.1

>  <m_primary>  (3) 
energy

$$$$
3:0
     RDKit          3D

 37 39  0  0  0  0  0  0  0  0999 V2000
   -2.7190   18.8970  -26.1770 C   0  0  0  0  0  0  0  0  0  0  0  0
   -1.5480   19.6390  -26.8130 C   0  0  0  0  0  0  0  0  0  0  0  0
   -2.0050   20.4220  -28.0140 C   0  0  0  0  0  0  0  0  0  0  0  0
   -3.1150   21.2760  -27.9220 C   0  0  0  0  0  0  0  0  0  0  0  0
   -3.5600   21.9780  -29.0450 C   0  0  0  0  0  0  0  0  0  0  0  0
   -2.9160   21.8200  -30.2840 C   0  0  0  0  0  0  0  0  0  0  0  0
   -3.3880   22.5890  -31.4930 C   0  0  0  0  0  0  0  0  0  0  0  0
   -4.7140   23.1890  -31.2530 N   0  0  0  0  0  0  0  0  0  0  0  0
   -4.8100   24.5600  -30.8070 C   0  0  0  0  0  0  0  0  0  0  0  0
   -3.7840   25.1950  -30.4410 O   0  0  0  0  0  0  0  0  0  0  0  0
   -6.1270   25.2730  -30.8560 C   0  0  0  0  0  0  0  0  0  0  0  0
   -7.2080   24.3650  -30.6650 O   0  0  0  0  0  0  0  0  0  0  0  0
   -7.1750   23.0530  -31.1440 C   0  0  0  0  0  0  0  0  0  0  0  0
   -8.3720   22.3440  -31.2780 C   0  0  0  0  0  0  0  0  0  0  0  0
   -8.3630   21.0370  -31.7650 C   0  0  0  0  0  0  0  0  0  0  0  0
   -7.1550   20.4320  -32.1140 C   0  0  0  0  0  0  0  0  0  0  0  0
   -5.9510   21.1270  -31.9660 C   0  0  0  0  0  0  0  0  0  0  0  0
   -5.9430   22.4490  -31.4730 C   0  0  0  0  0  0  0  0  0  0  0  0
   -1.8010   20.9700  -30.3720 C   0  0  0  0  0  0  0  0  0  0  0  0
   -1.3560   20.2690  -29.2490 C   0  0  0  0  0  0  0  0  0  0  0  0
   -2.6352   18.9501  -25.0815 H   0  0  0  0  0  0  0  0  0  0  0  0
   -3.6639   19.3615  -26.4954 H   0  0  0  0  0  0  0  0  0  0  0  0
   -2.7024   17.8442  -26.4954 H   0  0  0  0  0  0  0  0  0  0  0  0
   -1.1143   20.3298  -26.0750 H   0  0  0  0  0  0  0  0  0  0  0  0
   -0.7958   18.9038  -27.1349 H   0  0  0  0  0  0  0  0  0  0  0  0
   -3.6372   21.3932  -26.9610 H   0  0  0  0  0  0  0  0  0  0  0  0
   -4.4198   22.6586  -28.9588 H   0  0  0  0  0  0  0  0  0  0  0  0
   -2.6661   23.3887  -31.7151 H   0  0  0  0  0  0  0  0  0  0  0  0
   -3.4662   21.8939  -32.3420 H   0  0  0  0  0  0  0  0  0  0  0  0
   -6.1531   26.0348  -30.0629 H   0  0  0  0  0  0  0  0  0  0  0  0
   -6.2345   25.7418  -31.8453 H   0  0  0  0  0  0  0  0  0  0  0  0
   -9.3243   22.8183  -30.9985 H   0  0  0  0  0  0  0  0  0  0  0  0
   -9.3074   20.4836  -31.8739 H   0  0  0  0  0  0  0  0  0  0  0  0
   -7.1500   19.4046  -32.5070 H   0  0  0  0  0  0  0  0  0  0  0  0
   -5.0026   20.6394  -32.2360 H   0  0  0  0  0  0  0  0  0  0  0  0
   -1.2751   20.8558  -31.3314 H   0  0  0  0  0  0  0  0  0  0  0  0
   -0.4921   19.5932  -29.3329 H   0  0  0  0  0  0  0  0  0  0  0  0
  1  2  1  0
  2  3  1  0
  3  4  2  0
  4  5  1  0
  5  6  2  0
  6  7  1  0
  7  8  1  0
  8  9  1  0
  9 10  2  0
  9 11  1  0
 11 12  1  0
 12 13  1  0
 13 14  2  0
 14 15  1  0
 15 16  2  0
 16 17  1  0
 17 18  2  0
  6 19  1  0
 19 20  2  0
 20  3  1  0
 18  8  1  0
 18 13  1  0
  1 21  1  0
  1 22  1  0
  1 23  1  0
  2 24  1  0
  2 25  1  0
  4 26  1  0
  5 27  1  0
  7 28  1  0
  7 29  1  0
 11 30  1  0
 11 31  1  0
 14 32  1  0
 15 33  1  0
 16 34  1  0
 17 35  1  0
 19 36  1  0
 20 37  1  0
M  END
>  <UniqueID>  (4) 
4

>  <SMILES>  (4) 
CCc1ccc(CN2C(=O)COc3ccccc32)cc1

>  <Energy>  (4) 
40.06388483569396

>  <Genealogy>  (4) 
CCc1ccc(CN2C(=O)COc3ccccc32)cc1 (3D coordinates assigned)
CCc1ccc(CN2C(=O)COc3ccccc32)cc1 (nonaromatic ring conformer: 40.06388483569396 kcal/mol)

>  <smiles>  (4) 
CCc1ccc(CN2C(=O)COc3ccccc32)cc1

>  <score_type>  (4) 
oracle

>  <origin>  (4) 
adg

>  <m_score__min__energy>  (4) 
-7.21

>  <m_primary>  (4) 
energy

$$$$
4:0
     RDKit          3D

 35 36  0  0  0  0  0  0  0  0999 V2000
   -3.3268   23.8675  -27.9819 H   0  0  0  0  0  0  0  0  0  0  0  0
   -3.7400   24.2240  -28.9370 C   0  0  0  0  0  0  0  0  0  0  0  0
   -3.1210   25.0040  -29.7960 O   0  0  0  0  0  0  0  0  0  0  0  0
   -3.8640   25.2540  -30.8350 N   0  0  0  0  0  0  0  0  0  0  0  0
   -5.0200   24.5970  -30.6420 C   0  0  0  0  0  0  0  0  0  0  0  0
   -6.0100   24.6490  -31.4860 N   0  0  0  0  0  0  0  0  0  0  0  0
   -6.8350   23.5450  -31.8850 C   0  0  0  0  0  0  0  0  0  0  0  0
   -8.0780   23.7240  -31.9810 O   0  0  0  0  0  0  0  0  0  0  0  0
   -6.2700   22.2260  -32.2460 C   0  0  0  0  0  0  0  0  0  0  0  0
   -4.9900   22.1510  -32.6910 N   0  0  0  0  0  0  0  0  0  0  0  0
   -4.4270   20.9620  -33.0270 C   0  0  0  0  0  0  0  0  0  0  0  0
   -3.3883   20.9291  -33.3875 H   0  0  0  0  0  0  0  0  0  0  0  0
   -5.1440   19.8120  -32.9190 N   0  0  0  0  0  0  0  0  0  0  0  0
   -4.6870   18.9200  -33.2090 H   0  0  0  0  0  0  0  0  0  0  0  0
   -6.4310   19.8230  -32.4640 C   0  0  0  0  0  0  0  0  0  0  0  0
   -7.1810   18.5920  -32.3440 N   0  0  0  0  0  0  0  0  0  0  0  0
   -8.6200   18.6450  -32.0660 C   0  0  0  0  0  0  0  0  0  0  0  0
   -8.7833   18.6510  -30.9782 H   0  0  0  0  0  0  0  0  0  0  0  0
   -9.0449   19.5594  -32.5056 H   0  0  0  0  0  0  0  0  0  0  0  0
   -9.1111   17.7643  -32.5056 H   0  0  0  0  0  0  0  0  0  0  0  0
   -6.5140   17.2840  -32.4630 C   0  0  0  0  0  0  0  0  0  0  0  0
   -7.0717   16.5416  -31.8733 H   0  0  0  0  0  0  0  0  0  0  0  0
   -5.4845   17.3820  -32.0882 H   0  0  0  0  0  0  0  0  0  0  0  0
   -6.4580   16.8240  -33.9200 C   0  0  0  0  0  0  0  0  0  0  0  0
   -7.4792   16.7579  -34.3234 H   0  0  0  0  0  0  0  0  0  0  0  0
   -5.9781   15.8357  -33.9749 H   0  0  0  0  0  0  0  0  0  0  0  0
   -5.7110   17.7540  -34.6780 O   0  0  0  0  0  0  0  0  0  0  0  0
   -4.4600   17.1930  -35.0030 C   0  0  0  0  0  0  0  0  0  0  0  0
   -3.9162   16.9491  -34.0784 H   0  0  0  0  0  0  0  0  0  0  0  0
   -4.6111   16.2764  -35.5921 H   0  0  0  0  0  0  0  0  0  0  0  0
   -3.8761   17.9155  -35.5921 H   0  0  0  0  0  0  0  0  0  0  0  0
   -7.0150   21.0480  -32.1070 C   0  0  0  0  0  0  0  0  0  0  0  0
   -8.0451   21.0827  -31.7227 H   0  0  0  0  0  0  0  0  0  0  0  0
   -4.9920   23.9270  -29.4310 C   0  0  0  0  0  0  0  0  0  0  0  0
   -5.7780   23.3079  -28.9739 H   0  0  0  0  0  0  0  0  0  0  0  0
  1  2  1  0
  2  3  1  0
  3  4  1  0
  4  5  1  0
  5  6  2  0
  6  7  1  0
  7  8  2  0
  7  9  1  0
  9 10  2  0
 10 11  1  0
 11 12  1  0
 11 13  2  0
 13 14  1  0
 13 15  1  0
 15 16  1  0
 16 17  1  0
 17 18  1  0
 17 19  1  0
 17 20  1  0
 16 21  1  0
 21 22  1  0
 21 23  1  0
 21 24  1  0
 24 25  1  0
 24 26  1  0
 24 27  1  0
 27 28  1  0
 28 29  1  0
 28 30  1  0
 28 31  1  0
 15 32  2  0
 32 33  1  0
  5 34  1  0
 34 35  1  0
 34  2  2  0
 32  9  1  0
M  CHG  2   4  -1  13   1
M  END
>  <UniqueID>  (5) 
5

>  <SMILES>  (5) 
COCCN(C)c1cc(C(=O)/N=c2\cco[n-]2)nc[nH+]1

>  <Energy>  (5) 
73.82723914899556

>  <Genealogy>  (5) 
COCCN(C)c1cc(C(=O)N=c2cco[n-]2)nc[nH+]1 (protonated)
COCCN(C)c1cc(C(=O)/N=c2\cco[n-]2)nc[nH+]1 (cis-trans isomerization)
COCCN(C)c1cc(C(=O)/N=c2\cco[n-]2)nc[nH+]1 (3D coordinates assigned)
COCCN(C)c1cc(C(=O)/N=c2\cco[n-]2)nc[nH+]1 (optimized conformer: 73.82723914899556 kcal/mol)

>  <smiles>  (5) 
COCCN(C)c1cc(C(=O)N=c2cco[nH]2)ncn1

>  <score_type>  (5) 
oracle

>  <origin>  (5) 
adg

>  <m_score__min__energy>  (5) 
-7.8700000000000001

>  <m_primary>  (5) 
energy

$$$$
5:0
     RDKit          3D

 67 70  0  0  0  0  0  0  0  0999 V2000
   -7.8089   15.9963  -33.0154 H   0  0  0  0  0  0  0  0  0  0  0  0
   -6.8280   16.4840  -33.1150 C   0  0  0  0  0  0  0  0  0  0  0  0
   -6.6380   17.7140  -32.5930 N   0  0  0  0  0  0  0  0  0  0  0  0
   -5.4690   18.3830  -32.7230 C   0  0  0  0  0  0  0  0  0  0  0  0
   -5.3790   19.6670  -32.1750 C   0  0  0  0  0  0  0  0  0  0  0  0
   -6.2271   20.0749  -31.6055 H   0  0  0  0  0  0  0  0  0  0  0  0
   -4.2240   20.4390  -32.3420 C   0  0  0  0  0  0  0  0  0  0  0  0
   -4.1310   21.7990  -31.7520 C   0  0  0  0  0  0  0  0  0  0  0  0
   -2.9820   22.1910  -31.0420 C   0  0  0  0  0  0  0  0  0  0  0  0
   -2.1493   21.4833  -30.9167 H   0  0  0  0  0  0  0  0  0  0  0  0
   -2.8910   23.4750  -30.4940 C   0  0  0  0  0  0  0  0  0  0  0  0
   -1.7730   23.8420  -29.8220 F   0  0  0  0  0  0  0  0  0  0  0  0
   -3.9480   24.3790  -30.6480 C   0  0  0  0  0  0  0  0  0  0  0  0
   -3.8540   25.6550  -30.1040 O   0  0  0  0  0  0  0  0  0  0  0  0
   -5.0960   23.9980  -31.3490 C   0  0  0  0  0  0  0  0  0  0  0  0
   -6.1260   24.8690  -31.4970 F   0  0  0  0  0  0  0  0  0  0  0  0
   -5.1890   22.7160  -31.8990 C   0  0  0  0  0  0  0  0  0  0  0  0
   -6.0945   22.4220  -32.4500 H   0  0  0  0  0  0  0  0  0  0  0  0
   -3.1670   19.9110  -33.0890 C   0  0  0  0  0  0  0  0  0  0  0  0
   -2.2624   20.5156  -33.2507 H   0  0  0  0  0  0  0  0  0  0  0  0
   -3.2430   18.6270  -33.6330 C   0  0  0  0  0  0  0  0  0  0  0  0
   -2.4063   18.2498  -34.2393 H   0  0  0  0  0  0  0  0  0  0  0  0
   -4.3720   17.8000  -33.4220 C   0  0  0  0  0  0  0  0  0  0  0  0
   -4.5210   16.4500  -33.9060 C   0  0  0  0  0  0  0  0  0  0  0  0
   -3.5730   15.7090  -34.4330 N   0  0  0  0  0  0  0  0  0  0  0  0
   -2.1240   15.5570  -34.2820 C   0  0  2  0  0  0  0  0  0  0  0  0
   -1.8480   15.6401  -33.2204 H   0  0  0  0  0  0  0  0  0  0  0  0
   -1.4210   16.6800  -35.0990 C   0  0  0  0  0  0  0  0  0  0  0  0
   -2.1800   17.2174  -35.6864 H   0  0  0  0  0  0  0  0  0  0  0  0
   -0.9162   17.3480  -34.3856 H   0  0  0  0  0  0  0  0  0  0  0  0
   -0.3940   16.1470  -36.0230 N   0  0  0  0  0  0  0  0  0  0  0  0
    0.2920   17.2480  -36.7330 C   0  0  0  0  0  0  0  0  0  0  0  0
   -0.4628   17.9212  -37.1656 H   0  0  0  0  0  0  0  0  0  0  0  0
    0.9226   16.8135  -37.5227 H   0  0  0  0  0  0  0  0  0  0  0  0
    1.1920   18.0510  -35.7780 C   0  0  0  0  0  0  0  0  0  0  0  0
    1.9156   18.6303  -36.3703 H   0  0  0  0  0  0  0  0  0  0  0  0
    1.7093   17.3438  -35.1130 H   0  0  0  0  0  0  0  0  0  0  0  0
    0.3980   18.9820  -34.9420 N   0  0  0  0  0  0  0  0  0  0  0  0
    0.9610   19.1110  -33.5710 C   0  0  0  0  0  0  0  0  0  0  0  0
    1.1200   20.1747  -33.3402 H   0  0  0  0  0  0  0  0  0  0  0  0
    1.9192   18.5732  -33.5200 H   0  0  0  0  0  0  0  0  0  0  0  0
   -0.0070   18.5120  -32.5560 C   0  0  0  0  0  0  0  0  0  0  0  0
    0.3472   18.7312  -31.5379 H   0  0  0  0  0  0  0  0  0  0  0  0
   -1.0058   18.9501  -32.6990 H   0  0  0  0  0  0  0  0  0  0  0  0
   -0.0606   17.4227  -32.6990 H   0  0  0  0  0  0  0  0  0  0  0  0
    0.2640   20.2950  -35.6140 C   0  0  0  0  0  0  0  0  0  0  0  0
    1.2368   20.5797  -36.0414 H   0  0  0  0  0  0  0  0  0  0  0  0
   -0.4966   20.2048  -36.4035 H   0  0  0  0  0  0  0  0  0  0  0  0
   -0.1850   21.3780  -34.6330 C   0  0  0  0  0  0  0  0  0  0  0  0
   -0.0378   21.0230  -33.6023 H   0  0  0  0  0  0  0  0  0  0  0  0
    0.4095   22.2891  -34.7954 H   0  0  0  0  0  0  0  0  0  0  0  0
   -1.2498   21.6012  -34.7954 H   0  0  0  0  0  0  0  0  0  0  0  0
    0.5580   15.2950  -35.2810 C   0  0  0  0  0  0  0  0  0  0  0  0
    1.3667   14.9827  -35.9581 H   0  0  0  0  0  0  0  0  0  0  0  0
    0.9671   15.8723  -34.4388 H   0  0  0  0  0  0  0  0  0  0  0  0
   -0.1500   14.0420  -34.7260 C   0  0  0  0  0  0  0  0  0  0  0  0
    0.1570   13.1688  -35.3203 H   0  0  0  0  0  0  0  0  0  0  0  0
    0.1398   13.9289  -33.6709 H   0  0  0  0  0  0  0  0  0  0  0  0
   -1.6770   14.1680  -34.7850 C   0  0  0  0  0  0  0  0  0  0  0  0
   -2.0115   14.0344  -35.8244 H   0  0  0  0  0  0  0  0  0  0  0  0
   -2.1231   13.3957  -34.1411 H   0  0  0  0  0  0  0  0  0  0  0  0
   -5.7930   15.8240  -33.7800 C   0  0  0  0  0  0  0  0  0  0  0  0
   -6.0520   14.4480  -34.2860 C   0  0  0  0  0  0  0  0  0  0  0  0
   -7.1960   14.1320  -34.7090 O   0  0  0  0  0  0  0  0  0  0  0  0
   -5.0080   13.4730  -34.3130 N   0  0  0  0  0  0  0  0  0  0  0  0
   -5.1870   12.5230  -34.7050 H   0  0  0  0  0  0  0  0  0  0  0  0
   -4.0730   13.6720  -33.8930 H   0  0  0  0  0  0  0  0  0  0  0  0
  1  2  1  0
  2  3  1  0
  3  4  1  0
  4  5  2  0
  5  6  1  0
  5  7  1  0
  7  8  1  0
  8  9  2  0
  9 10  1  0
  9 11  1  0
 11 12  1  0
 11 13  2  0
 13 14  1  0
 13 15  1  0
 15 16  1  0
 15 17  2  0
 17 18  1  0
  7 19  2  0
 19 20  1  0
 19 21  1  0
 21 22  1  0
 21 23  2  0
 23 24  1  0
 24 25  2  0
 25 26  1  0
 26 27  1  1
 26 28  1  0
 28 29  1  0
 28 30  1  0
 28 31  1  0
 31 32  1  0
 32 33  1  0
 32 34  1  0
 32 35  1  0
 35 36  1  0
 35 37  1  0
 35 38  1  0
 38 39  1  0
 39 40  1  0
 39 41  1  0
 39 42  1  0
 42 43  1  0
 42 44  1  0
 42 45  1  0
 38 46  1  0
 46 47  1  0
 46 48  1  0
 46 49  1  0
 49 50  1  0
 49 51  1  0
 49 52  1  0
 31 53  1  0
 53 54  1  0
 53 55  1  0
 53 56  1  0
 56 57  1  0
 56 58  1  0
 56 59  1  0
 59 60  1  0
 59 61  1  0
 24 62  1  0
 62 63  1  0
 63 64  2  0
 63 65  1  0
 65 66  1  0
 65 67  1  0
 62  2  2  0
 23  4  1  0
 59 26  1  0
 17  8  1  0
M  CHG  2   3  -1  14  -1
M  END
>  <UniqueID>  (6) 
6

>  <SMILES>  (6) 
CCN(CC)CCN1CCC[C@H](/N=c2\c(C(N)=O)c[n-]c3cc(-c4cc(F)c([O-])c(F)c4)ccc23)C1

>  <Energy>  (6) 
106.65415880785888

>  <Genealogy>  (6) 
CCN(CC)CCN1CCCC(N=c2c(C(N)=O)c[n-]c3cc(-c4cc(F)c([O-])c(F)c4)ccc23)C1 (protonated)
CCN(CC)CCN1CCC[C@H](N=c2c(C(N)=O)c[n-]c3cc(-c4cc(F)c([O-])c(F)c4)ccc23)C1 (chirality)
CCN(CC)CCN1CCC[C@H](/N=c2\c(C(N)=O)c[n-]c3cc(-c4cc(F)c([O-])c(F)c4)ccc23)C1 (cis-trans isomerization)
CCN(CC)CCN1CCC[C@H](/N=c2\c(C(N)=O)c[n-]c3cc(-c4cc(F)c([O-])c(F)c4)ccc23)C1 (3D coordinates assigned)
CCN(CC)CCN1CCC[C@H](/N=c2\c(C(N)=O)c[n-]c3cc(-c4cc(F)c([O-])c(F)c4)ccc23)C1 (nonaromatic ring conformer: 106.65415880785888 kcal/mol)

>  <smiles>  (6) 
CCN(CC)CCN1CCCC(N=c2c(C(N)=O)c[nH]c3cc(-c4cc(F)c(O)c(F)c4)ccc23)C1

>  <score_type>  (6) 
oracle

>  <origin>  (6) 
adg

>  <m_score__min__energy>  (6) 
-9.5500000000000007

>  <m_primary>  (6) 
energy

$$$$
6:0
     RDKit          3D

 27 28  0  0  0  0  0  0  0  0999 V2000
   -1.8850   21.4210  -32.3720 C   0  0  0  0  0  0  0  0  0  0  0  0
   -3.5460   20.9650  -32.9530 S   0  0  0  0  0  0  0  0  0  0  0  0
   -4.3670   22.1960  -31.9460 C   0  0  0  0  0  0  0  0  0  0  0  0
   -3.6970   23.3100  -31.5580 N   0  0  0  0  0  0  0  0  0  0  0  0
   -4.3080   24.2720  -30.8220 C   0  0  0  0  0  0  0  0  0  0  0  0
   -3.6580   25.2960  -30.4800 O   0  0  0  0  0  0  0  0  0  0  0  0
   -5.6510   24.1270  -30.4520 C   0  0  0  0  0  0  0  0  0  0  0  0
   -6.5180   25.5160  -29.4420 Br  0  0  0  0  0  0  0  0  0  0  0  0
   -6.3280   22.9580  -30.8540 C   0  0  0  0  0  0  0  0  0  0  0  0
   -7.7640   22.7000  -30.4900 C   0  0  0  0  0  0  0  0  0  0  0  0
   -8.8040   22.4270  -31.9690 S   0  0  0  0  0  0  0  0  0  0  0  0
   -8.3280   20.7140  -32.1950 C   0  0  0  0  0  0  0  0  0  0  0  0
   -9.1020   19.7280  -31.6680 N   0  0  0  0  0  0  0  0  0  0  0  0
   -8.7770   18.4200  -31.8370 C   0  0  0  0  0  0  0  0  0  0  0  0
   -7.6340   18.0760  -32.5560 C   0  0  0  0  0  0  0  0  0  0  0  0
   -6.8520   19.0980  -33.0910 C   0  0  0  0  0  0  0  0  0  0  0  0
   -7.2110   20.3970  -32.9070 N   0  0  0  0  0  0  0  0  0  0  0  0
   -5.6660   22.0270  -31.5930 N   0  0  0  0  0  0  0  0  0  0  0  0
   -1.8696   21.4252  -31.2721 H   0  0  0  0  0  0  0  0  0  0  0  0
   -1.1524   20.6908  -32.7462 H   0  0  0  0  0  0  0  0  0  0  0  0
   -1.6279   22.4230  -32.7462 H   0  0  0  0  0  0  0  0  0  0  0  0
   -7.8137   21.8064  -29.8505 H   0  0  0  0  0  0  0  0  0  0  0  0
   -8.1467   23.5866  -29.9632 H   0  0  0  0  0  0  0  0  0  0  0  0
   -9.4149   17.6337  -31.4071 H   0  0  0  0  0  0  0  0  0  0  0  0
   -7.3552   17.0214  -32.6981 H   0  0  0  0  0  0  0  0  0  0  0  0
   -5.9442   18.8541  -33.6623 H   0  0  0  0  0  0  0  0  0  0  0  0
   -6.6200   21.1550  -33.3150 H   0  0  0  0  0  0  0  0  0  0  0  0
  1  2  1  0
  2  3  1  0
  3  4  2  0
  4  5  1  0
  5  6  2  0
  5  7  1  0
  7  8  1  0
  7  9  2  0
  9 10  1  0
 10 11  1  0
 11 12  1  0
 12 13  2  0
 13 14  1  0
 14 15  2  0
 15 16  1  0
 16 17  2  0
  9 18  1  0
 18  3  1  0
 17 12  1  0
  1 19  1  0
  1 20  1  0
  1 21  1  0
 10 22  1  0
 10 23  1  0
 14 24  1  0
 15 25  1  0
 16 26  1  0
 17 27  1  0
M  CHG  2  17   1  18  -1
M  END
>  <UniqueID>  (7) 
7

>  <SMILES>  (7) 
CSc1nc(=O)c(Br)c(CSc2nccc[nH+]2)[n-]1

>  <Energy>  (7) 
20.792806576432163

>  <Genealogy>  (7) 
CSc1nc(=O)c(Br)c(CSc2nccc[nH+]2)[n-]1 (protonated)
CSc1nc(=O)c(Br)c(CSc2nccc[nH+]2)[n-]1 (3D coordinates assigned)
CSc1nc(=O)c(Br)c(CSc2nccc[nH+]2)[n-]1 (optimized conformer: 20.792806576432163 kcal/mol)

>  <smiles>  (7) 
CSc1nc(=O)c(Br)c(CSc2ncccn2)[nH]1

>  <score_type>  (7) 
oracle

>  <origin>  (7) 
adg

>  <m_score__min__energy>  (7) 
-7.6100000000000003

>  <m_primary>  (7) 
energy

$$$$
7:0
     RDKit          3D

 54 58  0  0  0  0  0  0  0  0999 V2000
   -8.5190   20.3280  -32.4410 C   0  0  0  0  0  0  0  0  0  0  0  0
   -7.6570   21.3830  -31.8080 C   0  0  0  0  0  0  0  0  0  0  0  0
   -8.0390   21.9590  -30.5890 C   0  0  0  0  0  0  0  0  0  0  0  0
   -7.2860   22.9980  -30.0320 C   0  0  0  0  0  0  0  0  0  0  0  0
   -6.1510   23.4850  -30.6950 C   0  0  0  0  0  0  0  0  0  0  0  0
   -5.3080   24.8980  -30.0570 S   0  0  0  0  0  0  0  0  0  0  0  0
   -6.2770   25.7810  -29.3210 O   0  0  0  0  0  0  0  0  0  0  0  0
   -4.7320   25.6660  -31.2150 O   0  0  0  0  0  0  0  0  0  0  0  0
   -4.0140   24.4480  -28.9820 N   0  0  0  0  0  0  0  0  0  0  0  0
   -2.8770   23.6660  -29.3690 C   0  0  0  0  0  0  0  0  0  0  0  0
   -1.6170   24.0130  -28.8780 C   0  0  0  0  0  0  0  0  0  0  0  0
   -0.4820   23.3280  -29.3140 C   0  0  0  0  0  0  0  0  0  0  0  0
   -0.6000   22.2970  -30.2500 C   0  0  0  0  0  0  0  0  0  0  0  0
   -1.8650   21.9050  -30.7380 C   0  0  0  0  0  0  0  0  0  0  0  0
   -1.9540   20.8480  -31.7940 C   0  0  0  0  0  0  0  0  0  0  0  0
   -0.8370   20.4240  -32.5550 C   0  0  0  0  0  0  0  0  0  0  0  0
   -1.0190   19.4080  -33.4340 N   0  0  0  0  0  0  0  0  0  0  0  0
   -0.1480   18.8260  -34.2680 C   0  0  0  0  0  0  0  0  0  0  0  0
   -0.8470   17.8550  -34.9660 C   0  0  0  0  0  0  0  0  0  0  0  0
   -2.1440   17.8330  -34.5680 N   0  0  0  0  0  0  0  0  0  0  0  0
   -2.1930   18.7950  -33.6240 C   0  0  0  0  0  0  0  0  0  0  0  0
   -3.3130   19.1930  -32.8940 C   0  0  0  0  0  0  0  0  0  0  0  0
   -4.5990   18.5790  -33.0740 N   0  0  0  0  0  0  0  0  0  0  0  0
   -5.5520   18.5450  -31.9550 C   0  0  0  0  0  0  0  0  0  0  0  0
   -6.5670   17.4210  -32.1850 C   0  0  0  0  0  0  0  0  0  0  0  0
   -7.1670   17.5350  -33.4650 O   0  0  0  0  0  0  0  0  0  0  0  0
   -6.1920   17.3550  -34.4740 C   0  0  0  0  0  0  0  0  0  0  0  0
   -5.1500   18.4750  -34.4280 C   0  0  0  0  0  0  0  0  0  0  0  0
   -3.1540   20.2160  -32.0020 N   0  0  0  0  0  0  0  0  0  0  0  0
   -3.0060   22.5720  -30.2390 C   0  0  0  0  0  0  0  0  0  0  0  0
   -5.7570   22.9000  -31.9060 C   0  0  0  0  0  0  0  0  0  0  0  0
   -6.5080   21.8560  -32.4600 C   0  0  0  0  0  0  0  0  0  0  0  0
   -9.0059   19.7321  -31.6550 H   0  0  0  0  0  0  0  0  0  0  0  0
   -9.2867   20.8080  -33.0658 H   0  0  0  0  0  0  0  0  0  0  0  0
   -7.8956   19.6714  -33.0658 H   0  0  0  0  0  0  0  0  0  0  0  0
   -8.9354   21.5923  -30.0675 H   0  0  0  0  0  0  0  0  0  0  0  0
   -7.5862   23.4353  -29.0683 H   0  0  0  0  0  0  0  0  0  0  0  0
   -1.5187   24.8281  -28.1459 H   0  0  0  0  0  0  0  0  0  0  0  0
    0.5082   23.6003  -28.9198 H   0  0  0  0  0  0  0  0  0  0  0  0
    0.3041   21.7847  -30.6108 H   0  0  0  0  0  0  0  0  0  0  0  0
    0.1459   20.9034  -32.4366 H   0  0  0  0  0  0  0  0  0  0  0  0
    0.9185   19.0719  -34.3778 H   0  0  0  0  0  0  0  0  0  0  0  0
   -0.4130   17.1964  -35.7327 H   0  0  0  0  0  0  0  0  0  0  0  0
   -5.0090   18.3626  -31.0159 H   0  0  0  0  0  0  0  0  0  0  0  0
   -6.0789   19.5085  -31.8917 H   0  0  0  0  0  0  0  0  0  0  0  0
   -6.0528   16.4512  -32.1134 H   0  0  0  0  0  0  0  0  0  0  0  0
   -7.3539   17.4961  -31.4201 H   0  0  0  0  0  0  0  0  0  0  0  0
   -5.6896   16.3884  -34.3218 H   0  0  0  0  0  0  0  0  0  0  0  0
   -6.6905   17.3769  -35.4543 H   0  0  0  0  0  0  0  0  0  0  0  0
   -4.3394   18.2501  -35.1368 H   0  0  0  0  0  0  0  0  0  0  0  0
   -5.6258   19.4279  -34.7028 H   0  0  0  0  0  0  0  0  0  0  0  0
   -4.0083   22.2297  -30.5360 H   0  0  0  0  0  0  0  0  0  0  0  0
   -4.8557   23.2618  -32.4225 H   0  0  0  0  0  0  0  0  0  0  0  0
   -6.1951   21.4037  -33.4126 H   0  0  0  0  0  0  0  0  0  0  0  0
  1  2  1  0
  2  3  2  0
  3  4  1  0
  4  5  2  0
  5  6  1  0
  6  7  2  0
  6  8  2  0
  6  9  1  0
  9 10  1  0
 10 11  2  0
 11 12  1  0
 12 13  2  0
 13 14  1  0
 14 15  1  0
 15 16  2  0
 16 17  1  0
 17 18  1  0
 18 19  2  0
 19 20  1  0
 20 21  2  0
 21 22  1  0
 22 23  1  0
 23 24  1  0
 24 25  1  0
 25 26  1  0
 26 27  1  0
 27 28  1  0
 22 29  2  0
 14 30  2  0
  5 31  1  0
 31 32  2  0
 32  2  1  0
 30 10  1  0
 29 15  1  0
 21 17  1  0
 28 23  1  0
  1 33  1  0
  1 34  1  0
  1 35  1  0
  3 36  1  0
  4 37  1  0
 11 38  1  0
 12 39  1  0
 13 40  1  0
 16 41  1  0
 18 42  1  0
 19 43  1  0
 24 44  1  0
 24 45  1  0
 25 46  1  0
 25 47  1  0
 27 48  1  0
 27 49  1  0
 28 50  1  0
 28 51  1  0
 30 52  1  0
 31 53  1  0
 32 54  1  0
M  CHG  1   9  -1
M  END
>  <UniqueID>  (8) 
8

>  <SMILES>  (8) 
Cc1ccc(S(=O)(=O)[N-]c2cccc(-c3cn4ccnc4c(N4CCOCC4)n3)c2)cc1

>  <Energy>  (8) 
108.43812214760929

>  <Genealogy>  (8) 
Cc1ccc(S(=O)(=O)[N-]c2cccc(-c3cn4ccnc4c(N4CCOCC4)n3)c2)cc1 (protonated)
Cc1ccc(S(=O)(=O)[N-]c2cccc(-c3cn4ccnc4c(N4CCOCC4)n3)c2)cc1 (3D coordinates assigned)
Cc1ccc(S(=O)(=O)[N-]c2cccc(-c3cn4ccnc4c(N4CCOCC4)n3)c2)cc1 (nonaromatic ring conformer: 108.43812214760929 kcal/mol)

>  <smiles>  (8) 
Cc1ccc(S(=O)(=O)Nc2cccc(-c3cn4ccnc4c(N4CCOCC4)n3)c2)cc1

>  <score_type>  (8) 
oracle

>  <origin>  (8) 
adg

>  <m_score__min__energy>  (8) 
-11.140000000000001

>  <m_primary>  (8) 
energy

$$$$
8:0
     RDKit          3D

 36 38  0  0  0  0  0  0  0  0999 V2000
   -8.6590   19.4300  -32.6840 C   0  0  0  0  0  0  0  0  0  0  0  0
   -8.3090   20.6970  -32.0190 N   0  0  0  0  0  0  0  0  0  0  0  0
   -9.4920   21.5600  -31.8780 C   0  0  0  0  0  0  0  0  0  0  0  0
   -7.1710   21.3870  -32.6670 C   0  0  0  0  0  0  0  0  0  0  0  0
   -6.2550   22.1040  -31.6950 C   0  0  0  0  0  0  0  0  0  0  0  0
   -5.0630   21.5020  -31.2670 C   0  0  0  0  0  0  0  0  0  0  0  0
   -4.2160   22.1660  -30.3750 C   0  0  0  0  0  0  0  0  0  0  0  0
   -4.5460   23.4440  -29.8890 C   0  0  0  0  0  0  0  0  0  0  0  0
   -3.6340   24.1340  -28.9440 C   0  0  0  0  0  0  0  0  0  0  0  0
   -3.7330   24.1490  -27.5500 C   0  0  0  0  0  0  0  0  0  0  0  0
   -2.6620   24.9180  -27.1570 C   0  0  0  0  0  0  0  0  0  0  0  0
   -2.2540   25.2790  -25.8750 C   0  0  0  0  0  0  0  0  0  0  0  0
   -1.1080   26.0850  -25.7640 C   0  0  0  0  0  0  0  0  0  0  0  0
   -0.4150   26.4980  -26.9170 C   0  0  0  0  0  0  0  0  0  0  0  0
   -0.8770   26.1010  -28.1810 C   0  0  0  0  0  0  0  0  0  0  0  0
   -1.9880   25.3240  -28.2430 N   0  0  0  0  0  0  0  0  0  0  0  0
   -2.5590   24.8590  -29.3400 N   0  0  0  0  0  0  0  0  0  0  0  0
   -5.7480   24.0410  -30.3140 C   0  0  0  0  0  0  0  0  0  0  0  0
   -6.5940   23.3750  -31.2060 C   0  0  0  0  0  0  0  0  0  0  0  0
   -8.8708   18.6634  -31.9241 H   0  0  0  0  0  0  0  0  0  0  0  0
   -9.5495   19.5794  -33.3122 H   0  0  0  0  0  0  0  0  0  0  0  0
   -7.8181   19.1011  -33.3122 H   0  0  0  0  0  0  0  0  0  0  0  0
   -9.7065   21.7165  -30.8105 H   0  0  0  0  0  0  0  0  0  0  0  0
   -9.2977   22.5300  -32.3590 H   0  0  0  0  0  0  0  0  0  0  0  0
  -10.3563   21.0788  -32.3590 H   0  0  0  0  0  0  0  0  0  0  0  0
   -6.5784   20.6392  -33.2143 H   0  0  0  0  0  0  0  0  0  0  0  0
   -7.5976   22.1543  -33.3298 H   0  0  0  0  0  0  0  0  0  0  0  0
   -4.7929   20.5013  -31.6354 H   0  0  0  0  0  0  0  0  0  0  0  0
   -3.2821   21.6842  -30.0499 H   0  0  0  0  0  0  0  0  0  0  0  0
   -4.4887   23.6612  -26.9167 H   0  0  0  0  0  0  0  0  0  0  0  0
   -2.8071   24.9463  -24.9843 H   0  0  0  0  0  0  0  0  0  0  0  0
   -0.7509   26.3946  -24.7707 H   0  0  0  0  0  0  0  0  0  0  0  0
    0.4826   27.1276  -26.8280 H   0  0  0  0  0  0  0  0  0  0  0  0
   -0.3528   26.4112  -29.0970 H   0  0  0  0  0  0  0  0  0  0  0  0
   -6.0236   25.0387  -29.9416 H   0  0  0  0  0  0  0  0  0  0  0  0
   -7.5324   23.8509  -31.5269 H   0  0  0  0  0  0  0  0  0  0  0  0
  1  2  1  0
  2  3  1  0
  2  4  1  0
  4  5  1  0
  5  6  2  0
  6  7  1  0
  7  8  2  0
  8  9  1  0
  9 10  1  0
 10 11  2  0
 11 12  1  0
 12 13  2  0
 13 14  1  0
 14 15  2  0
 15 16  1  0
 16 17  1  0
  8 18  1  0
 18 19  2  0
 19  5  1  0
 17  9  2  0
 16 11  1  0
  1 20  1  0
  1 21  1  0
  1 22  1  0
  3 23  1  0
  3 24  1  0
  3 25  1  0
  4 26  1  0
  4 27  1  0
  6 28  1  0
  7 29  1  0
 10 30  1  0
 12 31  1  0
 13 32  1  0
 14 33  1  0
 15 34  1  0
 18 35  1  0
 19 36  1  0
M  END
>  <UniqueID>  (9) 
9

>  <SMILES>  (9) 
CN(C)Cc1ccc(-c2cc3ccccn3n2)cc1

>  <Energy>  (9) 
76.61009120568528

>  <Genealogy>  (9) 
CN(C)Cc1ccc(-c2cc3ccccn3n2)cc1 (3D coordinates assigned)
CN(C)Cc1ccc(-c2cc3ccccn3n2)cc1 (optimized conformer: 76.61009120568528 kcal/mol)

>  <smiles>  (9) 
CN(C)Cc1ccc(-c2cc3ccccn3n2)cc1

>  <score_type>  (9) 
oracle

>  <origin>  (9) 
adg

>  <m_score__min__energy>  (9) 
-6.9299999999999997

>  <m_primary>  (9) 
energy

$$$$
9:0
     RDKit          3D

 42 44  0  0  0  0  0  0  0  0999 V2000
   -3.2930   18.8950  -26.3080 C   0  0  0  0  0  0  0  0  0  0  0  0
   -2.5200   19.8810  -27.1350 C   0  0  0  0  0  0  0  0  0  0  0  0
   -1.2820   20.3600  -26.6840 C   0  0  0  0  0  0  0  0  0  0  0  0
   -0.5740   21.3020  -27.4370 C   0  0  0  0  0  0  0  0  0  0  0  0
   -1.0910   21.7720  -28.6540 C   0  0  0  0  0  0  0  0  0  0  0  0
   -0.3280   22.8020  -29.4490 C   0  0  0  0  0  0  0  0  0  0  0  0
   -0.4020   24.1220  -28.8280 N   0  0  0  0  0  0  0  0  0  0  0  0
   -1.4990   25.0390  -28.9370 C   0  0  0  0  0  0  0  0  0  0  0  0
   -1.2540   26.2760  -28.9580 O   0  0  0  0  0  0  0  0  0  0  0  0
   -2.9230   24.5780  -29.0480 C   0  0  0  0  0  0  0  0  0  0  0  0
   -3.4580   24.9290  -30.3590 N   0  0  0  0  0  0  0  0  0  0  0  0
   -4.7370   24.5050  -30.8410 C   0  0  0  0  0  0  0  0  0  0  0  0
   -5.7280   25.2680  -30.7040 O   0  0  0  0  0  0  0  0  0  0  0  0
   -4.9340   23.1670  -31.4320 C   0  0  0  0  0  0  0  0  0  0  0  0
   -3.9150   22.6240  -32.2230 C   0  0  0  0  0  0  0  0  0  0  0  0
   -4.0770   21.4160  -32.8180 N   0  0  0  0  0  0  0  0  0  0  0  0
   -5.2180   20.6910  -32.6760 C   0  0  0  0  0  0  0  0  0  0  0  0
   -5.3410   19.4570  -33.3250 C   0  0  0  0  0  0  0  0  0  0  0  0
   -6.5120   18.7090  -33.1950 C   0  0  0  0  0  0  0  0  0  0  0  0
   -7.5650   19.1860  -32.4120 C   0  0  0  0  0  0  0  0  0  0  0  0
   -7.4540   20.4140  -31.7510 C   0  0  0  0  0  0  0  0  0  0  0  0
   -6.2780   21.1830  -31.8750 C   0  0  0  0  0  0  0  0  0  0  0  0
   -6.1210   22.4320  -31.2320 C   0  0  0  0  0  0  0  0  0  0  0  0
   -7.3620   23.0570  -30.1380 Cl  0  0  0  0  0  0  0  0  0  0  0  0
   -2.3530   21.3280  -29.0800 C   0  0  0  0  0  0  0  0  0  0  0  0
   -3.0620   20.3860  -28.3270 C   0  0  0  0  0  0  0  0  0  0  0  0
   -3.1293   19.1038  -25.2405 H   0  0  0  0  0  0  0  0  0  0  0  0
   -4.3649   18.9835  -26.5388 H   0  0  0  0  0  0  0  0  0  0  0  0
   -2.9512   17.8752  -26.5388 H   0  0  0  0  0  0  0  0  0  0  0  0
   -0.8659   19.9934  -25.7340 H   0  0  0  0  0  0  0  0  0  0  0  0
    0.3940   21.6768  -27.0731 H   0  0  0  0  0  0  0  0  0  0  0  0
    0.7265   22.4954  -29.5118 H   0  0  0  0  0  0  0  0  0  0  0  0
   -0.7780   22.8668  -30.4506 H   0  0  0  0  0  0  0  0  0  0  0  0
   -2.9642   23.4865  -28.9176 H   0  0  0  0  0  0  0  0  0  0  0  0
   -3.5242   25.0687  -28.2684 H   0  0  0  0  0  0  0  0  0  0  0  0
   -2.9766   23.1806  -32.3630 H   0  0  0  0  0  0  0  0  0  0  0  0
   -4.5121   19.0756  -33.9394 H   0  0  0  0  0  0  0  0  0  0  0  0
   -6.6056   17.7417  -33.7104 H   0  0  0  0  0  0  0  0  0  0  0  0
   -8.4865   18.5933  -32.3144 H   0  0  0  0  0  0  0  0  0  0  0  0
   -8.2864   20.7810  -31.1326 H   0  0  0  0  0  0  0  0  0  0  0  0
   -2.7865   21.7229  -30.0107 H   0  0  0  0  0  0  0  0  0  0  0  0
   -4.0480   20.0398  -28.6705 H   0  0  0  0  0  0  0  0  0  0  0  0
  1  2  1  0
  2  3  2  0
  3  4  1  0
  4  5  2  0
  5  6  1  0
  6  7  1  0
  7  8  1  0
  8  9  2  0
  8 10  1  0
 10 11  1  0
 11 12  1  0
 12 13  2  0
 12 14  1  0
 14 15  2  0
 15 16  1  0
 16 17  2  0
 17 18  1  0
 18 19  2  0
 19 20  1  0
 20 21  2  0
 21 22  1  0
 22 23  2  0
 23 24  1  0
  5 25  1  0
 25 26  2  0
 26  2  1  0
 23 14  1  0
 22 17  1  0
  1 27  1  0
  1 28  1  0
  1 29  1  0
  3 30  1  0
  4 31  1  0
  6 32  1  0
  6 33  1  0
 10 34  1  0
 10 35  1  0
 15 36  1  0
 18 37  1  0
 19 38  1  0
 20 39  1  0
 21 40  1  0
 25 41  1  0
 26 42  1  0
M  CHG  2   7  -1  11  -1
M  END
>  <UniqueID>  (10) 
10

>  <SMILES>  (10) 
Cc1ccc(C[N-]C(=O)C[N-]C(=O)c2cnc3ccccc3c2Cl)cc1

>  <Energy>  (10) 
51.145419703846095

>  <Genealogy>  (10) 
Cc1ccc(C[N-]C(=O)C[N-]C(=O)c2cnc3ccccc3c2Cl)cc1 (protonated)
Cc1ccc(C[N-]C(=O)C[N-]C(=O)c2cnc3ccccc3c2Cl)cc1 (3D coordinates assigned)
Cc1ccc(C[N-]C(=O)C[N-]C(=O)c2cnc3ccccc3c2Cl)cc1 (optimized conformer: 51.145419703846095 kcal/mol)

>  <smiles>  (10) 
Cc1ccc(CNC(=O)CNC(=O)c2cnc3ccccc3c2Cl)cc1

>  <score_type>  (10) 
oracle

>  <origin>  (10) 
adg

>  <m_score__min__energy>  (10) 
-12.01

>  <m_primary>  (10) 
energy

$$$$
10:0
     RDKit          3D

 35 38  0  0  0  0  0  0  0  0999 V2000
   -0.4130   25.8760  -28.2740 O   0  0  0  0  0  0  0  0  0  0  0  0
   -1.2240   24.9670  -28.5940 C   0  0  0  0  0  0  0  0  0  0  0  0
   -1.0030   23.5560  -28.1210 C   0  0  0  0  0  0  0  0  0  0  0  0
   -1.5320   22.4860  -29.1170 C   0  0  1  0  0  0  0  0  0  0  0  0
   -1.6430   21.1620  -28.3850 C   0  0  0  0  0  0  0  0  0  0  0  0
   -2.7370   20.9180  -27.5390 C   0  0  0  0  0  0  0  0  0  0  0  0
   -2.8470   19.7020  -26.8620 C   0  0  0  0  0  0  0  0  0  0  0  0
   -1.8800   18.7090  -27.0360 C   0  0  0  0  0  0  0  0  0  0  0  0
   -0.8030   18.9130  -27.9160 C   0  0  0  0  0  0  0  0  0  0  0  0
    0.2660   17.8620  -28.0740 C   0  0  0  0  0  0  0  0  0  0  0  0
    1.5230   18.4170  -27.8970 F   0  0  0  0  0  0  0  0  0  0  0  0
    0.2180   17.2970  -29.3360 F   0  0  0  0  0  0  0  0  0  0  0  0
    0.0740   16.8710  -27.1290 F   0  0  0  0  0  0  0  0  0  0  0  0
   -0.6840   20.1480  -28.5760 C   0  0  0  0  0  0  0  0  0  0  0  0
   -2.8400   22.9040  -29.7790 C   0  0  0  0  0  0  0  0  0  0  0  0
   -3.2160   24.2440  -29.8280 C   0  0  0  0  0  0  0  0  0  0  0  0
   -4.6330   24.4570  -30.7120 S   0  0  0  0  0  0  0  0  0  0  0  0
   -4.7830   22.8230  -31.0810 C   0  0  0  0  0  0  0  0  0  0  0  0
   -5.7670   22.2250  -31.8640 C   0  0  0  0  0  0  0  0  0  0  0  0
   -5.6710   20.8510  -32.1180 C   0  0  0  0  0  0  0  0  0  0  0  0
   -4.5940   20.1080  -31.6050 C   0  0  0  0  0  0  0  0  0  0  0  0
   -3.6070   20.7280  -30.8220 C   0  0  0  0  0  0  0  0  0  0  0  0
   -3.7210   22.1000  -30.5390 C   0  0  0  0  0  0  0  0  0  0  0  0
   -2.4080   25.2980  -29.3190 N   0  0  0  0  0  0  0  0  0  0  0  0
    0.0767   23.3994  -27.9807 H   0  0  0  0  0  0  0  0  0  0  0  0
   -1.5637   23.4344  -27.1825 H   0  0  0  0  0  0  0  0  0  0  0  0
   -0.8193   22.3778  -29.9479 H   0  0  0  0  0  0  0  0  0  0  0  0
   -3.5110   21.6887  -27.4091 H   0  0  0  0  0  0  0  0  0  0  0  0
   -3.6987   19.5251  -26.1887 H   0  0  0  0  0  0  0  0  0  0  0  0
   -1.9618   17.7625  -26.4815 H   0  0  0  0  0  0  0  0  0  0  0  0
    0.1676   20.3249  -29.2494 H   0  0  0  0  0  0  0  0  0  0  0  0
   -6.5991   22.8170  -32.2729 H   0  0  0  0  0  0  0  0  0  0  0  0
   -6.4424   20.3509  -32.7220 H   0  0  0  0  0  0  0  0  0  0  0  0
   -4.5236   19.0313  -31.8188 H   0  0  0  0  0  0  0  0  0  0  0  0
   -2.7562   20.1478  -30.4354 H   0  0  0  0  0  0  0  0  0  0  0  0
  1  2  2  0
  2  3  1  0
  3  4  1  0
  4  5  1  0
  5  6  2  0
  6  7  1  0
  7  8  2  0
  8  9  1  0
  9 10  1  0
 10 11  1  0
 10 12  1  0
 10 13  1  0
  9 14  2  0
  4 15  1  0
 15 16  2  0
 16 17  1  0
 17 18  1  0
 18 19  2  0
 19 20  1  0
 20 21  2  0
 21 22  1  0
 22 23  2  0
 16 24  1  0
 24  2  1  0
 14  5  1  0
 23 15  1  0
 23 18  1  0
  3 25  1  0
  3 26  1  0
  4 27  1  6
  6 28  1  0
  7 29  1  0
  8 30  1  0
 14 31  1  0
 19 32  1  0
 20 33  1  0
 21 34  1  0
 22 35  1  0
M  CHG  1  24  -1
M  END
>  <UniqueID>  (11) 
11

>  <SMILES>  (11) 
O=C1C[C@@H](c2cccc(C(F)(F)F)c2)c2c(sc3ccccc23)[N-]1

>  <Energy>  (11) 
76.18675126832288

>  <Genealogy>  (11) 
O=C1CC(c2cccc(C(F)(F)F)c2)c2c(sc3ccccc23)[N-]1 (protonated)
O=C1C[C@@H](c2cccc(C(F)(F)F)c2)c2c(sc3ccccc23)[N-]1 (chirality)
O=C1C[C@@H](c2cccc(C(F)(F)F)c2)c2c(sc3ccccc23)[N-]1 (3D coordinates assigned)
O=C1C[C@@H](c2cccc(C(F)(F)F)c2)c2c(sc3ccccc23)[N-]1 (nonaromatic ring conformer: 76.18675126832288 kcal/mol)

>  <smiles>  (11) 
O=C1CC(c2cccc(C(F)(F)F)c2)c2c(sc3ccccc23)N1

>  <score_type>  (11) 
oracle

>  <origin>  (11) 
adg

>  <m_score__min__energy>  (11) 
-9.4700000000000006

>  <m_primary>  (11) 
energy

$$$$
11:0
     RDKit          3D

 41 43  0  0  0  0  0  0  0  0999 V2000
   -3.1573   25.3224  -24.7071 H   0  0  0  0  0  0  0  0  0  0  0  0
   -2.3900   25.4290  -25.4880 C   0  0  0  0  0  0  0  0  0  0  0  0
   -1.1350   25.8280  -25.1550 N   0  0  0  0  0  0  0  0  0  0  0  0
   -0.1600   25.9840  -26.0900 C   0  0  0  0  0  0  0  0  0  0  0  0
    1.2230   26.4090  -25.6640 C   0  0  0  0  0  0  0  0  0  0  0  0
    1.9429   25.6362  -25.9714 H   0  0  0  0  0  0  0  0  0  0  0  0
    1.4465   27.3729  -26.1445 H   0  0  0  0  0  0  0  0  0  0  0  0
    1.3170   26.5950  -24.1950 N   0  0  0  0  0  0  0  0  0  0  0  0
    0.6110   25.9610  -23.7490 H   0  0  0  0  0  0  0  0  0  0  0  0
    2.6560   26.1760  -23.6950 C   0  0  0  0  0  0  0  0  0  0  0  0
    2.5285   25.6357  -22.7454 H   0  0  0  0  0  0  0  0  0  0  0  0
    3.1196   25.5319  -24.4568 H   0  0  0  0  0  0  0  0  0  0  0  0
    3.5820   27.3840  -23.4610 C   0  0  0  0  0  0  0  0  0  0  0  0
    4.5534   27.0138  -23.1014 H   0  0  0  0  0  0  0  0  0  0  0  0
    3.6680   27.9168  -24.4195 H   0  0  0  0  0  0  0  0  0  0  0  0
    3.0740   28.3110  -22.5110 O   0  0  0  0  0  0  0  0  0  0  0  0
    1.6540   28.3710  -22.4730 C   0  0  0  0  0  0  0  0  0  0  0  0
    1.2974   27.6800  -21.6949 H   0  0  0  0  0  0  0  0  0  0  0  0
    1.3807   29.4154  -22.2621 H   0  0  0  0  0  0  0  0  0  0  0  0
    0.9860   27.9900  -23.8050 C   0  0  0  0  0  0  0  0  0  0  0  0
   -0.1049   28.0831  -23.6984 H   0  0  0  0  0  0  0  0  0  0  0  0
    1.3596   28.6673  -24.5871 H   0  0  0  0  0  0  0  0  0  0  0  0
   -0.4400   25.7150  -27.4380 C   0  0  0  0  0  0  0  0  0  0  0  0
    0.3398   25.8508  -28.2019 H   0  0  0  0  0  0  0  0  0  0  0  0
   -1.7160   25.2730  -27.8070 C   0  0  0  0  0  0  0  0  0  0  0  0
   -1.9890   25.0360  -29.1980 N   0  0  0  0  0  0  0  0  0  0  0  0
   -3.0780   24.5370  -29.7090 C   0  0  0  0  0  0  0  0  0  0  0  0
   -3.9170   25.2990  -30.4670 N   0  0  0  0  0  0  0  0  0  0  0  0
   -5.0720   24.8040  -30.9860 C   0  0  0  0  0  0  0  0  0  0  0  0
   -5.7118   25.4457  -31.6096 H   0  0  0  0  0  0  0  0  0  0  0  0
   -5.4510   23.4770  -30.7290 C   0  0  0  0  0  0  0  0  0  0  0  0
   -6.7030   22.9010  -31.3410 C   0  0  0  0  0  0  0  0  0  0  0  0
   -7.6620   22.7470  -30.3570 F   0  0  0  0  0  0  0  0  0  0  0  0
   -6.4430   21.6670  -31.9140 F   0  0  0  0  0  0  0  0  0  0  0  0
   -7.1970   23.7400  -32.3240 F   0  0  0  0  0  0  0  0  0  0  0  0
   -4.5920   22.6730  -29.9620 C   0  0  0  0  0  0  0  0  0  0  0  0
   -4.8494   21.6205  -29.7724 H   0  0  0  0  0  0  0  0  0  0  0  0
   -3.4130   23.2060  -29.4400 C   0  0  0  0  0  0  0  0  0  0  0  0
   -2.7509   22.5831  -28.8206 H   0  0  0  0  0  0  0  0  0  0  0  0
   -2.7080   25.1540  -26.8190 C   0  0  0  0  0  0  0  0  0  0  0  0
   -3.7280   24.8463  -27.0925 H   0  0  0  0  0  0  0  0  0  0  0  0
  1  2  1  0
  2  3  2  0
  3  4  1  0
  4  5  1  0
  5  6  1  0
  5  7  1  0
  5  8  1  0
  8  9  1  0
  8 10  1  0
 10 11  1  0
 10 12  1  0
 10 13  1  0
 13 14  1  0
 13 15  1  0
 13 16  1  0
 16 17  1  0
 17 18  1  0
 17 19  1  0
 17 20  1  0
 20 21  1  0
 20 22  1  0
  4 23  2  0
 23 24  1  0
 23 25  1  0
 25 26  1  0
 26 27  2  0
 27 28  1  0
 28 29  1  0
 29 30  1  0
 29 31  2  0
 31 32  1  0
 32 33  1  0
 32 34  1  0
 32 35  1  0
 31 36  1  0
 36 37  1  0
 36 38  2  0
 38 39  1  0
 25 40  2  0
 40 41  1  0
 40  2  1  0
 20  8  1  0
 38 27  1  0
M  CHG  2   8   1  28  -1
M  END
>  <UniqueID>  (12) 
12

>  <SMILES>  (12) 
FC(F)(F)c1cc/c(=N/c2ccnc(C[NH+]3CCOCC3)c2)[n-]c1

>  <Energy>  (12) 
65.23331494021349

>  <Genealogy>  (12) 
FC(F)(F)c1ccc(=Nc2ccnc(C[NH+]3CCOCC3)c2)[n-]c1 (protonated)
FC(F)(F)c1cc/c(=N/c2ccnc(C[NH+]3CCOCC3)c2)[n-]c1 (cis-trans isomerization)
FC(F)(F)c1cc/c(=N/c2ccnc(C[NH+]3CCOCC3)c2)[n-]c1 (3D coordinates assigned)
FC(F)(F)c1cc/c(=N/c2ccnc(C[NH+]3CCOCC3)c2)[n-]c1 (nonaromatic ring conformer: 65.23331494021349 kcal/mol)

>  <smiles>  (12) 
FC(F)(F)c1ccc(=Nc2ccnc(CN3CCOCC3)c2)[nH]c1

>  <score_type>  (12) 
oracle

>  <origin>  (12) 
adg

>  <m_score__min__energy>  (12) 
-8.5899999999999999

>  <m_primary>  (12) 
energy

$$$$
12:0
     RDKit          3D

 60 63  0  0  0  0  0  0  0  0999 V2000
   -2.9260   25.3670  -25.9640 C   0  0  0  0  0  0  0  0  0  0  0  0
   -3.4020   24.8340  -27.1930 O   0  0  0  0  0  0  0  0  0  0  0  0
   -2.7500   23.8350  -27.9320 C   0  0  0  0  0  0  0  0  0  0  0  0
   -2.9870   22.4660  -27.7080 C   0  0  0  0  0  0  0  0  0  0  0  0
   -2.3180   21.5010  -28.4600 C   0  0  0  0  0  0  0  0  0  0  0  0
   -1.4040   21.8810  -29.4500 C   0  0  0  0  0  0  0  0  0  0  0  0
   -0.6780   20.8390  -30.2610 C   0  0  0  0  0  0  0  0  0  0  0  0
   -1.3720   20.6010  -31.5330 N   0  0  0  0  0  0  0  0  0  0  0  0
   -2.7070   20.4540  -31.7150 C   0  0  0  0  0  0  0  0  0  0  0  0
   -3.7330   20.4380  -30.7660 C   0  0  0  0  0  0  0  0  0  0  0  0
   -5.0560   20.3130  -31.2270 C   0  0  0  0  0  0  0  0  0  0  0  0
   -5.3380   20.2030  -32.6170 C   0  0  0  0  0  0  0  0  0  0  0  0
   -6.6890   20.1180  -33.1000 N   0  0  0  0  0  0  0  0  0  0  0  0
   -7.7400   19.4190  -32.4180 C   0  0  0  0  0  0  0  0  0  0  0  0
   -7.4710   18.5130  -31.5840 O   0  0  0  0  0  0  0  0  0  0  0  0
   -9.1750   19.7440  -32.7130 C   0  0  0  0  0  0  0  0  0  0  0  0
   -9.5500   21.1640  -32.2570 C   0  0  0  0  0  0  0  0  0  0  0  0
   -8.9400   21.5660  -30.9020 C   0  0  0  0  0  0  0  0  0  0  0  0
   -7.7470   22.4600  -31.0590 C   0  0  0  0  0  0  0  0  0  0  0  0
   -7.2990   23.0270  -32.2460 C   0  0  0  0  0  0  0  0  0  0  0  0
   -6.1550   23.8150  -32.0800 C   0  0  0  0  0  0  0  0  0  0  0  0
   -5.7020   23.8740  -30.7680 C   0  0  0  0  0  0  0  0  0  0  0  0
   -6.7300   22.9480  -29.8110 S   0  0  0  0  0  0  0  0  0  0  0  0
   -4.2780   20.2490  -33.5480 C   0  0  0  0  0  0  0  0  0  0  0  0
   -2.9820   20.3650  -33.0550 C   0  0  0  0  0  0  0  0  0  0  0  0
   -1.7620   20.4720  -33.6750 C   0  0  0  0  0  0  0  0  0  0  0  0
   -1.5610   20.4720  -34.9180 O   0  0  0  0  0  0  0  0  0  0  0  0
   -0.7970   20.6070  -32.7360 N   0  0  0  0  0  0  0  0  0  0  0  0
    0.6240   20.8500  -32.9950 C   0  0  0  0  0  0  0  0  0  0  0  0
   -1.1760   23.2450  -29.6850 C   0  0  0  0  0  0  0  0  0  0  0  0
   -1.8370   24.2270  -28.9230 C   0  0  0  0  0  0  0  0  0  0  0  0
   -1.6140   25.5980  -29.1220 O   0  0  0  0  0  0  0  0  0  0  0  0
   -0.8920   26.4350  -28.2230 C   0  0  0  0  0  0  0  0  0  0  0  0
   -3.4004   24.8358  -25.1257 H   0  0  0  0  0  0  0  0  0  0  0  0
   -1.8347   25.2406  -25.9077 H   0  0  0  0  0  0  0  0  0  0  0  0
   -3.1745   26.4371  -25.9077 H   0  0  0  0  0  0  0  0  0  0  0  0
   -3.7048   22.1552  -26.9346 H   0  0  0  0  0  0  0  0  0  0  0  0
   -2.5097   20.4339  -28.2741 H   0  0  0  0  0  0  0  0  0  0  0  0
    0.3447   21.1882  -30.4665 H   0  0  0  0  0  0  0  0  0  0  0  0
   -0.6506   19.8994  -29.6897 H   0  0  0  0  0  0  0  0  0  0  0  0
   -3.5126   20.5206  -29.6915 H   0  0  0  0  0  0  0  0  0  0  0  0
   -5.8839   20.3001  -30.5028 H   0  0  0  0  0  0  0  0  0  0  0  0
   -6.9110   20.5600  -34.0200 H   0  0  0  0  0  0  0  0  0  0  0  0
   -9.3416   19.6637  -33.7973 H   0  0  0  0  0  0  0  0  0  0  0  0
   -9.8051   19.0321  -32.1596 H   0  0  0  0  0  0  0  0  0  0  0  0
   -9.2003   21.8760  -33.0190 H   0  0  0  0  0  0  0  0  0  0  0  0
  -10.6428   21.1810  -32.1326 H   0  0  0  0  0  0  0  0  0  0  0  0
   -9.7037   22.0951  -30.3131 H   0  0  0  0  0  0  0  0  0  0  0  0
   -8.6083   20.6473  -30.3960 H   0  0  0  0  0  0  0  0  0  0  0  0
   -7.7931   22.8721  -33.2165 H   0  0  0  0  0  0  0  0  0  0  0  0
   -5.6602   24.3391  -32.9110 H   0  0  0  0  0  0  0  0  0  0  0  0
   -4.8215   24.4310  -30.4152 H   0  0  0  0  0  0  0  0  0  0  0  0
   -4.4705   20.1948  -34.6297 H   0  0  0  0  0  0  0  0  0  0  0  0
    1.1605   20.9417  -32.0391 H   0  0  0  0  0  0  0  0  0  0  0  0
    1.0407   20.0101  -33.5702 H   0  0  0  0  0  0  0  0  0  0  0  0
    0.7380   21.7807  -33.5702 H   0  0  0  0  0  0  0  0  0  0  0  0
   -0.4727   23.5508  -30.4736 H   0  0  0  0  0  0  0  0  0  0  0  0
   -1.1336   26.1549  -27.1871 H   0  0  0  0  0  0  0  0  0  0  0  0
    0.1876   26.3115  -28.3939 H   0  0  0  0  0  0  0  0  0  0  0  0
   -1.1726   27.4848  -28.3939 H   0  0  0  0  0  0  0  0  0  0  0  0
  1  2  1  0
  2  3  1  0
  3  4  2  0
  4  5  1  0
  5  6  2  0
  6  7  1  0
  7  8  1  0
  8  9  1  0
  9 10  2  0
 10 11  1  0
 11 12  2  0
 12 13  1  0
 13 14  1  0
 14 15  2  0
 14 16  1  0
 16 17  1  0
 17 18  1  0
 18 19  1  0
 19 20  2  0
 20 21  1  0
 21 22  2  0
 22 23  1  0
 12 24  1  0
 24 25  2  0
 25 26  1  0
 26 27  2  0
 26 28  1  0
 28 29  1  0
  6 30  1  0
 30 31  2  0
 31 32  1  0
 32 33  1  0
 31  3  1  0
 28  8  1  0
 25  9  1  0
 23 19  1  0
  1 34  1  0
  1 35  1  0
  1 36  1  0
  4 37  1  0
  5 38  1  0
  7 39  1  0
  7 40  1  0
 10 41  1  0
 11 42  1  0
 13 43  1  0
 16 44  1  0
 16 45  1  0
 17 46  1  0
 17 47  1  0
 18 48  1  0
 18 49  1  0
 20 50  1  0
 21 51  1  0
 22 52  1  0
 24 53  1  0
 29 54  1  0
 29 55  1  0
 29 56  1  0
 30 57  1  0
 33 58  1  0
 33 59  1  0
 33 60  1  0
M  END
>  <UniqueID>  (13) 
13

>  <SMILES>  (13) 
COc1ccc(Cn2c3ccc(NC(=O)CCCc4cccs4)cc3c(=O)n2C)cc1OC

>  <Energy>  (13) 
126.09656481746867

>  <Genealogy>  (13) 
COc1ccc(Cn2c3ccc(NC(=O)CCCc4cccs4)cc3c(=O)n2C)cc1OC (3D coordinates assigned)
COc1ccc(Cn2c3ccc(NC(=O)CCCc4cccs4)cc3c(=O)n2C)cc1OC (optimized conformer: 126.09656481746867 kcal/mol)

>  <smiles>  (13) 
COc1ccc(Cn2c3ccc(NC(=O)CCCc4cccs4)cc3c(=O)n2C)cc1OC

>  <score_type>  (13) 
oracle

>  <origin>  (13) 
adg

>  <m_score__min__energy>  (13) 
-9.5299999999999994

>  <m_primary>  (13) 
energy

$$$$
13:0
     RDKit          3D

 43 44  0  0  0  0  0  0  0  0999 V2000
   -6.4377   24.7357  -31.1849 H   0  0  0  0  0  0  0  0  0  0  0  0
   -5.6460   23.9830  -31.3140 C   0  0  0  0  0  0  0  0  0  0  0  0
   -4.3810   24.1520  -30.5680 C   0  0  0  0  0  0  0  0  0  0  0  0
   -3.8540   25.2960  -30.5330 O   0  0  0  0  0  0  0  0  0  0  0  0
   -3.7100   23.0320  -29.8650 C   0  0  0  0  0  0  0  0  0  0  0  0
   -3.8120   22.9270  -28.4640 C   0  0  0  0  0  0  0  0  0  0  0  0
   -4.5670   23.8840  -27.7640 O   0  0  0  0  0  0  0  0  0  0  0  0
   -4.0640   24.7020  -26.7130 C   0  0  0  0  0  0  0  0  0  0  0  0
   -4.3355   24.2605  -25.7428 H   0  0  0  0  0  0  0  0  0  0  0  0
   -2.9689   24.7683  -26.7921 H   0  0  0  0  0  0  0  0  0  0  0  0
   -4.4990   25.7092  -26.7921 H   0  0  0  0  0  0  0  0  0  0  0  0
   -3.1730   21.8620  -27.8020 C   0  0  0  0  0  0  0  0  0  0  0  0
   -3.2529   21.7775  -26.7082 H   0  0  0  0  0  0  0  0  0  0  0  0
   -2.4390   20.9110  -28.5140 C   0  0  0  0  0  0  0  0  0  0  0  0
   -1.8320   19.8690  -27.7950 O   0  0  0  0  0  0  0  0  0  0  0  0
   -2.4480   19.1640  -26.7220 C   0  0  0  0  0  0  0  0  0  0  0  0
   -2.0924   19.5709  -25.7639 H   0  0  0  0  0  0  0  0  0  0  0  0
   -3.5400   19.2792  -26.7866 H   0  0  0  0  0  0  0  0  0  0  0  0
   -2.1874   18.0973  -26.7866 H   0  0  0  0  0  0  0  0  0  0  0  0
   -2.3320   21.0260  -29.9090 C   0  0  0  0  0  0  0  0  0  0  0  0
   -1.7561   20.2784  -30.4742 H   0  0  0  0  0  0  0  0  0  0  0  0
   -2.9540   22.0880  -30.5920 C   0  0  0  0  0  0  0  0  0  0  0  0
   -2.8330   22.2400  -31.9840 O   0  0  0  0  0  0  0  0  0  0  0  0
   -2.3500   21.2390  -32.8720 C   0  0  0  0  0  0  0  0  0  0  0  0
   -1.9442   20.3980  -32.2906 H   0  0  0  0  0  0  0  0  0  0  0  0
   -3.1751   20.8822  -33.5060 H   0  0  0  0  0  0  0  0  0  0  0  0
   -1.5573   21.6628  -33.5060 H   0  0  0  0  0  0  0  0  0  0  0  0
   -5.8700   22.9520  -32.1410 C   0  0  0  0  0  0  0  0  0  0  0  0
   -5.1169   22.7187  -32.9081 H   0  0  0  0  0  0  0  0  0  0  0  0
   -7.0930   22.1110  -32.0650 C   0  0  0  0  0  0  0  0  0  0  0  0
   -8.3230   22.7030  -31.7120 C   0  0  0  0  0  0  0  0  0  0  0  0
   -8.3589   23.7734  -31.4613 H   0  0  0  0  0  0  0  0  0  0  0  0
   -9.4950   21.9470  -31.6770 C   0  0  0  0  0  0  0  0  0  0  0  0
  -10.4454   22.4205  -31.3896 H   0  0  0  0  0  0  0  0  0  0  0  0
   -9.4640   20.5950  -32.0050 C   0  0  0  0  0  0  0  0  0  0  0  0
  -10.3902   20.0023  -31.9765 H   0  0  0  0  0  0  0  0  0  0  0  0
   -8.2610   19.9890  -32.3700 C   0  0  0  0  0  0  0  0  0  0  0  0
   -8.2496   18.9227  -32.6398 H   0  0  0  0  0  0  0  0  0  0  0  0
   -7.0590   20.7280  -32.3970 C   0  0  0  0  0  0  0  0  0  0  0  0
   -5.7680   20.0370  -32.7950 C   0  0  0  0  0  0  0  0  0  0  0  0
   -5.9930   18.7420  -33.2320 F   0  0  0  0  0  0  0  0  0  0  0  0
   -4.9070   19.9730  -31.7140 F   0  0  0  0  0  0  0  0  0  0  0  0
   -5.1640   20.7420  -33.8200 F   0  0  0  0  0  0  0  0  0  0  0  0
  1  2  1  0
  2  3  1  0
  3  4  2  0
  3  5  1  0
  5  6  2  0
  6  7  1  0
  7  8  1  0
  8  9  1  0
  8 10  1  0
  8 11  1  0
  6 12  1  0
 12 13  1  0
 12 14  2  0
 14 15  1  0
 15 16  1  0
 16 17  1  0
 16 18  1  0
 16 19  1  0
 14 20  1  0
 20 21  1  0
 20 22  2  0
 22 23  1  0
 23 24  1  0
 24 25  1  0
 24 26  1  0
 24 27  1  0
  2 28  2  0
 28 29  1  0
 28 30  1  0
 30 31  2  0
 31 32  1  0
 31 33  1  0
 33 34  1  0
 33 35  2  0
 35 36  1  0
 35 37  1  0
 37 38  1  0
 37 39  2  0
 39 40  1  0
 40 41  1  0
 40 42  1  0
 40 43  1  0
 22  5  1  0
 39 30  1  0
M  END
>  <UniqueID>  (14) 
14

>  <SMILES>  (14) 
COc1cc(OC)c(C(=O)/C=C/c2ccccc2C(F)(F)F)c(OC)c1

>  <Energy>  (14) 
53.770822091463266

>  <Genealogy>  (14) 
COc1cc(OC)c(C(=O)/C=C/c2ccccc2C(F)(F)F)c(OC)c1 (cis-trans isomerization)
COc1cc(OC)c(C(=O)/C=C/c2ccccc2C(F)(F)F)c(OC)c1 (3D coordinates assigned)
COc1cc(OC)c(C(=O)/C=C/c2ccccc2C(F)(F)F)c(OC)c1 (optimized conformer: 53.770822091463266 kcal/mol)

>  <smiles>  (14) 
COc1cc(OC)c(C(=O)C=Cc2ccccc2C(F)(F)F)c(OC)c1

>  <score_type>  (14) 
oracle

>  <origin>  (14) 
adg

>  <m_score__min__energy>  (14) 
-7.2599999999999998

>  <m_primary>  (14) 
energy

$$$$
14:0
     RDKit          3D

 49 52  0  0  0  0  0  0  0  0999 V2000
    1.6127   17.2283  -32.5623 H   0  0  0  0  0  0  0  0  0  0  0  0
    1.3010   18.1600  -33.0570 C   0  0  0  0  0  0  0  0  0  0  0  0
    0.0120   18.6560  -32.8470 C   0  0  0  0  0  0  0  0  0  0  0  0
   -0.6825   18.1110  -32.1907 H   0  0  0  0  0  0  0  0  0  0  0  0
   -0.4040   19.8460  -33.4680 C   0  0  0  0  0  0  0  0  0  0  0  0
   -1.7740   20.3770  -33.2490 C   0  0  0  0  0  0  0  0  0  0  0  0
   -1.9850   21.5060  -32.4250 C   0  0  0  0  0  0  0  0  0  0  0  0
   -1.1424   22.0247  -31.9443 H   0  0  0  0  0  0  0  0  0  0  0  0
   -3.2920   21.9380  -32.2430 C   0  0  0  0  0  0  0  0  0  0  0  0
   -3.7200   22.9690  -31.5060 N   0  0  0  0  0  0  0  0  0  0  0  0
   -5.0670   22.9430  -31.6790 C   0  0  0  0  0  0  0  0  0  0  0  0
   -5.7960   23.8850  -31.1450 N   0  0  0  0  0  0  0  0  0  0  0  0
   -5.4320   25.1360  -30.5600 C   0  0  0  0  0  0  0  0  0  0  0  0
   -4.3340   25.6740  -30.8440 O   0  0  0  0  0  0  0  0  0  0  0  0
   -6.2350   25.6760  -29.4250 C   0  0  0  0  0  0  0  0  0  0  0  0
   -5.7775   25.3684  -28.4731 H   0  0  0  0  0  0  0  0  0  0  0  0
   -6.2587   26.7742  -29.4824 H   0  0  0  0  0  0  0  0  0  0  0  0
   -7.2610   25.2837  -29.4824 H   0  0  0  0  0  0  0  0  0  0  0  0
   -5.5060   21.8850  -32.4550 N   0  0  0  0  0  0  0  0  0  0  0  0
   -6.8370   21.2610  -32.6460 C   0  0  0  0  0  0  0  0  0  0  0  0
   -7.0995   21.3194  -33.7126 H   0  0  0  0  0  0  0  0  0  0  0  0
   -7.9600   22.0840  -31.9680 C   0  0  0  0  0  0  0  0  0  0  0  0
   -7.5224   22.6429  -31.1277 H   0  0  0  0  0  0  0  0  0  0  0  0
   -8.3827   22.7472  -32.7371 H   0  0  0  0  0  0  0  0  0  0  0  0
   -9.1140   21.2250  -31.4310 C   0  0  0  0  0  0  0  0  0  0  0  0
   -8.9192   20.9826  -30.3759 H   0  0  0  0  0  0  0  0  0  0  0  0
  -10.0485   21.7963  -31.5333 H   0  0  0  0  0  0  0  0  0  0  0  0
   -9.2440   20.0230  -32.1630 O   0  0  0  0  0  0  0  0  0  0  0  0
   -8.1550   19.1750  -31.8580 C   0  0  0  0  0  0  0  0  0  0  0  0
   -8.0598   19.0945  -30.7651 H   0  0  0  0  0  0  0  0  0  0  0  0
   -8.3480   18.1899  -32.3078 H   0  0  0  0  0  0  0  0  0  0  0  0
   -6.8370   19.7200  -32.4360 C   0  0  0  0  0  0  0  0  0  0  0  0
   -6.0217   19.4638  -31.7434 H   0  0  0  0  0  0  0  0  0  0  0  0
   -6.7057   19.2603  -33.4267 H   0  0  0  0  0  0  0  0  0  0  0  0
   -4.3410   21.3040  -32.8230 C   0  0  0  0  0  0  0  0  0  0  0  0
   -4.1630   20.2260  -33.6380 N   0  0  0  0  0  0  0  0  0  0  0  0
   -4.9620   19.7660  -34.1270 H   0  0  0  0  0  0  0  0  0  0  0  0
   -2.8980   19.7560  -33.8560 C   0  0  0  0  0  0  0  0  0  0  0  0
   -2.7485   18.8847  -34.5106 H   0  0  0  0  0  0  0  0  0  0  0  0
    0.4970   20.5230  -34.3080 C   0  0  0  0  0  0  0  0  0  0  0  0
    0.1851   21.4540  -34.8040 H   0  0  0  0  0  0  0  0  0  0  0  0
    1.7860   20.0240  -34.5190 C   0  0  0  0  0  0  0  0  0  0  0  0
    2.4804   20.5630  -35.1803 H   0  0  0  0  0  0  0  0  0  0  0  0
    2.1990   18.8350  -33.8890 C   0  0  0  0  0  0  0  0  0  0  0  0
    3.4850   18.2990  -34.0570 O   0  0  0  0  0  0  0  0  0  0  0  0
    4.5650   18.4800  -33.1450 C   0  0  0  0  0  0  0  0  0  0  0  0
    5.3831   19.0114  -33.6534 H   0  0  0  0  0  0  0  0  0  0  0  0
    5.0190   17.2510  -32.7030 F   0  0  0  0  0  0  0  0  0  0  0  0
    4.1230   19.2110  -32.0590 F   0  0  0  0  0  0  0  0  0  0  0  0
  1  2  1  0
  2  3  2  0
  3  4  1  0
  3  5  1  0
  5  6  1  0
  6  7  2  0
  7  8  1  0
  7  9  1  0
  9 10  1  0
 10 11  1  0
 11 12  2  0
 12 13  1  0
 13 14  2  0
 13 15  1  0
 15 16  1  0
 15 17  1  0
 15 18  1  0
 11 19  1  0
 19 20  1  0
 20 21  1  0
 20 22  1  0
 22 23  1  0
 22 24  1  0
 22 25  1  0
 25 26  1  0
 25 27  1  0
 25 28  1  0
 28 29  1  0
 29 30  1  0
 29 31  1  0
 29 32  1  0
 32 33  1  0
 32 34  1  0
 19 35  1  0
 35 36  1  0
 36 37  1  0
 36 38  2  0
 38 39  1  0
  5 40  2  0
 40 41  1  0
 40 42  1  0
 42 43  1  0
 42 44  2  0
 44 45  1  0
 45 46  1  0
 46 47  1  0
 46 48  1  0
 46 49  1  0
 44  2  1  0
 38  6  1  0
 35  9  2  0
 32 20  1  0
M  CHG  2  10  -1  36   1
M  END
>  <UniqueID>  (15) 
15

>  <SMILES>  (15) 
CC(=O)/N=c1/[n-]c2cc(-c3ccc(OC(F)F)cc3)c[nH+]c2n1C1CCOCC1

>  <Energy>  (15) 
127.45522574009489

>  <Genealogy>  (15) 
CC(=O)N=c1[n-]c2cc(-c3ccc(OC(F)F)cc3)c[nH+]c2n1C1CCOCC1 (protonated)
CC(=O)/N=c1/[n-]c2cc(-c3ccc(OC(F)F)cc3)c[nH+]c2n1C1CCOCC1 (cis-trans isomerization)
CC(=O)/N=c1/[n-]c2cc(-c3ccc(OC(F)F)cc3)c[nH+]c2n1C1CCOCC1 (3D coordinates assigned)
CC(=O)/N=c1/[n-]c2cc(-c3ccc(OC(F)F)cc3)c[nH+]c2n1C1CCOCC1 (nonaromatic ring conformer: 127.45522574009489 kcal/mol)

>  <smiles>  (15) 
CC(=O)N=c1[nH]c2cc(-c3ccc(OC(F)F)cc3)cnc2n1C1CCOCC1

>  <score_type>  (15) 
oracle

>  <origin>  (15) 
adg

>  <m_score__min__energy>  (15) 
-7.7599999999999998

>  <m_primary>  (15) 
energy

$$$$
15:0
     RDKit          3D

 41 43  0  0  0  0  0  0  0  0999 V2000
   -1.7620   23.3690  -28.0280 C   0  0  0  0  0  0  0  0  0  0  0  0
   -2.6470   24.4060  -28.6500 C   0  0  0  0  0  0  0  0  0  0  0  0
   -2.1570   25.2870  -29.3400 O   0  0  0  0  0  0  0  0  0  0  0  0
   -4.1320   24.3690  -28.4350 C   0  0  0  0  0  0  0  0  0  0  0  0
   -4.8010   23.9670  -29.6650 N   0  0  0  0  0  0  0  0  0  0  0  0
   -4.6180   24.5470  -30.8380 N   0  0  0  0  0  0  0  0  0  0  0  0
   -5.4170   23.9750  -31.7240 N   0  0  0  0  0  0  0  0  0  0  0  0
   -6.1020   23.0400  -31.0330 C   0  0  0  0  0  0  0  0  0  0  0  0
   -7.0920   22.1000  -31.6160 C   0  0  0  0  0  0  0  0  0  0  0  0
   -8.4560   22.4190  -31.4780 C   0  0  0  0  0  0  0  0  0  0  0  0
   -9.4450   21.5650  -31.9670 C   0  0  0  0  0  0  0  0  0  0  0  0
   -9.0900   20.3790  -32.6060 C   0  0  0  0  0  0  0  0  0  0  0  0
   -7.7460   20.0500  -32.7710 C   0  0  0  0  0  0  0  0  0  0  0  0
   -6.7310   20.9050  -32.3000 C   0  0  0  0  0  0  0  0  0  0  0  0
   -5.2960   20.4970  -32.5590 C   0  0  0  0  0  0  0  0  0  0  0  0
   -4.3990   21.6580  -32.4610 N   0  0  0  0  0  0  0  0  0  0  0  0
   -3.0420   21.2630  -32.7500 C   0  0  0  0  0  0  0  0  0  0  0  0
   -2.7670   20.4250  -33.8470 C   0  0  0  0  0  0  0  0  0  0  0  0
   -1.4580   20.0150  -34.1150 C   0  0  0  0  0  0  0  0  0  0  0  0
   -0.4110   20.4280  -33.2860 C   0  0  0  0  0  0  0  0  0  0  0  0
    0.8580   20.0280  -33.5450 F   0  0  0  0  0  0  0  0  0  0  0  0
   -0.6730   21.2490  -32.1860 C   0  0  0  0  0  0  0  0  0  0  0  0
   -1.9810   21.6640  -31.9130 C   0  0  0  0  0  0  0  0  0  0  0  0
   -2.2150   22.4510  -30.8330 F   0  0  0  0  0  0  0  0  0  0  0  0
   -5.7220   23.0220  -29.7390 N   0  0  0  0  0  0  0  0  0  0  0  0
   -1.8249   23.4427  -26.9323 H   0  0  0  0  0  0  0  0  0  0  0  0
   -2.0889   22.3685  -28.3476 H   0  0  0  0  0  0  0  0  0  0  0  0
   -0.7225   23.5346  -28.3476 H   0  0  0  0  0  0  0  0  0  0  0  0
   -4.3675   23.6472  -27.6390 H   0  0  0  0  0  0  0  0  0  0  0  0
   -4.4809   25.3707  -28.1436 H   0  0  0  0  0  0  0  0  0  0  0  0
   -8.7462   23.3546  -30.9777 H   0  0  0  0  0  0  0  0  0  0  0  0
  -10.5063   21.8284  -31.8479 H   0  0  0  0  0  0  0  0  0  0  0  0
   -9.8715   19.7016  -32.9807 H   0  0  0  0  0  0  0  0  0  0  0  0
   -7.4746   19.1109  -33.2754 H   0  0  0  0  0  0  0  0  0  0  0  0
   -4.9949   19.7444  -31.8154 H   0  0  0  0  0  0  0  0  0  0  0  0
   -5.2249   20.0803  -33.5746 H   0  0  0  0  0  0  0  0  0  0  0  0
   -4.4510   22.0630  -31.4970 H   0  0  0  0  0  0  0  0  0  0  0  0
   -4.7010   22.4040  -33.1300 H   0  0  0  0  0  0  0  0  0  0  0  0
   -3.5882   20.0904  -34.4980 H   0  0  0  0  0  0  0  0  0  0  0  0
   -1.2514   19.3666  -34.9792 H   0  0  0  0  0  0  0  0  0  0  0  0
    0.1517   21.5700  -31.5327 H   0  0  0  0  0  0  0  0  0  0  0  0
  1  2  1  0
  2  3  2  0
  2  4  1  0
  4  5  1  0
  5  6  1  0
  6  7  2  0
  7  8  1  0
  8  9  1  0
  9 10  2  0
 10 11  1  0
 11 12  2  0
 12 13  1  0
 13 14  2  0
 14 15  1  0
 15 16  1  0
 16 17  1  0
 17 18  2  0
 18 19  1  0
 19 20  2  0
 20 21  1  0
 20 22  1  0
 22 23  2  0
 23 24  1  0
  8 25  2  0
 25  5  1  0
 14  9  1  0
 23 17  1  0
  1 26  1  0
  1 27  1  0
  1 28  1  0
  4 29  1  0
  4 30  1  0
 10 31  1  0
 11 32  1  0
 12 33  1  0
 13 34  1  0
 15 35  1  0
 15 36  1  0
 16 37  1  0
 16 38  1  0
 18 39  1  0
 19 40  1  0
 22 41  1  0
M  CHG  1  16   1
M  END
>  <UniqueID>  (16) 
16

>  <SMILES>  (16) 
CC(=O)Cn1nnc(-c2ccccc2C[NH2+]c2ccc(F)cc2F)n1

>  <Energy>  (16) 
83.51629294929872

>  <Genealogy>  (16) 
CC(=O)Cn1nnc(-c2ccccc2C[NH2+]c2ccc(F)cc2F)n1 (protonated)
CC(=O)Cn1nnc(-c2ccccc2C[NH2+]c2ccc(F)cc2F)n1 (3D coordinates assigned)
CC(=O)Cn1nnc(-c2ccccc2C[NH2+]c2ccc(F)cc2F)n1 (optimized conformer: 83.51629294929872 kcal/mol)

>  <smiles>  (16) 
CC(=O)Cn1nnc(-c2ccccc2CNc2ccc(F)cc2F)n1

>  <score_type>  (16) 
oracle

>  <origin>  (16) 
adg

>  <m_score__min__energy>  (16) 
-8.5

>  <m_primary>  (16) 
energy

$$$$
16:0
     RDKit          3D

 49 51  0  0  0  0  0  0  0  0999 V2000
   -6.7084   17.1568  -31.7698 H   0  0  0  0  0  0  0  0  0  0  0  0
   -7.0970   17.8570  -32.5240 C   0  0  0  0  0  0  0  0  0  0  0  0
   -6.3520   18.1580  -33.5980 C   0  0  0  0  0  0  0  0  0  0  0  0
   -6.3216   19.1986  -33.9532 H   0  0  0  0  0  0  0  0  0  0  0  0
   -5.5570   17.1120  -34.3300 C   0  0  0  0  0  0  0  0  0  0  0  0
   -5.6465   17.2972  -35.4106 H   0  0  0  0  0  0  0  0  0  0  0  0
   -5.9650   16.1312  -34.0443 H   0  0  0  0  0  0  0  0  0  0  0  0
   -4.0640   17.1140  -33.9550 C   0  0  0  0  0  0  0  0  0  0  0  0
   -3.4787   17.3144  -34.8646 H   0  0  0  0  0  0  0  0  0  0  0  0
   -3.8430   16.1285  -33.5191 H   0  0  0  0  0  0  0  0  0  0  0  0
   -3.6870   18.1690  -32.8920 C   0  0  0  0  0  0  0  0  0  0  0  0
   -2.8655   17.7649  -32.2822 H   0  0  0  0  0  0  0  0  0  0  0  0
   -4.5978   18.3656  -32.3074 H   0  0  0  0  0  0  0  0  0  0  0  0
   -3.2360   19.5220  -33.4720 C   0  0  0  0  0  0  0  0  0  0  0  0
   -3.0502   19.3983  -34.5491 H   0  0  0  0  0  0  0  0  0  0  0  0
   -2.3264   19.8267  -32.9336 H   0  0  0  0  0  0  0  0  0  0  0  0
   -4.2830   20.6320  -33.2780 C   0  0  0  0  0  0  0  0  0  0  0  0
   -5.1703   20.4020  -33.8861 H   0  0  0  0  0  0  0  0  0  0  0  0
   -3.8445   21.5910  -33.5911 H   0  0  0  0  0  0  0  0  0  0  0  0
   -4.6780   20.7310  -31.8660 N   0  0  0  0  0  0  0  0  0  0  0  0
   -5.6680   21.0640  -31.7980 H   0  0  0  0  0  0  0  0  0  0  0  0
   -4.6200   19.7880  -31.4150 H   0  0  0  0  0  0  0  0  0  0  0  0
   -3.8160   21.6560  -31.1750 C   0  0  0  0  0  0  0  0  0  0  0  0
   -2.5950   21.2360  -30.5990 C   0  0  0  0  0  0  0  0  0  0  0  0
   -2.3017   20.1774  -30.6563 H   0  0  0  0  0  0  0  0  0  0  0  0
   -1.7470   22.1630  -29.9500 C   0  0  0  0  0  0  0  0  0  0  0  0
   -0.8059   21.8149  -29.4992 H   0  0  0  0  0  0  0  0  0  0  0  0
   -2.0940   23.5340  -29.8730 C   0  0  0  0  0  0  0  0  0  0  0  0
   -1.2390   24.4880  -29.2190 N   0  0  0  0  0  0  0  0  0  0  0  0
   -1.6540   25.6360  -28.9580 O   0  0  0  0  0  0  0  0  0  0  0  0
    0.0510   24.1570  -28.8710 O   0  0  0  0  0  0  0  0  0  0  0  0
   -3.3050   23.9090  -30.4680 C   0  0  0  0  0  0  0  0  0  0  0  0
   -3.8670   25.1240  -30.5630 N   0  0  0  0  0  0  0  0  0  0  0  0
   -4.9780   24.9230  -31.2260 O   0  0  0  0  0  0  0  0  0  0  0  0
   -5.1830   23.6770  -31.5700 N   0  0  0  0  0  0  0  0  0  0  0  0
   -4.1190   23.0180  -31.0890 C   0  0  0  0  0  0  0  0  0  0  0  0
   -8.4580   18.4680  -32.3420 C   0  0  0  0  0  0  0  0  0  0  0  0
   -9.0495   18.3089  -33.2557 H   0  0  0  0  0  0  0  0  0  0  0  0
   -8.9464   17.9891  -31.4805 H   0  0  0  0  0  0  0  0  0  0  0  0
   -8.3510   19.9450  -32.0750 C   0  0  0  0  0  0  0  0  0  0  0  0
   -7.5210   20.7530  -32.8670 C   0  0  0  0  0  0  0  0  0  0  0  0
   -6.9634   20.3105  -33.7056 H   0  0  0  0  0  0  0  0  0  0  0  0
   -7.4040   22.0810  -32.6010 N   0  0  0  0  0  0  0  0  0  0  0  0
   -8.0730   22.6650  -31.5720 C   0  0  0  0  0  0  0  0  0  0  0  0
   -7.9596   23.7429  -31.3843 H   0  0  0  0  0  0  0  0  0  0  0  0
   -8.9040   21.8980  -30.7530 C   0  0  0  0  0  0  0  0  0  0  0  0
   -9.4481   22.3660  -29.9194 H   0  0  0  0  0  0  0  0  0  0  0  0
   -9.0370   20.5320  -31.0030 C   0  0  0  0  0  0  0  0  0  0  0  0
   -9.6806   19.9153  -30.3584 H   0  0  0  0  0  0  0  0  0  0  0  0
  1  2  1  0
  2  3  2  0
  3  4  1  0
  3  5  1  0
  5  6  1  0
  5  7  1  0
  5  8  1  0
  8  9  1  0
  8 10  1  0
  8 11  1  0
 11 12  1  0
 11 13  1  0
 11 14  1  0
 14 15  1  0
 14 16  1  0
 14 17  1  0
 17 18  1  0
 17 19  1  0
 17 20  1  0
 20 21  1  0
 20 22  1  0
 20 23  1  0
 23 24  2  0
 24 25  1  0
 24 26  1  0
 26 27  1  0
 26 28  2  0
 28 29  1  0
 29 30  2  0
 29 31  1  0
 28 32  1  0
 32 33  2  0
 33 34  1  0
 34 35  1  0
 35 36  2  0
  2 37  1  0
 37 38  1  0
 37 39  1  0
 37 40  1  0
 40 41  2  0
 41 42  1  0
 41 43  1  0
 43 44  2  0
 44 45  1  0
 44 46  1  0
 46 47  1  0
 46 48  2  0
 48 49  1  0
 36 23  1  0
 48 40  1  0
 36 32  1  0
M  CHG  3  20   1  29   1  31  -1
M  END
>  <UniqueID>  (17) 
17

>  <SMILES>  (17) 
O=[N+]([O-])c1ccc([NH2+]CCCCC/C=C/Cc2cccnc2)c2nonc12

>  <Energy>  (17) 
84.85524957389588

>  <Genealogy>  (17) 
O=[N+]([O-])c1ccc([NH2+]CCCCCC=CCc2cccnc2)c2nonc12 (protonated)
O=[N+]([O-])c1ccc([NH2+]CCCCC/C=C/Cc2cccnc2)c2nonc12 (cis-trans isomerization)
O=[N+]([O-])c1ccc([NH2+]CCCCC/C=C/Cc2cccnc2)c2nonc12 (3D coordinates assigned)
O=[N+]([O-])c1ccc([NH2+]CCCCC/C=C/Cc2cccnc2)c2nonc12 (optimized conformer: 84.85524957389588 kcal/mol)

>  <smiles>  (17) 
O=[N+]([O-])c1ccc(NCCCCCC=CCc2cccnc2)c2nonc12

>  <score_type>  (17) 
oracle

>  <origin>  (17) 
adg

>  <m_score__min__energy>  (17) 
-8.75

>  <m_primary>  (17) 
energy

$$$$
17:0
     RDKit          3D

 43 45  0  0  0  0  0  0  0  0999 V2000
   -8.4270   23.1440  -31.9410 C   0  0  0  0  0  0  0  0  0  0  0  0
   -9.4280   21.6280  -31.8410 S   0  0  0  0  0  0  0  0  0  0  0  0
   -8.0210   20.5460  -32.0820 C   0  0  0  0  0  0  0  0  0  0  0  0
   -8.0810   19.2110  -31.6910 C   0  0  0  0  0  0  0  0  0  0  0  0
   -6.9600   18.4110  -31.8960 C   0  0  0  0  0  0  0  0  0  0  0  0
   -5.8440   18.9320  -32.4730 N   0  0  0  0  0  0  0  0  0  0  0  0
   -5.8120   20.2340  -32.8900 C   0  0  0  0  0  0  0  0  0  0  0  0
   -4.5370   20.8390  -33.4580 C   0  0  1  0  0  0  0  0  0  0  0  0
   -4.2450   22.2780  -32.9760 C   0  0  0  0  0  0  0  0  0  0  0  0
   -3.6800   22.2490  -31.6280 N   0  0  0  0  0  0  0  0  0  0  0  0
   -3.9020   23.3330  -30.7100 C   0  0  0  0  0  0  0  0  0  0  0  0
   -4.5070   24.3690  -31.1030 O   0  0  0  0  0  0  0  0  0  0  0  0
   -3.3540   23.2960  -29.3100 C   0  0  0  0  0  0  0  0  0  0  0  0
   -1.8470   23.5690  -29.2960 C   0  0  0  0  0  0  0  0  0  0  0  0
   -1.5220   24.6360  -28.3530 N   0  0  0  0  0  0  0  0  0  0  0  0
   -1.8360   24.6610  -27.0450 C   0  0  0  0  0  0  0  0  0  0  0  0
   -1.3960   25.8590  -26.5310 C   0  0  0  0  0  0  0  0  0  0  0  0
   -1.5620   26.4300  -24.8840 Cl  0  0  0  0  0  0  0  0  0  0  0  0
   -0.8150   26.5240  -27.5900 C   0  0  0  0  0  0  0  0  0  0  0  0
   -0.9120   25.7610  -28.6970 N   0  0  0  0  0  0  0  0  0  0  0  0
   -2.5560   21.3400  -31.4260 C   0  0  0  0  0  0  0  0  0  0  0  0
   -2.9460   19.9560  -31.9390 C   0  0  0  0  0  0  0  0  0  0  0  0
   -3.4040   19.9920  -33.2840 O   0  0  0  0  0  0  0  0  0  0  0  0
   -6.8920   21.0300  -32.6610 N   0  0  0  0  0  0  0  0  0  0  0  0
   -8.1939   23.4971  -30.9256 H   0  0  0  0  0  0  0  0  0  0  0  0
   -7.4915   22.9308  -32.4789 H   0  0  0  0  0  0  0  0  0  0  0  0
   -8.9905   23.9206  -32.4789 H   0  0  0  0  0  0  0  0  0  0  0  0
   -8.9914   18.7986  -31.2316 H   0  0  0  0  0  0  0  0  0  0  0  0
   -6.9770   17.3544  -31.5904 H   0  0  0  0  0  0  0  0  0  0  0  0
   -5.0070   18.3190  -32.5650 H   0  0  0  0  0  0  0  0  0  0  0  0
   -4.7319   20.9203  -34.5375 H   0  0  0  0  0  0  0  0  0  0  0  0
   -3.5278   22.7532  -33.6614 H   0  0  0  0  0  0  0  0  0  0  0  0
   -5.1836   22.8514  -32.9617 H   0  0  0  0  0  0  0  0  0  0  0  0
   -3.8626   24.0615  -28.7056 H   0  0  0  0  0  0  0  0  0  0  0  0
   -3.5294   22.2927  -28.8944 H   0  0  0  0  0  0  0  0  0  0  0  0
   -1.3171   22.6518  -28.9994 H   0  0  0  0  0  0  0  0  0  0  0  0
   -1.5360   23.8821  -30.3036 H   0  0  0  0  0  0  0  0  0  0  0  0
   -2.3520   23.8661  -26.4866 H   0  0  0  0  0  0  0  0  0  0  0  0
   -0.3471   27.5183  -27.5395 H   0  0  0  0  0  0  0  0  0  0  0  0
   -1.6795   21.7066  -31.9804 H   0  0  0  0  0  0  0  0  0  0  0  0
   -2.3059   21.2859  -30.3562 H   0  0  0  0  0  0  0  0  0  0  0  0
   -2.0677   19.2962  -31.8813 H   0  0  0  0  0  0  0  0  0  0  0  0
   -3.7688   19.5825  -31.3117 H   0  0  0  0  0  0  0  0  0  0  0  0
  1  2  1  0
  2  3  1  0
  3  4  2  0
  4  5  1  0
  5  6  2  0
  6  7  1  0
  7  8  1  0
  8  9  1  0
  9 10  1  0
 10 11  1  0
 11 12  2  0
 11 13  1  0
 13 14  1  0
 14 15  1  0
 15 16  1  0
 16 17  2  0
 17 18  1  0
 17 19  1  0
 19 20  2  0
 10 21  1  0
 21 22  1  0
 22 23  1  0
  7 24  2  0
 24  3  1  0
 23  8  1  0
 20 15  1  0
  1 25  1  0
  1 26  1  0
  1 27  1  0
  4 28  1  0
  5 29  1  0
  6 30  1  0
  8 31  1  6
  9 32  1  0
  9 33  1  0
 13 34  1  0
 13 35  1  0
 14 36  1  0
 14 37  1  0
 16 38  1  0
 19 39  1  0
 21 40  1  0
 21 41  1  0
 22 42  1  0
 22 43  1  0
M  CHG  1   6   1
M  END
>  <UniqueID>  (18) 
18

>  <SMILES>  (18) 
CSc1cc[nH+]c([C@H]2CN(C(=O)CCn3cc(Cl)cn3)CCO2)n1

>  <Energy>  (18) 
71.13003968709793

>  <Genealogy>  (18) 
CSc1cc[nH+]c(C2CN(C(=O)CCn3cc(Cl)cn3)CCO2)n1 (protonated)
CSc1cc[nH+]c([C@H]2CN(C(=O)CCn3cc(Cl)cn3)CCO2)n1 (chirality)
CSc1cc[nH+]c([C@H]2CN(C(=O)CCn3cc(Cl)cn3)CCO2)n1 (3D coordinates assigned)
CSc1cc[nH+]c([C@H]2CN(C(=O)CCn3cc(Cl)cn3)CCO2)n1 (nonaromatic ring conformer: 71.13003968709793 kcal/mol)

>  <smiles>  (18) 
CSc1ccnc(C2CN(C(=O)CCn3cc(Cl)cn3)CCO2)n1

>  <score_type>  (18) 
oracle

>  <origin>  (18) 
adg

>  <m_score__min__energy>  (18) 
-7.4500000000000002

>  <m_primary>  (18) 
energy

$$$$
18:0
     RDKit          3D

 43 46  0  0  1  0  0  0  0  0999 V2000
   -8.7600   22.1090  -31.3820 C   0  0  0  0  0  0  0  0  0  0  0  0
   -8.2690   21.9240  -30.1170 C   0  0  0  0  0  0  0  0  0  0  0  0
   -7.2110   22.7030  -29.7270 C   0  0  0  0  0  0  0  0  0  0  0  0
   -6.6860   23.6370  -30.6150 C   0  0  0  0  0  0  0  0  0  0  0  0
   -5.5160   24.5250  -30.1760 C   0  0  0  0  0  0  0  0  0  0  0  0
   -4.5450   24.1520  -31.1180 N   0  0  0  0  0  0  0  0  0  0  0  0
   -3.9820   23.0610  -31.2410 C   0  0  0  0  0  0  0  0  0  0  0  0
   -4.5150   22.1560  -32.0990 N   0  0  0  0  0  0  0  0  0  0  0  0
   -4.0060   20.9420  -32.3240 C   0  0  0  0  0  0  0  0  0  0  0  0
   -4.5970   20.1480  -33.1700 N   0  0  0  0  0  0  0  0  0  0  0  0
   -5.8350   19.5080  -32.7860 C   0  0  0  0  0  0  0  0  0  0  0  0
   -5.7130   18.3870  -31.9860 C   0  0  0  0  0  0  0  0  0  0  0  0
   -6.8210   17.7070  -31.5660 C   0  0  0  0  0  0  0  0  0  0  0  0
   -8.0540   18.1800  -31.9710 C   0  0  0  0  0  0  0  0  0  0  0  0
   -8.1840   19.3080  -32.7750 C   0  0  0  0  0  0  0  0  0  0  0  0
   -7.0550   19.9970  -33.2010 C   0  0  0  0  0  0  0  0  0  0  0  0
   -2.8970   20.5980  -31.6590 N   0  0  0  0  0  0  0  0  0  0  0  0
   -2.3380   21.4640  -30.8010 C   0  0  0  0  0  0  0  0  0  0  0  0
   -1.1990   21.0470  -30.1510 C   0  0  0  0  0  0  0  0  0  0  0  0
   -0.6340   21.9360  -29.2760 C   0  0  0  0  0  0  0  0  0  0  0  0
   -1.1240   23.1770  -29.0220 C   0  0  0  0  0  0  0  0  0  0  0  0
   -2.2980   23.6200  -29.6870 C   0  0  0  0  0  0  0  0  0  0  0  0
   -2.8500   22.7320  -30.5510 C   0  0  0  0  0  0  0  0  0  0  0  0
   -7.2170   23.7950  -31.8970 C   0  0  0  0  0  0  0  0  0  0  0  0
   -8.2750   23.0160  -32.2880 C   0  0  0  0  0  0  0  0  0  0  0  0
   -9.6080   21.4821  -31.6947 H   0  0  0  0  0  0  0  0  0  0  0  0
   -8.7078   21.1774  -29.4387 H   0  0  0  0  0  0  0  0  0  0  0  0
   -6.7806   22.5909  -28.7209 H   0  0  0  0  0  0  0  0  0  0  0  0
   -5.7662   25.5935  -30.2519 H   0  0  0  0  0  0  0  0  0  0  0  0
   -5.2108   24.3960  -29.1271 H   0  0  0  0  0  0  0  0  0  0  0  0
   -5.3830   22.4080  -32.6270 H   0  0  0  0  0  0  0  0  0  0  0  0
   -4.7139   18.0392  -31.6847 H   0  0  0  0  0  0  0  0  0  0  0  0
   -6.7344   16.8149  -30.9283 H   0  0  0  0  0  0  0  0  0  0  0  0
   -8.9612   17.6484  -31.6479 H   0  0  0  0  0  0  0  0  0  0  0  0
   -9.1838   19.6555  -33.0744 H   0  0  0  0  0  0  0  0  0  0  0  0
   -7.1313   20.8899  -33.8389 H   0  0  0  0  0  0  0  0  0  0  0  0
   -2.5010   19.6540  -31.8350 H   0  0  0  0  0  0  0  0  0  0  0  0
   -0.7650   20.0514  -30.3252 H   0  0  0  0  0  0  0  0  0  0  0  0
    0.2768   21.6245  -28.7437 H   0  0  0  0  0  0  0  0  0  0  0  0
   -0.6137   23.8361  -28.3043 H   0  0  0  0  0  0  0  0  0  0  0  0
   -2.7306   24.6163  -29.5131 H   0  0  0  0  0  0  0  0  0  0  0  0
   -6.7901   24.5379  -32.5868 H   0  0  0  0  0  0  0  0  0  0  0  0
   -8.7177   23.1150  -33.2901 H   0  0  0  0  0  0  0  0  0  0  0  0
  1  2  2  0
  2  3  1  0
  3  4  2  0
  4  5  1  0
  5  6  1  0
  6  7  2  0
  7  8  1  0
  8  9  1  0
  9 10  2  0
 10 11  1  0
 11 12  2  0
 12 13  1  0
 13 14  2  0
 14 15  1  0
 15 16  2  0
  9 17  1  0
 17 18  1  0
 18 19  2  0
 19 20  1  0
 20 21  2  0
 21 22  1  0
 22 23  2  0
  4 24  1  0
 24 25  2  0
 25  1  1  0
 23  7  1  0
 16 11  1  0
 23 18  1  0
  1 26  1  0
  2 27  1  0
  3 28  1  0
  5 29  1  0
  5 30  1  0
  8 31  1  0
 12 32  1  0
 13 33  1  0
 14 34  1  0
 15 35  1  0
 16 36  1  0
 17 37  1  0
 19 38  1  0
 20 39  1  0
 21 40  1  0
 22 41  1  0
 24 42  1  0
 25 43  1  0
M  END
>  <smiles>  (19) 
c1ccc(CN=c2[nH]c(=Nc3ccccc3)[nH]c3ccccc23)cc1

>  <score_type>  (19) 
oracle

>  <origin>  (19) 
adg

>  <m_score__min__energy>  (19) 
-8.6899999999999995

>  <m_primary>  (19) 
energy

$$$$
19:0
     RDKit          3D

 35 37  0  0  0  0  0  0  0  0999 V2000
   -5.9190   14.4770  -34.5000 C   0  0  0  0  0  0  0  0  0  0  0  0
   -5.9120   15.8370  -33.8670 C   0  0  0  0  0  0  0  0  0  0  0  0
   -5.7300   15.9710  -32.4830 C   0  0  0  0  0  0  0  0  0  0  0  0
   -5.7620   17.2350  -31.8860 C   0  0  0  0  0  0  0  0  0  0  0  0
   -5.9880   18.3860  -32.6630 C   0  0  0  0  0  0  0  0  0  0  0  0
   -6.0220   19.7290  -32.0290 C   0  0  0  0  0  0  0  0  0  0  0  0
   -4.8300   20.4220  -31.7540 C   0  0  0  0  0  0  0  0  0  0  0  0
   -4.8640   21.6850  -31.1570 C   0  0  0  0  0  0  0  0  0  0  0  0
   -6.0900   22.2810  -30.8260 C   0  0  0  0  0  0  0  0  0  0  0  0
   -6.1170   23.6290  -30.1570 C   0  0  0  0  0  0  0  0  0  0  0  0
   -4.7880   23.9290  -29.5280 C   0  0  0  0  0  0  0  0  0  0  0  0
   -4.2870   23.3320  -28.0330 S   0  0  0  0  0  0  0  0  0  0  0  0
   -2.8440   24.1890  -28.0760 C   0  0  0  0  0  0  0  0  0  0  0  0
   -1.9690   24.1520  -27.1730 O   0  0  0  0  0  0  0  0  0  0  0  0
   -2.7170   24.9370  -29.1920 N   0  0  0  0  0  0  0  0  0  0  0  0
   -3.7990   24.8000  -30.0020 C   0  0  0  0  0  0  0  0  0  0  0  0
   -3.8830   25.4930  -31.2080 O   0  0  0  0  0  0  0  0  0  0  0  0
   -7.2820   21.5930  -31.0970 C   0  0  0  0  0  0  0  0  0  0  0  0
   -7.2490   20.3300  -31.6940 C   0  0  0  0  0  0  0  0  0  0  0  0
   -6.1880   18.2430  -34.0470 C   0  0  0  0  0  0  0  0  0  0  0  0
   -6.1570   16.9790  -34.6420 C   0  0  0  0  0  0  0  0  0  0  0  0
   -5.9230   13.7070  -33.7145 H   0  0  0  0  0  0  0  0  0  0  0  0
   -6.8177   14.3680  -35.1248 H   0  0  0  0  0  0  0  0  0  0  0  0
   -5.0215   14.3588  -35.1248 H   0  0  0  0  0  0  0  0  0  0  0  0
   -5.5613   15.0774  -31.8641 H   0  0  0  0  0  0  0  0  0  0  0  0
   -5.6094   17.3302  -30.8008 H   0  0  0  0  0  0  0  0  0  0  0  0
   -3.8625   19.9661  -32.0110 H   0  0  0  0  0  0  0  0  0  0  0  0
   -3.9237   22.2151  -30.9453 H   0  0  0  0  0  0  0  0  0  0  0  0
   -6.3454   24.4009  -30.9067 H   0  0  0  0  0  0  0  0  0  0  0  0
   -6.8887   23.6223  -29.3732 H   0  0  0  0  0  0  0  0  0  0  0  0
   -3.5030   26.4230  -31.3220 H   0  0  0  0  0  0  0  0  0  0  0  0
   -8.2483   22.0503  -30.8381 H   0  0  0  0  0  0  0  0  0  0  0  0
   -8.1905   19.8012  -31.9038 H   0  0  0  0  0  0  0  0  0  0  0  0
   -6.3704   19.1333  -34.6667 H   0  0  0  0  0  0  0  0  0  0  0  0
   -6.3258   16.8796  -35.7244 H   0  0  0  0  0  0  0  0  0  0  0  0
  1  2  1  0
  2  3  2  0
  3  4  1  0
  4  5  2  0
  5  6  1  0
  6  7  2  0
  7  8  1  0
  8  9  2  0
  9 10  1  0
 10 11  1  0
 11 12  1  0
 12 13  1  0
 13 14  2  0
 13 15  1  0
 15 16  1  0
 16 17  1  0
  9 18  1  0
 18 19  2  0
  5 20  1  0
 20 21  2  0
 21  2  1  0
 19  6  1  0
 16 11  2  0
  1 22  1  0
  1 23  1  0
  1 24  1  0
  3 25  1  0
  4 26  1  0
  7 27  1  0
  8 28  1  0
 10 29  1  0
 10 30  1  0
 17 31  1  0
 18 32  1  0
 19 33  1  0
 20 34  1  0
 21 35  1  0
M  CHG  1  15  -1
M  END
>  <UniqueID>  (20) 
19

>  <SMILES>  (20) 
Cc1ccc(-c2ccc(Cc3sc(=O)[n-]c3O)cc2)cc1

>  <Energy>  (20) 
71.08228842047596

>  <Genealogy>  (20) 
Cc1ccc(-c2ccc(Cc3sc(=O)[n-]c3O)cc2)cc1 (protonated)
Cc1ccc(-c2ccc(Cc3sc(=O)[n-]c3O)cc2)cc1 (3D coordinates assigned)
Cc1ccc(-c2ccc(Cc3sc(=O)[n-]c3O)cc2)cc1 (optimized conformer: 71.08228842047596 kcal/mol)

>  <smiles>  (20) 
Cc1ccc(-c2ccc(Cc3sc(=O)[nH]c3O)cc2)cc1

>  <score_type>  (20) 
oracle

>  <origin>  (20) 
adg

>  <m_score__min__energy>  (20) 
-9.8000000000000007

>  <m_primary>  (20) 
energy

$$$$
20:0
     RDKit          3D

 37 40  0  0  0  0  0  0  0  0999 V2000
   -4.3270   25.6700  -30.8250 O   0  0  0  0  0  0  0  0  0  0  0  0
   -3.8730   24.8540  -29.9800 C   0  0  0  0  0  0  0  0  0  0  0  0
   -2.6760   25.0830  -29.4460 O   0  0  0  0  0  0  0  0  0  0  0  0
   -2.1230   24.2800  -28.5440 C   0  0  0  0  0  0  0  0  0  0  0  0
   -0.8600   24.5790  -28.0220 C   0  0  0  0  0  0  0  0  0  0  0  0
   -0.2760   23.7370  -27.0710 C   0  0  0  0  0  0  0  0  0  0  0  0
   -0.9540   22.5900  -26.6380 C   0  0  0  0  0  0  0  0  0  0  0  0
   -2.2170   22.2830  -27.1530 C   0  0  0  0  0  0  0  0  0  0  0  0
   -2.8060   23.1250  -28.1070 C   0  0  0  0  0  0  0  0  0  0  0  0
   -4.0670   22.8520  -28.6460 C   0  0  0  0  0  0  0  0  0  0  0  0
   -4.6200   23.7180  -29.6000 C   0  0  0  0  0  0  0  0  0  0  0  0
   -5.9580   23.4400  -30.1670 C   0  0  0  0  0  0  0  0  0  0  0  0
   -6.6800   24.3230  -30.8920 N   0  0  0  0  0  0  0  0  0  0  0  0
   -7.7860   23.6840  -31.2320 N   0  0  0  0  0  0  0  0  0  0  0  0
   -7.7100   22.4490  -30.7140 C   0  0  0  0  0  0  0  0  0  0  0  0
   -8.9460   21.1710  -30.9310 S   0  0  0  0  0  0  0  0  0  0  0  0
   -8.4680   20.7940  -32.6560 C   0  0  0  0  0  0  0  0  0  0  0  0
   -7.5310   19.6110  -32.7140 C   0  0  0  0  0  0  0  0  0  0  0  0
   -8.0790   18.3150  -32.7030 C   0  0  0  0  0  0  0  0  0  0  0  0
   -7.2500   17.1930  -32.6920 C   0  0  0  0  0  0  0  0  0  0  0  0
   -5.8620   17.3460  -32.6930 C   0  0  0  0  0  0  0  0  0  0  0  0
   -4.8230   15.9340  -32.6650 Cl  0  0  0  0  0  0  0  0  0  0  0  0
   -5.3010   18.6250  -32.7120 C   0  0  0  0  0  0  0  0  0  0  0  0
   -6.1220   19.7600  -32.7260 C   0  0  0  0  0  0  0  0  0  0  0  0
   -5.3420   21.3380  -32.7420 Cl  0  0  0  0  0  0  0  0  0  0  0  0
   -6.5910   22.2920  -30.0500 O   0  0  0  0  0  0  0  0  0  0  0  0
   -0.3252   25.4786  -28.3606 H   0  0  0  0  0  0  0  0  0  0  0  0
    0.7170   23.9753  -26.6622 H   0  0  0  0  0  0  0  0  0  0  0  0
   -0.4912   21.9289  -25.8905 H   0  0  0  0  0  0  0  0  0  0  0  0
   -2.7477   21.3825  -26.8104 H   0  0  0  0  0  0  0  0  0  0  0  0
   -4.6237   21.9602  -28.3224 H   0  0  0  0  0  0  0  0  0  0  0  0
   -8.5580   24.0830  -31.8100 H   0  0  0  0  0  0  0  0  0  0  0  0
   -9.3730   20.5644  -33.2376 H   0  0  0  0  0  0  0  0  0  0  0  0
   -7.9512   21.6701  -33.0749 H   0  0  0  0  0  0  0  0  0  0  0  0
   -9.1713   18.1853  -32.7031 H   0  0  0  0  0  0  0  0  0  0  0  0
   -7.6908   16.1852  -32.6825 H   0  0  0  0  0  0  0  0  0  0  0  0
   -4.2072   18.7418  -32.7160 H   0  0  0  0  0  0  0  0  0  0  0  0
  1  2  2  0
  2  3  1  0
  3  4  1  0
  4  5  2  0
  5  6  1  0
  6  7  2  0
  7  8  1  0
  8  9  2  0
  9 10  1  0
 10 11  2  0
 11 12  1  0
 12 13  2  0
 13 14  1  0
 14 15  2  0
 15 16  1  0
 16 17  1  0
 17 18  1  0
 18 19  2  0
 19 20  1  0
 20 21  2  0
 21 22  1  0
 21 23  1  0
 23 24  2  0
 24 25  1  0
 15 26  1  0
 11  2  1  0
 26 12  1  0
  9  4  1  0
 24 18  1  0
  5 27  1  0
  6 28  1  0
  7 29  1  0
  8 30  1  0
 10 31  1  0
 14 32  1  0
 17 33  1  0
 17 34  1  0
 19 35  1  0
 20 36  1  0
 23 37  1  0
M  CHG  1  14   1
M  END
>  <UniqueID>  (21) 
20

>  <SMILES>  (21) 
O=c1oc2ccccc2cc1-c1n[nH+]c(SCc2ccc(Cl)cc2Cl)o1

>  <Energy>  (21) 
78.3410119822226

>  <Genealogy>  (21) 
O=c1oc2ccccc2cc1-c1n[nH+]c(SCc2ccc(Cl)cc2Cl)o1 (protonated)
O=c1oc2ccccc2cc1-c1n[nH+]c(SCc2ccc(Cl)cc2Cl)o1 (3D coordinates assigned)
O=c1oc2ccccc2cc1-c1n[nH+]c(SCc2ccc(Cl)cc2Cl)o1 (optimized conformer: 78.3410119822226 kcal/mol)

>  <smiles>  (21) 
O=c1oc2ccccc2cc1-c1nnc(SCc2ccc(Cl)cc2Cl)o1

>  <score_type>  (21) 
oracle

>  <origin>  (21) 
adg

>  <m_score__min__energy>  (21) 
-9.3200000000000003

>  <m_primary>  (21) 
energy

$$$$
21:0
     RDKit          3D

 30 31  0  0  0  0  0  0  0  0999 V2000
   -6.1280   25.6600  -29.6720 C   0  0  0  0  0  0  0  0  0  0  0  0
   -5.0990   24.5490  -29.8520 C   0  0  0  0  0  0  0  0  0  0  0  0
   -4.9190   24.2460  -31.2350 O   0  0  0  0  0  0  0  0  0  0  0  0
   -4.9840   22.9650  -31.8100 C   0  0  0  0  0  0  0  0  0  0  0  0
   -3.8370   22.1810  -32.0430 C   0  0  0  0  0  0  0  0  0  0  0  0
   -3.9520   20.9110  -32.6130 C   0  0  0  0  0  0  0  0  0  0  0  0
   -5.2120   20.3940  -32.9500 C   0  0  0  0  0  0  0  0  0  0  0  0
   -5.3370   19.0900  -33.5430 N   0  0  0  0  0  0  0  0  0  0  0  0
   -4.5480   18.5870  -34.5150 C   0  0  0  0  0  0  0  0  0  0  0  0
   -4.9100   17.3430  -34.8910 N   0  0  0  0  0  0  0  0  0  0  0  0
   -5.9810   17.0630  -34.1220 C   0  0  0  0  0  0  0  0  0  0  0  0
   -6.8680   15.5530  -34.2170 Cl  0  0  0  0  0  0  0  0  0  0  0  0
   -6.2580   18.1340  -33.2960 C   0  0  0  0  0  0  0  0  0  0  0  0
   -7.4090   18.2460  -32.3350 C   0  0  0  0  0  0  0  0  0  0  0  0
   -8.4210   19.0320  -32.8980 O   0  0  0  0  0  0  0  0  0  0  0  0
   -6.3530   21.1780  -32.7310 C   0  0  0  0  0  0  0  0  0  0  0  0
   -6.2420   22.4500  -32.1590 C   0  0  0  0  0  0  0  0  0  0  0  0
   -7.6980   23.3960  -31.8870 Cl  0  0  0  0  0  0  0  0  0  0  0  0
   -6.2922   25.8373  -28.5989 H   0  0  0  0  0  0  0  0  0  0  0  0
   -5.7581   26.5823  -30.1436 H   0  0  0  0  0  0  0  0  0  0  0  0
   -7.0759   25.3617  -30.1436 H   0  0  0  0  0  0  0  0  0  0  0  0
   -4.1385   24.8742  -29.4258 H   0  0  0  0  0  0  0  0  0  0  0  0
   -5.4598   23.6466  -29.3367 H   0  0  0  0  0  0  0  0  0  0  0  0
   -2.8444   22.5715  -31.7743 H   0  0  0  0  0  0  0  0  0  0  0  0
   -3.0483   20.3120  -32.7990 H   0  0  0  0  0  0  0  0  0  0  0  0
   -3.7000   19.1330  -34.9541 H   0  0  0  0  0  0  0  0  0  0  0  0
   -7.8036   17.2422  -32.1190 H   0  0  0  0  0  0  0  0  0  0  0  0
   -7.0602   18.7152  -31.4032 H   0  0  0  0  0  0  0  0  0  0  0  0
   -8.1320   19.2300  -33.8270 H   0  0  0  0  0  0  0  0  0  0  0  0
   -7.3435   20.7902  -33.0110 H   0  0  0  0  0  0  0  0  0  0  0  0
  1  2  1  0
  2  3  1  0
  3  4  1  0
  4  5  2  0
  5  6  1  0
  6  7  2  0
  7  8  1  0
  8  9  1  0
  9 10  2  0
 10 11  1  0
 11 12  1  0
 11 13  2  0
 13 14  1  0
 14 15  1  0
  7 16  1  0
 16 17  2  0
 17 18  1  0
 17  4  1  0
 13  8  1  0
  1 19  1  0
  1 20  1  0
  1 21  1  0
  2 22  1  0
  2 23  1  0
  5 24  1  0
  6 25  1  0
  9 26  1  0
 14 27  1  0
 14 28  1  0
 15 29  1  0
 16 30  1  0
M  END
>  <UniqueID>  (22) 
21

>  <SMILES>  (22) 
CCOc1ccc(-n2cnc(Cl)c2CO)cc1Cl

>  <Energy>  (22) 
63.422293040339675

>  <Genealogy>  (22) 
CCOc1ccc(-n2cnc(Cl)c2CO)cc1Cl (3D coordinates assigned)
CCOc1ccc(-n2cnc(Cl)c2CO)cc1Cl (optimized conformer: 63.422293040339675 kcal/mol)

>  <smiles>  (22) 
CCOc1ccc(-n2cnc(Cl)c2CO)cc1Cl

>  <score_type>  (22) 
oracle

>  <origin>  (22) 
adg

>  <m_score__min__energy>  (22) 
-6.9400000000000004

>  <m_primary>  (22) 
energy

$$$$
22:0
     RDKit          3D

 61 64  0  0  0  0  0  0  0  0999 V2000
    1.4560   23.1700  -35.7280 C   0  0  0  0  0  0  0  0  0  0  0  0
    0.5060   22.0930  -35.4120 N   0  0  0  0  0  0  0  0  0  0  0  0
    0.5030   21.0610  -36.4600 C   0  0  0  0  0  0  0  0  0  0  0  0
    0.6920   21.5390  -34.0520 C   0  0  0  0  0  0  0  0  0  0  0  0
   -0.6180   21.3620  -33.2500 C   0  0  0  0  0  0  0  0  0  0  0  0
   -1.7350   21.0510  -34.1540 N   0  0  0  0  0  0  0  0  0  0  0  0
   -2.2300   19.7260  -33.8850 C   0  0  0  0  0  0  0  0  0  0  0  0
   -3.6100   19.4800  -33.8050 C   0  0  0  0  0  0  0  0  0  0  0  0
   -4.0720   18.1830  -33.5630 C   0  0  0  0  0  0  0  0  0  0  0  0
   -5.4560   17.9610  -33.4940 O   0  0  0  0  0  0  0  0  0  0  0  0
   -6.3990   18.8660  -32.9840 C   0  0  0  0  0  0  0  0  0  0  0  0
   -7.7000   18.4180  -32.7500 C   0  0  0  0  0  0  0  0  0  0  0  0
   -8.6680   19.2910  -32.2560 C   0  0  0  0  0  0  0  0  0  0  0  0
   -8.3510   20.6320  -32.0000 C   0  0  0  0  0  0  0  0  0  0  0  0
   -7.0340   21.1020  -32.2120 C   0  0  0  0  0  0  0  0  0  0  0  0
   -6.0790   20.2140  -32.7450 C   0  0  0  0  0  0  0  0  0  0  0  0
   -6.7040   22.4850  -31.9140 N   0  0  0  0  0  0  0  0  0  0  0  0
   -5.0430   23.0080  -31.7890 S   0  0  0  0  0  0  0  0  0  0  0  0
   -4.9990   24.5040  -31.6540 O   0  0  0  0  0  0  0  0  0  0  0  0
   -4.2860   22.6050  -33.0240 O   0  0  0  0  0  0  0  0  0  0  0  0
   -4.2510   22.2740  -30.3940 C   0  0  0  0  0  0  0  0  0  0  0  0
   -3.4400   21.1430  -30.5620 C   0  0  0  0  0  0  0  0  0  0  0  0
   -2.8270   20.5470  -29.4560 C   0  0  0  0  0  0  0  0  0  0  0  0
   -3.0230   21.0760  -28.1760 C   0  0  0  0  0  0  0  0  0  0  0  0
   -2.4280   20.4950  -27.1040 F   0  0  0  0  0  0  0  0  0  0  0  0
   -3.8370   22.2000  -28.0030 C   0  0  0  0  0  0  0  0  0  0  0  0
   -4.4500   22.7970  -29.1070 C   0  0  0  0  0  0  0  0  0  0  0  0
   -7.7410   23.4280  -31.4690 C   0  0  0  0  0  0  0  0  0  0  0  0
   -9.1410   22.9890  -31.9010 C   0  0  0  0  0  0  0  0  0  0  0  0
   -9.4050   21.5540  -31.4540 C   0  0  0  0  0  0  0  0  0  0  0  0
   -3.1410   17.1370  -33.4450 C   0  0  0  0  0  0  0  0  0  0  0  0
   -1.7770   17.4170  -33.5390 C   0  0  0  0  0  0  0  0  0  0  0  0
   -1.3550   18.6900  -33.7560 N   0  0  0  0  0  0  0  0  0  0  0  0
    1.8403   23.6057  -34.7939 H   0  0  0  0  0  0  0  0  0  0  0  0
    2.2927   22.7609  -36.3132 H   0  0  0  0  0  0  0  0  0  0  0  0
    0.9456   23.9491  -36.3132 H   0  0  0  0  0  0  0  0  0  0  0  0
    0.5001   20.0648  -35.9936 H   0  0  0  0  0  0  0  0  0  0  0  0
   -0.3948   21.1758  -37.0851 H   0  0  0  0  0  0  0  0  0  0  0  0
    1.4015   21.1706  -37.0851 H   0  0  0  0  0  0  0  0  0  0  0  0
    1.1745   20.5548  -34.1444 H   0  0  0  0  0  0  0  0  0  0  0  0
    1.3037   22.2660  -33.4977 H   0  0  0  0  0  0  0  0  0  0  0  0
   -0.4941   20.5391  -32.5307 H   0  0  0  0  0  0  0  0  0  0  0  0
   -0.8399   22.2990  -32.7182 H   0  0  0  0  0  0  0  0  0  0  0  0
   -1.4200   21.1170  -35.1500 H   0  0  0  0  0  0  0  0  0  0  0  0
   -2.5100   21.7390  -34.0050 H   0  0  0  0  0  0  0  0  0  0  0  0
   -4.3257   20.3056  -33.9324 H   0  0  0  0  0  0  0  0  0  0  0  0
   -7.9630   17.3701  -32.9566 H   0  0  0  0  0  0  0  0  0  0  0  0
   -9.6877   18.9249  -32.0658 H   0  0  0  0  0  0  0  0  0  0  0  0
   -5.0683   20.5806  -32.9775 H   0  0  0  0  0  0  0  0  0  0  0  0
   -3.2855   20.7233  -31.5670 H   0  0  0  0  0  0  0  0  0  0  0  0
   -2.1897   19.6609  -29.5925 H   0  0  0  0  0  0  0  0  0  0  0  0
   -3.9947   22.6144  -26.9963 H   0  0  0  0  0  0  0  0  0  0  0  0
   -5.0909   23.6800  -28.9672 H   0  0  0  0  0  0  0  0  0  0  0  0
   -7.7129   23.4942  -30.3714 H   0  0  0  0  0  0  0  0  0  0  0  0
   -7.5335   24.4036  -31.9329 H   0  0  0  0  0  0  0  0  0  0  0  0
   -9.8877   23.6550  -31.4441 H   0  0  0  0  0  0  0  0  0  0  0  0
   -9.2113   23.0419  -32.9975 H   0  0  0  0  0  0  0  0  0  0  0  0
   -9.3920   21.5087  -30.3550 H   0  0  0  0  0  0  0  0  0  0  0  0
  -10.3874   21.2372  -31.8342 H   0  0  0  0  0  0  0  0  0  0  0  0
   -3.4848   16.1052  -33.2798 H   0  0  0  0  0  0  0  0  0  0  0  0
   -1.0419   16.6051  -33.4372 H   0  0  0  0  0  0  0  0  0  0  0  0
  1  2  1  0
  2  3  1  0
  2  4  1  0
  4  5  1  0
  5  6  1  0
  6  7  1  0
  7  8  2  0
  8  9  1  0
  9 10  1  0
 10 11  1  0
 11 12  2  0
 12 13  1  0
 13 14  2  0
 14 15  1  0
 15 16  2  0
 15 17  1  0
 17 18  1  0
 18 19  2  0
 18 20  2  0
 18 21  1  0
 21 22  2  0
 22 23  1  0
 23 24  2  0
 24 25  1  0
 24 26  1  0
 26 27  2  0
 17 28  1  0
 28 29  1  0
 29 30  1  0
  9 31  2  0
 31 32  1  0
 32 33  2  0
 33  7  1  0
 16 11  1  0
 27 21  1  0
 30 14  1  0
  1 34  1  0
  1 35  1  0
  1 36  1  0
  3 37  1  0
  3 38  1  0
  3 39  1  0
  4 40  1  0
  4 41  1  0
  5 42  1  0
  5 43  1  0
  6 44  1  0
  6 45  1  0
  8 46  1  0
 12 47  1  0
 13 48  1  0
 16 49  1  0
 22 50  1  0
 23 51  1  0
 26 52  1  0
 27 53  1  0
 28 54  1  0
 28 55  1  0
 29 56  1  0
 29 57  1  0
 30 58  1  0
 30 59  1  0
 31 60  1  0
 32 61  1  0
M  CHG  1   6   1
M  END
>  <UniqueID>  (23) 
22

>  <SMILES>  (23) 
CN(C)CC[NH2+]c1cc(Oc2ccc3c(c2)N(S(=O)(=O)c2ccc(F)cc2)CCC3)ccn1

>  <Energy>  (23) 
76.37868385092743

>  <Genealogy>  (23) 
CN(C)CC[NH2+]c1cc(Oc2ccc3c(c2)N(S(=O)(=O)c2ccc(F)cc2)CCC3)ccn1 (protonated)
CN(C)CC[NH2+]c1cc(Oc2ccc3c(c2)N(S(=O)(=O)c2ccc(F)cc2)CCC3)ccn1 (3D coordinates assigned)
CN(C)CC[NH2+]c1cc(Oc2ccc3c(c2)N(S(=O)(=O)c2ccc(F)cc2)CCC3)ccn1 (nonaromatic ring conformer: 76.37868385092743 kcal/mol)

>  <smiles>  (23) 
CN(C)CCNc1cc(Oc2ccc3c(c2)N(S(=O)(=O)c2ccc(F)cc2)CCC3)ccn1

>  <score_type>  (23) 
oracle

>  <origin>  (23) 
adg

>  <m_score__min__energy>  (23) 
-9.1999999999999993

>  <m_primary>  (23) 
energy

$$$$
23:0
     RDKit          3D

 61 65  0  0  0  0  0  0  0  0999 V2000
   -4.5500   14.8430  -32.6180 C   0  0  0  0  0  0  0  0  0  0  0  0
   -4.6770   16.2210  -33.1970 C   0  0  0  0  0  0  0  0  0  0  0  0
   -4.1200   16.5160  -34.4460 C   0  0  0  0  0  0  0  0  0  0  0  0
   -4.2860   17.7820  -35.0040 C   0  0  0  0  0  0  0  0  0  0  0  0
   -5.0140   18.7640  -34.3290 C   0  0  0  0  0  0  0  0  0  0  0  0
   -5.5870   18.4980  -33.0610 C   0  0  0  0  0  0  0  0  0  0  0  0
   -6.4640   19.5100  -32.2740 C   0  0  0  0  0  0  0  0  0  0  0  0
   -5.5300   20.4690  -31.5820 N   0  0  0  0  0  0  0  0  0  0  0  0
   -5.3490   21.7650  -32.2950 C   0  0  0  0  0  0  0  0  0  0  0  0
   -4.2360   22.6470  -31.6830 C   0  0  0  0  0  0  0  0  0  0  0  0
   -3.9580   22.2990  -30.2090 C   0  0  0  0  0  0  0  0  0  0  0  0
   -3.6340   20.7930  -30.0280 C   0  0  0  0  0  0  0  0  0  0  0  0
   -4.2240   19.9210  -31.1490 C   0  0  0  0  0  0  0  0  0  0  0  0
   -2.8540   23.1210  -29.7030 N   0  0  0  0  0  0  0  0  0  0  0  0
   -3.2440   23.8840  -28.7250 C   0  0  0  0  0  0  0  0  0  0  0  0
   -2.3470   24.8240  -28.0110 C   0  0  0  0  0  0  0  0  0  0  0  0
   -2.6410   25.2280  -26.6980 C   0  0  0  0  0  0  0  0  0  0  0  0
   -1.7950   26.1140  -26.0290 C   0  0  0  0  0  0  0  0  0  0  0  0
   -0.6600   26.5980  -26.6790 C   0  0  0  0  0  0  0  0  0  0  0  0
   -0.3870   26.2080  -27.9520 N   0  0  0  0  0  0  0  0  0  0  0  0
   -1.1920   25.3420  -28.6240 C   0  0  0  0  0  0  0  0  0  0  0  0
   -4.6180   23.7220  -28.3970 N   0  0  0  0  0  0  0  0  0  0  0  0
   -5.0740   22.7480  -29.3140 C   0  0  0  0  0  0  0  0  0  0  0  0
   -6.2610   22.3290  -29.3450 O   0  0  0  0  0  0  0  0  0  0  0  0
   -7.3310   20.2730  -33.3550 C   0  0  0  0  0  0  0  0  0  0  0  0
   -8.8090   20.4750  -32.9730 C   0  0  0  0  0  0  0  0  0  0  0  0
   -9.5060   19.1370  -32.6920 C   0  0  0  0  0  0  0  0  0  0  0  0
   -8.6240   18.1390  -31.9180 C   0  0  0  0  0  0  0  0  0  0  0  0
   -7.4240   18.8180  -31.2370 C   0  0  0  0  0  0  0  0  0  0  0  0
   -5.4210   17.2010  -32.5250 C   0  0  0  0  0  0  0  0  0  0  0  0
   -4.5557   14.9048  -31.5198 H   0  0  0  0  0  0  0  0  0  0  0  0
   -5.3949   14.2244  -32.9548 H   0  0  0  0  0  0  0  0  0  0  0  0
   -3.6062   14.3893  -32.9548 H   0  0  0  0  0  0  0  0  0  0  0  0
   -3.5501   15.7473  -34.9884 H   0  0  0  0  0  0  0  0  0  0  0  0
   -3.8402   18.0095  -35.9836 H   0  0  0  0  0  0  0  0  0  0  0  0
   -5.1441   19.7556  -34.7871 H   0  0  0  0  0  0  0  0  0  0  0  0
   -5.0911   21.5542  -33.3434 H   0  0  0  0  0  0  0  0  0  0  0  0
   -6.2934   22.3218  -32.2056 H   0  0  0  0  0  0  0  0  0  0  0  0
   -3.3115   22.5016  -32.2611 H   0  0  0  0  0  0  0  0  0  0  0  0
   -4.5752   23.6926  -31.7235 H   0  0  0  0  0  0  0  0  0  0  0  0
   -2.5413   20.6662  -30.0215 H   0  0  0  0  0  0  0  0  0  0  0  0
   -4.0865   20.4670  -29.0799 H   0  0  0  0  0  0  0  0  0  0  0  0
   -3.5321   19.9095  -32.0041 H   0  0  0  0  0  0  0  0  0  0  0  0
   -4.3685   18.8976  -30.7726 H   0  0  0  0  0  0  0  0  0  0  0  0
   -1.8780   23.0730  -30.0730 H   0  0  0  0  0  0  0  0  0  0  0  0
   -3.5412   24.8447  -26.1953 H   0  0  0  0  0  0  0  0  0  0  0  0
   -2.0213   26.4274  -24.9992 H   0  0  0  0  0  0  0  0  0  0  0  0
    0.0146   27.2957  -26.1611 H   0  0  0  0  0  0  0  0  0  0  0  0
   -0.9384   25.0451  -29.6524 H   0  0  0  0  0  0  0  0  0  0  0  0
   -5.1890   24.2530  -27.7030 H   0  0  0  0  0  0  0  0  0  0  0  0
   -6.8811   21.2636  -33.5172 H   0  0  0  0  0  0  0  0  0  0  0  0
   -7.3278   19.6417  -34.2558 H   0  0  0  0  0  0  0  0  0  0  0  0
   -8.8624   21.1021  -32.0708 H   0  0  0  0  0  0  0  0  0  0  0  0
   -9.3204   20.9594  -33.8179 H   0  0  0  0  0  0  0  0  0  0  0  0
  -10.4123   19.3333  -32.1003 H   0  0  0  0  0  0  0  0  0  0  0  0
   -9.7364   18.6799  -33.6656 H   0  0  0  0  0  0  0  0  0  0  0  0
   -9.2375   17.6508  -31.1465 H   0  0  0  0  0  0  0  0  0  0  0  0
   -8.2293   17.4109  -32.6419 H   0  0  0  0  0  0  0  0  0  0  0  0
   -7.7984   19.5802  -30.5378 H   0  0  0  0  0  0  0  0  0  0  0  0
   -6.8495   18.0403  -30.7124 H   0  0  0  0  0  0  0  0  0  0  0  0
   -5.8859   16.9548  -31.5589 H   0  0  0  0  0  0  0  0  0  0  0  0
  1  2  1  0
  2  3  2  0
  3  4  1  0
  4  5  2  0
  5  6  1  0
  6  7  1  0
  7  8  1  0
  8  9  1  0
  9 10  1  0
 10 11  1  0
 11 12  1  0
 12 13  1  0
 11 14  1  0
 14 15  2  0
 15 16  1  0
 16 17  2  0
 17 18  1  0
 18 19  2  0
 19 20  1  0
 20 21  2  0
 15 22  1  0
 22 23  1  0
 23 24  2  0
  7 25  1  0
 25 26  1  0
 26 27  1  0
 27 28  1  0
 28 29  1  0
  6 30  2  0
 30  2  1  0
 29  7  1  0
 13  8  1  0
 21 16  1  0
 23 11  1  0
  1 31  1  0
  1 32  1  0
  1 33  1  0
  3 34  1  0
  4 35  1  0
  5 36  1  0
  9 37  1  0
  9 38  1  0
 10 39  1  0
 10 40  1  0
 12 41  1  0
 12 42  1  0
 13 43  1  0
 13 44  1  0
 14 45  1  0
 17 46  1  0
 18 47  1  0
 19 48  1  0
 21 49  1  0
 22 50  1  0
 25 51  1  0
 25 52  1  0
 26 53  1  0
 26 54  1  0
 27 55  1  0
 27 56  1  0
 28 57  1  0
 28 58  1  0
 29 59  1  0
 29 60  1  0
 30 61  1  0
M  CHG  1  14   1
M  END
>  <UniqueID>  (24) 
23

>  <SMILES>  (24) 
Cc1cccc(C2(N3CCC4(CC3)[NH+]=C(c3cccnc3)NC4=O)CCCCC2)c1

>  <Energy>  (24) 
114.36153729576236

>  <Genealogy>  (24) 
Cc1cccc(C2(N3CCC4(CC3)[NH+]=C(c3cccnc3)NC4=O)CCCCC2)c1 (protonated)
Cc1cccc(C2(N3CCC4(CC3)[NH+]=C(c3cccnc3)NC4=O)CCCCC2)c1 (3D coordinates assigned)
Cc1cccc(C2(N3CCC4(CC3)[NH+]=C(c3cccnc3)NC4=O)CCCCC2)c1 (nonaromatic ring conformer: 114.36153729576236 kcal/mol)

>  <smiles>  (24) 
Cc1cccc(C2(N3CCC4(CC3)N=C(c3cccnc3)NC4=O)CCCCC2)c1

>  <score_type>  (24) 
oracle

>  <origin>  (24) 
adg

>  <m_score__min__energy>  (24) 
-8.7799999999999994

>  <m_primary>  (24) 
energy

$$$$
24:0
     RDKit          3D

 51 54  0  0  0  0  0  0  0  0999 V2000
   -5.9410   18.7700  -34.4800 C   0  0  0  0  0  0  0  0  0  0  0  0
   -6.7580   18.4640  -33.4620 C   0  0  0  0  0  0  0  0  0  0  0  0
   -7.6550   19.4950  -32.8930 C   0  0  0  0  0  0  0  0  0  0  0  0
   -7.2500   20.7150  -32.4730 N   0  0  0  0  0  0  0  0  0  0  0  0
   -8.2700   21.4650  -31.9700 C   0  0  0  0  0  0  0  0  0  0  0  0
   -8.0650   22.8840  -31.5180 C   0  0  0  0  0  0  0  0  0  0  0  0
   -7.5860   22.9470  -30.0610 C   0  0  0  0  0  0  0  0  0  0  0  0
   -6.1960   23.5250  -29.9520 C   0  0  0  0  0  0  0  0  0  0  0  0
   -5.9020   24.7790  -30.5150 C   0  0  0  0  0  0  0  0  0  0  0  0
   -4.5950   25.2750  -30.4840 C   0  0  0  0  0  0  0  0  0  0  0  0
   -3.5750   24.5260  -29.8930 C   0  0  0  0  0  0  0  0  0  0  0  0
   -3.8590   23.2770  -29.3330 C   0  0  0  0  0  0  0  0  0  0  0  0
   -5.1640   22.7750  -29.3640 C   0  0  0  0  0  0  0  0  0  0  0  0
   -9.5140   20.8410  -31.9830 C   0  0  0  0  0  0  0  0  0  0  0  0
   -9.3070   19.3010  -32.6290 S   0  0  0  0  0  0  0  0  0  0  0  0
   -6.7580   17.0870  -32.8390 C   0  0  0  0  0  0  0  0  0  0  0  0
   -5.6310   16.1430  -33.3210 C   0  0  0  0  0  0  0  0  0  0  0  0
   -4.5090   16.8340  -33.9850 N   0  0  0  0  0  0  0  0  0  0  0  0
   -3.4160   17.3000  -33.1000 C   0  0  0  0  0  0  0  0  0  0  0  0
   -3.2830   18.8040  -33.0160 C   0  0  0  0  0  0  0  0  0  0  0  0
   -4.0690   19.5390  -32.1100 C   0  0  0  0  0  0  0  0  0  0  0  0
   -3.9160   20.9250  -32.0050 C   0  0  0  0  0  0  0  0  0  0  0  0
   -2.9890   21.5900  -32.8120 C   0  0  0  0  0  0  0  0  0  0  0  0
   -2.2250   20.8710  -33.7350 C   0  0  0  0  0  0  0  0  0  0  0  0
   -2.3770   19.4860  -33.8450 C   0  0  0  0  0  0  0  0  0  0  0  0
   -4.9520   17.7840  -35.0180 C   0  0  0  0  0  0  0  0  0  0  0  0
   -5.9991   19.7714  -34.9314 H   0  0  0  0  0  0  0  0  0  0  0  0
   -6.2630   21.0530  -32.5120 H   0  0  0  0  0  0  0  0  0  0  0  0
   -7.3111   23.3591  -32.1629 H   0  0  0  0  0  0  0  0  0  0  0  0
   -9.0281   23.4108  -31.5876 H   0  0  0  0  0  0  0  0  0  0  0  0
   -8.2797   23.5772  -29.4851 H   0  0  0  0  0  0  0  0  0  0  0  0
   -7.5616   21.9212  -29.6647 H   0  0  0  0  0  0  0  0  0  0  0  0
   -6.7026   25.3719  -30.9814 H   0  0  0  0  0  0  0  0  0  0  0  0
   -4.3698   26.2568  -30.9259 H   0  0  0  0  0  0  0  0  0  0  0  0
   -2.5479   24.9190  -29.8682 H   0  0  0  0  0  0  0  0  0  0  0  0
   -3.0550   22.6882  -28.8673 H   0  0  0  0  0  0  0  0  0  0  0  0
   -5.3830   21.7898  -28.9266 H   0  0  0  0  0  0  0  0  0  0  0  0
  -10.4620   21.2762  -31.6338 H   0  0  0  0  0  0  0  0  0  0  0  0
   -6.6585   17.2067  -31.7501 H   0  0  0  0  0  0  0  0  0  0  0  0
   -7.7026   16.6143  -33.1460 H   0  0  0  0  0  0  0  0  0  0  0  0
   -5.2359   15.6028  -32.4480 H   0  0  0  0  0  0  0  0  0  0  0  0
   -6.0778   15.4720  -34.0694 H   0  0  0  0  0  0  0  0  0  0  0  0
   -3.6039   16.9135  -32.0874 H   0  0  0  0  0  0  0  0  0  0  0  0
   -2.4774   16.9240  -33.5332 H   0  0  0  0  0  0  0  0  0  0  0  0
   -4.8078   19.0208  -31.4809 H   0  0  0  0  0  0  0  0  0  0  0  0
   -4.5259   21.4923  -31.2865 H   0  0  0  0  0  0  0  0  0  0  0  0
   -2.8608   22.6787  -32.7207 H   0  0  0  0  0  0  0  0  0  0  0  0
   -1.5022   21.3963  -34.3766 H   0  0  0  0  0  0  0  0  0  0  0  0
   -1.7843   18.9273  -34.5843 H   0  0  0  0  0  0  0  0  0  0  0  0
   -4.0762   18.3300  -35.3986 H   0  0  0  0  0  0  0  0  0  0  0  0
   -5.4414   17.2124  -35.8204 H   0  0  0  0  0  0  0  0  0  0  0  0
  1  2  2  0
  2  3  1  0
  3  4  2  0
  4  5  1  0
  5  6  1  0
  6  7  1  0
  7  8  1  0
  8  9  2  0
  9 10  1  0
 10 11  2  0
 11 12  1  0
 12 13  2  0
  5 14  2  0
 14 15  1  0
  2 16  1  0
 16 17  1  0
 17 18  1  0
 18 19  1  0
 19 20  1  0
 20 21  2  0
 21 22  1  0
 22 23  2  0
 23 24  1  0
 24 25  2  0
 18 26  1  0
 26  1  1  0
 15  3  1  0
 25 20  1  0
 13  8  1  0
  1 27  1  0
  4 28  1  0
  6 29  1  0
  6 30  1  0
  7 31  1  0
  7 32  1  0
  9 33  1  0
 10 34  1  0
 11 35  1  0
 12 36  1  0
 13 37  1  0
 14 38  1  0
 16 39  1  0
 16 40  1  0
 17 41  1  0
 17 42  1  0
 19 43  1  0
 19 44  1  0
 21 45  1  0
 22 46  1  0
 23 47  1  0
 24 48  1  0
 25 49  1  0
 26 50  1  0
 26 51  1  0
M  CHG  1   4   1
M  END
>  <UniqueID>  (25) 
24

>  <SMILES>  (25) 
C1=C(c2[nH+]c(CCc3ccccc3)cs2)CCN(Cc2ccccc2)C1

>  <Energy>  (25) 
87.46770702709725

>  <Genealogy>  (25) 
C1=C(c2[nH+]c(CCc3ccccc3)cs2)CCN(Cc2ccccc2)C1 (protonated)
C1=C(c2[nH+]c(CCc3ccccc3)cs2)CCN(Cc2ccccc2)C1 (3D coordinates assigned)
C1=C(c2[nH+]c(CCc3ccccc3)cs2)CCN(Cc2ccccc2)C1 (nonaromatic ring conformer: 87.46770702709725 kcal/mol)

>  <smiles>  (25) 
C1=C(c2nc(CCc3ccccc3)cs2)CCN(Cc2ccccc2)C1

>  <score_type>  (25) 
oracle

>  <origin>  (25) 
adg

>  <m_score__min__energy>  (25) 
-9.6500000000000004

>  <m_primary>  (25) 
energy

$$$$
25:0
     RDKit          3D

 23 25  0  0  0  0  0  0  0  0999 V2000
   -3.9470   20.4130  -33.1030 C   0  0  0  0  0  0  0  0  0  0  0  0
   -5.4000   20.5880  -32.7180 C   0  0  0  0  0  0  0  0  0  0  0  0
   -6.3710   19.6220  -33.0660 C   0  0  0  0  0  0  0  0  0  0  0  0
   -5.9660   18.1550  -33.9660 Cl  0  0  0  0  0  0  0  0  0  0  0  0
   -7.7070   19.8270  -32.6880 C   0  0  0  0  0  0  0  0  0  0  0  0
   -8.5880   18.9790  -32.9880 O   0  0  0  0  0  0  0  0  0  0  0  0
   -8.0620   20.9110  -32.0120 O   0  0  0  0  0  0  0  0  0  0  0  0
   -7.2000   21.8540  -31.6550 C   0  0  0  0  0  0  0  0  0  0  0  0
   -7.6680   22.9710  -30.9370 C   0  0  0  0  0  0  0  0  0  0  0  0
   -6.7490   23.9470  -30.5730 C   0  0  0  0  0  0  0  0  0  0  0  0
   -6.9790   25.0570  -29.9070 O   0  0  0  0  0  0  0  0  0  0  0  0
   -5.8290   25.6970  -29.7750 C   0  0  0  0  0  0  0  0  0  0  0  0
   -4.8250   24.9630  -30.3840 C   0  0  0  0  0  0  0  0  0  0  0  0
   -3.4790   25.3000  -30.4610 O   0  0  0  0  0  0  0  0  0  0  0  0
   -5.4240   23.8400  -30.8940 C   0  0  0  0  0  0  0  0  0  0  0  0
   -4.9130   22.7560  -31.6020 C   0  0  0  0  0  0  0  0  0  0  0  0
   -5.8160   21.7330  -31.9960 C   0  0  0  0  0  0  0  0  0  0  0  0
   -3.3330   20.3390  -32.1933 H   0  0  0  0  0  0  0  0  0  0  0  0
   -3.8333   19.4947  -33.6978 H   0  0  0  0  0  0  0  0  0  0  0  0
   -3.6185   21.2781  -33.6978 H   0  0  0  0  0  0  0  0  0  0  0  0
   -8.7311   23.0681  -30.6718 H   0  0  0  0  0  0  0  0  0  0  0  0
   -5.6918   26.6605  -29.2623 H   0  0  0  0  0  0  0  0  0  0  0  0
   -3.8428   22.6936  -31.8487 H   0  0  0  0  0  0  0  0  0  0  0  0
  1  2  1  0
  2  3  2  0
  3  4  1  0
  3  5  1  0
  5  6  2  0
  5  7  1  0
  7  8  1  0
  8  9  2  0
  9 10  1  0
 10 11  1  0
 11 12  1  0
 12 13  2  0
 13 14  1  0
 13 15  1  0
 15 16  1  0
 16 17  2  0
 17  2  1  0
 17  8  1  0
 15 10  2  0
  1 18  1  0
  1 19  1  0
  1 20  1  0
  9 21  1  0
 12 22  1  0
 16 23  1  0
M  CHG  1  14  -1
M  END
>  <UniqueID>  (26) 
25

>  <SMILES>  (26) 
Cc1c(Cl)c(=O)oc2cc3occ([O-])c3cc12

>  <Energy>  (26) 
70.0082030215209

>  <Genealogy>  (26) 
Cc1c(Cl)c(=O)oc2cc3occ([O-])c3cc12 (protonated)
Cc1c(Cl)c(=O)oc2cc3occ([O-])c3cc12 (3D coordinates assigned)
Cc1c(Cl)c(=O)oc2cc3occ([O-])c3cc12 (optimized conformer: 70.0082030215209 kcal/mol)

>  <smiles>  (26) 
Cc1c(Cl)c(=O)oc2cc3occ(O)c3cc12

>  <score_type>  (26) 
oracle

>  <origin>  (26) 
adg

>  <m_score__min__energy>  (26) 
-10.52

>  <m_primary>  (26) 
energy

$$$$
26:0
     RDKit          3D

 35 37  0  0  0  0  0  0  0  0999 V2000
   -1.3720   23.5230  -30.0960 O   0  0  0  0  0  0  0  0  0  0  0  0
   -2.2100   24.5180  -29.3420 S   0  0  0  0  0  0  0  0  0  0  0  0
   -1.3280   25.6720  -28.9540 O   0  0  0  0  0  0  0  0  0  0  0  0
   -2.8570   23.7900  -27.8410 C   0  0  0  0  0  0  0  0  0  0  0  0
   -2.2710   22.4210  -27.5940 C   0  0  0  0  0  0  0  0  0  0  0  0
   -3.1340   21.3120  -27.5640 C   0  0  0  0  0  0  0  0  0  0  0  0
   -2.6400   20.0340  -27.2870 C   0  0  0  0  0  0  0  0  0  0  0  0
   -3.4840   18.9750  -27.2530 F   0  0  0  0  0  0  0  0  0  0  0  0
   -1.2800   19.8500  -27.0350 C   0  0  0  0  0  0  0  0  0  0  0  0
   -0.4100   20.9420  -27.0610 C   0  0  0  0  0  0  0  0  0  0  0  0
   -0.8920   22.2280  -27.3400 C   0  0  0  0  0  0  0  0  0  0  0  0
    0.2820   23.5880  -27.3410 S   0  0  0  0  0  0  0  0  0  0  0  0
   -3.4890   25.1290  -30.3470 N   0  0  0  0  0  0  0  0  0  0  0  0
   -4.7720   24.5250  -30.5830 C   0  0  0  0  0  0  0  0  0  0  0  0
   -5.9700   25.1060  -30.1260 C   0  0  0  0  0  0  0  0  0  0  0  0
   -7.2020   24.5100  -30.4090 C   0  0  0  0  0  0  0  0  0  0  0  0
   -7.2590   23.3240  -31.1410 C   0  0  0  0  0  0  0  0  0  0  0  0
   -6.0780   22.7230  -31.5940 C   0  0  0  0  0  0  0  0  0  0  0  0
   -6.1080   21.5340  -32.3320 C   0  0  0  0  0  0  0  0  0  0  0  0
   -4.9150   20.9620  -32.7760 C   0  0  0  0  0  0  0  0  0  0  0  0
   -3.7010   21.5850  -32.4780 C   0  0  0  0  0  0  0  0  0  0  0  0
   -3.6850   22.7390  -31.7600 N   0  0  0  0  0  0  0  0  0  0  0  0
   -4.8290   23.3240  -31.3090 C   0  0  0  0  0  0  0  0  0  0  0  0
   -2.6099   24.4434  -26.9913 H   0  0  0  0  0  0  0  0  0  0  0  0
   -3.9466   23.6850  -27.9497 H   0  0  0  0  0  0  0  0  0  0  0  0
   -4.2074   21.4510  -27.7602 H   0  0  0  0  0  0  0  0  0  0  0  0
   -0.8929   18.8440  -26.8157 H   0  0  0  0  0  0  0  0  0  0  0  0
    0.6612   20.7917  -26.8611 H   0  0  0  0  0  0  0  0  0  0  0  0
   -0.0630   23.9540  -28.6550 H   0  0  0  0  0  0  0  0  0  0  0  0
   -5.9361   26.0370  -29.5412 H   0  0  0  0  0  0  0  0  0  0  0  0
   -8.1313   24.9785  -30.0527 H   0  0  0  0  0  0  0  0  0  0  0  0
   -8.2318   22.8607  -31.3625 H   0  0  0  0  0  0  0  0  0  0  0  0
   -7.0696   21.0516  -32.5614 H   0  0  0  0  0  0  0  0  0  0  0  0
   -4.9307   20.0276  -33.3562 H   0  0  0  0  0  0  0  0  0  0  0  0
   -2.7563   21.1410  -32.8249 H   0  0  0  0  0  0  0  0  0  0  0  0
  1  2  2  0
  2  3  2  0
  2  4  1  0
  4  5  1  0
  5  6  2  0
  6  7  1  0
  7  8  1  0
  7  9  2  0
  9 10  1  0
 10 11  2  0
 11 12  1  0
  2 13  1  0
 13 14  1  0
 14 15  2  0
 15 16  1  0
 16 17  2  0
 17 18  1  0
 18 19  2  0
 19 20  1  0
 20 21  2  0
 21 22  1  0
 22 23  2  0
 11  5  1  0
 23 14  1  0
 23 18  1  0
  4 24  1  0
  4 25  1  0
  6 26  1  0
  9 27  1  0
 10 28  1  0
 12 29  1  0
 15 30  1  0
 16 31  1  0
 17 32  1  0
 19 33  1  0
 20 34  1  0
 21 35  1  0
M  CHG  1  13  -1
M  END
>  <UniqueID>  (27) 
26

>  <SMILES>  (27) 
O=S(=O)(Cc1cc(F)ccc1S)[N-]c1cccc2cccnc12

>  <Energy>  (27) 
38.292422778404074

>  <Genealogy>  (27) 
O=S(=O)(Cc1cc(F)ccc1S)[N-]c1cccc2cccnc12 (protonated)
O=S(=O)(Cc1cc(F)ccc1S)[N-]c1cccc2cccnc12 (3D coordinates assigned)
O=S(=O)(Cc1cc(F)ccc1S)[N-]c1cccc2cccnc12 (optimized conformer: 38.292422778404074 kcal/mol)

>  <smiles>  (27) 
O=S(=O)(Cc1cc(F)ccc1S)Nc1cccc2cccnc12

>  <score_type>  (27) 
oracle

>  <origin>  (27) 
adg

>  <m_score__min__energy>  (27) 
-9.8100000000000005

>  <m_primary>  (27) 
energy

$$$$
27:0
     RDKit          3D

 41 44  0  0  0  0  0  0  0  0999 V2000
   -1.4810   22.0920  -25.1390 H   0  0  0  0  0  0  0  0  0  0  0  0
   -1.2110   21.1520  -25.3970 O   0  0  0  0  0  0  0  0  0  0  0  0
   -1.2810   20.6930  -26.7100 C   0  0  0  0  0  0  0  0  0  0  0  0
   -1.0300   19.4020  -27.1180 C   0  0  0  0  0  0  0  0  0  0  0  0
   -0.7047   18.5769  -26.4673 H   0  0  0  0  0  0  0  0  0  0  0  0
   -1.2480   19.3150  -28.4440 N   0  0  0  0  0  0  0  0  0  0  0  0
   -1.6200   20.5100  -28.8840 N   0  0  0  0  0  0  0  0  0  0  0  0
   -1.8680   20.7770  -30.2740 C   0  0  0  0  0  0  0  0  0  0  0  0
   -0.8490   21.2750  -31.1040 C   0  0  0  0  0  0  0  0  0  0  0  0
    0.1440   21.4915  -30.6832 H   0  0  0  0  0  0  0  0  0  0  0  0
   -1.0930   21.4960  -32.4620 C   0  0  0  0  0  0  0  0  0  0  0  0
   -0.2960   21.8981  -33.1047 H   0  0  0  0  0  0  0  0  0  0  0  0
   -2.3480   21.2070  -33.0050 C   0  0  0  0  0  0  0  0  0  0  0  0
   -2.5378   21.3809  -34.0745 H   0  0  0  0  0  0  0  0  0  0  0  0
   -3.3620   20.6970  -32.1890 C   0  0  0  0  0  0  0  0  0  0  0  0
   -4.3499   20.4703  -32.6164 H   0  0  0  0  0  0  0  0  0  0  0  0
   -3.1210   20.4750  -30.8300 C   0  0  0  0  0  0  0  0  0  0  0  0
   -3.9171   20.0617  -30.1933 H   0  0  0  0  0  0  0  0  0  0  0  0
   -1.6500   21.3870  -27.8500 C   0  0  0  0  0  0  0  0  0  0  0  0
   -2.0970   22.7940  -27.9260 C   0  0  0  0  0  0  0  0  0  0  0  0
   -2.3380   23.4290  -26.8640 O   0  0  0  0  0  0  0  0  0  0  0  0
   -2.2450   23.4260  -29.2070 N   0  0  0  0  0  0  0  0  0  0  0  0
   -3.3660   23.7910  -29.7560 C   0  0  0  0  0  0  0  0  0  0  0  0
   -3.5370   24.9270  -30.4690 N   0  0  0  0  0  0  0  0  0  0  0  0
   -4.7790   25.0670  -30.9300 N   0  0  0  0  0  0  0  0  0  0  0  0
   -5.5920   24.0390  -30.5970 C   0  0  0  0  0  0  0  0  0  0  0  0
   -7.0390   23.9770  -30.9660 C   0  0  0  0  0  0  0  0  0  0  0  0
   -7.6491   24.2328  -30.0872 H   0  0  0  0  0  0  0  0  0  0  0  0
   -7.2324   24.6920  -31.7792 H   0  0  0  0  0  0  0  0  0  0  0  0
   -7.3980   22.5940  -31.4340 C   0  0  0  0  0  0  0  0  0  0  0  0
   -6.5400   21.8930  -32.2990 C   0  0  0  0  0  0  0  0  0  0  0  0
   -5.5919   22.3496  -32.6194 H   0  0  0  0  0  0  0  0  0  0  0  0
   -6.8880   20.6160  -32.7540 C   0  0  0  0  0  0  0  0  0  0  0  0
   -6.2095   20.0681  -33.4244 H   0  0  0  0  0  0  0  0  0  0  0  0
   -8.0960   20.0360  -32.3580 C   0  0  0  0  0  0  0  0  0  0  0  0
   -8.3647   19.0301  -32.7128 H   0  0  0  0  0  0  0  0  0  0  0  0
   -8.9630   20.7320  -31.5120 C   0  0  0  0  0  0  0  0  0  0  0  0
   -9.9168   20.2769  -31.2068 H   0  0  0  0  0  0  0  0  0  0  0  0
   -8.6180   22.0080  -31.0530 C   0  0  0  0  0  0  0  0  0  0  0  0
   -9.3048   22.5555  -30.3907 H   0  0  0  0  0  0  0  0  0  0  0  0
   -4.7810   22.8880  -29.6670 S   0  0  0  0  0  0  0  0  0  0  0  0
  1  2  1  0
  2  3  1  0
  3  4  1  0
  4  5  1  0
  4  6  2  0
  6  7  1  0
  7  8  1  0
  8  9  2  0
  9 10  1  0
  9 11  1  0
 11 12  1  0
 11 13  2  0
 13 14  1  0
 13 15  1  0
 15 16  1  0
 15 17  2  0
 17 18  1  0
  7 19  1  0
 19 20  1  0
 20 21  2  0
 20 22  1  0
 22 23  2  0
 23 24  1  0
 24 25  1  0
 25 26  2  0
 26 27  1  0
 27 28  1  0
 27 29  1  0
 27 30  1  0
 30 31  2  0
 31 32  1  0
 31 33  1  0
 33 34  1  0
 33 35  2  0
 35 36  1  0
 35 37  1  0
 37 38  1  0
 37 39  2  0
 39 40  1  0
 26 41  1  0
 19  3  2  0
 41 23  1  0
 17  8  1  0
 39 30  1  0
M  CHG  1  24  -1
M  END
>  <UniqueID>  (28) 
27

>  <SMILES>  (28) 
O=C(/N=c1\[n-]nc(Cc2ccccc2)s1)c1c(O)cnn1-c1ccccc1

>  <Energy>  (28) 
119.80138933243099

>  <Genealogy>  (28) 
O=C(N=c1[n-]nc(Cc2ccccc2)s1)c1c(O)cnn1-c1ccccc1 (protonated)
O=C(/N=c1\[n-]nc(Cc2ccccc2)s1)c1c(O)cnn1-c1ccccc1 (cis-trans isomerization)
O=C(/N=c1\[n-]nc(Cc2ccccc2)s1)c1c(O)cnn1-c1ccccc1 (3D coordinates assigned)
O=C(/N=c1\[n-]nc(Cc2ccccc2)s1)c1c(O)cnn1-c1ccccc1 (optimized conformer: 119.80138933243099 kcal/mol)

>  <smiles>  (28) 
O=C(N=c1[nH]nc(Cc2ccccc2)s1)c1c(O)cnn1-c1ccccc1

>  <score_type>  (28) 
oracle

>  <origin>  (28) 
adg

>  <m_score__min__energy>  (28) 
-10.710000000000001

>  <m_primary>  (28) 
energy

$$$$
28:0
     RDKit          3D

 44 45  0  0  0  0  0  0  0  0999 V2000
   -4.0300   22.5070  -29.7350 C   0  0  0  0  0  0  0  0  0  0  0  0
   -3.5510   23.7230  -30.5120 C   0  0  0  0  0  0  0  0  0  0  0  0
   -4.6430   24.2860  -31.2100 O   0  0  0  0  0  0  0  0  0  0  0  0
   -5.8560   24.0300  -30.5260 C   0  0  0  0  0  0  0  0  0  0  0  0
   -7.0170   23.8690  -31.5120 C   0  0  0  0  0  0  0  0  0  0  0  0
   -7.0540   22.5050  -32.0560 N   0  0  0  0  0  0  0  0  0  0  0  0
   -6.0450   21.8450  -32.6610 C   0  0  0  0  0  0  0  0  0  0  0  0
   -4.7890   22.3800  -32.9440 O   0  0  0  0  0  0  0  0  0  0  0  0
   -6.4440   20.5570  -32.9460 C   0  0  0  0  0  0  0  0  0  0  0  0
   -5.5990   19.5090  -33.5480 C   0  0  0  0  0  0  0  0  0  0  0  0
   -4.3060   19.2700  -33.0600 C   0  0  0  0  0  0  0  0  0  0  0  0
   -3.5130   18.2660  -33.6270 C   0  0  0  0  0  0  0  0  0  0  0  0
   -4.0020   17.4810  -34.6770 C   0  0  0  0  0  0  0  0  0  0  0  0
   -3.1680   16.4890  -35.2130 O   0  0  0  0  0  0  0  0  0  0  0  0
   -3.0660   15.1640  -34.7030 C   0  0  0  0  0  0  0  0  0  0  0  0
   -5.3060   17.7110  -35.1560 C   0  0  0  0  0  0  0  0  0  0  0  0
   -6.0990   18.7140  -34.5900 C   0  0  0  0  0  0  0  0  0  0  0  0
   -7.7180   20.4000  -32.5110 N   0  0  0  0  0  0  0  0  0  0  0  0
   -8.4750   19.1440  -32.4210 C   0  0  0  0  0  0  0  0  0  0  0  0
   -7.7070   18.1220  -31.5910 C   0  0  0  0  0  0  0  0  0  0  0  0
   -8.0560   21.5950  -31.9630 C   0  0  0  0  0  0  0  0  0  0  0  0
   -9.4960   21.8890  -31.2240 S   0  0  0  0  0  0  0  0  0  0  0  0
   -3.9513   22.7069  -28.6562 H   0  0  0  0  0  0  0  0  0  0  0  0
   -5.0783   22.2964  -29.9933 H   0  0  0  0  0  0  0  0  0  0  0  0
   -3.4070   21.6380  -29.9933 H   0  0  0  0  0  0  0  0  0  0  0  0
   -3.1372   24.4661  -29.8145 H   0  0  0  0  0  0  0  0  0  0  0  0
   -2.7704   23.4222  -31.2262 H   0  0  0  0  0  0  0  0  0  0  0  0
   -5.7505   23.1051  -29.9399 H   0  0  0  0  0  0  0  0  0  0  0  0
   -6.0726   24.8818  -29.8646 H   0  0  0  0  0  0  0  0  0  0  0  0
   -7.9637   24.0754  -30.9912 H   0  0  0  0  0  0  0  0  0  0  0  0
   -6.8749   24.5761  -32.3425 H   0  0  0  0  0  0  0  0  0  0  0  0
   -4.6670   23.3480  -33.2100 H   0  0  0  0  0  0  0  0  0  0  0  0
   -3.9138   19.8740  -32.2285 H   0  0  0  0  0  0  0  0  0  0  0  0
   -2.4966   18.0925  -33.2440 H   0  0  0  0  0  0  0  0  0  0  0  0
   -3.0682   15.1932  -33.6034 H   0  0  0  0  0  0  0  0  0  0  0  0
   -3.9210   14.5685  -35.0557 H   0  0  0  0  0  0  0  0  0  0  0  0
   -2.1300   14.7064  -35.0557 H   0  0  0  0  0  0  0  0  0  0  0  0
   -5.7027   17.0988  -35.9793 H   0  0  0  0  0  0  0  0  0  0  0  0
   -7.1201   18.8805  -34.9637 H   0  0  0  0  0  0  0  0  0  0  0  0
   -9.4478   19.3398  -31.9463 H   0  0  0  0  0  0  0  0  0  0  0  0
   -8.6243   18.7427  -33.4343 H   0  0  0  0  0  0  0  0  0  0  0  0
   -7.8615   18.3276  -30.5215 H   0  0  0  0  0  0  0  0  0  0  0  0
   -8.0706   17.1108  -31.8263 H   0  0  0  0  0  0  0  0  0  0  0  0
   -6.6346   18.1900  -31.8263 H   0  0  0  0  0  0  0  0  0  0  0  0
  1  2  1  0
  2  3  1  0
  3  4  1  0
  4  5  1  0
  5  6  1  0
  6  7  1  0
  7  8  1  0
  7  9  2  0
  9 10  1  0
 10 11  2  0
 11 12  1  0
 12 13  2  0
 13 14  1  0
 14 15  1  0
 13 16  1  0
 16 17  2  0
  9 18  1  0
 18 19  1  0
 19 20  1  0
 18 21  1  0
 21 22  2  0
 21  6  1  0
 17 10  1  0
  1 23  1  0
  1 24  1  0
  1 25  1  0
  2 26  1  0
  2 27  1  0
  4 28  1  0
  4 29  1  0
  5 30  1  0
  5 31  1  0
  8 32  1  0
 11 33  1  0
 12 34  1  0
 15 35  1  0
 15 36  1  0
 15 37  1  0
 16 38  1  0
 17 39  1  0
 19 40  1  0
 19 41  1  0
 20 42  1  0
 20 43  1  0
 20 44  1  0
M  END
>  <UniqueID>  (29) 
28

>  <SMILES>  (29) 
CCOCCn1c(O)c(-c2ccc(OC)cc2)n(CC)c1=S

>  <Energy>  (29) 
76.07910200784299

>  <Genealogy>  (29) 
CCOCCn1c(O)c(-c2ccc(OC)cc2)n(CC)c1=S (3D coordinates assigned)
CCOCCn1c(O)c(-c2ccc(OC)cc2)n(CC)c1=S (optimized conformer: 76.07910200784299 kcal/mol)

>  <smiles>  (29) 
CCOCCn1c(O)c(-c2ccc(OC)cc2)n(CC)c1=S

>  <score_type>  (29) 
oracle

>  <origin>  (29) 
adg

>  <m_score__min__energy>  (29) 
-6.5099999999999998

>  <m_primary>  (29) 
energy

$$$$
29:0
     RDKit          3D

 42 43  0  0  0  0  0  0  0  0999 V2000
    0.0660   23.0090  -25.0880 C   0  0  0  0  0  0  0  0  0  0  0  0
    0.2210   22.2810  -26.4190 C   0  0  0  0  0  0  0  0  0  0  0  0
   -1.0890   22.2300  -27.1510 C   0  0  0  0  0  0  0  0  0  0  0  0
   -2.0060   21.1760  -27.1790 C   0  0  0  0  0  0  0  0  0  0  0  0
   -1.8930   19.8930  -26.4210 C   0  0  0  0  0  0  0  0  0  0  0  0
   -3.0160   21.4610  -27.9810 O   0  0  0  0  0  0  0  0  0  0  0  0
   -2.7850   22.6470  -28.4840 C   0  0  0  0  0  0  0  0  0  0  0  0
   -3.5740   23.3150  -29.3590 N   0  0  0  0  0  0  0  0  0  0  0  0
   -3.1760   24.5540  -29.7870 C   0  0  0  0  0  0  0  0  0  0  0  0
   -3.9730   25.2960  -30.6670 O   0  0  0  0  0  0  0  0  0  0  0  0
   -5.3330   25.6320  -30.3980 C   0  0  0  0  0  0  0  0  0  0  0  0
   -6.2160   24.5420  -30.8260 C   0  0  0  0  0  0  0  0  0  0  0  0
   -6.9200   23.6240  -31.1650 C   0  0  0  0  0  0  0  0  0  0  0  0
   -7.7720   22.4950  -31.5460 C   0  0  0  0  0  0  0  0  0  0  0  0
   -7.2320   21.8490  -32.7540 N   0  0  0  0  0  0  0  0  0  0  0  0
   -6.1710   20.8430  -32.5190 C   0  0  0  0  0  0  0  0  0  0  0  0
   -6.3670   19.5640  -33.3520 C   0  0  0  0  0  0  0  0  0  0  0  0
   -4.7620   21.4230  -32.7030 C   0  0  0  0  0  0  0  0  0  0  0  0
   -1.9940   25.0890  -29.3420 N   0  0  0  0  0  0  0  0  0  0  0  0
   -1.1960   24.4200  -28.4610 C   0  0  0  0  0  0  0  0  0  0  0  0
   -0.1160   24.9320  -28.0660 O   0  0  0  0  0  0  0  0  0  0  0  0
   -1.6160   23.1680  -28.0190 C   0  0  0  0  0  0  0  0  0  0  0  0
    0.2172   22.2987  -24.2618 H   0  0  0  0  0  0  0  0  0  0  0  0
    0.8129   23.8137  -25.0211 H   0  0  0  0  0  0  0  0  0  0  0  0
   -0.9440   23.4397  -25.0211 H   0  0  0  0  0  0  0  0  0  0  0  0
    0.9598   22.8120  -27.0372 H   0  0  0  0  0  0  0  0  0  0  0  0
    0.5570   21.2521  -26.2226 H   0  0  0  0  0  0  0  0  0  0  0  0
   -1.9114   20.1022  -25.3412 H   0  0  0  0  0  0  0  0  0  0  0  0
   -2.7369   19.2374  -26.6819 H   0  0  0  0  0  0  0  0  0  0  0  0
   -0.9475   19.3950  -26.6819 H   0  0  0  0  0  0  0  0  0  0  0  0
   -5.4595   25.7999  -29.3183 H   0  0  0  0  0  0  0  0  0  0  0  0
   -5.5944   26.5455  -30.9522 H   0  0  0  0  0  0  0  0  0  0  0  0
   -7.8010   21.7653  -30.7234 H   0  0  0  0  0  0  0  0  0  0  0  0
   -8.7887   22.8604  -31.7528 H   0  0  0  0  0  0  0  0  0  0  0  0
   -6.8520   22.5890  -33.3890 H   0  0  0  0  0  0  0  0  0  0  0  0
   -6.2666   20.5517  -31.4626 H   0  0  0  0  0  0  0  0  0  0  0  0
   -6.4987   18.7044  -32.6785 H   0  0  0  0  0  0  0  0  0  0  0  0
   -7.2590   19.6728  -33.9865 H   0  0  0  0  0  0  0  0  0  0  0  0
   -5.4834   19.4007  -33.9865 H   0  0  0  0  0  0  0  0  0  0  0  0
   -4.3104   21.6089  -31.7173 H   0  0  0  0  0  0  0  0  0  0  0  0
   -4.1410   20.7074  -33.2618 H   0  0  0  0  0  0  0  0  0  0  0  0
   -4.8247   22.3684  -33.2618 H   0  0  0  0  0  0  0  0  0  0  0  0
  1  2  1  0
  2  3  1  0
  3  4  2  0
  4  5  1  0
  4  6  1  0
  6  7  1  0
  7  8  1  0
  8  9  1  0
  9 10  1  0
 10 11  1  0
 11 12  1  0
 12 13  3  0
 13 14  1  0
 14 15  1  0
 15 16  1  0
 16 17  1  0
 16 18  1  0
  9 19  2  0
 19 20  1  0
 20 21  2  0
 20 22  1  0
 22  3  1  0
 22  7  2  0
  1 23  1  0
  1 24  1  0
  1 25  1  0
  2 26  1  0
  2 27  1  0
  5 28  1  0
  5 29  1  0
  5 30  1  0
 11 31  1  0
 11 32  1  0
 14 33  1  0
 14 34  1  0
 15 35  1  0
 16 36  1  0
 17 37  1  0
 17 38  1  0
 17 39  1  0
 18 40  1  0
 18 41  1  0
 18 42  1  0
M  CHG  1   8  -1
M  END
>  <UniqueID>  (30) 
29

>  <SMILES>  (30) 
CCc1c(C)oc2[n-]c(OCC#CCNC(C)C)nc(=O)c12

>  <Energy>  (30) 
66.07217683280652

>  <Genealogy>  (30) 
CCc1c(C)oc2[n-]c(OCC#CCNC(C)C)nc(=O)c12 (protonated)
CCc1c(C)oc2[n-]c(OCC#CCNC(C)C)nc(=O)c12 (3D coordinates assigned)
CCc1c(C)oc2[n-]c(OCC#CCNC(C)C)nc(=O)c12 (optimized conformer: 66.07217683280652 kcal/mol)

>  <smiles>  (30) 
CCc1c(C)oc2[nH]c(OCC#CCNC(C)C)nc(=O)c12

>  <score_type>  (30) 
oracle

>  <origin>  (30) 
adg

>  <m_score__min__energy>  (30) 
-8.4199999999999999

>  <m_primary>  (30) 
energy

$$$$
30:0
     RDKit          3D

 40 43  0  0  0  0  0  0  0  0999 V2000
   -7.8100   18.0440  -32.7670 F   0  0  0  0  0  0  0  0  0  0  0  0
   -8.7290   18.9270  -32.2280 C   0  0  0  0  0  0  0  0  0  0  0  0
   -9.0830   18.4700  -30.9710 F   0  0  0  0  0  0  0  0  0  0  0  0
   -9.8540   18.9520  -33.0320 F   0  0  0  0  0  0  0  0  0  0  0  0
   -8.1470   20.3160  -32.1480 C   0  0  0  0  0  0  0  0  0  0  0  0
   -8.9680   21.4160  -31.8440 C   0  0  0  0  0  0  0  0  0  0  0  0
   -8.4370   22.7070  -31.8210 C   0  0  0  0  0  0  0  0  0  0  0  0
   -7.0890   22.9190  -32.1110 C   0  0  0  0  0  0  0  0  0  0  0  0
   -6.2530   21.8330  -32.4310 C   0  0  0  0  0  0  0  0  0  0  0  0
   -4.8660   22.0260  -32.7630 N   0  0  0  0  0  0  0  0  0  0  0  0
   -3.8310   22.2220  -31.7880 C   0  0  0  0  0  0  0  0  0  0  0  0
   -4.1280   22.9520  -30.6180 C   0  0  0  0  0  0  0  0  0  0  0  0
   -3.1100   23.1270  -29.6840 C   0  0  0  0  0  0  0  0  0  0  0  0
   -1.8500   22.6410  -29.8820 C   0  0  0  0  0  0  0  0  0  0  0  0
   -1.5090   21.9370  -31.0320 C   0  0  0  0  0  0  0  0  0  0  0  0
   -2.5100   21.7290  -32.0020 C   0  0  0  0  0  0  0  0  0  0  0  0
   -2.0670   20.9170  -33.4980 Cl  0  0  0  0  0  0  0  0  0  0  0  0
   -1.0440   22.9690  -28.8510 N   0  0  0  0  0  0  0  0  0  0  0  0
   -1.8740   23.6740  -28.0400 C   0  0  0  0  0  0  0  0  0  0  0  0
   -3.1420   23.7660  -28.5070 N   0  0  0  0  0  0  0  0  0  0  0  0
   -4.2300   24.5360  -27.9040 C   0  0  0  0  0  0  0  0  0  0  0  0
   -3.9220   24.8340  -26.4270 C   0  0  0  0  0  0  0  0  0  0  0  0
   -2.4690   25.3080  -26.2530 C   0  0  0  0  0  0  0  0  0  0  0  0
   -1.4690   24.2340  -26.7110 C   0  0  0  0  0  0  0  0  0  0  0  0
   -6.7960   20.5400  -32.4680 C   0  0  0  0  0  0  0  0  0  0  0  0
  -10.0341   21.2587  -31.6232 H   0  0  0  0  0  0  0  0  0  0  0  0
   -9.0845   23.5610  -31.5731 H   0  0  0  0  0  0  0  0  0  0  0  0
   -6.6779   23.9391  -32.0895 H   0  0  0  0  0  0  0  0  0  0  0  0
   -4.6090   22.1460  -33.7690 H   0  0  0  0  0  0  0  0  0  0  0  0
   -5.1315   23.3696  -30.4489 H   0  0  0  0  0  0  0  0  0  0  0  0
   -0.4885   21.5540  -31.1800 H   0  0  0  0  0  0  0  0  0  0  0  0
   -4.3475   25.4847  -28.4482 H   0  0  0  0  0  0  0  0  0  0  0  0
   -5.1581   23.9486  -27.9633 H   0  0  0  0  0  0  0  0  0  0  0  0
   -4.6025   25.6206  -26.0690 H   0  0  0  0  0  0  0  0  0  0  0  0
   -4.0619   23.9105  -25.8460 H   0  0  0  0  0  0  0  0  0  0  0  0
   -2.3155   26.2181  -26.8514 H   0  0  0  0  0  0  0  0  0  0  0  0
   -2.2962   25.5085  -25.1853 H   0  0  0  0  0  0  0  0  0  0  0  0
   -0.4688   24.6836  -26.7971 H   0  0  0  0  0  0  0  0  0  0  0  0
   -1.4562   23.4205  -25.9707 H   0  0  0  0  0  0  0  0  0  0  0  0
   -6.1569   19.6906  -32.7509 H   0  0  0  0  0  0  0  0  0  0  0  0
  1  2  1  0
  2  3  1  0
  2  4  1  0
  2  5  1  0
  5  6  2  0
  6  7  1  0
  7  8  2  0
  8  9  1  0
  9 10  1  0
 10 11  1  0
 11 12  2  0
 12 13  1  0
 13 14  2  0
 14 15  1  0
 15 16  2  0
 16 17  1  0
 14 18  1  0
 18 19  2  0
 19 20  1  0
 20 21  1  0
 21 22  1  0
 22 23  1  0
 23 24  1  0
  9 25  2  0
 25  5  1  0
 16 11  1  0
 24 19  1  0
 20 13  1  0
  6 26  1  0
  7 27  1  0
  8 28  1  0
 10 29  1  0
 12 30  1  0
 15 31  1  0
 21 32  1  0
 21 33  1  0
 22 34  1  0
 22 35  1  0
 23 36  1  0
 23 37  1  0
 24 38  1  0
 24 39  1  0
 25 40  1  0
M  END
>  <UniqueID>  (31) 
30

>  <SMILES>  (31) 
FC(F)(F)c1cccc(Nc2cc3c(cc2Cl)nc2n3CCCC2)c1

>  <Energy>  (31) 
86.85337924762472

>  <Genealogy>  (31) 
FC(F)(F)c1cccc(Nc2cc3c(cc2Cl)nc2n3CCCC2)c1 (3D coordinates assigned)
FC(F)(F)c1cccc(Nc2cc3c(cc2Cl)nc2n3CCCC2)c1 (nonaromatic ring conformer: 86.85337924762472 kcal/mol)

>  <smiles>  (31) 
FC(F)(F)c1cccc(Nc2cc3c(cc2Cl)nc2n3CCCC2)c1

>  <score_type>  (31) 
oracle

>  <origin>  (31) 
adg

>  <m_score__min__energy>  (31) 
-8.8599999999999994

>  <m_primary>  (31) 
energy

$$$$
31:0
     RDKit          3D

 34 35  0  0  0  0  0  0  0  0999 V2000
  -10.2610   21.0640  -32.3440 O   0  0  0  0  0  0  0  0  0  0  0  0
   -9.0540   20.7060  -32.3240 C   0  0  0  0  0  0  0  0  0  0  0  0
   -8.5870   19.6000  -32.9260 N   0  0  0  0  0  0  0  0  0  0  0  0
   -7.2760   19.5480  -32.7320 N   0  0  0  0  0  0  0  0  0  0  0  0
   -6.4120   18.5140  -33.2430 C   0  0  0  0  0  0  0  0  0  0  0  0
   -5.7410   18.6850  -34.4670 C   0  0  0  0  0  0  0  0  0  0  0  0
   -4.9030   17.6820  -34.9640 C   0  0  0  0  0  0  0  0  0  0  0  0
   -4.7230   16.4980  -34.2440 C   0  0  0  0  0  0  0  0  0  0  0  0
   -3.6700   15.2410  -34.8680 Cl  0  0  0  0  0  0  0  0  0  0  0  0
   -5.3850   16.3160  -33.0260 C   0  0  0  0  0  0  0  0  0  0  0  0
   -6.2250   17.3160  -32.5270 C   0  0  0  0  0  0  0  0  0  0  0  0
   -6.8950   20.6220  -32.0000 C   0  0  0  0  0  0  0  0  0  0  0  0
   -8.0180   21.3780  -31.7080 C   0  0  0  0  0  0  0  0  0  0  0  0
   -8.0690   22.6920  -30.9920 C   0  0  0  0  0  0  0  0  0  0  0  0
   -7.0440   22.7270  -29.8580 C   0  0  0  0  0  0  0  0  0  0  0  0
   -6.4790   24.0780  -29.7430 N   0  0  0  0  0  0  0  0  0  0  0  0
   -5.1310   24.1710  -30.3250 C   0  0  0  0  0  0  0  0  0  0  0  0
   -4.0420   24.3600  -29.2640 C   0  0  0  0  0  0  0  0  0  0  0  0
   -3.1010   25.2640  -29.7240 F   0  0  0  0  0  0  0  0  0  0  0  0
   -9.1490   18.9210  -33.4860 H   0  0  0  0  0  0  0  0  0  0  0  0
   -5.8765   19.6153  -35.0381 H   0  0  0  0  0  0  0  0  0  0  0  0
   -4.3845   17.8253  -35.9235 H   0  0  0  0  0  0  0  0  0  0  0  0
   -5.2446   15.3839  -32.4591 H   0  0  0  0  0  0  0  0  0  0  0  0
   -6.7434   17.1659  -31.5685 H   0  0  0  0  0  0  0  0  0  0  0  0
   -5.8658   20.8548  -31.6894 H   0  0  0  0  0  0  0  0  0  0  0  0
   -7.8479   23.5006  -31.7042 H   0  0  0  0  0  0  0  0  0  0  0  0
   -9.0743   22.8248  -30.5656 H   0  0  0  0  0  0  0  0  0  0  0  0
   -7.5354   22.4544  -28.9124 H   0  0  0  0  0  0  0  0  0  0  0  0
   -6.2368   22.0117  -30.0743 H   0  0  0  0  0  0  0  0  0  0  0  0
   -6.4390   24.3470  -28.7310 H   0  0  0  0  0  0  0  0  0  0  0  0
   -4.9232   23.2454  -30.8819 H   0  0  0  0  0  0  0  0  0  0  0  0
   -5.1123   25.0531  -30.9819 H   0  0  0  0  0  0  0  0  0  0  0  0
   -4.4953   24.7423  -28.3375 H   0  0  0  0  0  0  0  0  0  0  0  0
   -3.5548   23.3945  -29.0630 H   0  0  0  0  0  0  0  0  0  0  0  0
  1  2  2  0
  2  3  1  0
  3  4  1  0
  4  5  1  0
  5  6  2  0
  6  7  1  0
  7  8  2  0
  8  9  1  0
  8 10  1  0
 10 11  2  0
  4 12  1  0
 12 13  2  0
 13 14  1  0
 14 15  1  0
 15 16  1  0
 16 17  1  0
 17 18  1  0
 18 19  1  0
 13  2  1  0
 11  5  1  0
  3 20  1  0
  6 21  1  0
  7 22  1  0
 10 23  1  0
 11 24  1  0
 12 25  1  0
 14 26  1  0
 14 27  1  0
 15 28  1  0
 15 29  1  0
 16 30  1  0
 17 31  1  0
 17 32  1  0
 18 33  1  0
 18 34  1  0
M  END
>  <UniqueID>  (32) 
31

>  <SMILES>  (32) 
O=c1[nH]n(-c2ccc(Cl)cc2)cc1CCNCCF

>  <Energy>  (32) 
64.65779959231583

>  <Genealogy>  (32) 
O=c1[nH]n(-c2ccc(Cl)cc2)cc1CCNCCF (3D coordinates assigned)
O=c1[nH]n(-c2ccc(Cl)cc2)cc1CCNCCF (optimized conformer: 64.65779959231583 kcal/mol)

>  <smiles>  (32) 
O=c1[nH]n(-c2ccc(Cl)cc2)cc1CCNCCF

>  <score_type>  (32) 
oracle

>  <origin>  (32) 
adg

>  <m_score__min__energy>  (32) 
-7.2699999999999996

>  <m_primary>  (32) 
energy

$$$$
32:0
     RDKit          3D

 47 48  0  0  0  0  0  0  0  0999 V2000
   -8.7340   20.4420  -31.2410 C   0  0  0  0  0  0  0  0  0  0  0  0
   -7.7100   20.5140  -32.0980 C   0  0  0  0  0  0  0  0  0  0  0  0
   -7.2440   21.8670  -32.5800 C   0  0  0  0  0  0  0  0  0  0  0  0
   -7.2880   23.0850  -31.2220 S   0  0  0  0  0  0  0  0  0  0  0  0
   -5.6250   22.7260  -30.7000 N   0  0  0  0  0  0  0  0  0  0  0  0
   -5.3560   23.5330  -29.4940 C   0  0  0  0  0  0  0  0  0  0  0  0
   -3.8570   23.6150  -29.1820 C   0  0  0  0  0  0  0  0  0  0  0  0
   -3.2690   24.8760  -29.7310 C   0  0  0  0  0  0  0  0  0  0  0  0
   -3.8880   25.5370  -30.6050 O   0  0  0  0  0  0  0  0  0  0  0  0
   -2.0130   25.2970  -29.3100 O   0  0  0  0  0  0  0  0  0  0  0  0
   -4.7030   23.0330  -31.8140 C   0  0  0  0  0  0  0  0  0  0  0  0
   -3.8830   21.8190  -32.1690 C   0  0  0  0  0  0  0  0  0  0  0  0
   -3.1120   21.1820  -31.1850 C   0  0  0  0  0  0  0  0  0  0  0  0
   -2.3290   20.0710  -31.5070 C   0  0  0  0  0  0  0  0  0  0  0  0
   -2.3230   19.5660  -32.8210 C   0  0  0  0  0  0  0  0  0  0  0  0
   -1.5490   18.4590  -33.1980 O   0  0  0  0  0  0  0  0  0  0  0  0
   -2.0260   17.3790  -33.9960 C   0  0  0  0  0  0  0  0  0  0  0  0
   -3.1170   20.1840  -33.7940 C   0  0  0  0  0  0  0  0  0  0  0  0
   -3.8980   21.2980  -33.4710 C   0  0  0  0  0  0  0  0  0  0  0  0
   -6.9930   19.2830  -32.5170 C   0  0  0  0  0  0  0  0  0  0  0  0
   -6.4830   19.1620  -33.8220 C   0  0  0  0  0  0  0  0  0  0  0  0
   -5.7690   18.0220  -34.2010 C   0  0  0  0  0  0  0  0  0  0  0  0
   -5.5650   16.9870  -33.2850 C   0  0  0  0  0  0  0  0  0  0  0  0
   -6.0850   17.0860  -31.9920 C   0  0  0  0  0  0  0  0  0  0  0  0
   -6.7990   18.2240  -31.6090 C   0  0  0  0  0  0  0  0  0  0  0  0
   -9.0831   19.4625  -30.8823 H   0  0  0  0  0  0  0  0  0  0  0  0
   -9.2272   21.3623  -30.8948 H   0  0  0  0  0  0  0  0  0  0  0  0
   -6.2135   21.7815  -32.9553 H   0  0  0  0  0  0  0  0  0  0  0  0
   -7.9151   22.2072  -33.3824 H   0  0  0  0  0  0  0  0  0  0  0  0
   -5.7419   24.5506  -29.6539 H   0  0  0  0  0  0  0  0  0  0  0  0
   -5.8550   23.0483  -28.6419 H   0  0  0  0  0  0  0  0  0  0  0  0
   -3.7139   23.5951  -28.0915 H   0  0  0  0  0  0  0  0  0  0  0  0
   -3.3518   22.7572  -29.6499 H   0  0  0  0  0  0  0  0  0  0  0  0
   -5.2873   23.3449  -32.6923 H   0  0  0  0  0  0  0  0  0  0  0  0
   -4.0256   23.8420  -31.5031 H   0  0  0  0  0  0  0  0  0  0  0  0
   -3.1242   21.5603  -30.1522 H   0  0  0  0  0  0  0  0  0  0  0  0
   -1.7153   19.5893  -30.7316 H   0  0  0  0  0  0  0  0  0  0  0  0
   -2.3834   16.5699  -33.3421 H   0  0  0  0  0  0  0  0  0  0  0  0
   -2.8530   17.7296  -34.6309 H   0  0  0  0  0  0  0  0  0  0  0  0
   -1.2098   17.0039  -34.6309 H   0  0  0  0  0  0  0  0  0  0  0  0
   -3.1267   19.7902  -34.8210 H   0  0  0  0  0  0  0  0  0  0  0  0
   -4.5269   21.7678  -34.2415 H   0  0  0  0  0  0  0  0  0  0  0  0
   -6.6473   19.9704  -34.5496 H   0  0  0  0  0  0  0  0  0  0  0  0
   -5.3672   17.9395  -35.2217 H   0  0  0  0  0  0  0  0  0  0  0  0
   -4.9950   16.0942  -33.5818 H   0  0  0  0  0  0  0  0  0  0  0  0
   -5.9319   16.2665  -31.2744 H   0  0  0  0  0  0  0  0  0  0  0  0
   -7.2123   18.2934  -30.5919 H   0  0  0  0  0  0  0  0  0  0  0  0
  1  2  2  0
  2  3  1  0
  3  4  1  0
  4  5  1  0
  5  6  1  0
  6  7  1  0
  7  8  1  0
  8  9  2  0
  8 10  1  0
  5 11  1  0
 11 12  1  0
 12 13  2  0
 13 14  1  0
 14 15  2  0
 15 16  1  0
 16 17  1  0
 15 18  1  0
 18 19  2  0
  2 20  1  0
 20 21  2  0
 21 22  1  0
 22 23  2  0
 23 24  1  0
 24 25  2  0
 19 12  1  0
 25 20  1  0
  1 26  1  0
  1 27  1  0
  3 28  1  0
  3 29  1  0
  6 30  1  0
  6 31  1  0
  7 32  1  0
  7 33  1  0
 11 34  1  0
 11 35  1  0
 13 36  1  0
 14 37  1  0
 17 38  1  0
 17 39  1  0
 17 40  1  0
 18 41  1  0
 19 42  1  0
 21 43  1  0
 22 44  1  0
 23 45  1  0
 24 46  1  0
 25 47  1  0
M  CHG  1  10  -1
M  END
>  <UniqueID>  (33) 
32

>  <SMILES>  (33) 
C=C(CSN(CCC(=O)[O-])Cc1ccc(OC)cc1)c1ccccc1

>  <Energy>  (33) 
39.81855054403579

>  <Genealogy>  (33) 
C=C(CSN(CCC(=O)[O-])Cc1ccc(OC)cc1)c1ccccc1 (protonated)
C=C(CSN(CCC(=O)[O-])Cc1ccc(OC)cc1)c1ccccc1 (3D coordinates assigned)
C=C(CSN(CCC(=O)[O-])Cc1ccc(OC)cc1)c1ccccc1 (optimized conformer: 39.81855054403579 kcal/mol)

>  <smiles>  (33) 
C=C(CSN(CCC(=O)O)Cc1ccc(OC)cc1)c1ccccc1

>  <score_type>  (33) 
oracle

>  <origin>  (33) 
adg

>  <m_score__min__energy>  (33) 
-10.51

>  <m_primary>  (33) 
energy

$$$$
33:0
     RDKit          3D

 49 52  0  0  0  0  0  0  0  0999 V2000
   -5.0130   18.6490  -32.3160 C   0  0  0  0  0  0  0  0  0  0  0  0
   -5.5070   19.7700  -31.5910 O   0  0  0  0  0  0  0  0  0  0  0  0
   -6.7880   20.3280  -31.7510 C   0  0  0  0  0  0  0  0  0  0  0  0
   -7.8730   19.5590  -32.2190 C   0  0  0  0  0  0  0  0  0  0  0  0
   -9.1320   20.1430  -32.3940 C   0  0  0  0  0  0  0  0  0  0  0  0
  -10.1660   19.3970  -32.8540 F   0  0  0  0  0  0  0  0  0  0  0  0
   -9.3250   21.4940  -32.0980 C   0  0  0  0  0  0  0  0  0  0  0  0
   -8.2620   22.2650  -31.6250 C   0  0  0  0  0  0  0  0  0  0  0  0
   -6.9870   21.6950  -31.4490 C   0  0  0  0  0  0  0  0  0  0  0  0
   -5.8710   22.5340  -30.9420 C   0  0  0  0  0  0  0  0  0  0  0  0
   -6.0370   23.2680  -29.7540 C   0  0  0  0  0  0  0  0  0  0  0  0
   -4.9940   24.0410  -29.2460 C   0  0  0  0  0  0  0  0  0  0  0  0
   -3.7690   24.1140  -29.9250 C   0  0  0  0  0  0  0  0  0  0  0  0
   -2.6670   24.8840  -29.4250 N   0  0  0  0  0  0  0  0  0  0  0  0
   -1.3590   24.2550  -28.4760 S   0  0  0  0  0  0  0  0  0  0  0  0
   -0.1100   24.2370  -29.3050 O   0  0  0  0  0  0  0  0  0  0  0  0
   -1.6830   22.8470  -28.0740 O   0  0  0  0  0  0  0  0  0  0  0  0
   -1.0950   25.2580  -27.0460 C   0  0  0  0  0  0  0  0  0  0  0  0
   -2.1870   25.6070  -26.2360 C   0  0  0  0  0  0  0  0  0  0  0  0
   -2.0090   26.4150  -25.1090 C   0  0  0  0  0  0  0  0  0  0  0  0
   -0.7380   26.8830  -24.7730 C   0  0  0  0  0  0  0  0  0  0  0  0
    0.3680   26.5400  -25.5650 C   0  0  0  0  0  0  0  0  0  0  0  0
    1.6550   26.9950  -25.2450 C   0  0  0  0  0  0  0  0  0  0  0  0
    2.7410   26.6370  -26.0490 C   0  0  0  0  0  0  0  0  0  0  0  0
    2.5290   25.8250  -27.1670 C   0  0  0  0  0  0  0  0  0  0  0  0
    1.2740   25.3910  -27.4710 N   0  0  0  0  0  0  0  0  0  0  0  0
    0.1920   25.7210  -26.7090 C   0  0  0  0  0  0  0  0  0  0  0  0
   -3.6070   23.4120  -31.1230 C   0  0  0  0  0  0  0  0  0  0  0  0
   -4.6410   22.5990  -31.6310 C   0  0  0  0  0  0  0  0  0  0  0  0
   -4.4680   21.8270  -32.7910 O   0  0  0  0  0  0  0  0  0  0  0  0
   -3.2130   21.3450  -33.2670 C   0  0  0  0  0  0  0  0  0  0  0  0
   -4.6728   17.8769  -31.6102 H   0  0  0  0  0  0  0  0  0  0  0  0
   -5.8141   18.2397  -32.9490 H   0  0  0  0  0  0  0  0  0  0  0  0
   -4.1704   18.9641  -32.9490 H   0  0  0  0  0  0  0  0  0  0  0  0
   -7.7286   18.4928  -32.4480 H   0  0  0  0  0  0  0  0  0  0  0  0
  -10.3158   21.9510  -32.2377 H   0  0  0  0  0  0  0  0  0  0  0  0
   -8.4220   23.3271  -31.3877 H   0  0  0  0  0  0  0  0  0  0  0  0
   -6.9985   23.2319  -29.2208 H   0  0  0  0  0  0  0  0  0  0  0  0
   -5.1326   24.5970  -28.3070 H   0  0  0  0  0  0  0  0  0  0  0  0
   -3.1927   25.2412  -26.4905 H   0  0  0  0  0  0  0  0  0  0  0  0
   -2.8742   26.6829  -24.4847 H   0  0  0  0  0  0  0  0  0  0  0  0
   -0.6033   27.5209  -23.8870 H   0  0  0  0  0  0  0  0  0  0  0  0
    1.8099   27.6329  -24.3623 H   0  0  0  0  0  0  0  0  0  0  0  0
    3.7533   26.9910  -25.8042 H   0  0  0  0  0  0  0  0  0  0  0  0
    3.3783   25.5356  -27.8033 H   0  0  0  0  0  0  0  0  0  0  0  0
   -2.6602   23.4950  -31.6768 H   0  0  0  0  0  0  0  0  0  0  0  0
   -2.5672   21.0970  -32.4118 H   0  0  0  0  0  0  0  0  0  0  0  0
   -3.3739   20.4447  -33.8782 H   0  0  0  0  0  0  0  0  0  0  0  0
   -2.7299   22.1216  -33.8782 H   0  0  0  0  0  0  0  0  0  0  0  0
  1  2  1  0
  2  3  1  0
  3  4  2  0
  4  5  1  0
  5  6  1  0
  5  7  2  0
  7  8  1  0
  8  9  2  0
  9 10  1  0
 10 11  2  0
 11 12  1  0
 12 13  2  0
 13 14  1  0
 14 15  1  0
 15 16  2  0
 15 17  2  0
 15 18  1  0
 18 19  2  0
 19 20  1  0
 20 21  2  0
 21 22  1  0
 22 23  2  0
 23 24  1  0
 24 25  2  0
 25 26  1  0
 26 27  2  0
 13 28  1  0
 28 29  2  0
 29 30  1  0
 30 31  1  0
  9  3  1  0
 29 10  1  0
 27 18  1  0
 27 22  1  0
  1 32  1  0
  1 33  1  0
  1 34  1  0
  4 35  1  0
  7 36  1  0
  8 37  1  0
 11 38  1  0
 12 39  1  0
 19 40  1  0
 20 41  1  0
 21 42  1  0
 23 43  1  0
 24 44  1  0
 25 45  1  0
 28 46  1  0
 31 47  1  0
 31 48  1  0
 31 49  1  0
M  CHG  1  14  -1
M  END
>  <UniqueID>  (34) 
33

>  <SMILES>  (34) 
COc1cc(F)ccc1-c1ccc([N-]S(=O)(=O)c2cccc3cccnc23)cc1OC

>  <Energy>  (34) 
67.40659253584748

>  <Genealogy>  (34) 
COc1cc(F)ccc1-c1ccc([N-]S(=O)(=O)c2cccc3cccnc23)cc1OC (protonated)
COc1cc(F)ccc1-c1ccc([N-]S(=O)(=O)c2cccc3cccnc23)cc1OC (3D coordinates assigned)
COc1cc(F)ccc1-c1ccc([N-]S(=O)(=O)c2cccc3cccnc23)cc1OC (optimized conformer: 67.40659253584748 kcal/mol)

>  <smiles>  (34) 
COc1cc(F)ccc1-c1ccc(NS(=O)(=O)c2cccc3cccnc23)cc1OC

>  <score_type>  (34) 
oracle

>  <origin>  (34) 
adg

>  <m_score__min__energy>  (34) 
-10.220000000000001

>  <m_primary>  (34) 
energy

$$$$
34:0
     RDKit          3D

 36 38  0  0  0  0  0  0  0  0999 V2000
    0.5660   25.1960  -25.3480 C   0  0  0  0  0  0  0  0  0  0  0  0
   -0.0250   24.8260  -26.6390 N   0  0  0  0  0  0  0  0  0  0  0  0
    0.8170   24.6490  -27.7890 C   0  0  0  0  0  0  0  0  0  0  0  0
    2.0230   25.0130  -27.7760 O   0  0  0  0  0  0  0  0  0  0  0  0
    0.2650   24.0880  -28.9770 N   0  0  0  0  0  0  0  0  0  0  0  0
   -1.0350   23.4320  -28.9530 C   0  0  0  0  0  0  0  0  0  0  0  0
   -1.9830   24.1250  -27.9950 C   0  0  0  0  0  0  0  0  0  0  0  0
   -3.3860   24.0340  -28.1650 C   0  0  0  0  0  0  0  0  0  0  0  0
   -3.9620   23.3900  -29.3100 N   0  0  0  0  0  0  0  0  0  0  0  0
   -4.1380   24.0790  -30.5570 C   0  0  0  0  0  0  0  0  0  0  0  0
   -3.8820   25.3100  -30.6390 O   0  0  0  0  0  0  0  0  0  0  0  0
   -4.6650   23.4020  -31.7030 N   0  0  0  0  0  0  0  0  0  0  0  0
   -5.9020   22.6780  -31.7590 C   0  0  0  0  0  0  0  0  0  0  0  0
   -5.9830   21.4010  -32.3460 C   0  0  0  0  0  0  0  0  0  0  0  0
   -7.2090   20.7320  -32.4110 C   0  0  0  0  0  0  0  0  0  0  0  0
   -8.3640   21.3360  -31.9070 C   0  0  0  0  0  0  0  0  0  0  0  0
   -9.5530   20.6860  -31.9730 F   0  0  0  0  0  0  0  0  0  0  0  0
   -8.2950   22.6140  -31.3460 C   0  0  0  0  0  0  0  0  0  0  0  0
   -7.0710   23.2870  -31.2790 C   0  0  0  0  0  0  0  0  0  0  0  0
   -7.0190   24.5300  -30.7370 F   0  0  0  0  0  0  0  0  0  0  0  0
   -4.2430   24.5500  -27.1880 C   0  0  0  0  0  0  0  0  0  0  0  0
   -3.7270   25.1770  -26.0570 C   0  0  0  0  0  0  0  0  0  0  0  0
   -2.3490   25.2770  -25.8770 C   0  0  0  0  0  0  0  0  0  0  0  0
   -1.4590   24.7370  -26.8260 C   0  0  0  0  0  0  0  0  0  0  0  0
   -0.0597   24.8042  -24.5325 H   0  0  0  0  0  0  0  0  0  0  0  0
    1.5770   24.7693  -25.2718 H   0  0  0  0  0  0  0  0  0  0  0  0
    0.6238   26.2918  -25.2718 H   0  0  0  0  0  0  0  0  0  0  0  0
   -1.4670   23.4553  -29.9644 H   0  0  0  0  0  0  0  0  0  0  0  0
   -0.8948   22.3950  -28.6139 H   0  0  0  0  0  0  0  0  0  0  0  0
   -4.4890   22.5020  -29.1550 H   0  0  0  0  0  0  0  0  0  0  0  0
   -5.0782   20.9277  -32.7551 H   0  0  0  0  0  0  0  0  0  0  0  0
   -7.2645   19.7291  -32.8594 H   0  0  0  0  0  0  0  0  0  0  0  0
   -9.2058   23.0919  -30.9561 H   0  0  0  0  0  0  0  0  0  0  0  0
   -5.3321   24.4600  -27.3138 H   0  0  0  0  0  0  0  0  0  0  0  0
   -4.4099   25.5950  -25.3027 H   0  0  0  0  0  0  0  0  0  0  0  0
   -1.9519   25.7829  -24.9846 H   0  0  0  0  0  0  0  0  0  0  0  0
  1  2  1  0
  2  3  1  0
  3  4  2  0
  3  5  1  0
  5  6  1  0
  6  7  1  0
  7  8  2  0
  8  9  1  0
  9 10  1  0
 10 11  2  0
 10 12  1  0
 12 13  1  0
 13 14  2  0
 14 15  1  0
 15 16  2  0
 16 17  1  0
 16 18  1  0
 18 19  2  0
 19 20  1  0
  8 21  1  0
 21 22  2  0
 22 23  1  0
 23 24  2  0
 24  2  1  0
 24  7  1  0
 19 13  1  0
  1 25  1  0
  1 26  1  0
  1 27  1  0
  6 28  1  0
  6 29  1  0
  9 30  1  0
 14 31  1  0
 15 32  1  0
 18 33  1  0
 21 34  1  0
 22 35  1  0
 23 36  1  0
M  CHG  2   5  -1  12  -1
M  END
>  <UniqueID>  (35) 
34

>  <SMILES>  (35) 
CN1C(=O)[N-]Cc2c(NC(=O)[N-]c3ccc(F)cc3F)cccc21

>  <Energy>  (35) 
53.33320342491422

>  <Genealogy>  (35) 
CN1C(=O)[N-]Cc2c(NC(=O)[N-]c3ccc(F)cc3F)cccc21 (protonated)
CN1C(=O)[N-]Cc2c(NC(=O)[N-]c3ccc(F)cc3F)cccc21 (3D coordinates assigned)
CN1C(=O)[N-]Cc2c(NC(=O)[N-]c3ccc(F)cc3F)cccc21 (nonaromatic ring conformer: 53.33320342491422 kcal/mol)

>  <smiles>  (35) 
CN1C(=O)NCc2c(NC(=O)Nc3ccc(F)cc3F)cccc21

>  <score_type>  (35) 
oracle

>  <origin>  (35) 
adg

>  <m_score__min__energy>  (35) 
-9.4800000000000004

>  <m_primary>  (35) 
energy

$$$$
35:0
     RDKit          3D

 72 75  0  0  0  0  0  0  0  0999 V2000
   -6.8710   16.7270  -33.3780 C   0  0  0  0  0  0  0  0  0  0  0  0
   -6.0980   17.2540  -34.5880 C   0  0  0  0  0  0  0  0  0  0  0  0
   -4.9630   18.2190  -34.2150 C   0  0  0  0  0  0  0  0  0  0  0  0
   -4.8270   18.4110  -32.6920 C   0  0  0  0  0  0  0  0  0  0  0  0
   -5.0580   19.8220  -32.3000 N   0  0  0  0  0  0  0  0  0  0  0  0
   -6.4130   20.0020  -31.7070 C   0  0  0  0  0  0  0  0  0  0  0  0
   -7.4310   20.4510  -32.7690 C   0  0  0  0  0  0  0  0  0  0  0  0
   -8.8770   20.0200  -32.4610 C   0  0  0  0  0  0  0  0  0  0  0  0
   -8.9410   18.7580  -31.6040 C   0  0  0  0  0  0  0  0  0  0  0  0
   -4.8550   20.7130  -33.4730 C   0  0  0  0  0  0  0  0  0  0  0  0
   -3.8800   21.8680  -33.1740 C   0  0  0  0  0  0  0  0  0  0  0  0
   -2.5170   21.3840  -32.6340 C   0  0  0  0  0  0  0  0  0  0  0  0
   -2.6830   20.2690  -31.6900 N   0  0  0  0  0  0  0  0  0  0  0  0
   -1.4310   19.9920  -31.0250 C   0  0  0  0  0  0  0  0  0  0  0  0
   -0.4340   19.2610  -31.6980 C   0  0  0  0  0  0  0  0  0  0  0  0
    0.7960   19.0050  -31.0880 C   0  0  0  0  0  0  0  0  0  0  0  0
    1.0500   19.4740  -29.7980 C   0  0  0  0  0  0  0  0  0  0  0  0
    0.0790   20.2170  -29.1230 C   0  0  0  0  0  0  0  0  0  0  0  0
   -1.1510   20.5100  -29.7400 C   0  0  0  0  0  0  0  0  0  0  0  0
   -2.1510   21.2480  -29.0220 N   0  0  0  0  0  0  0  0  0  0  0  0
   -2.4270   22.5300  -29.0340 C   0  0  0  0  0  0  0  0  0  0  0  0
   -1.4870   23.4020  -28.4330 C   0  0  0  0  0  0  0  0  0  0  0  0
   -0.4010   22.9210  -27.6680 C   0  0  0  0  0  0  0  0  0  0  0  0
    0.5340   23.8060  -27.1240 C   0  0  0  0  0  0  0  0  0  0  0  0
    0.4130   25.1780  -27.3460 C   0  0  0  0  0  0  0  0  0  0  0  0
   -0.6510   25.6720  -28.1030 C   0  0  0  0  0  0  0  0  0  0  0  0
   -1.6040   24.7970  -28.6350 C   0  0  0  0  0  0  0  0  0  0  0  0
   -2.6400   25.2970  -29.3490 N   0  0  0  0  0  0  0  0  0  0  0  0
   -3.6200   24.5080  -29.8540 C   0  0  0  0  0  0  0  0  0  0  0  0
   -4.6950   25.1100  -30.5210 C   0  0  0  0  0  0  0  0  0  0  0  0
   -5.7730   24.3400  -30.9520 C   0  0  0  0  0  0  0  0  0  0  0  0
   -5.8000   22.9730  -30.6880 C   0  0  0  0  0  0  0  0  0  0  0  0
   -4.7290   22.3610  -30.0300 C   0  0  0  0  0  0  0  0  0  0  0  0
   -3.5780   23.1010  -29.6670 C   0  0  0  0  0  0  0  0  0  0  0  0
   -6.3784   17.0628  -32.4536 H   0  0  0  0  0  0  0  0  0  0  0  0
   -7.9012   17.1117  -33.4051 H   0  0  0  0  0  0  0  0  0  0  0  0
   -6.8893   15.6275  -33.4051 H   0  0  0  0  0  0  0  0  0  0  0  0
   -5.6647   16.3972  -35.1248 H   0  0  0  0  0  0  0  0  0  0  0  0
   -6.8112   17.8166  -35.2084 H   0  0  0  0  0  0  0  0  0  0  0  0
   -4.0163   17.8177  -34.6057 H   0  0  0  0  0  0  0  0  0  0  0  0
   -5.1997   19.1989  -34.6552 H   0  0  0  0  0  0  0  0  0  0  0  0
   -5.5654   17.7733  -32.1839 H   0  0  0  0  0  0  0  0  0  0  0  0
   -3.8035   18.1343  -32.3991 H   0  0  0  0  0  0  0  0  0  0  0  0
   -6.7446   19.0469  -31.2736 H   0  0  0  0  0  0  0  0  0  0  0  0
   -6.3529   20.7802  -30.9319 H   0  0  0  0  0  0  0  0  0  0  0  0
   -7.4024   21.5486  -32.8355 H   0  0  0  0  0  0  0  0  0  0  0  0
   -7.1451   19.9660  -33.7140 H   0  0  0  0  0  0  0  0  0  0  0  0
   -9.3818   20.8368  -31.9244 H   0  0  0  0  0  0  0  0  0  0  0  0
   -9.3711   19.7991  -33.4186 H   0  0  0  0  0  0  0  0  0  0  0  0
   -8.9269   19.0363  -30.5399 H   0  0  0  0  0  0  0  0  0  0  0  0
   -9.8681   18.2097  -31.8273 H   0  0  0  0  0  0  0  0  0  0  0  0
   -8.0741   18.1188  -31.8273 H   0  0  0  0  0  0  0  0  0  0  0  0
   -4.4508   20.1161  -34.3038 H   0  0  0  0  0  0  0  0  0  0  0  0
   -5.8289   21.1553  -33.7297 H   0  0  0  0  0  0  0  0  0  0  0  0
   -3.7087   22.4312  -34.1032 H   0  0  0  0  0  0  0  0  0  0  0  0
   -4.3396   22.4922  -32.3936 H   0  0  0  0  0  0  0  0  0  0  0  0
   -1.8953   21.0499  -33.4777 H   0  0  0  0  0  0  0  0  0  0  0  0
   -2.0364   22.2196  -32.1041 H   0  0  0  0  0  0  0  0  0  0  0  0
   -2.9920   19.4120  -32.2070 H   0  0  0  0  0  0  0  0  0  0  0  0
   -3.4280   20.4970  -30.9920 H   0  0  0  0  0  0  0  0  0  0  0  0
   -0.6256   18.8876  -32.7148 H   0  0  0  0  0  0  0  0  0  0  0  0
    1.5664   18.4325  -31.6253 H   0  0  0  0  0  0  0  0  0  0  0  0
    2.0139   19.2586  -29.3137 H   0  0  0  0  0  0  0  0  0  0  0  0
    0.2772   20.5755  -28.1021 H   0  0  0  0  0  0  0  0  0  0  0  0
   -0.2903   21.8397  -27.4989 H   0  0  0  0  0  0  0  0  0  0  0  0
    1.3676   23.4197  -26.5191 H   0  0  0  0  0  0  0  0  0  0  0  0
    1.1562   25.8708  -26.9245 H   0  0  0  0  0  0  0  0  0  0  0  0
   -0.7403   26.7537  -28.2818 H   0  0  0  0  0  0  0  0  0  0  0  0
   -4.6878   26.1945  -30.7050 H   0  0  0  0  0  0  0  0  0  0  0  0
   -6.6020   24.8113  -31.5003 H   0  0  0  0  0  0  0  0  0  0  0  0
   -6.6676   22.3722  -30.9985 H   0  0  0  0  0  0  0  0  0  0  0  0
   -4.7814   21.2886  -29.7908 H   0  0  0  0  0  0  0  0  0  0  0  0
  1  2  1  0
  2  3  1  0
  3  4  1  0
  4  5  1  0
  5  6  1  0
  6  7  1  0
  7  8  1  0
  8  9  1  0
  5 10  1  0
 10 11  1  0
 11 12  1  0
 12 13  1  0
 13 14  1  0
 14 15  2  0
 15 16  1  0
 16 17  2  0
 17 18  1  0
 18 19  2  0
 19 20  1  0
 20 21  2  3
 21 22  1  0
 22 23  2  0
 23 24  1  0
 24 25  2  0
 25 26  1  0
 26 27  2  0
 27 28  1  0
 28 29  1  0
 29 30  2  0
 30 31  1  0
 31 32  2  0
 32 33  1  0
 33 34  2  0
 19 14  1  0
 34 21  1  0
 27 22  1  0
 34 29  1  0
  1 35  1  0
  1 36  1  0
  1 37  1  0
  2 38  1  0
  2 39  1  0
  3 40  1  0
  3 41  1  0
  4 42  1  0
  4 43  1  0
  6 44  1  0
  6 45  1  0
  7 46  1  0
  7 47  1  0
  8 48  1  0
  8 49  1  0
  9 50  1  0
  9 51  1  0
  9 52  1  0
 10 53  1  0
 10 54  1  0
 11 55  1  0
 11 56  1  0
 12 57  1  0
 12 58  1  0
 13 59  1  0
 13 60  1  0
 15 61  1  0
 16 62  1  0
 17 63  1  0
 18 64  1  0
 23 65  1  0
 24 66  1  0
 25 67  1  0
 26 68  1  0
 30 69  1  0
 31 70  1  0
 32 71  1  0
 33 72  1  0
M  CHG  2  13   1  28  -1
M  END
>  <UniqueID>  (36) 
35

>  <SMILES>  (36) 
CCCCN(CCCC)CCC[NH2+]c1ccccc1N=c1c2ccccc2[n-]c2ccccc12

>  <Energy>  (36) 
90.8373871691326

>  <Genealogy>  (36) 
CCCCN(CCCC)CCC[NH2+]c1ccccc1N=c1c2ccccc2[n-]c2ccccc12 (protonated)
CCCCN(CCCC)CCC[NH2+]c1ccccc1N=c1c2ccccc2[n-]c2ccccc12 (3D coordinates assigned)
CCCCN(CCCC)CCC[NH2+]c1ccccc1N=c1c2ccccc2[n-]c2ccccc12 (optimized conformer: 90.8373871691326 kcal/mol)

>  <smiles>  (36) 
CCCCN(CCCC)CCCNc1ccccc1N=c1c2ccccc2[nH]c2ccccc12

>  <score_type>  (36) 
oracle

>  <origin>  (36) 
adg

>  <m_score__min__energy>  (36) 
-10.949999999999999

>  <m_primary>  (36) 
energy

$$$$
36:0
     RDKit          3D

 47 49  0  0  0  0  0  0  0  0999 V2000
    1.2030   23.7800  -27.0720 C   0  0  0  0  0  0  0  0  0  0  0  0
    0.5970   24.1730  -28.2990 O   0  0  0  0  0  0  0  0  0  0  0  0
   -0.6600   23.7310  -28.7420 C   0  0  0  0  0  0  0  0  0  0  0  0
   -0.9670   22.3670  -28.8740 C   0  0  0  0  0  0  0  0  0  0  0  0
   -2.2320   21.9650  -29.2970 C   0  0  0  0  0  0  0  0  0  0  0  0
   -3.2320   22.9110  -29.5820 C   0  0  0  0  0  0  0  0  0  0  0  0
   -4.5680   22.3860  -30.0730 C   0  0  0  0  0  0  0  0  0  0  0  0
   -5.8300   23.2700  -29.8490 C   0  0  1  0  0  0  0  0  0  0  0  0
   -5.5410   24.7160  -30.2850 C   0  0  0  0  0  0  0  0  0  0  0  0
   -6.0460   24.9390  -31.5860 O   0  0  0  0  0  0  0  0  0  0  0  0
   -6.7290   23.7740  -31.9800 C   0  0  0  0  0  0  0  0  0  0  0  0
   -7.0340   22.9650  -30.7310 C   0  0  1  0  0  0  0  0  0  0  0  0
   -7.5120   21.4950  -30.9170 C   0  0  0  0  0  0  0  0  0  0  0  0
   -6.6940   20.5930  -31.8190 C   0  0  0  0  0  0  0  0  0  0  0  0
   -5.6400   21.1140  -32.5900 C   0  0  0  0  0  0  0  0  0  0  0  0
   -4.9200   20.2890  -33.4580 C   0  0  0  0  0  0  0  0  0  0  0  0
   -5.2700   18.9430  -33.6050 C   0  0  0  0  0  0  0  0  0  0  0  0
   -4.3400   17.9350  -34.7050 Cl  0  0  0  0  0  0  0  0  0  0  0  0
   -6.3710   18.4310  -32.9010 C   0  0  0  0  0  0  0  0  0  0  0  0
   -6.8890   16.7630  -33.1040 Cl  0  0  0  0  0  0  0  0  0  0  0  0
   -7.0890   19.2620  -32.0340 C   0  0  0  0  0  0  0  0  0  0  0  0
   -2.9060   24.2800  -29.4980 C   0  0  0  0  0  0  0  0  0  0  0  0
   -1.6310   24.6910  -29.0610 C   0  0  0  0  0  0  0  0  0  0  0  0
   -1.2900   26.0480  -28.9290 O   0  0  0  0  0  0  0  0  0  0  0  0
   -0.8410   26.6560  -27.7220 C   0  0  0  0  0  0  0  0  0  0  0  0
    0.6092   24.1651  -26.2299 H   0  0  0  0  0  0  0  0  0  0  0  0
    1.2453   22.6821  -27.0191 H   0  0  0  0  0  0  0  0  0  0  0  0
    2.2227   24.1892  -27.0191 H   0  0  0  0  0  0  0  0  0  0  0  0
   -0.2030   21.6105  -28.6417 H   0  0  0  0  0  0  0  0  0  0  0  0
   -2.4513   20.8930  -29.4095 H   0  0  0  0  0  0  0  0  0  0  0  0
   -4.4749   22.2179  -31.1561 H   0  0  0  0  0  0  0  0  0  0  0  0
   -4.7504   21.4888  -29.4633 H   0  0  0  0  0  0  0  0  0  0  0  0
   -6.0497   23.0880  -28.7866 H   0  0  0  0  0  0  0  0  0  0  0  0
   -6.0238   25.4115  -29.5827 H   0  0  0  0  0  0  0  0  0  0  0  0
   -4.4536   24.8820  -30.2865 H   0  0  0  0  0  0  0  0  0  0  0  0
   -7.6664   24.0444  -32.4880 H   0  0  0  0  0  0  0  0  0  0  0  0
   -6.1125   23.1859  -32.6757 H   0  0  0  0  0  0  0  0  0  0  0  0
   -7.9716   23.2547  -30.2339 H   0  0  0  0  0  0  0  0  0  0  0  0
   -7.5344   21.0291  -29.9208 H   0  0  0  0  0  0  0  0  0  0  0  0
   -8.4848   21.5828  -31.4230 H   0  0  0  0  0  0  0  0  0  0  0  0
   -5.3801   22.1798  -32.5092 H   0  0  0  0  0  0  0  0  0  0  0  0
   -4.0740   20.7001  -34.0283 H   0  0  0  0  0  0  0  0  0  0  0  0
   -7.9745   18.8679  -31.5138 H   0  0  0  0  0  0  0  0  0  0  0  0
   -3.6552   25.0357  -29.7767 H   0  0  0  0  0  0  0  0  0  0  0  0
   -1.2476   26.1055  -26.8608 H   0  0  0  0  0  0  0  0  0  0  0  0
    0.2582   26.6325  -27.6864 H   0  0  0  0  0  0  0  0  0  0  0  0
   -1.1868   27.6996  -27.6864 H   0  0  0  0  0  0  0  0  0  0  0  0
  1  2  1  0
  2  3  1  0
  3  4  2  0
  4  5  1  0
  5  6  2  0
  6  7  1  0
  7  8  1  0
  8  9  1  0
  9 10  1  0
 10 11  1  0
 11 12  1  0
 12 13  1  0
 13 14  1  0
 14 15  2  0
 15 16  1  0
 16 17  2  0
 17 18  1  0
 17 19  1  0
 19 20  1  0
 19 21  2  0
  6 22  1  0
 22 23  2  0
 23 24  1  0
 24 25  1  0
 23  3  1  0
 12  8  1  0
 21 14  1  0
  1 26  1  0
  1 27  1  0
  1 28  1  0
  4 29  1  0
  5 30  1  0
  7 31  1  0
  7 32  1  0
  8 33  1  1
  9 34  1  0
  9 35  1  0
 11 36  1  0
 11 37  1  0
 12 38  1  1
 13 39  1  0
 13 40  1  0
 15 41  1  0
 16 42  1  0
 21 43  1  0
 22 44  1  0
 25 45  1  0
 25 46  1  0
 25 47  1  0
M  END
>  <UniqueID>  (37) 
36

>  <SMILES>  (37) 
COc1ccc(C[C@H]2COC[C@H]2Cc2ccc(Cl)c(Cl)c2)cc1OC

>  <Energy>  (37) 
61.624589766811326

>  <Genealogy>  (37) 
COc1ccc(C[C@H]2COC[C@H]2Cc2ccc(Cl)c(Cl)c2)cc1OC (chirality)
COc1ccc(C[C@H]2COC[C@H]2Cc2ccc(Cl)c(Cl)c2)cc1OC (3D coordinates assigned)
COc1ccc(C[C@H]2COC[C@H]2Cc2ccc(Cl)c(Cl)c2)cc1OC (nonaromatic ring conformer: 61.624589766811326 kcal/mol)

>  <smiles>  (37) 
COc1ccc(CC2COCC2Cc2ccc(Cl)c(Cl)c2)cc1OC

>  <score_type>  (37) 
oracle

>  <origin>  (37) 
adg

>  <m_score__min__energy>  (37) 
-9.7300000000000004

>  <m_primary>  (37) 
energy

$$$$
37:0
     RDKit          3D

 27 27  0  0  0  0  0  0  0  0999 V2000
   -8.8650   22.2820  -31.6090 C   0  0  0  0  0  0  0  0  0  0  0  0
   -7.8980   23.4250  -31.9230 C   0  0  0  0  0  0  0  0  0  0  0  0
   -6.7180   23.5230  -30.9120 C   0  0  2  0  0  0  0  0  0  0  0  0
   -6.9000   24.7810  -30.0410 C   0  0  0  0  0  0  0  0  0  0  0  0
   -5.3370   23.5490  -31.6340 C   0  0  1  0  0  0  0  0  0  0  0  0
   -4.2430   24.0640  -30.7320 C   0  0  0  0  0  0  0  0  0  0  0  0
   -3.8600   25.2190  -30.8220 O   0  0  0  0  0  0  0  0  0  0  0  0
   -4.9620   22.2160  -32.1210 N   0  0  0  0  0  0  0  0  0  0  0  0
   -5.6450   21.0670  -31.9410 C   0  0  0  0  0  0  0  0  0  0  0  0
   -4.9670   20.0220  -32.5350 C   0  0  0  0  0  0  0  0  0  0  0  0
   -3.8260   20.5620  -33.0970 C   0  0  0  0  0  0  0  0  0  0  0  0
   -3.8510   21.9140  -32.8230 C   0  0  0  0  0  0  0  0  0  0  0  0
   -8.9593   22.1706  -30.5187 H   0  0  0  0  0  0  0  0  0  0  0  0
   -9.8512   22.5069  -32.0412 H   0  0  0  0  0  0  0  0  0  0  0  0
   -8.4799   21.3467  -32.0412 H   0  0  0  0  0  0  0  0  0  0  0  0
   -7.4840   23.2665  -32.9297 H   0  0  0  0  0  0  0  0  0  0  0  0
   -8.4671   24.3638  -31.8543 H   0  0  0  0  0  0  0  0  0  0  0  0
   -6.7297   22.6264  -30.2748 H   0  0  0  0  0  0  0  0  0  0  0  0
   -6.8594   24.5002  -28.9782 H   0  0  0  0  0  0  0  0  0  0  0  0
   -6.0964   25.4990  -30.2615 H   0  0  0  0  0  0  0  0  0  0  0  0
   -7.8742   25.2418  -30.2615 H   0  0  0  0  0  0  0  0  0  0  0  0
   -5.4479   24.2326  -32.4887 H   0  0  0  0  0  0  0  0  0  0  0  0
   -3.7875   23.3938  -29.9881 H   0  0  0  0  0  0  0  0  0  0  0  0
   -6.5994   20.9764  -31.4016 H   0  0  0  0  0  0  0  0  0  0  0  0
   -5.2746   18.9661  -32.5568 H   0  0  0  0  0  0  0  0  0  0  0  0
   -3.0486   20.0193  -33.6547 H   0  0  0  0  0  0  0  0  0  0  0  0
   -3.0808   22.6366  -33.1308 H   0  0  0  0  0  0  0  0  0  0  0  0
  1  2  1  0
  2  3  1  0
  3  4  1  0
  3  5  1  0
  5  6  1  0
  6  7  2  0
  5  8  1  0
  8  9  1  0
  9 10  2  0
 10 11  1  0
 11 12  2  0
 12  8  1  0
  1 13  1  0
  1 14  1  0
  1 15  1  0
  2 16  1  0
  2 17  1  0
  3 18  1  1
  4 19  1  0
  4 20  1  0
  4 21  1  0
  5 22  1  6
  6 23  1  0
  9 24  1  0
 10 25  1  0
 11 26  1  0
 12 27  1  0
M  END
>  <UniqueID>  (38) 
37

>  <SMILES>  (38) 
CC[C@H](C)[C@@H](C=O)n1cccc1

>  <Energy>  (38) 
46.45732843782144

>  <Genealogy>  (38) 
CC[C@H](C)[C@@H](C=O)n1cccc1 (chirality)
CC[C@H](C)[C@@H](C=O)n1cccc1 (3D coordinates assigned)
CC[C@H](C)[C@@H](C=O)n1cccc1 (optimized conformer: 46.45732843782144 kcal/mol)

>  <smiles>  (38) 
CCC(C)C(C=O)n1cccc1

>  <score_type>  (38) 
oracle

>  <origin>  (38) 
adg

>  <m_score__min__energy>  (38) 
-5.04

>  <m_primary>  (38) 
energy

$$$$
38:0
     RDKit          3D

 35 37  0  0  0  0  0  0  0  0999 V2000
   -7.5720   17.7570  -32.9290 C   0  0  0  0  0  0  0  0  0  0  0  0
   -8.5120   19.0390  -32.1310 S   0  0  0  0  0  0  0  0  0  0  0  0
   -9.1750   18.4850  -30.9010 O   0  0  0  0  0  0  0  0  0  0  0  0
   -9.5750   19.5410  -33.0670 O   0  0  0  0  0  0  0  0  0  0  0  0
   -7.4360   20.3600  -31.6860 C   0  0  0  0  0  0  0  0  0  0  0  0
   -6.0860   20.3240  -32.0540 C   0  0  0  0  0  0  0  0  0  0  0  0
   -5.2340   21.3780  -31.7100 C   0  0  0  0  0  0  0  0  0  0  0  0
   -5.7220   22.4820  -30.9910 C   0  0  0  0  0  0  0  0  0  0  0  0
   -4.8150   23.5960  -30.6340 C   0  0  0  0  0  0  0  0  0  0  0  0
   -4.9880   24.9260  -30.9890 C   0  0  0  0  0  0  0  0  0  0  0  0
   -4.0220   25.6530  -30.4760 O   0  0  0  0  0  0  0  0  0  0  0  0
   -3.2220   24.8630  -29.8010 C   0  0  0  0  0  0  0  0  0  0  0  0
   -2.0700   25.3010  -29.1590 O   0  0  0  0  0  0  0  0  0  0  0  0
   -3.6650   23.5550  -29.8540 C   0  0  0  0  0  0  0  0  0  0  0  0
   -2.9700   22.3690  -29.3100 C   0  0  0  0  0  0  0  0  0  0  0  0
   -3.3390   21.8510  -28.0560 C   0  0  0  0  0  0  0  0  0  0  0  0
   -2.6880   20.7300  -27.5350 C   0  0  0  0  0  0  0  0  0  0  0  0
   -1.6660   20.1150  -28.2610 C   0  0  0  0  0  0  0  0  0  0  0  0
   -1.2920   20.6200  -29.5090 C   0  0  0  0  0  0  0  0  0  0  0  0
   -1.9400   21.7430  -30.0360 C   0  0  0  0  0  0  0  0  0  0  0  0
   -1.5360   22.2350  -31.2340 F   0  0  0  0  0  0  0  0  0  0  0  0
   -7.0840   22.5240  -30.6460 C   0  0  0  0  0  0  0  0  0  0  0  0
   -7.9330   21.4680  -30.9890 C   0  0  0  0  0  0  0  0  0  0  0  0
   -7.1031   17.1175  -32.1666 H   0  0  0  0  0  0  0  0  0  0  0  0
   -8.2401   17.1493  -33.5569 H   0  0  0  0  0  0  0  0  0  0  0  0
   -6.7915   18.2114  -33.5569 H   0  0  0  0  0  0  0  0  0  0  0  0
   -5.6939   19.4634  -32.6159 H   0  0  0  0  0  0  0  0  0  0  0  0
   -4.1747   21.3426  -32.0043 H   0  0  0  0  0  0  0  0  0  0  0  0
   -5.8110   25.3135  -31.6075 H   0  0  0  0  0  0  0  0  0  0  0  0
   -4.1450   22.3312  -27.4818 H   0  0  0  0  0  0  0  0  0  0  0  0
   -2.9807   20.3316  -26.5523 H   0  0  0  0  0  0  0  0  0  0  0  0
   -1.1548   19.2320  -27.8500 H   0  0  0  0  0  0  0  0  0  0  0  0
   -0.4863   20.1338  -30.0786 H   0  0  0  0  0  0  0  0  0  0  0  0
   -7.4840   23.3930  -30.1029 H   0  0  0  0  0  0  0  0  0  0  0  0
   -8.9963   21.5076  -30.7101 H   0  0  0  0  0  0  0  0  0  0  0  0
  1  2  1  0
  2  3  2  0
  2  4  2  0
  2  5  1  0
  5  6  2  0
  6  7  1  0
  7  8  2  0
  8  9  1  0
  9 10  2  0
 10 11  1  0
 11 12  1  0
 12 13  1  0
 12 14  2  0
 14 15  1  0
 15 16  2  0
 16 17  1  0
 17 18  2  0
 18 19  1  0
 19 20  2  0
 20 21  1  0
  8 22  1  0
 22 23  2  0
 23  5  1  0
 14  9  1  0
 20 15  1  0
  1 24  1  0
  1 25  1  0
  1 26  1  0
  6 27  1  0
  7 28  1  0
 10 29  1  0
 16 30  1  0
 17 31  1  0
 18 32  1  0
 19 33  1  0
 22 34  1  0
 23 35  1  0
M  CHG  1  13  -1
M  END
>  <UniqueID>  (39) 
38

>  <SMILES>  (39) 
CS(=O)(=O)c1ccc(-c2coc([O-])c2-c2ccccc2F)cc1

>  <Energy>  (39) 
72.11388396963126

>  <Genealogy>  (39) 
CS(=O)(=O)c1ccc(-c2coc([O-])c2-c2ccccc2F)cc1 (protonated)
CS(=O)(=O)c1ccc(-c2coc([O-])c2-c2ccccc2F)cc1 (3D coordinates assigned)
CS(=O)(=O)c1ccc(-c2coc([O-])c2-c2ccccc2F)cc1 (optimized conformer: 72.11388396963126 kcal/mol)

>  <smiles>  (39) 
CS(=O)(=O)c1ccc(-c2coc(O)c2-c2ccccc2F)cc1

>  <score_type>  (39) 
oracle

>  <origin>  (39) 
adg

>  <m_score__min__energy>  (39) 
-11.039999999999999

>  <m_primary>  (39) 
energy

$$$$
39:0
     RDKit          3D

 40 41  0  0  0  0  0  0  0  0999 V2000
   -9.4860   19.3220  -32.7220 C   0  0  0  0  0  0  0  0  0  0  0  0
   -8.5530   20.3950  -32.2470 C   0  0  0  0  0  0  0  0  0  0  0  0
   -8.9740   21.3230  -31.2850 C   0  0  0  0  0  0  0  0  0  0  0  0
   -8.0940   22.3010  -30.8150 C   0  0  0  0  0  0  0  0  0  0  0  0
   -6.7670   22.3580  -31.2830 C   0  0  0  0  0  0  0  0  0  0  0  0
   -5.8490   23.4120  -30.7790 C   0  0  0  0  0  0  0  0  0  0  0  0
   -5.1820   24.0920  -31.6050 O   0  0  0  0  0  0  0  0  0  0  0  0
   -5.7320   23.6890  -29.3740 N   0  0  0  0  0  0  0  0  0  0  0  0
   -4.6890   24.5460  -28.8040 C   0  0  0  0  0  0  0  0  0  0  0  0
   -3.2750   24.1920  -29.3350 C   0  0  1  0  0  0  0  0  0  0  0  0
   -2.2530   24.9470  -28.5070 C   0  0  0  0  0  0  0  0  0  0  0  0
   -1.9440   24.7290  -27.1760 C   0  0  0  0  0  0  0  0  0  0  0  0
   -0.9920   25.6710  -26.8550 C   0  0  0  0  0  0  0  0  0  0  0  0
   -0.7820   26.4080  -28.0020 C   0  0  0  0  0  0  0  0  0  0  0  0
   -1.5480   25.9550  -28.9670 O   0  0  0  0  0  0  0  0  0  0  0  0
   -3.0220   22.7190  -29.3710 N   0  0  0  0  0  0  0  0  0  0  0  0
   -3.3890   22.0710  -28.0920 C   0  0  0  0  0  0  0  0  0  0  0  0
   -1.5890   22.4370  -29.6110 C   0  0  0  0  0  0  0  0  0  0  0  0
   -6.3480   21.4160  -32.2410 C   0  0  0  0  0  0  0  0  0  0  0  0
   -7.2310   20.4400  -32.7120 C   0  0  0  0  0  0  0  0  0  0  0  0
   -9.9298   18.8116  -31.8545 H   0  0  0  0  0  0  0  0  0  0  0  0
  -10.2841   19.7729  -33.3300 H   0  0  0  0  0  0  0  0  0  0  0  0
   -8.9286   18.5942  -33.3300 H   0  0  0  0  0  0  0  0  0  0  0  0
  -10.0028   21.2812  -30.8979 H   0  0  0  0  0  0  0  0  0  0  0  0
   -8.4412   23.0339  -30.0719 H   0  0  0  0  0  0  0  0  0  0  0  0
   -6.4850   23.3650  -28.7270 H   0  0  0  0  0  0  0  0  0  0  0  0
   -4.9114   25.5919  -29.0622 H   0  0  0  0  0  0  0  0  0  0  0  0
   -4.6862   24.3907  -27.7150 H   0  0  0  0  0  0  0  0  0  0  0  0
   -3.1919   24.5072  -30.3856 H   0  0  0  0  0  0  0  0  0  0  0  0
   -2.3702   23.9625  -26.5121 H   0  0  0  0  0  0  0  0  0  0  0  0
   -0.4990   25.8079  -25.8813 H   0  0  0  0  0  0  0  0  0  0  0  0
   -0.0786   27.2487  -28.0941 H   0  0  0  0  0  0  0  0  0  0  0  0
   -3.0382   22.6903  -27.2533 H   0  0  0  0  0  0  0  0  0  0  0  0
   -4.4823   21.9631  -28.0361 H   0  0  0  0  0  0  0  0  0  0  0  0
   -2.9192   21.0779  -28.0361 H   0  0  0  0  0  0  0  0  0  0  0  0
   -1.0690   22.3347  -28.6471 H   0  0  0  0  0  0  0  0  0  0  0  0
   -1.4899   21.5021  -30.1821 H   0  0  0  0  0  0  0  0  0  0  0  0
   -1.1431   23.2646  -30.1821 H   0  0  0  0  0  0  0  0  0  0  0  0
   -5.3168   21.4480  -32.6224 H   0  0  0  0  0  0  0  0  0  0  0  0
   -6.8865   19.7027  -33.4521 H   0  0  0  0  0  0  0  0  0  0  0  0
  1  2  1  0
  2  3  2  0
  3  4  1  0
  4  5  2  0
  5  6  1  0
  6  7  2  0
  6  8  1  0
  8  9  1  0
  9 10  1  0
 10 11  1  0
 11 12  2  0
 12 13  1  0
 13 14  2  0
 14 15  1  0
 10 16  1  0
 16 17  1  0
 16 18  1  0
  5 19  1  0
 19 20  2  0
 20  2  1  0
 15 11  1  0
  1 21  1  0
  1 22  1  0
  1 23  1  0
  3 24  1  0
  4 25  1  0
  8 26  1  0
  9 27  1  0
  9 28  1  0
 10 29  1  6
 12 30  1  0
 13 31  1  0
 14 32  1  0
 17 33  1  0
 17 34  1  0
 17 35  1  0
 18 36  1  0
 18 37  1  0
 18 38  1  0
 19 39  1  0
 20 40  1  0
M  END
>  <UniqueID>  (40) 
39

>  <SMILES>  (40) 
Cc1ccc(C(=O)NC[C@@H](c2ccco2)N(C)C)cc1

>  <Energy>  (40) 
69.92106435797041

>  <Genealogy>  (40) 
Cc1ccc(C(=O)NC[C@@H](c2ccco2)N(C)C)cc1 (chirality)
Cc1ccc(C(=O)NC[C@@H](c2ccco2)N(C)C)cc1 (3D coordinates assigned)
Cc1ccc(C(=O)NC[C@@H](c2ccco2)N(C)C)cc1 (optimized conformer: 69.92106435797041 kcal/mol)

>  <smiles>  (40) 
Cc1ccc(C(=O)NCC(c2ccco2)N(C)C)cc1

>  <score_type>  (40) 
oracle

>  <origin>  (40) 
adg

>  <m_score__min__energy>  (40) 
-7.6600000000000001

>  <m_primary>  (40) 
energy

$$$$
40:0
     RDKit          3D

 32 33  0  0  0  0  0  0  0  0999 V2000
   -6.8520   17.0760  -33.1120 C   0  0  0  0  0  0  0  0  0  0  0  0
   -6.7380   18.3380  -32.3630 N   0  0  0  0  0  0  0  0  0  0  0  0
   -6.2260   19.4160  -33.2410 C   0  0  0  0  0  0  0  0  0  0  0  0
   -6.6230   20.7970  -32.7110 C   0  0  0  0  0  0  0  0  0  0  0  0
   -8.0920   20.9660  -32.7230 N   0  0  0  0  0  0  0  0  0  0  0  0
   -8.5590   22.2240  -31.6050 S   0  0  0  0  0  0  0  0  0  0  0  0
   -9.4430   23.2200  -32.3030 O   0  0  0  0  0  0  0  0  0  0  0  0
   -9.3200   21.6320  -30.4510 O   0  0  0  0  0  0  0  0  0  0  0  0
   -7.1260   23.0610  -31.0110 C   0  0  0  0  0  0  0  0  0  0  0  0
   -6.6000   24.1590  -31.7080 C   0  0  0  0  0  0  0  0  0  0  0  0
   -5.4760   24.8290  -31.2160 C   0  0  0  0  0  0  0  0  0  0  0  0
   -4.8730   24.4080  -30.0270 C   0  0  0  0  0  0  0  0  0  0  0  0
   -5.3980   23.3180  -29.3260 C   0  0  0  0  0  0  0  0  0  0  0  0
   -6.5220   22.6470  -29.8150 C   0  0  0  0  0  0  0  0  0  0  0  0
   -8.8400   19.7130  -32.4600 C   0  0  0  0  0  0  0  0  0  0  0  0
   -8.0100   18.6790  -31.6770 C   0  0  0  0  0  0  0  0  0  0  0  0
   -6.9279   16.2361  -32.4058 H   0  0  0  0  0  0  0  0  0  0  0  0
   -7.7512   17.1052  -33.7450 H   0  0  0  0  0  0  0  0  0  0  0  0
   -5.9622   16.9436  -33.7450 H   0  0  0  0  0  0  0  0  0  0  0  0
   -5.1289   19.3509  -33.2867 H   0  0  0  0  0  0  0  0  0  0  0  0
   -6.6640   19.2878  -34.2419 H   0  0  0  0  0  0  0  0  0  0  0  0
   -6.2567   20.9056  -31.6795 H   0  0  0  0  0  0  0  0  0  0  0  0
   -6.1763   21.5639  -33.3608 H   0  0  0  0  0  0  0  0  0  0  0  0
   -7.0728   24.4933  -32.6433 H   0  0  0  0  0  0  0  0  0  0  0  0
   -5.0653   25.6890  -31.7654 H   0  0  0  0  0  0  0  0  0  0  0  0
   -3.9863   24.9338  -29.6433 H   0  0  0  0  0  0  0  0  0  0  0  0
   -4.9258   22.9884  -28.3888 H   0  0  0  0  0  0  0  0  0  0  0  0
   -6.9343   21.7914  -29.2601 H   0  0  0  0  0  0  0  0  0  0  0  0
   -9.7402   19.9563  -31.8766 H   0  0  0  0  0  0  0  0  0  0  0  0
   -9.0942   19.2672  -33.4329 H   0  0  0  0  0  0  0  0  0  0  0  0
   -7.7765   19.0918  -30.6845 H   0  0  0  0  0  0  0  0  0  0  0  0
   -8.6070   17.7583  -31.6001 H   0  0  0  0  0  0  0  0  0  0  0  0
  1  2  1  0
  2  3  1  0
  3  4  1  0
  4  5  1  0
  5  6  1  0
  6  7  2  0
  6  8  2  0
  6  9  1  0
  9 10  2  0
 10 11  1  0
 11 12  2  0
 12 13  1  0
 13 14  2  0
  5 15  1  0
 15 16  1  0
 16  2  1  0
 14  9  1  0
  1 17  1  0
  1 18  1  0
  1 19  1  0
  3 20  1  0
  3 21  1  0
  4 22  1  0
  4 23  1  0
 10 24  1  0
 11 25  1  0
 12 26  1  0
 13 27  1  0
 14 28  1  0
 15 29  1  0
 15 30  1  0
 16 31  1  0
 16 32  1  0
M  END
>  <UniqueID>  (41) 
40

>  <SMILES>  (41) 
CN1CCN(S(=O)(=O)c2ccccc2)CC1

>  <Energy>  (41) 
41.40568421749511

>  <Genealogy>  (41) 
CN1CCN(S(=O)(=O)c2ccccc2)CC1 (3D coordinates assigned)
CN1CCN(S(=O)(=O)c2ccccc2)CC1 (nonaromatic ring conformer: 41.40568421749511 kcal/mol)

>  <smiles>  (41) 
CN1CCN(S(=O)(=O)c2ccccc2)CC1

>  <score_type>  (41) 
oracle

>  <origin>  (41) 
adg

>  <m_score__min__energy>  (41) 
-6.71

>  <m_primary>  (41) 
energy

$$$$
41:0
     RDKit          3D

 44 46  0  0  0  0  0  0  0  0999 V2000
   -9.0700   20.4310  -31.5300 C   0  0  0  0  0  0  0  0  0  0  0  0
   -8.6310   18.9770  -31.7440 C   0  0  0  0  0  0  0  0  0  0  0  0
   -7.7740   18.7790  -32.9380 N   0  0  0  0  0  0  0  0  0  0  0  0
   -6.7480   17.7320  -32.7220 C   0  0  0  0  0  0  0  0  0  0  0  0
   -6.4590   17.5400  -31.2360 C   0  0  0  0  0  0  0  0  0  0  0  0
   -7.2110   20.0470  -33.4690 C   0  0  0  0  0  0  0  0  0  0  0  0
   -5.7410   20.1860  -33.0560 C   0  0  0  0  0  0  0  0  0  0  0  0
   -5.5660   21.3640  -32.1900 N   0  0  0  0  0  0  0  0  0  0  0  0
   -6.4060   22.4420  -32.3600 C   0  0  0  0  0  0  0  0  0  0  0  0
   -6.2560   23.5710  -31.6140 N   0  0  0  0  0  0  0  0  0  0  0  0
   -5.2650   23.6210  -30.7010 C   0  0  0  0  0  0  0  0  0  0  0  0
   -4.8680   24.9120  -29.7180 S   0  0  0  0  0  0  0  0  0  0  0  0
   -3.5280   24.1450  -29.0030 C   0  0  0  0  0  0  0  0  0  0  0  0
   -2.6190   24.7860  -28.0130 C   0  0  0  0  0  0  0  0  0  0  0  0
   -1.3610   25.2970  -28.3990 C   0  0  0  0  0  0  0  0  0  0  0  0
   -0.5420   25.9460  -27.4660 C   0  0  0  0  0  0  0  0  0  0  0  0
   -0.9580   26.0830  -26.1400 C   0  0  0  0  0  0  0  0  0  0  0  0
   -2.1940   25.5710  -25.7410 C   0  0  0  0  0  0  0  0  0  0  0  0
   -3.0190   24.9250  -26.6680 C   0  0  0  0  0  0  0  0  0  0  0  0
   -3.4040   22.8560  -29.5480 C   0  0  0  0  0  0  0  0  0  0  0  0
   -4.3820   22.5840  -30.5110 C   0  0  0  0  0  0  0  0  0  0  0  0
   -4.5360   21.4280  -31.2790 C   0  0  0  0  0  0  0  0  0  0  0  0
   -3.7310   20.4660  -31.1380 O   0  0  0  0  0  0  0  0  0  0  0  0
   -9.1331   20.6401  -30.4519 H   0  0  0  0  0  0  0  0  0  0  0  0
   -8.3360   21.1074  -31.9923 H   0  0  0  0  0  0  0  0  0  0  0  0
  -10.0557   20.5882  -31.9923 H   0  0  0  0  0  0  0  0  0  0  0  0
   -8.0695   18.6502  -30.8563 H   0  0  0  0  0  0  0  0  0  0  0  0
   -9.5454   18.3872  -31.9052 H   0  0  0  0  0  0  0  0  0  0  0  0
   -7.1105   16.7824  -33.1425 H   0  0  0  0  0  0  0  0  0  0  0  0
   -5.8189   18.0472  -33.2194 H   0  0  0  0  0  0  0  0  0  0  0  0
   -7.2308   18.0527  -30.6431 H   0  0  0  0  0  0  0  0  0  0  0  0
   -6.4660   16.4663  -30.9968 H   0  0  0  0  0  0  0  0  0  0  0  0
   -5.4719   17.9625  -30.9968 H   0  0  0  0  0  0  0  0  0  0  0  0
   -7.2816   20.0446  -34.5667 H   0  0  0  0  0  0  0  0  0  0  0  0
   -7.7813   20.8933  -33.0585 H   0  0  0  0  0  0  0  0  0  0  0  0
   -5.4302   19.2835  -32.5092 H   0  0  0  0  0  0  0  0  0  0  0  0
   -5.1244   20.3089  -33.9586 H   0  0  0  0  0  0  0  0  0  0  0  0
   -7.2097   22.3901  -33.1093 H   0  0  0  0  0  0  0  0  0  0  0  0
   -1.0216   25.1848  -29.4393 H   0  0  0  0  0  0  0  0  0  0  0  0
    0.4324   26.3492  -27.7790 H   0  0  0  0  0  0  0  0  0  0  0  0
   -0.3124   26.5939  -25.4105 H   0  0  0  0  0  0  0  0  0  0  0  0
   -2.5199   25.6757  -24.6956 H   0  0  0  0  0  0  0  0  0  0  0  0
   -3.9897   24.5213  -26.3443 H   0  0  0  0  0  0  0  0  0  0  0  0
   -2.6241   22.1396  -29.2505 H   0  0  0  0  0  0  0  0  0  0  0  0
  1  2  1  0
  2  3  1  0
  3  4  1  0
  4  5  1  0
  3  6  1  0
  6  7  1  0
  7  8  1  0
  8  9  1  0
  9 10  2  0
 10 11  1  0
 11 12  1  0
 12 13  1  0
 13 14  1  0
 14 15  2  0
 15 16  1  0
 16 17  2  0
 17 18  1  0
 18 19  2  0
 13 20  2  0
 20 21  1  0
 21 22  1  0
 22 23  2  0
 22  8  1  0
 21 11  2  0
 19 14  1  0
  1 24  1  0
  1 25  1  0
  1 26  1  0
  2 27  1  0
  2 28  1  0
  4 29  1  0
  4 30  1  0
  5 31  1  0
  5 32  1  0
  5 33  1  0
  6 34  1  0
  6 35  1  0
  7 36  1  0
  7 37  1  0
  9 38  1  0
 15 39  1  0
 16 40  1  0
 17 41  1  0
 18 42  1  0
 19 43  1  0
 20 44  1  0
M  END
>  <UniqueID>  (42) 
41

>  <SMILES>  (42) 
CCN(CC)CCn1cnc2sc(-c3ccccc3)cc2c1=O

>  <Energy>  (42) 
84.00651910231377

>  <Genealogy>  (42) 
CCN(CC)CCn1cnc2sc(-c3ccccc3)cc2c1=O (3D coordinates assigned)
CCN(CC)CCn1cnc2sc(-c3ccccc3)cc2c1=O (optimized conformer: 84.00651910231377 kcal/mol)

>  <smiles>  (42) 
CCN(CC)CCn1cnc2sc(-c3ccccc3)cc2c1=O

>  <score_type>  (42) 
oracle

>  <origin>  (42) 
adg

>  <m_score__min__energy>  (42) 
-7.6600000000000001

>  <m_primary>  (42) 
energy

$$$$
42:0
     RDKit          3D

 31 32  0  0  0  0  0  0  0  0999 V2000
   -4.5090   23.2170  -28.8350 C   0  0  0  0  0  0  0  0  0  0  0  0
   -5.8230   23.0680  -29.5960 C   0  0  0  0  0  0  0  0  0  0  0  0
   -5.8610   23.9810  -30.7460 N   0  0  0  0  0  0  0  0  0  0  0  0
   -5.4030   25.3320  -30.5580 C   0  0  0  0  0  0  0  0  0  0  0  0
   -4.2230   25.6680  -30.8450 O   0  0  0  0  0  0  0  0  0  0  0  0
   -6.5500   23.5770  -31.9840 C   0  0  0  0  0  0  0  0  0  0  0  0
   -6.2310   22.1390  -32.3430 C   0  0  0  0  0  0  0  0  0  0  0  0
   -4.9220   21.8230  -32.7360 C   0  0  0  0  0  0  0  0  0  0  0  0
   -4.5940   20.5190  -33.1050 C   0  0  0  0  0  0  0  0  0  0  0  0
   -3.4150   20.2460  -33.4550 O   0  0  0  0  0  0  0  0  0  0  0  0
   -5.5410   19.5430  -33.0880 N   0  0  0  0  0  0  0  0  0  0  0  0
   -6.8270   19.8010  -32.7170 C   0  0  0  0  0  0  0  0  0  0  0  0
   -7.7780   18.7680  -32.7210 C   0  0  0  0  0  0  0  0  0  0  0  0
   -9.0980   19.0220  -32.3460 C   0  0  0  0  0  0  0  0  0  0  0  0
   -9.4820   20.3080  -31.9650 C   0  0  0  0  0  0  0  0  0  0  0  0
   -8.5490   21.3470  -31.9540 C   0  0  0  0  0  0  0  0  0  0  0  0
   -7.2090   21.1130  -32.3310 C   0  0  0  0  0  0  0  0  0  0  0  0
   -4.7072   23.1945  -27.7532 H   0  0  0  0  0  0  0  0  0  0  0  0
   -3.8350   22.3895  -29.1016 H   0  0  0  0  0  0  0  0  0  0  0  0
   -4.0374   24.1744  -29.1016 H   0  0  0  0  0  0  0  0  0  0  0  0
   -5.9182   22.0321  -29.9536 H   0  0  0  0  0  0  0  0  0  0  0  0
   -6.6545   23.3151  -28.9195 H   0  0  0  0  0  0  0  0  0  0  0  0
   -6.0961   26.0857  -30.1561 H   0  0  0  0  0  0  0  0  0  0  0  0
   -7.6358   23.6788  -31.8402 H   0  0  0  0  0  0  0  0  0  0  0  0
   -6.2054   24.2257  -32.8028 H   0  0  0  0  0  0  0  0  0  0  0  0
   -4.1510   22.6073  -32.7531 H   0  0  0  0  0  0  0  0  0  0  0  0
   -5.2660   18.5740  -33.3720 H   0  0  0  0  0  0  0  0  0  0  0  0
   -7.4808   17.7524  -33.0215 H   0  0  0  0  0  0  0  0  0  0  0  0
   -9.8368   18.2070  -32.3508 H   0  0  0  0  0  0  0  0  0  0  0  0
  -10.5239   20.5043  -31.6721 H   0  0  0  0  0  0  0  0  0  0  0  0
   -8.8611   22.3567  -31.6488 H   0  0  0  0  0  0  0  0  0  0  0  0
  1  2  1  0
  2  3  1  0
  3  4  1  0
  4  5  2  0
  3  6  1  0
  6  7  1  0
  7  8  2  0
  8  9  1  0
  9 10  2  0
  9 11  1  0
 11 12  1  0
 12 13  2  0
 13 14  1  0
 14 15  2  0
 15 16  1  0
 16 17  2  0
 17  7  1  0
 17 12  1  0
  1 18  1  0
  1 19  1  0
  1 20  1  0
  2 21  1  0
  2 22  1  0
  4 23  1  0
  6 24  1  0
  6 25  1  0
  8 26  1  0
 11 27  1  0
 13 28  1  0
 14 29  1  0
 15 30  1  0
 16 31  1  0
M  END
>  <UniqueID>  (43) 
42

>  <SMILES>  (43) 
CCN(C=O)Cc1cc(=O)[nH]c2ccccc12

>  <Energy>  (43) 
31.423616560149473

>  <Genealogy>  (43) 
CCN(C=O)Cc1cc(=O)[nH]c2ccccc12 (3D coordinates assigned)
CCN(C=O)Cc1cc(=O)[nH]c2ccccc12 (optimized conformer: 31.423616560149473 kcal/mol)

>  <smiles>  (43) 
CCN(C=O)Cc1cc(=O)[nH]c2ccccc12

>  <score_type>  (43) 
oracle

>  <origin>  (43) 
adg

>  <m_score__min__energy>  (43) 
-6.9699999999999998

>  <m_primary>  (43) 
energy

$$$$
43:0
     RDKit          3D

 36 38  0  0  0  0  0  0  0  0999 V2000
   -9.2820   21.9180  -31.2760 C   0  0  0  0  0  0  0  0  0  0  0  0
   -7.9310   21.6460  -31.8510 C   0  0  0  0  0  0  0  0  0  0  0  0
   -7.5800   20.4620  -32.3910 N   0  0  0  0  0  0  0  0  0  0  0  0
   -6.3130   20.5480  -32.7700 N   0  0  0  0  0  0  0  0  0  0  0  0
   -5.6150   19.4510  -33.3830 C   0  0  0  0  0  0  0  0  0  0  0  0
   -4.4030   18.9820  -32.8510 C   0  0  0  0  0  0  0  0  0  0  0  0
   -3.7360   17.9300  -33.4830 C   0  0  0  0  0  0  0  0  0  0  0  0
   -4.2710   17.3660  -34.6400 C   0  0  0  0  0  0  0  0  0  0  0  0
   -5.4660   17.8690  -35.1570 C   0  0  0  0  0  0  0  0  0  0  0  0
   -6.1040   18.8970  -34.5300 N   0  0  0  0  0  0  0  0  0  0  0  0
   -5.8240   21.7700  -32.4470 C   0  0  0  0  0  0  0  0  0  0  0  0
   -4.4300   22.2550  -32.7150 C   0  0  0  0  0  0  0  0  0  0  0  0
   -6.8400   22.4960  -31.8500 C   0  0  0  0  0  0  0  0  0  0  0  0
   -6.7620   24.1780  -31.2200 S   0  0  0  0  0  0  0  0  0  0  0  0
   -5.3430   23.8430  -30.1720 C   0  0  0  0  0  0  0  0  0  0  0  0
   -5.3330   22.7070  -29.3520 C   0  0  0  0  0  0  0  0  0  0  0  0
   -4.2300   22.4400  -28.5360 C   0  0  0  0  0  0  0  0  0  0  0  0
   -3.1370   23.3130  -28.5260 C   0  0  0  0  0  0  0  0  0  0  0  0
   -2.0700   23.0510  -27.7330 F   0  0  0  0  0  0  0  0  0  0  0  0
   -3.1510   24.4570  -29.3310 C   0  0  0  0  0  0  0  0  0  0  0  0
   -2.0970   25.3110  -29.3160 F   0  0  0  0  0  0  0  0  0  0  0  0
   -4.2550   24.7250  -30.1480 C   0  0  0  0  0  0  0  0  0  0  0  0
   -9.2222   21.9060  -30.1777 H   0  0  0  0  0  0  0  0  0  0  0  0
   -9.6322   22.9047  -31.6134 H   0  0  0  0  0  0  0  0  0  0  0  0
   -9.9868   21.1437  -31.6134 H   0  0  0  0  0  0  0  0  0  0  0  0
   -3.9821   19.4396  -31.9435 H   0  0  0  0  0  0  0  0  0  0  0  0
   -2.7913   17.5477  -33.0689 H   0  0  0  0  0  0  0  0  0  0  0  0
   -3.7565   16.5326  -35.1407 H   0  0  0  0  0  0  0  0  0  0  0  0
   -5.8937   17.4346  -36.0726 H   0  0  0  0  0  0  0  0  0  0  0  0
   -6.9970   19.2530  -34.9370 H   0  0  0  0  0  0  0  0  0  0  0  0
   -3.9143   22.4344  -31.7601 H   0  0  0  0  0  0  0  0  0  0  0  0
   -3.8816   21.4948  -33.2907 H   0  0  0  0  0  0  0  0  0  0  0  0
   -4.4719   23.1914  -33.2907 H   0  0  0  0  0  0  0  0  0  0  0  0
   -6.1951   22.0237  -29.3504 H   0  0  0  0  0  0  0  0  0  0  0  0
   -4.2214   21.5420  -27.9007 H   0  0  0  0  0  0  0  0  0  0  0  0
   -4.2685   25.6303  -30.7728 H   0  0  0  0  0  0  0  0  0  0  0  0
  1  2  1  0
  2  3  2  0
  3  4  1  0
  4  5  1  0
  5  6  2  0
  6  7  1  0
  7  8  2  0
  8  9  1  0
  9 10  2  0
  4 11  1  0
 11 12  1  0
 11 13  2  0
 13 14  1  0
 14 15  1  0
 15 16  2  0
 16 17  1  0
 17 18  2  0
 18 19  1  0
 18 20  1  0
 20 21  1  0
 20 22  2  0
 13  2  1  0
 22 15  1  0
 10  5  1  0
  1 23  1  0
  1 24  1  0
  1 25  1  0
  6 26  1  0
  7 27  1  0
  8 28  1  0
  9 29  1  0
 10 30  1  0
 12 31  1  0
 12 32  1  0
 12 33  1  0
 16 34  1  0
 17 35  1  0
 22 36  1  0
M  CHG  1  10   1
M  END
>  <UniqueID>  (44) 
43

>  <SMILES>  (44) 
Cc1nn(-c2cccc[nH+]2)c(C)c1Sc1ccc(F)c(F)c1

>  <Energy>  (44) 
68.18160271732441

>  <Genealogy>  (44) 
Cc1nn(-c2cccc[nH+]2)c(C)c1Sc1ccc(F)c(F)c1 (protonated)
Cc1nn(-c2cccc[nH+]2)c(C)c1Sc1ccc(F)c(F)c1 (3D coordinates assigned)
Cc1nn(-c2cccc[nH+]2)c(C)c1Sc1ccc(F)c(F)c1 (optimized conformer: 68.18160271732441 kcal/mol)

>  <smiles>  (44) 
Cc1nn(-c2ccccn2)c(C)c1Sc1ccc(F)c(F)c1

>  <score_type>  (44) 
oracle

>  <origin>  (44) 
adg

>  <m_score__min__energy>  (44) 
-7.4100000000000001

>  <m_primary>  (44) 
energy

$$$$
44:0
     RDKit          3D

 30 32  0  0  0  0  0  0  0  0999 V2000
   -9.1320   22.3290  -31.9540 C   0  0  0  0  0  0  0  0  0  0  0  0
   -7.6670   22.5360  -31.6600 C   0  0  0  0  0  0  0  0  0  0  0  0
   -7.3150   23.7940  -31.1380 C   0  0  0  0  0  0  0  0  0  0  0  0
   -5.9860   24.1980  -31.0850 C   0  0  0  0  0  0  0  0  0  0  0  0
   -4.9900   23.3760  -31.5940 C   0  0  0  0  0  0  0  0  0  0  0  0
   -5.3050   22.0990  -32.0820 C   0  0  0  0  0  0  0  0  0  0  0  0
   -4.2980   21.3250  -32.6620 C   0  0  0  0  0  0  0  0  0  0  0  0
   -4.5580   20.0860  -33.1700 N   0  0  0  0  0  0  0  0  0  0  0  0
   -3.4570   19.3740  -33.8430 C   0  0  0  0  0  0  0  0  0  0  0  0
   -5.7930   19.5030  -32.9840 C   0  0  0  0  0  0  0  0  0  0  0  0
   -6.0350   18.1650  -33.3820 C   0  0  0  0  0  0  0  0  0  0  0  0
   -7.2360   17.5320  -33.0720 C   0  0  0  0  0  0  0  0  0  0  0  0
   -8.2000   18.1970  -32.3290 C   0  0  0  0  0  0  0  0  0  0  0  0
   -7.9970   19.5190  -31.9420 C   0  0  0  0  0  0  0  0  0  0  0  0
   -6.8390   20.2300  -32.3370 C   0  0  0  0  0  0  0  0  0  0  0  0
   -6.6320   21.6060  -32.0160 C   0  0  0  0  0  0  0  0  0  0  0  0
   -9.6882   22.2504  -31.0083 H   0  0  0  0  0  0  0  0  0  0  0  0
   -9.5137   23.1821  -32.5341 H   0  0  0  0  0  0  0  0  0  0  0  0
   -9.2624   21.4035  -32.5341 H   0  0  0  0  0  0  0  0  0  0  0  0
   -8.1020   24.4670  -30.7668 H   0  0  0  0  0  0  0  0  0  0  0  0
   -5.7236   25.1690  -30.6397 H   0  0  0  0  0  0  0  0  0  0  0  0
   -3.9480   23.7278  -31.6148 H   0  0  0  0  0  0  0  0  0  0  0  0
   -3.2735   21.7227  -32.7103 H   0  0  0  0  0  0  0  0  0  0  0  0
   -2.7854   18.9397  -33.0878 H   0  0  0  0  0  0  0  0  0  0  0  0
   -3.8696   18.5713  -34.4718 H   0  0  0  0  0  0  0  0  0  0  0  0
   -2.8942   20.0796  -34.4718 H   0  0  0  0  0  0  0  0  0  0  0  0
   -5.2633   17.6184  -33.9439 H   0  0  0  0  0  0  0  0  0  0  0  0
   -7.4203   16.5038  -33.4167 H   0  0  0  0  0  0  0  0  0  0  0  0
   -9.1276   17.6786  -32.0447 H   0  0  0  0  0  0  0  0  0  0  0  0
   -8.7511   20.0202  -31.3174 H   0  0  0  0  0  0  0  0  0  0  0  0
  1  2  1  0
  2  3  2  0
  3  4  1  0
  4  5  2  0
  5  6  1  0
  6  7  2  0
  7  8  1  0
  8  9  1  0
  8 10  2  0
 10 11  1  0
 11 12  2  0
 12 13  1  0
 13 14  2  0
 14 15  1  0
 15 16  2  0
 16  2  1  0
 16  6  1  0
 15 10  1  0
  1 17  1  0
  1 18  1  0
  1 19  1  0
  3 20  1  0
  4 21  1  0
  5 22  1  0
  7 23  1  0
  9 24  1  0
  9 25  1  0
  9 26  1  0
 11 27  1  0
 12 28  1  0
 13 29  1  0
 14 30  1  0
M  CHG  1   8   1
M  END
>  <UniqueID>  (45) 
44

>  <SMILES>  (45) 
Cc1cccc2c[n+](C)c3ccccc3c12

>  <Energy>  (45) 
59.58244730844787

>  <Genealogy>  (45) 
Cc1cccc2c[n+](C)c3ccccc3c12 (3D coordinates assigned)
Cc1cccc2c[n+](C)c3ccccc3c12 (optimized conformer: 59.58244730844787 kcal/mol)

>  <smiles>  (45) 
Cc1cccc2c[n+](C)c3ccccc3c12

>  <score_type>  (45) 
oracle

>  <origin>  (45) 
adg

>  <m_score__min__energy>  (45) 
-6.7300000000000004

>  <m_primary>  (45) 
energy

$$$$
45:0
     RDKit          3D

 35 37  0  0  0  0  0  0  0  0999 V2000
   -1.5350   25.6640  -29.0190 O   0  0  0  0  0  0  0  0  0  0  0  0
   -2.4050   24.7770  -29.2280 C   0  0  0  0  0  0  0  0  0  0  0  0
   -3.4960   25.0810  -30.1080 N   0  0  0  0  0  0  0  0  0  0  0  0
   -4.5250   24.1720  -30.5240 C   0  0  0  0  0  0  0  0  0  0  0  0
   -5.8820   24.4240  -30.2660 C   0  0  0  0  0  0  0  0  0  0  0  0
   -6.8620   23.5230  -30.6930 C   0  0  0  0  0  0  0  0  0  0  0  0
   -6.5030   22.3610  -31.4000 C   0  0  0  0  0  0  0  0  0  0  0  0
   -7.5390   21.4000  -31.8550 C   0  0  0  0  0  0  0  0  0  0  0  0
   -8.8960   21.7680  -31.8610 C   0  0  0  0  0  0  0  0  0  0  0  0
   -9.8570   20.8490  -32.2840 C   0  0  0  0  0  0  0  0  0  0  0  0
   -9.4660   19.5770  -32.6990 C   0  0  0  0  0  0  0  0  0  0  0  0
   -8.1120   19.2400  -32.6840 C   0  0  0  0  0  0  0  0  0  0  0  0
   -7.1850   20.1450  -32.2670 N   0  0  0  0  0  0  0  0  0  0  0  0
   -5.1450   22.1280  -31.6790 C   0  0  0  0  0  0  0  0  0  0  0  0
   -4.1670   23.0290  -31.2490 C   0  0  0  0  0  0  0  0  0  0  0  0
   -2.2450   23.4410  -28.6060 C   0  0  0  0  0  0  0  0  0  0  0  0
   -3.3550   22.7460  -28.0960 C   0  0  0  0  0  0  0  0  0  0  0  0
   -3.1920   21.4870  -27.5120 C   0  0  0  0  0  0  0  0  0  0  0  0
   -1.9250   20.9010  -27.4360 C   0  0  0  0  0  0  0  0  0  0  0  0
   -1.7630   19.3170  -26.6910 Cl  0  0  0  0  0  0  0  0  0  0  0  0
   -0.8120   21.5800  -27.9570 C   0  0  0  0  0  0  0  0  0  0  0  0
    0.7990   20.8760  -27.8870 Cl  0  0  0  0  0  0  0  0  0  0  0  0
   -0.9750   22.8410  -28.5420 C   0  0  0  0  0  0  0  0  0  0  0  0
   -6.1757   25.3355  -29.7248 H   0  0  0  0  0  0  0  0  0  0  0  0
   -7.9212   23.7241  -30.4746 H   0  0  0  0  0  0  0  0  0  0  0  0
   -9.1981   22.7740  -31.5343 H   0  0  0  0  0  0  0  0  0  0  0  0
  -10.9211   21.1278  -32.2900 H   0  0  0  0  0  0  0  0  0  0  0  0
  -10.2169   18.8466  -33.0348 H   0  0  0  0  0  0  0  0  0  0  0  0
   -7.7927   18.2392  -33.0104 H   0  0  0  0  0  0  0  0  0  0  0  0
   -6.1790   19.8630  -32.2900 H   0  0  0  0  0  0  0  0  0  0  0  0
   -4.8498   21.2292  -32.2403 H   0  0  0  0  0  0  0  0  0  0  0  0
   -3.1088   22.8389  -31.4817 H   0  0  0  0  0  0  0  0  0  0  0  0
   -4.3572   23.1954  -28.1569 H   0  0  0  0  0  0  0  0  0  0  0  0
   -4.0659   20.9538  -27.1096 H   0  0  0  0  0  0  0  0  0  0  0  0
   -0.1019   23.3673  -28.9553 H   0  0  0  0  0  0  0  0  0  0  0  0
  1  2  2  0
  2  3  1  0
  3  4  1  0
  4  5  2  0
  5  6  1  0
  6  7  2  0
  7  8  1  0
  8  9  2  0
  9 10  1  0
 10 11  2  0
 11 12  1  0
 12 13  2  0
  7 14  1  0
 14 15  2  0
  2 16  1  0
 16 17  2  0
 17 18  1  0
 18 19  2  0
 19 20  1  0
 19 21  1  0
 21 22  1  0
 21 23  2  0
 15  4  1  0
 23 16  1  0
 13  8  1  0
  5 24  1  0
  6 25  1  0
  9 26  1  0
 10 27  1  0
 11 28  1  0
 12 29  1  0
 13 30  1  0
 14 31  1  0
 15 32  1  0
 17 33  1  0
 18 34  1  0
 23 35  1  0
M  CHG  2   3  -1  13   1
M  END
>  <UniqueID>  (46) 
45

>  <SMILES>  (46) 
O=C([N-]c1ccc(-c2cccc[nH+]2)cc1)c1ccc(Cl)c(Cl)c1

>  <Energy>  (46) 
50.73713254957618

>  <Genealogy>  (46) 
O=C([N-]c1ccc(-c2cccc[nH+]2)cc1)c1ccc(Cl)c(Cl)c1 (protonated)
O=C([N-]c1ccc(-c2cccc[nH+]2)cc1)c1ccc(Cl)c(Cl)c1 (3D coordinates assigned)
O=C([N-]c1ccc(-c2cccc[nH+]2)cc1)c1ccc(Cl)c(Cl)c1 (optimized conformer: 50.73713254957618 kcal/mol)

>  <smiles>  (46) 
O=C(Nc1ccc(-c2ccccn2)cc1)c1ccc(Cl)c(Cl)c1

>  <score_type>  (46) 
oracle

>  <origin>  (46) 
adg

>  <m_score__min__energy>  (46) 
-10.029999999999999

>  <m_primary>  (46) 
energy

$$$$
46:0
     RDKit          3D

 33 35  0  0  0  0  0  0  0  0999 V2000
   -7.2290   23.6670  -33.2410 H   0  0  0  0  0  0  0  0  0  0  0  0
   -7.1430   23.0610  -32.3270 C   0  0  0  0  0  0  0  0  0  0  0  0
   -7.0010   23.6830  -31.1480 C   0  0  0  0  0  0  0  0  0  0  0  0
   -7.9064   23.9543  -30.5854 H   0  0  0  0  0  0  0  0  0  0  0  0
   -5.6870   24.0200  -30.5710 C   0  0  0  0  0  0  0  0  0  0  0  0
   -4.8050   24.7790  -31.1820 O   0  0  0  0  0  0  0  0  0  0  0  0
   -3.7280   24.9210  -30.4650 N   0  0  0  0  0  0  0  0  0  0  0  0
   -3.9240   24.2280  -29.3280 C   0  0  0  0  0  0  0  0  0  0  0  0
   -2.8990   24.0760  -28.2550 C   0  0  0  0  0  0  0  0  0  0  0  0
   -3.3850   24.1481  -27.2708 H   0  0  0  0  0  0  0  0  0  0  0  0
   -2.4098   23.0955  -28.3515 H   0  0  0  0  0  0  0  0  0  0  0  0
   -2.1463   24.8724  -28.3515 H   0  0  0  0  0  0  0  0  0  0  0  0
   -5.1620   23.6230  -29.3540 C   0  0  0  0  0  0  0  0  0  0  0  0
   -5.6224   22.9789  -28.5903 H   0  0  0  0  0  0  0  0  0  0  0  0
   -7.1880   21.5830  -32.4400 C   0  0  0  0  0  0  0  0  0  0  0  0
   -6.2430   20.9310  -33.1750 N   0  0  0  0  0  0  0  0  0  0  0  0
   -6.2450   19.5800  -33.3080 C   0  0  0  0  0  0  0  0  0  0  0  0
   -5.2620   18.9380  -34.0690 C   0  0  0  0  0  0  0  0  0  0  0  0
   -4.4789   19.5287  -34.5668 H   0  0  0  0  0  0  0  0  0  0  0  0
   -5.2750   17.5330  -34.1980 C   0  0  0  0  0  0  0  0  0  0  0  0
   -4.3150   16.8380  -34.9490 O   0  0  0  0  0  0  0  0  0  0  0  0
   -3.6680   15.6450  -34.5180 C   0  0  0  0  0  0  0  0  0  0  0  0
   -3.6510   15.6137  -33.4186 H   0  0  0  0  0  0  0  0  0  0  0  0
   -4.2161   14.7717  -34.9012 H   0  0  0  0  0  0  0  0  0  0  0  0
   -2.6371   15.6280  -34.9012 H   0  0  0  0  0  0  0  0  0  0  0  0
   -6.2800   16.7950  -33.5580 C   0  0  0  0  0  0  0  0  0  0  0  0
   -6.2968   15.6995  -33.6559 H   0  0  0  0  0  0  0  0  0  0  0  0
   -7.2620   17.4370  -32.7960 C   0  0  0  0  0  0  0  0  0  0  0  0
   -8.0452   16.8475  -32.2970 H   0  0  0  0  0  0  0  0  0  0  0  0
   -7.2460   18.8290  -32.6700 C   0  0  0  0  0  0  0  0  0  0  0  0
   -8.1910   19.4700  -31.9360 N   0  0  0  0  0  0  0  0  0  0  0  0
   -8.1920   20.8220  -31.8020 C   0  0  0  0  0  0  0  0  0  0  0  0
   -9.4590   21.5580  -30.8290 Cl  0  0  0  0  0  0  0  0  0  0  0  0
  1  2  1  0
  2  3  2  0
  3  4  1  0
  3  5  1  0
  5  6  1  0
  6  7  1  0
  7  8  2  0
  8  9  1  0
  9 10  1  0
  9 11  1  0
  9 12  1  0
  8 13  1  0
 13 14  1  0
  2 15  1  0
 15 16  2  0
 16 17  1  0
 17 18  2  0
 18 19  1  0
 18 20  1  0
 20 21  1  0
 21 22  1  0
 22 23  1  0
 22 24  1  0
 22 25  1  0
 20 26  2  0
 26 27  1  0
 26 28  1  0
 28 29  1  0
 28 30  2  0
 30 31  1  0
 31 32  2  0
 32 33  1  0
 13  5  2  0
 32 15  1  0
 30 17  1  0
M  END
>  <UniqueID>  (47) 
46

>  <SMILES>  (47) 
COc1ccc2nc(Cl)c(/C=C/c3cc(C)no3)nc2c1

>  <Energy>  (47) 
68.16003698137278

>  <Genealogy>  (47) 
COc1ccc2nc(Cl)c(/C=C/c3cc(C)no3)nc2c1 (cis-trans isomerization)
COc1ccc2nc(Cl)c(/C=C/c3cc(C)no3)nc2c1 (3D coordinates assigned)
COc1ccc2nc(Cl)c(/C=C/c3cc(C)no3)nc2c1 (optimized conformer: 68.16003698137278 kcal/mol)

>  <smiles>  (47) 
COc1ccc2nc(Cl)c(C=Cc3cc(C)no3)nc2c1

>  <score_type>  (47) 
oracle

>  <origin>  (47) 
adg

>  <m_score__min__energy>  (47) 
-8.7899999999999991

>  <m_primary>  (47) 
energy

$$$$
