0:0
     RDKit          3D

 43 43  0  0  0  0  0  0  0  0999 V2000
   -0.5760   26.7870  -23.0410 C   0  0  0  0  0  0  0  0  0  0  0  0
    0.3700   26.7090  -24.2380 C   0  0  0  0  0  0  0  0  0  0  0  0
   -0.3890   26.8100  -25.5030 N   0  0  0  0  0  0  0  0  0  0  0  0
   -1.6740   26.0970  -25.3770 C   0  0  0  0  0  0  0  0  0  0  0  0
    0.3920   26.2770  -26.6430 C   0  0  0  0  0  0  0  0  0  0  0  0
   -0.5380   25.7160  -27.7190 C   0  0  0  0  0  0  0  0  0  0  0  0
    0.1560   24.7370  -28.4650 O   0  0  0  0  0  0  0  0  0  0  0  0
   -0.7290   24.0500  -29.3310 C   0  0  0  0  0  0  0  0  0  0  0  0
   -2.1770   24.1530  -28.8340 C   0  0  0  0  0  0  0  0  0  0  0  0
   -2.8270   25.2950  -29.3470 O   0  0  0  0  0  0  0  0  0  0  0  0
   -3.5080   24.9000  -30.4550 N   0  0  0  0  0  0  0  0  0  0  0  0
   -4.9310   24.9830  -30.5230 C   0  0  0  0  0  0  0  0  0  0  0  0
   -5.4830   25.8950  -31.1970 O   0  0  0  0  0  0  0  0  0  0  0  0
   -5.7670   23.9410  -29.8530 C   0  0  0  0  0  0  0  0  0  0  0  0
   -6.1420   22.8770  -30.8480 C   0  0  0  0  0  0  0  0  0  0  0  0
   -5.1710   22.3520  -31.7180 C   0  0  0  0  0  0  0  0  0  0  0  0
   -5.5270   21.3980  -32.6760 C   0  0  0  0  0  0  0  0  0  0  0  0
   -6.8510   20.9640  -32.7760 C   0  0  0  0  0  0  0  0  0  0  0  0
   -7.8260   21.4870  -31.9190 C   0  0  0  0  0  0  0  0  0  0  0  0
   -9.4920   20.9530  -32.0550 Cl  0  0  0  0  0  0  0  0  0  0  0  0
   -7.4750   22.4460  -30.9630 C   0  0  0  0  0  0  0  0  0  0  0  0
    0.0068   26.7389  -22.1093 H   0  0  0  0  0  0  0  0  0  0  0  0
   -1.1342   27.7342  -23.0759 H   0  0  0  0  0  0  0  0  0  0  0  0
   -1.2818   25.9440  -23.0759 H   0  0  0  0  0  0  0  0  0  0  0  0
    1.0935   27.5357  -24.1825 H   0  0  0  0  0  0  0  0  0  0  0  0
    0.8964   25.7434  -24.2141 H   0  0  0  0  0  0  0  0  0  0  0  0
   -1.9160   25.9627  -24.3124 H   0  0  0  0  0  0  0  0  0  0  0  0
   -2.4679   26.6836  -25.8623 H   0  0  0  0  0  0  0  0  0  0  0  0
   -1.5964   25.1129  -25.8623 H   0  0  0  0  0  0  0  0  0  0  0  0
    0.9980   27.0867  -27.0757 H   0  0  0  0  0  0  0  0  0  0  0  0
    1.0415   25.4672  -26.2793 H   0  0  0  0  0  0  0  0  0  0  0  0
   -1.4192   25.2607  -27.2434 H   0  0  0  0  0  0  0  0  0  0  0  0
   -0.8652   26.5273  -28.3859 H   0  0  0  0  0  0  0  0  0  0  0  0
   -0.6619   24.4904  -30.3368 H   0  0  0  0  0  0  0  0  0  0  0  0
   -0.4418   22.9884  -29.3546 H   0  0  0  0  0  0  0  0  0  0  0  0
   -2.7278   23.2561  -29.1537 H   0  0  0  0  0  0  0  0  0  0  0  0
   -2.1570   24.2348  -27.7372 H   0  0  0  0  0  0  0  0  0  0  0  0
   -5.1957   23.4872  -29.0298 H   0  0  0  0  0  0  0  0  0  0  0  0
   -6.6806   24.4066  -29.4549 H   0  0  0  0  0  0  0  0  0  0  0  0
   -4.1277   22.6928  -31.6449 H   0  0  0  0  0  0  0  0  0  0  0  0
   -4.7627   20.9882  -33.3526 H   0  0  0  0  0  0  0  0  0  0  0  0
   -7.1274   20.2109  -33.5286 H   0  0  0  0  0  0  0  0  0  0  0  0
   -8.2453   22.8645  -30.2985 H   0  0  0  0  0  0  0  0  0  0  0  0
  1  2  1  0
  2  3  1  0
  3  4  1  0
  3  5  1  0
  5  6  1  0
  6  7  1  0
  7  8  1  0
  8  9  1  0
  9 10  1  0
 10 11  1  0
 11 12  1  0
 12 13  2  0
 12 14  1  0
 14 15  1  0
 15 16  2  0
 16 17  1  0
 17 18  2  0
 18 19  1  0
 19 20  1  0
 19 21  2  0
 21 15  1  0
  1 22  1  0
  1 23  1  0
  1 24  1  0
  2 25  1  0
  2 26  1  0
  4 27  1  0
  4 28  1  0
  4 29  1  0
  5 30  1  0
  5 31  1  0
  6 32  1  0
  6 33  1  0
  8 34  1  0
  8 35  1  0
  9 36  1  0
  9 37  1  0
 14 38  1  0
 14 39  1  0
 16 40  1  0
 17 41  1  0
 18 42  1  0
 21 43  1  0
M  CHG  1  11  -1
M  END
>  <UniqueID>  (1) 
1

>  <SMILES>  (1) 
CCN(C)CCOCCO[N-]C(=O)Cc1cccc(Cl)c1

>  <Energy>  (1) 
35.49513058903595

>  <Genealogy>  (1) 
CCN(C)CCOCCO[N-]C(=O)Cc1cccc(Cl)c1 (protonated)
CCN(C)CCOCCO[N-]C(=O)Cc1cccc(Cl)c1 (3D coordinates assigned)
CCN(C)CCOCCO[N-]C(=O)Cc1cccc(Cl)c1 (optimized conformer: 35.49513058903595 kcal/mol)

>  <smiles>  (1) 
CCN(C)CCOCCONC(=O)Cc1cccc(Cl)c1

>  <score_type>  (1) 
oracle

>  <origin>  (1) 
adg

>  <m_score__min__energy>  (1) 
-9.1099999999999994

>  <m_primary>  (1) 
energy

$$$$
1:0
     RDKit          3D

 47 50  0  0  0  0  0  0  0  0999 V2000
   -5.7190   25.6970  -30.1770 C   0  0  0  0  0  0  0  0  0  0  0  0
   -4.7140   24.8490  -30.8370 N   0  0  0  0  0  0  0  0  0  0  0  0
   -3.8040   24.2910  -29.8210 C   0  0  0  0  0  0  0  0  0  0  0  0
   -5.3780   23.7720  -31.6040 C   0  0  0  0  0  0  0  0  0  0  0  0
   -4.4640   22.5480  -31.7250 C   0  0  0  0  0  0  0  0  0  0  0  0
   -4.6420   21.8930  -33.0200 N   0  0  0  0  0  0  0  0  0  0  0  0
   -5.1500   20.5560  -33.0870 C   0  0  0  0  0  0  0  0  0  0  0  0
   -4.3120   19.5120  -33.4510 C   0  0  0  0  0  0  0  0  0  0  0  0
   -4.7800   18.2120  -33.5450 C   0  0  0  0  0  0  0  0  0  0  0  0
   -6.1120   17.9140  -33.3980 N   0  0  0  0  0  0  0  0  0  0  0  0
   -6.6260   16.6050  -33.8300 C   0  0  0  0  0  0  0  0  0  0  0  0
   -6.9550   18.8960  -32.8990 C   0  0  0  0  0  0  0  0  0  0  0  0
   -8.2820   18.6050  -32.5020 C   0  0  0  0  0  0  0  0  0  0  0  0
   -9.1230   19.6090  -32.0170 C   0  0  0  0  0  0  0  0  0  0  0  0
   -8.6630   20.9160  -31.8990 C   0  0  0  0  0  0  0  0  0  0  0  0
   -7.3530   21.2350  -32.2530 C   0  0  0  0  0  0  0  0  0  0  0  0
   -6.4860   20.2440  -32.7520 C   0  0  0  0  0  0  0  0  0  0  0  0
   -3.6330   17.3520  -33.9180 C   0  0  0  0  0  0  0  0  0  0  0  0
   -3.5150   15.9940  -33.9000 N   0  0  0  0  0  0  0  0  0  0  0  0
   -2.3080   15.4170  -34.1840 C   0  0  0  0  0  0  0  0  0  0  0  0
   -1.1730   16.2110  -34.4360 C   0  0  0  0  0  0  0  0  0  0  0  0
   -1.2730   17.6070  -34.3710 C   0  0  0  0  0  0  0  0  0  0  0  0
   -2.5230   18.1550  -34.1010 C   0  0  0  0  0  0  0  0  0  0  0  0
   -2.8980   19.5320  -33.8230 C   0  0  0  0  0  0  0  0  0  0  0  0
   -2.1430   20.5390  -33.8730 O   0  0  0  0  0  0  0  0  0  0  0  0
   -5.6139   25.6083  -29.0856 H   0  0  0  0  0  0  0  0  0  0  0  0
   -5.5680   26.7448  -30.4760 H   0  0  0  0  0  0  0  0  0  0  0  0
   -6.7264   25.3719  -30.4760 H   0  0  0  0  0  0  0  0  0  0  0  0
   -4.1871   24.5259  -28.8170 H   0  0  0  0  0  0  0  0  0  0  0  0
   -3.7423   23.1996  -29.9438 H   0  0  0  0  0  0  0  0  0  0  0  0
   -2.8033   24.7309  -29.9438 H   0  0  0  0  0  0  0  0  0  0  0  0
   -6.3049   23.4805  -31.0883 H   0  0  0  0  0  0  0  0  0  0  0  0
   -5.6033   24.1454  -32.6139 H   0  0  0  0  0  0  0  0  0  0  0  0
   -3.4166   22.8686  -31.6240 H   0  0  0  0  0  0  0  0  0  0  0  0
   -4.7242   21.8337  -30.9299 H   0  0  0  0  0  0  0  0  0  0  0  0
   -4.6160   22.4550  -33.9020 H   0  0  0  0  0  0  0  0  0  0  0  0
   -6.8654   15.9953  -32.9463 H   0  0  0  0  0  0  0  0  0  0  0  0
   -7.5345   16.7488  -34.4334 H   0  0  0  0  0  0  0  0  0  0  0  0
   -5.8624   16.0922  -34.4334 H   0  0  0  0  0  0  0  0  0  0  0  0
   -8.6563   17.5733  -32.5765 H   0  0  0  0  0  0  0  0  0  0  0  0
  -10.1554   19.3644  -31.7266 H   0  0  0  0  0  0  0  0  0  0  0  0
   -9.3358   21.7016  -31.5247 H   0  0  0  0  0  0  0  0  0  0  0  0
   -6.9938   22.2687  -32.1417 H   0  0  0  0  0  0  0  0  0  0  0  0
   -4.3080   15.3760  -33.6310 H   0  0  0  0  0  0  0  0  0  0  0  0
   -2.2231   14.3207  -34.2159 H   0  0  0  0  0  0  0  0  0  0  0  0
   -0.2115   15.7372  -34.6830 H   0  0  0  0  0  0  0  0  0  0  0  0
   -0.3930   18.2480  -34.5281 H   0  0  0  0  0  0  0  0  0  0  0  0
  1  2  1  0
  2  3  1  0
  2  4  1  0
  4  5  1  0
  5  6  1  0
  6  7  1  0
  7  8  2  0
  8  9  1  0
  9 10  2  0
 10 11  1  0
 10 12  1  0
 12 13  2  0
 13 14  1  0
 14 15  2  0
 15 16  1  0
 16 17  2  0
  9 18  1  0
 18 19  2  0
 19 20  1  0
 20 21  2  0
 21 22  1  0
 22 23  2  0
 23 24  1  0
 24 25  2  0
 17  7  1  0
 23 18  1  0
 24  8  1  0
 17 12  1  0
  1 26  1  0
  1 27  1  0
  1 28  1  0
  3 29  1  0
  3 30  1  0
  3 31  1  0
  4 32  1  0
  4 33  1  0
  5 34  1  0
  5 35  1  0
  6 36  1  0
 11 37  1  0
 11 38  1  0
 11 39  1  0
 13 40  1  0
 14 41  1  0
 15 42  1  0
 16 43  1  0
 19 44  1  0
 20 45  1  0
 21 46  1  0
 22 47  1  0
M  CHG  2  10   1  19   1
M  END
>  <UniqueID>  (2) 
2

>  <SMILES>  (2) 
CN(C)CCNc1c2c([n+](C)c3ccccc13)-c1[nH+]cccc1C2=O

>  <Energy>  (2) 
105.32290886876702

>  <Genealogy>  (2) 
CN(C)CCNc1c2c([n+](C)c3ccccc13)-c1[nH+]cccc1C2=O (protonated)
CN(C)CCNc1c2c([n+](C)c3ccccc13)-c1[nH+]cccc1C2=O (3D coordinates assigned)
CN(C)CCNc1c2c([n+](C)c3ccccc13)-c1[nH+]cccc1C2=O (nonaromatic ring conformer: 105.32290886876702 kcal/mol)

>  <smiles>  (2) 
CN(C)CCNc1c2c([n+](C)c3ccccc13)-c1ncccc1C2=O

>  <score_type>  (2) 
oracle

>  <origin>  (2) 
adg

>  <m_score__min__energy>  (2) 
-8.3200000000000003

>  <m_primary>  (2) 
energy

$$$$
2:0
     RDKit          3D

 47 49  0  0  0  0  0  0  0  0999 V2000
   -1.0160   19.7780  -32.4000 C   0  0  0  0  0  0  0  0  0  0  0  0
   -2.1990   20.6290  -32.3180 N   0  0  0  0  0  0  0  0  0  0  0  0
   -2.8470   21.1640  -33.3720 C   0  0  0  0  0  0  0  0  0  0  0  0
   -3.8860   21.9360  -32.9000 C   0  0  0  0  0  0  0  0  0  0  0  0
   -3.8820   21.8880  -31.5570 N   0  0  0  0  0  0  0  0  0  0  0  0
   -2.8390   21.1000  -31.2210 C   0  0  0  0  0  0  0  0  0  0  0  0
   -2.4860   20.7840  -29.7860 C   0  0  0  0  0  0  0  0  0  0  0  0
   -2.0940   21.9650  -28.9850 N   0  0  0  0  0  0  0  0  0  0  0  0
   -2.8170   22.1470  -27.7110 C   0  0  0  0  0  0  0  0  0  0  0  0
   -4.1000   22.9990  -27.8530 C   0  0  0  0  0  0  0  0  0  0  0  0
   -4.2140   23.6290  -29.1830 N   0  0  0  0  0  0  0  0  0  0  0  0
   -5.3270   24.6020  -29.1990 C   0  0  0  0  0  0  0  0  0  0  0  0
   -5.4740   25.2290  -30.5910 C   0  0  0  0  0  0  0  0  0  0  0  0
   -5.2890   24.2490  -31.5940 O   0  0  0  0  0  0  0  0  0  0  0  0
   -6.5310   23.7990  -32.1050 C   0  0  0  0  0  0  0  0  0  0  0  0
   -7.0560   22.6310  -31.2600 C   0  0  0  0  0  0  0  0  0  0  0  0
   -8.4920   22.2310  -31.5630 C   0  0  0  0  0  0  0  0  0  0  0  0
   -7.3450   21.3390  -32.0100 C   0  0  0  0  0  0  0  0  0  0  0  0
   -2.9370   24.2730  -29.5320 C   0  0  0  0  0  0  0  0  0  0  0  0
   -1.8490   23.2080  -29.7470 C   0  0  0  0  0  0  0  0  0  0  0  0
   -0.6715   19.5302  -31.3851 H   0  0  0  0  0  0  0  0  0  0  0  0
   -1.2669   18.8521  -32.9383 H   0  0  0  0  0  0  0  0  0  0  0  0
   -0.2180   20.3103  -32.9383 H   0  0  0  0  0  0  0  0  0  0  0  0
   -2.5897   21.0102  -34.4304 H   0  0  0  0  0  0  0  0  0  0  0  0
   -4.6002   22.4983  -33.5195 H   0  0  0  0  0  0  0  0  0  0  0  0
   -4.5530   22.3640  -30.9120 H   0  0  0  0  0  0  0  0  0  0  0  0
   -3.3615   20.3188  -29.3095 H   0  0  0  0  0  0  0  0  0  0  0  0
   -1.6122   20.1164  -29.8144 H   0  0  0  0  0  0  0  0  0  0  0  0
   -3.0967   21.1562  -27.3235 H   0  0  0  0  0  0  0  0  0  0  0  0
   -2.1430   22.6838  -27.0272 H   0  0  0  0  0  0  0  0  0  0  0  0
   -4.9740   22.3504  -27.6935 H   0  0  0  0  0  0  0  0  0  0  0  0
   -4.0524   23.8035  -27.1043 H   0  0  0  0  0  0  0  0  0  0  0  0
   -6.2619   24.0866  -28.9338 H   0  0  0  0  0  0  0  0  0  0  0  0
   -5.1129   25.3987  -28.4713 H   0  0  0  0  0  0  0  0  0  0  0  0
   -6.4801   25.6628  -30.6890 H   0  0  0  0  0  0  0  0  0  0  0  0
   -4.7117   26.0127  -30.7122 H   0  0  0  0  0  0  0  0  0  0  0  0
   -7.2572   24.6247  -32.0757 H   0  0  0  0  0  0  0  0  0  0  0  0
   -6.3922   23.4596  -33.1421 H   0  0  0  0  0  0  0  0  0  0  0  0
   -6.4810   22.8857  -30.3575 H   0  0  0  0  0  0  0  0  0  0  0  0
   -9.1559   21.9062  -30.7483 H   0  0  0  0  0  0  0  0  0  0  0  0
   -9.3438   22.7126  -32.0654 H   0  0  0  0  0  0  0  0  0  0  0  0
   -7.1790   20.3689  -31.5187 H   0  0  0  0  0  0  0  0  0  0  0  0
   -7.0232   20.9081  -32.9696 H   0  0  0  0  0  0  0  0  0  0  0  0
   -3.0640   24.8551  -30.4567 H   0  0  0  0  0  0  0  0  0  0  0  0
   -2.6326   24.9375  -28.7099 H   0  0  0  0  0  0  0  0  0  0  0  0
   -1.8091   22.9598  -30.8179 H   0  0  0  0  0  0  0  0  0  0  0  0
   -0.9001   23.6317  -29.3862 H   0  0  0  0  0  0  0  0  0  0  0  0
  1  2  1  0
  2  3  1  0
  3  4  2  0
  4  5  1  0
  5  6  2  0
  6  7  1  0
  7  8  1  0
  8  9  1  0
  9 10  1  0
 10 11  1  0
 11 12  1  0
 12 13  1  0
 13 14  1  0
 14 15  1  0
 15 16  1  0
 16 17  1  0
 17 18  1  0
 11 19  1  0
 19 20  1  0
  6  2  1  0
 20  8  1  0
 18 16  1  0
  1 21  1  0
  1 22  1  0
  1 23  1  0
  3 24  1  0
  4 25  1  0
  5 26  1  0
  7 27  1  0
  7 28  1  0
  9 29  1  0
  9 30  1  0
 10 31  1  0
 10 32  1  0
 12 33  1  0
 12 34  1  0
 13 35  1  0
 13 36  1  0
 15 37  1  0
 15 38  1  0
 16 39  1  0
 17 40  1  0
 17 41  1  0
 18 42  1  0
 18 43  1  0
 19 44  1  0
 19 45  1  0
 20 46  1  0
 20 47  1  0
M  CHG  1   5   1
M  END
>  <UniqueID>  (3) 
3

>  <SMILES>  (3) 
Cn1cc[nH+]c1CN1CCN(CCOCC2CC2)CC1

>  <Energy>  (3) 
353.51969135781195

>  <Genealogy>  (3) 
Cn1cc[nH+]c1CN1CCN(CCOCC2CC2)CC1 (protonated)
Cn1cc[nH+]c1CN1CCN(CCOCC2CC2)CC1 (3D coordinates assigned)
Cn1cc[nH+]c1CN1CCN(CCOCC2CC2)CC1 (nonaromatic ring conformer: 353.51969135781195 kcal/mol)

>  <smiles>  (3) 
Cn1ccnc1CN1CCN(CCOCC2CC2)CC1

>  <score_type>  (3) 
oracle

>  <origin>  (3) 
adg

>  <m_score__min__energy>  (3) 
-5.6100000000000003

>  <m_primary>  (3) 
energy

$$$$
3:0
     RDKit          3D

 86 89  0  0  0  0  0  0  0  0999 V2000
   -3.6230   21.3720  -33.2300 C   0  0  0  0  0  0  0  0  0  0  0  0
   -4.4410   20.1390  -32.8530 C   0  0  0  0  0  0  0  0  0  0  0  0
   -5.5140   19.9010  -33.8460 N   0  0  0  0  0  0  0  0  0  0  0  0
   -5.3690   18.5570  -34.4460 C   0  0  0  0  0  0  0  0  0  0  0  0
   -6.8430   20.0470  -33.2140 C   0  0  0  0  0  0  0  0  0  0  0  0
   -6.8500   21.1580  -32.2500 C   0  0  0  0  0  0  0  0  0  0  0  0
   -6.8200   22.0720  -31.4640 C   0  0  0  0  0  0  0  0  0  0  0  0
   -6.8320   23.1730  -30.4830 C   0  0  0  0  0  0  0  0  0  0  0  0
   -5.4200   23.5930  -29.9600 C   0  0  1  0  0  0  0  0  0  0  0  0
   -5.3590   25.0360  -29.4560 C   0  0  0  0  0  0  0  0  0  0  0  0
   -4.6980   22.5170  -29.0620 C   0  0  1  0  0  0  0  0  0  0  0  0
   -3.8220   21.5620  -29.8840 C   0  0  0  0  0  0  0  0  0  0  0  0
   -2.3690   21.9450  -29.6250 C   0  0  0  0  0  0  0  0  0  0  0  0
   -2.2810   22.5050  -28.1690 C   0  0  2  0  0  0  0  0  0  0  0  0
   -1.9250   21.2710  -27.2700 C   0  0  0  0  0  0  0  0  0  0  0  0
   -3.7910   22.8870  -27.8410 C   0  0  1  0  0  0  0  0  0  0  0  0
   -4.0900   24.1540  -27.0010 C   0  0  0  0  0  0  0  0  0  0  0  0
   -3.0200   25.2300  -27.0370 C   0  0  0  0  0  0  0  0  0  0  0  0
   -1.6310   24.6130  -26.7550 C   0  0  2  0  0  0  0  0  0  0  0  0
   -0.5860   25.6550  -26.1370 C   0  0  1  0  0  0  0  0  0  0  0  0
   -0.4450   26.9430  -27.0150 C   0  0  0  0  0  0  0  0  0  0  0  0
   -1.1150   26.0990  -24.7150 C   0  0  0  0  0  0  0  0  0  0  0  0
   -0.0410   26.2250  -23.6170 C   0  0  0  0  0  0  0  0  0  0  0  0
    1.2870   26.7550  -24.1620 C   0  0  1  0  0  0  0  0  0  0  0  0
    2.1480   27.0020  -23.0760 O   0  0  0  0  0  0  0  0  0  0  0  0
    1.9250   25.7570  -25.1980 C   0  0  0  0  0  0  0  0  0  0  0  0
    2.8200   26.5630  -26.1720 C   0  0  0  0  0  0  0  0  0  0  0  0
    2.8540   24.7560  -24.4480 C   0  0  0  0  0  0  0  0  0  0  0  0
    0.7950   24.9260  -25.9490 C   0  0  2  0  0  0  0  0  0  0  0  0
    1.2570   24.2270  -27.2530 C   0  0  0  0  0  0  0  0  0  0  0  0
    0.2450   23.1500  -27.6620 C   0  0  0  0  0  0  0  0  0  0  0  0
   -1.1870   23.7100  -27.9710 C   0  0  1  0  0  0  0  0  0  0  0  0
   -1.0390   24.5550  -29.2750 C   0  0  0  0  0  0  0  0  0  0  0  0
   -3.2850   21.8814  -32.3155 H   0  0  0  0  0  0  0  0  0  0  0  0
   -2.7489   21.0649  -33.8230 H   0  0  0  0  0  0  0  0  0  0  0  0
   -4.2458   22.0579  -33.8230 H   0  0  0  0  0  0  0  0  0  0  0  0
   -3.7781   19.2618  -32.8199 H   0  0  0  0  0  0  0  0  0  0  0  0
   -4.9007   20.3063  -31.8677 H   0  0  0  0  0  0  0  0  0  0  0  0
   -5.2879   17.8055  -33.6468 H   0  0  0  0  0  0  0  0  0  0  0  0
   -6.2486   18.3366  -35.0687 H   0  0  0  0  0  0  0  0  0  0  0  0
   -4.4627   18.5293  -35.0687 H   0  0  0  0  0  0  0  0  0  0  0  0
   -7.5927   20.2435  -33.9946 H   0  0  0  0  0  0  0  0  0  0  0  0
   -7.0796   19.1164  -32.6774 H   0  0  0  0  0  0  0  0  0  0  0  0
   -7.2973   24.0499  -30.9569 H   0  0  0  0  0  0  0  0  0  0  0  0
   -7.3920   22.8069  -29.6099 H   0  0  0  0  0  0  0  0  0  0  0  0
   -4.7784   23.6054  -30.8534 H   0  0  0  0  0  0  0  0  0  0  0  0
   -5.3588   25.0405  -28.3560 H   0  0  0  0  0  0  0  0  0  0  0  0
   -4.4398   25.5146  -29.8248 H   0  0  0  0  0  0  0  0  0  0  0  0
   -6.2345   25.5905  -29.8248 H   0  0  0  0  0  0  0  0  0  0  0  0
   -5.6263   22.1193  -28.6259 H   0  0  0  0  0  0  0  0  0  0  0  0
   -3.9995   20.5231  -29.5692 H   0  0  0  0  0  0  0  0  0  0  0  0
   -4.0604   21.6387  -30.9551 H   0  0  0  0  0  0  0  0  0  0  0  0
   -1.7239   21.0598  -29.7261 H   0  0  0  0  0  0  0  0  0  0  0  0
   -2.0331   22.7004  -30.3506 H   0  0  0  0  0  0  0  0  0  0  0  0
   -2.0066   21.5538  -26.2101 H   0  0  0  0  0  0  0  0  0  0  0  0
   -2.6223   20.4477  -27.4845 H   0  0  0  0  0  0  0  0  0  0  0  0
   -0.8964   20.9456  -27.4845 H   0  0  0  0  0  0  0  0  0  0  0  0
   -4.1212   22.2473  -27.0093 H   0  0  0  0  0  0  0  0  0  0  0  0
   -5.0263   24.5947  -27.3741 H   0  0  0  0  0  0  0  0  0  0  0  0
   -4.1440   23.8170  -25.9553 H   0  0  0  0  0  0  0  0  0  0  0  0
   -3.0128   25.7018  -28.0306 H   0  0  0  0  0  0  0  0  0  0  0  0
   -3.2416   25.9818  -26.2652 H   0  0  0  0  0  0  0  0  0  0  0  0
   -1.6842   23.9042  -25.9155 H   0  0  0  0  0  0  0  0  0  0  0  0
   -0.3487   27.8231  -26.3621 H   0  0  0  0  0  0  0  0  0  0  0  0
    0.4492   26.8578  -27.6500 H   0  0  0  0  0  0  0  0  0  0  0  0
   -1.3364   27.0533  -27.6500 H   0  0  0  0  0  0  0  0  0  0  0  0
   -1.6030   27.0786  -24.8257 H   0  0  0  0  0  0  0  0  0  0  0  0
   -1.7943   25.3002  -24.3826 H   0  0  0  0  0  0  0  0  0  0  0  0
   -0.4063   26.9153  -22.8424 H   0  0  0  0  0  0  0  0  0  0  0  0
    0.1404   25.2206  -23.2067 H   0  0  0  0  0  0  0  0  0  0  0  0
    1.1131   27.6934  -24.7090 H   0  0  0  0  0  0  0  0  0  0  0  0
    1.6350   26.8140  -22.2480 H   0  0  0  0  0  0  0  0  0  0  0  0
    3.5164   27.1902  -25.5962 H   0  0  0  0  0  0  0  0  0  0  0  0
    3.3906   25.8682  -26.8058 H   0  0  0  0  0  0  0  0  0  0  0  0
    2.1885   27.2030  -26.8058 H   0  0  0  0  0  0  0  0  0  0  0  0
    2.7330   24.8864  -23.3625 H   0  0  0  0  0  0  0  0  0  0  0  0
    2.5841   23.7265  -24.7260 H   0  0  0  0  0  0  0  0  0  0  0  0
    3.9007   24.9484  -24.7260 H   0  0  0  0  0  0  0  0  0  0  0  0
    0.6003   24.1269  -25.2186 H   0  0  0  0  0  0  0  0  0  0  0  0
    1.3381   24.9737  -28.0567 H   0  0  0  0  0  0  0  0  0  0  0  0
    2.2351   23.7542  -27.0804 H   0  0  0  0  0  0  0  0  0  0  0  0
    0.6217   22.6450  -28.5637 H   0  0  0  0  0  0  0  0  0  0  0  0
    0.1431   22.4656  -26.8069 H   0  0  0  0  0  0  0  0  0  0  0  0
   -0.8548   25.6069  -29.0113 H   0  0  0  0  0  0  0  0  0  0  0  0
   -0.1943   24.1718  -29.8663 H   0  0  0  0  0  0  0  0  0  0  0  0
   -1.9636   24.4817  -29.8663 H   0  0  0  0  0  0  0  0  0  0  0  0
  1  2  1  0
  2  3  1  0
  3  4  1  0
  3  5  1  0
  5  6  1  0
  6  7  3  0
  7  8  1  0
  8  9  1  0
  9 10  1  0
  9 11  1  0
 11 12  1  0
 12 13  1  0
 13 14  1  0
 14 15  1  1
 14 16  1  0
 16 17  1  0
 17 18  1  0
 18 19  1  0
 19 20  1  0
 20 21  1  6
 20 22  1  0
 22 23  1  0
 23 24  1  0
 24 25  1  0
 24 26  1  0
 26 27  1  0
 26 28  1  0
 26 29  1  0
 29 30  1  0
 30 31  1  0
 31 32  1  0
 32 33  1  6
 16 11  1  0
 32 19  1  0
 32 14  1  0
 29 20  1  0
  1 34  1  0
  1 35  1  0
  1 36  1  0
  2 37  1  0
  2 38  1  0
  4 39  1  0
  4 40  1  0
  4 41  1  0
  5 42  1  0
  5 43  1  0
  8 44  1  0
  8 45  1  0
  9 46  1  6
 10 47  1  0
 10 48  1  0
 10 49  1  0
 11 50  1  1
 12 51  1  0
 12 52  1  0
 13 53  1  0
 13 54  1  0
 15 55  1  0
 15 56  1  0
 15 57  1  0
 16 58  1  1
 17 59  1  0
 17 60  1  0
 18 61  1  0
 18 62  1  0
 19 63  1  1
 21 64  1  0
 21 65  1  0
 21 66  1  0
 22 67  1  0
 22 68  1  0
 23 69  1  0
 23 70  1  0
 24 71  1  6
 25 72  1  0
 27 73  1  0
 27 74  1  0
 27 75  1  0
 28 76  1  0
 28 77  1  0
 28 78  1  0
 29 79  1  1
 30 80  1  0
 30 81  1  0
 31 82  1  0
 31 83  1  0
 33 84  1  0
 33 85  1  0
 33 86  1  0
M  END
>  <UniqueID>  (4) 
4

>  <SMILES>  (4) 
CCN(C)CC#CC[C@@H](C)[C@H]1CCC2(C)C1CCC1C3(C)CCC(O)C(C)(C)C3CCC12C

>  <Energy>  (4) 
160.38478930154758

>  <Genealogy>  (4) 
CCN(C)CC#CC[C@@H](C)[C@H]1CCC2(C)C1CCC1C3(C)CCC(O)C(C)(C)C3CCC12C (chirality)
CCN(C)CC#CC[C@@H](C)[C@H]1CCC2(C)C1CCC1C3(C)CCC(O)C(C)(C)C3CCC12C (3D coordinates assigned)
CCN(C)CC#CC[C@@H](C)[C@H]1CCC2(C)C1CCC1C3(C)CCC(O)C(C)(C)C3CCC12C (nonaromatic ring conformer: 160.38478930154758 kcal/mol)

>  <smiles>  (4) 
CCN(C)CC#CCC(C)C1CCC2(C)C1CCC1C3(C)CCC(O)C(C)(C)C3CCC12C

>  <score_type>  (4) 
oracle

>  <origin>  (4) 
adg

>  <m_score__min__energy>  (4) 
-9.9399999999999995

>  <m_primary>  (4) 
energy

$$$$
4:0
     RDKit          3D

 78 81  0  0  0  0  0  0  0  0999 V2000
    2.2810   22.6320  -35.7190 C   0  0  0  0  0  0  0  0  0  0  0  0
    0.9420   21.9300  -35.9600 C   0  0  0  0  0  0  0  0  0  0  0  0
   -0.0720   22.2910  -34.9530 N   0  0  0  0  0  0  0  0  0  0  0  0
   -0.5860   21.1280  -34.2110 C   0  0  0  0  0  0  0  0  0  0  0  0
   -1.6980   21.5400  -33.2360 C   0  0  0  0  0  0  0  0  0  0  0  0
   -1.6980   20.6780  -31.9660 C   0  0  0  0  0  0  0  0  0  0  0  0
   -2.7150   21.1410  -31.0210 N   0  0  0  0  0  0  0  0  0  0  0  0
   -4.0380   21.4970  -31.4530 C   0  0  0  0  0  0  0  0  0  0  0  0
   -4.7420   20.6200  -32.2950 C   0  0  0  0  0  0  0  0  0  0  0  0
   -4.1080   19.4910  -32.8610 C   0  0  0  0  0  0  0  0  0  0  0  0
   -4.7980   18.6450  -33.7240 C   0  0  0  0  0  0  0  0  0  0  0  0
   -6.1220   18.9120  -34.0480 C   0  0  0  0  0  0  0  0  0  0  0  0
   -6.7740   20.0090  -33.4860 C   0  0  0  0  0  0  0  0  0  0  0  0
   -6.1100   20.8660  -32.5730 C   0  0  0  0  0  0  0  0  0  0  0  0
   -6.7590   21.9170  -31.9590 N   0  0  0  0  0  0  0  0  0  0  0  0
   -8.2380   21.9760  -31.9710 C   0  0  0  0  0  0  0  0  0  0  0  0
   -6.0300   22.9010  -31.3160 C   0  0  0  0  0  0  0  0  0  0  0  0
   -6.6290   24.1260  -30.9370 C   0  0  0  0  0  0  0  0  0  0  0  0
   -5.9080   25.1020  -30.2620 C   0  0  0  0  0  0  0  0  0  0  0  0
   -4.5650   24.9110  -29.9810 C   0  0  0  0  0  0  0  0  0  0  0  0
   -3.9050   23.7380  -30.3870 C   0  0  0  0  0  0  0  0  0  0  0  0
   -2.5200   23.5990  -30.1870 O   0  0  0  0  0  0  0  0  0  0  0  0
   -1.8980   23.2550  -28.9490 C   0  0  0  0  0  0  0  0  0  0  0  0
   -1.2840   24.5100  -28.2810 C   0  0  0  0  0  0  0  0  0  0  0  0
   -1.7910   24.8650  -26.9130 N   0  0  0  0  0  0  0  0  0  0  0  0
   -3.2430   24.5520  -26.8100 C   0  0  0  0  0  0  0  0  0  0  0  0
   -1.5860   26.3190  -26.6090 C   0  0  0  0  0  0  0  0  0  0  0  0
   -0.2000   26.5980  -25.9980 C   0  0  0  0  0  0  0  0  0  0  0  0
   -0.0280   25.9270  -24.6690 N   0  0  0  0  0  0  0  0  0  0  0  0
   -0.4160   26.8630  -23.5840 C   0  0  0  0  0  0  0  0  0  0  0  0
    1.4040   25.5860  -24.4830 C   0  0  0  0  0  0  0  0  0  0  0  0
   -0.8590   24.6860  -24.5580 C   0  0  0  0  0  0  0  0  0  0  0  0
   -1.0570   23.9990  -25.9250 C   0  0  0  0  0  0  0  0  0  0  0  0
   -4.6440   22.7070  -31.0390 C   0  0  0  0  0  0  0  0  0  0  0  0
    2.4571   22.7243  -34.6371 H   0  0  0  0  0  0  0  0  0  0  0  0
    3.0910   22.0426  -36.1734 H   0  0  0  0  0  0  0  0  0  0  0  0
    2.2570   23.6335  -36.1734 H   0  0  0  0  0  0  0  0  0  0  0  0
    0.5684   22.2141  -36.9548 H   0  0  0  0  0  0  0  0  0  0  0  0
    1.1144   20.8460  -35.8881 H   0  0  0  0  0  0  0  0  0  0  0  0
   -0.8720   22.7810  -35.4200 H   0  0  0  0  0  0  0  0  0  0  0  0
   -0.9887   20.3954  -34.9259 H   0  0  0  0  0  0  0  0  0  0  0  0
    0.2408   20.6904  -33.6323 H   0  0  0  0  0  0  0  0  0  0  0  0
   -1.5487   22.5919  -32.9512 H   0  0  0  0  0  0  0  0  0  0  0  0
   -2.6639   21.3981  -33.7428 H   0  0  0  0  0  0  0  0  0  0  0  0
   -1.9092   19.6337  -32.2395 H   0  0  0  0  0  0  0  0  0  0  0  0
   -0.7109   20.7575  -31.4871 H   0  0  0  0  0  0  0  0  0  0  0  0
   -2.4450   21.3200  -30.0280 H   0  0  0  0  0  0  0  0  0  0  0  0
   -3.0568   19.2784  -32.6166 H   0  0  0  0  0  0  0  0  0  0  0  0
   -4.2946   17.7644  -34.1497 H   0  0  0  0  0  0  0  0  0  0  0  0
   -6.6578   18.2561  -34.7500 H   0  0  0  0  0  0  0  0  0  0  0  0
   -7.8208   20.2126  -33.7556 H   0  0  0  0  0  0  0  0  0  0  0  0
   -8.6128   21.9909  -30.9369 H   0  0  0  0  0  0  0  0  0  0  0  0
   -8.5644   22.8879  -32.4925 H   0  0  0  0  0  0  0  0  0  0  0  0
   -8.6360   21.0930  -32.4925 H   0  0  0  0  0  0  0  0  0  0  0  0
   -7.6858   24.3084  -31.1818 H   0  0  0  0  0  0  0  0  0  0  0  0
   -6.4058   26.0316  -29.9488 H   0  0  0  0  0  0  0  0  0  0  0  0
   -4.0085   25.6862  -29.4338 H   0  0  0  0  0  0  0  0  0  0  0  0
   -2.6501   22.8182  -28.2755 H   0  0  0  0  0  0  0  0  0  0  0  0
   -1.0955   22.5286  -29.1448 H   0  0  0  0  0  0  0  0  0  0  0  0
   -0.1989   24.3478  -28.2021 H   0  0  0  0  0  0  0  0  0  0  0  0
   -1.5785   25.3520  -28.9247 H   0  0  0  0  0  0  0  0  0  0  0  0
   -3.5304   24.4900  -25.7500 H   0  0  0  0  0  0  0  0  0  0  0  0
   -3.8249   25.3453  -27.3019 H   0  0  0  0  0  0  0  0  0  0  0  0
   -3.4464   23.5894  -27.3019 H   0  0  0  0  0  0  0  0  0  0  0  0
   -1.6832   26.8928  -27.5424 H   0  0  0  0  0  0  0  0  0  0  0  0
   -2.3455   26.6194  -25.8722 H   0  0  0  0  0  0  0  0  0  0  0  0
    0.5732   26.2262  -26.6865 H   0  0  0  0  0  0  0  0  0  0  0  0
   -0.1077   27.6835  -25.8455 H   0  0  0  0  0  0  0  0  0  0  0  0
   -0.2216   26.3940  -22.6082 H   0  0  0  0  0  0  0  0  0  0  0  0
    0.1727   27.7882  -23.6699 H   0  0  0  0  0  0  0  0  0  0  0  0
   -1.4866   27.1004  -23.6699 H   0  0  0  0  0  0  0  0  0  0  0  0
    1.6314   25.5318  -23.4081 H   0  0  0  0  0  0  0  0  0  0  0  0
    1.6131   24.6130  -24.9515 H   0  0  0  0  0  0  0  0  0  0  0  0
    2.0292   26.3604  -24.9515 H   0  0  0  0  0  0  0  0  0  0  0  0
   -0.3580   23.9829  -23.8764 H   0  0  0  0  0  0  0  0  0  0  0  0
   -1.8495   24.9734  -24.1755 H   0  0  0  0  0  0  0  0  0  0  0  0
   -0.0689   23.7521  -26.3405 H   0  0  0  0  0  0  0  0  0  0  0  0
   -1.6664   23.0986  -25.7576 H   0  0  0  0  0  0  0  0  0  0  0  0
  1  2  1  0
  2  3  1  0
  3  4  1  0
  4  5  1  0
  5  6  1  0
  6  7  1  0
  7  8  1  0
  8  9  2  0
  9 10  1  0
 10 11  2  0
 11 12  1  0
 12 13  2  0
 13 14  1  0
 14 15  2  0
 15 16  1  0
 15 17  1  0
 17 18  2  0
 18 19  1  0
 19 20  2  0
 20 21  1  0
 21 22  1  0
 22 23  1  0
 23 24  1  0
 24 25  1  0
 25 26  1  0
 25 27  1  0
 27 28  1  0
 28 29  1  0
 29 30  1  0
 29 31  1  0
 29 32  1  0
 32 33  1  0
 21 34  2  0
 34  8  1  0
 14  9  1  0
 34 17  1  0
 33 25  1  0
  1 35  1  0
  1 36  1  0
  1 37  1  0
  2 38  1  0
  2 39  1  0
  3 40  1  0
  4 41  1  0
  4 42  1  0
  5 43  1  0
  5 44  1  0
  6 45  1  0
  6 46  1  0
  7 47  1  0
 10 48  1  0
 11 49  1  0
 12 50  1  0
 13 51  1  0
 16 52  1  0
 16 53  1  0
 16 54  1  0
 18 55  1  0
 19 56  1  0
 20 57  1  0
 23 58  1  0
 23 59  1  0
 24 60  1  0
 24 61  1  0
 26 62  1  0
 26 63  1  0
 26 64  1  0
 27 65  1  0
 27 66  1  0
 28 67  1  0
 28 68  1  0
 30 69  1  0
 30 70  1  0
 30 71  1  0
 31 72  1  0
 31 73  1  0
 31 74  1  0
 32 75  1  0
 32 76  1  0
 33 77  1  0
 33 78  1  0
M  CHG  3  15   1  25   1  29   1
M  END
>  <UniqueID>  (5) 
5

>  <SMILES>  (5) 
CCNCCCNc1c2ccccc2[n+](C)c2cccc(OCC[N+]3(C)CC[N+](C)(C)CC3)c12

>  <Energy>  (5) 
129.44909687541025

>  <Genealogy>  (5) 
CCNCCCNc1c2ccccc2[n+](C)c2cccc(OCC[N+]3(C)CC[N+](C)(C)CC3)c12 (3D coordinates assigned)
CCNCCCNc1c2ccccc2[n+](C)c2cccc(OCC[N+]3(C)CC[N+](C)(C)CC3)c12 (nonaromatic ring conformer: 129.44909687541025 kcal/mol)

>  <smiles>  (5) 
CCNCCCNc1c2ccccc2[n+](C)c2cccc(OCC[N+]3(C)CC[N+](C)(C)CC3)c12

>  <score_type>  (5) 
oracle

>  <origin>  (5) 
adg

>  <m_score__min__energy>  (5) 
-7.8799999999999999

>  <m_primary>  (5) 
energy

$$$$
5:0
     RDKit          3D

 37 38  0  0  0  0  0  0  0  0999 V2000
   -0.9641   23.6151  -30.2581 H   0  0  0  0  0  0  0  0  0  0  0  0
   -0.9840   24.0980  -29.2700 C   0  0  0  0  0  0  0  0  0  0  0  0
    0.1140   24.2470  -28.5950 N   0  0  0  0  0  0  0  0  0  0  0  0
    0.4350   25.3680  -27.8460 O   0  0  0  0  0  0  0  0  0  0  0  0
    0.2400   25.4600  -26.4350 C   0  0  0  0  0  0  0  0  0  0  0  0
    1.1721   25.7963  -25.9575 H   0  0  0  0  0  0  0  0  0  0  0  0
   -0.0402   24.4727  -26.0391 H   0  0  0  0  0  0  0  0  0  0  0  0
   -0.8690   26.4570  -26.1390 C   0  0  0  0  0  0  0  0  0  0  0  0
   -0.9863   26.5625  -25.0504 H   0  0  0  0  0  0  0  0  0  0  0  0
   -0.6111   27.4329  -26.5762 H   0  0  0  0  0  0  0  0  0  0  0  0
   -1.8120   26.0970  -26.5762 H   0  0  0  0  0  0  0  0  0  0  0  0
   -2.2770   24.5860  -28.6980 C   0  0  0  0  0  0  0  0  0  0  0  0
   -2.8014   23.7440  -28.2225 H   0  0  0  0  0  0  0  0  0  0  0  0
   -2.0608   25.3703  -27.9577 H   0  0  0  0  0  0  0  0  0  0  0  0
   -3.1080   25.1380  -29.7190 O   0  0  0  0  0  0  0  0  0  0  0  0
   -4.1810   24.4740  -30.3380 C   0  0  0  0  0  0  0  0  0  0  0  0
   -5.4500   25.0600  -30.2670 C   0  0  0  0  0  0  0  0  0  0  0  0
   -5.5810   26.0144  -29.7360 H   0  0  0  0  0  0  0  0  0  0  0  0
   -6.5520   24.4430  -30.8650 C   0  0  0  0  0  0  0  0  0  0  0  0
   -7.5460   24.9087  -30.7941 H   0  0  0  0  0  0  0  0  0  0  0  0
   -6.3950   23.2290  -31.5570 C   0  0  0  0  0  0  0  0  0  0  0  0
   -7.4780   22.5700  -32.1560 O   0  0  0  0  0  0  0  0  0  0  0  0
   -7.6690   21.1810  -32.1880 C   0  0  0  0  0  0  0  0  0  0  0  0
   -8.7010   20.5520  -31.4640 C   0  0  0  0  0  0  0  0  0  0  0  0
   -9.3745   21.1529  -30.8353 H   0  0  0  0  0  0  0  0  0  0  0  0
   -8.8720   19.1660  -31.5420 C   0  0  0  0  0  0  0  0  0  0  0  0
   -9.6737   18.6784  -30.9680 H   0  0  0  0  0  0  0  0  0  0  0  0
   -8.0260   18.4000  -32.3480 C   0  0  0  0  0  0  0  0  0  0  0  0
   -8.1577   17.3094  -32.4041 H   0  0  0  0  0  0  0  0  0  0  0  0
   -7.0120   19.0210  -33.0830 C   0  0  0  0  0  0  0  0  0  0  0  0
   -6.3498   18.4188  -33.7224 H   0  0  0  0  0  0  0  0  0  0  0  0
   -6.8380   20.4060  -33.0070 C   0  0  0  0  0  0  0  0  0  0  0  0
   -6.0436   20.8901  -33.5940 H   0  0  0  0  0  0  0  0  0  0  0  0
   -5.1310   22.6330  -31.6120 C   0  0  0  0  0  0  0  0  0  0  0  0
   -5.0038   21.6712  -32.1303 H   0  0  0  0  0  0  0  0  0  0  0  0
   -4.0280   23.2490  -31.0140 C   0  0  0  0  0  0  0  0  0  0  0  0
   -3.0371   22.7748  -31.0719 H   0  0  0  0  0  0  0  0  0  0  0  0
  1  2  1  0
  2  3  2  0
  3  4  1  0
  4  5  1  0
  5  6  1  0
  5  7  1  0
  5  8  1  0
  8  9  1  0
  8 10  1  0
  8 11  1  0
  2 12  1  0
 12 13  1  0
 12 14  1  0
 12 15  1  0
 15 16  1  0
 16 17  2  0
 17 18  1  0
 17 19  1  0
 19 20  1  0
 19 21  2  0
 21 22  1  0
 22 23  1  0
 23 24  2  0
 24 25  1  0
 24 26  1  0
 26 27  1  0
 26 28  2  0
 28 29  1  0
 28 30  1  0
 30 31  1  0
 30 32  2  0
 32 33  1  0
 21 34  1  0
 34 35  1  0
 34 36  2  0
 36 37  1  0
 36 16  1  0
 32 23  1  0
M  END
>  <UniqueID>  (6) 
6

>  <SMILES>  (6) 
CCO/N=C/COc1ccc(Oc2ccccc2)cc1

>  <Energy>  (6) 
39.28837881761705

>  <Genealogy>  (6) 
CCO/N=C/COc1ccc(Oc2ccccc2)cc1 (cis-trans isomerization)
CCO/N=C/COc1ccc(Oc2ccccc2)cc1 (3D coordinates assigned)
CCO/N=C/COc1ccc(Oc2ccccc2)cc1 (optimized conformer: 39.28837881761705 kcal/mol)

>  <smiles>  (6) 
CCON=CCOc1ccc(Oc2ccccc2)cc1

>  <score_type>  (6) 
oracle

>  <origin>  (6) 
adg

>  <m_score__min__energy>  (6) 
-7.46

>  <m_primary>  (6) 
energy

$$$$
6:0
     RDKit          3D

 68 70  0  0  0  0  0  0  0  0999 V2000
   -3.3510   18.8140  -26.2160 C   0  0  0  0  0  0  0  0  0  0  0  0
   -1.9930   18.9210  -26.9060 C   0  0  0  0  0  0  0  0  0  0  0  0
   -1.7830   20.2970  -27.4140 N   0  0  0  0  0  0  0  0  0  0  0  0
   -1.2650   21.1890  -26.3520 C   0  0  0  0  0  0  0  0  0  0  0  0
   -0.2020   22.1290  -26.9110 C   0  0  0  0  0  0  0  0  0  0  0  0
   -3.0260   20.8460  -28.0090 C   0  0  0  0  0  0  0  0  0  0  0  0
   -2.9150   20.8710  -29.5390 C   0  0  0  0  0  0  0  0  0  0  0  0
   -3.0850   22.1910  -30.0300 O   0  0  0  0  0  0  0  0  0  0  0  0
   -2.6580   23.1370  -29.0720 C   0  0  0  0  0  0  0  0  0  0  0  0
   -3.4120   24.4500  -29.2830 C   0  0  0  0  0  0  0  0  0  0  0  0
   -4.1080   24.4290  -30.5740 N   0  0  0  0  0  0  0  0  0  0  0  0
   -5.3810   25.1570  -30.5030 C   0  0  0  0  0  0  0  0  0  0  0  0
   -6.4950   24.3920  -31.2380 C   0  0  0  0  0  0  0  0  0  0  0  0
   -5.9700   23.4250  -32.3290 C   0  0  0  0  0  0  0  0  0  0  0  0
   -5.0300   22.4320  -31.7700 N   0  0  0  0  0  0  0  0  0  0  0  0
   -5.2570   21.1130  -32.3540 C   0  0  0  0  0  0  0  0  0  0  0  0
   -4.2090   20.4110  -33.0210 C   0  0  0  0  0  0  0  0  0  0  0  0
   -2.8920   20.9340  -33.1340 C   0  0  0  0  0  0  0  0  0  0  0  0
   -1.8670   20.2020  -33.7270 C   0  0  0  0  0  0  0  0  0  0  0  0
   -2.1100   18.9280  -34.2090 C   0  0  0  0  0  0  0  0  0  0  0  0
   -3.3910   18.3940  -34.1420 C   0  0  0  0  0  0  0  0  0  0  0  0
   -4.4760   19.1350  -33.5970 C   0  0  0  0  0  0  0  0  0  0  0  0
   -5.7590   18.6290  -33.6140 N   0  0  0  0  0  0  0  0  0  0  0  0
   -6.0840   17.4750  -34.4860 C   0  0  0  0  0  0  0  0  0  0  0  0
   -6.7480   19.2170  -32.8530 C   0  0  0  0  0  0  0  0  0  0  0  0
   -7.9910   18.5640  -32.6360 C   0  0  0  0  0  0  0  0  0  0  0  0
   -9.0270   19.1890  -31.9490 C   0  0  0  0  0  0  0  0  0  0  0  0
   -8.8490   20.4660  -31.4400 C   0  0  0  0  0  0  0  0  0  0  0  0
   -7.6210   21.1100  -31.5780 C   0  0  0  0  0  0  0  0  0  0  0  0
   -6.5370   20.4930  -32.2580 C   0  0  0  0  0  0  0  0  0  0  0  0
   -3.2099   18.8251  -25.1251 H   0  0  0  0  0  0  0  0  0  0  0  0
   -3.9812   19.6653  -26.5129 H   0  0  0  0  0  0  0  0  0  0  0  0
   -3.8401   17.8745  -26.5129 H   0  0  0  0  0  0  0  0  0  0  0  0
   -1.1991   18.6748  -26.1855 H   0  0  0  0  0  0  0  0  0  0  0  0
   -1.9643   18.2183  -27.7518 H   0  0  0  0  0  0  0  0  0  0  0  0
   -2.0949   21.7842  -25.9433 H   0  0  0  0  0  0  0  0  0  0  0  0
   -0.8126   20.5728  -25.5610 H   0  0  0  0  0  0  0  0  0  0  0  0
    0.3383   22.6068  -26.0805 H   0  0  0  0  0  0  0  0  0  0  0  0
    0.5062   21.5563  -27.5279 H   0  0  0  0  0  0  0  0  0  0  0  0
   -0.6838   22.9019  -27.5279 H   0  0  0  0  0  0  0  0  0  0  0  0
   -3.8782   20.2149  -27.7168 H   0  0  0  0  0  0  0  0  0  0  0  0
   -3.1760   21.8725  -27.6432 H   0  0  0  0  0  0  0  0  0  0  0  0
   -1.9229   20.4998  -29.8357 H   0  0  0  0  0  0  0  0  0  0  0  0
   -3.7029   20.2307  -29.9624 H   0  0  0  0  0  0  0  0  0  0  0  0
   -2.8635   22.7542  -28.0614 H   0  0  0  0  0  0  0  0  0  0  0  0
   -1.5778   23.3117  -29.1846 H   0  0  0  0  0  0  0  0  0  0  0  0
   -4.1471   24.5814  -28.4753 H   0  0  0  0  0  0  0  0  0  0  0  0
   -2.6939   25.2833  -29.2743 H   0  0  0  0  0  0  0  0  0  0  0  0
   -3.4980   24.9470  -31.2500 H   0  0  0  0  0  0  0  0  0  0  0  0
   -5.6659   25.2815  -29.4478 H   0  0  0  0  0  0  0  0  0  0  0  0
   -5.2517   26.1371  -30.9854 H   0  0  0  0  0  0  0  0  0  0  0  0
   -7.0610   23.8068  -30.4983 H   0  0  0  0  0  0  0  0  0  0  0  0
   -7.1193   25.1419  -31.7459 H   0  0  0  0  0  0  0  0  0  0  0  0
   -6.8236   22.8954  -32.7772 H   0  0  0  0  0  0  0  0  0  0  0  0
   -5.4342   24.0180  -33.0849 H   0  0  0  0  0  0  0  0  0  0  0  0
   -4.0460   22.7470  -31.8840 H   0  0  0  0  0  0  0  0  0  0  0  0
   -5.1280   22.3960  -30.7320 H   0  0  0  0  0  0  0  0  0  0  0  0
   -2.6779   21.9400  -32.7440 H   0  0  0  0  0  0  0  0  0  0  0  0
   -0.8607   20.6379  -33.8126 H   0  0  0  0  0  0  0  0  0  0  0  0
   -1.2899   18.3385  -34.6448 H   0  0  0  0  0  0  0  0  0  0  0  0
   -3.5700   17.3761  -34.5186 H   0  0  0  0  0  0  0  0  0  0  0  0
   -6.3298   16.6024  -33.8630 H   0  0  0  0  0  0  0  0  0  0  0  0
   -6.9462   17.7266  -35.1210 H   0  0  0  0  0  0  0  0  0  0  0  0
   -5.2172   17.2397  -35.1210 H   0  0  0  0  0  0  0  0  0  0  0  0
   -8.1373   17.5433  -33.0190 H   0  0  0  0  0  0  0  0  0  0  0  0
   -9.9868   18.6700  -31.8098 H   0  0  0  0  0  0  0  0  0  0  0  0
   -9.6792   20.9723  -30.9258 H   0  0  0  0  0  0  0  0  0  0  0  0
   -7.4884   22.1155  -31.1522 H   0  0  0  0  0  0  0  0  0  0  0  0
  1  2  1  0
  2  3  1  0
  3  4  1  0
  4  5  1  0
  3  6  1  0
  6  7  1  0
  7  8  1  0
  8  9  1  0
  9 10  1  0
 10 11  1  0
 11 12  1  0
 12 13  1  0
 13 14  1  0
 14 15  1  0
 15 16  1  0
 16 17  2  0
 17 18  1  0
 18 19  2  0
 19 20  1  0
 20 21  2  0
 21 22  1  0
 22 23  2  0
 23 24  1  0
 23 25  1  0
 25 26  2  0
 26 27  1  0
 27 28  2  0
 28 29  1  0
 29 30  2  0
 30 16  1  0
 22 17  1  0
 30 25  1  0
  1 31  1  0
  1 32  1  0
  1 33  1  0
  2 34  1  0
  2 35  1  0
  4 36  1  0
  4 37  1  0
  5 38  1  0
  5 39  1  0
  5 40  1  0
  6 41  1  0
  6 42  1  0
  7 43  1  0
  7 44  1  0
  9 45  1  0
  9 46  1  0
 10 47  1  0
 10 48  1  0
 11 49  1  0
 12 50  1  0
 12 51  1  0
 13 52  1  0
 13 53  1  0
 14 54  1  0
 14 55  1  0
 15 56  1  0
 15 57  1  0
 18 58  1  0
 19 59  1  0
 20 60  1  0
 21 61  1  0
 24 62  1  0
 24 63  1  0
 24 64  1  0
 26 65  1  0
 27 66  1  0
 28 67  1  0
 29 68  1  0
M  CHG  2  15   1  23   1
M  END
>  <UniqueID>  (7) 
7

>  <SMILES>  (7) 
CCN(CC)CCOCCNCCC[NH2+]c1c2ccccc2[n+](C)c2ccccc12

>  <Energy>  (7) 
93.72704572669083

>  <Genealogy>  (7) 
CCN(CC)CCOCCNCCC[NH2+]c1c2ccccc2[n+](C)c2ccccc12 (protonated)
CCN(CC)CCOCCNCCC[NH2+]c1c2ccccc2[n+](C)c2ccccc12 (3D coordinates assigned)
CCN(CC)CCOCCNCCC[NH2+]c1c2ccccc2[n+](C)c2ccccc12 (optimized conformer: 93.72704572669083 kcal/mol)

>  <smiles>  (7) 
CCN(CC)CCOCCNCCCNc1c2ccccc2[n+](C)c2ccccc12

>  <score_type>  (7) 
oracle

>  <origin>  (7) 
adg

>  <m_score__min__energy>  (7) 
-9.1099999999999994

>  <m_primary>  (7) 
energy

$$$$
7:0
     RDKit          3D

 41 44  0  0  0  0  0  0  0  0999 V2000
   -9.0870   19.5470  -32.0750 C   0  0  0  0  0  0  0  0  0  0  0  0
   -7.8040   19.1220  -32.7190 C   0  0  0  0  0  0  0  0  0  0  0  0
   -7.6100   17.8640  -33.1580 N   0  0  0  0  0  0  0  0  0  0  0  0
   -6.3810   17.7880  -33.6370 N   0  0  0  0  0  0  0  0  0  0  0  0
   -5.8030   16.5540  -34.1590 C   0  0  0  0  0  0  0  0  0  0  0  0
   -5.7550   18.9760  -33.4940 C   0  0  0  0  0  0  0  0  0  0  0  0
   -4.3150   19.2100  -33.8440 C   0  0  0  0  0  0  0  0  0  0  0  0
   -6.6580   19.8880  -32.9500 C   0  0  0  0  0  0  0  0  0  0  0  0
   -6.4340   21.3570  -32.6180 C   0  0  0  0  0  0  0  0  0  0  0  0
   -6.0960   21.6430  -31.1970 N   0  0  0  0  0  0  0  0  0  0  0  0
   -6.0810   23.0800  -30.8630 C   0  0  0  0  0  0  0  0  0  0  0  0
   -4.6180   23.5220  -30.8820 C   0  0  1  0  0  0  0  0  0  0  0  0
   -4.2500   24.5430  -29.7660 C   0  0  0  0  0  0  0  0  0  0  0  0
   -2.7620   24.5550  -29.5570 C   0  0  0  0  0  0  0  0  0  0  0  0
   -2.0350   25.5240  -28.9710 N   0  0  0  0  0  0  0  0  0  0  0  0
   -0.7920   25.0740  -28.8400 N   0  0  0  0  0  0  0  0  0  0  0  0
   -0.7240   23.8110  -29.3200 C   0  0  0  0  0  0  0  0  0  0  0  0
   -1.9730   23.4640  -29.7720 C   0  0  0  0  0  0  0  0  0  0  0  0
   -2.5160   22.2280  -30.3190 C   0  0  0  0  0  0  0  0  0  0  0  0
   -1.8360   21.1690  -30.3820 O   0  0  0  0  0  0  0  0  0  0  0  0
   -3.8860   22.2680  -30.7430 N   0  0  0  0  0  0  0  0  0  0  0  0
   -4.7770   21.1280  -30.7950 C   0  0  0  0  0  0  0  0  0  0  0  0
   -8.9777   19.5108  -30.9810 H   0  0  0  0  0  0  0  0  0  0  0  0
   -9.3305   20.5738  -32.3854 H   0  0  0  0  0  0  0  0  0  0  0  0
   -9.8954   18.8686  -32.3854 H   0  0  0  0  0  0  0  0  0  0  0  0
   -5.5004   15.9080  -33.3217 H   0  0  0  0  0  0  0  0  0  0  0  0
   -6.5498   16.0309  -34.7744 H   0  0  0  0  0  0  0  0  0  0  0  0
   -4.9231   16.7929  -34.7744 H   0  0  0  0  0  0  0  0  0  0  0  0
   -3.7243   19.3060  -32.9211 H   0  0  0  0  0  0  0  0  0  0  0  0
   -3.9384   18.3613  -34.4338 H   0  0  0  0  0  0  0  0  0  0  0  0
   -4.2265   20.1343  -34.4338 H   0  0  0  0  0  0  0  0  0  0  0  0
   -5.6082   21.7250  -33.2446 H   0  0  0  0  0  0  0  0  0  0  0  0
   -7.3920   21.8622  -32.8107 H   0  0  0  0  0  0  0  0  0  0  0  0
   -6.6580   23.6480  -31.6076 H   0  0  0  0  0  0  0  0  0  0  0  0
   -6.5355   23.2612  -29.8778 H   0  0  0  0  0  0  0  0  0  0  0  0
   -4.3736   24.0723  -31.8025 H   0  0  0  0  0  0  0  0  0  0  0  0
   -4.5848   25.5472  -30.0651 H   0  0  0  0  0  0  0  0  0  0  0  0
   -4.7459   24.2506  -28.8287 H   0  0  0  0  0  0  0  0  0  0  0  0
    0.1731   23.1748  -29.3439 H   0  0  0  0  0  0  0  0  0  0  0  0
   -4.4145   20.3963  -31.5321 H   0  0  0  0  0  0  0  0  0  0  0  0
   -4.8295   20.6208  -29.8203 H   0  0  0  0  0  0  0  0  0  0  0  0
  1  2  1  0
  2  3  2  0
  3  4  1  0
  4  5  1  0
  4  6  1  0
  6  7  1  0
  6  8  2  0
  8  9  1  0
  9 10  1  0
 10 11  1  0
 11 12  1  0
 12 13  1  0
 13 14  1  0
 14 15  1  0
 15 16  1  0
 16 17  2  0
 17 18  1  0
 18 19  1  0
 19 20  2  0
 19 21  1  0
 21 22  1  0
  8  2  1  0
 22 10  1  0
 21 12  1  0
 18 14  2  0
  1 23  1  0
  1 24  1  0
  1 25  1  0
  5 26  1  0
  5 27  1  0
  5 28  1  0
  7 29  1  0
  7 30  1  0
  7 31  1  0
  9 32  1  0
  9 33  1  0
 11 34  1  0
 11 35  1  0
 12 36  1  6
 13 37  1  0
 13 38  1  0
 17 39  1  0
 22 40  1  0
 22 41  1  0
M  CHG  1  15  -1
M  END
>  <UniqueID>  (8) 
8

>  <SMILES>  (8) 
Cc1nn(C)c(C)c1CN1C[C@H]2Cc3[n-]ncc3C(=O)N2C1

>  <Energy>  (8) 
116.22225566093287

>  <Genealogy>  (8) 
Cc1nn(C)c(C)c1CN1CC2Cc3[n-]ncc3C(=O)N2C1 (protonated)
Cc1nn(C)c(C)c1CN1C[C@H]2Cc3[n-]ncc3C(=O)N2C1 (chirality)
Cc1nn(C)c(C)c1CN1C[C@H]2Cc3[n-]ncc3C(=O)N2C1 (3D coordinates assigned)
Cc1nn(C)c(C)c1CN1C[C@H]2Cc3[n-]ncc3C(=O)N2C1 (nonaromatic ring conformer: 116.22225566093287 kcal/mol)

>  <smiles>  (8) 
Cc1nn(C)c(C)c1CN1CC2Cc3[nH]ncc3C(=O)N2C1

>  <score_type>  (8) 
oracle

>  <origin>  (8) 
adg

>  <m_score__min__energy>  (8) 
-9.3499999999999996

>  <m_primary>  (8) 
energy

$$$$
8:0
     RDKit          3D

 36 37  0  0  0  0  0  0  0  0999 V2000
   -9.1700   21.5750  -31.9620 C   0  0  0  0  0  0  0  0  0  0  0  0
   -9.0680   20.0910  -31.6210 C   0  0  0  0  0  0  0  0  0  0  0  0
   -8.2380   19.3370  -32.6700 C   0  0  0  0  0  0  0  0  0  0  0  0
   -6.7230   19.3480  -32.3400 C   0  0  0  0  0  0  0  0  0  0  0  0
   -5.8420   19.7910  -33.4470 N   0  0  2  0  0  0  0  0  0  0  0  0
   -5.6510   18.7630  -34.4810 C   0  0  0  0  0  0  0  0  0  0  0  0
   -4.3010   20.4020  -32.8840 S   0  0  0  0  0  0  0  0  0  0  0  0
   -3.6410   19.4070  -31.9700 O   0  0  0  0  0  0  0  0  0  0  0  0
   -3.3770   20.6760  -34.0380 O   0  0  0  0  0  0  0  0  0  0  0  0
   -4.5670   21.8980  -31.9940 C   0  0  0  0  0  0  0  0  0  0  0  0
   -3.4630   22.6740  -31.5620 C   0  0  0  0  0  0  0  0  0  0  0  0
   -3.6570   23.8280  -30.8540 N   0  0  0  0  0  0  0  0  0  0  0  0
   -4.9230   24.2180  -30.5680 C   0  0  0  0  0  0  0  0  0  0  0  0
   -5.2790   25.3160  -29.8840 N   0  0  0  0  0  0  0  0  0  0  0  0
   -6.6310   25.2890  -29.8410 C   0  0  0  0  0  0  0  0  0  0  0  0
   -7.1280   24.1670  -30.5030 C   0  0  0  0  0  0  0  0  0  0  0  0
   -6.0140   23.4980  -30.9590 C   0  0  0  0  0  0  0  0  0  0  0  0
   -5.8750   22.3180  -31.6800 C   0  0  0  0  0  0  0  0  0  0  0  0
   -9.2104   22.1627  -31.0331 H   0  0  0  0  0  0  0  0  0  0  0  0
   -8.2905   21.8775  -32.5494 H   0  0  0  0  0  0  0  0  0  0  0  0
  -10.0826   21.7544  -32.5494 H   0  0  0  0  0  0  0  0  0  0  0  0
   -8.5886   19.9809  -30.6371 H   0  0  0  0  0  0  0  0  0  0  0  0
  -10.0824   19.6658  -31.6075 H   0  0  0  0  0  0  0  0  0  0  0  0
   -8.5836   18.2935  -32.7113 H   0  0  0  0  0  0  0  0  0  0  0  0
   -8.3758   19.8441  -33.6364 H   0  0  0  0  0  0  0  0  0  0  0  0
   -6.5648   20.0243  -31.4870 H   0  0  0  0  0  0  0  0  0  0  0  0
   -6.4478   18.3043  -32.1281 H   0  0  0  0  0  0  0  0  0  0  0  0
   -6.3250   20.5990  -33.9070 H   0  0  0  0  0  0  0  0  0  0  0  0
   -5.4702   17.7897  -34.0014 H   0  0  0  0  0  0  0  0  0  0  0  0
   -6.5530   18.7011  -35.1075 H   0  0  0  0  0  0  0  0  0  0  0  0
   -4.7869   19.0292  -35.1075 H   0  0  0  0  0  0  0  0  0  0  0  0
   -2.4402   22.3452  -31.7983 H   0  0  0  0  0  0  0  0  0  0  0  0
   -4.6480   26.0370  -29.4690 H   0  0  0  0  0  0  0  0  0  0  0  0
   -7.2546   26.0503  -29.3496 H   0  0  0  0  0  0  0  0  0  0  0  0
   -8.1816   23.8787  -30.6329 H   0  0  0  0  0  0  0  0  0  0  0  0
   -6.7528   21.7340  -31.9937 H   0  0  0  0  0  0  0  0  0  0  0  0
  1  2  1  0
  2  3  1  0
  3  4  1  0
  4  5  1  0
  5  6  1  0
  5  7  1  0
  7  8  2  0
  7  9  2  0
  7 10  1  0
 10 11  2  0
 11 12  1  0
 12 13  2  0
 13 14  1  0
 14 15  1  0
 15 16  2  0
 16 17  1  0
 17 18  2  0
 18 10  1  0
 17 13  1  0
  1 19  1  0
  1 20  1  0
  1 21  1  0
  2 22  1  0
  2 23  1  0
  3 24  1  0
  3 25  1  0
  4 26  1  0
  4 27  1  0
  5 28  1  6
  6 29  1  0
  6 30  1  0
  6 31  1  0
 11 32  1  0
 14 33  1  0
 15 34  1  0
 16 35  1  0
 18 36  1  0
M  CHG  1   5   1
M  END
>  <UniqueID>  (9) 
9

>  <SMILES>  (9) 
CCCC[N@H+](C)S(=O)(=O)c1cnc2[nH]ccc2c1

>  <Energy>  (9) 
68.9084346456871

>  <Genealogy>  (9) 
CCCC[NH+](C)S(=O)(=O)c1cnc2[nH]ccc2c1 (protonated)
CCCC[N@H+](C)S(=O)(=O)c1cnc2[nH]ccc2c1 (chirality)
CCCC[N@H+](C)S(=O)(=O)c1cnc2[nH]ccc2c1 (3D coordinates assigned)
CCCC[N@H+](C)S(=O)(=O)c1cnc2[nH]ccc2c1 (optimized conformer: 68.9084346456871 kcal/mol)

>  <smiles>  (9) 
CCCCN(C)S(=O)(=O)c1cnc2[nH]ccc2c1

>  <score_type>  (9) 
oracle

>  <origin>  (9) 
adg

>  <m_score__min__energy>  (9) 
-7.1200000000000001

>  <m_primary>  (9) 
energy

$$$$
9:0
     RDKit          3D

 38 40  0  0  0  0  0  0  0  0999 V2000
   -8.3100   22.1380  -30.4870 C   0  0  0  0  0  0  0  0  0  0  0  0
   -7.5030   21.4710  -31.5090 N   0  0  0  0  0  0  0  0  0  0  0  0
   -6.3170   21.8760  -32.0290 C   0  0  0  0  0  0  0  0  0  0  0  0
   -5.4720   22.9670  -31.5000 C   0  0  0  0  0  0  0  0  0  0  0  0
   -4.1680   22.6860  -31.0660 C   0  0  0  0  0  0  0  0  0  0  0  0
   -3.3780   23.7140  -30.5450 C   0  0  0  0  0  0  0  0  0  0  0  0
   -3.8780   24.9750  -30.4450 N   0  0  0  0  0  0  0  0  0  0  0  0
   -5.1450   25.2710  -30.8390 C   0  0  0  0  0  0  0  0  0  0  0  0
   -5.9660   24.2710  -31.3670 C   0  0  0  0  0  0  0  0  0  0  0  0
   -6.0420   21.2440  -33.1880 N   0  0  0  0  0  0  0  0  0  0  0  0
   -7.0550   20.4270  -33.4150 N   0  0  0  0  0  0  0  0  0  0  0  0
   -7.9370   20.5670  -32.4130 C   0  0  0  0  0  0  0  0  0  0  0  0
   -9.5510   19.7740  -32.3910 S   0  0  0  0  0  0  0  0  0  0  0  0
   -8.9470   18.1280  -31.8680 C   0  0  0  0  0  0  0  0  0  0  0  0
   -7.4990   18.1620  -31.3620 C   0  0  0  0  0  0  0  0  0  0  0  0
   -6.4930   17.7760  -32.4190 C   0  0  0  0  0  0  0  0  0  0  0  0
   -6.8810   16.9810  -33.5100 C   0  0  0  0  0  0  0  0  0  0  0  0
   -5.9590   16.6560  -34.5100 C   0  0  0  0  0  0  0  0  0  0  0  0
   -4.6460   17.1280  -34.4320 C   0  0  0  0  0  0  0  0  0  0  0  0
   -4.2540   17.9290  -33.3570 C   0  0  0  0  0  0  0  0  0  0  0  0
   -5.1740   18.2620  -32.3590 C   0  0  0  0  0  0  0  0  0  0  0  0
   -7.9538   21.8436  -29.4887 H   0  0  0  0  0  0  0  0  0  0  0  0
   -8.2193   23.2282  -30.6019 H   0  0  0  0  0  0  0  0  0  0  0  0
   -9.3636   21.8436  -30.6019 H   0  0  0  0  0  0  0  0  0  0  0  0
   -3.7699   21.6629  -31.1354 H   0  0  0  0  0  0  0  0  0  0  0  0
   -2.3500   23.5032  -30.2152 H   0  0  0  0  0  0  0  0  0  0  0  0
   -5.5244   26.2989  -30.7421 H   0  0  0  0  0  0  0  0  0  0  0  0
   -6.9949   24.5066  -31.6766 H   0  0  0  0  0  0  0  0  0  0  0  0
   -7.1510   19.8160  -34.2580 H   0  0  0  0  0  0  0  0  0  0  0  0
   -9.5937   17.7564  -31.0595 H   0  0  0  0  0  0  0  0  0  0  0  0
   -8.9761   17.4684  -32.7478 H   0  0  0  0  0  0  0  0  0  0  0  0
   -7.2720   19.1821  -31.0186 H   0  0  0  0  0  0  0  0  0  0  0  0
   -7.4186   17.4260  -30.5484 H   0  0  0  0  0  0  0  0  0  0  0  0
   -7.9151   16.6122  -33.5782 H   0  0  0  0  0  0  0  0  0  0  0  0
   -6.2676   16.0282  -35.3589 H   0  0  0  0  0  0  0  0  0  0  0  0
   -3.9209   16.8686  -35.2175 H   0  0  0  0  0  0  0  0  0  0  0  0
   -3.2196   18.2983  -33.2958 H   0  0  0  0  0  0  0  0  0  0  0  0
   -4.8655   18.9069  -31.5230 H   0  0  0  0  0  0  0  0  0  0  0  0
  1  2  1  0
  2  3  1  0
  3  4  1  0
  4  5  2  0
  5  6  1  0
  6  7  2  0
  7  8  1  0
  8  9  2  0
  3 10  2  0
 10 11  1  0
 11 12  2  0
 12 13  1  0
 13 14  1  0
 14 15  1  0
 15 16  1  0
 16 17  2  0
 17 18  1  0
 18 19  2  0
 19 20  1  0
 20 21  2  0
 12  2  1  0
 21 16  1  0
  9  4  1  0
  1 22  1  0
  1 23  1  0
  1 24  1  0
  5 25  1  0
  6 26  1  0
  8 27  1  0
  9 28  1  0
 11 29  1  0
 14 30  1  0
 14 31  1  0
 15 32  1  0
 15 33  1  0
 17 34  1  0
 18 35  1  0
 19 36  1  0
 20 37  1  0
 21 38  1  0
M  CHG  1  11   1
M  END
>  <UniqueID>  (10) 
10

>  <SMILES>  (10) 
Cn1c(-c2ccncc2)n[nH+]c1SCCc1ccccc1

>  <Energy>  (10) 
75.27333133489552

>  <Genealogy>  (10) 
Cn1c(-c2ccncc2)n[nH+]c1SCCc1ccccc1 (protonated)
Cn1c(-c2ccncc2)n[nH+]c1SCCc1ccccc1 (3D coordinates assigned)
Cn1c(-c2ccncc2)n[nH+]c1SCCc1ccccc1 (optimized conformer: 75.27333133489552 kcal/mol)

>  <smiles>  (10) 
Cn1c(SCCc2ccccc2)nnc1-c1ccncc1

>  <score_type>  (10) 
oracle

>  <origin>  (10) 
adg

>  <m_score__min__energy>  (10) 
-7.75

>  <m_primary>  (10) 
energy

$$$$
10:0
     RDKit          3D

 60 62  0  0  0  0  0  0  0  0999 V2000
   -2.4480   25.6390  -25.8650 C   0  0  0  0  0  0  0  0  0  0  0  0
   -1.9890   25.2030  -27.2620 C   0  0  0  0  0  0  0  0  0  0  0  0
   -3.0770   24.5510  -28.0350 N   0  0  0  0  0  0  0  0  0  0  0  0
   -3.9110   23.6690  -27.1600 C   0  0  0  0  0  0  0  0  0  0  0  0
   -4.2010   22.3180  -27.8230 C   0  0  0  0  0  0  0  0  0  0  0  0
   -2.4910   23.7890  -29.1700 C   0  0  0  0  0  0  0  0  0  0  0  0
   -3.3310   23.8920  -30.4610 C   0  0  0  0  0  0  0  0  0  0  0  0
   -3.9700   25.1520  -30.5610 O   0  0  0  0  0  0  0  0  0  0  0  0
   -5.3470   25.0170  -30.8590 C   0  0  0  0  0  0  0  0  0  0  0  0
   -5.7410   23.5420  -30.9470 C   0  0  0  0  0  0  0  0  0  0  0  0
   -5.8490   23.1020  -32.3370 N   0  0  0  0  0  0  0  0  0  0  0  0
   -5.8650   21.7020  -32.6510 C   0  0  0  0  0  0  0  0  0  0  0  0
   -7.0470   20.9600  -32.4950 C   0  0  0  0  0  0  0  0  0  0  0  0
   -8.2140   21.5600  -31.9730 C   0  0  0  0  0  0  0  0  0  0  0  0
   -9.3700   20.8100  -31.7740 C   0  0  0  0  0  0  0  0  0  0  0  0
   -9.3810   19.4540  -32.0790 C   0  0  0  0  0  0  0  0  0  0  0  0
   -8.2450   18.8450  -32.6160 C   0  0  0  0  0  0  0  0  0  0  0  0
   -7.0660   19.5910  -32.8720 C   0  0  0  0  0  0  0  0  0  0  0  0
   -5.9540   19.0200  -33.4620 N   0  0  0  0  0  0  0  0  0  0  0  0
   -6.0660   17.7040  -34.1300 C   0  0  0  0  0  0  0  0  0  0  0  0
   -4.7440   19.6890  -33.4510 C   0  0  0  0  0  0  0  0  0  0  0  0
   -3.5280   19.0430  -33.7960 C   0  0  0  0  0  0  0  0  0  0  0  0
   -2.3100   19.7350  -33.7970 C   0  0  0  0  0  0  0  0  0  0  0  0
   -1.0470   19.0340  -34.2080 C   0  0  0  0  0  0  0  0  0  0  0  0
   -2.2870   21.0900  -33.4630 C   0  0  0  0  0  0  0  0  0  0  0  0
   -3.4590   21.7410  -33.0860 C   0  0  0  0  0  0  0  0  0  0  0  0
   -4.6900   21.0550  -33.0670 C   0  0  0  0  0  0  0  0  0  0  0  0
   -1.8728   25.0927  -25.1030 H   0  0  0  0  0  0  0  0  0  0  0  0
   -2.2816   26.7197  -25.7451 H   0  0  0  0  0  0  0  0  0  0  0  0
   -3.5187   25.4173  -25.7451 H   0  0  0  0  0  0  0  0  0  0  0  0
   -1.6453   26.0901  -27.8143 H   0  0  0  0  0  0  0  0  0  0  0  0
   -1.1792   24.4692  -27.1363 H   0  0  0  0  0  0  0  0  0  0  0  0
   -3.6580   25.3220  -28.4440 H   0  0  0  0  0  0  0  0  0  0  0  0
   -3.3741   23.4942  -26.2160 H   0  0  0  0  0  0  0  0  0  0  0  0
   -4.8713   24.1749  -26.9815 H   0  0  0  0  0  0  0  0  0  0  0  0
   -4.3645   21.5561  -27.0466 H   0  0  0  0  0  0  0  0  0  0  0  0
   -5.1014   22.4026  -28.4491 H   0  0  0  0  0  0  0  0  0  0  0  0
   -3.3452   22.0256  -28.4491 H   0  0  0  0  0  0  0  0  0  0  0  0
   -1.4843   24.1824  -29.3741 H   0  0  0  0  0  0  0  0  0  0  0  0
   -2.4651   22.7290  -28.8771 H   0  0  0  0  0  0  0  0  0  0  0  0
   -2.6705   23.7554  -31.3299 H   0  0  0  0  0  0  0  0  0  0  0  0
   -4.1056   23.1115  -30.4339 H   0  0  0  0  0  0  0  0  0  0  0  0
   -5.9367   25.5012  -30.0667 H   0  0  0  0  0  0  0  0  0  0  0  0
   -5.5462   25.4939  -31.8300 H   0  0  0  0  0  0  0  0  0  0  0  0
   -4.9769   22.9362  -30.4379 H   0  0  0  0  0  0  0  0  0  0  0  0
   -6.7223   23.4159  -30.4662 H   0  0  0  0  0  0  0  0  0  0  0  0
   -5.7270   23.7840  -33.1190 H   0  0  0  0  0  0  0  0  0  0  0  0
   -8.2096   22.6308  -31.7211 H   0  0  0  0  0  0  0  0  0  0  0  0
  -10.2753   21.2910  -31.3751 H   0  0  0  0  0  0  0  0  0  0  0  0
  -10.2878   18.8585  -31.8967 H   0  0  0  0  0  0  0  0  0  0  0  0
   -8.2647   17.7691  -32.8443 H   0  0  0  0  0  0  0  0  0  0  0  0
   -6.1334   16.9116  -33.3700 H   0  0  0  0  0  0  0  0  0  0  0  0
   -6.9688   17.6873  -34.7582 H   0  0  0  0  0  0  0  0  0  0  0  0
   -5.1790   17.5350  -34.7582 H   0  0  0  0  0  0  0  0  0  0  0  0
   -3.5424   17.9773  -34.0681 H   0  0  0  0  0  0  0  0  0  0  0  0
   -0.4905   18.7251  -33.3108 H   0  0  0  0  0  0  0  0  0  0  0  0
   -1.2986   18.1464  -34.8071 H   0  0  0  0  0  0  0  0  0  0  0  0
   -0.4269   19.7170  -34.8071 H   0  0  0  0  0  0  0  0  0  0  0  0
   -1.3387   21.6463  -33.4977 H   0  0  0  0  0  0  0  0  0  0  0  0
   -3.4235   22.8025  -32.7998 H   0  0  0  0  0  0  0  0  0  0  0  0
  1  2  1  0
  2  3  1  0
  3  4  1  0
  4  5  1  0
  3  6  1  0
  6  7  1  0
  7  8  1  0
  8  9  1  0
  9 10  1  0
 10 11  1  0
 11 12  1  0
 12 13  2  0
 13 14  1  0
 14 15  2  0
 15 16  1  0
 16 17  2  0
 17 18  1  0
 18 19  2  0
 19 20  1  0
 19 21  1  0
 21 22  2  0
 22 23  1  0
 23 24  1  0
 23 25  2  0
 25 26  1  0
 26 27  2  0
 27 12  1  0
 18 13  1  0
 27 21  1  0
  1 28  1  0
  1 29  1  0
  1 30  1  0
  2 31  1  0
  2 32  1  0
  3 33  1  0
  4 34  1  0
  4 35  1  0
  5 36  1  0
  5 37  1  0
  5 38  1  0
  6 39  1  0
  6 40  1  0
  7 41  1  0
  7 42  1  0
  9 43  1  0
  9 44  1  0
 10 45  1  0
 10 46  1  0
 11 47  1  0
 14 48  1  0
 15 49  1  0
 16 50  1  0
 17 51  1  0
 20 52  1  0
 20 53  1  0
 20 54  1  0
 22 55  1  0
 24 56  1  0
 24 57  1  0
 24 58  1  0
 25 59  1  0
 26 60  1  0
M  CHG  2   3   1  19   1
M  END
>  <UniqueID>  (11) 
11

>  <SMILES>  (11) 
CC[NH+](CC)CCOCCNc1c2ccccc2[n+](C)c2cc(C)ccc12

>  <Energy>  (11) 
89.75344093402116

>  <Genealogy>  (11) 
CC[NH+](CC)CCOCCNc1c2ccccc2[n+](C)c2cc(C)ccc12 (protonated)
CC[NH+](CC)CCOCCNc1c2ccccc2[n+](C)c2cc(C)ccc12 (3D coordinates assigned)
CC[NH+](CC)CCOCCNc1c2ccccc2[n+](C)c2cc(C)ccc12 (optimized conformer: 89.75344093402116 kcal/mol)

>  <smiles>  (11) 
CCN(CC)CCOCCNc1c2ccccc2[n+](C)c2cc(C)ccc12

>  <score_type>  (11) 
oracle

>  <origin>  (11) 
adg

>  <m_score__min__energy>  (11) 
-7.8399999999999999

>  <m_primary>  (11) 
energy

$$$$
11:0
     RDKit          3D

 80 83  0  0  0  0  0  0  0  0999 V2000
    1.3745   22.8630  -24.5094 H   0  0  0  0  0  0  0  0  0  0  0  0
    0.6690   23.4160  -25.1470 C   0  0  0  0  0  0  0  0  0  0  0  0
    0.8610   24.7300  -25.3460 C   0  0  0  0  0  0  0  0  0  0  0  0
    1.7360   25.4840  -24.3730 C   0  0  0  0  0  0  0  0  0  0  0  0
    2.0032   24.8124  -23.5438 H   0  0  0  0  0  0  0  0  0  0  0  0
    2.6289   25.8247  -24.9177 H   0  0  0  0  0  0  0  0  0  0  0  0
    1.0430   26.7090  -23.8050 C   0  0  0  0  0  0  0  0  0  0  0  0
    1.6660   27.5510  -23.0250 N   0  0  0  0  0  0  0  0  0  0  0  0
    2.0670   28.8480  -23.3040 O   0  0  0  0  0  0  0  0  0  0  0  0
    2.2350   29.8690  -22.3260 C   0  0  0  0  0  0  0  0  0  0  0  0
    2.1626   29.4290  -21.3204 H   0  0  0  0  0  0  0  0  0  0  0  0
    3.2223   30.3376  -22.4510 H   0  0  0  0  0  0  0  0  0  0  0  0
    1.4499   30.6292  -22.4510 H   0  0  0  0  0  0  0  0  0  0  0  0
   -0.3420   27.1370  -24.2590 C   0  0  0  0  0  0  0  0  0  0  0  0
   -0.9910   27.1603  -23.3712 H   0  0  0  0  0  0  0  0  0  0  0  0
   -0.1966   28.1112  -24.7487 H   0  0  0  0  0  0  0  0  0  0  0  0
   -1.0320   26.2490  -25.3200 C   0  0  0  0  0  0  0  0  0  0  0  0
   -1.6318   25.4891  -24.7976 H   0  0  0  0  0  0  0  0  0  0  0  0
   -1.6437   26.9170  -25.9441 H   0  0  0  0  0  0  0  0  0  0  0  0
   -0.0500   25.5240  -26.2710 C   0  0  1  0  0  0  0  0  0  0  0  0
    0.7930   26.5560  -27.0720 C   0  0  0  0  0  0  0  0  0  0  0  0
    1.3298   27.2132  -26.3720 H   0  0  0  0  0  0  0  0  0  0  0  0
    1.5184   26.0243  -27.7053 H   0  0  0  0  0  0  0  0  0  0  0  0
    0.1272   27.1607  -27.7053 H   0  0  0  0  0  0  0  0  0  0  0  0
   -0.7880   24.5800  -27.3100 C   0  0  1  0  0  0  0  0  0  0  0  0
   -0.0253   24.4076  -28.0837 H   0  0  0  0  0  0  0  0  0  0  0  0
   -1.1870   23.2330  -26.7430 C   0  0  0  0  0  0  0  0  0  0  0  0
   -0.4530   22.6990  -25.7550 C   0  0  0  0  0  0  0  0  0  0  0  0
   -0.7020   21.6914  -25.3907 H   0  0  0  0  0  0  0  0  0  0  0  0
   -2.4220   22.4840  -27.2540 C   0  0  2  0  0  0  0  0  0  0  0  0
   -3.1387   22.7052  -26.4494 H   0  0  0  0  0  0  0  0  0  0  0  0
   -2.1670   20.9670  -27.4310 C   0  0  0  0  0  0  0  0  0  0  0  0
   -2.6233   20.4084  -26.6005 H   0  0  0  0  0  0  0  0  0  0  0  0
   -1.0888   20.7493  -27.4340 H   0  0  0  0  0  0  0  0  0  0  0  0
   -2.8040   20.5570  -28.7460 C   0  0  0  0  0  0  0  0  0  0  0  0
   -3.8461   20.2413  -28.5896 H   0  0  0  0  0  0  0  0  0  0  0  0
   -2.2849   19.7056  -29.2104 H   0  0  0  0  0  0  0  0  0  0  0  0
   -2.7470   21.8080  -29.6150 C   0  0  2  0  0  0  0  0  0  0  0  0
   -3.4691   21.8722  -30.4423 H   0  0  0  0  0  0  0  0  0  0  0  0
   -1.3800   21.8320  -30.2990 C   0  0  0  0  0  0  0  0  0  0  0  0
   -0.3550   21.7940  -29.6370 O   0  0  0  0  0  0  0  0  0  0  0  0
   -1.2760   21.7190  -31.7970 C   0  0  0  0  0  0  0  0  0  0  0  0
   -0.6812   20.8279  -32.0463 H   0  0  0  0  0  0  0  0  0  0  0  0
   -0.7965   22.6335  -32.1761 H   0  0  0  0  0  0  0  0  0  0  0  0
   -2.6180   21.5990  -32.4390 C   0  0  0  0  0  0  0  0  0  0  0  0
   -3.3991   22.3409  -32.2166 H   0  0  0  0  0  0  0  0  0  0  0  0
   -2.8690   20.6220  -33.2600 N   0  0  0  0  0  0  0  0  0  0  0  0
   -3.6290   19.5060  -32.9450 O   0  0  0  0  0  0  0  0  0  0  0  0
   -4.4840   18.8430  -33.8740 C   0  0  0  0  0  0  0  0  0  0  0  0
   -4.5141   17.7684  -33.6411 H   0  0  0  0  0  0  0  0  0  0  0  0
   -4.0977   18.9884  -34.8936 H   0  0  0  0  0  0  0  0  0  0  0  0
   -5.9000   19.4260  -33.7780 C   0  0  0  0  0  0  0  0  0  0  0  0
   -6.5029   18.7863  -33.1167 H   0  0  0  0  0  0  0  0  0  0  0  0
   -6.3219   19.4602  -34.7933 H   0  0  0  0  0  0  0  0  0  0  0  0
   -5.8990   20.7990  -33.2400 N   0  0  0  0  0  0  0  0  0  0  0  0
   -4.9340   21.2000  -33.3020 H   0  0  0  0  0  0  0  0  0  0  0  0
   -6.3590   20.8540  -31.8440 C   0  0  0  0  0  0  0  0  0  0  0  0
   -5.4883   20.9421  -31.1776 H   0  0  0  0  0  0  0  0  0  0  0  0
   -6.9167   19.9344  -31.6130 H   0  0  0  0  0  0  0  0  0  0  0  0
   -7.2740   22.0560  -31.6390 C   0  0  0  0  0  0  0  0  0  0  0  0
   -7.4096   22.2341  -30.5620 H   0  0  0  0  0  0  0  0  0  0  0  0
   -6.8217   22.9446  -32.1035 H   0  0  0  0  0  0  0  0  0  0  0  0
   -8.2510   21.8566  -32.1035 H   0  0  0  0  0  0  0  0  0  0  0  0
   -3.0510   22.9800  -28.6140 C   0  0  1  0  0  0  0  0  0  0  0  0
   -4.5950   23.0560  -28.4010 C   0  0  0  0  0  0  0  0  0  0  0  0
   -4.8164   23.0669  -27.3236 H   0  0  0  0  0  0  0  0  0  0  0  0
   -4.9843   23.9744  -28.8646 H   0  0  0  0  0  0  0  0  0  0  0  0
   -5.0726   22.1803  -28.8646 H   0  0  0  0  0  0  0  0  0  0  0  0
   -2.5440   24.3950  -29.1210 C   0  0  1  0  0  0  0  0  0  0  0  0
   -1.7545   24.1650  -29.8517 H   0  0  0  0  0  0  0  0  0  0  0  0
   -3.5750   25.1700  -29.7480 O   0  0  0  0  0  0  0  0  0  0  0  0
   -4.5000   24.6660  -30.6680 C   0  0  0  0  0  0  0  0  0  0  0  0
   -4.1720   23.7670  -31.4820 O   0  0  0  0  0  0  0  0  0  0  0  0
   -5.9030   25.1590  -30.6460 C   0  0  0  0  0  0  0  0  0  0  0  0
   -6.2344   25.2755  -29.6036 H   0  0  0  0  0  0  0  0  0  0  0  0
   -5.9584   26.1304  -31.1591 H   0  0  0  0  0  0  0  0  0  0  0  0
   -6.5539   24.4357  -31.1591 H   0  0  0  0  0  0  0  0  0  0  0  0
   -2.0140   25.2390  -27.9650 C   0  0  0  0  0  0  0  0  0  0  0  0
   -2.8065   25.3517  -27.2105 H   0  0  0  0  0  0  0  0  0  0  0  0
   -1.7119   26.2200  -28.3605 H   0  0  0  0  0  0  0  0  0  0  0  0
  1  2  1  0
  2  3  2  0
  3  4  1  0
  4  5  1  0
  4  6  1  0
  4  7  1  0
  7  8  2  3
  8  9  1  0
  9 10  1  0
 10 11  1  0
 10 12  1  0
 10 13  1  0
  7 14  1  0
 14 15  1  0
 14 16  1  0
 14 17  1  0
 17 18  1  0
 17 19  1  0
 17 20  1  0
 20 21  1  6
 21 22  1  0
 21 23  1  0
 21 24  1  0
 20 25  1  0
 25 26  1  6
 25 27  1  0
 27 28  2  0
 28 29  1  0
 27 30  1  0
 30 31  1  1
 30 32  1  0
 32 33  1  0
 32 34  1  0
 32 35  1  0
 35 36  1  0
 35 37  1  0
 35 38  1  0
 38 39  1  6
 38 40  1  0
 40 41  2  0
 40 42  1  0
 42 43  1  0
 42 44  1  0
 42 45  1  0
 45 46  1  0
 45 47  2  0
 47 48  1  0
 48 49  1  0
 49 50  1  0
 49 51  1  0
 49 52  1  0
 52 53  1  0
 52 54  1  0
 52 55  1  0
 55 56  1  0
 55 57  1  0
 57 58  1  0
 57 59  1  0
 57 60  1  0
 60 61  1  0
 60 62  1  0
 60 63  1  0
 38 64  1  0
 64 65  1  1
 65 66  1  0
 65 67  1  0
 65 68  1  0
 64 69  1  0
 69 70  1  6
 69 71  1  0
 71 72  1  0
 72 73  2  0
 72 74  1  0
 74 75  1  0
 74 76  1  0
 74 77  1  0
 69 78  1  0
 78 79  1  0
 78 80  1  0
 28  2  1  0
 64 30  1  0
 20  3  1  0
 78 25  1  0
M  END
>  <UniqueID>  (12) 
12

>  <SMILES>  (12) 
CCNCCO/N=C/CC(=O)[C@H]1CC[C@H]2C3=CC=C4CC(=NOC)CCC4(C)C3CC(OC(C)=O)C12C

>  <Energy>  (12) 
111.06226781444431

>  <Genealogy>  (12) 
CCNCCON=CCC(=O)[C@H]1CC[C@H]2C3=CC=C4CC(=NOC)CCC4(C)C3CC(OC(C)=O)C12C (chirality)
CCNCCO/N=C/CC(=O)[C@H]1CC[C@H]2C3=CC=C4CC(=NOC)CCC4(C)C3CC(OC(C)=O)C12C (cis-trans isomerization)
CCNCCO/N=C/CC(=O)[C@H]1CC[C@H]2C3=CC=C4CC(=NOC)CCC4(C)C3CC(OC(C)=O)C12C (3D coordinates assigned)
CCNCCO/N=C/CC(=O)[C@H]1CC[C@H]2C3=CC=C4CC(=NOC)CCC4(C)C3CC(OC(C)=O)C12C (nonaromatic ring conformer: 111.06226781444431 kcal/mol)

>  <smiles>  (12) 
CCNCCON=CCC(=O)C1CCC2C3=CC=C4CC(=NOC)CCC4(C)C3CC(OC(C)=O)C12C

>  <score_type>  (12) 
oracle

>  <origin>  (12) 
adg

>  <m_score__min__energy>  (12) 
-9.3699999999999992

>  <m_primary>  (12) 
energy

$$$$
12:0
     RDKit          3D

 36 37  0  0  0  0  0  0  0  0999 V2000
   -3.4910   24.1790  -27.6260 C   0  0  0  0  0  0  0  0  0  0  0  0
   -4.4170   23.8000  -28.7780 C   0  0  0  0  0  0  0  0  0  0  0  0
   -3.9320   24.3810  -30.0510 N   0  0  0  0  0  0  0  0  0  0  0  0
   -5.0410   24.9700  -30.8390 C   0  0  0  0  0  0  0  0  0  0  0  0
   -6.2400   25.3090  -29.9540 C   0  0  0  0  0  0  0  0  0  0  0  0
   -3.1090   23.4170  -30.8230 C   0  0  0  0  0  0  0  0  0  0  0  0
   -3.9240   22.3890  -31.5640 C   0  0  0  0  0  0  0  0  0  0  0  0
   -3.5510   21.7190  -32.7100 C   0  0  0  0  0  0  0  0  0  0  0  0
   -4.5360   20.9160  -33.0410 O   0  0  0  0  0  0  0  0  0  0  0  0
   -5.4930   21.0770  -32.1500 C   0  0  0  0  0  0  0  0  0  0  0  0
   -6.7610   20.3220  -32.1720 C   0  0  0  0  0  0  0  0  0  0  0  0
   -6.7080   18.9300  -32.3590 C   0  0  0  0  0  0  0  0  0  0  0  0
   -7.8790   18.1690  -32.3680 C   0  0  0  0  0  0  0  0  0  0  0  0
   -9.1180   18.7910  -32.2030 C   0  0  0  0  0  0  0  0  0  0  0  0
   -9.1870   20.1770  -32.0430 C   0  0  0  0  0  0  0  0  0  0  0  0
   -8.0210   20.9510  -32.0330 C   0  0  0  0  0  0  0  0  0  0  0  0
   -8.2250   22.8570  -31.9410 Br  0  0  0  0  0  0  0  0  0  0  0  0
   -5.1510   21.9760  -31.2050 N   0  0  0  0  0  0  0  0  0  0  0  0
   -3.9931   23.9735  -26.6691 H   0  0  0  0  0  0  0  0  0  0  0  0
   -2.5659   23.5872  -27.6892 H   0  0  0  0  0  0  0  0  0  0  0  0
   -3.2464   25.2496  -27.6892 H   0  0  0  0  0  0  0  0  0  0  0  0
   -4.4493   22.7043  -28.8701 H   0  0  0  0  0  0  0  0  0  0  0  0
   -5.4222   24.1947  -28.5689 H   0  0  0  0  0  0  0  0  0  0  0  0
   -4.6844   25.8900  -31.3252 H   0  0  0  0  0  0  0  0  0  0  0  0
   -5.3629   24.2306  -31.5871 H   0  0  0  0  0  0  0  0  0  0  0  0
   -5.9498   25.2269  -28.8962 H   0  0  0  0  0  0  0  0  0  0  0  0
   -6.5722   26.3363  -30.1644 H   0  0  0  0  0  0  0  0  0  0  0  0
   -7.0610   24.6078  -30.1644 H   0  0  0  0  0  0  0  0  0  0  0  0
   -2.5091   23.9787  -31.5542 H   0  0  0  0  0  0  0  0  0  0  0  0
   -2.4835   22.8736  -30.0995 H   0  0  0  0  0  0  0  0  0  0  0  0
   -2.5997   21.8360  -33.2498 H   0  0  0  0  0  0  0  0  0  0  0  0
   -5.7355   18.4355  -32.4995 H   0  0  0  0  0  0  0  0  0  0  0  0
   -7.8251   17.0789  -32.5052 H   0  0  0  0  0  0  0  0  0  0  0  0
  -10.0393   18.1900  -32.1990 H   0  0  0  0  0  0  0  0  0  0  0  0
  -10.1660   20.6642  -31.9239 H   0  0  0  0  0  0  0  0  0  0  0  0
   -5.6900   22.2530  -30.3550 H   0  0  0  0  0  0  0  0  0  0  0  0
  1  2  1  0
  2  3  1  0
  3  4  1  0
  4  5  1  0
  3  6  1  0
  6  7  1  0
  7  8  2  0
  8  9  1  0
  9 10  1  0
 10 11  1  0
 11 12  2  0
 12 13  1  0
 13 14  2  0
 14 15  1  0
 15 16  2  0
 16 17  1  0
 10 18  2  0
 18  7  1  0
 16 11  1  0
  1 19  1  0
  1 20  1  0
  1 21  1  0
  2 22  1  0
  2 23  1  0
  4 24  1  0
  4 25  1  0
  5 26  1  0
  5 27  1  0
  5 28  1  0
  6 29  1  0
  6 30  1  0
  8 31  1  0
 12 32  1  0
 13 33  1  0
 14 34  1  0
 15 35  1  0
 18 36  1  0
M  CHG  1  18   1
M  END
>  <UniqueID>  (13) 
13

>  <SMILES>  (13) 
CCN(CC)Cc1coc(-c2ccccc2Br)[nH+]1

>  <Energy>  (13) 
71.58788386806414

>  <Genealogy>  (13) 
CCN(CC)Cc1coc(-c2ccccc2Br)[nH+]1 (protonated)
CCN(CC)Cc1coc(-c2ccccc2Br)[nH+]1 (3D coordinates assigned)
CCN(CC)Cc1coc(-c2ccccc2Br)[nH+]1 (optimized conformer: 71.58788386806414 kcal/mol)

>  <smiles>  (13) 
CCN(CC)Cc1coc(-c2ccccc2Br)n1

>  <score_type>  (13) 
oracle

>  <origin>  (13) 
adg

>  <m_score__min__energy>  (13) 
-6.79

>  <m_primary>  (13) 
energy

$$$$
13:0
     RDKit          3D

 69 71  0  0  0  0  0  0  0  0999 V2000
   -1.0190   26.7200  -24.1600 C   0  0  0  0  0  0  0  0  0  0  0  0
   -1.6510   26.3100  -25.4890 C   0  0  0  0  0  0  0  0  0  0  0  0
   -1.4160   24.8820  -25.8000 N   0  0  0  0  0  0  0  0  0  0  0  0
   -0.5390   24.2660  -24.7910 C   0  0  0  0  0  0  0  0  0  0  0  0
   -0.9810   24.5980  -27.1920 C   0  0  0  0  0  0  0  0  0  0  0  0
   -1.2070   25.7380  -28.2000 C   0  0  0  0  0  0  0  0  0  0  0  0
   -2.0390   25.2990  -29.2590 O   0  0  0  0  0  0  0  0  0  0  0  0
   -2.3040   23.9100  -29.1770 C   0  0  0  0  0  0  0  0  0  0  0  0
   -3.3840   23.4810  -30.1700 C   0  0  0  0  0  0  0  0  0  0  0  0
   -3.9060   24.6120  -30.8350 O   0  0  0  0  0  0  0  0  0  0  0  0
   -5.2560   24.7940  -30.4650 C   0  0  0  0  0  0  0  0  0  0  0  0
   -6.1380   23.7440  -31.1580 C   0  0  0  0  0  0  0  0  0  0  0  0
   -5.6450   23.3210  -32.4860 N   0  0  0  0  0  0  0  0  0  0  0  0
   -5.6760   21.8750  -32.6810 C   0  0  0  0  0  0  0  0  0  0  0  0
   -4.4890   21.1640  -32.9950 C   0  0  0  0  0  0  0  0  0  0  0  0
   -4.5630   19.8080  -33.3680 C   0  0  0  0  0  0  0  0  0  0  0  0
   -5.7810   19.1720  -33.4430 N   0  0  0  0  0  0  0  0  0  0  0  0
   -5.8740   17.8400  -34.0780 C   0  0  0  0  0  0  0  0  0  0  0  0
   -6.9010   19.7570  -32.8930 C   0  0  0  0  0  0  0  0  0  0  0  0
   -6.8920   21.1410  -32.5590 C   0  0  0  0  0  0  0  0  0  0  0  0
   -8.1330   21.8030  -31.9610 C   0  0  0  0  0  0  0  0  0  0  0  0
   -9.4070   20.9610  -32.0070 C   0  0  0  0  0  0  0  0  0  0  0  0
   -9.1020   19.5190  -31.6460 C   0  0  0  0  0  0  0  0  0  0  0  0
   -8.1680   18.9340  -32.6970 C   0  0  0  0  0  0  0  0  0  0  0  0
   -3.2630   19.1150  -33.7650 C   0  0  0  0  0  0  0  0  0  0  0  0
   -2.0990   19.4530  -32.8160 C   0  0  0  0  0  0  0  0  0  0  0  0
   -2.1100   20.8960  -32.2740 C   0  0  0  0  0  0  0  0  0  0  0  0
   -3.1110   21.8030  -32.9950 C   0  0  0  0  0  0  0  0  0  0  0  0
   -1.6242   26.3274  -23.3296 H   0  0  0  0  0  0  0  0  0  0  0  0
   -0.0001   26.3104  -24.0967 H   0  0  0  0  0  0  0  0  0  0  0  0
   -0.9777   27.8174  -24.0967 H   0  0  0  0  0  0  0  0  0  0  0  0
   -2.7352   26.4877  -25.4360 H   0  0  0  0  0  0  0  0  0  0  0  0
   -1.1866   26.9110  -26.2847 H   0  0  0  0  0  0  0  0  0  0  0  0
   -0.9023   24.5212  -23.7846 H   0  0  0  0  0  0  0  0  0  0  0  0
   -0.5459   23.1733  -24.9172 H   0  0  0  0  0  0  0  0  0  0  0  0
    0.4866   24.6432  -24.9172 H   0  0  0  0  0  0  0  0  0  0  0  0
    0.0952   24.3715  -27.1716 H   0  0  0  0  0  0  0  0  0  0  0  0
   -1.6029   23.7595  -27.5386 H   0  0  0  0  0  0  0  0  0  0  0  0
   -1.6872   26.5851  -27.6883 H   0  0  0  0  0  0  0  0  0  0  0  0
   -0.2359   26.0489  -28.6127 H   0  0  0  0  0  0  0  0  0  0  0  0
   -1.3786   23.3570  -29.3958 H   0  0  0  0  0  0  0  0  0  0  0  0
   -2.6645   23.6890  -28.1615 H   0  0  0  0  0  0  0  0  0  0  0  0
   -2.9468   22.7935  -30.9091 H   0  0  0  0  0  0  0  0  0  0  0  0
   -4.1954   22.9764  -29.6250 H   0  0  0  0  0  0  0  0  0  0  0  0
   -5.3521   24.6877  -29.3744 H   0  0  0  0  0  0  0  0  0  0  0  0
   -5.5820   25.7986  -30.7726 H   0  0  0  0  0  0  0  0  0  0  0  0
   -6.1910   22.8562  -30.5107 H   0  0  0  0  0  0  0  0  0  0  0  0
   -7.1201   24.2124  -31.3194 H   0  0  0  0  0  0  0  0  0  0  0  0
   -4.6980   23.7330  -32.6210 H   0  0  0  0  0  0  0  0  0  0  0  0
   -6.2130   23.7820  -33.2310 H   0  0  0  0  0  0  0  0  0  0  0  0
   -5.9281   17.0654  -33.2989 H   0  0  0  0  0  0  0  0  0  0  0  0
   -6.7775   17.7944  -34.7038 H   0  0  0  0  0  0  0  0  0  0  0  0
   -4.9856   17.6693  -34.7038 H   0  0  0  0  0  0  0  0  0  0  0  0
   -7.9188   22.0384  -30.9081 H   0  0  0  0  0  0  0  0  0  0  0  0
   -8.3322   22.6910  -32.5788 H   0  0  0  0  0  0  0  0  0  0  0  0
  -10.1360   21.3675  -31.2906 H   0  0  0  0  0  0  0  0  0  0  0  0
   -9.8195   20.9938  -33.0262 H   0  0  0  0  0  0  0  0  0  0  0  0
   -8.6178   19.4800  -30.6591 H   0  0  0  0  0  0  0  0  0  0  0  0
  -10.0354   18.9380  -31.6123 H   0  0  0  0  0  0  0  0  0  0  0  0
   -7.8816   17.9188  -32.3850 H   0  0  0  0  0  0  0  0  0  0  0  0
   -8.7102   18.9324  -33.6541 H   0  0  0  0  0  0  0  0  0  0  0  0
   -3.4249   18.0271  -33.7506 H   0  0  0  0  0  0  0  0  0  0  0  0
   -2.9887   19.4707  -34.7691 H   0  0  0  0  0  0  0  0  0  0  0  0
   -2.1441   18.7645  -31.9593 H   0  0  0  0  0  0  0  0  0  0  0  0
   -1.1763   19.3490  -33.4057 H   0  0  0  0  0  0  0  0  0  0  0  0
   -2.3713   20.8664  -31.2059 H   0  0  0  0  0  0  0  0  0  0  0  0
   -1.1075   21.3163  -32.4424 H   0  0  0  0  0  0  0  0  0  0  0  0
   -3.1600   22.7732  -32.4790 H   0  0  0  0  0  0  0  0  0  0  0  0
   -2.7815   21.9479  -34.0344 H   0  0  0  0  0  0  0  0  0  0  0  0
  1  2  1  0
  2  3  1  0
  3  4  1  0
  3  5  1  0
  5  6  1  0
  6  7  1  0
  7  8  1  0
  8  9  1  0
  9 10  1  0
 10 11  1  0
 11 12  1  0
 12 13  1  0
 13 14  1  0
 14 15  2  0
 15 16  1  0
 16 17  2  0
 17 18  1  0
 17 19  1  0
 19 20  2  0
 20 21  1  0
 21 22  1  0
 22 23  1  0
 23 24  1  0
 16 25  1  0
 25 26  1  0
 26 27  1  0
 27 28  1  0
 20 14  1  0
 28 15  1  0
 24 19  1  0
  1 29  1  0
  1 30  1  0
  1 31  1  0
  2 32  1  0
  2 33  1  0
  4 34  1  0
  4 35  1  0
  4 36  1  0
  5 37  1  0
  5 38  1  0
  6 39  1  0
  6 40  1  0
  8 41  1  0
  8 42  1  0
  9 43  1  0
  9 44  1  0
 11 45  1  0
 11 46  1  0
 12 47  1  0
 12 48  1  0
 13 49  1  0
 13 50  1  0
 18 51  1  0
 18 52  1  0
 18 53  1  0
 21 54  1  0
 21 55  1  0
 22 56  1  0
 22 57  1  0
 23 58  1  0
 23 59  1  0
 24 60  1  0
 24 61  1  0
 25 62  1  0
 25 63  1  0
 26 64  1  0
 26 65  1  0
 27 66  1  0
 27 67  1  0
 28 68  1  0
 28 69  1  0
M  CHG  2  13   1  17   1
M  END
>  <UniqueID>  (14) 
14

>  <SMILES>  (14) 
CCN(C)CCOCCOCC[NH2+]c1c2c([n+](C)c3c1CCCC3)CCCC2

>  <Energy>  (14) 
92.91277779851096

>  <Genealogy>  (14) 
CCN(C)CCOCCOCC[NH2+]c1c2c([n+](C)c3c1CCCC3)CCCC2 (protonated)
CCN(C)CCOCCOCC[NH2+]c1c2c([n+](C)c3c1CCCC3)CCCC2 (3D coordinates assigned)
CCN(C)CCOCCOCC[NH2+]c1c2c([n+](C)c3c1CCCC3)CCCC2 (nonaromatic ring conformer: 92.91277779851096 kcal/mol)

>  <smiles>  (14) 
CCN(C)CCOCCOCCNc1c2c([n+](C)c3c1CCCC3)CCCC2

>  <score_type>  (14) 
oracle

>  <origin>  (14) 
adg

>  <m_score__min__energy>  (14) 
-8.8699999999999992

>  <m_primary>  (14) 
energy

$$$$
14:0
     RDKit          3D

 37 38  0  0  0  0  0  0  0  0999 V2000
   -7.8330   17.8660  -31.9760 C   0  0  0  0  0  0  0  0  0  0  0  0
   -9.0040   18.7970  -31.6660 C   0  0  0  0  0  0  0  0  0  0  0  0
   -8.7450   20.1520  -32.1980 N   0  0  0  0  0  0  0  0  0  0  0  0
   -7.5650   20.1860  -33.1100 C   0  0  0  0  0  0  0  0  0  0  0  0
   -6.4050   21.0450  -32.5880 C   0  0  0  0  0  0  0  0  0  0  0  0
   -6.8790   22.4830  -32.3040 C   0  0  0  0  0  0  0  0  0  0  0  0
   -5.8240   23.2490  -31.5270 C   0  0  0  0  0  0  0  0  0  0  0  0
   -6.1100   24.5040  -30.9580 C   0  0  0  0  0  0  0  0  0  0  0  0
   -5.1360   25.1950  -30.2330 C   0  0  0  0  0  0  0  0  0  0  0  0
   -3.8540   24.6410  -30.0610 C   0  0  0  0  0  0  0  0  0  0  0  0
   -2.8420   25.2970  -29.3430 O   0  0  0  0  0  0  0  0  0  0  0  0
   -2.1940   24.7590  -28.1940 C   0  0  0  0  0  0  0  0  0  0  0  0
   -3.5700   23.3920  -30.6220 C   0  0  0  0  0  0  0  0  0  0  0  0
   -4.5430   22.6990  -31.3450 C   0  0  0  0  0  0  0  0  0  0  0  0
   -8.2640   22.5200  -31.6040 C   0  0  0  0  0  0  0  0  0  0  0  0
   -8.6930   21.1380  -31.0960 C   0  0  0  0  0  0  0  0  0  0  0  0
   -7.3872   17.5116  -31.0349 H   0  0  0  0  0  0  0  0  0  0  0  0
   -8.1933   17.0050  -32.5582 H   0  0  0  0  0  0  0  0  0  0  0  0
   -7.0754   18.4111  -32.5582 H   0  0  0  0  0  0  0  0  0  0  0  0
   -9.9177   18.3954  -32.1285 H   0  0  0  0  0  0  0  0  0  0  0  0
   -9.1272   18.8615  -30.5748 H   0  0  0  0  0  0  0  0  0  0  0  0
   -7.2012   19.1568  -33.2454 H   0  0  0  0  0  0  0  0  0  0  0  0
   -7.9016   20.6403  -34.0536 H   0  0  0  0  0  0  0  0  0  0  0  0
   -6.0172   20.6022  -31.6587 H   0  0  0  0  0  0  0  0  0  0  0  0
   -5.6155   21.0769  -33.3533 H   0  0  0  0  0  0  0  0  0  0  0  0
   -7.0165   22.9866  -33.2722 H   0  0  0  0  0  0  0  0  0  0  0  0
   -7.1097   24.9449  -31.0853 H   0  0  0  0  0  0  0  0  0  0  0  0
   -5.3722   26.1760  -29.7949 H   0  0  0  0  0  0  0  0  0  0  0  0
   -2.6708   25.1548  -27.2852 H   0  0  0  0  0  0  0  0  0  0  0  0
   -2.2792   23.6624  -28.2048 H   0  0  0  0  0  0  0  0  0  0  0  0
   -1.1317   25.0444  -28.2048 H   0  0  0  0  0  0  0  0  0  0  0  0
   -2.5705   22.9512  -30.4925 H   0  0  0  0  0  0  0  0  0  0  0  0
   -4.3054   21.7150  -31.7755 H   0  0  0  0  0  0  0  0  0  0  0  0
   -8.2108   23.2108  -30.7496 H   0  0  0  0  0  0  0  0  0  0  0  0
   -9.0072   22.8540  -32.3429 H   0  0  0  0  0  0  0  0  0  0  0  0
   -7.9708   20.7938  -30.3411 H   0  0  0  0  0  0  0  0  0  0  0  0
   -9.6994   21.2253  -30.6607 H   0  0  0  0  0  0  0  0  0  0  0  0
  1  2  1  0
  2  3  1  0
  3  4  1  0
  4  5  1  0
  5  6  1  0
  6  7  1  0
  7  8  2  0
  8  9  1  0
  9 10  2  0
 10 11  1  0
 11 12  1  0
 10 13  1  0
 13 14  2  0
  6 15  1  0
 15 16  1  0
 16  3  1  0
 14  7  1  0
  1 17  1  0
  1 18  1  0
  1 19  1  0
  2 20  1  0
  2 21  1  0
  4 22  1  0
  4 23  1  0
  5 24  1  0
  5 25  1  0
  6 26  1  0
  8 27  1  0
  9 28  1  0
 12 29  1  0
 12 30  1  0
 12 31  1  0
 13 32  1  0
 14 33  1  0
 15 34  1  0
 15 35  1  0
 16 36  1  0
 16 37  1  0
M  END
>  <UniqueID>  (15) 
15

>  <SMILES>  (15) 
CCN1CCC(c2ccc(OC)cc2)CC1

>  <Energy>  (15) 
42.91925082975635

>  <Genealogy>  (15) 
CCN1CCC(c2ccc(OC)cc2)CC1 (3D coordinates assigned)
CCN1CCC(c2ccc(OC)cc2)CC1 (nonaromatic ring conformer: 42.91925082975635 kcal/mol)

>  <smiles>  (15) 
CCN1CCC(c2ccc(OC)cc2)CC1

>  <score_type>  (15) 
oracle

>  <origin>  (15) 
adg

>  <m_score__min__energy>  (15) 
-7.6399999999999997

>  <m_primary>  (15) 
energy

$$$$
15:0
     RDKit          3D

 83 86  0  0  0  0  0  0  0  0999 V2000
   -6.0890   17.0440  -31.7890 C   0  0  0  0  0  0  0  0  0  0  0  0
   -4.9830   17.1610  -32.8490 C   0  0  0  0  0  0  0  0  0  0  0  0
   -5.0470   18.4050  -33.6490 N   0  0  0  0  0  0  0  0  0  0  0  0
   -5.7540   18.2130  -34.9280 C   0  0  0  0  0  0  0  0  0  0  0  0
   -3.7240   19.0430  -33.8300 C   0  0  0  0  0  0  0  0  0  0  0  0
   -3.5650   20.2390  -32.8800 C   0  0  0  0  0  0  0  0  0  0  0  0
   -4.2480   20.0000  -31.5960 N   0  0  0  0  0  0  0  0  0  0  0  0
   -4.9070   21.2110  -31.1330 C   0  0  0  0  0  0  0  0  0  0  0  0
   -6.2920   21.4200  -31.3680 C   0  0  0  0  0  0  0  0  0  0  0  0
   -7.1140   20.4090  -31.9270 C   0  0  0  0  0  0  0  0  0  0  0  0
   -8.4470   20.6560  -32.2390 C   0  0  0  0  0  0  0  0  0  0  0  0
   -8.9930   21.9100  -32.0110 C   0  0  0  0  0  0  0  0  0  0  0  0
   -8.2250   22.9090  -31.4200 C   0  0  0  0  0  0  0  0  0  0  0  0
   -6.8790   22.6720  -31.0340 C   0  0  0  0  0  0  0  0  0  0  0  0
   -6.1480   23.6290  -30.3590 N   0  0  0  0  0  0  0  0  0  0  0  0
   -6.8390   24.7870  -29.7470 C   0  0  0  0  0  0  0  0  0  0  0  0
   -4.7860   23.4760  -30.1930 C   0  0  0  0  0  0  0  0  0  0  0  0
   -3.9760   24.5440  -29.7310 C   0  0  0  0  0  0  0  0  0  0  0  0
   -2.6180   24.3600  -29.4290 C   0  0  0  0  0  0  0  0  0  0  0  0
   -1.8060   25.3960  -28.9360 O   0  0  0  0  0  0  0  0  0  0  0  0
   -1.6100   25.7350  -27.5620 C   0  0  0  0  0  0  0  0  0  0  0  0
   -1.2060   24.5040  -26.7120 C   0  0  0  0  0  0  0  0  0  0  0  0
   -0.1430   24.7420  -25.6790 N   0  0  0  0  0  0  0  0  0  0  0  0
    0.5950   23.4780  -25.4190 C   0  0  0  0  0  0  0  0  0  0  0  0
   -0.8160   25.1530  -24.3990 C   0  0  0  0  0  0  0  0  0  0  0  0
   -0.9860   26.6800  -24.2890 C   0  0  0  0  0  0  0  0  0  0  0  0
    0.3320   27.3910  -24.2570 N   0  0  0  0  0  0  0  0  0  0  0  0
    0.1700   28.7370  -24.8660 C   0  0  0  0  0  0  0  0  0  0  0  0
    0.7630   27.5800  -22.8490 C   0  0  0  0  0  0  0  0  0  0  0  0
    1.3950   26.6330  -24.9910 C   0  0  0  0  0  0  0  0  0  0  0  0
    0.8150   25.7980  -26.1510 C   0  0  0  0  0  0  0  0  0  0  0  0
   -2.0360   23.1090  -29.6150 C   0  0  0  0  0  0  0  0  0  0  0  0
   -0.6860   22.9480  -29.2620 O   0  0  0  0  0  0  0  0  0  0  0  0
   -0.1380   21.7820  -28.6570 C   0  0  0  0  0  0  0  0  0  0  0  0
   -2.8000   22.0600  -30.1470 C   0  0  0  0  0  0  0  0  0  0  0  0
   -4.1600   22.2390  -30.4960 C   0  0  0  0  0  0  0  0  0  0  0  0
   -5.6414   17.0913  -30.7853 H   0  0  0  0  0  0  0  0  0  0  0  0
   -6.8032   17.8716  -31.9114 H   0  0  0  0  0  0  0  0  0  0  0  0
   -6.6142   16.0853  -31.9114 H   0  0  0  0  0  0  0  0  0  0  0  0
   -4.0092   17.1274  -32.3385 H   0  0  0  0  0  0  0  0  0  0  0  0
   -5.1224   16.3241  -33.5491 H   0  0  0  0  0  0  0  0  0  0  0  0
   -6.7983   17.9294  -34.7307 H   0  0  0  0  0  0  0  0  0  0  0  0
   -5.7310   19.1499  -35.5039 H   0  0  0  0  0  0  0  0  0  0  0  0
   -5.2603   17.4164  -35.5039 H   0  0  0  0  0  0  0  0  0  0  0  0
   -2.9354   18.3059  -33.6181 H   0  0  0  0  0  0  0  0  0  0  0  0
   -3.6423   19.4010  -34.8669 H   0  0  0  0  0  0  0  0  0  0  0  0
   -2.4944   20.4056  -32.6904 H   0  0  0  0  0  0  0  0  0  0  0  0
   -4.0191   21.1212  -33.3549 H   0  0  0  0  0  0  0  0  0  0  0  0
   -4.9340   19.2170  -31.6750 H   0  0  0  0  0  0  0  0  0  0  0  0
   -3.5710   19.6380  -30.8900 H   0  0  0  0  0  0  0  0  0  0  0  0
   -6.6903   19.4119  -32.1173 H   0  0  0  0  0  0  0  0  0  0  0  0
   -9.0685   19.8557  -32.6670 H   0  0  0  0  0  0  0  0  0  0  0  0
  -10.0349   22.1156  -32.2977 H   0  0  0  0  0  0  0  0  0  0  0  0
   -8.6689   23.9008  -31.2487 H   0  0  0  0  0  0  0  0  0  0  0  0
   -6.7905   24.7057  -28.6511 H   0  0  0  0  0  0  0  0  0  0  0  0
   -6.3486   25.7180  -30.0677 H   0  0  0  0  0  0  0  0  0  0  0  0
   -7.8912   24.7975  -30.0677 H   0  0  0  0  0  0  0  0  0  0  0  0
   -4.4230   25.5413  -29.6062 H   0  0  0  0  0  0  0  0  0  0  0  0
   -0.8139   26.4910  -27.4929 H   0  0  0  0  0  0  0  0  0  0  0  0
   -2.5616   26.1219  -27.1686 H   0  0  0  0  0  0  0  0  0  0  0  0
   -2.1059   24.1427  -26.1928 H   0  0  0  0  0  0  0  0  0  0  0  0
   -0.7765   23.7805  -27.4205 H   0  0  0  0  0  0  0  0  0  0  0  0
    0.6856   23.3229  -24.3338 H   0  0  0  0  0  0  0  0  0  0  0  0
    0.0471   22.6351  -25.8654 H   0  0  0  0  0  0  0  0  0  0  0  0
    1.5984   23.5408  -25.8654 H   0  0  0  0  0  0  0  0  0  0  0  0
   -1.8095   24.6829  -24.3555 H   0  0  0  0  0  0  0  0  0  0  0  0
   -0.1783   24.8256  -23.5647 H   0  0  0  0  0  0  0  0  0  0  0  0
   -1.5608   27.0366  -25.1564 H   0  0  0  0  0  0  0  0  0  0  0  0
   -1.5113   26.8962  -23.3470 H   0  0  0  0  0  0  0  0  0  0  0  0
    0.0793   29.4910  -24.0702 H   0  0  0  0  0  0  0  0  0  0  0  0
    1.0471   28.9654  -25.4893 H   0  0  0  0  0  0  0  0  0  0  0  0
   -0.7363   28.7508  -25.4893 H   0  0  0  0  0  0  0  0  0  0  0  0
   -0.0313   27.2317  -22.1725 H   0  0  0  0  0  0  0  0  0  0  0  0
    1.6805   27.0017  -22.6656 H   0  0  0  0  0  0  0  0  0  0  0  0
    0.9592   28.6467  -22.6656 H   0  0  0  0  0  0  0  0  0  0  0  0
    2.1238   27.3489  -25.3989 H   0  0  0  0  0  0  0  0  0  0  0  0
    1.8705   25.9414  -24.2800 H   0  0  0  0  0  0  0  0  0  0  0  0
    0.2850   26.4722  -26.8399 H   0  0  0  0  0  0  0  0  0  0  0  0
    1.6542   25.2890  -26.6476 H   0  0  0  0  0  0  0  0  0  0  0  0
   -0.1843   21.8806  -27.5624 H   0  0  0  0  0  0  0  0  0  0  0  0
   -0.7159   20.9001  -28.9705 H   0  0  0  0  0  0  0  0  0  0  0  0
    0.9098   21.6642  -28.9705 H   0  0  0  0  0  0  0  0  0  0  0  0
   -2.3317   21.0759  -30.2964 H   0  0  0  0  0  0  0  0  0  0  0  0
  1  2  1  0
  2  3  1  0
  3  4  1  0
  3  5  1  0
  5  6  1  0
  6  7  1  0
  7  8  1  0
  8  9  2  0
  9 10  1  0
 10 11  2  0
 11 12  1  0
 12 13  2  0
 13 14  1  0
 14 15  2  0
 15 16  1  0
 15 17  1  0
 17 18  2  0
 18 19  1  0
 19 20  1  0
 20 21  1  0
 21 22  1  0
 22 23  1  0
 23 24  1  0
 23 25  1  0
 25 26  1  0
 26 27  1  0
 27 28  1  0
 27 29  1  0
 27 30  1  0
 30 31  1  0
 19 32  2  0
 32 33  1  0
 33 34  1  0
 32 35  1  0
 35 36  2  0
 36  8  1  0
 14  9  1  0
 36 17  1  0
 31 23  1  0
  1 37  1  0
  1 38  1  0
  1 39  1  0
  2 40  1  0
  2 41  1  0
  4 42  1  0
  4 43  1  0
  4 44  1  0
  5 45  1  0
  5 46  1  0
  6 47  1  0
  6 48  1  0
  7 49  1  0
  7 50  1  0
 10 51  1  0
 11 52  1  0
 12 53  1  0
 13 54  1  0
 16 55  1  0
 16 56  1  0
 16 57  1  0
 18 58  1  0
 21 59  1  0
 21 60  1  0
 22 61  1  0
 22 62  1  0
 24 63  1  0
 24 64  1  0
 24 65  1  0
 25 66  1  0
 25 67  1  0
 26 68  1  0
 26 69  1  0
 28 70  1  0
 28 71  1  0
 28 72  1  0
 29 73  1  0
 29 74  1  0
 29 75  1  0
 30 76  1  0
 30 77  1  0
 31 78  1  0
 31 79  1  0
 34 80  1  0
 34 81  1  0
 34 82  1  0
 35 83  1  0
M  CHG  4   7   1  15   1  23   1  27   1
M  END
>  <UniqueID>  (16) 
16

>  <SMILES>  (16) 
CCN(C)CC[NH2+]c1c2ccccc2[n+](C)c2cc(OCC[N+]3(C)CC[N+](C)(C)CC3)c(OC)cc12

>  <Energy>  (16) 
137.9369101787189

>  <Genealogy>  (16) 
CCN(C)CC[NH2+]c1c2ccccc2[n+](C)c2cc(OCC[N+]3(C)CC[N+](C)(C)CC3)c(OC)cc12 (protonated)
CCN(C)CC[NH2+]c1c2ccccc2[n+](C)c2cc(OCC[N+]3(C)CC[N+](C)(C)CC3)c(OC)cc12 (3D coordinates assigned)
CCN(C)CC[NH2+]c1c2ccccc2[n+](C)c2cc(OCC[N+]3(C)CC[N+](C)(C)CC3)c(OC)cc12 (nonaromatic ring conformer: 137.9369101787189 kcal/mol)

>  <smiles>  (16) 
CCN(C)CCNc1c2ccccc2[n+](C)c2cc(OCC[N+]3(C)CC[N+](C)(C)CC3)c(OC)cc12

>  <score_type>  (16) 
oracle

>  <origin>  (16) 
adg

>  <m_score__min__energy>  (16) 
-8.0700000000000003

>  <m_primary>  (16) 
energy

$$$$
16:0
     RDKit          3D

 91 95  0  0  0  0  0  0  0  0999 V2000
   -0.5740   20.2100  -29.9330 C   0  0  0  0  0  0  0  0  0  0  0  0
   -0.5250   21.5660  -30.6310 C   0  0  0  0  0  0  0  0  0  0  0  0
   -1.8940   22.0650  -30.8970 N   0  0  0  0  0  0  0  0  0  0  0  0
   -2.4200   22.8540  -29.7580 C   0  0  0  0  0  0  0  0  0  0  0  0
   -3.4300   22.0560  -28.9350 C   0  0  0  0  0  0  0  0  0  0  0  0
   -2.8030   20.9850  -31.3540 C   0  0  0  0  0  0  0  0  0  0  0  0
   -2.9890   20.9270  -32.8820 C   0  0  0  0  0  0  0  0  0  0  0  0
   -4.2020   21.6440  -33.2770 N   0  0  0  0  0  0  0  0  0  0  0  0
   -5.4100   21.5750  -32.4940 C   0  0  0  0  0  0  0  0  0  0  0  0
   -5.7780   22.6500  -31.6650 C   0  0  0  0  0  0  0  0  0  0  0  0
   -4.9780   23.8100  -31.5810 C   0  0  0  0  0  0  0  0  0  0  0  0
   -5.3200   24.8520  -30.7230 C   0  0  0  0  0  0  0  0  0  0  0  0
   -6.4540   24.7540  -29.9280 C   0  0  0  0  0  0  0  0  0  0  0  0
   -7.2730   23.6290  -30.0090 C   0  0  0  0  0  0  0  0  0  0  0  0
   -6.9800   22.5710  -30.9100 C   0  0  0  0  0  0  0  0  0  0  0  0
   -7.8260   21.4890  -31.0610 N   0  0  0  0  0  0  0  0  0  0  0  0
   -9.2010   21.5450  -30.5140 C   0  0  0  0  0  0  0  0  0  0  0  0
   -7.4020   20.3690  -31.7530 C   0  0  0  0  0  0  0  0  0  0  0  0
   -8.1330   19.1550  -31.7310 C   0  0  0  0  0  0  0  0  0  0  0  0
   -7.7390   18.0590  -32.4970 C   0  0  0  0  0  0  0  0  0  0  0  0
   -6.5780   18.1240  -33.2760 C   0  0  0  0  0  0  0  0  0  0  0  0
   -6.1760   17.0840  -34.1260 O   0  0  0  0  0  0  0  0  0  0  0  0
   -5.0790   17.1330  -35.0400 C   0  0  0  0  0  0  0  0  0  0  0  0
   -4.1590   15.8830  -34.9360 C   0  0  0  0  0  0  0  0  0  0  0  0
   -3.0660   15.9310  -33.9080 N   0  0  1  0  0  0  0  0  0  0  0  0
   -3.4760   14.9870  -32.8300 C   0  0  0  0  0  0  0  0  0  0  0  0
   -1.7780   15.4480  -34.4920 C   0  0  0  0  0  0  0  0  0  0  0  0
   -0.5710   15.7320  -33.5740 C   0  0  0  0  0  0  0  0  0  0  0  0
   -0.4040   17.1900  -33.2290 N   0  0  1  0  0  0  0  0  0  0  0  0
   -0.2120   17.3070  -31.7580 C   0  0  0  0  0  0  0  0  0  0  0  0
    0.8190   17.7050  -33.9300 C   0  0  0  0  0  0  0  0  0  0  0  0
    0.7080   19.1290  -34.4550 C   0  0  0  0  0  0  0  0  0  0  0  0
    0.4280   19.3580  -35.8150 C   0  0  0  0  0  0  0  0  0  0  0  0
    0.3180   20.6620  -36.3070 C   0  0  0  0  0  0  0  0  0  0  0  0
    0.4970   21.7510  -35.4530 C   0  0  0  0  0  0  0  0  0  0  0  0
    0.8040   21.5390  -34.1090 C   0  0  0  0  0  0  0  0  0  0  0  0
    0.9190   20.2370  -33.6090 C   0  0  0  0  0  0  0  0  0  0  0  0
    1.2410   20.0620  -32.3020 F   0  0  0  0  0  0  0  0  0  0  0  0
   -1.5970   17.9950  -33.6410 C   0  0  0  0  0  0  0  0  0  0  0  0
   -2.9370   17.3040  -33.3110 C   0  0  0  0  0  0  0  0  0  0  0  0
   -5.7840   19.2650  -33.2180 C   0  0  0  0  0  0  0  0  0  0  0  0
   -6.1930   20.4060  -32.4970 C   0  0  0  0  0  0  0  0  0  0  0  0
   -0.5686   20.3583  -28.8431 H   0  0  0  0  0  0  0  0  0  0  0  0
   -1.4919   19.6795  -30.2264 H   0  0  0  0  0  0  0  0  0  0  0  0
    0.3032   19.6147  -30.2264 H   0  0  0  0  0  0  0  0  0  0  0  0
    0.0032   22.2850  -29.9875 H   0  0  0  0  0  0  0  0  0  0  0  0
    0.0037   21.4529  -31.5890 H   0  0  0  0  0  0  0  0  0  0  0  0
   -1.5812   23.1446  -29.1083 H   0  0  0  0  0  0  0  0  0  0  0  0
   -2.9314   23.7400  -30.1623 H   0  0  0  0  0  0  0  0  0  0  0  0
   -3.2340   22.2108  -27.8637 H   0  0  0  0  0  0  0  0  0  0  0  0
   -4.4484   22.3960  -29.1744 H   0  0  0  0  0  0  0  0  0  0  0  0
   -3.3348   20.9866  -29.1744 H   0  0  0  0  0  0  0  0  0  0  0  0
   -2.3913   20.0216  -31.0189 H   0  0  0  0  0  0  0  0  0  0  0  0
   -3.7917   21.1969  -30.9210 H   0  0  0  0  0  0  0  0  0  0  0  0
   -2.1191   21.3902  -33.3706 H   0  0  0  0  0  0  0  0  0  0  0  0
   -3.0807   19.8750  -33.1901 H   0  0  0  0  0  0  0  0  0  0  0  0
   -4.2560   22.0040  -34.2550 H   0  0  0  0  0  0  0  0  0  0  0  0
   -4.0731   23.8918  -32.2011 H   0  0  0  0  0  0  0  0  0  0  0  0
   -4.6913   25.7534  -30.6750 H   0  0  0  0  0  0  0  0  0  0  0  0
   -6.7071   25.5671  -29.2317 H   0  0  0  0  0  0  0  0  0  0  0  0
   -8.1614   23.5595  -29.3641 H   0  0  0  0  0  0  0  0  0  0  0  0
   -9.1587   21.5433  -29.4148 H   0  0  0  0  0  0  0  0  0  0  0  0
   -9.6963   22.4641  -30.8604 H   0  0  0  0  0  0  0  0  0  0  0  0
   -9.7694   20.6693  -30.8604 H   0  0  0  0  0  0  0  0  0  0  0  0
   -9.0286   19.0761  -31.0972 H   0  0  0  0  0  0  0  0  0  0  0  0
   -8.3428   17.1396  -32.4892 H   0  0  0  0  0  0  0  0  0  0  0  0
   -5.4759   17.1944  -36.0641 H   0  0  0  0  0  0  0  0  0  0  0  0
   -4.4729   18.0154  -34.7868 H   0  0  0  0  0  0  0  0  0  0  0  0
   -4.7976   15.0182  -34.7027 H   0  0  0  0  0  0  0  0  0  0  0  0
   -3.6409   15.8253  -35.9047 H   0  0  0  0  0  0  0  0  0  0  0  0
   -3.2780   15.4428  -31.8486 H   0  0  0  0  0  0  0  0  0  0  0  0
   -4.5501   14.7685  -32.9229 H   0  0  0  0  0  0  0  0  0  0  0  0
   -2.9025   14.0530  -32.9229 H   0  0  0  0  0  0  0  0  0  0  0  0
   -1.8496   14.3625  -34.6553 H   0  0  0  0  0  0  0  0  0  0  0  0
   -1.6150   15.9886  -35.4360 H   0  0  0  0  0  0  0  0  0  0  0  0
   -0.7042   15.1668  -32.6398 H   0  0  0  0  0  0  0  0  0  0  0  0
    0.3311   15.4256  -34.1238 H   0  0  0  0  0  0  0  0  0  0  0  0
   -1.0401   16.8024  -31.2388 H   0  0  0  0  0  0  0  0  0  0  0  0
    0.7404   16.8356  -31.4739 H   0  0  0  0  0  0  0  0  0  0  0  0
   -0.1943   18.3695  -31.4739 H   0  0  0  0  0  0  0  0  0  0  0  0
    1.6597   17.6671  -33.2216 H   0  0  0  0  0  0  0  0  0  0  0  0
    0.9612   17.0627  -34.8116 H   0  0  0  0  0  0  0  0  0  0  0  0
    0.2947   18.5046  -36.4961 H   0  0  0  0  0  0  0  0  0  0  0  0
    0.0898   20.8300  -37.3699 H   0  0  0  0  0  0  0  0  0  0  0  0
    0.3961   22.7759  -35.8395 H   0  0  0  0  0  0  0  0  0  0  0  0
    0.9563   22.3985  -33.4396 H   0  0  0  0  0  0  0  0  0  0  0  0
   -1.5640   18.9624  -33.1185 H   0  0  0  0  0  0  0  0  0  0  0  0
   -1.5502   18.1151  -34.7334 H   0  0  0  0  0  0  0  0  0  0  0  0
   -3.0246   17.2181  -32.2179 H   0  0  0  0  0  0  0  0  0  0  0  0
   -3.7359   17.9225  -33.7460 H   0  0  0  0  0  0  0  0  0  0  0  0
   -4.8184   19.2774  -33.7448 H   0  0  0  0  0  0  0  0  0  0  0  0
  1  2  1  0
  2  3  1  0
  3  4  1  0
  4  5  1  0
  3  6  1  0
  6  7  1  0
  7  8  1  0
  8  9  1  0
  9 10  2  0
 10 11  1  0
 11 12  2  0
 12 13  1  0
 13 14  2  0
 14 15  1  0
 15 16  2  0
 16 17  1  0
 16 18  1  0
 18 19  2  0
 19 20  1  0
 20 21  2  0
 21 22  1  0
 22 23  1  0
 23 24  1  0
 25 24  1  6
 25 26  1  0
 25 27  1  0
 27 28  1  0
 28 29  1  0
 29 30  1  1
 29 31  1  0
 31 32  1  0
 32 33  2  0
 33 34  1  0
 34 35  2  0
 35 36  1  0
 36 37  2  0
 37 38  1  0
 29 39  1  0
 39 40  1  0
 21 41  1  0
 41 42  2  0
 42  9  1  0
 15 10  1  0
 42 18  1  0
 40 25  1  0
 37 32  1  0
  1 43  1  0
  1 44  1  0
  1 45  1  0
  2 46  1  0
  2 47  1  0
  4 48  1  0
  4 49  1  0
  5 50  1  0
  5 51  1  0
  5 52  1  0
  6 53  1  0
  6 54  1  0
  7 55  1  0
  7 56  1  0
  8 57  1  0
 11 58  1  0
 12 59  1  0
 13 60  1  0
 14 61  1  0
 17 62  1  0
 17 63  1  0
 17 64  1  0
 19 65  1  0
 20 66  1  0
 23 67  1  0
 23 68  1  0
 24 69  1  0
 24 70  1  0
 26 71  1  0
 26 72  1  0
 26 73  1  0
 27 74  1  0
 27 75  1  0
 28 76  1  0
 28 77  1  0
 30 78  1  0
 30 79  1  0
 30 80  1  0
 31 81  1  0
 31 82  1  0
 33 83  1  0
 34 84  1  0
 35 85  1  0
 36 86  1  0
 39 87  1  0
 39 88  1  0
 40 89  1  0
 40 90  1  0
 41 91  1  0
M  CHG  3  16   1  25   1  29   1
M  END
>  <UniqueID>  (17) 
17

>  <SMILES>  (17) 
CCN(CC)CCNc1c2ccccc2[n+](C)c2ccc(OCC[N+]3(C)CC[N+](C)(Cc4ccccc4F)CC3)cc12

>  <Energy>  (17) 
154.6261361505031

>  <Genealogy>  (17) 
CCN(CC)CCNc1c2ccccc2[n+](C)c2ccc(OCC[N+]3(C)CC[N+](C)(Cc4ccccc4F)CC3)cc12 (3D coordinates assigned)
CCN(CC)CCNc1c2ccccc2[n+](C)c2ccc(OCC[N+]3(C)CC[N+](C)(Cc4ccccc4F)CC3)cc12 (nonaromatic ring conformer: 154.6261361505031 kcal/mol)

>  <smiles>  (17) 
CCN(CC)CCNc1c2ccccc2[n+](C)c2ccc(OCC[N+]3(C)CC[N+](C)(Cc4ccccc4F)CC3)cc12

>  <score_type>  (17) 
oracle

>  <origin>  (17) 
adg

>  <m_score__min__energy>  (17) 
-8.8399999999999999

>  <m_primary>  (17) 
energy

$$$$
17:0
     RDKit          3D

 37 38  0  0  0  0  0  0  0  0999 V2000
   -4.0220   24.0770  -27.6050 C   0  0  0  0  0  0  0  0  0  0  0  0
   -2.6970   23.9130  -28.3440 C   0  0  0  0  0  0  0  0  0  0  0  0
   -2.8980   23.9850  -29.7930 N   0  0  0  0  0  0  0  0  0  0  0  0
   -3.9320   23.2780  -30.5120 C   0  0  0  0  0  0  0  0  0  0  0  0
   -3.8060   21.9170  -30.8210 C   0  0  0  0  0  0  0  0  0  0  0  0
   -4.7870   21.2830  -31.5100 N   0  0  0  0  0  0  0  0  0  0  0  0
   -5.8910   21.9080  -31.9300 N   0  0  0  0  0  0  0  0  0  0  0  0
   -6.9130   21.1160  -32.6470 C   0  0  2  0  0  0  0  0  0  0  0  0
   -8.1250   20.9030  -31.7220 C   0  0  0  0  0  0  0  0  0  0  0  0
   -9.1880   19.9520  -32.2980 C   0  0  0  0  0  0  0  0  0  0  0  0
   -8.7440   18.4830  -32.4610 C   0  0  0  0  0  0  0  0  0  0  0  0
   -7.5350   18.1490  -31.6920 N   0  0  0  0  0  0  0  0  0  0  0  0
   -6.2420   18.6080  -32.2500 C   0  0  0  0  0  0  0  0  0  0  0  0
   -6.2930   19.8130  -33.2190 C   0  0  0  0  0  0  0  0  0  0  0  0
   -6.0780   23.2370  -31.6430 C   0  0  0  0  0  0  0  0  0  0  0  0
   -7.1300   23.8320  -32.0040 O   0  0  0  0  0  0  0  0  0  0  0  0
   -5.0960   23.9440  -30.9360 C   0  0  0  0  0  0  0  0  0  0  0  0
   -5.3620   25.6490  -30.5660 Cl  0  0  0  0  0  0  0  0  0  0  0  0
   -3.8419   24.0547  -26.5201 H   0  0  0  0  0  0  0  0  0  0  0  0
   -4.4793   25.0386  -27.8811 H   0  0  0  0  0  0  0  0  0  0  0  0
   -4.6999   23.2559  -27.8811 H   0  0  0  0  0  0  0  0  0  0  0  0
   -2.0099   24.7144  -28.0348 H   0  0  0  0  0  0  0  0  0  0  0  0
   -2.2735   22.9288  -28.0950 H   0  0  0  0  0  0  0  0  0  0  0  0
   -2.2310   24.5890  -30.3220 H   0  0  0  0  0  0  0  0  0  0  0  0
   -2.9104   21.3623  -30.5043 H   0  0  0  0  0  0  0  0  0  0  0  0
   -7.2857   21.6590  -33.5281 H   0  0  0  0  0  0  0  0  0  0  0  0
   -7.7653   20.4849  -30.7702 H   0  0  0  0  0  0  0  0  0  0  0  0
   -8.6076   21.8835  -31.5965 H   0  0  0  0  0  0  0  0  0  0  0  0
  -10.0593   19.9706  -31.6268 H   0  0  0  0  0  0  0  0  0  0  0  0
   -9.4035   20.3177  -33.3128 H   0  0  0  0  0  0  0  0  0  0  0  0
   -9.5633   17.8316  -32.1228 H   0  0  0  0  0  0  0  0  0  0  0  0
   -8.5045   18.3323  -33.5240 H   0  0  0  0  0  0  0  0  0  0  0  0
   -7.6430   18.4620  -30.7000 H   0  0  0  0  0  0  0  0  0  0  0  0
   -5.5944   18.8863  -31.4056 H   0  0  0  0  0  0  0  0  0  0  0  0
   -5.8723   17.7663  -32.8540 H   0  0  0  0  0  0  0  0  0  0  0  0
   -5.2626   20.0386  -33.5311 H   0  0  0  0  0  0  0  0  0  0  0  0
   -6.9537   19.5052  -34.0429 H   0  0  0  0  0  0  0  0  0  0  0  0
  1  2  1  0
  2  3  1  0
  3  4  1  0
  4  5  1  0
  5  6  2  0
  6  7  1  0
  7  8  1  0
  8  9  1  0
  9 10  1  0
 10 11  1  0
 11 12  1  0
 12 13  1  0
 13 14  1  0
  7 15  1  0
 15 16  2  0
 15 17  1  0
 17 18  1  0
 17  4  2  0
 14  8  1  0
  1 19  1  0
  1 20  1  0
  1 21  1  0
  2 22  1  0
  2 23  1  0
  3 24  1  0
  5 25  1  0
  8 26  1  6
  9 27  1  0
  9 28  1  0
 10 29  1  0
 10 30  1  0
 11 31  1  0
 11 32  1  0
 12 33  1  0
 13 34  1  0
 13 35  1  0
 14 36  1  0
 14 37  1  0
M  END
>  <UniqueID>  (18) 
18

>  <SMILES>  (18) 
CCNc1cnn([C@@H]2CCCNCC2)c(=O)c1Cl

>  <Energy>  (18) 
50.99402346262986

>  <Genealogy>  (18) 
CCNc1cnn([C@@H]2CCCNCC2)c(=O)c1Cl (chirality)
CCNc1cnn([C@@H]2CCCNCC2)c(=O)c1Cl (3D coordinates assigned)
CCNc1cnn([C@@H]2CCCNCC2)c(=O)c1Cl (nonaromatic ring conformer: 50.99402346262986 kcal/mol)

>  <smiles>  (18) 
CCNc1cnn(C2CCCNCC2)c(=O)c1Cl

>  <score_type>  (18) 
oracle

>  <origin>  (18) 
adg

>  <m_score__min__energy>  (18) 
-5.9000000000000004

>  <m_primary>  (18) 
energy

$$$$
18:0
     RDKit          3D

 43 45  0  0  0  0  0  0  0  0999 V2000
   -6.1820   24.8840  -29.9940 Br  0  0  0  0  0  0  0  0  0  0  0  0
   -6.1190   24.1860  -31.7980 C   0  0  0  0  0  0  0  0  0  0  0  0
   -6.9370   22.9310  -31.8830 C   0  0  0  0  0  0  0  0  0  0  0  0
   -8.3360   23.0060  -31.9070 C   0  0  0  0  0  0  0  0  0  0  0  0
   -9.0900   21.8350  -31.9530 C   0  0  0  0  0  0  0  0  0  0  0  0
   -8.4490   20.5930  -31.9630 C   0  0  0  0  0  0  0  0  0  0  0  0
   -9.1900   19.4050  -32.0080 C   0  0  0  0  0  0  0  0  0  0  0  0
   -8.5390   18.1730  -32.0130 C   0  0  0  0  0  0  0  0  0  0  0  0
   -7.1450   18.1140  -31.9710 C   0  0  0  0  0  0  0  0  0  0  0  0
   -6.3770   19.2940  -31.9260 C   0  0  0  0  0  0  0  0  0  0  0  0
   -4.9740   19.2600  -31.8840 O   0  0  0  0  0  0  0  0  0  0  0  0
   -4.1230   19.3740  -33.0220 C   0  0  0  0  0  0  0  0  0  0  0  0
   -3.2840   20.6450  -32.9010 C   0  0  0  0  0  0  0  0  0  0  0  0
   -3.4110   21.2210  -31.5460 N   0  0  0  0  0  0  0  0  0  0  0  0
   -2.4960   20.5640  -30.5910 C   0  0  0  0  0  0  0  0  0  0  0  0
   -2.8380   20.9790  -29.1480 C   0  0  0  0  0  0  0  0  0  0  0  0
   -3.5320   22.3490  -29.0810 C   0  0  0  0  0  0  0  0  0  0  0  0
   -2.9960   23.2880  -30.1630 C   0  0  0  0  0  0  0  0  0  0  0  0
   -3.1620   22.6820  -31.5750 C   0  0  0  0  0  0  0  0  0  0  0  0
   -7.0340   20.5440  -31.9230 C   0  0  0  0  0  0  0  0  0  0  0  0
   -6.3220   21.7120  -31.8790 N   0  0  0  0  0  0  0  0  0  0  0  0
   -6.5246   24.9348  -32.4943 H   0  0  0  0  0  0  0  0  0  0  0  0
   -5.0761   23.9601  -32.0652 H   0  0  0  0  0  0  0  0  0  0  0  0
   -8.8370   23.9851  -31.8896 H   0  0  0  0  0  0  0  0  0  0  0  0
  -10.1884   21.8880  -31.9814 H   0  0  0  0  0  0  0  0  0  0  0  0
  -10.2888   19.4448  -32.0395 H   0  0  0  0  0  0  0  0  0  0  0  0
   -9.1259   17.2434  -32.0502 H   0  0  0  0  0  0  0  0  0  0  0  0
   -6.6411   17.1362  -31.9731 H   0  0  0  0  0  0  0  0  0  0  0  0
   -3.4586   18.4988  -33.0729 H   0  0  0  0  0  0  0  0  0  0  0  0
   -4.7342   19.4220  -33.9353 H   0  0  0  0  0  0  0  0  0  0  0  0
   -2.2286   20.4020  -33.0937 H   0  0  0  0  0  0  0  0  0  0  0  0
   -3.6437   21.3804  -33.6357 H   0  0  0  0  0  0  0  0  0  0  0  0
   -2.5942   19.4726  -30.6872 H   0  0  0  0  0  0  0  0  0  0  0  0
   -1.4642   20.8719  -30.8159 H   0  0  0  0  0  0  0  0  0  0  0  0
   -3.5070   20.2224  -28.7120 H   0  0  0  0  0  0  0  0  0  0  0  0
   -1.8942   21.0534  -28.5879 H   0  0  0  0  0  0  0  0  0  0  0  0
   -4.6136   22.2120  -29.2271 H   0  0  0  0  0  0  0  0  0  0  0  0
   -3.3300   22.7966  -28.0967 H   0  0  0  0  0  0  0  0  0  0  0  0
   -3.5470   24.2388  -30.1155 H   0  0  0  0  0  0  0  0  0  0  0  0
   -1.9229   23.4465  -29.9804 H   0  0  0  0  0  0  0  0  0  0  0  0
   -4.0117   23.1738  -32.0711 H   0  0  0  0  0  0  0  0  0  0  0  0
   -2.2208   22.8474  -32.1198 H   0  0  0  0  0  0  0  0  0  0  0  0
   -5.2770   21.6840  -31.8390 H   0  0  0  0  0  0  0  0  0  0  0  0
  1  2  1  0
  2  3  1  0
  3  4  2  0
  4  5  1  0
  5  6  2  0
  6  7  1  0
  7  8  2  0
  8  9  1  0
  9 10  2  0
 10 11  1  0
 11 12  1  0
 12 13  1  0
 13 14  1  0
 14 15  1  0
 15 16  1  0
 16 17  1  0
 17 18  1  0
 18 19  1  0
 10 20  1  0
 20 21  2  0
 21  3  1  0
 20  6  1  0
 19 14  1  0
  2 22  1  0
  2 23  1  0
  4 24  1  0
  5 25  1  0
  7 26  1  0
  8 27  1  0
  9 28  1  0
 12 29  1  0
 12 30  1  0
 13 31  1  0
 13 32  1  0
 15 33  1  0
 15 34  1  0
 16 35  1  0
 16 36  1  0
 17 37  1  0
 17 38  1  0
 18 39  1  0
 18 40  1  0
 19 41  1  0
 19 42  1  0
 21 43  1  0
M  CHG  1  21   1
M  END
>  <UniqueID>  (19) 
19

>  <SMILES>  (19) 
BrCc1ccc2cccc(OCCN3CCCCC3)c2[nH+]1

>  <Energy>  (19) 
49.45578070487245

>  <Genealogy>  (19) 
BrCc1ccc2cccc(OCCN3CCCCC3)c2[nH+]1 (protonated)
BrCc1ccc2cccc(OCCN3CCCCC3)c2[nH+]1 (3D coordinates assigned)
BrCc1ccc2cccc(OCCN3CCCCC3)c2[nH+]1 (nonaromatic ring conformer: 49.45578070487245 kcal/mol)

>  <smiles>  (19) 
BrCc1ccc2cccc(OCCN3CCCCC3)c2n1

>  <score_type>  (19) 
oracle

>  <origin>  (19) 
adg

>  <m_score__min__energy>  (19) 
-6.4800000000000004

>  <m_primary>  (19) 
energy

$$$$
19:0
     RDKit          3D

 52 56  0  0  0  0  0  0  0  0999 V2000
   -2.1740   21.9310  -30.0750 C   0  0  0  0  0  0  0  0  0  0  0  0
   -2.7560   21.9510  -31.4160 N   0  0  0  0  0  0  0  0  0  0  0  0
   -3.8690   22.5840  -31.8620 C   0  0  0  0  0  0  0  0  0  0  0  0
   -4.7740   23.4430  -31.0740 C   0  0  0  0  0  0  0  0  0  0  0  0
   -5.9450   23.0800  -30.4290 C   0  0  0  0  0  0  0  0  0  0  0  0
   -6.4040   24.2260  -29.8160 C   0  0  0  0  0  0  0  0  0  0  0  0
   -5.4920   25.2140  -30.1140 C   0  0  0  0  0  0  0  0  0  0  0  0
   -4.5330   24.7170  -30.8600 O   0  0  0  0  0  0  0  0  0  0  0  0
   -4.0870   22.3290  -33.1690 N   0  0  0  0  0  0  0  0  0  0  0  0
   -3.0980   21.5470  -33.5680 N   0  0  0  0  0  0  0  0  0  0  0  0
   -2.2920   21.3270  -32.5180 C   0  0  0  0  0  0  0  0  0  0  0  0
   -0.8070   20.3180  -32.5960 S   0  0  0  0  0  0  0  0  0  0  0  0
   -1.3530   19.3480  -34.0460 C   0  0  0  0  0  0  0  0  0  0  0  0
   -2.7510   18.7690  -33.8220 C   0  0  0  0  0  0  0  0  0  0  0  0
   -2.6710   17.4120  -33.0860 C   0  0  0  0  0  0  0  0  0  0  0  0
   -3.8330   16.5210  -33.3190 N   0  0  0  0  0  0  0  0  0  0  0  0
   -4.3710   16.5940  -34.6900 C   0  0  0  0  0  0  0  0  0  0  0  0
   -5.7840   17.1560  -34.6240 C   0  0  1  0  0  0  0  0  0  0  0  0
   -6.8500   16.2180  -34.0700 C   0  0  0  0  0  0  0  0  0  0  0  0
   -6.1450   17.2140  -33.1580 C   0  0  2  0  0  0  0  0  0  0  0  0
   -6.9470   18.3990  -32.6830 C   0  0  0  0  0  0  0  0  0  0  0  0
   -8.1560   18.2280  -31.9900 C   0  0  0  0  0  0  0  0  0  0  0  0
   -8.9060   19.3410  -31.5960 C   0  0  0  0  0  0  0  0  0  0  0  0
   -8.4590   20.6290  -31.9010 C   0  0  0  0  0  0  0  0  0  0  0  0
   -7.2630   20.8070  -32.6030 C   0  0  0  0  0  0  0  0  0  0  0  0
   -6.8340   22.0570  -32.9060 F   0  0  0  0  0  0  0  0  0  0  0  0
   -6.5130   19.6950  -32.9990 C   0  0  0  0  0  0  0  0  0  0  0  0
   -4.9410   16.7220  -32.3700 C   0  0  0  0  0  0  0  0  0  0  0  0
   -2.9787   21.9587  -29.3256 H   0  0  0  0  0  0  0  0  0  0  0  0
   -1.5835   21.0120  -29.9452 H   0  0  0  0  0  0  0  0  0  0  0  0
   -1.5218   22.8073  -29.9452 H   0  0  0  0  0  0  0  0  0  0  0  0
   -6.4116   22.0840  -30.4100 H   0  0  0  0  0  0  0  0  0  0  0  0
   -7.3161   24.3305  -29.2101 H   0  0  0  0  0  0  0  0  0  0  0  0
   -5.5572   26.2595  -29.7783 H   0  0  0  0  0  0  0  0  0  0  0  0
   -2.9860   21.1750  -34.5360 H   0  0  0  0  0  0  0  0  0  0  0  0
   -1.3718   20.0021  -34.9302 H   0  0  0  0  0  0  0  0  0  0  0  0
   -0.6489   18.5165  -34.1973 H   0  0  0  0  0  0  0  0  0  0  0  0
   -3.3405   19.4734  -33.2168 H   0  0  0  0  0  0  0  0  0  0  0  0
   -3.2289   18.6122  -34.8003 H   0  0  0  0  0  0  0  0  0  0  0  0
   -1.7636   16.8900  -33.4239 H   0  0  0  0  0  0  0  0  0  0  0  0
   -2.6589   17.6382  -32.0096 H   0  0  0  0  0  0  0  0  0  0  0  0
   -3.7378   17.2525  -35.3027 H   0  0  0  0  0  0  0  0  0  0  0  0
   -4.3843   15.5921  -35.1439 H   0  0  0  0  0  0  0  0  0  0  0  0
   -5.7771   17.8065  -35.5110 H   0  0  0  0  0  0  0  0  0  0  0  0
   -7.9071   16.3661  -34.3359 H   0  0  0  0  0  0  0  0  0  0  0  0
   -7.0061   15.1291  -34.0649 H   0  0  0  0  0  0  0  0  0  0  0  0
   -8.5148   17.2148  -31.7560 H   0  0  0  0  0  0  0  0  0  0  0  0
   -9.8483   19.2021  -31.0457 H   0  0  0  0  0  0  0  0  0  0  0  0
   -9.0484   21.5037  -31.5886 H   0  0  0  0  0  0  0  0  0  0  0  0
   -5.5782   19.8373  -33.5610 H   0  0  0  0  0  0  0  0  0  0  0  0
   -4.6564   17.4703  -31.6156 H   0  0  0  0  0  0  0  0  0  0  0  0
   -5.1791   15.7809  -31.8526 H   0  0  0  0  0  0  0  0  0  0  0  0
  1  2  1  0
  2  3  1  0
  3  4  1  0
  4  5  2  0
  5  6  1  0
  6  7  2  0
  7  8  1  0
  3  9  2  0
  9 10  1  0
 10 11  2  0
 11 12  1  0
 12 13  1  0
 13 14  1  0
 14 15  1  0
 15 16  1  0
 16 17  1  0
 17 18  1  0
 18 19  1  0
 19 20  1  0
 20 21  1  1
 21 22  2  0
 22 23  1  0
 23 24  2  0
 24 25  1  0
 25 26  1  0
 25 27  2  0
 20 28  1  0
 11  2  1  0
 28 16  1  0
  8  4  1  0
 20 18  1  0
 27 21  1  0
  1 29  1  0
  1 30  1  0
  1 31  1  0
  5 32  1  0
  6 33  1  0
  7 34  1  0
 10 35  1  0
 13 36  1  0
 13 37  1  0
 14 38  1  0
 14 39  1  0
 15 40  1  0
 15 41  1  0
 17 42  1  0
 17 43  1  0
 18 44  1  6
 19 45  1  0
 19 46  1  0
 22 47  1  0
 23 48  1  0
 24 49  1  0
 27 50  1  0
 28 51  1  0
 28 52  1  0
M  CHG  1  10   1
M  END
>  <UniqueID>  (20) 
20

>  <SMILES>  (20) 
Cn1c(-c2ccco2)n[nH+]c1SCCCN1C[C@H]2C[C@@]2(c2cccc(F)c2)C1

>  <Energy>  (20) 
386.0656353726866

>  <Genealogy>  (20) 
Cn1c(-c2ccco2)n[nH+]c1SCCCN1CC2CC2(c2cccc(F)c2)C1 (protonated)
Cn1c(-c2ccco2)n[nH+]c1SCCCN1C[C@H]2C[C@@]2(c2cccc(F)c2)C1 (chirality)
Cn1c(-c2ccco2)n[nH+]c1SCCCN1C[C@H]2C[C@@]2(c2cccc(F)c2)C1 (3D coordinates assigned)
Cn1c(-c2ccco2)n[nH+]c1SCCCN1C[C@H]2C[C@@]2(c2cccc(F)c2)C1 (nonaromatic ring conformer: 386.0656353726866 kcal/mol)

>  <smiles>  (20) 
Cn1c(SCCCN2CC3CC3(c3cccc(F)c3)C2)nnc1-c1ccco1

>  <score_type>  (20) 
oracle

>  <origin>  (20) 
adg

>  <m_score__min__energy>  (20) 
-9.3200000000000003

>  <m_primary>  (20) 
energy

$$$$
20:0
     RDKit          3D

 56 59  0  0  0  0  0  0  0  0999 V2000
   -3.3200   21.8860  -29.7980 C   0  0  0  0  0  0  0  0  0  0  0  0
   -3.0250   23.3710  -29.9880 C   0  0  0  0  0  0  0  0  0  0  0  0
   -3.8730   23.9590  -31.0350 N   0  0  0  0  0  0  0  0  0  0  0  0
   -5.2870   24.0850  -30.6390 C   0  0  0  0  0  0  0  0  0  0  0  0
   -6.1390   22.9680  -31.2660 C   0  0  0  0  0  0  0  0  0  0  0  0
   -5.5930   22.4600  -32.5410 N   0  0  0  0  0  0  0  0  0  0  0  0
   -5.7590   21.0250  -32.6780 C   0  0  0  0  0  0  0  0  0  0  0  0
   -7.0240   20.3750  -32.5010 C   0  0  0  0  0  0  0  0  0  0  0  0
   -8.2070   21.0950  -32.1960 C   0  0  0  0  0  0  0  0  0  0  0  0
   -9.4150   20.4400  -31.9730 C   0  0  0  0  0  0  0  0  0  0  0  0
   -9.4850   19.0580  -32.0370 C   0  0  0  0  0  0  0  0  0  0  0  0
   -8.3550   18.3150  -32.3610 C   0  0  0  0  0  0  0  0  0  0  0  0
   -7.1150   18.9440  -32.6360 C   0  0  0  0  0  0  0  0  0  0  0  0
   -6.0110   18.2000  -33.0160 N   0  0  0  0  0  0  0  0  0  0  0  0
   -6.1180   16.7590  -33.3130 C   0  0  0  0  0  0  0  0  0  0  0  0
   -4.7990   18.8280  -33.1100 C   0  0  0  0  0  0  0  0  0  0  0  0
   -3.6100   18.2210  -33.3380 N   0  0  0  0  0  0  0  0  0  0  0  0
   -2.7020   19.2090  -33.3550 C   0  0  0  0  0  0  0  0  0  0  0  0
   -1.3310   19.0580  -33.5560 C   0  0  0  0  0  0  0  0  0  0  0  0
   -0.5270   20.2070  -33.5380 C   0  0  0  0  0  0  0  0  0  0  0  0
    1.2020   20.0650  -33.7860 S   0  0  0  0  0  0  0  0  0  0  0  0
    1.6600   18.5110  -34.2290 O   0  0  0  0  0  0  0  0  0  0  0  0
    1.8410   21.2860  -34.8720 C   0  0  0  0  0  0  0  0  0  0  0  0
    3.0410   20.9980  -35.7150 C   0  0  0  0  0  0  0  0  0  0  0  0
    1.3010   22.3790  -34.9360 O   0  0  0  0  0  0  0  0  0  0  0  0
   -1.1070   21.4740  -33.3210 C   0  0  0  0  0  0  0  0  0  0  0  0
   -2.4920   21.6030  -33.1170 C   0  0  0  0  0  0  0  0  0  0  0  0
   -3.2830   20.4430  -33.1360 C   0  0  0  0  0  0  0  0  0  0  0  0
   -4.6520   20.1980  -32.9630 C   0  0  0  0  0  0  0  0  0  0  0  0
   -3.3657   21.6558  -28.7233 H   0  0  0  0  0  0  0  0  0  0  0  0
   -4.2844   21.6408  -30.2669 H   0  0  0  0  0  0  0  0  0  0  0  0
   -2.5225   21.2908  -30.2669 H   0  0  0  0  0  0  0  0  0  0  0  0
   -3.2115   23.8966  -29.0399 H   0  0  0  0  0  0  0  0  0  0  0  0
   -1.9740   23.4776  -30.2947 H   0  0  0  0  0  0  0  0  0  0  0  0
   -3.5040   24.9220  -31.2160 H   0  0  0  0  0  0  0  0  0  0  0  0
   -5.3604   24.0208  -29.5433 H   0  0  0  0  0  0  0  0  0  0  0  0
   -5.6648   25.0546  -30.9955 H   0  0  0  0  0  0  0  0  0  0  0  0
   -6.1969   22.1319  -30.5536 H   0  0  0  0  0  0  0  0  0  0  0  0
   -7.1280   23.3973  -31.4841 H   0  0  0  0  0  0  0  0  0  0  0  0
   -4.6120   22.7830  -32.6630 H   0  0  0  0  0  0  0  0  0  0  0  0
   -6.0770   22.9210  -33.3410 H   0  0  0  0  0  0  0  0  0  0  0  0
   -8.1694   22.1926  -32.1344 H   0  0  0  0  0  0  0  0  0  0  0  0
  -10.3192   21.0233  -31.7446 H   0  0  0  0  0  0  0  0  0  0  0  0
  -10.4370   18.5469  -31.8310 H   0  0  0  0  0  0  0  0  0  0  0  0
   -8.4249   17.2181  -32.4047 H   0  0  0  0  0  0  0  0  0  0  0  0
   -6.1601   16.1926  -32.3710 H   0  0  0  0  0  0  0  0  0  0  0  0
   -7.0325   16.5714  -33.8947 H   0  0  0  0  0  0  0  0  0  0  0  0
   -5.2412   16.4384  -33.8947 H   0  0  0  0  0  0  0  0  0  0  0  0
   -3.3990   17.2040  -33.4410 H   0  0  0  0  0  0  0  0  0  0  0  0
   -0.8912   18.0639  -33.7243 H   0  0  0  0  0  0  0  0  0  0  0  0
    2.4470   18.3130  -33.6620 H   0  0  0  0  0  0  0  0  0  0  0  0
    3.9042   20.7908  -35.0655 H   0  0  0  0  0  0  0  0  0  0  0  0
    2.8414   20.1223  -36.3500 H   0  0  0  0  0  0  0  0  0  0  0  0
    3.2606   21.8689  -36.3500 H   0  0  0  0  0  0  0  0  0  0  0  0
   -0.4694   22.3703  -33.3113 H   0  0  0  0  0  0  0  0  0  0  0  0
   -2.9458   22.5904  -32.9463 H   0  0  0  0  0  0  0  0  0  0  0  0
  1  2  1  0
  2  3  1  0
  3  4  1  0
  4  5  1  0
  5  6  1  0
  6  7  1  0
  7  8  2  0
  8  9  1  0
  9 10  2  0
 10 11  1  0
 11 12  2  0
 12 13  1  0
 13 14  2  0
 14 15  1  0
 14 16  1  0
 16 17  1  0
 17 18  1  0
 18 19  2  0
 19 20  1  0
 20 21  1  0
 21 22  1  6
 21 23  1  0
 23 24  1  0
 23 25  2  0
 20 26  2  0
 26 27  1  0
 27 28  2  0
 28 29  1  0
 29  7  1  0
 13  8  1  0
 29 16  2  0
 28 18  1  0
  1 30  1  0
  1 31  1  0
  1 32  1  0
  2 33  1  0
  2 34  1  0
  3 35  1  0
  4 36  1  0
  4 37  1  0
  5 38  1  0
  5 39  1  0
  6 40  1  0
  6 41  1  0
  9 42  1  0
 10 43  1  0
 11 44  1  0
 12 45  1  0
 15 46  1  0
 15 47  1  0
 15 48  1  0
 17 49  1  0
 19 50  1  0
 22 51  1  0
 24 52  1  0
 24 53  1  0
 24 54  1  0
 26 55  1  0
 27 56  1  0
M  CHG  3   6   1  14   1  21   1
M  END
>  <UniqueID>  (21) 
21

>  <SMILES>  (21) 
CCNCC[NH2+]c1c2ccccc2[n+](C)c2[nH]c3cc([S@@+](O)C(C)=O)ccc3c12

>  <Energy>  (21) 
112.03297339809262

>  <Genealogy>  (21) 
CCNCC[NH2+]c1c2ccccc2[n+](C)c2[nH]c3cc([S+](O)C(C)=O)ccc3c12 (protonated)
CCNCC[NH2+]c1c2ccccc2[n+](C)c2[nH]c3cc([S@@+](O)C(C)=O)ccc3c12 (chirality)
CCNCC[NH2+]c1c2ccccc2[n+](C)c2[nH]c3cc([S@@+](O)C(C)=O)ccc3c12 (3D coordinates assigned)
CCNCC[NH2+]c1c2ccccc2[n+](C)c2[nH]c3cc([S@@+](O)C(C)=O)ccc3c12 (optimized conformer: 112.03297339809262 kcal/mol)

>  <smiles>  (21) 
CCNCCNc1c2ccccc2[n+](C)c2[nH]c3cc([S+]([O-])C(C)=O)ccc3c12

>  <score_type>  (21) 
oracle

>  <origin>  (21) 
adg

>  <m_score__min__energy>  (21) 
-8.5800000000000001

>  <m_primary>  (21) 
energy

$$$$
21:0
     RDKit          3D

 55 57  0  0  0  0  0  0  0  0999 V2000
   -4.2240   24.9380  -26.3560 C   0  0  0  0  0  0  0  0  0  0  0  0
   -3.3410   24.1850  -27.3650 C   0  0  0  0  0  0  0  0  0  0  0  0
   -4.0220   23.1140  -28.1560 N   0  0  0  0  0  0  0  0  0  0  0  0
   -3.0710   22.2890  -28.9470 C   0  0  0  0  0  0  0  0  0  0  0  0
   -1.9950   23.0900  -29.6880 C   0  0  0  0  0  0  0  0  0  0  0  0
   -5.1940   23.5490  -28.9670 C   0  0  0  0  0  0  0  0  0  0  0  0
   -4.8370   24.5880  -29.9540 N   0  0  0  0  0  0  0  0  0  0  0  0
   -5.8990   24.8160  -30.9470 C   0  0  0  0  0  0  0  0  0  0  0  0
   -5.7620   23.8230  -32.1030 C   0  0  0  0  0  0  0  0  0  0  0  0
   -4.9970   22.6480  -31.6890 N   0  0  0  0  0  0  0  0  0  0  0  0
   -5.2530   21.3700  -32.2860 C   0  0  0  0  0  0  0  0  0  0  0  0
   -6.5350   20.8020  -32.2110 C   0  0  0  0  0  0  0  0  0  0  0  0
   -7.5720   21.4590  -31.5160 C   0  0  0  0  0  0  0  0  0  0  0  0
   -8.8310   20.8730  -31.4010 C   0  0  0  0  0  0  0  0  0  0  0  0
   -9.0710   19.6250  -31.9620 C   0  0  0  0  0  0  0  0  0  0  0  0
   -8.0640   18.9650  -32.6680 C   0  0  0  0  0  0  0  0  0  0  0  0
   -6.7850   19.5530  -32.8390 C   0  0  0  0  0  0  0  0  0  0  0  0
   -5.7910   18.9380  -33.5800 N   0  0  0  0  0  0  0  0  0  0  0  0
   -6.1250   17.7980  -34.4620 C   0  0  0  0  0  0  0  0  0  0  0  0
   -4.4900   19.4030  -33.5110 C   0  0  0  0  0  0  0  0  0  0  0  0
   -3.4010   18.6600  -34.0350 C   0  0  0  0  0  0  0  0  0  0  0  0
   -2.1000   19.1620  -33.9950 C   0  0  0  0  0  0  0  0  0  0  0  0
   -1.8440   20.4020  -33.4190 C   0  0  0  0  0  0  0  0  0  0  0  0
   -0.0590   21.0810  -33.3650 Br  0  0  0  0  0  0  0  0  0  0  0  0
   -2.8870   21.1380  -32.8590 C   0  0  0  0  0  0  0  0  0  0  0  0
   -4.2100   20.6480  -32.8880 C   0  0  0  0  0  0  0  0  0  0  0  0
   -3.9168   24.6760  -25.3328 H   0  0  0  0  0  0  0  0  0  0  0  0
   -4.1106   26.0217  -26.5067 H   0  0  0  0  0  0  0  0  0  0  0  0
   -5.2762   24.6549  -26.5067 H   0  0  0  0  0  0  0  0  0  0  0  0
   -2.9357   24.9218  -28.0741 H   0  0  0  0  0  0  0  0  0  0  0  0
   -2.5750   23.6713  -26.7655 H   0  0  0  0  0  0  0  0  0  0  0  0
   -4.3950   22.4430  -27.4430 H   0  0  0  0  0  0  0  0  0  0  0  0
   -2.5680   21.5921  -28.2604 H   0  0  0  0  0  0  0  0  0  0  0  0
   -3.6671   21.7797  -29.7185 H   0  0  0  0  0  0  0  0  0  0  0  0
   -1.3353   23.5811  -28.9575 H   0  0  0  0  0  0  0  0  0  0  0  0
   -1.4024   22.4115  -30.3192 H   0  0  0  0  0  0  0  0  0  0  0  0
   -2.4750   23.8524  -30.3192 H   0  0  0  0  0  0  0  0  0  0  0  0
   -5.5977   22.6766  -29.5018 H   0  0  0  0  0  0  0  0  0  0  0  0
   -5.9382   23.9783  -28.2802 H   0  0  0  0  0  0  0  0  0  0  0  0
   -4.6240   25.4920  -29.4740 H   0  0  0  0  0  0  0  0  0  0  0  0
   -6.8799   24.6825  -30.4674 H   0  0  0  0  0  0  0  0  0  0  0  0
   -5.8099   25.8395  -31.3400 H   0  0  0  0  0  0  0  0  0  0  0  0
   -6.7642   23.5054  -32.4265 H   0  0  0  0  0  0  0  0  0  0  0  0
   -5.2313   24.3160  -32.9308 H   0  0  0  0  0  0  0  0  0  0  0  0
   -4.2950   22.7080  -30.9170 H   0  0  0  0  0  0  0  0  0  0  0  0
   -7.3851   22.4428  -31.0607 H   0  0  0  0  0  0  0  0  0  0  0  0
   -9.6353   21.3989  -30.8657 H   0  0  0  0  0  0  0  0  0  0  0  0
  -10.0591   19.1549  -31.8493 H   0  0  0  0  0  0  0  0  0  0  0  0
   -8.2657   17.9731  -33.0986 H   0  0  0  0  0  0  0  0  0  0  0  0
   -6.3816   16.9222  -33.8479 H   0  0  0  0  0  0  0  0  0  0  0  0
   -6.9828   18.0647  -35.0969 H   0  0  0  0  0  0  0  0  0  0  0  0
   -5.2589   17.5596  -35.0969 H   0  0  0  0  0  0  0  0  0  0  0  0
   -3.5856   17.6713  -34.4804 H   0  0  0  0  0  0  0  0  0  0  0  0
   -1.2731   18.5747  -34.4208 H   0  0  0  0  0  0  0  0  0  0  0  0
   -2.6766   22.1104  -32.3898 H   0  0  0  0  0  0  0  0  0  0  0  0
  1  2  1  0
  2  3  1  0
  3  4  1  0
  4  5  1  0
  3  6  1  0
  6  7  1  0
  7  8  1  0
  8  9  1  0
  9 10  1  0
 10 11  1  0
 11 12  2  0
 12 13  1  0
 13 14  2  0
 14 15  1  0
 15 16  2  0
 16 17  1  0
 17 18  2  0
 18 19  1  0
 18 20  1  0
 20 21  2  0
 21 22  1  0
 22 23  2  0
 23 24  1  0
 23 25  1  0
 25 26  2  0
 26 11  1  0
 17 12  1  0
 26 20  1  0
  1 27  1  0
  1 28  1  0
  1 29  1  0
  2 30  1  0
  2 31  1  0
  3 32  1  0
  4 33  1  0
  4 34  1  0
  5 35  1  0
  5 36  1  0
  5 37  1  0
  6 38  1  0
  6 39  1  0
  7 40  1  0
  8 41  1  0
  8 42  1  0
  9 43  1  0
  9 44  1  0
 10 45  1  0
 13 46  1  0
 14 47  1  0
 15 48  1  0
 16 49  1  0
 19 50  1  0
 19 51  1  0
 19 52  1  0
 21 53  1  0
 22 54  1  0
 25 55  1  0
M  CHG  2   3   1  18   1
M  END
>  <UniqueID>  (22) 
22

>  <SMILES>  (22) 
CC[NH+](CC)CNCCNc1c2ccccc2[n+](C)c2ccc(Br)cc12

>  <Energy>  (22) 
90.24910920447354

>  <Genealogy>  (22) 
CC[NH+](CC)CNCCNc1c2ccccc2[n+](C)c2ccc(Br)cc12 (protonated)
CC[NH+](CC)CNCCNc1c2ccccc2[n+](C)c2ccc(Br)cc12 (3D coordinates assigned)
CC[NH+](CC)CNCCNc1c2ccccc2[n+](C)c2ccc(Br)cc12 (optimized conformer: 90.24910920447354 kcal/mol)

>  <smiles>  (22) 
CCN(CC)CNCCNc1c2ccccc2[n+](C)c2ccc(Br)cc12

>  <score_type>  (22) 
oracle

>  <origin>  (22) 
adg

>  <m_score__min__energy>  (22) 
-8.3399999999999999

>  <m_primary>  (22) 
energy

$$$$
22:0
     RDKit          3D

 64 65  0  0  0  0  0  0  0  0999 V2000
   -9.5110   21.5470  -30.4800 C   0  0  0  0  0  0  0  0  0  0  0  0
   -9.2320   22.0120  -31.7040 C   0  0  0  0  0  0  0  0  0  0  0  0
   -7.8740   22.5640  -32.0360 C   0  0  0  0  0  0  0  0  0  0  0  0
   -7.0690   21.5600  -32.7630 N   0  0  0  0  0  0  0  0  0  0  0  0
   -5.6690   21.4240  -32.2390 C   0  0  0  0  0  0  0  0  0  0  0  0
   -4.7590   22.6550  -32.4560 C   0  0  0  0  0  0  0  0  0  0  0  0
   -4.9580   23.6150  -31.4320 O   0  0  0  0  0  0  0  0  0  0  0  0
   -5.1470   22.9800  -30.1760 C   0  0  0  0  0  0  0  0  0  0  0  0
   -4.0100   23.3330  -29.2820 C   0  0  0  0  0  0  0  0  0  0  0  0
   -3.6070   22.4810  -28.2310 C   0  0  0  0  0  0  0  0  0  0  0  0
   -2.5180   22.8270  -27.4200 C   0  0  0  0  0  0  0  0  0  0  0  0
   -1.8350   24.0390  -27.6380 C   0  0  0  0  0  0  0  0  0  0  0  0
   -2.2140   24.8820  -28.6920 C   0  0  0  0  0  0  0  0  0  0  0  0
   -1.4700   26.0560  -28.9190 O   0  0  0  0  0  0  0  0  0  0  0  0
   -0.8020   26.7750  -27.8800 C   0  0  0  0  0  0  0  0  0  0  0  0
   -3.3320   24.5510  -29.4790 C   0  0  0  0  0  0  0  0  0  0  0  0
   -7.8110   20.2780  -32.8970 C   0  0  0  0  0  0  0  0  0  0  0  0
   -6.8890   19.0920  -33.0430 C   0  0  0  0  0  0  0  0  0  0  0  0
   -6.7860   18.1540  -32.0040 C   0  0  0  0  0  0  0  0  0  0  0  0
   -6.0020   17.0120  -32.1720 C   0  0  0  0  0  0  0  0  0  0  0  0
   -5.3010   16.8080  -33.3580 C   0  0  0  0  0  0  0  0  0  0  0  0
   -4.5750   15.6020  -33.4780 O   0  0  0  0  0  0  0  0  0  0  0  0
   -5.0670   14.4270  -34.1310 C   0  0  0  0  0  0  0  0  0  0  0  0
   -4.7290   13.1620  -33.3050 C   0  0  0  0  0  0  0  0  0  0  0  0
   -3.9460   13.4570  -32.0720 N   0  0  0  0  0  0  0  0  0  0  0  0
   -2.5780   12.8880  -32.1220 C   0  0  0  0  0  0  0  0  0  0  0  0
   -4.6850   13.0420  -30.8430 C   0  0  0  0  0  0  0  0  0  0  0  0
   -5.3620   17.7660  -34.3960 C   0  0  0  0  0  0  0  0  0  0  0  0
   -6.1470   18.9210  -34.2270 C   0  0  0  0  0  0  0  0  0  0  0  0
  -10.5116   21.1473  -30.2584 H   0  0  0  0  0  0  0  0  0  0  0  0
   -8.7397   21.5646  -29.6959 H   0  0  0  0  0  0  0  0  0  0  0  0
  -10.0106   21.9897  -32.4807 H   0  0  0  0  0  0  0  0  0  0  0  0
   -7.9911   23.4584  -32.6655 H   0  0  0  0  0  0  0  0  0  0  0  0
   -7.3575   22.8231  -31.1000 H   0  0  0  0  0  0  0  0  0  0  0  0
   -5.7282   21.2318  -31.1575 H   0  0  0  0  0  0  0  0  0  0  0  0
   -5.2098   20.6025  -32.8086 H   0  0  0  0  0  0  0  0  0  0  0  0
   -3.7075   22.3320  -32.4481 H   0  0  0  0  0  0  0  0  0  0  0  0
   -5.0114   23.1139  -33.4233 H   0  0  0  0  0  0  0  0  0  0  0  0
   -6.0905   23.3234  -29.7267 H   0  0  0  0  0  0  0  0  0  0  0  0
   -5.1897   21.8893  -30.3122 H   0  0  0  0  0  0  0  0  0  0  0  0
   -4.1499   21.5420  -28.0480 H   0  0  0  0  0  0  0  0  0  0  0  0
   -2.1967   22.1519  -26.6131 H   0  0  0  0  0  0  0  0  0  0  0  0
   -1.0017   24.3251  -26.9794 H   0  0  0  0  0  0  0  0  0  0  0  0
   -1.1438   26.4071  -26.9013 H   0  0  0  0  0  0  0  0  0  0  0  0
    0.2839   26.6243  -27.9695 H   0  0  0  0  0  0  0  0  0  0  0  0
   -1.0320   27.8469  -27.9695 H   0  0  0  0  0  0  0  0  0  0  0  0
   -3.6793   25.2495  -30.2546 H   0  0  0  0  0  0  0  0  0  0  0  0
   -8.4324   20.1342  -32.0008 H   0  0  0  0  0  0  0  0  0  0  0  0
   -8.4250   20.3395  -33.8076 H   0  0  0  0  0  0  0  0  0  0  0  0
   -7.3228   18.3190  -31.0582 H   0  0  0  0  0  0  0  0  0  0  0  0
   -5.9373   16.2690  -31.3635 H   0  0  0  0  0  0  0  0  0  0  0  0
   -6.1586   14.5053  -34.2418 H   0  0  0  0  0  0  0  0  0  0  0  0
   -4.5891   14.3438  -35.1183 H   0  0  0  0  0  0  0  0  0  0  0  0
   -5.6703   12.6737  -33.0127 H   0  0  0  0  0  0  0  0  0  0  0  0
   -4.1067   12.5141  -33.9398 H   0  0  0  0  0  0  0  0  0  0  0  0
   -3.8260   14.5010  -32.0560 H   0  0  0  0  0  0  0  0  0  0  0  0
   -2.2073   12.7338  -31.0979 H   0  0  0  0  0  0  0  0  0  0  0  0
   -2.6007   11.9247  -32.6526 H   0  0  0  0  0  0  0  0  0  0  0  0
   -1.9109   13.5833  -32.6526 H   0  0  0  0  0  0  0  0  0  0  0  0
   -4.1221   13.3581  -29.9524 H   0  0  0  0  0  0  0  0  0  0  0  0
   -5.6785   13.5142  -30.8355 H   0  0  0  0  0  0  0  0  0  0  0  0
   -4.7989   11.9479  -30.8355 H   0  0  0  0  0  0  0  0  0  0  0  0
   -4.8000   17.6094  -35.3285 H   0  0  0  0  0  0  0  0  0  0  0  0
   -6.1809   19.6867  -35.0160 H   0  0  0  0  0  0  0  0  0  0  0  0
  1  2  2  0
  2  3  1  0
  3  4  1  0
  4  5  1  0
  5  6  1  0
  6  7  1  0
  7  8  1  0
  8  9  1  0
  9 10  2  0
 10 11  1  0
 11 12  2  0
 12 13  1  0
 13 14  1  0
 14 15  1  0
 13 16  2  0
  4 17  1  0
 17 18  1  0
 18 19  2  0
 19 20  1  0
 20 21  2  0
 21 22  1  0
 22 23  1  0
 23 24  1  0
 24 25  1  0
 25 26  1  0
 25 27  1  0
 21 28  1  0
 28 29  2  0
 16  9  1  0
 29 18  1  0
  1 30  1  0
  1 31  1  0
  2 32  1  0
  3 33  1  0
  3 34  1  0
  5 35  1  0
  5 36  1  0
  6 37  1  0
  6 38  1  0
  8 39  1  0
  8 40  1  0
 10 41  1  0
 11 42  1  0
 12 43  1  0
 15 44  1  0
 15 45  1  0
 15 46  1  0
 16 47  1  0
 17 48  1  0
 17 49  1  0
 19 50  1  0
 20 51  1  0
 23 52  1  0
 23 53  1  0
 24 54  1  0
 24 55  1  0
 25 56  1  0
 26 57  1  0
 26 58  1  0
 26 59  1  0
 27 60  1  0
 27 61  1  0
 27 62  1  0
 28 63  1  0
 29 64  1  0
M  CHG  1  25   1
M  END
>  <UniqueID>  (23) 
23

>  <SMILES>  (23) 
C=CCN(CCOCc1cccc(OC)c1)Cc1ccc(OCC[NH+](C)C)cc1

>  <Energy>  (23) 
79.00971062604299

>  <Genealogy>  (23) 
C=CCN(CCOCc1cccc(OC)c1)Cc1ccc(OCC[NH+](C)C)cc1 (protonated)
C=CCN(CCOCc1cccc(OC)c1)Cc1ccc(OCC[NH+](C)C)cc1 (3D coordinates assigned)
C=CCN(CCOCc1cccc(OC)c1)Cc1ccc(OCC[NH+](C)C)cc1 (optimized conformer: 79.00971062604299 kcal/mol)

>  <smiles>  (23) 
C=CCN(CCOCc1cccc(OC)c1)Cc1ccc(OCCN(C)C)cc1

>  <score_type>  (23) 
oracle

>  <origin>  (23) 
adg

>  <m_score__min__energy>  (23) 
-7.7800000000000002

>  <m_primary>  (23) 
energy

$$$$
23:0
     RDKit          3D

 36 38  0  0  0  0  0  0  0  0999 V2000
   -2.8120   24.5460  -28.3650 C   0  0  0  0  0  0  0  0  0  0  0  0
   -3.8890   24.5480  -29.3950 C   0  0  0  0  0  0  0  0  0  0  0  0
   -4.9720   23.7480  -29.3530 N   0  0  0  0  0  0  0  0  0  0  0  0
   -5.6060   24.1090  -30.4880 C   0  0  0  0  0  0  0  0  0  0  0  0
   -6.8720   23.4670  -30.9720 C   0  0  1  0  0  0  0  0  0  0  0  0
   -6.6860   22.9290  -32.4150 C   0  0  0  0  0  0  0  0  0  0  0  0
   -7.4550   21.6860  -32.6600 N   0  0  0  0  0  0  0  0  0  0  0  0
   -6.6640   20.4670  -32.3780 C   0  0  0  0  0  0  0  0  0  0  0  0
   -5.2000   20.8040  -32.2980 C   0  0  0  0  0  0  0  0  0  0  0  0
   -4.5420   20.8750  -31.0610 C   0  0  0  0  0  0  0  0  0  0  0  0
   -3.1870   21.2040  -31.0110 C   0  0  0  0  0  0  0  0  0  0  0  0
   -2.5000   21.4630  -32.1980 C   0  0  0  0  0  0  0  0  0  0  0  0
   -3.1490   21.3940  -33.3930 N   0  0  0  0  0  0  0  0  0  0  0  0
   -4.4700   21.0740  -33.4660 C   0  0  0  0  0  0  0  0  0  0  0  0
   -8.7310   21.7020  -31.9200 C   0  0  0  0  0  0  0  0  0  0  0  0
   -8.5150   21.9280  -30.4040 C   0  0  0  0  0  0  0  0  0  0  0  0
   -7.2230   22.4190  -30.0930 O   0  0  0  0  0  0  0  0  0  0  0  0
   -4.9350   25.0500  -31.1830 N   0  0  0  0  0  0  0  0  0  0  0  0
   -3.8790   25.2960  -30.4700 O   0  0  0  0  0  0  0  0  0  0  0  0
   -3.2638   24.5468  -27.3621 H   0  0  0  0  0  0  0  0  0  0  0  0
   -2.1903   23.6467  -28.4863 H   0  0  0  0  0  0  0  0  0  0  0  0
   -2.1869   25.4430  -28.4863 H   0  0  0  0  0  0  0  0  0  0  0  0
   -7.6800   24.2133  -30.9889 H   0  0  0  0  0  0  0  0  0  0  0  0
   -7.0236   23.6985  -33.1248 H   0  0  0  0  0  0  0  0  0  0  0  0
   -5.6197   22.6948  -32.5499 H   0  0  0  0  0  0  0  0  0  0  0  0
   -6.9903   20.0357  -31.4201 H   0  0  0  0  0  0  0  0  0  0  0  0
   -6.8213   19.7416  -33.1898 H   0  0  0  0  0  0  0  0  0  0  0  0
   -5.0938   20.6715  -30.1314 H   0  0  0  0  0  0  0  0  0  0  0  0
   -2.6647   21.2588  -30.0445 H   0  0  0  0  0  0  0  0  0  0  0  0
   -1.4317   21.7235  -32.1680 H   0  0  0  0  0  0  0  0  0  0  0  0
   -2.6220   21.5900  -34.2720 H   0  0  0  0  0  0  0  0  0  0  0  0
   -4.9681   21.0267  -34.4456 H   0  0  0  0  0  0  0  0  0  0  0  0
   -9.3609   22.5129  -32.3144 H   0  0  0  0  0  0  0  0  0  0  0  0
   -9.2154   20.7235  -32.0537 H   0  0  0  0  0  0  0  0  0  0  0  0
   -9.2604   22.6548  -30.0489 H   0  0  0  0  0  0  0  0  0  0  0  0
   -8.6225   20.9517  -29.9087 H   0  0  0  0  0  0  0  0  0  0  0  0
  1  2  1  0
  2  3  2  0
  3  4  1  0
  4  5  1  0
  5  6  1  0
  6  7  1  0
  7  8  1  0
  8  9  1  0
  9 10  2  0
 10 11  1  0
 11 12  2  0
 12 13  1  0
 13 14  2  0
  7 15  1  0
 15 16  1  0
 16 17  1  0
  4 18  2  0
 18 19  1  0
 19  2  1  0
 17  5  1  0
 14  9  1  0
  1 20  1  0
  1 21  1  0
  1 22  1  0
  5 23  1  6
  6 24  1  0
  6 25  1  0
  8 26  1  0
  8 27  1  0
 10 28  1  0
 11 29  1  0
 12 30  1  0
 13 31  1  0
 14 32  1  0
 15 33  1  0
 15 34  1  0
 16 35  1  0
 16 36  1  0
M  CHG  1  13   1
M  END
>  <UniqueID>  (24) 
24

>  <SMILES>  (24) 
Cc1nc([C@H]2CN(Cc3ccc[nH+]c3)CCO2)no1

>  <Energy>  (24) 
79.66602733385712

>  <Genealogy>  (24) 
Cc1nc(C2CN(Cc3ccc[nH+]c3)CCO2)no1 (protonated)
Cc1nc([C@H]2CN(Cc3ccc[nH+]c3)CCO2)no1 (chirality)
Cc1nc([C@H]2CN(Cc3ccc[nH+]c3)CCO2)no1 (3D coordinates assigned)
Cc1nc([C@H]2CN(Cc3ccc[nH+]c3)CCO2)no1 (nonaromatic ring conformer: 79.66602733385712 kcal/mol)

>  <smiles>  (24) 
Cc1nc(C2CN(Cc3cccnc3)CCO2)no1

>  <score_type>  (24) 
oracle

>  <origin>  (24) 
adg

>  <m_score__min__energy>  (24) 
-7.4000000000000004

>  <m_primary>  (24) 
energy

$$$$
24:0
     RDKit          3D

 52 54  0  0  0  0  0  0  0  0999 V2000
   -6.1020   17.0420  -32.1950 C   0  0  0  0  0  0  0  0  0  0  0  0
   -6.8620   17.1540  -33.5180 C   0  0  0  0  0  0  0  0  0  0  0  0
   -6.1920   18.0710  -34.4690 N   0  0  0  0  0  0  0  0  0  0  0  0
   -4.8050   17.6790  -34.7810 C   0  0  0  0  0  0  0  0  0  0  0  0
   -3.7560   18.6290  -34.1780 C   0  0  0  0  0  0  0  0  0  0  0  0
   -4.3120   19.9030  -33.9070 O   0  0  0  0  0  0  0  0  0  0  0  0
   -3.6520   20.5130  -32.8180 C   0  0  0  0  0  0  0  0  0  0  0  0
   -4.5030   20.3430  -31.5630 C   0  0  0  0  0  0  0  0  0  0  0  0
   -5.5330   21.3860  -31.5020 N   0  0  0  0  0  0  0  0  0  0  0  0
   -6.8560   21.2470  -31.7730 C   0  0  0  0  0  0  0  0  0  0  0  0
   -7.5410   22.4120  -31.4700 C   0  0  0  0  0  0  0  0  0  0  0  0
   -6.5930   23.3070  -31.0260 C   0  0  0  0  0  0  0  0  0  0  0  0
   -6.7130   24.6240  -30.5890 C   0  0  0  0  0  0  0  0  0  0  0  0
   -5.5500   25.2810  -30.1520 C   0  0  0  0  0  0  0  0  0  0  0  0
   -4.2950   24.6110  -30.1530 C   0  0  0  0  0  0  0  0  0  0  0  0
   -3.1160   25.2320  -29.7150 O   0  0  0  0  0  0  0  0  0  0  0  0
   -2.2450   24.6950  -28.7270 C   0  0  0  0  0  0  0  0  0  0  0  0
   -4.2160   23.2780  -30.6020 C   0  0  0  0  0  0  0  0  0  0  0  0
   -5.3860   22.6510  -31.0430 C   0  0  0  0  0  0  0  0  0  0  0  0
   -9.0150   22.6090  -31.6670 C   0  0  0  0  0  0  0  0  0  0  0  0
   -9.7260   21.2480  -31.7610 C   0  0  0  0  0  0  0  0  0  0  0  0
   -8.9790   20.2800  -32.6990 C   0  0  0  0  0  0  0  0  0  0  0  0
   -7.5520   19.9820  -32.1960 C   0  0  0  0  0  0  0  0  0  0  0  0
   -6.8071   17.1459  -31.3571 H   0  0  0  0  0  0  0  0  0  0  0  0
   -5.6072   16.0612  -32.1383 H   0  0  0  0  0  0  0  0  0  0  0  0
   -5.3453   17.8383  -32.1383 H   0  0  0  0  0  0  0  0  0  0  0  0
   -6.9282   16.1555  -33.9748 H   0  0  0  0  0  0  0  0  0  0  0  0
   -7.8609   17.5606  -33.3017 H   0  0  0  0  0  0  0  0  0  0  0  0
   -6.7260   18.0480  -35.3690 H   0  0  0  0  0  0  0  0  0  0  0  0
   -6.2170   19.0640  -34.1370 H   0  0  0  0  0  0  0  0  0  0  0  0
   -4.6299   16.6680  -34.3845 H   0  0  0  0  0  0  0  0  0  0  0  0
   -4.6922   17.7195  -35.8744 H   0  0  0  0  0  0  0  0  0  0  0  0
   -3.3775   18.1962  -33.2402 H   0  0  0  0  0  0  0  0  0  0  0  0
   -2.9406   18.7533  -34.9058 H   0  0  0  0  0  0  0  0  0  0  0  0
   -2.6723   20.0364  -32.6666 H   0  0  0  0  0  0  0  0  0  0  0  0
   -3.5046   21.5833  -33.0249 H   0  0  0  0  0  0  0  0  0  0  0  0
   -4.9871   19.3555  -31.5837 H   0  0  0  0  0  0  0  0  0  0  0  0
   -3.8559   20.4265  -30.6774 H   0  0  0  0  0  0  0  0  0  0  0  0
   -7.6876   25.1340  -30.5860 H   0  0  0  0  0  0  0  0  0  0  0  0
   -5.6107   26.3234  -29.8058 H   0  0  0  0  0  0  0  0  0  0  0  0
   -2.6337   24.9346  -27.7262 H   0  0  0  0  0  0  0  0  0  0  0  0
   -2.1852   23.6030  -28.8453 H   0  0  0  0  0  0  0  0  0  0  0  0
   -1.2425   25.1321  -28.8453 H   0  0  0  0  0  0  0  0  0  0  0  0
   -3.2554   22.7421  -30.6057 H   0  0  0  0  0  0  0  0  0  0  0  0
   -9.4229   23.1738  -30.8158 H   0  0  0  0  0  0  0  0  0  0  0  0
   -9.1806   23.1653  -32.6014 H   0  0  0  0  0  0  0  0  0  0  0  0
   -9.7780   20.8025  -30.7566 H   0  0  0  0  0  0  0  0  0  0  0  0
  -10.7334   21.4142  -32.1703 H   0  0  0  0  0  0  0  0  0  0  0  0
   -9.5405   19.3359  -32.7569 H   0  0  0  0  0  0  0  0  0  0  0  0
   -8.9007   20.7547  -33.6882 H   0  0  0  0  0  0  0  0  0  0  0  0
   -7.6088   19.2977  -31.3366 H   0  0  0  0  0  0  0  0  0  0  0  0
   -6.9794   19.5234  -33.0156 H   0  0  0  0  0  0  0  0  0  0  0  0
  1  2  1  0
  2  3  1  0
  3  4  1  0
  4  5  1  0
  5  6  1  0
  6  7  1  0
  7  8  1  0
  8  9  1  0
  9 10  1  0
 10 11  2  0
 11 12  1  0
 12 13  2  0
 13 14  1  0
 14 15  2  0
 15 16  1  0
 16 17  1  0
 15 18  1  0
 18 19  2  0
 11 20  1  0
 20 21  1  0
 21 22  1  0
 22 23  1  0
 19  9  1  0
 23 10  1  0
 19 12  1  0
  1 24  1  0
  1 25  1  0
  1 26  1  0
  2 27  1  0
  2 28  1  0
  3 29  1  0
  3 30  1  0
  4 31  1  0
  4 32  1  0
  5 33  1  0
  5 34  1  0
  7 35  1  0
  7 36  1  0
  8 37  1  0
  8 38  1  0
 13 39  1  0
 14 40  1  0
 17 41  1  0
 17 42  1  0
 17 43  1  0
 18 44  1  0
 20 45  1  0
 20 46  1  0
 21 47  1  0
 21 48  1  0
 22 49  1  0
 22 50  1  0
 23 51  1  0
 23 52  1  0
M  CHG  1   3   1
M  END
>  <UniqueID>  (25) 
25

>  <SMILES>  (25) 
CC[NH2+]CCOCCn1c2c(c3ccc(OC)cc31)CCCC2

>  <Energy>  (25) 
83.19040486062646

>  <Genealogy>  (25) 
CC[NH2+]CCOCCn1c2c(c3ccc(OC)cc31)CCCC2 (protonated)
CC[NH2+]CCOCCn1c2c(c3ccc(OC)cc31)CCCC2 (3D coordinates assigned)
CC[NH2+]CCOCCn1c2c(c3ccc(OC)cc31)CCCC2 (nonaromatic ring conformer: 83.19040486062646 kcal/mol)

>  <smiles>  (25) 
CCNCCOCCn1c2c(c3ccc(OC)cc31)CCCC2

>  <score_type>  (25) 
oracle

>  <origin>  (25) 
adg

>  <m_score__min__energy>  (25) 
-7.7300000000000004

>  <m_primary>  (25) 
energy

$$$$
25:0
     RDKit          3D

 62 65  0  0  0  0  0  0  0  0999 V2000
   -2.5250   18.9100  -26.3480 C   0  0  0  0  0  0  0  0  0  0  0  0
   -3.0860   19.9370  -27.3210 C   0  0  0  0  0  0  0  0  0  0  0  0
   -2.1850   20.0830  -28.4710 N   0  0  0  0  0  0  0  0  0  0  0  0
   -0.8680   19.4680  -28.2260 C   0  0  0  0  0  0  0  0  0  0  0  0
    0.2050   20.5010  -27.8590 C   0  0  0  0  0  0  0  0  0  0  0  0
   -0.4340   21.6690  -27.3840 O   0  0  0  0  0  0  0  0  0  0  0  0
    0.1120   22.8260  -27.9950 C   0  0  0  0  0  0  0  0  0  0  0  0
   -0.8730   23.4730  -28.9780 C   0  0  0  0  0  0  0  0  0  0  0  0
   -1.6300   22.4610  -29.6220 O   0  0  0  0  0  0  0  0  0  0  0  0
   -1.2090   22.2710  -30.9590 C   0  0  0  0  0  0  0  0  0  0  0  0
   -2.0720   21.1960  -31.6570 C   0  0  0  0  0  0  0  0  0  0  0  0
   -3.1930   20.6480  -30.8520 N   0  0  0  0  0  0  0  0  0  0  0  0
   -4.4800   20.5730  -31.5180 C   0  0  0  0  0  0  0  0  0  0  0  0
   -4.8320   19.4730  -32.3530 C   0  0  0  0  0  0  0  0  0  0  0  0
   -3.8680   18.5200  -32.7490 C   0  0  0  0  0  0  0  0  0  0  0  0
   -4.2050   17.4720  -33.6010 C   0  0  0  0  0  0  0  0  0  0  0  0
   -5.5030   17.3510  -34.0830 C   0  0  0  0  0  0  0  0  0  0  0  0
   -6.4800   18.2700  -33.7100 C   0  0  0  0  0  0  0  0  0  0  0  0
   -6.1800   19.3400  -32.8310 C   0  0  0  0  0  0  0  0  0  0  0  0
   -7.1510   20.2530  -32.4520 N   0  0  0  0  0  0  0  0  0  0  0  0
   -8.5710   20.0470  -32.7930 C   0  0  0  0  0  0  0  0  0  0  0  0
   -6.7610   21.3690  -31.7630 C   0  0  0  0  0  0  0  0  0  0  0  0
   -7.5450   22.4330  -31.4620 N   0  0  0  0  0  0  0  0  0  0  0  0
   -6.7350   23.3010  -30.8280 C   0  0  0  0  0  0  0  0  0  0  0  0
   -7.0840   24.5730  -30.3720 C   0  0  0  0  0  0  0  0  0  0  0  0
   -6.0760   25.3710  -29.8050 C   0  0  0  0  0  0  0  0  0  0  0  0
   -4.7530   24.8950  -29.7200 C   0  0  0  0  0  0  0  0  0  0  0  0
   -4.4250   23.6090  -30.1860 C   0  0  0  0  0  0  0  0  0  0  0  0
   -5.4490   22.8140  -30.7200 C   0  0  0  0  0  0  0  0  0  0  0  0
   -5.4650   21.5530  -31.3150 C   0  0  0  0  0  0  0  0  0  0  0  0
   -2.7077   19.2445  -25.3161 H   0  0  0  0  0  0  0  0  0  0  0  0
   -3.0191   17.9411  -26.5123 H   0  0  0  0  0  0  0  0  0  0  0  0
   -1.4427   18.8022  -26.5123 H   0  0  0  0  0  0  0  0  0  0  0  0
   -4.0740   19.6046  -27.6721 H   0  0  0  0  0  0  0  0  0  0  0  0
   -3.1789   20.9064  -26.8094 H   0  0  0  0  0  0  0  0  0  0  0  0
   -2.0580   21.1000  -28.6850 H   0  0  0  0  0  0  0  0  0  0  0  0
   -0.9630   18.7493  -27.3987 H   0  0  0  0  0  0  0  0  0  0  0  0
   -0.5517   18.9747  -29.1569 H   0  0  0  0  0  0  0  0  0  0  0  0
    0.8595   20.0923  -27.0751 H   0  0  0  0  0  0  0  0  0  0  0  0
    0.8133   20.7400  -28.7438 H   0  0  0  0  0  0  0  0  0  0  0  0
    0.3643   23.5562  -27.2120 H   0  0  0  0  0  0  0  0  0  0  0  0
    1.0070   22.5237  -28.5586 H   0  0  0  0  0  0  0  0  0  0  0  0
   -1.5500   24.1450  -28.4301 H   0  0  0  0  0  0  0  0  0  0  0  0
   -0.3152   24.0494  -29.7308 H   0  0  0  0  0  0  0  0  0  0  0  0
   -1.3038   23.2208  -31.5057 H   0  0  0  0  0  0  0  0  0  0  0  0
   -0.1615   21.9352  -30.9551 H   0  0  0  0  0  0  0  0  0  0  0  0
   -2.4969   21.6427  -32.5680 H   0  0  0  0  0  0  0  0  0  0  0  0
   -1.3979   20.3482  -31.8487 H   0  0  0  0  0  0  0  0  0  0  0  0
   -3.2930   21.1850  -29.9650 H   0  0  0  0  0  0  0  0  0  0  0  0
   -2.9280   19.6980  -30.5070 H   0  0  0  0  0  0  0  0  0  0  0  0
   -2.8358   18.6071  -32.3788 H   0  0  0  0  0  0  0  0  0  0  0  0
   -3.4410   16.7368  -33.8939 H   0  0  0  0  0  0  0  0  0  0  0  0
   -5.7596   16.5250  -34.7626 H   0  0  0  0  0  0  0  0  0  0  0  0
   -7.5015   18.1637  -34.1041 H   0  0  0  0  0  0  0  0  0  0  0  0
   -9.1613   19.9614  -31.8688 H   0  0  0  0  0  0  0  0  0  0  0  0
   -8.9343   20.9018  -33.3823 H   0  0  0  0  0  0  0  0  0  0  0  0
   -8.6764   19.1242  -33.3823 H   0  0  0  0  0  0  0  0  0  0  0  0
   -8.5440   22.6060  -31.7110 H   0  0  0  0  0  0  0  0  0  0  0  0
   -8.1177   24.9400  -30.4540 H   0  0  0  0  0  0  0  0  0  0  0  0
   -6.3216   26.3737  -29.4251 H   0  0  0  0  0  0  0  0  0  0  0  0
   -3.9701   25.5341  -29.2857 H   0  0  0  0  0  0  0  0  0  0  0  0
   -3.3914   23.2365  -30.1328 H   0  0  0  0  0  0  0  0  0  0  0  0
  1  2  1  0
  2  3  1  0
  3  4  1  0
  4  5  1  0
  5  6  1  0
  6  7  1  0
  7  8  1  0
  8  9  1  0
  9 10  1  0
 10 11  1  0
 11 12  1  0
 12 13  1  0
 13 14  2  0
 14 15  1  0
 15 16  2  0
 16 17  1  0
 17 18  2  0
 18 19  1  0
 19 20  2  0
 20 21  1  0
 20 22  1  0
 22 23  1  0
 23 24  1  0
 24 25  2  0
 25 26  1  0
 26 27  2  0
 27 28  1  0
 28 29  2  0
 29 30  1  0
 30 13  1  0
 19 14  1  0
 30 22  2  0
 29 24  1  0
  1 31  1  0
  1 32  1  0
  1 33  1  0
  2 34  1  0
  2 35  1  0
  3 36  1  0
  4 37  1  0
  4 38  1  0
  5 39  1  0
  5 40  1  0
  7 41  1  0
  7 42  1  0
  8 43  1  0
  8 44  1  0
 10 45  1  0
 10 46  1  0
 11 47  1  0
 11 48  1  0
 12 49  1  0
 12 50  1  0
 15 51  1  0
 16 52  1  0
 17 53  1  0
 18 54  1  0
 21 55  1  0
 21 56  1  0
 21 57  1  0
 23 58  1  0
 25 59  1  0
 26 60  1  0
 27 61  1  0
 28 62  1  0
M  CHG  2  12   1  20   1
M  END
>  <UniqueID>  (26) 
26

>  <SMILES>  (26) 
CCNCCOCCOCC[NH2+]c1c2ccccc2[n+](C)c2[nH]c3ccccc3c12

>  <Energy>  (26) 
126.94984035507498

>  <Genealogy>  (26) 
CCNCCOCCOCC[NH2+]c1c2ccccc2[n+](C)c2[nH]c3ccccc3c12 (protonated)
CCNCCOCCOCC[NH2+]c1c2ccccc2[n+](C)c2[nH]c3ccccc3c12 (3D coordinates assigned)
CCNCCOCCOCC[NH2+]c1c2ccccc2[n+](C)c2[nH]c3ccccc3c12 (optimized conformer: 126.94984035507498 kcal/mol)

>  <smiles>  (26) 
CCNCCOCCOCCNc1c2ccccc2[n+](C)c2[nH]c3ccccc3c12

>  <score_type>  (26) 
oracle

>  <origin>  (26) 
adg

>  <m_score__min__energy>  (26) 
-8.2300000000000004

>  <m_primary>  (26) 
energy

$$$$
26:0
     RDKit          3D

 59 62  0  0  0  0  0  0  0  0999 V2000
   -5.4770   15.8560  -33.5100 C   0  0  0  0  0  0  0  0  0  0  0  0
   -6.8620   16.4960  -33.4600 C   0  0  0  0  0  0  0  0  0  0  0  0
   -6.8390   17.6660  -32.5510 N   0  0  0  0  0  0  0  0  0  0  0  0
   -6.1740   17.3200  -31.2810 C   0  0  0  0  0  0  0  0  0  0  0  0
   -8.1990   18.1840  -32.2930 C   0  0  0  0  0  0  0  0  0  0  0  0
   -8.3950   19.5380  -33.0050 C   0  0  0  0  0  0  0  0  0  0  0  0
   -7.2270   19.9290  -33.8160 N   0  0  0  0  0  0  0  0  0  0  0  0
   -6.2160   20.6240  -33.0390 C   0  0  0  0  0  0  0  0  0  0  0  0
   -6.6140   21.6910  -32.2190 C   0  0  0  0  0  0  0  0  0  0  0  0
   -5.6900   22.4040  -31.4630 C   0  0  0  0  0  0  0  0  0  0  0  0
   -4.3160   22.1380  -31.5720 C   0  0  0  0  0  0  0  0  0  0  0  0
   -3.8910   21.0670  -32.3960 C   0  0  0  0  0  0  0  0  0  0  0  0
   -4.8390   20.2660  -33.0770 C   0  0  0  0  0  0  0  0  0  0  0  0
   -4.3560   19.0350  -33.8030 C   0  0  0  0  0  0  0  0  0  0  0  0
   -3.0760   18.5050  -33.1550 C   0  0  0  0  0  0  0  0  0  0  0  0
   -2.0110   19.5230  -33.1440 N   0  0  0  0  0  0  0  0  0  0  0  0
   -1.4500   19.7550  -34.4880 C   0  0  0  0  0  0  0  0  0  0  0  0
   -2.3920   20.7920  -32.4740 C   0  0  2  0  0  0  0  0  0  0  0  0
   -1.8120   20.8150  -31.0550 C   0  0  0  0  0  0  0  0  0  0  0  0
   -2.0990   22.1560  -30.4170 C   0  0  0  0  0  0  0  0  0  0  0  0
   -1.1690   22.7160  -29.5340 C   0  0  0  0  0  0  0  0  0  0  0  0
   -1.3880   23.9760  -28.9880 C   0  0  0  0  0  0  0  0  0  0  0  0
   -2.5220   24.7050  -29.3430 C   0  0  0  0  0  0  0  0  0  0  0  0
   -3.4780   24.1640  -30.2280 C   0  0  0  0  0  0  0  0  0  0  0  0
   -4.5680   24.9330  -30.6690 O   0  0  0  0  0  0  0  0  0  0  0  0
   -5.7010   25.2590  -29.8710 C   0  0  0  0  0  0  0  0  0  0  0  0
   -3.3010   22.8420  -30.7180 C   0  0  0  0  0  0  0  0  0  0  0  0
   -5.1135   15.6880  -32.4855 H   0  0  0  0  0  0  0  0  0  0  0  0
   -5.5365   14.8941  -34.0403 H   0  0  0  0  0  0  0  0  0  0  0  0
   -4.7830   16.5247  -34.0403 H   0  0  0  0  0  0  0  0  0  0  0  0
   -7.1503   16.8232  -34.4699 H   0  0  0  0  0  0  0  0  0  0  0  0
   -7.5901   15.7601  -33.0882 H   0  0  0  0  0  0  0  0  0  0  0  0
   -6.8009   17.6462  -30.4381 H   0  0  0  0  0  0  0  0  0  0  0  0
   -6.0271   16.2311  -31.2288 H   0  0  0  0  0  0  0  0  0  0  0  0
   -5.1980   17.8246  -31.2288 H   0  0  0  0  0  0  0  0  0  0  0  0
   -8.9401   17.4640  -32.6703 H   0  0  0  0  0  0  0  0  0  0  0  0
   -8.3310   18.3246  -31.2100 H   0  0  0  0  0  0  0  0  0  0  0  0
   -9.2726   19.4652  -33.6642 H   0  0  0  0  0  0  0  0  0  0  0  0
   -8.5320   20.3049  -32.2284 H   0  0  0  0  0  0  0  0  0  0  0  0
   -6.8280   19.0640  -34.2520 H   0  0  0  0  0  0  0  0  0  0  0  0
   -7.5400   20.5250  -34.6150 H   0  0  0  0  0  0  0  0  0  0  0  0
   -7.6774   21.9687  -32.1734 H   0  0  0  0  0  0  0  0  0  0  0  0
   -6.0396   23.1851  -30.7719 H   0  0  0  0  0  0  0  0  0  0  0  0
   -5.1339   18.2585  -33.7581 H   0  0  0  0  0  0  0  0  0  0  0  0
   -4.1451   19.2968  -34.8504 H   0  0  0  0  0  0  0  0  0  0  0  0
   -3.2969   18.2085  -32.1190 H   0  0  0  0  0  0  0  0  0  0  0  0
   -2.7234   17.6451  -33.7435 H   0  0  0  0  0  0  0  0  0  0  0  0
   -0.4371   20.1739  -34.3952 H   0  0  0  0  0  0  0  0  0  0  0  0
   -1.4040   18.8021  -35.0356 H   0  0  0  0  0  0  0  0  0  0  0  0
   -2.0905   20.4621  -35.0356 H   0  0  0  0  0  0  0  0  0  0  0  0
   -1.9730   21.5875  -33.1078 H   0  0  0  0  0  0  0  0  0  0  0  0
   -2.2752   20.0170  -30.4562 H   0  0  0  0  0  0  0  0  0  0  0  0
   -0.7247   20.6544  -31.0997 H   0  0  0  0  0  0  0  0  0  0  0  0
   -0.2595   22.1563  -29.2703 H   0  0  0  0  0  0  0  0  0  0  0  0
   -0.6650   24.3983  -28.2746 H   0  0  0  0  0  0  0  0  0  0  0  0
   -2.6729   25.7127  -28.9286 H   0  0  0  0  0  0  0  0  0  0  0  0
   -5.4341   25.1822  -28.8066 H   0  0  0  0  0  0  0  0  0  0  0  0
   -6.0238   26.2865  -30.0949 H   0  0  0  0  0  0  0  0  0  0  0  0
   -6.5205   24.5602  -30.0949 H   0  0  0  0  0  0  0  0  0  0  0  0
  1  2  1  0
  2  3  1  0
  3  4  1  0
  3  5  1  0
  5  6  1  0
  6  7  1  0
  7  8  1  0
  8  9  2  0
  9 10  1  0
 10 11  2  0
 11 12  1  0
 12 13  2  0
 13 14  1  0
 14 15  1  0
 15 16  1  0
 16 17  1  0
 16 18  1  0
 18 19  1  0
 19 20  1  0
 20 21  2  0
 21 22  1  0
 22 23  2  0
 23 24  1  0
 24 25  1  0
 25 26  1  0
 24 27  2  0
 13  8  1  0
 27 20  1  0
 27 11  1  0
 18 12  1  0
  1 28  1  0
  1 29  1  0
  1 30  1  0
  2 31  1  0
  2 32  1  0
  4 33  1  0
  4 34  1  0
  4 35  1  0
  5 36  1  0
  5 37  1  0
  6 38  1  0
  6 39  1  0
  7 40  1  0
  7 41  1  0
  9 42  1  0
 10 43  1  0
 14 44  1  0
 14 45  1  0
 15 46  1  0
 15 47  1  0
 17 48  1  0
 17 49  1  0
 17 50  1  0
 18 51  1  6
 19 52  1  0
 19 53  1  0
 21 54  1  0
 22 55  1  0
 23 56  1  0
 26 57  1  0
 26 58  1  0
 26 59  1  0
M  CHG  1   7   1
M  END
>  <UniqueID>  (27) 
27

>  <SMILES>  (27) 
CCN(C)CC[NH2+]c1ccc2c3c1CCN(C)[C@@H]3Cc1cccc(OC)c1-2

>  <Energy>  (27) 
84.10831259332328

>  <Genealogy>  (27) 
CCN(C)CC[NH2+]c1ccc2c3c1CCN(C)C3Cc1cccc(OC)c1-2 (protonated)
CCN(C)CC[NH2+]c1ccc2c3c1CCN(C)[C@@H]3Cc1cccc(OC)c1-2 (chirality)
CCN(C)CC[NH2+]c1ccc2c3c1CCN(C)[C@@H]3Cc1cccc(OC)c1-2 (3D coordinates assigned)
CCN(C)CC[NH2+]c1ccc2c3c1CCN(C)[C@@H]3Cc1cccc(OC)c1-2 (nonaromatic ring conformer: 84.10831259332328 kcal/mol)

>  <smiles>  (27) 
CCN(C)CCNc1ccc2c3c1CCN(C)C3Cc1cccc(OC)c1-2

>  <score_type>  (27) 
oracle

>  <origin>  (27) 
adg

>  <m_score__min__energy>  (27) 
-8.0099999999999998

>  <m_primary>  (27) 
energy

$$$$
27:0
     RDKit          3D

 48 51  0  0  0  0  0  0  0  0999 V2000
   -3.2700   21.5180  -32.9180 C   0  0  0  0  0  0  0  0  0  0  0  0
   -3.6790   22.3330  -31.7780 N   0  0  0  0  0  0  0  0  0  0  0  0
   -2.8820   22.7600  -30.7710 C   0  0  0  0  0  0  0  0  0  0  0  0
   -3.6100   23.5400  -29.8760 C   0  0  0  0  0  0  0  0  0  0  0  0
   -3.0840   24.1740  -28.6480 C   0  0  0  0  0  0  0  0  0  0  0  0
   -1.7450   24.5950  -28.5930 C   0  0  0  0  0  0  0  0  0  0  0  0
   -1.2390   25.1940  -27.4360 C   0  0  0  0  0  0  0  0  0  0  0  0
   -2.0620   25.3760  -26.3140 C   0  0  0  0  0  0  0  0  0  0  0  0
   -1.5250   26.0370  -25.0700 C   0  0  0  0  0  0  0  0  0  0  0  0
   -0.5040   25.1630  -24.3140 C   0  0  0  0  0  0  0  0  0  0  0  0
    0.6110   25.9470  -23.7260 N   0  0  0  0  0  0  0  0  0  0  0  0
    1.6210   26.3740  -24.7150 C   0  0  0  0  0  0  0  0  0  0  0  0
    2.0810   27.7810  -24.3410 C   0  0  0  0  0  0  0  0  0  0  0  0
    1.2730   28.1640  -23.1190 C   0  0  0  0  0  0  0  0  0  0  0  0
    0.1160   27.1860  -23.1110 C   0  0  0  0  0  0  0  0  0  0  0  0
   -3.3910   24.9260  -26.3570 C   0  0  0  0  0  0  0  0  0  0  0  0
   -3.8970   24.3300  -27.5150 C   0  0  0  0  0  0  0  0  0  0  0  0
   -4.8980   23.5970  -30.3900 C   0  0  0  0  0  0  0  0  0  0  0  0
   -6.0350   24.2900  -29.9650 C   0  0  0  0  0  0  0  0  0  0  0  0
   -7.2050   24.1740  -30.7360 C   0  0  0  0  0  0  0  0  0  0  0  0
   -7.2140   23.3920  -31.9110 C   0  0  0  0  0  0  0  0  0  0  0  0
   -6.0500   22.7250  -32.3310 C   0  0  0  0  0  0  0  0  0  0  0  0
   -4.9010   22.8520  -31.5440 C   0  0  0  0  0  0  0  0  0  0  0  0
   -2.8040   20.5895  -32.5565 H   0  0  0  0  0  0  0  0  0  0  0  0
   -4.1516   21.2724  -33.5282 H   0  0  0  0  0  0  0  0  0  0  0  0
   -2.5462   22.0781  -33.5282 H   0  0  0  0  0  0  0  0  0  0  0  0
   -1.8119   22.5246  -30.6734 H   0  0  0  0  0  0  0  0  0  0  0  0
   -1.0908   24.4524  -29.4657 H   0  0  0  0  0  0  0  0  0  0  0  0
   -0.1903   25.5245  -27.4047 H   0  0  0  0  0  0  0  0  0  0  0  0
   -1.0348   26.9788  -25.3576 H   0  0  0  0  0  0  0  0  0  0  0  0
   -2.3765   26.2059  -24.3944 H   0  0  0  0  0  0  0  0  0  0  0  0
   -1.0273   24.6358  -23.5027 H   0  0  0  0  0  0  0  0  0  0  0  0
   -0.0658   24.4655  -25.0430 H   0  0  0  0  0  0  0  0  0  0  0  0
    1.0830   25.3830  -22.9790 H   0  0  0  0  0  0  0  0  0  0  0  0
    2.4773   25.6838  -24.6961 H   0  0  0  0  0  0  0  0  0  0  0  0
    1.1910   26.3687  -25.7275 H   0  0  0  0  0  0  0  0  0  0  0  0
    3.1557   27.7837  -24.1066 H   0  0  0  0  0  0  0  0  0  0  0  0
    1.9295   28.4911  -25.1673 H   0  0  0  0  0  0  0  0  0  0  0  0
    1.8765   28.0606  -22.2052 H   0  0  0  0  0  0  0  0  0  0  0  0
    0.9370   29.2110  -23.1496 H   0  0  0  0  0  0  0  0  0  0  0  0
   -0.2111   26.9932  -22.0786 H   0  0  0  0  0  0  0  0  0  0  0  0
   -0.7466   27.5867  -23.6636 H   0  0  0  0  0  0  0  0  0  0  0  0
   -4.0373   25.0432  -25.4746 H   0  0  0  0  0  0  0  0  0  0  0  0
   -4.9398   23.9807  -27.5387 H   0  0  0  0  0  0  0  0  0  0  0  0
   -6.0150   24.9075  -29.0549 H   0  0  0  0  0  0  0  0  0  0  0  0
   -8.1203   24.6966  -30.4211 H   0  0  0  0  0  0  0  0  0  0  0  0
   -8.1377   23.3039  -32.5018 H   0  0  0  0  0  0  0  0  0  0  0  0
   -6.0432   22.1216  -33.2507 H   0  0  0  0  0  0  0  0  0  0  0  0
  1  2  1  0
  2  3  1  0
  3  4  2  0
  4  5  1  0
  5  6  2  0
  6  7  1  0
  7  8  2  0
  8  9  1  0
  9 10  1  0
 10 11  1  0
 11 12  1  0
 12 13  1  0
 13 14  1  0
 14 15  1  0
  8 16  1  0
 16 17  2  0
  4 18  1  0
 18 19  2  0
 19 20  1  0
 20 21  2  0
 21 22  1  0
 22 23  2  0
 23  2  1  0
 17  5  1  0
 23 18  1  0
 15 11  1  0
  1 24  1  0
  1 25  1  0
  1 26  1  0
  3 27  1  0
  6 28  1  0
  7 29  1  0
  9 30  1  0
  9 31  1  0
 10 32  1  0
 10 33  1  0
 11 34  1  0
 12 35  1  0
 12 36  1  0
 13 37  1  0
 13 38  1  0
 14 39  1  0
 14 40  1  0
 15 41  1  0
 15 42  1  0
 16 43  1  0
 17 44  1  0
 19 45  1  0
 20 46  1  0
 21 47  1  0
 22 48  1  0
M  CHG  1  11   1
M  END
>  <UniqueID>  (28) 
28

>  <SMILES>  (28) 
Cn1cc(-c2ccc(CC[NH+]3CCCC3)cc2)c2ccccc21

>  <Energy>  (28) 
90.33520141608687

>  <Genealogy>  (28) 
Cn1cc(-c2ccc(CC[NH+]3CCCC3)cc2)c2ccccc21 (protonated)
Cn1cc(-c2ccc(CC[NH+]3CCCC3)cc2)c2ccccc21 (3D coordinates assigned)
Cn1cc(-c2ccc(CC[NH+]3CCCC3)cc2)c2ccccc21 (nonaromatic ring conformer: 90.33520141608687 kcal/mol)

>  <smiles>  (28) 
Cn1cc(-c2ccc(CCN3CCCC3)cc2)c2ccccc21

>  <score_type>  (28) 
oracle

>  <origin>  (28) 
adg

>  <m_score__min__energy>  (28) 
-8.1300000000000008

>  <m_primary>  (28) 
energy

$$$$
28:0
     RDKit          3D

 48 50  0  0  0  0  0  0  0  0999 V2000
    0.6500   25.0050  -36.1340 C   0  0  0  0  0  0  0  0  0  0  0  0
    0.3280   23.5150  -36.0650 C   0  0  0  0  0  0  0  0  0  0  0  0
    1.5780   22.7240  -35.9870 N   0  0  0  0  0  0  0  0  0  0  0  0
    2.7530   23.6000  -35.7790 C   0  0  0  0  0  0  0  0  0  0  0  0
    4.0260   22.7650  -35.6790 C   0  0  0  0  0  0  0  0  0  0  0  0
    1.4890   21.6880  -34.9320 C   0  0  0  0  0  0  0  0  0  0  0  0
    0.3650   20.6990  -35.2570 C   0  0  0  0  0  0  0  0  0  0  0  0
   -0.8950   21.1440  -34.6650 N   0  0  0  0  0  0  0  0  0  0  0  0
   -1.6540   20.3170  -33.7680 C   0  0  0  0  0  0  0  0  0  0  0  0
   -1.1850   19.2100  -33.3880 O   0  0  0  0  0  0  0  0  0  0  0  0
   -2.9760   20.7410  -33.2700 C   0  0  0  0  0  0  0  0  0  0  0  0
   -3.2770   21.9220  -32.5870 C   0  0  0  0  0  0  0  0  0  0  0  0
   -4.6390   22.0290  -32.2630 C   0  0  0  0  0  0  0  0  0  0  0  0
   -5.2480   23.0890  -31.5860 C   0  0  0  0  0  0  0  0  0  0  0  0
   -4.5380   24.0630  -31.2080 O   0  0  0  0  0  0  0  0  0  0  0  0
   -6.6060   23.0590  -31.3360 N   0  0  0  0  0  0  0  0  0  0  0  0
   -7.2350   24.1850  -30.6190 C   0  0  0  0  0  0  0  0  0  0  0  0
   -7.3760   21.9810  -31.7580 C   0  0  0  0  0  0  0  0  0  0  0  0
   -8.7710   21.9170  -31.5210 C   0  0  0  0  0  0  0  0  0  0  0  0
   -9.5230   20.8220  -31.9540 C   0  0  0  0  0  0  0  0  0  0  0  0
   -8.9110   19.7690  -32.6310 C   0  0  0  0  0  0  0  0  0  0  0  0
   -7.5400   19.8010  -32.8810 C   0  0  0  0  0  0  0  0  0  0  0  0
   -6.7690   20.8950  -32.4510 C   0  0  0  0  0  0  0  0  0  0  0  0
   -5.3970   20.9570  -32.6830 C   0  0  0  0  0  0  0  0  0  0  0  0
   -4.3990   19.8510  -33.4680 S   0  0  0  0  0  0  0  0  0  0  0  0
    0.7373   25.4089  -35.1145 H   0  0  0  0  0  0  0  0  0  0  0  0
    1.6003   25.1504  -36.6686 H   0  0  0  0  0  0  0  0  0  0  0  0
   -0.1555   25.5298  -36.6686 H   0  0  0  0  0  0  0  0  0  0  0  0
   -0.2837   23.3165  -35.1726 H   0  0  0  0  0  0  0  0  0  0  0  0
   -0.2240   23.2250  -36.9712 H   0  0  0  0  0  0  0  0  0  0  0  0
    2.8412   24.2958  -36.6264 H   0  0  0  0  0  0  0  0  0  0  0  0
    2.6191   24.1612  -34.8424 H   0  0  0  0  0  0  0  0  0  0  0  0
    4.2751   22.6016  -34.6201 H   0  0  0  0  0  0  0  0  0  0  0  0
    3.8678   21.7947  -36.1724 H   0  0  0  0  0  0  0  0  0  0  0  0
    4.8530   23.2967  -36.1724 H   0  0  0  0  0  0  0  0  0  0  0  0
    2.4444   21.1460  -34.8731 H   0  0  0  0  0  0  0  0  0  0  0  0
    1.2733   22.1734  -33.9688 H   0  0  0  0  0  0  0  0  0  0  0  0
    0.2478   20.6301  -36.3486 H   0  0  0  0  0  0  0  0  0  0  0  0
    0.6257   19.7147  -34.8409 H   0  0  0  0  0  0  0  0  0  0  0  0
   -1.2020   22.1220  -34.8590 H   0  0  0  0  0  0  0  0  0  0  0  0
   -2.5278   22.6856  -32.3307 H   0  0  0  0  0  0  0  0  0  0  0  0
   -7.1455   24.0249  -29.5344 H   0  0  0  0  0  0  0  0  0  0  0  0
   -6.7301   25.1228  -30.8941 H   0  0  0  0  0  0  0  0  0  0  0  0
   -8.2983   24.2467  -30.8941 H   0  0  0  0  0  0  0  0  0  0  0  0
   -9.2691   22.7407  -30.9887 H   0  0  0  0  0  0  0  0  0  0  0  0
  -10.6052   20.7909  -31.7592 H   0  0  0  0  0  0  0  0  0  0  0  0
   -9.5108   18.9110  -32.9687 H   0  0  0  0  0  0  0  0  0  0  0  0
   -7.0603   18.9682  -33.4160 H   0  0  0  0  0  0  0  0  0  0  0  0
  1  2  1  0
  2  3  1  0
  3  4  1  0
  4  5  1  0
  3  6  1  0
  6  7  1  0
  7  8  1  0
  8  9  1  0
  9 10  2  0
  9 11  1  0
 11 12  2  0
 12 13  1  0
 13 14  1  0
 14 15  2  0
 14 16  1  0
 16 17  1  0
 16 18  1  0
 18 19  2  0
 19 20  1  0
 20 21  2  0
 21 22  1  0
 22 23  2  0
 23 24  1  0
 24 25  1  0
 25 11  1  0
 24 13  2  0
 23 18  1  0
  1 26  1  0
  1 27  1  0
  1 28  1  0
  2 29  1  0
  2 30  1  0
  4 31  1  0
  4 32  1  0
  5 33  1  0
  5 34  1  0
  5 35  1  0
  6 36  1  0
  6 37  1  0
  7 38  1  0
  7 39  1  0
  8 40  1  0
 12 41  1  0
 17 42  1  0
 17 43  1  0
 17 44  1  0
 19 45  1  0
 20 46  1  0
 21 47  1  0
 22 48  1  0
M  END
>  <UniqueID>  (29) 
29

>  <SMILES>  (29) 
CCN(CC)CCNC(=O)c1cc2c(=O)n(C)c3ccccc3c2s1

>  <Energy>  (29) 
86.52564881146203

>  <Genealogy>  (29) 
CCN(CC)CCNC(=O)c1cc2c(=O)n(C)c3ccccc3c2s1 (3D coordinates assigned)
CCN(CC)CCNC(=O)c1cc2c(=O)n(C)c3ccccc3c2s1 (optimized conformer: 86.52564881146203 kcal/mol)

>  <smiles>  (29) 
CCN(CC)CCNC(=O)c1cc2c(=O)n(C)c3ccccc3c2s1

>  <score_type>  (29) 
oracle

>  <origin>  (29) 
adg

>  <m_score__min__energy>  (29) 
-8.8800000000000008

>  <m_primary>  (29) 
energy

$$$$
