0:0
     RDKit          3D

 69 70  0  0  0  0  0  0  0  0999 V2000
   -6.1900   25.2220  -29.4510 C   0  0  0  0  0  0  0  0  0  0  0  0
   -5.3610   26.0200  -30.4530 C   0  0  0  0  0  0  0  0  0  0  0  0
   -4.0880   25.4070  -30.6460 O   0  0  0  0  0  0  0  0  0  0  0  0
   -3.7150   24.1990  -30.0500 C   0  0  0  0  0  0  0  0  0  0  0  0
   -3.5710   24.1320  -28.7990 O   0  0  0  0  0  0  0  0  0  0  0  0
   -3.5330   22.9840  -30.8910 C   0  0  0  0  0  0  0  0  0  0  0  0
   -4.4520   22.6210  -31.8170 C   0  0  0  0  0  0  0  0  0  0  0  0
   -5.7880   23.3040  -31.9510 C   0  0  0  0  0  0  0  0  0  0  0  0
   -6.6400   22.4960  -32.7430 O   0  0  0  0  0  0  0  0  0  0  0  0
   -7.8270   22.1620  -32.0470 C   0  0  0  0  0  0  0  0  0  0  0  0
   -7.7240   20.7750  -31.3860 C   0  0  2  0  0  0  0  0  0  0  0  0
   -6.3810   20.4290  -31.1670 O   0  0  0  0  0  0  0  0  0  0  0  0
   -8.4580   19.6490  -32.1650 C   0  0  0  0  0  0  0  0  0  0  0  0
   -7.6380   18.7870  -33.0570 N   0  0  0  0  0  0  0  0  0  0  0  0
   -7.2170   17.4790  -32.5080 C   0  0  0  0  0  0  0  0  0  0  0  0
   -6.1440   17.6420  -31.4340 C   0  0  0  0  0  0  0  0  0  0  0  0
   -6.5510   19.4900  -33.7710 C   0  0  0  0  0  0  0  0  0  0  0  0
   -5.8330   18.5230  -34.7040 C   0  0  0  0  0  0  0  0  0  0  0  0
   -4.1900   21.5510  -32.7280 N   0  0  0  0  0  0  0  0  0  0  0  0
   -3.1150   20.8290  -32.7460 C   0  0  0  0  0  0  0  0  0  0  0  0
   -3.0330   19.7160  -33.7480 C   0  0  0  0  0  0  0  0  0  0  0  0
   -2.0050   21.0270  -31.7400 C   0  0  1  0  0  0  0  0  0  0  0  0
   -0.6940   21.2010  -32.4590 C   0  0  0  0  0  0  0  0  0  0  0  0
    0.3780   20.8300  -31.9070 O   0  0  0  0  0  0  0  0  0  0  0  0
   -0.6730   21.8010  -33.7230 O   0  0  0  0  0  0  0  0  0  0  0  0
   -0.0280   21.2040  -34.8410 C   0  0  0  0  0  0  0  0  0  0  0  0
   -2.2330   22.2070  -30.7350 C   0  0  2  0  0  0  0  0  0  0  0  0
   -2.0350   21.7220  -29.3000 C   0  0  0  0  0  0  0  0  0  0  0  0
   -2.7450   20.5850  -28.8640 C   0  0  0  0  0  0  0  0  0  0  0  0
   -2.5850   20.0980  -27.5650 C   0  0  0  0  0  0  0  0  0  0  0  0
   -1.7250   20.7410  -26.6770 C   0  0  0  0  0  0  0  0  0  0  0  0
   -1.0250   21.8780  -27.0840 C   0  0  0  0  0  0  0  0  0  0  0  0
   -1.1760   22.3790  -28.3830 C   0  0  0  0  0  0  0  0  0  0  0  0
   -0.2740   23.8320  -28.8050 Cl  0  0  0  0  0  0  0  0  0  0  0  0
   -5.8985   25.5026  -28.4281 H   0  0  0  0  0  0  0  0  0  0  0  0
   -7.2574   25.4411  -29.6013 H   0  0  0  0  0  0  0  0  0  0  0  0
   -6.0117   24.1470  -29.6013 H   0  0  0  0  0  0  0  0  0  0  0  0
   -5.8939   26.0590  -31.4145 H   0  0  0  0  0  0  0  0  0  0  0  0
   -5.2113   27.0372  -30.0619 H   0  0  0  0  0  0  0  0  0  0  0  0
   -6.2328   23.4434  -30.9547 H   0  0  0  0  0  0  0  0  0  0  0  0
   -5.6576   24.2866  -32.4280 H   0  0  0  0  0  0  0  0  0  0  0  0
   -8.0083   22.9166  -31.2675 H   0  0  0  0  0  0  0  0  0  0  0  0
   -8.6554   22.1383  -32.7703 H   0  0  0  0  0  0  0  0  0  0  0  0
   -8.2439   20.8629  -30.4206 H   0  0  0  0  0  0  0  0  0  0  0  0
   -5.8910   20.6150  -32.0100 H   0  0  0  0  0  0  0  0  0  0  0  0
   -8.9382   18.9938  -31.4233 H   0  0  0  0  0  0  0  0  0  0  0  0
   -9.1469   20.1775  -32.8404 H   0  0  0  0  0  0  0  0  0  0  0  0
   -8.0914   16.9785  -32.0666 H   0  0  0  0  0  0  0  0  0  0  0  0
   -6.7956   16.8798  -33.3286 H   0  0  0  0  0  0  0  0  0  0  0  0
   -6.6075   17.5716  -30.4389 H   0  0  0  0  0  0  0  0  0  0  0  0
   -5.3908   16.8480  -31.5447 H   0  0  0  0  0  0  0  0  0  0  0  0
   -5.6606   18.6239  -31.5447 H   0  0  0  0  0  0  0  0  0  0  0  0
   -6.9760   20.3166  -34.3593 H   0  0  0  0  0  0  0  0  0  0  0  0
   -5.8330   19.8861  -33.0377 H   0  0  0  0  0  0  0  0  0  0  0  0
   -5.2816   17.7804  -34.1087 H   0  0  0  0  0  0  0  0  0  0  0  0
   -6.5706   18.0098  -35.3385 H   0  0  0  0  0  0  0  0  0  0  0  0
   -5.1284   19.0807  -35.3385 H   0  0  0  0  0  0  0  0  0  0  0  0
   -2.9620   18.7529  -33.2213 H   0  0  0  0  0  0  0  0  0  0  0  0
   -3.9341   19.7234  -34.3788 H   0  0  0  0  0  0  0  0  0  0  0  0
   -2.1427   19.8554  -34.3788 H   0  0  0  0  0  0  0  0  0  0  0  0
   -1.9937   20.1176  -31.1213 H   0  0  0  0  0  0  0  0  0  0  0  0
    0.7367   20.4962  -34.4883 H   0  0  0  0  0  0  0  0  0  0  0  0
   -0.7710   20.6678  -35.4497 H   0  0  0  0  0  0  0  0  0  0  0  0
    0.4492   21.9861  -35.4497 H   0  0  0  0  0  0  0  0  0  0  0  0
   -1.4650   22.9506  -30.9943 H   0  0  0  0  0  0  0  0  0  0  0  0
   -3.4329   20.0755  -29.5548 H   0  0  0  0  0  0  0  0  0  0  0  0
   -3.1393   19.2045  -27.2420 H   0  0  0  0  0  0  0  0  0  0  0  0
   -1.5978   20.3528  -25.6557 H   0  0  0  0  0  0  0  0  0  0  0  0
   -0.3495   22.3844  -26.3789 H   0  0  0  0  0  0  0  0  0  0  0  0
  1  2  1  0
  2  3  1  0
  3  4  1  0
  4  5  2  0
  4  6  1  0
  6  7  2  0
  7  8  1  0
  8  9  1  0
  9 10  1  0
 10 11  1  0
 11 12  1  0
 11 13  1  0
 13 14  1  0
 14 15  1  0
 15 16  1  0
 14 17  1  0
 17 18  1  0
  7 19  1  0
 19 20  2  0
 20 21  1  0
 20 22  1  0
 22 23  1  0
 23 24  2  0
 23 25  1  0
 25 26  1  0
 22 27  1  0
 27 28  1  0
 28 29  2  0
 29 30  1  0
 30 31  2  0
 31 32  1  0
 32 33  2  0
 33 34  1  0
 27  6  1  0
 33 28  1  0
  1 35  1  0
  1 36  1  0
  1 37  1  0
  2 38  1  0
  2 39  1  0
  8 40  1  0
  8 41  1  0
 10 42  1  0
 10 43  1  0
 11 44  1  1
 12 45  1  0
 13 46  1  0
 13 47  1  0
 15 48  1  0
 15 49  1  0
 16 50  1  0
 16 51  1  0
 16 52  1  0
 17 53  1  0
 17 54  1  0
 18 55  1  0
 18 56  1  0
 18 57  1  0
 21 58  1  0
 21 59  1  0
 21 60  1  0
 22 61  1  1
 26 62  1  0
 26 63  1  0
 26 64  1  0
 27 65  1  6
 29 66  1  0
 30 67  1  0
 31 68  1  0
 32 69  1  0
M  END
>  <UniqueID>  (1) 
1

>  <SMILES>  (1) 
CCOC(=O)C1=C(COC[C@H](O)CN(CC)CC)N=C(C)[C@@H](C(=O)OC)C1c1ccccc1Cl

>  <Energy>  (1) 
80.29919225539216

>  <Genealogy>  (1) 
CCOC(=O)C1=C(COC[C@H](O)CN(CC)CC)N=C(C)[C@@H](C(=O)OC)C1c1ccccc1Cl (chirality)
CCOC(=O)C1=C(COC[C@H](O)CN(CC)CC)N=C(C)[C@@H](C(=O)OC)C1c1ccccc1Cl (3D coordinates assigned)
CCOC(=O)C1=C(COC[C@H](O)CN(CC)CC)N=C(C)[C@@H](C(=O)OC)C1c1ccccc1Cl (nonaromatic ring conformer: 80.29919225539216 kcal/mol)

>  <smiles>  (1) 
CCOC(=O)C1=C(COCC(O)CN(CC)CC)N=C(C)C(C(=O)OC)C1c1ccccc1Cl

>  <score_type>  (1) 
oracle

>  <origin>  (1) 
adg

>  <m_score__min__energy>  (1) 
-8.3499999999999996

>  <m_primary>  (1) 
energy

$$$$
1:0
     RDKit          3D

 35 37  0  0  0  0  0  0  0  0999 V2000
   -9.7770   20.9970  -31.7010 C   0  0  0  0  0  0  0  0  0  0  0  0
   -8.3010   20.9900  -31.9680 C   0  0  0  0  0  0  0  0  0  0  0  0
   -7.8320   20.3480  -33.0740 C   0  0  0  0  0  0  0  0  0  0  0  0
   -6.3730   20.2390  -33.3520 C   0  0  0  0  0  0  0  0  0  0  0  0
   -5.9490   19.7610  -34.4370 O   0  0  0  0  0  0  0  0  0  0  0  0
   -5.4400   20.6220  -32.2390 C   0  0  1  0  0  0  0  0  0  0  0  0
   -5.3570   19.4190  -31.2620 C   0  0  0  0  0  0  0  0  0  0  0  0
   -4.0380   21.0480  -32.5570 C   0  0  0  0  0  0  0  0  0  0  0  0
   -3.6800   22.0400  -31.7210 C   0  0  0  0  0  0  0  0  0  0  0  0
   -2.4540   21.9720  -30.8790 C   0  0  0  0  0  0  0  0  0  0  0  0
   -2.9600   22.2960  -29.4650 C   0  0  0  0  0  0  0  0  0  0  0  0
   -4.4980   22.3540  -29.5230 C   0  0  0  0  0  0  0  0  0  0  0  0
   -4.8310   22.6470  -30.9900 C   0  0  1  0  0  0  0  0  0  0  0  0
   -4.9020   24.0990  -31.2240 N   0  0  0  0  0  0  0  0  0  0  0  0
   -5.7870   24.5600  -31.9740 O   0  0  0  0  0  0  0  0  0  0  0  0
   -3.8710   24.9230  -30.8320 O   0  0  0  0  0  0  0  0  0  0  0  0
   -6.0120   21.9200  -31.6530 C   0  0  2  0  0  0  0  0  0  0  0  0
   -7.3660   21.6970  -30.9760 C   0  0  0  0  0  0  0  0  0  0  0  0
   -9.9532   20.9978  -30.6152 H   0  0  0  0  0  0  0  0  0  0  0  0
  -10.2259   21.8973  -32.1460 H   0  0  0  0  0  0  0  0  0  0  0  0
  -10.2344   20.1010  -32.1460 H   0  0  0  0  0  0  0  0  0  0  0  0
   -8.5479   19.8994  -33.7785 H   0  0  0  0  0  0  0  0  0  0  0  0
   -5.3823   19.7861  -30.2254 H   0  0  0  0  0  0  0  0  0  0  0  0
   -6.2109   18.7473  -31.4341 H   0  0  0  0  0  0  0  0  0  0  0  0
   -4.4189   18.8709  -31.4341 H   0  0  0  0  0  0  0  0  0  0  0  0
   -3.4040   20.6187  -33.3467 H   0  0  0  0  0  0  0  0  0  0  0  0
   -2.0095   20.9664  -30.9150 H   0  0  0  0  0  0  0  0  0  0  0  0
   -1.6676   22.6627  -31.2173 H   0  0  0  0  0  0  0  0  0  0  0  0
   -2.6404   21.5115  -28.7633 H   0  0  0  0  0  0  0  0  0  0  0  0
   -2.5499   23.2560  -29.1183 H   0  0  0  0  0  0  0  0  0  0  0  0
   -4.9328   21.3923  -29.2129 H   0  0  0  0  0  0  0  0  0  0  0  0
   -4.9076   23.1186  -28.8466 H   0  0  0  0  0  0  0  0  0  0  0  0
   -6.3831   22.6712  -32.3657 H   0  0  0  0  0  0  0  0  0  0  0  0
   -7.2340   21.0711  -30.0811 H   0  0  0  0  0  0  0  0  0  0  0  0
   -7.7988   22.6626  -30.6756 H   0  0  0  0  0  0  0  0  0  0  0  0
  1  2  1  0
  2  3  2  0
  3  4  1  0
  4  5  2  0
  4  6  1  0
  6  7  1  1
  6  8  1  0
  8  9  2  0
  9 10  1  0
 10 11  1  0
 11 12  1  0
 12 13  1  0
 13 14  1  1
 14 15  2  0
 14 16  1  0
 13 17  1  0
 17 18  1  0
 18  2  1  0
 17  6  1  0
 13  9  1  0
  1 19  1  0
  1 20  1  0
  1 21  1  0
  3 22  1  0
  7 23  1  0
  7 24  1  0
  7 25  1  0
  8 26  1  0
 10 27  1  0
 10 28  1  0
 11 29  1  0
 11 30  1  0
 12 31  1  0
 12 32  1  0
 17 33  1  6
 18 34  1  0
 18 35  1  0
M  CHG  2  14   1  16  -1
M  END
>  <UniqueID>  (2) 
2

>  <SMILES>  (2) 
CC1=CC(=O)[C@@]2(C)C=C3CCC[C@]3([N+](=O)[O-])C2C1

>  <Energy>  (2) 
76.88461534493649

>  <Genealogy>  (2) 
CC1=CC(=O)[C@@]2(C)C=C3CCC[C@]3([N+](=O)[O-])C2C1 (chirality)
CC1=CC(=O)[C@@]2(C)C=C3CCC[C@]3([N+](=O)[O-])C2C1 (3D coordinates assigned)
CC1=CC(=O)[C@@]2(C)C=C3CCC[C@]3([N+](=O)[O-])C2C1 (nonaromatic ring conformer: 76.88461534493649 kcal/mol)

>  <smiles>  (2) 
CC1=CC(=O)C2(C)C=C3CCCC3([N+](=O)[O-])C2C1

>  <score_type>  (2) 
oracle

>  <origin>  (2) 
adg

>  <m_score__min__energy>  (2) 
-8.0299999999999994

>  <m_primary>  (2) 
energy

$$$$
2:0
     RDKit          3D

 63 66  0  0  0  0  0  0  0  0999 V2000
   -2.9830   25.2230  -26.3210 C   0  0  0  0  0  0  0  0  0  0  0  0
   -4.1670   24.5520  -27.0350 C   0  0  0  0  0  0  0  0  0  0  0  0
   -3.9260   24.2910  -28.4730 N   0  0  0  0  0  0  0  0  0  0  0  0
   -5.1780   24.0910  -29.2410 C   0  0  0  0  0  0  0  0  0  0  0  0
   -5.4210   25.2950  -30.1430 C   0  0  0  0  0  0  0  0  0  0  0  0
   -2.9200   23.2290  -28.6970 C   0  0  0  0  0  0  0  0  0  0  0  0
   -2.2320   23.4040  -30.0590 C   0  0  0  0  0  0  0  0  0  0  0  0
   -3.1410   23.2140  -31.1270 O   0  0  0  0  0  0  0  0  0  0  0  0
   -3.5060   21.8520  -31.2450 C   0  0  0  0  0  0  0  0  0  0  0  0
   -3.3420   21.4030  -32.6950 C   0  0  0  0  0  0  0  0  0  0  0  0
   -4.6130   21.4820  -33.4180 N   0  0  0  0  0  0  0  0  0  0  0  0
   -5.7510   20.7190  -32.9940 C   0  0  0  0  0  0  0  0  0  0  0  0
   -6.8480   21.3260  -32.3370 C   0  0  0  0  0  0  0  0  0  0  0  0
   -7.9920   20.5490  -31.9930 C   0  0  0  0  0  0  0  0  0  0  0  0
   -8.0340   19.1950  -32.2740 N   0  0  0  0  0  0  0  0  0  0  0  0
   -9.1900   18.3630  -31.9110 C   0  0  0  0  0  0  0  0  0  0  0  0
   -6.9570   18.6270  -32.8900 C   0  0  0  0  0  0  0  0  0  0  0  0
   -6.8270   17.3520  -33.2050 O   0  0  0  0  0  0  0  0  0  0  0  0
   -5.6300   17.2140  -33.7330 C   0  0  0  0  0  0  0  0  0  0  0  0
   -5.0460   16.0370  -34.1930 C   0  0  0  0  0  0  0  0  0  0  0  0
   -3.7310   16.1010  -34.6830 C   0  0  0  0  0  0  0  0  0  0  0  0
   -3.0290   17.3260  -34.6920 C   0  0  0  0  0  0  0  0  0  0  0  0
   -3.6390   18.5030  -34.2220 C   0  0  0  0  0  0  0  0  0  0  0  0
   -4.9580   18.4180  -33.7700 C   0  0  0  0  0  0  0  0  0  0  0  0
   -5.8350   19.3480  -33.2370 C   0  0  0  0  0  0  0  0  0  0  0  0
   -9.1050   21.2580  -31.2440 C   0  0  0  0  0  0  0  0  0  0  0  0
   -9.4270   22.6280  -31.8700 C   0  0  0  0  0  0  0  0  0  0  0  0
   -8.1900   23.4300  -32.3370 C   0  0  0  0  0  0  0  0  0  0  0  0
   -6.8510   22.7880  -31.9580 C   0  0  0  0  0  0  0  0  0  0  0  0
   -3.1197   25.1455  -25.2323 H   0  0  0  0  0  0  0  0  0  0  0  0
   -2.0481   24.7205  -26.6098 H   0  0  0  0  0  0  0  0  0  0  0  0
   -2.9338   26.2833  -26.6098 H   0  0  0  0  0  0  0  0  0  0  0  0
   -4.3736   23.5927  -26.5380 H   0  0  0  0  0  0  0  0  0  0  0  0
   -5.0159   25.2488  -26.9731 H   0  0  0  0  0  0  0  0  0  0  0  0
   -5.0890   23.1840  -29.8569 H   0  0  0  0  0  0  0  0  0  0  0  0
   -6.0213   23.9805  -28.5434 H   0  0  0  0  0  0  0  0  0  0  0  0
   -5.6009   26.1864  -29.5241 H   0  0  0  0  0  0  0  0  0  0  0  0
   -4.5384   25.4615  -30.7780 H   0  0  0  0  0  0  0  0  0  0  0  0
   -6.2991   25.1061  -30.7780 H   0  0  0  0  0  0  0  0  0  0  0  0
   -2.1617   23.2777  -27.9016 H   0  0  0  0  0  0  0  0  0  0  0  0
   -3.4293   22.2541  -28.6833 H   0  0  0  0  0  0  0  0  0  0  0  0
   -1.8149   24.4200  -30.1210 H   0  0  0  0  0  0  0  0  0  0  0  0
   -1.4368   22.6487  -30.1438 H   0  0  0  0  0  0  0  0  0  0  0  0
   -2.8593   21.2420  -30.5972 H   0  0  0  0  0  0  0  0  0  0  0  0
   -4.5553   21.7266  -30.9396 H   0  0  0  0  0  0  0  0  0  0  0  0
   -2.6055   22.0522  -33.1911 H   0  0  0  0  0  0  0  0  0  0  0  0
   -3.0011   20.3572  -32.7006 H   0  0  0  0  0  0  0  0  0  0  0  0
   -4.5990   21.8600  -34.3920 H   0  0  0  0  0  0  0  0  0  0  0  0
   -9.2705   18.3051  -30.8155 H   0  0  0  0  0  0  0  0  0  0  0  0
  -10.1070   18.8096  -32.3229 H   0  0  0  0  0  0  0  0  0  0  0  0
   -9.0577   17.3517  -32.3229 H   0  0  0  0  0  0  0  0  0  0  0  0
   -5.5976   15.0855  -34.1734 H   0  0  0  0  0  0  0  0  0  0  0  0
   -3.2447   15.1902  -35.0624 H   0  0  0  0  0  0  0  0  0  0  0  0
   -1.9965   17.3602  -35.0697 H   0  0  0  0  0  0  0  0  0  0  0  0
   -3.0952   19.4591  -34.2107 H   0  0  0  0  0  0  0  0  0  0  0  0
  -10.0089   20.6318  -31.2714 H   0  0  0  0  0  0  0  0  0  0  0  0
   -8.7722   21.4227  -30.2086 H   0  0  0  0  0  0  0  0  0  0  0  0
  -10.0774   22.4625  -32.7415 H   0  0  0  0  0  0  0  0  0  0  0  0
   -9.9061   23.2261  -31.0809 H   0  0  0  0  0  0  0  0  0  0  0  0
   -8.2313   23.5228  -33.4323 H   0  0  0  0  0  0  0  0  0  0  0  0
   -8.2314   24.4039  -31.8274 H   0  0  0  0  0  0  0  0  0  0  0  0
   -6.0376   23.3030  -32.4901 H   0  0  0  0  0  0  0  0  0  0  0  0
   -6.7047   22.8775  -30.8715 H   0  0  0  0  0  0  0  0  0  0  0  0
  1  2  1  0
  2  3  1  0
  3  4  1  0
  4  5  1  0
  3  6  1  0
  6  7  1  0
  7  8  1  0
  8  9  1  0
  9 10  1  0
 10 11  1  0
 11 12  1  0
 12 13  2  0
 13 14  1  0
 14 15  2  0
 15 16  1  0
 15 17  1  0
 17 18  1  0
 18 19  1  0
 19 20  2  0
 20 21  1  0
 21 22  2  0
 22 23  1  0
 23 24  2  0
 24 25  1  0
 14 26  1  0
 26 27  1  0
 27 28  1  0
 28 29  1  0
 25 12  1  0
 29 13  1  0
 25 17  2  0
 24 19  1  0
  1 30  1  0
  1 31  1  0
  1 32  1  0
  2 33  1  0
  2 34  1  0
  4 35  1  0
  4 36  1  0
  5 37  1  0
  5 38  1  0
  5 39  1  0
  6 40  1  0
  6 41  1  0
  7 42  1  0
  7 43  1  0
  9 44  1  0
  9 45  1  0
 10 46  1  0
 10 47  1  0
 11 48  1  0
 16 49  1  0
 16 50  1  0
 16 51  1  0
 20 52  1  0
 21 53  1  0
 22 54  1  0
 23 55  1  0
 26 56  1  0
 26 57  1  0
 27 58  1  0
 27 59  1  0
 28 60  1  0
 28 61  1  0
 29 62  1  0
 29 63  1  0
M  CHG  1  15   1
M  END
>  <UniqueID>  (3) 
3

>  <SMILES>  (3) 
CCN(CC)CCOCCNc1c2c([n+](C)c3oc4ccccc4c13)CCCC2

>  <Energy>  (3) 
118.8929726885434

>  <Genealogy>  (3) 
CCN(CC)CCOCCNc1c2c([n+](C)c3oc4ccccc4c13)CCCC2 (3D coordinates assigned)
CCN(CC)CCOCCNc1c2c([n+](C)c3oc4ccccc4c13)CCCC2 (nonaromatic ring conformer: 118.8929726885434 kcal/mol)

>  <smiles>  (3) 
CCN(CC)CCOCCNc1c2c([n+](C)c3oc4ccccc4c13)CCCC2

>  <score_type>  (3) 
oracle

>  <origin>  (3) 
adg

>  <m_score__min__energy>  (3) 
-8.6999999999999993

>  <m_primary>  (3) 
energy

$$$$
3:0
     RDKit          3D

 43 45  0  0  0  0  0  0  0  0999 V2000
   -9.0830   18.1990  -31.5960 C   0  0  0  0  0  0  0  0  0  0  0  0
   -9.5060   19.3730  -32.9190 S   0  0  0  0  0  0  0  0  0  0  0  0
   -7.8940   20.1630  -32.8820 C   0  0  0  0  0  0  0  0  0  0  0  0
   -6.9370   19.9500  -33.7970 N   0  0  0  0  0  0  0  0  0  0  0  0
   -5.8840   20.6800  -33.4680 N   0  0  0  0  0  0  0  0  0  0  0  0
   -6.2150   21.3350  -32.3340 C   0  0  0  0  0  0  0  0  0  0  0  0
   -5.2850   22.2520  -31.6390 C   0  0  0  0  0  0  0  0  0  0  0  0
   -3.9240   21.9400  -31.4980 C   0  0  0  0  0  0  0  0  0  0  0  0
   -3.0580   22.8300  -30.8570 C   0  0  0  0  0  0  0  0  0  0  0  0
   -3.5320   24.0500  -30.3590 C   0  0  0  0  0  0  0  0  0  0  0  0
   -2.6050   24.9370  -29.7170 N   0  0  0  0  0  0  0  0  0  0  0  0
   -1.6440   24.5430  -28.3270 S   0  0  0  0  0  0  0  0  0  0  0  0
   -0.2520   25.0650  -28.5470 O   0  0  0  0  0  0  0  0  0  0  0  0
   -2.2390   25.2220  -27.1260 O   0  0  0  0  0  0  0  0  0  0  0  0
   -1.6270   22.7930  -28.0470 C   0  0  0  0  0  0  0  0  0  0  0  0
   -0.4200   22.0940  -28.2070 C   0  0  0  0  0  0  0  0  0  0  0  0
   -0.3580   20.7180  -27.9800 C   0  0  0  0  0  0  0  0  0  0  0  0
   -1.5030   20.0210  -27.5960 C   0  0  0  0  0  0  0  0  0  0  0  0
   -2.7150   20.6960  -27.4490 C   0  0  0  0  0  0  0  0  0  0  0  0
   -2.7990   22.0790  -27.6880 C   0  0  0  0  0  0  0  0  0  0  0  0
   -4.1280   22.7650  -27.5160 C   0  0  0  0  0  0  0  0  0  0  0  0
   -4.8910   24.3750  -30.5200 C   0  0  0  0  0  0  0  0  0  0  0  0
   -5.7570   23.4840  -31.1620 C   0  0  0  0  0  0  0  0  0  0  0  0
   -7.4820   21.0450  -31.9500 N   0  0  0  0  0  0  0  0  0  0  0  0
   -8.2470   21.5580  -30.8140 C   0  0  0  0  0  0  0  0  0  0  0  0
   -9.2535   18.6721  -30.6177 H   0  0  0  0  0  0  0  0  0  0  0  0
   -9.7148   17.3030  -31.6851 H   0  0  0  0  0  0  0  0  0  0  0  0
   -8.0249   17.9119  -31.6851 H   0  0  0  0  0  0  0  0  0  0  0  0
   -6.9910   19.3220  -34.6290 H   0  0  0  0  0  0  0  0  0  0  0  0
   -3.5368   20.9897  -31.8942 H   0  0  0  0  0  0  0  0  0  0  0  0
   -1.9953   22.5701  -30.7427 H   0  0  0  0  0  0  0  0  0  0  0  0
    0.4863   22.6363  -28.5145 H   0  0  0  0  0  0  0  0  0  0  0  0
    0.5951   20.1830  -28.1042 H   0  0  0  0  0  0  0  0  0  0  0  0
   -1.4506   18.9383  -27.4089 H   0  0  0  0  0  0  0  0  0  0  0  0
   -3.6139   20.1407  -27.1431 H   0  0  0  0  0  0  0  0  0  0  0  0
   -4.3464   22.8777  -26.4438 H   0  0  0  0  0  0  0  0  0  0  0  0
   -4.0924   23.7573  -27.9893 H   0  0  0  0  0  0  0  0  0  0  0  0
   -4.9163   22.1612  -27.9893 H   0  0  0  0  0  0  0  0  0  0  0  0
   -5.2741   25.3334  -30.1396 H   0  0  0  0  0  0  0  0  0  0  0  0
   -6.8159   23.7511  -31.2939 H   0  0  0  0  0  0  0  0  0  0  0  0
   -7.7697   21.2380  -29.8760 H   0  0  0  0  0  0  0  0  0  0  0  0
   -8.2731   22.6569  -30.8558 H   0  0  0  0  0  0  0  0  0  0  0  0
   -9.2736   21.1650  -30.8558 H   0  0  0  0  0  0  0  0  0  0  0  0
  1  2  1  0
  2  3  1  0
  3  4  2  0
  4  5  1  0
  5  6  2  0
  6  7  1  0
  7  8  2  0
  8  9  1  0
  9 10  2  0
 10 11  1  0
 11 12  1  0
 12 13  2  0
 12 14  2  0
 12 15  1  0
 15 16  2  0
 16 17  1  0
 17 18  2  0
 18 19  1  0
 19 20  2  0
 20 21  1  0
 10 22  1  0
 22 23  2  0
  6 24  1  0
 24 25  1  0
 24  3  1  0
 23  7  1  0
 20 15  1  0
  1 26  1  0
  1 27  1  0
  1 28  1  0
  4 29  1  0
  8 30  1  0
  9 31  1  0
 16 32  1  0
 17 33  1  0
 18 34  1  0
 19 35  1  0
 21 36  1  0
 21 37  1  0
 21 38  1  0
 22 39  1  0
 23 40  1  0
 25 41  1  0
 25 42  1  0
 25 43  1  0
M  CHG  2   4   1  11  -1
M  END
>  <UniqueID>  (4) 
4

>  <SMILES>  (4) 
CSc1[nH+]nc(-c2ccc([N-]S(=O)(=O)c3ccccc3C)cc2)n1C

>  <Energy>  (4) 
85.34217293340556

>  <Genealogy>  (4) 
CSc1[nH+]nc(-c2ccc([N-]S(=O)(=O)c3ccccc3C)cc2)n1C (protonated)
CSc1[nH+]nc(-c2ccc([N-]S(=O)(=O)c3ccccc3C)cc2)n1C (3D coordinates assigned)
CSc1[nH+]nc(-c2ccc([N-]S(=O)(=O)c3ccccc3C)cc2)n1C (optimized conformer: 85.34217293340556 kcal/mol)

>  <smiles>  (4) 
CSc1nnc(-c2ccc(NS(=O)(=O)c3ccccc3C)cc2)n1C

>  <score_type>  (4) 
oracle

>  <origin>  (4) 
adg

>  <m_score__min__energy>  (4) 
-10.01

>  <m_primary>  (4) 
energy

$$$$
4:0
     RDKit          3D

 73 76  0  0  0  0  0  0  0  0999 V2000
   -2.4540   19.8100  -27.2180 C   0  0  0  0  0  0  0  0  0  0  0  0
   -3.2040   20.9670  -27.8650 C   0  0  0  0  0  0  0  0  0  0  0  0
   -2.9360   20.9830  -29.3070 N   0  0  0  0  0  0  0  0  0  0  0  0
   -1.6390   20.3750  -29.6460 C   0  0  0  0  0  0  0  0  0  0  0  0
   -1.0300   20.9290  -30.9490 C   0  0  0  0  0  0  0  0  0  0  0  0
   -1.9150   21.8000  -31.6270 O   0  0  0  0  0  0  0  0  0  0  0  0
   -1.8880   21.5650  -33.0200 C   0  0  0  0  0  0  0  0  0  0  0  0
   -3.2040   20.8990  -33.4300 C   0  0  0  0  0  0  0  0  0  0  0  0
   -4.0520   20.5870  -32.2770 N   0  0  0  0  0  0  0  0  0  0  0  0
   -5.3860   20.0740  -32.4340 C   0  0  0  0  0  0  0  0  0  0  0  0
   -5.5690   18.7340  -32.8130 C   0  0  0  0  0  0  0  0  0  0  0  0
   -4.4920   17.9670  -33.3070 C   0  0  0  0  0  0  0  0  0  0  0  0
   -4.6860   16.6520  -33.7240 C   0  0  0  0  0  0  0  0  0  0  0  0
   -5.9530   16.0850  -33.6680 C   0  0  0  0  0  0  0  0  0  0  0  0
   -7.0280   16.8200  -33.1700 C   0  0  0  0  0  0  0  0  0  0  0  0
   -6.8540   18.1480  -32.7010 C   0  0  0  0  0  0  0  0  0  0  0  0
   -7.8900   18.8660  -32.1420 N   0  0  0  0  0  0  0  0  0  0  0  0
   -9.1200   18.1650  -31.7060 C   0  0  0  0  0  0  0  0  0  0  0  0
   -7.7750   20.2360  -31.9770 C   0  0  0  0  0  0  0  0  0  0  0  0
   -8.9020   21.0320  -31.6570 C   0  0  0  0  0  0  0  0  0  0  0  0
   -8.7850   22.4010  -31.4610 C   0  0  0  0  0  0  0  0  0  0  0  0
   -7.5600   23.0280  -31.6250 C   0  0  0  0  0  0  0  0  0  0  0  0
   -6.4190   22.2960  -31.9850 C   0  0  0  0  0  0  0  0  0  0  0  0
   -5.2240   23.0160  -32.3410 N   0  0  0  0  0  0  0  0  0  0  0  0
   -4.2060   23.4210  -31.3720 C   0  0  0  0  0  0  0  0  0  0  0  0
   -4.7380   24.5530  -30.4860 C   0  0  0  0  0  0  0  0  0  0  0  0
   -4.5790   24.3030  -28.9620 C   0  0  0  0  0  0  0  0  0  0  0  0
   -3.2490   23.8430  -28.4920 N   0  0  0  0  0  0  0  0  0  0  0  0
   -2.1150   24.2540  -29.3330 C   0  0  0  0  0  0  0  0  0  0  0  0
   -1.1320   25.0230  -28.4560 C   0  0  0  0  0  0  0  0  0  0  0  0
   -1.8510   25.2510  -27.1450 C   0  0  0  0  0  0  0  0  0  0  0  0
   -2.9210   24.1770  -27.1030 C   0  0  0  0  0  0  0  0  0  0  0  0
   -6.5110   20.8780  -32.1390 C   0  0  0  0  0  0  0  0  0  0  0  0
   -2.5131   19.9011  -26.1234 H   0  0  0  0  0  0  0  0  0  0  0  0
   -2.9073   18.8581  -27.5317 H   0  0  0  0  0  0  0  0  0  0  0  0
   -1.4000   19.8352  -27.5317 H   0  0  0  0  0  0  0  0  0  0  0  0
   -4.2838   20.8440  -27.6948 H   0  0  0  0  0  0  0  0  0  0  0  0
   -2.8664   21.9149  -27.4205 H   0  0  0  0  0  0  0  0  0  0  0  0
   -2.9670   21.9690  -29.6540 H   0  0  0  0  0  0  0  0  0  0  0  0
   -0.9364   20.5683  -28.8220 H   0  0  0  0  0  0  0  0  0  0  0  0
   -1.8123   19.2994  -29.7980 H   0  0  0  0  0  0  0  0  0  0  0  0
   -0.1102   21.4801  -30.7033 H   0  0  0  0  0  0  0  0  0  0  0  0
   -0.8223   20.0766  -31.6126 H   0  0  0  0  0  0  0  0  0  0  0  0
   -1.7738   22.5196  -33.5545 H   0  0  0  0  0  0  0  0  0  0  0  0
   -1.0412   20.9104  -33.2737 H   0  0  0  0  0  0  0  0  0  0  0  0
   -3.7519   21.5798  -34.0981 H   0  0  0  0  0  0  0  0  0  0  0  0
   -2.9594   19.9523  -33.9338 H   0  0  0  0  0  0  0  0  0  0  0  0
   -3.8460   21.1080  -31.3940 H   0  0  0  0  0  0  0  0  0  0  0  0
   -3.4879   18.4127  -33.3634 H   0  0  0  0  0  0  0  0  0  0  0  0
   -3.8358   16.0625  -34.0977 H   0  0  0  0  0  0  0  0  0  0  0  0
   -6.1085   15.0536  -34.0174 H   0  0  0  0  0  0  0  0  0  0  0  0
   -8.0280   16.3627  -33.1401 H   0  0  0  0  0  0  0  0  0  0  0  0
   -9.1593   18.1426  -30.6069 H   0  0  0  0  0  0  0  0  0  0  0  0
  -10.0018   18.6962  -32.0937 H   0  0  0  0  0  0  0  0  0  0  0  0
   -9.1123   17.1356  -32.0937 H   0  0  0  0  0  0  0  0  0  0  0  0
   -9.8891   20.5560  -31.5620 H   0  0  0  0  0  0  0  0  0  0  0  0
   -9.6682   22.9908  -31.1743 H   0  0  0  0  0  0  0  0  0  0  0  0
   -7.4815   24.1143  -31.4708 H   0  0  0  0  0  0  0  0  0  0  0  0
   -5.2070   23.4880  -33.2720 H   0  0  0  0  0  0  0  0  0  0  0  0
   -3.9420   22.5595  -30.7411 H   0  0  0  0  0  0  0  0  0  0  0  0
   -3.3171   23.7770  -31.9134 H   0  0  0  0  0  0  0  0  0  0  0  0
   -4.1948   25.4746  -30.7420 H   0  0  0  0  0  0  0  0  0  0  0  0
   -5.8182   24.6237  -30.6816 H   0  0  0  0  0  0  0  0  0  0  0  0
   -4.8058   25.2471  -28.4450 H   0  0  0  0  0  0  0  0  0  0  0  0
   -5.2657   23.4744  -28.7343 H   0  0  0  0  0  0  0  0  0  0  0  0
   -1.6224   23.3658  -29.7555 H   0  0  0  0  0  0  0  0  0  0  0  0
   -2.4639   24.8874  -30.1619 H   0  0  0  0  0  0  0  0  0  0  0  0
   -0.2177   24.4330  -28.2952 H   0  0  0  0  0  0  0  0  0  0  0  0
   -0.8247   25.9706  -28.9225 H   0  0  0  0  0  0  0  0  0  0  0  0
   -1.1578   25.1417  -26.2979 H   0  0  0  0  0  0  0  0  0  0  0  0
   -2.2738   26.2639  -27.0721 H   0  0  0  0  0  0  0  0  0  0  0  0
   -2.5420   23.2866  -26.5799 H   0  0  0  0  0  0  0  0  0  0  0  0
   -3.8119   24.5319  -26.5641 H   0  0  0  0  0  0  0  0  0  0  0  0
  1  2  1  0
  2  3  1  0
  3  4  1  0
  4  5  1  0
  5  6  1  0
  6  7  1  0
  7  8  1  0
  8  9  1  0
  9 10  1  0
 10 11  2  0
 11 12  1  0
 12 13  2  0
 13 14  1  0
 14 15  2  0
 15 16  1  0
 16 17  2  0
 17 18  1  0
 17 19  1  0
 19 20  2  0
 20 21  1  0
 21 22  2  0
 22 23  1  0
 23 24  1  0
 24 25  1  0
 25 26  1  0
 26 27  1  0
 27 28  1  0
 28 29  1  0
 29 30  1  0
 30 31  1  0
 31 32  1  0
 23 33  2  0
 33 10  1  0
 16 11  1  0
 33 19  1  0
 32 28  1  0
  1 34  1  0
  1 35  1  0
  1 36  1  0
  2 37  1  0
  2 38  1  0
  3 39  1  0
  4 40  1  0
  4 41  1  0
  5 42  1  0
  5 43  1  0
  7 44  1  0
  7 45  1  0
  8 46  1  0
  8 47  1  0
  9 48  1  0
 12 49  1  0
 13 50  1  0
 14 51  1  0
 15 52  1  0
 18 53  1  0
 18 54  1  0
 18 55  1  0
 20 56  1  0
 21 57  1  0
 22 58  1  0
 24 59  1  0
 25 60  1  0
 25 61  1  0
 26 62  1  0
 26 63  1  0
 27 64  1  0
 27 65  1  0
 29 66  1  0
 29 67  1  0
 30 68  1  0
 30 69  1  0
 31 70  1  0
 31 71  1  0
 32 72  1  0
 32 73  1  0
M  CHG  1  17   1
M  END
>  <UniqueID>  (5) 
5

>  <SMILES>  (5) 
CCNCCOCCNc1c2ccccc2[n+](C)c2cccc(NCCCN3CCCC3)c12

>  <Energy>  (5) 
109.08100024885398

>  <Genealogy>  (5) 
CCNCCOCCNc1c2ccccc2[n+](C)c2cccc(NCCCN3CCCC3)c12 (3D coordinates assigned)
CCNCCOCCNc1c2ccccc2[n+](C)c2cccc(NCCCN3CCCC3)c12 (nonaromatic ring conformer: 109.08100024885398 kcal/mol)

>  <smiles>  (5) 
CCNCCOCCNc1c2ccccc2[n+](C)c2cccc(NCCCN3CCCC3)c12

>  <score_type>  (5) 
oracle

>  <origin>  (5) 
adg

>  <m_score__min__energy>  (5) 
-9.4600000000000009

>  <m_primary>  (5) 
energy

$$$$
5:0
     RDKit          3D

 70 72  0  0  0  0  0  0  0  0999 V2000
   -6.6450   24.1130  -30.8370 C   0  0  0  0  0  0  0  0  0  0  0  0
   -5.5560   23.6830  -31.8120 C   0  0  0  0  0  0  0  0  0  0  0  0
   -4.3540   23.2660  -31.0520 N   0  0  0  0  0  0  0  0  0  0  0  0
   -3.6260   24.4040  -30.4490 C   0  0  0  0  0  0  0  0  0  0  0  0
   -3.3310   24.2240  -28.9530 C   0  0  0  0  0  0  0  0  0  0  0  0
   -4.6090   22.1700  -30.0930 C   0  0  0  0  0  0  0  0  0  0  0  0
   -4.1880   20.8190  -30.6930 C   0  0  0  0  0  0  0  0  0  0  0  0
   -4.1420   20.8500  -32.1660 N   0  0  0  0  0  0  0  0  0  0  0  0
   -4.8740   19.7390  -32.7730 C   0  0  0  0  0  0  0  0  0  0  0  0
   -6.2790   19.5810  -32.5420 C   0  0  0  0  0  0  0  0  0  0  0  0
   -7.0650   20.5720  -31.8890 C   0  0  0  0  0  0  0  0  0  0  0  0
   -8.4230   20.3830  -31.6520 C   0  0  0  0  0  0  0  0  0  0  0  0
   -9.0410   19.2080  -32.0380 C   0  0  0  0  0  0  0  0  0  0  0  0
   -8.3100   18.2160  -32.6750 C   0  0  0  0  0  0  0  0  0  0  0  0
   -6.9290   18.3820  -32.9610 C   0  0  0  0  0  0  0  0  0  0  0  0
   -6.2130   17.3790  -33.5770 N   0  0  0  0  0  0  0  0  0  0  0  0
   -6.9200   16.2510  -34.2250 C   0  0  0  0  0  0  0  0  0  0  0  0
   -4.8390   17.4340  -33.6140 C   0  0  0  0  0  0  0  0  0  0  0  0
   -4.0780   16.2630  -33.8310 C   0  0  0  0  0  0  0  0  0  0  0  0
   -2.6960   16.3140  -33.9290 C   0  0  0  0  0  0  0  0  0  0  0  0
   -2.0370   17.5380  -33.9200 C   0  0  0  0  0  0  0  0  0  0  0  0
   -0.6150   17.5800  -34.1320 N   0  0  0  0  0  0  0  0  0  0  0  0
   -0.0800   17.4120  -35.4830 C   0  0  0  0  0  0  0  0  0  0  0  0
    0.2720   17.3280  -32.9970 C   0  0  0  0  0  0  0  0  0  0  0  0
   -2.7710   18.7270  -33.7460 C   0  0  0  0  0  0  0  0  0  0  0  0
   -2.1460   19.9560  -34.1550 N   0  0  0  0  0  0  0  0  0  0  0  0
   -0.8470   20.3500  -33.5940 C   0  0  1  0  0  0  0  0  0  0  0  0
    0.1480   20.6650  -34.7170 C   0  0  0  0  0  0  0  0  0  0  0  0
   -1.0150   21.5490  -32.6440 C   0  0  0  0  0  0  0  0  0  0  0  0
   -2.2680   22.1590  -32.8160 O   0  0  0  0  0  0  0  0  0  0  0  0
   -4.1610   18.6640  -33.3990 C   0  0  0  0  0  0  0  0  0  0  0  0
   -6.2898   23.9727  -29.8054 H   0  0  0  0  0  0  0  0  0  0  0  0
   -6.8859   25.1737  -31.0008 H   0  0  0  0  0  0  0  0  0  0  0  0
   -7.5456   23.5030  -31.0008 H   0  0  0  0  0  0  0  0  0  0  0  0
   -5.9180   22.8397  -32.4184 H   0  0  0  0  0  0  0  0  0  0  0  0
   -5.3003   24.5244  -32.4728 H   0  0  0  0  0  0  0  0  0  0  0  0
   -2.6700   24.5252  -30.9795 H   0  0  0  0  0  0  0  0  0  0  0  0
   -4.2739   25.2877  -30.5452 H   0  0  0  0  0  0  0  0  0  0  0  0
   -4.1231   24.7073  -28.3623 H   0  0  0  0  0  0  0  0  0  0  0  0
   -3.2971   23.1512  -28.7124 H   0  0  0  0  0  0  0  0  0  0  0  0
   -2.3614   24.6845  -28.7124 H   0  0  0  0  0  0  0  0  0  0  0  0
   -4.0334   22.3526  -29.1736 H   0  0  0  0  0  0  0  0  0  0  0  0
   -5.6852   22.1386  -29.8675 H   0  0  0  0  0  0  0  0  0  0  0  0
   -3.1887   20.5596  -30.3134 H   0  0  0  0  0  0  0  0  0  0  0  0
   -4.9378   20.0710  -30.3958 H   0  0  0  0  0  0  0  0  0  0  0  0
   -4.4400   21.7880  -32.4940 H   0  0  0  0  0  0  0  0  0  0  0  0
   -3.1530   20.8540  -32.4690 H   0  0  0  0  0  0  0  0  0  0  0  0
   -6.5880   21.5085  -31.5644 H   0  0  0  0  0  0  0  0  0  0  0  0
   -9.0073   21.1717  -31.1555 H   0  0  0  0  0  0  0  0  0  0  0  0
  -10.1128   19.0597  -31.8399 H   0  0  0  0  0  0  0  0  0  0  0  0
   -8.8109   17.2805  -32.9649 H   0  0  0  0  0  0  0  0  0  0  0  0
   -7.3361   15.5871  -33.4530 H   0  0  0  0  0  0  0  0  0  0  0  0
   -7.7356   16.6409  -34.8517 H   0  0  0  0  0  0  0  0  0  0  0  0
   -6.2135   15.6870  -34.8517 H   0  0  0  0  0  0  0  0  0  0  0  0
   -4.5911   15.2944  -33.9237 H   0  0  0  0  0  0  0  0  0  0  0  0
   -2.1184   15.3818  -34.0143 H   0  0  0  0  0  0  0  0  0  0  0  0
    0.9680   17.0829  -35.4241 H   0  0  0  0  0  0  0  0  0  0  0  0
   -0.6719   16.6565  -36.0204 H   0  0  0  0  0  0  0  0  0  0  0  0
   -0.1337   18.3703  -36.0204 H   0  0  0  0  0  0  0  0  0  0  0  0
   -0.2799   17.4848  -32.0585 H   0  0  0  0  0  0  0  0  0  0  0  0
    0.6361   16.2909  -33.0394 H   0  0  0  0  0  0  0  0  0  0  0  0
    1.1270   18.0188  -33.0394 H   0  0  0  0  0  0  0  0  0  0  0  0
   -2.7490   20.7110  -34.5480 H   0  0  0  0  0  0  0  0  0  0  0  0
   -0.4427   19.5095  -33.0107 H   0  0  0  0  0  0  0  0  0  0  0  0
    1.1102   20.9696  -34.2796 H   0  0  0  0  0  0  0  0  0  0  0  0
    0.2949   19.7694  -35.3386 H   0  0  0  0  0  0  0  0  0  0  0  0
   -0.2472   21.4820  -35.3386 H   0  0  0  0  0  0  0  0  0  0  0  0
   -0.9254   21.1993  -31.6049 H   0  0  0  0  0  0  0  0  0  0  0  0
   -0.2327   22.2878  -32.8724 H   0  0  0  0  0  0  0  0  0  0  0  0
   -2.4720   22.6420  -31.9740 H   0  0  0  0  0  0  0  0  0  0  0  0
  1  2  1  0
  2  3  1  0
  3  4  1  0
  4  5  1  0
  3  6  1  0
  6  7  1  0
  7  8  1  0
  8  9  1  0
  9 10  2  0
 10 11  1  0
 11 12  2  0
 12 13  1  0
 13 14  2  0
 14 15  1  0
 15 16  2  0
 16 17  1  0
 16 18  1  0
 18 19  2  0
 19 20  1  0
 20 21  2  0
 21 22  1  0
 22 23  1  0
 22 24  1  0
 21 25  1  0
 25 26  1  0
 26 27  1  0
 27 28  1  0
 27 29  1  0
 29 30  1  0
 25 31  2  0
 31  9  1  0
 15 10  1  0
 31 18  1  0
  1 32  1  0
  1 33  1  0
  1 34  1  0
  2 35  1  0
  2 36  1  0
  4 37  1  0
  4 38  1  0
  5 39  1  0
  5 40  1  0
  5 41  1  0
  6 42  1  0
  6 43  1  0
  7 44  1  0
  7 45  1  0
  8 46  1  0
  8 47  1  0
 11 48  1  0
 12 49  1  0
 13 50  1  0
 14 51  1  0
 17 52  1  0
 17 53  1  0
 17 54  1  0
 19 55  1  0
 20 56  1  0
 23 57  1  0
 23 58  1  0
 23 59  1  0
 24 60  1  0
 24 61  1  0
 24 62  1  0
 26 63  1  0
 27 64  1  1
 28 65  1  0
 28 66  1  0
 28 67  1  0
 29 68  1  0
 29 69  1  0
 30 70  1  0
M  CHG  2   8   1  16   1
M  END
>  <UniqueID>  (6) 
6

>  <SMILES>  (6) 
CCN(CC)CC[NH2+]c1c2ccccc2[n+](C)c2ccc(N(C)C)c(N[C@@H](C)CO)c12

>  <Energy>  (6) 
115.89730559848059

>  <Genealogy>  (6) 
CCN(CC)CC[NH2+]c1c2ccccc2[n+](C)c2ccc(N(C)C)c(NC(C)CO)c12 (protonated)
CCN(CC)CC[NH2+]c1c2ccccc2[n+](C)c2ccc(N(C)C)c(N[C@@H](C)CO)c12 (chirality)
CCN(CC)CC[NH2+]c1c2ccccc2[n+](C)c2ccc(N(C)C)c(N[C@@H](C)CO)c12 (3D coordinates assigned)
CCN(CC)CC[NH2+]c1c2ccccc2[n+](C)c2ccc(N(C)C)c(N[C@@H](C)CO)c12 (optimized conformer: 115.89730559848059 kcal/mol)

>  <smiles>  (6) 
CCN(CC)CCNc1c2ccccc2[n+](C)c2ccc(N(C)C)c(NC(C)CO)c12

>  <score_type>  (6) 
oracle

>  <origin>  (6) 
adg

>  <m_score__min__energy>  (6) 
-7.5599999999999996

>  <m_primary>  (6) 
energy

$$$$
6:0
     RDKit          3D

 57 59  0  0  0  0  0  0  0  0999 V2000
   -1.2260   19.7510  -28.1350 C   0  0  0  0  0  0  0  0  0  0  0  0
   -0.0880   20.5070  -28.8290 C   0  0  0  0  0  0  0  0  0  0  0  0
   -0.5680   21.3650  -29.9260 N   0  0  0  0  0  0  0  0  0  0  0  0
   -1.2800   22.5580  -29.4300 C   0  0  0  0  0  0  0  0  0  0  0  0
   -2.8090   22.4200  -29.5990 C   0  0  0  0  0  0  0  0  0  0  0  0
   -3.5590   23.7580  -29.5480 C   0  0  0  0  0  0  0  0  0  0  0  0
   -4.0640   24.1300  -30.8760 N   0  0  0  0  0  0  0  0  0  0  0  0
   -5.4480   24.6160  -30.7900 C   0  0  0  0  0  0  0  0  0  0  0  0
   -6.4320   23.4580  -30.9910 C   0  0  0  0  0  0  0  0  0  0  0  0
   -6.3080   22.8760  -32.3280 N   0  0  0  0  0  0  0  0  0  0  0  0
   -6.0270   21.4780  -32.4930 C   0  0  0  0  0  0  0  0  0  0  0  0
   -7.0660   20.5380  -32.4390 C   0  0  0  0  0  0  0  0  0  0  0  0
   -8.3970   20.9470  -32.2090 C   0  0  0  0  0  0  0  0  0  0  0  0
   -9.4190   20.0070  -32.0930 C   0  0  0  0  0  0  0  0  0  0  0  0
   -9.1310   18.6510  -32.1900 C   0  0  0  0  0  0  0  0  0  0  0  0
   -7.8250   18.2260  -32.4390 C   0  0  0  0  0  0  0  0  0  0  0  0
   -6.7710   19.1590  -32.6100 C   0  0  0  0  0  0  0  0  0  0  0  0
   -5.4840   18.7580  -32.9190 N   0  0  0  0  0  0  0  0  0  0  0  0
   -5.2320   17.3740  -33.3800 C   0  0  0  0  0  0  0  0  0  0  0  0
   -4.4360   19.6590  -32.8310 C   0  0  0  0  0  0  0  0  0  0  0  0
   -3.0820   19.2420  -32.8950 C   0  0  0  0  0  0  0  0  0  0  0  0
   -2.0250   20.1690  -32.8710 C   0  0  0  0  0  0  0  0  0  0  0  0
   -0.6560   19.7280  -32.9540 N   0  0  0  0  0  0  0  0  0  0  0  0
   -0.2520   19.0770  -33.9390 O   0  0  0  0  0  0  0  0  0  0  0  0
    0.2360   20.0280  -31.9500 O   0  0  0  0  0  0  0  0  0  0  0  0
   -2.3190   21.5320  -32.7600 C   0  0  0  0  0  0  0  0  0  0  0  0
   -3.6370   21.9610  -32.6440 C   0  0  0  0  0  0  0  0  0  0  0  0
   -4.7020   21.0420  -32.6580 C   0  0  0  0  0  0  0  0  0  0  0  0
   -1.1071   19.8300  -27.0443 H   0  0  0  0  0  0  0  0  0  0  0  0
   -2.1909   20.1883  -28.4313 H   0  0  0  0  0  0  0  0  0  0  0  0
   -1.1969   18.6920  -28.4313 H   0  0  0  0  0  0  0  0  0  0  0  0
    0.4220   21.1371  -28.0855 H   0  0  0  0  0  0  0  0  0  0  0  0
    0.5941   19.7606  -29.2622 H   0  0  0  0  0  0  0  0  0  0  0  0
   -1.2370   20.8000  -30.5030 H   0  0  0  0  0  0  0  0  0  0  0  0
    0.2310   21.6370  -30.5420 H   0  0  0  0  0  0  0  0  0  0  0  0
   -1.0497   22.6930  -28.3629 H   0  0  0  0  0  0  0  0  0  0  0  0
   -0.9463   23.4262  -30.0173 H   0  0  0  0  0  0  0  0  0  0  0  0
   -3.0095   21.9464  -30.5714 H   0  0  0  0  0  0  0  0  0  0  0  0
   -3.1723   21.8157  -28.7547 H   0  0  0  0  0  0  0  0  0  0  0  0
   -4.4069   23.6687  -28.8529 H   0  0  0  0  0  0  0  0  0  0  0  0
   -2.8616   24.5376  -29.2076 H   0  0  0  0  0  0  0  0  0  0  0  0
   -3.4730   24.9230  -31.2200 H   0  0  0  0  0  0  0  0  0  0  0  0
   -5.6139   25.0654  -29.7998 H   0  0  0  0  0  0  0  0  0  0  0  0
   -5.6132   25.3666  -31.5770 H   0  0  0  0  0  0  0  0  0  0  0  0
   -6.2261   22.6795  -30.2416 H   0  0  0  0  0  0  0  0  0  0  0  0
   -7.4538   23.8492  -30.8778 H   0  0  0  0  0  0  0  0  0  0  0  0
   -6.3770   23.4710  -33.1850 H   0  0  0  0  0  0  0  0  0  0  0  0
   -8.6299   22.0184  -32.1204 H   0  0  0  0  0  0  0  0  0  0  0  0
  -10.4543   20.3385  -31.9246 H   0  0  0  0  0  0  0  0  0  0  0  0
   -9.9351   17.9100  -32.0701 H   0  0  0  0  0  0  0  0  0  0  0  0
   -7.6098   17.1492  -32.5037 H   0  0  0  0  0  0  0  0  0  0  0  0
   -5.1117   16.7135  -32.5087 H   0  0  0  0  0  0  0  0  0  0  0  0
   -6.0821   17.0292  -33.9869 H   0  0  0  0  0  0  0  0  0  0  0  0
   -4.3149   17.3510  -33.9869 H   0  0  0  0  0  0  0  0  0  0  0  0
   -2.8534   18.1683  -32.9651 H   0  0  0  0  0  0  0  0  0  0  0  0
   -1.5027   22.2693  -32.7645 H   0  0  0  0  0  0  0  0  0  0  0  0
   -3.8498   23.0352  -32.5397 H   0  0  0  0  0  0  0  0  0  0  0  0
  1  2  1  0
  2  3  1  0
  3  4  1  0
  4  5  1  0
  5  6  1  0
  6  7  1  0
  7  8  1  0
  8  9  1  0
  9 10  1  0
 10 11  1  0
 11 12  2  0
 12 13  1  0
 13 14  2  0
 14 15  1  0
 15 16  2  0
 16 17  1  0
 17 18  2  0
 18 19  1  0
 18 20  1  0
 20 21  2  0
 21 22  1  0
 22 23  1  0
 23 24  2  0
 23 25  1  0
 22 26  2  0
 26 27  1  0
 27 28  2  0
 28 11  1  0
 17 12  1  0
 28 20  1  0
  1 29  1  0
  1 30  1  0
  1 31  1  0
  2 32  1  0
  2 33  1  0
  3 34  1  0
  3 35  1  0
  4 36  1  0
  4 37  1  0
  5 38  1  0
  5 39  1  0
  6 40  1  0
  6 41  1  0
  7 42  1  0
  8 43  1  0
  8 44  1  0
  9 45  1  0
  9 46  1  0
 10 47  1  0
 13 48  1  0
 14 49  1  0
 15 50  1  0
 16 51  1  0
 19 52  1  0
 19 53  1  0
 19 54  1  0
 21 55  1  0
 26 56  1  0
 27 57  1  0
M  CHG  4   3   1  18   1  23   1  25  -1
M  END
>  <UniqueID>  (7) 
7

>  <SMILES>  (7) 
CC[NH2+]CCCNCCNc1c2ccccc2[n+](C)c2cc([N+](=O)[O-])ccc12

>  <Energy>  (7) 
78.02415059683011

>  <Genealogy>  (7) 
CC[NH2+]CCCNCCNc1c2ccccc2[n+](C)c2cc([N+](=O)[O-])ccc12 (protonated)
CC[NH2+]CCCNCCNc1c2ccccc2[n+](C)c2cc([N+](=O)[O-])ccc12 (3D coordinates assigned)
CC[NH2+]CCCNCCNc1c2ccccc2[n+](C)c2cc([N+](=O)[O-])ccc12 (optimized conformer: 78.02415059683011 kcal/mol)

>  <smiles>  (7) 
CCNCCCNCCNc1c2ccccc2[n+](C)c2cc([N+](=O)[O-])ccc12

>  <score_type>  (7) 
oracle

>  <origin>  (7) 
adg

>  <m_score__min__energy>  (7) 
-7.8300000000000001

>  <m_primary>  (7) 
energy

$$$$
7:0
     RDKit          3D

 60 63  0  0  0  0  0  0  0  0999 V2000
   -4.2320   24.3290  -27.6520 C   0  0  0  0  0  0  0  0  0  0  0  0
   -4.2600   24.1480  -29.1390 C   0  0  0  0  0  0  0  0  0  0  0  0
   -3.4770   23.2850  -29.8860 C   0  0  0  0  0  0  0  0  0  0  0  0
   -2.3610   22.4030  -29.4120 C   0  0  0  0  0  0  0  0  0  0  0  0
   -1.3790   22.1290  -30.4780 N   0  0  0  0  0  0  0  0  0  0  0  0
   -1.7100   21.0540  -31.4500 C   0  0  0  0  0  0  0  0  0  0  0  0
   -1.5810   21.4500  -32.9360 C   0  0  0  0  0  0  0  0  0  0  0  0
   -1.8050   20.2310  -33.8580 C   0  0  0  0  0  0  0  0  0  0  0  0
   -2.5310   19.1270  -33.1860 N   0  0  0  0  0  0  0  0  0  0  0  0
   -3.0030   18.1350  -34.1770 C   0  0  0  0  0  0  0  0  0  0  0  0
   -4.2330   17.3790  -33.6560 C   0  0  0  0  0  0  0  0  0  0  0  0
   -5.3860   17.5420  -34.5720 N   0  0  0  0  0  0  0  0  0  0  0  0
   -6.4990   16.6260  -34.2530 C   0  0  0  0  0  0  0  0  0  0  0  0
   -7.1100   16.9160  -32.8730 C   0  0  0  0  0  0  0  0  0  0  0  0
   -7.3210   18.3890  -32.6430 C   0  0  0  0  0  0  0  0  0  0  0  0
   -8.1040   18.8080  -31.5540 C   0  0  0  0  0  0  0  0  0  0  0  0
   -8.2720   20.1690  -31.2880 C   0  0  0  0  0  0  0  0  0  0  0  0
   -7.6560   21.1230  -32.1010 C   0  0  0  0  0  0  0  0  0  0  0  0
   -6.8650   20.7170  -33.1790 C   0  0  0  0  0  0  0  0  0  0  0  0
   -6.6750   19.3530  -33.4460 C   0  0  0  0  0  0  0  0  0  0  0  0
   -5.8640   18.9390  -34.6520 C   0  0  0  0  0  0  0  0  0  0  0  0
   -3.6430   19.6510  -32.3660 C   0  0  0  0  0  0  0  0  0  0  0  0
   -3.0930   20.4300  -31.1570 C   0  0  0  0  0  0  0  0  0  0  0  0
   -3.9370   23.4160  -31.1820 C   0  0  0  0  0  0  0  0  0  0  0  0
   -4.9550   24.2980  -31.2080 N   0  0  0  0  0  0  0  0  0  0  0  0
   -5.1440   24.7350  -29.9720 N   0  0  0  0  0  0  0  0  0  0  0  0
   -6.1930   25.6790  -29.6030 C   0  0  0  0  0  0  0  0  0  0  0  0
   -4.3825   23.3561  -27.1613 H   0  0  0  0  0  0  0  0  0  0  0  0
   -3.2589   24.7446  -27.3515 H   0  0  0  0  0  0  0  0  0  0  0  0
   -5.0341   25.0192  -27.3515 H   0  0  0  0  0  0  0  0  0  0  0  0
   -1.8473   22.8996  -28.5757 H   0  0  0  0  0  0  0  0  0  0  0  0
   -2.7976   21.4431  -29.0989 H   0  0  0  0  0  0  0  0  0  0  0  0
   -1.2620   23.0190  -31.0170 H   0  0  0  0  0  0  0  0  0  0  0  0
   -0.9318   20.2928  -31.2921 H   0  0  0  0  0  0  0  0  0  0  0  0
   -2.3316   22.2195  -33.1692 H   0  0  0  0  0  0  0  0  0  0  0  0
   -0.5653   21.8359  -33.1078 H   0  0  0  0  0  0  0  0  0  0  0  0
   -2.3889   20.5545  -34.7323 H   0  0  0  0  0  0  0  0  0  0  0  0
   -0.8150   19.8483  -34.1467 H   0  0  0  0  0  0  0  0  0  0  0  0
   -3.2689   18.6558  -35.1087 H   0  0  0  0  0  0  0  0  0  0  0  0
   -2.1964   17.4093  -34.3578 H   0  0  0  0  0  0  0  0  0  0  0  0
   -3.9888   16.3097  -33.5724 H   0  0  0  0  0  0  0  0  0  0  0  0
   -4.5062   17.7909  -32.6733 H   0  0  0  0  0  0  0  0  0  0  0  0
   -7.2814   16.7388  -35.0179 H   0  0  0  0  0  0  0  0  0  0  0  0
   -6.1000   15.6010  -34.2378 H   0  0  0  0  0  0  0  0  0  0  0  0
   -8.0806   16.4035  -32.8004 H   0  0  0  0  0  0  0  0  0  0  0  0
   -6.4072   16.5520  -32.1091 H   0  0  0  0  0  0  0  0  0  0  0  0
   -8.5871   18.0604  -30.9077 H   0  0  0  0  0  0  0  0  0  0  0  0
   -8.8905   20.4899  -30.4368 H   0  0  0  0  0  0  0  0  0  0  0  0
   -7.7935   22.1943  -31.8927 H   0  0  0  0  0  0  0  0  0  0  0  0
   -6.3884   21.4715  -33.8221 H   0  0  0  0  0  0  0  0  0  0  0  0
   -6.4910   19.0446  -35.5496 H   0  0  0  0  0  0  0  0  0  0  0  0
   -4.9777   19.5893  -34.6929 H   0  0  0  0  0  0  0  0  0  0  0  0
   -4.2616   20.3224  -32.9796 H   0  0  0  0  0  0  0  0  0  0  0  0
   -4.2490   18.8077  -32.0033 H   0  0  0  0  0  0  0  0  0  0  0  0
   -3.7986   21.2345  -30.9022 H   0  0  0  0  0  0  0  0  0  0  0  0
   -2.9765   19.7232  -30.3222 H   0  0  0  0  0  0  0  0  0  0  0  0
   -3.5348   22.8833  -32.0563 H   0  0  0  0  0  0  0  0  0  0  0  0
   -6.2617   25.7408  -28.5069 H   0  0  0  0  0  0  0  0  0  0  0  0
   -5.9534   26.6717  -30.0119 H   0  0  0  0  0  0  0  0  0  0  0  0
   -7.1550   25.3364  -30.0119 H   0  0  0  0  0  0  0  0  0  0  0  0
  1  2  1  0
  2  3  2  0
  3  4  1  0
  4  5  1  0
  5  6  1  0
  6  7  1  0
  7  8  1  0
  8  9  1  0
  9 10  1  0
 10 11  1  0
 11 12  1  0
 12 13  1  0
 13 14  1  0
 14 15  1  0
 15 16  2  0
 16 17  1  0
 17 18  2  0
 18 19  1  0
 19 20  2  0
 20 21  1  0
  9 22  1  0
 22 23  1  0
  3 24  1  0
 24 25  2  0
 25 26  1  0
 26 27  1  0
 26  2  1  0
 23  6  1  0
 21 12  1  0
 20 15  1  0
  1 28  1  0
  1 29  1  0
  1 30  1  0
  4 31  1  0
  4 32  1  0
  5 33  1  0
  6 34  1  0
  7 35  1  0
  7 36  1  0
  8 37  1  0
  8 38  1  0
 10 39  1  0
 10 40  1  0
 11 41  1  0
 11 42  1  0
 13 43  1  0
 13 44  1  0
 14 45  1  0
 14 46  1  0
 16 47  1  0
 17 48  1  0
 18 49  1  0
 19 50  1  0
 21 51  1  0
 21 52  1  0
 22 53  1  0
 22 54  1  0
 23 55  1  0
 23 56  1  0
 24 57  1  0
 27 58  1  0
 27 59  1  0
 27 60  1  0
M  END
>  <UniqueID>  (8) 
8

>  <SMILES>  (8) 
Cc1c(CNC2CCN(CCN3CCc4ccccc4C3)CC2)cnn1C

>  <Energy>  (8) 
106.13960488614961

>  <Genealogy>  (8) 
Cc1c(CNC2CCN(CCN3CCc4ccccc4C3)CC2)cnn1C (3D coordinates assigned)
Cc1c(CNC2CCN(CCN3CCc4ccccc4C3)CC2)cnn1C (nonaromatic ring conformer: 106.13960488614961 kcal/mol)

>  <smiles>  (8) 
Cc1c(CNC2CCN(CCN3CCc4ccccc4C3)CC2)cnn1C

>  <score_type>  (8) 
oracle

>  <origin>  (8) 
adg

>  <m_score__min__energy>  (8) 
-9.1400000000000006

>  <m_primary>  (8) 
energy

$$$$
8:0
     RDKit          3D

 60 62  0  0  0  0  0  0  0  0999 V2000
   -1.4630   18.4190  -33.9010 C   0  0  0  0  0  0  0  0  0  0  0  0
   -1.2240   19.7940  -34.5220 C   0  0  0  0  0  0  0  0  0  0  0  0
   -0.8170   20.7740  -33.4870 N   0  0  0  0  0  0  0  0  0  0  0  0
    0.6010   21.1420  -33.6630 C   0  0  0  0  0  0  0  0  0  0  0  0
   -1.0560   20.2260  -32.1320 C   0  0  0  0  0  0  0  0  0  0  0  0
   -2.4860   20.5140  -31.6320 C   0  0  0  0  0  0  0  0  0  0  0  0
   -3.3170   21.1260  -32.6700 N   0  0  0  0  0  0  0  0  0  0  0  0
   -4.6810   21.4850  -32.3850 C   0  0  0  0  0  0  0  0  0  0  0  0
   -4.9420   22.6580  -31.6540 C   0  0  0  0  0  0  0  0  0  0  0  0
   -3.8890   23.4860  -31.2100 C   0  0  0  0  0  0  0  0  0  0  0  0
   -4.1500   24.6340  -30.5400 N   0  0  0  0  0  0  0  0  0  0  0  0
   -5.4160   25.0260  -30.2690 C   0  0  0  0  0  0  0  0  0  0  0  0
   -6.4930   24.2390  -30.6650 C   0  0  0  0  0  0  0  0  0  0  0  0
   -6.2770   23.0240  -31.3630 C   0  0  0  0  0  0  0  0  0  0  0  0
   -7.3290   22.1430  -31.7370 C   0  0  0  0  0  0  0  0  0  0  0  0
   -8.6840   22.4330  -31.4510 C   0  0  0  0  0  0  0  0  0  0  0  0
   -9.6900   21.5260  -31.7490 C   0  0  0  0  0  0  0  0  0  0  0  0
   -9.3810   20.2920  -32.2930 C   0  0  0  0  0  0  0  0  0  0  0  0
   -8.0530   19.9540  -32.6020 C   0  0  0  0  0  0  0  0  0  0  0  0
   -7.7370   18.6510  -33.0300 O   0  0  0  0  0  0  0  0  0  0  0  0
   -7.4450   17.5240  -32.2010 C   0  0  0  0  0  0  0  0  0  0  0  0
   -6.0950   16.8940  -32.5730 C   0  0  0  0  0  0  0  0  0  0  0  0
   -6.0490   16.5260  -34.0050 N   0  0  0  0  0  0  0  0  0  0  0  0
   -4.6610   16.4520  -34.4920 C   0  0  0  0  0  0  0  0  0  0  0  0
   -6.7140   15.2310  -34.2170 C   0  0  0  0  0  0  0  0  0  0  0  0
   -7.0120   20.9200  -32.4070 C   0  0  0  0  0  0  0  0  0  0  0  0
   -5.7130   20.6980  -32.8370 N   0  0  0  0  0  0  0  0  0  0  0  0
   -5.4100   19.6850  -33.8680 C   0  0  0  0  0  0  0  0  0  0  0  0
   -1.4482   18.5043  -32.8044 H   0  0  0  0  0  0  0  0  0  0  0  0
   -2.4413   18.0351  -34.2257 H   0  0  0  0  0  0  0  0  0  0  0  0
   -0.6716   17.7274  -34.2257 H   0  0  0  0  0  0  0  0  0  0  0  0
   -0.4282   19.7154  -35.2774 H   0  0  0  0  0  0  0  0  0  0  0  0
   -2.1594   20.1391  -34.9867 H   0  0  0  0  0  0  0  0  0  0  0  0
    1.0731   21.2645  -32.6770 H   0  0  0  0  0  0  0  0  0  0  0  0
    1.1191   20.3486  -34.2216 H   0  0  0  0  0  0  0  0  0  0  0  0
    0.6679   22.0873  -34.2216 H   0  0  0  0  0  0  0  0  0  0  0  0
   -0.9022   19.1371  -32.1579 H   0  0  0  0  0  0  0  0  0  0  0  0
   -0.3519   20.7130  -31.4413 H   0  0  0  0  0  0  0  0  0  0  0  0
   -2.9498   19.5673  -31.3180 H   0  0  0  0  0  0  0  0  0  0  0  0
   -2.4163   21.2208  -30.7920 H   0  0  0  0  0  0  0  0  0  0  0  0
   -2.8820   21.5020  -33.5420 H   0  0  0  0  0  0  0  0  0  0  0  0
   -2.8468   23.1965  -31.4098 H   0  0  0  0  0  0  0  0  0  0  0  0
   -5.5947   25.9702  -29.7337 H   0  0  0  0  0  0  0  0  0  0  0  0
   -7.5191   24.5617  -30.4349 H   0  0  0  0  0  0  0  0  0  0  0  0
   -8.9440   23.3945  -30.9842 H   0  0  0  0  0  0  0  0  0  0  0  0
  -10.7397   21.7893  -31.5517 H   0  0  0  0  0  0  0  0  0  0  0  0
  -10.1851   19.5666  -32.4859 H   0  0  0  0  0  0  0  0  0  0  0  0
   -7.4112   17.8504  -31.1511 H   0  0  0  0  0  0  0  0  0  0  0  0
   -8.2327   16.7705  -32.3485 H   0  0  0  0  0  0  0  0  0  0  0  0
   -5.2926   17.6165  -32.3629 H   0  0  0  0  0  0  0  0  0  0  0  0
   -5.9625   15.9799  -31.9756 H   0  0  0  0  0  0  0  0  0  0  0  0
   -3.9730   16.4153  -33.6345 H   0  0  0  0  0  0  0  0  0  0  0  0
   -4.5345   15.5458  -35.1026 H   0  0  0  0  0  0  0  0  0  0  0  0
   -4.4388   17.3396  -35.1026 H   0  0  0  0  0  0  0  0  0  0  0  0
   -6.9480   14.7753  -33.2436 H   0  0  0  0  0  0  0  0  0  0  0  0
   -7.6446   15.3850  -34.7830 H   0  0  0  0  0  0  0  0  0  0  0  0
   -6.0467   14.5644  -34.7830 H   0  0  0  0  0  0  0  0  0  0  0  0
   -5.1273   18.7398  -33.3815 H   0  0  0  0  0  0  0  0  0  0  0  0
   -6.2990   19.5229  -34.4952 H   0  0  0  0  0  0  0  0  0  0  0  0
   -4.5780   20.0377  -34.4952 H   0  0  0  0  0  0  0  0  0  0  0  0
  1  2  1  0
  2  3  1  0
  3  4  1  0
  3  5  1  0
  5  6  1  0
  6  7  1  0
  7  8  1  0
  8  9  2  0
  9 10  1  0
 10 11  2  0
 11 12  1  0
 12 13  2  0
 13 14  1  0
 14 15  2  0
 15 16  1  0
 16 17  2  0
 17 18  1  0
 18 19  2  0
 19 20  1  0
 20 21  1  0
 21 22  1  0
 22 23  1  0
 23 24  1  0
 23 25  1  0
 19 26  1  0
 26 27  2  0
 27 28  1  0
 27  8  1  0
 14  9  1  0
 26 15  1  0
  1 29  1  0
  1 30  1  0
  1 31  1  0
  2 32  1  0
  2 33  1  0
  4 34  1  0
  4 35  1  0
  4 36  1  0
  5 37  1  0
  5 38  1  0
  6 39  1  0
  6 40  1  0
  7 41  1  0
 10 42  1  0
 12 43  1  0
 13 44  1  0
 16 45  1  0
 17 46  1  0
 18 47  1  0
 21 48  1  0
 21 49  1  0
 22 50  1  0
 22 51  1  0
 24 52  1  0
 24 53  1  0
 24 54  1  0
 25 55  1  0
 25 56  1  0
 25 57  1  0
 28 58  1  0
 28 59  1  0
 28 60  1  0
M  CHG  1  27   1
M  END
>  <UniqueID>  (9) 
9

>  <SMILES>  (9) 
CCN(C)CCNc1c2cnccc2c2cccc(OCCN(C)C)c2[n+]1C

>  <Energy>  (9) 
92.5714748111719

>  <Genealogy>  (9) 
CCN(C)CCNc1c2cnccc2c2cccc(OCCN(C)C)c2[n+]1C (3D coordinates assigned)
CCN(C)CCNc1c2cnccc2c2cccc(OCCN(C)C)c2[n+]1C (optimized conformer: 92.5714748111719 kcal/mol)

>  <smiles>  (9) 
CCN(C)CCNc1c2cnccc2c2cccc(OCCN(C)C)c2[n+]1C

>  <score_type>  (9) 
oracle

>  <origin>  (9) 
adg

>  <m_score__min__energy>  (9) 
-7.2699999999999996

>  <m_primary>  (9) 
energy

$$$$
9:0
     RDKit          3D

110116  0  0  0  0  0  0  0  0999 V2000
   -6.5940   24.2430  -30.0570 C   0  0  0  0  0  0  0  0  0  0  0  0
   -5.1730   23.9370  -29.8260 N   0  0  0  0  0  0  0  0  0  0  0  0
   -4.3190   24.9580  -30.4600 C   0  0  0  0  0  0  0  0  0  0  0  0
   -4.8190   22.5750  -30.2890 C   0  0  0  0  0  0  0  0  0  0  0  0
   -3.9090   22.6710  -31.5170 C   0  0  0  0  0  0  0  0  0  0  0  0
   -4.6430   22.3260  -32.7420 N   0  0  0  0  0  0  0  0  0  0  0  0
   -5.3100   21.0610  -32.8820 C   0  0  0  0  0  0  0  0  0  0  0  0
   -6.6780   20.9380  -32.5830 C   0  0  0  0  0  0  0  0  0  0  0  0
   -7.4580   22.0810  -32.2970 C   0  0  0  0  0  0  0  0  0  0  0  0
   -8.7730   21.9500  -31.8720 C   0  0  0  0  0  0  0  0  0  0  0  0
   -9.3350   20.6870  -31.7240 C   0  0  0  0  0  0  0  0  0  0  0  0
   -8.6020   19.5500  -32.0590 C   0  0  0  0  0  0  0  0  0  0  0  0
   -7.2790   19.6520  -32.5670 C   0  0  0  0  0  0  0  0  0  0  0  0
   -6.5630   18.5400  -32.9950 N   0  0  0  0  0  0  0  0  0  0  0  0
   -7.2400   17.2390  -33.1780 C   0  0  0  0  0  0  0  0  0  0  0  0
   -5.2080   18.6450  -33.2480 C   0  0  0  0  0  0  0  0  0  0  0  0
   -4.3980   17.4990  -33.5060 C   0  0  0  0  0  0  0  0  0  0  0  0
   -3.0170   17.6140  -33.7400 C   0  0  0  0  0  0  0  0  0  0  0  0
   -2.1860   16.5090  -34.0000 O   0  0  0  0  0  0  0  0  0  0  0  0
   -2.4030   15.1800  -33.5180 C   0  0  0  0  0  0  0  0  0  0  0  0
   -1.1170   14.3290  -33.6790 C   0  0  0  0  0  0  0  0  0  0  0  0
    0.1340   14.9290  -33.1070 N   0  0  2  0  0  0  0  0  0  0  0  0
    0.6900   15.9380  -34.0550 C   0  0  0  0  0  0  0  0  0  0  0  0
    1.1460   13.8530  -32.8690 C   0  0  0  0  0  0  0  0  0  0  0  0
    2.3370   14.3360  -32.0010 C   0  0  0  0  0  0  0  0  0  0  0  0
    1.9370   14.9570  -30.6900 N   0  0  1  0  0  0  0  0  0  0  0  0
    2.4160   14.1080  -29.5660 C   0  0  0  0  0  0  0  0  0  0  0  0
    2.4980   16.3450  -30.5500 C   0  0  0  0  0  0  0  0  0  0  0  0
    1.5310   17.3990  -30.0330 C   0  0  0  0  0  0  0  0  0  0  0  0
    1.3500   17.6040  -28.6520 C   0  0  0  0  0  0  0  0  0  0  0  0
    0.5810   18.6850  -28.1910 C   0  0  0  0  0  0  0  0  0  0  0  0
    0.0340   19.6050  -29.0990 C   0  0  0  0  0  0  0  0  0  0  0  0
   -0.5880   20.8480  -28.6120 C   0  0  0  0  0  0  0  0  0  0  0  0
   -1.2850   20.8270  -27.3970 C   0  0  0  0  0  0  0  0  0  0  0  0
   -1.9330   21.9710  -26.9440 C   0  0  0  0  0  0  0  0  0  0  0  0
   -1.8840   23.1670  -27.6850 C   0  0  0  0  0  0  0  0  0  0  0  0
   -2.5460   24.4500  -27.2080 C   0  0  0  0  0  0  0  0  0  0  0  0
   -1.7720   25.1290  -26.1540 N   0  0  0  0  0  0  0  0  0  0  0  0
   -0.9740   24.4020  -25.3210 C   0  0  0  0  0  0  0  0  0  0  0  0
   -0.3140   25.0130  -24.2540 C   0  0  0  0  0  0  0  0  0  0  0  0
   -0.4910   26.3780  -24.0270 C   0  0  0  0  0  0  0  0  0  0  0  0
    0.1730   27.0240  -22.9360 N   0  0  0  0  0  0  0  0  0  0  0  0
   -1.3090   27.1140  -24.8890 C   0  0  0  0  0  0  0  0  0  0  0  0
   -1.9510   26.4710  -25.9460 C   0  0  0  0  0  0  0  0  0  0  0  0
   -1.1440   23.1920  -28.8800 C   0  0  0  0  0  0  0  0  0  0  0  0
   -0.5210   22.0320  -29.3610 C   0  0  0  0  0  0  0  0  0  0  0  0
    0.1970   19.3950  -30.4720 C   0  0  0  0  0  0  0  0  0  0  0  0
    0.9360   18.2990  -30.9380 C   0  0  0  0  0  0  0  0  0  0  0  0
    0.4460   15.0340  -30.5710 C   0  0  0  0  0  0  0  0  0  0  0  0
   -0.2350   15.6290  -31.8240 C   0  0  0  0  0  0  0  0  0  0  0  0
   -2.4220   18.8740  -33.7120 C   0  0  0  0  0  0  0  0  0  0  0  0
   -3.1880   20.0110  -33.4730 C   0  0  0  0  0  0  0  0  0  0  0  0
   -4.5700   19.9160  -33.2100 C   0  0  0  0  0  0  0  0  0  0  0  0
   -7.1071   24.3535  -29.0903 H   0  0  0  0  0  0  0  0  0  0  0  0
   -6.6794   25.1801  -30.6267 H   0  0  0  0  0  0  0  0  0  0  0  0
   -7.0575   23.4241  -30.6267 H   0  0  0  0  0  0  0  0  0  0  0  0
   -3.8205   25.5540  -29.6814 H   0  0  0  0  0  0  0  0  0  0  0  0
   -3.5608   24.4646  -31.0858 H   0  0  0  0  0  0  0  0  0  0  0  0
   -4.9386   25.6171  -31.0858 H   0  0  0  0  0  0  0  0  0  0  0  0
   -4.2932   22.0398  -29.4845 H   0  0  0  0  0  0  0  0  0  0  0  0
   -5.7363   22.0295  -30.5554 H   0  0  0  0  0  0  0  0  0  0  0  0
   -3.5277   23.6992  -31.6032 H   0  0  0  0  0  0  0  0  0  0  0  0
   -3.0773   21.9617  -31.3942 H   0  0  0  0  0  0  0  0  0  0  0  0
   -4.7430   23.0370  -33.5020 H   0  0  0  0  0  0  0  0  0  0  0  0
   -7.0194   23.0832  -32.4121 H   0  0  0  0  0  0  0  0  0  0  0  0
   -9.3711   22.8466  -31.6520 H   0  0  0  0  0  0  0  0  0  0  0  0
  -10.3612   20.5848  -31.3414 H   0  0  0  0  0  0  0  0  0  0  0  0
   -9.0555   18.5565  -31.9279 H   0  0  0  0  0  0  0  0  0  0  0  0
   -7.4672   16.8023  -32.1943 H   0  0  0  0  0  0  0  0  0  0  0  0
   -8.1750   17.3878  -33.7380 H   0  0  0  0  0  0  0  0  0  0  0  0
   -6.5816   16.5586  -33.7380 H   0  0  0  0  0  0  0  0  0  0  0  0
   -4.8649   16.5032  -33.5221 H   0  0  0  0  0  0  0  0  0  0  0  0
   -2.6794   15.2211  -32.4541 H   0  0  0  0  0  0  0  0  0  0  0  0
   -3.2123   14.7169  -34.1016 H   0  0  0  0  0  0  0  0  0  0  0  0
   -1.2865   13.3624  -33.1820 H   0  0  0  0  0  0  0  0  0  0  0  0
   -0.9436   14.2481  -34.7622 H   0  0  0  0  0  0  0  0  0  0  0  0
    1.1447   16.7631  -33.4872 H   0  0  0  0  0  0  0  0  0  0  0  0
    1.4543   15.4639  -34.6884 H   0  0  0  0  0  0  0  0  0  0  0  0
   -0.1190   16.3309  -34.6884 H   0  0  0  0  0  0  0  0  0  0  0  0
    0.6538   13.0136  -32.3560 H   0  0  0  0  0  0  0  0  0  0  0  0
    1.5477   13.5511  -33.8475 H   0  0  0  0  0  0  0  0  0  0  0  0
    2.9822   13.4706  -31.7895 H   0  0  0  0  0  0  0  0  0  0  0  0
    2.8488   15.1205  -32.5776 H   0  0  0  0  0  0  0  0  0  0  0  0
    2.1491   14.5811  -28.6095 H   0  0  0  0  0  0  0  0  0  0  0  0
    1.9443   13.1162  -29.6287 H   0  0  0  0  0  0  0  0  0  0  0  0
    3.5088   13.9989  -29.6287 H   0  0  0  0  0  0  0  0  0  0  0  0
    3.3488   16.2969  -29.8544 H   0  0  0  0  0  0  0  0  0  0  0  0
    2.7705   16.6619  -31.5675 H   0  0  0  0  0  0  0  0  0  0  0  0
    1.8130   16.9144  -27.9308 H   0  0  0  0  0  0  0  0  0  0  0  0
    0.4064   18.8114  -27.1123 H   0  0  0  0  0  0  0  0  0  0  0  0
   -1.3198   19.9037  -26.8001 H   0  0  0  0  0  0  0  0  0  0  0  0
   -2.4901   21.9411  -25.9960 H   0  0  0  0  0  0  0  0  0  0  0  0
   -2.6493   25.1326  -28.0644 H   0  0  0  0  0  0  0  0  0  0  0  0
   -3.5243   24.1819  -26.7826 H   0  0  0  0  0  0  0  0  0  0  0  0
   -0.8492   23.3225  -25.4919 H   0  0  0  0  0  0  0  0  0  0  0  0
    0.3411   24.4225  -23.5966 H   0  0  0  0  0  0  0  0  0  0  0  0
    1.0410   26.6150  -22.5180 H   0  0  0  0  0  0  0  0  0  0  0  0
   -0.1240   27.9780  -22.6290 H   0  0  0  0  0  0  0  0  0  0  0  0
   -1.4453   28.1945  -24.7341 H   0  0  0  0  0  0  0  0  0  0  0  0
   -2.6059   27.0452  -26.6178 H   0  0  0  0  0  0  0  0  0  0  0  0
   -1.0528   24.1321  -29.4438 H   0  0  0  0  0  0  0  0  0  0  0  0
    0.0172   22.0502  -30.3202 H   0  0  0  0  0  0  0  0  0  0  0  0
   -0.2572   20.0937  -31.1900 H   0  0  0  0  0  0  0  0  0  0  0  0
    1.0522   18.1405  -32.0203 H   0  0  0  0  0  0  0  0  0  0  0  0
    0.0553   14.0184  -30.4098 H   0  0  0  0  0  0  0  0  0  0  0  0
    0.2196   15.7027  -29.7274 H   0  0  0  0  0  0  0  0  0  0  0  0
   -1.3249   15.5599  -31.6922 H   0  0  0  0  0  0  0  0  0  0  0  0
    0.1129   16.6686  -31.9146 H   0  0  0  0  0  0  0  0  0  0  0  0
   -1.3392   18.9704  -33.8800 H   0  0  0  0  0  0  0  0  0  0  0  0
   -2.7073   21.0003  -33.4895 H   0  0  0  0  0  0  0  0  0  0  0  0
  1  2  1  0
  2  3  1  0
  2  4  1  0
  4  5  1  0
  5  6  1  0
  6  7  1  0
  7  8  2  0
  8  9  1  0
  9 10  2  0
 10 11  1  0
 11 12  2  0
 12 13  1  0
 13 14  2  0
 14 15  1  0
 14 16  1  0
 16 17  2  0
 17 18  1  0
 18 19  1  0
 19 20  1  0
 20 21  1  0
 22 21  1  6
 22 23  1  0
 22 24  1  0
 24 25  1  0
 25 26  1  0
 26 27  1  1
 26 28  1  0
 28 29  1  0
 29 30  2  0
 30 31  1  0
 31 32  2  0
 32 33  1  0
 33 34  2  0
 34 35  1  0
 35 36  2  0
 36 37  1  0
 37 38  1  0
 38 39  2  0
 39 40  1  0
 40 41  2  0
 41 42  1  0
 41 43  1  0
 43 44  2  0
 36 45  1  0
 45 46  2  0
 32 47  1  0
 47 48  2  0
 26 49  1  0
 49 50  1  0
 18 51  2  0
 51 52  1  0
 52 53  2  0
 53  7  1  0
 13  8  1  0
 53 16  1  0
 50 22  1  0
 48 29  1  0
 46 33  1  0
 44 38  1  0
  1 54  1  0
  1 55  1  0
  1 56  1  0
  3 57  1  0
  3 58  1  0
  3 59  1  0
  4 60  1  0
  4 61  1  0
  5 62  1  0
  5 63  1  0
  6 64  1  0
  9 65  1  0
 10 66  1  0
 11 67  1  0
 12 68  1  0
 15 69  1  0
 15 70  1  0
 15 71  1  0
 17 72  1  0
 20 73  1  0
 20 74  1  0
 21 75  1  0
 21 76  1  0
 23 77  1  0
 23 78  1  0
 23 79  1  0
 24 80  1  0
 24 81  1  0
 25 82  1  0
 25 83  1  0
 27 84  1  0
 27 85  1  0
 27 86  1  0
 28 87  1  0
 28 88  1  0
 30 89  1  0
 31 90  1  0
 34 91  1  0
 35 92  1  0
 37 93  1  0
 37 94  1  0
 39 95  1  0
 40 96  1  0
 42 97  1  0
 42 98  1  0
 43 99  1  0
 44100  1  0
 45101  1  0
 46102  1  0
 47103  1  0
 48104  1  0
 49105  1  0
 49106  1  0
 50107  1  0
 50108  1  0
 51109  1  0
 52110  1  0
M  CHG  4  14   1  22   1  26   1  38   1
M  END
>  <UniqueID>  (10) 
10

>  <SMILES>  (10) 
CN(C)CCNc1c2ccccc2[n+](C)c2cc(OCC[N+]3(C)CC[N+](C)(Cc4ccc(-c5ccc(C[n+]6ccc(N)cc6)cc5)cc4)CC3)ccc12

>  <Energy>  (10) 
194.01766378926112

>  <Genealogy>  (10) 
CN(C)CCNc1c2ccccc2[n+](C)c2cc(OCC[N+]3(C)CC[N+](C)(Cc4ccc(-c5ccc(C[n+]6ccc(N)cc6)cc5)cc4)CC3)ccc12 (3D coordinates assigned)
CN(C)CCNc1c2ccccc2[n+](C)c2cc(OCC[N+]3(C)CC[N+](C)(Cc4ccc(-c5ccc(C[n+]6ccc(N)cc6)cc5)cc4)CC3)ccc12 (nonaromatic ring conformer: 194.01766378926112 kcal/mol)

>  <smiles>  (10) 
CN(C)CCNc1c2ccccc2[n+](C)c2cc(OCC[N+]3(C)CC[N+](C)(Cc4ccc(-c5ccc(C[n+]6ccc(N)cc6)cc5)cc4)CC3)ccc12

>  <score_type>  (10) 
oracle

>  <origin>  (10) 
adg

>  <m_score__min__energy>  (10) 
-10.42

>  <m_primary>  (10) 
energy

$$$$
10:0
     RDKit          3D

 70 72  0  0  0  0  0  0  0  0999 V2000
    0.6550   20.3820  -36.4830 C   0  0  0  0  0  0  0  0  0  0  0  0
    0.5210   21.8900  -36.3310 C   0  0  0  0  0  0  0  0  0  0  0  0
    0.1760   22.2300  -34.9470 N   0  0  0  0  0  0  0  0  0  0  0  0
    0.6730   21.1900  -34.0360 C   0  0  0  0  0  0  0  0  0  0  0  0
   -0.1130   21.2080  -32.7200 C   0  0  0  0  0  0  0  0  0  0  0  0
   -1.4860   21.5010  -32.9180 O   0  0  0  0  0  0  0  0  0  0  0  0
   -2.0870   20.5700  -33.8040 C   0  0  0  0  0  0  0  0  0  0  0  0
   -3.4280   20.0950  -33.2190 C   0  0  0  0  0  0  0  0  0  0  0  0
   -3.6240   20.5210  -31.8170 N   0  0  0  0  0  0  0  0  0  0  0  0
   -5.0160   20.8530  -31.5110 C   0  0  0  0  0  0  0  0  0  0  0  0
   -6.0370   19.8830  -31.7400 C   0  0  0  0  0  0  0  0  0  0  0  0
   -5.7540   18.5220  -32.0700 C   0  0  0  0  0  0  0  0  0  0  0  0
   -6.7660   17.6260  -32.4010 C   0  0  0  0  0  0  0  0  0  0  0  0
   -8.0850   18.0440  -32.4260 C   0  0  0  0  0  0  0  0  0  0  0  0
   -8.4070   19.3410  -32.0670 C   0  0  0  0  0  0  0  0  0  0  0  0
   -7.4100   20.2740  -31.6640 C   0  0  0  0  0  0  0  0  0  0  0  0
   -7.7600   21.5380  -31.2380 N   0  0  0  0  0  0  0  0  0  0  0  0
   -9.1780   21.8250  -30.8870 C   0  0  0  0  0  0  0  0  0  0  0  0
   -6.8040   22.5190  -31.0970 C   0  0  0  0  0  0  0  0  0  0  0  0
   -7.1900   23.8790  -30.9290 C   0  0  0  0  0  0  0  0  0  0  0  0
   -6.2640   24.8710  -30.6660 C   0  0  0  0  0  0  0  0  0  0  0  0
   -4.9240   24.5560  -30.5760 C   0  0  0  0  0  0  0  0  0  0  0  0
   -4.4750   23.2550  -30.8010 C   0  0  0  0  0  0  0  0  0  0  0  0
   -3.0670   23.0460  -30.6590 N   0  0  0  0  0  0  0  0  0  0  0  0
   -2.2410   23.7910  -29.7030 C   0  0  0  0  0  0  0  0  0  0  0  0
   -1.3210   22.8810  -28.8490 C   0  0  0  0  0  0  0  0  0  0  0  0
   -0.6940   21.7310  -29.6660 C   0  0  0  0  0  0  0  0  0  0  0  0
   -1.6490   20.6380  -29.9530 N   0  0  0  0  0  0  0  0  0  0  0  0
   -0.9020   19.3900  -30.1980 C   0  0  0  0  0  0  0  0  0  0  0  0
   -2.5900   20.4320  -28.8370 C   0  0  0  0  0  0  0  0  0  0  0  0
   -5.3980   22.2000  -31.1380 C   0  0  0  0  0  0  0  0  0  0  0  0
    0.6965   19.9154  -35.4877 H   0  0  0  0  0  0  0  0  0  0  0  0
   -0.2119   19.9907  -37.0356 H   0  0  0  0  0  0  0  0  0  0  0  0
    1.5773   20.1497  -37.0356 H   0  0  0  0  0  0  0  0  0  0  0  0
    1.4756   22.3683  -36.5957 H   0  0  0  0  0  0  0  0  0  0  0  0
   -0.2762   22.2489  -36.9985 H   0  0  0  0  0  0  0  0  0  0  0  0
   -0.8690   22.2540  -34.8680 H   0  0  0  0  0  0  0  0  0  0  0  0
    0.5575   20.2056  -34.5131 H   0  0  0  0  0  0  0  0  0  0  0  0
    1.7338   21.3845  -33.8193 H   0  0  0  0  0  0  0  0  0  0  0  0
   -0.0271   20.2205  -32.2430 H   0  0  0  0  0  0  0  0  0  0  0  0
    0.3120   21.9990  -32.0847 H   0  0  0  0  0  0  0  0  0  0  0  0
   -2.2619   21.0511  -34.7776 H   0  0  0  0  0  0  0  0  0  0  0  0
   -1.4187   19.7063  -33.9357 H   0  0  0  0  0  0  0  0  0  0  0  0
   -4.2441   20.5088  -33.8295 H   0  0  0  0  0  0  0  0  0  0  0  0
   -3.4249   18.9951  -33.2338 H   0  0  0  0  0  0  0  0  0  0  0  0
   -3.2030   19.8010  -31.2060 H   0  0  0  0  0  0  0  0  0  0  0  0
   -2.9890   21.3130  -31.5760 H   0  0  0  0  0  0  0  0  0  0  0  0
   -4.7106   18.1739  -32.0622 H   0  0  0  0  0  0  0  0  0  0  0  0
   -6.5168   16.5824  -32.6435 H   0  0  0  0  0  0  0  0  0  0  0  0
   -8.8776   17.3451  -32.7313 H   0  0  0  0  0  0  0  0  0  0  0  0
   -9.4597   19.6591  -32.0937 H   0  0  0  0  0  0  0  0  0  0  0  0
   -9.2876   21.8472  -29.7927 H   0  0  0  0  0  0  0  0  0  0  0  0
   -9.4689   22.8002  -31.3045 H   0  0  0  0  0  0  0  0  0  0  0  0
   -9.8253   21.0396  -31.3045 H   0  0  0  0  0  0  0  0  0  0  0  0
   -8.2536   24.1476  -31.0107 H   0  0  0  0  0  0  0  0  0  0  0  0
   -6.5954   25.9109  -30.5286 H   0  0  0  0  0  0  0  0  0  0  0  0
   -4.1985   25.3431  -30.3229 H   0  0  0  0  0  0  0  0  0  0  0  0
   -2.5610   22.7520  -31.5260 H   0  0  0  0  0  0  0  0  0  0  0  0
   -1.6109   24.4980  -30.2625 H   0  0  0  0  0  0  0  0  0  0  0  0
   -2.9253   24.3040  -29.0112 H   0  0  0  0  0  0  0  0  0  0  0  0
   -0.5115   23.4953  -28.4280 H   0  0  0  0  0  0  0  0  0  0  0  0
   -1.9410   22.4285  -28.0611 H   0  0  0  0  0  0  0  0  0  0  0  0
   -0.3294   22.1376  -30.6208 H   0  0  0  0  0  0  0  0  0  0  0  0
    0.1214   21.3054  -29.0627 H   0  0  0  0  0  0  0  0  0  0  0  0
   -0.6278   18.9319  -29.2362 H   0  0  0  0  0  0  0  0  0  0  0  0
   -1.5312   18.6924  -30.7702 H   0  0  0  0  0  0  0  0  0  0  0  0
    0.0101   19.6149  -30.7702 H   0  0  0  0  0  0  0  0  0  0  0  0
   -2.0571   20.5487  -27.8818 H   0  0  0  0  0  0  0  0  0  0  0  0
   -3.3996   21.1742  -28.8983 H   0  0  0  0  0  0  0  0  0  0  0  0
   -3.0154   19.4194  -28.8983 H   0  0  0  0  0  0  0  0  0  0  0  0
  1  2  1  0
  2  3  1  0
  3  4  1  0
  4  5  1  0
  5  6  1  0
  6  7  1  0
  7  8  1  0
  8  9  1  0
  9 10  1  0
 10 11  2  0
 11 12  1  0
 12 13  2  0
 13 14  1  0
 14 15  2  0
 15 16  1  0
 16 17  2  0
 17 18  1  0
 17 19  1  0
 19 20  2  0
 20 21  1  0
 21 22  2  0
 22 23  1  0
 23 24  1  0
 24 25  1  0
 25 26  1  0
 26 27  1  0
 27 28  1  0
 28 29  1  0
 28 30  1  0
 23 31  2  0
 31 10  1  0
 16 11  1  0
 31 19  1  0
  1 32  1  0
  1 33  1  0
  1 34  1  0
  2 35  1  0
  2 36  1  0
  3 37  1  0
  4 38  1  0
  4 39  1  0
  5 40  1  0
  5 41  1  0
  7 42  1  0
  7 43  1  0
  8 44  1  0
  8 45  1  0
  9 46  1  0
  9 47  1  0
 12 48  1  0
 13 49  1  0
 14 50  1  0
 15 51  1  0
 18 52  1  0
 18 53  1  0
 18 54  1  0
 20 55  1  0
 21 56  1  0
 22 57  1  0
 24 58  1  0
 25 59  1  0
 25 60  1  0
 26 61  1  0
 26 62  1  0
 27 63  1  0
 27 64  1  0
 29 65  1  0
 29 66  1  0
 29 67  1  0
 30 68  1  0
 30 69  1  0
 30 70  1  0
M  CHG  2   9   1  17   1
M  END
>  <UniqueID>  (11) 
11

>  <SMILES>  (11) 
CCNCCOCC[NH2+]c1c2ccccc2[n+](C)c2cccc(NCCCN(C)C)c12

>  <Energy>  (11) 
115.22729348126154

>  <Genealogy>  (11) 
CCNCCOCC[NH2+]c1c2ccccc2[n+](C)c2cccc(NCCCN(C)C)c12 (protonated)
CCNCCOCC[NH2+]c1c2ccccc2[n+](C)c2cccc(NCCCN(C)C)c12 (3D coordinates assigned)
CCNCCOCC[NH2+]c1c2ccccc2[n+](C)c2cccc(NCCCN(C)C)c12 (optimized conformer: 115.22729348126154 kcal/mol)

>  <smiles>  (11) 
CCNCCOCCNc1c2ccccc2[n+](C)c2cccc(NCCCN(C)C)c12

>  <score_type>  (11) 
oracle

>  <origin>  (11) 
adg

>  <m_score__min__energy>  (11) 
-8.9900000000000002

>  <m_primary>  (11) 
energy

$$$$
11:0
     RDKit          3D

 58 61  0  0  0  0  0  0  0  0999 V2000
   -1.9030   24.0180  -28.8160 C   0  0  0  0  0  0  0  0  0  0  0  0
   -1.7720   23.0000  -29.9440 C   0  0  0  0  0  0  0  0  0  0  0  0
   -1.4510   21.6650  -29.3920 N   0  0  0  0  0  0  0  0  0  0  0  0
   -2.6690   20.8930  -29.0410 C   0  0  0  0  0  0  0  0  0  0  0  0
   -2.6760   20.3520  -27.6050 C   0  0  0  0  0  0  0  0  0  0  0  0
   -0.4940   20.9330  -30.2580 C   0  0  0  0  0  0  0  0  0  0  0  0
   -1.1640   20.3300  -31.5020 C   0  0  0  0  0  0  0  0  0  0  0  0
   -0.8260   21.1130  -32.7760 C   0  0  0  0  0  0  0  0  0  0  0  0
   -1.9830   21.1380  -33.6690 N   0  0  0  0  0  0  0  0  0  0  0  0
   -3.1600   20.3730  -33.3610 C   0  0  0  0  0  0  0  0  0  0  0  0
   -4.2550   21.0120  -32.7730 C   0  0  0  0  0  0  0  0  0  0  0  0
   -5.4140   20.2660  -32.4430 C   0  0  0  0  0  0  0  0  0  0  0  0
   -5.3460   18.8850  -32.4570 N   0  0  0  0  0  0  0  0  0  0  0  0
   -6.2900   18.0860  -31.6490 C   0  0  0  0  0  0  0  0  0  0  0  0
   -4.3230   18.2480  -33.1340 C   0  0  0  0  0  0  0  0  0  0  0  0
   -4.3490   16.8510  -33.3730 C   0  0  0  0  0  0  0  0  0  0  0  0
   -3.3140   16.2240  -34.0690 C   0  0  0  0  0  0  0  0  0  0  0  0
   -2.2420   16.9670  -34.5490 C   0  0  0  0  0  0  0  0  0  0  0  0
   -2.1910   18.3420  -34.3320 C   0  0  0  0  0  0  0  0  0  0  0  0
   -3.2180   18.9940  -33.6180 C   0  0  0  0  0  0  0  0  0  0  0  0
   -6.7030   20.9890  -32.1330 C   0  0  0  0  0  0  0  0  0  0  0  0
   -7.9380   20.4530  -32.5540 C   0  0  0  0  0  0  0  0  0  0  0  0
   -9.1410   21.0920  -32.2420 C   0  0  0  0  0  0  0  0  0  0  0  0
   -9.1330   22.2980  -31.5420 C   0  0  0  0  0  0  0  0  0  0  0  0
   -7.9200   22.8890  -31.1930 C   0  0  0  0  0  0  0  0  0  0  0  0
   -6.7110   22.2550  -31.5090 C   0  0  0  0  0  0  0  0  0  0  0  0
   -5.2050   23.0990  -31.2810 S   0  0  0  0  0  0  0  0  0  0  0  0
   -4.6850   22.9070  -29.8850 O   0  0  0  0  0  0  0  0  0  0  0  0
   -5.3690   24.5620  -31.5860 O   0  0  0  0  0  0  0  0  0  0  0  0
   -4.1320   22.3930  -32.4240 N   0  0  0  0  0  0  0  0  0  0  0  0
   -1.8366   23.5020  -27.8468 H   0  0  0  0  0  0  0  0  0  0  0  0
   -1.0926   24.7578  -28.8938 H   0  0  0  0  0  0  0  0  0  0  0  0
   -2.8742   24.5285  -28.8938 H   0  0  0  0  0  0  0  0  0  0  0  0
   -2.7214   22.9460  -30.4969 H   0  0  0  0  0  0  0  0  0  0  0  0
   -0.9620   23.3139  -30.6189 H   0  0  0  0  0  0  0  0  0  0  0  0
   -3.5424   21.5497  -29.1669 H   0  0  0  0  0  0  0  0  0  0  0  0
   -2.6942   20.0195  -29.7091 H   0  0  0  0  0  0  0  0  0  0  0  0
   -2.6651   21.1931  -26.8962 H   0  0  0  0  0  0  0  0  0  0  0  0
   -3.5820   19.7491  -27.4447 H   0  0  0  0  0  0  0  0  0  0  0  0
   -1.7859   19.7259  -27.4447 H   0  0  0  0  0  0  0  0  0  0  0  0
    0.2909   21.6312  -30.5843 H   0  0  0  0  0  0  0  0  0  0  0  0
   -0.0790   20.1026  -29.6679 H   0  0  0  0  0  0  0  0  0  0  0  0
   -0.8202   19.2920  -31.6220 H   0  0  0  0  0  0  0  0  0  0  0  0
   -2.2533   20.3754  -31.3556 H   0  0  0  0  0  0  0  0  0  0  0  0
   -0.5504   22.1436  -32.5079 H   0  0  0  0  0  0  0  0  0  0  0  0
    0.0152   20.6233  -33.2884 H   0  0  0  0  0  0  0  0  0  0  0  0
   -2.0920   21.9780  -34.2820 H   0  0  0  0  0  0  0  0  0  0  0  0
   -6.0913   18.2542  -30.5802 H   0  0  0  0  0  0  0  0  0  0  0  0
   -7.3210   18.3900  -31.8826 H   0  0  0  0  0  0  0  0  0  0  0  0
   -6.1605   17.0189  -31.8826 H   0  0  0  0  0  0  0  0  0  0  0  0
   -5.1959   16.2531  -33.0052 H   0  0  0  0  0  0  0  0  0  0  0  0
   -3.3470   15.1376  -34.2382 H   0  0  0  0  0  0  0  0  0  0  0  0
   -1.4321   16.4682  -35.1014 H   0  0  0  0  0  0  0  0  0  0  0  0
   -1.3426   18.9243  -34.7208 H   0  0  0  0  0  0  0  0  0  0  0  0
   -7.9544   19.5195  -33.1357 H   0  0  0  0  0  0  0  0  0  0  0  0
  -10.0967   20.6425  -32.5494 H   0  0  0  0  0  0  0  0  0  0  0  0
  -10.0816   22.7817  -31.2660 H   0  0  0  0  0  0  0  0  0  0  0  0
   -7.9117   23.8557  -30.6681 H   0  0  0  0  0  0  0  0  0  0  0  0
  1  2  1  0
  2  3  1  0
  3  4  1  0
  4  5  1  0
  3  6  1  0
  6  7  1  0
  7  8  1  0
  8  9  1  0
  9 10  1  0
 10 11  2  0
 11 12  1  0
 12 13  2  0
 13 14  1  0
 13 15  1  0
 15 16  2  0
 16 17  1  0
 17 18  2  0
 18 19  1  0
 19 20  2  0
 12 21  1  0
 21 22  2  0
 22 23  1  0
 23 24  2  0
 24 25  1  0
 25 26  2  0
 26 27  1  0
 27 28  2  0
 27 29  2  0
 27 30  1  0
 20 10  1  0
 26 21  1  0
 30 11  1  0
 20 15  1  0
  1 31  1  0
  1 32  1  0
  1 33  1  0
  2 34  1  0
  2 35  1  0
  4 36  1  0
  4 37  1  0
  5 38  1  0
  5 39  1  0
  5 40  1  0
  6 41  1  0
  6 42  1  0
  7 43  1  0
  7 44  1  0
  8 45  1  0
  8 46  1  0
  9 47  1  0
 14 48  1  0
 14 49  1  0
 14 50  1  0
 16 51  1  0
 17 52  1  0
 18 53  1  0
 19 54  1  0
 22 55  1  0
 23 56  1  0
 24 57  1  0
 25 58  1  0
M  CHG  2  13   1  30  -1
M  END
>  <UniqueID>  (12) 
12

>  <SMILES>  (12) 
CCN(CC)CCCNc1c2c([n+](C)c3ccccc13)-c1ccccc1S(=O)(=O)[N-]2

>  <Energy>  (12) 
94.44927163427337

>  <Genealogy>  (12) 
CCN(CC)CCCNc1c2c([n+](C)c3ccccc13)-c1ccccc1S(=O)(=O)[N-]2 (protonated)
CCN(CC)CCCNc1c2c([n+](C)c3ccccc13)-c1ccccc1S(=O)(=O)[N-]2 (3D coordinates assigned)
CCN(CC)CCCNc1c2c([n+](C)c3ccccc13)-c1ccccc1S(=O)(=O)[N-]2 (nonaromatic ring conformer: 94.44927163427337 kcal/mol)

>  <smiles>  (12) 
CCN(CC)CCCNc1c2c([n+](C)c3ccccc13)-c1ccccc1S(=O)(=O)N2

>  <score_type>  (12) 
oracle

>  <origin>  (12) 
adg

>  <m_score__min__energy>  (12) 
-9.5500000000000007

>  <m_primary>  (12) 
energy

$$$$
12:0
     RDKit          3D

 48 50  0  0  0  0  0  0  0  0999 V2000
   -6.9230   25.6440  -29.3370 C   0  0  0  0  0  0  0  0  0  0  0  0
   -5.8560   24.9130  -29.6690 C   0  0  0  0  0  0  0  0  0  0  0  0
   -4.9660   25.2960  -30.8170 C   0  0  0  0  0  0  0  0  0  0  0  0
   -3.7650   24.4490  -30.8440 N   0  0  0  0  0  0  0  0  0  0  0  0
   -4.0780   23.0300  -31.0930 C   0  0  0  0  0  0  0  0  0  0  0  0
   -2.9060   22.2830  -31.7620 C   0  0  0  0  0  0  0  0  0  0  0  0
   -3.3870   21.1960  -32.7470 C   0  0  0  0  0  0  0  0  0  0  0  0
   -4.6340   21.5390  -33.4660 N   0  0  0  0  0  0  0  0  0  0  0  0
   -5.7680   20.6930  -33.1060 C   0  0  0  0  0  0  0  0  0  0  0  0
   -6.9470   21.2760  -32.5570 C   0  0  0  0  0  0  0  0  0  0  0  0
   -7.0540   22.6720  -32.3280 C   0  0  0  0  0  0  0  0  0  0  0  0
   -8.2410   23.2410  -31.8760 C   0  0  0  0  0  0  0  0  0  0  0  0
   -9.3500   22.4440  -31.6440 C   0  0  0  0  0  0  0  0  0  0  0  0
   -9.2650   21.0670  -31.8160 C   0  0  0  0  0  0  0  0  0  0  0  0
   -8.0540   20.4480  -32.2220 C   0  0  0  0  0  0  0  0  0  0  0  0
   -7.9450   19.0760  -32.2960 N   0  0  0  0  0  0  0  0  0  0  0  0
   -8.9560   18.2210  -31.6290 C   0  0  0  0  0  0  0  0  0  0  0  0
   -6.8770   18.4970  -32.9490 C   0  0  0  0  0  0  0  0  0  0  0  0
   -6.8840   17.1150  -33.2710 C   0  0  0  0  0  0  0  0  0  0  0  0
   -5.7880   16.5040  -33.8680 C   0  0  0  0  0  0  0  0  0  0  0  0
   -4.6630   17.2500  -34.1740 C   0  0  0  0  0  0  0  0  0  0  0  0
   -4.6370   18.6180  -33.9160 C   0  0  0  0  0  0  0  0  0  0  0  0
   -5.7470   19.2820  -33.3270 C   0  0  0  0  0  0  0  0  0  0  0  0
   -7.5569   25.3393  -28.4913 H   0  0  0  0  0  0  0  0  0  0  0  0
   -7.1680   26.5509  -29.9092 H   0  0  0  0  0  0  0  0  0  0  0  0
   -5.6231   24.0085  -29.0879 H   0  0  0  0  0  0  0  0  0  0  0  0
   -5.5181   25.1709  -31.7601 H   0  0  0  0  0  0  0  0  0  0  0  0
   -4.6582   26.3448  -30.6932 H   0  0  0  0  0  0  0  0  0  0  0  0
   -3.1140   24.8060  -31.5820 H   0  0  0  0  0  0  0  0  0  0  0  0
   -4.3059   22.5439  -30.1329 H   0  0  0  0  0  0  0  0  0  0  0  0
   -4.9386   22.9892  -31.7770 H   0  0  0  0  0  0  0  0  0  0  0  0
   -2.2909   23.0107  -32.3117 H   0  0  0  0  0  0  0  0  0  0  0  0
   -2.3288   21.7853  -30.9688 H   0  0  0  0  0  0  0  0  0  0  0  0
   -2.5942   21.0294  -33.4912 H   0  0  0  0  0  0  0  0  0  0  0  0
   -3.6037   20.2994  -32.1477 H   0  0  0  0  0  0  0  0  0  0  0  0
   -4.8230   22.5560  -33.3720 H   0  0  0  0  0  0  0  0  0  0  0  0
   -4.4640   21.4520  -34.4930 H   0  0  0  0  0  0  0  0  0  0  0  0
   -6.1820   23.3171  -32.5112 H   0  0  0  0  0  0  0  0  0  0  0  0
   -8.2986   24.3257  -31.7026 H   0  0  0  0  0  0  0  0  0  0  0  0
  -10.2981   22.9007  -31.3236 H   0  0  0  0  0  0  0  0  0  0  0  0
  -10.1538   20.4450  -31.6338 H   0  0  0  0  0  0  0  0  0  0  0  0
   -8.8498   18.3108  -30.5378 H   0  0  0  0  0  0  0  0  0  0  0  0
   -9.9641   18.5447  -31.9271 H   0  0  0  0  0  0  0  0  0  0  0  0
   -8.8042   17.1731  -31.9271 H   0  0  0  0  0  0  0  0  0  0  0  0
   -7.7767   16.5141  -33.0430 H   0  0  0  0  0  0  0  0  0  0  0  0
   -5.8145   15.4285  -34.0972 H   0  0  0  0  0  0  0  0  0  0  0  0
   -3.7862   16.7603  -34.6227 H   0  0  0  0  0  0  0  0  0  0  0  0
   -3.7381   19.1973  -34.1736 H   0  0  0  0  0  0  0  0  0  0  0  0
  1  2  2  0
  2  3  1  0
  3  4  1  0
  4  5  1  0
  5  6  1  0
  6  7  1  0
  7  8  1  0
  8  9  1  0
  9 10  2  0
 10 11  1  0
 11 12  2  0
 12 13  1  0
 13 14  2  0
 14 15  1  0
 15 16  2  0
 16 17  1  0
 16 18  1  0
 18 19  2  0
 19 20  1  0
 20 21  2  0
 21 22  1  0
 22 23  2  0
 23  9  1  0
 15 10  1  0
 23 18  1  0
  1 24  1  0
  1 25  1  0
  2 26  1  0
  3 27  1  0
  3 28  1  0
  4 29  1  0
  5 30  1  0
  5 31  1  0
  6 32  1  0
  6 33  1  0
  7 34  1  0
  7 35  1  0
  8 36  1  0
  8 37  1  0
 11 38  1  0
 12 39  1  0
 13 40  1  0
 14 41  1  0
 17 42  1  0
 17 43  1  0
 17 44  1  0
 19 45  1  0
 20 46  1  0
 21 47  1  0
 22 48  1  0
M  CHG  2   8   1  16   1
M  END
>  <UniqueID>  (13) 
13

>  <SMILES>  (13) 
C=CCNCCC[NH2+]c1c2ccccc2[n+](C)c2ccccc12

>  <Energy>  (13) 
74.99522145870067

>  <Genealogy>  (13) 
C=CCNCCC[NH2+]c1c2ccccc2[n+](C)c2ccccc12 (protonated)
C=CCNCCC[NH2+]c1c2ccccc2[n+](C)c2ccccc12 (3D coordinates assigned)
C=CCNCCC[NH2+]c1c2ccccc2[n+](C)c2ccccc12 (optimized conformer: 74.99522145870067 kcal/mol)

>  <smiles>  (13) 
C=CCNCCCNc1c2ccccc2[n+](C)c2ccccc12

>  <score_type>  (13) 
oracle

>  <origin>  (13) 
adg

>  <m_score__min__energy>  (13) 
-8.5700000000000003

>  <m_primary>  (13) 
energy

$$$$
13:0
     RDKit          3D

 57 59  0  0  0  0  0  0  0  0999 V2000
   -2.9920   24.9120  -26.6450 C   0  0  0  0  0  0  0  0  0  0  0  0
   -1.9790   25.3510  -27.7020 C   0  0  0  0  0  0  0  0  0  0  0  0
   -2.1970   24.6680  -29.0000 N   0  0  0  0  0  0  0  0  0  0  0  0
   -1.0660   23.7750  -29.3400 C   0  0  0  0  0  0  0  0  0  0  0  0
   -1.1820   22.4590  -28.5760 C   0  0  0  0  0  0  0  0  0  0  0  0
   -3.5080   23.9770  -29.1120 C   0  0  0  0  0  0  0  0  0  0  0  0
   -4.4430   24.5640  -30.1820 C   0  0  0  0  0  0  0  0  0  0  0  0
   -4.3980   23.7400  -31.3280 O   0  0  0  0  0  0  0  0  0  0  0  0
   -3.6230   22.5810  -31.0820 C   0  0  0  0  0  0  0  0  0  0  0  0
   -3.4410   21.7870  -32.3830 C   0  0  0  0  0  0  0  0  0  0  0  0
   -4.5840   21.9410  -33.3040 N   0  0  0  0  0  0  0  0  0  0  0  0
   -5.6720   21.0200  -32.9870 C   0  0  0  0  0  0  0  0  0  0  0  0
   -6.9360   21.4940  -32.5290 C   0  0  0  0  0  0  0  0  0  0  0  0
   -7.2030   22.8740  -32.3290 C   0  0  0  0  0  0  0  0  0  0  0  0
   -8.4690   23.3220  -31.9630 C   0  0  0  0  0  0  0  0  0  0  0  0
   -9.5040   22.4170  -31.7920 C   0  0  0  0  0  0  0  0  0  0  0  0
   -9.2690   21.0550  -31.9400 C   0  0  0  0  0  0  0  0  0  0  0  0
   -7.9790   20.5590  -32.2600 C   0  0  0  0  0  0  0  0  0  0  0  0
   -7.7350   19.2030  -32.3240 N   0  0  0  0  0  0  0  0  0  0  0  0
   -8.7020   18.2520  -31.7260 C   0  0  0  0  0  0  0  0  0  0  0  0
   -6.5750   18.7320  -32.9020 C   0  0  0  0  0  0  0  0  0  0  0  0
   -6.4270   17.3600  -33.2340 C   0  0  0  0  0  0  0  0  0  0  0  0
   -5.2310   16.8640  -33.7460 C   0  0  0  0  0  0  0  0  0  0  0  0
   -5.0640   15.0080  -34.1680 Br  0  0  0  0  0  0  0  0  0  0  0  0
   -4.1580   17.7190  -33.9480 C   0  0  0  0  0  0  0  0  0  0  0  0
   -4.2870   19.0800  -33.6810 C   0  0  0  0  0  0  0  0  0  0  0  0
   -5.5030   19.6210  -33.1900 C   0  0  0  0  0  0  0  0  0  0  0  0
   -2.5769   25.0919  -25.6423 H   0  0  0  0  0  0  0  0  0  0  0  0
   -3.9212   25.4882  -26.7660 H   0  0  0  0  0  0  0  0  0  0  0  0
   -3.2069   23.8400  -26.7660 H   0  0  0  0  0  0  0  0  0  0  0  0
   -2.0711   26.4368  -27.8525 H   0  0  0  0  0  0  0  0  0  0  0  0
   -0.9750   25.0822  -27.3418 H   0  0  0  0  0  0  0  0  0  0  0  0
   -1.0780   23.5695  -30.4206 H   0  0  0  0  0  0  0  0  0  0  0  0
   -0.1236   24.2690  -29.0608 H   0  0  0  0  0  0  0  0  0  0  0  0
   -1.1643   22.6600  -27.4947 H   0  0  0  0  0  0  0  0  0  0  0  0
   -2.1273   21.9631  -28.8413 H   0  0  0  0  0  0  0  0  0  0  0  0
   -0.3380   21.8054  -28.8413 H   0  0  0  0  0  0  0  0  0  0  0  0
   -3.3211   22.9216  -29.3592 H   0  0  0  0  0  0  0  0  0  0  0  0
   -4.0158   24.1060  -28.1448 H   0  0  0  0  0  0  0  0  0  0  0  0
   -5.4715   24.6014  -29.7938 H   0  0  0  0  0  0  0  0  0  0  0  0
   -4.1202   25.5830  -30.4417 H   0  0  0  0  0  0  0  0  0  0  0  0
   -2.6370   22.8772  -30.6948 H   0  0  0  0  0  0  0  0  0  0  0  0
   -4.1393   21.9508  -30.3429 H   0  0  0  0  0  0  0  0  0  0  0  0
   -2.5306   22.1417  -32.8883 H   0  0  0  0  0  0  0  0  0  0  0  0
   -3.3673   20.7222  -32.1171 H   0  0  0  0  0  0  0  0  0  0  0  0
   -4.8800   22.9370  -33.3480 H   0  0  0  0  0  0  0  0  0  0  0  0
   -4.2610   21.7770  -34.2820 H   0  0  0  0  0  0  0  0  0  0  0  0
   -6.3922   23.6046  -32.4662 H   0  0  0  0  0  0  0  0  0  0  0  0
   -8.6480   24.3964  -31.8093 H   0  0  0  0  0  0  0  0  0  0  0  0
  -10.5123   22.7765  -31.5390 H   0  0  0  0  0  0  0  0  0  0  0  0
  -10.1004   20.3472  -31.8062 H   0  0  0  0  0  0  0  0  0  0  0  0
   -8.6429   18.3101  -30.6291 H   0  0  0  0  0  0  0  0  0  0  0  0
   -9.7201   18.5104  -32.0525 H   0  0  0  0  0  0  0  0  0  0  0  0
   -8.4606   17.2297  -32.0525 H   0  0  0  0  0  0  0  0  0  0  0  0
   -7.2743   16.6747  -33.0838 H   0  0  0  0  0  0  0  0  0  0  0  0
   -3.2023   17.3213  -34.3201 H   0  0  0  0  0  0  0  0  0  0  0  0
   -3.4301   19.7477  -33.8541 H   0  0  0  0  0  0  0  0  0  0  0  0
  1  2  1  0
  2  3  1  0
  3  4  1  0
  4  5  1  0
  3  6  1  0
  6  7  1  0
  7  8  1  0
  8  9  1  0
  9 10  1  0
 10 11  1  0
 11 12  1  0
 12 13  2  0
 13 14  1  0
 14 15  2  0
 15 16  1  0
 16 17  2  0
 17 18  1  0
 18 19  2  0
 19 20  1  0
 19 21  1  0
 21 22  2  0
 22 23  1  0
 23 24  1  0
 23 25  2  0
 25 26  1  0
 26 27  2  0
 27 12  1  0
 18 13  1  0
 27 21  1  0
  1 28  1  0
  1 29  1  0
  1 30  1  0
  2 31  1  0
  2 32  1  0
  4 33  1  0
  4 34  1  0
  5 35  1  0
  5 36  1  0
  5 37  1  0
  6 38  1  0
  6 39  1  0
  7 40  1  0
  7 41  1  0
  9 42  1  0
  9 43  1  0
 10 44  1  0
 10 45  1  0
 11 46  1  0
 11 47  1  0
 14 48  1  0
 15 49  1  0
 16 50  1  0
 17 51  1  0
 20 52  1  0
 20 53  1  0
 20 54  1  0
 22 55  1  0
 25 56  1  0
 26 57  1  0
M  CHG  2  11   1  19   1
M  END
>  <UniqueID>  (14) 
14

>  <SMILES>  (14) 
CCN(CC)CCOCC[NH2+]c1c2ccccc2[n+](C)c2cc(Br)ccc12

>  <Energy>  (14) 
89.18078624594095

>  <Genealogy>  (14) 
CCN(CC)CCOCC[NH2+]c1c2ccccc2[n+](C)c2cc(Br)ccc12 (protonated)
CCN(CC)CCOCC[NH2+]c1c2ccccc2[n+](C)c2cc(Br)ccc12 (3D coordinates assigned)
CCN(CC)CCOCC[NH2+]c1c2ccccc2[n+](C)c2cc(Br)ccc12 (optimized conformer: 89.18078624594095 kcal/mol)

>  <smiles>  (14) 
CCN(CC)CCOCCNc1c2ccccc2[n+](C)c2cc(Br)ccc12

>  <score_type>  (14) 
oracle

>  <origin>  (14) 
adg

>  <m_score__min__energy>  (14) 
-8.2200000000000006

>  <m_primary>  (14) 
energy

$$$$
14:0
     RDKit          3D

 56 60  0  0  0  0  0  0  0  0999 V2000
   -6.2790   24.6310  -29.9130 C   0  0  0  0  0  0  0  0  0  0  0  0
   -5.0220   25.3170  -30.4460 C   0  0  0  0  0  0  0  0  0  0  0  0
   -3.8740   24.3850  -30.4840 N   0  0  0  0  0  0  0  0  0  0  0  0
   -3.0420   24.5030  -29.2730 C   0  0  0  0  0  0  0  0  0  0  0  0
   -4.2390   22.9790  -30.7830 C   0  0  0  0  0  0  0  0  0  0  0  0
   -3.5970   22.3940  -32.0720 C   0  0  0  0  0  0  0  0  0  0  0  0
   -4.5890   22.2480  -33.1500 N   0  0  0  0  0  0  0  0  0  0  0  0
   -5.5180   21.1770  -32.8400 C   0  0  0  0  0  0  0  0  0  0  0  0
   -5.0890   19.8450  -32.9020 C   0  0  0  0  0  0  0  0  0  0  0  0
   -5.9430   18.8090  -32.5700 C   0  0  0  0  0  0  0  0  0  0  0  0
   -7.2130   19.0120  -32.1090 N   0  0  0  0  0  0  0  0  0  0  0  0
   -8.0020   17.8690  -31.6130 C   0  0  0  0  0  0  0  0  0  0  0  0
   -7.7120   20.3030  -32.0940 C   0  0  0  0  0  0  0  0  0  0  0  0
   -9.0610   20.5630  -31.7530 C   0  0  0  0  0  0  0  0  0  0  0  0
   -9.5520   21.8660  -31.7000 C   0  0  0  0  0  0  0  0  0  0  0  0
   -8.7200   22.9400  -31.9900 C   0  0  0  0  0  0  0  0  0  0  0  0
   -7.3940   22.7220  -32.3570 C   0  0  0  0  0  0  0  0  0  0  0  0
   -6.8640   21.4140  -32.4330 C   0  0  0  0  0  0  0  0  0  0  0  0
   -5.2250   17.5610  -32.7820 C   0  0  0  0  0  0  0  0  0  0  0  0
   -5.6760   16.3970  -33.3030 N   0  0  0  0  0  0  0  0  0  0  0  0
   -4.6410   15.9300  -34.0340 C   0  0  0  0  0  0  0  0  0  0  0  0
   -4.6500   14.8240  -34.8840 C   0  0  0  0  0  0  0  0  0  0  0  0
   -3.5320   14.6200  -35.7150 C   0  0  0  0  0  0  0  0  0  0  0  0
   -3.4870   13.1150  -36.8900 Br  0  0  0  0  0  0  0  0  0  0  0  0
   -2.4580   15.5400  -35.7100 C   0  0  0  0  0  0  0  0  0  0  0  0
   -2.4890   16.6670  -34.8710 C   0  0  0  0  0  0  0  0  0  0  0  0
   -3.5810   16.8130  -34.0200 C   0  0  0  0  0  0  0  0  0  0  0  0
   -3.9570   17.8540  -33.2010 C   0  0  0  0  0  0  0  0  0  0  0  0
   -3.7350   19.3260  -33.3350 C   0  0  0  0  0  0  0  0  0  0  0  0
   -6.2631   24.6397  -28.8131 H   0  0  0  0  0  0  0  0  0  0  0  0
   -7.1697   25.1681  -30.2711 H   0  0  0  0  0  0  0  0  0  0  0  0
   -6.3092   23.5913  -30.2711 H   0  0  0  0  0  0  0  0  0  0  0  0
   -5.2189   25.6841  -31.4641 H   0  0  0  0  0  0  0  0  0  0  0  0
   -4.7700   26.1497  -29.7729 H   0  0  0  0  0  0  0  0  0  0  0  0
   -3.6786   24.4127  -28.3805 H   0  0  0  0  0  0  0  0  0  0  0  0
   -2.2871   23.7029  -29.2674 H   0  0  0  0  0  0  0  0  0  0  0  0
   -2.5393   25.4814  -29.2674 H   0  0  0  0  0  0  0  0  0  0  0  0
   -3.9246   22.3565  -29.9323 H   0  0  0  0  0  0  0  0  0  0  0  0
   -5.3261   22.9724  -30.9506 H   0  0  0  0  0  0  0  0  0  0  0  0
   -2.7973   23.0689  -32.4111 H   0  0  0  0  0  0  0  0  0  0  0  0
   -3.1946   21.3979  -31.8358 H   0  0  0  0  0  0  0  0  0  0  0  0
   -4.0920   22.0380  -34.0460 H   0  0  0  0  0  0  0  0  0  0  0  0
   -5.0940   23.1470  -33.3150 H   0  0  0  0  0  0  0  0  0  0  0  0
   -8.0000   17.8719  -30.5130 H   0  0  0  0  0  0  0  0  0  0  0  0
   -9.0364   17.9515  -31.9780 H   0  0  0  0  0  0  0  0  0  0  0  0
   -7.5581   16.9311  -31.9780 H   0  0  0  0  0  0  0  0  0  0  0  0
   -9.7330   19.7223  -31.5260 H   0  0  0  0  0  0  0  0  0  0  0  0
  -10.6026   22.0449  -31.4274 H   0  0  0  0  0  0  0  0  0  0  0  0
   -9.1099   23.9668  -31.9296 H   0  0  0  0  0  0  0  0  0  0  0  0
   -6.7490   23.5817  -32.5914 H   0  0  0  0  0  0  0  0  0  0  0  0
   -6.6570   16.0420  -33.3280 H   0  0  0  0  0  0  0  0  0  0  0  0
   -5.5049   14.1321  -34.9044 H   0  0  0  0  0  0  0  0  0  0  0  0
   -1.5922   15.3723  -36.3675 H   0  0  0  0  0  0  0  0  0  0  0  0
   -1.6773   17.4092  -34.8862 H   0  0  0  0  0  0  0  0  0  0  0  0
   -2.9326   19.6786  -32.6703 H   0  0  0  0  0  0  0  0  0  0  0  0
   -3.4148   19.6539  -34.3350 H   0  0  0  0  0  0  0  0  0  0  0  0
  1  2  1  0
  2  3  1  0
  3  4  1  0
  3  5  1  0
  5  6  1  0
  6  7  1  0
  7  8  1  0
  8  9  2  0
  9 10  1  0
 10 11  2  0
 11 12  1  0
 11 13  1  0
 13 14  2  0
 14 15  1  0
 15 16  2  0
 16 17  1  0
 17 18  2  0
 10 19  1  0
 19 20  1  0
 20 21  1  0
 21 22  2  0
 22 23  1  0
 23 24  1  0
 23 25  2  0
 25 26  1  0
 26 27  2  0
 27 28  1  0
 28 29  1  0
 18  8  1  0
 28 19  2  0
 29  9  1  0
 18 13  1  0
 27 21  1  0
  1 30  1  0
  1 31  1  0
  1 32  1  0
  2 33  1  0
  2 34  1  0
  4 35  1  0
  4 36  1  0
  4 37  1  0
  5 38  1  0
  5 39  1  0
  6 40  1  0
  6 41  1  0
  7 42  1  0
  7 43  1  0
 12 44  1  0
 12 45  1  0
 12 46  1  0
 14 47  1  0
 15 48  1  0
 16 49  1  0
 17 50  1  0
 20 51  1  0
 22 52  1  0
 25 53  1  0
 26 54  1  0
 29 55  1  0
 29 56  1  0
M  CHG  2   7   1  11   1
M  END
>  <UniqueID>  (15) 
15

>  <SMILES>  (15) 
CCN(C)CC[NH2+]c1c2c([n+](C)c3ccccc13)-c1[nH]c3cc(Br)ccc3c1C2

>  <Energy>  (15) 
151.28260040320973

>  <Genealogy>  (15) 
CCN(C)CC[NH2+]c1c2c([n+](C)c3ccccc13)-c1[nH]c3cc(Br)ccc3c1C2 (protonated)
CCN(C)CC[NH2+]c1c2c([n+](C)c3ccccc13)-c1[nH]c3cc(Br)ccc3c1C2 (3D coordinates assigned)
CCN(C)CC[NH2+]c1c2c([n+](C)c3ccccc13)-c1[nH]c3cc(Br)ccc3c1C2 (nonaromatic ring conformer: 151.28260040320973 kcal/mol)

>  <smiles>  (15) 
CCN(C)CCNc1c2c([n+](C)c3ccccc13)-c1[nH]c3cc(Br)ccc3c1C2

>  <score_type>  (15) 
oracle

>  <origin>  (15) 
adg

>  <m_score__min__energy>  (15) 
-8.7400000000000002

>  <m_primary>  (15) 
energy

$$$$
15:0
     RDKit          3D

 34 35  0  0  0  0  0  0  0  0999 V2000
   -6.4890   16.7690  -33.7730 C   0  0  0  0  0  0  0  0  0  0  0  0
   -6.1010   18.2340  -33.9400 C   0  0  0  0  0  0  0  0  0  0  0  0
   -6.9500   19.0890  -33.1020 N   0  0  0  0  0  0  0  0  0  0  0  0
   -7.9420   18.5340  -32.3540 C   0  0  0  0  0  0  0  0  0  0  0  0
   -8.7640   19.3370  -31.5750 C   0  0  0  0  0  0  0  0  0  0  0  0
   -8.5680   20.7230  -31.5780 C   0  0  0  0  0  0  0  0  0  0  0  0
   -9.4690   21.5780  -30.7220 C   0  0  0  0  0  0  0  0  0  0  0  0
   -7.5700   21.2640  -32.3560 N   0  0  0  0  0  0  0  0  0  0  0  0
   -7.3090   22.7160  -32.3920 C   0  0  0  0  0  0  0  0  0  0  0  0
   -6.1660   23.0880  -31.4790 C   0  0  0  0  0  0  0  0  0  0  0  0
   -5.5540   22.1110  -30.6730 C   0  0  0  0  0  0  0  0  0  0  0  0
   -4.5030   22.4590  -29.8190 C   0  0  0  0  0  0  0  0  0  0  0  0
   -4.0610   23.7840  -29.7540 C   0  0  0  0  0  0  0  0  0  0  0  0
   -4.6740   24.7640  -30.5410 C   0  0  0  0  0  0  0  0  0  0  0  0
   -4.2510   26.0500  -30.4700 F   0  0  0  0  0  0  0  0  0  0  0  0
   -5.7260   24.4190  -31.3960 C   0  0  0  0  0  0  0  0  0  0  0  0
   -6.7750   20.4430  -33.1110 C   0  0  0  0  0  0  0  0  0  0  0  0
   -6.5532   16.5265  -32.7020 H   0  0  0  0  0  0  0  0  0  0  0  0
   -7.4651   16.5917  -34.2483 H   0  0  0  0  0  0  0  0  0  0  0  0
   -5.7286   16.1318  -34.2483 H   0  0  0  0  0  0  0  0  0  0  0  0
   -5.0499   18.3662  -33.6440 H   0  0  0  0  0  0  0  0  0  0  0  0
   -6.2370   18.5204  -34.9933 H   0  0  0  0  0  0  0  0  0  0  0  0
   -8.0932   17.4445  -32.3666 H   0  0  0  0  0  0  0  0  0  0  0  0
   -9.5603   18.8892  -30.9624 H   0  0  0  0  0  0  0  0  0  0  0  0
   -9.2611   21.3807  -29.6600 H   0  0  0  0  0  0  0  0  0  0  0  0
   -9.2832   22.6399  -30.9409 H   0  0  0  0  0  0  0  0  0  0  0  0
  -10.5197   21.3369  -30.9409 H   0  0  0  0  0  0  0  0  0  0  0  0
   -7.0561   23.0097  -33.4215 H   0  0  0  0  0  0  0  0  0  0  0  0
   -8.2131   23.2410  -32.0499 H   0  0  0  0  0  0  0  0  0  0  0  0
   -5.9037   21.0689  -30.7147 H   0  0  0  0  0  0  0  0  0  0  0  0
   -4.0230   21.6890  -29.1971 H   0  0  0  0  0  0  0  0  0  0  0  0
   -3.2316   24.0553  -29.0842 H   0  0  0  0  0  0  0  0  0  0  0  0
   -6.2113   25.1946  -32.0067 H   0  0  0  0  0  0  0  0  0  0  0  0
   -5.9824   20.8818  -33.7349 H   0  0  0  0  0  0  0  0  0  0  0  0
  1  2  1  0
  2  3  1  0
  3  4  2  0
  4  5  1  0
  5  6  2  0
  6  7  1  0
  6  8  1  0
  8  9  1  0
  9 10  1  0
 10 11  2  0
 11 12  1  0
 12 13  2  0
 13 14  1  0
 14 15  1  0
 14 16  2  0
  8 17  2  0
 17  3  1  0
 16 10  1  0
  1 18  1  0
  1 19  1  0
  1 20  1  0
  2 21  1  0
  2 22  1  0
  4 23  1  0
  5 24  1  0
  7 25  1  0
  7 26  1  0
  7 27  1  0
  9 28  1  0
  9 29  1  0
 11 30  1  0
 12 31  1  0
 13 32  1  0
 16 33  1  0
 17 34  1  0
M  CHG  2   3   1   8   1
M  END
>  <UniqueID>  (16) 
16

>  <SMILES>  (16) 
CC[n+]1ccc(C)[n+](Cc2cccc(F)c2)c1

>  <Energy>  (16) 
33.42917382466069

>  <Genealogy>  (16) 
CC[n+]1ccc(C)[n+](Cc2cccc(F)c2)c1 (3D coordinates assigned)
CC[n+]1ccc(C)[n+](Cc2cccc(F)c2)c1 (optimized conformer: 33.42917382466069 kcal/mol)

>  <smiles>  (16) 
CC[n+]1ccc(C)[n+](Cc2cccc(F)c2)c1

>  <score_type>  (16) 
oracle

>  <origin>  (16) 
adg

>  <m_score__min__energy>  (16) 
-5.6399999999999997

>  <m_primary>  (16) 
energy

$$$$
16:0
     RDKit          3D

 74 77  0  0  0  0  0  0  0  0999 V2000
   -1.5160   20.7400  -29.9920 C   0  0  0  0  0  0  0  0  0  0  0  0
   -1.1310   19.4510  -30.7250 C   0  0  0  0  0  0  0  0  0  0  0  0
   -1.8480   19.2900  -32.0000 N   0  0  0  0  0  0  0  0  0  0  0  0
   -0.9500   19.3630  -33.1650 C   0  0  0  0  0  0  0  0  0  0  0  0
   -1.3870   20.4930  -34.1000 C   0  0  0  0  0  0  0  0  0  0  0  0
   -2.1940   21.5630  -33.3500 C   0  0  0  0  0  0  0  0  0  0  0  0
   -3.7070   21.3210  -33.4720 C   0  0  0  0  0  0  0  0  0  0  0  0
   -4.1930   20.5090  -32.3390 N   0  0  0  0  0  0  0  0  0  0  0  0
   -5.4500   21.0220  -31.8130 C   0  0  0  0  0  0  0  0  0  0  0  0
   -5.5040   22.2870  -31.1830 C   0  0  0  0  0  0  0  0  0  0  0  0
   -4.3530   22.8770  -30.6140 C   0  0  0  0  0  0  0  0  0  0  0  0
   -4.4300   24.1080  -29.9660 C   0  0  0  0  0  0  0  0  0  0  0  0
   -5.6500   24.7670  -29.8610 C   0  0  0  0  0  0  0  0  0  0  0  0
   -6.7980   24.2100  -30.4250 C   0  0  0  0  0  0  0  0  0  0  0  0
   -6.7440   22.9720  -31.1150 C   0  0  0  0  0  0  0  0  0  0  0  0
   -7.8610   22.4290  -31.7140 N   0  0  0  0  0  0  0  0  0  0  0  0
   -9.0390   23.2780  -31.9960 C   0  0  0  0  0  0  0  0  0  0  0  0
   -7.8810   21.0830  -32.0230 C   0  0  0  0  0  0  0  0  0  0  0  0
   -9.0920   20.4180  -32.3280 C   0  0  0  0  0  0  0  0  0  0  0  0
   -9.1210   19.0510  -32.5680 C   0  0  0  0  0  0  0  0  0  0  0  0
   -7.9660   18.2950  -32.4360 C   0  0  0  0  0  0  0  0  0  0  0  0
   -6.7460   18.9020  -32.1070 C   0  0  0  0  0  0  0  0  0  0  0  0
   -5.6580   18.0680  -31.6650 N   0  0  0  0  0  0  0  0  0  0  0  0
   -5.8430   16.7030  -31.1690 C   0  0  0  0  0  0  0  0  0  0  0  0
   -5.0270   15.6920  -31.9880 C   0  0  0  0  0  0  0  0  0  0  0  0
   -5.7170   15.3150  -33.3150 C   0  0  0  0  0  0  0  0  0  0  0  0
   -5.1530   16.0120  -34.4910 N   0  0  0  0  0  0  0  0  0  0  0  0
   -3.6830   15.9300  -34.6140 C   0  0  0  0  0  0  0  0  0  0  0  0
   -2.9490   17.1530  -34.0160 C   0  0  0  0  0  0  0  0  0  0  0  0
   -3.8220   18.1760  -33.5840 O   0  0  0  0  0  0  0  0  0  0  0  0
   -4.7330   18.4800  -34.6140 C   0  0  0  0  0  0  0  0  0  0  0  0
   -5.7440   17.3380  -34.7770 C   0  0  0  0  0  0  0  0  0  0  0  0
   -6.6750   20.3240  -31.9940 C   0  0  0  0  0  0  0  0  0  0  0  0
   -1.4661   20.5731  -28.9059 H   0  0  0  0  0  0  0  0  0  0  0  0
   -0.8186   21.5433  -30.2719 H   0  0  0  0  0  0  0  0  0  0  0  0
   -2.5397   21.0292  -30.2719 H   0  0  0  0  0  0  0  0  0  0  0  0
   -0.0502   19.4707  -30.9285 H   0  0  0  0  0  0  0  0  0  0  0  0
   -1.4064   18.6048  -30.0784 H   0  0  0  0  0  0  0  0  0  0  0  0
   -2.3380   18.3620  -32.0020 H   0  0  0  0  0  0  0  0  0  0  0  0
    0.0772   19.5534  -32.8205 H   0  0  0  0  0  0  0  0  0  0  0  0
   -0.9926   18.4090  -33.7110 H   0  0  0  0  0  0  0  0  0  0  0  0
   -0.4928   20.9609  -34.5376 H   0  0  0  0  0  0  0  0  0  0  0  0
   -2.0277   20.0639  -34.8844 H   0  0  0  0  0  0  0  0  0  0  0  0
   -1.9138   21.5410  -32.2865 H   0  0  0  0  0  0  0  0  0  0  0  0
   -1.9654   22.5418  -33.7969 H   0  0  0  0  0  0  0  0  0  0  0  0
   -4.2295   22.2890  -33.4742 H   0  0  0  0  0  0  0  0  0  0  0  0
   -3.9067   20.7805  -34.4090 H   0  0  0  0  0  0  0  0  0  0  0  0
   -3.4810   20.4500  -31.5750 H   0  0  0  0  0  0  0  0  0  0  0  0
   -4.3070   19.5560  -32.7380 H   0  0  0  0  0  0  0  0  0  0  0  0
   -3.3853   22.3586  -30.6834 H   0  0  0  0  0  0  0  0  0  0  0  0
   -3.5236   24.5596  -29.5365 H   0  0  0  0  0  0  0  0  0  0  0  0
   -5.7100   25.7296  -29.3321 H   0  0  0  0  0  0  0  0  0  0  0  0
   -7.7585   24.7383  -30.3333 H   0  0  0  0  0  0  0  0  0  0  0  0
   -9.4914   23.6041  -31.0478 H   0  0  0  0  0  0  0  0  0  0  0  0
   -8.7257   24.1593  -32.5749 H   0  0  0  0  0  0  0  0  0  0  0  0
   -9.7759   22.7020  -32.5749 H   0  0  0  0  0  0  0  0  0  0  0  0
  -10.0275   20.9946  -32.3758 H   0  0  0  0  0  0  0  0  0  0  0  0
  -10.0630   18.5660  -32.8638 H   0  0  0  0  0  0  0  0  0  0  0  0
   -8.0076   17.2068  -32.5912 H   0  0  0  0  0  0  0  0  0  0  0  0
   -4.7170   18.5120  -31.5840 H   0  0  0  0  0  0  0  0  0  0  0  0
   -5.5189   16.6571  -30.1188 H   0  0  0  0  0  0  0  0  0  0  0  0
   -6.9079   16.4432  -31.2614 H   0  0  0  0  0  0  0  0  0  0  0  0
   -4.0442   16.1316  -32.2136 H   0  0  0  0  0  0  0  0  0  0  0  0
   -4.9309   14.7749  -31.3882 H   0  0  0  0  0  0  0  0  0  0  0  0
   -5.6094   14.2310  -33.4679 H   0  0  0  0  0  0  0  0  0  0  0  0
   -6.7701   15.6216  -33.2310 H   0  0  0  0  0  0  0  0  0  0  0  0
   -3.3389   15.0260  -34.0902 H   0  0  0  0  0  0  0  0  0  0  0  0
   -3.4474   15.9022  -35.6881 H   0  0  0  0  0  0  0  0  0  0  0  0
   -2.3542   16.8155  -33.1544 H   0  0  0  0  0  0  0  0  0  0  0  0
   -2.3220   17.5772  -34.8141 H   0  0  0  0  0  0  0  0  0  0  0  0
   -5.2689   19.4075  -34.3638 H   0  0  0  0  0  0  0  0  0  0  0  0
   -4.1809   18.6096  -35.5565 H   0  0  0  0  0  0  0  0  0  0  0  0
   -6.5819   17.5073  -34.0847 H   0  0  0  0  0  0  0  0  0  0  0  0
   -6.0788   17.3354  -35.8248 H   0  0  0  0  0  0  0  0  0  0  0  0
  1  2  1  0
  2  3  1  0
  3  4  1  0
  4  5  1  0
  5  6  1  0
  6  7  1  0
  7  8  1  0
  8  9  1  0
  9 10  2  0
 10 11  1  0
 11 12  2  0
 12 13  1  0
 13 14  2  0
 14 15  1  0
 15 16  2  0
 16 17  1  0
 16 18  1  0
 18 19  2  0
 19 20  1  0
 20 21  2  0
 21 22  1  0
 22 23  1  0
 23 24  1  0
 24 25  1  0
 25 26  1  0
 26 27  1  0
 27 28  1  0
 28 29  1  0
 29 30  1  0
 30 31  1  0
 31 32  1  0
 22 33  2  0
 33  9  1  0
 15 10  1  0
 33 18  1  0
 32 27  1  0
  1 34  1  0
  1 35  1  0
  1 36  1  0
  2 37  1  0
  2 38  1  0
  3 39  1  0
  4 40  1  0
  4 41  1  0
  5 42  1  0
  5 43  1  0
  6 44  1  0
  6 45  1  0
  7 46  1  0
  7 47  1  0
  8 48  1  0
  8 49  1  0
 11 50  1  0
 12 51  1  0
 13 52  1  0
 14 53  1  0
 17 54  1  0
 17 55  1  0
 17 56  1  0
 19 57  1  0
 20 58  1  0
 21 59  1  0
 23 60  1  0
 24 61  1  0
 24 62  1  0
 25 63  1  0
 25 64  1  0
 26 65  1  0
 26 66  1  0
 28 67  1  0
 28 68  1  0
 29 69  1  0
 29 70  1  0
 31 71  1  0
 31 72  1  0
 32 73  1  0
 32 74  1  0
M  CHG  2   8   1  16   1
M  END
>  <UniqueID>  (17) 
17

>  <SMILES>  (17) 
CCNCCCC[NH2+]c1c2ccccc2[n+](C)c2cccc(NCCCN3CCOCC3)c12

>  <Energy>  (17) 
119.83712218751418

>  <Genealogy>  (17) 
CCNCCCC[NH2+]c1c2ccccc2[n+](C)c2cccc(NCCCN3CCOCC3)c12 (protonated)
CCNCCCC[NH2+]c1c2ccccc2[n+](C)c2cccc(NCCCN3CCOCC3)c12 (3D coordinates assigned)
CCNCCCC[NH2+]c1c2ccccc2[n+](C)c2cccc(NCCCN3CCOCC3)c12 (nonaromatic ring conformer: 119.83712218751418 kcal/mol)

>  <smiles>  (17) 
CCNCCCCNc1c2ccccc2[n+](C)c2cccc(NCCCN3CCOCC3)c12

>  <score_type>  (17) 
oracle

>  <origin>  (17) 
adg

>  <m_score__min__energy>  (17) 
-9.2899999999999991

>  <m_primary>  (17) 
energy

$$$$
17:0
     RDKit          3D

 75 78  0  0  0  0  0  0  0  0999 V2000
   -6.2590   25.6270  -29.6190 C   0  0  0  0  0  0  0  0  0  0  0  0
   -5.3230   25.7000  -30.8220 C   0  0  0  0  0  0  0  0  0  0  0  0
   -3.9630   25.2920  -30.4410 N   0  0  0  0  0  0  0  0  0  0  0  0
   -3.9330   24.4200  -29.2530 C   0  0  0  0  0  0  0  0  0  0  0  0
   -3.0990   23.1490  -29.4650 C   0  0  0  0  0  0  0  0  0  0  0  0
   -2.7310   23.0310  -30.8300 O   0  0  0  0  0  0  0  0  0  0  0  0
   -1.9260   21.8880  -31.0510 C   0  0  0  0  0  0  0  0  0  0  0  0
   -2.7630   20.7620  -31.6720 C   0  0  0  0  0  0  0  0  0  0  0  0
   -3.6350   21.2750  -32.7430 N   0  0  0  0  0  0  0  0  0  0  0  0
   -4.9040   20.5620  -32.7620 C   0  0  0  0  0  0  0  0  0  0  0  0
   -6.0770   21.2200  -32.2880 C   0  0  0  0  0  0  0  0  0  0  0  0
   -6.0730   22.5960  -31.9390 C   0  0  0  0  0  0  0  0  0  0  0  0
   -7.1990   23.2090  -31.3950 C   0  0  0  0  0  0  0  0  0  0  0  0
   -8.3520   22.4740  -31.1770 C   0  0  0  0  0  0  0  0  0  0  0  0
   -8.4000   21.1340  -31.5450 C   0  0  0  0  0  0  0  0  0  0  0  0
   -7.2890   20.4930  -32.1540 C   0  0  0  0  0  0  0  0  0  0  0  0
   -7.3690   19.1900  -32.5870 N   0  0  0  0  0  0  0  0  0  0  0  0
   -8.6960   18.5450  -32.7380 C   0  0  0  0  0  0  0  0  0  0  0  0
   -6.2280   18.4970  -32.9320 C   0  0  0  0  0  0  0  0  0  0  0  0
   -6.2620   17.0870  -33.0720 C   0  0  0  0  0  0  0  0  0  0  0  0
   -5.1690   16.3830  -33.5410 C   0  0  0  0  0  0  0  0  0  0  0  0
   -4.0130   17.0540  -33.8960 C   0  0  0  0  0  0  0  0  0  0  0  0
   -3.8970   18.4390  -33.7060 C   0  0  0  0  0  0  0  0  0  0  0  0
   -2.7310   19.0670  -34.1650 O   0  0  0  0  0  0  0  0  0  0  0  0
   -1.4090   18.5900  -33.9020 C   0  0  0  0  0  0  0  0  0  0  0  0
   -0.4170   19.0560  -34.9880 C   0  0  0  0  0  0  0  0  0  0  0  0
    0.1570   20.4340  -34.8210 N   0  0  0  0  0  0  0  0  0  0  0  0
   -0.5120   21.1280  -33.6860 C   0  0  0  0  0  0  0  0  0  0  0  0
    1.6170   20.2770  -34.5120 C   0  0  0  0  0  0  0  0  0  0  0  0
    2.4820   21.4610  -34.9960 C   0  0  0  0  0  0  0  0  0  0  0  0
    1.7310   22.6500  -35.0250 O   0  0  0  0  0  0  0  0  0  0  0  0
    0.7480   22.5760  -36.0400 C   0  0  0  0  0  0  0  0  0  0  0  0
   -0.0070   21.2200  -36.0790 C   0  0  0  0  0  0  0  0  0  0  0  0
   -4.9900   19.1820  -33.1420 C   0  0  0  0  0  0  0  0  0  0  0  0
   -5.6688   25.6730  -28.6919 H   0  0  0  0  0  0  0  0  0  0  0  0
   -6.9613   26.4731  -29.6490 H   0  0  0  0  0  0  0  0  0  0  0  0
   -6.8216   24.6822  -29.6490 H   0  0  0  0  0  0  0  0  0  0  0  0
   -5.6945   25.0296  -31.6110 H   0  0  0  0  0  0  0  0  0  0  0  0
   -5.2942   26.7368  -31.1882 H   0  0  0  0  0  0  0  0  0  0  0  0
   -3.5010   24.8220  -31.2560 H   0  0  0  0  0  0  0  0  0  0  0  0
   -3.5031   24.9857  -28.4133 H   0  0  0  0  0  0  0  0  0  0  0  0
   -4.9671   24.1056  -29.0485 H   0  0  0  0  0  0  0  0  0  0  0  0
   -2.1910   23.2020  -28.8464 H   0  0  0  0  0  0  0  0  0  0  0  0
   -3.6975   22.2725  -29.1758 H   0  0  0  0  0  0  0  0  0  0  0  0
   -1.1043   22.1490  -31.7341 H   0  0  0  0  0  0  0  0  0  0  0  0
   -1.5195   21.5439  -30.0885 H   0  0  0  0  0  0  0  0  0  0  0  0
   -2.0873   20.0026  -32.0923 H   0  0  0  0  0  0  0  0  0  0  0  0
   -3.3967   20.3250  -30.8862 H   0  0  0  0  0  0  0  0  0  0  0  0
   -3.7630   22.3040  -32.6700 H   0  0  0  0  0  0  0  0  0  0  0  0
   -3.1590   21.1890  -33.6660 H   0  0  0  0  0  0  0  0  0  0  0  0
   -5.1618   23.1903  -32.1016 H   0  0  0  0  0  0  0  0  0  0  0  0
   -7.1723   24.2783  -31.1382 H   0  0  0  0  0  0  0  0  0  0  0  0
   -9.2288   22.9495  -30.7133 H   0  0  0  0  0  0  0  0  0  0  0  0
   -9.3187   20.5579  -31.3603 H   0  0  0  0  0  0  0  0  0  0  0  0
   -9.1190   18.3394  -31.7436 H   0  0  0  0  0  0  0  0  0  0  0  0
   -9.3692   19.2164  -33.2912 H   0  0  0  0  0  0  0  0  0  0  0  0
   -8.5840   17.6008  -33.2912 H   0  0  0  0  0  0  0  0  0  0  0  0
   -7.1780   16.5413  -32.8016 H   0  0  0  0  0  0  0  0  0  0  0  0
   -5.2186   15.2879  -33.6320 H   0  0  0  0  0  0  0  0  0  0  0  0
   -3.1732   16.4941  -34.3332 H   0  0  0  0  0  0  0  0  0  0  0  0
   -1.0775   18.9737  -32.9258 H   0  0  0  0  0  0  0  0  0  0  0  0
   -1.4310   17.4902  -33.9016 H   0  0  0  0  0  0  0  0  0  0  0  0
    0.4212   18.3439  -35.0034 H   0  0  0  0  0  0  0  0  0  0  0  0
   -1.0002   19.0933  -35.9200 H   0  0  0  0  0  0  0  0  0  0  0  0
   -0.1281   20.7298  -32.7352 H   0  0  0  0  0  0  0  0  0  0  0  0
   -0.3044   22.2068  -33.7422 H   0  0  0  0  0  0  0  0  0  0  0  0
   -1.5977   20.9601  -33.7422 H   0  0  0  0  0  0  0  0  0  0  0  0
    1.7338   20.1836  -33.4222 H   0  0  0  0  0  0  0  0  0  0  0  0
    1.9659   19.3822  -35.0483 H   0  0  0  0  0  0  0  0  0  0  0  0
    3.3334   21.5890  -34.3114 H   0  0  0  0  0  0  0  0  0  0  0  0
    2.8380   21.2442  -36.0140 H   0  0  0  0  0  0  0  0  0  0  0  0
    0.0138   23.3777  -35.8717 H   0  0  0  0  0  0  0  0  0  0  0  0
    1.2705   22.6811  -37.0022 H   0  0  0  0  0  0  0  0  0  0  0  0
   -1.0780   21.4177  -36.2335 H   0  0  0  0  0  0  0  0  0  0  0  0
    0.4192   20.6255  -36.9006 H   0  0  0  0  0  0  0  0  0  0  0  0
  1  2  1  0
  2  3  1  0
  3  4  1  0
  4  5  1  0
  5  6  1  0
  6  7  1  0
  7  8  1  0
  8  9  1  0
  9 10  1  0
 10 11  2  0
 11 12  1  0
 12 13  2  0
 13 14  1  0
 14 15  2  0
 15 16  1  0
 16 17  2  0
 17 18  1  0
 17 19  1  0
 19 20  2  0
 20 21  1  0
 21 22  2  0
 22 23  1  0
 23 24  1  0
 24 25  1  0
 25 26  1  0
 26 27  1  0
 27 28  1  0
 27 29  1  0
 29 30  1  0
 30 31  1  0
 31 32  1  0
 32 33  1  0
 23 34  2  0
 34 10  1  0
 16 11  1  0
 34 19  1  0
 33 27  1  0
  1 35  1  0
  1 36  1  0
  1 37  1  0
  2 38  1  0
  2 39  1  0
  3 40  1  0
  4 41  1  0
  4 42  1  0
  5 43  1  0
  5 44  1  0
  7 45  1  0
  7 46  1  0
  8 47  1  0
  8 48  1  0
  9 49  1  0
  9 50  1  0
 12 51  1  0
 13 52  1  0
 14 53  1  0
 15 54  1  0
 18 55  1  0
 18 56  1  0
 18 57  1  0
 20 58  1  0
 21 59  1  0
 22 60  1  0
 25 61  1  0
 25 62  1  0
 26 63  1  0
 26 64  1  0
 28 65  1  0
 28 66  1  0
 28 67  1  0
 29 68  1  0
 29 69  1  0
 30 70  1  0
 30 71  1  0
 32 72  1  0
 32 73  1  0
 33 74  1  0
 33 75  1  0
M  CHG  3   9   1  17   1  27   1
M  END
>  <UniqueID>  (18) 
18

>  <SMILES>  (18) 
CCNCCOCC[NH2+]c1c2ccccc2[n+](C)c2cccc(OCC[N+]3(C)CCOCC3)c12

>  <Energy>  (18) 
134.47693686545526

>  <Genealogy>  (18) 
CCNCCOCC[NH2+]c1c2ccccc2[n+](C)c2cccc(OCC[N+]3(C)CCOCC3)c12 (protonated)
CCNCCOCC[NH2+]c1c2ccccc2[n+](C)c2cccc(OCC[N+]3(C)CCOCC3)c12 (3D coordinates assigned)
CCNCCOCC[NH2+]c1c2ccccc2[n+](C)c2cccc(OCC[N+]3(C)CCOCC3)c12 (nonaromatic ring conformer: 134.47693686545526 kcal/mol)

>  <smiles>  (18) 
CCNCCOCCNc1c2ccccc2[n+](C)c2cccc(OCC[N+]3(C)CCOCC3)c12

>  <score_type>  (18) 
oracle

>  <origin>  (18) 
adg

>  <m_score__min__energy>  (18) 
-8.2699999999999996

>  <m_primary>  (18) 
energy

$$$$
18:0
     RDKit          3D

 38 40  0  0  0  0  0  0  0  0999 V2000
   -6.0890   17.1060  -31.6000 C   0  0  0  0  0  0  0  0  0  0  0  0
   -6.6530   17.2050  -33.0240 C   0  0  0  0  0  0  0  0  0  0  0  0
   -6.6580   18.5990  -33.5320 N   0  0  0  0  0  0  0  0  0  0  0  0
   -5.7300   18.8580  -34.6600 C   0  0  0  0  0  0  0  0  0  0  0  0
   -4.8240   17.6540  -34.9150 C   0  0  0  0  0  0  0  0  0  0  0  0
   -7.2320   19.5930  -32.8530 C   0  0  0  0  0  0  0  0  0  0  0  0
   -8.6030   19.6850  -32.8030 N   0  0  0  0  0  0  0  0  0  0  0  0
   -9.2430   20.7860  -32.3410 C   0  0  0  0  0  0  0  0  0  0  0  0
   -8.5310   21.8800  -31.8760 C   0  0  0  0  0  0  0  0  0  0  0  0
   -7.1300   21.8230  -31.7840 C   0  0  0  0  0  0  0  0  0  0  0  0
   -6.4770   20.6210  -32.1920 C   0  0  0  0  0  0  0  0  0  0  0  0
   -5.1410   20.4250  -31.7920 C   0  0  0  0  0  0  0  0  0  0  0  0
   -4.4080   21.4380  -31.1880 C   0  0  0  0  0  0  0  0  0  0  0  0
   -4.9900   22.6800  -30.9360 C   0  0  0  0  0  0  0  0  0  0  0  0
   -4.2160   23.7040  -30.3660 C   0  0  0  0  0  0  0  0  0  0  0  0
   -4.7820   24.9490  -30.0980 C   0  0  0  0  0  0  0  0  0  0  0  0
   -6.1210   25.1850  -30.3990 C   0  0  0  0  0  0  0  0  0  0  0  0
   -6.9070   24.1750  -30.9600 C   0  0  0  0  0  0  0  0  0  0  0  0
   -6.3630   22.8930  -31.2290 C   0  0  0  0  0  0  0  0  0  0  0  0
   -6.9020   17.2487  -30.8729 H   0  0  0  0  0  0  0  0  0  0  0  0
   -5.6357   16.1146  -31.4533 H   0  0  0  0  0  0  0  0  0  0  0  0
   -5.3251   17.8838  -31.4533 H   0  0  0  0  0  0  0  0  0  0  0  0
   -6.0358   16.5870  -33.6927 H   0  0  0  0  0  0  0  0  0  0  0  0
   -7.6946   16.8523  -32.9987 H   0  0  0  0  0  0  0  0  0  0  0  0
   -6.3164   19.0648  -35.5674 H   0  0  0  0  0  0  0  0  0  0  0  0
   -5.0991   19.7214  -34.4021 H   0  0  0  0  0  0  0  0  0  0  0  0
   -4.5026   17.2269  -33.9536 H   0  0  0  0  0  0  0  0  0  0  0  0
   -5.3763   16.8942  -35.4875 H   0  0  0  0  0  0  0  0  0  0  0  0
   -3.9410   17.9743  -35.4875 H   0  0  0  0  0  0  0  0  0  0  0  0
   -9.2280   18.9490  -33.1890 H   0  0  0  0  0  0  0  0  0  0  0  0
  -10.3427   20.8119  -32.3349 H   0  0  0  0  0  0  0  0  0  0  0  0
   -9.0637   22.7952  -31.5782 H   0  0  0  0  0  0  0  0  0  0  0  0
   -4.6672   19.4469  -31.9619 H   0  0  0  0  0  0  0  0  0  0  0  0
   -3.3599   21.2593  -30.9060 H   0  0  0  0  0  0  0  0  0  0  0  0
   -3.1571   23.5223  -30.1298 H   0  0  0  0  0  0  0  0  0  0  0  0
   -4.1708   25.7455  -29.6485 H   0  0  0  0  0  0  0  0  0  0  0  0
   -6.5622   26.1716  -30.1941 H   0  0  0  0  0  0  0  0  0  0  0  0
   -7.9622   24.3769  -31.1963 H   0  0  0  0  0  0  0  0  0  0  0  0
  1  2  1  0
  2  3  1  0
  3  4  1  0
  4  5  1  0
  3  6  2  3
  6  7  1  0
  7  8  1  0
  8  9  2  0
  9 10  1  0
 10 11  2  0
 11 12  1  0
 12 13  2  0
 13 14  1  0
 14 15  2  0
 15 16  1  0
 16 17  2  0
 17 18  1  0
 18 19  2  0
 11  6  1  0
 19 14  1  0
 19 10  1  0
  1 20  1  0
  1 21  1  0
  1 22  1  0
  2 23  1  0
  2 24  1  0
  4 25  1  0
  4 26  1  0
  5 27  1  0
  5 28  1  0
  5 29  1  0
  7 30  1  0
  8 31  1  0
  9 32  1  0
 12 33  1  0
 13 34  1  0
 15 35  1  0
 16 36  1  0
 17 37  1  0
 18 38  1  0
M  CHG  1   3   1
M  END
>  <UniqueID>  (19) 
19

>  <SMILES>  (19) 
CC[N+](CC)=c1[nH]ccc2c1ccc1ccccc12

>  <Energy>  (19) 
76.47349036809086

>  <Genealogy>  (19) 
CC[N+](CC)=c1[nH]ccc2c1ccc1ccccc12 (3D coordinates assigned)
CC[N+](CC)=c1[nH]ccc2c1ccc1ccccc12 (optimized conformer: 76.47349036809086 kcal/mol)

>  <smiles>  (19) 
CC[N+](CC)=c1[nH]ccc2c1ccc1ccccc12

>  <score_type>  (19) 
oracle

>  <origin>  (19) 
adg

>  <m_score__min__energy>  (19) 
-7.0800000000000001

>  <m_primary>  (19) 
energy

$$$$
19:0
     RDKit          3D

 87 90  0  0  0  0  0  0  0  0999 V2000
   -2.1430   17.1740  -33.3480 C   0  0  0  0  0  0  0  0  0  0  0  0
   -1.8450   18.0920  -34.5390 C   0  0  0  0  0  0  0  0  0  0  0  0
   -1.2320   19.3690  -34.1100 N   0  0  0  0  0  0  0  0  0  0  0  0
   -0.2290   19.8920  -35.0570 C   0  0  0  0  0  0  0  0  0  0  0  0
    0.6680   21.0020  -34.4560 C   0  0  0  0  0  0  0  0  0  0  0  0
    0.6200   21.0750  -32.9210 C   0  0  0  0  0  0  0  0  0  0  0  0
   -0.7580   21.2590  -32.4430 N   0  0  0  0  0  0  0  0  0  0  0  0
   -1.0000   20.4240  -31.2570 C   0  0  0  0  0  0  0  0  0  0  0  0
   -2.4150   20.6360  -30.7120 C   0  0  0  0  0  0  0  0  0  0  0  0
   -3.0020   21.8710  -31.2340 N   0  0  0  0  0  0  0  0  0  0  0  0
   -4.4130   21.9990  -31.4860 C   0  0  0  0  0  0  0  0  0  0  0  0
   -5.0690   21.0220  -32.2590 C   0  0  0  0  0  0  0  0  0  0  0  0
   -4.3360   20.0620  -32.9900 C   0  0  0  0  0  0  0  0  0  0  0  0
   -4.9820   19.1090  -33.7720 C   0  0  0  0  0  0  0  0  0  0  0  0
   -6.3680   19.1140  -33.8600 C   0  0  0  0  0  0  0  0  0  0  0  0
   -7.1150   20.0590  -33.1580 C   0  0  0  0  0  0  0  0  0  0  0  0
   -6.4850   21.0220  -32.3270 C   0  0  0  0  0  0  0  0  0  0  0  0
   -7.2140   21.9480  -31.6020 N   0  0  0  0  0  0  0  0  0  0  0  0
   -8.6710   21.7570  -31.4220 C   0  0  0  0  0  0  0  0  0  0  0  0
   -6.5770   23.0430  -31.0410 C   0  0  0  0  0  0  0  0  0  0  0  0
   -7.3170   24.1360  -30.5280 C   0  0  0  0  0  0  0  0  0  0  0  0
   -6.6840   25.2020  -29.8980 C   0  0  0  0  0  0  0  0  0  0  0  0
   -5.3020   25.2360  -29.8000 C   0  0  0  0  0  0  0  0  0  0  0  0
   -4.5170   24.2220  -30.3740 C   0  0  0  0  0  0  0  0  0  0  0  0
   -3.1180   24.3340  -30.4130 O   0  0  0  0  0  0  0  0  0  0  0  0
   -2.2040   24.0990  -29.3450 C   0  0  0  0  0  0  0  0  0  0  0  0
   -2.7070   24.5930  -27.9600 C   0  0  0  0  0  0  0  0  0  0  0  0
   -1.6850   24.9180  -26.8940 N   0  0  0  0  0  0  0  0  0  0  0  0
   -1.1470   23.6090  -26.4130 C   0  0  0  0  0  0  0  0  0  0  0  0
   -0.5590   25.7450  -27.4200 C   0  0  0  0  0  0  0  0  0  0  0  0
    0.3950   26.2690  -26.3200 C   0  0  0  0  0  0  0  0  0  0  0  0
   -0.3120   27.0140  -25.2460 N   0  0  0  0  0  0  0  0  0  0  0  0
   -0.8420   28.3100  -25.7430 C   0  0  0  0  0  0  0  0  0  0  0  0
    0.6600   27.3170  -24.1650 C   0  0  0  0  0  0  0  0  0  0  0  0
   -1.4060   26.1730  -24.6830 C   0  0  0  0  0  0  0  0  0  0  0  0
   -2.3690   25.6110  -25.7580 C   0  0  0  0  0  0  0  0  0  0  0  0
   -5.1530   23.0910  -30.9730 C   0  0  0  0  0  0  0  0  0  0  0  0
   -1.9655   17.7208  -32.4102 H   0  0  0  0  0  0  0  0  0  0  0  0
   -3.1929   16.8485  -33.3896 H   0  0  0  0  0  0  0  0  0  0  0  0
   -1.4844   16.2939  -33.3896 H   0  0  0  0  0  0  0  0  0  0  0  0
   -1.1530   17.5765  -35.2212 H   0  0  0  0  0  0  0  0  0  0  0  0
   -2.7971   18.3215  -35.0399 H   0  0  0  0  0  0  0  0  0  0  0  0
   -0.7330   19.1890  -33.2040 H   0  0  0  0  0  0  0  0  0  0  0  0
   -1.9550   20.1020  -33.9050 H   0  0  0  0  0  0  0  0  0  0  0  0
    0.4147   19.0595  -35.3774 H   0  0  0  0  0  0  0  0  0  0  0  0
   -0.7799   20.3405  -35.8969 H   0  0  0  0  0  0  0  0  0  0  0  0
    1.7073   20.8116  -34.7619 H   0  0  0  0  0  0  0  0  0  0  0  0
    0.2870   21.9620  -34.8346 H   0  0  0  0  0  0  0  0  0  0  0  0
    1.0232   20.1403  -32.5041 H   0  0  0  0  0  0  0  0  0  0  0  0
    1.2215   21.9356  -32.5931 H   0  0  0  0  0  0  0  0  0  0  0  0
   -0.8610   22.2640  -32.1630 H   0  0  0  0  0  0  0  0  0  0  0  0
   -0.8756   19.3660  -31.5312 H   0  0  0  0  0  0  0  0  0  0  0  0
   -0.2791   20.7089  -30.4766 H   0  0  0  0  0  0  0  0  0  0  0  0
   -3.0455   19.7851  -31.0092 H   0  0  0  0  0  0  0  0  0  0  0  0
   -2.3592   20.7121  -29.6161 H   0  0  0  0  0  0  0  0  0  0  0  0
   -2.3580   22.5900  -31.6330 H   0  0  0  0  0  0  0  0  0  0  0  0
   -3.2371   20.0673  -32.9407 H   0  0  0  0  0  0  0  0  0  0  0  0
   -4.3969   18.3546  -34.3184 H   0  0  0  0  0  0  0  0  0  0  0  0
   -6.8791   18.3685  -34.4869 H   0  0  0  0  0  0  0  0  0  0  0  0
   -8.2112   20.0583  -33.2497 H   0  0  0  0  0  0  0  0  0  0  0  0
   -8.9068   21.7261  -30.3480 H   0  0  0  0  0  0  0  0  0  0  0  0
   -9.2111   22.5920  -31.8921 H   0  0  0  0  0  0  0  0  0  0  0  0
   -8.9776   20.8110  -31.8921 H   0  0  0  0  0  0  0  0  0  0  0  0
   -8.4123   24.1419  -30.6297 H   0  0  0  0  0  0  0  0  0  0  0  0
   -7.2831   26.0221  -29.4755 H   0  0  0  0  0  0  0  0  0  0  0  0
   -4.8145   26.0657  -29.2671 H   0  0  0  0  0  0  0  0  0  0  0  0
   -2.0197   23.0165  -29.2797 H   0  0  0  0  0  0  0  0  0  0  0  0
   -1.2933   24.6716  -29.5747 H   0  0  0  0  0  0  0  0  0  0  0  0
   -3.2949   25.5061  -28.1351 H   0  0  0  0  0  0  0  0  0  0  0  0
   -3.2573   23.7326  -27.5514 H   0  0  0  0  0  0  0  0  0  0  0  0
   -1.1419   23.5966  -25.3131 H   0  0  0  0  0  0  0  0  0  0  0  0
   -1.7823   22.7921  -26.7860 H   0  0  0  0  0  0  0  0  0  0  0  0
   -0.1209   23.4750  -26.7860 H   0  0  0  0  0  0  0  0  0  0  0  0
    0.0244   25.1310  -28.1220 H   0  0  0  0  0  0  0  0  0  0  0  0
   -1.0060   26.6259  -27.9040 H   0  0  0  0  0  0  0  0  0  0  0  0
    0.9142   25.4109  -25.8682 H   0  0  0  0  0  0  0  0  0  0  0  0
    1.0970   26.9678  -26.7984 H   0  0  0  0  0  0  0  0  0  0  0  0
   -1.1041   28.9509  -24.8883 H   0  0  0  0  0  0  0  0  0  0  0  0
   -0.0758   28.8093  -26.3543 H   0  0  0  0  0  0  0  0  0  0  0  0
   -1.7385   28.1293  -26.3543 H   0  0  0  0  0  0  0  0  0  0  0  0
    0.1793   27.1671  -23.1870 H   0  0  0  0  0  0  0  0  0  0  0  0
    1.5277   26.6467  -24.2536 H   0  0  0  0  0  0  0  0  0  0  0  0
    0.9931   28.3616  -24.2536 H   0  0  0  0  0  0  0  0  0  0  0  0
   -0.9532   25.3272  -24.1449 H   0  0  0  0  0  0  0  0  0  0  0  0
   -2.0017   26.8182  -24.0205 H   0  0  0  0  0  0  0  0  0  0  0  0
   -3.0455   24.8921  -25.2728 H   0  0  0  0  0  0  0  0  0  0  0  0
   -2.8996   26.4733  -26.1880 H   0  0  0  0  0  0  0  0  0  0  0  0
  1  2  1  0
  2  3  1  0
  3  4  1  0
  4  5  1  0
  5  6  1  0
  6  7  1  0
  7  8  1  0
  8  9  1  0
  9 10  1  0
 10 11  1  0
 11 12  2  0
 12 13  1  0
 13 14  2  0
 14 15  1  0
 15 16  2  0
 16 17  1  0
 17 18  2  0
 18 19  1  0
 18 20  1  0
 20 21  2  0
 21 22  1  0
 22 23  2  0
 23 24  1  0
 24 25  1  0
 25 26  1  0
 26 27  1  0
 27 28  1  0
 28 29  1  0
 28 30  1  0
 30 31  1  0
 31 32  1  0
 32 33  1  0
 32 34  1  0
 32 35  1  0
 35 36  1  0
 24 37  2  0
 37 11  1  0
 17 12  1  0
 37 20  1  0
 36 28  1  0
  1 38  1  0
  1 39  1  0
  1 40  1  0
  2 41  1  0
  2 42  1  0
  3 43  1  0
  3 44  1  0
  4 45  1  0
  4 46  1  0
  5 47  1  0
  5 48  1  0
  6 49  1  0
  6 50  1  0
  7 51  1  0
  8 52  1  0
  8 53  1  0
  9 54  1  0
  9 55  1  0
 10 56  1  0
 13 57  1  0
 14 58  1  0
 15 59  1  0
 16 60  1  0
 19 61  1  0
 19 62  1  0
 19 63  1  0
 21 64  1  0
 22 65  1  0
 23 66  1  0
 26 67  1  0
 26 68  1  0
 27 69  1  0
 27 70  1  0
 29 71  1  0
 29 72  1  0
 29 73  1  0
 30 74  1  0
 30 75  1  0
 31 76  1  0
 31 77  1  0
 33 78  1  0
 33 79  1  0
 33 80  1  0
 34 81  1  0
 34 82  1  0
 34 83  1  0
 35 84  1  0
 35 85  1  0
 36 86  1  0
 36 87  1  0
M  CHG  4   3   1  18   1  28   1  32   1
M  END
>  <UniqueID>  (20) 
20

>  <SMILES>  (20) 
CC[NH2+]CCCNCCNc1c2ccccc2[n+](C)c2cccc(OCC[N+]3(C)CC[N+](C)(C)CC3)c12

>  <Energy>  (20) 
132.43109517330174

>  <Genealogy>  (20) 
CC[NH2+]CCCNCCNc1c2ccccc2[n+](C)c2cccc(OCC[N+]3(C)CC[N+](C)(C)CC3)c12 (protonated)
CC[NH2+]CCCNCCNc1c2ccccc2[n+](C)c2cccc(OCC[N+]3(C)CC[N+](C)(C)CC3)c12 (3D coordinates assigned)
CC[NH2+]CCCNCCNc1c2ccccc2[n+](C)c2cccc(OCC[N+]3(C)CC[N+](C)(C)CC3)c12 (nonaromatic ring conformer: 132.43109517330174 kcal/mol)

>  <smiles>  (20) 
CCNCCCNCCNc1c2ccccc2[n+](C)c2cccc(OCC[N+]3(C)CC[N+](C)(C)CC3)c12

>  <score_type>  (20) 
oracle

>  <origin>  (20) 
adg

>  <m_score__min__energy>  (20) 
-6.6600000000000001

>  <m_primary>  (20) 
energy

$$$$
20:0
     RDKit          3D

 38 40  0  0  0  0  0  0  0  0999 V2000
   -6.4810   17.7940  -31.2860 C   0  0  0  0  0  0  0  0  0  0  0  0
   -6.8470   17.4460  -32.7220 C   0  0  0  0  0  0  0  0  0  0  0  0
   -6.0320   18.5610  -33.9220 S   0  0  0  0  0  0  0  0  0  0  0  0
   -6.6020   20.0840  -33.1560 C   0  0  0  0  0  0  0  0  0  0  0  0
   -7.9000   20.3440  -32.9160 N   0  0  0  0  0  0  0  0  0  0  0  0
   -7.9500   21.4890  -32.2540 N   0  0  0  0  0  0  0  0  0  0  0  0
   -6.6790   21.9090  -32.0890 C   0  0  0  0  0  0  0  0  0  0  0  0
   -6.3300   23.1560  -31.3710 C   0  0  0  0  0  0  0  0  0  0  0  0
   -7.2230   23.7540  -30.4670 C   0  0  0  0  0  0  0  0  0  0  0  0
   -6.8640   24.9250  -29.7990 C   0  0  0  0  0  0  0  0  0  0  0  0
   -5.6070   25.4850  -30.0290 C   0  0  0  0  0  0  0  0  0  0  0  0
   -4.7430   24.8870  -30.8920 N   0  0  0  0  0  0  0  0  0  0  0  0
   -5.0700   23.7460  -31.5550 C   0  0  0  0  0  0  0  0  0  0  0  0
   -5.8010   21.0440  -32.6490 N   0  0  0  0  0  0  0  0  0  0  0  0
   -4.3820   20.9570  -32.4340 C   0  0  0  0  0  0  0  0  0  0  0  0
   -3.4860   21.2390  -33.4720 C   0  0  0  0  0  0  0  0  0  0  0  0
   -2.1080   21.1580  -33.2560 C   0  0  0  0  0  0  0  0  0  0  0  0
   -1.6040   20.7960  -32.0020 C   0  0  0  0  0  0  0  0  0  0  0  0
   -0.2120   20.7310  -31.8350 O   0  0  0  0  0  0  0  0  0  0  0  0
    0.5360   19.5210  -31.7840 C   0  0  0  0  0  0  0  0  0  0  0  0
   -2.5030   20.5140  -30.9560 C   0  0  0  0  0  0  0  0  0  0  0  0
   -3.8820   20.5940  -31.1740 C   0  0  0  0  0  0  0  0  0  0  0  0
   -7.1019   17.2037  -30.5960 H   0  0  0  0  0  0  0  0  0  0  0  0
   -5.4195   17.5640  -31.1121 H   0  0  0  0  0  0  0  0  0  0  0  0
   -6.6572   18.8658  -31.1121 H   0  0  0  0  0  0  0  0  0  0  0  0
   -6.5343   16.4117  -32.9282 H   0  0  0  0  0  0  0  0  0  0  0  0
   -7.9352   17.5607  -32.8342 H   0  0  0  0  0  0  0  0  0  0  0  0
   -8.2075   23.2982  -30.2853 H   0  0  0  0  0  0  0  0  0  0  0  0
   -7.5649   25.4019  -29.0981 H   0  0  0  0  0  0  0  0  0  0  0  0
   -5.3147   26.4108  -29.5119 H   0  0  0  0  0  0  0  0  0  0  0  0
   -4.3435   23.2830  -32.2390 H   0  0  0  0  0  0  0  0  0  0  0  0
   -3.8688   21.5258  -34.4626 H   0  0  0  0  0  0  0  0  0  0  0  0
   -1.4132   21.3808  -34.0791 H   0  0  0  0  0  0  0  0  0  0  0  0
    0.7091   19.2409  -30.7344 H   0  0  0  0  0  0  0  0  0  0  0  0
   -0.0255   18.7212  -32.2891 H   0  0  0  0  0  0  0  0  0  0  0  0
    1.5024   19.6658  -32.2891 H   0  0  0  0  0  0  0  0  0  0  0  0
   -2.1198   20.2300  -29.9648 H   0  0  0  0  0  0  0  0  0  0  0  0
   -4.5791   20.3710  -30.3528 H   0  0  0  0  0  0  0  0  0  0  0  0
  1  2  1  0
  2  3  1  0
  3  4  1  0
  4  5  2  0
  5  6  1  0
  6  7  2  0
  7  8  1  0
  8  9  2  0
  9 10  1  0
 10 11  2  0
 11 12  1  0
 12 13  2  0
  7 14  1  0
 14 15  1  0
 15 16  2  0
 16 17  1  0
 17 18  2  0
 18 19  1  0
 19 20  1  0
 18 21  1  0
 21 22  2  0
 14  4  1  0
 22 15  1  0
 13  8  1  0
  1 23  1  0
  1 24  1  0
  1 25  1  0
  2 26  1  0
  2 27  1  0
  9 28  1  0
 10 29  1  0
 11 30  1  0
 13 31  1  0
 16 32  1  0
 17 33  1  0
 20 34  1  0
 20 35  1  0
 20 36  1  0
 21 37  1  0
 22 38  1  0
M  END
>  <UniqueID>  (21) 
21

>  <SMILES>  (21) 
CCSc1nnc(-c2cccnc2)n1-c1ccc(OC)cc1

>  <Energy>  (21) 
80.19974690932808

>  <Genealogy>  (21) 
CCSc1nnc(-c2cccnc2)n1-c1ccc(OC)cc1 (3D coordinates assigned)
CCSc1nnc(-c2cccnc2)n1-c1ccc(OC)cc1 (optimized conformer: 80.19974690932808 kcal/mol)

>  <smiles>  (21) 
CCSc1nnc(-c2cccnc2)n1-c1ccc(OC)cc1

>  <score_type>  (21) 
oracle

>  <origin>  (21) 
adg

>  <m_score__min__energy>  (21) 
-7.2599999999999998

>  <m_primary>  (21) 
energy

$$$$
21:0
     RDKit          3D

120126  0  0  0  0  0  0  0  0999 V2000
   -3.8710   13.9220  -31.9790 C   0  0  0  0  0  0  0  0  0  0  0  0
   -4.9440   14.9890  -31.7850 C   0  0  0  0  0  0  0  0  0  0  0  0
   -5.0860   15.7940  -33.0200 N   0  0  0  0  0  0  0  0  0  0  0  0
   -5.3040   14.9480  -34.2230 C   0  0  0  0  0  0  0  0  0  0  0  0
   -6.6250   14.1590  -34.2170 C   0  0  0  0  0  0  0  0  0  0  0  0
   -6.0600   16.8970  -32.8510 C   0  0  0  0  0  0  0  0  0  0  0  0
   -6.5030   17.4760  -34.2020 C   0  0  0  0  0  0  0  0  0  0  0  0
   -5.8580   18.7650  -34.4560 N   0  0  0  0  0  0  0  0  0  0  0  0
   -5.7000   19.7460  -33.4180 C   0  0  0  0  0  0  0  0  0  0  0  0
   -6.8420   20.2420  -32.7660 C   0  0  0  0  0  0  0  0  0  0  0  0
   -8.1120   19.6660  -32.9880 C   0  0  0  0  0  0  0  0  0  0  0  0
   -9.2380   20.1520  -32.3270 C   0  0  0  0  0  0  0  0  0  0  0  0
   -9.1200   21.2030  -31.4270 C   0  0  0  0  0  0  0  0  0  0  0  0
   -7.8780   21.7980  -31.2050 C   0  0  0  0  0  0  0  0  0  0  0  0
   -6.7190   21.3470  -31.8860 C   0  0  0  0  0  0  0  0  0  0  0  0
   -5.4900   21.9470  -31.7040 N   0  0  0  0  0  0  0  0  0  0  0  0
   -5.4140   23.2810  -31.0640 C   0  0  0  0  0  0  0  0  0  0  0  0
   -4.3390   21.3170  -32.1370 C   0  0  0  0  0  0  0  0  0  0  0  0
   -3.0630   21.7400  -31.6930 C   0  0  0  0  0  0  0  0  0  0  0  0
   -1.8940   21.1310  -32.1500 C   0  0  0  0  0  0  0  0  0  0  0  0
   -0.5530   21.6280  -31.6900 C   0  0  0  0  0  0  0  0  0  0  0  0
   -1.9740   20.0900  -33.0690 C   0  0  0  0  0  0  0  0  0  0  0  0
   -3.2170   19.6020  -33.5020 C   0  0  0  0  0  0  0  0  0  0  0  0
   -3.2780   18.4980  -34.3700 O   0  0  0  0  0  0  0  0  0  0  0  0
   -2.7790   17.1950  -34.0760 C   0  0  0  0  0  0  0  0  0  0  0  0
   -1.3000   17.1240  -34.4880 C   0  0  0  0  0  0  0  0  0  0  0  0
   -0.3530   16.9170  -33.3610 N   0  0  1  0  0  0  0  0  0  0  0  0
    0.0150   15.5090  -33.0660 C   0  0  0  0  0  0  0  0  0  0  0  0
    0.5640   15.5880  -31.6210 C   0  0  0  0  0  0  0  0  0  0  0  0
    0.4200   17.0280  -31.2830 N   0  0  1  0  0  0  0  0  0  0  0  0
    0.4270   17.3740  -29.8390 C   0  0  0  0  0  0  0  0  0  0  0  0
   -0.1160   18.7850  -29.5160 C   0  0  0  0  0  0  0  0  0  0  0  0
   -0.7910   18.8080  -28.1260 C   0  0  0  0  0  0  0  0  0  0  0  0
   -1.2070   20.1470  -27.5630 N   0  0  0  0  0  0  0  0  0  0  0  0
   -1.9910   20.0600  -26.2760 C   0  0  0  0  0  0  0  0  0  0  0  0
   -2.9490   18.8680  -26.1030 C   0  0  0  0  0  0  0  0  0  0  0  0
   -2.1210   20.7900  -28.5850 C   0  0  0  0  0  0  0  0  0  0  0  0
   -3.2780   21.6650  -28.0460 C   0  0  0  0  0  0  0  0  0  0  0  0
   -0.0490   21.1120  -27.4500 C   0  0  0  0  0  0  0  0  0  0  0  0
   -0.1420   22.4530  -28.2200 C   0  0  0  0  0  0  0  0  0  0  0  0
   -0.6500   23.4970  -27.3340 N   0  0  0  0  0  0  0  0  0  0  0  0
   -0.8970   24.8600  -27.6910 C   0  0  0  0  0  0  0  0  0  0  0  0
   -1.0190   25.2730  -28.8750 O   0  0  0  0  0  0  0  0  0  0  0  0
   -0.9550   25.6910  -26.4950 C   0  0  0  0  0  0  0  0  0  0  0  0
   -1.1600   27.0620  -26.3480 C   0  0  0  0  0  0  0  0  0  0  0  0
   -1.1240   27.5990  -25.0490 C   0  0  0  0  0  0  0  0  0  0  0  0
   -0.8760   26.7650  -23.9370 C   0  0  0  0  0  0  0  0  0  0  0  0
   -0.6720   25.3840  -24.1140 C   0  0  0  0  0  0  0  0  0  0  0  0
   -0.7260   24.8760  -25.4100 C   0  0  0  0  0  0  0  0  0  0  0  0
   -0.5240   23.5210  -25.9090 C   0  0  0  0  0  0  0  0  0  0  0  0
   -0.2540   22.5140  -25.2030 O   0  0  0  0  0  0  0  0  0  0  0  0
    1.4400   17.7720  -32.0650 C   0  0  0  0  0  0  0  0  0  0  0  0
    0.9060   17.6890  -33.5100 C   0  0  0  0  0  0  0  0  0  0  0  0
   -0.7790   17.3680  -32.0410 C   0  0  0  0  0  0  0  0  0  0  0  0
   -4.4180   20.2140  -33.0350 C   0  0  0  0  0  0  0  0  0  0  0  0
   -3.5196   13.5726  -30.9970 H   0  0  0  0  0  0  0  0  0  0  0  0
   -4.2932   13.0752  -32.5400 H   0  0  0  0  0  0  0  0  0  0  0  0
   -3.0266   14.3489  -32.5400 H   0  0  0  0  0  0  0  0  0  0  0  0
   -5.9036   14.5031  -31.5544 H   0  0  0  0  0  0  0  0  0  0  0  0
   -4.6514   15.6490  -30.9551 H   0  0  0  0  0  0  0  0  0  0  0  0
   -5.2979   15.6011  -35.1081 H   0  0  0  0  0  0  0  0  0  0  0  0
   -4.4946   14.2031  -34.2326 H   0  0  0  0  0  0  0  0  0  0  0  0
   -6.9363   13.9731  -33.1785 H   0  0  0  0  0  0  0  0  0  0  0  0
   -7.4021   14.7410  -34.7341 H   0  0  0  0  0  0  0  0  0  0  0  0
   -6.4810   13.1989  -34.7341 H   0  0  0  0  0  0  0  0  0  0  0  0
   -6.9441   16.5136  -32.3205 H   0  0  0  0  0  0  0  0  0  0  0  0
   -5.5729   17.6994  -32.2775 H   0  0  0  0  0  0  0  0  0  0  0  0
   -6.2291   16.7726  -35.0022 H   0  0  0  0  0  0  0  0  0  0  0  0
   -7.5923   17.6273  -34.1787 H   0  0  0  0  0  0  0  0  0  0  0  0
   -5.4560   18.9570  -35.4010 H   0  0  0  0  0  0  0  0  0  0  0  0
   -8.2133   18.8251  -33.6899 H   0  0  0  0  0  0  0  0  0  0  0  0
  -10.2233   19.7020  -32.5185 H   0  0  0  0  0  0  0  0  0  0  0  0
  -10.0074   21.5669  -30.8883 H   0  0  0  0  0  0  0  0  0  0  0  0
   -7.7965   22.6302  -30.4903 H   0  0  0  0  0  0  0  0  0  0  0  0
   -5.4207   23.1639  -29.9703 H   0  0  0  0  0  0  0  0  0  0  0  0
   -4.4858   23.7837  -31.3733 H   0  0  0  0  0  0  0  0  0  0  0  0
   -6.2791   23.8859  -31.3733 H   0  0  0  0  0  0  0  0  0  0  0  0
   -2.9917   22.5673  -30.9716 H   0  0  0  0  0  0  0  0  0  0  0  0
   -0.5235   21.6389  -30.5905 H   0  0  0  0  0  0  0  0  0  0  0  0
    0.2353   20.9623  -32.0714 H   0  0  0  0  0  0  0  0  0  0  0  0
   -0.3889   22.6466  -32.0714 H   0  0  0  0  0  0  0  0  0  0  0  0
   -1.0494   19.6424  -33.4624 H   0  0  0  0  0  0  0  0  0  0  0  0
   -2.8718   16.9986  -32.9977 H   0  0  0  0  0  0  0  0  0  0  0  0
   -3.3570   16.4407  -34.6300 H   0  0  0  0  0  0  0  0  0  0  0  0
   -1.1803   16.2894  -35.1945 H   0  0  0  0  0  0  0  0  0  0  0  0
   -1.0518   18.1010  -34.9284 H   0  0  0  0  0  0  0  0  0  0  0  0
   -0.8649   14.8510  -33.1192 H   0  0  0  0  0  0  0  0  0  0  0  0
    0.7378   15.0907  -33.7820 H   0  0  0  0  0  0  0  0  0  0  0  0
   -0.0289   14.9612  -30.9387 H   0  0  0  0  0  0  0  0  0  0  0  0
    1.5983   15.2245  -31.5314 H   0  0  0  0  0  0  0  0  0  0  0  0
   -0.1919   16.6372  -29.3060 H   0  0  0  0  0  0  0  0  0  0  0  0
    1.4795   17.3627  -29.5193 H   0  0  0  0  0  0  0  0  0  0  0  0
    0.7175   19.5028  -29.5241 H   0  0  0  0  0  0  0  0  0  0  0  0
   -0.8634   19.0577  -30.2756 H   0  0  0  0  0  0  0  0  0  0  0  0
   -1.6952   18.1849  -28.1908 H   0  0  0  0  0  0  0  0  0  0  0  0
   -0.0131   18.4489  -27.4362 H   0  0  0  0  0  0  0  0  0  0  0  0
   -1.2649   20.0208  -25.4506 H   0  0  0  0  0  0  0  0  0  0  0  0
   -2.6454   20.9441  -26.2879 H   0  0  0  0  0  0  0  0  0  0  0  0
   -3.1042   18.6749  -25.0313 H   0  0  0  0  0  0  0  0  0  0  0  0
   -3.9138   19.1012  -26.5770 H   0  0  0  0  0  0  0  0  0  0  0  0
   -2.5137   17.9759  -26.5770 H   0  0  0  0  0  0  0  0  0  0  0  0
   -1.4988   21.4257  -29.2322 H   0  0  0  0  0  0  0  0  0  0  0  0
   -2.6143   19.9488  -29.0939 H   0  0  0  0  0  0  0  0  0  0  0  0
   -3.2640   21.6544  -26.9461 H   0  0  0  0  0  0  0  0  0  0  0  0
   -3.1544   22.6976  -28.4044 H   0  0  0  0  0  0  0  0  0  0  0  0
   -4.2379   21.2649  -28.4044 H   0  0  0  0  0  0  0  0  0  0  0  0
    0.0717   21.3547  -26.3839 H   0  0  0  0  0  0  0  0  0  0  0  0
    0.7950   20.5843  -27.9182 H   0  0  0  0  0  0  0  0  0  0  0  0
    0.8571   22.7360  -28.5828 H   0  0  0  0  0  0  0  0  0  0  0  0
   -0.8262   22.3356  -29.0733 H   0  0  0  0  0  0  0  0  0  0  0  0
   -1.3443   27.7043  -27.2218 H   0  0  0  0  0  0  0  0  0  0  0  0
   -1.2901   28.6759  -24.8981 H   0  0  0  0  0  0  0  0  0  0  0  0
   -0.8421   27.1974  -22.9261 H   0  0  0  0  0  0  0  0  0  0  0  0
   -0.4758   24.7255  -23.2550 H   0  0  0  0  0  0  0  0  0  0  0  0
    1.5091   18.8173  -31.7295 H   0  0  0  0  0  0  0  0  0  0  0  0
    2.4535   17.3588  -31.9553 H   0  0  0  0  0  0  0  0  0  0  0  0
    0.7082   18.6921  -33.9159 H   0  0  0  0  0  0  0  0  0  0  0  0
    1.6180   17.2237  -34.2075 H   0  0  0  0  0  0  0  0  0  0  0  0
   -1.6623   16.8187  -31.6831 H   0  0  0  0  0  0  0  0  0  0  0  0
   -1.0933   18.4204  -31.9803 H   0  0  0  0  0  0  0  0  0  0  0  0
  1  2  1  0
  2  3  1  0
  3  4  1  0
  4  5  1  0
  3  6  1  0
  6  7  1  0
  7  8  1  0
  8  9  1  0
  9 10  2  0
 10 11  1  0
 11 12  2  0
 12 13  1  0
 13 14  2  0
 14 15  1  0
 15 16  2  0
 16 17  1  0
 16 18  1  0
 18 19  2  0
 19 20  1  0
 20 21  1  0
 20 22  2  0
 22 23  1  0
 23 24  1  0
 24 25  1  0
 25 26  1  0
 27 26  1  6
 27 28  1  0
 28 29  1  0
 29 30  1  0
 30 31  1  1
 31 32  1  0
 32 33  1  0
 33 34  1  0
 34 35  1  0
 35 36  1  0
 34 37  1  0
 37 38  1  0
 34 39  1  0
 39 40  1  0
 40 41  1  0
 41 42  1  0
 42 43  2  0
 42 44  1  0
 44 45  2  0
 45 46  1  0
 46 47  2  0
 47 48  1  0
 48 49  2  0
 49 50  1  0
 50 51  2  0
 30 52  1  0
 52 53  1  0
 30 54  1  0
 23 55  2  0
 55  9  1  0
 15 10  1  0
 55 18  1  0
 53 27  1  0
 54 27  1  0
 50 41  1  0
 49 44  1  0
  1 56  1  0
  1 57  1  0
  1 58  1  0
  2 59  1  0
  2 60  1  0
  4 61  1  0
  4 62  1  0
  5 63  1  0
  5 64  1  0
  5 65  1  0
  6 66  1  0
  6 67  1  0
  7 68  1  0
  7 69  1  0
  8 70  1  0
 11 71  1  0
 12 72  1  0
 13 73  1  0
 14 74  1  0
 17 75  1  0
 17 76  1  0
 17 77  1  0
 19 78  1  0
 21 79  1  0
 21 80  1  0
 21 81  1  0
 22 82  1  0
 25 83  1  0
 25 84  1  0
 26 85  1  0
 26 86  1  0
 28 87  1  0
 28 88  1  0
 29 89  1  0
 29 90  1  0
 31 91  1  0
 31 92  1  0
 32 93  1  0
 32 94  1  0
 33 95  1  0
 33 96  1  0
 35 97  1  0
 35 98  1  0
 36 99  1  0
 36100  1  0
 36101  1  0
 37102  1  0
 37103  1  0
 38104  1  0
 38105  1  0
 38106  1  0
 39107  1  0
 39108  1  0
 40109  1  0
 40110  1  0
 45111  1  0
 46112  1  0
 47113  1  0
 48114  1  0
 52115  1  0
 52116  1  0
 53117  1  0
 53118  1  0
 54119  1  0
 54120  1  0
M  CHG  4  16   1  27   1  30   1  34   1
M  END
>  <UniqueID>  (22) 
22

>  <SMILES>  (22) 
CCN(CC)CCNc1c2ccccc2[n+](C)c2cc(C)cc(OCC[N+]34CC[N+](CCC[N+](CC)(CC)CCN5C(=O)c6ccccc6C5=O)(CC3)C4)c12

>  <Energy>  (22) 
261.2707831654441

>  <Genealogy>  (22) 
CCN(CC)CCNc1c2ccccc2[n+](C)c2cc(C)cc(OCC[N+]34CC[N+](CCC[N+](CC)(CC)CCN5C(=O)c6ccccc6C5=O)(CC3)C4)c12 (3D coordinates assigned)
CCN(CC)CCNc1c2ccccc2[n+](C)c2cc(C)cc(OCC[N+]34CC[N+](CCC[N+](CC)(CC)CCN5C(=O)c6ccccc6C5=O)(CC3)C4)c12 (nonaromatic ring conformer: 261.2707831654441 kcal/mol)

>  <smiles>  (22) 
CCN(CC)CCNc1c2ccccc2[n+](C)c2cc(C)cc(OCC[N+]34CC[N+](CCC[N+](CC)(CC)CCN5C(=O)c6ccccc6C5=O)(CC3)C4)c12

>  <score_type>  (22) 
oracle

>  <origin>  (22) 
adg

>  <m_score__min__energy>  (22) 
-10.56

>  <m_primary>  (22) 
energy

$$$$
22:0
     RDKit          3D

 63 66  0  0  0  0  0  0  0  0999 V2000
   -6.1650   24.6780  -29.7980 C   0  0  0  0  0  0  0  0  0  0  0  0
   -4.9790   25.3300  -30.5050 C   0  0  0  0  0  0  0  0  0  0  0  0
   -3.8020   24.4350  -30.4720 N   0  0  0  0  0  0  0  0  0  0  0  0
   -3.1080   24.5580  -29.1770 C   0  0  0  0  0  0  0  0  0  0  0  0
   -4.1830   23.0260  -30.7250 C   0  0  0  0  0  0  0  0  0  0  0  0
   -3.5180   22.5240  -32.0080 C   0  0  0  0  0  0  0  0  0  0  0  0
   -4.5270   22.1960  -33.0150 N   0  0  0  0  0  0  0  0  0  0  0  0
   -5.4280   21.0880  -32.8340 C   0  0  0  0  0  0  0  0  0  0  0  0
   -6.7700   21.3160  -32.4770 C   0  0  0  0  0  0  0  0  0  0  0  0
   -7.2640   22.6250  -32.2890 C   0  0  0  0  0  0  0  0  0  0  0  0
   -8.6000   22.8430  -31.9600 C   0  0  0  0  0  0  0  0  0  0  0  0
   -9.4670   21.7650  -31.8160 C   0  0  0  0  0  0  0  0  0  0  0  0
   -9.0000   20.4620  -31.9860 C   0  0  0  0  0  0  0  0  0  0  0  0
   -7.6420   20.2080  -32.3030 C   0  0  0  0  0  0  0  0  0  0  0  0
   -7.1640   18.9220  -32.4470 N   0  0  0  0  0  0  0  0  0  0  0  0
   -7.9380   17.7940  -31.8910 C   0  0  0  0  0  0  0  0  0  0  0  0
   -5.9040   18.6970  -32.9650 C   0  0  0  0  0  0  0  0  0  0  0  0
   -4.9870   19.7700  -33.0570 C   0  0  0  0  0  0  0  0  0  0  0  0
   -3.6520   19.4910  -33.3750 C   0  0  0  0  0  0  0  0  0  0  0  0
   -3.2340   18.1760  -33.5670 C   0  0  0  0  0  0  0  0  0  0  0  0
   -1.8890   17.9040  -33.8510 C   0  0  0  0  0  0  0  0  0  0  0  0
   -1.4650   16.5950  -34.0480 C   0  0  0  0  0  0  0  0  0  0  0  0
   -2.3620   15.5410  -33.8870 C   0  0  0  0  0  0  0  0  0  0  0  0
   -3.7070   15.7800  -33.5510 C   0  0  0  0  0  0  0  0  0  0  0  0
   -4.5210   14.5910  -33.0690 C   0  0  0  0  0  0  0  0  0  0  0  0
   -4.7110   14.6010  -31.5440 C   0  0  0  0  0  0  0  0  0  0  0  0
   -4.9360   13.2460  -31.0430 N   0  0  0  0  0  0  0  0  0  0  0  0
   -4.1830   17.1280  -33.5020 C   0  0  0  0  0  0  0  0  0  0  0  0
   -5.5220   17.4520  -33.4300 N   0  0  0  0  0  0  0  0  0  0  0  0
   -6.4780   16.7270  -34.2990 C   0  0  0  0  0  0  0  0  0  0  0  0
   -6.0290   24.7528  -28.7090 H   0  0  0  0  0  0  0  0  0  0  0  0
   -7.0929   25.1928  -30.0878 H   0  0  0  0  0  0  0  0  0  0  0  0
   -6.2275   23.6187  -30.0878 H   0  0  0  0  0  0  0  0  0  0  0  0
   -5.2491   25.5348  -31.5515 H   0  0  0  0  0  0  0  0  0  0  0  0
   -4.7279   26.2680  -29.9882 H   0  0  0  0  0  0  0  0  0  0  0  0
   -3.8323   24.4296  -28.3592 H   0  0  0  0  0  0  0  0  0  0  0  0
   -2.3302   23.7837  -29.1028 H   0  0  0  0  0  0  0  0  0  0  0  0
   -2.6437   25.5524  -29.1028 H   0  0  0  0  0  0  0  0  0  0  0  0
   -3.8572   22.4034  -29.8787 H   0  0  0  0  0  0  0  0  0  0  0  0
   -5.2754   22.9630  -30.8372 H   0  0  0  0  0  0  0  0  0  0  0  0
   -2.8548   23.3080  -32.4024 H   0  0  0  0  0  0  0  0  0  0  0  0
   -2.9391   21.6177  -31.7769 H   0  0  0  0  0  0  0  0  0  0  0  0
   -4.4010   22.5850  -33.9770 H   0  0  0  0  0  0  0  0  0  0  0  0
   -6.5857   23.4833  -32.4037 H   0  0  0  0  0  0  0  0  0  0  0  0
   -8.9696   23.8687  -31.8140 H   0  0  0  0  0  0  0  0  0  0  0  0
  -10.5240   21.9407  -31.5673 H   0  0  0  0  0  0  0  0  0  0  0  0
   -9.6964   19.6181  -31.8723 H   0  0  0  0  0  0  0  0  0  0  0  0
   -7.9093   17.8359  -30.7922 H   0  0  0  0  0  0  0  0  0  0  0  0
   -8.9812   17.8611  -32.2333 H   0  0  0  0  0  0  0  0  0  0  0  0
   -7.5001   16.8448  -32.2333 H   0  0  0  0  0  0  0  0  0  0  0  0
   -2.9295   20.3146  -33.4737 H   0  0  0  0  0  0  0  0  0  0  0  0
   -1.1656   18.7300  -33.9183 H   0  0  0  0  0  0  0  0  0  0  0  0
   -0.4217   16.3913  -34.3309 H   0  0  0  0  0  0  0  0  0  0  0  0
   -2.0133   14.5068  -34.0246 H   0  0  0  0  0  0  0  0  0  0  0  0
   -5.5099   14.6197  -33.5499 H   0  0  0  0  0  0  0  0  0  0  0  0
   -3.9738   13.6750  -33.3363 H   0  0  0  0  0  0  0  0  0  0  0  0
   -3.8092   15.0161  -31.0703 H   0  0  0  0  0  0  0  0  0  0  0  0
   -5.5882   15.2185  -31.3007 H   0  0  0  0  0  0  0  0  0  0  0  0
   -4.0000   12.8110  -30.8730 H   0  0  0  0  0  0  0  0  0  0  0  0
   -5.4020   13.3140  -30.1090 H   0  0  0  0  0  0  0  0  0  0  0  0
   -7.1993   16.1800  -33.6741 H   0  0  0  0  0  0  0  0  0  0  0  0
   -7.0150   17.4470  -34.9340 H   0  0  0  0  0  0  0  0  0  0  0  0
   -5.9295   16.0157  -34.9340 H   0  0  0  0  0  0  0  0  0  0  0  0
  1  2  1  0
  2  3  1  0
  3  4  1  0
  3  5  1  0
  5  6  1  0
  6  7  1  0
  7  8  1  0
  8  9  2  0
  9 10  1  0
 10 11  2  0
 11 12  1  0
 12 13  2  0
 13 14  1  0
 14 15  2  0
 15 16  1  0
 15 17  1  0
 17 18  2  0
 18 19  1  0
 19 20  2  0
 20 21  1  0
 21 22  2  0
 22 23  1  0
 23 24  2  0
 24 25  1  0
 25 26  1  0
 26 27  1  0
 24 28  1  0
 28 29  2  0
 29 30  1  0
 18  8  1  0
 28 20  1  0
 14  9  1  0
 29 17  1  0
  1 31  1  0
  1 32  1  0
  1 33  1  0
  2 34  1  0
  2 35  1  0
  4 36  1  0
  4 37  1  0
  4 38  1  0
  5 39  1  0
  5 40  1  0
  6 41  1  0
  6 42  1  0
  7 43  1  0
 10 44  1  0
 11 45  1  0
 12 46  1  0
 13 47  1  0
 16 48  1  0
 16 49  1  0
 16 50  1  0
 19 51  1  0
 21 52  1  0
 22 53  1  0
 23 54  1  0
 25 55  1  0
 25 56  1  0
 26 57  1  0
 26 58  1  0
 27 59  1  0
 27 60  1  0
 30 61  1  0
 30 62  1  0
 30 63  1  0
M  CHG  2  15   1  29   1
M  END
>  <UniqueID>  (23) 
23

>  <SMILES>  (23) 
CCN(C)CCNc1c2ccccc2[n+](C)c2c1cc1cccc(CCN)c1[n+]2C

>  <Energy>  (23) 
117.8157976014641

>  <Genealogy>  (23) 
CCN(C)CCNc1c2ccccc2[n+](C)c2c1cc1cccc(CCN)c1[n+]2C (3D coordinates assigned)
CCN(C)CCNc1c2ccccc2[n+](C)c2c1cc1cccc(CCN)c1[n+]2C (optimized conformer: 117.8157976014641 kcal/mol)

>  <smiles>  (23) 
CCN(C)CCNc1c2ccccc2[n+](C)c2c1cc1cccc(CCN)c1[n+]2C

>  <score_type>  (23) 
oracle

>  <origin>  (23) 
adg

>  <m_score__min__energy>  (23) 
-8.8100000000000005

>  <m_primary>  (23) 
energy

$$$$
23:0
     RDKit          3D

 62 64  0  0  0  0  0  0  0  0999 V2000
   -3.0270   21.1130  -29.0210 C   0  0  0  0  0  0  0  0  0  0  0  0
   -1.7160   21.0130  -29.6880 N   0  0  0  0  0  0  0  0  0  0  0  0
   -0.7790   20.2880  -28.8150 C   0  0  0  0  0  0  0  0  0  0  0  0
   -1.1800   22.3530  -30.0140 C   0  0  0  0  0  0  0  0  0  0  0  0
   -2.2040   23.4420  -29.6750 C   0  0  0  0  0  0  0  0  0  0  0  0
   -3.0690   23.6890  -30.7870 O   0  0  0  0  0  0  0  0  0  0  0  0
   -4.4620   23.8790  -30.7360 C   0  0  0  0  0  0  0  0  0  0  0  0
   -5.0060   25.0560  -30.1920 C   0  0  0  0  0  0  0  0  0  0  0  0
   -6.3760   25.2050  -30.0540 C   0  0  0  0  0  0  0  0  0  0  0  0
   -7.2380   24.2010  -30.4730 C   0  0  0  0  0  0  0  0  0  0  0  0
   -6.7480   23.0220  -31.0850 C   0  0  0  0  0  0  0  0  0  0  0  0
   -5.3360   22.8590  -31.2140 C   0  0  0  0  0  0  0  0  0  0  0  0
   -4.8500   21.6700  -31.8110 C   0  0  0  0  0  0  0  0  0  0  0  0
   -3.4770   21.5530  -32.2200 N   0  0  0  0  0  0  0  0  0  0  0  0
   -3.1220   21.1110  -33.5710 C   0  0  0  0  0  0  0  0  0  0  0  0
   -1.6400   20.7240  -33.6630 C   0  0  0  0  0  0  0  0  0  0  0  0
   -1.3760   19.2690  -33.2030 C   0  0  0  0  0  0  0  0  0  0  0  0
   -0.6090   19.1980  -31.9360 N   0  0  0  0  0  0  0  0  0  0  0  0
   -0.2650   17.7960  -31.6360 C   0  0  0  0  0  0  0  0  0  0  0  0
    0.6250   20.0030  -32.0120 C   0  0  0  0  0  0  0  0  0  0  0  0
   -5.7320   20.5960  -32.0290 C   0  0  0  0  0  0  0  0  0  0  0  0
   -5.2430   19.3230  -32.3940 C   0  0  0  0  0  0  0  0  0  0  0  0
   -6.1150   18.2530  -32.5800 C   0  0  0  0  0  0  0  0  0  0  0  0
   -7.4800   18.4250  -32.3870 C   0  0  0  0  0  0  0  0  0  0  0  0
   -7.9830   19.6730  -32.0220 C   0  0  0  0  0  0  0  0  0  0  0  0
   -7.1240   20.7900  -31.8590 C   0  0  0  0  0  0  0  0  0  0  0  0
   -7.6110   22.0410  -31.5370 N   0  0  0  0  0  0  0  0  0  0  0  0
   -9.0540   22.3320  -31.6900 C   0  0  0  0  0  0  0  0  0  0  0  0
   -2.8852   21.1022  -27.9302 H   0  0  0  0  0  0  0  0  0  0  0  0
   -3.5187   22.0513  -29.3176 H   0  0  0  0  0  0  0  0  0  0  0  0
   -3.6553   20.2602  -29.3176 H   0  0  0  0  0  0  0  0  0  0  0  0
   -1.0321   20.4838  -27.7626 H   0  0  0  0  0  0  0  0  0  0  0  0
   -0.8519   19.2088  -29.0149 H   0  0  0  0  0  0  0  0  0  0  0  0
    0.2474   20.6295  -29.0149 H   0  0  0  0  0  0  0  0  0  0  0  0
   -0.2624   22.5263  -29.4327 H   0  0  0  0  0  0  0  0  0  0  0  0
   -0.9621   22.3948  -31.0914 H   0  0  0  0  0  0  0  0  0  0  0  0
   -2.8067   23.1152  -28.8148 H   0  0  0  0  0  0  0  0  0  0  0  0
   -1.6652   24.3703  -29.4342 H   0  0  0  0  0  0  0  0  0  0  0  0
   -4.3358   25.8676  -29.8724 H   0  0  0  0  0  0  0  0  0  0  0  0
   -6.7836   26.1249  -29.6095 H   0  0  0  0  0  0  0  0  0  0  0  0
   -8.3214   24.3235  -30.3270 H   0  0  0  0  0  0  0  0  0  0  0  0
   -2.7280   21.6200  -31.4950 H   0  0  0  0  0  0  0  0  0  0  0  0
   -3.7368   20.2378  -33.8348 H   0  0  0  0  0  0  0  0  0  0  0  0
   -3.3060   21.9430  -34.2666 H   0  0  0  0  0  0  0  0  0  0  0  0
   -1.3127   20.8282  -34.7080 H   0  0  0  0  0  0  0  0  0  0  0  0
   -1.0784   21.3926  -32.9939 H   0  0  0  0  0  0  0  0  0  0  0  0
   -2.3430   18.7654  -33.0573 H   0  0  0  0  0  0  0  0  0  0  0  0
   -0.7745   18.7788  -33.9826 H   0  0  0  0  0  0  0  0  0  0  0  0
   -1.2000   19.5550  -31.1480 H   0  0  0  0  0  0  0  0  0  0  0  0
   -0.2297   17.6523  -30.5460 H   0  0  0  0  0  0  0  0  0  0  0  0
   -1.0266   17.1309  -32.0691 H   0  0  0  0  0  0  0  0  0  0  0  0
    0.7180   17.5589  -32.0691 H   0  0  0  0  0  0  0  0  0  0  0  0
    0.9764   20.2323  -30.9952 H   0  0  0  0  0  0  0  0  0  0  0  0
    1.4000   19.4362  -32.5487 H   0  0  0  0  0  0  0  0  0  0  0  0
    0.4186   20.9407  -32.5487 H   0  0  0  0  0  0  0  0  0  0  0  0
   -4.1620   19.1746  -32.5330 H   0  0  0  0  0  0  0  0  0  0  0  0
   -5.7223   17.2703  -32.8802 H   0  0  0  0  0  0  0  0  0  0  0  0
   -8.1651   17.5751  -32.5224 H   0  0  0  0  0  0  0  0  0  0  0  0
   -9.0640   19.7935  -31.8577 H   0  0  0  0  0  0  0  0  0  0  0  0
   -9.5166   22.4253  -30.6964 H   0  0  0  0  0  0  0  0  0  0  0  0
   -9.1814   23.2739  -32.2437 H   0  0  0  0  0  0  0  0  0  0  0  0
   -9.5365   21.5131  -32.2437 H   0  0  0  0  0  0  0  0  0  0  0  0
  1  2  1  0
  2  3  1  0
  2  4  1  0
  4  5  1  0
  5  6  1  0
  6  7  1  0
  7  8  2  0
  8  9  1  0
  9 10  2  0
 10 11  1  0
 11 12  2  0
 12 13  1  0
 13 14  1  0
 14 15  1  0
 15 16  1  0
 16 17  1  0
 17 18  1  0
 18 19  1  0
 18 20  1  0
 13 21  2  0
 21 22  1  0
 22 23  2  0
 23 24  1  0
 24 25  2  0
 25 26  1  0
 26 27  2  0
 27 28  1  0
 12  7  1  0
 26 21  1  0
 27 11  1  0
  1 29  1  0
  1 30  1  0
  1 31  1  0
  3 32  1  0
  3 33  1  0
  3 34  1  0
  4 35  1  0
  4 36  1  0
  5 37  1  0
  5 38  1  0
  8 39  1  0
  9 40  1  0
 10 41  1  0
 14 42  1  0
 15 43  1  0
 15 44  1  0
 16 45  1  0
 16 46  1  0
 17 47  1  0
 17 48  1  0
 18 49  1  0
 19 50  1  0
 19 51  1  0
 19 52  1  0
 20 53  1  0
 20 54  1  0
 20 55  1  0
 22 56  1  0
 23 57  1  0
 24 58  1  0
 25 59  1  0
 28 60  1  0
 28 61  1  0
 28 62  1  0
M  CHG  2  18   1  27   1
M  END
>  <UniqueID>  (24) 
24

>  <SMILES>  (24) 
CN(C)CCOc1cccc2c1c(NCCC[NH+](C)C)c1ccccc1[n+]2C

>  <Energy>  (24) 
92.0430193078909

>  <Genealogy>  (24) 
CN(C)CCOc1cccc2c1c(NCCC[NH+](C)C)c1ccccc1[n+]2C (protonated)
CN(C)CCOc1cccc2c1c(NCCC[NH+](C)C)c1ccccc1[n+]2C (3D coordinates assigned)
CN(C)CCOc1cccc2c1c(NCCC[NH+](C)C)c1ccccc1[n+]2C (optimized conformer: 92.0430193078909 kcal/mol)

>  <smiles>  (24) 
CN(C)CCCNc1c2ccccc2[n+](C)c2cccc(OCCN(C)C)c12

>  <score_type>  (24) 
oracle

>  <origin>  (24) 
adg

>  <m_score__min__energy>  (24) 
-6.0099999999999998

>  <m_primary>  (24) 
energy

$$$$
24:0
     RDKit          3D

 79 81  0  0  0  0  0  0  0  0999 V2000
   -1.0570   22.6580  -27.1030 C   0  0  0  0  0  0  0  0  0  0  0  0
   -0.1270   21.6840  -27.8230 C   0  0  0  0  0  0  0  0  0  0  0  0
   -0.7050   20.3190  -27.8580 N   0  0  0  0  0  0  0  0  0  0  0  0
   -1.9990   20.2980  -27.1300 C   0  0  0  0  0  0  0  0  0  0  0  0
   -2.4060   18.8790  -26.7110 C   0  0  0  0  0  0  0  0  0  0  0  0
   -0.8480   19.8260  -29.2510 C   0  0  0  0  0  0  0  0  0  0  0  0
   -0.5860   20.9640  -30.2430 C   0  0  0  0  0  0  0  0  0  0  0  0
   -1.7370   21.2030  -31.0390 O   0  0  0  0  0  0  0  0  0  0  0  0
   -2.9190   20.8020  -30.3730 C   0  0  0  0  0  0  0  0  0  0  0  0
   -3.6080   21.9940  -29.6940 C   0  0  0  0  0  0  0  0  0  0  0  0
   -4.3740   22.9110  -30.6690 C   0  0  0  0  0  0  0  0  0  0  0  0
   -4.4140   22.3930  -32.0440 N   0  0  0  0  0  0  0  0  0  0  0  0
   -5.3880   21.4260  -32.4710 C   0  0  0  0  0  0  0  0  0  0  0  0
   -6.7530   21.7290  -32.3130 C   0  0  0  0  0  0  0  0  0  0  0  0
   -7.1890   23.0630  -32.1820 C   0  0  0  0  0  0  0  0  0  0  0  0
   -8.5400   23.3580  -32.0100 C   0  0  0  0  0  0  0  0  0  0  0  0
   -9.4770   22.3320  -31.9860 C   0  0  0  0  0  0  0  0  0  0  0  0
   -9.0700   21.0050  -32.1380 C   0  0  0  0  0  0  0  0  0  0  0  0
   -7.6990   20.6790  -32.2880 C   0  0  0  0  0  0  0  0  0  0  0  0
   -7.2720   19.3750  -32.3940 N   0  0  0  0  0  0  0  0  0  0  0  0
   -8.1550   18.2740  -31.9530 C   0  0  0  0  0  0  0  0  0  0  0  0
   -6.0060   19.1050  -32.8790 C   0  0  0  0  0  0  0  0  0  0  0  0
   -5.6700   17.8020  -33.3090 C   0  0  0  0  0  0  0  0  0  0  0  0
   -4.3960   17.4940  -33.7510 C   0  0  0  0  0  0  0  0  0  0  0  0
   -3.4330   18.4810  -33.8380 C   0  0  0  0  0  0  0  0  0  0  0  0
   -3.7070   19.8130  -33.4740 C   0  0  0  0  0  0  0  0  0  0  0  0
   -2.6930   20.8010  -33.8210 N   0  0  0  0  0  0  0  0  0  0  0  0
   -1.4000   20.2560  -34.3000 C   0  0  0  0  0  0  0  0  0  0  0  0
   -0.2110   21.2290  -34.1570 C   0  0  0  0  0  0  0  0  0  0  0  0
    0.2500   21.7610  -35.5220 C   0  0  0  0  0  0  0  0  0  0  0  0
    1.1190   22.9440  -35.3380 N   0  0  0  0  0  0  0  0  0  0  0  0
    0.6360   24.0720  -36.1530 C   0  0  0  0  0  0  0  0  0  0  0  0
    2.5160   22.6370  -35.6940 C   0  0  0  0  0  0  0  0  0  0  0  0
   -5.0100   20.1370  -32.9440 C   0  0  0  0  0  0  0  0  0  0  0  0
   -0.9426   22.5382  -26.0155 H   0  0  0  0  0  0  0  0  0  0  0  0
   -0.7996   23.6889  -27.3874 H   0  0  0  0  0  0  0  0  0  0  0  0
   -2.0987   22.4485  -27.3874 H   0  0  0  0  0  0  0  0  0  0  0  0
    0.0306   22.0337  -28.8540 H   0  0  0  0  0  0  0  0  0  0  0  0
    0.8272   21.6448  -27.2772 H   0  0  0  0  0  0  0  0  0  0  0  0
   -1.9081   20.9212  -26.2281 H   0  0  0  0  0  0  0  0  0  0  0  0
   -2.7740   20.6850  -27.8080 H   0  0  0  0  0  0  0  0  0  0  0  0
   -2.4252   18.8121  -25.6132 H   0  0  0  0  0  0  0  0  0  0  0  0
   -3.4056   18.6515  -27.1097 H   0  0  0  0  0  0  0  0  0  0  0  0
   -1.6790   18.1562  -27.1097 H   0  0  0  0  0  0  0  0  0  0  0  0
   -0.1239   19.0168  -29.4265 H   0  0  0  0  0  0  0  0  0  0  0  0
   -1.8718   19.4509  -29.3963 H   0  0  0  0  0  0  0  0  0  0  0  0
   -0.3341   21.8788  -29.6865 H   0  0  0  0  0  0  0  0  0  0  0  0
    0.2487   20.6787  -30.9002 H   0  0  0  0  0  0  0  0  0  0  0  0
   -3.6098   20.3581  -31.1050 H   0  0  0  0  0  0  0  0  0  0  0  0
   -2.6496   20.0691  -29.5982 H   0  0  0  0  0  0  0  0  0  0  0  0
   -4.3207   21.6053  -28.9517 H   0  0  0  0  0  0  0  0  0  0  0  0
   -2.8145   22.6044  -29.2381 H   0  0  0  0  0  0  0  0  0  0  0  0
   -5.4069   23.0204  -30.3069 H   0  0  0  0  0  0  0  0  0  0  0  0
   -3.8411   23.8729  -30.6985 H   0  0  0  0  0  0  0  0  0  0  0  0
   -4.0130   23.0260  -32.7750 H   0  0  0  0  0  0  0  0  0  0  0  0
   -6.4541   23.8808  -32.2159 H   0  0  0  0  0  0  0  0  0  0  0  0
   -8.8646   24.4025  -31.8933 H   0  0  0  0  0  0  0  0  0  0  0  0
  -10.5428   22.5660  -31.8468 H   0  0  0  0  0  0  0  0  0  0  0  0
   -9.8227   20.2029  -32.1414 H   0  0  0  0  0  0  0  0  0  0  0  0
   -8.1804   18.2423  -30.8538 H   0  0  0  0  0  0  0  0  0  0  0  0
   -9.1714   18.4422  -32.3386 H   0  0  0  0  0  0  0  0  0  0  0  0
   -7.7701   17.3184  -32.3386 H   0  0  0  0  0  0  0  0  0  0  0  0
   -6.4384   17.0150  -33.2920 H   0  0  0  0  0  0  0  0  0  0  0  0
   -4.1488   16.4602  -34.0341 H   0  0  0  0  0  0  0  0  0  0  0  0
   -2.4279   18.2196  -34.2005 H   0  0  0  0  0  0  0  0  0  0  0  0
   -3.0680   21.4130  -34.5860 H   0  0  0  0  0  0  0  0  0  0  0  0
   -2.5430   21.4640  -33.0310 H   0  0  0  0  0  0  0  0  0  0  0  0
   -1.1736   19.3475  -33.7226 H   0  0  0  0  0  0  0  0  0  0  0  0
   -1.5193   20.0590  -35.3756 H   0  0  0  0  0  0  0  0  0  0  0  0
   -0.5176   22.0777  -33.5279 H   0  0  0  0  0  0  0  0  0  0  0  0
    0.6273   20.6837  -33.6987 H   0  0  0  0  0  0  0  0  0  0  0  0
    0.8116   20.9751  -36.0483 H   0  0  0  0  0  0  0  0  0  0  0  0
   -0.6317   22.0497  -36.1130 H   0  0  0  0  0  0  0  0  0  0  0  0
    0.2899   24.8802  -35.4920 H   0  0  0  0  0  0  0  0  0  0  0  0
    1.4543   24.4426  -36.7878 H   0  0  0  0  0  0  0  0  0  0  0  0
   -0.1969   23.7355  -36.7878 H   0  0  0  0  0  0  0  0  0  0  0  0
    3.1082   22.5069  -34.7762 H   0  0  0  0  0  0  0  0  0  0  0  0
    2.5484   21.7103  -36.2858 H   0  0  0  0  0  0  0  0  0  0  0  0
    2.9340   23.4647  -36.2858 H   0  0  0  0  0  0  0  0  0  0  0  0
  1  2  1  0
  2  3  1  0
  3  4  1  0
  4  5  1  0
  3  6  1  0
  6  7  1  0
  7  8  1  0
  8  9  1  0
  9 10  1  0
 10 11  1  0
 11 12  1  0
 12 13  1  0
 13 14  2  0
 14 15  1  0
 15 16  2  0
 16 17  1  0
 17 18  2  0
 18 19  1  0
 19 20  2  0
 20 21  1  0
 20 22  1  0
 22 23  2  0
 23 24  1  0
 24 25  2  0
 25 26  1  0
 26 27  1  0
 27 28  1  0
 28 29  1  0
 29 30  1  0
 30 31  1  0
 31 32  1  0
 31 33  1  0
 26 34  2  0
 34 13  1  0
 19 14  1  0
 34 22  1  0
  1 35  1  0
  1 36  1  0
  1 37  1  0
  2 38  1  0
  2 39  1  0
  4 40  1  0
  4 41  1  0
  5 42  1  0
  5 43  1  0
  5 44  1  0
  6 45  1  0
  6 46  1  0
  7 47  1  0
  7 48  1  0
  9 49  1  0
  9 50  1  0
 10 51  1  0
 10 52  1  0
 11 53  1  0
 11 54  1  0
 12 55  1  0
 15 56  1  0
 16 57  1  0
 17 58  1  0
 18 59  1  0
 21 60  1  0
 21 61  1  0
 21 62  1  0
 23 63  1  0
 24 64  1  0
 25 65  1  0
 27 66  1  0
 27 67  1  0
 28 68  1  0
 28 69  1  0
 29 70  1  0
 29 71  1  0
 30 72  1  0
 30 73  1  0
 32 74  1  0
 32 75  1  0
 32 76  1  0
 33 77  1  0
 33 78  1  0
 33 79  1  0
M  CHG  2  20   1  27   1
M  END
>  <UniqueID>  (25) 
25

>  <SMILES>  (25) 
CCN(CC)CCOCCCNc1c2ccccc2[n+](C)c2cccc([NH2+]CCCN(C)C)c12

>  <Energy>  (25) 
118.04084707827639

>  <Genealogy>  (25) 
CCN(CC)CCOCCCNc1c2ccccc2[n+](C)c2cccc([NH2+]CCCN(C)C)c12 (protonated)
CCN(CC)CCOCCCNc1c2ccccc2[n+](C)c2cccc([NH2+]CCCN(C)C)c12 (3D coordinates assigned)
CCN(CC)CCOCCCNc1c2ccccc2[n+](C)c2cccc([NH2+]CCCN(C)C)c12 (optimized conformer: 118.04084707827639 kcal/mol)

>  <smiles>  (25) 
CCN(CC)CCOCCCNc1c2ccccc2[n+](C)c2cccc(NCCCN(C)C)c12

>  <score_type>  (25) 
oracle

>  <origin>  (25) 
adg

>  <m_score__min__energy>  (25) 
-8.3800000000000008

>  <m_primary>  (25) 
energy

$$$$
25:0
     RDKit          3D

 46 47  0  0  0  0  0  0  0  0999 V2000
   -0.1670   23.2000  -28.9490 C   0  0  0  0  0  0  0  0  0  0  0  0
   -1.0160   22.2590  -29.7980 C   0  0  0  0  0  0  0  0  0  0  0  0
   -2.4360   22.6810  -29.7650 N   0  0  0  0  0  0  0  0  0  0  0  0
   -3.3090   21.5880  -29.2780 C   0  0  0  0  0  0  0  0  0  0  0  0
   -2.6960   20.9320  -28.0420 C   0  0  0  0  0  0  0  0  0  0  0  0
   -2.6090   23.9090  -28.9520 C   0  0  0  0  0  0  0  0  0  0  0  0
   -3.9880   24.5270  -29.1950 C   0  0  0  0  0  0  0  0  0  0  0  0
   -4.0090   25.1300  -30.4720 O   0  0  0  0  0  0  0  0  0  0  0  0
   -5.3380   25.3040  -30.9260 C   0  0  0  0  0  0  0  0  0  0  0  0
   -5.8150   24.1140  -31.7700 C   0  0  0  0  0  0  0  0  0  0  0  0
   -4.9650   22.9420  -31.5550 N   0  0  0  0  0  0  0  0  0  0  0  0
   -5.2700   21.6770  -32.1660 C   0  0  0  0  0  0  0  0  0  0  0  0
   -4.2440   20.9230  -32.7620 C   0  0  0  0  0  0  0  0  0  0  0  0
   -2.5930   21.5260  -32.8280 Cl  0  0  0  0  0  0  0  0  0  0  0  0
   -4.5270   19.6840  -33.3430 C   0  0  0  0  0  0  0  0  0  0  0  0
   -5.8250   19.1660  -33.3310 C   0  0  0  0  0  0  0  0  0  0  0  0
   -6.1070   17.4540  -34.1540 Br  0  0  0  0  0  0  0  0  0  0  0  0
   -6.8640   19.8980  -32.7190 C   0  0  0  0  0  0  0  0  0  0  0  0
   -8.1830   19.4130  -32.6570 C   0  0  0  0  0  0  0  0  0  0  0  0
   -9.1760   20.1590  -32.0240 C   0  0  0  0  0  0  0  0  0  0  0  0
   -8.8520   21.3870  -31.4520 C   0  0  0  0  0  0  0  0  0  0  0  0
   -7.5780   21.8520  -31.5170 N   0  0  0  0  0  0  0  0  0  0  0  0
   -6.5810   21.1600  -32.1350 C   0  0  0  0  0  0  0  0  0  0  0  0
   -0.3496   22.9976  -27.8833 H   0  0  0  0  0  0  0  0  0  0  0  0
    0.8972   23.0388  -29.1757 H   0  0  0  0  0  0  0  0  0  0  0  0
   -0.4365   24.2421  -29.1757 H   0  0  0  0  0  0  0  0  0  0  0  0
   -0.6545   22.2809  -30.8367 H   0  0  0  0  0  0  0  0  0  0  0  0
   -0.9351   21.2392  -29.3936 H   0  0  0  0  0  0  0  0  0  0  0  0
   -4.2957   21.9995  -29.0190 H   0  0  0  0  0  0  0  0  0  0  0  0
   -3.4127   20.8322  -30.0705 H   0  0  0  0  0  0  0  0  0  0  0  0
   -3.1218   21.3876  -27.1358 H   0  0  0  0  0  0  0  0  0  0  0  0
   -2.9187   19.8548  -28.0501 H   0  0  0  0  0  0  0  0  0  0  0  0
   -1.6062   21.0812  -28.0501 H   0  0  0  0  0  0  0  0  0  0  0  0
   -2.5100   23.6540  -27.8866 H   0  0  0  0  0  0  0  0  0  0  0  0
   -1.8380   24.6378  -29.2425 H   0  0  0  0  0  0  0  0  0  0  0  0
   -4.7567   23.7417  -29.1464 H   0  0  0  0  0  0  0  0  0  0  0  0
   -4.1936   25.2853  -28.4252 H   0  0  0  0  0  0  0  0  0  0  0  0
   -6.0005   25.4100  -30.0543 H   0  0  0  0  0  0  0  0  0  0  0  0
   -5.3672   26.2037  -31.5581 H   0  0  0  0  0  0  0  0  0  0  0  0
   -6.8487   23.8649  -31.4881 H   0  0  0  0  0  0  0  0  0  0  0  0
   -5.7613   24.3948  -32.8322 H   0  0  0  0  0  0  0  0  0  0  0  0
   -3.9840   23.0980  -31.2300 H   0  0  0  0  0  0  0  0  0  0  0  0
   -3.7175   19.1088  -33.8160 H   0  0  0  0  0  0  0  0  0  0  0  0
   -8.4317   18.4417  -33.1096 H   0  0  0  0  0  0  0  0  0  0  0  0
  -10.2078   19.7807  -31.9766 H   0  0  0  0  0  0  0  0  0  0  0  0
   -9.6287   21.9804  -30.9473 H   0  0  0  0  0  0  0  0  0  0  0  0
  1  2  1  0
  2  3  1  0
  3  4  1  0
  4  5  1  0
  3  6  1  0
  6  7  1  0
  7  8  1  0
  8  9  1  0
  9 10  1  0
 10 11  1  0
 11 12  1  0
 12 13  2  0
 13 14  1  0
 13 15  1  0
 15 16  2  0
 16 17  1  0
 16 18  1  0
 18 19  2  0
 19 20  1  0
 20 21  2  0
 21 22  1  0
 22 23  2  0
 23 12  1  0
 23 18  1  0
  1 24  1  0
  1 25  1  0
  1 26  1  0
  2 27  1  0
  2 28  1  0
  4 29  1  0
  4 30  1  0
  5 31  1  0
  5 32  1  0
  5 33  1  0
  6 34  1  0
  6 35  1  0
  7 36  1  0
  7 37  1  0
  9 38  1  0
  9 39  1  0
 10 40  1  0
 10 41  1  0
 11 42  1  0
 15 43  1  0
 19 44  1  0
 20 45  1  0
 21 46  1  0
M  END
>  <UniqueID>  (26) 
26

>  <SMILES>  (26) 
CCN(CC)CCOCCNc1c(Cl)cc(Br)c2cccnc12

>  <Energy>  (26) 
50.33578535991909

>  <Genealogy>  (26) 
CCN(CC)CCOCCNc1c(Cl)cc(Br)c2cccnc12 (3D coordinates assigned)
CCN(CC)CCOCCNc1c(Cl)cc(Br)c2cccnc12 (optimized conformer: 50.33578535991909 kcal/mol)

>  <smiles>  (26) 
CCN(CC)CCOCCNc1c(Cl)cc(Br)c2cccnc12

>  <score_type>  (26) 
oracle

>  <origin>  (26) 
adg

>  <m_score__min__energy>  (26) 
-8.6699999999999999

>  <m_primary>  (26) 
energy

$$$$
26:0
     RDKit          3D

 36 37  0  0  0  0  0  0  0  0999 V2000
   -4.1360   23.0280  -32.3920 H   0  0  0  0  0  0  0  0  0  0  0  0
   -4.5790   22.1330  -32.7040 N   0  0  0  0  0  0  0  0  0  0  0  0
   -5.7870   21.8050  -32.3640 C   0  0  0  0  0  0  0  0  0  0  0  0
   -6.1520   20.3720  -32.2080 C   0  0  0  0  0  0  0  0  0  0  0  0
   -5.1880   19.3620  -32.3900 C   0  0  0  0  0  0  0  0  0  0  0  0
   -4.1550   19.6349  -32.6518 H   0  0  0  0  0  0  0  0  0  0  0  0
   -5.5320   18.0170  -32.2410 C   0  0  0  0  0  0  0  0  0  0  0  0
   -4.7711   17.2364  -32.3882 H   0  0  0  0  0  0  0  0  0  0  0  0
   -6.8380   17.6610  -31.9060 C   0  0  0  0  0  0  0  0  0  0  0  0
   -7.1049   16.6008  -31.7844 H   0  0  0  0  0  0  0  0  0  0  0  0
   -7.8060   18.6490  -31.7250 C   0  0  0  0  0  0  0  0  0  0  0  0
   -8.8325   18.3629  -31.4521 H   0  0  0  0  0  0  0  0  0  0  0  0
   -7.4820   20.0050  -31.8880 C   0  0  0  0  0  0  0  0  0  0  0  0
   -8.5510   21.0440  -31.6460 C   0  0  0  0  0  0  0  0  0  0  0  0
   -9.5089   20.6609  -32.0276 H   0  0  0  0  0  0  0  0  0  0  0  0
   -8.5955   21.2338  -30.5634 H   0  0  0  0  0  0  0  0  0  0  0  0
   -8.2390   22.3810  -32.3450 C   0  0  1  0  0  0  0  0  0  0  0  0
   -8.2807   22.1982  -33.4289 H   0  0  0  0  0  0  0  0  0  0  0  0
   -9.3020   23.4360  -32.0080 C   0  0  0  0  0  0  0  0  0  0  0  0
   -9.3943   23.5276  -30.9157 H   0  0  0  0  0  0  0  0  0  0  0  0
   -9.0040   24.4057  -32.4334 H   0  0  0  0  0  0  0  0  0  0  0  0
  -10.2694   23.1307  -32.4334 H   0  0  0  0  0  0  0  0  0  0  0  0
   -6.7970   22.8860  -32.0610 C   0  0  1  0  0  0  0  0  0  0  0  0
   -6.6596   23.7491  -32.7290 H   0  0  0  0  0  0  0  0  0  0  0  0
   -6.5750   23.3900  -30.6470 C   0  0  0  0  0  0  0  0  0  0  0  0
   -7.0800   22.7610  -29.6770 O   0  0  0  0  0  0  0  0  0  0  0  0
   -5.7230   24.5230  -30.3850 N   0  0  0  0  0  0  0  0  0  0  0  0
   -4.4440   24.5510  -30.8510 O   0  0  0  0  0  0  0  0  0  0  0  0
   -3.6580   23.8210  -29.9390 C   0  0  0  0  0  0  0  0  0  0  0  0
   -3.9455   24.0880  -28.9114 H   0  0  0  0  0  0  0  0  0  0  0  0
   -3.8184   22.7442  -30.0966 H   0  0  0  0  0  0  0  0  0  0  0  0
   -2.5960   24.0604  -30.0966 H   0  0  0  0  0  0  0  0  0  0  0  0
   -6.1690   25.5790  -29.4750 C   0  0  0  0  0  0  0  0  0  0  0  0
   -6.0299   25.2495  -28.4348 H   0  0  0  0  0  0  0  0  0  0  0  0
   -5.5788   26.4900  -29.6532 H   0  0  0  0  0  0  0  0  0  0  0  0
   -7.2336   25.7911  -29.6532 H   0  0  0  0  0  0  0  0  0  0  0  0
  1  2  1  0
  2  3  2  0
  3  4  1  0
  4  5  2  0
  5  6  1  0
  5  7  1  0
  7  8  1  0
  7  9  2  0
  9 10  1  0
  9 11  1  0
 11 12  1  0
 11 13  2  0
 13 14  1  0
 14 15  1  0
 14 16  1  0
 14 17  1  0
 17 18  1  6
 17 19  1  0
 19 20  1  0
 19 21  1  0
 19 22  1  0
 17 23  1  0
 23 24  1  6
 23 25  1  0
 25 26  2  0
 25 27  1  0
 27 28  1  0
 28 29  1  0
 29 30  1  0
 29 31  1  0
 29 32  1  0
 27 33  1  0
 33 34  1  0
 33 35  1  0
 33 36  1  0
 23  3  1  0
 13  4  1  0
M  END
>  <UniqueID>  (27) 
27

>  <SMILES>  (27) 
[H]/N=C1/c2ccccc2C[C@@H](C)[C@H]1C(=O)N(C)OC

>  <Energy>  (27) 
33.05633757309976

>  <Genealogy>  (27) 
CON(C)C(=O)[C@H]1C(=N)c2ccccc2C[C@H]1C (chirality)
[H]/N=C1/c2ccccc2C[C@@H](C)[C@H]1C(=O)N(C)OC (cis-trans isomerization)
[H]/N=C1/c2ccccc2C[C@@H](C)[C@H]1C(=O)N(C)OC (3D coordinates assigned)
[H]/N=C1/c2ccccc2C[C@@H](C)[C@H]1C(=O)N(C)OC (nonaromatic ring conformer: 33.05633757309976 kcal/mol)

>  <smiles>  (27) 
CON(C)C(=O)C1C(=N)c2ccccc2CC1C

>  <score_type>  (27) 
oracle

>  <origin>  (27) 
adg

>  <m_score__min__energy>  (27) 
-7.5899999999999999

>  <m_primary>  (27) 
energy

$$$$
27:0
     RDKit          3D

 72 74  0  0  0  0  0  0  0  0999 V2000
   -0.8490   27.0040  -23.7260 C   0  0  0  0  0  0  0  0  0  0  0  0
   -1.1870   26.9450  -25.2200 C   0  0  0  0  0  0  0  0  0  0  0  0
   -1.3640   25.5600  -25.7320 N   0  0  0  0  0  0  0  0  0  0  0  0
   -0.6580   24.5330  -24.9130 C   0  0  0  0  0  0  0  0  0  0  0  0
   -0.4420   23.1820  -25.6150 C   0  0  0  0  0  0  0  0  0  0  0  0
   -2.8170   25.2870  -25.9060 C   0  0  0  0  0  0  0  0  0  0  0  0
   -3.1770   24.6060  -27.2370 C   0  0  0  0  0  0  0  0  0  0  0  0
   -2.3300   25.0780  -28.2640 O   0  0  0  0  0  0  0  0  0  0  0  0
   -1.9050   23.9980  -29.0670 C   0  0  0  0  0  0  0  0  0  0  0  0
   -2.9780   23.6920  -30.1200 C   0  0  0  0  0  0  0  0  0  0  0  0
   -3.6580   24.8630  -30.5400 O   0  0  0  0  0  0  0  0  0  0  0  0
   -4.9920   24.8980  -30.0610 C   0  0  0  0  0  0  0  0  0  0  0  0
   -5.7200   23.6280  -30.5100 C   0  0  0  0  0  0  0  0  0  0  0  0
   -5.2540   23.1790  -31.8240 N   0  0  0  0  0  0  0  0  0  0  0  0
   -5.5640   21.8680  -32.3350 C   0  0  0  0  0  0  0  0  0  0  0  0
   -6.8850   21.3860  -32.3110 C   0  0  0  0  0  0  0  0  0  0  0  0
   -7.9540   22.2170  -31.9110 C   0  0  0  0  0  0  0  0  0  0  0  0
   -9.2430   21.7050  -31.7850 C   0  0  0  0  0  0  0  0  0  0  0  0
   -9.4870   20.3630  -32.0480 C   0  0  0  0  0  0  0  0  0  0  0  0
   -8.4570   19.5380  -32.5010 C   0  0  0  0  0  0  0  0  0  0  0  0
   -7.1460   20.0450  -32.6980 C   0  0  0  0  0  0  0  0  0  0  0  0
   -6.1360   19.2680  -33.2390 N   0  0  0  0  0  0  0  0  0  0  0  0
   -6.4630   17.9820  -33.8970 C   0  0  0  0  0  0  0  0  0  0  0  0
   -4.8240   19.7020  -33.1870 C   0  0  0  0  0  0  0  0  0  0  0  0
   -3.7410   18.8490  -33.5180 C   0  0  0  0  0  0  0  0  0  0  0  0
   -2.4240   19.3000  -33.4780 C   0  0  0  0  0  0  0  0  0  0  0  0
   -2.1250   20.6120  -33.0890 C   0  0  0  0  0  0  0  0  0  0  0  0
   -0.7510   21.0660  -33.0150 N   0  0  0  0  0  0  0  0  0  0  0  0
   -0.0690   21.1660  -31.7190 C   0  0  0  0  0  0  0  0  0  0  0  0
   -0.0380   21.4740  -34.2300 C   0  0  0  0  0  0  0  0  0  0  0  0
   -3.1830   21.4640  -32.7390 C   0  0  0  0  0  0  0  0  0  0  0  0
   -4.5240   21.0210  -32.7630 C   0  0  0  0  0  0  0  0  0  0  0  0
   -1.7639   26.8443  -23.1365 H   0  0  0  0  0  0  0  0  0  0  0  0
   -0.1158   26.2203  -23.4847 H   0  0  0  0  0  0  0  0  0  0  0  0
   -0.4247   27.9898  -23.4847 H   0  0  0  0  0  0  0  0  0  0  0  0
   -2.1212   27.5008  -25.3882 H   0  0  0  0  0  0  0  0  0  0  0  0
   -0.3374   27.3853  -25.7625 H   0  0  0  0  0  0  0  0  0  0  0  0
   -0.9310   25.5370  -26.6870 H   0  0  0  0  0  0  0  0  0  0  0  0
    0.3274   24.9354  -24.6356 H   0  0  0  0  0  0  0  0  0  0  0  0
   -1.3051   24.3308  -24.0468 H   0  0  0  0  0  0  0  0  0  0  0  0
   -0.3158   22.3924  -24.8597 H   0  0  0  0  0  0  0  0  0  0  0  0
   -1.3147   22.9518  -26.2437 H   0  0  0  0  0  0  0  0  0  0  0  0
    0.4590   23.2354  -26.2437 H   0  0  0  0  0  0  0  0  0  0  0  0
   -3.1457   24.6335  -25.0845 H   0  0  0  0  0  0  0  0  0  0  0  0
   -3.3238   26.2633  -25.9040 H   0  0  0  0  0  0  0  0  0  0  0  0
   -3.0543   23.5177  -27.1346 H   0  0  0  0  0  0  0  0  0  0  0  0
   -4.2209   24.8405  -27.4926 H   0  0  0  0  0  0  0  0  0  0  0  0
   -0.9629   24.2628  -29.5694 H   0  0  0  0  0  0  0  0  0  0  0  0
   -1.7466   23.1112  -28.4358 H   0  0  0  0  0  0  0  0  0  0  0  0
   -2.4965   23.2281  -30.9935 H   0  0  0  0  0  0  0  0  0  0  0  0
   -3.7162   23.0142  -29.6664 H   0  0  0  0  0  0  0  0  0  0  0  0
   -4.9874   24.9508  -28.9623 H   0  0  0  0  0  0  0  0  0  0  0  0
   -5.5071   25.7823  -30.4644 H   0  0  0  0  0  0  0  0  0  0  0  0
   -5.5362   22.8314  -29.7741 H   0  0  0  0  0  0  0  0  0  0  0  0
   -6.7942   23.8531  -30.5829 H   0  0  0  0  0  0  0  0  0  0  0  0
   -4.6060   23.7940  -32.3690 H   0  0  0  0  0  0  0  0  0  0  0  0
   -7.7669   23.2796  -31.6967 H   0  0  0  0  0  0  0  0  0  0  0  0
  -10.0684   22.3637  -31.4770 H   0  0  0  0  0  0  0  0  0  0  0  0
  -10.4953   19.9495  -31.8987 H   0  0  0  0  0  0  0  0  0  0  0  0
   -8.6643   18.4779  -32.7088 H   0  0  0  0  0  0  0  0  0  0  0  0
   -6.6575   17.2171  -33.1308 H   0  0  0  0  0  0  0  0  0  0  0  0
   -7.3576   18.1082  -34.5245 H   0  0  0  0  0  0  0  0  0  0  0  0
   -5.6167   17.6656  -34.5245 H   0  0  0  0  0  0  0  0  0  0  0  0
   -3.9453   17.8091  -33.8126 H   0  0  0  0  0  0  0  0  0  0  0  0
   -1.6077   18.6169  -33.7556 H   0  0  0  0  0  0  0  0  0  0  0  0
   -0.8046   21.0581  -30.9083 H   0  0  0  0  0  0  0  0  0  0  0  0
    0.6846   20.3688  -31.6388 H   0  0  0  0  0  0  0  0  0  0  0  0
    0.4240   22.1460  -31.6388 H   0  0  0  0  0  0  0  0  0  0  0  0
    0.8859   22.0027  -33.9529 H   0  0  0  0  0  0  0  0  0  0  0  0
    0.2135   20.5831  -34.8242 H   0  0  0  0  0  0  0  0  0  0  0  0
   -0.6787   22.1422  -34.8242 H   0  0  0  0  0  0  0  0  0  0  0  0
   -2.9636   22.4994  -32.4394 H   0  0  0  0  0  0  0  0  0  0  0  0
  1  2  1  0
  2  3  1  0
  3  4  1  0
  4  5  1  0
  3  6  1  0
  6  7  1  0
  7  8  1  0
  8  9  1  0
  9 10  1  0
 10 11  1  0
 11 12  1  0
 12 13  1  0
 13 14  1  0
 14 15  1  0
 15 16  2  0
 16 17  1  0
 17 18  2  0
 18 19  1  0
 19 20  2  0
 20 21  1  0
 21 22  2  0
 22 23  1  0
 22 24  1  0
 24 25  2  0
 25 26  1  0
 26 27  2  0
 27 28  1  0
 28 29  1  0
 28 30  1  0
 27 31  1  0
 31 32  2  0
 32 15  1  0
 21 16  1  0
 32 24  1  0
  1 33  1  0
  1 34  1  0
  1 35  1  0
  2 36  1  0
  2 37  1  0
  3 38  1  0
  4 39  1  0
  4 40  1  0
  5 41  1  0
  5 42  1  0
  5 43  1  0
  6 44  1  0
  6 45  1  0
  7 46  1  0
  7 47  1  0
  9 48  1  0
  9 49  1  0
 10 50  1  0
 10 51  1  0
 12 52  1  0
 12 53  1  0
 13 54  1  0
 13 55  1  0
 14 56  1  0
 17 57  1  0
 18 58  1  0
 19 59  1  0
 20 60  1  0
 23 61  1  0
 23 62  1  0
 23 63  1  0
 25 64  1  0
 26 65  1  0
 29 66  1  0
 29 67  1  0
 29 68  1  0
 30 69  1  0
 30 70  1  0
 30 71  1  0
 31 72  1  0
M  CHG  2   3   1  22   1
M  END
>  <UniqueID>  (28) 
28

>  <SMILES>  (28) 
CC[NH+](CC)CCOCCOCCNc1c2ccccc2[n+](C)c2ccc(N(C)C)cc12

>  <Energy>  (28) 
101.04655446035065

>  <Genealogy>  (28) 
CC[NH+](CC)CCOCCOCCNc1c2ccccc2[n+](C)c2ccc(N(C)C)cc12 (protonated)
CC[NH+](CC)CCOCCOCCNc1c2ccccc2[n+](C)c2ccc(N(C)C)cc12 (3D coordinates assigned)
CC[NH+](CC)CCOCCOCCNc1c2ccccc2[n+](C)c2ccc(N(C)C)cc12 (optimized conformer: 101.04655446035065 kcal/mol)

>  <smiles>  (28) 
CCN(CC)CCOCCOCCNc1c2ccccc2[n+](C)c2ccc(N(C)C)cc12

>  <score_type>  (28) 
oracle

>  <origin>  (28) 
adg

>  <m_score__min__energy>  (28) 
-9.2599999999999998

>  <m_primary>  (28) 
energy

$$$$
28:0
     RDKit          3D

 37 38  0  0  0  0  0  0  0  0999 V2000
   -5.7280   25.6890  -30.1030 C   0  0  0  0  0  0  0  0  0  0  0  0
   -4.9290   24.8030  -30.9670 N   0  0  0  0  0  0  0  0  0  0  0  0
   -3.9670   24.0540  -30.1390 C   0  0  0  0  0  0  0  0  0  0  0  0
   -5.8210   23.8890  -31.7130 C   0  0  0  0  0  0  0  0  0  0  0  0
   -7.1020   23.5680  -30.9210 C   0  0  0  0  0  0  0  0  0  0  0  0
   -8.3570   22.7240  -31.9510 S   0  0  0  0  0  0  0  0  0  0  0  0
   -7.5500   21.1200  -31.8880 C   0  0  0  0  0  0  0  0  0  0  0  0
   -6.2480   20.9580  -31.5760 N   0  0  0  0  0  0  0  0  0  0  0  0
   -6.0040   19.6630  -31.6860 N   0  0  0  0  0  0  0  0  0  0  0  0
   -7.1420   19.0490  -32.0600 C   0  0  0  0  0  0  0  0  0  0  0  0
   -7.2270   17.5890  -32.3990 C   0  0  0  0  0  0  0  0  0  0  0  0
   -6.1500   17.2190  -33.3680 C   0  0  0  0  0  0  0  0  0  0  0  0
   -5.4040   16.0470  -33.3470 C   0  0  0  0  0  0  0  0  0  0  0  0
   -4.4400   15.9910  -34.3600 C   0  0  0  0  0  0  0  0  0  0  0  0
   -4.4210   17.1150  -35.1760 C   0  0  0  0  0  0  0  0  0  0  0  0
   -5.6040   18.1810  -34.6350 S   0  0  0  0  0  0  0  0  0  0  0  0
   -8.1430   19.9450  -32.1900 N   0  0  0  0  0  0  0  0  0  0  0  0
   -9.4900   19.7340  -32.7150 C   0  0  0  0  0  0  0  0  0  0  0  0
   -5.5195   25.4578  -29.0480 H   0  0  0  0  0  0  0  0  0  0  0  0
   -5.4636   26.7369  -30.3079 H   0  0  0  0  0  0  0  0  0  0  0  0
   -6.7976   25.5339  -30.3079 H   0  0  0  0  0  0  0  0  0  0  0  0
   -4.1874   24.2256  -29.0751 H   0  0  0  0  0  0  0  0  0  0  0  0
   -4.0496   22.9800  -30.3620 H   0  0  0  0  0  0  0  0  0  0  0  0
   -2.9460   24.3974  -30.3620 H   0  0  0  0  0  0  0  0  0  0  0  0
   -6.1006   24.3629  -32.6655 H   0  0  0  0  0  0  0  0  0  0  0  0
   -5.2796   22.9469  -31.8843 H   0  0  0  0  0  0  0  0  0  0  0  0
   -6.8412   22.9157  -30.0746 H   0  0  0  0  0  0  0  0  0  0  0  0
   -7.5328   24.5192  -30.5749 H   0  0  0  0  0  0  0  0  0  0  0  0
   -5.0710   19.2200  -31.5330 H   0  0  0  0  0  0  0  0  0  0  0  0
   -7.1086   16.9955  -31.4805 H   0  0  0  0  0  0  0  0  0  0  0  0
   -8.2063   17.3836  -32.8560 H   0  0  0  0  0  0  0  0  0  0  0  0
   -5.5556   15.2451  -32.6095 H   0  0  0  0  0  0  0  0  0  0  0  0
   -3.7608   15.1367  -34.4972 H   0  0  0  0  0  0  0  0  0  0  0  0
   -3.7474   17.2797  -36.0299 H   0  0  0  0  0  0  0  0  0  0  0  0
  -10.1962   19.6234  -31.8789 H   0  0  0  0  0  0  0  0  0  0  0  0
   -9.7830   20.5972  -33.3307 H   0  0  0  0  0  0  0  0  0  0  0  0
   -9.5050   18.8226  -33.3307 H   0  0  0  0  0  0  0  0  0  0  0  0
  1  2  1  0
  2  3  1  0
  2  4  1  0
  4  5  1  0
  5  6  1  0
  6  7  1  0
  7  8  2  0
  8  9  1  0
  9 10  2  0
 10 11  1  0
 11 12  1  0
 12 13  2  0
 13 14  1  0
 14 15  2  0
 15 16  1  0
 10 17  1  0
 17 18  1  0
 17  7  1  0
 16 12  1  0
  1 19  1  0
  1 20  1  0
  1 21  1  0
  3 22  1  0
  3 23  1  0
  3 24  1  0
  4 25  1  0
  4 26  1  0
  5 27  1  0
  5 28  1  0
  9 29  1  0
 11 30  1  0
 11 31  1  0
 13 32  1  0
 14 33  1  0
 15 34  1  0
 18 35  1  0
 18 36  1  0
 18 37  1  0
M  CHG  1   9   1
M  END
>  <UniqueID>  (29) 
29

>  <SMILES>  (29) 
CN(C)CCSc1n[nH+]c(Cc2cccs2)n1C

>  <Energy>  (29) 
91.89807965064536

>  <Genealogy>  (29) 
CN(C)CCSc1n[nH+]c(Cc2cccs2)n1C (protonated)
CN(C)CCSc1n[nH+]c(Cc2cccs2)n1C (3D coordinates assigned)
CN(C)CCSc1n[nH+]c(Cc2cccs2)n1C (optimized conformer: 91.89807965064536 kcal/mol)

>  <smiles>  (29) 
CN(C)CCSc1nnc(Cc2cccs2)n1C

>  <score_type>  (29) 
oracle

>  <origin>  (29) 
adg

>  <m_score__min__energy>  (29) 
-6.1699999999999999

>  <m_primary>  (29) 
energy

$$$$
29:0
     RDKit          3D

 52 55  0  0  0  0  0  0  0  0999 V2000
   -7.2969   20.8154  -30.5948 H   0  0  0  0  0  0  0  0  0  0  0  0
   -6.9050   20.7180  -31.6180 C   0  0  0  0  0  0  0  0  0  0  0  0
   -6.7350   21.8360  -32.3410 C   0  0  0  0  0  0  0  0  0  0  0  0
   -7.1857   21.8914  -33.3429 H   0  0  0  0  0  0  0  0  0  0  0  0
   -5.9640   22.9980  -31.8420 C   0  0  0  0  0  0  0  0  0  0  0  0
   -6.6840   24.1470  -31.4670 C   0  0  0  0  0  0  0  0  0  0  0  0
   -7.7374   24.2552  -31.7647 H   0  0  0  0  0  0  0  0  0  0  0  0
   -6.0700   25.1440  -30.7230 C   0  0  0  0  0  0  0  0  0  0  0  0
   -6.6220   26.0618  -30.4721 H   0  0  0  0  0  0  0  0  0  0  0  0
   -4.7930   24.9880  -30.3060 N   0  0  0  0  0  0  0  0  0  0  0  0
   -4.0420   23.9090  -30.6510 C   0  0  0  0  0  0  0  0  0  0  0  0
   -2.7510   23.7980  -30.1200 C   0  0  0  0  0  0  0  0  0  0  0  0
   -2.2950   24.8100  -29.2560 O   0  0  0  0  0  0  0  0  0  0  0  0
   -2.1840   24.7190  -27.8340 C   0  0  0  0  0  0  0  0  0  0  0  0
   -2.0787   23.6621  -27.5479 H   0  0  0  0  0  0  0  0  0  0  0  0
   -3.0893   25.1509  -27.3825 H   0  0  0  0  0  0  0  0  0  0  0  0
   -0.9640   25.5000  -27.3290 C   0  0  0  0  0  0  0  0  0  0  0  0
   -0.9214   25.4310  -26.2320 H   0  0  0  0  0  0  0  0  0  0  0  0
   -1.0635   26.5488  -27.6453 H   0  0  0  0  0  0  0  0  0  0  0  0
    0.2870   24.9530  -27.8970 N   0  0  0  0  0  0  0  0  0  0  0  0
    1.4490   25.3690  -27.0970 C   0  0  0  0  0  0  0  0  0  0  0  0
    1.2076   25.2826  -26.0273 H   0  0  0  0  0  0  0  0  0  0  0  0
    2.3069   24.7222  -27.3327 H   0  0  0  0  0  0  0  0  0  0  0  0
    1.7015   26.4134  -27.3327 H   0  0  0  0  0  0  0  0  0  0  0  0
    0.2380   23.4820  -27.9690 C   0  0  0  0  0  0  0  0  0  0  0  0
    0.2241   23.0653  -26.9511 H   0  0  0  0  0  0  0  0  0  0  0  0
   -0.6710   23.1712  -28.5048 H   0  0  0  0  0  0  0  0  0  0  0  0
    1.1243   23.1114  -28.5048 H   0  0  0  0  0  0  0  0  0  0  0  0
   -1.9690   22.6820  -30.4400 C   0  0  0  0  0  0  0  0  0  0  0  0
   -1.0003   22.5348  -29.9400 H   0  0  0  0  0  0  0  0  0  0  0  0
   -2.4060   21.7530  -31.3880 C   0  0  0  0  0  0  0  0  0  0  0  0
   -1.5430   20.7130  -31.7760 C   0  0  0  0  0  0  0  0  0  0  0  0
   -0.5801   20.5802  -31.2611 H   0  0  0  0  0  0  0  0  0  0  0  0
   -1.9010   19.8500  -32.8090 C   0  0  0  0  0  0  0  0  0  0  0  0
   -1.2365   19.0189  -33.0878 H   0  0  0  0  0  0  0  0  0  0  0  0
   -3.1010   20.0410  -33.4880 C   0  0  0  0  0  0  0  0  0  0  0  0
   -3.3633   19.3850  -34.3311 H   0  0  0  0  0  0  0  0  0  0  0  0
   -3.9730   21.0610  -33.1040 C   0  0  0  0  0  0  0  0  0  0  0  0
   -4.9000   21.2227  -33.6737 H   0  0  0  0  0  0  0  0  0  0  0  0
   -3.6850   21.8910  -31.9940 C   0  0  0  0  0  0  0  0  0  0  0  0
   -4.5720   22.9110  -31.5190 C   0  0  0  0  0  0  0  0  0  0  0  0
   -6.5940   19.3600  -32.1220 C   0  0  0  0  0  0  0  0  0  0  0  0
   -6.4960   19.1620  -33.5100 C   0  0  0  0  0  0  0  0  0  0  0  0
   -6.6605   20.0072  -34.1946 H   0  0  0  0  0  0  0  0  0  0  0  0
   -6.1910   17.8990  -34.0280 C   0  0  0  0  0  0  0  0  0  0  0  0
   -6.1260   17.7528  -35.1163 H   0  0  0  0  0  0  0  0  0  0  0  0
   -5.9690   16.8240  -33.1660 C   0  0  0  0  0  0  0  0  0  0  0  0
   -5.7340   15.8305  -33.5755 H   0  0  0  0  0  0  0  0  0  0  0  0
   -6.0450   17.0090  -31.7840 C   0  0  0  0  0  0  0  0  0  0  0  0
   -5.8647   16.1618  -31.1060 H   0  0  0  0  0  0  0  0  0  0  0  0
   -6.3500   18.2700  -31.2600 C   0  0  0  0  0  0  0  0  0  0  0  0
   -6.3998   18.4123  -30.1704 H   0  0  0  0  0  0  0  0  0  0  0  0
  1  2  1  0
  2  3  2  0
  3  4  1  0
  3  5  1  0
  5  6  2  0
  6  7  1  0
  6  8  1  0
  8  9  1  0
  8 10  2  0
 10 11  1  0
 11 12  2  0
 12 13  1  0
 13 14  1  0
 14 15  1  0
 14 16  1  0
 14 17  1  0
 17 18  1  0
 17 19  1  0
 17 20  1  0
 20 21  1  0
 21 22  1  0
 21 23  1  0
 21 24  1  0
 20 25  1  0
 25 26  1  0
 25 27  1  0
 25 28  1  0
 12 29  1  0
 29 30  1  0
 29 31  2  0
 31 32  1  0
 32 33  1  0
 32 34  2  0
 34 35  1  0
 34 36  1  0
 36 37  1  0
 36 38  2  0
 38 39  1  0
 38 40  1  0
 40 41  2  0
  2 42  1  0
 42 43  2  0
 43 44  1  0
 43 45  1  0
 45 46  1  0
 45 47  2  0
 47 48  1  0
 47 49  1  0
 49 50  1  0
 49 51  2  0
 51 52  1  0
 41  5  1  0
 51 42  1  0
 41 11  1  0
 40 31  1  0
M  END
>  <UniqueID>  (30) 
30

>  <SMILES>  (30) 
CN(C)CCOc1cc2ccccc2c2c(/C=C/c3ccccc3)ccnc12

>  <Energy>  (30) 
82.87205315590087

>  <Genealogy>  (30) 
CN(C)CCOc1cc2ccccc2c2c(/C=C/c3ccccc3)ccnc12 (cis-trans isomerization)
CN(C)CCOc1cc2ccccc2c2c(/C=C/c3ccccc3)ccnc12 (3D coordinates assigned)
CN(C)CCOc1cc2ccccc2c2c(/C=C/c3ccccc3)ccnc12 (optimized conformer: 82.87205315590087 kcal/mol)

>  <smiles>  (30) 
CN(C)CCOc1cc2ccccc2c2c(C=Cc3ccccc3)ccnc12

>  <score_type>  (30) 
oracle

>  <origin>  (30) 
adg

>  <m_score__min__energy>  (30) 
-9.9600000000000009

>  <m_primary>  (30) 
energy

$$$$
30:0
     RDKit          3D

 42 44  0  0  0  0  0  0  0  0999 V2000
   -5.2110   17.0990  -33.3650 C   0  0  0  0  0  0  0  0  0  0  0  0
   -5.6380   18.4800  -33.1330 N   0  0  0  0  0  0  0  0  0  0  0  0
   -4.7800   19.5300  -33.3670 C   0  0  0  0  0  0  0  0  0  0  0  0
   -5.1770   20.8660  -33.1240 C   0  0  0  0  0  0  0  0  0  0  0  0
   -6.4730   21.1270  -32.6340 C   0  0  0  0  0  0  0  0  0  0  0  0
   -7.0060   22.4080  -32.3240 C   0  0  0  0  0  0  0  0  0  0  0  0
   -6.2340   23.6040  -32.5560 N   0  0  0  0  0  0  0  0  0  0  0  0
   -5.8430   24.5500  -31.5080 C   0  0  0  0  0  0  0  0  0  0  0  0
   -5.1090   23.8580  -30.3350 C   0  0  0  0  0  0  0  0  0  0  0  0
   -5.4390   24.3690  -28.9790 N   0  0  0  0  0  0  0  0  0  0  0  0
   -4.2740   24.4180  -28.0800 C   0  0  0  0  0  0  0  0  0  0  0  0
   -6.1370   25.6670  -29.0100 C   0  0  0  0  0  0  0  0  0  0  0  0
   -8.3280   22.4850  -31.7940 C   0  0  0  0  0  0  0  0  0  0  0  0
   -9.0960   21.3220  -31.5810 C   0  0  0  0  0  0  0  0  0  0  0  0
   -8.5400   20.0870  -31.9030 C   0  0  0  0  0  0  0  0  0  0  0  0
   -7.2830   20.0220  -32.4080 C   0  0  0  0  0  0  0  0  0  0  0  0
   -6.8870   18.7470  -32.6460 C   0  0  0  0  0  0  0  0  0  0  0  0
   -7.9780   17.7850  -32.2800 C   0  0  0  0  0  0  0  0  0  0  0  0
   -9.1180   18.7120  -31.7680 C   0  0  0  0  0  0  0  0  0  0  0  0
   -5.0555   16.5961  -32.3991 H   0  0  0  0  0  0  0  0  0  0  0  0
   -5.9864   16.5663  -33.9351 H   0  0  0  0  0  0  0  0  0  0  0  0
   -4.2703   17.0969  -33.9351 H   0  0  0  0  0  0  0  0  0  0  0  0
   -3.7687   19.3273  -33.7493 H   0  0  0  0  0  0  0  0  0  0  0  0
   -4.4798   21.6949  -33.3159 H   0  0  0  0  0  0  0  0  0  0  0  0
   -5.9480   23.8410  -33.5310 H   0  0  0  0  0  0  0  0  0  0  0  0
   -5.1752   25.3065  -31.9458 H   0  0  0  0  0  0  0  0  0  0  0  0
   -6.7604   25.0064  -31.1079 H   0  0  0  0  0  0  0  0  0  0  0  0
   -5.3600   22.7874  -30.3634 H   0  0  0  0  0  0  0  0  0  0  0  0
   -4.0396   24.0687  -30.4835 H   0  0  0  0  0  0  0  0  0  0  0  0
   -6.1090   23.6780  -28.5630 H   0  0  0  0  0  0  0  0  0  0  0  0
   -4.6166   24.4036  -27.0348 H   0  0  0  0  0  0  0  0  0  0  0  0
   -3.6298   23.5462  -28.2668 H   0  0  0  0  0  0  0  0  0  0  0  0
   -3.7053   25.3409  -28.2668 H   0  0  0  0  0  0  0  0  0  0  0  0
   -6.3209   26.0091  -27.9808 H   0  0  0  0  0  0  0  0  0  0  0  0
   -5.5144   26.4056  -29.5361 H   0  0  0  0  0  0  0  0  0  0  0  0
   -7.0965   25.5549  -29.5361 H   0  0  0  0  0  0  0  0  0  0  0  0
   -8.7554   23.4681  -31.5474 H   0  0  0  0  0  0  0  0  0  0  0  0
  -10.1137   21.3891  -31.1688 H   0  0  0  0  0  0  0  0  0  0  0  0
   -8.3043   17.2073  -33.1574 H   0  0  0  0  0  0  0  0  0  0  0  0
   -7.6622   17.0402  -31.5346 H   0  0  0  0  0  0  0  0  0  0  0  0
  -10.0209   18.6029  -32.3868 H   0  0  0  0  0  0  0  0  0  0  0  0
   -9.4300   18.4782  -30.7394 H   0  0  0  0  0  0  0  0  0  0  0  0
  1  2  1  0
  2  3  2  0
  3  4  1  0
  4  5  2  0
  5  6  1  0
  6  7  1  0
  7  8  1  0
  8  9  1  0
  9 10  1  0
 10 11  1  0
 10 12  1  0
  6 13  2  0
 13 14  1  0
 14 15  2  0
 15 16  1  0
 16 17  2  0
 17 18  1  0
 18 19  1  0
 17  2  1  0
 16  5  1  0
 19 15  1  0
  1 20  1  0
  1 21  1  0
  1 22  1  0
  3 23  1  0
  4 24  1  0
  7 25  1  0
  8 26  1  0
  8 27  1  0
  9 28  1  0
  9 29  1  0
 10 30  1  0
 11 31  1  0
 11 32  1  0
 11 33  1  0
 12 34  1  0
 12 35  1  0
 12 36  1  0
 13 37  1  0
 14 38  1  0
 18 39  1  0
 18 40  1  0
 19 41  1  0
 19 42  1  0
M  CHG  2   2   1  10   1
M  END
>  <UniqueID>  (31) 
31

>  <SMILES>  (31) 
C[n+]1ccc2c(NCC[NH+](C)C)ccc3c2c1CC3

>  <Energy>  (31) 
69.3199677277901

>  <Genealogy>  (31) 
C[n+]1ccc2c(NCC[NH+](C)C)ccc3c2c1CC3 (protonated)
C[n+]1ccc2c(NCC[NH+](C)C)ccc3c2c1CC3 (3D coordinates assigned)
C[n+]1ccc2c(NCC[NH+](C)C)ccc3c2c1CC3 (nonaromatic ring conformer: 69.3199677277901 kcal/mol)

>  <smiles>  (31) 
CN(C)CCNc1ccc2c3c([n+](C)ccc13)CC2

>  <score_type>  (31) 
oracle

>  <origin>  (31) 
adg

>  <m_score__min__energy>  (31) 
-6.3200000000000003

>  <m_primary>  (31) 
energy

$$$$
31:0
     RDKit          3D

 65 67  0  0  0  0  0  0  0  0999 V2000
   -3.0810   18.6480  -26.0100 C   0  0  0  0  0  0  0  0  0  0  0  0
   -2.7500   19.6750  -27.0930 C   0  0  0  0  0  0  0  0  0  0  0  0
   -1.2980   19.7510  -27.3580 N   0  0  0  0  0  0  0  0  0  0  0  0
   -0.7110   18.4030  -27.4590 C   0  0  0  0  0  0  0  0  0  0  0  0
   -0.8990   20.6400  -28.4800 C   0  0  0  0  0  0  0  0  0  0  0  0
   -2.0570   21.3510  -29.2060 C   0  0  0  0  0  0  0  0  0  0  0  0
   -2.2060   20.8410  -30.5130 O   0  0  0  0  0  0  0  0  0  0  0  0
   -1.0130   20.2160  -30.9500 C   0  0  0  0  0  0  0  0  0  0  0  0
   -0.1640   21.1800  -31.7870 C   0  0  0  0  0  0  0  0  0  0  0  0
   -0.4940   21.0810  -33.2810 C   0  0  0  0  0  0  0  0  0  0  0  0
   -1.9460   21.1910  -33.4810 N   0  0  0  0  0  0  0  0  0  0  0  0
   -2.5130   19.9360  -34.0000 C   0  0  0  0  0  0  0  0  0  0  0  0
   -3.8790   19.6580  -33.3550 C   0  0  0  0  0  0  0  0  0  0  0  0
   -4.0310   20.3230  -32.0460 N   0  0  0  0  0  0  0  0  0  0  0  0
   -5.3480   20.9330  -31.8920 C   0  0  0  0  0  0  0  0  0  0  0  0
   -6.5240   20.1550  -32.0930 C   0  0  0  0  0  0  0  0  0  0  0  0
   -6.4610   18.7790  -32.4350 C   0  0  0  0  0  0  0  0  0  0  0  0
   -7.6160   18.0120  -32.5590 C   0  0  0  0  0  0  0  0  0  0  0  0
   -8.8580   18.5830  -32.3380 C   0  0  0  0  0  0  0  0  0  0  0  0
   -8.9570   19.9360  -32.0290 C   0  0  0  0  0  0  0  0  0  0  0  0
   -7.8030   20.7600  -31.9460 C   0  0  0  0  0  0  0  0  0  0  0  0
   -7.9110   22.1150  -31.7160 N   0  0  0  0  0  0  0  0  0  0  0  0
   -9.2180   22.7910  -31.8940 C   0  0  0  0  0  0  0  0  0  0  0  0
   -6.8000   22.8500  -31.3610 C   0  0  0  0  0  0  0  0  0  0  0  0
   -6.9300   24.1650  -30.8420 C   0  0  0  0  0  0  0  0  0  0  0  0
   -5.8140   24.9440  -30.5600 C   0  0  0  0  0  0  0  0  0  0  0  0
   -4.5430   24.4410  -30.7810 C   0  0  0  0  0  0  0  0  0  0  0  0
   -4.3780   23.1370  -31.2400 C   0  0  0  0  0  0  0  0  0  0  0  0
   -5.4930   22.2970  -31.5000 C   0  0  0  0  0  0  0  0  0  0  0  0
   -2.9350   19.1009  -25.0183 H   0  0  0  0  0  0  0  0  0  0  0  0
   -4.1279   18.3276  -26.1162 H   0  0  0  0  0  0  0  0  0  0  0  0
   -2.4182   17.7765  -26.1162 H   0  0  0  0  0  0  0  0  0  0  0  0
   -3.2662   19.3907  -28.0218 H   0  0  0  0  0  0  0  0  0  0  0  0
   -3.0831   20.6618  -26.7390 H   0  0  0  0  0  0  0  0  0  0  0  0
   -0.5366   18.0025  -26.4495 H   0  0  0  0  0  0  0  0  0  0  0  0
   -1.4026   17.7416  -28.0015 H   0  0  0  0  0  0  0  0  0  0  0  0
    0.2443   18.4588  -28.0015 H   0  0  0  0  0  0  0  0  0  0  0  0
   -0.2260   21.4118  -28.0782 H   0  0  0  0  0  0  0  0  0  0  0  0
   -0.4274   19.9876  -29.2296 H   0  0  0  0  0  0  0  0  0  0  0  0
   -2.9896   21.1894  -28.6455 H   0  0  0  0  0  0  0  0  0  0  0  0
   -1.8333   22.4263  -29.2663 H   0  0  0  0  0  0  0  0  0  0  0  0
   -0.4328   19.8944  -30.0725 H   0  0  0  0  0  0  0  0  0  0  0  0
   -1.2787   19.3499  -31.5740 H   0  0  0  0  0  0  0  0  0  0  0  0
   -0.3551   22.2088  -31.4478 H   0  0  0  0  0  0  0  0  0  0  0  0
    0.8935   20.9086  -31.6523 H   0  0  0  0  0  0  0  0  0  0  0  0
    0.0113   21.8954  -33.8209 H   0  0  0  0  0  0  0  0  0  0  0  0
   -0.1481   20.1098  -33.6647 H   0  0  0  0  0  0  0  0  0  0  0  0
   -2.1080   21.9330  -34.2040 H   0  0  0  0  0  0  0  0  0  0  0  0
   -2.6368   20.0178  -35.0899 H   0  0  0  0  0  0  0  0  0  0  0  0
   -1.8294   19.1089  -33.7580 H   0  0  0  0  0  0  0  0  0  0  0  0
   -4.6683   20.0217  -34.0294 H   0  0  0  0  0  0  0  0  0  0  0  0
   -3.9566   18.5732  -33.1902 H   0  0  0  0  0  0  0  0  0  0  0  0
   -3.2440   20.9820  -31.8860 H   0  0  0  0  0  0  0  0  0  0  0  0
   -3.8740   19.6250  -31.2870 H   0  0  0  0  0  0  0  0  0  0  0  0
   -5.4808   18.3097  -32.6053 H   0  0  0  0  0  0  0  0  0  0  0  0
   -7.5419   16.9493  -32.8333 H   0  0  0  0  0  0  0  0  0  0  0  0
   -9.7666   17.9668  -32.4068 H   0  0  0  0  0  0  0  0  0  0  0  0
   -9.9483   20.3761  -31.8454 H   0  0  0  0  0  0  0  0  0  0  0  0
   -9.6519   23.0154  -30.9084 H   0  0  0  0  0  0  0  0  0  0  0  0
   -9.0734   23.7274  -32.4528 H   0  0  0  0  0  0  0  0  0  0  0  0
   -9.8986   22.1319  -32.4528 H   0  0  0  0  0  0  0  0  0  0  0  0
   -7.9340   24.5756  -30.6594 H   0  0  0  0  0  0  0  0  0  0  0  0
   -5.9406   25.9612  -30.1608 H   0  0  0  0  0  0  0  0  0  0  0  0
   -3.6622   25.0727  -30.5936 H   0  0  0  0  0  0  0  0  0  0  0  0
   -3.3620   22.7490  -31.4048 H   0  0  0  0  0  0  0  0  0  0  0  0
  1  2  1  0
  2  3  1  0
  3  4  1  0
  3  5  1  0
  5  6  1  0
  6  7  1  0
  7  8  1  0
  8  9  1  0
  9 10  1  0
 10 11  1  0
 11 12  1  0
 12 13  1  0
 13 14  1  0
 14 15  1  0
 15 16  2  0
 16 17  1  0
 17 18  2  0
 18 19  1  0
 19 20  2  0
 20 21  1  0
 21 22  2  0
 22 23  1  0
 22 24  1  0
 24 25  2  0
 25 26  1  0
 26 27  2  0
 27 28  1  0
 28 29  2  0
 29 15  1  0
 21 16  1  0
 29 24  1  0
  1 30  1  0
  1 31  1  0
  1 32  1  0
  2 33  1  0
  2 34  1  0
  4 35  1  0
  4 36  1  0
  4 37  1  0
  5 38  1  0
  5 39  1  0
  6 40  1  0
  6 41  1  0
  8 42  1  0
  8 43  1  0
  9 44  1  0
  9 45  1  0
 10 46  1  0
 10 47  1  0
 11 48  1  0
 12 49  1  0
 12 50  1  0
 13 51  1  0
 13 52  1  0
 14 53  1  0
 14 54  1  0
 17 55  1  0
 18 56  1  0
 19 57  1  0
 20 58  1  0
 23 59  1  0
 23 60  1  0
 23 61  1  0
 25 62  1  0
 26 63  1  0
 27 64  1  0
 28 65  1  0
M  CHG  2  14   1  22   1
M  END
>  <UniqueID>  (32) 
32

>  <SMILES>  (32) 
CCN(C)CCOCCCNCC[NH2+]c1c2ccccc2[n+](C)c2ccccc12

>  <Energy>  (32) 
94.49496121962761

>  <Genealogy>  (32) 
CCN(C)CCOCCCNCC[NH2+]c1c2ccccc2[n+](C)c2ccccc12 (protonated)
CCN(C)CCOCCCNCC[NH2+]c1c2ccccc2[n+](C)c2ccccc12 (3D coordinates assigned)
CCN(C)CCOCCCNCC[NH2+]c1c2ccccc2[n+](C)c2ccccc12 (optimized conformer: 94.49496121962761 kcal/mol)

>  <smiles>  (32) 
CCN(C)CCOCCCNCCNc1c2ccccc2[n+](C)c2ccccc12

>  <score_type>  (32) 
oracle

>  <origin>  (32) 
adg

>  <m_score__min__energy>  (32) 
-8.4700000000000006

>  <m_primary>  (32) 
energy

$$$$
32:0
     RDKit          3D

 47 48  0  0  0  0  0  0  0  0999 V2000
   -3.5710   19.2670  -33.3960 C   0  0  0  0  0  0  0  0  0  0  0  0
   -4.9620   19.7940  -33.2820 C   0  0  0  0  0  0  0  0  0  0  0  0
   -6.0900   19.2040  -33.8160 C   0  0  0  0  0  0  0  0  0  0  0  0
   -7.1430   20.0190  -33.4560 C   0  0  0  0  0  0  0  0  0  0  0  0
   -6.5850   21.0490  -32.7230 C   0  0  0  0  0  0  0  0  0  0  0  0
   -7.3320   22.1990  -32.1240 C   0  0  0  0  0  0  0  0  0  0  0  0
   -6.6630   22.6650  -30.8910 N   0  0  0  0  0  0  0  0  0  0  0  0
   -7.6190   22.6900  -29.7650 C   0  0  0  0  0  0  0  0  0  0  0  0
   -6.0810   24.0080  -31.1000 C   0  0  0  0  0  0  0  0  0  0  0  0
   -4.6030   23.9880  -30.8450 C   0  0  0  0  0  0  0  0  0  0  0  0
   -3.9830   25.0750  -30.6890 O   0  0  0  0  0  0  0  0  0  0  0  0
   -3.9010   22.7410  -30.7970 N   0  0  0  0  0  0  0  0  0  0  0  0
   -2.4450   22.6900  -30.6630 C   0  0  0  0  0  0  0  0  0  0  0  0
   -1.9820   23.1780  -29.2840 C   0  0  0  0  0  0  0  0  0  0  0  0
   -0.8550   24.2220  -29.3340 C   0  0  0  0  0  0  0  0  0  0  0  0
   -1.3250   25.5160  -28.9500 O   0  0  0  0  0  0  0  0  0  0  0  0
   -1.2570   26.0840  -27.6650 C   0  0  0  0  0  0  0  0  0  0  0  0
   -1.9870   25.4680  -26.6380 C   0  0  0  0  0  0  0  0  0  0  0  0
   -1.9740   25.9920  -25.3420 C   0  0  0  0  0  0  0  0  0  0  0  0
   -1.2240   27.1350  -25.0580 C   0  0  0  0  0  0  0  0  0  0  0  0
   -0.4830   27.7510  -26.0680 C   0  0  0  0  0  0  0  0  0  0  0  0
   -0.4900   27.2290  -27.3640 C   0  0  0  0  0  0  0  0  0  0  0  0
   -5.2840   20.8900  -32.6350 O   0  0  0  0  0  0  0  0  0  0  0  0
   -3.1550   19.1094  -32.3900 H   0  0  0  0  0  0  0  0  0  0  0  0
   -3.5844   18.3116  -33.9410 H   0  0  0  0  0  0  0  0  0  0  0  0
   -2.9480   19.9914  -33.9410 H   0  0  0  0  0  0  0  0  0  0  0  0
   -6.1389   18.2768  -34.4059 H   0  0  0  0  0  0  0  0  0  0  0  0
   -8.2060   19.8783  -33.7014 H   0  0  0  0  0  0  0  0  0  0  0  0
   -7.3686   23.0245  -32.8501 H   0  0  0  0  0  0  0  0  0  0  0  0
   -8.3510   21.8693  -31.8730 H   0  0  0  0  0  0  0  0  0  0  0  0
   -7.0661   22.6755  -28.8142 H   0  0  0  0  0  0  0  0  0  0  0  0
   -8.2279   23.6044  -29.8212 H   0  0  0  0  0  0  0  0  0  0  0  0
   -8.2749   21.8087  -29.8212 H   0  0  0  0  0  0  0  0  0  0  0  0
   -6.2647   24.3242  -32.1374 H   0  0  0  0  0  0  0  0  0  0  0  0
   -6.5525   24.7121  -30.3986 H   0  0  0  0  0  0  0  0  0  0  0  0
   -4.4510   21.8560  -30.8880 H   0  0  0  0  0  0  0  0  0  0  0  0
   -2.1107   21.6515  -30.8039 H   0  0  0  0  0  0  0  0  0  0  0  0
   -2.0083   23.3528  -31.4245 H   0  0  0  0  0  0  0  0  0  0  0  0
   -2.8446   23.6251  -28.7682 H   0  0  0  0  0  0  0  0  0  0  0  0
   -1.5792   22.3012  -28.7559 H   0  0  0  0  0  0  0  0  0  0  0  0
   -0.0520   23.9148  -28.6479 H   0  0  0  0  0  0  0  0  0  0  0  0
   -0.4839   24.2814  -30.3678 H   0  0  0  0  0  0  0  0  0  0  0  0
   -2.5753   24.5641  -26.8543 H   0  0  0  0  0  0  0  0  0  0  0  0
   -2.5548   25.5037  -24.5457 H   0  0  0  0  0  0  0  0  0  0  0  0
   -1.2171   27.5497  -24.0392 H   0  0  0  0  0  0  0  0  0  0  0  0
    0.1086   28.6506  -25.8427 H   0  0  0  0  0  0  0  0  0  0  0  0
    0.1049   27.7128  -28.1527 H   0  0  0  0  0  0  0  0  0  0  0  0
  1  2  1  0
  2  3  2  0
  3  4  1  0
  4  5  2  0
  5  6  1  0
  6  7  1  0
  7  8  1  0
  7  9  1  0
  9 10  1  0
 10 11  2  0
 10 12  1  0
 12 13  1  0
 13 14  1  0
 14 15  1  0
 15 16  1  0
 16 17  1  0
 17 18  2  0
 18 19  1  0
 19 20  2  0
 20 21  1  0
 21 22  2  0
  5 23  1  0
 23  2  1  0
 22 17  1  0
  1 24  1  0
  1 25  1  0
  1 26  1  0
  3 27  1  0
  4 28  1  0
  6 29  1  0
  6 30  1  0
  8 31  1  0
  8 32  1  0
  8 33  1  0
  9 34  1  0
  9 35  1  0
 12 36  1  0
 13 37  1  0
 13 38  1  0
 14 39  1  0
 14 40  1  0
 15 41  1  0
 15 42  1  0
 18 43  1  0
 19 44  1  0
 20 45  1  0
 21 46  1  0
 22 47  1  0
M  END
>  <UniqueID>  (33) 
33

>  <SMILES>  (33) 
Cc1ccc(CN(C)CC(=O)NCCCOc2ccccc2)o1

>  <Energy>  (33) 
66.04511254906275

>  <Genealogy>  (33) 
Cc1ccc(CN(C)CC(=O)NCCCOc2ccccc2)o1 (3D coordinates assigned)
Cc1ccc(CN(C)CC(=O)NCCCOc2ccccc2)o1 (optimized conformer: 66.04511254906275 kcal/mol)

>  <smiles>  (33) 
Cc1ccc(CN(C)CC(=O)NCCCOc2ccccc2)o1

>  <score_type>  (33) 
oracle

>  <origin>  (33) 
adg

>  <m_score__min__energy>  (33) 
-7.4100000000000001

>  <m_primary>  (33) 
energy

$$$$
33:0
     RDKit          3D

 77 80  0  0  0  0  0  0  0  0999 V2000
   -8.7710   21.8990  -30.8570 C   0  0  0  0  0  0  0  0  0  0  0  0
   -8.5250   20.8750  -31.9630 C   0  0  0  0  0  0  0  0  0  0  0  0
   -8.0840   19.5670  -31.4190 N   0  0  0  0  0  0  0  0  0  0  0  0
   -8.9340   18.4840  -31.9430 C   0  0  0  0  0  0  0  0  0  0  0  0
   -6.6370   19.2710  -31.5920 C   0  0  0  0  0  0  0  0  0  0  0  0
   -5.7340   20.5170  -31.6230 C   0  0  0  0  0  0  0  0  0  0  0  0
   -5.4640   20.9650  -33.0650 C   0  0  0  0  0  0  0  0  0  0  0  0
   -4.4360   22.0080  -33.0960 N   0  0  0  0  0  0  0  0  0  0  0  0
   -3.8230   22.4910  -31.8880 C   0  0  0  0  0  0  0  0  0  0  0  0
   -4.5610   23.3750  -31.0790 C   0  0  0  0  0  0  0  0  0  0  0  0
   -5.7280   24.0020  -31.5690 C   0  0  0  0  0  0  0  0  0  0  0  0
   -6.5130   24.8060  -30.7430 C   0  0  0  0  0  0  0  0  0  0  0  0
   -6.1570   24.9790  -29.4100 C   0  0  0  0  0  0  0  0  0  0  0  0
   -5.0000   24.3840  -28.9080 C   0  0  0  0  0  0  0  0  0  0  0  0
   -4.1570   23.5990  -29.7370 C   0  0  0  0  0  0  0  0  0  0  0  0
   -3.0060   23.0130  -29.2570 N   0  0  0  0  0  0  0  0  0  0  0  0
   -2.4550   23.4300  -27.9440 C   0  0  0  0  0  0  0  0  0  0  0  0
   -2.3400   22.0640  -30.0070 C   0  0  0  0  0  0  0  0  0  0  0  0
   -1.3910   21.2050  -29.4160 C   0  0  0  0  0  0  0  0  0  0  0  0
   -0.7010   20.2680  -30.1680 C   0  0  0  0  0  0  0  0  0  0  0  0
   -0.8590   20.2270  -31.5390 C   0  0  0  0  0  0  0  0  0  0  0  0
   -1.7640   21.0840  -32.1930 C   0  0  0  0  0  0  0  0  0  0  0  0
   -1.8270   21.0900  -33.6530 N   0  0  0  0  0  0  0  0  0  0  0  0
   -2.2990   19.8230  -34.2640 C   0  0  0  0  0  0  0  0  0  0  0  0
   -2.8990   18.7760  -33.2560 C   0  0  0  0  0  0  0  0  0  0  0  0
   -3.7760   17.6690  -33.7950 N   0  0  0  0  0  0  0  0  0  0  0  0
   -3.0310   16.9050  -34.8420 C   0  0  0  0  0  0  0  0  0  0  0  0
   -4.9780   18.3380  -34.4110 C   0  0  0  0  0  0  0  0  0  0  0  0
   -6.1170   17.3780  -34.8320 C   0  0  0  0  0  0  0  0  0  0  0  0
   -6.5090   16.4320  -33.7060 C   0  0  0  0  0  0  0  0  0  0  0  0
   -5.2690   15.7230  -33.1670 C   0  0  0  0  0  0  0  0  0  0  0  0
   -4.2260   16.7570  -32.7000 C   0  0  0  0  0  0  0  0  0  0  0  0
   -2.6440   21.8900  -31.3880 C   0  0  0  0  0  0  0  0  0  0  0  0
   -8.6546   21.4146  -29.8763 H   0  0  0  0  0  0  0  0  0  0  0  0
   -8.0445   22.7198  -30.9490 H   0  0  0  0  0  0  0  0  0  0  0  0
   -9.7911   22.3002  -30.9490 H   0  0  0  0  0  0  0  0  0  0  0  0
   -9.4584   20.7292  -32.5264 H   0  0  0  0  0  0  0  0  0  0  0  0
   -7.7254   21.2607  -32.6125 H   0  0  0  0  0  0  0  0  0  0  0  0
   -9.3733   17.9242  -31.1042 H   0  0  0  0  0  0  0  0  0  0  0  0
   -9.7382   18.9140  -32.5581 H   0  0  0  0  0  0  0  0  0  0  0  0
   -8.3252   17.8050  -32.5581 H   0  0  0  0  0  0  0  0  0  0  0  0
   -6.3139   18.6323  -30.7567 H   0  0  0  0  0  0  0  0  0  0  0  0
   -6.5310   18.7812  -32.5712 H   0  0  0  0  0  0  0  0  0  0  0  0
   -6.2303   21.3344  -31.0794 H   0  0  0  0  0  0  0  0  0  0  0  0
   -4.7739   20.2656  -31.1487 H   0  0  0  0  0  0  0  0  0  0  0  0
   -5.1210   20.1015  -33.6538 H   0  0  0  0  0  0  0  0  0  0  0  0
   -6.3938   21.3702  -33.4908 H   0  0  0  0  0  0  0  0  0  0  0  0
   -4.2320   22.4930  -34.0020 H   0  0  0  0  0  0  0  0  0  0  0  0
   -6.0222   23.8538  -32.6185 H   0  0  0  0  0  0  0  0  0  0  0  0
   -7.4097   25.3010  -31.1441 H   0  0  0  0  0  0  0  0  0  0  0  0
   -6.7908   25.5879  -28.7486 H   0  0  0  0  0  0  0  0  0  0  0  0
   -4.7358   24.5258  -27.8497 H   0  0  0  0  0  0  0  0  0  0  0  0
   -3.0506   22.9792  -27.1365 H   0  0  0  0  0  0  0  0  0  0  0  0
   -1.4109   23.0938  -27.8610 H   0  0  0  0  0  0  0  0  0  0  0  0
   -2.4949   24.5261  -27.8610 H   0  0  0  0  0  0  0  0  0  0  0  0
   -1.1945   21.2802  -28.3363 H   0  0  0  0  0  0  0  0  0  0  0  0
   -0.0259   19.5553  -29.6717 H   0  0  0  0  0  0  0  0  0  0  0  0
   -0.2676   19.5124  -32.1302 H   0  0  0  0  0  0  0  0  0  0  0  0
   -0.8580   21.2210  -34.0290 H   0  0  0  0  0  0  0  0  0  0  0  0
   -2.4180   21.8960  -33.9400 H   0  0  0  0  0  0  0  0  0  0  0  0
   -3.0771   20.0700  -35.0013 H   0  0  0  0  0  0  0  0  0  0  0  0
   -1.4105   19.3474  -34.7050 H   0  0  0  0  0  0  0  0  0  0  0  0
   -2.0514   18.2972  -32.7439 H   0  0  0  0  0  0  0  0  0  0  0  0
   -3.5767   19.3704  -32.6256 H   0  0  0  0  0  0  0  0  0  0  0  0
   -2.3412   16.1976  -34.3585 H   0  0  0  0  0  0  0  0  0  0  0  0
   -3.7448   16.3506  -35.4689 H   0  0  0  0  0  0  0  0  0  0  0  0
   -2.4588   17.6047  -35.4689 H   0  0  0  0  0  0  0  0  0  0  0  0
   -5.3853   19.0499  -33.6780 H   0  0  0  0  0  0  0  0  0  0  0  0
   -4.6229   18.8176  -35.3351 H   0  0  0  0  0  0  0  0  0  0  0  0
   -6.9964   17.9737  -35.1180 H   0  0  0  0  0  0  0  0  0  0  0  0
   -5.7565   16.7716  -35.6760 H   0  0  0  0  0  0  0  0  0  0  0  0
   -6.9820   17.0060  -32.8956 H   0  0  0  0  0  0  0  0  0  0  0  0
   -7.2153   15.6824  -34.0924 H   0  0  0  0  0  0  0  0  0  0  0  0
   -5.5552   15.0861  -32.3170 H   0  0  0  0  0  0  0  0  0  0  0  0
   -4.8313   15.1074  -33.9666 H   0  0  0  0  0  0  0  0  0  0  0  0
   -4.6700   17.3649  -31.8980 H   0  0  0  0  0  0  0  0  0  0  0  0
   -3.3434   16.1998  -32.3527 H   0  0  0  0  0  0  0  0  0  0  0  0
  1  2  1  0
  2  3  1  0
  3  4  1  0
  3  5  1  0
  5  6  1  0
  6  7  1  0
  7  8  1  0
  8  9  1  0
  9 10  2  0
 10 11  1  0
 11 12  2  0
 12 13  1  0
 13 14  2  0
 14 15  1  0
 15 16  2  0
 16 17  1  0
 16 18  1  0
 18 19  2  0
 19 20  1  0
 20 21  2  0
 21 22  1  0
 22 23  1  0
 23 24  1  0
 24 25  1  0
 25 26  1  0
 26 27  1  0
 26 28  1  0
 28 29  1  0
 29 30  1  0
 30 31  1  0
 31 32  1  0
 22 33  2  0
 33  9  1  0
 15 10  1  0
 33 18  1  0
 32 26  1  0
  1 34  1  0
  1 35  1  0
  1 36  1  0
  2 37  1  0
  2 38  1  0
  4 39  1  0
  4 40  1  0
  4 41  1  0
  5 42  1  0
  5 43  1  0
  6 44  1  0
  6 45  1  0
  7 46  1  0
  7 47  1  0
  8 48  1  0
 11 49  1  0
 12 50  1  0
 13 51  1  0
 14 52  1  0
 17 53  1  0
 17 54  1  0
 17 55  1  0
 19 56  1  0
 20 57  1  0
 21 58  1  0
 23 59  1  0
 23 60  1  0
 24 61  1  0
 24 62  1  0
 25 63  1  0
 25 64  1  0
 27 65  1  0
 27 66  1  0
 27 67  1  0
 28 68  1  0
 28 69  1  0
 29 70  1  0
 29 71  1  0
 30 72  1  0
 30 73  1  0
 31 74  1  0
 31 75  1  0
 32 76  1  0
 32 77  1  0
M  CHG  3  16   1  23   1  26   1
M  END
>  <UniqueID>  (34) 
34

>  <SMILES>  (34) 
CCN(C)CCCNc1c2ccccc2[n+](C)c2cccc([NH2+]CC[N+]3(C)CCCCC3)c12

>  <Energy>  (34) 
137.59910511752636

>  <Genealogy>  (34) 
CCN(C)CCCNc1c2ccccc2[n+](C)c2cccc([NH2+]CC[N+]3(C)CCCCC3)c12 (protonated)
CCN(C)CCCNc1c2ccccc2[n+](C)c2cccc([NH2+]CC[N+]3(C)CCCCC3)c12 (3D coordinates assigned)
CCN(C)CCCNc1c2ccccc2[n+](C)c2cccc([NH2+]CC[N+]3(C)CCCCC3)c12 (nonaromatic ring conformer: 137.59910511752636 kcal/mol)

>  <smiles>  (34) 
CCN(C)CCCNc1c2ccccc2[n+](C)c2cccc(NCC[N+]3(C)CCCCC3)c12

>  <score_type>  (34) 
oracle

>  <origin>  (34) 
adg

>  <m_score__min__energy>  (34) 
-8.0800000000000001

>  <m_primary>  (34) 
energy

$$$$
34:0
     RDKit          3D

 62 64  0  0  0  0  0  0  0  0999 V2000
   -0.7460   23.3700  -28.9810 C   0  0  0  0  0  0  0  0  0  0  0  0
   -1.6720   23.2650  -27.7710 C   0  0  0  0  0  0  0  0  0  0  0  0
   -2.4630   24.5070  -27.6210 N   0  0  0  0  0  0  0  0  0  0  0  0
   -1.9350   25.3570  -26.5280 C   0  0  0  0  0  0  0  0  0  0  0  0
   -0.8670   26.3120  -27.0570 C   0  0  0  0  0  0  0  0  0  0  0  0
   -3.9070   24.2180  -27.4340 C   0  0  0  0  0  0  0  0  0  0  0  0
   -4.6410   24.3500  -28.7670 C   0  0  0  0  0  0  0  0  0  0  0  0
   -3.7630   24.0480  -29.8290 O   0  0  0  0  0  0  0  0  0  0  0  0
   -4.0530   22.7710  -30.3660 C   0  0  0  0  0  0  0  0  0  0  0  0
   -3.4690   22.6690  -31.7750 C   0  0  0  0  0  0  0  0  0  0  0  0
   -3.5470   21.2290  -32.3100 C   0  0  0  0  0  0  0  0  0  0  0  0
   -4.4760   21.1030  -33.4510 N   0  0  0  0  0  0  0  0  0  0  0  0
   -5.6940   20.3880  -33.0860 C   0  0  0  0  0  0  0  0  0  0  0  0
   -6.8230   21.0730  -32.5500 C   0  0  0  0  0  0  0  0  0  0  0  0
   -6.8210   22.4730  -32.3170 C   0  0  0  0  0  0  0  0  0  0  0  0
   -7.9630   23.1340  -31.8710 C   0  0  0  0  0  0  0  0  0  0  0  0
   -9.1360   22.4290  -31.6540 C   0  0  0  0  0  0  0  0  0  0  0  0
   -9.1620   21.0510  -31.8350 C   0  0  0  0  0  0  0  0  0  0  0  0
   -8.0020   20.3360  -32.2330 C   0  0  0  0  0  0  0  0  0  0  0  0
   -8.0120   18.9600  -32.3230 N   0  0  0  0  0  0  0  0  0  0  0  0
   -9.0990   18.1880  -31.6770 C   0  0  0  0  0  0  0  0  0  0  0  0
   -6.9900   18.2980  -32.9700 C   0  0  0  0  0  0  0  0  0  0  0  0
   -7.1080   16.9260  -33.3170 C   0  0  0  0  0  0  0  0  0  0  0  0
   -6.0470   16.2260  -33.8940 C   0  0  0  0  0  0  0  0  0  0  0  0
   -6.1850   14.8370  -34.2120 N   0  0  0  0  0  0  0  0  0  0  0  0
   -4.8500   16.8860  -34.1510 C   0  0  0  0  0  0  0  0  0  0  0  0
   -4.7230   18.2430  -33.8740 C   0  0  0  0  0  0  0  0  0  0  0  0
   -5.7930   18.9860  -33.3120 C   0  0  0  0  0  0  0  0  0  0  0  0
    0.2927   23.4878  -28.6387 H   0  0  0  0  0  0  0  0  0  0  0  0
   -0.8307   22.4565  -29.5879 H   0  0  0  0  0  0  0  0  0  0  0  0
   -1.0331   24.2413  -29.5879 H   0  0  0  0  0  0  0  0  0  0  0  0
   -2.3552   22.4140  -27.9095 H   0  0  0  0  0  0  0  0  0  0  0  0
   -1.0639   23.1163  -26.8665 H   0  0  0  0  0  0  0  0  0  0  0  0
   -2.7597   25.9416  -26.0943 H   0  0  0  0  0  0  0  0  0  0  0  0
   -1.4833   24.7094  -25.7621 H   0  0  0  0  0  0  0  0  0  0  0  0
   -0.3428   26.7807  -26.2111 H   0  0  0  0  0  0  0  0  0  0  0  0
   -0.1458   25.7520  -27.6704 H   0  0  0  0  0  0  0  0  0  0  0  0
   -1.3432   27.0911  -27.6704 H   0  0  0  0  0  0  0  0  0  0  0  0
   -4.0273   23.1937  -27.0514 H   0  0  0  0  0  0  0  0  0  0  0  0
   -4.3297   24.9357  -26.7155 H   0  0  0  0  0  0  0  0  0  0  0  0
   -5.4909   23.6520  -28.7864 H   0  0  0  0  0  0  0  0  0  0  0  0
   -5.0054   25.3817  -28.8798 H   0  0  0  0  0  0  0  0  0  0  0  0
   -3.6078   21.9942  -29.7269 H   0  0  0  0  0  0  0  0  0  0  0  0
   -5.1429   22.6288  -30.4085 H   0  0  0  0  0  0  0  0  0  0  0  0
   -4.0350   23.3317  -32.4462 H   0  0  0  0  0  0  0  0  0  0  0  0
   -2.4110   22.9673  -31.7345 H   0  0  0  0  0  0  0  0  0  0  0  0
   -2.5433   20.9180  -32.6354 H   0  0  0  0  0  0  0  0  0  0  0  0
   -3.9233   20.5891  -31.4983 H   0  0  0  0  0  0  0  0  0  0  0  0
   -3.9940   20.6030  -34.2310 H   0  0  0  0  0  0  0  0  0  0  0  0
   -4.6500   22.0350  -33.8800 H   0  0  0  0  0  0  0  0  0  0  0  0
   -5.8994   23.0474  -32.4921 H   0  0  0  0  0  0  0  0  0  0  0  0
   -7.9336   24.2187  -31.6905 H   0  0  0  0  0  0  0  0  0  0  0  0
  -10.0464   22.9597  -31.3386 H   0  0  0  0  0  0  0  0  0  0  0  0
  -10.1009   20.5032  -31.6663 H   0  0  0  0  0  0  0  0  0  0  0  0
   -8.9993   18.2588  -30.5838 H   0  0  0  0  0  0  0  0  0  0  0  0
  -10.0724   18.5983  -31.9838 H   0  0  0  0  0  0  0  0  0  0  0  0
   -9.0323   17.1337  -31.9838 H   0  0  0  0  0  0  0  0  0  0  0  0
   -8.0569   16.4031  -33.1268 H   0  0  0  0  0  0  0  0  0  0  0  0
   -5.4880   14.1390  -33.8700 H   0  0  0  0  0  0  0  0  0  0  0  0
   -6.9950   14.4950  -34.7770 H   0  0  0  0  0  0  0  0  0  0  0  0
   -3.9997   16.3321  -34.5754 H   0  0  0  0  0  0  0  0  0  0  0  0
   -3.7728   18.7510  -34.0954 H   0  0  0  0  0  0  0  0  0  0  0  0
  1  2  1  0
  2  3  1  0
  3  4  1  0
  4  5  1  0
  3  6  1  0
  6  7  1  0
  7  8  1  0
  8  9  1  0
  9 10  1  0
 10 11  1  0
 11 12  1  0
 12 13  1  0
 13 14  2  0
 14 15  1  0
 15 16  2  0
 16 17  1  0
 17 18  2  0
 18 19  1  0
 19 20  2  0
 20 21  1  0
 20 22  1  0
 22 23  2  0
 23 24  1  0
 24 25  1  0
 24 26  2  0
 26 27  1  0
 27 28  2  0
 28 13  1  0
 19 14  1  0
 28 22  1  0
  1 29  1  0
  1 30  1  0
  1 31  1  0
  2 32  1  0
  2 33  1  0
  4 34  1  0
  4 35  1  0
  5 36  1  0
  5 37  1  0
  5 38  1  0
  6 39  1  0
  6 40  1  0
  7 41  1  0
  7 42  1  0
  9 43  1  0
  9 44  1  0
 10 45  1  0
 10 46  1  0
 11 47  1  0
 11 48  1  0
 12 49  1  0
 12 50  1  0
 15 51  1  0
 16 52  1  0
 17 53  1  0
 18 54  1  0
 21 55  1  0
 21 56  1  0
 21 57  1  0
 23 58  1  0
 25 59  1  0
 25 60  1  0
 26 61  1  0
 27 62  1  0
M  CHG  2  12   1  20   1
M  END
>  <UniqueID>  (35) 
35

>  <SMILES>  (35) 
CCN(CC)CCOCCC[NH2+]c1c2ccccc2[n+](C)c2cc(N)ccc12

>  <Energy>  (35) 
87.84219872378173

>  <Genealogy>  (35) 
CCN(CC)CCOCCC[NH2+]c1c2ccccc2[n+](C)c2cc(N)ccc12 (protonated)
CCN(CC)CCOCCC[NH2+]c1c2ccccc2[n+](C)c2cc(N)ccc12 (3D coordinates assigned)
CCN(CC)CCOCCC[NH2+]c1c2ccccc2[n+](C)c2cc(N)ccc12 (optimized conformer: 87.84219872378173 kcal/mol)

>  <smiles>  (35) 
CCN(CC)CCOCCCNc1c2ccccc2[n+](C)c2cc(N)ccc12

>  <score_type>  (35) 
oracle

>  <origin>  (35) 
adg

>  <m_score__min__energy>  (35) 
-7.4100000000000001

>  <m_primary>  (35) 
energy

$$$$
35:0
     RDKit          3D

 40 43  0  0  0  0  0  0  0  0999 V2000
   -1.1371   21.5113  -33.7722 H   0  0  0  0  0  0  0  0  0  0  0  0
   -1.9690   20.8810  -33.4250 C   0  0  0  0  0  0  0  0  0  0  0  0
   -2.7830   20.1600  -34.2190 N   0  0  0  0  0  0  0  0  0  0  0  0
   -3.6640   19.5510  -33.4410 N   0  0  0  0  0  0  0  0  0  0  0  0
   -4.6760   18.6240  -33.9300 C   0  0  0  0  0  0  0  0  0  0  0  0
   -5.1874   18.1556  -33.0761 H   0  0  0  0  0  0  0  0  0  0  0  0
   -5.4090   19.1705  -34.5415 H   0  0  0  0  0  0  0  0  0  0  0  0
   -4.1957   17.8460  -34.5415 H   0  0  0  0  0  0  0  0  0  0  0  0
   -3.4280   19.8500  -32.1520 C   0  0  0  0  0  0  0  0  0  0  0  0
   -3.9989   19.4789  -31.2881 H   0  0  0  0  0  0  0  0  0  0  0  0
   -2.3430   20.7050  -32.1010 C   0  0  0  0  0  0  0  0  0  0  0  0
   -1.7450   21.3170  -30.8870 C   0  0  0  0  0  0  0  0  0  0  0  0
   -0.6770   20.6630  -30.2450 C   0  0  0  0  0  0  0  0  0  0  0  0
   -0.2946   19.7165  -30.6549 H   0  0  0  0  0  0  0  0  0  0  0  0
   -0.0960   21.2010  -29.0930 C   0  0  0  0  0  0  0  0  0  0  0  0
    0.7338   20.6729  -28.6005 H   0  0  0  0  0  0  0  0  0  0  0  0
   -0.5640   22.4050  -28.5650 C   0  0  0  0  0  0  0  0  0  0  0  0
   -0.1080   22.8220  -27.6549 H   0  0  0  0  0  0  0  0  0  0  0  0
   -1.6150   23.0810  -29.1960 C   0  0  0  0  0  0  0  0  0  0  0  0
   -2.0940   24.2990  -28.7050 C   0  0  0  0  0  0  0  0  0  0  0  0
   -1.6564   24.7362  -27.7954 H   0  0  0  0  0  0  0  0  0  0  0  0
   -3.1000   24.9420  -29.3520 N   0  0  0  0  0  0  0  0  0  0  0  0
   -3.6570   24.4240  -30.4770 C   0  0  0  0  0  0  0  0  0  0  0  0
   -4.6150   25.0700  -31.0700 N   0  0  0  0  0  0  0  0  0  0  0  0
   -6.0290   24.9220  -30.7360 C   0  0  0  0  0  0  0  0  0  0  0  0
   -6.1523   24.9412  -29.6431 H   0  0  0  0  0  0  0  0  0  0  0  0
   -6.6013   25.7486  -31.1823 H   0  0  0  0  0  0  0  0  0  0  0  0
   -6.5320   23.6150  -31.2740 C   0  0  0  0  0  0  0  0  0  0  0  0
   -7.9070   23.3390  -31.2830 C   0  0  0  0  0  0  0  0  0  0  0  0
   -8.6210   24.0676  -30.8714 H   0  0  0  0  0  0  0  0  0  0  0  0
   -8.3630   22.1330  -31.8180 C   0  0  0  0  0  0  0  0  0  0  0  0
   -9.4387   21.9029  -31.8227 H   0  0  0  0  0  0  0  0  0  0  0  0
   -7.4490   21.2200  -32.3470 C   0  0  0  0  0  0  0  0  0  0  0  0
   -7.7969   20.2647  -32.7670 H   0  0  0  0  0  0  0  0  0  0  0  0
   -6.0880   21.5330  -32.3370 C   0  0  0  0  0  0  0  0  0  0  0  0
   -5.3596   20.8227  -32.7553 H   0  0  0  0  0  0  0  0  0  0  0  0
   -5.6590   22.7130  -31.8120 N   0  0  0  0  0  0  0  0  0  0  0  0
   -4.6350   22.9250  -31.8280 H   0  0  0  0  0  0  0  0  0  0  0  0
   -3.2070   23.2380  -30.9690 N   0  0  0  0  0  0  0  0  0  0  0  0
   -2.2100   22.5440  -30.3580 C   0  0  0  0  0  0  0  0  0  0  0  0
  1  2  1  0
  2  3  2  0
  3  4  1  0
  4  5  1  0
  5  6  1  0
  5  7  1  0
  5  8  1  0
  4  9  1  0
  9 10  1  0
  9 11  2  0
 11 12  1  0
 12 13  2  0
 13 14  1  0
 13 15  1  0
 15 16  1  0
 15 17  2  0
 17 18  1  0
 17 19  1  0
 19 20  2  0
 20 21  1  0
 20 22  1  0
 22 23  1  0
 23 24  2  0
 24 25  1  0
 25 26  1  0
 25 27  1  0
 25 28  1  0
 28 29  2  0
 29 30  1  0
 29 31  1  0
 31 32  1  0
 31 33  2  0
 33 34  1  0
 33 35  1  0
 35 36  1  0
 35 37  2  0
 37 38  1  0
 23 39  1  0
 39 40  2  0
 11  2  1  0
 40 12  1  0
 40 19  1  0
 37 28  1  0
M  CHG  2  22  -1  37   1
M  END
>  <UniqueID>  (36) 
36

>  <SMILES>  (36) 
Cn1cc(-c2cccc3c[n-]/c(=N/Cc4cccc[nH+]4)nc23)cn1

>  <Energy>  (36) 
79.55126063636885

>  <Genealogy>  (36) 
Cn1cc(-c2cccc3c[n-]c(=NCc4cccc[nH+]4)nc23)cn1 (protonated)
Cn1cc(-c2cccc3c[n-]/c(=N/Cc4cccc[nH+]4)nc23)cn1 (cis-trans isomerization)
Cn1cc(-c2cccc3c[n-]/c(=N/Cc4cccc[nH+]4)nc23)cn1 (3D coordinates assigned)
Cn1cc(-c2cccc3c[n-]/c(=N/Cc4cccc[nH+]4)nc23)cn1 (optimized conformer: 79.55126063636885 kcal/mol)

>  <smiles>  (36) 
Cn1cc(-c2cccc3c[nH]c(=NCc4ccccn4)nc23)cn1

>  <score_type>  (36) 
oracle

>  <origin>  (36) 
adg

>  <m_score__min__energy>  (36) 
-7.8300000000000001

>  <m_primary>  (36) 
energy

$$$$
