0:0
     RDKit          3D

 36 37  0  0  0  0  0  0  0  0999 V2000
   -6.4910   17.2450  -34.2060 C   0  0  0  0  0  0  0  0  0  0  0  0
   -6.5630   18.5230  -33.4510 C   0  0  0  0  0  0  0  0  0  0  0  0
   -7.6600   18.8910  -32.6970 C   0  0  0  0  0  0  0  0  0  0  0  0
   -7.6960   20.0990  -31.9980 C   0  0  0  0  0  0  0  0  0  0  0  0
   -6.6100   20.9480  -32.0630 C   0  0  0  0  0  0  0  0  0  0  0  0
   -6.5510   22.2280  -31.3710 C   0  0  0  0  0  0  0  0  0  0  0  0
   -6.8960   22.3260  -30.1440 O   0  0  0  0  0  0  0  0  0  0  0  0
   -6.1200   23.4240  -31.9890 N   0  0  0  0  0  0  0  0  0  0  0  0
   -6.1120   24.6290  -31.1810 C   0  0  0  0  0  0  0  0  0  0  0  0
   -4.9340   24.6870  -30.2860 C   0  0  0  0  0  0  0  0  0  0  0  0
   -3.8710   25.2990  -30.5640 O   0  0  0  0  0  0  0  0  0  0  0  0
   -5.0280   24.0020  -29.0420 N   0  0  0  0  0  0  0  0  0  0  0  0
   -3.8640   24.0790  -28.1970 C   0  0  0  0  0  0  0  0  0  0  0  0
   -3.8200   24.8830  -27.0810 C   0  0  0  0  0  0  0  0  0  0  0  0
   -2.6970   24.9500  -26.2780 C   0  0  0  0  0  0  0  0  0  0  0  0
   -1.6170   24.1840  -26.6290 C   0  0  0  0  0  0  0  0  0  0  0  0
   -1.5970   23.3540  -27.7390 C   0  0  0  0  0  0  0  0  0  0  0  0
   -2.7450   23.3280  -28.5030 C   0  0  0  0  0  0  0  0  0  0  0  0
   -2.8190   22.2140  -30.0560 Br  0  0  0  0  0  0  0  0  0  0  0  0
   -5.5260   20.5570  -32.8240 C   0  0  0  0  0  0  0  0  0  0  0  0
   -5.4750   19.3690  -33.5180 C   0  0  0  0  0  0  0  0  0  0  0  0
   -6.4436   16.4036  -33.4990 H   0  0  0  0  0  0  0  0  0  0  0  0
   -7.3848   17.1422  -34.8389 H   0  0  0  0  0  0  0  0  0  0  0  0
   -5.5913   17.2432  -34.8389 H   0  0  0  0  0  0  0  0  0  0  0  0
   -8.5268   18.2157  -32.6459 H   0  0  0  0  0  0  0  0  0  0  0  0
   -8.5799   20.3709  -31.4023 H   0  0  0  0  0  0  0  0  0  0  0  0
   -5.8220   23.4180  -32.9930 H   0  0  0  0  0  0  0  0  0  0  0  0
   -6.0953   25.5038  -31.8476 H   0  0  0  0  0  0  0  0  0  0  0  0
   -7.0159   24.6246  -30.5542 H   0  0  0  0  0  0  0  0  0  0  0  0
   -5.8820   23.4710  -28.7420 H   0  0  0  0  0  0  0  0  0  0  0  0
   -4.7013   25.4879  -26.8213 H   0  0  0  0  0  0  0  0  0  0  0  0
   -2.6714   25.5960  -25.3880 H   0  0  0  0  0  0  0  0  0  0  0  0
   -0.7181   24.2300  -25.9966 H   0  0  0  0  0  0  0  0  0  0  0  0
   -0.7146   22.7497  -27.9962 H   0  0  0  0  0  0  0  0  0  0  0  0
   -4.6577   21.2301  -32.8786 H   0  0  0  0  0  0  0  0  0  0  0  0
   -4.5885   19.1008  -34.1114 H   0  0  0  0  0  0  0  0  0  0  0  0
  1  2  1  0
  2  3  2  0
  3  4  1  0
  4  5  2  0
  5  6  1  0
  6  7  2  0
  6  8  1  0
  8  9  1  0
  9 10  1  0
 10 11  2  0
 10 12  1  0
 12 13  1  0
 13 14  2  0
 14 15  1  0
 15 16  2  0
 16 17  1  0
 17 18  2  0
 18 19  1  0
  5 20  1  0
 20 21  2  0
 21  2  1  0
 18 13  1  0
  1 22  1  0
  1 23  1  0
  1 24  1  0
  3 25  1  0
  4 26  1  0
  8 27  1  0
  9 28  1  0
  9 29  1  0
 12 30  1  0
 14 31  1  0
 15 32  1  0
 16 33  1  0
 17 34  1  0
 20 35  1  0
 21 36  1  0
M  END
>  <smiles>  (1) 
Cc1ccc(C(=O)NCC(=O)Nc2ccccc2Br)cc1

>  <score_type>  (1) 
oracle

>  <origin>  (1) 
adg

>  <m_score__min__energy>  (1) 
-8.4900000000000002

>  <m_primary>  (1) 
energy

$$$$
1:0
     RDKit          3D

 20 21  0  0  0  0  0  0  0  0999 V2000
   -8.9440   20.2880  -32.3350 C   0  0  0  0  0  0  0  0  0  0  0  0
   -9.4090   21.3540  -31.5930 C   0  0  0  0  0  0  0  0  0  0  0  0
   -8.4570   22.2990  -31.2210 C   0  0  0  0  0  0  0  0  0  0  0  0
   -7.1270   22.1840  -31.5680 C   0  0  0  0  0  0  0  0  0  0  0  0
   -6.1100   23.1540  -31.1930 C   0  0  0  0  0  0  0  0  0  0  0  0
   -4.7970   22.7400  -31.1920 C   0  0  0  0  0  0  0  0  0  0  0  0
   -3.7990   23.6510  -30.8370 C   0  0  0  0  0  0  0  0  0  0  0  0
   -4.1320   24.9100  -30.5040 N   0  0  0  0  0  0  0  0  0  0  0  0
   -5.3990   25.3660  -30.4880 C   0  0  0  0  0  0  0  0  0  0  0  0
   -6.3890   24.4570  -30.8420 C   0  0  0  0  0  0  0  0  0  0  0  0
   -6.7430   21.1220  -32.2910 N   0  0  0  0  0  0  0  0  0  0  0  0
   -7.6210   20.1560  -32.6910 C   0  0  0  0  0  0  0  0  0  0  0  0
   -9.6576   19.5142  -32.6542 H   0  0  0  0  0  0  0  0  0  0  0  0
  -10.4681   21.4514  -31.3123 H   0  0  0  0  0  0  0  0  0  0  0  0
   -8.7770   23.1690  -30.6288 H   0  0  0  0  0  0  0  0  0  0  0  0
   -4.5374   21.7070  -31.4667 H   0  0  0  0  0  0  0  0  0  0  0  0
   -2.7442   23.3390  -30.8300 H   0  0  0  0  0  0  0  0  0  0  0  0
   -5.6378   26.4030  -30.2095 H   0  0  0  0  0  0  0  0  0  0  0  0
   -7.4371   24.7910  -30.8420 H   0  0  0  0  0  0  0  0  0  0  0  0
   -7.2797   19.2939  -33.2829 H   0  0  0  0  0  0  0  0  0  0  0  0
  1  2  2  0
  2  3  1  0
  3  4  2  0
  4  5  1  0
  5  6  2  0
  6  7  1  0
  7  8  2  0
  8  9  1  0
  9 10  2  0
  4 11  1  0
 11 12  2  0
 12  1  1  0
 10  5  1  0
  1 13  1  0
  2 14  1  0
  3 15  1  0
  6 16  1  0
  7 17  1  0
  9 18  1  0
 10 19  1  0
 12 20  1  0
M  END
>  <smiles>  (2) 
c1ccc(-c2ccncc2)nc1

>  <score_type>  (2) 
oracle

>  <origin>  (2) 
adg

>  <m_score__min__energy>  (2) 
-5.8799999999999999

>  <m_primary>  (2) 
energy

$$$$
2:0
     RDKit          3D

 32 34  0  0  0  0  0  0  0  0999 V2000
   -2.4980   24.5630  -28.9610 C   0  0  0  0  0  0  0  0  0  0  0  0
   -3.3680   25.2560  -29.8240 O   0  0  0  0  0  0  0  0  0  0  0  0
   -4.5520   24.6880  -30.2430 C   0  0  0  0  0  0  0  0  0  0  0  0
   -5.7390   25.3770  -30.0850 C   0  0  0  0  0  0  0  0  0  0  0  0
   -6.9320   24.8860  -30.4690 N   0  0  0  0  0  0  0  0  0  0  0  0
   -6.9980   23.6730  -31.0350 C   0  0  0  0  0  0  0  0  0  0  0  0
   -5.8440   22.9060  -31.2310 C   0  0  0  0  0  0  0  0  0  0  0  0
   -5.9980   21.6120  -31.8460 C   0  0  0  0  0  0  0  0  0  0  0  0
   -7.0630   20.7630  -31.5870 C   0  0  0  0  0  0  0  0  0  0  0  0
   -6.8760   19.6190  -32.3530 C   0  0  0  0  0  0  0  0  0  0  0  0
   -7.6340   18.4730  -32.4710 C   0  0  0  0  0  0  0  0  0  0  0  0
   -7.2380   17.4410  -33.3180 C   0  0  0  0  0  0  0  0  0  0  0  0
   -6.0640   17.6020  -34.0320 C   0  0  0  0  0  0  0  0  0  0  0  0
   -5.3080   18.7620  -33.9060 C   0  0  0  0  0  0  0  0  0  0  0  0
   -5.6890   19.7920  -33.0710 C   0  0  0  0  0  0  0  0  0  0  0  0
   -5.2000   20.9980  -32.7360 N   0  0  0  0  0  0  0  0  0  0  0  0
   -3.9550   21.5440  -33.2850 C   0  0  0  0  0  0  0  0  0  0  0  0
   -4.6370   23.4400  -30.8260 C   0  0  0  0  0  0  0  0  0  0  0  0
   -2.7687   24.7786  -27.9169 H   0  0  0  0  0  0  0  0  0  0  0  0
   -2.5824   23.4819  -29.1459 H   0  0  0  0  0  0  0  0  0  0  0  0
   -1.4632   24.8870  -29.1459 H   0  0  0  0  0  0  0  0  0  0  0  0
   -5.7077   26.3749  -29.6232 H   0  0  0  0  0  0  0  0  0  0  0  0
   -7.9736   23.2744  -31.3501 H   0  0  0  0  0  0  0  0  0  0  0  0
   -7.9010   20.9589  -30.9018 H   0  0  0  0  0  0  0  0  0  0  0  0
   -8.5622   18.3729  -31.8893 H   0  0  0  0  0  0  0  0  0  0  0  0
   -7.8402   16.5258  -33.4163 H   0  0  0  0  0  0  0  0  0  0  0  0
   -5.7247   16.8028  -34.7074 H   0  0  0  0  0  0  0  0  0  0  0  0
   -4.3801   18.8613  -34.4884 H   0  0  0  0  0  0  0  0  0  0  0  0
   -3.2880   21.8365  -32.4607 H   0  0  0  0  0  0  0  0  0  0  0  0
   -3.4607   20.7800  -33.9031 H   0  0  0  0  0  0  0  0  0  0  0  0
   -4.1822   22.4251  -33.9031 H   0  0  0  0  0  0  0  0  0  0  0  0
   -3.7174   22.8544  -30.9721 H   0  0  0  0  0  0  0  0  0  0  0  0
  1  2  1  0
  2  3  1  0
  3  4  2  0
  4  5  1  0
  5  6  2  0
  6  7  1  0
  7  8  1  0
  8  9  2  0
  9 10  1  0
 10 11  2  0
 11 12  1  0
 12 13  2  0
 13 14  1  0
 14 15  2  0
 15 16  1  0
 16 17  1  0
  7 18  2  0
 18  3  1  0
 16  8  1  0
 15 10  1  0
  1 19  1  0
  1 20  1  0
  1 21  1  0
  4 22  1  0
  6 23  1  0
  9 24  1  0
 11 25  1  0
 12 26  1  0
 13 27  1  0
 14 28  1  0
 17 29  1  0
 17 30  1  0
 17 31  1  0
 18 32  1  0
M  END
>  <smiles>  (3) 
COc1cncc(-c2cc3ccccc3n2C)c1

>  <score_type>  (3) 
oracle

>  <origin>  (3) 
adg

>  <m_score__min__energy>  (3) 
-7.5499999999999998

>  <m_primary>  (3) 
energy

$$$$
3:0
     RDKit          3D

 51 54  0  0  0  0  0  0  0  0999 V2000
   -0.8020   21.9710  -26.6900 C   0  0  0  0  0  0  0  0  0  0  0  0
   -0.3250   23.3500  -27.0870 C   0  0  0  0  0  0  0  0  0  0  0  0
   -1.3570   24.2330  -27.5200 N   0  0  0  0  0  0  0  0  0  0  0  0
   -1.5890   25.3630  -26.6740 C   0  0  0  0  0  0  0  0  0  0  0  0
   -2.9700   25.3090  -26.0120 C   0  0  0  0  0  0  0  0  0  0  0  0
   -1.3700   24.5330  -28.9180 C   0  0  0  0  0  0  0  0  0  0  0  0
   -2.4500   23.7680  -29.5730 C   0  0  0  0  0  0  0  0  0  0  0  0
   -3.7350   24.3210  -29.5480 C   0  0  0  0  0  0  0  0  0  0  0  0
   -4.7880   23.6330  -30.1570 C   0  0  0  0  0  0  0  0  0  0  0  0
   -4.5350   22.4560  -30.7510 N   0  0  0  0  0  0  0  0  0  0  0  0
   -5.4110   21.6410  -31.3920 C   0  0  0  0  0  0  0  0  0  0  0  0
   -6.8400   21.8750  -31.5700 C   0  0  0  0  0  0  0  0  0  0  0  0
   -7.8060   20.9570  -31.2160 C   0  0  0  0  0  0  0  0  0  0  0  0
   -9.1210   21.3170  -31.4420 C   0  0  0  0  0  0  0  0  0  0  0  0
   -9.4840   22.4940  -31.9790 N   0  0  0  0  0  0  0  0  0  0  0  0
   -8.5500   23.4150  -32.3360 C   0  0  0  0  0  0  0  0  0  0  0  0
   -7.2040   23.1050  -32.1300 C   0  0  0  0  0  0  0  0  0  0  0  0
   -6.2840   24.0230  -32.4890 F   0  0  0  0  0  0  0  0  0  0  0  0
   -4.6850   20.5350  -31.8450 C   0  0  0  0  0  0  0  0  0  0  0  0
   -5.2910   19.4340  -32.5840 C   0  0  0  0  0  0  0  0  0  0  0  0
   -5.8760   18.4230  -31.8120 C   0  0  0  0  0  0  0  0  0  0  0  0
   -6.4780   17.3400  -32.4240 C   0  0  0  0  0  0  0  0  0  0  0  0
   -6.4860   17.2810  -33.8000 C   0  0  0  0  0  0  0  0  0  0  0  0
   -7.0860   16.2040  -34.3670 F   0  0  0  0  0  0  0  0  0  0  0  0
   -5.9090   18.2750  -34.5920 C   0  0  0  0  0  0  0  0  0  0  0  0
   -5.3060   19.3620  -33.9610 C   0  0  0  0  0  0  0  0  0  0  0  0
   -3.4080   20.7220  -31.4640 N   0  0  0  0  0  0  0  0  0  0  0  0
   -3.3120   21.8980  -30.7940 C   0  0  0  0  0  0  0  0  0  0  0  0
   -2.2270   22.5420  -30.2020 C   0  0  0  0  0  0  0  0  0  0  0  0
   -0.8287   21.8939  -25.5930 H   0  0  0  0  0  0  0  0  0  0  0  0
   -1.8110   21.8016  -27.0941 H   0  0  0  0  0  0  0  0  0  0  0  0
   -0.1134   21.2144  -27.0941 H   0  0  0  0  0  0  0  0  0  0  0  0
    0.1729   23.8043  -26.2177 H   0  0  0  0  0  0  0  0  0  0  0  0
    0.3479   23.2118  -27.9461 H   0  0  0  0  0  0  0  0  0  0  0  0
   -0.8190   25.3830  -25.8887 H   0  0  0  0  0  0  0  0  0  0  0  0
   -1.5452   26.2689  -27.2965 H   0  0  0  0  0  0  0  0  0  0  0  0
   -2.8528   25.3136  -24.9183 H   0  0  0  0  0  0  0  0  0  0  0  0
   -3.5594   26.1848  -26.3213 H   0  0  0  0  0  0  0  0  0  0  0  0
   -3.4892   24.3899  -26.3213 H   0  0  0  0  0  0  0  0  0  0  0  0
   -1.5440   25.6097  -29.0608 H   0  0  0  0  0  0  0  0  0  0  0  0
   -0.4023   24.2572  -29.3623 H   0  0  0  0  0  0  0  0  0  0  0  0
   -3.9146   25.2873  -29.0541 H   0  0  0  0  0  0  0  0  0  0  0  0
   -5.8064   24.0487  -30.1498 H   0  0  0  0  0  0  0  0  0  0  0  0
   -7.5425   19.9844  -30.7747 H   0  0  0  0  0  0  0  0  0  0  0  0
   -9.9116   20.6029  -31.1680 H   0  0  0  0  0  0  0  0  0  0  0  0
   -8.8466   24.3788  -32.7754 H   0  0  0  0  0  0  0  0  0  0  0  0
   -5.8564   18.4910  -30.7143 H   0  0  0  0  0  0  0  0  0  0  0  0
   -6.9409   16.5420  -31.8249 H   0  0  0  0  0  0  0  0  0  0  0  0
   -5.9296   18.2023  -35.6894 H   0  0  0  0  0  0  0  0  0  0  0  0
   -4.8433   20.1602  -34.5600 H   0  0  0  0  0  0  0  0  0  0  0  0
   -1.2218   22.0961  -30.2297 H   0  0  0  0  0  0  0  0  0  0  0  0
  1  2  1  0
  2  3  1  0
  3  4  1  0
  4  5  1  0
  3  6  1  0
  6  7  1  0
  7  8  1  0
  8  9  2  0
  9 10  1  0
 10 11  1  0
 11 12  1  0
 12 13  2  0
 13 14  1  0
 14 15  2  0
 15 16  1  0
 16 17  2  0
 17 18  1  0
 11 19  2  0
 19 20  1  0
 20 21  2  0
 21 22  1  0
 22 23  2  0
 23 24  1  0
 23 25  1  0
 25 26  2  0
 19 27  1  0
 27 28  2  0
 28 29  1  0
 29  7  2  0
 28 10  1  0
 17 12  1  0
 26 20  1  0
  1 30  1  0
  1 31  1  0
  1 32  1  0
  2 33  1  0
  2 34  1  0
  4 35  1  0
  4 36  1  0
  5 37  1  0
  5 38  1  0
  5 39  1  0
  6 40  1  0
  6 41  1  0
  8 42  1  0
  9 43  1  0
 13 44  1  0
 14 45  1  0
 16 46  1  0
 21 47  1  0
 22 48  1  0
 25 49  1  0
 26 50  1  0
 29 51  1  0
M  END
>  <smiles>  (4) 
CCN(CC)Cc1ccn2c(-c3ccncc3F)c(-c3ccc(F)cc3)nc2c1

>  <score_type>  (4) 
oracle

>  <origin>  (4) 
adg

>  <m_score__min__energy>  (4) 
-8.0800000000000001

>  <m_primary>  (4) 
energy

$$$$
4:0
     RDKit          3D

 39 41  0  0  1  0  0  0  0  0999 V2000
   -2.4110   25.3370  -26.4430 C   0  0  0  0  0  0  0  0  0  0  0  0
   -1.2440   26.0840  -27.0610 C   0  0  0  0  0  0  0  0  0  0  0  0
   -1.2810   25.8900  -28.5120 N   0  0  0  0  0  0  0  0  0  0  0  0
   -1.9270   24.9120  -29.0320 C   0  0  0  0  0  0  0  0  0  0  0  0
   -1.3640   23.6500  -28.9260 C   0  0  0  0  0  0  0  0  0  0  0  0
   -2.0390   22.6070  -29.4740 C   0  0  0  0  0  0  0  0  0  0  0  0
   -3.2510   22.7940  -30.1180 C   0  0  0  0  0  0  0  0  0  0  0  0
   -3.9410   21.7410  -30.6760 C   0  0  0  0  0  0  0  0  0  0  0  0
   -5.1580   21.9200  -31.3230 C   0  0  0  0  0  0  0  0  0  0  0  0
   -5.7930   20.7300  -31.8740 C   0  0  0  0  0  0  0  0  0  0  0  0
   -7.1780   20.6300  -31.9400 C   0  0  0  0  0  0  0  0  0  0  0  0
   -7.7870   19.5060  -32.4600 C   0  0  0  0  0  0  0  0  0  0  0  0
   -7.0240   18.4570  -32.9250 C   0  0  0  0  0  0  0  0  0  0  0  0
   -7.5650   17.2950  -33.4610 O   0  0  0  0  0  0  0  0  0  0  0  0
   -6.6430   16.2950  -33.8600 C   0  0  0  0  0  0  0  0  0  0  0  0
   -5.6480   18.5570  -32.8590 C   0  0  0  0  0  0  0  0  0  0  0  0
   -5.0100   19.6680  -32.3460 C   0  0  0  0  0  0  0  0  0  0  0  0
   -5.7050   23.1830  -31.4200 C   0  0  0  0  0  0  0  0  0  0  0  0
   -5.0010   24.2260  -30.8570 C   0  0  0  0  0  0  0  0  0  0  0  0
   -3.7910   24.0600  -30.2100 C   0  0  0  0  0  0  0  0  0  0  0  0
   -3.1090   25.0920  -29.6610 N   0  0  0  0  0  0  0  0  0  0  0  0
   -2.3372   25.3842  -25.3465 H   0  0  0  0  0  0  0  0  0  0  0  0
   -3.3551   25.7990  -26.7672 H   0  0  0  0  0  0  0  0  0  0  0  0
   -2.3867   24.2861  -26.7672 H   0  0  0  0  0  0  0  0  0  0  0  0
   -1.3251   27.1560  -26.8282 H   0  0  0  0  0  0  0  0  0  0  0  0
   -0.2958   25.7020  -26.6548 H   0  0  0  0  0  0  0  0  0  0  0  0
   -0.4019   23.4983  -28.4147 H   0  0  0  0  0  0  0  0  0  0  0  0
   -1.6152   21.5942  -29.4052 H   0  0  0  0  0  0  0  0  0  0  0  0
   -3.5165   20.7285  -30.6077 H   0  0  0  0  0  0  0  0  0  0  0  0
   -7.7986   21.4602  -31.5718 H   0  0  0  0  0  0  0  0  0  0  0  0
   -8.8846   19.4473  -32.5034 H   0  0  0  0  0  0  0  0  0  0  0  0
   -6.2066   15.8217  -32.9681 H   0  0  0  0  0  0  0  0  0  0  0  0
   -7.1638   15.5348  -34.4608 H   0  0  0  0  0  0  0  0  0  0  0  0
   -5.8431   16.7524  -34.4608 H   0  0  0  0  0  0  0  0  0  0  0  0
   -5.0379   17.7199  -33.2291 H   0  0  0  0  0  0  0  0  0  0  0  0
   -3.9118   19.7188  -32.3085 H   0  0  0  0  0  0  0  0  0  0  0  0
   -6.6664   23.3513  -31.9273 H   0  0  0  0  0  0  0  0  0  0  0  0
   -5.4227   25.2396  -30.9261 H   0  0  0  0  0  0  0  0  0  0  0  0
   -3.4960   26.0460  -29.7200 H   0  0  0  0  0  0  0  0  0  0  0  0
  1  2  1  0
  2  3  1  0
  3  4  2  0
  4  5  1  0
  5  6  2  0
  6  7  1  0
  7  8  2  0
  8  9  1  0
  9 10  1  0
 10 11  2  0
 11 12  1  0
 12 13  2  0
 13 14  1  0
 14 15  1  0
 13 16  1  0
 16 17  2  0
  9 18  2  0
 18 19  1  0
 19 20  2  0
 20 21  1  0
 21  4  1  0
 20  7  1  0
 17 10  1  0
  1 22  1  0
  1 23  1  0
  1 24  1  0
  2 25  1  0
  2 26  1  0
  5 27  1  0
  6 28  1  0
  8 29  1  0
 11 30  1  0
 12 31  1  0
 15 32  1  0
 15 33  1  0
 15 34  1  0
 16 35  1  0
 17 36  1  0
 18 37  1  0
 19 38  1  0
 21 39  1  0
M  END
>  <smiles>  (5) 
CCN=c1ccc2cc(-c3ccc(OC)cc3)ccc2[nH]1

>  <score_type>  (5) 
oracle

>  <origin>  (5) 
adg

>  <m_score__min__energy>  (5) 
-7.3899999999999997

>  <m_primary>  (5) 
energy

$$$$
5:0
     RDKit          3D

 29 30  0  0  0  0  0  0  0  0999 V2000
   -2.2280   24.6900  -28.1890 C   0  0  0  0  0  0  0  0  0  0  0  0
   -2.8000   25.2990  -29.3430 O   0  0  0  0  0  0  0  0  0  0  0  0
   -3.9200   24.6940  -29.8980 C   0  0  0  0  0  0  0  0  0  0  0  0
   -3.9870   23.3150  -29.8820 C   0  0  0  0  0  0  0  0  0  0  0  0
   -5.0700   22.6500  -30.4170 C   0  0  0  0  0  0  0  0  0  0  0  0
   -6.1450   23.3350  -30.9950 C   0  0  0  0  0  0  0  0  0  0  0  0
   -7.5500   22.4810  -31.6820 S   0  0  0  0  0  0  0  0  0  0  0  0
   -7.2230   20.8430  -32.2310 C   0  0  0  0  0  0  0  0  0  0  0  0
   -8.2080   19.8730  -32.0080 C   0  0  0  0  0  0  0  0  0  0  0  0
   -7.9840   18.5780  -32.4260 C   0  0  0  0  0  0  0  0  0  0  0  0
   -6.8400   18.1760  -33.0570 C   0  0  0  0  0  0  0  0  0  0  0  0
   -6.6360   16.5080  -33.5560 Cl  0  0  0  0  0  0  0  0  0  0  0  0
   -5.8650   19.1250  -33.2790 C   0  0  0  0  0  0  0  0  0  0  0  0
   -6.0770   20.4250  -32.8660 C   0  0  0  0  0  0  0  0  0  0  0  0
   -5.0390   21.3630  -33.1210 N   0  0  0  0  0  0  0  0  0  0  0  0
   -6.0500   24.7290  -30.9960 C   0  0  0  0  0  0  0  0  0  0  0  0
   -4.9630   25.3880  -30.4600 C   0  0  0  0  0  0  0  0  0  0  0  0
   -2.6559   25.1456  -27.2838 H   0  0  0  0  0  0  0  0  0  0  0  0
   -2.4479   23.6122  -28.1961 H   0  0  0  0  0  0  0  0  0  0  0  0
   -1.1386   24.8420  -28.1961 H   0  0  0  0  0  0  0  0  0  0  0  0
   -3.1637   22.7380  -29.4356 H   0  0  0  0  0  0  0  0  0  0  0  0
   -5.0896   21.5505  -30.3887 H   0  0  0  0  0  0  0  0  0  0  0  0
   -9.1491   20.1407  -31.5054 H   0  0  0  0  0  0  0  0  0  0  0  0
   -8.7678   17.8285  -32.2418 H   0  0  0  0  0  0  0  0  0  0  0  0
   -4.9260   18.8486  -33.7810 H   0  0  0  0  0  0  0  0  0  0  0  0
   -5.3350   22.2960  -33.4770 H   0  0  0  0  0  0  0  0  0  0  0  0
   -4.0550   21.0740  -32.9470 H   0  0  0  0  0  0  0  0  0  0  0  0
   -6.8667   25.3189  -31.4376 H   0  0  0  0  0  0  0  0  0  0  0  0
   -4.9313   26.4873  -30.4832 H   0  0  0  0  0  0  0  0  0  0  0  0
  1  2  1  0
  2  3  1  0
  3  4  2  0
  4  5  1  0
  5  6  2  0
  6  7  1  0
  7  8  1  0
  8  9  2  0
  9 10  1  0
 10 11  2  0
 11 12  1  0
 11 13  1  0
 13 14  2  0
 14 15  1  0
  6 16  1  0
 16 17  2  0
 17  3  1  0
 14  8  1  0
  1 18  1  0
  1 19  1  0
  1 20  1  0
  4 21  1  0
  5 22  1  0
  9 23  1  0
 10 24  1  0
 13 25  1  0
 15 26  1  0
 15 27  1  0
 16 28  1  0
 17 29  1  0
M  END
>  <smiles>  (6) 
COc1ccc(Sc2ccc(Cl)cc2N)cc1

>  <score_type>  (6) 
oracle

>  <origin>  (6) 
adg

>  <m_score__min__energy>  (6) 
-7.6799999999999997

>  <m_primary>  (6) 
energy

$$$$
6:0
     RDKit          3D

 43 46  0  0  1  0  0  0  0  0999 V2000
   -6.2390   17.1040  -33.9380 C   0  0  0  0  0  0  0  0  0  0  0  0
   -6.9150   17.4270  -32.7390 O   0  0  0  0  0  0  0  0  0  0  0  0
   -7.3440   18.7260  -32.5640 C   0  0  0  0  0  0  0  0  0  0  0  0
   -8.6920   19.0240  -32.3500 C   0  0  0  0  0  0  0  0  0  0  0  0
   -9.1210   20.3240  -32.1750 C   0  0  0  0  0  0  0  0  0  0  0  0
   -8.2190   21.3690  -32.2080 C   0  0  0  0  0  0  0  0  0  0  0  0
   -8.8450   22.9920  -31.9680 Cl  0  0  0  0  0  0  0  0  0  0  0  0
   -6.8850   21.1060  -32.4180 C   0  0  0  0  0  0  0  0  0  0  0  0
   -5.9500   22.1710  -32.4490 N   0  0  0  0  0  0  0  0  0  0  0  0
   -5.0320   22.4530  -31.4140 C   0  0  0  0  0  0  0  0  0  0  0  0
   -5.4040   23.0630  -30.2340 C   0  0  0  0  0  0  0  0  0  0  0  0
   -4.4890   23.3220  -29.2380 C   0  0  0  0  0  0  0  0  0  0  0  0
   -3.1360   22.9850  -29.3640 C   0  0  0  0  0  0  0  0  0  0  0  0
   -2.8130   22.3750  -30.5650 C   0  0  0  0  0  0  0  0  0  0  0  0
   -3.7090   22.1150  -31.5540 C   0  0  0  0  0  0  0  0  0  0  0  0
   -1.3170   21.9240  -30.7930 C   0  0  0  0  0  0  0  0  0  0  0  0
   -0.9140   22.2220  -29.4380 N   0  0  0  0  0  0  0  0  0  0  0  0
   -0.7700   21.4370  -28.1980 C   0  0  0  0  0  0  0  0  0  0  0  0
   -1.8540   22.1760  -27.3350 C   0  0  0  0  0  0  0  0  0  0  0  0
   -2.2830   23.3560  -28.2180 C   0  0  2  0  0  0  0  0  0  0  0  0
   -2.6760   24.5640  -27.4790 C   0  0  0  0  0  0  0  0  0  0  0  0
   -0.8910   23.5560  -28.9170 C   0  0  0  0  0  0  0  0  0  0  0  0
   -0.2120   24.5760  -28.8910 O   0  0  0  0  0  0  0  0  0  0  0  0
   -6.4780   19.8050  -32.5900 C   0  0  0  0  0  0  0  0  0  0  0  0
   -5.2701   16.6411  -33.6994 H   0  0  0  0  0  0  0  0  0  0  0  0
   -6.8477   16.3994  -34.5237 H   0  0  0  0  0  0  0  0  0  0  0  0
   -6.0733   18.0202  -34.5237 H   0  0  0  0  0  0  0  0  0  0  0  0
   -9.4265   18.2057  -32.3204 H   0  0  0  0  0  0  0  0  0  0  0  0
  -10.1887   20.5291  -32.0081 H   0  0  0  0  0  0  0  0  0  0  0  0
   -5.9610   22.7720  -33.3060 H   0  0  0  0  0  0  0  0  0  0  0  0
   -6.4557   23.3491  -30.0852 H   0  0  0  0  0  0  0  0  0  0  0  0
   -4.8322   23.8094  -28.3135 H   0  0  0  0  0  0  0  0  0  0  0  0
   -3.3689   21.6270  -32.4793 H   0  0  0  0  0  0  0  0  0  0  0  0
   -1.2201   20.8587  -31.0493 H   0  0  0  0  0  0  0  0  0  0  0  0
   -0.7539   22.3864  -31.6170 H   0  0  0  0  0  0  0  0  0  0  0  0
   -1.0122   20.3746  -28.3484 H   0  0  0  0  0  0  0  0  0  0  0  0
    0.2419   21.3998  -27.7683 H   0  0  0  0  0  0  0  0  0  0  0  0
   -2.7065   21.5133  -27.1253 H   0  0  0  0  0  0  0  0  0  0  0  0
   -1.4717   22.4955  -26.3543 H   0  0  0  0  0  0  0  0  0  0  0  0
   -2.6127   24.3695  -26.3982 H   0  0  0  0  0  0  0  0  0  0  0  0
   -2.0006   25.3912  -27.7428 H   0  0  0  0  0  0  0  0  0  0  0  0
   -3.7088   24.8355  -27.7428 H   0  0  0  0  0  0  0  0  0  0  0  0
   -5.4082   19.6111  -32.7570 H   0  0  0  0  0  0  0  0  0  0  0  0
  1  2  1  0
  2  3  1  0
  3  4  2  0
  4  5  1  0
  5  6  2  0
  6  7  1  0
  6  8  1  0
  8  9  1  0
  9 10  1  0
 10 11  2  0
 11 12  1  0
 12 13  2  0
 13 14  1  0
 14 15  2  0
 14 16  1  0
 16 17  1  0
 17 18  1  0
 18 19  1  0
 19 20  1  0
 20 21  1  1
 20 22  1  0
 22 23  2  0
  8 24  2  0
 24  3  1  0
 15 10  1  0
 22 17  1  0
 20 13  1  0
  1 25  1  0
  1 26  1  0
  1 27  1  0
  4 28  1  0
  5 29  1  0
  9 30  1  0
 11 31  1  0
 12 32  1  0
 15 33  1  0
 16 34  1  0
 16 35  1  0
 18 36  1  0
 18 37  1  0
 19 38  1  0
 19 39  1  0
 21 40  1  0
 21 41  1  0
 21 42  1  0
 24 43  1  0
M  END
>  <smiles>  (7) 
COc1ccc(Cl)c(Nc2ccc3c(c2)CN2CCC3(C)C2=O)c1

>  <score_type>  (7) 
oracle

>  <origin>  (7) 
adg

>  <m_score__min__energy>  (7) 
-9.4499999999999993

>  <m_primary>  (7) 
energy

$$$$
7:0
     RDKit          3D

 46 48  0  0  1  0  0  0  0  0999 V2000
   -3.0870   24.5580  -27.9530 C   0  0  0  0  0  0  0  0  0  0  0  0
   -3.0730   24.7510  -29.3500 O   0  0  0  0  0  0  0  0  0  0  0  0
   -3.1950   23.6970  -30.2450 C   0  0  0  0  0  0  0  0  0  0  0  0
   -2.1640   22.7620  -30.3650 C   0  0  0  0  0  0  0  0  0  0  0  0
   -2.3470   21.7400  -31.2710 C   0  0  0  0  0  0  0  0  0  0  0  0
   -1.5070   20.7090  -31.5790 N   0  0  0  0  0  0  0  0  0  0  0  0
   -2.1220   19.9760  -32.5150 C   0  0  0  0  0  0  0  0  0  0  0  0
   -1.6330   18.8290  -33.1220 O   0  0  0  0  0  0  0  0  0  0  0  0
   -3.3640   20.5270  -32.8190 C   0  0  0  0  0  0  0  0  0  0  0  0
   -4.2910   20.0050  -33.7750 N   0  0  0  0  0  0  0  0  0  0  0  0
   -4.0550   18.9500  -34.4490 N   0  0  0  0  0  0  0  0  0  0  0  0
   -5.1060   18.1390  -34.9720 C   0  0  0  0  0  0  0  0  0  0  0  0
   -6.1120   18.6550  -35.5270 O   0  0  0  0  0  0  0  0  0  0  0  0
   -4.9350   16.6630  -34.8190 C   0  0  0  0  0  0  0  0  0  0  0  0
   -5.7310   16.0770  -33.7990 N   0  0  0  0  0  0  0  0  0  0  0  0
   -5.5180   14.6930  -33.5670 C   0  0  0  0  0  0  0  0  0  0  0  0
   -5.4630   16.9340  -32.3240 S   0  0  0  0  0  0  0  0  0  0  0  0
   -5.6260   16.0100  -31.1330 O   0  0  0  0  0  0  0  0  0  0  0  0
   -4.0620   17.5050  -32.3490 O   0  0  0  0  0  0  0  0  0  0  0  0
   -6.5800   18.2550  -32.1460 C   0  0  0  0  0  0  0  0  0  0  0  0
   -7.8810   18.1430  -32.5220 C   0  0  0  0  0  0  0  0  0  0  0  0
   -8.7550   19.1980  -32.3750 C   0  0  0  0  0  0  0  0  0  0  0  0
   -8.3180   20.3840  -31.8430 C   0  0  0  0  0  0  0  0  0  0  0  0
   -9.4590   21.8890  -31.6060 Br  0  0  0  0  0  0  0  0  0  0  0  0
   -6.9910   20.5370  -31.4460 C   0  0  0  0  0  0  0  0  0  0  0  0
   -6.1560   19.4540  -31.6140 C   0  0  0  0  0  0  0  0  0  0  0  0
   -3.4980   21.6440  -32.0270 C   0  0  0  0  0  0  0  0  0  0  0  0
   -4.5130   22.5520  -31.9190 C   0  0  0  0  0  0  0  0  0  0  0  0
   -4.3390   23.5910  -31.0040 C   0  0  0  0  0  0  0  0  0  0  0  0
   -5.7190   24.8950  -30.8040 Br  0  0  0  0  0  0  0  0  0  0  0  0
   -3.0163   25.5324  -27.4475 H   0  0  0  0  0  0  0  0  0  0  0  0
   -4.0236   24.0605  -27.6609 H   0  0  0  0  0  0  0  0  0  0  0  0
   -2.2320   23.9305  -27.6609 H   0  0  0  0  0  0  0  0  0  0  0  0
   -1.2466   22.8382  -29.7628 H   0  0  0  0  0  0  0  0  0  0  0  0
   -0.5770   20.5520  -31.1520 H   0  0  0  0  0  0  0  0  0  0  0  0
   -2.2930   18.1410  -33.4690 H   0  0  0  0  0  0  0  0  0  0  0  0
   -5.1975   16.1865  -35.7751 H   0  0  0  0  0  0  0  0  0  0  0  0
   -3.8868   16.4996  -34.5282 H   0  0  0  0  0  0  0  0  0  0  0  0
   -5.4888   14.5030  -32.4839 H   0  0  0  0  0  0  0  0  0  0  0  0
   -6.3378   14.1151  -34.0186 H   0  0  0  0  0  0  0  0  0  0  0  0
   -4.5624   14.3883  -34.0186 H   0  0  0  0  0  0  0  0  0  0  0  0
   -8.2417   17.1961  -32.9501 H   0  0  0  0  0  0  0  0  0  0  0  0
   -9.8048   19.0888  -32.6848 H   0  0  0  0  0  0  0  0  0  0  0  0
   -6.6259   21.4818  -31.0169 H   0  0  0  0  0  0  0  0  0  0  0  0
   -5.1033   19.5505  -31.3098 H   0  0  0  0  0  0  0  0  0  0  0  0
   -5.4264   22.4678  -32.5261 H   0  0  0  0  0  0  0  0  0  0  0  0
  1  2  1  0
  2  3  1  0
  3  4  2  0
  4  5  1  0
  5  6  1  0
  6  7  1  0
  7  8  1  0
  7  9  2  0
  9 10  1  0
 10 11  2  0
 11 12  1  0
 12 13  2  0
 12 14  1  0
 14 15  1  0
 15 16  1  0
 15 17  1  0
 17 18  2  0
 17 19  2  0
 17 20  1  0
 20 21  2  0
 21 22  1  0
 22 23  2  0
 23 24  1  0
 23 25  1  0
 25 26  2  0
  9 27  1  0
 27 28  1  0
 28 29  2  0
 29 30  1  0
 29  3  1  0
 27  5  2  0
 26 20  1  0
  1 31  1  0
  1 32  1  0
  1 33  1  0
  4 34  1  0
  6 35  1  0
  8 36  1  0
 14 37  1  0
 14 38  1  0
 16 39  1  0
 16 40  1  0
 16 41  1  0
 21 42  1  0
 22 43  1  0
 25 44  1  0
 26 45  1  0
 28 46  1  0
M  END
>  <smiles>  (8) 
COc1cc2[nH]c(O)c(N=NC(=O)CN(C)S(=O)(=O)c3ccc(Br)cc3)c2cc1Br

>  <score_type>  (8) 
oracle

>  <origin>  (8) 
adg

>  <m_score__min__energy>  (8) 
-10.359999999999999

>  <m_primary>  (8) 
energy

$$$$
8:0
     RDKit          3D

 34 36  0  0  1  0  0  0  0  0999 V2000
   -9.0930   21.5060  -30.9530 C   0  0  0  0  0  0  0  0  0  0  0  0
   -8.2550   21.6630  -32.1930 C   0  0  0  0  0  0  0  0  0  0  0  0
   -6.9440   22.1770  -31.9310 N   0  0  0  0  0  0  0  0  0  0  0  0
   -5.7780   21.6860  -32.4200 C   0  0  0  0  0  0  0  0  0  0  0  0
   -4.7820   22.4460  -31.9390 N   0  0  0  0  0  0  0  0  0  0  0  0
   -5.3110   23.3940  -31.1650 C   0  0  0  0  0  0  0  0  0  0  0  0
   -4.7480   24.4280  -30.4340 C   0  0  0  0  0  0  0  0  0  0  0  0
   -3.4780   24.5440  -30.4700 N   0  0  0  0  0  0  0  0  0  0  0  0
   -2.6090   23.8190  -29.5740 C   0  0  0  0  0  0  0  0  0  0  0  0
   -2.3460   24.5880  -28.3250 C   0  0  0  0  0  0  0  0  0  0  0  0
   -3.1710   24.5450  -27.2240 C   0  0  0  0  0  0  0  0  0  0  0  0
   -2.9010   25.2770  -26.0690 C   0  0  0  0  0  0  0  0  0  0  0  0
   -1.7900   26.0760  -25.9900 C   0  0  0  0  0  0  0  0  0  0  0  0
   -0.9530   26.1340  -27.0730 C   0  0  0  0  0  0  0  0  0  0  0  0
   -1.2220   25.4170  -28.2000 C   0  0  0  0  0  0  0  0  0  0  0  0
   -5.5260   25.2580  -29.7250 N   0  0  0  0  0  0  0  0  0  0  0  0
   -6.8610   25.1050  -29.7090 C   0  0  0  0  0  0  0  0  0  0  0  0
   -7.4290   24.0910  -30.4260 N   0  0  0  0  0  0  0  0  0  0  0  0
   -6.6830   23.2450  -31.1440 C   0  0  0  0  0  0  0  0  0  0  0  0
   -8.4572   21.6251  -30.0633 H   0  0  0  0  0  0  0  0  0  0  0  0
   -9.8826   22.2718  -30.9446 H   0  0  0  0  0  0  0  0  0  0  0  0
   -9.5518   20.5063  -30.9446 H   0  0  0  0  0  0  0  0  0  0  0  0
   -8.1542   20.6784  -32.6730 H   0  0  0  0  0  0  0  0  0  0  0  0
   -8.7660   22.3904  -32.8409 H   0  0  0  0  0  0  0  0  0  0  0  0
   -5.6685   20.8206  -33.0902 H   0  0  0  0  0  0  0  0  0  0  0  0
   -3.0846   22.8626  -29.3112 H   0  0  0  0  0  0  0  0  0  0  0  0
   -1.6491   23.6524  -30.0847 H   0  0  0  0  0  0  0  0  0  0  0  0
   -4.0711   23.9135  -27.2567 H   0  0  0  0  0  0  0  0  0  0  0  0
   -3.5870   25.2128  -25.2115 H   0  0  0  0  0  0  0  0  0  0  0  0
   -1.5759   26.6559  -25.0801 H   0  0  0  0  0  0  0  0  0  0  0  0
   -0.0539   26.7664  -27.0323 H   0  0  0  0  0  0  0  0  0  0  0  0
   -0.5268   25.4918  -29.0492 H   0  0  0  0  0  0  0  0  0  0  0  0
   -5.1180   26.0300  -29.1780 H   0  0  0  0  0  0  0  0  0  0  0  0
   -7.4909   25.7907  -29.1233 H   0  0  0  0  0  0  0  0  0  0  0  0
  1  2  1  0
  2  3  1  0
  3  4  1  0
  4  5  2  0
  5  6  1  0
  6  7  1  0
  7  8  2  0
  8  9  1  0
  9 10  1  0
 10 11  2  0
 11 12  1  0
 12 13  2  0
 13 14  1  0
 14 15  2  0
  7 16  1  0
 16 17  1  0
 17 18  2  0
 18 19  1  0
 19  3  1  0
 19  6  2  0
 15 10  1  0
  1 20  1  0
  1 21  1  0
  1 22  1  0
  2 23  1  0
  2 24  1  0
  4 25  1  0
  9 26  1  0
  9 27  1  0
 11 28  1  0
 12 29  1  0
 13 30  1  0
 14 31  1  0
 15 32  1  0
 16 33  1  0
 17 34  1  0
M  END
>  <smiles>  (9) 
CCn1cnc2c(=NCc3ccccc3)[nH]cnc21

>  <score_type>  (9) 
oracle

>  <origin>  (9) 
adg

>  <m_score__min__energy>  (9) 
-6.6500000000000004

>  <m_primary>  (9) 
energy

$$$$
9:0
     RDKit          3D

 53 55  0  0  0  0  0  0  0  0999 V2000
   -5.7290   18.4800  -34.6310 C   0  0  0  0  0  0  0  0  0  0  0  0
   -6.6360   17.9730  -33.4970 C   0  0  0  0  0  0  0  0  0  0  0  0
   -7.3060   19.1220  -32.9890 N   0  0  0  0  0  0  0  0  0  0  0  0
   -8.5230   18.8990  -32.3340 C   0  0  0  0  0  0  0  0  0  0  0  0
   -9.4030   20.1230  -32.3690 C   0  0  0  0  0  0  0  0  0  0  0  0
   -6.9470   20.3840  -33.4580 C   0  0  0  0  0  0  0  0  0  0  0  0
   -6.1670   21.2640  -32.5580 C   0  0  0  0  0  0  0  0  0  0  0  0
   -6.7960   22.2020  -31.7260 C   0  0  0  0  0  0  0  0  0  0  0  0
   -6.0650   23.0280  -30.8880 C   0  0  0  0  0  0  0  0  0  0  0  0
   -4.6950   22.9670  -30.8350 C   0  0  0  0  0  0  0  0  0  0  0  0
   -3.8850   23.8300  -29.9620 C   0  0  0  0  0  0  0  0  0  0  0  0
   -3.5090   24.9170  -30.4600 O   0  0  0  0  0  0  0  0  0  0  0  0
   -3.5300   23.4950  -28.6440 N   0  0  0  0  0  0  0  0  0  0  0  0
   -2.7750   24.2510  -27.7440 C   0  0  0  0  0  0  0  0  0  0  0  0
   -3.4340   24.9100  -26.6930 C   0  0  0  0  0  0  0  0  0  0  0  0
   -2.7680   25.6720  -25.7850 C   0  0  0  0  0  0  0  0  0  0  0  0
   -1.3790   25.8470  -25.8400 C   0  0  0  0  0  0  0  0  0  0  0  0
   -0.7290   26.6840  -24.8240 C   0  0  0  0  0  0  0  0  0  0  0  0
   -0.7290   25.2130  -26.8540 C   0  0  0  0  0  0  0  0  0  0  0  0
    0.7430   25.3510  -26.9950 C   0  0  0  0  0  0  0  0  0  0  0  0
    1.4850   26.4590  -27.0650 C   0  0  0  0  0  0  0  0  0  0  0  0
    2.8240   26.3500  -27.1890 C   0  0  0  0  0  0  0  0  0  0  0  0
    3.3520   25.1030  -27.2340 C   0  0  0  0  0  0  0  0  0  0  0  0
    1.8430   24.0090  -27.0930 S   0  0  0  0  0  0  0  0  0  0  0  0
   -1.4140   24.4400  -27.7720 C   0  0  0  0  0  0  0  0  0  0  0  0
   -4.0840   22.0390  -31.6600 C   0  0  0  0  0  0  0  0  0  0  0  0
   -4.8040   21.2140  -32.4950 C   0  0  0  0  0  0  0  0  0  0  0  0
   -4.8453   18.9740  -34.2007 H   0  0  0  0  0  0  0  0  0  0  0  0
   -5.4083   17.6303  -35.2517 H   0  0  0  0  0  0  0  0  0  0  0  0
   -6.2847   19.1983  -35.2517 H   0  0  0  0  0  0  0  0  0  0  0  0
   -7.3644   17.2462  -33.8858 H   0  0  0  0  0  0  0  0  0  0  0  0
   -6.0558   17.4646  -32.7129 H   0  0  0  0  0  0  0  0  0  0  0  0
   -9.0474   18.0677  -32.8279 H   0  0  0  0  0  0  0  0  0  0  0  0
   -8.3093   18.6581  -31.2822 H   0  0  0  0  0  0  0  0  0  0  0  0
   -9.6310   20.4402  -31.3407 H   0  0  0  0  0  0  0  0  0  0  0  0
   -8.8807   20.9351  -32.8959 H   0  0  0  0  0  0  0  0  0  0  0  0
  -10.3392   19.8866  -32.8959 H   0  0  0  0  0  0  0  0  0  0  0  0
   -6.3495   20.2364  -34.3697 H   0  0  0  0  0  0  0  0  0  0  0  0
   -7.9040   20.9090  -33.5941 H   0  0  0  0  0  0  0  0  0  0  0  0
   -7.8929   22.2834  -31.7393 H   0  0  0  0  0  0  0  0  0  0  0  0
   -6.5953   23.7501  -30.2498 H   0  0  0  0  0  0  0  0  0  0  0  0
   -3.8820   22.5580  -28.3040 H   0  0  0  0  0  0  0  0  0  0  0  0
   -4.5253   24.8061  -26.6015 H   0  0  0  0  0  0  0  0  0  0  0  0
   -3.3367   26.1658  -24.9833 H   0  0  0  0  0  0  0  0  0  0  0  0
   -1.0069   26.3262  -23.8216 H   0  0  0  0  0  0  0  0  0  0  0  0
    0.3628   26.6256  -24.9446 H   0  0  0  0  0  0  0  0  0  0  0  0
   -1.0559   27.7274  -24.9446 H   0  0  0  0  0  0  0  0  0  0  0  0
    1.0096   27.4500  -27.0220 H   0  0  0  0  0  0  0  0  0  0  0  0
    3.4645   27.2421  -27.2514 H   0  0  0  0  0  0  0  0  0  0  0  0
    4.4073   24.8076  -27.3298 H   0  0  0  0  0  0  0  0  0  0  0  0
   -0.8378   23.9485  -28.5697 H   0  0  0  0  0  0  0  0  0  0  0  0
   -2.9871   21.9577  -31.6484 H   0  0  0  0  0  0  0  0  0  0  0  0
   -4.2658   20.4943  -33.1293 H   0  0  0  0  0  0  0  0  0  0  0  0
  1  2  1  0
  2  3  1  0
  3  4  1  0
  4  5  1  0
  3  6  1  0
  6  7  1  0
  7  8  2  0
  8  9  1  0
  9 10  2  0
 10 11  1  0
 11 12  2  0
 11 13  1  0
 13 14  1  0
 14 15  2  0
 15 16  1  0
 16 17  2  0
 17 18  1  0
 17 19  1  0
 19 20  1  0
 20 21  2  0
 21 22  1  0
 22 23  2  0
 23 24  1  0
 19 25  2  0
 10 26  1  0
 26 27  2  0
 27  7  1  0
 25 14  1  0
 24 20  1  0
  1 28  1  0
  1 29  1  0
  1 30  1  0
  2 31  1  0
  2 32  1  0
  4 33  1  0
  4 34  1  0
  5 35  1  0
  5 36  1  0
  5 37  1  0
  6 38  1  0
  6 39  1  0
  8 40  1  0
  9 41  1  0
 13 42  1  0
 15 43  1  0
 16 44  1  0
 18 45  1  0
 18 46  1  0
 18 47  1  0
 21 48  1  0
 22 49  1  0
 23 50  1  0
 25 51  1  0
 26 52  1  0
 27 53  1  0
M  END
>  <smiles>  (10) 
CCN(CC)Cc1ccc(C(=O)Nc2ccc(C)c(-c3cccs3)c2)cc1

>  <score_type>  (10) 
oracle

>  <origin>  (10) 
adg

>  <m_score__min__energy>  (10) 
-8.7599999999999998

>  <m_primary>  (10) 
energy

$$$$
10:0
     RDKit          3D

 38 39  0  0  0  0  0  0  0  0999 V2000
   -3.6360   23.5670  -28.6400 C   0  0  0  0  0  0  0  0  0  0  0  0
   -3.4550   24.5770  -29.7220 C   0  0  0  0  0  0  0  0  0  0  0  0
   -4.4590   24.5370  -30.7200 N   0  0  0  0  0  0  0  0  0  0  0  0
   -5.4100   25.5790  -30.7600 C   0  0  0  0  0  0  0  0  0  0  0  0
   -6.4940   25.3880  -29.7210 C   0  0  0  0  0  0  0  0  0  0  0  0
   -4.7840   23.2890  -31.2900 C   0  0  0  0  0  0  0  0  0  0  0  0
   -5.8860   23.2530  -32.2930 C   0  0  0  0  0  0  0  0  0  0  0  0
   -6.5020   21.9240  -32.3110 N   0  0  0  0  0  0  0  0  0  0  0  0
   -7.7160   21.6840  -31.7750 C   0  0  0  0  0  0  0  0  0  0  0  0
   -8.3620   22.6040  -31.2440 O   0  0  0  0  0  0  0  0  0  0  0  0
   -8.1640   20.4180  -31.8530 N   0  0  0  0  0  0  0  0  0  0  0  0
   -7.4870   19.4100  -32.4190 C   0  0  0  0  0  0  0  0  0  0  0  0
   -7.9740   18.1160  -32.4840 C   0  0  0  0  0  0  0  0  0  0  0  0
   -7.2180   17.1050  -33.0900 C   0  0  0  0  0  0  0  0  0  0  0  0
   -5.9830   17.4070  -33.6220 C   0  0  0  0  0  0  0  0  0  0  0  0
   -5.4720   18.6820  -33.5740 C   0  0  0  0  0  0  0  0  0  0  0  0
   -6.2420   19.6490  -32.9720 C   0  0  0  0  0  0  0  0  0  0  0  0
   -5.7700   20.9380  -32.9000 C   0  0  0  0  0  0  0  0  0  0  0  0
   -4.6270   21.2160  -33.3930 O   0  0  0  0  0  0  0  0  0  0  0  0
   -3.5478   24.0594  -27.6603 H   0  0  0  0  0  0  0  0  0  0  0  0
   -4.6309   23.1067  -28.7308 H   0  0  0  0  0  0  0  0  0  0  0  0
   -2.8628   22.7899  -28.7308 H   0  0  0  0  0  0  0  0  0  0  0  0
   -3.4604   25.5778  -29.2656 H   0  0  0  0  0  0  0  0  0  0  0  0
   -2.5019   24.3439  -30.2193 H   0  0  0  0  0  0  0  0  0  0  0  0
   -4.8996   26.5349  -30.5710 H   0  0  0  0  0  0  0  0  0  0  0  0
   -5.8825   25.5740  -31.7533 H   0  0  0  0  0  0  0  0  0  0  0  0
   -6.0555   25.4653  -28.7151 H   0  0  0  0  0  0  0  0  0  0  0  0
   -7.2630   26.1645  -29.8464 H   0  0  0  0  0  0  0  0  0  0  0  0
   -6.9513   24.3954  -29.8464 H   0  0  0  0  0  0  0  0  0  0  0  0
   -3.8780   22.9067  -31.7830 H   0  0  0  0  0  0  0  0  0  0  0  0
   -5.1538   22.6858  -30.4478 H   0  0  0  0  0  0  0  0  0  0  0  0
   -6.6454   24.0032  -32.0273 H   0  0  0  0  0  0  0  0  0  0  0  0
   -5.4758   23.4750  -33.2892 H   0  0  0  0  0  0  0  0  0  0  0  0
   -9.1070   20.2380  -31.4360 H   0  0  0  0  0  0  0  0  0  0  0  0
   -8.9602   17.8805  -32.0573 H   0  0  0  0  0  0  0  0  0  0  0  0
   -7.6070   16.0773  -33.1410 H   0  0  0  0  0  0  0  0  0  0  0  0
   -5.3926   16.6091  -34.0960 H   0  0  0  0  0  0  0  0  0  0  0  0
   -4.4861   18.9194  -34.0003 H   0  0  0  0  0  0  0  0  0  0  0  0
  1  2  1  0
  2  3  1  0
  3  4  1  0
  4  5  1  0
  3  6  1  0
  6  7  1  0
  7  8  1  0
  8  9  1  0
  9 10  2  0
  9 11  1  0
 11 12  1  0
 12 13  2  0
 13 14  1  0
 14 15  2  0
 15 16  1  0
 16 17  2  0
 17 18  1  0
 18 19  2  0
 18  8  1  0
 17 12  1  0
  1 20  1  0
  1 21  1  0
  1 22  1  0
  2 23  1  0
  2 24  1  0
  4 25  1  0
  4 26  1  0
  5 27  1  0
  5 28  1  0
  5 29  1  0
  6 30  1  0
  6 31  1  0
  7 32  1  0
  7 33  1  0
 11 34  1  0
 13 35  1  0
 14 36  1  0
 15 37  1  0
 16 38  1  0
M  END
>  <smiles>  (11) 
CCN(CC)CCn1c(=O)[nH]c2ccccc2c1=O

>  <score_type>  (11) 
oracle

>  <origin>  (11) 
adg

>  <m_score__min__energy>  (11) 
-6.7300000000000004

>  <m_primary>  (11) 
energy

$$$$
11:0
     RDKit          3D

 64 68  0  0  1  0  0  0  0  0999 V2000
   -3.0980   24.5520  -29.2540 C   0  0  0  0  0  0  0  0  0  0  0  0
   -3.8690   24.8400  -30.3880 O   0  0  0  0  0  0  0  0  0  0  0  0
   -4.9340   24.0090  -30.7060 C   0  0  0  0  0  0  0  0  0  0  0  0
   -6.1220   24.5830  -31.0980 C   0  0  0  0  0  0  0  0  0  0  0  0
   -7.2130   23.8140  -31.4240 C   0  0  0  0  0  0  0  0  0  0  0  0
   -7.1710   22.4230  -31.3760 C   0  0  0  0  0  0  0  0  0  0  0  0
   -8.5290   21.4340  -31.7840 S   0  0  0  0  0  0  0  0  0  0  0  0
   -9.1240   20.7590  -30.5730 O   0  0  0  0  0  0  0  0  0  0  0  0
   -9.6280   22.3530  -32.2970 O   0  0  0  0  0  0  0  0  0  0  0  0
   -8.1180   20.2200  -32.9400 N   0  0  0  0  0  0  0  0  0  0  0  0
   -8.2470   18.9340  -32.3210 C   0  0  0  0  0  0  0  0  0  0  0  0
   -6.9110   18.5390  -31.6820 C   0  0  0  0  0  0  0  0  0  0  0  0
   -6.0460   18.2470  -32.8620 N   0  0  0  0  0  0  0  0  0  0  0  0
   -5.4000   17.0100  -32.8270 C   0  0  0  0  0  0  0  0  0  0  0  0
   -5.6720   16.3170  -31.7460 O   0  0  0  0  0  0  0  0  0  0  0  0
   -4.4960   16.3510  -33.7420 C   0  0  0  0  0  0  0  0  0  0  0  0
   -3.2470   16.9890  -33.9930 N   0  0  0  0  0  0  0  0  0  0  0  0
   -2.2490   16.6310  -34.9700 C   0  0  0  0  0  0  0  0  0  0  0  0
   -2.3340   15.6900  -35.7840 O   0  0  0  0  0  0  0  0  0  0  0  0
   -1.1410   17.5120  -34.8720 N   0  0  0  0  0  0  0  0  0  0  0  0
   -1.3370   18.4080  -33.7320 C   0  0  1  0  0  0  0  0  0  0  0  0
   -0.3280   18.1830  -32.6590 C   0  0  0  0  0  0  0  0  0  0  0  0
    0.7950   19.1620  -32.7050 C   0  0  0  0  0  0  0  0  0  0  0  0
    1.1860   19.5220  -34.1000 C   0  0  0  0  0  0  0  0  0  0  0  0
    2.4720   19.5300  -34.5530 C   0  0  0  0  0  0  0  0  0  0  0  0
    2.6840   19.8860  -35.8730 C   0  0  0  0  0  0  0  0  0  0  0  0
    1.6260   20.2280  -36.7180 C   0  0  0  0  0  0  0  0  0  0  0  0
    0.3160   20.2220  -36.2590 C   0  0  0  0  0  0  0  0  0  0  0  0
    0.1280   19.8630  -34.9440 C   0  0  0  0  0  0  0  0  0  0  0  0
   -1.2260   19.8080  -34.3040 C   0  0  0  0  0  0  0  0  0  0  0  0
   -2.7170   18.1260  -33.2860 C   0  0  0  0  0  0  0  0  0  0  0  0
   -3.3190   18.8010  -32.4110 O   0  0  0  0  0  0  0  0  0  0  0  0
   -6.0060   19.2730  -33.8480 C   0  0  0  0  0  0  0  0  0  0  0  0
   -6.8030   20.5000  -33.4430 C   0  0  0  0  0  0  0  0  0  0  0  0
   -5.9770   21.8660  -30.9820 C   0  0  0  0  0  0  0  0  0  0  0  0
   -4.8630   22.6300  -30.6470 C   0  0  0  0  0  0  0  0  0  0  0  0
   -3.6825   24.7703  -28.3481 H   0  0  0  0  0  0  0  0  0  0  0  0
   -2.8174   23.4884  -29.2618 H   0  0  0  0  0  0  0  0  0  0  0  0
   -2.1888   25.1711  -29.2618 H   0  0  0  0  0  0  0  0  0  0  0  0
   -6.1995   25.6790  -31.1513 H   0  0  0  0  0  0  0  0  0  0  0  0
   -8.1451   24.3108  -31.7313 H   0  0  0  0  0  0  0  0  0  0  0  0
   -9.0261   18.9766  -31.5456 H   0  0  0  0  0  0  0  0  0  0  0  0
   -8.5257   18.1879  -33.0797 H   0  0  0  0  0  0  0  0  0  0  0  0
   -6.4988   19.3659  -31.0850 H   0  0  0  0  0  0  0  0  0  0  0  0
   -6.9974   17.6899  -30.9880 H   0  0  0  0  0  0  0  0  0  0  0  0
   -4.2818   15.3521  -33.3342 H   0  0  0  0  0  0  0  0  0  0  0  0
   -5.0177   16.3561  -34.7104 H   0  0  0  0  0  0  0  0  0  0  0  0
   -0.3030   17.5500  -35.4900 H   0  0  0  0  0  0  0  0  0  0  0  0
   -0.8283   18.2683  -31.6831 H   0  0  0  0  0  0  0  0  0  0  0  0
    0.1003   17.1816  -32.8130 H   0  0  0  0  0  0  0  0  0  0  0  0
    0.4864   20.0771  -32.1783 H   0  0  0  0  0  0  0  0  0  0  0  0
    1.6664   18.6922  -32.2255 H   0  0  0  0  0  0  0  0  0  0  0  0
    3.3105   19.2631  -33.8929 H   0  0  0  0  0  0  0  0  0  0  0  0
    3.7111   19.9000  -36.2666 H   0  0  0  0  0  0  0  0  0  0  0  0
    1.8337   20.5060  -37.7618 H   0  0  0  0  0  0  0  0  0  0  0  0
   -0.5275   20.4901  -36.9122 H   0  0  0  0  0  0  0  0  0  0  0  0
   -1.3058   20.5592  -33.5044 H   0  0  0  0  0  0  0  0  0  0  0  0
   -2.0302   20.0242  -35.0227 H   0  0  0  0  0  0  0  0  0  0  0  0
   -4.9586   19.5692  -34.0065 H   0  0  0  0  0  0  0  0  0  0  0  0
   -6.4561   18.8706  -34.7675 H   0  0  0  0  0  0  0  0  0  0  0  0
   -6.2418   21.0302  -32.6595 H   0  0  0  0  0  0  0  0  0  0  0  0
   -6.9396   21.0980  -34.3561 H   0  0  0  0  0  0  0  0  0  0  0  0
   -5.8991   20.7700  -30.9294 H   0  0  0  0  0  0  0  0  0  0  0  0
   -3.9294   22.1381  -30.3364 H   0  0  0  0  0  0  0  0  0  0  0  0
  1  2  1  0
  2  3  1  0
  3  4  2  0
  4  5  1  0
  5  6  2  0
  6  7  1  0
  7  8  2  0
  7  9  2  0
  7 10  1  0
 10 11  1  0
 11 12  1  0
 12 13  1  0
 13 14  1  0
 14 15  2  0
 14 16  1  0
 16 17  1  0
 17 18  1  0
 18 19  2  0
 18 20  1  0
 21 20  1  6
 21 22  1  0
 22 23  1  0
 23 24  1  0
 24 25  2  0
 25 26  1  0
 26 27  2  0
 27 28  1  0
 28 29  2  0
 29 30  1  0
 21 31  1  0
 31 32  2  0
 13 33  1  0
 33 34  1  0
  6 35  1  0
 35 36  2  0
 36  3  1  0
 34 10  1  0
 31 17  1  0
 30 21  1  0
 29 24  1  0
  1 37  1  0
  1 38  1  0
  1 39  1  0
  4 40  1  0
  5 41  1  0
 11 42  1  0
 11 43  1  0
 12 44  1  0
 12 45  1  0
 16 46  1  0
 16 47  1  0
 20 48  1  0
 22 49  1  0
 22 50  1  0
 23 51  1  0
 23 52  1  0
 25 53  1  0
 26 54  1  0
 27 55  1  0
 28 56  1  0
 30 57  1  0
 30 58  1  0
 33 59  1  0
 33 60  1  0
 34 61  1  0
 34 62  1  0
 35 63  1  0
 36 64  1  0
M  END
>  <smiles>  (12) 
COc1ccc(S(=O)(=O)N2CCN(C(=O)CN3C(=O)NC4(CCc5ccccc5C4)C3=O)CC2)cc1

>  <score_type>  (12) 
oracle

>  <origin>  (12) 
adg

>  <m_score__min__energy>  (12) 
-10.57

>  <m_primary>  (12) 
energy

$$$$
12:0
     RDKit          3D

 41 42  0  0  0  0  0  0  0  0999 V2000
   -4.2120   24.6100  -27.0560 C   0  0  0  0  0  0  0  0  0  0  0  0
   -3.1470   24.0200  -27.9100 C   0  0  0  0  0  0  0  0  0  0  0  0
   -3.5210   24.0520  -29.3630 N   0  0  0  0  0  0  0  0  0  0  0  0
   -3.3540   22.7270  -29.8670 C   0  0  0  0  0  0  0  0  0  0  0  0
   -2.6910   22.5740  -31.1870 C   0  0  0  0  0  0  0  0  0  0  0  0
   -4.8980   24.4800  -29.3070 C   0  0  0  0  0  0  0  0  0  0  0  0
   -5.4380   25.2050  -30.4780 C   0  0  0  0  0  0  0  0  0  0  0  0
   -5.3650   24.2670  -31.5820 O   0  0  0  0  0  0  0  0  0  0  0  0
   -6.3130   23.2700  -31.7420 C   0  0  0  0  0  0  0  0  0  0  0  0
   -7.6570   23.4440  -31.4980 C   0  0  0  0  0  0  0  0  0  0  0  0
   -8.5390   22.3780  -31.6900 C   0  0  0  0  0  0  0  0  0  0  0  0
   -8.0970   21.1370  -32.1220 C   0  0  0  0  0  0  0  0  0  0  0  0
   -6.7320   20.9920  -32.3590 C   0  0  0  0  0  0  0  0  0  0  0  0
   -5.8510   22.0390  -32.1740 C   0  0  0  0  0  0  0  0  0  0  0  0
   -6.1710   19.7540  -32.8020 N   0  0  0  0  0  0  0  0  0  0  0  0
   -7.0830   18.6550  -32.9950 C   0  0  0  0  0  0  0  0  0  0  0  0
   -6.8330   17.7750  -33.8370 O   0  0  0  0  0  0  0  0  0  0  0  0
   -8.2970   18.6720  -32.1320 C   0  0  0  0  0  0  0  0  0  0  0  0
   -9.0400   19.9930  -32.3300 C   0  0  0  0  0  0  0  0  0  0  0  0
   -3.9536   24.4669  -25.9964 H   0  0  0  0  0  0  0  0  0  0  0  0
   -4.2998   25.6854  -27.2700 H   0  0  0  0  0  0  0  0  0  0  0  0
   -5.1703   24.1141  -27.2700 H   0  0  0  0  0  0  0  0  0  0  0  0
   -2.2182   24.5920  -27.7681 H   0  0  0  0  0  0  0  0  0  0  0  0
   -3.0115   22.9695  -27.6133 H   0  0  0  0  0  0  0  0  0  0  0  0
   -2.7571   22.1676  -29.1317 H   0  0  0  0  0  0  0  0  0  0  0  0
   -4.3775   22.3554  -30.0228 H   0  0  0  0  0  0  0  0  0  0  0  0
   -1.6291   22.3289  -31.0377 H   0  0  0  0  0  0  0  0  0  0  0  0
   -3.1784   21.7647  -31.7505 H   0  0  0  0  0  0  0  0  0  0  0  0
   -2.7745   23.5150  -31.7505 H   0  0  0  0  0  0  0  0  0  0  0  0
   -5.5162   23.5817  -29.1623 H   0  0  0  0  0  0  0  0  0  0  0  0
   -4.9299   25.2118  -28.4863 H   0  0  0  0  0  0  0  0  0  0  0  0
   -6.4806   25.5053  -30.2970 H   0  0  0  0  0  0  0  0  0  0  0  0
   -4.8711   26.1245  -30.6856 H   0  0  0  0  0  0  0  0  0  0  0  0
   -8.0344   24.4181  -31.1534 H   0  0  0  0  0  0  0  0  0  0  0  0
   -9.6110   22.5269  -31.4935 H   0  0  0  0  0  0  0  0  0  0  0  0
   -4.7784   21.8942  -32.3706 H   0  0  0  0  0  0  0  0  0  0  0  0
   -5.1450   19.6280  -32.9870 H   0  0  0  0  0  0  0  0  0  0  0  0
   -8.9556   17.8352  -32.4079 H   0  0  0  0  0  0  0  0  0  0  0  0
   -8.0006   18.5708  -31.0775 H   0  0  0  0  0  0  0  0  0  0  0  0
   -9.4462   20.0348  -33.3514 H   0  0  0  0  0  0  0  0  0  0  0  0
   -9.8626   20.0614  -31.6029 H   0  0  0  0  0  0  0  0  0  0  0  0
  1  2  1  0
  2  3  1  0
  3  4  1  0
  4  5  1  0
  3  6  1  0
  6  7  1  0
  7  8  1  0
  8  9  1  0
  9 10  2  0
 10 11  1  0
 11 12  2  0
 12 13  1  0
 13 14  2  0
 13 15  1  0
 15 16  1  0
 16 17  2  0
 16 18  1  0
 18 19  1  0
 14  9  1  0
 19 12  1  0
  1 20  1  0
  1 21  1  0
  1 22  1  0
  2 23  1  0
  2 24  1  0
  4 25  1  0
  4 26  1  0
  5 27  1  0
  5 28  1  0
  5 29  1  0
  6 30  1  0
  6 31  1  0
  7 32  1  0
  7 33  1  0
 10 34  1  0
 11 35  1  0
 14 36  1  0
 15 37  1  0
 18 38  1  0
 18 39  1  0
 19 40  1  0
 19 41  1  0
M  END
>  <smiles>  (13) 
CCN(CC)CCOc1ccc2c(c1)NC(=O)CC2

>  <score_type>  (13) 
oracle

>  <origin>  (13) 
adg

>  <m_score__min__energy>  (13) 
-7.0099999999999998

>  <m_primary>  (13) 
energy

$$$$
13:0
     RDKit          3D

 54 57  0  0  1  0  0  0  0  0999 V2000
    2.5360   24.8810  -25.3150 C   0  0  0  0  0  0  0  0  0  0  0  0
    2.2570   26.2740  -24.8110 C   0  0  0  0  0  0  0  0  0  0  0  0
    1.4830   26.3290  -23.6090 N   0  0  0  0  0  0  0  0  0  0  0  0
    0.3980   27.2770  -23.6880 C   0  0  0  0  0  0  0  0  0  0  0  0
   -0.8920   26.5430  -23.8350 C   0  0  0  0  0  0  0  0  0  0  0  0
   -0.7290   25.1680  -24.1720 O   0  0  0  0  0  0  0  0  0  0  0  0
   -0.8780   24.7540  -25.5000 C   0  0  0  0  0  0  0  0  0  0  0  0
   -0.7420   23.3990  -25.8300 C   0  0  0  0  0  0  0  0  0  0  0  0
   -5.7890   20.2700  -32.9270 C   0  0  0  0  0  0  0  0  0  0  0  0
   -6.7740   21.2060  -32.5190 C   0  0  0  0  0  0  0  0  0  0  0  0
   -1.3250   23.4940  -29.4720 N   0  0  0  0  0  0  0  0  0  0  0  0
   -2.5070   23.4200  -29.9750 C   0  0  0  0  0  0  0  0  0  0  0  0
   -3.4380   24.2280  -29.4430 N   0  0  0  0  0  0  0  0  0  0  0  0
   -4.6630   24.1750  -29.9420 C   0  0  0  0  0  0  0  0  0  0  0  0
   -5.5900   24.9930  -29.3980 N   0  0  0  0  0  0  0  0  0  0  0  0
   -6.8580   25.0020  -29.8440 C   0  0  0  0  0  0  0  0  0  0  0  0
   -7.1490   24.1360  -30.8780 C   0  0  0  0  0  0  0  0  0  0  0  0
   -6.2130   23.2930  -31.4460 C   0  0  0  0  0  0  0  0  0  0  0  0
   -6.5400   22.5460  -32.3680 N   0  0  0  0  0  0  0  0  0  0  0  0
   -1.1850   23.9860  -28.1450 C   0  0  0  0  0  0  0  0  0  0  0  0
   -1.3180   25.3210  -27.8150 C   0  0  0  0  0  0  0  0  0  0  0  0
   -6.1180   18.9320  -32.9380 C   0  0  0  0  0  0  0  0  0  0  0  0
   -7.3770   18.4720  -32.5630 C   0  0  0  0  0  0  0  0  0  0  0  0
   -7.6380   17.1450  -32.5950 F   0  0  0  0  0  0  0  0  0  0  0  0
   -8.3360   19.3780  -32.1660 C   0  0  0  0  0  0  0  0  0  0  0  0
   -8.0490   20.7130  -32.1420 C   0  0  0  0  0  0  0  0  0  0  0  0
   -9.2900   21.8650  -31.6290 Cl  0  0  0  0  0  0  0  0  0  0  0  0
   -4.9280   23.3030  -30.9730 C   0  0  0  0  0  0  0  0  0  0  0  0
   -3.9670   22.4940  -31.4950 C   0  0  0  0  0  0  0  0  0  0  0  0
   -2.7040   22.5630  -30.9640 N   0  0  0  0  0  0  0  0  0  0  0  0
   -0.9020   23.0570  -27.1580 C   0  0  0  0  0  0  0  0  0  0  0  0
   -1.1600   25.6770  -26.4870 C   0  0  0  0  0  0  0  0  0  0  0  0
    2.6720   24.2022  -24.4602 H   0  0  0  0  0  0  0  0  0  0  0  0
    1.6892   24.5358  -25.9263 H   0  0  0  0  0  0  0  0  0  0  0  0
    3.4505   24.8885  -25.9263 H   0  0  0  0  0  0  0  0  0  0  0  0
    3.2206   26.7696  -24.6215 H   0  0  0  0  0  0  0  0  0  0  0  0
    1.6604   26.7731  -25.5888 H   0  0  0  0  0  0  0  0  0  0  0  0
    1.2150   25.4020  -23.2410 H   0  0  0  0  0  0  0  0  0  0  0  0
    0.3728   27.8831  -22.7704 H   0  0  0  0  0  0  0  0  0  0  0  0
    0.5474   27.9346  -24.5570 H   0  0  0  0  0  0  0  0  0  0  0  0
   -1.4385   26.6055  -22.8824 H   0  0  0  0  0  0  0  0  0  0  0  0
   -1.4406   27.0160  -24.6629 H   0  0  0  0  0  0  0  0  0  0  0  0
   -0.5177   22.6413  -25.0648 H   0  0  0  0  0  0  0  0  0  0  0  0
   -4.7853   20.6049  -33.2278 H   0  0  0  0  0  0  0  0  0  0  0  0
   -5.3230   25.6410  -28.6060 H   0  0  0  0  0  0  0  0  0  0  0  0
   -7.6216   25.6633  -29.4086 H   0  0  0  0  0  0  0  0  0  0  0  0
   -8.1768   24.1157  -31.2695 H   0  0  0  0  0  0  0  0  0  0  0  0
   -1.5421   26.0762  -28.5827 H   0  0  0  0  0  0  0  0  0  0  0  0
   -5.3588   18.2016  -33.2543 H   0  0  0  0  0  0  0  0  0  0  0  0
   -9.3344   19.0255  -31.8679 H   0  0  0  0  0  0  0  0  0  0  0  0
   -4.1963   21.8036  -32.3201 H   0  0  0  0  0  0  0  0  0  0  0  0
   -1.9290   21.9670  -31.3240 H   0  0  0  0  0  0  0  0  0  0  0  0
   -0.8002   21.9999  -27.4446 H   0  0  0  0  0  0  0  0  0  0  0  0
   -1.2631   26.7358  -26.2073 H   0  0  0  0  0  0  0  0  0  0  0  0
  1  2  1  0
  2  3  1  0
  3  4  1  0
  4  5  1  0
  5  6  1  0
  6  7  1  0
  7  8  2  0
  8  9  1  0
  9 10  2  0
 10 11  1  0
 11 12  2  0
 12 13  1  0
 13 14  2  0
 14 15  1  0
 15 16  1  0
 16 17  2  0
 17 18  1  0
 18 19  2  0
 19 20  1  0
 20 21  2  0
 21 22  1  0
 22 23  2  0
 23 24  1  0
 23 25  1  0
 25 26  2  0
 26 27  1  0
 18 28  1  0
 28 29  2  0
 29 30  1  0
 10 31  1  0
 31 32  2  0
 32  7  1  0
 30 12  1  0
 28 14  1  0
 26 20  1  0
  1 33  1  0
  1 34  1  0
  1 35  1  0
  2 36  1  0
  2 37  1  0
  3 38  1  0
  4 39  1  0
  4 40  1  0
  5 41  1  0
  5 42  1  0
  8 43  1  0
  9 44  1  0
 15 45  1  0
 16 46  1  0
 17 47  1  0
 21 48  1  0
 22 49  1  0
 25 50  1  0
 29 51  1  0
 30 52  1  0
 31 53  1  0
 32 54  1  0
M  END
>  <smiles>  (14) 
CCNCCOc1ccc(N=c2nc3[nH]ccc(=Nc4ccc(F)cc4Cl)c3c[nH]2)cc1

>  <score_type>  (14) 
oracle

>  <origin>  (14) 
adg

>  <m_score__min__energy>  (14) 
-9.7400000000000002

>  <m_primary>  (14) 
energy

$$$$
14:0
     RDKit          3D

 36 38  0  0  1  0  0  0  0  0999 V2000
   -2.9860   24.5370  -27.1900 C   0  0  0  0  0  0  0  0  0  0  0  0
   -2.7360   24.8630  -28.9690 S   0  0  0  0  0  0  0  0  0  0  0  0
   -4.2030   24.4740  -29.9080 C   0  0  0  0  0  0  0  0  0  0  0  0
   -5.4640   24.8780  -29.5360 C   0  0  0  0  0  0  0  0  0  0  0  0
   -6.5530   24.5340  -30.3210 C   0  0  0  0  0  0  0  0  0  0  0  0
   -6.3890   23.7890  -31.4750 C   0  0  0  0  0  0  0  0  0  0  0  0
   -7.5580   23.4140  -32.3270 C   0  0  0  0  0  0  0  0  0  0  0  0
   -8.3510   22.5030  -31.5400 N   0  0  0  0  0  0  0  0  0  0  0  0
   -8.1790   21.1720  -32.0070 C   0  0  2  0  0  0  0  0  0  0  0  0
   -9.1110   20.1500  -31.4080 C   0  0  0  0  0  0  0  0  0  0  0  0
   -9.0610   18.9120  -32.2840 C   0  0  0  0  0  0  0  0  0  0  0  0
   -7.6870   18.6420  -32.7250 C   0  0  0  0  0  0  0  0  0  0  0  0
   -7.2350   17.5770  -33.4510 N   0  0  0  0  0  0  0  0  0  0  0  0
   -5.9320   17.7420  -33.6190 C   0  0  0  0  0  0  0  0  0  0  0  0
   -5.5610   18.8790  -33.0170 N   0  0  0  0  0  0  0  0  0  0  0  0
   -6.6310   19.4180  -32.4770 N   0  0  0  0  0  0  0  0  0  0  0  0
   -6.7660   20.6460  -31.7200 C   0  0  0  0  0  0  0  0  0  0  0  0
   -5.1020   23.3960  -31.8220 C   0  0  0  0  0  0  0  0  0  0  0  0
   -4.0670   23.7530  -31.0280 N   0  0  0  0  0  0  0  0  0  0  0  0
   -2.4213   25.2734  -26.5994 H   0  0  0  0  0  0  0  0  0  0  0  0
   -4.0564   24.6172  -26.9494 H   0  0  0  0  0  0  0  0  0  0  0  0
   -2.6310   23.5241  -26.9494 H   0  0  0  0  0  0  0  0  0  0  0  0
   -5.6073   25.4708  -28.6206 H   0  0  0  0  0  0  0  0  0  0  0  0
   -7.5611   24.8576  -30.0225 H   0  0  0  0  0  0  0  0  0  0  0  0
   -8.1456   24.3078  -32.5836 H   0  0  0  0  0  0  0  0  0  0  0  0
   -7.2348   22.9522  -33.2716 H   0  0  0  0  0  0  0  0  0  0  0  0
   -9.3450   22.7740  -31.6110 H   0  0  0  0  0  0  0  0  0  0  0  0
   -8.3923   21.2710  -33.0816 H   0  0  0  0  0  0  0  0  0  0  0  0
   -8.7869   19.9000  -30.3870 H   0  0  0  0  0  0  0  0  0  0  0  0
  -10.1362   20.5456  -31.3576 H   0  0  0  0  0  0  0  0  0  0  0  0
   -9.4322   18.0494  -31.7112 H   0  0  0  0  0  0  0  0  0  0  0  0
   -9.6896   19.0812  -33.1707 H   0  0  0  0  0  0  0  0  0  0  0  0
   -5.2644   17.0578  -34.1633 H   0  0  0  0  0  0  0  0  0  0  0  0
   -6.6442   20.4468  -30.6451 H   0  0  0  0  0  0  0  0  0  0  0  0
   -5.9988   21.3803  -32.0066 H   0  0  0  0  0  0  0  0  0  0  0  0
   -4.9273   22.8019  -32.7312 H   0  0  0  0  0  0  0  0  0  0  0  0
  1  2  1  0
  2  3  1  0
  3  4  2  0
  4  5  1  0
  5  6  2  0
  6  7  1  0
  7  8  1  0
  8  9  1  0
  9 10  1  0
 10 11  1  0
 11 12  1  0
 12 13  2  0
 13 14  1  0
 14 15  2  0
 15 16  1  0
 16 17  1  0
  6 18  1  0
 18 19  2  0
 19  3  1  0
 17  9  1  0
 16 12  1  0
  1 20  1  0
  1 21  1  0
  1 22  1  0
  4 23  1  0
  5 24  1  0
  7 25  1  0
  7 26  1  0
  8 27  1  0
  9 28  1  6
 10 29  1  0
 10 30  1  0
 11 31  1  0
 11 32  1  0
 14 33  1  0
 17 34  1  0
 17 35  1  0
 18 36  1  0
M  END
>  <smiles>  (15) 
CSc1ccc(CNC2CCc3ncnn3C2)cn1

>  <score_type>  (15) 
oracle

>  <origin>  (15) 
adg

>  <m_score__min__energy>  (15) 
-7.6600000000000001

>  <m_primary>  (15) 
energy

$$$$
15:0
     RDKit          3D

 39 41  0  0  0  0  0  0  0  0999 V2000
   -9.4540   22.7360  -31.9680 C   0  0  0  0  0  0  0  0  0  0  0  0
   -9.0330   21.7820  -30.9000 C   0  0  0  0  0  0  0  0  0  0  0  0
   -7.8700   21.0190  -31.3500 N   0  0  0  0  0  0  0  0  0  0  0  0
   -7.0330   21.7810  -32.2000 C   0  0  0  0  0  0  0  0  0  0  0  0
   -6.1000   22.7070  -31.5630 C   0  0  0  0  0  0  0  0  0  0  0  0
   -6.4120   24.0710  -31.5980 C   0  0  0  0  0  0  0  0  0  0  0  0
   -5.5750   25.0010  -31.0180 C   0  0  0  0  0  0  0  0  0  0  0  0
   -4.4130   24.5900  -30.3950 C   0  0  0  0  0  0  0  0  0  0  0  0
   -3.4740   25.2800  -29.7840 O   0  0  0  0  0  0  0  0  0  0  0  0
   -2.5470   24.4740  -29.3360 C   0  0  0  0  0  0  0  0  0  0  0  0
   -2.8790   23.1600  -29.6660 C   0  0  0  0  0  0  0  0  0  0  0  0
   -4.0810   23.2700  -30.3450 C   0  0  0  0  0  0  0  0  0  0  0  0
   -4.9290   22.3490  -30.9300 C   0  0  0  0  0  0  0  0  0  0  0  0
   -8.3450   19.4820  -31.9220 S   0  0  0  0  0  0  0  0  0  0  0  0
   -9.4320   19.7300  -32.9620 O   0  0  0  0  0  0  0  0  0  0  0  0
   -9.0020   18.6460  -30.8700 O   0  0  0  0  0  0  0  0  0  0  0  0
   -7.0770   18.6320  -32.7770 C   0  0  0  0  0  0  0  0  0  0  0  0
   -6.4750   19.2410  -33.8670 C   0  0  0  0  0  0  0  0  0  0  0  0
   -5.4890   18.5440  -34.5060 C   0  0  0  0  0  0  0  0  0  0  0  0
   -5.0570   17.2980  -34.1500 C   0  0  0  0  0  0  0  0  0  0  0  0
   -4.0690   16.6530  -34.8300 F   0  0  0  0  0  0  0  0  0  0  0  0
   -5.6540   16.6850  -33.0650 C   0  0  0  0  0  0  0  0  0  0  0  0
   -6.6630   17.3560  -32.3810 C   0  0  0  0  0  0  0  0  0  0  0  0
   -9.8570   23.6492  -31.5058 H   0  0  0  0  0  0  0  0  0  0  0  0
   -8.5859   22.9935  -32.5926 H   0  0  0  0  0  0  0  0  0  0  0  0
  -10.2293   22.2683  -32.5926 H   0  0  0  0  0  0  0  0  0  0  0  0
   -8.7723   22.3433  -29.9906 H   0  0  0  0  0  0  0  0  0  0  0  0
   -9.8603   21.0902  -30.6833 H   0  0  0  0  0  0  0  0  0  0  0  0
   -6.4405   21.0750  -32.8004 H   0  0  0  0  0  0  0  0  0  0  0  0
   -7.7192   22.4205  -32.7746 H   0  0  0  0  0  0  0  0  0  0  0  0
   -7.3354   24.4050  -32.0938 H   0  0  0  0  0  0  0  0  0  0  0  0
   -5.8328   26.0698  -31.0516 H   0  0  0  0  0  0  0  0  0  0  0  0
   -1.6465   24.7836  -28.7852 H   0  0  0  0  0  0  0  0  0  0  0  0
   -2.3141   22.2440  -29.4385 H   0  0  0  0  0  0  0  0  0  0  0  0
   -4.6577   21.2838  -30.8887 H   0  0  0  0  0  0  0  0  0  0  0  0
   -6.7784   20.2434  -34.2033 H   0  0  0  0  0  0  0  0  0  0  0  0
   -5.0071   19.0218  -35.3717 H   0  0  0  0  0  0  0  0  0  0  0  0
   -5.3362   15.6812  -32.7466 H   0  0  0  0  0  0  0  0  0  0  0  0
   -7.1425   16.8755  -31.5154 H   0  0  0  0  0  0  0  0  0  0  0  0
  1  2  1  0
  2  3  1  0
  3  4  1  0
  4  5  1  0
  5  6  2  0
  6  7  1  0
  7  8  2  0
  8  9  1  0
  9 10  1  0
 10 11  2  0
 11 12  1  0
 12 13  2  0
  3 14  1  0
 14 15  2  0
 14 16  2  0
 14 17  1  0
 17 18  2  0
 18 19  1  0
 19 20  2  0
 20 21  1  0
 20 22  1  0
 22 23  2  0
 13  5  1  0
 23 17  1  0
 12  8  1  0
  1 24  1  0
  1 25  1  0
  1 26  1  0
  2 27  1  0
  2 28  1  0
  4 29  1  0
  4 30  1  0
  6 31  1  0
  7 32  1  0
 10 33  1  0
 11 34  1  0
 13 35  1  0
 18 36  1  0
 19 37  1  0
 22 38  1  0
 23 39  1  0
M  END
>  <smiles>  (16) 
CCN(Cc1ccc2occc2c1)S(=O)(=O)c1ccc(F)cc1

>  <score_type>  (16) 
oracle

>  <origin>  (16) 
adg

>  <m_score__min__energy>  (16) 
-9.1199999999999992

>  <m_primary>  (16) 
energy

$$$$
16:0
     RDKit          3D

 52 53  0  0  0  0  0  0  0  0999 V2000
   -0.4720   24.5000  -24.7160 C   0  0  0  0  0  0  0  0  0  0  0  0
    0.9820   24.0390  -24.6700 C   0  0  0  0  0  0  0  0  0  0  0  0
    1.2850   23.5810  -25.9800 O   0  0  0  0  0  0  0  0  0  0  0  0
    0.7870   24.2090  -27.1110 C   0  0  0  0  0  0  0  0  0  0  0  0
    1.2220   25.3040  -27.5190 O   0  0  0  0  0  0  0  0  0  0  0  0
   -0.2620   23.5910  -27.8450 N   0  0  0  0  0  0  0  0  0  0  0  0
   -0.8160   24.2020  -29.0290 C   0  0  0  0  0  0  0  0  0  0  0  0
   -2.3080   24.1480  -29.0830 C   0  0  0  0  0  0  0  0  0  0  0  0
   -2.9280   22.9160  -28.5110 C   0  0  0  0  0  0  0  0  0  0  0  0
   -4.4060   23.1670  -28.2900 C   0  0  0  0  0  0  0  0  0  0  0  0
   -4.6720   24.5460  -28.4900 N   0  0  0  0  0  0  0  0  0  0  0  0
   -5.3460   24.9460  -29.9960 S   0  0  0  0  0  0  0  0  0  0  0  0
   -4.2680   25.6340  -30.8400 O   0  0  0  0  0  0  0  0  0  0  0  0
   -6.4140   26.0350  -29.8490 O   0  0  0  0  0  0  0  0  0  0  0  0
   -5.9810   23.6360  -30.9230 C   0  0  0  0  0  0  0  0  0  0  0  0
   -7.2910   23.2730  -31.0300 C   0  0  0  0  0  0  0  0  0  0  0  0
   -7.7060   22.1760  -31.7830 C   0  0  0  0  0  0  0  0  0  0  0  0
   -9.0700   21.8630  -31.8490 O   0  0  0  0  0  0  0  0  0  0  0  0
   -9.5120   20.5980  -32.2750 C   0  0  0  0  0  0  0  0  0  0  0  0
   -6.8000   21.3960  -32.4640 C   0  0  0  0  0  0  0  0  0  0  0  0
   -5.4650   21.7670  -32.3530 C   0  0  0  0  0  0  0  0  0  0  0  0
   -5.0600   22.8400  -31.6170 C   0  0  0  0  0  0  0  0  0  0  0  0
   -3.7060   23.1390  -31.5610 O   0  0  0  0  0  0  0  0  0  0  0  0
   -2.7250   22.1510  -31.7700 C   0  0  0  0  0  0  0  0  0  0  0  0
   -2.2930   22.5870  -27.1610 C   0  0  0  0  0  0  0  0  0  0  0  0
   -0.8270   22.3120  -27.4380 C   0  0  0  0  0  0  0  0  0  0  0  0
   -0.8512   24.6202  -23.6904 H   0  0  0  0  0  0  0  0  0  0  0  0
   -0.5350   25.4622  -25.2454 H   0  0  0  0  0  0  0  0  0  0  0  0
   -1.0779   23.7499  -25.2454 H   0  0  0  0  0  0  0  0  0  0  0  0
    1.6406   24.8761  -24.3951 H   0  0  0  0  0  0  0  0  0  0  0  0
    1.1323   23.2484  -23.9201 H   0  0  0  0  0  0  0  0  0  0  0  0
   -0.5043   25.2566  -29.0554 H   0  0  0  0  0  0  0  0  0  0  0  0
   -0.4395   23.6349  -29.8931 H   0  0  0  0  0  0  0  0  0  0  0  0
   -2.6987   25.0132  -28.5274 H   0  0  0  0  0  0  0  0  0  0  0  0
   -2.5717   24.1508  -30.1509 H   0  0  0  0  0  0  0  0  0  0  0  0
   -2.7722   22.0796  -29.2083 H   0  0  0  0  0  0  0  0  0  0  0  0
   -4.9928   22.5703  -29.0038 H   0  0  0  0  0  0  0  0  0  0  0  0
   -4.6844   22.8781  -27.2658 H   0  0  0  0  0  0  0  0  0  0  0  0
   -3.9820   25.2100  -28.1310 H   0  0  0  0  0  0  0  0  0  0  0  0
   -8.0496   23.8690  -30.5016 H   0  0  0  0  0  0  0  0  0  0  0  0
   -9.7309   19.9715  -31.3977 H   0  0  0  0  0  0  0  0  0  0  0  0
  -10.4233   20.7127  -32.8803 H   0  0  0  0  0  0  0  0  0  0  0  0
   -8.7276   20.1202  -32.8803 H   0  0  0  0  0  0  0  0  0  0  0  0
   -7.1143   20.5281  -33.0623 H   0  0  0  0  0  0  0  0  0  0  0  0
   -4.7055   21.1709  -32.8801 H   0  0  0  0  0  0  0  0  0  0  0  0
   -2.3610   21.7844  -30.7988 H   0  0  0  0  0  0  0  0  0  0  0  0
   -3.1611   21.3155  -32.3372 H   0  0  0  0  0  0  0  0  0  0  0  0
   -1.8864   22.5811  -32.3372 H   0  0  0  0  0  0  0  0  0  0  0  0
   -2.3977   23.4387  -26.4728 H   0  0  0  0  0  0  0  0  0  0  0  0
   -2.7808   21.7213  -26.6892 H   0  0  0  0  0  0  0  0  0  0  0  0
   -0.3270   21.9420  -26.5307 H   0  0  0  0  0  0  0  0  0  0  0  0
   -0.6952   21.5423  -28.2127 H   0  0  0  0  0  0  0  0  0  0  0  0
  1  2  1  0
  2  3  1  0
  3  4  1  0
  4  5  2  0
  4  6  1  0
  6  7  1  0
  7  8  1  0
  8  9  1  0
  9 10  1  0
 10 11  1  0
 11 12  1  0
 12 13  2  0
 12 14  2  0
 12 15  1  0
 15 16  2  0
 16 17  1  0
 17 18  1  0
 18 19  1  0
 17 20  2  0
 20 21  1  0
 21 22  2  0
 22 23  1  0
 23 24  1  0
  9 25  1  0
 25 26  1  0
 26  6  1  0
 22 15  1  0
  1 27  1  0
  1 28  1  0
  1 29  1  0
  2 30  1  0
  2 31  1  0
  7 32  1  0
  7 33  1  0
  8 34  1  0
  8 35  1  0
  9 36  1  0
 10 37  1  0
 10 38  1  0
 11 39  1  0
 16 40  1  0
 19 41  1  0
 19 42  1  0
 19 43  1  0
 20 44  1  0
 21 45  1  0
 24 46  1  0
 24 47  1  0
 24 48  1  0
 25 49  1  0
 25 50  1  0
 26 51  1  0
 26 52  1  0
M  END
>  <smiles>  (17) 
CCOC(=O)N1CCC(CNS(=O)(=O)c2cc(OC)ccc2OC)CC1

>  <score_type>  (17) 
oracle

>  <origin>  (17) 
adg

>  <m_score__min__energy>  (17) 
-8.4600000000000009

>  <m_primary>  (17) 
energy

$$$$
17:0
     RDKit          3D

 44 46  0  0  1  0  0  0  0  0999 V2000
   -6.1130   25.2820  -30.0910 C   0  0  0  0  0  0  0  0  0  0  0  0
   -5.3550   24.5290  -31.1190 C   0  0  0  0  0  0  0  0  0  0  0  0
   -4.0660   24.0970  -30.8320 N   0  0  0  0  0  0  0  0  0  0  0  0
   -3.5000   24.4970  -29.5850 C   0  0  0  0  0  0  0  0  0  0  0  0
   -2.1760   23.8310  -29.2760 C   0  0  0  0  0  0  0  0  0  0  0  0
   -3.4890   22.9920  -31.4640 C   0  0  0  0  0  0  0  0  0  0  0  0
   -4.2630   21.7200  -31.4870 C   0  0  0  0  0  0  0  0  0  0  0  0
   -5.0380   21.4100  -32.6240 N   0  0  0  0  0  0  0  0  0  0  0  0
   -6.0620   20.6960  -32.6420 C   0  0  0  0  0  0  0  0  0  0  0  0
   -5.9190   19.2940  -33.0530 C   0  0  0  0  0  0  0  0  0  0  0  0
   -4.7130   18.7700  -33.4110 C   0  0  0  0  0  0  0  0  0  0  0  0
   -4.5540   17.4600  -33.8000 C   0  0  0  0  0  0  0  0  0  0  0  0
   -5.6600   16.6270  -33.8320 C   0  0  0  0  0  0  0  0  0  0  0  0
   -6.8730   17.1720  -33.4680 C   0  0  0  0  0  0  0  0  0  0  0  0
   -7.0220   18.4790  -33.0820 C   0  0  0  0  0  0  0  0  0  0  0  0
   -8.3510   18.9620  -32.7210 C   0  0  0  0  0  0  0  0  0  0  0  0
   -8.4040   20.3550  -32.3220 N   0  0  0  0  0  0  0  0  0  0  0  0
   -9.5470   21.0060  -31.9300 C   0  0  0  0  0  0  0  0  0  0  0  0
   -9.1480   22.2850  -31.6410 C   0  0  0  0  0  0  0  0  0  0  0  0
   -7.7680   22.4180  -31.8540 C   0  0  0  0  0  0  0  0  0  0  0  0
   -7.3650   21.1850  -32.2770 C   0  0  0  0  0  0  0  0  0  0  0  0
   -5.7903   24.9615  -29.0894 H   0  0  0  0  0  0  0  0  0  0  0  0
   -5.9225   26.3588  -30.2104 H   0  0  0  0  0  0  0  0  0  0  0  0
   -7.1885   25.0844  -30.2104 H   0  0  0  0  0  0  0  0  0  0  0  0
   -5.9466   23.6343  -31.3629 H   0  0  0  0  0  0  0  0  0  0  0  0
   -5.2106   25.2625  -31.9260 H   0  0  0  0  0  0  0  0  0  0  0  0
   -3.3442   25.5857  -29.6076 H   0  0  0  0  0  0  0  0  0  0  0  0
   -4.2054   24.1902  -28.7987 H   0  0  0  0  0  0  0  0  0  0  0  0
   -2.0444   23.7648  -28.1859 H   0  0  0  0  0  0  0  0  0  0  0  0
   -2.1644   22.8198  -29.7088 H   0  0  0  0  0  0  0  0  0  0  0  0
   -1.3572   24.4245  -29.7088 H   0  0  0  0  0  0  0  0  0  0  0  0
   -3.2950   23.2764  -32.5087 H   0  0  0  0  0  0  0  0  0  0  0  0
   -2.5987   22.7624  -30.8601 H   0  0  0  0  0  0  0  0  0  0  0  0
   -3.5404   20.9009  -31.3567 H   0  0  0  0  0  0  0  0  0  0  0  0
   -5.0081   21.8509  -30.6884 H   0  0  0  0  0  0  0  0  0  0  0  0
   -3.8281   19.4230  -33.3879 H   0  0  0  0  0  0  0  0  0  0  0  0
   -3.5613   17.0791  -34.0820 H   0  0  0  0  0  0  0  0  0  0  0  0
   -5.5741   15.5732  -34.1356 H   0  0  0  0  0  0  0  0  0  0  0  0
   -7.7640   16.5272  -33.4883 H   0  0  0  0  0  0  0  0  0  0  0  0
   -9.0111   18.8299  -33.5909 H   0  0  0  0  0  0  0  0  0  0  0  0
   -8.6657   18.3766  -31.8445 H   0  0  0  0  0  0  0  0  0  0  0  0
  -10.5635   20.5910  -31.8624 H   0  0  0  0  0  0  0  0  0  0  0  0
   -9.8127   23.0894  -31.2930 H   0  0  0  0  0  0  0  0  0  0  0  0
   -7.1488   23.3160  -31.7118 H   0  0  0  0  0  0  0  0  0  0  0  0
  1  2  1  0
  2  3  1  0
  3  4  1  0
  4  5  1  0
  3  6  1  0
  6  7  1  0
  7  8  1  0
  8  9  2  0
  9 10  1  0
 10 11  2  0
 11 12  1  0
 12 13  2  0
 13 14  1  0
 14 15  2  0
 15 16  1  0
 16 17  1  0
 17 18  1  0
 18 19  2  0
 19 20  1  0
 20 21  2  0
 21  9  1  0
 15 10  1  0
 21 17  1  0
  1 22  1  0
  1 23  1  0
  1 24  1  0
  2 25  1  0
  2 26  1  0
  4 27  1  0
  4 28  1  0
  5 29  1  0
  5 30  1  0
  5 31  1  0
  6 32  1  0
  6 33  1  0
  7 34  1  0
  7 35  1  0
 11 36  1  0
 12 37  1  0
 13 38  1  0
 14 39  1  0
 16 40  1  0
 16 41  1  0
 18 42  1  0
 19 43  1  0
 20 44  1  0
M  END
>  <smiles>  (18) 
CCN(CC)CCN=C1c2ccccc2Cn2cccc21

>  <score_type>  (18) 
oracle

>  <origin>  (18) 
adg

>  <m_score__min__energy>  (18) 
-8

>  <m_primary>  (18) 
energy

$$$$
18:0
     RDKit          3D

 39 41  0  0  1  0  0  0  0  0999 V2000
   -3.0090   15.9120  -35.5020 C   0  0  0  0  0  0  0  0  0  0  0  0
   -4.1950   15.6800  -34.7540 O   0  0  0  0  0  0  0  0  0  0  0  0
   -4.9490   16.7270  -34.2580 C   0  0  0  0  0  0  0  0  0  0  0  0
   -5.3490   17.8120  -35.0080 C   0  0  0  0  0  0  0  0  0  0  0  0
   -6.1070   18.8120  -34.4130 C   0  0  0  0  0  0  0  0  0  0  0  0
   -6.4630   18.7350  -33.0820 C   0  0  0  0  0  0  0  0  0  0  0  0
   -7.2430   19.7540  -32.4450 N   0  0  0  0  0  0  0  0  0  0  0  0
   -8.4520   19.5400  -31.9530 C   0  0  0  0  0  0  0  0  0  0  0  0
   -9.2020   18.2680  -31.9640 C   0  0  0  0  0  0  0  0  0  0  0  0
   -8.8760   20.7620  -31.4210 C   0  0  0  0  0  0  0  0  0  0  0  0
   -7.9120   21.7200  -31.5940 C   0  0  0  0  0  0  0  0  0  0  0  0
   -7.8270   23.1020  -31.2500 C   0  0  0  0  0  0  0  0  0  0  0  0
   -7.2220   23.6660  -30.2940 N   0  0  0  0  0  0  0  0  0  0  0  0
   -5.9850   24.2320  -30.4430 N   0  0  0  0  0  0  0  0  0  0  0  0
   -4.7660   23.6200  -30.3350 C   0  0  0  0  0  0  0  0  0  0  0  0
   -3.8100   24.5190  -30.5780 N   0  0  0  0  0  0  0  0  0  0  0  0
   -4.3840   25.6750  -30.8370 N   0  0  0  0  0  0  0  0  0  0  0  0
   -5.7160   25.5340  -30.7620 C   0  0  0  0  0  0  0  0  0  0  0  0
   -6.8820   21.0320  -32.2540 C   0  0  0  0  0  0  0  0  0  0  0  0
   -5.5680   21.5640  -32.7050 C   0  0  0  0  0  0  0  0  0  0  0  0
   -6.0710   17.6580  -32.3160 C   0  0  0  0  0  0  0  0  0  0  0  0
   -5.3200   16.6740  -32.9270 C   0  0  0  0  0  0  0  0  0  0  0  0
   -2.1674   16.0766  -34.8131 H   0  0  0  0  0  0  0  0  0  0  0  0
   -2.7984   15.0380  -36.1359 H   0  0  0  0  0  0  0  0  0  0  0  0
   -3.1433   16.8009  -36.1359 H   0  0  0  0  0  0  0  0  0  0  0  0
   -5.0700   17.8853  -36.0695 H   0  0  0  0  0  0  0  0  0  0  0  0
   -6.4281   19.6776  -35.0111 H   0  0  0  0  0  0  0  0  0  0  0  0
   -9.3921   17.9455  -30.9297 H   0  0  0  0  0  0  0  0  0  0  0  0
  -10.1599   18.4117  -32.4853 H   0  0  0  0  0  0  0  0  0  0  0  0
   -8.6126   17.4993  -32.4853 H   0  0  0  0  0  0  0  0  0  0  0  0
   -9.8470   20.9303  -30.9323 H   0  0  0  0  0  0  0  0  0  0  0  0
   -8.3725   23.7822  -31.9206 H   0  0  0  0  0  0  0  0  0  0  0  0
   -4.6010   22.5608  -30.0883 H   0  0  0  0  0  0  0  0  0  0  0  0
   -6.4607   26.3264  -30.9279 H   0  0  0  0  0  0  0  0  0  0  0  0
   -4.9527   21.8131  -31.8279 H   0  0  0  0  0  0  0  0  0  0  0  0
   -5.0528   20.8036  -33.3103 H   0  0  0  0  0  0  0  0  0  0  0  0
   -5.7269   22.4686  -33.3103 H   0  0  0  0  0  0  0  0  0  0  0  0
   -6.3473   17.5852  -31.2538 H   0  0  0  0  0  0  0  0  0  0  0  0
   -5.0022   15.8081  -32.3276 H   0  0  0  0  0  0  0  0  0  0  0  0
  1  2  1  0
  2  3  1  0
  3  4  2  0
  4  5  1  0
  5  6  2  0
  6  7  1  0
  7  8  1  0
  8  9  1  0
  8 10  2  0
 10 11  1  0
 11 12  1  0
 12 13  2  0
 13 14  1  0
 14 15  1  0
 15 16  2  0
 16 17  1  0
 17 18  2  0
 11 19  2  0
 19 20  1  0
  6 21  1  0
 21 22  2  0
 22  3  1  0
 19  7  1  0
 18 14  1  0
  1 23  1  0
  1 24  1  0
  1 25  1  0
  4 26  1  0
  5 27  1  0
  9 28  1  0
  9 29  1  0
  9 30  1  0
 10 31  1  0
 12 32  1  0
 15 33  1  0
 18 34  1  0
 20 35  1  0
 20 36  1  0
 20 37  1  0
 21 38  1  0
 22 39  1  0
M  END
>  <smiles>  (19) 
COc1ccc(-n2c(C)cc(C=Nn3cnnc3)c2C)cc1

>  <score_type>  (19) 
oracle

>  <origin>  (19) 
adg

>  <m_score__min__energy>  (19) 
-8.2599999999999998

>  <m_primary>  (19) 
energy

$$$$
19:0
     RDKit          3D

 39 41  0  0  0  0  0  0  0  0999 V2000
   -0.9100   22.6580  -29.9020 C   0  0  0  0  0  0  0  0  0  0  0  0
   -1.3060   22.8520  -28.5880 N   0  0  0  0  0  0  0  0  0  0  0  0
   -0.6400   22.2400  -27.5320 C   0  0  0  0  0  0  0  0  0  0  0  0
   -2.4710   23.5590  -28.2530 C   0  0  0  0  0  0  0  0  0  0  0  0
   -2.5230   24.9530  -28.8680 C   0  0  0  0  0  0  0  0  0  0  0  0
   -3.3120   24.9230  -30.0680 N   0  0  0  0  0  0  0  0  0  0  0  0
   -4.3390   24.0000  -30.3600 C   0  0  0  0  0  0  0  0  0  0  0  0
   -4.1330   22.7090  -30.7800 C   0  0  0  0  0  0  0  0  0  0  0  0
   -5.1910   21.8760  -31.0680 C   0  0  0  0  0  0  0  0  0  0  0  0
   -4.9500   20.2520  -31.5970 S   0  0  0  0  0  0  0  0  0  0  0  0
   -6.4110   19.4100  -31.8930 C   0  0  0  0  0  0  0  0  0  0  0  0
   -6.4370   18.1000  -32.3220 C   0  0  0  0  0  0  0  0  0  0  0  0
   -7.6330   17.4520  -32.5510 C   0  0  0  0  0  0  0  0  0  0  0  0
   -8.7870   18.1820  -32.3290 C   0  0  0  0  0  0  0  0  0  0  0  0
   -8.7560   19.4950  -31.9000 C   0  0  0  0  0  0  0  0  0  0  0  0
   -7.5420   20.1600  -31.6660 C   0  0  0  0  0  0  0  0  0  0  0  0
   -7.5800   21.4430  -31.2450 C   0  0  0  0  0  0  0  0  0  0  0  0
   -8.7340   21.9770  -31.0880 O   0  0  0  0  0  0  0  0  0  0  0  0
   -6.5110   22.2550  -30.9630 C   0  0  0  0  0  0  0  0  0  0  0  0
   -6.7260   23.5710  -30.5360 C   0  0  0  0  0  0  0  0  0  0  0  0
   -5.6740   24.4000  -30.2500 C   0  0  0  0  0  0  0  0  0  0  0  0
   -6.0320   26.0440  -29.7200 Cl  0  0  0  0  0  0  0  0  0  0  0  0
    0.0777   22.1741  -29.9197 H   0  0  0  0  0  0  0  0  0  0  0  0
   -1.6418   22.0164  -30.4146 H   0  0  0  0  0  0  0  0  0  0  0  0
   -0.8516   23.6295  -30.4146 H   0  0  0  0  0  0  0  0  0  0  0  0
   -1.0443   22.6116  -26.5789 H   0  0  0  0  0  0  0  0  0  0  0  0
   -0.7821   21.1508  -27.5908 H   0  0  0  0  0  0  0  0  0  0  0  0
    0.4333   22.4735  -27.5908 H   0  0  0  0  0  0  0  0  0  0  0  0
   -3.3414   22.9874  -28.6075 H   0  0  0  0  0  0  0  0  0  0  0  0
   -2.4764   23.6826  -27.1600 H   0  0  0  0  0  0  0  0  0  0  0  0
   -2.9756   25.6528  -28.1501 H   0  0  0  0  0  0  0  0  0  0  0  0
   -1.5021   25.2825  -29.1111 H   0  0  0  0  0  0  0  0  0  0  0  0
   -3.0970   25.6670  -30.7890 H   0  0  0  0  0  0  0  0  0  0  0  0
   -3.1047   22.3336  -30.8883 H   0  0  0  0  0  0  0  0  0  0  0  0
   -5.4903   17.5638  -32.4840 H   0  0  0  0  0  0  0  0  0  0  0  0
   -7.6675   16.4071  -32.8930 H   0  0  0  0  0  0  0  0  0  0  0  0
   -9.7615   17.7012  -32.4997 H   0  0  0  0  0  0  0  0  0  0  0  0
   -9.7030   20.0308  -31.7383 H   0  0  0  0  0  0  0  0  0  0  0  0
   -7.7550   23.9446  -30.4287 H   0  0  0  0  0  0  0  0  0  0  0  0
  1  2  1  0
  2  3  1  0
  2  4  1  0
  4  5  1  0
  5  6  1  0
  6  7  1  0
  7  8  2  0
  8  9  1  0
  9 10  1  0
 10 11  1  0
 11 12  2  0
 12 13  1  0
 13 14  2  0
 14 15  1  0
 15 16  2  0
 16 17  1  0
 17 18  2  0
 17 19  1  0
 19 20  1  0
 20 21  2  0
 21 22  1  0
 21  7  1  0
 19  9  2  0
 16 11  1  0
  1 23  1  0
  1 24  1  0
  1 25  1  0
  3 26  1  0
  3 27  1  0
  3 28  1  0
  4 29  1  0
  4 30  1  0
  5 31  1  0
  5 32  1  0
  6 33  1  0
  8 34  1  0
 12 35  1  0
 13 36  1  0
 14 37  1  0
 15 38  1  0
 20 39  1  0
M  END
>  <smiles>  (20) 
CN(C)CCNc1cc2sc3ccccc3c(=O)c2cc1Cl

>  <score_type>  (20) 
oracle

>  <origin>  (20) 
adg

>  <m_score__min__energy>  (20) 
-8.3399999999999999

>  <m_primary>  (20) 
energy

$$$$
20:0
     RDKit          3D

 62 65  0  0  0  0  0  0  0  0999 V2000
   -5.2670   25.2170  -30.3920 C   0  0  0  0  0  0  0  0  0  0  0  0
   -3.8500   25.2940  -30.4690 O   0  0  0  0  0  0  0  0  0  0  0  0
   -3.1100   24.2560  -29.9180 C   0  0  0  0  0  0  0  0  0  0  0  0
   -3.6270   22.9670  -30.0770 C   0  0  0  0  0  0  0  0  0  0  0  0
   -2.9250   21.9060  -29.5460 C   0  0  0  0  0  0  0  0  0  0  0  0
   -1.7250   22.0730  -28.8580 C   0  0  0  0  0  0  0  0  0  0  0  0
   -0.9880   20.9170  -28.2880 C   0  0  0  0  0  0  0  0  0  0  0  0
   -0.1260   20.3370  -29.3070 N   0  0  0  0  0  0  0  0  0  0  0  0
   -0.4450   18.9630  -29.4600 C   0  0  0  0  0  0  0  0  0  0  0  0
    0.1560   18.3010  -30.6880 C   0  0  0  0  0  0  0  0  0  0  0  0
   -0.3090   19.1410  -31.8110 N   0  0  0  0  0  0  0  0  0  0  0  0
   -1.1300   18.5750  -32.7970 C   0  0  0  0  0  0  0  0  0  0  0  0
   -1.4330   17.3530  -32.6770 O   0  0  0  0  0  0  0  0  0  0  0  0
   -1.5940   19.4240  -33.9190 C   0  0  0  0  0  0  0  0  0  0  0  0
   -3.1060   19.6190  -33.8160 C   0  0  0  0  0  0  0  0  0  0  0  0
   -3.3490   20.8810  -33.0810 C   0  0  0  0  0  0  0  0  0  0  0  0
   -2.4610   21.8040  -33.0480 O   0  0  0  0  0  0  0  0  0  0  0  0
   -4.5870   21.0680  -32.4050 N   0  0  0  0  0  0  0  0  0  0  0  0
   -5.3820   22.2590  -32.6280 C   0  0  0  0  0  0  0  0  0  0  0  0
   -6.6000   22.1840  -31.7500 C   0  0  0  0  0  0  0  0  0  0  0  0
   -7.2760   20.8840  -31.9700 C   0  0  0  0  0  0  0  0  0  0  0  0
   -8.6030   20.7440  -32.2960 C   0  0  0  0  0  0  0  0  0  0  0  0
   -9.1240   19.4720  -32.4690 C   0  0  0  0  0  0  0  0  0  0  0  0
   -8.3320   18.3480  -32.3200 C   0  0  0  0  0  0  0  0  0  0  0  0
   -6.9800   18.4830  -31.9890 C   0  0  0  0  0  0  0  0  0  0  0  0
   -6.4690   19.7470  -31.8180 C   0  0  0  0  0  0  0  0  0  0  0  0
   -5.0480   20.0250  -31.4730 C   0  0  0  0  0  0  0  0  0  0  0  0
    0.1400   20.5110  -31.7760 C   0  0  0  0  0  0  0  0  0  0  0  0
   -0.1310   21.1560  -30.4650 C   0  0  0  0  0  0  0  0  0  0  0  0
   -1.2610   23.3670  -28.7310 C   0  0  0  0  0  0  0  0  0  0  0  0
   -1.9250   24.4610  -29.2450 C   0  0  0  0  0  0  0  0  0  0  0  0
   -5.5765   25.2002  -29.3366 H   0  0  0  0  0  0  0  0  0  0  0  0
   -5.7094   26.0924  -30.8899 H   0  0  0  0  0  0  0  0  0  0  0  0
   -5.6119   24.2988  -30.8899 H   0  0  0  0  0  0  0  0  0  0  0  0
   -4.5730   22.8029  -30.6139 H   0  0  0  0  0  0  0  0  0  0  0  0
   -3.3272   20.8897  -29.6701 H   0  0  0  0  0  0  0  0  0  0  0  0
   -0.3752   21.2558  -27.4397 H   0  0  0  0  0  0  0  0  0  0  0  0
   -1.7071   20.1593  -27.9434 H   0  0  0  0  0  0  0  0  0  0  0  0
   -0.0826   18.4267  -28.5706 H   0  0  0  0  0  0  0  0  0  0  0  0
   -1.5367   18.9112  -29.5841 H   0  0  0  0  0  0  0  0  0  0  0  0
    1.2545   18.2968  -30.6317 H   0  0  0  0  0  0  0  0  0  0  0  0
   -0.1472   17.2488  -30.7927 H   0  0  0  0  0  0  0  0  0  0  0  0
   -1.0936   20.4024  -33.8703 H   0  0  0  0  0  0  0  0  0  0  0  0
   -1.3506   18.9359  -34.8743 H   0  0  0  0  0  0  0  0  0  0  0  0
   -3.5449   19.6815  -34.8227 H   0  0  0  0  0  0  0  0  0  0  0  0
   -3.5683   18.7714  -33.2888 H   0  0  0  0  0  0  0  0  0  0  0  0
   -4.7935   23.1524  -32.3723 H   0  0  0  0  0  0  0  0  0  0  0  0
   -5.6798   22.3238  -33.6849 H   0  0  0  0  0  0  0  0  0  0  0  0
   -6.2997   22.2693  -30.6952 H   0  0  0  0  0  0  0  0  0  0  0  0
   -7.2873   23.0062  -31.9982 H   0  0  0  0  0  0  0  0  0  0  0  0
   -9.2434   21.6300  -32.4181 H   0  0  0  0  0  0  0  0  0  0  0  0
  -10.1862   19.3539  -32.7294 H   0  0  0  0  0  0  0  0  0  0  0  0
   -8.7658   17.3472  -32.4619 H   0  0  0  0  0  0  0  0  0  0  0  0
   -6.3397   17.5968  -31.8682 H   0  0  0  0  0  0  0  0  0  0  0  0
   -4.9719   20.3821  -30.4354 H   0  0  0  0  0  0  0  0  0  0  0  0
   -4.4334   19.1166  -31.5575 H   0  0  0  0  0  0  0  0  0  0  0  0
    1.2234   20.5339  -31.9651 H   0  0  0  0  0  0  0  0  0  0  0  0
   -0.4123   21.0677  -32.5474 H   0  0  0  0  0  0  0  0  0  0  0  0
    0.6329   21.9339  -30.3189 H   0  0  0  0  0  0  0  0  0  0  0  0
   -1.1680   21.5144  -30.5439 H   0  0  0  0  0  0  0  0  0  0  0  0
   -0.3157   23.5336  -28.1937 H   0  0  0  0  0  0  0  0  0  0  0  0
   -1.5176   25.4752  -29.1205 H   0  0  0  0  0  0  0  0  0  0  0  0
  1  2  1  0
  2  3  1  0
  3  4  2  0
  4  5  1  0
  5  6  2  0
  6  7  1  0
  7  8  1  0
  8  9  1  0
  9 10  1  0
 10 11  1  0
 11 12  1  0
 12 13  2  0
 12 14  1  0
 14 15  1  0
 15 16  1  0
 16 17  2  0
 16 18  1  0
 18 19  1  0
 19 20  1  0
 20 21  1  0
 21 22  2  0
 22 23  1  0
 23 24  2  0
 24 25  1  0
 25 26  2  0
 26 27  1  0
 11 28  1  0
 28 29  1  0
  6 30  1  0
 30 31  2  0
 31  3  1  0
 29  8  1  0
 27 18  1  0
 26 21  1  0
  1 32  1  0
  1 33  1  0
  1 34  1  0
  4 35  1  0
  5 36  1  0
  7 37  1  0
  7 38  1  0
  9 39  1  0
  9 40  1  0
 10 41  1  0
 10 42  1  0
 14 43  1  0
 14 44  1  0
 15 45  1  0
 15 46  1  0
 19 47  1  0
 19 48  1  0
 20 49  1  0
 20 50  1  0
 22 51  1  0
 23 52  1  0
 24 53  1  0
 25 54  1  0
 27 55  1  0
 27 56  1  0
 28 57  1  0
 28 58  1  0
 29 59  1  0
 29 60  1  0
 30 61  1  0
 31 62  1  0
M  END
>  <smiles>  (21) 
COc1ccc(CN2CCN(C(=O)CCC(=O)N3CCc4ccccc4C3)CC2)cc1

>  <score_type>  (21) 
oracle

>  <origin>  (21) 
adg

>  <m_score__min__energy>  (21) 
-9.7799999999999994

>  <m_primary>  (21) 
energy

$$$$
21:0
     RDKit          3D

 41 43  0  0  1  0  0  0  0  0999 V2000
   -4.1180   24.2470  -27.3460 C   0  0  0  0  0  0  0  0  0  0  0  0
   -3.5940   23.1130  -28.1030 N   0  0  0  0  0  0  0  0  0  0  0  0
   -2.8590   22.1120  -27.5530 C   0  0  0  0  0  0  0  0  0  0  0  0
   -2.5490   21.2330  -28.5760 C   0  0  0  0  0  0  0  0  0  0  0  0
   -3.1030   21.7330  -29.6920 N   0  0  0  0  0  0  0  0  0  0  0  0
   -3.7460   22.8880  -29.4120 C   0  0  0  0  0  0  0  0  0  0  0  0
   -4.6030   23.8640  -30.5740 S   0  0  0  0  0  0  0  0  0  0  0  0
   -3.8600   25.3330  -30.8380 O   0  0  0  0  0  0  0  0  0  0  0  0
   -4.9050   22.9820  -32.0820 C   0  0  0  0  0  0  0  0  0  0  0  0
   -6.3260   22.5540  -32.0340 C   0  0  0  0  0  0  0  0  0  0  0  0
   -7.3680   23.4240  -31.7630 C   0  0  0  0  0  0  0  0  0  0  0  0
   -8.6780   23.0450  -31.7100 C   0  0  0  0  0  0  0  0  0  0  0  0
   -9.0270   21.7310  -31.9350 C   0  0  0  0  0  0  0  0  0  0  0  0
   -8.0100   20.8410  -32.2070 C   0  0  0  0  0  0  0  0  0  0  0  0
   -6.6690   21.2370  -32.2590 C   0  0  0  0  0  0  0  0  0  0  0  0
   -5.7320   20.2160  -32.5500 N   0  0  0  0  0  0  0  0  0  0  0  0
   -4.6070   19.8770  -31.7080 C   0  0  0  0  0  0  0  0  0  0  0  0
   -3.3500   20.1470  -32.5070 C   0  0  0  0  0  0  0  0  0  0  0  0
   -3.4850   19.7510  -33.8650 N   0  0  0  0  0  0  0  0  0  0  0  0
   -4.5610   18.8680  -34.1750 C   0  0  0  0  0  0  0  0  0  0  0  0
   -5.9160   19.4510  -33.7750 C   0  0  0  0  0  0  0  0  0  0  0  0
   -4.0241   24.0438  -26.2690 H   0  0  0  0  0  0  0  0  0  0  0  0
   -3.5470   25.1524  -27.5994 H   0  0  0  0  0  0  0  0  0  0  0  0
   -5.1776   24.3989  -27.5994 H   0  0  0  0  0  0  0  0  0  0  0  0
   -2.5662   22.0180  -26.4969 H   0  0  0  0  0  0  0  0  0  0  0  0
   -1.9632   20.3058  -28.4913 H   0  0  0  0  0  0  0  0  0  0  0  0
   -4.7333   23.6378  -32.9483 H   0  0  0  0  0  0  0  0  0  0  0  0
   -4.2298   22.1196  -32.1841 H   0  0  0  0  0  0  0  0  0  0  0  0
   -7.1263   24.4814  -31.5799 H   0  0  0  0  0  0  0  0  0  0  0  0
   -9.4565   23.7896  -31.4873 H   0  0  0  0  0  0  0  0  0  0  0  0
  -10.0769   21.4048  -31.8989 H   0  0  0  0  0  0  0  0  0  0  0  0
   -8.2608   19.7856  -32.3890 H   0  0  0  0  0  0  0  0  0  0  0  0
   -4.6162   20.4972  -30.7996 H   0  0  0  0  0  0  0  0  0  0  0  0
   -4.6543   18.8219  -31.4007 H   0  0  0  0  0  0  0  0  0  0  0  0
   -3.1318   21.2246  -32.4717 H   0  0  0  0  0  0  0  0  0  0  0  0
   -2.5330   19.5598  -32.0623 H   0  0  0  0  0  0  0  0  0  0  0  0
   -2.6190   19.3550  -34.2440 H   0  0  0  0  0  0  0  0  0  0  0  0
   -4.5626   18.6774  -35.2584 H   0  0  0  0  0  0  0  0  0  0  0  0
   -4.4110   17.9382  -33.6066 H   0  0  0  0  0  0  0  0  0  0  0  0
   -6.2899   20.1088  -34.5734 H   0  0  0  0  0  0  0  0  0  0  0  0
   -6.6473   18.6448  -33.6162 H   0  0  0  0  0  0  0  0  0  0  0  0
  1  2  1  0
  2  3  1  0
  3  4  2  0
  4  5  1  0
  5  6  2  0
  6  7  1  0
  7  8  1  6
  7  9  1  0
  9 10  1  0
 10 11  2  0
 11 12  1  0
 12 13  2  0
 13 14  1  0
 14 15  2  0
 15 16  1  0
 16 17  1  0
 17 18  1  0
 18 19  1  0
 19 20  1  0
 20 21  1  0
  6  2  1  0
 15 10  1  0
 21 16  1  0
  1 22  1  0
  1 23  1  0
  1 24  1  0
  3 25  1  0
  4 26  1  0
  9 27  1  0
  9 28  1  0
 11 29  1  0
 12 30  1  0
 13 31  1  0
 14 32  1  0
 17 33  1  0
 17 34  1  0
 18 35  1  0
 18 36  1  0
 19 37  1  0
 20 38  1  0
 20 39  1  0
 21 40  1  0
 21 41  1  0
M  CHG  2   7   1   8  -1
M  END
>  <smiles>  (22) 
Cn1ccnc1[S+]([O-])Cc1ccccc1N1CCNCC1

>  <score_type>  (22) 
oracle

>  <origin>  (22) 
adg

>  <m_score__min__energy>  (22) 
-8.1999999999999993

>  <m_primary>  (22) 
energy

$$$$
22:0
     RDKit          2D

 76 80  0  0  0  0  0  0  0  0999 V2000
    6.0000    0.0000    0.0000 C   0  0  0  0  0  0  0  0  0  0  0  0
    4.5000    0.0000    0.0000 C   0  0  0  0  0  0  0  0  0  0  0  0
    3.0000    0.0000    0.0000 C   0  0  0  0  0  0  0  0  0  0  0  0
    1.5000    0.0000    0.0000 C   0  0  0  0  0  0  0  0  0  0  0  0
    0.7500   -1.2990    0.0000 N   0  0  0  0  0  0  0  0  0  0  0  0
   -0.7500   -1.2990    0.0000 C   0  0  0  0  0  0  0  0  0  0  0  0
   -2.2124   -1.6328    0.0000 C   0  0  0  0  0  0  0  0  0  0  0  0
   -3.3851   -0.6976    0.0000 C   0  0  0  0  0  0  0  0  0  0  0  0
   -3.3851    0.8024    0.0000 C   0  0  0  0  0  0  0  0  0  0  0  0
   -4.7366    1.4532    0.0000 N   0  0  0  0  0  0  0  0  0  0  0  0
   -5.9760    0.6083    0.0000 C   0  0  0  0  0  0  0  0  0  0  0  0
   -4.8487    2.9490    0.0000 C   0  0  0  0  0  0  0  0  0  0  0  0
   -3.5156    3.6367    0.0000 O   0  0  0  0  0  0  0  0  0  0  0  0
   -6.2001    3.5999    0.0000 C   0  0  0  0  0  0  0  0  0  0  0  0
   -7.5516    4.2507    0.0000 C   0  0  0  0  0  0  0  0  0  0  0  0
   -5.5493    4.9513    0.0000 C   0  0  0  0  0  0  0  0  0  0  0  0
   -6.8510    2.2484    0.0000 C   0  0  0  0  0  0  0  0  0  0  0  0
   -2.2124    1.7376    0.0000 C   0  0  0  0  0  0  0  0  0  0  0  0
   -0.7500    1.2990    0.0000 C   0  0  0  0  0  0  0  0  0  0  0  0
   -1.5000    0.0000    0.0000 C   0  0  0  0  0  0  0  0  0  0  0  0
   -2.6789    0.2940    0.0000 O   0  0  0  0  0  0  0  0  0  0  0  0
    0.7500    1.2990    0.0000 N   0  0  0  0  0  0  0  0  0  0  0  0
    1.5000    2.5981    0.0000 C   0  0  0  0  0  0  0  0  0  0  0  0
    2.2500    3.8971    0.0000 C   0  0  0  0  0  0  0  0  0  0  0  0
    3.7500    3.8971    0.0000 C   0  0  0  0  0  0  0  0  0  0  0  0
    4.5000    5.1962    0.0000 C   0  0  0  0  0  0  0  0  0  0  0  0
    3.7500    6.4952    0.0000 C   0  0  0  0  0  0  0  0  0  0  0  0
    4.5000    7.7942    0.0000 C   0  0  0  0  0  0  0  0  0  0  0  0
    6.0000    7.7942    0.0000 C   0  0  0  0  0  0  0  0  0  0  0  0
    6.7500    9.0933    0.0000 C   0  0  0  0  0  0  0  0  0  0  0  0
    6.0000   10.3923    0.0000 C   0  0  0  0  0  0  0  0  0  0  0  0
    4.5000   10.3923    0.0000 C   0  0  0  0  0  0  0  0  0  0  0  0
    3.7500    9.0933    0.0000 C   0  0  0  0  0  0  0  0  0  0  0  0
    2.2500    9.0933    0.0000 C   0  0  0  0  0  0  0  0  0  0  0  0
    1.3683    7.8797    0.0000 N   0  0  0  0  0  0  0  0  0  0  0  0
   -0.0583    8.3433    0.0000 O   0  0  0  0  0  0  0  0  0  0  0  0
   -0.0583    9.8433    0.0000 C   0  0  0  0  0  0  0  0  0  0  0  0
   -1.2718   10.7249    0.0000 C   0  0  0  0  0  0  0  0  0  0  0  0
    1.3683   10.3068    0.0000 N   0  0  0  0  0  0  0  0  0  0  0  0
    2.2500    6.4952    0.0000 C   0  0  0  0  0  0  0  0  0  0  0  0
    1.5000    5.1962    0.0000 C   0  0  0  0  0  0  0  0  0  0  0  0
    7.5000    0.0000    0.0000 H   0  0  0  0  0  0  0  0  0  0  0  0
    6.0000   -1.5000    0.0000 H   0  0  0  0  0  0  0  0  0  0  0  0
    6.0000    1.5000    0.0000 H   0  0  0  0  0  0  0  0  0  0  0  0
    4.5000   -1.5000    0.0000 H   0  0  0  0  0  0  0  0  0  0  0  0
    4.5000    1.5000    0.0000 H   0  0  0  0  0  0  0  0  0  0  0  0
    3.0000   -1.5000    0.0000 H   0  0  0  0  0  0  0  0  0  0  0  0
    3.1828    1.4888    0.0000 H   0  0  0  0  0  0  0  0  0  0  0  0
   -2.5462   -3.0952    0.0000 H   0  0  0  0  0  0  0  0  0  0  0  0
   -4.6472   -1.5083    0.0000 H   0  0  0  0  0  0  0  0  0  0  0  0
   -7.2153   -0.2367    0.0000 H   0  0  0  0  0  0  0  0  0  0  0  0
   -6.5710    1.1387    0.0000 H   0  0  0  0  0  0  0  0  0  0  0  0
   -5.2883   -0.7249    0.0000 H   0  0  0  0  0  0  0  0  0  0  0  0
   -8.9030    4.9015    0.0000 H   0  0  0  0  0  0  0  0  0  0  0  0
   -7.2674    5.0896    0.0000 H   0  0  0  0  0  0  0  0  0  0  0  0
   -8.3623    2.9887    0.0000 H   0  0  0  0  0  0  0  0  0  0  0  0
   -4.8985    6.3028    0.0000 H   0  0  0  0  0  0  0  0  0  0  0  0
   -6.2945    5.4300    0.0000 H   0  0  0  0  0  0  0  0  0  0  0  0
   -4.1286    4.4701    0.0000 H   0  0  0  0  0  0  0  0  0  0  0  0
   -7.2780    1.3617    0.0000 H   0  0  0  0  0  0  0  0  0  0  0  0
   -8.2717    2.7297    0.0000 H   0  0  0  0  0  0  0  0  0  0  0  0
   -5.6972    1.2899    0.0000 H   0  0  0  0  0  0  0  0  0  0  0  0
   -2.5462    3.2000    0.0000 H   0  0  0  0  0  0  0  0  0  0  0  0
    2.8808    2.0120    0.0000 H   0  0  0  0  0  0  0  0  0  0  0  0
    0.2010    3.3481    0.0000 H   0  0  0  0  0  0  0  0  0  0  0  0
    4.5000    2.5981    0.0000 H   0  0  0  0  0  0  0  0  0  0  0  0
    6.0000    5.1962    0.0000 H   0  0  0  0  0  0  0  0  0  0  0  0
    6.7500    6.4952    0.0000 H   0  0  0  0  0  0  0  0  0  0  0  0
    8.2500    9.0933    0.0000 H   0  0  0  0  0  0  0  0  0  0  0  0
    6.7500   11.6913    0.0000 H   0  0  0  0  0  0  0  0  0  0  0  0
    3.7500   11.6913    0.0000 H   0  0  0  0  0  0  0  0  0  0  0  0
   -2.4853   11.6066    0.0000 H   0  0  0  0  0  0  0  0  0  0  0  0
   -0.3901   11.9385    0.0000 H   0  0  0  0  0  0  0  0  0  0  0  0
   -2.1535    9.5114    0.0000 H   0  0  0  0  0  0  0  0  0  0  0  0
    1.2080    7.5741    0.0000 H   0  0  0  0  0  0  0  0  0  0  0  0
    0.0000    5.1962    0.0000 H   0  0  0  0  0  0  0  0  0  0  0  0
  1  2  1  0
  2  3  1  0
  3  4  1  0
  4  5  2  0
  5  6  1  0
  6  7  2  0
  7  8  1  0
  8  9  2  0
  9 10  1  0
 10 11  1  0
 10 12  1  0
 12 13  2  0
 12 14  1  0
 14 15  1  0
 14 16  1  0
 14 17  1  0
  9 18  1  0
 18 19  2  0
 19 20  1  0
 20 21  2  0
 19 22  1  0
 22 23  1  0
 23 24  1  0
 24 25  2  0
 25 26  1  0
 26 27  2  0
 27 28  1  0
 28 29  2  0
 29 30  1  0
 30 31  2  0
 31 32  1  0
 32 33  2  0
 33 34  1  0
 34 35  2  0
 35 36  1  0
 36 37  1  0
 37 38  1  0
 37 39  2  0
 27 40  1  0
 40 41  2  0
 22  4  1  0
 41 24  1  0
 20  6  1  0
 33 28  1  0
 39 34  1  0
  1 42  1  0
  1 43  1  0
  1 44  1  0
  2 45  1  0
  2 46  1  0
  3 47  1  0
  3 48  1  0
  7 49  1  0
  8 50  1  0
 11 51  1  0
 11 52  1  0
 11 53  1  0
 15 54  1  0
 15 55  1  0
 15 56  1  0
 16 57  1  0
 16 58  1  0
 16 59  1  0
 17 60  1  0
 17 61  1  0
 17 62  1  0
 18 63  1  0
 23 64  1  0
 23 65  1  0
 25 66  1  0
 26 67  1  0
 29 68  1  0
 30 69  1  0
 31 70  1  0
 32 71  1  0
 38 72  1  0
 38 73  1  0
 38 74  1  0
 40 75  1  0
 41 76  1  0
M  END
>  <smiles>  (23) 
CCCc1nc2ccc(N(C)C(=O)C(C)(C)C)cc(c2=O)n1Cc1ccc(-c2ccccc2-c2noc(C)n2)cc1

>  <m_score__min__energy>  (23) 
nan

>  <m_primary>  (23) 
energy

$$$$
23:0
     RDKit          3D

 46 47  0  0  0  0  0  0  0  0999 V2000
   -2.6710   24.2850  -29.2040 C   0  0  0  0  0  0  0  0  0  0  0  0
   -3.8750   23.6120  -29.7460 C   0  0  0  0  0  0  0  0  0  0  0  0
   -4.5290   24.2340  -30.8650 N   0  0  0  0  0  0  0  0  0  0  0  0
   -5.3600   25.3360  -30.4770 C   0  0  0  0  0  0  0  0  0  0  0  0
   -6.7280   24.8600  -30.0840 C   0  0  0  0  0  0  0  0  0  0  0  0
   -5.1690   23.2970  -31.7580 C   0  0  0  0  0  0  0  0  0  0  0  0
   -4.2180   22.1590  -32.0190 C   0  0  0  0  0  0  0  0  0  0  0  0
   -4.5200   21.4530  -33.2790 N   0  0  0  0  0  0  0  0  0  0  0  0
   -4.2010   20.0730  -33.4380 C   0  0  0  0  0  0  0  0  0  0  0  0
   -2.9300   19.6080  -33.1400 C   0  0  0  0  0  0  0  0  0  0  0  0
   -2.5810   18.2700  -33.2400 C   0  0  0  0  0  0  0  0  0  0  0  0
   -3.5260   17.3620  -33.6480 C   0  0  0  0  0  0  0  0  0  0  0  0
   -4.8070   17.8170  -33.9520 C   0  0  0  0  0  0  0  0  0  0  0  0
   -5.1660   19.1490  -33.8550 C   0  0  0  0  0  0  0  0  0  0  0  0
   -6.5110   19.5790  -34.1380 N   0  0  0  0  0  0  0  0  0  0  0  0
   -7.4240   19.8680  -33.0870 C   0  0  0  0  0  0  0  0  0  0  0  0
   -8.2220   18.9190  -32.4890 C   0  0  0  0  0  0  0  0  0  0  0  0
   -9.0780   19.3600  -31.4730 C   0  0  0  0  0  0  0  0  0  0  0  0
   -9.1110   20.6820  -31.1030 C   0  0  0  0  0  0  0  0  0  0  0  0
   -8.3140   21.6390  -31.7000 C   0  0  0  0  0  0  0  0  0  0  0  0
   -7.4710   21.2180  -32.6980 C   0  0  0  0  0  0  0  0  0  0  0  0
   -2.7042   24.2664  -28.1047 H   0  0  0  0  0  0  0  0  0  0  0  0
   -1.7694   23.7601  -29.5525 H   0  0  0  0  0  0  0  0  0  0  0  0
   -2.6458   25.3280  -29.5525 H   0  0  0  0  0  0  0  0  0  0  0  0
   -3.5761   22.6005  -30.0581 H   0  0  0  0  0  0  0  0  0  0  0  0
   -4.6120   23.6504  -28.9303 H   0  0  0  0  0  0  0  0  0  0  0  0
   -4.8985   25.8521  -29.6222 H   0  0  0  0  0  0  0  0  0  0  0  0
   -5.4575   26.0218  -31.3315 H   0  0  0  0  0  0  0  0  0  0  0  0
   -6.8057   24.8330  -28.9871 H   0  0  0  0  0  0  0  0  0  0  0  0
   -7.4856   25.5473  -30.4884 H   0  0  0  0  0  0  0  0  0  0  0  0
   -6.8953   23.8508  -30.4884 H   0  0  0  0  0  0  0  0  0  0  0  0
   -6.0895   22.9124  -31.2945 H   0  0  0  0  0  0  0  0  0  0  0  0
   -5.4287   23.7952  -32.7037 H   0  0  0  0  0  0  0  0  0  0  0  0
   -3.1948   22.5590  -32.0744 H   0  0  0  0  0  0  0  0  0  0  0  0
   -4.3238   21.4372  -31.1957 H   0  0  0  0  0  0  0  0  0  0  0  0
   -4.9700   22.0340  -34.0060 H   0  0  0  0  0  0  0  0  0  0  0  0
   -2.1675   20.3294  -32.8110 H   0  0  0  0  0  0  0  0  0  0  0  0
   -1.5604   17.9405  -32.9956 H   0  0  0  0  0  0  0  0  0  0  0  0
   -3.2762   16.2941  -33.7334 H   0  0  0  0  0  0  0  0  0  0  0  0
   -5.5623   17.0886  -34.2820 H   0  0  0  0  0  0  0  0  0  0  0  0
   -6.8510   19.6950  -35.0980 H   0  0  0  0  0  0  0  0  0  0  0  0
   -8.1885   17.8631  -32.7954 H   0  0  0  0  0  0  0  0  0  0  0  0
   -9.7332   18.6377  -30.9640 H   0  0  0  0  0  0  0  0  0  0  0  0
   -9.7979   20.9903  -30.3011 H   0  0  0  0  0  0  0  0  0  0  0  0
   -8.3531   22.6934  -31.3890 H   0  0  0  0  0  0  0  0  0  0  0  0
   -6.8215   21.9490  -33.2017 H   0  0  0  0  0  0  0  0  0  0  0  0
  1  2  1  0
  2  3  1  0
  3  4  1  0
  4  5  1  0
  3  6  1  0
  6  7  1  0
  7  8  1  0
  8  9  1  0
  9 10  2  0
 10 11  1  0
 11 12  2  0
 12 13  1  0
 13 14  2  0
 14 15  1  0
 15 16  1  0
 16 17  2  0
 17 18  1  0
 18 19  2  0
 19 20  1  0
 20 21  2  0
 14  9  1  0
 21 16  1  0
  1 22  1  0
  1 23  1  0
  1 24  1  0
  2 25  1  0
  2 26  1  0
  4 27  1  0
  4 28  1  0
  5 29  1  0
  5 30  1  0
  5 31  1  0
  6 32  1  0
  6 33  1  0
  7 34  1  0
  7 35  1  0
  8 36  1  0
 10 37  1  0
 11 38  1  0
 12 39  1  0
 13 40  1  0
 15 41  1  0
 17 42  1  0
 18 43  1  0
 19 44  1  0
 20 45  1  0
 21 46  1  0
M  END
>  <smiles>  (24) 
CCN(CC)CCNc1ccccc1Nc1ccccc1

>  <score_type>  (24) 
oracle

>  <origin>  (24) 
adg

>  <m_score__min__energy>  (24) 
-7.6600000000000001

>  <m_primary>  (24) 
energy

$$$$
24:0
     RDKit          3D

 45 47  0  0  0  0  0  0  0  0999 V2000
   -9.1620   18.2540  -31.5710 C   0  0  0  0  0  0  0  0  0  0  0  0
   -8.3390   19.3040  -32.0590 O   0  0  0  0  0  0  0  0  0  0  0  0
   -7.0910   19.0230  -32.5860 C   0  0  0  0  0  0  0  0  0  0  0  0
   -6.4630   19.7820  -33.5500 C   0  0  0  0  0  0  0  0  0  0  0  0
   -5.1960   19.4270  -34.0310 C   0  0  0  0  0  0  0  0  0  0  0  0
   -4.5390   18.3220  -33.5680 C   0  0  0  0  0  0  0  0  0  0  0  0
   -3.2640   17.8710  -33.9810 N   0  0  0  0  0  0  0  0  0  0  0  0
   -2.9250   16.6070  -34.3420 C   0  0  0  0  0  0  0  0  0  0  0  0
   -1.5560   16.6590  -34.6400 C   0  0  0  0  0  0  0  0  0  0  0  0
   -1.1080   17.9280  -34.4540 N   0  0  0  0  0  0  0  0  0  0  0  0
   -2.1700   18.6690  -34.0480 C   0  0  0  0  0  0  0  0  0  0  0  0
   -2.1270   20.4060  -33.6940 S   0  0  0  0  0  0  0  0  0  0  0  0
   -1.9090   20.6540  -31.9170 C   0  0  0  0  0  0  0  0  0  0  0  0
   -3.0840   21.4110  -31.4260 C   0  0  0  0  0  0  0  0  0  0  0  0
   -3.5020   21.0830  -30.2610 O   0  0  0  0  0  0  0  0  0  0  0  0
   -3.7540   22.4330  -32.1240 N   0  0  0  0  0  0  0  0  0  0  0  0
   -4.8620   23.0870  -31.5320 C   0  0  0  0  0  0  0  0  0  0  0  0
   -6.1150   22.5240  -31.8190 C   0  0  0  0  0  0  0  0  0  0  0  0
   -7.2750   23.0700  -31.3080 C   0  0  0  0  0  0  0  0  0  0  0  0
   -8.8410   22.3620  -31.6660 Cl  0  0  0  0  0  0  0  0  0  0  0  0
   -7.2100   24.2030  -30.4880 C   0  0  0  0  0  0  0  0  0  0  0  0
   -5.9490   24.7340  -30.2250 C   0  0  0  0  0  0  0  0  0  0  0  0
   -4.7910   24.1960  -30.7300 C   0  0  0  0  0  0  0  0  0  0  0  0
   -3.5510   24.7460  -30.4560 O   0  0  0  0  0  0  0  0  0  0  0  0
   -2.7970   24.1640  -29.3860 C   0  0  0  0  0  0  0  0  0  0  0  0
   -5.1830   17.5520  -32.5870 C   0  0  0  0  0  0  0  0  0  0  0  0
   -6.4330   17.8950  -32.1070 C   0  0  0  0  0  0  0  0  0  0  0  0
   -9.1546   18.2634  -30.4711 H   0  0  0  0  0  0  0  0  0  0  0  0
  -10.1912   18.3968  -31.9320 H   0  0  0  0  0  0  0  0  0  0  0  0
   -8.7774   17.2887  -31.9320 H   0  0  0  0  0  0  0  0  0  0  0  0
   -6.9630   20.6779  -33.9467 H   0  0  0  0  0  0  0  0  0  0  0  0
   -4.7188   20.0527  -34.7996 H   0  0  0  0  0  0  0  0  0  0  0  0
   -3.5847   15.7281  -34.3904 H   0  0  0  0  0  0  0  0  0  0  0  0
   -0.9426   15.8082  -34.9715 H   0  0  0  0  0  0  0  0  0  0  0  0
   -1.8487   19.6815  -31.4066 H   0  0  0  0  0  0  0  0  0  0  0  0
   -0.9796   21.2062  -31.7138 H   0  0  0  0  0  0  0  0  0  0  0  0
   -3.4240   22.6910  -33.0690 H   0  0  0  0  0  0  0  0  0  0  0  0
   -6.1736   21.6331  -32.4616 H   0  0  0  0  0  0  0  0  0  0  0  0
   -8.1197   24.6565  -30.0675 H   0  0  0  0  0  0  0  0  0  0  0  0
   -5.8779   25.6248  -29.5836 H   0  0  0  0  0  0  0  0  0  0  0  0
   -3.2172   24.4884  -28.4226 H   0  0  0  0  0  0  0  0  0  0  0  0
   -2.8462   23.0674  -29.4569 H   0  0  0  0  0  0  0  0  0  0  0  0
   -1.7486   24.4893  -29.4569 H   0  0  0  0  0  0  0  0  0  0  0  0
   -4.6820   16.6561  -32.1916 H   0  0  0  0  0  0  0  0  0  0  0  0
   -6.9120   17.2700  -31.3389 H   0  0  0  0  0  0  0  0  0  0  0  0
  1  2  1  0
  2  3  1  0
  3  4  2  0
  4  5  1  0
  5  6  2  0
  6  7  1  0
  7  8  1  0
  8  9  2  0
  9 10  1  0
 10 11  2  0
 11 12  1  0
 12 13  1  0
 13 14  1  0
 14 15  2  0
 14 16  1  0
 16 17  1  0
 17 18  2  0
 18 19  1  0
 19 20  1  0
 19 21  2  0
 21 22  1  0
 22 23  2  0
 23 24  1  0
 24 25  1  0
  6 26  1  0
 26 27  2  0
 27  3  1  0
 11  7  1  0
 23 17  1  0
  1 28  1  0
  1 29  1  0
  1 30  1  0
  4 31  1  0
  5 32  1  0
  8 33  1  0
  9 34  1  0
 13 35  1  0
 13 36  1  0
 16 37  1  0
 18 38  1  0
 21 39  1  0
 22 40  1  0
 25 41  1  0
 25 42  1  0
 25 43  1  0
 26 44  1  0
 27 45  1  0
M  END
>  <smiles>  (25) 
COc1ccc(-n2ccnc2SCC(=O)Nc2cc(Cl)ccc2OC)cc1

>  <score_type>  (25) 
oracle

>  <origin>  (25) 
adg

>  <m_score__min__energy>  (25) 
-8.9499999999999993

>  <m_primary>  (25) 
energy

$$$$
25:0
     RDKit          3D

 55 59  0  0  0  0  0  0  0  0999 V2000
   -6.4600   16.1760  -33.8570 C   0  0  0  0  0  0  0  0  0  0  0  0
   -6.1000   17.6040  -33.5990 C   0  0  0  0  0  0  0  0  0  0  0  0
   -4.9340   18.1540  -34.1150 C   0  0  0  0  0  0  0  0  0  0  0  0
   -4.6990   19.4750  -33.8180 C   0  0  0  0  0  0  0  0  0  0  0  0
   -5.5150   20.2310  -33.0750 N   0  0  0  0  0  0  0  0  0  0  0  0
   -6.6440   19.7320  -32.5640 C   0  0  0  0  0  0  0  0  0  0  0  0
   -7.4800   20.5280  -31.8020 C   0  0  0  0  0  0  0  0  0  0  0  0
   -7.2120   21.8830  -31.4910 N   0  0  0  0  0  0  0  0  0  0  0  0
   -6.9830   22.2390  -30.0850 C   0  0  0  0  0  0  0  0  0  0  0  0
   -7.2530   23.6740  -29.8000 C   0  0  0  0  0  0  0  0  0  0  0  0
   -6.6150   24.6060  -30.6680 N   0  0  0  0  0  0  0  0  0  0  0  0
   -5.5600   25.3570  -30.0580 C   0  0  0  0  0  0  0  0  0  0  0  0
   -4.1880   24.9490  -30.4350 C   0  0  0  0  0  0  0  0  0  0  0  0
   -3.8030   23.7300  -29.6860 C   0  0  0  0  0  0  0  0  0  0  0  0
   -3.9250   23.7480  -28.2960 C   0  0  0  0  0  0  0  0  0  0  0  0
   -3.5820   22.6950  -27.5010 C   0  0  0  0  0  0  0  0  0  0  0  0
   -3.0880   21.5470  -28.0670 C   0  0  0  0  0  0  0  0  0  0  0  0
   -2.9660   21.5260  -29.4420 C   0  0  0  0  0  0  0  0  0  0  0  0
   -2.4800   20.3910  -30.0110 N   0  0  0  0  0  0  0  0  0  0  0  0
   -2.3220   20.2570  -31.3360 C   0  0  0  0  0  0  0  0  0  0  0  0
   -2.6740   21.3270  -32.1310 C   0  0  0  0  0  0  0  0  0  0  0  0
   -3.1760   22.5130  -31.6160 C   0  0  0  0  0  0  0  0  0  0  0  0
   -3.3120   22.5880  -30.2510 C   0  0  0  0  0  0  0  0  0  0  0  0
   -6.3850   24.1670  -31.9860 C   0  0  0  0  0  0  0  0  0  0  0  0
   -7.1320   22.9510  -32.4450 C   0  0  0  0  0  0  0  0  0  0  0  0
   -8.6290   19.9020  -31.3220 C   0  0  0  0  0  0  0  0  0  0  0  0
   -8.9190   18.5770  -31.5890 C   0  0  0  0  0  0  0  0  0  0  0  0
   -8.0760   17.8030  -32.3490 C   0  0  0  0  0  0  0  0  0  0  0  0
   -6.9350   18.3950  -32.8340 C   0  0  0  0  0  0  0  0  0  0  0  0
   -6.5920   15.6523  -32.8987 H   0  0  0  0  0  0  0  0  0  0  0  0
   -7.3973   16.1321  -34.4310 H   0  0  0  0  0  0  0  0  0  0  0  0
   -5.6555   15.6930  -34.4310 H   0  0  0  0  0  0  0  0  0  0  0  0
   -4.2365   17.5644  -34.7281 H   0  0  0  0  0  0  0  0  0  0  0  0
   -3.7842   19.9390  -34.2154 H   0  0  0  0  0  0  0  0  0  0  0  0
   -7.6443   21.6256  -29.4554 H   0  0  0  0  0  0  0  0  0  0  0  0
   -5.9212   22.0530  -29.8660 H   0  0  0  0  0  0  0  0  0  0  0  0
   -8.3389   23.8344  -29.8711 H   0  0  0  0  0  0  0  0  0  0  0  0
   -6.8391   23.8643  -28.7988 H   0  0  0  0  0  0  0  0  0  0  0  0
   -5.6890   26.4127  -30.3389 H   0  0  0  0  0  0  0  0  0  0  0  0
   -5.6438   25.1729  -28.9768 H   0  0  0  0  0  0  0  0  0  0  0  0
   -4.1526   24.7407  -31.5145 H   0  0  0  0  0  0  0  0  0  0  0  0
   -3.4876   25.7614  -30.1911 H   0  0  0  0  0  0  0  0  0  0  0  0
   -4.3176   24.6575  -27.8178 H   0  0  0  0  0  0  0  0  0  0  0  0
   -3.7009   22.7655  -26.4097 H   0  0  0  0  0  0  0  0  0  0  0  0
   -2.8016   20.6811  -27.4521 H   0  0  0  0  0  0  0  0  0  0  0  0
   -1.9263   19.3280  -31.7723 H   0  0  0  0  0  0  0  0  0  0  0  0
   -2.5515   21.2362  -33.2204 H   0  0  0  0  0  0  0  0  0  0  0  0
   -3.4521   23.3536  -32.2695 H   0  0  0  0  0  0  0  0  0  0  0  0
   -6.6521   24.9934  -32.6611 H   0  0  0  0  0  0  0  0  0  0  0  0
   -5.3255   23.8719  -32.0049 H   0  0  0  0  0  0  0  0  0  0  0  0
   -8.1576   23.2579  -32.6980 H   0  0  0  0  0  0  0  0  0  0  0  0
   -6.5668   22.5524  -33.3004 H   0  0  0  0  0  0  0  0  0  0  0  0
   -9.3315   20.4842  -30.7076 H   0  0  0  0  0  0  0  0  0  0  0  0
   -9.8416   18.1343  -31.1855 H   0  0  0  0  0  0  0  0  0  0  0  0
   -8.3060   16.7485  -32.5613 H   0  0  0  0  0  0  0  0  0  0  0  0
  1  2  1  0
  2  3  2  0
  3  4  1  0
  4  5  2  0
  5  6  1  0
  6  7  2  0
  7  8  1  0
  8  9  1  0
  9 10  1  0
 10 11  1  0
 11 12  1  0
 12 13  1  0
 13 14  1  0
 14 15  2  0
 15 16  1  0
 16 17  2  0
 17 18  1  0
 18 19  2  0
 19 20  1  0
 20 21  2  0
 21 22  1  0
 22 23  2  0
 11 24  1  0
 24 25  1  0
  7 26  1  0
 26 27  2  0
 27 28  1  0
 28 29  2  0
 29  2  1  0
 29  6  1  0
 25  8  1  0
 23 14  1  0
 23 18  1  0
  1 30  1  0
  1 31  1  0
  1 32  1  0
  3 33  1  0
  4 34  1  0
  9 35  1  0
  9 36  1  0
 10 37  1  0
 10 38  1  0
 12 39  1  0
 12 40  1  0
 13 41  1  0
 13 42  1  0
 15 43  1  0
 16 44  1  0
 17 45  1  0
 20 46  1  0
 21 47  1  0
 22 48  1  0
 24 49  1  0
 24 50  1  0
 25 51  1  0
 25 52  1  0
 26 53  1  0
 27 54  1  0
 28 55  1  0
M  END
>  <smiles>  (26) 
Cc1ccnc2c(N3CCN(CCc4cccc5ncccc45)CC3)cccc12

>  <score_type>  (26) 
oracle

>  <origin>  (26) 
adg

>  <m_score__min__energy>  (26) 
-10

>  <m_primary>  (26) 
energy

$$$$
26:0
     RDKit          3D

 65 69  0  0  0  0  0  0  0  0999 V2000
   -3.4350   20.9440  -32.2480 C   0  0  0  0  0  0  0  0  0  0  0  0
   -2.7710   19.6930  -32.3150 O   0  0  0  0  0  0  0  0  0  0  0  0
   -1.8410   19.5250  -33.3370 C   0  0  0  0  0  0  0  0  0  0  0  0
   -1.1680   20.6660  -33.7780 C   0  0  0  0  0  0  0  0  0  0  0  0
   -0.2370   20.5430  -34.7890 C   0  0  0  0  0  0  0  0  0  0  0  0
   -0.0050   19.2970  -35.3300 C   0  0  0  0  0  0  0  0  0  0  0  0
    0.9000   19.1460  -36.3210 N   0  0  0  0  0  0  0  0  0  0  0  0
    1.1380   17.9350  -36.8580 C   0  0  0  0  0  0  0  0  0  0  0  0
    0.4800   16.7930  -36.4340 C   0  0  0  0  0  0  0  0  0  0  0  0
    0.7220   15.5660  -36.9790 F   0  0  0  0  0  0  0  0  0  0  0  0
   -0.4570   16.9480  -35.4080 C   0  0  0  0  0  0  0  0  0  0  0  0
   -1.1460   15.7140  -34.9700 C   0  0  0  0  0  0  0  0  0  0  0  0
   -2.1700   15.2130  -35.9670 C   0  0  0  0  0  0  0  0  0  0  0  0
   -3.4860   15.5010  -35.4270 N   0  0  0  0  0  0  0  0  0  0  0  0
   -3.8870   14.6290  -34.3930 C   0  0  0  0  0  0  0  0  0  0  0  0
   -4.0200   15.1700  -33.0200 C   0  0  0  0  0  0  0  0  0  0  0  0
   -4.3940   16.6320  -32.9780 C   0  0  0  0  0  0  0  0  0  0  0  0
   -5.3550   16.9820  -31.9850 N   0  0  0  0  0  0  0  0  0  0  0  0
   -6.7100   17.0210  -32.5400 C   0  0  0  0  0  0  0  0  0  0  0  0
   -7.2910   18.3870  -32.3810 C   0  0  0  0  0  0  0  0  0  0  0  0
   -8.6870   18.4530  -32.3850 C   0  0  0  0  0  0  0  0  0  0  0  0
   -9.3430   19.6440  -32.2440 C   0  0  0  0  0  0  0  0  0  0  0  0
   -8.5490   20.7790  -32.0960 C   0  0  0  0  0  0  0  0  0  0  0  0
   -7.1740   20.7150  -32.0910 C   0  0  0  0  0  0  0  0  0  0  0  0
   -6.5080   19.5160  -32.2330 C   0  0  0  0  0  0  0  0  0  0  0  0
   -6.2920   21.7920  -31.9500 O   0  0  0  0  0  0  0  0  0  0  0  0
   -6.4340   23.1510  -32.2040 C   0  0  0  0  0  0  0  0  0  0  0  0
   -7.6210   23.8200  -31.6090 C   0  0  0  0  0  0  0  0  0  0  0  0
   -8.9270   23.2930  -31.9880 C   0  0  0  0  0  0  0  0  0  0  0  0
   -9.8170   24.1100  -32.4050 O   0  0  0  0  0  0  0  0  0  0  0  0
   -9.3780   21.9340  -31.9620 N   0  0  0  0  0  0  0  0  0  0  0  0
   -4.9290   17.0750  -34.3430 C   0  0  0  0  0  0  0  0  0  0  0  0
   -3.7340   16.8910  -35.2740 C   0  0  0  0  0  0  0  0  0  0  0  0
   -0.6890   18.1920  -34.8700 C   0  0  0  0  0  0  0  0  0  0  0  0
   -1.5770   18.3370  -33.8980 N   0  0  0  0  0  0  0  0  0  0  0  0
   -3.5837   21.2242  -31.1947 H   0  0  0  0  0  0  0  0  0  0  0  0
   -2.8249   21.7102  -32.7486 H   0  0  0  0  0  0  0  0  0  0  0  0
   -4.4115   20.8681  -32.7486 H   0  0  0  0  0  0  0  0  0  0  0  0
   -1.3766   21.6473  -33.3267 H   0  0  0  0  0  0  0  0  0  0  0  0
    0.3101   21.4237  -35.1565 H   0  0  0  0  0  0  0  0  0  0  0  0
    1.8825   17.8495  -37.6632 H   0  0  0  0  0  0  0  0  0  0  0  0
   -0.3916   14.9277  -34.8195 H   0  0  0  0  0  0  0  0  0  0  0  0
   -1.6855   15.9542  -34.0420 H   0  0  0  0  0  0  0  0  0  0  0  0
   -2.0389   15.7280  -36.9301 H   0  0  0  0  0  0  0  0  0  0  0  0
   -2.0493   14.1326  -36.1347 H   0  0  0  0  0  0  0  0  0  0  0  0
   -4.8678   14.2195  -34.6765 H   0  0  0  0  0  0  0  0  0  0  0  0
   -3.0617   13.9058  -34.3173 H   0  0  0  0  0  0  0  0  0  0  0  0
   -4.7984   14.5971  -32.4948 H   0  0  0  0  0  0  0  0  0  0  0  0
   -3.0345   15.0761  -32.5404 H   0  0  0  0  0  0  0  0  0  0  0  0
   -3.4626   17.1527  -32.7109 H   0  0  0  0  0  0  0  0  0  0  0  0
   -5.3570   16.2180  -31.2780 H   0  0  0  0  0  0  0  0  0  0  0  0
   -6.6728   16.7637  -33.6088 H   0  0  0  0  0  0  0  0  0  0  0  0
   -7.3400   16.2972  -32.0022 H   0  0  0  0  0  0  0  0  0  0  0  0
   -9.2698   17.5277  -32.5040 H   0  0  0  0  0  0  0  0  0  0  0  0
  -10.4414   19.7031  -32.2472 H   0  0  0  0  0  0  0  0  0  0  0  0
   -5.4094   19.4610  -32.2287 H   0  0  0  0  0  0  0  0  0  0  0  0
   -5.5372   23.6579  -31.8182 H   0  0  0  0  0  0  0  0  0  0  0  0
   -6.5728   23.2292  -33.2924 H   0  0  0  0  0  0  0  0  0  0  0  0
   -7.5345   23.7420  -30.5152 H   0  0  0  0  0  0  0  0  0  0  0  0
   -7.5995   24.8484  -31.9987 H   0  0  0  0  0  0  0  0  0  0  0  0
  -10.4080   21.7940  -31.8320 H   0  0  0  0  0  0  0  0  0  0  0  0
   -5.7729   16.4436  -34.6578 H   0  0  0  0  0  0  0  0  0  0  0  0
   -5.3118   18.1062  -34.3377 H   0  0  0  0  0  0  0  0  0  0  0  0
   -3.9564   17.3375  -36.2544 H   0  0  0  0  0  0  0  0  0  0  0  0
   -2.8480   17.3853  -34.8489 H   0  0  0  0  0  0  0  0  0  0  0  0
  1  2  1  0
  2  3  1  0
  3  4  2  0
  4  5  1  0
  5  6  2  0
  6  7  1  0
  7  8  2  0
  8  9  1  0
  9 10  1  0
  9 11  2  0
 11 12  1  0
 12 13  1  0
 13 14  1  0
 14 15  1  0
 15 16  1  0
 16 17  1  0
 17 18  1  0
 18 19  1  0
 19 20  1  0
 20 21  2  0
 21 22  1  0
 22 23  2  0
 23 24  1  0
 24 25  2  0
 24 26  1  0
 26 27  1  0
 27 28  1  0
 28 29  1  0
 29 30  2  0
 29 31  1  0
 17 32  1  0
 32 33  1  0
 11 34  1  0
 34 35  2  0
 35  3  1  0
 34  6  1  0
 33 14  1  0
 25 20  1  0
 31 23  1  0
  1 36  1  0
  1 37  1  0
  1 38  1  0
  4 39  1  0
  5 40  1  0
  8 41  1  0
 12 42  1  0
 12 43  1  0
 13 44  1  0
 13 45  1  0
 15 46  1  0
 15 47  1  0
 16 48  1  0
 16 49  1  0
 17 50  1  0
 18 51  1  0
 19 52  1  0
 19 53  1  0
 21 54  1  0
 22 55  1  0
 25 56  1  0
 27 57  1  0
 27 58  1  0
 28 59  1  0
 28 60  1  0
 31 61  1  0
 32 62  1  0
 32 63  1  0
 33 64  1  0
 33 65  1  0
M  END
>  <smiles>  (27) 
COc1ccc2ncc(F)c(CCN3CCC(NCc4ccc5c(c4)OCCC(=O)N5)CC3)c2n1

>  <score_type>  (27) 
oracle

>  <origin>  (27) 
adg

>  <m_score__min__energy>  (27) 
-7.7699999999999996

>  <m_primary>  (27) 
energy

$$$$
27:0
     RDKit          3D

 37 39  0  0  1  0  0  0  0  0999 V2000
    0.6860   24.8030  -36.1610 C   0  0  0  0  0  0  0  0  0  0  0  0
    1.9420   24.0820  -35.8040 C   0  0  0  0  0  0  0  0  0  0  0  0
    1.8760   22.6630  -36.0080 N   0  0  0  0  0  0  0  0  0  0  0  0
    1.2090   21.9050  -35.2270 C   0  0  0  0  0  0  0  0  0  0  0  0
   -0.0680   21.8510  -34.9260 N   0  0  0  0  0  0  0  0  0  0  0  0
   -0.5520   20.9910  -34.0910 C   0  0  0  0  0  0  0  0  0  0  0  0
   -1.9740   20.8530  -33.6890 C   0  0  0  0  0  0  0  0  0  0  0  0
   -2.6450   21.8790  -33.0580 C   0  0  0  0  0  0  0  0  0  0  0  0
   -3.9630   21.7930  -32.6680 C   0  0  0  0  0  0  0  0  0  0  0  0
   -4.6830   20.6460  -32.8990 C   0  0  0  0  0  0  0  0  0  0  0  0
   -6.0450   20.4940  -32.5220 N   0  0  0  0  0  0  0  0  0  0  0  0
   -6.6540   19.2920  -32.3130 C   0  0  0  0  0  0  0  0  0  0  0  0
   -7.9700   19.5160  -31.9630 C   0  0  0  0  0  0  0  0  0  0  0  0
   -9.1280   18.2610  -31.6020 Cl  0  0  0  0  0  0  0  0  0  0  0  0
   -8.1230   20.8850  -31.9700 C   0  0  0  0  0  0  0  0  0  0  0  0
   -9.4080   21.5530  -31.6430 C   0  0  0  0  0  0  0  0  0  0  0  0
  -10.3970   20.8590  -32.2790 F   0  0  0  0  0  0  0  0  0  0  0  0
   -9.4070   22.8710  -32.0380 F   0  0  0  0  0  0  0  0  0  0  0  0
   -9.6370   21.5380  -30.2910 F   0  0  0  0  0  0  0  0  0  0  0  0
   -6.9410   21.4810  -32.3130 C   0  0  0  0  0  0  0  0  0  0  0  0
   -4.0360   19.6090  -33.5260 C   0  0  0  0  0  0  0  0  0  0  0  0
   -2.6910   19.7030  -33.9220 C   0  0  0  0  0  0  0  0  0  0  0  0
   -2.1990   18.6040  -34.5230 F   0  0  0  0  0  0  0  0  0  0  0  0
    0.3740   20.0820  -33.4980 C   0  0  0  0  0  0  0  0  0  0  0  0
    1.9630   20.5640  -34.2270 S   0  0  0  0  0  0  0  0  0  0  0  0
    0.1620   25.1038  -35.2418 H   0  0  0  0  0  0  0  0  0  0  0  0
    0.9320   25.6974  -36.7522 H   0  0  0  0  0  0  0  0  0  0  0  0
    0.0377   24.1395  -36.7522 H   0  0  0  0  0  0  0  0  0  0  0  0
    2.7591   24.4831  -36.4217 H   0  0  0  0  0  0  0  0  0  0  0  0
    2.1076   24.2426  -34.7285 H   0  0  0  0  0  0  0  0  0  0  0  0
   -0.7140   22.5810  -35.4220 H   0  0  0  0  0  0  0  0  0  0  0  0
   -2.1003   22.8131  -32.8560 H   0  0  0  0  0  0  0  0  0  0  0  0
   -4.4422   22.6479  -32.1685 H   0  0  0  0  0  0  0  0  0  0  0  0
   -6.1752   18.3062  -32.4078 H   0  0  0  0  0  0  0  0  0  0  0  0
   -6.7556   22.5616  -32.4018 H   0  0  0  0  0  0  0  0  0  0  0  0
   -4.5869   18.6777  -33.7239 H   0  0  0  0  0  0  0  0  0  0  0  0
    0.1723   19.2804  -32.7722 H   0  0  0  0  0  0  0  0  0  0  0  0
  1  2  1  0
  2  3  1  0
  3  4  2  0
  4  5  1  0
  5  6  1  0
  6  7  1  0
  7  8  2  0
  8  9  1  0
  9 10  2  0
 10 11  1  0
 11 12  1  0
 12 13  2  0
 13 14  1  0
 13 15  1  0
 15 16  1  0
 16 17  1  0
 16 18  1  0
 16 19  1  0
 15 20  2  0
 10 21  1  0
 21 22  2  0
 22 23  1  0
  6 24  2  0
 24 25  1  0
 25  4  1  0
 22  7  1  0
 20 11  1  0
  1 26  1  0
  1 27  1  0
  1 28  1  0
  2 29  1  0
  2 30  1  0
  5 31  1  0
  8 32  1  0
  9 33  1  0
 12 34  1  0
 20 35  1  0
 21 36  1  0
 24 37  1  0
M  END
>  <smiles>  (28) 
CCN=c1[nH]c(-c2ccc(-n3cc(Cl)c(C(F)(F)F)c3)cc2F)cs1

>  <score_type>  (28) 
oracle

>  <origin>  (28) 
adg

>  <m_score__min__energy>  (28) 
-7

>  <m_primary>  (28) 
energy

$$$$
28:0
     RDKit          3D

 61 65  0  0  0  0  0  0  0  0999 V2000
   -4.9130   11.9230  -34.2550 C   0  0  0  0  0  0  0  0  0  0  0  0
   -5.1840   13.0440  -35.0570 O   0  0  0  0  0  0  0  0  0  0  0  0
   -5.3870   14.3180  -34.5830 C   0  0  0  0  0  0  0  0  0  0  0  0
   -4.3120   15.1760  -34.4900 C   0  0  0  0  0  0  0  0  0  0  0  0
   -4.5130   16.4550  -34.0150 C   0  0  0  0  0  0  0  0  0  0  0  0
   -5.7950   16.8620  -33.6370 C   0  0  0  0  0  0  0  0  0  0  0  0
   -5.9640   18.1970  -33.1480 N   0  0  0  0  0  0  0  0  0  0  0  0
   -7.1050   18.8650  -33.1310 N   0  0  0  0  0  0  0  0  0  0  0  0
   -6.9180   20.0950  -32.6070 C   0  0  0  0  0  0  0  0  0  0  0  0
   -5.5650   20.1500  -32.2940 C   0  0  0  0  0  0  0  0  0  0  0  0
   -4.9670   18.9630  -32.6320 C   0  0  0  0  0  0  0  0  0  0  0  0
   -3.7700   18.6810  -32.4850 O   0  0  0  0  0  0  0  0  0  0  0  0
   -4.8730   21.1400  -31.7550 C   0  0  0  0  0  0  0  0  0  0  0  0
   -5.3520   22.4600  -31.3400 C   0  0  0  0  0  0  0  0  0  0  0  0
   -4.3280   23.2230  -30.8210 C   0  0  0  0  0  0  0  0  0  0  0  0
   -4.5440   24.5290  -30.3550 C   0  0  0  0  0  0  0  0  0  0  0  0
   -3.4690   25.1930  -29.8630 O   0  0  0  0  0  0  0  0  0  0  0  0
   -2.5090   24.8830  -28.9430 C   0  0  0  0  0  0  0  0  0  0  0  0
   -2.8660   24.1410  -27.7110 C   0  0  0  0  0  0  0  0  0  0  0  0
   -2.3220   22.8150  -27.5800 N   0  0  0  0  0  0  0  0  0  0  0  0
   -1.2190   22.6400  -28.5210 C   0  0  0  0  0  0  0  0  0  0  0  0
   -1.5990   21.6670  -29.6200 C   0  0  0  0  0  0  0  0  0  0  0  0
   -1.9750   20.4290  -29.1660 O   0  0  0  0  0  0  0  0  0  0  0  0
   -2.7660   20.4550  -28.0450 C   0  0  0  0  0  0  0  0  0  0  0  0
   -3.3550   21.8420  -27.8250 C   0  0  0  0  0  0  0  0  0  0  0  0
   -5.8300   24.9900  -30.4520 C   0  0  0  0  0  0  0  0  0  0  0  0
   -6.8620   24.2370  -30.9680 C   0  0  0  0  0  0  0  0  0  0  0  0
   -6.6380   22.9570  -31.4220 C   0  0  0  0  0  0  0  0  0  0  0  0
   -7.7650   22.3150  -31.9160 O   0  0  0  0  0  0  0  0  0  0  0  0
   -7.8740   21.0170  -32.4500 C   0  0  0  0  0  0  0  0  0  0  0  0
   -6.8430   15.9720  -33.7460 C   0  0  0  0  0  0  0  0  0  0  0  0
   -6.6640   14.6910  -34.2170 C   0  0  0  0  0  0  0  0  0  0  0  0
   -7.6900   13.7680  -34.3420 O   0  0  0  0  0  0  0  0  0  0  0  0
   -7.9940   13.2910  -35.6390 C   0  0  0  0  0  0  0  0  0  0  0  0
   -4.9814   12.2059  -33.1942 H   0  0  0  0  0  0  0  0  0  0  0  0
   -5.6457   11.1316  -34.4714 H   0  0  0  0  0  0  0  0  0  0  0  0
   -3.8997   11.5537  -34.4714 H   0  0  0  0  0  0  0  0  0  0  0  0
   -3.3071   14.8448  -34.7907 H   0  0  0  0  0  0  0  0  0  0  0  0
   -3.6665   17.1527  -33.9340 H   0  0  0  0  0  0  0  0  0  0  0  0
   -8.0170   18.4990  -33.4720 H   0  0  0  0  0  0  0  0  0  0  0  0
   -3.8014   20.9472  -31.5986 H   0  0  0  0  0  0  0  0  0  0  0  0
   -3.3151   22.7971  -30.7708 H   0  0  0  0  0  0  0  0  0  0  0  0
   -1.7521   24.2806  -29.4667 H   0  0  0  0  0  0  0  0  0  0  0  0
   -2.2021   25.8678  -28.5611 H   0  0  0  0  0  0  0  0  0  0  0  0
   -2.5165   24.7321  -26.8517 H   0  0  0  0  0  0  0  0  0  0  0  0
   -3.9565   24.0051  -27.7585 H   0  0  0  0  0  0  0  0  0  0  0  0
   -0.9705   23.6127  -28.9704 H   0  0  0  0  0  0  0  0  0  0  0  0
   -0.3518   22.2371  -27.9773 H   0  0  0  0  0  0  0  0  0  0  0  0
   -2.4381   22.0966  -30.1869 H   0  0  0  0  0  0  0  0  0  0  0  0
   -0.7007   21.5192  -30.2375 H   0  0  0  0  0  0  0  0  0  0  0  0
   -3.5854   19.7312  -28.1660 H   0  0  0  0  0  0  0  0  0  0  0  0
   -2.1475   20.1945  -27.1734 H   0  0  0  0  0  0  0  0  0  0  0  0
   -3.9207   22.1375  -28.7209 H   0  0  0  0  0  0  0  0  0  0  0  0
   -4.0133   21.8046  -26.9446 H   0  0  0  0  0  0  0  0  0  0  0  0
   -6.0492   26.0093  -30.1015 H   0  0  0  0  0  0  0  0  0  0  0  0
   -7.8750   24.6629  -31.0176 H   0  0  0  0  0  0  0  0  0  0  0  0
   -8.8800   20.7216  -32.7826 H   0  0  0  0  0  0  0  0  0  0  0  0
   -7.8513   16.2953  -33.4479 H   0  0  0  0  0  0  0  0  0  0  0  0
   -8.5837   12.3657  -35.5605 H   0  0  0  0  0  0  0  0  0  0  0  0
   -8.5747   14.0509  -36.1824 H   0  0  0  0  0  0  0  0  0  0  0  0
   -7.0599   13.0855  -36.1824 H   0  0  0  0  0  0  0  0  0  0  0  0
  1  2  1  0
  2  3  1  0
  3  4  2  0
  4  5  1  0
  5  6  2  0
  6  7  1  0
  7  8  1  0
  8  9  1  0
  9 10  1  0
 10 11  1  0
 11 12  2  0
 10 13  2  0
 13 14  1  0
 14 15  2  0
 15 16  1  0
 16 17  1  0
 17 18  1  0
 18 19  1  0
 19 20  1  0
 20 21  1  0
 21 22  1  0
 22 23  1  0
 23 24  1  0
 24 25  1  0
 16 26  2  0
 26 27  1  0
 27 28  2  0
 28 29  1  0
 29 30  1  0
  6 31  1  0
 31 32  2  0
 32 33  1  0
 33 34  1  0
 32  3  1  0
 11  7  1  0
 28 14  1  0
 30  9  2  0
 25 20  1  0
  1 35  1  0
  1 36  1  0
  1 37  1  0
  4 38  1  0
  5 39  1  0
  8 40  1  0
 13 41  1  0
 15 42  1  0
 18 43  1  0
 18 44  1  0
 19 45  1  0
 19 46  1  0
 21 47  1  0
 21 48  1  0
 22 49  1  0
 22 50  1  0
 24 51  1  0
 24 52  1  0
 25 53  1  0
 25 54  1  0
 26 55  1  0
 27 56  1  0
 30 57  1  0
 31 58  1  0
 34 59  1  0
 34 60  1  0
 34 61  1  0
M  END
>  <smiles>  (29) 
COc1ccc(-n2[nH]c3c(c2=O)=Cc2cc(OCCN4CCOCC4)ccc2OC=3)cc1OC

>  <score_type>  (29) 
oracle

>  <origin>  (29) 
adg

>  <m_score__min__energy>  (29) 
-9.6500000000000004

>  <m_primary>  (29) 
energy

$$$$
29:0
     RDKit          3D

 35 38  0  0  0  0  0  0  0  0999 V2000
   -6.0950   17.0070  -31.2680 C   0  0  0  0  0  0  0  0  0  0  0  0
   -5.5000   17.1510  -32.6250 C   0  0  0  0  0  0  0  0  0  0  0  0
   -4.7840   16.1030  -33.2020 C   0  0  0  0  0  0  0  0  0  0  0  0
   -4.2310   16.2470  -34.4690 C   0  0  0  0  0  0  0  0  0  0  0  0
   -4.3850   17.4300  -35.1660 C   0  0  0  0  0  0  0  0  0  0  0  0
   -5.1010   18.4860  -34.5990 C   0  0  0  0  0  0  0  0  0  0  0  0
   -5.6450   18.3230  -33.3340 C   0  0  0  0  0  0  0  0  0  0  0  0
   -6.3820   19.4510  -32.7790 C   0  0  0  0  0  0  0  0  0  0  0  0
   -5.7190   20.5300  -32.3430 N   0  0  0  0  0  0  0  0  0  0  0  0
   -6.3410   21.6240  -31.8110 C   0  0  0  0  0  0  0  0  0  0  0  0
   -5.5430   22.7550  -31.3580 C   0  0  0  0  0  0  0  0  0  0  0  0
   -6.0320   24.0410  -31.2610 C   0  0  0  0  0  0  0  0  0  0  0  0
   -5.2620   25.0990  -30.8240 C   0  0  0  0  0  0  0  0  0  0  0  0
   -3.9760   24.8850  -30.4760 N   0  0  0  0  0  0  0  0  0  0  0  0
   -3.4360   23.6350  -30.5510 C   0  0  0  0  0  0  0  0  0  0  0  0
   -4.2040   22.5910  -30.9830 C   0  0  0  0  0  0  0  0  0  0  0  0
   -7.7160   21.5810  -31.7380 C   0  0  0  0  0  0  0  0  0  0  0  0
   -8.6110   22.4470  -31.2870 N   0  0  0  0  0  0  0  0  0  0  0  0
   -9.8630   21.9520  -31.4240 C   0  0  0  0  0  0  0  0  0  0  0  0
   -9.7180   20.7370  -31.9770 N   0  0  0  0  0  0  0  0  0  0  0  0
   -8.4140   20.4770  -32.1840 C   0  0  0  0  0  0  0  0  0  0  0  0
   -7.7250   19.4580  -32.6860 N   0  0  0  0  0  0  0  0  0  0  0  0
   -5.3227   17.1939  -30.5073 H   0  0  0  0  0  0  0  0  0  0  0  0
   -6.9122   17.7333  -31.1470 H   0  0  0  0  0  0  0  0  0  0  0  0
   -6.4897   15.9874  -31.1470 H   0  0  0  0  0  0  0  0  0  0  0  0
   -4.6563   15.1587  -32.6525 H   0  0  0  0  0  0  0  0  0  0  0  0
   -3.6684   15.4156  -34.9187 H   0  0  0  0  0  0  0  0  0  0  0  0
   -3.9435   17.5398  -36.1675 H   0  0  0  0  0  0  0  0  0  0  0  0
   -5.2313   19.4312  -35.1464 H   0  0  0  0  0  0  0  0  0  0  0  0
   -7.0781   24.2307  -31.5434 H   0  0  0  0  0  0  0  0  0  0  0  0
   -5.6930   26.1090  -30.7598 H   0  0  0  0  0  0  0  0  0  0  0  0
   -2.3870   23.4681  -30.2650 H   0  0  0  0  0  0  0  0  0  0  0  0
   -3.7555   21.5881  -31.0381 H   0  0  0  0  0  0  0  0  0  0  0  0
   -8.4230   23.3720  -30.8850 H   0  0  0  0  0  0  0  0  0  0  0  0
  -10.8053   22.4437  -31.1407 H   0  0  0  0  0  0  0  0  0  0  0  0
  1  2  1  0
  2  3  2  0
  3  4  1  0
  4  5  2  0
  5  6  1  0
  6  7  2  0
  7  8  1  0
  8  9  2  0
  9 10  1  0
 10 11  1  0
 11 12  2  0
 12 13  1  0
 13 14  2  0
 14 15  1  0
 15 16  2  0
 10 17  2  0
 17 18  1  0
 18 19  1  0
 19 20  2  0
 20 21  1  0
 21 22  2  0
  7  2  1  0
 22  8  1  0
 16 11  1  0
 21 17  1  0
  1 23  1  0
  1 24  1  0
  1 25  1  0
  3 26  1  0
  4 27  1  0
  5 28  1  0
  6 29  1  0
 12 30  1  0
 13 31  1  0
 15 32  1  0
 16 33  1  0
 18 34  1  0
 19 35  1  0
M  END
>  <smiles>  (30) 
Cc1ccccc1-c1nc(-c2ccncc2)c2[nH]cnc2n1

>  <score_type>  (30) 
oracle

>  <origin>  (30) 
adg

>  <m_score__min__energy>  (30) 
-8.0600000000000005

>  <m_primary>  (30) 
energy

$$$$
30:0
     RDKit          3D

 48 48  0  0  0  0  0  0  0  0999 V2000
   -2.7630   20.6930  -28.7730 C   0  0  0  0  0  0  0  0  0  0  0  0
   -3.4910   20.9790  -30.0360 C   0  0  0  0  0  0  0  0  0  0  0  0
   -3.1800   22.1400  -30.7510 N   0  0  0  0  0  0  0  0  0  0  0  0
   -3.6890   22.2970  -32.0650 C   0  0  0  0  0  0  0  0  0  0  0  0
   -3.0530   21.3040  -33.0160 C   0  0  0  0  0  0  0  0  0  0  0  0
   -2.0100   22.8730  -30.4370 C   0  0  0  0  0  0  0  0  0  0  0  0
   -2.2210   23.9770  -29.4430 C   0  0  0  0  0  0  0  0  0  0  0  0
   -3.1440   24.9220  -30.0210 O   0  0  0  0  0  0  0  0  0  0  0  0
   -4.4900   24.6900  -29.8070 C   0  0  0  0  0  0  0  0  0  0  0  0
   -4.7810   23.7870  -28.9720 O   0  0  0  0  0  0  0  0  0  0  0  0
   -5.6050   25.3970  -30.4570 C   0  0  0  0  0  0  0  0  0  0  0  0
   -6.8850   24.6210  -30.4150 C   0  0  0  0  0  0  0  0  0  0  0  0
   -6.7000   23.2430  -30.8340 N   0  0  0  0  0  0  0  0  0  0  0  0
   -7.6400   22.5200  -31.6110 C   0  0  0  0  0  0  0  0  0  0  0  0
   -8.7200   23.0870  -31.9640 O   0  0  0  0  0  0  0  0  0  0  0  0
   -7.4320   21.1330  -32.0360 C   0  0  0  0  0  0  0  0  0  0  0  0
   -6.4490   20.7660  -32.9380 C   0  0  0  0  0  0  0  0  0  0  0  0
   -6.2540   19.4580  -33.3340 C   0  0  0  0  0  0  0  0  0  0  0  0
   -7.0460   18.4500  -32.8380 C   0  0  0  0  0  0  0  0  0  0  0  0
   -6.7960   17.0610  -33.3000 C   0  0  0  0  0  0  0  0  0  0  0  0
   -8.0350   18.7850  -31.9360 C   0  0  0  0  0  0  0  0  0  0  0  0
   -8.2210   20.1130  -31.5440 C   0  0  0  0  0  0  0  0  0  0  0  0
   -3.4040   20.9448  -27.9152 H   0  0  0  0  0  0  0  0  0  0  0  0
   -2.5014   19.6253  -28.7343 H   0  0  0  0  0  0  0  0  0  0  0  0
   -1.8446   21.2972  -28.7343 H   0  0  0  0  0  0  0  0  0  0  0  0
   -3.3131   20.1282  -30.7101 H   0  0  0  0  0  0  0  0  0  0  0  0
   -4.5293   21.1403  -29.7107 H   0  0  0  0  0  0  0  0  0  0  0  0
   -4.7770   22.1355  -32.0510 H   0  0  0  0  0  0  0  0  0  0  0  0
   -3.4548   23.3141  -32.4123 H   0  0  0  0  0  0  0  0  0  0  0  0
   -2.5479   20.5154  -32.4389 H   0  0  0  0  0  0  0  0  0  0  0  0
   -3.8309   20.8534  -33.6498 H   0  0  0  0  0  0  0  0  0  0  0  0
   -2.3183   21.8222  -33.6498 H   0  0  0  0  0  0  0  0  0  0  0  0
   -1.2667   22.1751  -30.0241 H   0  0  0  0  0  0  0  0  0  0  0  0
   -1.6767   23.3494  -31.3708 H   0  0  0  0  0  0  0  0  0  0  0  0
   -2.6396   23.5670  -28.5120 H   0  0  0  0  0  0  0  0  0  0  0  0
   -1.2657   24.4688  -29.2074 H   0  0  0  0  0  0  0  0  0  0  0  0
   -5.7591   26.3578  -29.9441 H   0  0  0  0  0  0  0  0  0  0  0  0
   -5.3370   25.5384  -31.5145 H   0  0  0  0  0  0  0  0  0  0  0  0
   -7.2722   24.6302  -29.3854 H   0  0  0  0  0  0  0  0  0  0  0  0
   -7.5928   25.0954  -31.1106 H   0  0  0  0  0  0  0  0  0  0  0  0
   -5.8290   22.7330  -30.5560 H   0  0  0  0  0  0  0  0  0  0  0  0
   -5.7972   21.5473  -33.3560 H   0  0  0  0  0  0  0  0  0  0  0  0
   -5.4568   19.2200  -34.0537 H   0  0  0  0  0  0  0  0  0  0  0  0
   -6.6771   16.4005  -32.4284 H   0  0  0  0  0  0  0  0  0  0  0  0
   -7.6468   16.7177  -33.9069 H   0  0  0  0  0  0  0  0  0  0  0  0
   -5.8789   17.0359  -33.9069 H   0  0  0  0  0  0  0  0  0  0  0  0
   -8.6832   17.9989  -31.5216 H   0  0  0  0  0  0  0  0  0  0  0  0
   -9.0175   20.3521  -30.8240 H   0  0  0  0  0  0  0  0  0  0  0  0
  1  2  1  0
  2  3  1  0
  3  4  1  0
  4  5  1  0
  3  6  1  0
  6  7  1  0
  7  8  1  0
  8  9  1  0
  9 10  2  0
  9 11  1  0
 11 12  1  0
 12 13  1  0
 13 14  1  0
 14 15  2  0
 14 16  1  0
 16 17  2  0
 17 18  1  0
 18 19  2  0
 19 20  1  0
 19 21  1  0
 21 22  2  0
 22 16  1  0
  1 23  1  0
  1 24  1  0
  1 25  1  0
  2 26  1  0
  2 27  1  0
  4 28  1  0
  4 29  1  0
  5 30  1  0
  5 31  1  0
  5 32  1  0
  6 33  1  0
  6 34  1  0
  7 35  1  0
  7 36  1  0
 11 37  1  0
 11 38  1  0
 12 39  1  0
 12 40  1  0
 13 41  1  0
 17 42  1  0
 18 43  1  0
 20 44  1  0
 20 45  1  0
 20 46  1  0
 21 47  1  0
 22 48  1  0
M  END
>  <smiles>  (31) 
CCN(CC)CCOC(=O)CCNC(=O)c1ccc(C)cc1

>  <score_type>  (31) 
oracle

>  <origin>  (31) 
adg

>  <m_score__min__energy>  (31) 
-7.2699999999999996

>  <m_primary>  (31) 
energy

$$$$
31:0
     RDKit          3D

 46 48  0  0  0  0  0  0  0  0999 V2000
   -5.2150   25.4550  -30.2710 C   0  0  0  0  0  0  0  0  0  0  0  0
   -3.8140   25.2200  -30.4690 O   0  0  0  0  0  0  0  0  0  0  0  0
   -3.1610   24.4150  -29.5340 C   0  0  0  0  0  0  0  0  0  0  0  0
   -2.2570   24.9340  -28.6300 C   0  0  0  0  0  0  0  0  0  0  0  0
   -1.6190   24.1270  -27.7100 C   0  0  0  0  0  0  0  0  0  0  0  0
   -1.9200   22.7800  -27.7310 C   0  0  0  0  0  0  0  0  0  0  0  0
   -1.2700   21.9900  -26.8000 C   0  0  0  0  0  0  0  0  0  0  0  0
   -1.5390   20.6300  -26.7800 C   0  0  0  0  0  0  0  0  0  0  0  0
   -2.4410   20.1190  -27.6830 C   0  0  0  0  0  0  0  0  0  0  0  0
   -3.0860   20.9130  -28.6080 C   0  0  0  0  0  0  0  0  0  0  0  0
   -2.8290   22.2680  -28.6410 C   0  0  0  0  0  0  0  0  0  0  0  0
   -3.4770   23.0550  -29.5670 C   0  0  0  0  0  0  0  0  0  0  0  0
   -4.4530   22.5380  -30.5530 C   0  0  0  0  0  0  0  0  0  0  0  0
   -4.1330   22.9650  -31.9000 N   0  0  0  0  0  0  0  0  0  0  0  0
   -3.7040   21.9080  -32.7550 C   0  0  0  0  0  0  0  0  0  0  0  0
   -4.4320   20.6350  -32.5150 C   0  0  0  0  0  0  0  0  0  0  0  0
   -5.6130   20.3660  -33.3780 C   0  0  0  0  0  0  0  0  0  0  0  0
   -6.9190   20.6930  -32.7840 C   0  0  0  0  0  0  0  0  0  0  0  0
   -7.2810   21.9220  -32.2890 C   0  0  0  0  0  0  0  0  0  0  0  0
   -8.5270   22.1830  -31.7400 C   0  0  0  0  0  0  0  0  0  0  0  0
   -9.4650   21.1730  -31.6790 C   0  0  0  0  0  0  0  0  0  0  0  0
   -9.1360   19.9240  -32.1670 C   0  0  0  0  0  0  0  0  0  0  0  0
   -7.8860   19.6910  -32.7100 C   0  0  0  0  0  0  0  0  0  0  0  0
   -5.4320   25.4914  -29.1932 H   0  0  0  0  0  0  0  0  0  0  0  0
   -5.4952   26.4127  -30.7340 H   0  0  0  0  0  0  0  0  0  0  0  0
   -5.7923   24.6411  -30.7340 H   0  0  0  0  0  0  0  0  0  0  0  0
   -2.0405   26.0124  -28.6428 H   0  0  0  0  0  0  0  0  0  0  0  0
   -0.8991   24.5408  -26.9885 H   0  0  0  0  0  0  0  0  0  0  0  0
   -0.5547   22.4315  -26.0904 H   0  0  0  0  0  0  0  0  0  0  0  0
   -1.0394   19.9714  -26.0543 H   0  0  0  0  0  0  0  0  0  0  0  0
   -2.6555   19.0402  -27.6672 H   0  0  0  0  0  0  0  0  0  0  0  0
   -3.8014   20.4683  -29.3155 H   0  0  0  0  0  0  0  0  0  0  0  0
   -4.4474   21.4386  -30.5170 H   0  0  0  0  0  0  0  0  0  0  0  0
   -5.4451   22.9365  -30.2941 H   0  0  0  0  0  0  0  0  0  0  0  0
   -3.4450   23.7370  -31.8680 H   0  0  0  0  0  0  0  0  0  0  0  0
   -3.8672   22.2136  -33.7990 H   0  0  0  0  0  0  0  0  0  0  0  0
   -2.6406   21.7239  -32.5423 H   0  0  0  0  0  0  0  0  0  0  0  0
   -3.7184   19.8107  -32.6609 H   0  0  0  0  0  0  0  0  0  0  0  0
   -4.8341   20.7208  -31.4947 H   0  0  0  0  0  0  0  0  0  0  0  0
   -5.5018   20.9575  -34.2987 H   0  0  0  0  0  0  0  0  0  0  0  0
   -5.6219   19.2792  -33.5477 H   0  0  0  0  0  0  0  0  0  0  0  0
   -6.5461   22.7394  -32.3302 H   0  0  0  0  0  0  0  0  0  0  0  0
   -8.7656   23.1860  -31.3566 H   0  0  0  0  0  0  0  0  0  0  0  0
  -10.4597   21.3600  -31.2482 H   0  0  0  0  0  0  0  0  0  0  0  0
   -9.8733   19.1089  -32.1235 H   0  0  0  0  0  0  0  0  0  0  0  0
   -7.6479   18.6881  -33.0940 H   0  0  0  0  0  0  0  0  0  0  0  0
  1  2  1  0
  2  3  1  0
  3  4  2  0
  4  5  1  0
  5  6  2  0
  6  7  1  0
  7  8  2  0
  8  9  1  0
  9 10  2  0
 10 11  1  0
 11 12  2  0
 12 13  1  0
 13 14  1  0
 14 15  1  0
 15 16  1  0
 16 17  1  0
 17 18  1  0
 18 19  2  0
 19 20  1  0
 20 21  2  0
 21 22  1  0
 22 23  2  0
 12  3  1  0
 23 18  1  0
 11  6  1  0
  1 24  1  0
  1 25  1  0
  1 26  1  0
  4 27  1  0
  5 28  1  0
  7 29  1  0
  8 30  1  0
  9 31  1  0
 10 32  1  0
 13 33  1  0
 13 34  1  0
 14 35  1  0
 15 36  1  0
 15 37  1  0
 16 38  1  0
 16 39  1  0
 17 40  1  0
 17 41  1  0
 19 42  1  0
 20 43  1  0
 21 44  1  0
 22 45  1  0
 23 46  1  0
M  END
>  <smiles>  (32) 
COc1ccc2ccccc2c1CNCCCc1ccccc1

>  <score_type>  (32) 
oracle

>  <origin>  (32) 
adg

>  <m_score__min__energy>  (32) 
-8.6300000000000008

>  <m_primary>  (32) 
energy

$$$$
32:0
     RDKit          3D

 49 51  0  0  0  0  0  0  0  0999 V2000
   -3.2270   18.4710  -34.1950 C   0  0  0  0  0  0  0  0  0  0  0  0
   -1.9470   18.5590  -33.4100 C   0  0  0  0  0  0  0  0  0  0  0  0
   -1.2510   19.7750  -33.5260 N   0  0  0  0  0  0  0  0  0  0  0  0
   -0.8370   20.2660  -34.7610 C   0  0  0  0  0  0  0  0  0  0  0  0
   -0.0850   21.5640  -34.6510 C   0  0  0  0  0  0  0  0  0  0  0  0
   -0.5660   20.1120  -32.3480 C   0  0  0  0  0  0  0  0  0  0  0  0
   -1.2590   20.9070  -31.3100 C   0  0  0  0  0  0  0  0  0  0  0  0
   -2.6690   21.1010  -31.7050 N   0  0  0  0  0  0  0  0  0  0  0  0
   -3.4270   22.1700  -31.1710 C   0  0  0  0  0  0  0  0  0  0  0  0
   -2.7490   23.1980  -30.5470 C   0  0  0  0  0  0  0  0  0  0  0  0
   -3.3720   24.2790  -29.9520 C   0  0  0  0  0  0  0  0  0  0  0  0
   -2.6930   25.2970  -29.3350 O   0  0  0  0  0  0  0  0  0  0  0  0
   -1.9240   25.1540  -28.1790 C   0  0  0  0  0  0  0  0  0  0  0  0
   -4.7420   24.3090  -29.9960 C   0  0  0  0  0  0  0  0  0  0  0  0
   -5.4030   23.2970  -30.6090 C   0  0  0  0  0  0  0  0  0  0  0  0
   -7.1230   23.3720  -30.6500 S   0  0  0  0  0  0  0  0  0  0  0  0
   -7.8210   22.0420  -31.4520 C   0  0  0  0  0  0  0  0  0  0  0  0
   -9.1820   21.9450  -31.5740 C   0  0  0  0  0  0  0  0  0  0  0  0
   -9.7190   20.8600  -32.2250 C   0  0  0  0  0  0  0  0  0  0  0  0
   -8.8760   19.9190  -32.7300 C   0  0  0  0  0  0  0  0  0  0  0  0
   -7.5110   20.0290  -32.6010 C   0  0  0  0  0  0  0  0  0  0  0  0
   -6.9210   21.1300  -31.9360 C   0  0  0  0  0  0  0  0  0  0  0  0
   -5.5550   21.2020  -31.8290 C   0  0  0  0  0  0  0  0  0  0  0  0
   -4.9540   20.2040  -32.3780 O   0  0  0  0  0  0  0  0  0  0  0  0
   -4.8360   22.1960  -31.2190 C   0  0  0  0  0  0  0  0  0  0  0  0
   -4.0790   18.4124  -33.5017 H   0  0  0  0  0  0  0  0  0  0  0  0
   -3.3306   19.3641  -34.8287 H   0  0  0  0  0  0  0  0  0  0  0  0
   -3.2074   17.5721  -34.8287 H   0  0  0  0  0  0  0  0  0  0  0  0
   -2.1891   18.4065  -32.3479 H   0  0  0  0  0  0  0  0  0  0  0  0
   -1.2821   17.7882  -33.8269 H   0  0  0  0  0  0  0  0  0  0  0  0
   -0.1820   19.5196  -35.2341 H   0  0  0  0  0  0  0  0  0  0  0  0
   -1.7394   20.4564  -35.3606 H   0  0  0  0  0  0  0  0  0  0  0  0
    0.0603   21.8148  -33.5899 H   0  0  0  0  0  0  0  0  0  0  0  0
    0.8945   21.4630  -35.1413 H   0  0  0  0  0  0  0  0  0  0  0  0
   -0.6598   22.3635  -35.1413 H   0  0  0  0  0  0  0  0  0  0  0  0
   -0.2560   19.1681  -31.8757 H   0  0  0  0  0  0  0  0  0  0  0  0
    0.2366   20.7794  -32.6950 H   0  0  0  0  0  0  0  0  0  0  0  0
   -1.2166   20.3734  -30.3490 H   0  0  0  0  0  0  0  0  0  0  0  0
   -0.7674   21.8854  -31.2054 H   0  0  0  0  0  0  0  0  0  0  0  0
   -2.9930   20.3850  -32.3800 H   0  0  0  0  0  0  0  0  0  0  0  0
   -1.6502   23.1544  -30.5219 H   0  0  0  0  0  0  0  0  0  0  0  0
   -2.5665   25.2735  -27.2941 H   0  0  0  0  0  0  0  0  0  0  0  0
   -1.4640   24.1549  -28.1659 H   0  0  0  0  0  0  0  0  0  0  0  0
   -1.1355   25.9209  -28.1659 H   0  0  0  0  0  0  0  0  0  0  0  0
   -5.2967   25.1425  -29.5403 H   0  0  0  0  0  0  0  0  0  0  0  0
   -9.8362   22.7247  -31.1567 H   0  0  0  0  0  0  0  0  0  0  0  0
  -10.8084   20.7546  -32.3355 H   0  0  0  0  0  0  0  0  0  0  0  0
   -9.2966   19.0484  -33.2546 H   0  0  0  0  0  0  0  0  0  0  0  0
   -6.8649   19.2453  -33.0233 H   0  0  0  0  0  0  0  0  0  0  0  0
  1  2  1  0
  2  3  1  0
  3  4  1  0
  4  5  1  0
  3  6  1  0
  6  7  1  0
  7  8  1  0
  8  9  1  0
  9 10  2  0
 10 11  1  0
 11 12  1  0
 12 13  1  0
 11 14  2  0
 14 15  1  0
 15 16  1  0
 16 17  1  0
 17 18  2  0
 18 19  1  0
 19 20  2  0
 20 21  1  0
 21 22  2  0
 22 23  1  0
 23 24  2  0
 23 25  1  0
 25  9  1  0
 25 15  2  0
 22 17  1  0
  1 26  1  0
  1 27  1  0
  1 28  1  0
  2 29  1  0
  2 30  1  0
  4 31  1  0
  4 32  1  0
  5 33  1  0
  5 34  1  0
  5 35  1  0
  6 36  1  0
  6 37  1  0
  7 38  1  0
  7 39  1  0
  8 40  1  0
 10 41  1  0
 13 42  1  0
 13 43  1  0
 13 44  1  0
 14 45  1  0
 18 46  1  0
 19 47  1  0
 20 48  1  0
 21 49  1  0
M  END
>  <smiles>  (33) 
CCN(CC)CCNc1cc(OC)cc2sc3ccccc3c(=O)c12

>  <score_type>  (33) 
oracle

>  <origin>  (33) 
adg

>  <m_score__min__energy>  (33) 
-7.8300000000000001

>  <m_primary>  (33) 
energy

$$$$
33:0
     RDKit          3D

 42 45  0  0  0  0  0  0  0  0999 V2000
   -9.1130   18.3810  -31.6050 C   0  0  0  0  0  0  0  0  0  0  0  0
   -8.7040   19.6760  -31.2050 O   0  0  0  0  0  0  0  0  0  0  0  0
   -7.5330   20.1700  -31.7730 C   0  0  0  0  0  0  0  0  0  0  0  0
   -7.0260   19.4480  -32.8430 C   0  0  0  0  0  0  0  0  0  0  0  0
   -5.8660   19.9000  -33.4360 C   0  0  0  0  0  0  0  0  0  0  0  0
   -5.2680   19.2600  -34.5130 O   0  0  0  0  0  0  0  0  0  0  0  0
   -5.7260   17.9840  -34.9300 C   0  0  0  0  0  0  0  0  0  0  0  0
   -5.2450   21.0380  -32.9660 C   0  0  0  0  0  0  0  0  0  0  0  0
   -5.7180   21.7830  -31.9060 C   0  0  0  0  0  0  0  0  0  0  0  0
   -5.0540   22.9660  -31.3850 C   0  0  0  0  0  0  0  0  0  0  0  0
   -5.4410   24.2520  -31.6420 N   0  0  0  0  0  0  0  0  0  0  0  0
   -4.6400   25.0960  -31.0170 N   0  0  0  0  0  0  0  0  0  0  0  0
   -3.7180   24.3920  -30.3410 C   0  0  0  0  0  0  0  0  0  0  0  0
   -3.9930   23.0980  -30.5820 N   0  0  0  0  0  0  0  0  0  0  0  0
   -3.3150   21.9760  -30.1070 N   0  0  0  0  0  0  0  0  0  0  0  0
   -3.2800   20.7810  -30.9240 C   0  0  0  0  0  0  0  0  0  0  0  0
   -2.6130   21.8640  -28.8500 C   0  0  0  0  0  0  0  0  0  0  0  0
   -2.4080   20.7100  -28.3980 O   0  0  0  0  0  0  0  0  0  0  0  0
   -2.1130   23.0070  -28.0510 C   0  0  0  0  0  0  0  0  0  0  0  0
   -1.5660   22.5890  -26.8780 C   0  0  0  0  0  0  0  0  0  0  0  0
   -1.0420   23.5150  -25.9900 C   0  0  0  0  0  0  0  0  0  0  0  0
   -1.0830   24.8760  -26.3140 C   0  0  0  0  0  0  0  0  0  0  0  0
   -1.6380   25.2920  -27.5050 C   0  0  0  0  0  0  0  0  0  0  0  0
   -2.1580   24.3630  -28.3830 C   0  0  0  0  0  0  0  0  0  0  0  0
   -2.6880   24.9360  -29.5490 O   0  0  0  0  0  0  0  0  0  0  0  0
   -6.9020   21.3070  -31.3110 C   0  0  0  0  0  0  0  0  0  0  0  0
   -9.3072   17.7662  -30.7138 H   0  0  0  0  0  0  0  0  0  0  0  0
  -10.0313   18.4558  -32.2060 H   0  0  0  0  0  0  0  0  0  0  0  0
   -8.3184   17.9148  -32.2060 H   0  0  0  0  0  0  0  0  0  0  0  0
   -7.5335   18.5427  -33.2074 H   0  0  0  0  0  0  0  0  0  0  0  0
   -5.9474   17.3672  -34.0465 H   0  0  0  0  0  0  0  0  0  0  0  0
   -6.6382   18.1010  -35.5334 H   0  0  0  0  0  0  0  0  0  0  0  0
   -4.9476   17.4942  -35.5334 H   0  0  0  0  0  0  0  0  0  0  0  0
   -4.3219   21.3698  -33.4637 H   0  0  0  0  0  0  0  0  0  0  0  0
   -3.2540   19.8935  -30.2746 H   0  0  0  0  0  0  0  0  0  0  0  0
   -4.1775   20.7446  -31.5590 H   0  0  0  0  0  0  0  0  0  0  0  0
   -2.3819   20.7971  -31.5590 H   0  0  0  0  0  0  0  0  0  0  0  0
   -1.5395   21.5167  -26.6343 H   0  0  0  0  0  0  0  0  0  0  0  0
   -0.5981   23.1835  -25.0397 H   0  0  0  0  0  0  0  0  0  0  0  0
   -0.6701   25.6176  -25.6143 H   0  0  0  0  0  0  0  0  0  0  0  0
   -1.6664   26.3628  -27.7553 H   0  0  0  0  0  0  0  0  0  0  0  0
   -7.3334   21.8533  -30.4593 H   0  0  0  0  0  0  0  0  0  0  0  0
  1  2  1  0
  2  3  1  0
  3  4  2  0
  4  5  1  0
  5  6  1  0
  6  7  1  0
  5  8  2  0
  8  9  1  0
  9 10  1  0
 10 11  2  0
 11 12  1  0
 12 13  2  0
 13 14  1  0
 14 15  1  0
 15 16  1  0
 15 17  1  0
 17 18  2  0
 17 19  1  0
 19 20  2  0
 20 21  1  0
 21 22  2  0
 22 23  1  0
 23 24  2  0
 24 25  1  0
  9 26  2  0
 26  3  1  0
 14 10  1  0
 24 19  1  0
 25 13  1  0
  1 27  1  0
  1 28  1  0
  1 29  1  0
  4 30  1  0
  7 31  1  0
  7 32  1  0
  7 33  1  0
  8 34  1  0
 16 35  1  0
 16 36  1  0
 16 37  1  0
 20 38  1  0
 21 39  1  0
 22 40  1  0
 23 41  1  0
 26 42  1  0
M  END
>  <smiles>  (34) 
COc1cc(OC)cc(-c2nnc3n2N(C)C(=O)c2ccccc2O3)c1

>  <score_type>  (34) 
oracle

>  <origin>  (34) 
adg

>  <m_score__min__energy>  (34) 
-8.3599999999999994

>  <m_primary>  (34) 
energy

$$$$
34:0
     RDKit          3D

 54 56  0  0  1  0  0  0  0  0999 V2000
   -9.0830   19.3790  -31.9760 C   0  0  0  0  0  0  0  0  0  0  0  0
   -8.9960   20.8860  -31.9140 C   0  0  0  0  0  0  0  0  0  0  0  0
   -7.7460   21.4080  -32.3150 N   0  0  0  0  0  0  0  0  0  0  0  0
   -6.6410   20.5190  -32.2580 C   0  0  0  0  0  0  0  0  0  0  0  0
   -6.1830   19.9050  -33.5310 C   0  0  0  0  0  0  0  0  0  0  0  0
   -7.4810   22.7850  -32.0550 C   0  0  0  0  0  0  0  0  0  0  0  0
   -6.8420   22.8940  -30.6900 C   0  0  0  0  0  0  0  0  0  0  0  0
   -6.2460   24.2660  -30.4160 C   0  0  0  0  0  0  0  0  0  0  0  0
   -4.9740   24.5320  -30.8790 N   0  0  0  0  0  0  0  0  0  0  0  0
   -3.8620   24.1550  -30.4910 C   0  0  0  0  0  0  0  0  0  0  0  0
   -3.2550   24.8170  -29.4870 N   0  0  0  0  0  0  0  0  0  0  0  0
   -2.0840   24.4620  -28.9470 C   0  0  0  0  0  0  0  0  0  0  0  0
   -1.4280   25.1270  -27.8960 N   0  0  0  0  0  0  0  0  0  0  0  0
   -0.8310   26.4350  -27.9680 C   0  0  0  0  0  0  0  0  0  0  0  0
   -0.7700   26.9960  -26.5620 C   0  0  0  0  0  0  0  0  0  0  0  0
   -1.9380   26.6560  -25.9010 O   0  0  0  0  0  0  0  0  0  0  0  0
   -1.9840   25.3070  -25.5290 C   0  0  0  0  0  0  0  0  0  0  0  0
   -1.3470   24.4460  -26.6080 C   0  0  0  0  0  0  0  0  0  0  0  0
   -1.4620   23.3540  -29.4460 N   0  0  0  0  0  0  0  0  0  0  0  0
   -2.0530   22.6810  -30.4530 C   0  0  0  0  0  0  0  0  0  0  0  0
   -1.3790   21.5730  -30.9190 C   0  0  0  0  0  0  0  0  0  0  0  0
   -1.9730   20.8900  -31.9480 C   0  0  0  0  0  0  0  0  0  0  0  0
   -3.1550   21.2290  -32.5230 C   0  0  0  0  0  0  0  0  0  0  0  0
   -3.8390   22.3650  -32.0370 C   0  0  0  0  0  0  0  0  0  0  0  0
   -3.2590   23.0440  -31.0150 C   0  0  0  0  0  0  0  0  0  0  0  0
   -9.1066   18.9708  -30.9548 H   0  0  0  0  0  0  0  0  0  0  0  0
   -9.9995   19.0863  -32.5092 H   0  0  0  0  0  0  0  0  0  0  0  0
   -8.2062   18.9827  -32.5092 H   0  0  0  0  0  0  0  0  0  0  0  0
   -9.7722   21.3043  -32.5717 H   0  0  0  0  0  0  0  0  0  0  0  0
   -9.1349   21.1689  -30.8601 H   0  0  0  0  0  0  0  0  0  0  0  0
   -5.7913   21.0773  -31.8380 H   0  0  0  0  0  0  0  0  0  0  0  0
   -6.9961   19.6721  -31.6525 H   0  0  0  0  0  0  0  0  0  0  0  0
   -5.5387   19.0412  -33.3105 H   0  0  0  0  0  0  0  0  0  0  0  0
   -7.0555   19.5726  -34.1125 H   0  0  0  0  0  0  0  0  0  0  0  0
   -5.6157   20.6466  -34.1125 H   0  0  0  0  0  0  0  0  0  0  0  0
   -6.7971   23.1832  -32.8190 H   0  0  0  0  0  0  0  0  0  0  0  0
   -8.4161   23.3636  -32.0838 H   0  0  0  0  0  0  0  0  0  0  0  0
   -7.6077   22.6868  -29.9279 H   0  0  0  0  0  0  0  0  0  0  0  0
   -6.0177   22.1665  -30.6556 H   0  0  0  0  0  0  0  0  0  0  0  0
   -6.9190   25.0094  -30.8682 H   0  0  0  0  0  0  0  0  0  0  0  0
   -6.1495   24.3057  -29.3210 H   0  0  0  0  0  0  0  0  0  0  0  0
   -3.7060   25.6730  -29.0830 H   0  0  0  0  0  0  0  0  0  0  0  0
    0.1841   26.3603  -28.3851 H   0  0  0  0  0  0  0  0  0  0  0  0
   -1.4263   27.0931  -28.6181 H   0  0  0  0  0  0  0  0  0  0  0  0
    0.0941   26.5710  -26.0303 H   0  0  0  0  0  0  0  0  0  0  0  0
   -0.6626   28.0902  -26.5977 H   0  0  0  0  0  0  0  0  0  0  0  0
   -1.4366   25.1711  -24.5846 H   0  0  0  0  0  0  0  0  0  0  0  0
   -3.0337   25.0045  -25.3998 H   0  0  0  0  0  0  0  0  0  0  0  0
   -0.2915   24.2661  -26.3558 H   0  0  0  0  0  0  0  0  0  0  0  0
   -1.8820   23.4869  -26.6701 H   0  0  0  0  0  0  0  0  0  0  0  0
   -0.4179   21.2546  -30.4890 H   0  0  0  0  0  0  0  0  0  0  0  0
   -1.4537   20.0016  -32.3366 H   0  0  0  0  0  0  0  0  0  0  0  0
   -3.5706   20.6326  -33.3486 H   0  0  0  0  0  0  0  0  0  0  0  0
   -4.7992   22.6852  -32.4677 H   0  0  0  0  0  0  0  0  0  0  0  0
  1  2  1  0
  2  3  1  0
  3  4  1  0
  4  5  1  0
  3  6  1  0
  6  7  1  0
  7  8  1  0
  8  9  1  0
  9 10  2  0
 10 11  1  0
 11 12  1  0
 12 13  1  0
 13 14  1  0
 14 15  1  0
 15 16  1  0
 16 17  1  0
 17 18  1  0
 12 19  2  0
 19 20  1  0
 20 21  2  0
 21 22  1  0
 22 23  2  0
 23 24  1  0
 24 25  2  0
 25 10  1  0
 18 13  1  0
 25 20  1  0
  1 26  1  0
  1 27  1  0
  1 28  1  0
  2 29  1  0
  2 30  1  0
  4 31  1  0
  4 32  1  0
  5 33  1  0
  5 34  1  0
  5 35  1  0
  6 36  1  0
  6 37  1  0
  7 38  1  0
  7 39  1  0
  8 40  1  0
  8 41  1  0
 11 42  1  0
 14 43  1  0
 14 44  1  0
 15 45  1  0
 15 46  1  0
 17 47  1  0
 17 48  1  0
 18 49  1  0
 18 50  1  0
 21 51  1  0
 22 52  1  0
 23 53  1  0
 24 54  1  0
M  END
>  <smiles>  (35) 
CCN(CC)CCCN=c1[nH]c(N2CCOCC2)nc2ccccc12

>  <score_type>  (35) 
oracle

>  <origin>  (35) 
adg

>  <m_score__min__energy>  (35) 
-7.71

>  <m_primary>  (35) 
energy

$$$$
35:0
     RDKit          3D

 55 59  0  0  0  0  0  0  0  0999 V2000
   -0.1820   23.3780  -29.3390 C   0  0  0  0  0  0  0  0  0  0  0  0
   -0.7970   24.6670  -29.2360 O   0  0  0  0  0  0  0  0  0  0  0  0
   -1.5830   24.9260  -28.1160 C   0  0  0  0  0  0  0  0  0  0  0  0
   -1.1730   25.7610  -27.1180 C   0  0  0  0  0  0  0  0  0  0  0  0
   -1.9620   25.9990  -26.0280 C   0  0  0  0  0  0  0  0  0  0  0  0
   -3.1900   25.3680  -25.9660 C   0  0  0  0  0  0  0  0  0  0  0  0
   -3.6210   24.5160  -26.9750 C   0  0  0  0  0  0  0  0  0  0  0  0
   -2.8150   24.2800  -28.0750 C   0  0  0  0  0  0  0  0  0  0  0  0
   -3.2780   23.4130  -29.0780 N   0  0  0  0  0  0  0  0  0  0  0  0
   -3.6330   23.8680  -30.4160 C   0  0  0  0  0  0  0  0  0  0  0  0
   -4.4760   22.7700  -31.0710 C   0  0  0  0  0  0  0  0  0  0  0  0
   -3.7780   21.5140  -31.0710 N   0  0  0  0  0  0  0  0  0  0  0  0
   -3.8760   20.5670  -32.1290 C   0  0  0  0  0  0  0  0  0  0  0  0
   -3.2440   19.4590  -32.1030 O   0  0  0  0  0  0  0  0  0  0  0  0
   -4.7180   20.8000  -33.3320 C   0  0  0  0  0  0  0  0  0  0  0  0
   -6.0520   20.3330  -33.0230 N   0  0  0  0  0  0  0  0  0  0  0  0
   -6.5390   19.0930  -33.0820 C   0  0  0  0  0  0  0  0  0  0  0  0
   -5.7680   17.8940  -33.4970 C   0  0  0  0  0  0  0  0  0  0  0  0
   -5.6170   16.7300  -32.8050 C   0  0  0  0  0  0  0  0  0  0  0  0
   -4.8790   15.7600  -33.3470 C   0  0  0  0  0  0  0  0  0  0  0  0
   -4.3190   16.0000  -34.5700 C   0  0  0  0  0  0  0  0  0  0  0  0
   -4.8880   17.7390  -34.9760 S   0  0  0  0  0  0  0  0  0  0  0  0
   -7.8290   19.0950  -32.7110 N   0  0  0  0  0  0  0  0  0  0  0  0
   -8.2040   20.3580  -32.4000 C   0  0  0  0  0  0  0  0  0  0  0  0
   -9.4040   20.9150  -31.9650 C   0  0  0  0  0  0  0  0  0  0  0  0
   -9.4880   22.2730  -31.7230 C   0  0  0  0  0  0  0  0  0  0  0  0
   -8.3650   23.0540  -31.9200 C   0  0  0  0  0  0  0  0  0  0  0  0
   -7.1580   22.4980  -32.3570 C   0  0  0  0  0  0  0  0  0  0  0  0
   -7.0720   21.1240  -32.6030 C   0  0  0  0  0  0  0  0  0  0  0  0
   -2.9310   21.1880  -29.9470 C   0  0  0  0  0  0  0  0  0  0  0  0
   -3.4010   21.9890  -28.7360 C   0  0  0  0  0  0  0  0  0  0  0  0
    0.0076   22.9806  -28.3310 H   0  0  0  0  0  0  0  0  0  0  0  0
   -0.8512   22.6948  -29.8826 H   0  0  0  0  0  0  0  0  0  0  0  0
    0.7700   23.4683  -29.8826 H   0  0  0  0  0  0  0  0  0  0  0  0
   -0.1909   26.2508  -27.1920 H   0  0  0  0  0  0  0  0  0  0  0  0
   -1.6298   26.6725  -25.2242 H   0  0  0  0  0  0  0  0  0  0  0  0
   -3.8414   25.5446  -25.0973 H   0  0  0  0  0  0  0  0  0  0  0  0
   -4.6041   24.0283  -26.8996 H   0  0  0  0  0  0  0  0  0  0  0  0
   -4.2143   24.7998  -30.3532 H   0  0  0  0  0  0  0  0  0  0  0  0
   -2.7280   24.0654  -31.0093 H   0  0  0  0  0  0  0  0  0  0  0  0
   -5.4172   22.6582  -30.5127 H   0  0  0  0  0  0  0  0  0  0  0  0
   -4.6773   23.0584  -32.1133 H   0  0  0  0  0  0  0  0  0  0  0  0
   -4.7415   21.8731  -33.5724 H   0  0  0  0  0  0  0  0  0  0  0  0
   -4.3102   20.2636  -34.2015 H   0  0  0  0  0  0  0  0  0  0  0  0
   -6.0925   16.5934  -31.8225 H   0  0  0  0  0  0  0  0  0  0  0  0
   -4.7268   14.8020  -32.8284 H   0  0  0  0  0  0  0  0  0  0  0  0
   -3.6856   15.3322  -35.1723 H   0  0  0  0  0  0  0  0  0  0  0  0
  -10.2851   20.2740  -31.8140 H   0  0  0  0  0  0  0  0  0  0  0  0
  -10.4309   22.7238  -31.3800 H   0  0  0  0  0  0  0  0  0  0  0  0
   -8.4214   24.1358  -31.7291 H   0  0  0  0  0  0  0  0  0  0  0  0
   -6.2779   23.1406  -32.5069 H   0  0  0  0  0  0  0  0  0  0  0  0
   -3.0011   20.1120  -29.7297 H   0  0  0  0  0  0  0  0  0  0  0  0
   -1.8850   21.4366  -30.1796 H   0  0  0  0  0  0  0  0  0  0  0  0
   -4.4493   21.7460  -28.5080 H   0  0  0  0  0  0  0  0  0  0  0  0
   -2.7942   21.7478  -27.8508 H   0  0  0  0  0  0  0  0  0  0  0  0
  1  2  1  0
  2  3  1  0
  3  4  2  0
  4  5  1  0
  5  6  2  0
  6  7  1  0
  7  8  2  0
  8  9  1  0
  9 10  1  0
 10 11  1  0
 11 12  1  0
 12 13  1  0
 13 14  2  0
 13 15  1  0
 15 16  1  0
 16 17  1  0
 17 18  1  0
 18 19  2  0
 19 20  1  0
 20 21  2  0
 21 22  1  0
 17 23  2  0
 23 24  1  0
 24 25  2  0
 25 26  1  0
 26 27  2  0
 27 28  1  0
 28 29  2  0
 12 30  1  0
 30 31  1  0
  8  3  1  0
 31  9  1  0
 29 16  1  0
 22 18  1  0
 29 24  1  0
  1 32  1  0
  1 33  1  0
  1 34  1  0
  4 35  1  0
  5 36  1  0
  6 37  1  0
  7 38  1  0
 10 39  1  0
 10 40  1  0
 11 41  1  0
 11 42  1  0
 15 43  1  0
 15 44  1  0
 19 45  1  0
 20 46  1  0
 21 47  1  0
 25 48  1  0
 26 49  1  0
 27 50  1  0
 28 51  1  0
 30 52  1  0
 30 53  1  0
 31 54  1  0
 31 55  1  0
M  END
>  <smiles>  (36) 
COc1ccccc1N1CCN(C(=O)Cn2c(-c3cccs3)nc3ccccc32)CC1

>  <score_type>  (36) 
oracle

>  <origin>  (36) 
adg

>  <m_score__min__energy>  (36) 
-9.2799999999999994

>  <m_primary>  (36) 
energy

$$$$
36:0
     RDKit          3D

 54 56  0  0  0  0  0  0  0  0999 V2000
   -7.6240   22.4980  -30.2940 C   0  0  0  0  0  0  0  0  0  0  0  0
   -7.9640   23.3010  -31.5520 C   0  0  0  0  0  0  0  0  0  0  0  0
   -6.7080   23.4050  -32.3420 C   0  0  0  0  0  0  0  0  0  0  0  0
   -5.4940   23.6650  -31.5350 C   0  0  0  0  0  0  0  0  0  0  0  0
   -5.1530   24.9420  -31.1780 N   0  0  0  0  0  0  0  0  0  0  0  0
   -4.0300   24.9070  -30.4960 N   0  0  0  0  0  0  0  0  0  0  0  0
   -3.6460   23.5930  -30.4150 C   0  0  0  0  0  0  0  0  0  0  0  0
   -2.3880   23.2250  -29.7190 C   0  0  0  0  0  0  0  0  0  0  0  0
   -2.0850   24.1030  -28.5830 C   0  0  0  0  0  0  0  0  0  0  0  0
   -2.9950   24.1290  -27.5360 C   0  0  0  0  0  0  0  0  0  0  0  0
   -2.8190   24.9210  -26.4190 C   0  0  0  0  0  0  0  0  0  0  0  0
   -1.7050   25.7300  -26.3110 C   0  0  0  0  0  0  0  0  0  0  0  0
   -0.7680   25.7280  -27.3510 C   0  0  0  0  0  0  0  0  0  0  0  0
   -0.9850   24.9110  -28.4630 C   0  0  0  0  0  0  0  0  0  0  0  0
   -4.5490   22.8400  -31.0550 N   0  0  0  0  0  0  0  0  0  0  0  0
   -4.5140   21.4270  -31.2450 C   0  0  0  0  0  0  0  0  0  0  0  0
   -4.1820   20.9450  -32.6180 C   0  0  0  0  0  0  0  0  0  0  0  0
   -5.3310   20.2050  -33.2680 C   0  0  0  0  0  0  0  0  0  0  0  0
   -6.4640   19.9940  -32.3970 N   0  0  0  0  0  0  0  0  0  0  0  0
   -7.6820   20.3310  -32.9990 C   0  0  0  0  0  0  0  0  0  0  0  0
   -8.9040   19.5580  -32.6050 C   0  0  0  0  0  0  0  0  0  0  0  0
   -8.7100   18.5860  -31.4960 C   0  0  0  0  0  0  0  0  0  0  0  0
   -7.4740   17.8050  -31.8080 C   0  0  0  0  0  0  0  0  0  0  0  0
   -6.3130   18.7350  -31.7560 C   0  0  0  0  0  0  0  0  0  0  0  0
   -7.8749   23.0905  -29.4018 H   0  0  0  0  0  0  0  0  0  0  0  0
   -8.2035   21.5630  -30.2881 H   0  0  0  0  0  0  0  0  0  0  0  0
   -6.5493   22.2634  -30.2881 H   0  0  0  0  0  0  0  0  0  0  0  0
   -8.7379   22.7816  -32.1362 H   0  0  0  0  0  0  0  0  0  0  0  0
   -8.3539   24.2967  -31.2938 H   0  0  0  0  0  0  0  0  0  0  0  0
   -6.5639   22.4588  -32.8841 H   0  0  0  0  0  0  0  0  0  0  0  0
   -6.8300   24.2699  -33.0106 H   0  0  0  0  0  0  0  0  0  0  0  0
   -2.4803   22.1929  -29.3498 H   0  0  0  0  0  0  0  0  0  0  0  0
   -1.5674   23.3290  -30.4441 H   0  0  0  0  0  0  0  0  0  0  0  0
   -3.8912   23.4942  -27.5983 H   0  0  0  0  0  0  0  0  0  0  0  0
   -3.5677   24.9076  -25.6133 H   0  0  0  0  0  0  0  0  0  0  0  0
   -1.5568   26.3640  -25.4244 H   0  0  0  0  0  0  0  0  0  0  0  0
    0.1287   26.3624  -27.2932 H   0  0  0  0  0  0  0  0  0  0  0  0
   -0.2429   24.9165  -29.2750 H   0  0  0  0  0  0  0  0  0  0  0  0
   -3.7612   21.0163  -30.5561 H   0  0  0  0  0  0  0  0  0  0  0  0
   -5.5422   21.0838  -31.0581 H   0  0  0  0  0  0  0  0  0  0  0  0
   -3.9229   21.8124  -33.2429 H   0  0  0  0  0  0  0  0  0  0  0  0
   -3.3400   20.2426  -32.5303 H   0  0  0  0  0  0  0  0  0  0  0  0
   -5.6681   20.7866  -34.1387 H   0  0  0  0  0  0  0  0  0  0  0  0
   -4.9524   19.2095  -33.5431 H   0  0  0  0  0  0  0  0  0  0  0  0
   -7.8774   21.3890  -32.7701 H   0  0  0  0  0  0  0  0  0  0  0  0
   -7.5370   20.0888  -34.0622 H   0  0  0  0  0  0  0  0  0  0  0  0
   -9.6763   20.2775  -32.2953 H   0  0  0  0  0  0  0  0  0  0  0  0
   -9.1850   18.9626  -33.4862 H   0  0  0  0  0  0  0  0  0  0  0  0
   -8.5880   19.1207  -30.5425 H   0  0  0  0  0  0  0  0  0  0  0  0
   -9.5806   17.9204  -31.4017 H   0  0  0  0  0  0  0  0  0  0  0  0
   -7.3427   17.0031  -31.0665 H   0  0  0  0  0  0  0  0  0  0  0  0
   -7.5530   17.3500  -32.8064 H   0  0  0  0  0  0  0  0  0  0  0  0
   -6.0894   18.9272  -30.6963 H   0  0  0  0  0  0  0  0  0  0  0  0
   -5.5141   18.2250  -32.3143 H   0  0  0  0  0  0  0  0  0  0  0  0
  1  2  1  0
  2  3  1  0
  3  4  1  0
  4  5  2  0
  5  6  1  0
  6  7  2  0
  7  8  1  0
  8  9  1  0
  9 10  2  0
 10 11  1  0
 11 12  2  0
 12 13  1  0
 13 14  2  0
  7 15  1  0
 15 16  1  0
 16 17  1  0
 17 18  1  0
 18 19  1  0
 19 20  1  0
 20 21  1  0
 21 22  1  0
 22 23  1  0
 23 24  1  0
 15  4  1  0
 24 19  1  0
 14  9  1  0
  1 25  1  0
  1 26  1  0
  1 27  1  0
  2 28  1  0
  2 29  1  0
  3 30  1  0
  3 31  1  0
  8 32  1  0
  8 33  1  0
 10 34  1  0
 11 35  1  0
 12 36  1  0
 13 37  1  0
 14 38  1  0
 16 39  1  0
 16 40  1  0
 17 41  1  0
 17 42  1  0
 18 43  1  0
 18 44  1  0
 20 45  1  0
 20 46  1  0
 21 47  1  0
 21 48  1  0
 22 49  1  0
 22 50  1  0
 23 51  1  0
 23 52  1  0
 24 53  1  0
 24 54  1  0
M  END
>  <smiles>  (37) 
CCCc1nnc(Cc2ccccc2)n1CCCN1CCCCC1

>  <score_type>  (37) 
oracle

>  <origin>  (37) 
adg

>  <m_score__min__energy>  (37) 
-9.1600000000000001

>  <m_primary>  (37) 
energy

$$$$
37:0
     RDKit          3D

 33 34  0  0  0  0  0  0  0  0999 V2000
   -8.9140   21.6140  -30.8660 C   0  0  0  0  0  0  0  0  0  0  0  0
   -8.2540   20.4550  -31.4980 C   0  0  0  0  0  0  0  0  0  0  0  0
   -8.9670   19.3150  -31.7310 N   0  0  0  0  0  0  0  0  0  0  0  0
   -8.4040   18.2450  -32.3010 C   0  0  0  0  0  0  0  0  0  0  0  0
   -7.1230   18.2740  -32.6560 N   0  0  0  0  0  0  0  0  0  0  0  0
   -6.3840   19.3910  -32.4400 C   0  0  0  0  0  0  0  0  0  0  0  0
   -6.9230   20.5180  -31.8540 C   0  0  0  0  0  0  0  0  0  0  0  0
   -6.1090   21.7070  -31.6320 C   0  0  0  0  0  0  0  0  0  0  0  0
   -4.9080   21.5850  -31.2810 O   0  0  0  0  0  0  0  0  0  0  0  0
   -6.6840   22.9570  -31.8150 O   0  0  0  0  0  0  0  0  0  0  0  0
   -5.9870   24.1680  -31.8590 C   0  0  0  0  0  0  0  0  0  0  0  0
   -5.0360   24.4000  -30.7720 C   0  0  0  0  0  0  0  0  0  0  0  0
   -4.2930   25.4320  -30.8460 O   0  0  0  0  0  0  0  0  0  0  0  0
   -4.8560   23.5830  -29.6330 N   0  0  0  0  0  0  0  0  0  0  0  0
   -3.8870   23.9530  -28.6770 C   0  0  0  0  0  0  0  0  0  0  0  0
   -2.5530   23.7500  -28.9050 C   0  0  0  0  0  0  0  0  0  0  0  0
   -1.5810   24.1100  -27.9710 C   0  0  0  0  0  0  0  0  0  0  0  0
   -1.9700   24.6910  -26.7800 C   0  0  0  0  0  0  0  0  0  0  0  0
   -0.6460   25.1860  -25.4980 Br  0  0  0  0  0  0  0  0  0  0  0  0
   -3.3220   24.8990  -26.5440 C   0  0  0  0  0  0  0  0  0  0  0  0
   -4.2930   24.5410  -27.4730 C   0  0  0  0  0  0  0  0  0  0  0  0
   -8.8582   21.5160  -29.7718 H   0  0  0  0  0  0  0  0  0  0  0  0
   -8.4074   22.5393  -31.1776 H   0  0  0  0  0  0  0  0  0  0  0  0
   -9.9683   21.6504  -31.1776 H   0  0  0  0  0  0  0  0  0  0  0  0
   -9.0018   17.3385  -32.4767 H   0  0  0  0  0  0  0  0  0  0  0  0
   -5.3258   19.3985  -32.7403 H   0  0  0  0  0  0  0  0  0  0  0  0
   -5.4296   24.2013  -32.8067 H   0  0  0  0  0  0  0  0  0  0  0  0
   -6.7504   24.9535  -31.7581 H   0  0  0  0  0  0  0  0  0  0  0  0
   -5.4380   22.7300  -29.5000 H   0  0  0  0  0  0  0  0  0  0  0  0
   -2.2377   23.2893  -29.8528 H   0  0  0  0  0  0  0  0  0  0  0  0
   -0.5159   23.9329  -28.1811 H   0  0  0  0  0  0  0  0  0  0  0  0
   -3.6342   25.3600  -25.5953 H   0  0  0  0  0  0  0  0  0  0  0  0
   -5.3590   24.7164  -27.2659 H   0  0  0  0  0  0  0  0  0  0  0  0
  1  2  1  0
  2  3  2  0
  3  4  1  0
  4  5  2  0
  5  6  1  0
  6  7  2  0
  7  8  1  0
  8  9  2  0
  8 10  1  0
 10 11  1  0
 11 12  1  0
 12 13  2  0
 12 14  1  0
 14 15  1  0
 15 16  2  0
 16 17  1  0
 17 18  2  0
 18 19  1  0
 18 20  1  0
 20 21  2  0
  7  2  1  0
 21 15  1  0
  1 22  1  0
  1 23  1  0
  1 24  1  0
  4 25  1  0
  6 26  1  0
 11 27  1  0
 11 28  1  0
 14 29  1  0
 16 30  1  0
 17 31  1  0
 20 32  1  0
 21 33  1  0
M  END
>  <smiles>  (38) 
Cc1ncncc1C(=O)OCC(=O)Nc1ccc(Br)cc1

>  <score_type>  (38) 
oracle

>  <origin>  (38) 
adg

>  <m_score__min__energy>  (38) 
-7.4100000000000001

>  <m_primary>  (38) 
energy

$$$$
38:0
     RDKit          3D

 51 54  0  0  0  0  0  0  0  0999 V2000
   -0.6080   27.1690  -23.6200 C   0  0  0  0  0  0  0  0  0  0  0  0
   -0.8170   26.8740  -25.0610 C   0  0  0  0  0  0  0  0  0  0  0  0
   -0.2950   27.6570  -26.0630 C   0  0  0  0  0  0  0  0  0  0  0  0
   -0.4970   27.3600  -27.4040 C   0  0  0  0  0  0  0  0  0  0  0  0
   -1.2340   26.2640  -27.7900 C   0  0  0  0  0  0  0  0  0  0  0  0
   -1.6070   25.7110  -28.9290 O   0  0  0  0  0  0  0  0  0  0  0  0
   -2.3270   24.6340  -28.7180 C   0  0  0  0  0  0  0  0  0  0  0  0
   -2.9410   23.7170  -29.6710 C   0  0  0  0  0  0  0  0  0  0  0  0
   -2.3330   22.5210  -30.0160 C   0  0  0  0  0  0  0  0  0  0  0  0
   -2.8910   21.6520  -30.9280 C   0  0  0  0  0  0  0  0  0  0  0  0
   -4.1150   21.9350  -31.5610 C   0  0  0  0  0  0  0  0  0  0  0  0
   -4.5960   21.0030  -32.4930 N   0  0  0  0  0  0  0  0  0  0  0  0
   -5.9350   20.6270  -32.7170 C   0  0  0  0  0  0  0  0  0  0  0  0
   -6.8540   21.1500  -32.0450 O   0  0  0  0  0  0  0  0  0  0  0  0
   -6.3640   19.6190  -33.7310 C   0  0  0  0  0  0  0  0  0  0  0  0
   -5.2360   18.8380  -34.2110 N   0  0  0  0  0  0  0  0  0  0  0  0
   -5.7500   17.7130  -34.9970 C   0  0  0  0  0  0  0  0  0  0  0  0
   -6.7390   16.8980  -34.2220 C   0  0  0  0  0  0  0  0  0  0  0  0
   -6.1380   16.3180  -33.0320 N   0  0  0  0  0  0  0  0  0  0  0  0
   -5.3610   15.1280  -33.3450 C   0  0  0  0  0  0  0  0  0  0  0  0
   -5.3690   17.2600  -32.2900 C   0  0  0  0  0  0  0  0  0  0  0  0
   -4.5420   18.2270  -33.0730 C   0  0  0  0  0  0  0  0  0  0  0  0
   -4.6980   23.1190  -31.2060 C   0  0  0  0  0  0  0  0  0  0  0  0
   -4.1360   23.9960  -30.2850 C   0  0  0  0  0  0  0  0  0  0  0  0
   -2.4300   24.4760  -27.3800 N   0  0  0  0  0  0  0  0  0  0  0  0
   -1.7610   25.4730  -26.7590 C   0  0  0  0  0  0  0  0  0  0  0  0
   -1.5570   25.7720  -25.4320 C   0  0  0  0  0  0  0  0  0  0  0  0
   -1.1379   26.4210  -23.0120 H   0  0  0  0  0  0  0  0  0  0  0  0
    0.4672   27.1330  -23.3905 H   0  0  0  0  0  0  0  0  0  0  0  0
   -0.9985   28.1714  -23.3905 H   0  0  0  0  0  0  0  0  0  0  0  0
    0.2990   28.5432  -25.7949 H   0  0  0  0  0  0  0  0  0  0  0  0
   -0.0594   28.0136  -28.1730 H   0  0  0  0  0  0  0  0  0  0  0  0
   -1.3739   22.2566  -29.5467 H   0  0  0  0  0  0  0  0  0  0  0  0
   -2.3670   20.7148  -31.1668 H   0  0  0  0  0  0  0  0  0  0  0  0
   -3.8790   20.5330  -33.1240 H   0  0  0  0  0  0  0  0  0  0  0  0
   -7.0998   18.9414  -33.2733 H   0  0  0  0  0  0  0  0  0  0  0  0
   -6.8047   20.1530  -34.5858 H   0  0  0  0  0  0  0  0  0  0  0  0
   -6.2413   18.1047  -35.8999 H   0  0  0  0  0  0  0  0  0  0  0  0
   -4.9019   17.0631  -35.2583 H   0  0  0  0  0  0  0  0  0  0  0  0
   -7.5762   17.5446  -33.9203 H   0  0  0  0  0  0  0  0  0  0  0  0
   -7.0889   16.0776  -34.8658 H   0  0  0  0  0  0  0  0  0  0  0  0
   -5.0433   14.6414  -32.4110 H   0  0  0  0  0  0  0  0  0  0  0  0
   -5.9782   14.4305  -33.9303 H   0  0  0  0  0  0  0  0  0  0  0  0
   -4.4742   15.4126  -33.9303 H   0  0  0  0  0  0  0  0  0  0  0  0
   -6.0664   17.8443  -31.6718 H   0  0  0  0  0  0  0  0  0  0  0  0
   -4.6439   16.6555  -31.7254 H   0  0  0  0  0  0  0  0  0  0  0  0
   -4.2196   19.0311  -32.3951 H   0  0  0  0  0  0  0  0  0  0  0  0
   -3.7012   17.6535  -33.4904 H   0  0  0  0  0  0  0  0  0  0  0  0
   -5.6571   23.3910  -31.6708 H   0  0  0  0  0  0  0  0  0  0  0  0
   -4.6600   24.9326  -30.0437 H   0  0  0  0  0  0  0  0  0  0  0  0
   -1.9902   25.1230  -24.6566 H   0  0  0  0  0  0  0  0  0  0  0  0
  1  2  1  0
  2  3  2  0
  3  4  1  0
  4  5  2  0
  5  6  1  0
  6  7  1  0
  7  8  1  0
  8  9  2  0
  9 10  1  0
 10 11  2  0
 11 12  1  0
 12 13  1  0
 13 14  2  0
 13 15  1  0
 15 16  1  0
 16 17  1  0
 17 18  1  0
 18 19  1  0
 19 20  1  0
 19 21  1  0
 21 22  1  0
 11 23  1  0
 23 24  2  0
  7 25  2  0
 25 26  1  0
 26 27  2  0
 27  2  1  0
 26  5  1  0
 24  8  1  0
 22 16  1  0
  1 28  1  0
  1 29  1  0
  1 30  1  0
  3 31  1  0
  4 32  1  0
  9 33  1  0
 10 34  1  0
 12 35  1  0
 15 36  1  0
 15 37  1  0
 17 38  1  0
 17 39  1  0
 18 40  1  0
 18 41  1  0
 20 42  1  0
 20 43  1  0
 20 44  1  0
 21 45  1  0
 21 46  1  0
 22 47  1  0
 22 48  1  0
 23 49  1  0
 24 50  1  0
 27 51  1  0
M  END
>  <smiles>  (39) 
Cc1ccc2oc(-c3ccc(NC(=O)CN4CCN(C)CC4)cc3)nc2c1

>  <score_type>  (39) 
oracle

>  <origin>  (39) 
adg

>  <m_score__min__energy>  (39) 
-8.7899999999999991

>  <m_primary>  (39) 
energy

$$$$
39:0
     RDKit          3D

 54 57  0  0  1  0  0  0  0  0999 V2000
   -5.2450   25.6120  -30.5080 C   0  0  0  0  0  0  0  0  0  0  0  0
   -3.8610   25.2910  -30.5340 O   0  0  0  0  0  0  0  0  0  0  0  0
   -3.3820   24.1650  -29.8850 C   0  0  0  0  0  0  0  0  0  0  0  0
   -2.7060   24.2790  -28.6620 C   0  0  0  0  0  0  0  0  0  0  0  0
   -2.2260   23.1580  -28.0140 C   0  0  0  0  0  0  0  0  0  0  0  0
   -1.5450   23.2610  -26.7940 C   0  0  0  0  0  0  0  0  0  0  0  0
   -1.0700   22.1200  -26.1720 C   0  0  0  0  0  0  0  0  0  0  0  0
   -1.2650   20.8920  -26.7440 C   0  0  0  0  0  0  0  0  0  0  0  0
   -1.9290   20.7540  -27.9410 C   0  0  0  0  0  0  0  0  0  0  0  0
   -2.4100   21.8890  -28.5760 C   0  0  0  0  0  0  0  0  0  0  0  0
   -3.0770   21.7830  -29.7840 C   0  0  0  0  0  0  0  0  0  0  0  0
   -3.5560   22.9110  -30.4270 C   0  0  0  0  0  0  0  0  0  0  0  0
   -4.2420   22.6890  -31.7080 C   0  0  0  0  0  0  0  0  0  0  0  0
   -3.5420   22.3000  -32.6560 O   0  0  0  0  0  0  0  0  0  0  0  0
   -5.6310   22.9440  -31.7290 N   0  0  0  0  0  0  0  0  0  0  0  0
   -6.4710   22.0520  -31.8330 C   0  0  0  0  0  0  0  0  0  0  0  0
   -6.4500   20.7500  -32.1460 N   0  0  0  0  0  0  0  0  0  0  0  0
   -7.5180   20.0230  -32.1910 C   0  0  0  0  0  0  0  0  0  0  0  0
   -7.5010   18.5810  -32.5410 C   0  0  0  0  0  0  0  0  0  0  0  0
   -8.2750   17.8160  -31.8980 O   0  0  0  0  0  0  0  0  0  0  0  0
   -6.6700   18.0320  -33.5470 N   0  0  0  0  0  0  0  0  0  0  0  0
   -6.4940   16.5990  -33.3960 C   0  0  0  0  0  0  0  0  0  0  0  0
   -5.1200   16.0940  -33.6410 C   0  0  0  0  0  0  0  0  0  0  0  0
   -4.0020   16.9390  -33.1300 C   0  0  0  0  0  0  0  0  0  0  0  0
   -4.2860   18.3500  -33.1650 N   0  0  0  0  0  0  0  0  0  0  0  0
   -3.3870   19.1840  -32.4430 C   0  0  0  0  0  0  0  0  0  0  0  0
   -4.6160   18.8120  -34.4940 C   0  0  0  0  0  0  0  0  0  0  0  0
   -6.1280   18.9360  -34.5570 C   0  0  0  0  0  0  0  0  0  0  0  0
   -8.7520   20.6190  -31.8980 C   0  0  0  0  0  0  0  0  0  0  0  0
   -8.2800   22.3900  -31.5320 S   0  0  0  0  0  0  0  0  0  0  0  0
   -5.5836   25.6905  -29.4644 H   0  0  0  0  0  0  0  0  0  0  0  0
   -5.4084   26.5719  -31.0197 H   0  0  0  0  0  0  0  0  0  0  0  0
   -5.8143   24.8221  -31.0197 H   0  0  0  0  0  0  0  0  0  0  0  0
   -2.5563   25.2723  -28.2137 H   0  0  0  0  0  0  0  0  0  0  0  0
   -1.3883   24.2467  -26.3317 H   0  0  0  0  0  0  0  0  0  0  0  0
   -0.5340   22.2001  -25.2148 H   0  0  0  0  0  0  0  0  0  0  0  0
   -0.8822   19.9951  -26.2351 H   0  0  0  0  0  0  0  0  0  0  0  0
   -2.0760   19.7593  -28.3871 H   0  0  0  0  0  0  0  0  0  0  0  0
   -3.2279   20.7923  -30.2376 H   0  0  0  0  0  0  0  0  0  0  0  0
   -5.4740   20.3170  -32.3690 H   0  0  0  0  0  0  0  0  0  0  0  0
   -6.7755   16.3297  -32.3673 H   0  0  0  0  0  0  0  0  0  0  0  0
   -7.1279   16.1344  -34.1657 H   0  0  0  0  0  0  0  0  0  0  0  0
   -5.0369   15.1056  -33.1654 H   0  0  0  0  0  0  0  0  0  0  0  0
   -5.0028   16.0845  -34.7347 H   0  0  0  0  0  0  0  0  0  0  0  0
   -3.7959   16.6511  -32.0885 H   0  0  0  0  0  0  0  0  0  0  0  0
   -3.1386   16.7664  -33.7893 H   0  0  0  0  0  0  0  0  0  0  0  0
   -3.5411   19.0410  -31.3633 H   0  0  0  0  0  0  0  0  0  0  0  0
   -2.3516   18.9194  -32.7038 H   0  0  0  0  0  0  0  0  0  0  0  0
   -3.5733   20.2363  -32.7038 H   0  0  0  0  0  0  0  0  0  0  0  0
   -4.1484   19.7899  -34.6811 H   0  0  0  0  0  0  0  0  0  0  0  0
   -4.2471   18.1106  -35.2568 H   0  0  0  0  0  0  0  0  0  0  0  0
   -6.4320   19.9708  -34.3407 H   0  0  0  0  0  0  0  0  0  0  0  0
   -6.5029   18.6778  -35.5584 H   0  0  0  0  0  0  0  0  0  0  0  0
   -9.7509   20.1586  -31.8863 H   0  0  0  0  0  0  0  0  0  0  0  0
  1  2  1  0
  2  3  1  0
  3  4  2  0
  4  5  1  0
  5  6  2  0
  6  7  1  0
  7  8  2  0
  8  9  1  0
  9 10  2  0
 10 11  1  0
 11 12  2  0
 12 13  1  0
 13 14  2  0
 13 15  1  0
 15 16  2  0
 16 17  1  0
 17 18  1  0
 18 19  1  0
 19 20  2  0
 19 21  1  0
 21 22  1  0
 22 23  1  0
 23 24  1  0
 24 25  1  0
 25 26  1  0
 25 27  1  0
 27 28  1  0
 18 29  2  0
 29 30  1  0
 12  3  1  0
 30 16  1  0
 10  5  1  0
 28 21  1  0
  1 31  1  0
  1 32  1  0
  1 33  1  0
  4 34  1  0
  6 35  1  0
  7 36  1  0
  8 37  1  0
  9 38  1  0
 11 39  1  0
 17 40  1  0
 22 41  1  0
 22 42  1  0
 23 43  1  0
 23 44  1  0
 24 45  1  0
 24 46  1  0
 26 47  1  0
 26 48  1  0
 26 49  1  0
 27 50  1  0
 27 51  1  0
 28 52  1  0
 28 53  1  0
 29 54  1  0
M  END
>  <smiles>  (40) 
COc1cc2ccccc2cc1C(=O)N=c1[nH]c(C(=O)N2CCCN(C)CC2)cs1

>  <score_type>  (40) 
oracle

>  <origin>  (40) 
adg

>  <m_score__min__energy>  (40) 
-9.1300000000000008

>  <m_primary>  (40) 
energy

$$$$
40:0
     RDKit          3D

 58 61  0  0  0  0  0  0  0  0999 V2000
   -9.0880   18.3450  -31.6980 C   0  0  0  0  0  0  0  0  0  0  0  0
   -8.9600   19.4730  -32.5310 O   0  0  0  0  0  0  0  0  0  0  0  0
   -8.1630   20.5330  -32.1520 C   0  0  0  0  0  0  0  0  0  0  0  0
   -8.7710   21.7670  -31.8940 C   0  0  0  0  0  0  0  0  0  0  0  0
   -8.0490   22.8740  -31.5080 C   0  0  0  0  0  0  0  0  0  0  0  0
   -6.6820   22.7450  -31.3770 C   0  0  0  0  0  0  0  0  0  0  0  0
   -5.8860   23.9000  -30.9750 C   0  0  0  0  0  0  0  0  0  0  0  0
   -4.5790   24.1550  -31.2270 N   0  0  0  0  0  0  0  0  0  0  0  0
   -4.2470   25.3170  -30.6830 N   0  0  0  0  0  0  0  0  0  0  0  0
   -5.3160   25.8160  -30.0850 N   0  0  0  0  0  0  0  0  0  0  0  0
   -6.3390   24.9590  -30.2510 N   0  0  0  0  0  0  0  0  0  0  0  0
   -6.0730   21.5350  -31.6290 C   0  0  0  0  0  0  0  0  0  0  0  0
   -6.8030   20.4040  -32.0240 C   0  0  0  0  0  0  0  0  0  0  0  0
   -6.0610   19.1300  -32.3160 C   0  0  0  0  0  0  0  0  0  0  0  0
   -5.0530   19.2010  -33.2600 N   0  0  0  0  0  0  0  0  0  0  0  0
   -3.8460   19.8950  -33.0380 C   0  0  0  0  0  0  0  0  0  0  0  0
   -2.7310   19.3540  -33.9280 C   0  0  0  0  0  0  0  0  0  0  0  0
   -1.7340   20.3680  -34.1200 N   0  0  0  0  0  0  0  0  0  0  0  0
   -0.6640   19.8290  -34.9590 C   0  0  0  0  0  0  0  0  0  0  0  0
    0.3050   20.9530  -35.2960 C   0  0  0  0  0  0  0  0  0  0  0  0
    0.4790   21.8140  -34.2280 O   0  0  0  0  0  0  0  0  0  0  0  0
    0.2290   21.2110  -32.9980 C   0  0  0  0  0  0  0  0  0  0  0  0
   -1.2310   20.8120  -32.8470 C   0  0  0  0  0  0  0  0  0  0  0  0
   -5.1900   18.5950  -34.5310 C   0  0  0  0  0  0  0  0  0  0  0  0
   -5.3440   17.1330  -34.4180 C   0  0  0  0  0  0  0  0  0  0  0  0
   -6.6260   16.6300  -34.2800 C   0  0  0  0  0  0  0  0  0  0  0  0
   -6.8490   15.2550  -34.1720 C   0  0  0  0  0  0  0  0  0  0  0  0
   -5.8050   14.3450  -34.1980 C   0  0  0  0  0  0  0  0  0  0  0  0
   -4.5350   14.8580  -34.3350 C   0  0  0  0  0  0  0  0  0  0  0  0
   -4.3180   16.2270  -34.4430 C   0  0  0  0  0  0  0  0  0  0  0  0
   -9.0522   18.6609  -30.6449 H   0  0  0  0  0  0  0  0  0  0  0  0
  -10.0483   17.8477  -31.8992 H   0  0  0  0  0  0  0  0  0  0  0  0
   -8.2635   17.6452  -31.8992 H   0  0  0  0  0  0  0  0  0  0  0  0
   -9.8620   21.8554  -32.0033 H   0  0  0  0  0  0  0  0  0  0  0  0
   -8.5482   23.8340  -31.3097 H   0  0  0  0  0  0  0  0  0  0  0  0
   -5.4300   26.7120  -29.5560 H   0  0  0  0  0  0  0  0  0  0  0  0
   -4.9818   21.4534  -31.5171 H   0  0  0  0  0  0  0  0  0  0  0  0
   -5.6117   18.7825  -31.3740 H   0  0  0  0  0  0  0  0  0  0  0  0
   -6.8117   18.4500  -32.7451 H   0  0  0  0  0  0  0  0  0  0  0  0
   -3.9983   20.9614  -33.2607 H   0  0  0  0  0  0  0  0  0  0  0  0
   -3.5521   19.7583  -31.9868 H   0  0  0  0  0  0  0  0  0  0  0  0
   -2.2730   18.4763  -33.4484 H   0  0  0  0  0  0  0  0  0  0  0  0
   -3.1498   19.0640  -34.9029 H   0  0  0  0  0  0  0  0  0  0  0  0
   -0.1332   19.0331  -34.4160 H   0  0  0  0  0  0  0  0  0  0  0  0
   -1.0878   19.4098  -35.8835 H   0  0  0  0  0  0  0  0  0  0  0  0
    1.2783   20.5164  -35.5645 H   0  0  0  0  0  0  0  0  0  0  0  0
   -0.1137   21.5273  -36.1355 H   0  0  0  0  0  0  0  0  0  0  0  0
    0.8545   20.3104  -32.9100 H   0  0  0  0  0  0  0  0  0  0  0  0
    0.4666   21.9383  -32.2077 H   0  0  0  0  0  0  0  0  0  0  0  0
   -1.3157   19.9968  -32.1133 H   0  0  0  0  0  0  0  0  0  0  0  0
   -1.8163   21.6760  -32.4992 H   0  0  0  0  0  0  0  0  0  0  0  0
   -6.0771   19.0104  -35.0314 H   0  0  0  0  0  0  0  0  0  0  0  0
   -4.2797   18.8025  -35.1126 H   0  0  0  0  0  0  0  0  0  0  0  0
   -7.4807   17.3220  -34.2550 H   0  0  0  0  0  0  0  0  0  0  0  0
   -7.8795   14.8858  -34.0636 H   0  0  0  0  0  0  0  0  0  0  0  0
   -5.9825   13.2627  -34.1131 H   0  0  0  0  0  0  0  0  0  0  0  0
   -3.6756   14.1718  -34.3595 H   0  0  0  0  0  0  0  0  0  0  0  0
   -3.2870   16.5946  -34.5522 H   0  0  0  0  0  0  0  0  0  0  0  0
  1  2  1  0
  2  3  1  0
  3  4  2  0
  4  5  1  0
  5  6  2  0
  6  7  1  0
  7  8  1  0
  8  9  2  0
  9 10  1  0
 10 11  1  0
  6 12  1  0
 12 13  2  0
 13 14  1  0
 14 15  1  0
 15 16  1  0
 16 17  1  0
 17 18  1  0
 18 19  1  0
 19 20  1  0
 20 21  1  0
 21 22  1  0
 22 23  1  0
 15 24  1  0
 24 25  1  0
 25 26  2  0
 26 27  1  0
 27 28  2  0
 28 29  1  0
 29 30  2  0
 13  3  1  0
 23 18  1  0
 30 25  1  0
 11  7  2  0
  1 31  1  0
  1 32  1  0
  1 33  1  0
  4 34  1  0
  5 35  1  0
 10 36  1  0
 12 37  1  0
 14 38  1  0
 14 39  1  0
 16 40  1  0
 16 41  1  0
 17 42  1  0
 17 43  1  0
 19 44  1  0
 19 45  1  0
 20 46  1  0
 20 47  1  0
 22 48  1  0
 22 49  1  0
 23 50  1  0
 23 51  1  0
 24 52  1  0
 24 53  1  0
 26 54  1  0
 27 55  1  0
 28 56  1  0
 29 57  1  0
 30 58  1  0
M  END
>  <smiles>  (41) 
COc1ccc(-c2nn[nH]n2)cc1CN(CCN1CCOCC1)Cc1ccccc1

>  <score_type>  (41) 
oracle

>  <origin>  (41) 
adg

>  <m_score__min__energy>  (41) 
-9.9900000000000002

>  <m_primary>  (41) 
energy

$$$$
41:0
     RDKit          3D

 38 40  0  0  1  0  0  0  0  0999 V2000
   -5.2270   25.6310  -30.4870 C   0  0  0  0  0  0  0  0  0  0  0  0
   -3.8740   25.2190  -30.4570 O   0  0  0  0  0  0  0  0  0  0  0  0
   -3.5310   24.0630  -29.7270 C   0  0  0  0  0  0  0  0  0  0  0  0
   -3.3350   24.1780  -28.3480 C   0  0  0  0  0  0  0  0  0  0  0  0
   -2.9990   23.0540  -27.6230 C   0  0  0  0  0  0  0  0  0  0  0  0
   -2.8520   21.8190  -28.2150 C   0  0  0  0  0  0  0  0  0  0  0  0
   -2.3920   20.2470  -27.2630 Br  0  0  0  0  0  0  0  0  0  0  0  0
   -3.0520   21.7330  -29.5870 C   0  0  0  0  0  0  0  0  0  0  0  0
   -3.3900   22.8390  -30.3460 C   0  0  0  0  0  0  0  0  0  0  0  0
   -3.5940   22.6550  -31.7820 C   0  0  0  0  0  0  0  0  0  0  0  0
   -5.0000   22.8150  -32.1870 N   0  0  0  0  0  0  0  0  0  0  0  0
   -5.6360   21.7350  -32.5720 C   0  0  0  0  0  0  0  0  0  0  0  0
   -4.9100   20.7830  -33.1820 N   0  0  0  0  0  0  0  0  0  0  0  0
   -5.5540   19.6640  -33.5720 C   0  0  0  0  0  0  0  0  0  0  0  0
   -4.7230   18.6210  -34.2520 C   0  0  0  0  0  0  0  0  0  0  0  0
   -6.8650   19.4590  -33.3840 N   0  0  0  0  0  0  0  0  0  0  0  0
   -7.5710   20.4140  -32.7750 C   0  0  0  0  0  0  0  0  0  0  0  0
   -8.9380   20.1830  -32.5840 C   0  0  0  0  0  0  0  0  0  0  0  0
   -9.6810   21.1820  -31.9440 C   0  0  0  0  0  0  0  0  0  0  0  0
   -9.0690   22.3610  -31.5180 C   0  0  0  0  0  0  0  0  0  0  0  0
   -7.7100   22.5840  -31.7120 C   0  0  0  0  0  0  0  0  0  0  0  0
   -6.9950   21.5850  -32.3460 C   0  0  0  0  0  0  0  0  0  0  0  0
   -5.5987   25.7442  -29.4579 H   0  0  0  0  0  0  0  0  0  0  0  0
   -5.3055   26.5938  -31.0132 H   0  0  0  0  0  0  0  0  0  0  0  0
   -5.8288   24.8754  -31.0132 H   0  0  0  0  0  0  0  0  0  0  0  0
   -3.4472   25.1513  -27.8480 H   0  0  0  0  0  0  0  0  0  0  0  0
   -2.8435   23.1466  -26.5380 H   0  0  0  0  0  0  0  0  0  0  0  0
   -2.9384   20.7581  -30.0838 H   0  0  0  0  0  0  0  0  0  0  0  0
   -2.9871   23.3978  -32.3205 H   0  0  0  0  0  0  0  0  0  0  0  0
   -3.2952   21.6254  -32.0281 H   0  0  0  0  0  0  0  0  0  0  0  0
   -4.2259   17.9971  -33.4946 H   0  0  0  0  0  0  0  0  0  0  0  0
   -5.3687   17.9901  -34.8805 H   0  0  0  0  0  0  0  0  0  0  0  0
   -3.9638   19.1094  -34.8805 H   0  0  0  0  0  0  0  0  0  0  0  0
   -7.2970   18.5480  -33.7230 H   0  0  0  0  0  0  0  0  0  0  0  0
   -9.4115   19.2503  -32.9244 H   0  0  0  0  0  0  0  0  0  0  0  0
  -10.7581   21.0359  -31.7753 H   0  0  0  0  0  0  0  0  0  0  0  0
   -9.6745   23.1311  -31.0177 H   0  0  0  0  0  0  0  0  0  0  0  0
   -7.2261   23.5130  -31.3762 H   0  0  0  0  0  0  0  0  0  0  0  0
  1  2  1  0
  2  3  1  0
  3  4  2  0
  4  5  1  0
  5  6  2  0
  6  7  1  0
  6  8  1  0
  8  9  2  0
  9 10  1  0
 10 11  1  0
 11 12  2  0
 12 13  1  0
 13 14  2  0
 14 15  1  0
 14 16  1  0
 16 17  1  0
 17 18  2  0
 18 19  1  0
 19 20  2  0
 20 21  1  0
 21 22  2  0
  9  3  1  0
 22 12  1  0
 22 17  1  0
  1 23  1  0
  1 24  1  0
  1 25  1  0
  4 26  1  0
  5 27  1  0
  8 28  1  0
 10 29  1  0
 10 30  1  0
 15 31  1  0
 15 32  1  0
 15 33  1  0
 16 34  1  0
 18 35  1  0
 19 36  1  0
 20 37  1  0
 21 38  1  0
M  END
>  <smiles>  (42) 
COc1ccc(Br)cc1CN=c1nc(C)[nH]c2ccccc12

>  <score_type>  (42) 
oracle

>  <origin>  (42) 
adg

>  <m_score__min__energy>  (42) 
-8.9900000000000002

>  <m_primary>  (42) 
energy

$$$$
42:0
     RDKit          3D

 55 57  0  0  0  0  0  0  0  0999 V2000
   -1.1920   25.2800  -28.7740 C   0  0  0  0  0  0  0  0  0  0  0  0
   -2.4270   24.5520  -29.1860 C   0  0  0  0  0  0  0  0  0  0  0  0
   -3.3820   24.9770  -29.9800 O   0  0  0  0  0  0  0  0  0  0  0  0
   -4.3270   24.0910  -30.1360 C   0  0  0  0  0  0  0  0  0  0  0  0
   -5.5220   24.3160  -30.9820 C   0  0  0  0  0  0  0  0  0  0  0  0
   -5.8380   23.2030  -31.8460 N   0  0  0  0  0  0  0  0  0  0  0  0
   -7.1930   23.0420  -32.3380 C   0  0  0  0  0  0  0  0  0  0  0  0
   -7.9000   22.0740  -31.4200 C   0  0  0  0  0  0  0  0  0  0  0  0
   -7.7200   20.6980  -31.7410 N   0  0  0  0  0  0  0  0  0  0  0  0
   -7.3890   20.4190  -33.0980 C   0  0  0  0  0  0  0  0  0  0  0  0
   -6.6720   19.0630  -33.1310 C   0  0  0  0  0  0  0  0  0  0  0  0
   -7.3690   18.0720  -32.2530 C   0  0  0  0  0  0  0  0  0  0  0  0
   -8.7990   18.5080  -31.9610 C   0  0  0  0  0  0  0  0  0  0  0  0
   -8.7230   19.8230  -31.2170 C   0  0  0  0  0  0  0  0  0  0  0  0
   -4.8270   22.2570  -32.2260 C   0  0  0  0  0  0  0  0  0  0  0  0
   -3.9840   22.2430  -33.2190 N   0  0  0  0  0  0  0  0  0  0  0  0
   -3.1340   21.2690  -33.3820 C   0  0  0  0  0  0  0  0  0  0  0  0
   -3.1250   20.2520  -32.5010 C   0  0  0  0  0  0  0  0  0  0  0  0
   -4.4910   20.7870  -31.3380 S   0  0  0  0  0  0  0  0  0  0  0  0
   -3.9720   23.0220  -29.4010 N   0  0  0  0  0  0  0  0  0  0  0  0
   -2.7780   23.2800  -28.7890 C   0  0  0  0  0  0  0  0  0  0  0  0
   -1.9880   22.4250  -27.8880 C   0  0  0  0  0  0  0  0  0  0  0  0
   -1.5530   23.1270  -26.6330 C   0  0  0  0  0  0  0  0  0  0  0  0
   -2.6650   21.1260  -27.5300 C   0  0  0  0  0  0  0  0  0  0  0  0
   -0.7190   22.0470  -28.6590 C   0  0  0  0  0  0  0  0  0  0  0  0
   -1.1352   25.3135  -27.6760 H   0  0  0  0  0  0  0  0  0  0  0  0
   -0.3089   24.7580  -29.1711 H   0  0  0  0  0  0  0  0  0  0  0  0
   -1.2211   26.3054  -29.1711 H   0  0  0  0  0  0  0  0  0  0  0  0
   -6.3839   24.5007  -30.3239 H   0  0  0  0  0  0  0  0  0  0  0  0
   -5.2993   25.1751  -31.6319 H   0  0  0  0  0  0  0  0  0  0  0  0
   -7.7120   24.0119  -32.3319 H   0  0  0  0  0  0  0  0  0  0  0  0
   -7.1866   22.6612  -33.3700 H   0  0  0  0  0  0  0  0  0  0  0  0
   -7.5261   22.2377  -30.3985 H   0  0  0  0  0  0  0  0  0  0  0  0
   -8.9756   22.2767  -31.5296 H   0  0  0  0  0  0  0  0  0  0  0  0
   -8.3047   20.3741  -33.7059 H   0  0  0  0  0  0  0  0  0  0  0  0
   -6.7419   21.2084  -33.5080 H   0  0  0  0  0  0  0  0  0  0  0  0
   -6.6621   18.6853  -34.1641 H   0  0  0  0  0  0  0  0  0  0  0  0
   -5.6442   19.1985  -32.7631 H   0  0  0  0  0  0  0  0  0  0  0  0
   -7.3874   17.0950  -32.7582 H   0  0  0  0  0  0  0  0  0  0  0  0
   -6.8230   18.0047  -31.3004 H   0  0  0  0  0  0  0  0  0  0  0  0
   -9.3526   18.6391  -32.9024 H   0  0  0  0  0  0  0  0  0  0  0  0
   -9.3234   17.7498  -31.3610 H   0  0  0  0  0  0  0  0  0  0  0  0
   -9.6994   20.3245  -31.2886 H   0  0  0  0  0  0  0  0  0  0  0  0
   -8.4555   19.5989  -30.1738 H   0  0  0  0  0  0  0  0  0  0  0  0
   -2.4325   21.2780  -34.2293 H   0  0  0  0  0  0  0  0  0  0  0  0
   -2.4902   19.3541  -32.4721 H   0  0  0  0  0  0  0  0  0  0  0  0
   -1.9032   22.5619  -25.7566 H   0  0  0  0  0  0  0  0  0  0  0  0
   -0.4552   23.1935  -26.6117 H   0  0  0  0  0  0  0  0  0  0  0  0
   -1.9821   24.1396  -26.6117 H   0  0  0  0  0  0  0  0  0  0  0  0
   -2.7158   21.0285  -26.4355 H   0  0  0  0  0  0  0  0  0  0  0  0
   -3.6830   21.1161  -27.9467 H   0  0  0  0  0  0  0  0  0  0  0  0
   -2.0900   20.2859  -27.9467 H   0  0  0  0  0  0  0  0  0  0  0  0
    0.0848   21.8076  -27.9473 H   0  0  0  0  0  0  0  0  0  0  0  0
   -0.9218   21.1703  -29.2916 H   0  0  0  0  0  0  0  0  0  0  0  0
   -0.4090   22.8918  -29.2916 H   0  0  0  0  0  0  0  0  0  0  0  0
  1  2  1  0
  2  3  1  0
  3  4  1  0
  4  5  1  0
  5  6  1  0
  6  7  1  0
  7  8  1  0
  8  9  1  0
  9 10  1  0
 10 11  1  0
 11 12  1  0
 12 13  1  0
 13 14  1  0
  6 15  1  0
 15 16  2  0
 16 17  1  0
 17 18  2  0
 18 19  1  0
  4 20  2  0
 20 21  1  0
 21 22  1  0
 22 23  1  0
 22 24  1  0
 22 25  1  0
 21  2  2  0
 14  9  1  0
 19 15  1  0
  1 26  1  0
  1 27  1  0
  1 28  1  0
  5 29  1  0
  5 30  1  0
  7 31  1  0
  7 32  1  0
  8 33  1  0
  8 34  1  0
 10 35  1  0
 10 36  1  0
 11 37  1  0
 11 38  1  0
 12 39  1  0
 12 40  1  0
 13 41  1  0
 13 42  1  0
 14 43  1  0
 14 44  1  0
 17 45  1  0
 18 46  1  0
 23 47  1  0
 23 48  1  0
 23 49  1  0
 24 50  1  0
 24 51  1  0
 24 52  1  0
 25 53  1  0
 25 54  1  0
 25 55  1  0
M  END
>  <smiles>  (43) 
Cc1oc(CN(CCN2CCCCC2)c2nccs2)nc1C(C)(C)C

>  <score_type>  (43) 
oracle

>  <origin>  (43) 
adg

>  <m_score__min__energy>  (43) 
-8.3100000000000005

>  <m_primary>  (43) 
energy

$$$$
43:0
     RDKit          3D

 48 49  0  0  0  0  0  0  0  0999 V2000
    0.2420   20.8850  -36.1080 C   0  0  0  0  0  0  0  0  0  0  0  0
    0.5070   21.8030  -35.0490 N   0  0  0  0  0  0  0  0  0  0  0  0
    1.5080   22.7670  -35.3760 C   0  0  0  0  0  0  0  0  0  0  0  0
    0.6650   21.1880  -33.7460 C   0  0  0  0  0  0  0  0  0  0  0  0
   -0.6380   20.9380  -33.0640 C   0  0  0  0  0  0  0  0  0  0  0  0
   -1.8080   21.1150  -33.8720 N   0  0  0  0  0  0  0  0  0  0  0  0
   -3.1430   21.0520  -33.4400 C   0  0  0  0  0  0  0  0  0  0  0  0
   -3.8040   22.1000  -32.8430 C   0  0  0  0  0  0  0  0  0  0  0  0
   -5.1160   22.0210  -32.3970 C   0  0  0  0  0  0  0  0  0  0  0  0
   -5.8310   20.8270  -32.5460 C   0  0  0  0  0  0  0  0  0  0  0  0
   -7.1910   20.8280  -32.0520 C   0  0  0  0  0  0  0  0  0  0  0  0
   -7.8130   19.6570  -31.6000 C   0  0  0  0  0  0  0  0  0  0  0  0
   -9.0720   19.9380  -31.2150 N   0  0  0  0  0  0  0  0  0  0  0  0
   -9.2340   21.2500  -31.4200 C   0  0  0  0  0  0  0  0  0  0  0  0
   -8.1000   21.7890  -31.9250 N   0  0  0  0  0  0  0  0  0  0  0  0
   -7.9620   23.1780  -32.2340 C   0  0  0  0  0  0  0  0  0  0  0  0
   -7.1120   23.7750  -31.1460 C   0  0  0  0  0  0  0  0  0  0  0  0
   -7.3690   23.3780  -29.9600 O   0  0  0  0  0  0  0  0  0  0  0  0
   -6.1000   24.7080  -31.4020 N   0  0  0  0  0  0  0  0  0  0  0  0
   -5.4940   25.2780  -30.4250 C   0  0  0  0  0  0  0  0  0  0  0  0
   -6.0770   25.5420  -29.1580 N   0  0  0  0  0  0  0  0  0  0  0  0
   -4.1370   25.6690  -30.6440 N   0  0  0  0  0  0  0  0  0  0  0  0
   -5.1790   19.7880  -33.1370 C   0  0  0  0  0  0  0  0  0  0  0  0
   -3.8730   19.8730  -33.5790 C   0  0  0  0  0  0  0  0  0  0  0  0
   -3.2450   18.7510  -34.1920 C   0  0  0  0  0  0  0  0  0  0  0  0
   -2.7160   17.8190  -34.6800 N   0  0  0  0  0  0  0  0  0  0  0  0
   -0.0397   19.9092  -35.6855 H   0  0  0  0  0  0  0  0  0  0  0  0
   -0.5823   21.2680  -36.7276 H   0  0  0  0  0  0  0  0  0  0  0  0
    1.1436   20.7698  -36.7276 H   0  0  0  0  0  0  0  0  0  0  0  0
    1.9362   23.1794  -34.4505 H   0  0  0  0  0  0  0  0  0  0  0  0
    2.3026   22.2853  -35.9647 H   0  0  0  0  0  0  0  0  0  0  0  0
    1.0565   23.5791  -35.9647 H   0  0  0  0  0  0  0  0  0  0  0  0
    1.1862   20.2275  -33.8714 H   0  0  0  0  0  0  0  0  0  0  0  0
    1.2397   21.8846  -33.1180 H   0  0  0  0  0  0  0  0  0  0  0  0
   -0.6341   19.9006  -32.6982 H   0  0  0  0  0  0  0  0  0  0  0  0
   -0.7080   21.6928  -32.2669 H   0  0  0  0  0  0  0  0  0  0  0  0
   -1.6320   21.3150  -34.9030 H   0  0  0  0  0  0  0  0  0  0  0  0
   -3.2650   23.0499  -32.7122 H   0  0  0  0  0  0  0  0  0  0  0  0
   -5.5925   22.8943  -31.9277 H   0  0  0  0  0  0  0  0  0  0  0  0
   -7.3452   18.6621  -31.5651 H   0  0  0  0  0  0  0  0  0  0  0  0
  -10.1566   21.8104  -31.2084 H   0  0  0  0  0  0  0  0  0  0  0  0
   -7.4721   23.3032  -33.2109 H   0  0  0  0  0  0  0  0  0  0  0  0
   -8.9429   23.6727  -32.2891 H   0  0  0  0  0  0  0  0  0  0  0  0
   -6.1980   24.7890  -28.4270 H   0  0  0  0  0  0  0  0  0  0  0  0
   -6.4040   26.4800  -28.8990 H   0  0  0  0  0  0  0  0  0  0  0  0
   -3.5290   26.0490  -29.8630 H   0  0  0  0  0  0  0  0  0  0  0  0
   -3.6630   25.6070  -31.5720 H   0  0  0  0  0  0  0  0  0  0  0  0
   -5.7168   18.8375  -33.2685 H   0  0  0  0  0  0  0  0  0  0  0  0
  1  2  1  0
  2  3  1  0
  2  4  1  0
  4  5  1  0
  5  6  1  0
  6  7  1  0
  7  8  2  0
  8  9  1  0
  9 10  2  0
 10 11  1  0
 11 12  2  0
 12 13  1  0
 13 14  2  0
 14 15  1  0
 15 16  1  0
 16 17  1  0
 17 18  2  0
 17 19  1  0
 19 20  2  3
 20 21  1  0
 20 22  1  0
 10 23  1  0
 23 24  2  0
 24 25  1  0
 25 26  3  0
 24  7  1  0
 15 11  1  0
  1 27  1  0
  1 28  1  0
  1 29  1  0
  3 30  1  0
  3 31  1  0
  3 32  1  0
  4 33  1  0
  4 34  1  0
  5 35  1  0
  5 36  1  0
  6 37  1  0
  8 38  1  0
  9 39  1  0
 12 40  1  0
 14 41  1  0
 16 42  1  0
 16 43  1  0
 21 44  1  0
 21 45  1  0
 22 46  1  0
 22 47  1  0
 23 48  1  0
M  END
>  <smiles>  (44) 
CN(C)CCNc1ccc(-c2cncn2CC(=O)N=C(N)N)cc1C#N

>  <score_type>  (44) 
oracle

>  <origin>  (44) 
adg

>  <m_score__min__energy>  (44) 
-8.6999999999999993

>  <m_primary>  (44) 
energy

$$$$
44:0
     RDKit          3D

 37 40  0  0  0  0  0  0  0  0999 V2000
   -2.4510   24.0670  -28.9990 Cl  0  0  0  0  0  0  0  0  0  0  0  0
   -3.9200   24.0470  -29.9760 C   0  0  0  0  0  0  0  0  0  0  0  0
   -4.6110   25.2350  -30.0930 C   0  0  0  0  0  0  0  0  0  0  0  0
   -5.7710   25.3030  -30.8410 C   0  0  0  0  0  0  0  0  0  0  0  0
   -6.1920   24.1360  -31.4550 C   0  0  0  0  0  0  0  0  0  0  0  0
   -5.5140   22.9420  -31.3490 C   0  0  0  0  0  0  0  0  0  0  0  0
   -5.9440   21.7030  -31.9710 C   0  0  0  0  0  0  0  0  0  0  0  0
   -4.9690   20.8700  -32.5330 C   0  0  0  0  0  0  0  0  0  0  0  0
   -5.2940   19.6910  -33.1690 C   0  0  0  0  0  0  0  0  0  0  0  0
   -4.3080   18.8010  -33.7670 C   0  0  0  0  0  0  0  0  0  0  0  0
   -4.7510   17.7470  -34.5370 C   0  0  0  0  0  0  0  0  0  0  0  0
   -3.8690   16.8510  -35.1430 C   0  0  0  0  0  0  0  0  0  0  0  0
   -2.4990   17.0010  -34.9810 C   0  0  0  0  0  0  0  0  0  0  0  0
   -2.0650   18.0620  -34.2060 C   0  0  0  0  0  0  0  0  0  0  0  0
   -2.9490   18.9510  -33.6050 C   0  0  0  0  0  0  0  0  0  0  0  0
   -6.5850   19.3210  -33.2540 N   0  0  0  0  0  0  0  0  0  0  0  0
   -7.5300   20.1190  -32.7130 C   0  0  0  0  0  0  0  0  0  0  0  0
   -8.8440   19.7090  -32.8090 C   0  0  0  0  0  0  0  0  0  0  0  0
   -9.8580   20.4870  -32.2620 C   0  0  0  0  0  0  0  0  0  0  0  0
   -9.5670   21.6830  -31.6120 C   0  0  0  0  0  0  0  0  0  0  0  0
   -8.2490   22.0790  -31.5250 C   0  0  0  0  0  0  0  0  0  0  0  0
   -7.2550   21.2990  -32.0720 C   0  0  0  0  0  0  0  0  0  0  0  0
   -4.3390   22.8740  -30.5910 C   0  0  0  0  0  0  0  0  0  0  0  0
   -4.2354   26.1363  -29.5864 H   0  0  0  0  0  0  0  0  0  0  0  0
   -6.3344   26.2422  -30.9438 H   0  0  0  0  0  0  0  0  0  0  0  0
   -7.1125   24.1637  -32.0566 H   0  0  0  0  0  0  0  0  0  0  0  0
   -3.9116   21.1654  -32.4649 H   0  0  0  0  0  0  0  0  0  0  0  0
   -5.8330   17.6078  -34.6782 H   0  0  0  0  0  0  0  0  0  0  0  0
   -4.2614   16.0228  -35.7514 H   0  0  0  0  0  0  0  0  0  0  0  0
   -1.7874   16.3051  -35.4494 H   0  0  0  0  0  0  0  0  0  0  0  0
   -0.9843   18.2069  -34.0605 H   0  0  0  0  0  0  0  0  0  0  0  0
   -2.5599   19.7801  -32.9957 H   0  0  0  0  0  0  0  0  0  0  0  0
   -9.0894   18.7657  -33.3188 H   0  0  0  0  0  0  0  0  0  0  0  0
  -10.9030   20.1534  -32.3438 H   0  0  0  0  0  0  0  0  0  0  0  0
  -10.3694   22.2977  -31.1780 H   0  0  0  0  0  0  0  0  0  0  0  0
   -7.9912   23.0202  -31.0174 H   0  0  0  0  0  0  0  0  0  0  0  0
   -3.7741   21.9358  -30.4873 H   0  0  0  0  0  0  0  0  0  0  0  0
  1  2  1  0
  2  3  2  0
  3  4  1  0
  4  5  2  0
  5  6  1  0
  6  7  1  0
  7  8  2  0
  8  9  1  0
  9 10  1  0
 10 11  2  0
 11 12  1  0
 12 13  2  0
 13 14  1  0
 14 15  2  0
  9 16  2  0
 16 17  1  0
 17 18  2  0
 18 19  1  0
 19 20  2  0
 20 21  1  0
 21 22  2  0
  6 23  2  0
 23  2  1  0
 22  7  1  0
 15 10  1  0
 22 17  1  0
  3 24  1  0
  4 25  1  0
  5 26  1  0
  8 27  1  0
 11 28  1  0
 12 29  1  0
 13 30  1  0
 14 31  1  0
 15 32  1  0
 18 33  1  0
 19 34  1  0
 20 35  1  0
 21 36  1  0
 23 37  1  0
M  END
>  <smiles>  (45) 
Clc1cccc(-c2cc(-c3ccccc3)nc3ccccc23)c1

>  <score_type>  (45) 
oracle

>  <origin>  (45) 
adg

>  <m_score__min__energy>  (45) 
-9.0500000000000007

>  <m_primary>  (45) 
energy

$$$$
45:0
     RDKit          3D

 31 33  0  0  0  0  0  0  0  0999 V2000
   -2.2450   24.6040  -28.7450 C   0  0  0  0  0  0  0  0  0  0  0  0
   -3.1040   25.1060  -29.7400 O   0  0  0  0  0  0  0  0  0  0  0  0
   -4.1480   24.3010  -30.1750 C   0  0  0  0  0  0  0  0  0  0  0  0
   -5.4530   24.5330  -29.7260 C   0  0  0  0  0  0  0  0  0  0  0  0
   -6.5080   23.7340  -30.1550 C   0  0  0  0  0  0  0  0  0  0  0  0
   -6.2660   22.7020  -31.0330 C   0  0  0  0  0  0  0  0  0  0  0  0
   -7.3050   21.8130  -31.5360 C   0  0  0  0  0  0  0  0  0  0  0  0
   -8.5780   22.0890  -31.9630 C   0  0  0  0  0  0  0  0  0  0  0  0
   -9.1930   23.4420  -32.0000 C   0  0  0  0  0  0  0  0  0  0  0  0
   -9.1620   20.9390  -32.3370 N   0  0  0  0  0  0  0  0  0  0  0  0
   -8.2670   19.9230  -32.1510 C   0  0  0  0  0  0  0  0  0  0  0  0
   -8.3170   18.5600  -32.3600 C   0  0  0  0  0  0  0  0  0  0  0  0
   -7.2380   17.7430  -32.0790 C   0  0  0  0  0  0  0  0  0  0  0  0
   -6.1100   18.3660  -31.5790 C   0  0  0  0  0  0  0  0  0  0  0  0
   -6.1010   19.6960  -31.3910 N   0  0  0  0  0  0  0  0  0  0  0  0
   -7.1470   20.4640  -31.6660 N   0  0  0  0  0  0  0  0  0  0  0  0
   -4.9740   22.4470  -31.4970 C   0  0  0  0  0  0  0  0  0  0  0  0
   -3.9410   23.2520  -31.0580 C   0  0  0  0  0  0  0  0  0  0  0  0
   -2.6543   24.8432  -27.7524 H   0  0  0  0  0  0  0  0  0  0  0  0
   -2.1577   23.5127  -28.8524 H   0  0  0  0  0  0  0  0  0  0  0  0
   -1.2514   25.0636  -28.8524 H   0  0  0  0  0  0  0  0  0  0  0  0
   -5.6471   25.3579  -29.0247 H   0  0  0  0  0  0  0  0  0  0  0  0
   -7.5294   23.9259  -29.7947 H   0  0  0  0  0  0  0  0  0  0  0  0
   -9.3554   23.7992  -30.9724 H   0  0  0  0  0  0  0  0  0  0  0  0
   -8.5217   24.1356  -32.5275 H   0  0  0  0  0  0  0  0  0  0  0  0
  -10.1570   23.3923  -32.5275 H   0  0  0  0  0  0  0  0  0  0  0  0
   -9.2386   18.1124  -32.7603 H   0  0  0  0  0  0  0  0  0  0  0  0
   -7.2750   16.6561  -32.2443 H   0  0  0  0  0  0  0  0  0  0  0  0
   -5.2176   17.7712  -31.3345 H   0  0  0  0  0  0  0  0  0  0  0  0
   -4.7826   21.6214  -32.1982 H   0  0  0  0  0  0  0  0  0  0  0  0
   -2.9214   23.0546  -31.4205 H   0  0  0  0  0  0  0  0  0  0  0  0
  1  2  1  0
  2  3  1  0
  3  4  2  0
  4  5  1  0
  5  6  2  0
  6  7  1  0
  7  8  2  0
  8  9  1  0
  8 10  1  0
 10 11  2  0
 11 12  1  0
 12 13  2  0
 13 14  1  0
 14 15  2  0
 15 16  1  0
  6 17  1  0
 17 18  2  0
 18  3  1  0
 16  7  1  0
 16 11  1  0
  1 19  1  0
  1 20  1  0
  1 21  1  0
  4 22  1  0
  5 23  1  0
  9 24  1  0
  9 25  1  0
  9 26  1  0
 12 27  1  0
 13 28  1  0
 14 29  1  0
 17 30  1  0
 18 31  1  0
M  END
>  <smiles>  (46) 
COc1ccc(-c2c(C)nc3cccnn23)cc1

>  <score_type>  (46) 
oracle

>  <origin>  (46) 
adg

>  <m_score__min__energy>  (46) 
-7.5800000000000001

>  <m_primary>  (46) 
energy

$$$$
