0:0
     RDKit          3D

 49 50  0  0  0  0  0  0  0  0999 V2000
   -6.8520   17.2690  -33.5190 C   0  0  0  0  0  0  0  0  0  0  0  0
   -6.9810   17.5210  -32.0180 C   0  0  0  0  0  0  0  0  0  0  0  0
   -7.2290   18.9540  -31.7240 N   0  0  0  0  0  0  0  0  0  0  0  0
   -8.6570   19.2770  -31.4700 C   0  0  0  0  0  0  0  0  0  0  0  0
   -9.4420   19.7040  -32.7200 C   0  0  0  0  0  0  0  0  0  0  0  0
   -6.5980   19.8540  -32.7280 C   0  0  0  0  0  0  0  0  0  0  0  0
   -5.2550   20.3110  -32.2950 N   0  0  1  0  0  0  0  0  0  0  0  0
   -4.2110   19.4380  -32.7450 C   0  0  0  0  0  0  0  0  0  0  0  0
   -4.1800   18.2520  -32.4510 O   0  0  0  0  0  0  0  0  0  0  0  0
   -3.1150   20.0900  -33.4920 C   0  0  0  0  0  0  0  0  0  0  0  0
   -3.4030   21.5670  -33.2850 C   0  0  0  0  0  0  0  0  0  0  0  0
   -4.8760   21.6440  -32.8290 C   0  0  2  0  0  0  0  0  0  0  0  0
   -5.1130   22.7630  -31.8170 C   0  0  0  0  0  0  0  0  0  0  0  0
   -4.0140   23.4080  -31.2140 C   0  0  0  0  0  0  0  0  0  0  0  0
   -4.2030   24.4350  -30.2730 C   0  0  0  0  0  0  0  0  0  0  0  0
   -3.1320   25.0950  -29.6530 O   0  0  0  0  0  0  0  0  0  0  0  0
   -2.3850   24.5700  -28.5590 C   0  0  0  0  0  0  0  0  0  0  0  0
   -5.5010   24.8170  -29.9340 C   0  0  0  0  0  0  0  0  0  0  0  0
   -6.6010   24.1930  -30.5220 C   0  0  0  0  0  0  0  0  0  0  0  0
   -6.4230   23.1640  -31.4670 C   0  0  0  0  0  0  0  0  0  0  0  0
   -7.5220   22.5310  -32.0720 O   0  0  0  0  0  0  0  0  0  0  0  0
   -8.8720   22.9680  -31.9690 C   0  0  0  0  0  0  0  0  0  0  0  0
   -6.3567   16.3013  -33.6871 H   0  0  0  0  0  0  0  0  0  0  0  0
   -7.8527   17.2528  -33.9754 H   0  0  0  0  0  0  0  0  0  0  0  0
   -6.2537   18.0713  -33.9754 H   0  0  0  0  0  0  0  0  0  0  0  0
   -7.8195   16.9261  -31.6269 H   0  0  0  0  0  0  0  0  0  0  0  0
   -6.0351   17.2300  -31.5378 H   0  0  0  0  0  0  0  0  0  0  0  0
   -9.1418   18.3848  -31.0471 H   0  0  0  0  0  0  0  0  0  0  0  0
   -8.6677   20.1362  -30.7832 H   0  0  0  0  0  0  0  0  0  0  0  0
  -10.3704   20.2090  -32.4151 H   0  0  0  0  0  0  0  0  0  0  0  0
   -8.8296   20.3933  -33.3199 H   0  0  0  0  0  0  0  0  0  0  0  0
   -9.6879   18.8154  -33.3199 H   0  0  0  0  0  0  0  0  0  0  0  0
   -6.4991   19.3112  -33.6796 H   0  0  0  0  0  0  0  0  0  0  0  0
   -7.2393   20.7405  -32.8416 H   0  0  0  0  0  0  0  0  0  0  0  0
   -5.2340   20.2990  -31.2480 H   0  0  0  0  0  0  0  0  0  0  0  0
   -2.1339   19.8152  -33.0774 H   0  0  0  0  0  0  0  0  0  0  0  0
   -3.0742   19.7973  -34.5516 H   0  0  0  0  0  0  0  0  0  0  0  0
   -2.7398   21.9827  -32.5121 H   0  0  0  0  0  0  0  0  0  0  0  0
   -3.2308   22.1474  -34.2034 H   0  0  0  0  0  0  0  0  0  0  0  0
   -5.5172   21.8972  -33.6862 H   0  0  0  0  0  0  0  0  0  0  0  0
   -2.9923   23.1028  -31.4842 H   0  0  0  0  0  0  0  0  0  0  0  0
   -2.8442   24.8927  -27.6130 H   0  0  0  0  0  0  0  0  0  0  0  0
   -2.3835   23.4712  -28.6097 H   0  0  0  0  0  0  0  0  0  0  0  0
   -1.3506   24.9408  -28.6097 H   0  0  0  0  0  0  0  0  0  0  0  0
   -5.6584   25.6176  -29.1963 H   0  0  0  0  0  0  0  0  0  0  0  0
   -7.6179   24.5077  -30.2449 H   0  0  0  0  0  0  0  0  0  0  0  0
   -9.1485   23.0575  -30.9081 H   0  0  0  0  0  0  0  0  0  0  0  0
   -8.9790   23.9467  -32.4596 H   0  0  0  0  0  0  0  0  0  0  0  0
   -9.5322   22.2377  -32.4596 H   0  0  0  0  0  0  0  0  0  0  0  0
  1  2  1  0
  2  3  1  0
  3  4  1  0
  4  5  1  0
  3  6  1  0
  6  7  1  0
  7  8  1  0
  8  9  2  0
  8 10  1  0
 10 11  1  0
 11 12  1  0
 12 13  1  0
 13 14  2  0
 14 15  1  0
 15 16  1  0
 16 17  1  0
 15 18  2  0
 18 19  1  0
 19 20  2  0
 20 21  1  0
 21 22  1  0
 12  7  1  0
 20 13  1  0
  1 23  1  0
  1 24  1  0
  1 25  1  0
  2 26  1  0
  2 27  1  0
  4 28  1  0
  4 29  1  0
  5 30  1  0
  5 31  1  0
  5 32  1  0
  6 33  1  0
  6 34  1  0
  7 35  1  1
 10 36  1  0
 10 37  1  0
 11 38  1  0
 11 39  1  0
 12 40  1  6
 14 41  1  0
 17 42  1  0
 17 43  1  0
 17 44  1  0
 18 45  1  0
 19 46  1  0
 22 47  1  0
 22 48  1  0
 22 49  1  0
M  CHG  1   7   1
M  END
>  <UniqueID>  (1) 
1

>  <SMILES>  (1) 
CCN(CC)C[N@H+]1C(=O)CC[C@@H]1c1cc(OC)ccc1OC

>  <Energy>  (1) 
57.64546934442779

>  <Genealogy>  (1) 
CCN(CC)C[NH+]1C(=O)CCC1c1cc(OC)ccc1OC (protonated)
CCN(CC)C[N@H+]1C(=O)CC[C@@H]1c1cc(OC)ccc1OC (chirality)
CCN(CC)C[N@H+]1C(=O)CC[C@@H]1c1cc(OC)ccc1OC (3D coordinates assigned)
CCN(CC)C[N@H+]1C(=O)CC[C@@H]1c1cc(OC)ccc1OC (nonaromatic ring conformer: 57.64546934442779 kcal/mol)

>  <smiles>  (1) 
CCN(CC)CN1C(=O)CCC1c1cc(OC)ccc1OC

>  <score_type>  (1) 
oracle

>  <origin>  (1) 
adg

>  <m_score__min__energy>  (1) 
-6.5300000000000002

>  <m_primary>  (1) 
energy

$$$$
1:0
     RDKit          3D

 48 51  0  0  0  0  0  0  0  0999 V2000
   -3.1690   18.9270  -26.3010 C   0  0  0  0  0  0  0  0  0  0  0  0
   -1.7240   18.9910  -26.7860 C   0  0  0  0  0  0  0  0  0  0  0  0
   -1.4250   20.3340  -27.3320 N   0  0  0  0  0  0  0  0  0  0  0  0
   -2.6270   21.0440  -27.8120 C   0  0  0  0  0  0  0  0  0  0  0  0
   -3.1190   20.5040  -29.1680 C   0  0  0  0  0  0  0  0  0  0  0  0
   -2.0530   20.4980  -30.1920 N   0  0  0  0  0  0  0  0  0  0  0  0
   -1.7700   21.8380  -30.7550 C   0  0  0  0  0  0  0  0  0  0  0  0
   -2.2470   21.9130  -32.2090 C   0  0  0  0  0  0  0  0  0  0  0  0
   -3.6750   21.5690  -32.3050 N   0  0  0  0  0  0  0  0  0  0  0  0
   -4.6870   22.5160  -31.9120 C   0  0  0  0  0  0  0  0  0  0  0  0
   -4.3600   23.6830  -31.5590 O   0  0  0  0  0  0  0  0  0  0  0  0
   -6.1140   22.1200  -31.9170 C   0  0  0  0  0  0  0  0  0  0  0  0
   -7.1100   23.0350  -31.5340 C   0  0  0  0  0  0  0  0  0  0  0  0
   -8.4550   22.6630  -31.5370 C   0  0  0  0  0  0  0  0  0  0  0  0
   -8.8270   21.3750  -31.9210 C   0  0  0  0  0  0  0  0  0  0  0  0
   -7.8530   20.4440  -32.3070 C   0  0  0  0  0  0  0  0  0  0  0  0
   -8.2290   19.1500  -32.6920 C   0  0  0  0  0  0  0  0  0  0  0  0
   -7.2600   18.2230  -33.0750 C   0  0  0  0  0  0  0  0  0  0  0  0
   -5.9100   18.5750  -33.0770 C   0  0  0  0  0  0  0  0  0  0  0  0
   -5.5070   19.8680  -32.6950 C   0  0  0  0  0  0  0  0  0  0  0  0
   -6.4830   20.8130  -32.3070 C   0  0  0  0  0  0  0  0  0  0  0  0
   -4.0740   20.2410  -32.6960 C   0  0  0  0  0  0  0  0  0  0  0  0
   -3.2040   19.3920  -33.0350 O   0  0  0  0  0  0  0  0  0  0  0  0
   -0.8480   19.7940  -29.7160 C   0  0  0  0  0  0  0  0  0  0  0  0
   -0.3600   20.3300  -28.3570 C   0  0  0  0  0  0  0  0  0  0  0  0
   -3.1869   18.9262  -25.2011 H   0  0  0  0  0  0  0  0  0  0  0  0
   -3.7207   19.8016  -26.6761 H   0  0  0  0  0  0  0  0  0  0  0  0
   -3.6413   18.0071  -26.6761 H   0  0  0  0  0  0  0  0  0  0  0  0
   -1.0486   18.7833  -25.9430 H   0  0  0  0  0  0  0  0  0  0  0  0
   -1.5787   18.2419  -27.5783 H   0  0  0  0  0  0  0  0  0  0  0  0
   -3.4300   20.9228  -27.0700 H   0  0  0  0  0  0  0  0  0  0  0  0
   -2.3625   22.1033  -27.9462 H   0  0  0  0  0  0  0  0  0  0  0  0
   -3.4805   19.4745  -29.0282 H   0  0  0  0  0  0  0  0  0  0  0  0
   -3.9211   21.1680  -29.5225 H   0  0  0  0  0  0  0  0  0  0  0  0
   -2.2953   22.6001  -30.1606 H   0  0  0  0  0  0  0  0  0  0  0  0
   -0.6854   22.0186  -30.7235 H   0  0  0  0  0  0  0  0  0  0  0  0
   -2.0953   22.9349  -32.5868 H   0  0  0  0  0  0  0  0  0  0  0  0
   -1.6685   21.1952  -32.8091 H   0  0  0  0  0  0  0  0  0  0  0  0
   -6.8267   24.0533  -31.2292 H   0  0  0  0  0  0  0  0  0  0  0  0
   -9.2248   23.3886  -31.2353 H   0  0  0  0  0  0  0  0  0  0  0  0
   -9.8891   21.0886  -31.9209 H   0  0  0  0  0  0  0  0  0  0  0  0
   -9.2914   18.8647  -32.6921 H   0  0  0  0  0  0  0  0  0  0  0  0
   -7.5616   17.2092  -33.3770 H   0  0  0  0  0  0  0  0  0  0  0  0
   -5.1541   17.8354  -33.3798 H   0  0  0  0  0  0  0  0  0  0  0  0
   -1.0807   18.7240  -29.6119 H   0  0  0  0  0  0  0  0  0  0  0  0
   -0.0472   19.9597  -30.4517 H   0  0  0  0  0  0  0  0  0  0  0  0
    0.4662   19.6954  -28.0041 H   0  0  0  0  0  0  0  0  0  0  0  0
   -0.0370   21.3709  -28.5059 H   0  0  0  0  0  0  0  0  0  0  0  0
  1  2  1  0
  2  3  1  0
  3  4  1  0
  4  5  1  0
  5  6  1  0
  6  7  1  0
  7  8  1  0
  8  9  1  0
  9 10  1  0
 10 11  2  0
 10 12  1  0
 12 13  2  0
 13 14  1  0
 14 15  2  0
 15 16  1  0
 16 17  2  0
 17 18  1  0
 18 19  2  0
 19 20  1  0
 20 21  2  0
 20 22  1  0
 22 23  2  0
  6 24  1  0
 24 25  1  0
 25  3  1  0
 22  9  1  0
 21 12  1  0
 21 16  1  0
  1 26  1  0
  1 27  1  0
  1 28  1  0
  2 29  1  0
  2 30  1  0
  4 31  1  0
  4 32  1  0
  5 33  1  0
  5 34  1  0
  7 35  1  0
  7 36  1  0
  8 37  1  0
  8 38  1  0
 13 39  1  0
 14 40  1  0
 15 41  1  0
 17 42  1  0
 18 43  1  0
 19 44  1  0
 24 45  1  0
 24 46  1  0
 25 47  1  0
 25 48  1  0
M  END
>  <UniqueID>  (2) 
2

>  <SMILES>  (2) 
CCN1CCN(CCN2C(=O)c3cccc4cccc(c34)C2=O)CC1

>  <Energy>  (2) 
61.564726653916146

>  <Genealogy>  (2) 
CCN1CCN(CCN2C(=O)c3cccc4cccc(c34)C2=O)CC1 (protonated)
CCN1CCN(CCN2C(=O)c3cccc4cccc(c34)C2=O)CC1 (3D coordinates assigned)
CCN1CCN(CCN2C(=O)c3cccc4cccc(c34)C2=O)CC1 (nonaromatic ring conformer: 61.564726653916146 kcal/mol)

>  <smiles>  (2) 
CC[N+]1CCN(CCN2C(=O)c3cccc4cccc(c34)C2=O)CC1

>  <score_type>  (2) 
oracle

>  <origin>  (2) 
adg

>  <m_score__min__energy>  (2) 
-8.9800000000000004

>  <m_primary>  (2) 
energy

$$$$
2:0
     RDKit          3D

 52 54  0  0  0  0  0  0  0  0999 V2000
   -8.6330   18.2790  -31.6690 C   0  0  0  0  0  0  0  0  0  0  0  0
   -7.7520   18.8650  -32.7720 C   0  0  0  0  0  0  0  0  0  0  0  0
   -7.9360   20.3280  -32.8940 N   0  0  0  0  0  0  0  0  0  0  0  0
   -6.6590   21.0550  -32.6790 C   0  0  0  0  0  0  0  0  0  0  0  0
   -6.5100   21.5660  -31.2360 C   0  0  0  0  0  0  0  0  0  0  0  0
   -7.6290   22.4530  -30.8430 N   0  0  0  0  0  0  0  0  0  0  0  0
   -7.2530   23.8680  -30.6300 C   0  0  0  0  0  0  0  0  0  0  0  0
   -6.0320   24.3300  -31.4590 C   0  0  0  0  0  0  0  0  0  0  0  0
   -5.2940   25.4880  -30.7770 C   0  0  0  0  0  0  0  0  0  0  0  0
   -3.8490   25.2920  -30.8180 N   0  0  0  0  0  0  0  0  0  0  0  0
   -3.1320   24.4750  -29.8870 C   0  0  0  0  0  0  0  0  0  0  0  0
   -2.2710   24.9830  -29.1200 O   0  0  0  0  0  0  0  0  0  0  0  0
   -3.3660   22.9980  -29.8650 C   0  0  0  0  0  0  0  0  0  0  0  0
   -2.7630   22.3740  -31.0530 N   0  0  0  0  0  0  0  0  0  0  0  0
   -3.4800   22.3360  -32.2180 C   0  0  0  0  0  0  0  0  0  0  0  0
   -2.9710   21.7470  -33.3300 N   0  0  0  0  0  0  0  0  0  0  0  0
   -1.7430   21.1690  -33.3160 C   0  0  0  0  0  0  0  0  0  0  0  0
   -1.2510   20.5830  -34.4400 N   0  0  0  0  0  0  0  0  0  0  0  0
   -0.0270   19.9900  -34.4610 C   0  0  0  0  0  0  0  0  0  0  0  0
    0.7630   19.9710  -33.3100 C   0  0  0  0  0  0  0  0  0  0  0  0
    0.2850   20.5640  -32.1400 C   0  0  0  0  0  0  0  0  0  0  0  0
   -0.9810   21.1740  -32.1340 C   0  0  0  0  0  0  0  0  0  0  0  0
   -1.5230   21.7880  -30.9920 C   0  0  0  0  0  0  0  0  0  0  0  0
   -0.8670   21.7980  -29.9120 O   0  0  0  0  0  0  0  0  0  0  0  0
   -8.8640   22.2830  -31.6380 C   0  0  0  0  0  0  0  0  0  0  0  0
   -9.0460   20.8140  -32.0330 C   0  0  0  0  0  0  0  0  0  0  0  0
   -8.2212   18.5529  -30.6865 H   0  0  0  0  0  0  0  0  0  0  0  0
   -9.6533   18.6790  -31.7634 H   0  0  0  0  0  0  0  0  0  0  0  0
   -8.6585   17.1834  -31.7634 H   0  0  0  0  0  0  0  0  0  0  0  0
   -6.6981   18.6558  -32.5364 H   0  0  0  0  0  0  0  0  0  0  0  0
   -8.0399   18.4004  -33.7266 H   0  0  0  0  0  0  0  0  0  0  0  0
   -5.8236   20.3745  -32.9006 H   0  0  0  0  0  0  0  0  0  0  0  0
   -6.6549   21.9295  -33.3462 H   0  0  0  0  0  0  0  0  0  0  0  0
   -6.4848   20.7029  -30.5545 H   0  0  0  0  0  0  0  0  0  0  0  0
   -5.5783   22.1477  -31.1762 H   0  0  0  0  0  0  0  0  0  0  0  0
   -8.1128   24.4982  -30.9012 H   0  0  0  0  0  0  0  0  0  0  0  0
   -6.9716   23.9648  -29.5710 H   0  0  0  0  0  0  0  0  0  0  0  0
   -5.3387   23.4840  -31.5758 H   0  0  0  0  0  0  0  0  0  0  0  0
   -6.3923   24.6797  -32.4377 H   0  0  0  0  0  0  0  0  0  0  0  0
   -5.5433   26.4262  -31.2943 H   0  0  0  0  0  0  0  0  0  0  0  0
   -5.6094   25.5290  -29.7240 H   0  0  0  0  0  0  0  0  0  0  0  0
   -2.9113   22.5708  -28.9590 H   0  0  0  0  0  0  0  0  0  0  0  0
   -4.4488   22.8045  -29.8665 H   0  0  0  0  0  0  0  0  0  0  0  0
   -4.4819   22.7887  -32.2538 H   0  0  0  0  0  0  0  0  0  0  0  0
   -3.5400   21.7380  -34.2070 H   0  0  0  0  0  0  0  0  0  0  0  0
    0.3413   19.5243  -35.3870 H   0  0  0  0  0  0  0  0  0  0  0  0
    1.7536   19.4929  -33.3249 H   0  0  0  0  0  0  0  0  0  0  0  0
    0.8971   20.5538  -31.2261 H   0  0  0  0  0  0  0  0  0  0  0  0
   -9.7280   22.6072  -31.0394 H   0  0  0  0  0  0  0  0  0  0  0  0
   -8.7875   22.8915  -32.5512 H   0  0  0  0  0  0  0  0  0  0  0  0
   -9.0811   20.2022  -31.1195 H   0  0  0  0  0  0  0  0  0  0  0  0
   -9.9820   20.7290  -32.6046 H   0  0  0  0  0  0  0  0  0  0  0  0
  1  2  1  0
  2  3  1  0
  3  4  1  0
  4  5  1  0
  5  6  1  0
  6  7  1  0
  7  8  1  0
  8  9  1  0
  9 10  1  0
 10 11  1  0
 11 12  2  0
 11 13  1  0
 13 14  1  0
 14 15  1  0
 15 16  2  0
 16 17  1  0
 17 18  2  0
 18 19  1  0
 19 20  2  0
 20 21  1  0
 21 22  2  0
 22 23  1  0
 23 24  2  0
  6 25  1  0
 25 26  1  0
 26  3  1  0
 23 14  1  0
 22 17  1  0
  1 27  1  0
  1 28  1  0
  1 29  1  0
  2 30  1  0
  2 31  1  0
  4 32  1  0
  4 33  1  0
  5 34  1  0
  5 35  1  0
  7 36  1  0
  7 37  1  0
  8 38  1  0
  8 39  1  0
  9 40  1  0
  9 41  1  0
 13 42  1  0
 13 43  1  0
 15 44  1  0
 16 45  1  0
 19 46  1  0
 20 47  1  0
 21 48  1  0
 25 49  1  0
 25 50  1  0
 26 51  1  0
 26 52  1  0
M  CHG  2  10  -1  16   1
M  END
>  <UniqueID>  (3) 
3

>  <SMILES>  (3) 
CCN1CCN(CCC[N-]C(=O)Cn2c[nH+]c3ncccc3c2=O)CC1

>  <Energy>  (3) 
66.99838181956221

>  <Genealogy>  (3) 
CCN1CCN(CCC[N-]C(=O)Cn2c[nH+]c3ncccc3c2=O)CC1 (protonated)
CCN1CCN(CCC[N-]C(=O)Cn2c[nH+]c3ncccc3c2=O)CC1 (3D coordinates assigned)
CCN1CCN(CCC[N-]C(=O)Cn2c[nH+]c3ncccc3c2=O)CC1 (nonaromatic ring conformer: 66.99838181956221 kcal/mol)

>  <smiles>  (3) 
CCN1CCN(CCCNC(=O)Cn2cnc3ncccc3c2=O)CC1

>  <score_type>  (3) 
oracle

>  <origin>  (3) 
adg

>  <m_score__min__energy>  (3) 
-9.9399999999999995

>  <m_primary>  (3) 
energy

$$$$
3:0
     RDKit          3D

 48 49  0  0  0  0  0  0  0  0999 V2000
   -7.8070   22.2990  -29.8750 C   0  0  0  0  0  0  0  0  0  0  0  0
   -6.2890   22.3220  -30.1050 C   0  0  0  0  0  0  0  0  0  0  0  0
   -5.8860   23.1710  -31.2580 N   0  0  2  0  0  0  0  0  0  0  0  0
   -6.3120   24.5820  -31.0170 C   0  0  0  0  0  0  0  0  0  0  0  0
   -5.1500   25.4870  -30.6680 C   0  0  0  0  0  0  0  0  0  0  0  0
   -5.3640   26.7120  -30.4740 O   0  0  0  0  0  0  0  0  0  0  0  0
   -3.8050   25.0000  -30.5750 N   0  0  0  0  0  0  0  0  0  0  0  0
   -3.3600   23.9900  -29.6620 C   0  0  0  0  0  0  0  0  0  0  0  0
   -3.4990   24.2130  -28.2860 C   0  0  0  0  0  0  0  0  0  0  0  0
   -3.0430   23.2660  -27.3680 C   0  0  0  0  0  0  0  0  0  0  0  0
   -2.4610   22.0800  -27.8200 C   0  0  0  0  0  0  0  0  0  0  0  0
   -2.3510   21.8300  -29.1900 C   0  0  0  0  0  0  0  0  0  0  0  0
   -2.8150   22.7780  -30.1270 C   0  0  0  0  0  0  0  0  0  0  0  0
   -2.7680   22.5400  -31.5090 O   0  0  0  0  0  0  0  0  0  0  0  0
   -1.8610   21.6460  -32.1440 C   0  0  0  0  0  0  0  0  0  0  0  0
   -6.4590   22.6400  -32.5240 C   0  0  0  0  0  0  0  0  0  0  0  0
   -6.0850   21.1930  -32.7710 C   0  0  0  0  0  0  0  0  0  0  0  0
   -4.7600   20.8650  -33.1060 C   0  0  0  0  0  0  0  0  0  0  0  0
   -4.3920   19.5350  -33.3180 C   0  0  0  0  0  0  0  0  0  0  0  0
   -5.3410   18.5200  -33.2010 C   0  0  0  0  0  0  0  0  0  0  0  0
   -6.6630   18.8300  -32.8770 C   0  0  0  0  0  0  0  0  0  0  0  0
   -7.0510   20.1680  -32.6630 C   0  0  0  0  0  0  0  0  0  0  0  0
   -8.3750   20.5110  -32.3460 O   0  0  0  0  0  0  0  0  0  0  0  0
   -9.4930   19.6410  -32.4870 C   0  0  0  0  0  0  0  0  0  0  0  0
   -8.0142   22.2959  -28.7947 H   0  0  0  0  0  0  0  0  0  0  0  0
   -8.2608   23.1904  -30.3328 H   0  0  0  0  0  0  0  0  0  0  0  0
   -8.2335   21.3943  -30.3328 H   0  0  0  0  0  0  0  0  0  0  0  0
   -5.8034   22.7104  -29.1977 H   0  0  0  0  0  0  0  0  0  0  0  0
   -5.9760   21.2920  -30.3311 H   0  0  0  0  0  0  0  0  0  0  0  0
   -4.8440   23.1260  -31.3200 H   0  0  0  0  0  0  0  0  0  0  0  0
   -6.7960   24.9647  -31.9276 H   0  0  0  0  0  0  0  0  0  0  0  0
   -7.0033   24.5808  -30.1614 H   0  0  0  0  0  0  0  0  0  0  0  0
   -3.9703   25.1399  -27.9271 H   0  0  0  0  0  0  0  0  0  0  0  0
   -3.1420   23.4538  -26.2887 H   0  0  0  0  0  0  0  0  0  0  0  0
   -2.0883   21.3408  -27.0957 H   0  0  0  0  0  0  0  0  0  0  0  0
   -1.9005   20.8896  -29.5402 H   0  0  0  0  0  0  0  0  0  0  0  0
   -1.2977   21.0908  -31.3795 H   0  0  0  0  0  0  0  0  0  0  0  0
   -2.4226   20.9384  -32.7717 H   0  0  0  0  0  0  0  0  0  0  0  0
   -1.1616   22.2177  -32.7717 H   0  0  0  0  0  0  0  0  0  0  0  0
   -7.5552   22.7169  -32.4741 H   0  0  0  0  0  0  0  0  0  0  0  0
   -6.0476   23.2363  -33.3517 H   0  0  0  0  0  0  0  0  0  0  0  0
   -4.0077   21.6618  -33.2018 H   0  0  0  0  0  0  0  0  0  0  0  0
   -3.3521   19.2875  -33.5777 H   0  0  0  0  0  0  0  0  0  0  0  0
   -5.0472   17.4726  -33.3644 H   0  0  0  0  0  0  0  0  0  0  0  0
   -7.4069   18.0246  -32.7881 H   0  0  0  0  0  0  0  0  0  0  0  0
   -9.8620   19.3538  -31.4913 H   0  0  0  0  0  0  0  0  0  0  0  0
  -10.2920   20.1573  -33.0393 H   0  0  0  0  0  0  0  0  0  0  0  0
   -9.1888   18.7396  -33.0393 H   0  0  0  0  0  0  0  0  0  0  0  0
  1  2  1  0
  2  3  1  0
  3  4  1  0
  4  5  1  0
  5  6  2  0
  5  7  1  0
  7  8  1  0
  8  9  2  0
  9 10  1  0
 10 11  2  0
 11 12  1  0
 12 13  2  0
 13 14  1  0
 14 15  1  0
  3 16  1  0
 16 17  1  0
 17 18  2  0
 18 19  1  0
 19 20  2  0
 20 21  1  0
 21 22  2  0
 22 23  1  0
 23 24  1  0
 13  8  1  0
 22 17  1  0
  1 25  1  0
  1 26  1  0
  1 27  1  0
  2 28  1  0
  2 29  1  0
  3 30  1  6
  4 31  1  0
  4 32  1  0
  9 33  1  0
 10 34  1  0
 11 35  1  0
 12 36  1  0
 15 37  1  0
 15 38  1  0
 15 39  1  0
 16 40  1  0
 16 41  1  0
 18 42  1  0
 19 43  1  0
 20 44  1  0
 21 45  1  0
 24 46  1  0
 24 47  1  0
 24 48  1  0
M  CHG  2   3   1   7  -1
M  END
>  <UniqueID>  (4) 
4

>  <SMILES>  (4) 
CC[N@H+](CC(=O)[N-]c1ccccc1OC)Cc1ccccc1OC

>  <Energy>  (4) 
54.96836252490338

>  <Genealogy>  (4) 
CC[NH+](CC(=O)[N-]c1ccccc1OC)Cc1ccccc1OC (protonated)
CC[N@H+](CC(=O)[N-]c1ccccc1OC)Cc1ccccc1OC (chirality)
CC[N@H+](CC(=O)[N-]c1ccccc1OC)Cc1ccccc1OC (3D coordinates assigned)
CC[N@H+](CC(=O)[N-]c1ccccc1OC)Cc1ccccc1OC (optimized conformer: 54.96836252490338 kcal/mol)

>  <smiles>  (4) 
CCN(CC(=O)Nc1ccccc1OC)Cc1ccccc1OC

>  <score_type>  (4) 
oracle

>  <origin>  (4) 
adg

>  <m_score__min__energy>  (4) 
-8.6899999999999995

>  <m_primary>  (4) 
energy

$$$$
4:0
     RDKit          3D

 65 68  0  0  0  0  0  0  0  0999 V2000
   -9.4650   21.6080  -31.5290 C   0  0  0  0  0  0  0  0  0  0  0  0
   -8.4460   20.7730  -32.3090 C   0  0  0  0  0  0  0  0  0  0  0  0
   -8.9740   19.4530  -32.6850 N   0  0  0  0  0  0  0  0  0  0  0  0
   -8.4230   18.3490  -31.8730 C   0  0  0  0  0  0  0  0  0  0  0  0
   -6.9270   18.5520  -31.5660 C   0  0  0  0  0  0  0  0  0  0  0  0
   -6.0040   17.9020  -32.6110 C   0  0  0  0  0  0  0  0  0  0  0  0
   -6.1850   18.4680  -34.0220 C   0  0  0  0  0  0  0  0  0  0  0  0
   -5.0600   19.2680  -34.3780 O   0  0  0  0  0  0  0  0  0  0  0  0
   -4.3630   20.1020  -33.4930 C   0  0  0  0  0  0  0  0  0  0  0  0
   -2.9940   19.9440  -33.2360 C   0  0  0  0  0  0  0  0  0  0  0  0
   -2.3460   20.8000  -32.3500 C   0  0  0  0  0  0  0  0  0  0  0  0
   -3.0510   21.8260  -31.7020 C   0  0  0  0  0  0  0  0  0  0  0  0
   -2.3690   22.6660  -30.8210 C   0  0  0  0  0  0  0  0  0  0  0  0
   -3.0230   23.7050  -30.1480 C   0  0  0  0  0  0  0  0  0  0  0  0
   -2.2850   24.5230  -29.2180 N   0  0  0  0  0  0  0  0  0  0  0  0
   -0.9450   24.1700  -28.7470 C   0  0  0  0  0  0  0  0  0  0  0  0
   -0.6730   24.7180  -27.3420 C   0  0  0  0  0  0  0  0  0  0  0  0
   -1.5510   25.8820  -27.0620 N   0  0  0  0  0  0  0  0  0  0  0  0
   -0.7930   27.1400  -26.9790 C   0  0  0  0  0  0  0  0  0  0  0  0
   -0.3850   27.3260  -25.5320 C   0  0  0  0  0  0  0  0  0  0  0  0
   -1.4600   26.6130  -24.7410 C   0  0  0  0  0  0  0  0  0  0  0  0
   -2.2220   25.7630  -25.7550 C   0  0  0  0  0  0  0  0  0  0  0  0
   -4.4100   23.9010  -30.3570 C   0  0  0  0  0  0  0  0  0  0  0  0
   -5.0910   24.9540  -29.7080 C   0  0  0  0  0  0  0  0  0  0  0  0
   -6.4540   25.1510  -29.9010 C   0  0  0  0  0  0  0  0  0  0  0  0
   -7.1670   24.3120  -30.7460 C   0  0  0  0  0  0  0  0  0  0  0  0
   -6.5210   23.2740  -31.4150 C   0  0  0  0  0  0  0  0  0  0  0  0
   -5.1310   23.0470  -31.2490 C   0  0  0  0  0  0  0  0  0  0  0  0
   -4.4390   22.0020  -31.9350 C   0  0  0  0  0  0  0  0  0  0  0  0
   -5.0720   21.1220  -32.8490 C   0  0  0  0  0  0  0  0  0  0  0  0
   -9.3004   21.4731  -30.4498 H   0  0  0  0  0  0  0  0  0  0  0  0
   -9.3441   22.6701  -31.7884 H   0  0  0  0  0  0  0  0  0  0  0  0
  -10.4826   21.2807  -31.7884 H   0  0  0  0  0  0  0  0  0  0  0  0
   -8.1700   21.3170  -33.2244 H   0  0  0  0  0  0  0  0  0  0  0  0
   -7.5744   20.6127  -31.6574 H   0  0  0  0  0  0  0  0  0  0  0  0
   -8.8390   19.2920  -33.7100 H   0  0  0  0  0  0  0  0  0  0  0  0
   -8.9766   18.2951  -30.9240 H   0  0  0  0  0  0  0  0  0  0  0  0
   -8.5294   17.4173  -32.4480 H   0  0  0  0  0  0  0  0  0  0  0  0
   -6.7186   19.6317  -31.5378 H   0  0  0  0  0  0  0  0  0  0  0  0
   -6.7214   18.0681  -30.5998 H   0  0  0  0  0  0  0  0  0  0  0  0
   -4.9606   18.0634  -32.3023 H   0  0  0  0  0  0  0  0  0  0  0  0
   -6.2659   16.8345  -32.6546 H   0  0  0  0  0  0  0  0  0  0  0  0
   -6.2818   17.6378  -34.7372 H   0  0  0  0  0  0  0  0  0  0  0  0
   -7.0913   19.0910  -34.0460 H   0  0  0  0  0  0  0  0  0  0  0  0
   -2.4307   19.1420  -33.7355 H   0  0  0  0  0  0  0  0  0  0  0  0
   -1.2710   20.6710  -32.1559 H   0  0  0  0  0  0  0  0  0  0  0  0
   -1.2936   22.5084  -30.6515 H   0  0  0  0  0  0  0  0  0  0  0  0
   -2.8130   25.2420  -28.6740 H   0  0  0  0  0  0  0  0  0  0  0  0
   -0.8522   23.0741  -28.7259 H   0  0  0  0  0  0  0  0  0  0  0  0
   -0.2121   24.6156  -29.4357 H   0  0  0  0  0  0  0  0  0  0  0  0
   -0.8694   23.9292  -26.6009 H   0  0  0  0  0  0  0  0  0  0  0  0
    0.3770   25.0402  -27.2816 H   0  0  0  0  0  0  0  0  0  0  0  0
    0.1008   27.0837  -27.6178 H   0  0  0  0  0  0  0  0  0  0  0  0
   -1.4053   27.9868  -27.3227 H   0  0  0  0  0  0  0  0  0  0  0  0
    0.6001   26.8739  -25.3445 H   0  0  0  0  0  0  0  0  0  0  0  0
   -0.2961   28.3869  -25.2554 H   0  0  0  0  0  0  0  0  0  0  0  0
   -1.0078   25.9746  -23.9678 H   0  0  0  0  0  0  0  0  0  0  0  0
   -2.1235   27.3228  -24.2252 H   0  0  0  0  0  0  0  0  0  0  0  0
   -2.2223   24.7114  -25.4322 H   0  0  0  0  0  0  0  0  0  0  0  0
   -3.2628   26.1105  -25.8322 H   0  0  0  0  0  0  0  0  0  0  0  0
   -4.5352   25.6284  -29.0399 H   0  0  0  0  0  0  0  0  0  0  0  0
   -6.9683   25.9737  -29.3827 H   0  0  0  0  0  0  0  0  0  0  0  0
   -8.2467   24.4670  -30.8883 H   0  0  0  0  0  0  0  0  0  0  0  0
   -7.0994   22.6193  -32.0835 H   0  0  0  0  0  0  0  0  0  0  0  0
   -6.1453   21.2440  -33.0566 H   0  0  0  0  0  0  0  0  0  0  0  0
  1  2  1  0
  2  3  1  0
  3  4  1  0
  4  5  1  0
  5  6  1  0
  6  7  1  0
  7  8  1  0
  8  9  1  0
  9 10  2  0
 10 11  1  0
 11 12  2  0
 12 13  1  0
 13 14  2  0
 14 15  1  0
 15 16  1  0
 16 17  1  0
 17 18  1  0
 18 19  1  0
 19 20  1  0
 20 21  1  0
 21 22  1  0
 14 23  1  0
 23 24  2  0
 24 25  1  0
 25 26  2  0
 26 27  1  0
 27 28  2  0
 28 29  1  0
 29 30  2  0
 30  9  1  0
 29 12  1  0
 22 18  1  0
 28 23  1  0
  1 31  1  0
  1 32  1  0
  1 33  1  0
  2 34  1  0
  2 35  1  0
  3 36  1  0
  4 37  1  0
  4 38  1  0
  5 39  1  0
  5 40  1  0
  6 41  1  0
  6 42  1  0
  7 43  1  0
  7 44  1  0
 10 45  1  0
 11 46  1  0
 13 47  1  0
 15 48  1  0
 16 49  1  0
 16 50  1  0
 17 51  1  0
 17 52  1  0
 19 53  1  0
 19 54  1  0
 20 55  1  0
 20 56  1  0
 21 57  1  0
 21 58  1  0
 22 59  1  0
 22 60  1  0
 24 61  1  0
 25 62  1  0
 26 63  1  0
 27 64  1  0
 30 65  1  0
M  END
>  <UniqueID>  (5) 
5

>  <SMILES>  (5) 
CCNCCCCOc1ccc2cc(NCCN3CCCC3)c3ccccc3c2c1

>  <Energy>  (5) 
81.83579596906526

>  <Genealogy>  (5) 
CCNCCCCOc1ccc2cc(NCCN3CCCC3)c3ccccc3c2c1 (3D coordinates assigned)
CCNCCCCOc1ccc2cc(NCCN3CCCC3)c3ccccc3c2c1 (nonaromatic ring conformer: 81.83579596906526 kcal/mol)

>  <smiles>  (5) 
CCNCCCCOc1ccc2cc(NCCN3CCCC3)c3ccccc3c2c1

>  <score_type>  (5) 
oracle

>  <origin>  (5) 
adg

>  <m_score__min__energy>  (5) 
-9.6799999999999997

>  <m_primary>  (5) 
energy

$$$$
5:0
     RDKit          3D

 32 32  0  0  0  0  0  0  0  0999 V2000
   -2.3146   25.9688  -26.0629 H   0  0  0  0  0  0  0  0  0  0  0  0
   -2.7410   25.0960  -26.5790 C   0  0  0  0  0  0  0  0  0  0  0  0
   -1.9260   24.2230  -27.1850 C   0  0  0  0  0  0  0  0  0  0  0  0
   -1.5961   23.3272  -26.6384 H   0  0  0  0  0  0  0  0  0  0  0  0
   -1.4520   24.4390  -28.5940 C   0  0  0  0  0  0  0  0  0  0  0  0
   -0.4655   24.9251  -28.5696 H   0  0  0  0  0  0  0  0  0  0  0  0
   -1.3918   23.4609  -29.0937 H   0  0  0  0  0  0  0  0  0  0  0  0
   -2.3800   25.2830  -29.3430 N   0  0  0  0  0  0  0  0  0  0  0  0
   -3.4870   24.8190  -30.1280 C   0  0  0  0  0  0  0  0  0  0  0  0
   -4.2690   25.6650  -30.6350 O   0  0  0  0  0  0  0  0  0  0  0  0
   -3.7750   23.3600  -30.3130 C   0  0  0  0  0  0  0  0  0  0  0  0
   -2.8319   22.7938  -30.3111 H   0  0  0  0  0  0  0  0  0  0  0  0
   -4.4123   22.9979  -29.4928 H   0  0  0  0  0  0  0  0  0  0  0  0
   -4.4400   23.1780  -31.5590 O   0  0  0  0  0  0  0  0  0  0  0  0
   -5.5530   22.3490  -31.7700 C   0  0  0  0  0  0  0  0  0  0  0  0
   -5.3380   21.1420  -32.4570 C   0  0  0  0  0  0  0  0  0  0  0  0
   -3.5900   20.6810  -33.0880 Br  0  0  0  0  0  0  0  0  0  0  0  0
   -6.3910   20.2490  -32.6700 C   0  0  0  0  0  0  0  0  0  0  0  0
   -6.2090   19.3032  -33.2014 H   0  0  0  0  0  0  0  0  0  0  0  0
   -7.6720   20.5530  -32.2110 C   0  0  0  0  0  0  0  0  0  0  0  0
   -9.1050   19.3220  -32.4980 Br  0  0  0  0  0  0  0  0  0  0  0  0
   -7.9090   21.7620  -31.5560 C   0  0  0  0  0  0  0  0  0  0  0  0
   -8.9225   21.9974  -31.1990 H   0  0  0  0  0  0  0  0  0  0  0  0
   -6.8670   22.6830  -31.3470 C   0  0  0  0  0  0  0  0  0  0  0  0
   -7.1970   24.0100  -30.7230 C   0  0  0  0  0  0  0  0  0  0  0  0
   -7.1736   23.9159  -29.6273 H   0  0  0  0  0  0  0  0  0  0  0  0
   -6.4579   24.7594  -31.0425 H   0  0  0  0  0  0  0  0  0  0  0  0
   -8.2011   24.3259  -31.0425 H   0  0  0  0  0  0  0  0  0  0  0  0
   -4.2260   24.8990  -26.5950 C   0  0  0  0  0  0  0  0  0  0  0  0
   -4.6004   24.8493  -25.5619 H   0  0  0  0  0  0  0  0  0  0  0  0
   -4.7021   25.7419  -27.1174 H   0  0  0  0  0  0  0  0  0  0  0  0
   -4.4659   23.9612  -27.1174 H   0  0  0  0  0  0  0  0  0  0  0  0
  1  2  1  0
  2  3  2  0
  3  4  1  0
  3  5  1  0
  5  6  1  0
  5  7  1  0
  5  8  1  0
  8  9  1  0
  9 10  2  0
  9 11  1  0
 11 12  1  0
 11 13  1  0
 11 14  1  0
 14 15  1  0
 15 16  2  0
 16 17  1  0
 16 18  1  0
 18 19  1  0
 18 20  2  0
 20 21  1  0
 20 22  1  0
 22 23  1  0
 22 24  2  0
 24 25  1  0
 25 26  1  0
 25 27  1  0
 25 28  1  0
  2 29  1  0
 29 30  1  0
 29 31  1  0
 29 32  1  0
 24 15  1  0
M  CHG  1   8  -1
M  END
>  <UniqueID>  (6) 
6

>  <SMILES>  (6) 
C/C=C/C[N-]C(=O)COc1c(C)cc(Br)cc1Br

>  <Energy>  (6) 
26.515835392915353

>  <Genealogy>  (6) 
CC=CC[N-]C(=O)COc1c(C)cc(Br)cc1Br (protonated)
C/C=C/C[N-]C(=O)COc1c(C)cc(Br)cc1Br (cis-trans isomerization)
C/C=C/C[N-]C(=O)COc1c(C)cc(Br)cc1Br (3D coordinates assigned)
C/C=C/C[N-]C(=O)COc1c(C)cc(Br)cc1Br (optimized conformer: 26.515835392915353 kcal/mol)

>  <smiles>  (6) 
CC=CCNC(=O)COc1c(C)cc(Br)cc1Br

>  <score_type>  (6) 
oracle

>  <origin>  (6) 
adg

>  <m_score__min__energy>  (6) 
-9.2899999999999991

>  <m_primary>  (6) 
energy

$$$$
6:0
     RDKit          3D

 91 96  0  0  0  0  0  0  0  0999 V2000
    1.6720   19.6990  -31.9920 C   0  0  0  0  0  0  0  0  0  0  0  0
    1.3450   18.5010  -32.7850 N   0  0  0  0  0  0  0  0  0  0  0  0
    1.1670   18.8010  -34.2250 C   0  0  0  0  0  0  0  0  0  0  0  0
    0.5200   20.1760  -34.4480 C   0  0  0  0  0  0  0  0  0  0  0  0
   -0.8510   20.2040  -33.9020 N   0  0  0  0  0  0  0  0  0  0  0  0
   -1.3980   21.5640  -33.7800 C   0  0  0  0  0  0  0  0  0  0  0  0
   -2.9050   21.5510  -33.4650 C   0  0  0  0  0  0  0  0  0  0  0  0
   -3.2830   20.5250  -32.4730 N   0  0  0  0  0  0  0  0  0  0  0  0
   -4.7320   20.3640  -32.3740 C   0  0  0  0  0  0  0  0  0  0  0  0
   -5.3380   19.1210  -32.7160 C   0  0  0  0  0  0  0  0  0  0  0  0
   -4.5670   17.9900  -33.0910 C   0  0  0  0  0  0  0  0  0  0  0  0
   -5.1670   16.7610  -33.3510 C   0  0  0  0  0  0  0  0  0  0  0  0
   -6.5400   16.6180  -33.2330 C   0  0  0  0  0  0  0  0  0  0  0  0
   -7.3270   17.7140  -32.8980 C   0  0  0  0  0  0  0  0  0  0  0  0
   -6.7540   18.9940  -32.6780 C   0  0  0  0  0  0  0  0  0  0  0  0
   -7.5450   20.0940  -32.4260 N   0  0  0  0  0  0  0  0  0  0  0  0
   -8.9930   20.0460  -32.7380 C   0  0  0  0  0  0  0  0  0  0  0  0
   -6.9860   21.2470  -31.9180 C   0  0  0  0  0  0  0  0  0  0  0  0
   -7.8030   22.2730  -31.3740 C   0  0  0  0  0  0  0  0  0  0  0  0
   -7.2550   23.4670  -30.9190 C   0  0  0  0  0  0  0  0  0  0  0  0
   -5.8880   23.6680  -30.9750 C   0  0  0  0  0  0  0  0  0  0  0  0
   -5.0530   22.6660  -31.4610 C   0  0  0  0  0  0  0  0  0  0  0  0
   -5.5720   21.4260  -31.9200 C   0  0  0  0  0  0  0  0  0  0  0  0
    0.1980   17.7540  -32.2120 C   0  0  0  0  0  0  0  0  0  0  0  0
   -0.1290   18.1260  -30.7710 C   0  0  0  0  0  0  0  0  0  0  0  0
    0.3390   17.3130  -29.7350 C   0  0  0  0  0  0  0  0  0  0  0  0
    0.0980   17.6110  -28.4240 N   0  0  0  0  0  0  0  0  0  0  0  0
    0.6360   16.6960  -27.4020 C   0  0  0  0  0  0  0  0  0  0  0  0
   -0.6260   18.7330  -28.0810 C   0  0  0  0  0  0  0  0  0  0  0  0
   -0.8630   19.0660  -26.7280 C   0  0  0  0  0  0  0  0  0  0  0  0
   -1.6050   20.1900  -26.3870 C   0  0  0  0  0  0  0  0  0  0  0  0
   -2.1470   21.0010  -27.3760 C   0  0  0  0  0  0  0  0  0  0  0  0
   -1.9420   20.7070  -28.7360 C   0  0  0  0  0  0  0  0  0  0  0  0
   -2.5310   21.5020  -29.7360 O   0  0  0  0  0  0  0  0  0  0  0  0
   -2.0330   22.7640  -30.1780 C   0  0  0  0  0  0  0  0  0  0  0  0
   -2.4970   23.8730  -29.2220 C   0  0  0  0  0  0  0  0  0  0  0  0
   -3.7550   23.4260  -28.4500 C   0  0  0  0  0  0  0  0  0  0  0  0
   -4.2250   24.5170  -27.4800 C   0  0  0  0  0  0  0  0  0  0  0  0
   -3.1050   24.9060  -26.5070 C   0  0  0  0  0  0  0  0  0  0  0  0
   -1.8510   25.3540  -27.2670 C   0  0  0  0  0  0  0  0  0  0  0  0
   -1.3750   24.2630  -28.2370 C   0  0  0  0  0  0  0  0  0  0  0  0
   -1.1500   19.5830  -29.0980 C   0  0  0  0  0  0  0  0  0  0  0  0
   -0.8600   19.2790  -30.4490 C   0  0  0  0  0  0  0  0  0  0  0  0
   -1.2350   20.0470  -31.3770 O   0  0  0  0  0  0  0  0  0  0  0  0
    1.6064   19.4587  -30.9206 H   0  0  0  0  0  0  0  0  0  0  0  0
    2.6933   20.0299  -32.2317 H   0  0  0  0  0  0  0  0  0  0  0  0
    0.9604   20.5029  -32.2317 H   0  0  0  0  0  0  0  0  0  0  0  0
    2.1516   18.7875  -34.7154 H   0  0  0  0  0  0  0  0  0  0  0  0
    0.5005   18.0374  -34.6524 H   0  0  0  0  0  0  0  0  0  0  0  0
    1.1245   20.9450  -33.9449 H   0  0  0  0  0  0  0  0  0  0  0  0
    0.4734   20.3729  -35.5292 H   0  0  0  0  0  0  0  0  0  0  0  0
   -0.8260   19.7920  -32.9400 H   0  0  0  0  0  0  0  0  0  0  0  0
   -0.8699   22.0883  -32.9699 H   0  0  0  0  0  0  0  0  0  0  0  0
   -1.2556   22.0762  -34.7430 H   0  0  0  0  0  0  0  0  0  0  0  0
   -3.1885   22.5385  -33.0720 H   0  0  0  0  0  0  0  0  0  0  0  0
   -3.4324   21.3115  -34.4002 H   0  0  0  0  0  0  0  0  0  0  0  0
   -2.8160   20.7210  -31.5660 H   0  0  0  0  0  0  0  0  0  0  0  0
   -2.8460   19.6150  -32.7350 H   0  0  0  0  0  0  0  0  0  0  0  0
   -3.4747   18.0863  -33.1779 H   0  0  0  0  0  0  0  0  0  0  0  0
   -4.5495   15.9014  -33.6508 H   0  0  0  0  0  0  0  0  0  0  0  0
   -7.0075   15.6371  -33.4044 H   0  0  0  0  0  0  0  0  0  0  0  0
   -8.4153   17.5868  -32.8015 H   0  0  0  0  0  0  0  0  0  0  0  0
   -9.5695   20.0269  -31.8013 H   0  0  0  0  0  0  0  0  0  0  0  0
   -9.2719   20.9354  -33.3221 H   0  0  0  0  0  0  0  0  0  0  0  0
   -9.2124   19.1401  -33.3221 H   0  0  0  0  0  0  0  0  0  0  0  0
   -8.8905   22.1202  -31.3113 H   0  0  0  0  0  0  0  0  0  0  0  0
   -7.9096   24.2527  -30.5140 H   0  0  0  0  0  0  0  0  0  0  0  0
   -5.4594   24.6222  -30.6346 H   0  0  0  0  0  0  0  0  0  0  0  0
   -3.9670   22.8383  -31.4903 H   0  0  0  0  0  0  0  0  0  0  0  0
   -0.6891   17.9553  -32.8306 H   0  0  0  0  0  0  0  0  0  0  0  0
    0.4813   16.6911  -32.2088 H   0  0  0  0  0  0  0  0  0  0  0  0
    0.9163   16.4098  -29.9818 H   0  0  0  0  0  0  0  0  0  0  0  0
    0.4053   17.0884  -26.4006 H   0  0  0  0  0  0  0  0  0  0  0  0
    0.1779   15.7030  -27.5212 H   0  0  0  0  0  0  0  0  0  0  0  0
    1.7264   16.6135  -27.5212 H   0  0  0  0  0  0  0  0  0  0  0  0
   -0.4537   18.4255  -25.9329 H   0  0  0  0  0  0  0  0  0  0  0  0
   -1.7642   20.4392  -25.3275 H   0  0  0  0  0  0  0  0  0  0  0  0
   -2.7422   21.8816  -27.0928 H   0  0  0  0  0  0  0  0  0  0  0  0
   -0.9335   22.7357  -30.1975 H   0  0  0  0  0  0  0  0  0  0  0  0
   -2.4176   22.9717  -31.1874 H   0  0  0  0  0  0  0  0  0  0  0  0
   -2.7461   24.7588  -29.8247 H   0  0  0  0  0  0  0  0  0  0  0  0
   -4.5604   23.2128  -29.1683 H   0  0  0  0  0  0  0  0  0  0  0  0
   -3.5065   22.5257  -27.8689 H   0  0  0  0  0  0  0  0  0  0  0  0
   -4.5262   25.4048  -28.0555 H   0  0  0  0  0  0  0  0  0  0  0  0
   -5.0745   24.1280  -26.8995 H   0  0  0  0  0  0  0  0  0  0  0  0
   -3.4532   25.7313  -25.8685 H   0  0  0  0  0  0  0  0  0  0  0  0
   -2.8503   24.0280  -25.8953 H   0  0  0  0  0  0  0  0  0  0  0  0
   -2.0827   26.2658  -27.8371 H   0  0  0  0  0  0  0  0  0  0  0  0
   -1.0504   25.5477  -26.5379 H   0  0  0  0  0  0  0  0  0  0  0  0
   -0.5114   24.6386  -28.8055 H   0  0  0  0  0  0  0  0  0  0  0  0
   -1.0944   23.3732  -27.6543 H   0  0  0  0  0  0  0  0  0  0  0  0
  1  2  1  0
  2  3  1  0
  3  4  1  0
  4  5  1  0
  5  6  1  0
  6  7  1  0
  7  8  1  0
  8  9  1  0
  9 10  1  0
 10 11  2  0
 11 12  1  0
 12 13  2  0
 13 14  1  0
 14 15  2  0
 15 16  1  0
 16 17  1  0
 16 18  2  0
 18 19  1  0
 19 20  2  0
 20 21  1  0
 21 22  2  0
 22 23  1  0
  2 24  1  0
 24 25  1  0
 25 26  2  0
 26 27  1  0
 27 28  1  0
 27 29  1  0
 29 30  2  0
 30 31  1  0
 31 32  2  0
 32 33  1  0
 33 34  1  0
 34 35  1  0
 35 36  1  0
 36 37  1  0
 37 38  1  0
 38 39  1  0
 39 40  1  0
 40 41  1  0
 33 42  2  0
 42 43  1  0
 43 44  2  0
 23  9  2  0
 43 25  1  0
 15 10  1  0
 23 18  1  0
 42 29  1  0
 41 36  1  0
  1 45  1  0
  1 46  1  0
  1 47  1  0
  3 48  1  0
  3 49  1  0
  4 50  1  0
  4 51  1  0
  5 52  1  0
  6 53  1  0
  6 54  1  0
  7 55  1  0
  7 56  1  0
  8 57  1  0
  8 58  1  0
 11 59  1  0
 12 60  1  0
 13 61  1  0
 14 62  1  0
 17 63  1  0
 17 64  1  0
 17 65  1  0
 19 66  1  0
 20 67  1  0
 21 68  1  0
 22 69  1  0
 24 70  1  0
 24 71  1  0
 26 72  1  0
 28 73  1  0
 28 74  1  0
 28 75  1  0
 30 76  1  0
 31 77  1  0
 32 78  1  0
 35 79  1  0
 35 80  1  0
 36 81  1  0
 37 82  1  0
 37 83  1  0
 38 84  1  0
 38 85  1  0
 39 86  1  0
 39 87  1  0
 40 88  1  0
 40 89  1  0
 41 90  1  0
 41 91  1  0
M  CHG  2   8   1  16   1
M  END
>  <UniqueID>  (7) 
7

>  <SMILES>  (7) 
CN(CCNCC[NH2+]c1c2ccccc2[n+](C)c2ccccc12)Cc1cn(C)c2cccc(OCC3CCCCC3)c2c1=O

>  <Energy>  (7) 
132.0895947454012

>  <Genealogy>  (7) 
CN(CCNCC[NH2+]c1c2ccccc2[n+](C)c2ccccc12)Cc1cn(C)c2cccc(OCC3CCCCC3)c2c1=O (protonated)
CN(CCNCC[NH2+]c1c2ccccc2[n+](C)c2ccccc12)Cc1cn(C)c2cccc(OCC3CCCCC3)c2c1=O (3D coordinates assigned)
CN(CCNCC[NH2+]c1c2ccccc2[n+](C)c2ccccc12)Cc1cn(C)c2cccc(OCC3CCCCC3)c2c1=O (nonaromatic ring conformer: 132.0895947454012 kcal/mol)

>  <smiles>  (7) 
CN(CCNCCNc1c2ccccc2[n+](C)c2ccccc12)Cc1cn(C)c2cccc(OCC3CCCCC3)c2c1=O

>  <score_type>  (7) 
oracle

>  <origin>  (7) 
adg

>  <m_score__min__energy>  (7) 
-10.800000000000001

>  <m_primary>  (7) 
energy

$$$$
7:0
     RDKit          3D

 63 66  0  0  0  0  0  0  0  0999 V2000
   -8.6180   21.3750  -31.4380 C   0  0  0  0  0  0  0  0  0  0  0  0
   -7.9590   22.7410  -31.2770 C   0  0  0  0  0  0  0  0  0  0  0  0
   -7.2440   22.9110  -29.9240 C   0  0  0  0  0  0  0  0  0  0  0  0
   -6.5060   24.2510  -29.8140 C   0  0  0  0  0  0  0  0  0  0  0  0
   -5.0970   24.3170  -30.9180 S   0  0  0  0  0  0  0  0  0  0  0  0
   -5.5720   24.1650  -32.3350 O   0  0  0  0  0  0  0  0  0  0  0  0
   -4.4580   25.6740  -30.8080 O   0  0  0  0  0  0  0  0  0  0  0  0
   -3.9270   23.0730  -30.5270 N   0  0  0  0  0  0  0  0  0  0  0  0
   -3.4530   22.0700  -31.3310 C   0  0  0  0  0  0  0  0  0  0  0  0
   -3.9020   21.7760  -32.7430 C   0  0  0  0  0  0  0  0  0  0  0  0
   -5.2930   21.0850  -32.8650 C   0  0  0  0  0  0  0  0  0  0  0  0
   -5.3070   19.5990  -33.0660 N   0  0  2  0  0  0  0  0  0  0  0  0
   -5.9730   18.9860  -31.8810 C   0  0  0  0  0  0  0  0  0  0  0  0
   -6.0380   17.4480  -32.0270 C   0  0  0  0  0  0  0  0  0  0  0  0
   -5.3950   17.0140  -33.2980 N   0  0  2  0  0  0  0  0  0  0  0  0
   -5.4900   15.5240  -33.3690 C   0  0  0  0  0  0  0  0  0  0  0  0
   -4.6390   14.7540  -32.3420 C   0  0  0  0  0  0  0  0  0  0  0  0
   -3.9840   17.4840  -33.2770 C   0  0  0  0  0  0  0  0  0  0  0  0
   -3.9350   19.0320  -33.1760 C   0  0  0  0  0  0  0  0  0  0  0  0
   -6.1140   17.6670  -34.4310 C   0  0  0  0  0  0  0  0  0  0  0  0
   -6.0940   19.2090  -34.2690 C   0  0  0  0  0  0  0  0  0  0  0  0
   -2.3790   21.4220  -30.7130 C   0  0  0  0  0  0  0  0  0  0  0  0
   -2.2410   22.0180  -29.4870 C   0  0  0  0  0  0  0  0  0  0  0  0
   -1.3310   21.7560  -28.4650 C   0  0  0  0  0  0  0  0  0  0  0  0
   -1.4070   22.5410  -27.3010 C   0  0  0  0  0  0  0  0  0  0  0  0
   -2.3940   23.5470  -27.1810 C   0  0  0  0  0  0  0  0  0  0  0  0
   -3.2970   23.7890  -28.2350 C   0  0  0  0  0  0  0  0  0  0  0  0
   -3.1850   23.0080  -29.3930 C   0  0  0  0  0  0  0  0  0  0  0  0
   -8.8240   20.9480  -30.4454 H   0  0  0  0  0  0  0  0  0  0  0  0
   -9.5616   21.4862  -31.9924 H   0  0  0  0  0  0  0  0  0  0  0  0
   -7.9437   20.7056  -31.9924 H   0  0  0  0  0  0  0  0  0  0  0  0
   -7.2205   22.8705  -32.0819 H   0  0  0  0  0  0  0  0  0  0  0  0
   -8.7563   23.4974  -31.3239 H   0  0  0  0  0  0  0  0  0  0  0  0
   -7.9923   22.8534  -29.1198 H   0  0  0  0  0  0  0  0  0  0  0  0
   -6.4957   22.1093  -29.8383 H   0  0  0  0  0  0  0  0  0  0  0  0
   -7.2007   25.0639  -30.0721 H   0  0  0  0  0  0  0  0  0  0  0  0
   -6.1413   24.3604  -28.7820 H   0  0  0  0  0  0  0  0  0  0  0  0
   -3.9455   22.7283  -33.2918 H   0  0  0  0  0  0  0  0  0  0  0  0
   -3.1703   21.0654  -33.1549 H   0  0  0  0  0  0  0  0  0  0  0  0
   -5.8504   21.2988  -31.9411 H   0  0  0  0  0  0  0  0  0  0  0  0
   -5.7344   21.4986  -33.7837 H   0  0  0  0  0  0  0  0  0  0  0  0
   -5.4029   19.2392  -30.9750 H   0  0  0  0  0  0  0  0  0  0  0  0
   -6.9980   19.3785  -31.8083 H   0  0  0  0  0  0  0  0  0  0  0  0
   -5.5141   16.9821  -31.1794 H   0  0  0  0  0  0  0  0  0  0  0  0
   -7.0932   17.1375  -32.0396 H   0  0  0  0  0  0  0  0  0  0  0  0
   -6.5425   15.2441  -33.2144 H   0  0  0  0  0  0  0  0  0  0  0  0
   -5.0962   15.2438  -34.3571 H   0  0  0  0  0  0  0  0  0  0  0  0
   -4.9492   15.0347  -31.3247 H   0  0  0  0  0  0  0  0  0  0  0  0
   -4.7826   13.6727  -32.4839 H   0  0  0  0  0  0  0  0  0  0  0  0
   -3.5774   15.0047  -32.4839 H   0  0  0  0  0  0  0  0  0  0  0  0
   -3.4685   17.0469  -32.4091 H   0  0  0  0  0  0  0  0  0  0  0  0
   -3.4875   17.1695  -34.2069 H   0  0  0  0  0  0  0  0  0  0  0  0
   -3.3547   19.3170  -32.2860 H   0  0  0  0  0  0  0  0  0  0  0  0
   -3.4614   19.4296  -34.0858 H   0  0  0  0  0  0  0  0  0  0  0  0
   -5.6219   17.3958  -35.3766 H   0  0  0  0  0  0  0  0  0  0  0  0
   -7.1588   17.3229  -34.4354 H   0  0  0  0  0  0  0  0  0  0  0  0
   -5.6372   19.6605  -35.1620 H   0  0  0  0  0  0  0  0  0  0  0  0
   -7.1272   19.5666  -34.1484 H   0  0  0  0  0  0  0  0  0  0  0  0
   -1.7710   20.6034  -31.1256 H   0  0  0  0  0  0  0  0  0  0  0  0
   -0.5776   20.9609  -28.5655 H   0  0  0  0  0  0  0  0  0  0  0  0
   -0.6953   22.3719  -26.4795 H   0  0  0  0  0  0  0  0  0  0  0  0
   -2.4569   24.1440  -26.2592 H   0  0  0  0  0  0  0  0  0  0  0  0
   -4.0681   24.5690  -28.1513 H   0  0  0  0  0  0  0  0  0  0  0  0
  1  2  1  0
  2  3  1  0
  3  4  1  0
  4  5  1  0
  5  6  2  0
  5  7  2  0
  5  8  1  0
  8  9  1  0
  9 10  1  0
 10 11  1  0
 12 11  1  1
 12 13  1  0
 13 14  1  0
 14 15  1  0
 15 16  1  6
 16 17  1  0
 15 18  1  0
 18 19  1  0
 15 20  1  0
 20 21  1  0
  9 22  2  0
 22 23  1  0
 23 24  2  0
 24 25  1  0
 25 26  2  0
 26 27  1  0
 27 28  2  0
 28  8  1  0
 19 12  1  0
 28 23  1  0
 21 12  1  0
  1 29  1  0
  1 30  1  0
  1 31  1  0
  2 32  1  0
  2 33  1  0
  3 34  1  0
  3 35  1  0
  4 36  1  0
  4 37  1  0
 10 38  1  0
 10 39  1  0
 11 40  1  0
 11 41  1  0
 13 42  1  0
 13 43  1  0
 14 44  1  0
 14 45  1  0
 16 46  1  0
 16 47  1  0
 17 48  1  0
 17 49  1  0
 17 50  1  0
 18 51  1  0
 18 52  1  0
 19 53  1  0
 19 54  1  0
 20 55  1  0
 20 56  1  0
 21 57  1  0
 21 58  1  0
 22 59  1  0
 24 60  1  0
 25 61  1  0
 26 62  1  0
 27 63  1  0
M  CHG  2  12   1  15   1
M  END
>  <UniqueID>  (8) 
8

>  <SMILES>  (8) 
CCCCS(=O)(=O)n1c(CC[N+]23CC[N+](CC)(CC2)CC3)cc2ccccc21

>  <Energy>  (8) 
119.53802644938621

>  <Genealogy>  (8) 
CCCCS(=O)(=O)n1c(CC[N+]23CC[N+](CC)(CC2)CC3)cc2ccccc21 (3D coordinates assigned)
CCCCS(=O)(=O)n1c(CC[N+]23CC[N+](CC)(CC2)CC3)cc2ccccc21 (nonaromatic ring conformer: 119.53802644938621 kcal/mol)

>  <smiles>  (8) 
CCCCS(=O)(=O)n1c(CC[N+]23CC[N+](CC)(CC2)CC3)cc2ccccc21

>  <score_type>  (8) 
oracle

>  <origin>  (8) 
adg

>  <m_score__min__energy>  (8) 
-7.9400000000000004

>  <m_primary>  (8) 
energy

$$$$
8:0
     RDKit          3D

 33 34  0  0  0  0  0  0  0  0999 V2000
   -5.8630   18.9450  -34.0990 C   0  0  0  0  0  0  0  0  0  0  0  0
   -6.7510   18.4420  -32.9570 C   0  0  0  0  0  0  0  0  0  0  0  0
   -8.1460   18.9000  -33.0830 N   0  0  0  0  0  0  0  0  0  0  0  0
   -8.7660   19.1690  -31.7740 C   0  0  0  0  0  0  0  0  0  0  0  0
   -9.3860   20.5720  -31.7450 C   0  0  0  0  0  0  0  0  0  0  0  0
   -8.5660   21.5000  -32.4550 O   0  0  0  0  0  0  0  0  0  0  0  0
   -7.3980   22.1070  -31.9600 C   0  0  0  0  0  0  0  0  0  0  0  0
   -7.3430   23.5050  -31.9400 C   0  0  0  0  0  0  0  0  0  0  0  0
   -6.2100   24.1690  -31.4600 C   0  0  0  0  0  0  0  0  0  0  0  0
   -5.1090   23.4360  -30.9930 C   0  0  0  0  0  0  0  0  0  0  0  0
   -3.9470   24.0540  -30.5000 C   0  0  0  0  0  0  0  0  0  0  0  0
   -3.8470   25.3120  -30.4560 O   0  0  0  0  0  0  0  0  0  0  0  0
   -2.8880   23.2630  -30.0530 C   0  0  0  0  0  0  0  0  0  0  0  0
   -3.0100   21.8740  -30.1070 C   0  0  0  0  0  0  0  0  0  0  0  0
   -4.1190   21.3100  -30.5780 O   0  0  0  0  0  0  0  0  0  0  0  0
   -5.1540   22.0220  -31.0140 C   0  0  0  0  0  0  0  0  0  0  0  0
   -6.2920   21.3670  -31.4970 C   0  0  0  0  0  0  0  0  0  0  0  0
   -4.9776   19.4465  -33.6813 H   0  0  0  0  0  0  0  0  0  0  0  0
   -5.5442   18.0934  -34.7179 H   0  0  0  0  0  0  0  0  0  0  0  0
   -6.4295   19.6563  -34.7179 H   0  0  0  0  0  0  0  0  0  0  0  0
   -6.7393   17.3421  -32.9593 H   0  0  0  0  0  0  0  0  0  0  0  0
   -6.3493   18.8488  -32.0173 H   0  0  0  0  0  0  0  0  0  0  0  0
   -8.1420   19.7860  -33.6420 H   0  0  0  0  0  0  0  0  0  0  0  0
   -8.7100   18.1880  -33.6060 H   0  0  0  0  0  0  0  0  0  0  0  0
   -9.5523   18.4229  -31.5869 H   0  0  0  0  0  0  0  0  0  0  0  0
   -7.9901   19.1094  -30.9965 H   0  0  0  0  0  0  0  0  0  0  0  0
  -10.3808   20.5371  -32.2132 H   0  0  0  0  0  0  0  0  0  0  0  0
   -9.4685   20.9010  -30.6986 H   0  0  0  0  0  0  0  0  0  0  0  0
   -8.2008   24.0882  -32.3060 H   0  0  0  0  0  0  0  0  0  0  0  0
   -6.1820   25.2686  -31.4486 H   0  0  0  0  0  0  0  0  0  0  0  0
   -1.9702   23.7277  -29.6636 H   0  0  0  0  0  0  0  0  0  0  0  0
   -2.1820   21.2399  -29.7571 H   0  0  0  0  0  0  0  0  0  0  0  0
   -6.3235   20.2676  -31.5154 H   0  0  0  0  0  0  0  0  0  0  0  0
  1  2  1  0
  2  3  1  0
  3  4  1  0
  4  5  1  0
  5  6  1  0
  6  7  1  0
  7  8  2  0
  8  9  1  0
  9 10  2  0
 10 11  1  0
 11 12  2  0
 11 13  1  0
 13 14  2  0
 14 15  1  0
 15 16  1  0
 16 17  2  0
 17  7  1  0
 16 10  1  0
  1 18  1  0
  1 19  1  0
  1 20  1  0
  2 21  1  0
  2 22  1  0
  3 23  1  0
  3 24  1  0
  4 25  1  0
  4 26  1  0
  5 27  1  0
  5 28  1  0
  8 29  1  0
  9 30  1  0
 13 31  1  0
 14 32  1  0
 17 33  1  0
M  CHG  1   3   1
M  END
>  <UniqueID>  (9) 
9

>  <SMILES>  (9) 
CC[NH2+]CCOc1ccc2c(=O)ccoc2c1

>  <Energy>  (9) 
34.91827328354848

>  <Genealogy>  (9) 
CC[NH2+]CCOc1ccc2c(=O)ccoc2c1 (protonated)
CC[NH2+]CCOc1ccc2c(=O)ccoc2c1 (3D coordinates assigned)
CC[NH2+]CCOc1ccc2c(=O)ccoc2c1 (optimized conformer: 34.91827328354848 kcal/mol)

>  <smiles>  (9) 
CCNCCOc1ccc2c(=O)ccoc2c1

>  <score_type>  (9) 
oracle

>  <origin>  (9) 
adg

>  <m_score__min__energy>  (9) 
-5.7300000000000004

>  <m_primary>  (9) 
energy

$$$$
9:0
     RDKit          3D

 61 63  0  0  0  0  0  0  0  0999 V2000
   -3.1370   18.6420  -25.9830 C   0  0  0  0  0  0  0  0  0  0  0  0
   -2.1130   19.3010  -26.9050 C   0  0  0  0  0  0  0  0  0  0  0  0
   -2.7460   20.3460  -27.8370 C   0  0  0  0  0  0  0  0  0  0  0  0
   -1.7120   21.0210  -28.7520 C   0  0  0  0  0  0  0  0  0  0  0  0
   -2.1720   20.9960  -30.1480 N   0  0  0  0  0  0  0  0  0  0  0  0
   -1.0430   21.1150  -31.0850 C   0  0  0  0  0  0  0  0  0  0  0  0
   -1.5490   21.4110  -32.5000 C   0  0  0  0  0  0  0  0  0  0  0  0
   -2.2750   20.2280  -33.0770 C   0  0  0  0  0  0  0  0  0  0  0  0
   -1.6930   19.0770  -33.5990 C   0  0  0  0  0  0  0  0  0  0  0  0
   -2.6430   18.2370  -34.0680 N   0  0  0  0  0  0  0  0  0  0  0  0
   -3.8190   18.8500  -33.8500 C   0  0  0  0  0  0  0  0  0  0  0  0
   -5.0920   18.3620  -34.1430 C   0  0  0  0  0  0  0  0  0  0  0  0
   -6.2020   19.1520  -33.7840 C   0  0  0  0  0  0  0  0  0  0  0  0
   -6.0190   20.4060  -33.1380 C   0  0  0  0  0  0  0  0  0  0  0  0
   -7.0910   21.2100  -32.7180 O   0  0  0  0  0  0  0  0  0  0  0  0
   -8.1960   20.7950  -31.9110 C   0  0  0  0  0  0  0  0  0  0  0  0
   -8.6490   21.9230  -30.9630 C   0  0  0  0  0  0  0  0  0  0  0  0
   -7.5190   22.5140  -30.0890 C   0  0  0  0  0  0  0  0  0  0  0  0
   -6.3040   22.8800  -30.8680 N   0  0  0  0  0  0  0  0  0  0  0  0
   -5.0680   22.6770  -30.0550 C   0  0  0  0  0  0  0  0  0  0  0  0
   -3.9300   23.6130  -30.4880 C   0  0  0  0  0  0  0  0  0  0  0  0
   -4.2970   25.0330  -30.3380 N   0  0  0  0  0  0  0  0  0  0  0  0
   -5.7440   25.2980  -30.4920 C   0  0  0  0  0  0  0  0  0  0  0  0
   -6.4160   24.2640  -31.4110 C   0  0  0  0  0  0  0  0  0  0  0  0
   -4.7140   20.8790  -32.8950 C   0  0  0  0  0  0  0  0  0  0  0  0
   -3.6370   20.0670  -33.2490 C   0  0  0  0  0  0  0  0  0  0  0  0
   -2.8564   18.8226  -24.9348 H   0  0  0  0  0  0  0  0  0  0  0  0
   -4.1321   19.0697  -26.1751 H   0  0  0  0  0  0  0  0  0  0  0  0
   -3.1600   17.5591  -26.1751 H   0  0  0  0  0  0  0  0  0  0  0  0
   -1.3493   19.7961  -26.2872 H   0  0  0  0  0  0  0  0  0  0  0  0
   -1.6752   18.5129  -27.5353 H   0  0  0  0  0  0  0  0  0  0  0  0
   -3.5006   19.8486  -28.4640 H   0  0  0  0  0  0  0  0  0  0  0  0
   -3.1956   21.1275  -27.2068 H   0  0  0  0  0  0  0  0  0  0  0  0
   -1.5732   22.0650  -28.4344 H   0  0  0  0  0  0  0  0  0  0  0  0
   -0.7598   20.4750  -28.6794 H   0  0  0  0  0  0  0  0  0  0  0  0
   -2.6260   20.0680  -30.3210 H   0  0  0  0  0  0  0  0  0  0  0  0
   -0.3853   21.9335  -30.7572 H   0  0  0  0  0  0  0  0  0  0  0  0
   -0.4889   20.1648  -31.0969 H   0  0  0  0  0  0  0  0  0  0  0  0
   -2.2352   22.2699  -32.4632 H   0  0  0  0  0  0  0  0  0  0  0  0
   -0.6825   21.6336  -33.1400 H   0  0  0  0  0  0  0  0  0  0  0  0
   -0.6114   18.8783  -33.6263 H   0  0  0  0  0  0  0  0  0  0  0  0
   -2.4900   17.3030  -34.5110 H   0  0  0  0  0  0  0  0  0  0  0  0
   -5.2256   17.3895  -34.6395 H   0  0  0  0  0  0  0  0  0  0  0  0
   -7.2190   18.7959  -34.0052 H   0  0  0  0  0  0  0  0  0  0  0  0
   -9.0351   20.5186  -32.5664 H   0  0  0  0  0  0  0  0  0  0  0  0
   -7.8793   19.9350  -31.3026 H   0  0  0  0  0  0  0  0  0  0  0  0
   -9.0734   22.7348  -31.5720 H   0  0  0  0  0  0  0  0  0  0  0  0
   -9.3805   21.4782  -30.2723 H   0  0  0  0  0  0  0  0  0  0  0  0
   -7.8994   23.4175  -29.5900 H   0  0  0  0  0  0  0  0  0  0  0  0
   -7.2232   21.7370  -29.3687 H   0  0  0  0  0  0  0  0  0  0  0  0
   -6.2420   22.2410  -31.6970 H   0  0  0  0  0  0  0  0  0  0  0  0
   -5.3033   22.8704  -28.9980 H   0  0  0  0  0  0  0  0  0  0  0  0
   -4.7300   21.6412  -30.2063 H   0  0  0  0  0  0  0  0  0  0  0  0
   -3.0452   23.4072  -29.8677 H   0  0  0  0  0  0  0  0  0  0  0  0
   -3.7217   23.4259  -31.5518 H   0  0  0  0  0  0  0  0  0  0  0  0
   -4.0050   25.3650  -29.3840 H   0  0  0  0  0  0  0  0  0  0  0  0
   -6.2212   25.2585  -29.5017 H   0  0  0  0  0  0  0  0  0  0  0  0
   -5.8644   26.2919  -30.9477 H   0  0  0  0  0  0  0  0  0  0  0  0
   -7.4808   24.5199  -31.5151 H   0  0  0  0  0  0  0  0  0  0  0  0
   -5.9043   24.2902  -32.3844 H   0  0  0  0  0  0  0  0  0  0  0  0
   -4.5488   21.8654  -32.4369 H   0  0  0  0  0  0  0  0  0  0  0  0
  1  2  1  0
  2  3  1  0
  3  4  1  0
  4  5  1  0
  5  6  1  0
  6  7  1  0
  7  8  1  0
  8  9  2  0
  9 10  1  0
 10 11  1  0
 11 12  2  0
 12 13  1  0
 13 14  2  0
 14 15  1  0
 15 16  1  0
 16 17  1  0
 17 18  1  0
 18 19  1  0
 19 20  1  0
 20 21  1  0
 21 22  1  0
 22 23  1  0
 23 24  1  0
 14 25  1  0
 25 26  2  0
 26  8  1  0
 26 11  1  0
 24 19  1  0
  1 27  1  0
  1 28  1  0
  1 29  1  0
  2 30  1  0
  2 31  1  0
  3 32  1  0
  3 33  1  0
  4 34  1  0
  4 35  1  0
  5 36  1  0
  6 37  1  0
  6 38  1  0
  7 39  1  0
  7 40  1  0
  9 41  1  0
 10 42  1  0
 12 43  1  0
 13 44  1  0
 16 45  1  0
 16 46  1  0
 17 47  1  0
 17 48  1  0
 18 49  1  0
 18 50  1  0
 19 51  1  0
 20 52  1  0
 20 53  1  0
 21 54  1  0
 21 55  1  0
 22 56  1  0
 23 57  1  0
 23 58  1  0
 24 59  1  0
 24 60  1  0
 25 61  1  0
M  CHG  1  19   1
M  END
>  <UniqueID>  (10) 
10

>  <SMILES>  (10) 
CCCCNCCc1c[nH]c2ccc(OCCC[NH+]3CCNCC3)cc12

>  <Energy>  (10) 
97.46243198757477

>  <Genealogy>  (10) 
CCCCNCCc1c[nH]c2ccc(OCCC[NH+]3CCNCC3)cc12 (protonated)
CCCCNCCc1c[nH]c2ccc(OCCC[NH+]3CCNCC3)cc12 (3D coordinates assigned)
CCCCNCCc1c[nH]c2ccc(OCCC[NH+]3CCNCC3)cc12 (nonaromatic ring conformer: 97.46243198757477 kcal/mol)

>  <smiles>  (10) 
CCCCNCCc1c[nH]c2ccc(OCCCN3CCNCC3)cc12

>  <score_type>  (10) 
oracle

>  <origin>  (10) 
adg

>  <m_score__min__energy>  (10) 
-7.6900000000000004

>  <m_primary>  (10) 
energy

$$$$
10:0
     RDKit          3D

 53 57  0  0  0  0  0  0  0  0999 V2000
   -7.2610   16.7070  -33.1130 C   0  0  0  0  0  0  0  0  0  0  0  0
   -7.1200   17.8350  -32.1800 N   0  0  0  0  0  0  0  0  0  0  0  0
   -6.4120   17.4290  -30.9560 C   0  0  0  0  0  0  0  0  0  0  0  0
   -8.4040   18.5200  -31.9040 C   0  0  0  0  0  0  0  0  0  0  0  0
   -8.3770   20.0410  -32.1420 C   0  0  0  0  0  0  0  0  0  0  0  0
   -7.4100   20.3650  -33.1880 N   0  0  0  0  0  0  0  0  0  0  0  0
   -5.9990   20.3540  -32.9230 C   0  0  0  0  0  0  0  0  0  0  0  0
   -5.4640   21.1520  -31.9160 C   0  0  0  0  0  0  0  0  0  0  0  0
   -4.1090   21.1410  -31.6290 C   0  0  0  0  0  0  0  0  0  0  0  0
   -3.2150   20.4420  -32.4000 N   0  0  0  0  0  0  0  0  0  0  0  0
   -1.7720   20.7010  -32.2690 C   0  0  0  0  0  0  0  0  0  0  0  0
   -3.7090   19.5510  -33.3410 C   0  0  0  0  0  0  0  0  0  0  0  0
   -2.8630   18.6380  -34.0160 C   0  0  0  0  0  0  0  0  0  0  0  0
   -3.3670   17.7700  -34.9830 C   0  0  0  0  0  0  0  0  0  0  0  0
   -4.7230   17.7740  -35.2940 C   0  0  0  0  0  0  0  0  0  0  0  0
   -5.5930   18.6330  -34.6250 C   0  0  0  0  0  0  0  0  0  0  0  0
   -5.1130   19.5170  -33.6390 C   0  0  0  0  0  0  0  0  0  0  0  0
   -3.8760   22.0520  -30.4810 C   0  0  0  0  0  0  0  0  0  0  0  0
   -2.7710   22.2520  -29.6480 C   0  0  0  0  0  0  0  0  0  0  0  0
   -2.9020   23.1380  -28.5630 C   0  0  0  0  0  0  0  0  0  0  0  0
   -1.8160   23.4000  -27.7140 C   0  0  0  0  0  0  0  0  0  0  0  0
   -1.9620   24.2780  -26.6360 C   0  0  0  0  0  0  0  0  0  0  0  0
   -0.4770   24.6330  -25.4880 Br  0  0  0  0  0  0  0  0  0  0  0  0
   -3.1940   24.8960  -26.3940 C   0  0  0  0  0  0  0  0  0  0  0  0
   -4.2870   24.6390  -27.2250 C   0  0  0  0  0  0  0  0  0  0  0  0
   -4.1580   23.7650  -28.3130 C   0  0  0  0  0  0  0  0  0  0  0  0
   -5.2330   23.4900  -29.1130 N   0  0  0  0  0  0  0  0  0  0  0  0
   -5.0840   22.6480  -30.1680 C   0  0  0  0  0  0  0  0  0  0  0  0
   -6.1180   22.1280  -31.0440 C   0  0  0  0  0  0  0  0  0  0  0  0
   -7.3280   22.4720  -31.0570 O   0  0  0  0  0  0  0  0  0  0  0  0
   -7.3778   15.7729  -32.5440 H   0  0  0  0  0  0  0  0  0  0  0  0
   -8.1466   16.8636  -33.7465 H   0  0  0  0  0  0  0  0  0  0  0  0
   -6.3641   16.6408  -33.7465 H   0  0  0  0  0  0  0  0  0  0  0  0
   -6.9841   17.7570  -30.0756 H   0  0  0  0  0  0  0  0  0  0  0  0
   -6.3081   16.3341  -30.9386 H   0  0  0  0  0  0  0  0  0  0  0  0
   -5.4145   17.8923  -30.9386 H   0  0  0  0  0  0  0  0  0  0  0  0
   -9.1743   18.0832  -32.5566 H   0  0  0  0  0  0  0  0  0  0  0  0
   -8.6148   18.3731  -30.8344 H   0  0  0  0  0  0  0  0  0  0  0  0
   -9.3767   20.3791  -32.4524 H   0  0  0  0  0  0  0  0  0  0  0  0
   -8.0850   20.5476  -31.2103 H   0  0  0  0  0  0  0  0  0  0  0  0
   -7.7300   20.3120  -34.1820 H   0  0  0  0  0  0  0  0  0  0  0  0
   -1.5034   20.7492  -31.2034 H   0  0  0  0  0  0  0  0  0  0  0  0
   -1.2084   19.8897  -32.7529 H   0  0  0  0  0  0  0  0  0  0  0  0
   -1.5258   21.6577  -32.7529 H   0  0  0  0  0  0  0  0  0  0  0  0
   -1.7904   18.6134  -33.7732 H   0  0  0  0  0  0  0  0  0  0  0  0
   -2.6887   17.0778  -35.5033 H   0  0  0  0  0  0  0  0  0  0  0  0
   -5.1096   17.0972  -36.0702 H   0  0  0  0  0  0  0  0  0  0  0  0
   -6.6654   18.6205  -34.8695 H   0  0  0  0  0  0  0  0  0  0  0  0
   -1.8218   21.7291  -29.8365 H   0  0  0  0  0  0  0  0  0  0  0  0
   -0.8468   22.9131  -27.8972 H   0  0  0  0  0  0  0  0  0  0  0  0
   -3.3022   25.5874  -25.5454 H   0  0  0  0  0  0  0  0  0  0  0  0
   -5.2533   25.1248  -27.0246 H   0  0  0  0  0  0  0  0  0  0  0  0
   -6.1700   23.9070  -28.9130 H   0  0  0  0  0  0  0  0  0  0  0  0
  1  2  1  0
  2  3  1  0
  2  4  1  0
  4  5  1  0
  5  6  1  0
  6  7  1  0
  7  8  2  0
  8  9  1  0
  9 10  2  0
 10 11  1  0
 10 12  1  0
 12 13  2  0
 13 14  1  0
 14 15  2  0
 15 16  1  0
 16 17  2  0
  9 18  1  0
 18 19  2  0
 19 20  1  0
 20 21  2  0
 21 22  1  0
 22 23  1  0
 22 24  2  0
 24 25  1  0
 25 26  2  0
 26 27  1  0
 27 28  2  0
 28 29  1  0
 29 30  2  0
 17  7  1  0
 28 18  1  0
 29  8  1  0
 17 12  1  0
 26 20  1  0
  1 31  1  0
  1 32  1  0
  1 33  1  0
  3 34  1  0
  3 35  1  0
  3 36  1  0
  4 37  1  0
  4 38  1  0
  5 39  1  0
  5 40  1  0
  6 41  1  0
 11 42  1  0
 11 43  1  0
 11 44  1  0
 13 45  1  0
 14 46  1  0
 15 47  1  0
 16 48  1  0
 19 49  1  0
 21 50  1  0
 24 51  1  0
 25 52  1  0
 27 53  1  0
M  CHG  2  10   1  27   1
M  END
>  <UniqueID>  (11) 
11

>  <SMILES>  (11) 
CN(C)CCNc1c2c([n+](C)c3ccccc13)-c1cc3cc(Br)ccc3[nH+]c1C2=O

>  <Energy>  (11) 
117.17450555028832

>  <Genealogy>  (11) 
CN(C)CCNc1c2c([n+](C)c3ccccc13)-c1cc3cc(Br)ccc3[nH+]c1C2=O (protonated)
CN(C)CCNc1c2c([n+](C)c3ccccc13)-c1cc3cc(Br)ccc3[nH+]c1C2=O (3D coordinates assigned)
CN(C)CCNc1c2c([n+](C)c3ccccc13)-c1cc3cc(Br)ccc3[nH+]c1C2=O (nonaromatic ring conformer: 117.17450555028832 kcal/mol)

>  <smiles>  (11) 
CN(C)CCNc1c2c([n+](C)c3ccccc13)-c1cc3cc(Br)ccc3nc1C2=O

>  <score_type>  (11) 
oracle

>  <origin>  (11) 
adg

>  <m_score__min__energy>  (11) 
-8.2100000000000009

>  <m_primary>  (11) 
energy

$$$$
11:0
     RDKit          3D

 58 60  0  0  0  0  0  0  0  0999 V2000
   -2.6130   24.3140  -27.1150 C   0  0  0  0  0  0  0  0  0  0  0  0
   -1.7050   25.2940  -27.8610 C   0  0  0  0  0  0  0  0  0  0  0  0
   -1.6270   25.0040  -29.3020 N   0  0  0  0  0  0  0  0  0  0  0  0
   -1.9230   23.5940  -29.6340 C   0  0  0  0  0  0  0  0  0  0  0  0
   -3.3730   23.3970  -30.1010 C   0  0  0  0  0  0  0  0  0  0  0  0
   -3.8500   24.6020  -30.6630 O   0  0  0  0  0  0  0  0  0  0  0  0
   -5.2150   24.8070  -30.3510 C   0  0  0  0  0  0  0  0  0  0  0  0
   -6.1200   23.8150  -31.1040 C   0  0  0  0  0  0  0  0  0  0  0  0
   -5.5590   23.3750  -32.3990 N   0  0  0  0  0  0  0  0  0  0  0  0
   -5.5900   21.9240  -32.5550 C   0  0  0  0  0  0  0  0  0  0  0  0
   -6.8220   21.2290  -32.4530 C   0  0  0  0  0  0  0  0  0  0  0  0
   -6.8560   19.8240  -32.5760 C   0  0  0  0  0  0  0  0  0  0  0  0
   -5.6910   19.0940  -32.6870 N   0  0  0  0  0  0  0  0  0  0  0  0
   -5.7330   17.6180  -32.5350 C   0  0  0  0  0  0  0  0  0  0  0  0
   -6.0640   16.9330  -33.8620 C   0  0  0  0  0  0  0  0  0  0  0  0
   -4.4870   19.7440  -32.8990 C   0  0  0  0  0  0  0  0  0  0  0  0
   -3.3000   19.0220  -33.2080 C   0  0  0  0  0  0  0  0  0  0  0  0
   -2.0790   19.6660  -33.3730 C   0  0  0  0  0  0  0  0  0  0  0  0
   -1.9960   21.0410  -33.2440 C   0  0  0  0  0  0  0  0  0  0  0  0
   -3.1370   21.7880  -32.9720 C   0  0  0  0  0  0  0  0  0  0  0  0
   -4.4070   21.1700  -32.8140 C   0  0  0  0  0  0  0  0  0  0  0  0
   -8.2460   19.1930  -32.6240 C   0  0  0  0  0  0  0  0  0  0  0  0
   -9.0940   19.6750  -31.4390 C   0  0  0  0  0  0  0  0  0  0  0  0
   -9.0200   21.2030  -31.2150 C   0  0  0  0  0  0  0  0  0  0  0  0
   -8.1620   21.9360  -32.2590 C   0  0  0  0  0  0  0  0  0  0  0  0
   -2.4869   24.4501  -26.0308 H   0  0  0  0  0  0  0  0  0  0  0  0
   -3.6612   24.5041  -27.3890 H   0  0  0  0  0  0  0  0  0  0  0  0
   -2.3436   23.2833  -27.3890 H   0  0  0  0  0  0  0  0  0  0  0  0
   -2.0990   26.3122  -27.7268 H   0  0  0  0  0  0  0  0  0  0  0  0
   -0.6918   25.1946  -27.4445 H   0  0  0  0  0  0  0  0  0  0  0  0
   -2.2360   25.6730  -29.8300 H   0  0  0  0  0  0  0  0  0  0  0  0
   -1.2454   23.2701  -30.4377 H   0  0  0  0  0  0  0  0  0  0  0  0
   -1.7791   22.9962  -28.7219 H   0  0  0  0  0  0  0  0  0  0  0  0
   -3.4104   22.5988  -30.8570 H   0  0  0  0  0  0  0  0  0  0  0  0
   -4.0016   23.1162  -29.2431 H   0  0  0  0  0  0  0  0  0  0  0  0
   -5.3587   24.6717  -29.2689 H   0  0  0  0  0  0  0  0  0  0  0  0
   -5.4901   25.8270  -30.6576 H   0  0  0  0  0  0  0  0  0  0  0  0
   -6.2696   22.9288  -30.4697 H   0  0  0  0  0  0  0  0  0  0  0  0
   -7.0644   24.3362  -31.3195 H   0  0  0  0  0  0  0  0  0  0  0  0
   -4.6180   23.7940  -32.5420 H   0  0  0  0  0  0  0  0  0  0  0  0
   -6.1050   23.8150  -33.1730 H   0  0  0  0  0  0  0  0  0  0  0  0
   -4.7517   17.2656  -32.1846 H   0  0  0  0  0  0  0  0  0  0  0  0
   -6.5189   17.3656  -31.8079 H   0  0  0  0  0  0  0  0  0  0  0  0
   -6.5348   15.9587  -33.6643 H   0  0  0  0  0  0  0  0  0  0  0  0
   -6.7563   17.5646  -34.4380 H   0  0  0  0  0  0  0  0  0  0  0  0
   -5.1389   16.7831  -34.4380 H   0  0  0  0  0  0  0  0  0  0  0  0
   -3.3499   17.9287  -33.3189 H   0  0  0  0  0  0  0  0  0  0  0  0
   -1.1771   19.0812  -33.6066 H   0  0  0  0  0  0  0  0  0  0  0  0
   -1.0247   21.5448  -33.3569 H   0  0  0  0  0  0  0  0  0  0  0  0
   -3.0548   22.8808  -32.8771 H   0  0  0  0  0  0  0  0  0  0  0  0
   -8.7413   19.4784  -33.5638 H   0  0  0  0  0  0  0  0  0  0  0  0
   -8.1433   18.0993  -32.5676 H   0  0  0  0  0  0  0  0  0  0  0  0
  -10.1426   19.3999  -31.6254 H   0  0  0  0  0  0  0  0  0  0  0  0
   -8.6934   19.1935  -30.5347 H   0  0  0  0  0  0  0  0  0  0  0  0
  -10.0409   21.6105  -31.2555 H   0  0  0  0  0  0  0  0  0  0  0  0
   -8.5448   21.3634  -30.2360 H   0  0  0  0  0  0  0  0  0  0  0  0
   -8.7007   21.9572  -33.2178 H   0  0  0  0  0  0  0  0  0  0  0  0
   -7.9723   22.9596  -31.9036 H   0  0  0  0  0  0  0  0  0  0  0  0
  1  2  1  0
  2  3  1  0
  3  4  1  0
  4  5  1  0
  5  6  1  0
  6  7  1  0
  7  8  1  0
  8  9  1  0
  9 10  1  0
 10 11  2  0
 11 12  1  0
 12 13  2  0
 13 14  1  0
 14 15  1  0
 13 16  1  0
 16 17  2  0
 17 18  1  0
 18 19  2  0
 19 20  1  0
 20 21  2  0
 12 22  1  0
 22 23  1  0
 23 24  1  0
 24 25  1  0
 21 10  1  0
 25 11  1  0
 21 16  1  0
  1 26  1  0
  1 27  1  0
  1 28  1  0
  2 29  1  0
  2 30  1  0
  3 31  1  0
  4 32  1  0
  4 33  1  0
  5 34  1  0
  5 35  1  0
  7 36  1  0
  7 37  1  0
  8 38  1  0
  8 39  1  0
  9 40  1  0
  9 41  1  0
 14 42  1  0
 14 43  1  0
 15 44  1  0
 15 45  1  0
 15 46  1  0
 17 47  1  0
 18 48  1  0
 19 49  1  0
 20 50  1  0
 22 51  1  0
 22 52  1  0
 23 53  1  0
 23 54  1  0
 24 55  1  0
 24 56  1  0
 25 57  1  0
 25 58  1  0
M  CHG  2   9   1  13   1
M  END
>  <UniqueID>  (12) 
12

>  <SMILES>  (12) 
CCNCCOCC[NH2+]c1c2c([n+](CC)c3ccccc13)CCCC2

>  <Energy>  (12) 
84.05900224829651

>  <Genealogy>  (12) 
CCNCCOCC[NH2+]c1c2c([n+](CC)c3ccccc13)CCCC2 (protonated)
CCNCCOCC[NH2+]c1c2c([n+](CC)c3ccccc13)CCCC2 (3D coordinates assigned)
CCNCCOCC[NH2+]c1c2c([n+](CC)c3ccccc13)CCCC2 (nonaromatic ring conformer: 84.05900224829651 kcal/mol)

>  <smiles>  (12) 
CCNCCOCCNc1c2c([n+](CC)c3ccccc13)CCCC2

>  <score_type>  (12) 
oracle

>  <origin>  (12) 
adg

>  <m_score__min__energy>  (12) 
-8.4100000000000001

>  <m_primary>  (12) 
energy

$$$$
12:0
     RDKit          3D

 49 51  0  0  0  0  0  0  0  0999 V2000
   -4.1800   24.2830  -27.7360 C   0  0  0  0  0  0  0  0  0  0  0  0
   -4.3870   24.0530  -29.1740 N   0  0  0  0  0  0  0  0  0  0  0  0
   -5.4390   24.9330  -29.7090 C   0  0  0  0  0  0  0  0  0  0  0  0
   -4.5980   22.6270  -29.5140 C   0  0  0  0  0  0  0  0  0  0  0  0
   -3.3450   21.9120  -30.0700 C   0  0  0  0  0  0  0  0  0  0  0  0
   -2.9880   22.3650  -31.4990 C   0  0  0  0  0  0  0  0  0  0  0  0
   -3.2210   21.2880  -32.5700 C   0  0  0  0  0  0  0  0  0  0  0  0
   -4.4690   21.5060  -33.2990 N   0  0  0  0  0  0  0  0  0  0  0  0
   -5.6380   20.7410  -32.9660 C   0  0  0  0  0  0  0  0  0  0  0  0
   -6.7860   21.3820  -32.4690 C   0  0  0  0  0  0  0  0  0  0  0  0
   -6.8270   22.7860  -32.3290 C   0  0  0  0  0  0  0  0  0  0  0  0
   -7.9830   23.4260  -31.8920 C   0  0  0  0  0  0  0  0  0  0  0  0
   -9.1210   22.6850  -31.6030 C   0  0  0  0  0  0  0  0  0  0  0  0
   -9.1050   21.2960  -31.7260 C   0  0  0  0  0  0  0  0  0  0  0  0
   -7.9300   20.6090  -32.1300 C   0  0  0  0  0  0  0  0  0  0  0  0
   -7.8870   19.2310  -32.2210 N   0  0  0  0  0  0  0  0  0  0  0  0
   -8.9590   18.4160  -31.6050 C   0  0  0  0  0  0  0  0  0  0  0  0
   -6.8310   18.6110  -32.8630 C   0  0  0  0  0  0  0  0  0  0  0  0
   -6.8690   17.2360  -33.2080 C   0  0  0  0  0  0  0  0  0  0  0  0
   -5.7690   16.6080  -33.7950 C   0  0  0  0  0  0  0  0  0  0  0  0
   -5.8460   14.9030  -34.2020 Cl  0  0  0  0  0  0  0  0  0  0  0  0
   -4.6120   17.3320  -34.0600 C   0  0  0  0  0  0  0  0  0  0  0  0
   -4.5600   18.6940  -33.7730 C   0  0  0  0  0  0  0  0  0  0  0  0
   -5.6700   19.3550  -33.2050 C   0  0  0  0  0  0  0  0  0  0  0  0
   -4.8067   23.5867  -27.1594 H   0  0  0  0  0  0  0  0  0  0  0  0
   -3.1217   24.1163  -27.4866 H   0  0  0  0  0  0  0  0  0  0  0  0
   -4.4569   25.3180  -27.4866 H   0  0  0  0  0  0  0  0  0  0  0  0
   -5.9901   25.3940  -28.8761 H   0  0  0  0  0  0  0  0  0  0  0  0
   -4.9802   25.7202  -30.3253 H   0  0  0  0  0  0  0  0  0  0  0  0
   -6.1327   24.3424  -30.3253 H   0  0  0  0  0  0  0  0  0  0  0  0
   -4.9195   22.1000  -28.6036 H   0  0  0  0  0  0  0  0  0  0  0  0
   -5.3542   22.6027  -30.3125 H   0  0  0  0  0  0  0  0  0  0  0  0
   -2.4932   22.1291  -29.4087 H   0  0  0  0  0  0  0  0  0  0  0  0
   -3.5658   20.8351  -30.1078 H   0  0  0  0  0  0  0  0  0  0  0  0
   -3.6046   23.2410  -31.7488 H   0  0  0  0  0  0  0  0  0  0  0  0
   -1.9115   22.5914  -31.5027 H   0  0  0  0  0  0  0  0  0  0  0  0
   -2.3840   21.3088  -33.2834 H   0  0  0  0  0  0  0  0  0  0  0  0
   -3.2869   20.3131  -32.0648 H   0  0  0  0  0  0  0  0  0  0  0  0
   -4.4230   21.9340  -34.2520 H   0  0  0  0  0  0  0  0  0  0  0  0
   -5.9339   23.3819  -32.5683 H   0  0  0  0  0  0  0  0  0  0  0  0
   -7.9951   24.5197  -31.7755 H   0  0  0  0  0  0  0  0  0  0  0  0
  -10.0388   23.1955  -31.2758 H   0  0  0  0  0  0  0  0  0  0  0  0
  -10.0180   20.7231  -31.5064 H   0  0  0  0  0  0  0  0  0  0  0  0
   -8.8810   18.4753  -30.5094 H   0  0  0  0  0  0  0  0  0  0  0  0
   -9.9397   18.7986  -31.9240 H   0  0  0  0  0  0  0  0  0  0  0  0
   -8.8526   17.3687  -31.9240 H   0  0  0  0  0  0  0  0  0  0  0  0
   -7.7812   16.6541  -33.0096 H   0  0  0  0  0  0  0  0  0  0  0  0
   -3.7368   16.8287  -34.4967 H   0  0  0  0  0  0  0  0  0  0  0  0
   -3.6431   19.2610  -33.9916 H   0  0  0  0  0  0  0  0  0  0  0  0
  1  2  1  0
  2  3  1  0
  2  4  1  0
  4  5  1  0
  5  6  1  0
  6  7  1  0
  7  8  1  0
  8  9  1  0
  9 10  2  0
 10 11  1  0
 11 12  2  0
 12 13  1  0
 13 14  2  0
 14 15  1  0
 15 16  2  0
 16 17  1  0
 16 18  1  0
 18 19  2  0
 19 20  1  0
 20 21  1  0
 20 22  2  0
 22 23  1  0
 23 24  2  0
 24  9  1  0
 15 10  1  0
 24 18  1  0
  1 25  1  0
  1 26  1  0
  1 27  1  0
  3 28  1  0
  3 29  1  0
  3 30  1  0
  4 31  1  0
  4 32  1  0
  5 33  1  0
  5 34  1  0
  6 35  1  0
  6 36  1  0
  7 37  1  0
  7 38  1  0
  8 39  1  0
 11 40  1  0
 12 41  1  0
 13 42  1  0
 14 43  1  0
 17 44  1  0
 17 45  1  0
 17 46  1  0
 19 47  1  0
 22 48  1  0
 23 49  1  0
M  CHG  1  16   1
M  END
>  <UniqueID>  (13) 
13

>  <SMILES>  (13) 
CN(C)CCCCNc1c2ccccc2[n+](C)c2cc(Cl)ccc12

>  <Energy>  (13) 
75.34270390002189

>  <Genealogy>  (13) 
CN(C)CCCCNc1c2ccccc2[n+](C)c2cc(Cl)ccc12 (3D coordinates assigned)
CN(C)CCCCNc1c2ccccc2[n+](C)c2cc(Cl)ccc12 (optimized conformer: 75.34270390002189 kcal/mol)

>  <smiles>  (13) 
CN(C)CCCCNc1c2ccccc2[n+](C)c2cc(Cl)ccc12

>  <score_type>  (13) 
oracle

>  <origin>  (13) 
adg

>  <m_score__min__energy>  (13) 
-8.7300000000000004

>  <m_primary>  (13) 
energy

$$$$
13:0
     RDKit          3D

 33 35  0  0  0  0  0  0  0  0999 V2000
   -4.3580   13.4410  -31.4080 C   0  0  0  0  0  0  0  0  0  0  0  0
   -4.6130   14.6000  -32.3180 C   0  0  0  0  0  0  0  0  0  0  0  0
   -5.3200   15.6710  -31.8670 N   0  0  0  0  0  0  0  0  0  0  0  0
   -5.5800   16.7310  -32.6740 C   0  0  0  0  0  0  0  0  0  0  0  0
   -6.3070   17.8250  -32.1910 C   0  0  0  0  0  0  0  0  0  0  0  0
   -6.5800   18.9240  -33.0270 C   0  0  0  0  0  0  0  0  0  0  0  0
   -7.3510   20.0860  -32.5150 C   0  0  0  0  0  0  0  0  0  0  0  0
   -8.7540   20.0350  -32.4420 C   0  0  0  0  0  0  0  0  0  0  0  0
   -9.4770   21.1330  -31.9740 C   0  0  0  0  0  0  0  0  0  0  0  0
   -8.8140   22.2920  -31.5680 C   0  0  0  0  0  0  0  0  0  0  0  0
   -7.4110   22.3580  -31.6070 C   0  0  0  0  0  0  0  0  0  0  0  0
   -6.6940   23.6260  -31.2180 C   0  0  0  0  0  0  0  0  0  0  0  0
   -6.1070   24.1790  -32.3400 F   0  0  0  0  0  0  0  0  0  0  0  0
   -7.5770   24.5430  -30.6730 F   0  0  0  0  0  0  0  0  0  0  0  0
   -5.7110   23.3620  -30.2790 F   0  0  0  0  0  0  0  0  0  0  0  0
   -6.6880   21.2580  -32.1040 C   0  0  0  0  0  0  0  0  0  0  0  0
   -6.1110   18.9080  -34.3540 C   0  0  0  0  0  0  0  0  0  0  0  0
   -5.3850   17.8160  -34.8400 C   0  0  0  0  0  0  0  0  0  0  0  0
   -5.1170   16.7270  -34.0020 C   0  0  0  0  0  0  0  0  0  0  0  0
   -4.3970   15.6150  -34.4480 C   0  0  0  0  0  0  0  0  0  0  0  0
   -4.1600   14.5760  -33.6040 N   0  0  0  0  0  0  0  0  0  0  0  0
   -4.4311   13.7732  -30.3619 H   0  0  0  0  0  0  0  0  0  0  0  0
   -5.1048   12.6557  -31.5964 H   0  0  0  0  0  0  0  0  0  0  0  0
   -3.3505   13.0417  -31.5964 H   0  0  0  0  0  0  0  0  0  0  0  0
   -6.6673   17.8260  -31.1517 H   0  0  0  0  0  0  0  0  0  0  0  0
   -9.2850   19.1242  -32.7557 H   0  0  0  0  0  0  0  0  0  0  0  0
  -10.5748   21.0848  -31.9249 H   0  0  0  0  0  0  0  0  0  0  0  0
   -9.3929   23.1584  -31.2156 H   0  0  0  0  0  0  0  0  0  0  0  0
   -5.5916   21.3144  -32.1722 H   0  0  0  0  0  0  0  0  0  0  0  0
   -6.3175   19.7626  -35.0151 H   0  0  0  0  0  0  0  0  0  0  0  0
   -5.0250   17.8127  -35.8794 H   0  0  0  0  0  0  0  0  0  0  0  0
   -4.0223   15.5806  -35.4816 H   0  0  0  0  0  0  0  0  0  0  0  0
   -3.6240   13.7500  -33.9540 H   0  0  0  0  0  0  0  0  0  0  0  0
  1  2  1  0
  2  3  2  0
  3  4  1  0
  4  5  2  0
  5  6  1  0
  6  7  1  0
  7  8  2  0
  8  9  1  0
  9 10  2  0
 10 11  1  0
 11 12  1  0
 12 13  1  0
 12 14  1  0
 12 15  1  0
 11 16  2  0
  6 17  2  0
 17 18  1  0
 18 19  2  0
 19 20  1  0
 20 21  2  0
 21  2  1  0
 19  4  1  0
 16  7  1  0
  1 22  1  0
  1 23  1  0
  1 24  1  0
  5 25  1  0
  8 26  1  0
  9 27  1  0
 10 28  1  0
 16 29  1  0
 17 30  1  0
 18 31  1  0
 20 32  1  0
 21 33  1  0
M  CHG  1  21   1
M  END
>  <UniqueID>  (14) 
14

>  <SMILES>  (14) 
Cc1nc2cc(-c3cccc(C(F)(F)F)c3)ccc2c[nH+]1

>  <Energy>  (14) 
42.92816526655865

>  <Genealogy>  (14) 
Cc1nc2cc(-c3cccc(C(F)(F)F)c3)ccc2c[nH+]1 (protonated)
Cc1nc2cc(-c3cccc(C(F)(F)F)c3)ccc2c[nH+]1 (3D coordinates assigned)
Cc1nc2cc(-c3cccc(C(F)(F)F)c3)ccc2c[nH+]1 (optimized conformer: 42.92816526655865 kcal/mol)

>  <smiles>  (14) 
Cc1ncc2ccc(-c3cccc(C(F)(F)F)c3)cc2n1

>  <score_type>  (14) 
oracle

>  <origin>  (14) 
adg

>  <m_score__min__energy>  (14) 
-6.9100000000000001

>  <m_primary>  (14) 
energy

$$$$
14:0
     RDKit          3D

 62 64  0  0  0  0  0  0  0  0999 V2000
    0.1780   25.3050  -36.4350 C   0  0  0  0  0  0  0  0  0  0  0  0
    1.0400   24.0480  -36.3030 C   0  0  0  0  0  0  0  0  0  0  0  0
    0.4800   23.0810  -35.3450 N   0  0  0  0  0  0  0  0  0  0  0  0
    1.3210   21.8830  -35.1590 C   0  0  0  0  0  0  0  0  0  0  0  0
    0.6810   20.6300  -35.7780 C   0  0  0  0  0  0  0  0  0  0  0  0
   -0.4710   20.1110  -34.9120 C   0  0  0  0  0  0  0  0  0  0  0  0
   -1.1980   21.2380  -34.3180 N   0  0  0  0  0  0  0  0  0  0  0  0
   -1.1050   21.1900  -32.8550 C   0  0  0  0  0  0  0  0  0  0  0  0
   -2.4630   21.5160  -32.2320 C   0  0  0  0  0  0  0  0  0  0  0  0
   -3.5060   21.5700  -33.2550 N   0  0  0  0  0  0  0  0  0  0  0  0
   -4.8260   21.0890  -32.9760 C   0  0  0  0  0  0  0  0  0  0  0  0
   -5.1790   19.7730  -33.3120 C   0  0  0  0  0  0  0  0  0  0  0  0
   -6.4860   19.3050  -33.0090 C   0  0  0  0  0  0  0  0  0  0  0  0
   -7.4180   20.1700  -32.4620 N   0  0  0  0  0  0  0  0  0  0  0  0
   -8.8270   19.7510  -32.3100 C   0  0  0  0  0  0  0  0  0  0  0  0
   -7.0330   21.4230  -32.0330 C   0  0  0  0  0  0  0  0  0  0  0  0
   -5.7570   21.9210  -32.3420 C   0  0  0  0  0  0  0  0  0  0  0  0
   -5.4710   23.3810  -32.0610 C   0  0  0  0  0  0  0  0  0  0  0  0
   -5.8980   23.7790  -30.6400 C   0  0  0  0  0  0  0  0  0  0  0  0
   -7.1750   23.0680  -30.1390 C   0  0  0  0  0  0  0  0  0  0  0  0
   -7.9560   22.3420  -31.2450 C   0  0  0  0  0  0  0  0  0  0  0  0
   -6.8740   17.8710  -33.3560 C   0  0  0  0  0  0  0  0  0  0  0  0
   -5.6790   16.9460  -33.5800 C   0  0  0  0  0  0  0  0  0  0  0  0
   -4.6960   17.5950  -34.5410 C   0  0  0  0  0  0  0  0  0  0  0  0
   -4.1210   18.8620  -33.9120 C   0  0  0  0  0  0  0  0  0  0  0  0
   -0.0792   25.6801  -35.4334 H   0  0  0  0  0  0  0  0  0  0  0  0
    0.7374   26.0773  -36.9833 H   0  0  0  0  0  0  0  0  0  0  0  0
   -0.7440   25.0614  -36.9833 H   0  0  0  0  0  0  0  0  0  0  0  0
    1.1145   23.5657  -37.2888 H   0  0  0  0  0  0  0  0  0  0  0  0
    2.0275   24.3565  -35.9292 H   0  0  0  0  0  0  0  0  0  0  0  0
   -0.5010   22.8350  -35.6200 H   0  0  0  0  0  0  0  0  0  0  0  0
    2.2968   22.0563  -35.6362 H   0  0  0  0  0  0  0  0  0  0  0  0
    1.4324   21.7098  -34.0784 H   0  0  0  0  0  0  0  0  0  0  0  0
    0.2943   20.8808  -36.7768 H   0  0  0  0  0  0  0  0  0  0  0  0
    1.4478   19.8442  -35.8450 H   0  0  0  0  0  0  0  0  0  0  0  0
   -1.1591   19.5216  -35.5359 H   0  0  0  0  0  0  0  0  0  0  0  0
   -0.0634   19.4800  -34.1085 H   0  0  0  0  0  0  0  0  0  0  0  0
   -2.2090   21.1390  -34.5770 H   0  0  0  0  0  0  0  0  0  0  0  0
   -0.7939   20.1821  -32.5429 H   0  0  0  0  0  0  0  0  0  0  0  0
   -0.3659   21.9310  -32.5164 H   0  0  0  0  0  0  0  0  0  0  0  0
   -2.7186   20.7380  -31.4976 H   0  0  0  0  0  0  0  0  0  0  0  0
   -2.3987   22.4992  -31.7429 H   0  0  0  0  0  0  0  0  0  0  0  0
   -3.3000   21.9330  -34.2140 H   0  0  0  0  0  0  0  0  0  0  0  0
   -9.0743   19.6774  -31.2407 H   0  0  0  0  0  0  0  0  0  0  0  0
   -9.4837   20.4927  -32.7881 H   0  0  0  0  0  0  0  0  0  0  0  0
   -8.9717   18.7710  -32.7881 H   0  0  0  0  0  0  0  0  0  0  0  0
   -4.3916   23.5610  -32.1727 H   0  0  0  0  0  0  0  0  0  0  0  0
   -6.0471   23.9875  -32.7753 H   0  0  0  0  0  0  0  0  0  0  0  0
   -5.0752   23.5354  -29.9518 H   0  0  0  0  0  0  0  0  0  0  0  0
   -6.1261   24.8547  -30.6685 H   0  0  0  0  0  0  0  0  0  0  0  0
   -6.8843   22.3291  -29.3777 H   0  0  0  0  0  0  0  0  0  0  0  0
   -7.8389   23.8479  -29.7376 H   0  0  0  0  0  0  0  0  0  0  0  0
   -8.7589   21.7443  -30.7888 H   0  0  0  0  0  0  0  0  0  0  0  0
   -8.3828   23.0900  -31.9293 H   0  0  0  0  0  0  0  0  0  0  0  0
   -7.4766   17.4652  -32.5301 H   0  0  0  0  0  0  0  0  0  0  0  0
   -7.4309   17.9102  -34.3038 H   0  0  0  0  0  0  0  0  0  0  0  0
   -5.1787   16.7570  -32.6188 H   0  0  0  0  0  0  0  0  0  0  0  0
   -6.0313   15.9962  -34.0086 H   0  0  0  0  0  0  0  0  0  0  0  0
   -3.8788   16.8915  -34.7585 H   0  0  0  0  0  0  0  0  0  0  0  0
   -5.2172   17.8559  -35.4739 H   0  0  0  0  0  0  0  0  0  0  0  0
   -3.4212   18.5689  -33.1155 H   0  0  0  0  0  0  0  0  0  0  0  0
   -3.6249   19.4264  -34.7153 H   0  0  0  0  0  0  0  0  0  0  0  0
  1  2  1  0
  2  3  1  0
  3  4  1  0
  4  5  1  0
  5  6  1  0
  6  7  1  0
  7  8  1  0
  8  9  1  0
  9 10  1  0
 10 11  1  0
 11 12  2  0
 12 13  1  0
 13 14  2  0
 14 15  1  0
 14 16  1  0
 16 17  2  0
 17 18  1  0
 18 19  1  0
 19 20  1  0
 20 21  1  0
 13 22  1  0
 22 23  1  0
 23 24  1  0
 24 25  1  0
 17 11  1  0
 25 12  1  0
 21 16  1  0
  1 26  1  0
  1 27  1  0
  1 28  1  0
  2 29  1  0
  2 30  1  0
  3 31  1  0
  4 32  1  0
  4 33  1  0
  5 34  1  0
  5 35  1  0
  6 36  1  0
  6 37  1  0
  7 38  1  0
  8 39  1  0
  8 40  1  0
  9 41  1  0
  9 42  1  0
 10 43  1  0
 15 44  1  0
 15 45  1  0
 15 46  1  0
 18 47  1  0
 18 48  1  0
 19 49  1  0
 19 50  1  0
 20 51  1  0
 20 52  1  0
 21 53  1  0
 21 54  1  0
 22 55  1  0
 22 56  1  0
 23 57  1  0
 23 58  1  0
 24 59  1  0
 24 60  1  0
 25 61  1  0
 25 62  1  0
M  CHG  1  14   1
M  END
>  <UniqueID>  (15) 
15

>  <SMILES>  (15) 
CCNCCCNCCNc1c2c([n+](C)c3c1CCCC3)CCCC2

>  <Energy>  (15) 
73.43813247749142

>  <Genealogy>  (15) 
CCNCCCNCCNc1c2c([n+](C)c3c1CCCC3)CCCC2 (3D coordinates assigned)
CCNCCCNCCNc1c2c([n+](C)c3c1CCCC3)CCCC2 (nonaromatic ring conformer: 73.43813247749142 kcal/mol)

>  <smiles>  (15) 
CCNCCCNCCNc1c2c([n+](C)c3c1CCCC3)CCCC2

>  <score_type>  (15) 
oracle

>  <origin>  (15) 
adg

>  <m_score__min__energy>  (15) 
-9.2200000000000006

>  <m_primary>  (15) 
energy

$$$$
15:0
     RDKit          3D

 49 50  0  0  0  0  0  0  0  0999 V2000
   -4.7929   23.8679  -32.6819 H   0  0  0  0  0  0  0  0  0  0  0  0
   -4.7340   23.0480  -31.9510 C   0  0  0  0  0  0  0  0  0  0  0  0
   -4.1170   23.2740  -30.7840 C   0  0  0  0  0  0  0  0  0  0  0  0
   -3.4890   24.4640  -30.6010 F   0  0  0  0  0  0  0  0  0  0  0  0
   -4.0830   22.2700  -29.6660 C   0  0  0  0  0  0  0  0  0  0  0  0
   -4.3292   21.2730  -30.0602 H   0  0  0  0  0  0  0  0  0  0  0  0
   -4.8180   22.5506  -28.8972 H   0  0  0  0  0  0  0  0  0  0  0  0
   -2.7900   22.2460  -29.0970 O   0  0  0  0  0  0  0  0  0  0  0  0
   -1.9410   21.3760  -29.8170 C   0  0  0  0  0  0  0  0  0  0  0  0
   -1.1168   21.9595  -30.2531 H   0  0  0  0  0  0  0  0  0  0  0  0
   -2.5325   20.8879  -30.6056 H   0  0  0  0  0  0  0  0  0  0  0  0
   -1.3540   20.2840  -28.9040 C   0  0  0  0  0  0  0  0  0  0  0  0
   -0.2564   20.3350  -28.9562 H   0  0  0  0  0  0  0  0  0  0  0  0
   -1.7352   19.3153  -29.2595 H   0  0  0  0  0  0  0  0  0  0  0  0
   -1.7710   20.4350  -27.4790 N   0  0  0  0  0  0  0  0  0  0  0  0
   -2.6840   20.9500  -27.4550 H   0  0  0  0  0  0  0  0  0  0  0  0
   -2.0430   19.1120  -26.8500 C   0  0  0  0  0  0  0  0  0  0  0  0
   -1.3630   18.9916  -25.9938 H   0  0  0  0  0  0  0  0  0  0  0  0
   -1.8859   18.3541  -27.6316 H   0  0  0  0  0  0  0  0  0  0  0  0
   -3.4850   18.9330  -26.3480 C   0  0  0  0  0  0  0  0  0  0  0  0
   -3.4929   18.9320  -25.2480 H   0  0  0  0  0  0  0  0  0  0  0  0
   -4.1076   19.7608  -26.7184 H   0  0  0  0  0  0  0  0  0  0  0  0
   -3.8863   17.9781  -26.7184 H   0  0  0  0  0  0  0  0  0  0  0  0
   -0.7840   21.2500  -26.7180 C   0  0  0  0  0  0  0  0  0  0  0  0
   -0.6732   20.8180  -25.7125 H   0  0  0  0  0  0  0  0  0  0  0  0
    0.1620   21.2305  -27.2789 H   0  0  0  0  0  0  0  0  0  0  0  0
   -1.2040   22.7180  -26.5760 C   0  0  0  0  0  0  0  0  0  0  0  0
   -1.2780   22.9767  -25.5094 H   0  0  0  0  0  0  0  0  0  0  0  0
   -0.4541   23.3622  -27.0584 H   0  0  0  0  0  0  0  0  0  0  0  0
   -2.1811   22.8681  -27.0584 H   0  0  0  0  0  0  0  0  0  0  0  0
   -5.3390   21.7460  -32.3000 C   0  0  0  0  0  0  0  0  0  0  0  0
   -4.5100   20.8050  -32.9410 C   0  0  0  0  0  0  0  0  0  0  0  0
   -2.7860   21.0890  -33.1760 Cl  0  0  0  0  0  0  0  0  0  0  0  0
   -5.0590   19.6380  -33.4610 C   0  0  0  0  0  0  0  0  0  0  0  0
   -4.4093   18.8970  -33.9496 H   0  0  0  0  0  0  0  0  0  0  0  0
   -6.3890   19.4110  -33.3680 N   0  0  0  0  0  0  0  0  0  0  0  0
   -7.2280   20.2710  -32.7390 C   0  0  0  0  0  0  0  0  0  0  0  0
   -8.5900   19.9660  -32.7060 C   0  0  0  0  0  0  0  0  0  0  0  0
   -8.9563   19.0499  -33.1925 H   0  0  0  0  0  0  0  0  0  0  0  0
   -9.4850   20.8100  -32.0640 C   0  0  0  0  0  0  0  0  0  0  0  0
  -10.5611   20.5821  -32.0766 H   0  0  0  0  0  0  0  0  0  0  0  0
   -9.0220   21.9450  -31.4040 C   0  0  0  0  0  0  0  0  0  0  0  0
   -9.7391   22.6008  -30.8885 H   0  0  0  0  0  0  0  0  0  0  0  0
   -7.6510   22.2680  -31.3850 C   0  0  0  0  0  0  0  0  0  0  0  0
   -7.2410   23.4320  -30.5150 C   0  0  0  0  0  0  0  0  0  0  0  0
   -7.3400   23.1510  -29.4561 H   0  0  0  0  0  0  0  0  0  0  0  0
   -6.1950   23.6981  -30.7275 H   0  0  0  0  0  0  0  0  0  0  0  0
   -7.8893   24.2949  -30.7275 H   0  0  0  0  0  0  0  0  0  0  0  0
   -6.7300   21.4580  -32.1270 C   0  0  0  0  0  0  0  0  0  0  0  0
  1  2  1  0
  2  3  2  0
  3  4  1  0
  3  5  1  0
  5  6  1  0
  5  7  1  0
  5  8  1  0
  8  9  1  0
  9 10  1  0
  9 11  1  0
  9 12  1  0
 12 13  1  0
 12 14  1  0
 12 15  1  0
 15 16  1  0
 15 17  1  0
 17 18  1  0
 17 19  1  0
 17 20  1  0
 20 21  1  0
 20 22  1  0
 20 23  1  0
 15 24  1  0
 24 25  1  0
 24 26  1  0
 24 27  1  0
 27 28  1  0
 27 29  1  0
 27 30  1  0
  2 31  1  0
 31 32  2  0
 32 33  1  0
 32 34  1  0
 34 35  1  0
 34 36  2  0
 36 37  1  0
 37 38  2  0
 38 39  1  0
 38 40  1  0
 40 41  1  0
 40 42  2  0
 42 43  1  0
 42 44  1  0
 44 45  1  0
 45 46  1  0
 45 47  1  0
 45 48  1  0
 44 49  2  0
 49 31  1  0
 49 37  1  0
M  CHG  1  15   1
M  END
>  <UniqueID>  (16) 
16

>  <SMILES>  (16) 
CC[NH+](CC)CCOC/C(F)=C\c1c(Cl)cnc2cccc(C)c12

>  <Energy>  (16) 
70.48433657491465

>  <Genealogy>  (16) 
CC[NH+](CC)CCOCC(F)=Cc1c(Cl)cnc2cccc(C)c12 (protonated)
CC[NH+](CC)CCOC/C(F)=C\c1c(Cl)cnc2cccc(C)c12 (cis-trans isomerization)
CC[NH+](CC)CCOC/C(F)=C\c1c(Cl)cnc2cccc(C)c12 (3D coordinates assigned)
CC[NH+](CC)CCOC/C(F)=C\c1c(Cl)cnc2cccc(C)c12 (optimized conformer: 70.48433657491465 kcal/mol)

>  <smiles>  (16) 
CCN(CC)CCOCC(F)=Cc1c(Cl)cnc2cccc(C)c12

>  <score_type>  (16) 
oracle

>  <origin>  (16) 
adg

>  <m_score__min__energy>  (16) 
-6.2999999999999998

>  <m_primary>  (16) 
energy

$$$$
16:0
     RDKit          3D

 43 45  0  0  0  0  0  0  0  0999 V2000
   -3.4410   21.8540  -32.2860 C   0  0  0  0  0  0  0  0  0  0  0  0
   -3.9060   22.7690  -31.1950 C   0  0  0  0  0  0  0  0  0  0  0  0
   -3.2150   22.9410  -30.0480 N   0  0  0  0  0  0  0  0  0  0  0  0
   -3.9430   23.8390  -29.3530 C   0  0  0  0  0  0  0  0  0  0  0  0
   -3.5740   24.3150  -27.9790 C   0  0  0  0  0  0  0  0  0  0  0  0
   -2.2270   23.8450  -27.6320 N   0  0  0  0  0  0  0  0  0  0  0  0
   -1.0560   25.1110  -27.8840 S   0  0  0  0  0  0  0  0  0  0  0  0
   -1.5780   26.0410  -28.9410 O   0  0  0  0  0  0  0  0  0  0  0  0
    0.2600   24.5460  -28.3480 O   0  0  0  0  0  0  0  0  0  0  0  0
   -0.8540   26.0390  -26.3630 C   0  0  0  0  0  0  0  0  0  0  0  0
   -0.8630   25.2040  -25.0920 C   0  0  0  0  0  0  0  0  0  0  0  0
   -2.0750   26.0520  -25.4570 C   0  0  0  0  0  0  0  0  0  0  0  0
   -5.0530   24.2120  -30.0910 C   0  0  0  0  0  0  0  0  0  0  0  0
   -6.1620   25.1200  -29.6380 C   0  0  0  0  0  0  0  0  0  0  0  0
   -5.0320   23.5230  -31.2510 N   0  0  0  0  0  0  0  0  0  0  0  0
   -6.0100   23.5730  -32.3440 C   0  0  0  0  0  0  0  0  0  0  0  0
   -7.0010   22.4440  -32.2200 C   0  0  0  0  0  0  0  0  0  0  0  0
   -6.6930   21.1670  -32.7170 C   0  0  0  0  0  0  0  0  0  0  0  0
   -7.6170   20.1240  -32.6010 C   0  0  0  0  0  0  0  0  0  0  0  0
   -8.8520   20.3460  -31.9860 C   0  0  0  0  0  0  0  0  0  0  0  0
   -9.1650   21.6120  -31.4880 C   0  0  0  0  0  0  0  0  0  0  0  0
   -8.2440   22.6580  -31.6020 C   0  0  0  0  0  0  0  0  0  0  0  0
   -2.9850   20.9566  -31.8424 H   0  0  0  0  0  0  0  0  0  0  0  0
   -4.2990   21.5598  -32.9084 H   0  0  0  0  0  0  0  0  0  0  0  0
   -2.6976   22.3736  -32.9084 H   0  0  0  0  0  0  0  0  0  0  0  0
   -3.5936   25.4146  -27.9565 H   0  0  0  0  0  0  0  0  0  0  0  0
   -4.2956   23.9151  -27.2514 H   0  0  0  0  0  0  0  0  0  0  0  0
   -1.9760   23.0560  -28.2790 H   0  0  0  0  0  0  0  0  0  0  0  0
   -0.1869   26.8049  -26.7853 H   0  0  0  0  0  0  0  0  0  0  0  0
   -0.9199   24.1073  -25.1546 H   0  0  0  0  0  0  0  0  0  0  0  0
   -0.2089   25.1196  -24.2117 H   0  0  0  0  0  0  0  0  0  0  0  0
   -3.0072   25.5677  -25.7831 H   0  0  0  0  0  0  0  0  0  0  0  0
   -2.6590   26.8338  -24.9494 H   0  0  0  0  0  0  0  0  0  0  0  0
   -6.1907   25.1435  -28.5386 H   0  0  0  0  0  0  0  0  0  0  0  0
   -5.9844   26.1354  -30.0219 H   0  0  0  0  0  0  0  0  0  0  0  0
   -7.1224   24.7456  -30.0219 H   0  0  0  0  0  0  0  0  0  0  0  0
   -6.5475   24.5320  -32.3048 H   0  0  0  0  0  0  0  0  0  0  0  0
   -5.4776   23.4745  -33.3015 H   0  0  0  0  0  0  0  0  0  0  0  0
   -5.7210   20.9867  -33.1994 H   0  0  0  0  0  0  0  0  0  0  0  0
   -7.3713   19.1267  -32.9947 H   0  0  0  0  0  0  0  0  0  0  0  0
   -9.5770   19.5238  -31.8944 H   0  0  0  0  0  0  0  0  0  0  0  0
  -10.1377   21.7870  -31.0051 H   0  0  0  0  0  0  0  0  0  0  0  0
   -8.4942   23.6532  -31.2058 H   0  0  0  0  0  0  0  0  0  0  0  0
  1  2  1  0
  2  3  2  0
  3  4  1  0
  4  5  1  0
  5  6  1  0
  6  7  1  0
  7  8  2  0
  7  9  2  0
  7 10  1  0
 10 11  1  0
 11 12  1  0
  4 13  2  0
 13 14  1  0
 13 15  1  0
 15 16  1  0
 16 17  1  0
 17 18  2  0
 18 19  1  0
 19 20  2  0
 20 21  1  0
 21 22  2  0
 15  2  1  0
 22 17  1  0
 12 10  1  0
  1 23  1  0
  1 24  1  0
  1 25  1  0
  5 26  1  0
  5 27  1  0
  6 28  1  0
 10 29  1  0
 11 30  1  0
 11 31  1  0
 12 32  1  0
 12 33  1  0
 14 34  1  0
 14 35  1  0
 14 36  1  0
 16 37  1  0
 16 38  1  0
 18 39  1  0
 19 40  1  0
 20 41  1  0
 21 42  1  0
 22 43  1  0
M  END
>  <UniqueID>  (17) 
17

>  <SMILES>  (17) 
Cc1nc(CNS(=O)(=O)C2CC2)c(C)n1Cc1ccccc1

>  <Energy>  (17) 
329.26076523804505

>  <Genealogy>  (17) 
Cc1nc(CNS(=O)(=O)C2CC2)c(C)n1Cc1ccccc1 (3D coordinates assigned)
Cc1nc(CNS(=O)(=O)C2CC2)c(C)n1Cc1ccccc1 (nonaromatic ring conformer: 329.26076523804505 kcal/mol)

>  <smiles>  (17) 
Cc1nc(CNS(=O)(=O)C2CC2)c(C)n1Cc1ccccc1

>  <score_type>  (17) 
oracle

>  <origin>  (17) 
adg

>  <m_score__min__energy>  (17) 
-8.6500000000000004

>  <m_primary>  (17) 
energy

$$$$
