0:0
     RDKit          3D

 51 55  0  0  0  0  0  0  0  0999 V2000
   -8.7490   19.3090  -31.4110 C   0  0  0  0  0  0  0  0  0  0  0  0
   -7.6820   19.1710  -32.3910 N   0  0  0  0  0  0  0  0  0  0  0  0
   -7.2580   20.1620  -33.1610 N   0  0  0  0  0  0  0  0  0  0  0  0
   -6.2330   19.6660  -33.8760 C   0  0  0  0  0  0  0  0  0  0  0  0
   -6.0540   18.3500  -33.4940 C   0  0  0  0  0  0  0  0  0  0  0  0
   -5.0370   17.4140  -34.0140 C   0  0  0  0  0  0  0  0  0  0  0  0
   -5.3460   16.0920  -34.1100 N   0  0  0  0  0  0  0  0  0  0  0  0
   -4.4530   15.1800  -34.5740 C   0  0  0  0  0  0  0  0  0  0  0  0
   -3.1840   15.6030  -34.9640 C   0  0  0  0  0  0  0  0  0  0  0  0
   -2.8660   16.9190  -34.8750 N   0  0  0  0  0  0  0  0  0  0  0  0
   -3.7520   17.8410  -34.4070 C   0  0  0  0  0  0  0  0  0  0  0  0
   -3.3960   19.1930  -34.3280 O   0  0  0  0  0  0  0  0  0  0  0  0
   -2.1760   19.6770  -33.7660 C   0  0  0  0  0  0  0  0  0  0  0  0
   -2.3710   21.0980  -33.2020 C   0  0  2  0  0  0  0  0  0  0  0  0
   -1.2880   21.5380  -32.2000 C   0  0  0  0  0  0  0  0  0  0  0  0
   -2.1440   22.1220  -31.0620 C   0  0  2  0  0  0  0  0  0  0  0  0
   -2.7230   20.9620  -30.2410 C   0  0  0  0  0  0  0  0  0  0  0  0
   -3.8050   20.4340  -31.1880 C   0  0  0  0  0  0  0  0  0  0  0  0
   -3.6590   21.3810  -32.4000 C   0  0  1  0  0  0  0  0  0  0  0  0
   -3.3090   22.6350  -31.7630 N   0  0  0  0  0  0  0  0  0  0  0  0
   -4.2540   23.5600  -31.1970 C   0  0  0  0  0  0  0  0  0  0  0  0
   -3.8390   24.6380  -30.6890 O   0  0  0  0  0  0  0  0  0  0  0  0
   -5.7020   23.2490  -31.1760 C   0  0  0  0  0  0  0  0  0  0  0  0
   -6.4740   23.4060  -32.3430 C   0  0  0  0  0  0  0  0  0  0  0  0
   -7.8380   23.1060  -32.3360 C   0  0  0  0  0  0  0  0  0  0  0  0
   -8.4480   22.6400  -31.1690 C   0  0  0  0  0  0  0  0  0  0  0  0
   -7.6910   22.4710  -30.0070 C   0  0  0  0  0  0  0  0  0  0  0  0
   -6.3240   22.7690  -30.0060 C   0  0  0  0  0  0  0  0  0  0  0  0
   -5.6210   22.6110  -28.8560 F   0  0  0  0  0  0  0  0  0  0  0  0
   -6.9730   18.0640  -32.5530 N   0  0  0  0  0  0  0  0  0  0  0  0
   -8.3252   19.2542  -30.3974 H   0  0  0  0  0  0  0  0  0  0  0  0
   -9.2489   20.2793  -31.5474 H   0  0  0  0  0  0  0  0  0  0  0  0
   -9.4793   18.4978  -31.5474 H   0  0  0  0  0  0  0  0  0  0  0  0
   -5.6434   20.2095  -34.6290 H   0  0  0  0  0  0  0  0  0  0  0  0
   -4.7290   14.1173  -34.6413 H   0  0  0  0  0  0  0  0  0  0  0  0
   -2.4476   14.8776  -35.3401 H   0  0  0  0  0  0  0  0  0  0  0  0
   -1.8591   19.0053  -32.9546 H   0  0  0  0  0  0  0  0  0  0  0  0
   -1.4080   19.7076  -34.5529 H   0  0  0  0  0  0  0  0  0  0  0  0
   -2.3656   21.6376  -34.1605 H   0  0  0  0  0  0  0  0  0  0  0  0
   -0.6889   20.6827  -31.8542 H   0  0  0  0  0  0  0  0  0  0  0  0
   -0.5518   22.2422  -32.6149 H   0  0  0  0  0  0  0  0  0  0  0  0
   -1.5793   22.8314  -30.4393 H   0  0  0  0  0  0  0  0  0  0  0  0
   -1.9612   20.1962  -30.0333 H   0  0  0  0  0  0  0  0  0  0  0  0
   -3.0969   21.2552  -29.2489 H   0  0  0  0  0  0  0  0  0  0  0  0
   -3.6127   19.3888  -31.4717 H   0  0  0  0  0  0  0  0  0  0  0  0
   -4.8138   20.4263  -30.7494 H   0  0  0  0  0  0  0  0  0  0  0  0
   -4.5512   21.3184  -33.0403 H   0  0  0  0  0  0  0  0  0  0  0  0
   -5.9993   23.7676  -33.2671 H   0  0  0  0  0  0  0  0  0  0  0  0
   -8.4333   23.2370  -33.2516 H   0  0  0  0  0  0  0  0  0  0  0  0
   -9.5229   22.4064  -31.1649 H   0  0  0  0  0  0  0  0  0  0  0  0
   -8.1718   22.1021  -29.0890 H   0  0  0  0  0  0  0  0  0  0  0  0
  1  2  1  0
  2  3  1  0
  3  4  2  0
  4  5  1  0
  5  6  1  0
  6  7  2  0
  7  8  1  0
  8  9  2  0
  9 10  1  0
 10 11  2  0
 11 12  1  0
 12 13  1  0
 13 14  1  0
 14 15  1  0
 15 16  1  0
 16 17  1  0
 17 18  1  0
 18 19  1  0
 19 20  1  0
 20 21  1  0
 21 22  2  0
 21 23  1  0
 23 24  2  0
 24 25  1  0
 25 26  2  0
 26 27  1  0
 27 28  2  0
 28 29  1  0
  5 30  2  0
 30  2  1  0
 11  6  1  0
 19 14  1  0
 28 23  1  0
 20 16  1  0
  1 31  1  0
  1 32  1  0
  1 33  1  0
  4 34  1  0
  8 35  1  0
  9 36  1  0
 13 37  1  0
 13 38  1  0
 14 39  1  6
 15 40  1  0
 15 41  1  0
 16 42  1  1
 17 43  1  0
 17 44  1  0
 18 45  1  0
 18 46  1  0
 19 47  1  6
 24 48  1  0
 25 49  1  0
 26 50  1  0
 27 51  1  0
M  END
>  <UniqueID>  (1) 
1

>  <SMILES>  (1) 
Cn1ncc(-c2nccnc2OC[C@@H]2C[C@@H]3CCC2N3C(=O)c2ccccc2F)n1

>  <Energy>  (1) 
132.35574973505138

>  <Genealogy>  (1) 
Cn1ncc(-c2nccnc2OC[C@@H]2C[C@@H]3CCC2N3C(=O)c2ccccc2F)n1 (chirality)
Cn1ncc(-c2nccnc2OC[C@@H]2C[C@@H]3CCC2N3C(=O)c2ccccc2F)n1 (3D coordinates assigned)
Cn1ncc(-c2nccnc2OC[C@@H]2C[C@@H]3CCC2N3C(=O)c2ccccc2F)n1 (nonaromatic ring conformer: 132.35574973505138 kcal/mol)

>  <smiles>  (1) 
Cn1ncc(-c2nccnc2OCC2CC3CCC2N3C(=O)c2ccccc2F)n1

>  <score_type>  (1) 
oracle

>  <origin>  (1) 
adg

>  <m_score__min__energy>  (1) 
-8.9700000000000006

>  <m_primary>  (1) 
energy

$$$$
1:0
     RDKit          3D

 54 57  0  0  0  0  0  0  0  0999 V2000
   -6.1230   25.0360  -30.8390 C   0  0  0  0  0  0  0  0  0  0  0  0
   -5.4090   24.8910  -29.4970 C   0  0  0  0  0  0  0  0  0  0  0  0
   -3.8840   24.8210  -29.6520 C   0  0  0  0  0  0  0  0  0  0  0  0
   -3.3880   23.4400  -29.5700 N   0  0  0  0  0  0  0  0  0  0  0  0
   -2.3710   23.0590  -28.5820 C   0  0  0  0  0  0  0  0  0  0  0  0
   -1.4920   24.2520  -28.2140 C   0  0  0  0  0  0  0  0  0  0  0  0
   -0.8740   24.7480  -29.3680 O   0  0  0  0  0  0  0  0  0  0  0  0
   -3.7310   22.5090  -30.6060 C   0  0  0  0  0  0  0  0  0  0  0  0
   -5.0360   22.2110  -30.8320 N   0  0  0  0  0  0  0  0  0  0  0  0
   -5.4060   21.3150  -31.7850 C   0  0  0  0  0  0  0  0  0  0  0  0
   -6.8390   20.9990  -31.9980 C   0  0  0  0  0  0  0  0  0  0  0  0
   -7.8380   21.6530  -31.2560 C   0  0  0  0  0  0  0  0  0  0  0  0
   -9.1830   21.3450  -31.4660 C   0  0  0  0  0  0  0  0  0  0  0  0
   -9.5240   20.3830  -32.4160 C   0  0  0  0  0  0  0  0  0  0  0  0
   -8.5530   19.7540  -33.1320 N   0  0  0  0  0  0  0  0  0  0  0  0
   -7.2350   20.0370  -32.9450 C   0  0  0  0  0  0  0  0  0  0  0  0
   -4.4480   20.7250  -32.5510 N   0  0  0  0  0  0  0  0  0  0  0  0
   -3.1290   21.0010  -32.3820 C   0  0  0  0  0  0  0  0  0  0  0  0
   -2.7310   21.8770  -31.3540 C   0  0  0  0  0  0  0  0  0  0  0  0
   -1.3880   22.0970  -31.0240 O   0  0  0  0  0  0  0  0  0  0  0  0
   -0.3340   21.2040  -31.3730 C   0  0  0  0  0  0  0  0  0  0  0  0
    0.0440   21.3650  -32.8490 C   0  0  1  0  0  0  0  0  0  0  0  0
    1.1420   20.3940  -33.2670 C   0  0  0  0  0  0  0  0  0  0  0  0
    0.9620   20.2250  -34.7620 C   0  0  0  0  0  0  0  0  0  0  0  0
   -0.5360   20.3350  -35.0030 C   0  0  0  0  0  0  0  0  0  0  0  0
   -1.1170   21.1370  -33.8330 C   0  0  1  0  0  0  0  0  0  0  0  0
   -2.2080   20.4160  -33.2560 O   0  0  0  0  0  0  0  0  0  0  0  0
   -7.1876   25.2522  -30.6664 H   0  0  0  0  0  0  0  0  0  0  0  0
   -5.6691   25.8603  -31.4087 H   0  0  0  0  0  0  0  0  0  0  0  0
   -6.0266   24.0999  -31.4087 H   0  0  0  0  0  0  0  0  0  0  0  0
   -5.6610   25.7569  -28.8671 H   0  0  0  0  0  0  0  0  0  0  0  0
   -5.7437   23.9489  -29.0384 H   0  0  0  0  0  0  0  0  0  0  0  0
   -3.6062   25.2412  -30.6299 H   0  0  0  0  0  0  0  0  0  0  0  0
   -3.4310   25.3955  -28.8306 H   0  0  0  0  0  0  0  0  0  0  0  0
   -2.8714   22.6876  -27.6755 H   0  0  0  0  0  0  0  0  0  0  0  0
   -1.7340   22.2757  -29.0188 H   0  0  0  0  0  0  0  0  0  0  0  0
   -2.1129   25.0399  -27.7627 H   0  0  0  0  0  0  0  0  0  0  0  0
   -0.7238   23.9340  -27.4937 H   0  0  0  0  0  0  0  0  0  0  0  0
   -1.0240   24.0680  -30.0750 H   0  0  0  0  0  0  0  0  0  0  0  0
   -7.5589   22.4096  -30.5079 H   0  0  0  0  0  0  0  0  0  0  0  0
   -9.9666   21.8563  -30.8876 H   0  0  0  0  0  0  0  0  0  0  0  0
  -10.5812   20.1319  -32.5871 H   0  0  0  0  0  0  0  0  0  0  0  0
   -8.8260   19.0360  -33.8390 H   0  0  0  0  0  0  0  0  0  0  0  0
   -6.4738   19.5097  -33.5387 H   0  0  0  0  0  0  0  0  0  0  0  0
    0.5454   21.4215  -30.7490 H   0  0  0  0  0  0  0  0  0  0  0  0
   -0.6743   20.1715  -31.2051 H   0  0  0  0  0  0  0  0  0  0  0  0
    0.3744   22.4126  -32.9075 H   0  0  0  0  0  0  0  0  0  0  0  0
    2.1345   20.8110  -33.0411 H   0  0  0  0  0  0  0  0  0  0  0  0
    1.0752   19.4362  -32.7302 H   0  0  0  0  0  0  0  0  0  0  0  0
    1.4986   21.0162  -35.3062 H   0  0  0  0  0  0  0  0  0  0  0  0
    1.3642   19.2645  -35.1167 H   0  0  0  0  0  0  0  0  0  0  0  0
   -0.7293   20.8564  -35.9521 H   0  0  0  0  0  0  0  0  0  0  0  0
   -0.9990   19.3392  -35.0664 H   0  0  0  0  0  0  0  0  0  0  0  0
   -1.5265   22.1099  -34.1425 H   0  0  0  0  0  0  0  0  0  0  0  0
  1  2  1  0
  2  3  1  0
  3  4  1  0
  4  5  1  0
  5  6  1  0
  6  7  1  0
  4  8  1  0
  8  9  2  0
  9 10  1  0
 10 11  1  0
 11 12  2  0
 12 13  1  0
 13 14  2  0
 14 15  1  0
 15 16  2  0
 10 17  2  0
 17 18  1  0
 18 19  2  0
 19 20  1  0
 20 21  1  0
 21 22  1  0
 22 23  1  0
 23 24  1  0
 24 25  1  0
 25 26  1  0
 26 27  1  0
 19  8  1  0
 26 22  1  0
 16 11  1  0
 27 18  1  0
  1 28  1  0
  1 29  1  0
  1 30  1  0
  2 31  1  0
  2 32  1  0
  3 33  1  0
  3 34  1  0
  5 35  1  0
  5 36  1  0
  6 37  1  0
  6 38  1  0
  7 39  1  0
 12 40  1  0
 13 41  1  0
 14 42  1  0
 15 43  1  0
 16 44  1  0
 21 45  1  0
 21 46  1  0
 22 47  1  1
 23 48  1  0
 23 49  1  0
 24 50  1  0
 24 51  1  0
 25 52  1  0
 25 53  1  0
 26 54  1  6
M  CHG  1  15   1
M  END
>  <UniqueID>  (2) 
2

>  <SMILES>  (2) 
CCCN(CCO)c1nc(-c2ccc[nH+]c2)nc2c1OC[C@H]1CCC[C@H]1O2

>  <Energy>  (2) 
61.99743743147383

>  <Genealogy>  (2) 
CCCN(CCO)c1nc(-c2ccc[nH+]c2)nc2c1OCC1CCCC1O2 (protonated)
CCCN(CCO)c1nc(-c2ccc[nH+]c2)nc2c1OC[C@H]1CCC[C@H]1O2 (chirality)
CCCN(CCO)c1nc(-c2ccc[nH+]c2)nc2c1OC[C@H]1CCC[C@H]1O2 (3D coordinates assigned)
CCCN(CCO)c1nc(-c2ccc[nH+]c2)nc2c1OC[C@H]1CCC[C@H]1O2 (nonaromatic ring conformer: 61.99743743147383 kcal/mol)

>  <smiles>  (2) 
CCCN(CCO)c1nc(-c2cccnc2)nc2c1OCC1CCCC1O2

>  <score_type>  (2) 
oracle

>  <origin>  (2) 
adg

>  <m_score__min__energy>  (2) 
-6.3499999999999996

>  <m_primary>  (2) 
energy

$$$$
2:0
     RDKit          3D

 34 35  0  0  1  0  0  0  0  0999 V2000
   -7.2220   17.9050  -32.2550 C   0  0  0  0  0  0  0  0  0  0  0  0
   -8.3160   18.7500  -31.6380 C   0  0  0  0  0  0  0  0  0  0  0  0
   -8.8340   19.7490  -32.6510 C   0  0  0  0  0  0  0  0  0  0  0  0
   -8.3620   21.0920  -32.3320 N   0  0  0  0  0  0  0  0  0  0  0  0
   -9.2010   22.0940  -31.9500 C   0  0  0  0  0  0  0  0  0  0  0  0
   -8.4750   23.2200  -31.7230 N   0  0  0  0  0  0  0  0  0  0  0  0
   -7.1970   22.8850  -31.9710 C   0  0  0  0  0  0  0  0  0  0  0  0
   -6.0040   23.5750  -31.9230 C   0  0  0  0  0  0  0  0  0  0  0  0
   -6.0150   24.8120  -31.5740 N   0  0  0  0  0  0  0  0  0  0  0  0
   -5.9340   25.2390  -30.1740 C   0  0  0  0  0  0  0  0  0  0  0  0
   -4.5010   24.8840  -29.7570 C   0  0  0  0  0  0  0  0  0  0  0  0
   -3.6880   25.2720  -30.8370 O   0  0  0  0  0  0  0  0  0  0  0  0
   -4.8160   23.0180  -32.2230 N   0  0  0  0  0  0  0  0  0  0  0  0
   -4.7780   21.7070  -32.5950 C   0  0  0  0  0  0  0  0  0  0  0  0
   -3.5140   21.0170  -32.9410 C   0  0  0  0  0  0  0  0  0  0  0  0
   -5.9220   20.9750  -32.6610 N   0  0  0  0  0  0  0  0  0  0  0  0
   -7.1190   21.5530  -32.3550 C   0  0  0  0  0  0  0  0  0  0  0  0
   -6.6225   17.4419  -31.4574 H   0  0  0  0  0  0  0  0  0  0  0  0
   -7.6733   17.1187  -32.8780 H   0  0  0  0  0  0  0  0  0  0  0  0
   -6.5753   18.5403  -32.8780 H   0  0  0  0  0  0  0  0  0  0  0  0
   -9.1410   18.0981  -31.3149 H   0  0  0  0  0  0  0  0  0  0  0  0
   -7.9077   19.2927  -30.7727 H   0  0  0  0  0  0  0  0  0  0  0  0
   -8.4759   19.4678  -33.6524 H   0  0  0  0  0  0  0  0  0  0  0  0
   -9.9337   19.7432  -32.6259 H   0  0  0  0  0  0  0  0  0  0  0  0
  -10.2922   22.0061  -31.8423 H   0  0  0  0  0  0  0  0  0  0  0  0
   -6.1099   26.3212  -30.0850 H   0  0  0  0  0  0  0  0  0  0  0  0
   -6.6907   24.7537  -29.5401 H   0  0  0  0  0  0  0  0  0  0  0  0
   -4.2185   25.4329  -28.8466 H   0  0  0  0  0  0  0  0  0  0  0  0
   -4.3954   23.8126  -29.5312 H   0  0  0  0  0  0  0  0  0  0  0  0
   -4.2320   25.6520  -31.5830 H   0  0  0  0  0  0  0  0  0  0  0  0
   -3.9150   23.5480  -32.1840 H   0  0  0  0  0  0  0  0  0  0  0  0
   -2.9884   20.7301  -32.0183 H   0  0  0  0  0  0  0  0  0  0  0  0
   -3.7377   20.1159  -33.5309 H   0  0  0  0  0  0  0  0  0  0  0  0
   -2.8771   21.6926  -33.5309 H   0  0  0  0  0  0  0  0  0  0  0  0
  1  2  1  0
  2  3  1  0
  3  4  1  0
  4  5  1  0
  5  6  2  0
  6  7  1  0
  7  8  1  0
  8  9  2  0
  9 10  1  0
 10 11  1  0
 11 12  1  0
  8 13  1  0
 13 14  1  0
 14 15  1  0
 14 16  2  0
 16 17  1  0
 17  4  1  0
 17  7  2  0
  1 18  1  0
  1 19  1  0
  1 20  1  0
  2 21  1  0
  2 22  1  0
  3 23  1  0
  3 24  1  0
  5 25  1  0
 10 26  1  0
 10 27  1  0
 11 28  1  0
 11 29  1  0
 12 30  1  0
 13 31  1  0
 15 32  1  0
 15 33  1  0
 15 34  1  0
M  END
>  <smiles>  (3) 
CCCn1cnc2c(=NCCO)[nH]c(C)nc21

>  <score_type>  (3) 
oracle

>  <origin>  (3) 
adg

>  <m_score__min__energy>  (3) 
-6.8700000000000001

>  <m_primary>  (3) 
energy

$$$$
3:0
     RDKit          3D

 60 59  0  0  0  0  0  0  0  0999 V2000
   -6.8280   18.5950  -33.1440 C   0  0  0  0  0  0  0  0  0  0  0  0
   -7.6220   18.1880  -31.9030 C   0  0  0  0  0  0  0  0  0  0  0  0
   -8.7540   19.1720  -31.5700 C   0  0  0  0  0  0  0  0  0  0  0  0
   -8.7150   20.4410  -32.4400 C   0  0  0  0  0  0  0  0  0  0  0  0
   -8.7860   21.7370  -31.6120 C   0  0  0  0  0  0  0  0  0  0  0  0
   -7.4750   22.1320  -30.9090 C   0  0  0  0  0  0  0  0  0  0  0  0
   -6.7970   23.3570  -31.5450 C   0  0  0  0  0  0  0  0  0  0  0  0
   -5.5000   22.9800  -32.2960 C   0  0  0  0  0  0  0  0  0  0  0  0
   -5.2420   21.4640  -32.3510 C   0  0  0  0  0  0  0  0  0  0  0  0
   -4.3960   20.9650  -31.1720 C   0  0  0  0  0  0  0  0  0  0  0  0
   -3.6210   22.1220  -30.5210 C   0  0  0  0  0  0  0  0  0  0  0  0
   -4.1270   22.4720  -29.0960 C   0  0  1  0  0  0  0  0  0  0  0  0
   -3.2210   21.9680  -27.9400 C   0  0  0  0  0  0  0  0  0  0  0  0
   -2.5200   20.6140  -28.1780 C   0  0  0  0  0  0  0  0  0  0  0  0
   -2.7450   19.6370  -27.0230 C   0  0  0  0  0  0  0  0  0  0  0  0
   -4.5250   23.9670  -28.9450 C   0  0  0  0  0  0  0  0  0  0  0  0
   -3.7120   24.9230  -29.7720 C   0  0  0  0  0  0  0  0  0  0  0  0
   -4.1780   25.3930  -30.8450 O   0  0  0  0  0  0  0  0  0  0  0  0
   -2.4000   25.2940  -29.3300 N   0  0  0  0  0  0  0  0  0  0  0  0
   -1.9300   25.1170  -27.9630 C   0  0  0  0  0  0  0  0  0  0  0  0
   -0.5630   24.4370  -27.9460 C   0  0  0  0  0  0  0  0  0  0  0  0
   -0.1230   24.2550  -29.2650 O   0  0  0  0  0  0  0  0  0  0  0  0
   -5.8882   19.0767  -32.8363 H   0  0  0  0  0  0  0  0  0  0  0  0
   -6.6025   17.7013  -33.7444 H   0  0  0  0  0  0  0  0  0  0  0  0
   -7.4219   19.2998  -33.7444 H   0  0  0  0  0  0  0  0  0  0  0  0
   -8.0603   17.1941  -32.0767 H   0  0  0  0  0  0  0  0  0  0  0  0
   -6.9258   18.1843  -31.0514 H   0  0  0  0  0  0  0  0  0  0  0  0
   -9.7178   18.6661  -31.7290 H   0  0  0  0  0  0  0  0  0  0  0  0
   -8.6252   19.4837  -30.5230 H   0  0  0  0  0  0  0  0  0  0  0  0
   -7.7778   20.4432  -33.0158 H   0  0  0  0  0  0  0  0  0  0  0  0
   -9.5980   20.4192  -33.0956 H   0  0  0  0  0  0  0  0  0  0  0  0
   -9.0723   22.5576  -32.2863 H   0  0  0  0  0  0  0  0  0  0  0  0
   -9.5196   21.5520  -30.8135 H   0  0  0  0  0  0  0  0  0  0  0  0
   -7.6972   22.3615  -29.8564 H   0  0  0  0  0  0  0  0  0  0  0  0
   -6.7810   21.2842  -31.0070 H   0  0  0  0  0  0  0  0  0  0  0  0
   -7.4967   23.8201  -32.2563 H   0  0  0  0  0  0  0  0  0  0  0  0
   -6.5297   24.0535  -30.7367 H   0  0  0  0  0  0  0  0  0  0  0  0
   -5.5714   23.3588  -33.3263 H   0  0  0  0  0  0  0  0  0  0  0  0
   -4.6628   23.4311  -31.7432 H   0  0  0  0  0  0  0  0  0  0  0  0
   -6.2098   20.9414  -32.3360 H   0  0  0  0  0  0  0  0  0  0  0  0
   -4.6817   21.2552  -33.2743 H   0  0  0  0  0  0  0  0  0  0  0  0
   -5.0584   20.5087  -30.4217 H   0  0  0  0  0  0  0  0  0  0  0  0
   -3.6726   20.2264  -31.5477 H   0  0  0  0  0  0  0  0  0  0  0  0
   -2.5601   21.8389  -30.4555 H   0  0  0  0  0  0  0  0  0  0  0  0
   -3.7733   23.0118  -31.1495 H   0  0  0  0  0  0  0  0  0  0  0  0
   -5.0531   21.8885  -28.9876 H   0  0  0  0  0  0  0  0  0  0  0  0
   -2.4423   22.7254  -27.7667 H   0  0  0  0  0  0  0  0  0  0  0  0
   -3.8910   21.8109  -27.0819 H   0  0  0  0  0  0  0  0  0  0  0  0
   -2.9159   20.1675  -29.1021 H   0  0  0  0  0  0  0  0  0  0  0  0
   -1.4390   20.8021  -28.2560 H   0  0  0  0  0  0  0  0  0  0  0  0
   -2.6232   20.1660  -26.0663 H   0  0  0  0  0  0  0  0  0  0  0  0
   -3.7621   19.2227  -27.0860 H   0  0  0  0  0  0  0  0  0  0  0  0
   -2.0116   18.8196  -27.0860 H   0  0  0  0  0  0  0  0  0  0  0  0
   -5.5797   24.0716  -29.2393 H   0  0  0  0  0  0  0  0  0  0  0  0
   -4.3390   24.2320  -27.8937 H   0  0  0  0  0  0  0  0  0  0  0  0
   -1.8497   26.1013  -27.4785 H   0  0  0  0  0  0  0  0  0  0  0  0
   -2.6473   24.4825  -27.4218 H   0  0  0  0  0  0  0  0  0  0  0  0
    0.1553   25.0681  -27.4022 H   0  0  0  0  0  0  0  0  0  0  0  0
   -0.6414   23.4613  -27.4442 H   0  0  0  0  0  0  0  0  0  0  0  0
   -0.8140   24.6690  -29.8480 H   0  0  0  0  0  0  0  0  0  0  0  0
  1  2  1  0
  2  3  1  0
  3  4  1  0
  4  5  1  0
  5  6  1  0
  6  7  1  0
  7  8  1  0
  8  9  1  0
  9 10  1  0
 10 11  1  0
 11 12  1  0
 12 13  1  0
 13 14  1  0
 14 15  1  0
 12 16  1  0
 16 17  1  0
 17 18  2  0
 17 19  1  0
 19 20  1  0
 20 21  1  0
 21 22  1  0
  1 23  1  0
  1 24  1  0
  1 25  1  0
  2 26  1  0
  2 27  1  0
  3 28  1  0
  3 29  1  0
  4 30  1  0
  4 31  1  0
  5 32  1  0
  5 33  1  0
  6 34  1  0
  6 35  1  0
  7 36  1  0
  7 37  1  0
  8 38  1  0
  8 39  1  0
  9 40  1  0
  9 41  1  0
 10 42  1  0
 10 43  1  0
 11 44  1  0
 11 45  1  0
 12 46  1  1
 13 47  1  0
 13 48  1  0
 14 49  1  0
 14 50  1  0
 15 51  1  0
 15 52  1  0
 15 53  1  0
 16 54  1  0
 16 55  1  0
 20 56  1  0
 20 57  1  0
 21 58  1  0
 21 59  1  0
 22 60  1  0
M  CHG  1  19  -1
M  END
>  <UniqueID>  (4) 
3

>  <SMILES>  (4) 
CCCCCCCCCCC[C@@H](CCC)CC(=O)[N-]CCO

>  <Energy>  (4) 
31.562834125883406

>  <Genealogy>  (4) 
CCCCCCCCCCCC(CCC)CC(=O)[N-]CCO (protonated)
CCCCCCCCCCC[C@@H](CCC)CC(=O)[N-]CCO (chirality)
CCCCCCCCCCC[C@@H](CCC)CC(=O)[N-]CCO (3D coordinates assigned)
CCCCCCCCCCC[C@@H](CCC)CC(=O)[N-]CCO (optimized conformer: 31.562834125883406 kcal/mol)

>  <smiles>  (4) 
CCCCCCCCCCCC(CCC)CC(=O)NCCO

>  <score_type>  (4) 
oracle

>  <origin>  (4) 
adg

>  <m_score__min__energy>  (4) 
-9.1999999999999993

>  <m_primary>  (4) 
energy

$$$$
4:0
     RDKit          3D

 54 55  0  0  0  0  0  0  0  0999 V2000
   -6.3830   25.6780  -29.2830 C   0  0  0  0  0  0  0  0  0  0  0  0
   -6.8690   24.5270  -30.1490 C   0  0  0  0  0  0  0  0  0  0  0  0
   -5.8860   24.2210  -31.1310 O   0  0  0  0  0  0  0  0  0  0  0  0
   -4.5170   24.1930  -30.8460 C   0  0  0  0  0  0  0  0  0  0  0  0
   -3.8600   25.2710  -30.8080 O   0  0  0  0  0  0  0  0  0  0  0  0
   -3.8290   22.8510  -30.6510 C   0  0  2  0  0  0  0  0  0  0  0  0
   -3.0390   22.8610  -29.3040 C   0  0  0  0  0  0  0  0  0  0  0  0
   -1.6910   23.6060  -29.3380 C   0  0  0  0  0  0  0  0  0  0  0  0
   -1.8970   24.9900  -29.1500 O   0  0  0  0  0  0  0  0  0  0  0  0
   -1.5280   25.3460  -27.8370 C   0  0  0  0  0  0  0  0  0  0  0  0
   -2.8520   22.5270  -31.8320 C   0  0  0  0  0  0  0  0  0  0  0  0
   -3.5720   21.7830  -32.9620 C   0  0  0  0  0  0  0  0  0  0  0  0
   -4.0300   20.4400  -32.5150 N   0  0  2  0  0  0  0  0  0  0  0  0
   -4.9980   19.8190  -33.4600 C   0  0  0  0  0  0  0  0  0  0  0  0
   -6.3980   19.6100  -32.8950 C   0  0  0  0  0  0  0  0  0  0  0  0
   -7.2630   20.7160  -32.7720 C   0  0  0  0  0  0  0  0  0  0  0  0
   -8.5740   20.5590  -32.2890 C   0  0  0  0  0  0  0  0  0  0  0  0
   -9.4730   21.6310  -32.1880 O   0  0  0  0  0  0  0  0  0  0  0  0
   -9.0890   22.9840  -31.9650 C   0  0  0  0  0  0  0  0  0  0  0  0
   -9.0090   19.2920  -31.8930 C   0  0  0  0  0  0  0  0  0  0  0  0
   -8.1490   18.1950  -31.9640 C   0  0  0  0  0  0  0  0  0  0  0  0
   -6.8480   18.3420  -32.4510 C   0  0  0  0  0  0  0  0  0  0  0  0
   -5.7320   16.7790  -32.4590 Br  0  0  0  0  0  0  0  0  0  0  0  0
   -4.4780   20.3990  -31.0910 C   0  0  0  0  0  0  0  0  0  0  0  0
   -4.9530   21.7680  -30.5750 C   0  0  0  0  0  0  0  0  0  0  0  0
   -6.4956   25.4113  -28.2218 H   0  0  0  0  0  0  0  0  0  0  0  0
   -5.3235   25.8784  -29.5003 H   0  0  0  0  0  0  0  0  0  0  0  0
   -6.9783   26.5771  -29.5003 H   0  0  0  0  0  0  0  0  0  0  0  0
   -7.0442   23.6429  -29.5184 H   0  0  0  0  0  0  0  0  0  0  0  0
   -7.8063   24.8151  -30.6475 H   0  0  0  0  0  0  0  0  0  0  0  0
   -3.6723   23.3386  -28.5419 H   0  0  0  0  0  0  0  0  0  0  0  0
   -2.8007   21.8101  -29.0828 H   0  0  0  0  0  0  0  0  0  0  0  0
   -1.0429   23.2224  -28.5363 H   0  0  0  0  0  0  0  0  0  0  0  0
   -1.2137   23.4424  -30.3154 H   0  0  0  0  0  0  0  0  0  0  0  0
   -2.1272   24.7679  -27.1182 H   0  0  0  0  0  0  0  0  0  0  0  0
   -0.4608   25.1276  -27.6841 H   0  0  0  0  0  0  0  0  0  0  0  0
   -1.7080   26.4203  -27.6841 H   0  0  0  0  0  0  0  0  0  0  0  0
   -2.0309   21.8991  -31.4558 H   0  0  0  0  0  0  0  0  0  0  0  0
   -2.4646   23.4755  -32.2324 H   0  0  0  0  0  0  0  0  0  0  0  0
   -2.8814   21.6629  -33.8097 H   0  0  0  0  0  0  0  0  0  0  0  0
   -4.4530   22.3703  -33.2600 H   0  0  0  0  0  0  0  0  0  0  0  0
   -3.1830   19.8250  -32.5600 H   0  0  0  0  0  0  0  0  0  0  0  0
   -5.0790   20.4694  -34.3434 H   0  0  0  0  0  0  0  0  0  0  0  0
   -4.6052   18.8182  -33.6925 H   0  0  0  0  0  0  0  0  0  0  0  0
   -6.9071   21.7167  -33.0581 H   0  0  0  0  0  0  0  0  0  0  0  0
   -9.0345   23.1761  -30.8833 H   0  0  0  0  0  0  0  0  0  0  0  0
   -8.1039   23.1653  -32.4197 H   0  0  0  0  0  0  0  0  0  0  0  0
   -9.8320   23.6557  -32.4197 H   0  0  0  0  0  0  0  0  0  0  0  0
  -10.0361   19.1580  -31.5228 H   0  0  0  0  0  0  0  0  0  0  0  0
   -8.4988   17.2058  -31.6335 H   0  0  0  0  0  0  0  0  0  0  0  0
   -3.6369   20.0612  -30.4677 H   0  0  0  0  0  0  0  0  0  0  0  0
   -5.3326   19.7089  -31.0328 H   0  0  0  0  0  0  0  0  0  0  0  0
   -5.2710   21.6607  -29.5275 H   0  0  0  0  0  0  0  0  0  0  0  0
   -5.7845   22.0994  -31.2144 H   0  0  0  0  0  0  0  0  0  0  0  0
  1  2  1  0
  2  3  1  0
  3  4  1  0
  4  5  2  0
  4  6  1  0
  6  7  1  1
  7  8  1  0
  8  9  1  0
  9 10  1  0
  6 11  1  0
 11 12  1  0
 12 13  1  0
 13 14  1  0
 14 15  1  0
 15 16  2  0
 16 17  1  0
 17 18  1  0
 18 19  1  0
 17 20  2  0
 20 21  1  0
 21 22  2  0
 22 23  1  0
 13 24  1  0
 24 25  1  0
 25  6  1  0
 22 15  1  0
  1 26  1  0
  1 27  1  0
  1 28  1  0
  2 29  1  0
  2 30  1  0
  7 31  1  0
  7 32  1  0
  8 33  1  0
  8 34  1  0
 10 35  1  0
 10 36  1  0
 10 37  1  0
 11 38  1  0
 11 39  1  0
 12 40  1  0
 12 41  1  0
 13 42  1  1
 14 43  1  0
 14 44  1  0
 16 45  1  0
 19 46  1  0
 19 47  1  0
 19 48  1  0
 20 49  1  0
 21 50  1  0
 24 51  1  0
 24 52  1  0
 25 53  1  0
 25 54  1  0
M  CHG  1  13   1
M  END
>  <UniqueID>  (5) 
4

>  <SMILES>  (5) 
CCOC(=O)C1(CCOC)CC[NH+](Cc2cc(OC)ccc2Br)CC1

>  <Energy>  (5) 
62.64748200164887

>  <Genealogy>  (5) 
CCOC(=O)C1(CCOC)CC[NH+](Cc2cc(OC)ccc2Br)CC1 (protonated)
CCOC(=O)C1(CCOC)CC[NH+](Cc2cc(OC)ccc2Br)CC1 (3D coordinates assigned)
CCOC(=O)C1(CCOC)CC[NH+](Cc2cc(OC)ccc2Br)CC1 (nonaromatic ring conformer: 62.64748200164887 kcal/mol)

>  <smiles>  (5) 
CCOC(=O)C1(CCOC)CCN(Cc2cc(OC)ccc2Br)CC1

>  <score_type>  (5) 
oracle

>  <origin>  (5) 
adg

>  <m_score__min__energy>  (5) 
-7.7400000000000002

>  <m_primary>  (5) 
energy

$$$$
5:0
     RDKit          3D

 35 36  0  0  0  0  0  0  0  0999 V2000
   -3.7770   17.1400  -33.8400 C   0  0  0  0  0  0  0  0  0  0  0  0
   -4.5700   18.2330  -34.5510 C   0  0  0  0  0  0  0  0  0  0  0  0
   -6.1020   18.0330  -34.4910 C   0  0  0  0  0  0  0  0  0  0  0  0
   -6.7970   19.0570  -33.6620 N   0  0  2  0  0  0  0  0  0  0  0  0
   -5.8210   19.9150  -32.9520 C   0  0  0  0  0  0  0  0  0  0  0  0
   -6.4010   21.2200  -32.4120 C   0  0  0  0  0  0  0  0  0  0  0  0
   -5.4720   22.2060  -32.0270 C   0  0  0  0  0  0  0  0  0  0  0  0
   -5.8930   23.4760  -31.5950 C   0  0  0  0  0  0  0  0  0  0  0  0
   -4.9920   24.4810  -31.2130 O   0  0  0  0  0  0  0  0  0  0  0  0
   -4.8180   24.9420  -29.8770 C   0  0  0  0  0  0  0  0  0  0  0  0
   -7.2580   23.7610  -31.5470 C   0  0  0  0  0  0  0  0  0  0  0  0
   -8.1950   22.7910  -31.9020 C   0  0  0  0  0  0  0  0  0  0  0  0
   -7.7890   21.5140  -32.3020 C   0  0  0  0  0  0  0  0  0  0  0  0
   -8.8010   20.5890  -32.5900 O   0  0  0  0  0  0  0  0  0  0  0  0
   -8.8090   19.2510  -32.1050 C   0  0  0  0  0  0  0  0  0  0  0  0
   -7.6720   18.4650  -32.6670 C   0  0  0  0  0  0  0  0  0  0  0  0
   -7.4290   17.3660  -32.1840 O   0  0  0  0  0  0  0  0  0  0  0  0
   -3.8702   17.2685  -32.7515 H   0  0  0  0  0  0  0  0  0  0  0  0
   -4.1716   16.1544  -34.1280 H   0  0  0  0  0  0  0  0  0  0  0  0
   -2.7176   17.2093  -34.1280 H   0  0  0  0  0  0  0  0  0  0  0  0
   -4.3277   19.1980  -34.0818 H   0  0  0  0  0  0  0  0  0  0  0  0
   -4.2839   18.1969  -35.6125 H   0  0  0  0  0  0  0  0  0  0  0  0
   -6.5011   18.0828  -35.5148 H   0  0  0  0  0  0  0  0  0  0  0  0
   -6.2851   17.0548  -34.0224 H   0  0  0  0  0  0  0  0  0  0  0  0
   -7.3540   19.6590  -34.3130 H   0  0  0  0  0  0  0  0  0  0  0  0
   -5.4135   19.3436  -32.1050 H   0  0  0  0  0  0  0  0  0  0  0  0
   -5.0550   20.1947  -33.6902 H   0  0  0  0  0  0  0  0  0  0  0  0
   -4.3965   21.9782  -32.0650 H   0  0  0  0  0  0  0  0  0  0  0  0
   -5.1168   24.1504  -29.1741 H   0  0  0  0  0  0  0  0  0  0  0  0
   -3.7611   25.1987  -29.7124 H   0  0  0  0  0  0  0  0  0  0  0  0
   -5.4417   25.8330  -29.7124 H   0  0  0  0  0  0  0  0  0  0  0  0
   -7.5973   24.7573  -31.2271 H   0  0  0  0  0  0  0  0  0  0  0  0
   -9.2674   23.0335  -31.8669 H   0  0  0  0  0  0  0  0  0  0  0  0
   -8.7265   19.2667  -31.0082 H   0  0  0  0  0  0  0  0  0  0  0  0
   -9.7496   18.7736  -32.4172 H   0  0  0  0  0  0  0  0  0  0  0  0
  1  2  1  0
  2  3  1  0
  3  4  1  0
  4  5  1  0
  5  6  1  0
  6  7  2  0
  7  8  1  0
  8  9  1  0
  9 10  1  0
  8 11  2  0
 11 12  1  0
 12 13  2  0
 13 14  1  0
 14 15  1  0
 15 16  1  0
 16 17  2  0
 16  4  1  0
 13  6  1  0
  1 18  1  0
  1 19  1  0
  1 20  1  0
  2 21  1  0
  2 22  1  0
  3 23  1  0
  3 24  1  0
  4 25  1  6
  5 26  1  0
  5 27  1  0
  7 28  1  0
 10 29  1  0
 10 30  1  0
 10 31  1  0
 11 32  1  0
 12 33  1  0
 15 34  1  0
 15 35  1  0
M  CHG  1   4   1
M  END
>  <UniqueID>  (6) 
5

>  <SMILES>  (6) 
CCC[N@@H+]1Cc2cc(OC)ccc2OCC1=O

>  <Energy>  (6) 
48.19658053368465

>  <Genealogy>  (6) 
CCC[NH+]1Cc2cc(OC)ccc2OCC1=O (protonated)
CCC[N@@H+]1Cc2cc(OC)ccc2OCC1=O (chirality)
CCC[N@@H+]1Cc2cc(OC)ccc2OCC1=O (3D coordinates assigned)
CCC[N@@H+]1Cc2cc(OC)ccc2OCC1=O (nonaromatic ring conformer: 48.19658053368465 kcal/mol)

>  <smiles>  (6) 
CCCN1Cc2cc(OC)ccc2OCC1=O

>  <score_type>  (6) 
oracle

>  <origin>  (6) 
adg

>  <m_score__min__energy>  (6) 
-4.6100000000000003

>  <m_primary>  (6) 
energy

$$$$
6:0
     RDKit          3D

 44 45  0  0  0  0  0  0  0  0999 V2000
   -0.8910   21.4730  -30.7150 C   0  0  0  0  0  0  0  0  0  0  0  0
   -1.8130   21.5250  -31.9300 C   0  0  0  0  0  0  0  0  0  0  0  0
   -2.9360   22.4560  -31.6790 N   0  0  0  0  0  0  0  0  0  0  0  0
   -3.4600   22.3170  -30.3010 C   0  0  0  0  0  0  0  0  0  0  0  0
   -3.3770   23.6580  -29.5700 C   0  0  0  0  0  0  0  0  0  0  0  0
   -3.6500   24.7570  -30.5060 N   0  0  0  0  0  0  0  0  0  0  0  0
   -5.0080   25.2960  -30.3430 C   0  0  0  0  0  0  0  0  0  0  0  0
   -6.0670   24.2840  -30.7130 C   0  0  0  0  0  0  0  0  0  0  0  0
   -6.5140   24.1740  -32.0400 C   0  0  0  0  0  0  0  0  0  0  0  0
   -7.5120   23.2540  -32.3730 C   0  0  0  0  0  0  0  0  0  0  0  0
   -8.0730   22.4390  -31.3850 C   0  0  0  0  0  0  0  0  0  0  0  0
   -9.4380   21.1840  -31.8420 Br  0  0  0  0  0  0  0  0  0  0  0  0
   -7.6360   22.5480  -30.0610 C   0  0  0  0  0  0  0  0  0  0  0  0
   -6.6390   23.4670  -29.7240 C   0  0  0  0  0  0  0  0  0  0  0  0
   -4.0100   22.2920  -32.6820 C   0  0  0  0  0  0  0  0  0  0  0  0
   -4.5220   20.8750  -32.6580 C   0  0  0  0  0  0  0  0  0  0  0  0
   -5.5550   20.5200  -31.7770 C   0  0  0  0  0  0  0  0  0  0  0  0
   -6.0140   19.2000  -31.7260 C   0  0  0  0  0  0  0  0  0  0  0  0
   -5.4460   18.2280  -32.5540 C   0  0  0  0  0  0  0  0  0  0  0  0
   -4.4180   18.5750  -33.4350 C   0  0  0  0  0  0  0  0  0  0  0  0
   -3.9550   19.8940  -33.4890 C   0  0  0  0  0  0  0  0  0  0  0  0
   -1.4938   21.5070  -29.7955 H   0  0  0  0  0  0  0  0  0  0  0  0
   -0.3079   20.5405  -30.7369 H   0  0  0  0  0  0  0  0  0  0  0  0
   -0.2067   22.3340  -30.7369 H   0  0  0  0  0  0  0  0  0  0  0  0
   -1.2426   21.8709  -32.8046 H   0  0  0  0  0  0  0  0  0  0  0  0
   -2.2157   20.5189  -32.1187 H   0  0  0  0  0  0  0  0  0  0  0  0
   -4.5092   21.9892  -30.3420 H   0  0  0  0  0  0  0  0  0  0  0  0
   -2.8567   21.5735  -29.7594 H   0  0  0  0  0  0  0  0  0  0  0  0
   -4.1195   23.6774  -28.7586 H   0  0  0  0  0  0  0  0  0  0  0  0
   -2.3664   23.7807  -29.1532 H   0  0  0  0  0  0  0  0  0  0  0  0
   -3.5300   24.4100  -31.4880 H   0  0  0  0  0  0  0  0  0  0  0  0
   -5.1496   25.5902  -29.2926 H   0  0  0  0  0  0  0  0  0  0  0  0
   -5.1137   26.1597  -31.0159 H   0  0  0  0  0  0  0  0  0  0  0  0
   -6.0769   24.8145  -32.8202 H   0  0  0  0  0  0  0  0  0  0  0  0
   -7.8568   23.1709  -33.4143 H   0  0  0  0  0  0  0  0  0  0  0  0
   -8.0784   21.9086  -29.2829 H   0  0  0  0  0  0  0  0  0  0  0  0
   -6.3009   23.5510  -28.6806 H   0  0  0  0  0  0  0  0  0  0  0  0
   -4.8347   22.9818  -32.4494 H   0  0  0  0  0  0  0  0  0  0  0  0
   -3.6091   22.5154  -33.6817 H   0  0  0  0  0  0  0  0  0  0  0  0
   -6.0052   21.2825  -31.1244 H   0  0  0  0  0  0  0  0  0  0  0  0
   -6.8233   18.9264  -31.0331 H   0  0  0  0  0  0  0  0  0  0  0  0
   -5.8079   17.1901  -32.5124 H   0  0  0  0  0  0  0  0  0  0  0  0
   -3.9721   17.8095  -34.0871 H   0  0  0  0  0  0  0  0  0  0  0  0
   -3.1455   20.1637  -34.1833 H   0  0  0  0  0  0  0  0  0  0  0  0
  1  2  1  0
  2  3  1  0
  3  4  1  0
  4  5  1  0
  5  6  1  0
  6  7  1  0
  7  8  1  0
  8  9  2  0
  9 10  1  0
 10 11  2  0
 11 12  1  0
 11 13  1  0
 13 14  2  0
  3 15  1  0
 15 16  1  0
 16 17  2  0
 17 18  1  0
 18 19  2  0
 19 20  1  0
 20 21  2  0
 14  8  1  0
 21 16  1  0
  1 22  1  0
  1 23  1  0
  1 24  1  0
  2 25  1  0
  2 26  1  0
  4 27  1  0
  4 28  1  0
  5 29  1  0
  5 30  1  0
  6 31  1  0
  7 32  1  0
  7 33  1  0
  9 34  1  0
 10 35  1  0
 13 36  1  0
 14 37  1  0
 15 38  1  0
 15 39  1  0
 17 40  1  0
 18 41  1  0
 19 42  1  0
 20 43  1  0
 21 44  1  0
M  END
>  <UniqueID>  (7) 
6

>  <SMILES>  (7) 
CCN(CCNCc1ccc(Br)cc1)Cc1ccccc1

>  <Energy>  (7) 
40.60832276235849

>  <Genealogy>  (7) 
CCN(CCNCc1ccc(Br)cc1)Cc1ccccc1 (3D coordinates assigned)
CCN(CCNCc1ccc(Br)cc1)Cc1ccccc1 (optimized conformer: 40.60832276235849 kcal/mol)

>  <smiles>  (7) 
CCN(CCNCc1ccc(Br)cc1)Cc1ccccc1

>  <score_type>  (7) 
oracle

>  <origin>  (7) 
adg

>  <m_score__min__energy>  (7) 
-7.71

>  <m_primary>  (7) 
energy

$$$$
7:0
     RDKit          3D

 56 60  0  0  0  0  0  0  0  0999 V2000
   -1.7020   17.1680  -35.1790 C   0  0  0  0  0  0  0  0  0  0  0  0
   -3.0080   17.4170  -34.4750 C   0  0  0  0  0  0  0  0  0  0  0  0
   -4.1780   16.7820  -34.9230 C   0  0  0  0  0  0  0  0  0  0  0  0
   -5.3950   17.0050  -34.2770 C   0  0  0  0  0  0  0  0  0  0  0  0
   -5.4630   17.8720  -33.1820 C   0  0  0  0  0  0  0  0  0  0  0  0
   -6.9930   18.1470  -32.3520 S   0  0  0  0  0  0  0  0  0  0  0  0
   -6.7800   18.1220  -30.8630 O   0  0  0  0  0  0  0  0  0  0  0  0
   -7.9490   17.0460  -32.7180 O   0  0  0  0  0  0  0  0  0  0  0  0
   -7.6590   19.6900  -32.8350 N   0  0  0  0  0  0  0  0  0  0  0  0
   -6.7380   20.7800  -32.4430 C   0  0  0  0  0  0  0  0  0  0  0  0
   -7.4910   22.1150  -32.3240 C   0  0  0  0  0  0  0  0  0  0  0  0
   -8.5360   22.1060  -31.3570 O   0  0  0  0  0  0  0  0  0  0  0  0
   -9.0450   20.8100  -31.0760 C   0  0  0  0  0  0  0  0  0  0  0  0
   -9.0280   19.8720  -32.2940 C   0  0  0  0  0  0  0  0  0  0  0  0
   -4.3000   18.5020  -32.7230 C   0  0  0  0  0  0  0  0  0  0  0  0
   -3.0610   18.2650  -33.3490 C   0  0  0  0  0  0  0  0  0  0  0  0
   -1.8600   18.9140  -32.9030 N   0  0  0  0  0  0  0  0  0  0  0  0
   -1.4940   20.2840  -33.1030 C   0  0  0  0  0  0  0  0  0  0  0  0
   -1.0620   20.6690  -34.2230 O   0  0  0  0  0  0  0  0  0  0  0  0
   -1.7300   21.2830  -32.0430 C   0  0  0  0  0  0  0  0  0  0  0  0
   -0.6470   21.5380  -30.7740 S   0  0  0  0  0  0  0  0  0  0  0  0
   -1.4800   22.8230  -30.0870 C   0  0  0  0  0  0  0  0  0  0  0  0
   -2.6240   23.0860  -30.8330 C   0  0  0  0  0  0  0  0  0  0  0  0
   -2.8000   22.1930  -31.9230 C   0  0  0  0  0  0  0  0  0  0  0  0
   -3.9980   22.1970  -32.8360 C   0  0  0  0  0  0  0  0  0  0  0  0
   -3.4400   24.1710  -30.4510 C   0  0  0  0  0  0  0  0  0  0  0  0
   -4.4620   24.4910  -31.1120 O   0  0  0  0  0  0  0  0  0  0  0  0
   -3.1050   24.9050  -29.3530 N   0  0  0  0  0  0  0  0  0  0  0  0
   -1.9950   24.6410  -28.6040 C   0  0  0  0  0  0  0  0  0  0  0  0
   -1.7010   25.4290  -27.4870 C   0  0  0  0  0  0  0  0  0  0  0  0
   -0.5580   25.1660  -26.7250 C   0  0  0  0  0  0  0  0  0  0  0  0
    0.2950   24.1160  -27.0770 C   0  0  0  0  0  0  0  0  0  0  0  0
    0.0120   23.3210  -28.1920 C   0  0  0  0  0  0  0  0  0  0  0  0
   -1.1350   23.5780  -28.9610 C   0  0  0  0  0  0  0  0  0  0  0  0
   -0.9070   17.0164  -34.4341 H   0  0  0  0  0  0  0  0  0  0  0  0
   -1.7903   16.2705  -35.8089 H   0  0  0  0  0  0  0  0  0  0  0  0
   -1.4538   18.0350  -35.8089 H   0  0  0  0  0  0  0  0  0  0  0  0
   -4.1349   16.1046  -35.7886 H   0  0  0  0  0  0  0  0  0  0  0  0
   -6.3042   16.4967  -34.6306 H   0  0  0  0  0  0  0  0  0  0  0  0
   -7.7200   19.6760  -33.8810 H   0  0  0  0  0  0  0  0  0  0  0  0
   -6.2822   20.5353  -31.4722 H   0  0  0  0  0  0  0  0  0  0  0  0
   -5.9619   20.8808  -33.2160 H   0  0  0  0  0  0  0  0  0  0  0  0
   -6.7684   22.8961  -32.0452 H   0  0  0  0  0  0  0  0  0  0  0  0
   -7.9621   22.3029  -33.3001 H   0  0  0  0  0  0  0  0  0  0  0  0
   -8.4334   20.3598  -30.2802 H   0  0  0  0  0  0  0  0  0  0  0  0
  -10.0955   20.9315  -30.7733 H   0  0  0  0  0  0  0  0  0  0  0  0
   -9.4242   18.8911  -31.9926 H   0  0  0  0  0  0  0  0  0  0  0  0
   -9.6474   20.3259  -33.0816 H   0  0  0  0  0  0  0  0  0  0  0  0
   -4.3546   19.1886  -31.8653 H   0  0  0  0  0  0  0  0  0  0  0  0
   -4.9182   22.2001  -32.2334 H   0  0  0  0  0  0  0  0  0  0  0  0
   -3.9723   23.0951  -33.4707 H   0  0  0  0  0  0  0  0  0  0  0  0
   -3.9783   21.2988  -33.4707 H   0  0  0  0  0  0  0  0  0  0  0  0
   -2.3694   26.2567  -27.2072 H   0  0  0  0  0  0  0  0  0  0  0  0
   -0.3297   25.7871  -25.8463 H   0  0  0  0  0  0  0  0  0  0  0  0
    1.1928   23.9142  -26.4743 H   0  0  0  0  0  0  0  0  0  0  0  0
    0.6861   22.4962  -28.4663 H   0  0  0  0  0  0  0  0  0  0  0  0
  1  2  1  0
  2  3  2  0
  3  4  1  0
  4  5  2  0
  5  6  1  0
  6  7  2  0
  6  8  2  0
  6  9  1  0
  9 10  1  0
 10 11  1  0
 11 12  1  0
 12 13  1  0
 13 14  1  0
  5 15  1  0
 15 16  2  0
 16 17  1  0
 17 18  1  0
 18 19  2  0
 18 20  1  0
 20 21  1  0
 21 22  1  0
 22 23  2  0
 23 24  1  0
 24 25  1  0
 23 26  1  0
 26 27  2  0
 26 28  1  0
 28 29  1  0
 29 30  2  0
 30 31  1  0
 31 32  2  0
 32 33  1  0
 33 34  2  0
 16  2  1  0
 24 20  2  0
 34 29  1  0
 14  9  1  0
 34 22  1  0
  1 35  1  0
  1 36  1  0
  1 37  1  0
  3 38  1  0
  4 39  1  0
  9 40  1  0
 10 41  1  0
 10 42  1  0
 11 43  1  0
 11 44  1  0
 13 45  1  0
 13 46  1  0
 14 47  1  0
 14 48  1  0
 15 49  1  0
 25 50  1  0
 25 51  1  0
 25 52  1  0
 30 53  1  0
 31 54  1  0
 32 55  1  0
 33 56  1  0
M  CHG  3   9   1  17  -1  28  -1
M  END
>  <UniqueID>  (8) 
7

>  <SMILES>  (8) 
Cc1ccc(S(=O)(=O)[NH+]2CCOCC2)cc1[N-]C(=O)c1sc2c(c1C)c(=O)[n-]c1ccccc12

>  <Energy>  (8) 
115.9966235827534

>  <Genealogy>  (8) 
Cc1ccc(S(=O)(=O)[NH+]2CCOCC2)cc1[N-]C(=O)c1sc2c(c1C)c(=O)[n-]c1ccccc12 (protonated)
Cc1ccc(S(=O)(=O)[NH+]2CCOCC2)cc1[N-]C(=O)c1sc2c(c1C)c(=O)[n-]c1ccccc12 (3D coordinates assigned)
Cc1ccc(S(=O)(=O)[NH+]2CCOCC2)cc1[N-]C(=O)c1sc2c(c1C)c(=O)[n-]c1ccccc12 (nonaromatic ring conformer: 115.9966235827534 kcal/mol)

>  <smiles>  (8) 
Cc1ccc(S(=O)(=O)N2CCOCC2)cc1NC(=O)c1sc2c(c1C)c(=O)[nH]c1ccccc12

>  <score_type>  (8) 
oracle

>  <origin>  (8) 
adg

>  <m_score__min__energy>  (8) 
-11.710000000000001

>  <m_primary>  (8) 
energy

$$$$
8:0
     RDKit          3D

 39 40  0  0  0  0  0  0  0  0999 V2000
   -1.7080   25.2720  -27.6540 C   0  0  0  0  0  0  0  0  0  0  0  0
   -2.0890   25.2880  -29.0260 O   0  0  0  0  0  0  0  0  0  0  0  0
   -2.5680   24.1730  -29.7310 C   0  0  0  0  0  0  0  0  0  0  0  0
   -1.9080   22.9300  -29.7020 C   0  0  0  0  0  0  0  0  0  0  0  0
   -2.4170   21.8430  -30.4130 C   0  0  0  0  0  0  0  0  0  0  0  0
   -3.6000   21.9700  -31.1530 C   0  0  0  0  0  0  0  0  0  0  0  0
   -4.1380   20.7970  -31.9360 C   0  0  0  0  0  0  0  0  0  0  0  0
   -5.1390   21.2320  -32.9220 N   0  0  0  0  0  0  0  0  0  0  0  0
   -5.8590   20.1040  -33.5370 C   0  0  0  0  0  0  0  0  0  0  0  0
   -7.1150   19.7460  -32.7810 C   0  0  0  0  0  0  0  0  0  0  0  0
   -8.0320   20.6610  -32.2950 C   0  0  0  0  0  0  0  0  0  0  0  0
   -9.0100   19.9290  -31.6490 C   0  0  0  0  0  0  0  0  0  0  0  0
   -8.6500   18.6010  -31.7580 C   0  0  0  0  0  0  0  0  0  0  0  0
   -7.4980   18.4930  -32.4490 N   0  0  0  0  0  0  0  0  0  0  0  0
   -6.7840   17.2480  -32.7190 C   0  0  0  0  0  0  0  0  0  0  0  0
   -4.2490   23.2130  -31.2020 C   0  0  0  0  0  0  0  0  0  0  0  0
   -3.7420   24.3170  -30.4870 C   0  0  0  0  0  0  0  0  0  0  0  0
   -4.3750   25.5700  -30.5050 O   0  0  0  0  0  0  0  0  0  0  0  0
   -5.7380   25.7910  -30.1600 C   0  0  0  0  0  0  0  0  0  0  0  0
   -2.6082   25.3098  -27.0230 H   0  0  0  0  0  0  0  0  0  0  0  0
   -1.1484   24.3496  -27.4396 H   0  0  0  0  0  0  0  0  0  0  0  0
   -1.0730   26.1443  -27.4396 H   0  0  0  0  0  0  0  0  0  0  0  0
   -0.9849   22.8150  -29.1149 H   0  0  0  0  0  0  0  0  0  0  0  0
   -1.8861   20.8798  -30.3925 H   0  0  0  0  0  0  0  0  0  0  0  0
   -3.3067   20.3044  -32.4616 H   0  0  0  0  0  0  0  0  0  0  0  0
   -4.6193   20.1000  -31.2341 H   0  0  0  0  0  0  0  0  0  0  0  0
   -4.6560   21.7870  -33.6680 H   0  0  0  0  0  0  0  0  0  0  0  0
   -6.1319   20.3778  -34.5669 H   0  0  0  0  0  0  0  0  0  0  0  0
   -5.1931   19.2287  -33.5171 H   0  0  0  0  0  0  0  0  0  0  0  0
   -7.9907   21.7550  -32.4017 H   0  0  0  0  0  0  0  0  0  0  0  0
   -9.9029   20.3277  -31.1452 H   0  0  0  0  0  0  0  0  0  0  0  0
   -9.2189   17.7562  -31.3425 H   0  0  0  0  0  0  0  0  0  0  0  0
   -6.5093   16.7691  -31.7676 H   0  0  0  0  0  0  0  0  0  0  0  0
   -7.4315   16.5718  -33.2964 H   0  0  0  0  0  0  0  0  0  0  0  0
   -5.8733   17.4654  -33.2964 H   0  0  0  0  0  0  0  0  0  0  0  0
   -5.1624   23.3271  -31.8043 H   0  0  0  0  0  0  0  0  0  0  0  0
   -5.8410   25.8077  -29.0650 H   0  0  0  0  0  0  0  0  0  0  0  0
   -6.0695   26.7546  -30.5742 H   0  0  0  0  0  0  0  0  0  0  0  0
   -6.3570   24.9815  -30.5742 H   0  0  0  0  0  0  0  0  0  0  0  0
  1  2  1  0
  2  3  1  0
  3  4  2  0
  4  5  1  0
  5  6  2  0
  6  7  1  0
  7  8  1  0
  8  9  1  0
  9 10  1  0
 10 11  2  0
 11 12  1  0
 12 13  2  0
 13 14  1  0
 14 15  1  0
  6 16  1  0
 16 17  2  0
 17 18  1  0
 18 19  1  0
 17  3  1  0
 14 10  1  0
  1 20  1  0
  1 21  1  0
  1 22  1  0
  4 23  1  0
  5 24  1  0
  7 25  1  0
  7 26  1  0
  8 27  1  0
  9 28  1  0
  9 29  1  0
 11 30  1  0
 12 31  1  0
 13 32  1  0
 15 33  1  0
 15 34  1  0
 15 35  1  0
 16 36  1  0
 19 37  1  0
 19 38  1  0
 19 39  1  0
M  END
>  <UniqueID>  (9) 
8

>  <SMILES>  (9) 
COc1ccc(CNCc2cccn2C)cc1OC

>  <Energy>  (9) 
62.320493563833764

>  <Genealogy>  (9) 
COc1ccc(CNCc2cccn2C)cc1OC (3D coordinates assigned)
COc1ccc(CNCc2cccn2C)cc1OC (optimized conformer: 62.320493563833764 kcal/mol)

>  <smiles>  (9) 
COc1ccc(CNCc2cccn2C)cc1OC

>  <score_type>  (9) 
oracle

>  <origin>  (9) 
adg

>  <m_score__min__energy>  (9) 
-7.3399999999999999

>  <m_primary>  (9) 
energy

$$$$
9:0
     RDKit          3D

 43 44  0  0  0  0  0  0  0  0999 V2000
   -3.7140   21.5420  -32.5890 C   0  0  0  0  0  0  0  0  0  0  0  0
   -3.7090   21.4340  -31.0660 C   0  0  0  0  0  0  0  0  0  0  0  0
   -3.0510   22.6000  -30.4380 N   0  0  0  0  0  0  0  0  0  0  0  0
   -1.5960   22.4030  -30.3420 C   0  0  0  0  0  0  0  0  0  0  0  0
   -3.6550   23.0730  -29.1630 C   0  0  0  0  0  0  0  0  0  0  0  0
   -4.7090   24.1970  -29.2780 C   0  0  0  0  0  0  0  0  0  0  0  0
   -5.6720   24.0110  -30.4090 C   0  0  0  0  0  0  0  0  0  0  0  0
   -6.9580   23.5190  -30.3100 C   0  0  0  0  0  0  0  0  0  0  0  0
   -7.4110   23.3970  -31.5690 N   0  0  0  0  0  0  0  0  0  0  0  0
   -8.7010   22.8550  -31.9860 C   0  0  0  0  0  0  0  0  0  0  0  0
   -9.1920   21.4390  -30.9400 S   0  0  0  0  0  0  0  0  0  0  0  0
   -8.2300   20.2280  -31.8500 C   0  0  0  0  0  0  0  0  0  0  0  0
   -8.4590   18.8640  -31.6410 C   0  0  0  0  0  0  0  0  0  0  0  0
   -7.6970   17.9120  -32.3230 C   0  0  0  0  0  0  0  0  0  0  0  0
   -6.6890   18.3180  -33.2120 C   0  0  0  0  0  0  0  0  0  0  0  0
   -5.8820   17.2950  -33.9550 C   0  0  0  0  0  0  0  0  0  0  0  0
   -6.4890   19.6870  -33.4480 C   0  0  0  0  0  0  0  0  0  0  0  0
   -7.2600   20.6380  -32.7700 C   0  0  0  0  0  0  0  0  0  0  0  0
   -6.4500   23.7920  -32.3880 N   0  0  0  0  0  0  0  0  0  0  0  0
   -5.3680   24.1590  -31.7160 N   0  0  0  0  0  0  0  0  0  0  0  0
   -3.7630   22.6013  -32.8813 H   0  0  0  0  0  0  0  0  0  0  0  0
   -2.7941   21.0928  -32.9915 H   0  0  0  0  0  0  0  0  0  0  0  0
   -4.5885   21.0097  -32.9915 H   0  0  0  0  0  0  0  0  0  0  0  0
   -4.7479   21.3758  -30.7092 H   0  0  0  0  0  0  0  0  0  0  0  0
   -3.1459   20.5310  -30.7877 H   0  0  0  0  0  0  0  0  0  0  0  0
   -1.3005   22.3630  -29.2832 H   0  0  0  0  0  0  0  0  0  0  0  0
   -1.3204   21.4593  -30.8355 H   0  0  0  0  0  0  0  0  0  0  0  0
   -1.0794   23.2394  -30.8355 H   0  0  0  0  0  0  0  0  0  0  0  0
   -4.1372   22.2100  -28.6806 H   0  0  0  0  0  0  0  0  0  0  0  0
   -2.8237   23.5092  -28.5898 H   0  0  0  0  0  0  0  0  0  0  0  0
   -5.2805   24.2336  -28.3388 H   0  0  0  0  0  0  0  0  0  0  0  0
   -4.1610   25.1302  -29.4750 H   0  0  0  0  0  0  0  0  0  0  0  0
   -7.5026   23.2757  -29.3858 H   0  0  0  0  0  0  0  0  0  0  0  0
   -9.4644   23.6428  -31.9048 H   0  0  0  0  0  0  0  0  0  0  0  0
   -8.6127   22.5062  -33.0255 H   0  0  0  0  0  0  0  0  0  0  0  0
   -9.2407   18.5402  -30.9381 H   0  0  0  0  0  0  0  0  0  0  0  0
   -7.8875   16.8405  -32.1629 H   0  0  0  0  0  0  0  0  0  0  0  0
   -5.3666   16.6416  -33.2357 H   0  0  0  0  0  0  0  0  0  0  0  0
   -6.5490   16.6903  -34.5871 H   0  0  0  0  0  0  0  0  0  0  0  0
   -5.1387   17.8029  -34.5871 H   0  0  0  0  0  0  0  0  0  0  0  0
   -5.7240   20.0134  -34.1679 H   0  0  0  0  0  0  0  0  0  0  0  0
   -7.1027   21.7098  -32.9611 H   0  0  0  0  0  0  0  0  0  0  0  0
   -6.5180   23.7890  -33.4310 H   0  0  0  0  0  0  0  0  0  0  0  0
  1  2  1  0
  2  3  1  0
  3  4  1  0
  3  5  1  0
  5  6  1  0
  6  7  1  0
  7  8  2  0
  8  9  1  0
  9 10  1  0
 10 11  1  0
 11 12  1  0
 12 13  2  0
 13 14  1  0
 14 15  2  0
 15 16  1  0
 15 17  1  0
 17 18  2  0
  9 19  1  0
 19 20  2  0
 20  7  1  0
 18 12  1  0
  1 21  1  0
  1 22  1  0
  1 23  1  0
  2 24  1  0
  2 25  1  0
  4 26  1  0
  4 27  1  0
  4 28  1  0
  5 29  1  0
  5 30  1  0
  6 31  1  0
  6 32  1  0
  8 33  1  0
 10 34  1  0
 10 35  1  0
 13 36  1  0
 14 37  1  0
 16 38  1  0
 16 39  1  0
 16 40  1  0
 17 41  1  0
 18 42  1  0
 19 43  1  0
M  CHG  1  19   1
M  END
>  <UniqueID>  (10) 
9

>  <SMILES>  (10) 
CCN(C)CCc1cn(CSc2ccc(C)cc2)[nH+]n1

>  <Energy>  (10) 
70.83043691341943

>  <Genealogy>  (10) 
CCN(C)CCc1cn(CSc2ccc(C)cc2)[nH+]n1 (protonated)
CCN(C)CCc1cn(CSc2ccc(C)cc2)[nH+]n1 (3D coordinates assigned)
CCN(C)CCc1cn(CSc2ccc(C)cc2)[nH+]n1 (optimized conformer: 70.83043691341943 kcal/mol)

>  <smiles>  (10) 
CCN(C)CCc1cn(CSc2ccc(C)cc2)nn1

>  <score_type>  (10) 
oracle

>  <origin>  (10) 
adg

>  <m_score__min__energy>  (10) 
-7.7800000000000002

>  <m_primary>  (10) 
energy

$$$$
10:0
     RDKit          3D

 37 40  0  0  0  0  0  0  0  0999 V2000
    0.0340   26.0520  -23.9930 C   0  0  0  0  0  0  0  0  0  0  0  0
   -0.6430   25.5900  -25.2470 C   0  0  0  0  0  0  0  0  0  0  0  0
    0.0740   25.2720  -26.3300 N   0  0  0  0  0  0  0  0  0  0  0  0
   -0.4810   24.8480  -27.4940 C   0  0  0  0  0  0  0  0  0  0  0  0
    0.3070   24.5720  -28.4620 N   0  0  0  0  0  0  0  0  0  0  0  0
   -1.8520   24.7510  -27.5330 C   0  0  0  0  0  0  0  0  0  0  0  0
   -2.4650   24.3270  -28.6880 C   0  0  0  0  0  0  0  0  0  0  0  0
   -3.8370   24.2260  -28.7390 C   0  0  0  0  0  0  0  0  0  0  0  0
   -4.5570   23.7810  -29.9380 C   0  0  0  0  0  0  0  0  0  0  0  0
   -5.5710   22.8190  -29.9130 C   0  0  0  0  0  0  0  0  0  0  0  0
   -5.9630   22.7080  -31.2390 C   0  0  0  0  0  0  0  0  0  0  0  0
   -7.0160   21.8010  -31.6840 C   0  0  0  0  0  0  0  0  0  0  0  0
   -6.7460   20.6010  -32.3160 C   0  0  0  0  0  0  0  0  0  0  0  0
   -7.7860   19.7640  -32.7250 C   0  0  0  0  0  0  0  0  0  0  0  0
   -9.0860   20.1580  -32.4840 C   0  0  0  0  0  0  0  0  0  0  0  0
   -9.3750   21.3370  -31.8630 C   0  0  0  0  0  0  0  0  0  0  0  0
   -8.3440   22.1640  -31.4590 C   0  0  0  0  0  0  0  0  0  0  0  0
   -5.2530   23.5200  -31.9610 O   0  0  0  0  0  0  0  0  0  0  0  0
   -4.4000   24.1800  -31.2130 N   0  0  0  0  0  0  0  0  0  0  0  0
   -4.5980   24.5540  -27.6210 C   0  0  0  0  0  0  0  0  0  0  0  0
   -3.9930   24.9830  -26.4500 C   0  0  0  0  0  0  0  0  0  0  0  0
   -2.6040   25.0770  -26.4220 C   0  0  0  0  0  0  0  0  0  0  0  0
   -1.9660   25.4900  -25.3050 N   0  0  0  0  0  0  0  0  0  0  0  0
   -0.5174   25.6757  -23.1187 H   0  0  0  0  0  0  0  0  0  0  0  0
    1.0645   25.6679  -23.9698 H   0  0  0  0  0  0  0  0  0  0  0  0
    0.0520   27.1516  -23.9698 H   0  0  0  0  0  0  0  0  0  0  0  0
    1.2520   24.9080  -28.6090 H   0  0  0  0  0  0  0  0  0  0  0  0
   -1.8604   24.0689  -29.5699 H   0  0  0  0  0  0  0  0  0  0  0  0
   -5.9668   22.2754  -29.0425 H   0  0  0  0  0  0  0  0  0  0  0  0
   -5.7028   20.3033  -32.4981 H   0  0  0  0  0  0  0  0  0  0  0  0
   -7.5731   18.8098  -33.2291 H   0  0  0  0  0  0  0  0  0  0  0  0
   -9.9113   19.5036  -32.8013 H   0  0  0  0  0  0  0  0  0  0  0  0
  -10.4208   21.6277  -31.6849 H   0  0  0  0  0  0  0  0  0  0  0  0
   -8.5723   23.1154  -30.9563 H   0  0  0  0  0  0  0  0  0  0  0  0
   -5.6939   24.4717  -27.6672 H   0  0  0  0  0  0  0  0  0  0  0  0
   -4.5943   25.2423  -25.5661 H   0  0  0  0  0  0  0  0  0  0  0  0
   -2.5160   25.7430  -24.4490 H   0  0  0  0  0  0  0  0  0  0  0  0
  1  2  1  0
  2  3  2  0
  3  4  1  0
  4  5  2  3
  4  6  1  0
  6  7  2  0
  7  8  1  0
  8  9  1  0
  9 10  1  0
 10 11  2  0
 11 12  1  0
 12 13  2  0
 13 14  1  0
 14 15  2  0
 15 16  1  0
 16 17  2  0
 11 18  1  0
 18 19  1  0
  8 20  2  0
 20 21  1  0
 21 22  2  0
 22 23  1  0
 23  2  1  0
 22  6  1  0
 19  9  2  0
 17 12  1  0
  1 24  1  0
  1 25  1  0
  1 26  1  0
  5 27  1  0
  7 28  1  0
 10 29  1  0
 13 30  1  0
 14 31  1  0
 15 32  1  0
 16 33  1  0
 17 34  1  0
 20 35  1  0
 21 36  1  0
 23 37  1  0
M  END
>  <smiles>  (11) 
Cc1nc(=N)c2cc(-c3cc(-c4ccccc4)on3)ccc2[nH]1

>  <score_type>  (11) 
oracle

>  <origin>  (11) 
adg

>  <m_score__min__energy>  (11) 
-8.8300000000000001

>  <m_primary>  (11) 
energy

$$$$
11:0
     RDKit          3D

 43 44  0  0  0  0  0  0  0  0999 V2000
   -1.0710   26.5830  -24.1800 C   0  0  0  0  0  0  0  0  0  0  0  0
   -0.8600   25.7140  -25.3850 C   0  0  0  0  0  0  0  0  0  0  0  0
    0.0470   24.6440  -25.3390 C   0  0  0  0  0  0  0  0  0  0  0  0
    0.2580   23.8530  -26.4700 C   0  0  0  0  0  0  0  0  0  0  0  0
   -0.4160   24.1360  -27.6610 C   0  0  0  0  0  0  0  0  0  0  0  0
   -1.2940   25.2320  -27.7330 C   0  0  0  0  0  0  0  0  0  0  0  0
   -2.0120   25.5480  -28.9360 N   0  0  0  0  0  0  0  0  0  0  0  0
   -3.1100   24.8030  -29.4730 C   0  0  0  0  0  0  0  0  0  0  0  0
   -3.4620   23.7340  -28.9080 O   0  0  0  0  0  0  0  0  0  0  0  0
   -3.8360   25.2910  -30.6050 N   0  0  0  0  0  0  0  0  0  0  0  0
   -5.2880   25.3830  -30.6400 C   0  0  0  0  0  0  0  0  0  0  0  0
   -5.8920   24.0100  -30.9400 C   0  0  0  0  0  0  0  0  0  0  0  0
   -4.8660   23.0760  -31.4340 N   0  0  0  0  0  0  0  0  0  0  0  0
   -5.4150   22.0170  -32.3030 C   0  0  0  0  0  0  0  0  0  0  0  0
   -6.7760   21.5710  -31.7270 C   0  0  0  0  0  0  0  0  0  0  0  0
   -7.5420   20.6660  -32.6980 C   0  0  0  0  0  0  0  0  0  0  0  0
   -6.5290   19.2860  -33.1980 S   0  0  0  0  0  0  0  0  0  0  0  0
   -7.1950   17.9920  -32.8220 O   0  0  0  0  0  0  0  0  0  0  0  0
   -6.3100   19.3250  -34.6860 O   0  0  0  0  0  0  0  0  0  0  0  0
   -4.9690   19.4280  -32.3540 C   0  0  0  0  0  0  0  0  0  0  0  0
   -4.3940   20.8460  -32.4990 C   0  0  0  0  0  0  0  0  0  0  0  0
   -1.5240   26.0050  -26.5870 C   0  0  0  0  0  0  0  0  0  0  0  0
   -0.9261   25.9860  -23.2675 H   0  0  0  0  0  0  0  0  0  0  0  0
   -0.3480   27.4119  -24.1946 H   0  0  0  0  0  0  0  0  0  0  0  0
   -2.0936   26.9881  -24.1946 H   0  0  0  0  0  0  0  0  0  0  0  0
    0.5933   24.4279  -24.4090 H   0  0  0  0  0  0  0  0  0  0  0  0
    0.9567   23.0047  -26.4234 H   0  0  0  0  0  0  0  0  0  0  0  0
   -0.2593   23.4997  -28.5445 H   0  0  0  0  0  0  0  0  0  0  0  0
   -5.6542   25.7369  -29.6650 H   0  0  0  0  0  0  0  0  0  0  0  0
   -5.5862   26.0890  -31.4291 H   0  0  0  0  0  0  0  0  0  0  0  0
   -6.3346   23.6031  -30.0188 H   0  0  0  0  0  0  0  0  0  0  0  0
   -6.6602   24.1287  -31.7183 H   0  0  0  0  0  0  0  0  0  0  0  0
   -4.1350   23.6130  -31.9580 H   0  0  0  0  0  0  0  0  0  0  0  0
   -5.5877   22.4041  -33.3180 H   0  0  0  0  0  0  0  0  0  0  0  0
   -6.6021   21.0205  -30.7907 H   0  0  0  0  0  0  0  0  0  0  0  0
   -7.3825   22.4719  -31.5523 H   0  0  0  0  0  0  0  0  0  0  0  0
   -8.4485   20.2886  -32.2022 H   0  0  0  0  0  0  0  0  0  0  0  0
   -7.8124   21.2501  -33.5900 H   0  0  0  0  0  0  0  0  0  0  0  0
   -5.1155   19.2062  -31.2866 H   0  0  0  0  0  0  0  0  0  0  0  0
   -4.2613   18.7144  -32.8011 H   0  0  0  0  0  0  0  0  0  0  0  0
   -3.5959   20.9650  -31.7514 H   0  0  0  0  0  0  0  0  0  0  0  0
   -4.0461   20.9231  -33.5397 H   0  0  0  0  0  0  0  0  0  0  0  0
   -2.2308   26.8468  -26.6297 H   0  0  0  0  0  0  0  0  0  0  0  0
  1  2  1  0
  2  3  2  0
  3  4  1  0
  4  5  2  0
  5  6  1  0
  6  7  1  0
  7  8  1  0
  8  9  2  0
  8 10  1  0
 10 11  1  0
 11 12  1  0
 12 13  1  0
 13 14  1  0
 14 15  1  0
 15 16  1  0
 16 17  1  0
 17 18  2  0
 17 19  2  0
 17 20  1  0
 20 21  1  0
  6 22  2  0
 22  2  1  0
 21 14  1  0
  1 23  1  0
  1 24  1  0
  1 25  1  0
  3 26  1  0
  4 27  1  0
  5 28  1  0
 11 29  1  0
 11 30  1  0
 12 31  1  0
 12 32  1  0
 13 33  1  0
 14 34  1  0
 15 35  1  0
 15 36  1  0
 16 37  1  0
 16 38  1  0
 20 39  1  0
 20 40  1  0
 21 41  1  0
 21 42  1  0
 22 43  1  0
M  CHG  2   7  -1  10  -1
M  END
>  <UniqueID>  (12) 
10

>  <SMILES>  (12) 
Cc1cccc([N-]C(=O)[N-]CCNC2CCS(=O)(=O)CC2)c1

>  <Energy>  (12) 
38.34130539554422

>  <Genealogy>  (12) 
Cc1cccc([N-]C(=O)[N-]CCNC2CCS(=O)(=O)CC2)c1 (protonated)
Cc1cccc([N-]C(=O)[N-]CCNC2CCS(=O)(=O)CC2)c1 (3D coordinates assigned)
Cc1cccc([N-]C(=O)[N-]CCNC2CCS(=O)(=O)CC2)c1 (nonaromatic ring conformer: 38.34130539554422 kcal/mol)

>  <smiles>  (12) 
Cc1cccc(NC(=O)NCCNC2CCS(=O)(=O)CC2)c1

>  <score_type>  (12) 
oracle

>  <origin>  (12) 
adg

>  <m_score__min__energy>  (12) 
-11.41

>  <m_primary>  (12) 
energy

$$$$
12:0
     RDKit          3D

 50 53  0  0  0  0  0  0  0  0999 V2000
    1.5040   16.2710  -31.7580 C   0  0  0  0  0  0  0  0  0  0  0  0
    1.2720   16.4020  -30.2890 C   0  0  0  0  0  0  0  0  0  0  0  0
    1.6250   15.4710  -29.3320 C   0  0  0  0  0  0  0  0  0  0  0  0
    1.2060   15.9980  -28.1270 C   0  0  0  0  0  0  0  0  0  0  0  0
    0.6260   17.2140  -28.4310 C   0  0  0  0  0  0  0  0  0  0  0  0
   -0.0000   18.1560  -27.4520 C   0  0  0  0  0  0  0  0  0  0  0  0
   -0.4170   19.3870  -28.1170 N   0  0  0  0  0  0  0  0  0  0  0  0
   -1.0250   20.4800  -27.4070 C   0  0  0  0  0  0  0  0  0  0  0  0
   -0.9930   20.5000  -26.1460 O   0  0  0  0  0  0  0  0  0  0  0  0
   -1.6760   21.5950  -28.1320 C   0  0  0  0  0  0  0  0  0  0  0  0
   -0.9400   22.3620  -29.0510 C   0  0  0  0  0  0  0  0  0  0  0  0
   -1.5360   23.4360  -29.7190 C   0  0  0  0  0  0  0  0  0  0  0  0
   -2.8780   23.7690  -29.4720 C   0  0  0  0  0  0  0  0  0  0  0  0
   -3.5200   24.8820  -30.1100 N   0  0  0  0  0  0  0  0  0  0  0  0
   -5.2310   25.0580  -30.3440 S   0  0  0  0  0  0  0  0  0  0  0  0
   -5.5010   26.2530  -31.2160 O   0  0  0  0  0  0  0  0  0  0  0  0
   -5.8880   25.2840  -29.0120 O   0  0  0  0  0  0  0  0  0  0  0  0
   -5.8870   23.5900  -31.0600 C   0  0  0  0  0  0  0  0  0  0  0  0
   -5.0450   22.7510  -31.8170 C   0  0  0  0  0  0  0  0  0  0  0  0
   -5.5560   21.5890  -32.4160 C   0  0  0  0  0  0  0  0  0  0  0  0
   -6.9090   21.2870  -32.2520 C   0  0  0  0  0  0  0  0  0  0  0  0
   -7.7320   22.0980  -31.5110 C   0  0  0  0  0  0  0  0  0  0  0  0
   -7.2470   23.2560  -30.9000 C   0  0  0  0  0  0  0  0  0  0  0  0
   -9.1210   21.5870  -31.4610 C   0  0  0  0  0  0  0  0  0  0  0  0
   -9.0800   20.3100  -32.3230 C   0  0  0  0  0  0  0  0  0  0  0  0
   -7.6290   20.1190  -32.8080 C   0  0  0  0  0  0  0  0  0  0  0  0
   -3.6130   23.0070  -28.5550 C   0  0  0  0  0  0  0  0  0  0  0  0
   -3.0190   21.9310  -27.8900 C   0  0  0  0  0  0  0  0  0  0  0  0
    0.6750   17.4270  -29.7270 O   0  0  0  0  0  0  0  0  0  0  0  0
    2.4496   15.7371  -31.9337 H   0  0  0  0  0  0  0  0  0  0  0  0
    0.6751   15.7076  -32.2113 H   0  0  0  0  0  0  0  0  0  0  0  0
    1.5583   17.2718  -32.2113 H   0  0  0  0  0  0  0  0  0  0  0  0
    2.1340   14.5097  -29.4959 H   0  0  0  0  0  0  0  0  0  0  0  0
    1.3121   15.5436  -27.1309 H   0  0  0  0  0  0  0  0  0  0  0  0
   -0.8790   17.6746  -26.9986 H   0  0  0  0  0  0  0  0  0  0  0  0
    0.7399   18.4050  -26.6771 H   0  0  0  0  0  0  0  0  0  0  0  0
   -0.2550   19.4670  -29.1470 H   0  0  0  0  0  0  0  0  0  0  0  0
    0.1140   22.1154  -29.2465 H   0  0  0  0  0  0  0  0  0  0  0  0
   -0.9508   24.0233  -30.4419 H   0  0  0  0  0  0  0  0  0  0  0  0
   -3.9824   23.0079  -31.9390 H   0  0  0  0  0  0  0  0  0  0  0  0
   -4.9021   20.9282  -33.0041 H   0  0  0  0  0  0  0  0  0  0  0  0
   -7.9144   23.8962  -30.3044 H   0  0  0  0  0  0  0  0  0  0  0  0
   -9.4140   21.3516  -30.4272 H   0  0  0  0  0  0  0  0  0  0  0  0
   -9.8552   22.3204  -31.8257 H   0  0  0  0  0  0  0  0  0  0  0  0
   -9.3918   19.4425  -31.7228 H   0  0  0  0  0  0  0  0  0  0  0  0
   -9.7640   20.4010  -33.1797 H   0  0  0  0  0  0  0  0  0  0  0  0
   -7.2078   19.1795  -32.4209 H   0  0  0  0  0  0  0  0  0  0  0  0
   -7.5534   20.0573  -33.9037 H   0  0  0  0  0  0  0  0  0  0  0  0
   -4.6656   23.2574  -28.3568 H   0  0  0  0  0  0  0  0  0  0  0  0
   -3.6075   21.3421  -27.1711 H   0  0  0  0  0  0  0  0  0  0  0  0
  1  2  1  0
  2  3  2  0
  3  4  1  0
  4  5  2  0
  5  6  1  0
  6  7  1  0
  7  8  1  0
  8  9  2  0
  8 10  1  0
 10 11  2  0
 11 12  1  0
 12 13  2  0
 13 14  1  0
 14 15  1  0
 15 16  2  0
 15 17  2  0
 15 18  1  0
 18 19  2  0
 19 20  1  0
 20 21  2  0
 21 22  1  0
 22 23  2  0
 22 24  1  0
 24 25  1  0
 25 26  1  0
 13 27  1  0
 27 28  2  0
  5 29  1  0
 29  2  1  0
 28 10  1  0
 23 18  1  0
 26 21  1  0
  1 30  1  0
  1 31  1  0
  1 32  1  0
  3 33  1  0
  4 34  1  0
  6 35  1  0
  6 36  1  0
  7 37  1  0
 11 38  1  0
 12 39  1  0
 19 40  1  0
 20 41  1  0
 23 42  1  0
 24 43  1  0
 24 44  1  0
 25 45  1  0
 25 46  1  0
 26 47  1  0
 26 48  1  0
 27 49  1  0
 28 50  1  0
M  CHG  1  14  -1
M  END
>  <UniqueID>  (13) 
11

>  <SMILES>  (13) 
Cc1ccc(CNC(=O)c2ccc([N-]S(=O)(=O)c3ccc4c(c3)CCC4)cc2)o1

>  <Energy>  (13) 
88.03399264964648

>  <Genealogy>  (13) 
Cc1ccc(CNC(=O)c2ccc([N-]S(=O)(=O)c3ccc4c(c3)CCC4)cc2)o1 (protonated)
Cc1ccc(CNC(=O)c2ccc([N-]S(=O)(=O)c3ccc4c(c3)CCC4)cc2)o1 (3D coordinates assigned)
Cc1ccc(CNC(=O)c2ccc([N-]S(=O)(=O)c3ccc4c(c3)CCC4)cc2)o1 (nonaromatic ring conformer: 88.03399264964648 kcal/mol)

>  <smiles>  (13) 
Cc1ccc(CNC(=O)c2ccc(NS(=O)(=O)c3ccc4c(c3)CCC4)cc2)o1

>  <score_type>  (13) 
oracle

>  <origin>  (13) 
adg

>  <m_score__min__energy>  (13) 
-11.220000000000001

>  <m_primary>  (13) 
energy

$$$$
13:0
     RDKit          3D

 54 56  0  0  0  0  0  0  0  0999 V2000
   -4.3560   23.8000  -29.6210 C   0  0  0  0  0  0  0  0  0  0  0  0
   -3.6460   23.8020  -30.8560 O   0  0  0  0  0  0  0  0  0  0  0  0
   -3.3260   22.6490  -31.5860 C   0  0  0  0  0  0  0  0  0  0  0  0
   -2.2280   21.8290  -31.2600 C   0  0  0  0  0  0  0  0  0  0  0  0
   -1.9490   20.6900  -32.0220 C   0  0  0  0  0  0  0  0  0  0  0  0
   -2.7480   20.3590  -33.1280 C   0  0  0  0  0  0  0  0  0  0  0  0
   -2.4520   19.1180  -33.9420 C   0  0  0  0  0  0  0  0  0  0  0  0
   -3.3740   17.8820  -33.6660 C   0  0  2  0  0  0  0  0  0  0  0  0
   -2.5670   16.7180  -33.0220 C   0  0  0  0  0  0  0  0  0  0  0  0
   -3.3890   15.6140  -32.7550 O   0  0  0  0  0  0  0  0  0  0  0  0
   -4.0600   17.3680  -34.9740 C   0  0  0  0  0  0  0  0  0  0  0  0
   -5.3610   18.1170  -35.2690 C   0  0  0  0  0  0  0  0  0  0  0  0
   -6.3680   17.9520  -34.1110 C   0  0  0  0  0  0  0  0  0  0  0  0
   -5.7110   17.5610  -32.8370 N   0  0  0  0  0  0  0  0  0  0  0  0
   -6.6250   17.7400  -31.6900 C   0  0  0  0  0  0  0  0  0  0  0  0
   -7.5740   18.8820  -31.9410 C   0  0  0  0  0  0  0  0  0  0  0  0
   -8.8990   18.6360  -32.3310 C   0  0  0  0  0  0  0  0  0  0  0  0
   -9.7840   19.6990  -32.5190 C   0  0  0  0  0  0  0  0  0  0  0  0
   -9.3560   21.0140  -32.3230 C   0  0  0  0  0  0  0  0  0  0  0  0
   -8.0270   21.2820  -31.9520 C   0  0  0  0  0  0  0  0  0  0  0  0
   -7.5780   22.6960  -31.6840 C   0  0  0  0  0  0  0  0  0  0  0  0
   -6.9060   22.7400  -30.4770 F   0  0  0  0  0  0  0  0  0  0  0  0
   -8.6630   23.5530  -31.6290 F   0  0  0  0  0  0  0  0  0  0  0  0
   -6.7320   23.1350  -32.6890 F   0  0  0  0  0  0  0  0  0  0  0  0
   -7.1490   20.2050  -31.7380 C   0  0  0  0  0  0  0  0  0  0  0  0
   -4.4690   18.3370  -32.6440 C   0  0  0  0  0  0  0  0  0  0  0  0
   -3.8540   21.1670  -33.4360 C   0  0  0  0  0  0  0  0  0  0  0  0
   -4.1340   22.3040  -32.6750 C   0  0  0  0  0  0  0  0  0  0  0  0
   -3.6397   23.8020  -28.7862 H   0  0  0  0  0  0  0  0  0  0  0  0
   -4.9908   24.6964  -29.5616 H   0  0  0  0  0  0  0  0  0  0  0  0
   -4.9858   22.9001  -29.5616 H   0  0  0  0  0  0  0  0  0  0  0  0
   -1.5878   22.0855  -30.4031 H   0  0  0  0  0  0  0  0  0  0  0  0
   -1.0970   20.0485  -31.7527 H   0  0  0  0  0  0  0  0  0  0  0  0
   -2.5507   19.3812  -35.0055 H   0  0  0  0  0  0  0  0  0  0  0  0
   -1.4391   18.8048  -33.6490 H   0  0  0  0  0  0  0  0  0  0  0  0
   -1.7680   16.4109  -33.7129 H   0  0  0  0  0  0  0  0  0  0  0  0
   -2.1441   17.0737  -32.0709 H   0  0  0  0  0  0  0  0  0  0  0  0
   -4.3220   15.9220  -32.9000 H   0  0  0  0  0  0  0  0  0  0  0  0
   -3.3686   17.5105  -35.8176 H   0  0  0  0  0  0  0  0  0  0  0  0
   -4.3033   16.3042  -34.8355 H   0  0  0  0  0  0  0  0  0  0  0  0
   -5.1385   19.1859  -35.4028 H   0  0  0  0  0  0  0  0  0  0  0  0
   -5.8067   17.6991  -36.1837 H   0  0  0  0  0  0  0  0  0  0  0  0
   -6.8909   18.9078  -33.9594 H   0  0  0  0  0  0  0  0  0  0  0  0
   -7.0663   17.1483  -34.3873 H   0  0  0  0  0  0  0  0  0  0  0  0
   -7.2029   16.8160  -31.5407 H   0  0  0  0  0  0  0  0  0  0  0  0
   -6.0287   17.9652  -30.7935 H   0  0  0  0  0  0  0  0  0  0  0  0
   -9.2414   17.6027  -32.4891 H   0  0  0  0  0  0  0  0  0  0  0  0
  -10.8224   19.5003  -32.8227 H   0  0  0  0  0  0  0  0  0  0  0  0
  -10.0634   21.8451  -32.4598 H   0  0  0  0  0  0  0  0  0  0  0  0
   -6.1181   20.4007  -31.4080 H   0  0  0  0  0  0  0  0  0  0  0  0
   -4.6827   19.4055  -32.7942 H   0  0  0  0  0  0  0  0  0  0  0  0
   -4.0967   18.1646  -31.6234 H   0  0  0  0  0  0  0  0  0  0  0  0
   -4.5046   20.9027  -34.2827 H   0  0  0  0  0  0  0  0  0  0  0  0
   -4.9976   22.9341  -32.9341 H   0  0  0  0  0  0  0  0  0  0  0  0
  1  2  1  0
  2  3  1  0
  3  4  2  0
  4  5  1  0
  5  6  2  0
  6  7  1  0
  8  7  1  6
  8  9  1  0
  9 10  1  0
  8 11  1  0
 11 12  1  0
 12 13  1  0
 13 14  1  0
 14 15  1  0
 15 16  1  0
 16 17  2  0
 17 18  1  0
 18 19  2  0
 19 20  1  0
 20 21  1  0
 21 22  1  0
 21 23  1  0
 21 24  1  0
 20 25  2  0
 14 26  1  0
  6 27  1  0
 27 28  2  0
 28  3  1  0
 26  8  1  0
 25 16  1  0
  1 29  1  0
  1 30  1  0
  1 31  1  0
  4 32  1  0
  5 33  1  0
  7 34  1  0
  7 35  1  0
  9 36  1  0
  9 37  1  0
 10 38  1  0
 11 39  1  0
 11 40  1  0
 12 41  1  0
 12 42  1  0
 13 43  1  0
 13 44  1  0
 15 45  1  0
 15 46  1  0
 17 47  1  0
 18 48  1  0
 19 49  1  0
 25 50  1  0
 26 51  1  0
 26 52  1  0
 27 53  1  0
 28 54  1  0
M  END
>  <UniqueID>  (14) 
12

>  <SMILES>  (14) 
COc1ccc(C[C@]2(CO)CCCN(Cc3cccc(C(F)(F)F)c3)C2)cc1

>  <Energy>  (14) 
63.405735603430024

>  <Genealogy>  (14) 
COc1ccc(C[C@]2(CO)CCCN(Cc3cccc(C(F)(F)F)c3)C2)cc1 (chirality)
COc1ccc(C[C@]2(CO)CCCN(Cc3cccc(C(F)(F)F)c3)C2)cc1 (3D coordinates assigned)
COc1ccc(C[C@]2(CO)CCCN(Cc3cccc(C(F)(F)F)c3)C2)cc1 (nonaromatic ring conformer: 63.405735603430024 kcal/mol)

>  <smiles>  (14) 
COc1ccc(CC2(CO)CCCN(Cc3cccc(C(F)(F)F)c3)C2)cc1

>  <score_type>  (14) 
oracle

>  <origin>  (14) 
adg

>  <m_score__min__energy>  (14) 
-8.9700000000000006

>  <m_primary>  (14) 
energy

$$$$
14:0
     RDKit          3D

 45 48  0  0  0  0  0  0  0  0999 V2000
   -1.5300   20.4190  -34.1020 C   0  0  0  0  0  0  0  0  0  0  0  0
   -1.0870   20.7810  -32.6890 C   0  0  0  0  0  0  0  0  0  0  0  0
   -2.2310   21.2380  -31.8990 N   0  0  0  0  0  0  0  0  0  0  0  0
   -3.4160   21.6360  -32.4020 C   0  0  0  0  0  0  0  0  0  0  0  0
   -4.2880   21.9260  -31.3660 C   0  0  0  0  0  0  0  0  0  0  0  0
   -5.6950   22.3690  -31.4820 C   0  0  0  0  0  0  0  0  0  0  0  0
   -6.1210   23.6160  -31.3270 C   0  0  0  0  0  0  0  0  0  0  0  0
   -5.2890   24.7600  -31.0460 C   0  0  0  0  0  0  0  0  0  0  0  0
   -4.6210   25.6770  -30.8200 N   0  0  0  0  0  0  0  0  0  0  0  0
   -7.6110   23.6870  -31.3610 C   0  0  0  0  0  0  0  0  0  0  0  0
   -8.0400   22.2240  -31.5380 C   0  0  0  0  0  0  0  0  0  0  0  0
   -6.7950   21.4750  -31.6420 N   0  0  0  0  0  0  0  0  0  0  0  0
   -6.7370   20.1280  -32.1430 C   0  0  0  0  0  0  0  0  0  0  0  0
   -7.6590   19.1600  -31.7140 C   0  0  0  0  0  0  0  0  0  0  0  0
   -7.5770   17.8910  -32.1890 N   0  0  0  0  0  0  0  0  0  0  0  0
   -6.6100   17.5320  -33.0730 C   0  0  0  0  0  0  0  0  0  0  0  0
   -6.5410   16.2220  -33.5560 C   0  0  0  0  0  0  0  0  0  0  0  0
   -5.5370   15.8650  -34.4620 C   0  0  0  0  0  0  0  0  0  0  0  0
   -4.6000   16.8150  -34.8850 C   0  0  0  0  0  0  0  0  0  0  0  0
   -3.6290   16.4630  -35.7640 F   0  0  0  0  0  0  0  0  0  0  0  0
   -4.6630   18.1280  -34.4040 C   0  0  0  0  0  0  0  0  0  0  0  0
   -5.6680   18.4940  -33.4960 C   0  0  0  0  0  0  0  0  0  0  0  0
   -5.7510   19.7670  -33.0140 N   0  0  0  0  0  0  0  0  0  0  0  0
   -3.6060   21.6850  -30.1860 C   0  0  0  0  0  0  0  0  0  0  0  0
   -2.3450   21.2530  -30.5520 C   0  0  0  0  0  0  0  0  0  0  0  0
   -1.2590   20.8700  -29.5940 C   0  0  0  0  0  0  0  0  0  0  0  0
   -2.3809   19.7237  -34.0527 H   0  0  0  0  0  0  0  0  0  0  0  0
   -1.8327   21.3315  -34.6365 H   0  0  0  0  0  0  0  0  0  0  0  0
   -0.6961   19.9406  -34.6365 H   0  0  0  0  0  0  0  0  0  0  0  0
   -0.6454   19.8952  -32.2091 H   0  0  0  0  0  0  0  0  0  0  0  0
   -0.3439   21.5902  -32.7435 H   0  0  0  0  0  0  0  0  0  0  0  0
   -3.6545   21.7181  -33.4727 H   0  0  0  0  0  0  0  0  0  0  0  0
   -8.0057   24.1007  -30.4213 H   0  0  0  0  0  0  0  0  0  0  0  0
   -7.9888   24.3421  -32.1598 H   0  0  0  0  0  0  0  0  0  0  0  0
   -8.6237   21.8847  -30.6696 H   0  0  0  0  0  0  0  0  0  0  0  0
   -8.6801   22.0856  -32.4218 H   0  0  0  0  0  0  0  0  0  0  0  0
   -8.4462   19.4293  -30.9945 H   0  0  0  0  0  0  0  0  0  0  0  0
   -7.2752   15.4731  -33.2241 H   0  0  0  0  0  0  0  0  0  0  0  0
   -5.4836   14.8346  -34.8433 H   0  0  0  0  0  0  0  0  0  0  0  0
   -3.9251   18.8724  -34.7377 H   0  0  0  0  0  0  0  0  0  0  0  0
   -5.0610   20.4850  -33.3280 H   0  0  0  0  0  0  0  0  0  0  0  0
   -3.9901   21.8117  -29.1630 H   0  0  0  0  0  0  0  0  0  0  0  0
   -1.6187   20.9968  -28.5622 H   0  0  0  0  0  0  0  0  0  0  0  0
   -0.9791   19.8189  -29.7581 H   0  0  0  0  0  0  0  0  0  0  0  0
   -0.3817   21.5130  -29.7581 H   0  0  0  0  0  0  0  0  0  0  0  0
  1  2  1  0
  2  3  1  0
  3  4  1  0
  4  5  2  0
  5  6  1  0
  6  7  2  0
  7  8  1  0
  8  9  3  0
  7 10  1  0
 10 11  1  0
 11 12  1  0
 12 13  1  0
 13 14  2  0
 14 15  1  0
 15 16  2  0
 16 17  1  0
 17 18  2  0
 18 19  1  0
 19 20  1  0
 19 21  2  0
 21 22  1  0
 22 23  2  0
  5 24  1  0
 24 25  2  0
 25 26  1  0
 25  3  1  0
 12  6  1  0
 23 13  1  0
 22 16  1  0
  1 27  1  0
  1 28  1  0
  1 29  1  0
  2 30  1  0
  2 31  1  0
  4 32  1  0
 10 33  1  0
 10 34  1  0
 11 35  1  0
 11 36  1  0
 14 37  1  0
 17 38  1  0
 18 39  1  0
 21 40  1  0
 23 41  1  0
 24 42  1  0
 26 43  1  0
 26 44  1  0
 26 45  1  0
M  CHG  1  23   1
M  END
>  <UniqueID>  (15) 
13

>  <SMILES>  (15) 
CCn1cc(C2=C(C#N)CCN2c2cnc3ccc(F)cc3[nH+]2)cc1C

>  <Energy>  (15) 
90.15543062608566

>  <Genealogy>  (15) 
CCn1cc(C2=C(C#N)CCN2c2cnc3ccc(F)cc3[nH+]2)cc1C (protonated)
CCn1cc(C2=C(C#N)CCN2c2cnc3ccc(F)cc3[nH+]2)cc1C (3D coordinates assigned)
CCn1cc(C2=C(C#N)CCN2c2cnc3ccc(F)cc3[nH+]2)cc1C (nonaromatic ring conformer: 90.15543062608566 kcal/mol)

>  <smiles>  (15) 
CCn1cc(C2=C(C#N)CCN2c2cnc3ccc(F)cc3n2)cc1C

>  <score_type>  (15) 
oracle

>  <origin>  (15) 
adg

>  <m_score__min__energy>  (15) 
-7.7400000000000002

>  <m_primary>  (15) 
energy

$$$$
15:0
     RDKit          3D

 24 25  0  0  0  0  0  0  0  0999 V2000
   -7.9819   17.5624  -32.9268 H   0  0  0  0  0  0  0  0  0  0  0  0
   -7.9780   18.6320  -32.6700 C   0  0  0  0  0  0  0  0  0  0  0  0
   -9.0520   19.1860  -31.9700 C   0  0  0  0  0  0  0  0  0  0  0  0
   -9.9005   18.5514  -31.6746 H   0  0  0  0  0  0  0  0  0  0  0  0
   -9.0510   20.5450  -31.6440 C   0  0  0  0  0  0  0  0  0  0  0  0
   -9.9008   20.9756  -31.0940 H   0  0  0  0  0  0  0  0  0  0  0  0
   -7.9690   21.3670  -32.0150 C   0  0  0  0  0  0  0  0  0  0  0  0
   -7.9630   22.8100  -31.6700 C   0  0  0  0  0  0  0  0  0  0  0  0
   -8.6970   23.6060  -32.3150 O   0  0  0  0  0  0  0  0  0  0  0  0
   -7.1230   23.2810  -30.6020 N   0  0  0  0  0  0  0  0  0  0  0  0
   -6.0020   23.9390  -30.6800 C   0  0  0  0  0  0  0  0  0  0  0  0
   -4.7500   23.3750  -30.7240 C   0  0  0  0  0  0  0  0  0  0  0  0
   -4.4050   21.9230  -30.7490 C   0  0  0  0  0  0  0  0  0  0  0  0
   -4.3162   21.5494  -29.7182 H   0  0  0  0  0  0  0  0  0  0  0  0
   -5.1961   21.3671  -31.2736 H   0  0  0  0  0  0  0  0  0  0  0  0
   -3.4484   21.7824  -31.2736 H   0  0  0  0  0  0  0  0  0  0  0  0
   -3.8590   24.3800  -30.8350 N   0  0  0  0  0  0  0  0  0  0  0  0
   -4.5620   25.4800  -30.8370 O   0  0  0  0  0  0  0  0  0  0  0  0
   -5.8460   25.2740  -30.7470 N   0  0  0  0  0  0  0  0  0  0  0  0
   -6.5600   26.0320  -30.7420 H   0  0  0  0  0  0  0  0  0  0  0  0
   -6.8920   20.7960  -32.7200 C   0  0  0  0  0  0  0  0  0  0  0  0
   -6.0395   21.4242  -33.0178 H   0  0  0  0  0  0  0  0  0  0  0  0
   -6.8990   19.4360  -33.0440 C   0  0  0  0  0  0  0  0  0  0  0  0
   -6.0531   18.9984  -33.5945 H   0  0  0  0  0  0  0  0  0  0  0  0
  1  2  1  0
  2  3  2  0
  3  4  1  0
  3  5  1  0
  5  6  1  0
  5  7  2  0
  7  8  1  0
  8  9  2  0
  8 10  1  0
 10 11  2  0
 11 12  1  0
 12 13  1  0
 13 14  1  0
 13 15  1  0
 13 16  1  0
 12 17  2  0
 17 18  1  0
 18 19  1  0
 19 20  1  0
  7 21  1  0
 21 22  1  0
 21 23  2  0
 23 24  1  0
 23  2  1  0
 19 11  1  0
M  END
>  <UniqueID>  (16) 
14

>  <SMILES>  (16) 
Cc1no[nH]/c1=N\C(=O)c1ccccc1

>  <Energy>  (16) 
65.31964296095862

>  <Genealogy>  (16) 
Cc1no[nH]/c1=N\C(=O)c1ccccc1 (cis-trans isomerization)
Cc1no[nH]/c1=N\C(=O)c1ccccc1 (3D coordinates assigned)
Cc1no[nH]/c1=N\C(=O)c1ccccc1 (optimized conformer: 65.31964296095862 kcal/mol)

>  <smiles>  (16) 
Cc1no[nH]c1=NC(=O)c1ccccc1

>  <score_type>  (16) 
oracle

>  <origin>  (16) 
adg

>  <m_score__min__energy>  (16) 
-7.3600000000000003

>  <m_primary>  (16) 
energy

$$$$
16:0
     RDKit          3D

 37 38  0  0  0  0  0  0  0  0999 V2000
   -2.6680   23.9360  -29.5080 C   0  0  0  0  0  0  0  0  0  0  0  0
   -3.5700   24.4790  -30.4670 O   0  0  0  0  0  0  0  0  0  0  0  0
   -4.8200   23.9260  -30.7850 C   0  0  0  0  0  0  0  0  0  0  0  0
   -6.0060   24.3550  -30.1610 C   0  0  0  0  0  0  0  0  0  0  0  0
   -7.2320   23.7820  -30.5010 C   0  0  0  0  0  0  0  0  0  0  0  0
   -7.3060   22.7680  -31.4740 C   0  0  0  0  0  0  0  0  0  0  0  0
   -8.6060   22.1430  -31.8470 C   0  0  0  0  0  0  0  0  0  0  0  0
   -9.5330   22.8630  -32.3100 O   0  0  0  0  0  0  0  0  0  0  0  0
   -8.8550   20.6640  -31.7190 C   0  0  0  0  0  0  0  0  0  0  0  0
   -8.3620   19.9480  -32.8980 N   0  0  0  0  0  0  0  0  0  0  0  0
   -7.1910   19.1100  -32.8820 C   0  0  0  0  0  0  0  0  0  0  0  0
   -6.1870   19.3150  -33.8440 C   0  0  0  0  0  0  0  0  0  0  0  0
   -5.0390   18.5170  -33.8520 C   0  0  0  0  0  0  0  0  0  0  0  0
   -4.8800   17.5080  -32.8990 C   0  0  0  0  0  0  0  0  0  0  0  0
   -5.8710   17.2930  -31.9390 C   0  0  0  0  0  0  0  0  0  0  0  0
   -7.0220   18.0880  -31.9260 C   0  0  0  0  0  0  0  0  0  0  0  0
   -6.1180   22.3400  -32.0920 C   0  0  0  0  0  0  0  0  0  0  0  0
   -4.8760   22.9140  -31.7540 C   0  0  0  0  0  0  0  0  0  0  0  0
   -3.6760   22.5070  -32.3580 O   0  0  0  0  0  0  0  0  0  0  0  0
   -3.2200   21.1590  -32.4240 C   0  0  0  0  0  0  0  0  0  0  0  0
   -3.0341   24.1564  -28.4944 H   0  0  0  0  0  0  0  0  0  0  0  0
   -2.5998   22.8466  -29.6444 H   0  0  0  0  0  0  0  0  0  0  0  0
   -1.6734   24.3856  -29.6444 H   0  0  0  0  0  0  0  0  0  0  0  0
   -5.9664   25.1479  -29.3996 H   0  0  0  0  0  0  0  0  0  0  0  0
   -8.1504   24.1265  -30.0032 H   0  0  0  0  0  0  0  0  0  0  0  0
   -8.3359   20.2872  -30.8254 H   0  0  0  0  0  0  0  0  0  0  0  0
   -9.9386   20.4958  -31.6327 H   0  0  0  0  0  0  0  0  0  0  0  0
   -8.8780   20.0540  -33.8030 H   0  0  0  0  0  0  0  0  0  0  0  0
   -6.3053   20.1090  -34.5960 H   0  0  0  0  0  0  0  0  0  0  0  0
   -4.2596   18.6840  -34.6101 H   0  0  0  0  0  0  0  0  0  0  0  0
   -3.9747   16.8832  -32.9048 H   0  0  0  0  0  0  0  0  0  0  0  0
   -5.7463   16.4963  -31.1909 H   0  0  0  0  0  0  0  0  0  0  0  0
   -7.7986   17.9148  -31.1664 H   0  0  0  0  0  0  0  0  0  0  0  0
   -6.1585   21.5449  -32.8510 H   0  0  0  0  0  0  0  0  0  0  0  0
   -3.0872   20.7665  -31.4050 H   0  0  0  0  0  0  0  0  0  0  0  0
   -3.9611   20.5470  -32.9590 H   0  0  0  0  0  0  0  0  0  0  0  0
   -2.2595   21.1226  -32.9590 H   0  0  0  0  0  0  0  0  0  0  0  0
  1  2  1  0
  2  3  1  0
  3  4  2  0
  4  5  1  0
  5  6  2  0
  6  7  1  0
  7  8  2  0
  7  9  1  0
  9 10  1  0
 10 11  1  0
 11 12  2  0
 12 13  1  0
 13 14  2  0
 14 15  1  0
 15 16  2  0
  6 17  1  0
 17 18  2  0
 18 19  1  0
 19 20  1  0
 18  3  1  0
 16 11  1  0
  1 21  1  0
  1 22  1  0
  1 23  1  0
  4 24  1  0
  5 25  1  0
  9 26  1  0
  9 27  1  0
 10 28  1  0
 12 29  1  0
 13 30  1  0
 14 31  1  0
 15 32  1  0
 16 33  1  0
 17 34  1  0
 20 35  1  0
 20 36  1  0
 20 37  1  0
M  END
>  <UniqueID>  (17) 
15

>  <SMILES>  (17) 
COc1ccc(C(=O)CNc2ccccc2)cc1OC

>  <Energy>  (17) 
37.11463064115457

>  <Genealogy>  (17) 
COc1ccc(C(=O)CNc2ccccc2)cc1OC (3D coordinates assigned)
COc1ccc(C(=O)CNc2ccccc2)cc1OC (optimized conformer: 37.11463064115457 kcal/mol)

>  <smiles>  (17) 
COc1ccc(C(=O)CNc2ccccc2)cc1OC

>  <score_type>  (17) 
oracle

>  <origin>  (17) 
adg

>  <m_score__min__energy>  (17) 
-7.7000000000000002

>  <m_primary>  (17) 
energy

$$$$
17:0
     RDKit          3D

 45 46  0  0  0  0  0  0  0  0999 V2000
   -9.1740   21.2130  -30.8610 C   0  0  0  0  0  0  0  0  0  0  0  0
   -9.5520   20.9100  -32.3070 C   0  0  0  0  0  0  0  0  0  0  0  0
   -9.4610   19.4070  -32.5980 C   0  0  0  0  0  0  0  0  0  0  0  0
   -8.7500   18.6300  -31.4810 C   0  0  0  0  0  0  0  0  0  0  0  0
   -7.2970   18.7950  -31.5620 N   0  0  0  0  0  0  0  0  0  0  0  0
   -6.4580   18.1500  -32.5380 C   0  0  0  0  0  0  0  0  0  0  0  0
   -6.6280   16.7890  -32.8580 C   0  0  0  0  0  0  0  0  0  0  0  0
   -5.7880   16.1690  -33.7870 C   0  0  0  0  0  0  0  0  0  0  0  0
   -4.7670   16.8940  -34.4020 C   0  0  0  0  0  0  0  0  0  0  0  0
   -4.5810   18.2420  -34.0910 C   0  0  0  0  0  0  0  0  0  0  0  0
   -5.4200   18.8750  -33.1630 C   0  0  0  0  0  0  0  0  0  0  0  0
   -5.2390   20.2720  -32.8930 N   0  0  0  0  0  0  0  0  0  0  0  0
   -6.3510   21.2030  -33.1010 C   0  0  0  0  0  0  0  0  0  0  0  0
   -6.3920   22.2330  -31.9670 C   0  0  0  0  0  0  0  0  0  0  0  0
   -5.0550   22.7760  -31.6680 N   0  0  0  0  0  0  0  0  0  0  0  0
   -4.9080   23.8840  -30.7520 C   0  0  0  0  0  0  0  0  0  0  0  0
   -3.8980   24.6370  -30.8380 O   0  0  0  0  0  0  0  0  0  0  0  0
   -5.9350   24.1750  -29.6910 C   0  0  0  0  0  0  0  0  0  0  0  0
   -6.8680   25.0750  -30.1740 F   0  0  0  0  0  0  0  0  0  0  0  0
   -6.5950   23.0130  -29.3310 F   0  0  0  0  0  0  0  0  0  0  0  0
   -5.3220   24.7020  -28.5710 F   0  0  0  0  0  0  0  0  0  0  0  0
   -3.8850   22.2940  -32.4200 C   0  0  0  0  0  0  0  0  0  0  0  0
   -3.9080   20.7650  -32.5250 C   0  0  0  0  0  0  0  0  0  0  0  0
   -9.8504   20.6708  -30.1839 H   0  0  0  0  0  0  0  0  0  0  0  0
   -8.1377   20.8926  -30.6781 H   0  0  0  0  0  0  0  0  0  0  0  0
   -9.2612   22.2942  -30.6781 H   0  0  0  0  0  0  0  0  0  0  0  0
  -10.5827   21.2491  -32.4875 H   0  0  0  0  0  0  0  0  0  0  0  0
   -8.8499   21.4373  -32.9696 H   0  0  0  0  0  0  0  0  0  0  0  0
  -10.4798   19.0080  -32.7109 H   0  0  0  0  0  0  0  0  0  0  0  0
   -8.8711   19.2815  -33.5179 H   0  0  0  0  0  0  0  0  0  0  0  0
   -9.0995   19.0023  -30.5067 H   0  0  0  0  0  0  0  0  0  0  0  0
   -8.9858   17.5617  -31.5958 H   0  0  0  0  0  0  0  0  0  0  0  0
   -6.8740   19.5260  -30.9470 H   0  0  0  0  0  0  0  0  0  0  0  0
   -7.4277   16.2099  -32.3732 H   0  0  0  0  0  0  0  0  0  0  0  0
   -5.9322   15.1068  -34.0339 H   0  0  0  0  0  0  0  0  0  0  0  0
   -4.1078   16.4028  -35.1328 H   0  0  0  0  0  0  0  0  0  0  0  0
   -3.7732   18.8098  -34.5758 H   0  0  0  0  0  0  0  0  0  0  0  0
   -6.2158   21.7232  -34.0608 H   0  0  0  0  0  0  0  0  0  0  0  0
   -7.2959   20.6399  -33.1114 H   0  0  0  0  0  0  0  0  0  0  0  0
   -7.0539   23.0605  -32.2622 H   0  0  0  0  0  0  0  0  0  0  0  0
   -6.7650   21.7294  -31.0629 H   0  0  0  0  0  0  0  0  0  0  0  0
   -3.9011   22.7267  -33.4312 H   0  0  0  0  0  0  0  0  0  0  0  0
   -2.9706   22.6009  -31.8911 H   0  0  0  0  0  0  0  0  0  0  0  0
   -3.1850   20.4483  -33.2912 H   0  0  0  0  0  0  0  0  0  0  0  0
   -3.6447   20.3474  -31.5420 H   0  0  0  0  0  0  0  0  0  0  0  0
  1  2  1  0
  2  3  1  0
  3  4  1  0
  4  5  1  0
  5  6  1  0
  6  7  2  0
  7  8  1  0
  8  9  2  0
  9 10  1  0
 10 11  2  0
 11 12  1  0
 12 13  1  0
 13 14  1  0
 14 15  1  0
 15 16  1  0
 16 17  2  0
 16 18  1  0
 18 19  1  0
 18 20  1  0
 18 21  1  0
 15 22  1  0
 22 23  1  0
 11  6  1  0
 23 12  1  0
  1 24  1  0
  1 25  1  0
  1 26  1  0
  2 27  1  0
  2 28  1  0
  3 29  1  0
  3 30  1  0
  4 31  1  0
  4 32  1  0
  5 33  1  0
  7 34  1  0
  8 35  1  0
  9 36  1  0
 10 37  1  0
 13 38  1  0
 13 39  1  0
 14 40  1  0
 14 41  1  0
 22 42  1  0
 22 43  1  0
 23 44  1  0
 23 45  1  0
M  END
>  <UniqueID>  (18) 
16

>  <SMILES>  (18) 
CCCCNc1ccccc1N1CCN(C(=O)C(F)(F)F)CC1

>  <Energy>  (18) 
43.23009319120499

>  <Genealogy>  (18) 
CCCCNc1ccccc1N1CCN(C(=O)C(F)(F)F)CC1 (3D coordinates assigned)
CCCCNc1ccccc1N1CCN(C(=O)C(F)(F)F)CC1 (nonaromatic ring conformer: 43.23009319120499 kcal/mol)

>  <smiles>  (18) 
CCCCNc1ccccc1N1CCN(C(=O)C(F)(F)F)CC1

>  <score_type>  (18) 
oracle

>  <origin>  (18) 
adg

>  <m_score__min__energy>  (18) 
-7.04

>  <m_primary>  (18) 
energy

$$$$
18:0
     RDKit          3D

 40 42  0  0  0  0  0  0  0  0999 V2000
   -8.7450   18.2660  -31.5950 C   0  0  0  0  0  0  0  0  0  0  0  0
   -7.5700   18.3740  -32.5330 C   0  0  0  0  0  0  0  0  0  0  0  0
   -6.9240   17.1940  -32.9390 C   0  0  0  0  0  0  0  0  0  0  0  0
   -5.8080   17.2450  -33.7760 C   0  0  0  0  0  0  0  0  0  0  0  0
   -5.3260   18.4760  -34.2220 C   0  0  0  0  0  0  0  0  0  0  0  0
   -5.9670   19.6570  -33.8460 C   0  0  0  0  0  0  0  0  0  0  0  0
   -7.1040   19.6230  -33.0200 C   0  0  0  0  0  0  0  0  0  0  0  0
   -7.7640   20.9010  -32.6880 C   0  0  0  0  0  0  0  0  0  0  0  0
   -8.9770   20.8960  -32.3420 O   0  0  0  0  0  0  0  0  0  0  0  0
   -7.0250   22.1310  -32.7080 N   0  0  0  0  0  0  0  0  0  0  0  0
   -7.6240   23.4180  -32.3570 C   0  0  0  0  0  0  0  0  0  0  0  0
   -7.2370   23.8420  -30.9360 C   0  0  0  0  0  0  0  0  0  0  0  0
   -5.7480   23.9270  -30.7780 C   0  0  0  0  0  0  0  0  0  0  0  0
   -4.9900   25.0430  -30.4340 C   0  0  0  0  0  0  0  0  0  0  0  0
   -3.6900   24.6910  -30.2840 N   0  0  0  0  0  0  0  0  0  0  0  0
   -3.6160   23.3900  -30.5180 N   0  0  0  0  0  0  0  0  0  0  0  0
   -2.5110   22.6000  -30.4640 C   0  0  0  0  0  0  0  0  0  0  0  0
   -1.1710   23.1660  -30.0990 C   0  0  0  0  0  0  0  0  0  0  0  0
   -2.6820   21.2250  -30.7010 C   0  0  0  0  0  0  0  0  0  0  0  0
   -3.9700   20.7390  -30.9980 C   0  0  0  0  0  0  0  0  0  0  0  0
   -5.0370   21.5890  -31.0450 N   0  0  0  0  0  0  0  0  0  0  0  0
   -4.8300   22.9060  -30.8050 C   0  0  0  0  0  0  0  0  0  0  0  0
   -8.3882   18.2988  -30.5550 H   0  0  0  0  0  0  0  0  0  0  0  0
   -9.4344   19.1046  -31.7727 H   0  0  0  0  0  0  0  0  0  0  0  0
   -9.2699   17.3158  -31.7727 H   0  0  0  0  0  0  0  0  0  0  0  0
   -7.3015   16.2202  -32.5938 H   0  0  0  0  0  0  0  0  0  0  0  0
   -5.3086   16.3146  -34.0840 H   0  0  0  0  0  0  0  0  0  0  0  0
   -4.4390   18.5156  -34.8713 H   0  0  0  0  0  0  0  0  0  0  0  0
   -5.5790   20.6238  -34.1993 H   0  0  0  0  0  0  0  0  0  0  0  0
   -6.0070   22.1120  -32.9420 H   0  0  0  0  0  0  0  0  0  0  0  0
   -7.2740   24.1819  -33.0669 H   0  0  0  0  0  0  0  0  0  0  0  0
   -8.7183   23.3164  -32.4036 H   0  0  0  0  0  0  0  0  0  0  0  0
   -7.6765   24.8279  -30.7243 H   0  0  0  0  0  0  0  0  0  0  0  0
   -7.6177   23.0865  -30.2329 H   0  0  0  0  0  0  0  0  0  0  0  0
   -5.3876   26.0602  -30.3033 H   0  0  0  0  0  0  0  0  0  0  0  0
   -1.0759   23.2062  -29.0039 H   0  0  0  0  0  0  0  0  0  0  0  0
   -0.3777   22.5261  -30.5127 H   0  0  0  0  0  0  0  0  0  0  0  0
   -1.0766   24.1809  -30.5127 H   0  0  0  0  0  0  0  0  0  0  0  0
   -1.8231   20.5393  -30.6552 H   0  0  0  0  0  0  0  0  0  0  0  0
   -4.1172   19.6666  -31.1935 H   0  0  0  0  0  0  0  0  0  0  0  0
  1  2  1  0
  2  3  2  0
  3  4  1  0
  4  5  2  0
  5  6  1  0
  6  7  2  0
  7  8  1  0
  8  9  2  0
  8 10  1  0
 10 11  1  0
 11 12  1  0
 12 13  1  0
 13 14  1  0
 14 15  2  0
 15 16  1  0
 16 17  1  0
 17 18  1  0
 17 19  2  0
 19 20  1  0
 20 21  2  0
 21 22  1  0
  7  2  1  0
 22 13  2  0
 22 16  1  0
  1 23  1  0
  1 24  1  0
  1 25  1  0
  3 26  1  0
  4 27  1  0
  5 28  1  0
  6 29  1  0
 10 30  1  0
 11 31  1  0
 11 32  1  0
 12 33  1  0
 12 34  1  0
 14 35  1  0
 18 36  1  0
 18 37  1  0
 18 38  1  0
 19 39  1  0
 20 40  1  0
M  END
>  <UniqueID>  (19) 
17

>  <SMILES>  (19) 
Cc1ccccc1C(=O)NCCc1cnn2c(C)ccnc12

>  <Energy>  (19) 
79.17535176920671

>  <Genealogy>  (19) 
Cc1ccccc1C(=O)NCCc1cnn2c(C)ccnc12 (3D coordinates assigned)
Cc1ccccc1C(=O)NCCc1cnn2c(C)ccnc12 (optimized conformer: 79.17535176920671 kcal/mol)

>  <smiles>  (19) 
Cc1ccccc1C(=O)NCCc1cnn2c(C)ccnc12

>  <score_type>  (19) 
oracle

>  <origin>  (19) 
adg

>  <m_score__min__energy>  (19) 
-8.5800000000000001

>  <m_primary>  (19) 
energy

$$$$
19:0
     RDKit          3D

 47 48  0  0  0  0  0  0  0  0999 V2000
   -8.7720   18.5860  -31.8950 C   0  0  0  0  0  0  0  0  0  0  0  0
   -8.3420   20.0180  -32.0080 C   0  0  0  0  0  0  0  0  0  0  0  0
   -9.2510   21.0520  -31.7320 C   0  0  0  0  0  0  0  0  0  0  0  0
   -8.8400   22.3860  -31.7990 C   0  0  0  0  0  0  0  0  0  0  0  0
   -7.5190   22.6980  -32.1260 C   0  0  0  0  0  0  0  0  0  0  0  0
   -6.5940   21.6740  -32.3830 C   0  0  0  0  0  0  0  0  0  0  0  0
   -5.1660   22.0150  -32.7150 C   0  0  0  0  0  0  0  0  0  0  0  0
   -4.2740   21.7170  -31.5830 N   0  0  0  0  0  0  0  0  0  0  0  0
   -3.1960   20.7740  -31.9340 C   0  0  0  0  0  0  0  0  0  0  0  0
   -1.8180   21.3370  -31.5610 C   0  0  0  0  0  0  0  0  0  0  0  0
   -1.9130   22.6840  -31.0970 O   0  0  0  0  0  0  0  0  0  0  0  0
   -2.0130   23.0850  -29.7550 C   0  0  0  0  0  0  0  0  0  0  0  0
   -1.2250   22.5120  -28.7370 C   0  0  0  0  0  0  0  0  0  0  0  0
   -1.3530   22.9470  -27.4160 C   0  0  0  0  0  0  0  0  0  0  0  0
   -2.2660   23.9500  -27.0970 C   0  0  0  0  0  0  0  0  0  0  0  0
   -3.0580   24.5220  -28.0950 C   0  0  0  0  0  0  0  0  0  0  0  0
   -2.9410   24.0880  -29.4320 C   0  0  0  0  0  0  0  0  0  0  0  0
   -3.7140   24.6320  -30.4740 O   0  0  0  0  0  0  0  0  0  0  0  0
   -5.1390   24.5940  -30.5680 C   0  0  0  0  0  0  0  0  0  0  0  0
   -5.7330   25.9630  -30.2200 C   0  0  0  0  0  0  0  0  0  0  0  0
   -5.6650   23.5330  -29.6040 C   0  0  0  0  0  0  0  0  0  0  0  0
   -7.0120   20.3340  -32.3220 C   0  0  0  0  0  0  0  0  0  0  0  0
   -8.8547   18.3107  -30.8332 H   0  0  0  0  0  0  0  0  0  0  0  0
   -9.7486   18.4567  -32.3844 H   0  0  0  0  0  0  0  0  0  0  0  0
   -8.0282   17.9401  -32.3844 H   0  0  0  0  0  0  0  0  0  0  0  0
  -10.2899   20.8113  -31.4622 H   0  0  0  0  0  0  0  0  0  0  0  0
   -9.5593   23.1925  -31.5935 H   0  0  0  0  0  0  0  0  0  0  0  0
   -7.2021   23.7498  -32.1824 H   0  0  0  0  0  0  0  0  0  0  0  0
   -4.8490   21.4247  -33.5874 H   0  0  0  0  0  0  0  0  0  0  0  0
   -5.1053   23.0912  -32.9342 H   0  0  0  0  0  0  0  0  0  0  0  0
   -3.8230   22.6190  -31.3030 H   0  0  0  0  0  0  0  0  0  0  0  0
   -3.3557   19.8299  -31.3926 H   0  0  0  0  0  0  0  0  0  0  0  0
   -3.2203   20.6086  -33.0212 H   0  0  0  0  0  0  0  0  0  0  0  0
   -1.3805   20.7149  -30.7663 H   0  0  0  0  0  0  0  0  0  0  0  0
   -1.1844   21.3248  -32.4601 H   0  0  0  0  0  0  0  0  0  0  0  0
   -0.5051   21.7178  -28.9841 H   0  0  0  0  0  0  0  0  0  0  0  0
   -0.7325   22.4974  -26.6268 H   0  0  0  0  0  0  0  0  0  0  0  0
   -2.3633   24.2923  -26.0561 H   0  0  0  0  0  0  0  0  0  0  0  0
   -3.7761   25.3144  -27.8373 H   0  0  0  0  0  0  0  0  0  0  0  0
   -5.4346   24.3432  -31.5974 H   0  0  0  0  0  0  0  0  0  0  0  0
   -5.7814   26.0745  -29.1267 H   0  0  0  0  0  0  0  0  0  0  0  0
   -5.0981   26.7561  -30.6417 H   0  0  0  0  0  0  0  0  0  0  0  0
   -6.7459   26.0411  -30.6417 H   0  0  0  0  0  0  0  0  0  0  0  0
   -5.5005   23.8648  -28.5682 H   0  0  0  0  0  0  0  0  0  0  0  0
   -6.7414   23.3839  -29.7747 H   0  0  0  0  0  0  0  0  0  0  0  0
   -5.1320   22.5860  -29.7747 H   0  0  0  0  0  0  0  0  0  0  0  0
   -6.2914   19.5273  -32.5218 H   0  0  0  0  0  0  0  0  0  0  0  0
  1  2  1  0
  2  3  2  0
  3  4  1  0
  4  5  2  0
  5  6  1  0
  6  7  1  0
  7  8  1  0
  8  9  1  0
  9 10  1  0
 10 11  1  0
 11 12  1  0
 12 13  2  0
 13 14  1  0
 14 15  2  0
 15 16  1  0
 16 17  2  0
 17 18  1  0
 18 19  1  0
 19 20  1  0
 19 21  1  0
  6 22  2  0
 22  2  1  0
 17 12  1  0
  1 23  1  0
  1 24  1  0
  1 25  1  0
  3 26  1  0
  4 27  1  0
  5 28  1  0
  7 29  1  0
  7 30  1  0
  8 31  1  0
  9 32  1  0
  9 33  1  0
 10 34  1  0
 10 35  1  0
 13 36  1  0
 14 37  1  0
 15 38  1  0
 16 39  1  0
 19 40  1  0
 20 41  1  0
 20 42  1  0
 20 43  1  0
 21 44  1  0
 21 45  1  0
 21 46  1  0
 22 47  1  0
M  END
>  <UniqueID>  (20) 
18

>  <SMILES>  (20) 
Cc1cccc(CNCCOc2ccccc2OC(C)C)c1

>  <Energy>  (20) 
39.32769312548358

>  <Genealogy>  (20) 
Cc1cccc(CNCCOc2ccccc2OC(C)C)c1 (3D coordinates assigned)
Cc1cccc(CNCCOc2ccccc2OC(C)C)c1 (optimized conformer: 39.32769312548358 kcal/mol)

>  <smiles>  (20) 
Cc1cccc(CNCCOc2ccccc2OC(C)C)c1

>  <score_type>  (20) 
oracle

>  <origin>  (20) 
adg

>  <m_score__min__energy>  (20) 
-8.8599999999999994

>  <m_primary>  (20) 
energy

$$$$
20:0
     RDKit          3D

 25 26  0  0  0  0  0  0  0  0999 V2000
   -4.1000   25.5370  -30.8090 N   0  0  0  0  0  0  0  0  0  0  0  0
   -5.0590   25.0060  -29.8940 C   0  0  0  0  0  0  0  0  0  0  0  0
   -4.7070   24.6810  -28.6880 N   0  0  0  0  0  0  0  0  0  0  0  0
   -6.7610   24.7930  -30.4190 S   0  0  0  0  0  0  0  0  0  0  0  0
   -6.4100   23.2380  -31.2370 C   0  0  0  0  0  0  0  0  0  0  0  0
   -5.1460   23.0120  -31.7960 C   0  0  0  0  0  0  0  0  0  0  0  0
   -4.8650   21.8010  -32.4340 C   0  0  0  0  0  0  0  0  0  0  0  0
   -5.8490   20.8050  -32.5220 C   0  0  0  0  0  0  0  0  0  0  0  0
   -5.5780   19.5850  -33.1600 C   0  0  0  0  0  0  0  0  0  0  0  0
   -6.5670   18.6000  -33.2410 C   0  0  0  0  0  0  0  0  0  0  0  0
   -7.8310   18.8260  -32.6880 C   0  0  0  0  0  0  0  0  0  0  0  0
   -8.1140   20.0370  -32.0500 C   0  0  0  0  0  0  0  0  0  0  0  0
   -7.1290   21.0340  -31.9620 C   0  0  0  0  0  0  0  0  0  0  0  0
   -7.4010   22.2540  -31.3230 C   0  0  0  0  0  0  0  0  0  0  0  0
   -4.3880   25.7960  -31.7780 H   0  0  0  0  0  0  0  0  0  0  0  0
   -3.1030   25.6690  -30.5280 H   0  0  0  0  0  0  0  0  0  0  0  0
   -4.4570   23.6960  -28.4490 H   0  0  0  0  0  0  0  0  0  0  0  0
   -4.6690   25.4010  -27.9340 H   0  0  0  0  0  0  0  0  0  0  0  0
   -4.3716   23.7906  -31.7326 H   0  0  0  0  0  0  0  0  0  0  0  0
   -3.8693   21.6282  -32.8685 H   0  0  0  0  0  0  0  0  0  0  0  0
   -4.5852   19.4031  -33.5974 H   0  0  0  0  0  0  0  0  0  0  0  0
   -6.3500   17.6446  -33.7412 H   0  0  0  0  0  0  0  0  0  0  0  0
   -8.6056   18.0479  -32.7552 H   0  0  0  0  0  0  0  0  0  0  0  0
   -9.1100   20.2094  -31.6161 H   0  0  0  0  0  0  0  0  0  0  0  0
   -8.3951   22.4367  -30.8891 H   0  0  0  0  0  0  0  0  0  0  0  0
  1  2  1  0
  2  3  2  0
  2  4  1  0
  4  5  1  0
  5  6  2  0
  6  7  1  0
  7  8  2  0
  8  9  1  0
  9 10  2  0
 10 11  1  0
 11 12  2  0
 12 13  1  0
 13 14  2  0
 14  5  1  0
 13  8  1  0
  1 15  1  0
  1 16  1  0
  3 17  1  0
  3 18  1  0
  6 19  1  0
  7 20  1  0
  9 21  1  0
 10 22  1  0
 11 23  1  0
 12 24  1  0
 14 25  1  0
M  CHG  1   3   1
M  END
>  <UniqueID>  (21) 
19

>  <SMILES>  (21) 
NC(=[NH2+])Sc1ccc2ccccc2c1

>  <Energy>  (21) 
21.421360742391812

>  <Genealogy>  (21) 
NC(=[NH2+])Sc1ccc2ccccc2c1 (protonated)
NC(=[NH2+])Sc1ccc2ccccc2c1 (3D coordinates assigned)
NC(=[NH2+])Sc1ccc2ccccc2c1 (optimized conformer: 21.421360742391812 kcal/mol)

>  <smiles>  (21) 
N=C(N)Sc1ccc2ccccc2c1

>  <score_type>  (21) 
oracle

>  <origin>  (21) 
adg

>  <m_score__min__energy>  (21) 
-6.54

>  <m_primary>  (21) 
energy

$$$$
21:0
     RDKit          3D

 28 28  0  0  0  0  0  0  0  0999 V2000
   -0.7390   21.1550  -31.7600 C   0  0  0  0  0  0  0  0  0  0  0  0
   -1.5070   21.2490  -33.4110 S   0  0  0  0  0  0  0  0  0  0  0  0
   -2.7420   19.9250  -33.1290 C   0  0  0  0  0  0  0  0  0  0  0  0
   -4.1840   20.4680  -33.1180 C   0  0  0  0  0  0  0  0  0  0  0  0
   -4.2490   21.9370  -33.0000 N   0  0  0  0  0  0  0  0  0  0  0  0
   -5.3790   22.3850  -32.2090 C   0  0  0  0  0  0  0  0  0  0  0  0
   -6.6550   21.8560  -32.4910 C   0  0  0  0  0  0  0  0  0  0  0  0
   -7.7600   22.2010  -31.7140 C   0  0  0  0  0  0  0  0  0  0  0  0
   -7.6160   23.0760  -30.6430 C   0  0  0  0  0  0  0  0  0  0  0  0
   -6.3660   23.6210  -30.3430 C   0  0  0  0  0  0  0  0  0  0  0  0
   -6.2700   24.4920  -29.3060 F   0  0  0  0  0  0  0  0  0  0  0  0
   -5.2350   23.2960  -31.1210 C   0  0  0  0  0  0  0  0  0  0  0  0
   -3.9360   23.9120  -30.7630 C   0  0  0  0  0  0  0  0  0  0  0  0
   -3.8590   25.3090  -30.4930 N   0  0  0  0  0  0  0  0  0  0  0  0
   -2.8870   23.2160  -30.7170 O   0  0  0  0  0  0  0  0  0  0  0  0
   -1.5167   21.2502  -30.9879 H   0  0  0  0  0  0  0  0  0  0  0  0
   -0.2276   20.1876  -31.6480 H   0  0  0  0  0  0  0  0  0  0  0  0
   -0.0094   21.9705  -31.6480 H   0  0  0  0  0  0  0  0  0  0  0  0
   -2.6506   19.1783  -33.9316 H   0  0  0  0  0  0  0  0  0  0  0  0
   -2.5410   19.4795  -32.1435 H   0  0  0  0  0  0  0  0  0  0  0  0
   -4.6773   20.1700  -34.0549 H   0  0  0  0  0  0  0  0  0  0  0  0
   -4.6864   20.0458  -32.2352 H   0  0  0  0  0  0  0  0  0  0  0  0
   -4.2820   22.3530  -33.9600 H   0  0  0  0  0  0  0  0  0  0  0  0
   -3.3610   22.2910  -32.5800 H   0  0  0  0  0  0  0  0  0  0  0  0
   -6.7804   21.1620  -33.3351 H   0  0  0  0  0  0  0  0  0  0  0  0
   -8.7486   21.7798  -31.9489 H   0  0  0  0  0  0  0  0  0  0  0  0
   -8.4902   23.3399  -30.0297 H   0  0  0  0  0  0  0  0  0  0  0  0
   -3.5140   25.9780  -31.2180 H   0  0  0  0  0  0  0  0  0  0  0  0
  1  2  1  0
  2  3  1  0
  3  4  1  0
  4  5  1  0
  5  6  1  0
  6  7  2  0
  7  8  1  0
  8  9  2  0
  9 10  1  0
 10 11  1  0
 10 12  2  0
 12 13  1  0
 13 14  1  0
 13 15  2  0
 12  6  1  0
  1 16  1  0
  1 17  1  0
  1 18  1  0
  3 19  1  0
  3 20  1  0
  4 21  1  0
  4 22  1  0
  5 23  1  0
  5 24  1  0
  7 25  1  0
  8 26  1  0
  9 27  1  0
 14 28  1  0
M  CHG  2   5   1  14  -1
M  END
>  <UniqueID>  (22) 
20

>  <SMILES>  (22) 
CSCC[NH2+]c1cccc(F)c1C([NH-])=O

>  <Energy>  (22) 
30.873507631934032

>  <Genealogy>  (22) 
CSCC[NH2+]c1cccc(F)c1C([NH-])=O (protonated)
CSCC[NH2+]c1cccc(F)c1C([NH-])=O (3D coordinates assigned)
CSCC[NH2+]c1cccc(F)c1C([NH-])=O (optimized conformer: 30.873507631934032 kcal/mol)

>  <smiles>  (22) 
CSCCNc1cccc(F)c1C(N)=O

>  <score_type>  (22) 
oracle

>  <origin>  (22) 
adg

>  <m_score__min__energy>  (22) 
-7.3099999999999996

>  <m_primary>  (22) 
energy

$$$$
22:0
     RDKit          3D

 41 42  0  0  0  0  0  0  0  0999 V2000
   -3.2200   24.5500  -29.3810 C   0  0  0  0  0  0  0  0  0  0  0  0
   -4.5170   24.1130  -29.9920 C   0  0  0  0  0  0  0  0  0  0  0  0
   -4.6280   22.8470  -30.5860 C   0  0  0  0  0  0  0  0  0  0  0  0
   -5.8470   22.4250  -31.1240 C   0  0  0  0  0  0  0  0  0  0  0  0
   -6.9780   23.2540  -31.0700 C   0  0  0  0  0  0  0  0  0  0  0  0
   -8.2160   22.7860  -31.6410 N   0  0  0  0  0  0  0  0  0  0  0  0
   -8.9610   21.6170  -31.1760 C   0  0  0  0  0  0  0  0  0  0  0  0
   -9.3900   20.6850  -32.3360 C   0  0  0  0  0  0  0  0  0  0  0  0
   -8.3620   19.7280  -32.8350 N   0  0  0  0  0  0  0  0  0  0  0  0
   -8.1030   18.5950  -31.9210 C   0  0  0  0  0  0  0  0  0  0  0  0
   -7.2250   17.5220  -32.6050 C   0  0  0  0  0  0  0  0  0  0  0  0
   -6.5290   18.0550  -33.7960 N   0  0  0  0  0  0  0  0  0  0  0  0
   -5.4690   17.1290  -34.2260 C   0  0  0  0  0  0  0  0  0  0  0  0
   -5.9690   19.3890  -33.5210 C   0  0  0  0  0  0  0  0  0  0  0  0
   -7.0990   20.3990  -33.2310 C   0  0  0  0  0  0  0  0  0  0  0  0
   -6.8690   24.5150  -30.4510 C   0  0  0  0  0  0  0  0  0  0  0  0
   -5.6490   24.9360  -29.9130 C   0  0  0  0  0  0  0  0  0  0  0  0
   -3.3034   24.5219  -28.2845 H   0  0  0  0  0  0  0  0  0  0  0  0
   -2.4156   23.8733  -29.7050 H   0  0  0  0  0  0  0  0  0  0  0  0
   -2.9892   25.5755  -29.7050 H   0  0  0  0  0  0  0  0  0  0  0  0
   -3.7517   22.1834  -30.6285 H   0  0  0  0  0  0  0  0  0  0  0  0
   -5.9206   21.4334  -31.5944 H   0  0  0  0  0  0  0  0  0  0  0  0
   -8.6120   23.3040  -32.4580 H   0  0  0  0  0  0  0  0  0  0  0  0
   -8.3253   21.0469  -30.4826 H   0  0  0  0  0  0  0  0  0  0  0  0
   -9.8755   21.9787  -30.6832 H   0  0  0  0  0  0  0  0  0  0  0  0
  -10.2538   20.0978  -31.9909 H   0  0  0  0  0  0  0  0  0  0  0  0
   -9.6013   21.3535  -33.1836 H   0  0  0  0  0  0  0  0  0  0  0  0
   -8.7700   19.3230  -33.7130 H   0  0  0  0  0  0  0  0  0  0  0  0
   -7.5843   18.9667  -31.0250 H   0  0  0  0  0  0  0  0  0  0  0  0
   -9.0654   18.1382  -31.6470 H   0  0  0  0  0  0  0  0  0  0  0  0
   -6.4742   17.1650  -31.8847 H   0  0  0  0  0  0  0  0  0  0  0  0
   -7.8819   16.7027  -32.9327 H   0  0  0  0  0  0  0  0  0  0  0  0
   -4.9767   16.6989  -33.3413 H   0  0  0  0  0  0  0  0  0  0  0  0
   -5.9099   16.3216  -34.8291 H   0  0  0  0  0  0  0  0  0  0  0  0
   -4.7281   17.6744  -34.8291 H   0  0  0  0  0  0  0  0  0  0  0  0
   -5.3035   19.3293  -32.6472 H   0  0  0  0  0  0  0  0  0  0  0  0
   -5.4061   19.7278  -34.4033 H   0  0  0  0  0  0  0  0  0  0  0  0
   -6.7796   21.0633  -32.4145 H   0  0  0  0  0  0  0  0  0  0  0  0
   -7.2920   20.9645  -34.1546 H   0  0  0  0  0  0  0  0  0  0  0  0
   -7.7490   25.1722  -30.3906 H   0  0  0  0  0  0  0  0  0  0  0  0
   -5.5771   25.9191  -29.4248 H   0  0  0  0  0  0  0  0  0  0  0  0
  1  2  1  0
  2  3  2  0
  3  4  1  0
  4  5  2  0
  5  6  1  0
  6  7  1  0
  7  8  1  0
  8  9  1  0
  9 10  1  0
 10 11  1  0
 11 12  1  0
 12 13  1  0
 12 14  1  0
 14 15  1  0
  5 16  1  0
 16 17  2  0
 17  2  1  0
 15  9  1  0
  1 18  1  0
  1 19  1  0
  1 20  1  0
  3 21  1  0
  4 22  1  0
  6 23  1  0
  7 24  1  0
  7 25  1  0
  8 26  1  0
  8 27  1  0
  9 28  1  0
 10 29  1  0
 10 30  1  0
 11 31  1  0
 11 32  1  0
 13 33  1  0
 13 34  1  0
 13 35  1  0
 14 36  1  0
 14 37  1  0
 15 38  1  0
 15 39  1  0
 16 40  1  0
 17 41  1  0
M  CHG  1   9   1
M  END
>  <UniqueID>  (23) 
21

>  <SMILES>  (23) 
Cc1ccc(NCC[NH+]2CCN(C)CC2)cc1

>  <Energy>  (23) 
51.0534294739927

>  <Genealogy>  (23) 
Cc1ccc(NCC[NH+]2CCN(C)CC2)cc1 (protonated)
Cc1ccc(NCC[NH+]2CCN(C)CC2)cc1 (3D coordinates assigned)
Cc1ccc(NCC[NH+]2CCN(C)CC2)cc1 (nonaromatic ring conformer: 51.0534294739927 kcal/mol)

>  <smiles>  (23) 
Cc1ccc(NCCN2CCN(C)CC2)cc1

>  <score_type>  (23) 
oracle

>  <origin>  (23) 
adg

>  <m_score__min__energy>  (23) 
-6.0199999999999996

>  <m_primary>  (23) 
energy

$$$$
23:0
     RDKit          3D

 45 48  0  0  0  0  0  0  0  0999 V2000
   -5.0488   18.7795  -34.8108 H   0  0  0  0  0  0  0  0  0  0  0  0
   -5.1360   19.3240  -33.8590 C   0  0  0  0  0  0  0  0  0  0  0  0
   -4.0850   20.0610  -33.4690 C   0  0  0  0  0  0  0  0  0  0  0  0
   -3.0920   19.7705  -33.8426 H   0  0  0  0  0  0  0  0  0  0  0  0
   -4.1640   21.2400  -32.5700 C   0  0  0  0  0  0  0  0  0  0  0  0
   -5.3780   21.8130  -32.3540 N   0  0  0  0  0  0  0  0  0  0  0  0
   -5.5340   22.8610  -31.5110 C   0  0  0  0  0  0  0  0  0  0  0  0
   -6.8000   23.4310  -31.3320 C   0  0  0  0  0  0  0  0  0  0  0  0
   -7.6672   23.0278  -31.8755 H   0  0  0  0  0  0  0  0  0  0  0  0
   -6.9610   24.5130  -30.4620 C   0  0  0  0  0  0  0  0  0  0  0  0
   -7.9556   24.9617  -30.3224 H   0  0  0  0  0  0  0  0  0  0  0  0
   -5.8610   25.0260  -29.7690 C   0  0  0  0  0  0  0  0  0  0  0  0
   -5.9923   25.8777  -29.0853 H   0  0  0  0  0  0  0  0  0  0  0  0
   -4.5940   24.4600  -29.9420 C   0  0  0  0  0  0  0  0  0  0  0  0
   -3.7311   24.8662  -29.3938 H   0  0  0  0  0  0  0  0  0  0  0  0
   -4.4220   23.3710  -30.8170 C   0  0  0  0  0  0  0  0  0  0  0  0
   -3.1720   22.7660  -31.0330 C   0  0  0  0  0  0  0  0  0  0  0  0
   -2.1510   23.2080  -30.4330 O   0  0  0  0  0  0  0  0  0  0  0  0
   -3.0570   21.7090  -31.9010 N   0  0  0  0  0  0  0  0  0  0  0  0
   -1.7590   21.1260  -32.1350 C   0  0  0  0  0  0  0  0  0  0  0  0
   -1.1320   20.3720  -31.1310 C   0  0  0  0  0  0  0  0  0  0  0  0
   -1.6343   20.2227  -30.1638 H   0  0  0  0  0  0  0  0  0  0  0  0
    0.1280   19.8100  -31.3550 C   0  0  0  0  0  0  0  0  0  0  0  0
    0.6147   19.2226  -30.5625 H   0  0  0  0  0  0  0  0  0  0  0  0
    0.7770   19.9930  -32.5920 C   0  0  0  0  0  0  0  0  0  0  0  0
    2.0420   19.4500  -32.8650 O   0  0  0  0  0  0  0  0  0  0  0  0
    2.6980   18.4890  -32.0450 C   0  0  0  0  0  0  0  0  0  0  0  0
    2.5302   18.7349  -30.9861 H   0  0  0  0  0  0  0  0  0  0  0  0
    2.2936   17.4884  -32.2576 H   0  0  0  0  0  0  0  0  0  0  0  0
    3.7772   18.5011  -32.2576 H   0  0  0  0  0  0  0  0  0  0  0  0
    0.1450   20.7440  -33.5900 C   0  0  0  0  0  0  0  0  0  0  0  0
    0.6439   20.8922  -34.5591 H   0  0  0  0  0  0  0  0  0  0  0  0
   -1.1140   21.3070  -33.3660 C   0  0  0  0  0  0  0  0  0  0  0  0
   -1.6006   21.8943  -34.1586 H   0  0  0  0  0  0  0  0  0  0  0  0
   -6.4030   19.1870  -33.1080 C   0  0  0  0  0  0  0  0  0  0  0  0
   -6.5380   18.2540  -32.0620 C   0  0  0  0  0  0  0  0  0  0  0  0
   -5.6955   17.5965  -31.8015 H   0  0  0  0  0  0  0  0  0  0  0  0
   -7.7390   18.1610  -31.3540 C   0  0  0  0  0  0  0  0  0  0  0  0
   -7.8458   17.4181  -30.5498 H   0  0  0  0  0  0  0  0  0  0  0  0
   -8.8040   19.0090  -31.6650 C   0  0  0  0  0  0  0  0  0  0  0  0
   -9.7509   18.9285  -31.1110 H   0  0  0  0  0  0  0  0  0  0  0  0
   -8.6670   19.9600  -32.6800 C   0  0  0  0  0  0  0  0  0  0  0  0
   -9.5033   20.6338  -32.9180 H   0  0  0  0  0  0  0  0  0  0  0  0
   -7.4670   20.0560  -33.3940 C   0  0  0  0  0  0  0  0  0  0  0  0
   -7.3576   20.8154  -34.1822 H   0  0  0  0  0  0  0  0  0  0  0  0
  1  2  1  0
  2  3  2  0
  3  4  1  0
  3  5  1  0
  5  6  2  0
  6  7  1  0
  7  8  2  0
  8  9  1  0
  8 10  1  0
 10 11  1  0
 10 12  2  0
 12 13  1  0
 12 14  1  0
 14 15  1  0
 14 16  2  0
 16 17  1  0
 17 18  2  0
 17 19  1  0
 19 20  1  0
 20 21  2  0
 21 22  1  0
 21 23  1  0
 23 24  1  0
 23 25  2  0
 25 26  1  0
 26 27  1  0
 27 28  1  0
 27 29  1  0
 27 30  1  0
 25 31  1  0
 31 32  1  0
 31 33  2  0
 33 34  1  0
  2 35  1  0
 35 36  2  0
 36 37  1  0
 36 38  1  0
 38 39  1  0
 38 40  2  0
 40 41  1  0
 40 42  1  0
 42 43  1  0
 42 44  2  0
 44 45  1  0
 19  5  1  0
 33 20  1  0
 44 35  1  0
 16  7  1  0
M  END
>  <UniqueID>  (24) 
22

>  <SMILES>  (24) 
COc1ccc(-n2c(/C=C\c3ccccc3)nc3ccccc3c2=O)cc1

>  <Energy>  (24) 
71.46187981684383

>  <Genealogy>  (24) 
COc1ccc(-n2c(/C=C\c3ccccc3)nc3ccccc3c2=O)cc1 (cis-trans isomerization)
COc1ccc(-n2c(/C=C\c3ccccc3)nc3ccccc3c2=O)cc1 (3D coordinates assigned)
COc1ccc(-n2c(/C=C\c3ccccc3)nc3ccccc3c2=O)cc1 (optimized conformer: 71.46187981684383 kcal/mol)

>  <smiles>  (24) 
COc1ccc(-n2c(C=Cc3ccccc3)nc3ccccc3c2=O)cc1

>  <score_type>  (24) 
oracle

>  <origin>  (24) 
adg

>  <m_score__min__energy>  (24) 
-8.3000000000000007

>  <m_primary>  (24) 
energy

$$$$
24:0
     RDKit          3D

 48 51  0  0  0  0  0  0  0  0999 V2000
   -9.7860   20.9500  -31.9950 C   0  0  0  0  0  0  0  0  0  0  0  0
   -8.3350   20.6410  -32.1750 C   0  0  0  0  0  0  0  0  0  0  0  0
   -7.9320   19.4050  -32.6790 C   0  0  0  0  0  0  0  0  0  0  0  0
   -6.5640   19.1580  -32.8500 C   0  0  0  0  0  0  0  0  0  0  0  0
   -6.1010   17.8620  -33.4070 C   0  0  0  0  0  0  0  0  0  0  0  0
   -6.9110   16.7140  -33.3290 C   0  0  0  0  0  0  0  0  0  0  0  0
   -6.4670   15.4960  -33.8550 C   0  0  0  0  0  0  0  0  0  0  0  0
   -5.2150   15.4130  -34.4660 C   0  0  0  0  0  0  0  0  0  0  0  0
   -4.4020   16.5460  -34.5510 C   0  0  0  0  0  0  0  0  0  0  0  0
   -4.8390   17.7650  -34.0210 C   0  0  0  0  0  0  0  0  0  0  0  0
   -5.6620   20.1330  -32.5230 N   0  0  0  0  0  0  0  0  0  0  0  0
   -6.0690   21.3440  -32.0330 C   0  0  0  0  0  0  0  0  0  0  0  0
   -5.1100   22.3720  -31.6760 N   0  0  0  0  0  0  0  0  0  0  0  0
   -5.4620   23.8010  -31.7860 C   0  0  0  0  0  0  0  0  0  0  0  0
   -5.0920   24.5340  -30.4900 C   0  0  0  0  0  0  0  0  0  0  0  0
   -3.7640   24.1320  -30.0020 N   0  0  0  0  0  0  0  0  0  0  0  0
   -3.3400   24.5210  -28.6810 C   0  0  0  0  0  0  0  0  0  0  0  0
   -4.2550   24.5300  -27.6120 C   0  0  0  0  0  0  0  0  0  0  0  0
   -3.8460   24.9250  -26.3350 C   0  0  0  0  0  0  0  0  0  0  0  0
   -2.5260   25.3200  -26.1130 C   0  0  0  0  0  0  0  0  0  0  0  0
   -1.6100   25.3210  -27.1690 C   0  0  0  0  0  0  0  0  0  0  0  0
   -2.0150   24.9280  -28.4480 C   0  0  0  0  0  0  0  0  0  0  0  0
   -2.9370   23.2460  -30.8300 C   0  0  0  0  0  0  0  0  0  0  0  0
   -3.7520   22.0110  -31.2270 C   0  0  0  0  0  0  0  0  0  0  0  0
   -7.4010   21.5760  -31.8700 N   0  0  0  0  0  0  0  0  0  0  0  0
  -10.0198   20.9998  -30.9213 H   0  0  0  0  0  0  0  0  0  0  0  0
  -10.0160   21.9173  -32.4656 H   0  0  0  0  0  0  0  0  0  0  0  0
  -10.3902   20.1604  -32.4656 H   0  0  0  0  0  0  0  0  0  0  0  0
   -8.6758   18.6370  -32.9379 H   0  0  0  0  0  0  0  0  0  0  0  0
   -7.9000   16.7746  -32.8512 H   0  0  0  0  0  0  0  0  0  0  0  0
   -7.1054   14.6028  -33.7869 H   0  0  0  0  0  0  0  0  0  0  0  0
   -4.8681   14.4551  -34.8808 H   0  0  0  0  0  0  0  0  0  0  0  0
   -3.4166   16.4796  -35.0354 H   0  0  0  0  0  0  0  0  0  0  0  0
   -4.1922   18.6524  -34.0848 H   0  0  0  0  0  0  0  0  0  0  0  0
   -4.6460   19.9270  -32.6400 H   0  0  0  0  0  0  0  0  0  0  0  0
   -4.9117   24.2480  -32.6271 H   0  0  0  0  0  0  0  0  0  0  0  0
   -6.5447   23.8940  -31.9569 H   0  0  0  0  0  0  0  0  0  0  0  0
   -5.0896   25.6174  -30.6806 H   0  0  0  0  0  0  0  0  0  0  0  0
   -5.8349   24.2724  -29.7221 H   0  0  0  0  0  0  0  0  0  0  0  0
   -5.2979   24.2245  -27.7822 H   0  0  0  0  0  0  0  0  0  0  0  0
   -4.5660   24.9245  -25.5034 H   0  0  0  0  0  0  0  0  0  0  0  0
   -2.2064   25.6305  -25.1073 H   0  0  0  0  0  0  0  0  0  0  0  0
   -0.5694   25.6314  -26.9934 H   0  0  0  0  0  0  0  0  0  0  0  0
   -1.2922   24.9373  -29.2772 H   0  0  0  0  0  0  0  0  0  0  0  0
   -2.6188   23.7823  -31.7362 H   0  0  0  0  0  0  0  0  0  0  0  0
   -2.0504   22.9325  -30.2594 H   0  0  0  0  0  0  0  0  0  0  0  0
   -3.2332   21.4899  -32.0452 H   0  0  0  0  0  0  0  0  0  0  0  0
   -3.8451   21.3639  -30.3424 H   0  0  0  0  0  0  0  0  0  0  0  0
  1  2  1  0
  2  3  2  0
  3  4  1  0
  4  5  1  0
  5  6  2  0
  6  7  1  0
  7  8  2  0
  8  9  1  0
  9 10  2  0
  4 11  2  0
 11 12  1  0
 12 13  1  0
 13 14  1  0
 14 15  1  0
 15 16  1  0
 16 17  1  0
 17 18  2  0
 18 19  1  0
 19 20  2  0
 20 21  1  0
 21 22  2  0
 16 23  1  0
 23 24  1  0
 12 25  2  0
 25  2  1  0
 10  5  1  0
 24 13  1  0
 22 17  1  0
  1 26  1  0
  1 27  1  0
  1 28  1  0
  3 29  1  0
  6 30  1  0
  7 31  1  0
  8 32  1  0
  9 33  1  0
 10 34  1  0
 11 35  1  0
 14 36  1  0
 14 37  1  0
 15 38  1  0
 15 39  1  0
 18 40  1  0
 19 41  1  0
 20 42  1  0
 21 43  1  0
 22 44  1  0
 23 45  1  0
 23 46  1  0
 24 47  1  0
 24 48  1  0
M  CHG  1  11   1
M  END
>  <UniqueID>  (25) 
23

>  <SMILES>  (25) 
Cc1cc(-c2ccccc2)[nH+]c(N2CCN(c3ccccc3)CC2)n1

>  <Energy>  (25) 
62.40391055859061

>  <Genealogy>  (25) 
Cc1cc(-c2ccccc2)[nH+]c(N2CCN(c3ccccc3)CC2)n1 (protonated)
Cc1cc(-c2ccccc2)[nH+]c(N2CCN(c3ccccc3)CC2)n1 (3D coordinates assigned)
Cc1cc(-c2ccccc2)[nH+]c(N2CCN(c3ccccc3)CC2)n1 (nonaromatic ring conformer: 62.40391055859061 kcal/mol)

>  <smiles>  (25) 
Cc1cc(-c2ccccc2)nc(N2CCN(c3ccccc3)CC2)n1

>  <score_type>  (25) 
oracle

>  <origin>  (25) 
adg

>  <m_score__min__energy>  (25) 
-7.7599999999999998

>  <m_primary>  (25) 
energy

$$$$
25:0
     RDKit          3D

 64 67  0  0  0  0  0  0  0  0999 V2000
   -9.5290   21.6120  -30.6580 C   0  0  0  0  0  0  0  0  0  0  0  0
  -10.0000   21.1570  -32.0350 C   0  0  0  0  0  0  0  0  0  0  0  0
   -9.0230   20.2590  -32.6550 N   0  0  0  0  0  0  0  0  0  0  0  0
   -7.6010   20.4870  -32.6080 C   0  0  0  0  0  0  0  0  0  0  0  0
   -6.7350   19.3950  -32.4470 C   0  0  0  0  0  0  0  0  0  0  0  0
   -5.3510   19.5860  -32.3910 C   0  0  0  0  0  0  0  0  0  0  0  0
   -4.8080   20.8750  -32.4820 C   0  0  0  0  0  0  0  0  0  0  0  0
   -3.3830   21.0570  -32.4170 N   0  0  0  0  0  0  0  0  0  0  0  0
   -2.5740   20.7400  -33.4170 N   0  0  0  0  0  0  0  0  0  0  0  0
   -1.3110   21.0340  -33.0440 C   0  0  0  0  0  0  0  0  0  0  0  0
   -0.1380   20.8020  -33.9090 C   0  0  0  0  0  0  0  0  0  0  0  0
    0.8300   20.1170  -33.4850 O   0  0  0  0  0  0  0  0  0  0  0  0
   -0.0960   21.3560  -35.2330 N   0  0  0  0  0  0  0  0  0  0  0  0
    0.9440   21.0000  -36.2020 C   0  0  0  0  0  0  0  0  0  0  0  0
    2.3140   21.5360  -35.7210 C   0  0  0  0  0  0  0  0  0  0  0  0
    3.5100   20.6940  -36.2120 C   0  0  0  0  0  0  0  0  0  0  0  0
    3.2190   20.0290  -37.5620 C   0  0  0  0  0  0  0  0  0  0  0  0
    2.0090   19.0750  -37.4810 C   0  0  0  0  0  0  0  0  0  0  0  0
    0.9790   19.4780  -36.4060 C   0  0  0  0  0  0  0  0  0  0  0  0
   -1.3200   21.5480  -31.7530 C   0  0  0  0  0  0  0  0  0  0  0  0
   -0.1370   21.9380  -30.9160 C   0  0  0  0  0  0  0  0  0  0  0  0
   -2.6580   21.5550  -31.3890 C   0  0  0  0  0  0  0  0  0  0  0  0
   -3.2000   21.9320  -30.0650 C   0  0  0  0  0  0  0  0  0  0  0  0
   -2.9700   21.0950  -28.9620 C   0  0  0  0  0  0  0  0  0  0  0  0
   -3.4850   21.4240  -27.7080 C   0  0  0  0  0  0  0  0  0  0  0  0
   -4.2350   22.5900  -27.5440 C   0  0  0  0  0  0  0  0  0  0  0  0
   -4.4760   23.4280  -28.6350 C   0  0  0  0  0  0  0  0  0  0  0  0
   -3.9670   23.1040  -29.9090 C   0  0  0  0  0  0  0  0  0  0  0  0
   -4.2130   23.9100  -31.0330 O   0  0  0  0  0  0  0  0  0  0  0  0
   -5.3520   24.7490  -31.1930 C   0  0  0  0  0  0  0  0  0  0  0  0
   -5.6700   21.9670  -32.6680 C   0  0  0  0  0  0  0  0  0  0  0  0
   -7.0530   21.7780  -32.7250 C   0  0  0  0  0  0  0  0  0  0  0  0
  -10.0893   21.0707  -29.8815 H   0  0  0  0  0  0  0  0  0  0  0  0
   -8.4549   21.4008  -30.5496 H   0  0  0  0  0  0  0  0  0  0  0  0
   -9.7030   22.6927  -30.5496 H   0  0  0  0  0  0  0  0  0  0  0  0
  -10.9588   20.6280  -31.9303 H   0  0  0  0  0  0  0  0  0  0  0  0
  -10.1163   22.0436  -32.6757 H   0  0  0  0  0  0  0  0  0  0  0  0
   -9.3680   19.4060  -33.1520 H   0  0  0  0  0  0  0  0  0  0  0  0
   -7.1487   18.3791  -32.3640 H   0  0  0  0  0  0  0  0  0  0  0  0
   -4.6840   18.7190  -32.2748 H   0  0  0  0  0  0  0  0  0  0  0  0
   -0.9110   21.9200  -35.5670 H   0  0  0  0  0  0  0  0  0  0  0  0
    0.7148   21.4644  -37.1724 H   0  0  0  0  0  0  0  0  0  0  0  0
    2.4358   22.5641  -36.0927 H   0  0  0  0  0  0  0  0  0  0  0  0
    2.3131   21.4876  -34.6221 H   0  0  0  0  0  0  0  0  0  0  0  0
    4.3871   21.3491  -36.3190 H   0  0  0  0  0  0  0  0  0  0  0  0
    3.6978   19.9014  -35.4727 H   0  0  0  0  0  0  0  0  0  0  0  0
    3.0068   20.8110  -38.3059 H   0  0  0  0  0  0  0  0  0  0  0  0
    4.1014   19.4388  -37.8501 H   0  0  0  0  0  0  0  0  0  0  0  0
    1.5061   19.0666  -38.4593 H   0  0  0  0  0  0  0  0  0  0  0  0
    2.3964   18.0838  -37.2026 H   0  0  0  0  0  0  0  0  0  0  0  0
   -0.0182   19.1366  -36.7207 H   0  0  0  0  0  0  0  0  0  0  0  0
    1.2715   19.0091  -35.4549 H   0  0  0  0  0  0  0  0  0  0  0  0
   -0.3973   21.8522  -29.8507 H   0  0  0  0  0  0  0  0  0  0  0  0
    0.7079   21.2708  -31.1419 H   0  0  0  0  0  0  0  0  0  0  0  0
    0.1455   22.9768  -31.1419 H   0  0  0  0  0  0  0  0  0  0  0  0
   -2.3805   20.1747  -29.0871 H   0  0  0  0  0  0  0  0  0  0  0  0
   -3.3000   20.7641  -26.8476 H   0  0  0  0  0  0  0  0  0  0  0  0
   -4.6370   22.8493  -26.5534 H   0  0  0  0  0  0  0  0  0  0  0  0
   -5.0664   24.3462  -28.4993 H   0  0  0  0  0  0  0  0  0  0  0  0
   -5.7392   25.0342  -30.2037 H   0  0  0  0  0  0  0  0  0  0  0  0
   -5.0658   25.6537  -31.7495 H   0  0  0  0  0  0  0  0  0  0  0  0
   -6.1311   24.2074  -31.7495 H   0  0  0  0  0  0  0  0  0  0  0  0
   -5.2532   22.9799  -32.7697 H   0  0  0  0  0  0  0  0  0  0  0  0
   -7.7178   22.6436  -32.8622 H   0  0  0  0  0  0  0  0  0  0  0  0
  1  2  1  0
  2  3  1  0
  3  4  1  0
  4  5  2  0
  5  6  1  0
  6  7  2  0
  7  8  1  0
  8  9  1  0
  9 10  2  0
 10 11  1  0
 11 12  2  0
 11 13  1  0
 13 14  1  0
 14 15  1  0
 15 16  1  0
 16 17  1  0
 17 18  1  0
 18 19  1  0
 10 20  1  0
 20 21  1  0
 20 22  2  0
 22 23  1  0
 23 24  2  0
 24 25  1  0
 25 26  2  0
 26 27  1  0
 27 28  2  0
 28 29  1  0
 29 30  1  0
  7 31  1  0
 31 32  2  0
 32  4  1  0
 22  8  1  0
 28 23  1  0
 19 14  1  0
  1 33  1  0
  1 34  1  0
  1 35  1  0
  2 36  1  0
  2 37  1  0
  3 38  1  0
  5 39  1  0
  6 40  1  0
 13 41  1  0
 14 42  1  0
 15 43  1  0
 15 44  1  0
 16 45  1  0
 16 46  1  0
 17 47  1  0
 17 48  1  0
 18 49  1  0
 18 50  1  0
 19 51  1  0
 19 52  1  0
 21 53  1  0
 21 54  1  0
 21 55  1  0
 24 56  1  0
 25 57  1  0
 26 58  1  0
 27 59  1  0
 30 60  1  0
 30 61  1  0
 30 62  1  0
 31 63  1  0
 32 64  1  0
M  END
>  <UniqueID>  (26) 
24

>  <SMILES>  (26) 
CCNc1ccc(-n2nc(C(=O)NC3CCCCC3)c(C)c2-c2ccccc2OC)cc1

>  <Energy>  (26) 
102.8873866289582

>  <Genealogy>  (26) 
CCNc1ccc(-n2nc(C(=O)NC3CCCCC3)c(C)c2-c2ccccc2OC)cc1 (3D coordinates assigned)
CCNc1ccc(-n2nc(C(=O)NC3CCCCC3)c(C)c2-c2ccccc2OC)cc1 (nonaromatic ring conformer: 102.8873866289582 kcal/mol)

>  <smiles>  (26) 
CCNc1ccc(-n2nc(C(=O)NC3CCCCC3)c(C)c2-c2ccccc2OC)cc1

>  <score_type>  (26) 
oracle

>  <origin>  (26) 
adg

>  <m_score__min__energy>  (26) 
-9.75

>  <m_primary>  (26) 
energy

$$$$
26:0
     RDKit          3D

 43 44  0  0  0  0  0  0  0  0999 V2000
   -3.5320   19.3170  -33.7960 C   0  0  0  0  0  0  0  0  0  0  0  0
   -5.0500   19.4750  -33.7820 C   0  0  0  0  0  0  0  0  0  0  0  0
   -5.4640   20.6500  -32.9250 C   0  0  0  0  0  0  0  0  0  0  0  0
   -4.4630   21.4640  -32.3690 C   0  0  0  0  0  0  0  0  0  0  0  0
   -4.8020   22.5780  -31.5940 C   0  0  0  0  0  0  0  0  0  0  0  0
   -3.8150   23.3970  -31.0250 C   0  0  0  0  0  0  0  0  0  0  0  0
   -4.1740   24.5090  -30.2520 C   0  0  0  0  0  0  0  0  0  0  0  0
   -3.1520   25.2970  -29.7040 O   0  0  0  0  0  0  0  0  0  0  0  0
   -2.3200   24.8970  -28.6200 C   0  0  0  0  0  0  0  0  0  0  0  0
   -5.5390   24.8000  -30.0530 C   0  0  0  0  0  0  0  0  0  0  0  0
   -6.5250   23.9850  -30.6210 C   0  0  0  0  0  0  0  0  0  0  0  0
   -6.1610   22.8760  -31.3890 C   0  0  0  0  0  0  0  0  0  0  0  0
   -7.1170   22.0890  -31.9450 N   0  0  0  0  0  0  0  0  0  0  0  0
   -6.8230   20.9970  -32.7060 C   0  0  0  0  0  0  0  0  0  0  0  0
   -7.9030   20.2300  -33.2740 N   0  0  0  0  0  0  0  0  0  0  0  0
   -8.9170   19.5750  -32.4470 C   0  0  0  0  0  0  0  0  0  0  0  0
   -8.2690   18.5270  -31.5340 C   0  0  0  0  0  0  0  0  0  0  0  0
   -6.9990   18.0410  -32.1160 N   0  0  0  0  0  0  0  0  0  0  0  0
   -6.1550   17.4410  -31.0700 C   0  0  0  0  0  0  0  0  0  0  0  0
   -7.2480   17.0450  -33.1730 C   0  0  0  0  0  0  0  0  0  0  0  0
   -3.1579   19.2781  -32.7623 H   0  0  0  0  0  0  0  0  0  0  0  0
   -3.2650   18.3862  -34.3179 H   0  0  0  0  0  0  0  0  0  0  0  0
   -3.0791   20.1729  -34.3179 H   0  0  0  0  0  0  0  0  0  0  0  0
   -5.4044   19.6373  -34.8106 H   0  0  0  0  0  0  0  0  0  0  0  0
   -5.4939   18.5606  -33.3616 H   0  0  0  0  0  0  0  0  0  0  0  0
   -3.4041   21.2233  -32.5445 H   0  0  0  0  0  0  0  0  0  0  0  0
   -2.7521   23.1644  -31.1869 H   0  0  0  0  0  0  0  0  0  0  0  0
   -2.8173   25.1361  -27.6684 H   0  0  0  0  0  0  0  0  0  0  0  0
   -2.1391   23.8135  -28.6771 H   0  0  0  0  0  0  0  0  0  0  0  0
   -1.3608   25.4324  -28.6771 H   0  0  0  0  0  0  0  0  0  0  0  0
   -5.8305   25.6716  -29.4485 H   0  0  0  0  0  0  0  0  0  0  0  0
   -7.5883   24.2180  -30.4625 H   0  0  0  0  0  0  0  0  0  0  0  0
   -7.9750   20.0880  -34.3040 H   0  0  0  0  0  0  0  0  0  0  0  0
   -9.4234   20.3307  -31.8285 H   0  0  0  0  0  0  0  0  0  0  0  0
   -9.6436   19.0746  -33.1040 H   0  0  0  0  0  0  0  0  0  0  0  0
   -8.0666   18.9792  -30.5519 H   0  0  0  0  0  0  0  0  0  0  0  0
   -8.9579   17.6761  -31.4273 H   0  0  0  0  0  0  0  0  0  0  0  0
   -6.5454   17.7186  -30.0798 H   0  0  0  0  0  0  0  0  0  0  0  0
   -6.1648   16.3460  -31.1742 H   0  0  0  0  0  0  0  0  0  0  0  0
   -5.1240   17.8100  -31.1742 H   0  0  0  0  0  0  0  0  0  0  0  0
   -7.4904   16.0754  -32.7134 H   0  0  0  0  0  0  0  0  0  0  0  0
   -8.0911   17.3759  -33.7973 H   0  0  0  0  0  0  0  0  0  0  0  0
   -6.3484   16.9402  -33.7973 H   0  0  0  0  0  0  0  0  0  0  0  0
  1  2  1  0
  2  3  1  0
  3  4  2  0
  4  5  1  0
  5  6  2  0
  6  7  1  0
  7  8  1  0
  8  9  1  0
  7 10  2  0
 10 11  1  0
 11 12  2  0
 12 13  1  0
 13 14  2  0
 14 15  1  0
 15 16  1  0
 16 17  1  0
 17 18  1  0
 18 19  1  0
 18 20  1  0
 14  3  1  0
 12  5  1  0
  1 21  1  0
  1 22  1  0
  1 23  1  0
  2 24  1  0
  2 25  1  0
  4 26  1  0
  6 27  1  0
  9 28  1  0
  9 29  1  0
  9 30  1  0
 10 31  1  0
 11 32  1  0
 15 33  1  0
 16 34  1  0
 16 35  1  0
 17 36  1  0
 17 37  1  0
 19 38  1  0
 19 39  1  0
 19 40  1  0
 20 41  1  0
 20 42  1  0
 20 43  1  0
M  END
>  <UniqueID>  (27) 
25

>  <SMILES>  (27) 
CCc1cc2cc(OC)ccc2nc1NCCN(C)C

>  <Energy>  (27) 
40.67406205710646

>  <Genealogy>  (27) 
CCc1cc2cc(OC)ccc2nc1NCCN(C)C (3D coordinates assigned)
CCc1cc2cc(OC)ccc2nc1NCCN(C)C (optimized conformer: 40.67406205710646 kcal/mol)

>  <smiles>  (27) 
CCc1cc2cc(OC)ccc2nc1NCCN(C)C

>  <score_type>  (27) 
oracle

>  <origin>  (27) 
adg

>  <m_score__min__energy>  (27) 
-7.5599999999999996

>  <m_primary>  (27) 
energy

$$$$
27:0
     RDKit          3D

 34 36  0  0  0  0  0  0  0  0999 V2000
   -5.0450   20.6240  -30.8570 O   0  0  0  0  0  0  0  0  0  0  0  0
   -4.8580   21.5480  -31.6940 C   0  0  0  0  0  0  0  0  0  0  0  0
   -4.5770   21.2240  -33.0660 N   0  0  0  0  0  0  0  0  0  0  0  0
   -4.2170   19.9000  -33.4910 C   0  0  0  0  0  0  0  0  0  0  0  0
   -2.8970   19.6620  -33.9000 C   0  0  0  0  0  0  0  0  0  0  0  0
   -2.5150   18.4020  -34.3650 C   0  0  0  0  0  0  0  0  0  0  0  0
   -3.4430   17.3640  -34.4150 C   0  0  0  0  0  0  0  0  0  0  0  0
   -4.7550   17.5760  -33.9840 C   0  0  0  0  0  0  0  0  0  0  0  0
   -5.1550   18.8350  -33.5020 C   0  0  0  0  0  0  0  0  0  0  0  0
   -6.5300   18.9960  -32.9680 C   0  0  0  0  0  0  0  0  0  0  0  0
   -7.3140   20.1060  -33.3340 C   0  0  0  0  0  0  0  0  0  0  0  0
   -8.6130   20.2450  -32.8380 C   0  0  0  0  0  0  0  0  0  0  0  0
   -9.1380   19.2860  -31.9680 C   0  0  0  0  0  0  0  0  0  0  0  0
   -8.3620   18.1890  -31.5870 C   0  0  0  0  0  0  0  0  0  0  0  0
   -7.0610   18.0440  -32.0810 C   0  0  0  0  0  0  0  0  0  0  0  0
   -4.9300   22.9590  -31.2620 C   0  0  0  0  0  0  0  0  0  0  0  0
   -3.7840   23.6550  -30.8450 C   0  0  0  0  0  0  0  0  0  0  0  0
   -3.8890   24.9560  -30.4680 N   0  0  0  0  0  0  0  0  0  0  0  0
   -5.0840   25.6010  -30.4880 C   0  0  0  0  0  0  0  0  0  0  0  0
   -6.2260   24.9170  -30.9050 C   0  0  0  0  0  0  0  0  0  0  0  0
   -6.1230   23.6150  -31.2820 N   0  0  0  0  0  0  0  0  0  0  0  0
   -4.7840   21.9350  -33.8030 H   0  0  0  0  0  0  0  0  0  0  0  0
   -2.1567   20.4743  -33.8542 H   0  0  0  0  0  0  0  0  0  0  0  0
   -1.4793   18.2286  -34.6925 H   0  0  0  0  0  0  0  0  0  0  0  0
   -3.1423   16.3762  -34.7943 H   0  0  0  0  0  0  0  0  0  0  0  0
   -5.4814   16.7508  -34.0220 H   0  0  0  0  0  0  0  0  0  0  0  0
   -6.9026   20.8672  -34.0132 H   0  0  0  0  0  0  0  0  0  0  0  0
   -9.2235   21.1112  -33.1331 H   0  0  0  0  0  0  0  0  0  0  0  0
  -10.1627   19.3950  -31.5831 H   0  0  0  0  0  0  0  0  0  0  0  0
   -8.7744   17.4377  -30.8974 H   0  0  0  0  0  0  0  0  0  0  0  0
   -6.4514   17.1814  -31.7739 H   0  0  0  0  0  0  0  0  0  0  0  0
   -2.8071   23.1499  -30.8237 H   0  0  0  0  0  0  0  0  0  0  0  0
   -5.1508   26.6543  -30.1779 H   0  0  0  0  0  0  0  0  0  0  0  0
   -7.2007   25.4264  -30.9285 H   0  0  0  0  0  0  0  0  0  0  0  0
  1  2  2  0
  2  3  1  0
  3  4  1  0
  4  5  2  0
  5  6  1  0
  6  7  2  0
  7  8  1  0
  8  9  2  0
  9 10  1  0
 10 11  2  0
 11 12  1  0
 12 13  2  0
 13 14  1  0
 14 15  2  0
  2 16  1  0
 16 17  2  0
 17 18  1  0
 18 19  2  0
 19 20  1  0
 20 21  2  0
  9  4  1  0
 15 10  1  0
 21 16  1  0
  3 22  1  0
  5 23  1  0
  6 24  1  0
  7 25  1  0
  8 26  1  0
 11 27  1  0
 12 28  1  0
 13 29  1  0
 14 30  1  0
 15 31  1  0
 17 32  1  0
 19 33  1  0
 20 34  1  0
M  END
>  <UniqueID>  (28) 
26

>  <SMILES>  (28) 
O=C(Nc1ccccc1-c1ccccc1)c1cnccn1

>  <Energy>  (28) 
49.953665620576885

>  <Genealogy>  (28) 
O=C(Nc1ccccc1-c1ccccc1)c1cnccn1 (3D coordinates assigned)
O=C(Nc1ccccc1-c1ccccc1)c1cnccn1 (optimized conformer: 49.953665620576885 kcal/mol)

>  <smiles>  (28) 
O=C(Nc1ccccc1-c1ccccc1)c1cnccn1

>  <score_type>  (28) 
oracle

>  <origin>  (28) 
adg

>  <m_score__min__energy>  (28) 
-8.0800000000000001

>  <m_primary>  (28) 
energy

$$$$
28:0
     RDKit          3D

 46 49  0  0  0  0  0  0  0  0999 V2000
   -6.3630   17.4560  -33.7310 C   0  0  0  0  0  0  0  0  0  0  0  0
   -7.6070   17.8710  -33.1760 O   0  0  0  0  0  0  0  0  0  0  0  0
   -7.8550   19.1490  -32.6530 C   0  0  0  0  0  0  0  0  0  0  0  0
   -9.1840   19.5420  -32.4620 C   0  0  0  0  0  0  0  0  0  0  0  0
   -9.4830   20.8040  -31.9470 C   0  0  0  0  0  0  0  0  0  0  0  0
   -8.4540   21.6880  -31.6150 C   0  0  0  0  0  0  0  0  0  0  0  0
   -7.1130   21.3140  -31.7990 C   0  0  0  0  0  0  0  0  0  0  0  0
   -6.0530   22.2190  -31.4420 N   0  0  0  0  0  0  0  0  0  0  0  0
   -4.7150   21.6870  -31.1440 C   0  0  0  0  0  0  0  0  0  0  0  0
   -3.7540   22.7860  -30.6700 C   0  0  0  0  0  0  0  0  0  0  0  0
   -4.4100   23.6720  -29.6930 N   0  0  0  0  0  0  0  0  0  0  0  0
   -3.6380   24.2320  -28.6030 C   0  0  0  0  0  0  0  0  0  0  0  0
   -2.2600   24.4620  -28.7170 C   0  0  0  0  0  0  0  0  0  0  0  0
   -1.5630   24.9990  -27.6390 C   0  0  0  0  0  0  0  0  0  0  0  0
   -2.2450   25.3030  -26.4550 C   0  0  0  0  0  0  0  0  0  0  0  0
   -1.5480   25.8600  -25.3220 N   0  0  0  0  0  0  0  0  0  0  0  0
   -0.8620   25.1890  -24.3800 C   0  0  0  0  0  0  0  0  0  0  0  0
   -0.3540   26.1040  -23.4870 C   0  0  0  0  0  0  0  0  0  0  0  0
   -0.7170   27.3470  -23.8580 N   0  0  0  0  0  0  0  0  0  0  0  0
   -1.4430   27.1620  -24.9810 C   0  0  0  0  0  0  0  0  0  0  0  0
   -3.5880   25.0630  -26.3930 N   0  0  0  0  0  0  0  0  0  0  0  0
   -4.2520   24.5490  -27.4300 N   0  0  0  0  0  0  0  0  0  0  0  0
   -5.7930   24.1240  -29.9290 C   0  0  0  0  0  0  0  0  0  0  0  0
   -6.3160   23.6530  -31.2880 C   0  0  0  0  0  0  0  0  0  0  0  0
   -6.8180   20.0410  -32.3170 C   0  0  0  0  0  0  0  0  0  0  0  0
   -5.6593   17.2212  -32.9188 H   0  0  0  0  0  0  0  0  0  0  0  0
   -6.5186   16.5611  -34.3514 H   0  0  0  0  0  0  0  0  0  0  0  0
   -5.9502   18.2651  -34.3514 H   0  0  0  0  0  0  0  0  0  0  0  0
   -9.9998   18.8507  -32.7199 H   0  0  0  0  0  0  0  0  0  0  0  0
  -10.5316   21.1032  -31.8022 H   0  0  0  0  0  0  0  0  0  0  0  0
   -8.6949   22.6811  -31.2078 H   0  0  0  0  0  0  0  0  0  0  0  0
   -4.8026   20.9264  -30.3542 H   0  0  0  0  0  0  0  0  0  0  0  0
   -4.3070   21.2534  -32.0690 H   0  0  0  0  0  0  0  0  0  0  0  0
   -2.8762   22.3187  -30.1999 H   0  0  0  0  0  0  0  0  0  0  0  0
   -3.4497   23.3863  -31.5401 H   0  0  0  0  0  0  0  0  0  0  0  0
   -1.7334   24.2197  -29.6519 H   0  0  0  0  0  0  0  0  0  0  0  0
   -0.4814   25.1837  -27.7169 H   0  0  0  0  0  0  0  0  0  0  0  0
   -0.7299   24.0980  -24.3318 H   0  0  0  0  0  0  0  0  0  0  0  0
    0.2554   25.8581  -22.6049 H   0  0  0  0  0  0  0  0  0  0  0  0
   -1.8989   27.9821  -25.5551 H   0  0  0  0  0  0  0  0  0  0  0  0
   -4.1250   25.2980  -25.5310 H   0  0  0  0  0  0  0  0  0  0  0  0
   -6.4408   23.7191  -29.1375 H   0  0  0  0  0  0  0  0  0  0  0  0
   -5.8016   25.2239  -29.9197 H   0  0  0  0  0  0  0  0  0  0  0  0
   -7.3991   23.8357  -31.3475 H   0  0  0  0  0  0  0  0  0  0  0  0
   -5.8062   24.2076  -32.0896 H   0  0  0  0  0  0  0  0  0  0  0  0
   -5.7700   19.7393  -32.4610 H   0  0  0  0  0  0  0  0  0  0  0  0
  1  2  1  0
  2  3  1  0
  3  4  2  0
  4  5  1  0
  5  6  2  0
  6  7  1  0
  7  8  1  0
  8  9  1  0
  9 10  1  0
 10 11  1  0
 11 12  1  0
 12 13  2  0
 13 14  1  0
 14 15  2  0
 15 16  1  0
 16 17  1  0
 17 18  2  0
 18 19  1  0
 19 20  2  0
 15 21  1  0
 21 22  2  0
 11 23  1  0
 23 24  1  0
  7 25  2  0
 25  3  1  0
 24  8  1  0
 22 12  1  0
 20 16  1  0
  1 26  1  0
  1 27  1  0
  1 28  1  0
  4 29  1  0
  5 30  1  0
  6 31  1  0
  9 32  1  0
  9 33  1  0
 10 34  1  0
 10 35  1  0
 13 36  1  0
 14 37  1  0
 17 38  1  0
 18 39  1  0
 20 40  1  0
 21 41  1  0
 23 42  1  0
 23 43  1  0
 24 44  1  0
 24 45  1  0
 25 46  1  0
M  CHG  1  21   1
M  END
>  <UniqueID>  (29) 
27

>  <SMILES>  (29) 
COc1cccc(N2CCN(c3ccc(-n4ccnc4)[nH+]n3)CC2)c1

>  <Energy>  (29) 
87.92012354659654

>  <Genealogy>  (29) 
COc1cccc(N2CCN(c3ccc(-n4ccnc4)[nH+]n3)CC2)c1 (protonated)
COc1cccc(N2CCN(c3ccc(-n4ccnc4)[nH+]n3)CC2)c1 (3D coordinates assigned)
COc1cccc(N2CCN(c3ccc(-n4ccnc4)[nH+]n3)CC2)c1 (nonaromatic ring conformer: 87.92012354659654 kcal/mol)

>  <smiles>  (29) 
COc1cccc(N2CCN(c3ccc(-n4ccnc4)nn3)CC2)c1

>  <score_type>  (29) 
oracle

>  <origin>  (29) 
adg

>  <m_score__min__energy>  (29) 
-7.2400000000000002

>  <m_primary>  (29) 
energy

$$$$
29:0
     RDKit          3D

 39 41  0  0  0  0  0  0  0  0999 V2000
   -2.8551   21.3052  -26.3188 H   0  0  0  0  0  0  0  0  0  0  0  0
   -2.7960   21.4930  -27.4010 C   0  0  0  0  0  0  0  0  0  0  0  0
   -2.5830   20.4310  -28.2820 C   0  0  0  0  0  0  0  0  0  0  0  0
   -2.4600   19.4098  -27.8921 H   0  0  0  0  0  0  0  0  0  0  0  0
   -2.5260   20.6640  -29.6580 C   0  0  0  0  0  0  0  0  0  0  0  0
   -2.3458   19.8250  -30.3462 H   0  0  0  0  0  0  0  0  0  0  0  0
   -2.6970   21.9620  -30.1710 C   0  0  0  0  0  0  0  0  0  0  0  0
   -2.6210   22.1830  -31.6640 C   0  0  0  0  0  0  0  0  0  0  0  0
   -3.0719   23.1861  -31.6448 H   0  0  0  0  0  0  0  0  0  0  0  0
   -1.4210   21.5500  -32.3600 C   0  0  0  0  0  0  0  0  0  0  0  0
   -0.9488   22.0592  -33.2131 H   0  0  0  0  0  0  0  0  0  0  0  0
   -0.4365   21.1845  -32.0326 H   0  0  0  0  0  0  0  0  0  0  0  0
   -2.7960   20.9310  -32.5140 C   0  0  0  0  0  0  0  0  0  0  0  0
   -3.3205   20.9910  -33.4790 H   0  0  0  0  0  0  0  0  0  0  0  0
   -3.2205   19.9305  -32.3445 H   0  0  0  0  0  0  0  0  0  0  0  0
   -2.8670   23.0410  -29.2700 C   0  0  0  0  0  0  0  0  0  0  0  0
   -2.9590   24.4340  -29.7410 C   0  0  0  0  0  0  0  0  0  0  0  0
   -2.1660   25.2950  -29.2790 O   0  0  0  0  0  0  0  0  0  0  0  0
   -3.9130   24.8230  -30.7350 N   0  0  0  0  0  0  0  0  0  0  0  0
   -5.0460   25.7010  -30.4660 C   0  0  0  0  0  0  0  0  0  0  0  0
   -4.7120   26.5522  -29.8545 H   0  0  0  0  0  0  0  0  0  0  0  0
   -5.4562   26.0689  -31.4180 H   0  0  0  0  0  0  0  0  0  0  0  0
   -6.1270   24.9290  -29.7140 C   0  0  0  0  0  0  0  0  0  0  0  0
   -5.6625   24.0904  -29.1746 H   0  0  0  0  0  0  0  0  0  0  0  0
   -6.6211   25.6114  -29.0068 H   0  0  0  0  0  0  0  0  0  0  0  0
   -7.1310   24.4060  -30.6420 N   0  0  0  0  0  0  0  0  0  0  0  0
   -7.1550   23.2320  -31.2110 C   0  0  0  0  0  0  0  0  0  0  0  0
   -8.3300   22.4530  -31.2880 C   0  0  0  0  0  0  0  0  0  0  0  0
   -9.2716   22.8277  -30.8603 H   0  0  0  0  0  0  0  0  0  0  0  0
   -8.2890   21.2050  -31.9100 C   0  0  0  0  0  0  0  0  0  0  0  0
   -9.2006   20.5929  -31.9757 H   0  0  0  0  0  0  0  0  0  0  0  0
   -7.0930   20.7340  -32.4480 C   0  0  0  0  0  0  0  0  0  0  0  0
   -7.0533   19.7515  -32.9410 H   0  0  0  0  0  0  0  0  0  0  0  0
   -5.9470   21.5230  -32.3540 C   0  0  0  0  0  0  0  0  0  0  0  0
   -4.9970   21.1612  -32.7742 H   0  0  0  0  0  0  0  0  0  0  0  0
   -5.9990   22.7380  -31.7450 N   0  0  0  0  0  0  0  0  0  0  0  0
   -5.1220   23.3060  -31.6910 H   0  0  0  0  0  0  0  0  0  0  0  0
   -2.9340   22.7920  -27.8910 C   0  0  0  0  0  0  0  0  0  0  0  0
   -3.0963   23.6257  -27.1920 H   0  0  0  0  0  0  0  0  0  0  0  0
  1  2  1  0
  2  3  2  0
  3  4  1  0
  3  5  1  0
  5  6  1  0
  5  7  2  0
  7  8  1  0
  8  9  1  0
  8 10  1  0
 10 11  1  0
 10 12  1  0
 10 13  1  0
 13 14  1  0
 13 15  1  0
  7 16  1  0
 16 17  1  0
 17 18  2  0
 17 19  1  0
 19 20  1  0
 20 21  1  0
 20 22  1  0
 20 23  1  0
 23 24  1  0
 23 25  1  0
 23 26  1  0
 26 27  2  0
 27 28  1  0
 28 29  1  0
 28 30  2  0
 30 31  1  0
 30 32  1  0
 32 33  1  0
 32 34  2  0
 34 35  1  0
 34 36  1  0
 36 37  1  0
 16 38  2  0
 38 39  1  0
 38  2  1  0
 13  8  1  0
 36 27  1  0
M  CHG  1  19  -1
M  END
>  <UniqueID>  (30) 
28

>  <SMILES>  (30) 
O=C([N-]CC/N=c1\cccc[nH]1)c1ccccc1C1CC1

>  <Energy>  (30) 
310.13679717142776

>  <Genealogy>  (30) 
O=C([N-]CCN=c1cccc[nH]1)c1ccccc1C1CC1 (protonated)
O=C([N-]CC/N=c1\cccc[nH]1)c1ccccc1C1CC1 (cis-trans isomerization)
O=C([N-]CC/N=c1\cccc[nH]1)c1ccccc1C1CC1 (3D coordinates assigned)
O=C([N-]CC/N=c1\cccc[nH]1)c1ccccc1C1CC1 (nonaromatic ring conformer: 310.13679717142776 kcal/mol)

>  <smiles>  (30) 
O=C(NCCN=c1cccc[nH]1)c1ccccc1C1CC1

>  <score_type>  (30) 
oracle

>  <origin>  (30) 
adg

>  <m_score__min__energy>  (30) 
-8.8599999999999994

>  <m_primary>  (30) 
energy

$$$$
30:0
     RDKit          3D

 47 50  0  0  0  0  0  0  0  0999 V2000
   -6.8570   24.7880  -30.0570 C   0  0  0  0  0  0  0  0  0  0  0  0
   -5.6630   25.6720  -30.4060 C   0  0  0  0  0  0  0  0  0  0  0  0
   -4.6090   24.9000  -30.9810 O   0  0  0  0  0  0  0  0  0  0  0  0
   -4.0440   23.7440  -30.4170 C   0  0  0  0  0  0  0  0  0  0  0  0
   -4.1900   23.5400  -29.0410 C   0  0  0  0  0  0  0  0  0  0  0  0
   -3.6100   22.4310  -28.4190 C   0  0  0  0  0  0  0  0  0  0  0  0
   -2.8750   21.4990  -29.1690 C   0  0  0  0  0  0  0  0  0  0  0  0
   -2.1800   20.4210  -28.5030 N   0  0  0  0  0  0  0  0  0  0  0  0
   -0.8600   19.9650  -28.9700 C   0  0  0  0  0  0  0  0  0  0  0  0
    0.2520   20.5530  -28.0710 C   0  0  0  0  0  0  0  0  0  0  0  0
   -0.3430   21.1950  -26.8870 N   0  0  0  0  0  0  0  0  0  0  0  0
   -0.4160   22.6320  -26.8270 C   0  0  0  0  0  0  0  0  0  0  0  0
   -0.3910   23.2730  -25.6320 N   0  0  0  0  0  0  0  0  0  0  0  0
   -0.5400   24.6160  -25.4210 C   0  0  0  0  0  0  0  0  0  0  0  0
   -0.5090   25.0590  -24.0910 C   0  0  0  0  0  0  0  0  0  0  0  0
   -0.6660   26.4080  -23.7790 C   0  0  0  0  0  0  0  0  0  0  0  0
   -0.8590   27.3420  -24.7940 C   0  0  0  0  0  0  0  0  0  0  0  0
   -0.8990   26.9330  -26.1270 C   0  0  0  0  0  0  0  0  0  0  0  0
   -0.7440   25.5740  -26.4730 C   0  0  0  0  0  0  0  0  0  0  0  0
   -0.7980   25.1940  -27.8290 C   0  0  0  0  0  0  0  0  0  0  0  0
   -0.9690   26.0370  -28.7520 O   0  0  0  0  0  0  0  0  0  0  0  0
   -0.6380   23.5630  -28.2150 S   0  0  0  0  0  0  0  0  0  0  0  0
   -1.3470   20.3960  -26.1720 C   0  0  0  0  0  0  0  0  0  0  0  0
   -2.5310   20.0860  -27.1120 C   0  0  0  0  0  0  0  0  0  0  0  0
   -2.7650   21.6800  -30.5600 C   0  0  0  0  0  0  0  0  0  0  0  0
   -3.3420   22.7920  -31.1790 C   0  0  0  0  0  0  0  0  0  0  0  0
   -6.9533   24.7167  -28.9635 H   0  0  0  0  0  0  0  0  0  0  0  0
   -7.7736   25.2269  -30.4779 H   0  0  0  0  0  0  0  0  0  0  0  0
   -6.7048   23.7832  -30.4779 H   0  0  0  0  0  0  0  0  0  0  0  0
   -5.9816   26.4397  -31.1265 H   0  0  0  0  0  0  0  0  0  0  0  0
   -5.2917   26.1418  -29.4833 H   0  0  0  0  0  0  0  0  0  0  0  0
   -4.7673   24.2599  -28.4422 H   0  0  0  0  0  0  0  0  0  0  0  0
   -3.7301   22.2874  -27.3350 H   0  0  0  0  0  0  0  0  0  0  0  0
   -0.8187   18.8665  -28.9289 H   0  0  0  0  0  0  0  0  0  0  0  0
   -0.7057   20.3061  -30.0043 H   0  0  0  0  0  0  0  0  0  0  0  0
    0.9242   19.7446  -27.7476 H   0  0  0  0  0  0  0  0  0  0  0  0
    0.8181   21.3037  -28.6420 H   0  0  0  0  0  0  0  0  0  0  0  0
   -0.3584   24.3301  -23.2811 H   0  0  0  0  0  0  0  0  0  0  0  0
   -0.6375   26.7358  -22.7294 H   0  0  0  0  0  0  0  0  0  0  0  0
   -0.9803   28.4062  -24.5435 H   0  0  0  0  0  0  0  0  0  0  0  0
   -1.0535   27.6803  -26.9193 H   0  0  0  0  0  0  0  0  0  0  0  0
   -0.8915   19.4533  -25.8347 H   0  0  0  0  0  0  0  0  0  0  0  0
   -1.7112   20.9624  -25.3022 H   0  0  0  0  0  0  0  0  0  0  0  0
   -2.7754   19.0155  -27.0471 H   0  0  0  0  0  0  0  0  0  0  0  0
   -3.3984   20.6895  -26.8063 H   0  0  0  0  0  0  0  0  0  0  0  0
   -2.2204   20.9402  -31.1651 H   0  0  0  0  0  0  0  0  0  0  0  0
   -3.2470   22.9237  -32.2669 H   0  0  0  0  0  0  0  0  0  0  0  0
  1  2  1  0
  2  3  1  0
  3  4  1  0
  4  5  2  0
  5  6  1  0
  6  7  2  0
  7  8  1  0
  8  9  1  0
  9 10  1  0
 10 11  1  0
 11 12  1  0
 12 13  2  0
 13 14  1  0
 14 15  2  0
 15 16  1  0
 16 17  2  0
 17 18  1  0
 18 19  2  0
 19 20  1  0
 20 21  2  0
 20 22  1  0
 11 23  1  0
 23 24  1  0
  7 25  1  0
 25 26  2  0
 26  4  1  0
 24  8  1  0
 22 12  1  0
 19 14  1  0
  1 27  1  0
  1 28  1  0
  1 29  1  0
  2 30  1  0
  2 31  1  0
  5 32  1  0
  6 33  1  0
  9 34  1  0
  9 35  1  0
 10 36  1  0
 10 37  1  0
 15 38  1  0
 16 39  1  0
 17 40  1  0
 18 41  1  0
 23 42  1  0
 23 43  1  0
 24 44  1  0
 24 45  1  0
 25 46  1  0
 26 47  1  0
M  END
>  <UniqueID>  (31) 
29

>  <SMILES>  (31) 
CCOc1ccc(N2CCN(c3nc4ccccc4c(=O)s3)CC2)cc1

>  <Energy>  (31) 
67.08736329962454

>  <Genealogy>  (31) 
CCOc1ccc(N2CCN(c3nc4ccccc4c(=O)s3)CC2)cc1 (3D coordinates assigned)
CCOc1ccc(N2CCN(c3nc4ccccc4c(=O)s3)CC2)cc1 (nonaromatic ring conformer: 67.08736329962454 kcal/mol)

>  <smiles>  (31) 
CCOc1ccc(N2CCN(c3nc4ccccc4c(=O)s3)CC2)cc1

>  <score_type>  (31) 
oracle

>  <origin>  (31) 
adg

>  <m_score__min__energy>  (31) 
-8.2799999999999994

>  <m_primary>  (31) 
energy

$$$$
31:0
     RDKit          3D

 63 66  0  0  0  0  0  0  0  0999 V2000
   -1.6750   15.2040  -36.0600 C   0  0  0  0  0  0  0  0  0  0  0  0
   -3.0340   15.8300  -35.7610 C   0  0  0  0  0  0  0  0  0  0  0  0
   -2.8820   17.0170  -34.8470 C   0  0  0  0  0  0  0  0  0  0  0  0
   -1.6100   17.5460  -34.5790 C   0  0  0  0  0  0  0  0  0  0  0  0
   -1.4650   18.6260  -33.7040 C   0  0  0  0  0  0  0  0  0  0  0  0
   -2.5890   19.1850  -33.0770 C   0  0  0  0  0  0  0  0  0  0  0  0
   -2.4380   20.2910  -32.1630 N   0  0  0  0  0  0  0  0  0  0  0  0
   -2.9820   21.5200  -32.4650 C   0  0  0  0  0  0  0  0  0  0  0  0
   -3.6190   21.6940  -33.5390 O   0  0  0  0  0  0  0  0  0  0  0  0
   -2.8550   22.5620  -31.6010 N   0  0  0  0  0  0  0  0  0  0  0  0
   -2.1850   22.3670  -30.4450 C   0  0  0  0  0  0  0  0  0  0  0  0
   -1.9570   23.2760  -29.4340 C   0  0  0  0  0  0  0  0  0  0  0  0
   -2.3560   24.6900  -29.3640 C   0  0  0  0  0  0  0  0  0  0  0  0
   -1.6480   25.5190  -28.7340 O   0  0  0  0  0  0  0  0  0  0  0  0
   -3.5130   25.1360  -30.0740 N   0  0  0  0  0  0  0  0  0  0  0  0
   -4.9090   24.9130  -29.6800 C   0  0  0  0  0  0  0  0  0  0  0  0
   -5.1570   23.5110  -29.0770 C   0  0  0  0  0  0  0  0  0  0  0  0
   -5.4240   22.4130  -30.1220 C   0  0  0  0  0  0  0  0  0  0  0  0
   -6.4840   22.8410  -31.1360 C   0  0  0  0  0  0  0  0  0  0  0  0
   -6.0600   24.1310  -31.8370 C   0  0  0  0  0  0  0  0  0  0  0  0
   -5.8850   25.2650  -30.8230 C   0  0  0  0  0  0  0  0  0  0  0  0
   -1.2370   22.5550  -28.4910 C   0  0  0  0  0  0  0  0  0  0  0  0
   -1.0620   21.2870  -28.9370 N   0  0  0  0  0  0  0  0  0  0  0  0
   -0.3730   20.2450  -28.1660 C   0  0  0  0  0  0  0  0  0  0  0  0
    1.1540   20.4300  -28.1930 C   0  0  0  0  0  0  0  0  0  0  0  0
    1.9390   19.1470  -28.5320 C   0  0  0  0  0  0  0  0  0  0  0  0
    1.6210   18.5840  -29.9250 C   0  0  0  0  0  0  0  0  0  0  0  0
    1.4710   19.6150  -30.8620 O   0  0  0  0  0  0  0  0  0  0  0  0
   -1.6450   21.1840  -30.1320 N   0  0  0  0  0  0  0  0  0  0  0  0
   -1.7560   20.1220  -30.9810 C   0  0  0  0  0  0  0  0  0  0  0  0
   -1.2370   19.0080  -30.7030 O   0  0  0  0  0  0  0  0  0  0  0  0
   -3.8600   18.6490  -33.3360 C   0  0  0  0  0  0  0  0  0  0  0  0
   -4.0060   17.5690  -34.2120 C   0  0  0  0  0  0  0  0  0  0  0  0
   -1.1638   14.9685  -35.1149 H   0  0  0  0  0  0  0  0  0  0  0  0
   -1.8165   14.2803  -36.6403 H   0  0  0  0  0  0  0  0  0  0  0  0
   -1.0649   15.9118  -36.6403 H   0  0  0  0  0  0  0  0  0  0  0  0
   -3.4966   16.1569  -36.7039 H   0  0  0  0  0  0  0  0  0  0  0  0
   -3.6682   15.0802  -35.2655 H   0  0  0  0  0  0  0  0  0  0  0  0
   -0.7228   17.1084  -35.0600 H   0  0  0  0  0  0  0  0  0  0  0  0
   -0.4652   19.0397  -33.5059 H   0  0  0  0  0  0  0  0  0  0  0  0
   -5.1197   25.6128  -28.8578 H   0  0  0  0  0  0  0  0  0  0  0  0
   -4.2692   23.2241  -28.4943 H   0  0  0  0  0  0  0  0  0  0  0  0
   -6.0647   23.5881  -28.4605 H   0  0  0  0  0  0  0  0  0  0  0  0
   -4.4876   22.1946  -30.6563 H   0  0  0  0  0  0  0  0  0  0  0  0
   -5.7951   21.5218  -29.5947 H   0  0  0  0  0  0  0  0  0  0  0  0
   -6.6106   22.0459  -31.8855 H   0  0  0  0  0  0  0  0  0  0  0  0
   -7.4327   23.0170  -30.6079 H   0  0  0  0  0  0  0  0  0  0  0  0
   -5.1062   23.9621  -32.3582 H   0  0  0  0  0  0  0  0  0  0  0  0
   -6.8421   24.4166  -32.5559 H   0  0  0  0  0  0  0  0  0  0  0  0
   -5.5004   26.1500  -31.3511 H   0  0  0  0  0  0  0  0  0  0  0  0
   -6.8688   25.4510  -30.3674 H   0  0  0  0  0  0  0  0  0  0  0  0
   -0.8671   22.9502  -27.5334 H   0  0  0  0  0  0  0  0  0  0  0  0
   -0.7184   20.2871  -27.1225 H   0  0  0  0  0  0  0  0  0  0  0  0
   -0.6076   19.2714  -28.6211 H   0  0  0  0  0  0  0  0  0  0  0  0
    1.3960   21.1924  -28.9481 H   0  0  0  0  0  0  0  0  0  0  0  0
    1.4550   20.7263  -27.1773 H   0  0  0  0  0  0  0  0  0  0  0  0
    3.0143   19.3743  -28.4855 H   0  0  0  0  0  0  0  0  0  0  0  0
    1.6419   18.3828  -27.7987 H   0  0  0  0  0  0  0  0  0  0  0  0
    2.4430   17.9259  -30.2431 H   0  0  0  0  0  0  0  0  0  0  0  0
    0.6769   18.0223  -29.8684 H   0  0  0  0  0  0  0  0  0  0  0  0
    0.6010   19.4650  -31.3160 H   0  0  0  0  0  0  0  0  0  0  0  0
   -4.7459   19.0808  -32.8473 H   0  0  0  0  0  0  0  0  0  0  0  0
   -5.0049   17.1504  -34.4043 H   0  0  0  0  0  0  0  0  0  0  0  0
  1  2  1  0
  2  3  1  0
  3  4  2  0
  4  5  1  0
  5  6  2  0
  6  7  1  0
  7  8  1  0
  8  9  2  0
  8 10  1  0
 10 11  2  0
 11 12  1  0
 12 13  1  0
 13 14  2  0
 13 15  1  0
 15 16  1  0
 16 17  1  0
 17 18  1  0
 18 19  1  0
 19 20  1  0
 20 21  1  0
 12 22  2  0
 22 23  1  0
 23 24  1  0
 24 25  1  0
 25 26  1  0
 26 27  1  0
 27 28  1  0
 23 29  1  0
 29 30  1  0
 30 31  2  0
  6 32  1  0
 32 33  2  0
 33  3  1  0
 30  7  1  0
 29 11  1  0
 21 16  1  0
  1 34  1  0
  1 35  1  0
  1 36  1  0
  2 37  1  0
  2 38  1  0
  4 39  1  0
  5 40  1  0
 16 41  1  0
 17 42  1  0
 17 43  1  0
 18 44  1  0
 18 45  1  0
 19 46  1  0
 19 47  1  0
 20 48  1  0
 20 49  1  0
 21 50  1  0
 21 51  1  0
 22 52  1  0
 24 53  1  0
 24 54  1  0
 25 55  1  0
 25 56  1  0
 26 57  1  0
 26 58  1  0
 27 59  1  0
 27 60  1  0
 28 61  1  0
 32 62  1  0
 33 63  1  0
M  CHG  1  15  -1
M  END
>  <UniqueID>  (32) 
30

>  <SMILES>  (32) 
CCc1ccc(-n2c(=O)nc3c(C(=O)[N-]C4CCCCC4)cn(CCCCO)n3c2=O)cc1

>  <Energy>  (32) 
112.34064406708933

>  <Genealogy>  (32) 
CCc1ccc(-n2c(=O)nc3c(C(=O)[N-]C4CCCCC4)cn(CCCCO)n3c2=O)cc1 (protonated)
CCc1ccc(-n2c(=O)nc3c(C(=O)[N-]C4CCCCC4)cn(CCCCO)n3c2=O)cc1 (3D coordinates assigned)
CCc1ccc(-n2c(=O)nc3c(C(=O)[N-]C4CCCCC4)cn(CCCCO)n3c2=O)cc1 (nonaromatic ring conformer: 112.34064406708933 kcal/mol)

>  <smiles>  (32) 
CCc1ccc(-n2c(=O)nc3c(C(=O)NC4CCCCC4)cn(CCCCO)n3c2=O)cc1

>  <score_type>  (32) 
oracle

>  <origin>  (32) 
adg

>  <m_score__min__energy>  (32) 
-11.49

>  <m_primary>  (32) 
energy

$$$$
32:0
     RDKit          3D

 39 41  0  0  0  0  0  0  0  0999 V2000
   -4.0170   21.3590  -32.0020 C   0  0  0  0  0  0  0  0  0  0  0  0
   -5.1520   22.2060  -32.5680 C   0  0  0  0  0  0  0  0  0  0  0  0
   -6.3630   22.0540  -31.7520 N   0  0  0  0  0  0  0  0  0  0  0  0
   -6.5920   22.9330  -30.6020 C   0  0  0  0  0  0  0  0  0  0  0  0
   -5.3640   23.7430  -30.3280 C   0  0  0  0  0  0  0  0  0  0  0  0
   -5.0650   24.9700  -30.8750 C   0  0  0  0  0  0  0  0  0  0  0  0
   -3.8680   25.3010  -30.4590 O   0  0  0  0  0  0  0  0  0  0  0  0
   -3.4380   24.3200  -29.6970 C   0  0  0  0  0  0  0  0  0  0  0  0
   -2.1250   24.3130  -29.0430 C   0  0  0  0  0  0  0  0  0  0  0  0
   -1.6890   25.2240  -28.0900 C   0  0  0  0  0  0  0  0  0  0  0  0
   -0.3860   24.9680  -27.6430 C   0  0  0  0  0  0  0  0  0  0  0  0
    0.2020   23.8600  -28.2400 C   0  0  0  0  0  0  0  0  0  0  0  0
   -0.8980   23.1990  -29.3270 S   0  0  0  0  0  0  0  0  0  0  0  0
   -4.3290   23.3110  -29.5850 N   0  0  0  0  0  0  0  0  0  0  0  0
   -7.1810   20.8800  -31.9090 C   0  0  0  0  0  0  0  0  0  0  0  0
   -6.5690   19.6160  -31.9330 C   0  0  0  0  0  0  0  0  0  0  0  0
   -7.3400   18.4580  -32.0530 C   0  0  0  0  0  0  0  0  0  0  0  0
   -8.7290   18.5490  -32.1460 C   0  0  0  0  0  0  0  0  0  0  0  0
   -9.3510   19.8000  -32.1230 C   0  0  0  0  0  0  0  0  0  0  0  0
   -8.5880   20.9750  -32.0180 C   0  0  0  0  0  0  0  0  0  0  0  0
   -9.2990   22.3000  -31.9720 C   0  0  0  0  0  0  0  0  0  0  0  0
   -4.0526   21.3856  -30.9029 H   0  0  0  0  0  0  0  0  0  0  0  0
   -4.1271   20.3205  -32.3474 H   0  0  0  0  0  0  0  0  0  0  0  0
   -3.0527   21.7601  -32.3474 H   0  0  0  0  0  0  0  0  0  0  0  0
   -4.8480   23.2631  -32.5712 H   0  0  0  0  0  0  0  0  0  0  0  0
   -5.3692   21.8708  -33.5929 H   0  0  0  0  0  0  0  0  0  0  0  0
   -7.4329   23.6077  -30.8203 H   0  0  0  0  0  0  0  0  0  0  0  0
   -6.8265   22.3205  -29.7189 H   0  0  0  0  0  0  0  0  0  0  0  0
   -5.7116   25.5629  -31.5387 H   0  0  0  0  0  0  0  0  0  0  0  0
   -2.3030   26.0601  -27.7239 H   0  0  0  0  0  0  0  0  0  0  0  0
    0.1238   25.5866  -26.8897 H   0  0  0  0  0  0  0  0  0  0  0  0
    1.2140   23.4800  -28.0366 H   0  0  0  0  0  0  0  0  0  0  0  0
   -5.4744   19.5378  -31.8567 H   0  0  0  0  0  0  0  0  0  0  0  0
   -6.8515   17.4727  -32.0742 H   0  0  0  0  0  0  0  0  0  0  0  0
   -9.3349   17.6354  -32.2375 H   0  0  0  0  0  0  0  0  0  0  0  0
  -10.4471   19.8654  -32.1876 H   0  0  0  0  0  0  0  0  0  0  0  0
   -9.4573   22.5950  -30.9242 H   0  0  0  0  0  0  0  0  0  0  0  0
   -8.6884   23.0616  -32.4791 H   0  0  0  0  0  0  0  0  0  0  0  0
  -10.2712   22.2122  -32.4791 H   0  0  0  0  0  0  0  0  0  0  0  0
  1  2  1  0
  2  3  1  0
  3  4  1  0
  4  5  1  0
  5  6  2  0
  6  7  1  0
  7  8  1  0
  8  9  1  0
  9 10  2  0
 10 11  1  0
 11 12  2  0
 12 13  1  0
  8 14  2  0
  3 15  1  0
 15 16  2  0
 16 17  1  0
 17 18  2  0
 18 19  1  0
 19 20  2  0
 20 21  1  0
 14  5  1  0
 20 15  1  0
 13  9  1  0
  1 22  1  0
  1 23  1  0
  1 24  1  0
  2 25  1  0
  2 26  1  0
  4 27  1  0
  4 28  1  0
  6 29  1  0
 10 30  1  0
 11 31  1  0
 12 32  1  0
 16 33  1  0
 17 34  1  0
 18 35  1  0
 19 36  1  0
 21 37  1  0
 21 38  1  0
 21 39  1  0
M  END
>  <UniqueID>  (33) 
31

>  <SMILES>  (33) 
CCN(Cc1coc(-c2cccs2)n1)c1ccccc1C

>  <Energy>  (33) 
94.20508642469036

>  <Genealogy>  (33) 
CCN(Cc1coc(-c2cccs2)n1)c1ccccc1C (3D coordinates assigned)
CCN(Cc1coc(-c2cccs2)n1)c1ccccc1C (optimized conformer: 94.20508642469036 kcal/mol)

>  <smiles>  (33) 
CCN(Cc1coc(-c2cccs2)n1)c1ccccc1C

>  <score_type>  (33) 
oracle

>  <origin>  (33) 
adg

>  <m_score__min__energy>  (33) 
-8.1099999999999994

>  <m_primary>  (33) 
energy

$$$$
33:0
     RDKit          3D

 35 37  0  0  0  0  0  0  0  0999 V2000
   -4.8910   17.9910  -34.6690 C   0  0  0  0  0  0  0  0  0  0  0  0
   -6.2740   18.1990  -34.1860 N   0  0  0  0  0  0  0  0  0  0  0  0
   -6.8110   16.8990  -33.7270 C   0  0  0  0  0  0  0  0  0  0  0  0
   -6.3320   19.2410  -33.1100 C   0  0  2  0  0  0  0  0  0  0  0  0
   -7.7120   19.9780  -33.0900 C   0  0  0  0  0  0  0  0  0  0  0  0
   -7.8270   20.9880  -31.9320 C   0  0  0  0  0  0  0  0  0  0  0  0
   -6.6030   21.8390  -31.8620 C   0  0  0  0  0  0  0  0  0  0  0  0
   -5.3840   21.4900  -32.4050 C   0  0  0  0  0  0  0  0  0  0  0  0
   -4.4400   22.4160  -32.1190 N   0  0  0  0  0  0  0  0  0  0  0  0
   -5.0640   23.3370  -31.3590 C   0  0  0  0  0  0  0  0  0  0  0  0
   -4.5080   24.4820  -30.7910 C   0  0  0  0  0  0  0  0  0  0  0  0
   -5.3450   25.3020  -30.0130 C   0  0  0  0  0  0  0  0  0  0  0  0
   -6.7030   24.9640  -29.8180 C   0  0  0  0  0  0  0  0  0  0  0  0
   -7.2400   23.8010  -30.4030 C   0  0  0  0  0  0  0  0  0  0  0  0
   -6.3880   23.0120  -31.1740 C   0  0  0  0  0  0  0  0  0  0  0  0
   -5.1800   20.2850  -33.2720 C   0  0  0  0  0  0  0  0  0  0  0  0
   -4.2135   17.8891  -33.8084 H   0  0  0  0  0  0  0  0  0  0  0  0
   -4.8492   17.0765  -35.2788 H   0  0  0  0  0  0  0  0  0  0  0  0
   -4.5821   18.8528  -35.2788 H   0  0  0  0  0  0  0  0  0  0  0  0
   -6.8530   18.5160  -35.0000 H   0  0  0  0  0  0  0  0  0  0  0  0
   -6.8212   16.8742  -32.6273 H   0  0  0  0  0  0  0  0  0  0  0  0
   -7.8356   16.7710  -34.1062 H   0  0  0  0  0  0  0  0  0  0  0  0
   -6.1754   16.0852  -34.1062 H   0  0  0  0  0  0  0  0  0  0  0  0
   -6.2060   18.7153  -32.1520 H   0  0  0  0  0  0  0  0  0  0  0  0
   -7.8378   20.5164  -34.0410 H   0  0  0  0  0  0  0  0  0  0  0  0
   -8.4941   19.2176  -32.9481 H   0  0  0  0  0  0  0  0  0  0  0  0
   -8.7056   21.6292  -32.0959 H   0  0  0  0  0  0  0  0  0  0  0  0
   -7.9334   20.4366  -30.9862 H   0  0  0  0  0  0  0  0  0  0  0  0
   -3.4400   22.4130  -32.4190 H   0  0  0  0  0  0  0  0  0  0  0  0
   -3.4490   24.7361  -30.9462 H   0  0  0  0  0  0  0  0  0  0  0  0
   -4.9388   26.2145  -29.5523 H   0  0  0  0  0  0  0  0  0  0  0  0
   -7.3451   25.6137  -29.2051 H   0  0  0  0  0  0  0  0  0  0  0  0
   -8.2947   23.5249  -30.2567 H   0  0  0  0  0  0  0  0  0  0  0  0
   -5.1388   20.6073  -34.3229 H   0  0  0  0  0  0  0  0  0  0  0  0
   -4.2404   19.8024  -32.9649 H   0  0  0  0  0  0  0  0  0  0  0  0
  1  2  1  0
  2  3  1  0
  2  4  1  0
  4  5  1  0
  5  6  1  0
  6  7  1  0
  7  8  2  0
  8  9  1  0
  9 10  1  0
 10 11  2  0
 11 12  1  0
 12 13  2  0
 13 14  1  0
 14 15  2  0
  8 16  1  0
 16  4  1  0
 15  7  1  0
 15 10  1  0
  1 17  1  0
  1 18  1  0
  1 19  1  0
  2 20  1  0
  3 21  1  0
  3 22  1  0
  3 23  1  0
  4 24  1  1
  5 25  1  0
  5 26  1  0
  6 27  1  0
  6 28  1  0
  9 29  1  0
 11 30  1  0
 12 31  1  0
 13 32  1  0
 14 33  1  0
 16 34  1  0
 16 35  1  0
M  CHG  1   2   1
M  END
>  <UniqueID>  (34) 
32

>  <SMILES>  (34) 
C[NH+](C)[C@@H]1CCc2c([nH]c3ccccc23)C1

>  <Energy>  (34) 
76.12783745141493

>  <Genealogy>  (34) 
C[NH+](C)C1CCc2c([nH]c3ccccc23)C1 (protonated)
C[NH+](C)[C@@H]1CCc2c([nH]c3ccccc23)C1 (chirality)
C[NH+](C)[C@@H]1CCc2c([nH]c3ccccc23)C1 (3D coordinates assigned)
C[NH+](C)[C@@H]1CCc2c([nH]c3ccccc23)C1 (nonaromatic ring conformer: 76.12783745141493 kcal/mol)

>  <smiles>  (34) 
CN(C)C1CCc2c([nH]c3ccccc23)C1

>  <score_type>  (34) 
oracle

>  <origin>  (34) 
adg

>  <m_score__min__energy>  (34) 
-6.3499999999999996

>  <m_primary>  (34) 
energy

$$$$
34:0
     RDKit          3D

 47 49  0  0  0  0  0  0  0  0999 V2000
   -5.2370   25.6920  -30.5030 C   0  0  0  0  0  0  0  0  0  0  0  0
   -3.8710   25.2870  -30.4710 O   0  0  0  0  0  0  0  0  0  0  0  0
   -3.3080   24.4460  -29.4970 C   0  0  0  0  0  0  0  0  0  0  0  0
   -2.3200   24.9090  -28.6060 C   0  0  0  0  0  0  0  0  0  0  0  0
   -1.8100   24.0690  -27.6140 C   0  0  0  0  0  0  0  0  0  0  0  0
   -2.2920   22.7670  -27.4830 C   0  0  0  0  0  0  0  0  0  0  0  0
   -3.2670   22.2940  -28.3600 C   0  0  0  0  0  0  0  0  0  0  0  0
   -3.7510   23.1070  -29.4010 C   0  0  0  0  0  0  0  0  0  0  0  0
   -4.7910   22.5540  -30.3500 C   0  0  0  0  0  0  0  0  0  0  0  0
   -4.1730   21.7930  -31.4500 N   0  0  0  0  0  0  0  0  0  0  0  0
   -4.9890   21.7980  -32.6790 C   0  0  0  0  0  0  0  0  0  0  0  0
   -6.4600   21.9510  -32.3580 C   0  0  0  0  0  0  0  0  0  0  0  0
   -6.9960   23.2440  -32.2070 C   0  0  0  0  0  0  0  0  0  0  0  0
   -8.3410   23.4230  -31.8760 C   0  0  0  0  0  0  0  0  0  0  0  0
   -9.1770   22.3170  -31.7210 C   0  0  0  0  0  0  0  0  0  0  0  0
   -8.6750   21.0300  -31.9200 C   0  0  0  0  0  0  0  0  0  0  0  0
   -7.3280   20.8350  -32.2560 C   0  0  0  0  0  0  0  0  0  0  0  0
   -6.8790   19.5030  -32.5390 N   0  0  0  0  0  0  0  0  0  0  0  0
   -6.2870   19.1920  -33.8390 C   0  0  0  0  0  0  0  0  0  0  0  0
   -5.2510   18.0730  -33.6790 C   0  0  0  0  0  0  0  0  0  0  0  0
   -5.8050   16.9720  -32.9840 O   0  0  0  0  0  0  0  0  0  0  0  0
   -6.1140   17.3520  -31.6550 C   0  0  0  0  0  0  0  0  0  0  0  0
   -7.2260   18.4060  -31.6340 C   0  0  0  0  0  0  0  0  0  0  0  0
   -5.6108   25.8028  -29.4744 H   0  0  0  0  0  0  0  0  0  0  0  0
   -5.3220   26.6540  -31.0296 H   0  0  0  0  0  0  0  0  0  0  0  0
   -5.8326   24.9318  -31.0296 H   0  0  0  0  0  0  0  0  0  0  0  0
   -1.9473   25.9403  -28.6924 H   0  0  0  0  0  0  0  0  0  0  0  0
   -1.0263   24.4351  -26.9344 H   0  0  0  0  0  0  0  0  0  0  0  0
   -1.9031   22.1136  -26.6881 H   0  0  0  0  0  0  0  0  0  0  0  0
   -3.6619   21.2747  -28.2367 H   0  0  0  0  0  0  0  0  0  0  0  0
   -5.4661   21.8890  -29.7914 H   0  0  0  0  0  0  0  0  0  0  0  0
   -5.3433   23.3999  -30.7853 H   0  0  0  0  0  0  0  0  0  0  0  0
   -4.0980   20.7980  -31.1300 H   0  0  0  0  0  0  0  0  0  0  0  0
   -4.6718   22.6361  -33.3170 H   0  0  0  0  0  0  0  0  0  0  0  0
   -4.8434   20.8391  -33.1980 H   0  0  0  0  0  0  0  0  0  0  0  0
   -6.3491   24.1219  -32.3511 H   0  0  0  0  0  0  0  0  0  0  0  0
   -8.7419   24.4379  -31.7373 H   0  0  0  0  0  0  0  0  0  0  0  0
  -10.2315   22.4592  -31.4420 H   0  0  0  0  0  0  0  0  0  0  0  0
   -9.3417   20.1617  -31.8123 H   0  0  0  0  0  0  0  0  0  0  0  0
   -7.0762   18.8637  -34.5314 H   0  0  0  0  0  0  0  0  0  0  0  0
   -5.7949   20.0903  -34.2402 H   0  0  0  0  0  0  0  0  0  0  0  0
   -4.9208   17.7420  -34.6747 H   0  0  0  0  0  0  0  0  0  0  0  0
   -4.3983   18.4613  -33.1027 H   0  0  0  0  0  0  0  0  0  0  0  0
   -6.4468   16.4657  -31.0948 H   0  0  0  0  0  0  0  0  0  0  0  0
   -5.2129   17.7815  -31.1930 H   0  0  0  0  0  0  0  0  0  0  0  0
   -8.1713   17.9475  -31.9598 H   0  0  0  0  0  0  0  0  0  0  0  0
   -7.3398   18.7971  -30.6122 H   0  0  0  0  0  0  0  0  0  0  0  0
  1  2  1  0
  2  3  1  0
  3  4  2  0
  4  5  1  0
  5  6  2  0
  6  7  1  0
  7  8  2  0
  8  9  1  0
  9 10  1  0
 10 11  1  0
 11 12  1  0
 12 13  2  0
 13 14  1  0
 14 15  2  0
 15 16  1  0
 16 17  2  0
 17 18  1  0
 18 19  1  0
 19 20  1  0
 20 21  1  0
 21 22  1  0
 22 23  1  0
  8  3  1  0
 17 12  1  0
 23 18  1  0
  1 24  1  0
  1 25  1  0
  1 26  1  0
  4 27  1  0
  5 28  1  0
  6 29  1  0
  7 30  1  0
  9 31  1  0
  9 32  1  0
 10 33  1  0
 11 34  1  0
 11 35  1  0
 13 36  1  0
 14 37  1  0
 15 38  1  0
 16 39  1  0
 19 40  1  0
 19 41  1  0
 20 42  1  0
 20 43  1  0
 22 44  1  0
 22 45  1  0
 23 46  1  0
 23 47  1  0
M  END
>  <UniqueID>  (35) 
33

>  <SMILES>  (35) 
COc1ccccc1CNCc1ccccc1N1CCOCC1

>  <Energy>  (35) 
52.969087745128654

>  <Genealogy>  (35) 
COc1ccccc1CNCc1ccccc1N1CCOCC1 (3D coordinates assigned)
COc1ccccc1CNCc1ccccc1N1CCOCC1 (nonaromatic ring conformer: 52.969087745128654 kcal/mol)

>  <smiles>  (35) 
COc1ccccc1CNCc1ccccc1N1CCOCC1

>  <score_type>  (35) 
oracle

>  <origin>  (35) 
adg

>  <m_score__min__energy>  (35) 
-8.7400000000000002

>  <m_primary>  (35) 
energy

$$$$
35:0
     RDKit          3D

 25 26  0  0  0  0  0  0  0  0999 V2000
   -6.1890   17.3560  -31.8910 C   0  0  0  0  0  0  0  0  0  0  0  0
   -6.2430   18.6330  -32.7350 C   0  0  1  0  0  0  0  0  0  0  0  0
   -5.3960   18.5460  -34.4840 Br  0  0  0  0  0  0  0  0  0  0  0  0
   -7.5620   19.4160  -32.7440 C   0  0  1  0  0  0  0  0  0  0  0  0
   -9.0140   18.8040  -31.5990 Br  0  0  0  0  0  0  0  0  0  0  0  0
   -6.3640   19.9500  -31.9610 C   0  0  2  0  0  0  0  0  0  0  0  0
   -5.6500   21.4410  -32.6550 S   0  0  0  0  0  0  0  0  0  0  0  0
   -4.2140   21.2740  -33.5180 O   0  0  0  0  0  0  0  0  0  0  0  0
   -5.6550   22.8130  -31.5620 C   0  0  0  0  0  0  0  0  0  0  0  0
   -4.4630   23.2530  -30.9680 C   0  0  0  0  0  0  0  0  0  0  0  0
   -4.4780   24.3450  -30.0950 C   0  0  0  0  0  0  0  0  0  0  0  0
   -5.6800   24.9990  -29.8110 C   0  0  0  0  0  0  0  0  0  0  0  0
   -6.8700   24.5620  -30.4010 C   0  0  0  0  0  0  0  0  0  0  0  0
   -6.8580   23.4700  -31.2760 C   0  0  0  0  0  0  0  0  0  0  0  0
   -6.2002   17.6213  -30.8235 H   0  0  0  0  0  0  0  0  0  0  0  0
   -7.0613   16.7269  -32.1217 H   0  0  0  0  0  0  0  0  0  0  0  0
   -5.2667   16.8028  -32.1217 H   0  0  0  0  0  0  0  0  0  0  0  0
   -8.2200   19.7638  -33.5540 H   0  0  0  0  0  0  0  0  0  0  0  0
   -6.1368   20.2293  -30.9216 H   0  0  0  0  0  0  0  0  0  0  0  0
   -4.2480   21.9740  -34.2160 H   0  0  0  0  0  0  0  0  0  0  0  0
   -3.5161   22.7388  -31.1891 H   0  0  0  0  0  0  0  0  0  0  0  0
   -3.5422   24.6899  -29.6309 H   0  0  0  0  0  0  0  0  0  0  0  0
   -5.6899   25.8575  -29.1233 H   0  0  0  0  0  0  0  0  0  0  0  0
   -7.8160   25.0768  -30.1772 H   0  0  0  0  0  0  0  0  0  0  0  0
   -7.7948   23.1273  -31.7397 H   0  0  0  0  0  0  0  0  0  0  0  0
  1  2  1  0
  2  3  1  6
  2  4  1  0
  4  5  1  0
  4  6  1  0
  6  7  1  0
  7  8  1  1
  7  9  1  0
  9 10  2  0
 10 11  1  0
 11 12  2  0
 12 13  1  0
 13 14  2  0
  6  2  1  0
 14  9  1  0
  1 15  1  0
  1 16  1  0
  1 17  1  0
  4 18  1  6
  6 19  1  1
  8 20  1  0
 10 21  1  0
 11 22  1  0
 12 23  1  0
 13 24  1  0
 14 25  1  0
M  CHG  1   7   1
M  END
>  <UniqueID>  (36) 
34

>  <SMILES>  (36) 
C[C@]1(Br)C([S+](O)c2ccccc2)[C@@H]1Br

>  <Energy>  (36) 
294.8419812673028

>  <Genealogy>  (36) 
CC1(Br)C(Br)C1[S+](O)c1ccccc1 (protonated)
C[C@]1(Br)C([S+](O)c2ccccc2)[C@@H]1Br (chirality)
C[C@]1(Br)C([S+](O)c2ccccc2)[C@@H]1Br (3D coordinates assigned)
C[C@]1(Br)C([S+](O)c2ccccc2)[C@@H]1Br (nonaromatic ring conformer: 294.8419812673028 kcal/mol)

>  <smiles>  (36) 
CC1(Br)C(Br)C1[S+]([O-])c1ccccc1

>  <score_type>  (36) 
oracle

>  <origin>  (36) 
adg

>  <m_score__min__energy>  (36) 
-6.6100000000000003

>  <m_primary>  (36) 
energy

$$$$
36:0
     RDKit          3D

 52 55  0  0  0  0  0  0  0  0999 V2000
   -1.5810   16.1020  -34.4640 C   0  0  0  0  0  0  0  0  0  0  0  0
   -2.6250   16.3450  -33.5270 O   0  0  0  0  0  0  0  0  0  0  0  0
   -3.7790   17.0980  -33.7960 C   0  0  0  0  0  0  0  0  0  0  0  0
   -5.0000   16.4850  -34.1440 C   0  0  0  0  0  0  0  0  0  0  0  0
   -6.1250   17.2610  -34.4300 C   0  0  0  0  0  0  0  0  0  0  0  0
   -6.0490   18.6530  -34.3720 C   0  0  0  0  0  0  0  0  0  0  0  0
   -4.8480   19.2730  -34.0250 C   0  0  0  0  0  0  0  0  0  0  0  0
   -3.7070   18.5060  -33.7310 C   0  0  0  0  0  0  0  0  0  0  0  0
   -2.4840   19.1640  -33.3510 N   0  0  0  0  0  0  0  0  0  0  0  0
   -1.8830   20.1870  -34.2110 C   0  0  0  0  0  0  0  0  0  0  0  0
   -1.8480   21.5440  -33.4830 C   0  0  0  0  0  0  0  0  0  0  0  0
   -1.7440   21.4310  -32.0020 N   0  0  0  0  0  0  0  0  0  0  0  0
   -3.0320   21.6730  -31.3070 C   0  0  0  0  0  0  0  0  0  0  0  0
   -4.0670   22.2790  -32.2640 C   0  0  0  0  0  0  0  0  0  0  0  0
   -5.0020   23.2210  -31.5640 C   0  0  0  0  0  0  0  0  0  0  0  0
   -4.6420   24.4110  -31.1410 O   0  0  0  0  0  0  0  0  0  0  0  0
   -5.7210   24.9630  -30.6410 C   0  0  0  0  0  0  0  0  0  0  0  0
   -5.7470   26.1170  -30.1390 O   0  0  0  0  0  0  0  0  0  0  0  0
   -6.7710   24.1820  -30.7250 O   0  0  0  0  0  0  0  0  0  0  0  0
   -6.3600   23.0720  -31.2920 C   0  0  0  0  0  0  0  0  0  0  0  0
   -7.2540   21.9310  -31.5810 C   0  0  0  0  0  0  0  0  0  0  0  0
   -6.7820   20.6080  -31.5850 C   0  0  0  0  0  0  0  0  0  0  0  0
   -7.6570   19.5470  -31.8370 C   0  0  0  0  0  0  0  0  0  0  0  0
   -9.0120   19.7950  -32.0730 C   0  0  0  0  0  0  0  0  0  0  0  0
   -9.8590   18.7650  -32.3160 F   0  0  0  0  0  0  0  0  0  0  0  0
   -9.4940   21.1070  -32.0470 C   0  0  0  0  0  0  0  0  0  0  0  0
   -8.6220   22.1690  -31.7950 C   0  0  0  0  0  0  0  0  0  0  0  0
   -1.0970   20.1730  -31.5720 C   0  0  0  0  0  0  0  0  0  0  0  0
   -1.9110   18.9450  -32.0180 C   0  0  0  0  0  0  0  0  0  0  0  0
   -0.6473   15.8847  -33.9245 H   0  0  0  0  0  0  0  0  0  0  0  0
   -1.8481   15.2420  -35.0957 H   0  0  0  0  0  0  0  0  0  0  0  0
   -1.4409   16.9915  -35.0957 H   0  0  0  0  0  0  0  0  0  0  0  0
   -5.0668   15.3880  -34.1905 H   0  0  0  0  0  0  0  0  0  0  0  0
   -7.0732   16.7739  -34.7016 H   0  0  0  0  0  0  0  0  0  0  0  0
   -6.9362   19.2620  -34.5999 H   0  0  0  0  0  0  0  0  0  0  0  0
   -4.7935   20.3708  -33.9811 H   0  0  0  0  0  0  0  0  0  0  0  0
   -0.8566   19.8870  -34.4690 H   0  0  0  0  0  0  0  0  0  0  0  0
   -2.4873   20.2865  -35.1247 H   0  0  0  0  0  0  0  0  0  0  0  0
   -0.9795   22.1112  -33.8490 H   0  0  0  0  0  0  0  0  0  0  0  0
   -2.8021   22.0471  -33.6989 H   0  0  0  0  0  0  0  0  0  0  0  0
   -3.4164   20.7182  -30.9189 H   0  0  0  0  0  0  0  0  0  0  0  0
   -2.8586   22.3815  -30.4836 H   0  0  0  0  0  0  0  0  0  0  0  0
   -3.5378   22.8286  -33.0564 H   0  0  0  0  0  0  0  0  0  0  0  0
   -4.6658   21.4553  -32.6799 H   0  0  0  0  0  0  0  0  0  0  0  0
   -5.7187   20.4057  -31.3889 H   0  0  0  0  0  0  0  0  0  0  0  0
   -7.2780   18.5144  -31.8495 H   0  0  0  0  0  0  0  0  0  0  0  0
  -10.5615   21.3035  -32.2252 H   0  0  0  0  0  0  0  0  0  0  0  0
   -9.0090   23.1982  -31.7639 H   0  0  0  0  0  0  0  0  0  0  0  0
   -0.0919   20.1171  -32.0155 H   0  0  0  0  0  0  0  0  0  0  0  0
   -1.0382   20.1705  -30.4736 H   0  0  0  0  0  0  0  0  0  0  0  0
   -1.2516   18.0651  -32.0477 H   0  0  0  0  0  0  0  0  0  0  0  0
   -2.7296   18.7818  -31.3016 H   0  0  0  0  0  0  0  0  0  0  0  0
  1  2  1  0
  2  3  1  0
  3  4  2  0
  4  5  1  0
  5  6  2  0
  6  7  1  0
  7  8  2  0
  8  9  1  0
  9 10  1  0
 10 11  1  0
 11 12  1  0
 12 13  1  0
 13 14  1  0
 14 15  1  0
 15 16  1  0
 16 17  1  0
 17 18  2  0
 17 19  1  0
 19 20  1  0
 20 21  1  0
 21 22  2  0
 22 23  1  0
 23 24  2  0
 24 25  1  0
 24 26  1  0
 26 27  2  0
 12 28  1  0
 28 29  1  0
  8  3  1  0
 29  9  1  0
 20 15  2  0
 27 21  1  0
  1 30  1  0
  1 31  1  0
  1 32  1  0
  4 33  1  0
  5 34  1  0
  6 35  1  0
  7 36  1  0
 10 37  1  0
 10 38  1  0
 11 39  1  0
 11 40  1  0
 13 41  1  0
 13 42  1  0
 14 43  1  0
 14 44  1  0
 22 45  1  0
 23 46  1  0
 26 47  1  0
 27 48  1  0
 28 49  1  0
 28 50  1  0
 29 51  1  0
 29 52  1  0
M  END
>  <UniqueID>  (37) 
35

>  <SMILES>  (37) 
COc1ccccc1N1CCN(CCc2oc(=O)oc2-c2ccc(F)cc2)CC1

>  <Energy>  (37) 
103.61390375079836

>  <Genealogy>  (37) 
COc1ccccc1N1CCN(CCc2oc(=O)oc2-c2ccc(F)cc2)CC1 (3D coordinates assigned)
COc1ccccc1N1CCN(CCc2oc(=O)oc2-c2ccc(F)cc2)CC1 (nonaromatic ring conformer: 103.61390375079836 kcal/mol)

>  <smiles>  (37) 
COc1ccccc1N1CCN(CCc2oc(=O)oc2-c2ccc(F)cc2)CC1

>  <score_type>  (37) 
oracle

>  <origin>  (37) 
adg

>  <m_score__min__energy>  (37) 
-8.6600000000000001

>  <m_primary>  (37) 
energy

$$$$
37:0
     RDKit          3D

 54 56  0  0  0  0  0  0  0  0999 V2000
   -6.0880   19.0000  -34.1870 C   0  0  0  0  0  0  0  0  0  0  0  0
   -6.6880   19.6000  -32.9800 N   0  0  0  0  0  0  0  0  0  0  0  0
   -7.6250   18.6340  -32.3800 C   0  0  0  0  0  0  0  0  0  0  0  0
   -5.6490   19.9820  -31.9970 C   0  0  0  0  0  0  0  0  0  0  0  0
   -4.7290   21.1000  -32.5280 C   0  0  0  0  0  0  0  0  0  0  0  0
   -3.3450   20.9690  -32.0060 N   0  0  0  0  0  0  0  0  0  0  0  0
   -2.5060   20.2730  -33.0030 C   0  0  0  0  0  0  0  0  0  0  0  0
   -2.7680   22.2980  -31.6960 C   0  0  0  0  0  0  0  0  0  0  0  0
   -2.8540   22.6120  -30.2070 C   0  0  0  0  0  0  0  0  0  0  0  0
   -3.4690   23.8190  -29.7930 C   0  0  0  0  0  0  0  0  0  0  0  0
   -3.9590   24.7030  -30.7690 O   0  0  0  0  0  0  0  0  0  0  0  0
   -5.2720   25.2540  -30.7890 C   0  0  0  0  0  0  0  0  0  0  0  0
   -6.2740   24.1420  -30.9130 C   0  0  0  0  0  0  0  0  0  0  0  0
   -6.7840   23.7960  -32.1740 C   0  0  0  0  0  0  0  0  0  0  0  0
   -7.7140   22.7610  -32.2990 C   0  0  0  0  0  0  0  0  0  0  0  0
   -8.1380   22.0590  -31.1650 C   0  0  0  0  0  0  0  0  0  0  0  0
   -9.0380   21.0540  -31.2890 F   0  0  0  0  0  0  0  0  0  0  0  0
   -7.6320   22.3960  -29.9060 C   0  0  0  0  0  0  0  0  0  0  0  0
   -6.7050   23.4350  -29.7770 C   0  0  0  0  0  0  0  0  0  0  0  0
   -3.5730   24.1150  -28.4240 C   0  0  0  0  0  0  0  0  0  0  0  0
   -3.0620   23.2460  -27.4660 C   0  0  0  0  0  0  0  0  0  0  0  0
   -2.4250   22.0620  -27.8520 C   0  0  0  0  0  0  0  0  0  0  0  0
   -1.8950   21.2040  -26.8750 C   0  0  0  0  0  0  0  0  0  0  0  0
   -1.2510   20.0250  -27.2480 C   0  0  0  0  0  0  0  0  0  0  0  0
   -1.1340   19.6900  -28.5960 C   0  0  0  0  0  0  0  0  0  0  0  0
   -1.6560   20.5330  -29.5790 C   0  0  0  0  0  0  0  0  0  0  0  0
   -2.3120   21.7320  -29.2280 C   0  0  0  0  0  0  0  0  0  0  0  0
   -5.3390   18.2510  -33.8905 H   0  0  0  0  0  0  0  0  0  0  0  0
   -6.8739   18.5158  -34.7852 H   0  0  0  0  0  0  0  0  0  0  0  0
   -5.6038   19.7859  -34.7852 H   0  0  0  0  0  0  0  0  0  0  0  0
   -7.5641   18.6967  -31.2835 H   0  0  0  0  0  0  0  0  0  0  0  0
   -8.6499   18.8674  -32.7043 H   0  0  0  0  0  0  0  0  0  0  0  0
   -7.3605   17.6167  -32.7043 H   0  0  0  0  0  0  0  0  0  0  0  0
   -6.1421   20.3348  -31.0792 H   0  0  0  0  0  0  0  0  0  0  0  0
   -5.0266   19.0963  -31.8014 H   0  0  0  0  0  0  0  0  0  0  0  0
   -4.7018   21.0472  -33.6264 H   0  0  0  0  0  0  0  0  0  0  0  0
   -5.1327   22.0653  -32.1887 H   0  0  0  0  0  0  0  0  0  0  0  0
   -1.7591   19.6534  -32.4852 H   0  0  0  0  0  0  0  0  0  0  0  0
   -3.1405   19.6324  -33.6331 H   0  0  0  0  0  0  0  0  0  0  0  0
   -1.9937   21.0149  -33.6331 H   0  0  0  0  0  0  0  0  0  0  0  0
   -1.7118   22.3093  -32.0030 H   0  0  0  0  0  0  0  0  0  0  0  0
   -3.3435   23.0596  -32.2426 H   0  0  0  0  0  0  0  0  0  0  0  0
   -5.4521   25.8089  -29.8564 H   0  0  0  0  0  0  0  0  0  0  0  0
   -5.3721   25.9379  -31.6447 H   0  0  0  0  0  0  0  0  0  0  0  0
   -6.4498   24.3424  -33.0683 H   0  0  0  0  0  0  0  0  0  0  0  0
   -8.1133   22.4976  -33.2896 H   0  0  0  0  0  0  0  0  0  0  0  0
   -7.9638   21.8427  -29.0151 H   0  0  0  0  0  0  0  0  0  0  0  0
   -6.3121   23.6997  -28.7842 H   0  0  0  0  0  0  0  0  0  0  0  0
   -4.0649   25.0459  -28.1055 H   0  0  0  0  0  0  0  0  0  0  0  0
   -3.1593   23.4913  -26.3981 H   0  0  0  0  0  0  0  0  0  0  0  0
   -1.9883   21.4633  -25.8101 H   0  0  0  0  0  0  0  0  0  0  0  0
   -0.8349   19.3587  -26.4780 H   0  0  0  0  0  0  0  0  0  0  0  0
   -0.6282   18.7574  -28.8866 H   0  0  0  0  0  0  0  0  0  0  0  0
   -1.5547   20.2593  -30.6396 H   0  0  0  0  0  0  0  0  0  0  0  0
  1  2  1  0
  2  3  1  0
  2  4  1  0
  4  5  1  0
  5  6  1  0
  6  7  1  0
  6  8  1  0
  8  9  1  0
  9 10  2  0
 10 11  1  0
 11 12  1  0
 12 13  1  0
 13 14  2  0
 14 15  1  0
 15 16  2  0
 16 17  1  0
 16 18  1  0
 18 19  2  0
 10 20  1  0
 20 21  2  0
 21 22  1  0
 22 23  2  0
 23 24  1  0
 24 25  2  0
 25 26  1  0
 26 27  2  0
 27  9  1  0
 19 13  1  0
 27 22  1  0
  1 28  1  0
  1 29  1  0
  1 30  1  0
  3 31  1  0
  3 32  1  0
  3 33  1  0
  4 34  1  0
  4 35  1  0
  5 36  1  0
  5 37  1  0
  7 38  1  0
  7 39  1  0
  7 40  1  0
  8 41  1  0
  8 42  1  0
 12 43  1  0
 12 44  1  0
 14 45  1  0
 15 46  1  0
 18 47  1  0
 19 48  1  0
 20 49  1  0
 21 50  1  0
 23 51  1  0
 24 52  1  0
 25 53  1  0
 26 54  1  0
M  END
>  <UniqueID>  (38) 
36

>  <SMILES>  (38) 
CN(C)CCN(C)Cc1c(OCc2ccc(F)cc2)ccc2ccccc12

>  <Energy>  (38) 
62.85261822571085

>  <Genealogy>  (38) 
CN(C)CCN(C)Cc1c(OCc2ccc(F)cc2)ccc2ccccc12 (3D coordinates assigned)
CN(C)CCN(C)Cc1c(OCc2ccc(F)cc2)ccc2ccccc12 (optimized conformer: 62.85261822571085 kcal/mol)

>  <smiles>  (38) 
CN(C)CCN(C)Cc1c(OCc2ccc(F)cc2)ccc2ccccc12

>  <score_type>  (38) 
oracle

>  <origin>  (38) 
adg

>  <m_score__min__energy>  (38) 
-8.4800000000000004

>  <m_primary>  (38) 
energy

$$$$
38:0
     RDKit          3D

 48 51  0  0  0  0  0  0  0  0999 V2000
   -2.8460   18.9030  -26.1310 C   0  0  0  0  0  0  0  0  0  0  0  0
   -1.8930   19.5600  -26.9600 O   0  0  0  0  0  0  0  0  0  0  0  0
   -2.0900   20.8170  -27.5540 C   0  0  0  0  0  0  0  0  0  0  0  0
   -3.3490   21.4440  -27.5740 C   0  0  0  0  0  0  0  0  0  0  0  0
   -3.5050   22.6970  -28.1690 C   0  0  0  0  0  0  0  0  0  0  0  0
   -2.4070   23.3540  -28.7460 C   0  0  0  0  0  0  0  0  0  0  0  0
   -2.5600   24.6880  -29.3720 C   0  0  0  0  0  0  0  0  0  0  0  0
   -1.8440   25.6430  -28.9700 O   0  0  0  0  0  0  0  0  0  0  0  0
   -3.4850   24.9290  -30.4420 N   0  0  0  0  0  0  0  0  0  0  0  0
   -4.7110   24.2170  -30.6660 C   0  0  0  0  0  0  0  0  0  0  0  0
   -4.6520   23.0050  -31.3670 C   0  0  0  0  0  0  0  0  0  0  0  0
   -5.8080   22.2370  -31.5840 C   0  0  0  0  0  0  0  0  0  0  0  0
   -5.7400   20.9420  -32.3010 C   0  0  0  0  0  0  0  0  0  0  0  0
   -4.6120   20.4880  -32.9080 N   0  0  0  0  0  0  0  0  0  0  0  0
   -4.8150   19.2800  -33.4930 C   0  0  0  0  0  0  0  0  0  0  0  0
   -3.8380   18.5670  -34.1900 C   0  0  0  0  0  0  0  0  0  0  0  0
   -4.1810   17.3230  -34.7490 C   0  0  0  0  0  0  0  0  0  0  0  0
   -5.4870   16.8110  -34.6070 C   0  0  0  0  0  0  0  0  0  0  0  0
   -6.4600   17.5380  -33.9040 C   0  0  0  0  0  0  0  0  0  0  0  0
   -6.0950   18.7670  -33.3600 C   0  0  0  0  0  0  0  0  0  0  0  0
   -7.0270   19.8470  -32.4790 S   0  0  0  0  0  0  0  0  0  0  0  0
   -7.0370   22.7110  -31.1000 C   0  0  0  0  0  0  0  0  0  0  0  0
   -7.1130   23.9350  -30.4350 C   0  0  0  0  0  0  0  0  0  0  0  0
   -5.9650   24.7140  -30.2330 C   0  0  0  0  0  0  0  0  0  0  0  0
   -6.1100   26.0550  -29.5650 C   0  0  0  0  0  0  0  0  0  0  0  0
   -1.1540   22.7190  -28.7450 C   0  0  0  0  0  0  0  0  0  0  0  0
   -0.9880   21.4550  -28.1440 C   0  0  0  0  0  0  0  0  0  0  0  0
    0.2550   20.8040  -28.1120 O   0  0  0  0  0  0  0  0  0  0  0  0
    0.5370   19.5700  -28.7650 C   0  0  0  0  0  0  0  0  0  0  0  0
   -2.5943   19.0765  -25.0743 H   0  0  0  0  0  0  0  0  0  0  0  0
   -3.8498   19.3019  -26.3391 H   0  0  0  0  0  0  0  0  0  0  0  0
   -2.8302   17.8230  -26.3391 H   0  0  0  0  0  0  0  0  0  0  0  0
   -4.2160   20.9438  -27.1179 H   0  0  0  0  0  0  0  0  0  0  0  0
   -4.4964   23.1734  -28.1858 H   0  0  0  0  0  0  0  0  0  0  0  0
   -3.6854   22.6495  -31.7533 H   0  0  0  0  0  0  0  0  0  0  0  0
   -2.8204   18.9701  -34.2998 H   0  0  0  0  0  0  0  0  0  0  0  0
   -3.4250   16.7453  -35.3010 H   0  0  0  0  0  0  0  0  0  0  0  0
   -5.7444   15.8373  -35.0493 H   0  0  0  0  0  0  0  0  0  0  0  0
   -7.4818   17.1482  -33.7860 H   0  0  0  0  0  0  0  0  0  0  0  0
   -7.9482   22.1123  -31.2462 H   0  0  0  0  0  0  0  0  0  0  0  0
   -8.0850   24.2931  -30.0648 H   0  0  0  0  0  0  0  0  0  0  0  0
   -6.0958   25.9241  -28.4729 H   0  0  0  0  0  0  0  0  0  0  0  0
   -5.2771   26.7070  -29.8670 H   0  0  0  0  0  0  0  0  0  0  0  0
   -7.0630   26.5139  -29.8670 H   0  0  0  0  0  0  0  0  0  0  0  0
   -0.2930   23.2136  -29.2184 H   0  0  0  0  0  0  0  0  0  0  0  0
    0.7155   18.7888  -28.0114 H   0  0  0  0  0  0  0  0  0  0  0  0
   -0.3189   19.2840  -29.3939 H   0  0  0  0  0  0  0  0  0  0  0  0
    1.4322   19.6842  -29.3939 H   0  0  0  0  0  0  0  0  0  0  0  0
  1  2  1  0
  2  3  1  0
  3  4  2  0
  4  5  1  0
  5  6  2  0
  6  7  1  0
  7  8  2  0
  7  9  1  0
  9 10  1  0
 10 11  2  0
 11 12  1  0
 12 13  1  0
 13 14  2  0
 14 15  1  0
 15 16  2  0
 16 17  1  0
 17 18  2  0
 18 19  1  0
 19 20  2  0
 20 21  1  0
 12 22  2  0
 22 23  1  0
 23 24  2  0
 24 25  1  0
  6 26  1  0
 26 27  2  0
 27 28  1  0
 28 29  1  0
 27  3  1  0
 24 10  1  0
 21 13  1  0
 20 15  1  0
  1 30  1  0
  1 31  1  0
  1 32  1  0
  4 33  1  0
  5 34  1  0
 11 35  1  0
 16 36  1  0
 17 37  1  0
 18 38  1  0
 19 39  1  0
 22 40  1  0
 23 41  1  0
 25 42  1  0
 25 43  1  0
 25 44  1  0
 26 45  1  0
 29 46  1  0
 29 47  1  0
 29 48  1  0
M  CHG  1   9  -1
M  END
>  <UniqueID>  (39) 
37

>  <SMILES>  (39) 
COc1ccc(C(=O)[N-]c2cc(-c3nc4ccccc4s3)ccc2C)cc1OC

>  <Energy>  (39) 
96.33149693631886

>  <Genealogy>  (39) 
COc1ccc(C(=O)[N-]c2cc(-c3nc4ccccc4s3)ccc2C)cc1OC (protonated)
COc1ccc(C(=O)[N-]c2cc(-c3nc4ccccc4s3)ccc2C)cc1OC (3D coordinates assigned)
COc1ccc(C(=O)[N-]c2cc(-c3nc4ccccc4s3)ccc2C)cc1OC (optimized conformer: 96.33149693631886 kcal/mol)

>  <smiles>  (39) 
COc1ccc(C(=O)Nc2cc(-c3nc4ccccc4s3)ccc2C)cc1OC

>  <score_type>  (39) 
oracle

>  <origin>  (39) 
adg

>  <m_score__min__energy>  (39) 
-11.380000000000001

>  <m_primary>  (39) 
energy

$$$$
39:0
     RDKit          3D

 45 47  0  0  0  0  0  0  0  0999 V2000
   -2.2980   21.5350  -32.1440 C   0  0  0  0  0  0  0  0  0  0  0  0
   -2.9090   21.0500  -33.4540 C   0  0  0  0  0  0  0  0  0  0  0  0
   -4.3200   21.2650  -33.4660 O   0  0  0  0  0  0  0  0  0  0  0  0
   -5.3050   20.2800  -33.2650 C   0  0  0  0  0  0  0  0  0  0  0  0
   -5.1980   18.9880  -33.8210 C   0  0  0  0  0  0  0  0  0  0  0  0
   -6.2180   18.0520  -33.6380 C   0  0  0  0  0  0  0  0  0  0  0  0
   -7.3580   18.3910  -32.9100 C   0  0  0  0  0  0  0  0  0  0  0  0
   -7.4780   19.6640  -32.3530 C   0  0  0  0  0  0  0  0  0  0  0  0
   -6.4500   20.6080  -32.5060 C   0  0  0  0  0  0  0  0  0  0  0  0
   -6.6080   21.9440  -31.8960 C   0  0  0  0  0  0  0  0  0  0  0  0
   -5.5610   22.7370  -31.5890 N   0  0  0  0  0  0  0  0  0  0  0  0
   -6.1030   23.8780  -31.1240 C   0  0  0  0  0  0  0  0  0  0  0  0
   -5.3180   25.1050  -30.7780 C   0  0  0  0  0  0  0  0  0  0  0  0
   -3.8830   24.7970  -30.6820 N   0  0  0  0  0  0  0  0  0  0  0  0
   -3.5810   23.8290  -29.6130 C   0  0  0  0  0  0  0  0  0  0  0  0
   -2.8720   24.4910  -28.4700 C   0  0  0  0  0  0  0  0  0  0  0  0
   -3.2970   24.5210  -27.1490 C   0  0  0  0  0  0  0  0  0  0  0  0
   -2.4230   25.2170  -26.3050 C   0  0  0  0  0  0  0  0  0  0  0  0
   -1.3190   25.7470  -26.9600 C   0  0  0  0  0  0  0  0  0  0  0  0
   -1.4320   25.3510  -28.5910 S   0  0  0  0  0  0  0  0  0  0  0  0
   -7.4780   23.7720  -31.1570 C   0  0  0  0  0  0  0  0  0  0  0  0
   -7.7910   22.5620  -31.6590 N   0  0  0  0  0  0  0  0  0  0  0  0
   -9.1420   22.0970  -31.9600 C   0  0  0  0  0  0  0  0  0  0  0  0
   -2.8490   21.0976  -31.2983 H   0  0  0  0  0  0  0  0  0  0  0  0
   -1.2437   21.2252  -32.0943 H   0  0  0  0  0  0  0  0  0  0  0  0
   -2.3605   22.6321  -32.0943 H   0  0  0  0  0  0  0  0  0  0  0  0
   -2.4533   21.6007  -34.2901 H   0  0  0  0  0  0  0  0  0  0  0  0
   -2.7160   19.9718  -33.5549 H   0  0  0  0  0  0  0  0  0  0  0  0
   -4.3049   18.7159  -34.4027 H   0  0  0  0  0  0  0  0  0  0  0  0
   -6.1220   17.0446  -34.0693 H   0  0  0  0  0  0  0  0  0  0  0  0
   -8.1632   17.6539  -32.7749 H   0  0  0  0  0  0  0  0  0  0  0  0
   -8.3846   19.9304  -31.7898 H   0  0  0  0  0  0  0  0  0  0  0  0
   -4.5450   22.5270  -31.7180 H   0  0  0  0  0  0  0  0  0  0  0  0
   -5.4725   25.8641  -31.5590 H   0  0  0  0  0  0  0  0  0  0  0  0
   -5.6637   25.4818  -29.8041 H   0  0  0  0  0  0  0  0  0  0  0  0
   -3.6030   24.3530  -31.5880 H   0  0  0  0  0  0  0  0  0  0  0  0
   -4.5221   23.3922  -29.2475 H   0  0  0  0  0  0  0  0  0  0  0  0
   -2.9260   23.0470  -30.0246 H   0  0  0  0  0  0  0  0  0  0  0  0
   -4.2261   24.0462  -26.8005 H   0  0  0  0  0  0  0  0  0  0  0  0
   -2.5947   25.3331  -25.2247 H   0  0  0  0  0  0  0  0  0  0  0  0
   -0.5094   26.3265  -26.4924 H   0  0  0  0  0  0  0  0  0  0  0  0
   -8.1935   24.5410  -30.8305 H   0  0  0  0  0  0  0  0  0  0  0  0
   -9.6834   21.9107  -31.0208 H   0  0  0  0  0  0  0  0  0  0  0  0
   -9.6725   22.8643  -32.5430 H   0  0  0  0  0  0  0  0  0  0  0  0
   -9.0879   21.1658  -32.5430 H   0  0  0  0  0  0  0  0  0  0  0  0
  1  2  1  0
  2  3  1  0
  3  4  1  0
  4  5  2  0
  5  6  1  0
  6  7  2  0
  7  8  1  0
  8  9  2  0
  9 10  1  0
 10 11  2  0
 11 12  1  0
 12 13  1  0
 13 14  1  0
 14 15  1  0
 15 16  1  0
 16 17  2  0
 17 18  1  0
 18 19  2  0
 19 20  1  0
 12 21  2  0
 21 22  1  0
 22 23  1  0
  9  4  1  0
 22 10  1  0
 20 16  1  0
  1 24  1  0
  1 25  1  0
  1 26  1  0
  2 27  1  0
  2 28  1  0
  5 29  1  0
  6 30  1  0
  7 31  1  0
  8 32  1  0
 11 33  1  0
 13 34  1  0
 13 35  1  0
 14 36  1  0
 15 37  1  0
 15 38  1  0
 17 39  1  0
 18 40  1  0
 19 41  1  0
 21 42  1  0
 23 43  1  0
 23 44  1  0
 23 45  1  0
M  CHG  1  11   1
M  END
>  <UniqueID>  (40) 
38

>  <SMILES>  (40) 
CCOc1ccccc1-c1[nH+]c(CNCc2cccs2)cn1C

>  <Energy>  (40) 
100.64585583388316

>  <Genealogy>  (40) 
CCOc1ccccc1-c1[nH+]c(CNCc2cccs2)cn1C (protonated)
CCOc1ccccc1-c1[nH+]c(CNCc2cccs2)cn1C (3D coordinates assigned)
CCOc1ccccc1-c1[nH+]c(CNCc2cccs2)cn1C (optimized conformer: 100.64585583388316 kcal/mol)

>  <smiles>  (40) 
CCOc1ccccc1-c1nc(CNCc2cccs2)cn1C

>  <score_type>  (40) 
oracle

>  <origin>  (40) 
adg

>  <m_score__min__energy>  (40) 
-7.54

>  <m_primary>  (40) 
energy

$$$$
40:0
     RDKit          3D

 27 29  0  0  0  0  0  0  0  0999 V2000
   -5.8120   17.8730  -31.9730 C   0  0  0  0  0  0  0  0  0  0  0  0
   -7.1770   18.4780  -32.0570 C   0  0  0  0  0  0  0  0  0  0  0  0
   -8.3050   17.7960  -32.3500 N   0  0  0  0  0  0  0  0  0  0  0  0
   -9.3260   18.6460  -32.3430 N   0  0  0  0  0  0  0  0  0  0  0  0
   -8.7920   19.8450  -32.0430 C   0  0  0  0  0  0  0  0  0  0  0  0
   -9.4690   21.0520  -31.9230 C   0  0  0  0  0  0  0  0  0  0  0  0
   -8.7130   22.1920  -31.6040 C   0  0  0  0  0  0  0  0  0  0  0  0
   -7.3080   22.1040  -31.4130 C   0  0  0  0  0  0  0  0  0  0  0  0
   -6.5110   23.3110  -31.0780 C   0  0  0  0  0  0  0  0  0  0  0  0
   -7.0600   24.3480  -30.3050 C   0  0  0  0  0  0  0  0  0  0  0  0
   -6.2960   25.4760  -29.9990 C   0  0  0  0  0  0  0  0  0  0  0  0
   -4.9850   25.5630  -30.4670 C   0  0  0  0  0  0  0  0  0  0  0  0
   -4.4620   24.5540  -31.2130 N   0  0  0  0  0  0  0  0  0  0  0  0
   -5.1830   23.4460  -31.5260 C   0  0  0  0  0  0  0  0  0  0  0  0
   -6.6870   20.8430  -31.5510 C   0  0  0  0  0  0  0  0  0  0  0  0
   -7.4650   19.7760  -31.8600 N   0  0  0  0  0  0  0  0  0  0  0  0
   -5.5306   17.7483  -30.9169 H   0  0  0  0  0  0  0  0  0  0  0  0
   -5.8146   16.8917  -32.4701 H   0  0  0  0  0  0  0  0  0  0  0  0
   -5.0867   18.5340  -32.4701 H   0  0  0  0  0  0  0  0  0  0  0  0
   -8.3850   16.7740  -32.5520 H   0  0  0  0  0  0  0  0  0  0  0  0
  -10.5571   21.1128  -32.0723 H   0  0  0  0  0  0  0  0  0  0  0  0
   -9.2152   23.1652  -31.5008 H   0  0  0  0  0  0  0  0  0  0  0  0
   -8.0948   24.2710  -29.9398 H   0  0  0  0  0  0  0  0  0  0  0  0
   -6.7243   26.2888  -29.3942 H   0  0  0  0  0  0  0  0  0  0  0  0
   -4.3746   26.4476  -30.2326 H   0  0  0  0  0  0  0  0  0  0  0  0
   -4.7268   22.6499  -32.1328 H   0  0  0  0  0  0  0  0  0  0  0  0
   -5.6018   20.7294  -31.4116 H   0  0  0  0  0  0  0  0  0  0  0  0
  1  2  1  0
  2  3  2  0
  3  4  1  0
  4  5  2  0
  5  6  1  0
  6  7  2  0
  7  8  1  0
  8  9  1  0
  9 10  2  0
 10 11  1  0
 11 12  2  0
 12 13  1  0
 13 14  2  0
  8 15  2  0
 15 16  1  0
 16  2  1  0
 16  5  1  0
 14  9  1  0
  1 17  1  0
  1 18  1  0
  1 19  1  0
  3 20  1  0
  6 21  1  0
  7 22  1  0
 10 23  1  0
 11 24  1  0
 12 25  1  0
 14 26  1  0
 15 27  1  0
M  CHG  1   3   1
M  END
>  <UniqueID>  (41) 
39

>  <SMILES>  (41) 
Cc1[nH+]nc2ccc(-c3cccnc3)cn12

>  <Energy>  (41) 
75.72199899538471

>  <Genealogy>  (41) 
Cc1[nH+]nc2ccc(-c3cccnc3)cn12 (protonated)
Cc1[nH+]nc2ccc(-c3cccnc3)cn12 (3D coordinates assigned)
Cc1[nH+]nc2ccc(-c3cccnc3)cn12 (optimized conformer: 75.72199899538471 kcal/mol)

>  <smiles>  (41) 
Cc1nnc2ccc(-c3cccnc3)cn12

>  <score_type>  (41) 
oracle

>  <origin>  (41) 
adg

>  <m_score__min__energy>  (41) 
-6.9299999999999997

>  <m_primary>  (41) 
energy

$$$$
41:0
     RDKit          3D

 50 52  0  0  0  0  0  0  0  0999 V2000
   -3.7434   19.7708  -30.6144 H   0  0  0  0  0  0  0  0  0  0  0  0
   -4.2080   20.7100  -30.9490 C   0  0  0  0  0  0  0  0  0  0  0  0
   -5.2990   20.6310  -31.7250 C   0  0  0  0  0  0  0  0  0  0  0  0
   -5.8933   21.5409  -31.8949 H   0  0  0  0  0  0  0  0  0  0  0  0
   -5.7360   19.3660  -32.3630 C   0  0  0  0  0  0  0  0  0  0  0  0
   -7.0340   19.1910  -32.9010 C   0  0  0  0  0  0  0  0  0  0  0  0
   -7.8930   20.1690  -32.8940 N   0  0  0  0  0  0  0  0  0  0  0  0
   -9.0880   20.2360  -32.0530 C   0  0  0  0  0  0  0  0  0  0  0  0
   -9.9836   20.1878  -32.6899 H   0  0  0  0  0  0  0  0  0  0  0  0
   -9.0803   19.3894  -31.3507 H   0  0  0  0  0  0  0  0  0  0  0  0
   -9.1030   21.5540  -31.2520 C   0  0  0  0  0  0  0  0  0  0  0  0
   -9.8382   22.2292  -31.7141 H   0  0  0  0  0  0  0  0  0  0  0  0
   -9.3572   21.2887  -30.2152 H   0  0  0  0  0  0  0  0  0  0  0  0
   -7.8000   22.2530  -31.2020 N   0  0  0  0  0  0  0  0  0  0  0  0
   -7.7100   23.3720  -32.1530 C   0  0  0  0  0  0  0  0  0  0  0  0
   -7.6338   24.3191  -31.5987 H   0  0  0  0  0  0  0  0  0  0  0  0
   -6.8192   23.2448  -32.7857 H   0  0  0  0  0  0  0  0  0  0  0  0
   -8.6097   23.3888  -32.7857 H   0  0  0  0  0  0  0  0  0  0  0  0
   -7.4310   22.6780  -29.8430 C   0  0  0  0  0  0  0  0  0  0  0  0
   -7.9672   22.0604  -29.1074 H   0  0  0  0  0  0  0  0  0  0  0  0
   -6.3467   22.5569  -29.7027 H   0  0  0  0  0  0  0  0  0  0  0  0
   -7.7031   23.7345  -29.7027 H   0  0  0  0  0  0  0  0  0  0  0  0
   -7.3610   17.9950  -33.4650 N   0  0  0  0  0  0  0  0  0  0  0  0
   -6.4730   16.9740  -33.5390 C   0  0  0  0  0  0  0  0  0  0  0  0
   -6.8400   15.7550  -34.1200 C   0  0  0  0  0  0  0  0  0  0  0  0
   -7.8580   15.6167  -34.5132 H   0  0  0  0  0  0  0  0  0  0  0  0
   -5.9110   14.7130  -34.2000 C   0  0  0  0  0  0  0  0  0  0  0  0
   -6.1989   13.7547  -34.6569 H   0  0  0  0  0  0  0  0  0  0  0  0
   -4.6160   14.8870  -33.7000 C   0  0  0  0  0  0  0  0  0  0  0  0
   -3.8884   14.0645  -33.7645 H   0  0  0  0  0  0  0  0  0  0  0  0
   -4.2430   16.1040  -33.1180 C   0  0  0  0  0  0  0  0  0  0  0  0
   -3.2239   16.2375  -32.7261 H   0  0  0  0  0  0  0  0  0  0  0  0
   -5.1710   17.1540  -33.0350 C   0  0  0  0  0  0  0  0  0  0  0  0
   -4.8340   18.3470  -32.4690 N   0  0  0  0  0  0  0  0  0  0  0  0
   -3.8680   18.4810  -32.0900 H   0  0  0  0  0  0  0  0  0  0  0  0
   -3.5890   21.9870  -30.5140 C   0  0  0  0  0  0  0  0  0  0  0  0
   -2.3980   22.0360  -29.7650 C   0  0  0  0  0  0  0  0  0  0  0  0
   -1.8878   21.1019  -29.4872 H   0  0  0  0  0  0  0  0  0  0  0  0
   -1.8610   23.2630  -29.3730 C   0  0  0  0  0  0  0  0  0  0  0  0
   -0.9256   23.2913  -28.7948 H   0  0  0  0  0  0  0  0  0  0  0  0
   -2.5050   24.4550  -29.7110 C   0  0  0  0  0  0  0  0  0  0  0  0
   -1.9570   25.6700  -29.3130 O   0  0  0  0  0  0  0  0  0  0  0  0
   -3.6990   24.4310  -30.4430 C   0  0  0  0  0  0  0  0  0  0  0  0
   -4.3170   25.6520  -30.7580 O   0  0  0  0  0  0  0  0  0  0  0  0
   -5.6710   25.9700  -30.4590 C   0  0  0  0  0  0  0  0  0  0  0  0
   -5.8078   26.0021  -29.3680 H   0  0  0  0  0  0  0  0  0  0  0  0
   -5.9207   26.9512  -30.8889 H   0  0  0  0  0  0  0  0  0  0  0  0
   -6.3314   25.2025  -30.8889 H   0  0  0  0  0  0  0  0  0  0  0  0
   -4.2390   23.1910  -30.8370 C   0  0  0  0  0  0  0  0  0  0  0  0
   -5.1810   23.1645  -31.4044 H   0  0  0  0  0  0  0  0  0  0  0  0
  1  2  1  0
  2  3  2  0
  3  4  1  0
  3  5  1  0
  5  6  1  0
  6  7  2  0
  7  8  1  0
  8  9  1  0
  8 10  1  0
  8 11  1  0
 11 12  1  0
 11 13  1  0
 11 14  1  0
 14 15  1  0
 15 16  1  0
 15 17  1  0
 15 18  1  0
 14 19  1  0
 19 20  1  0
 19 21  1  0
 19 22  1  0
  6 23  1  0
 23 24  1  0
 24 25  2  0
 25 26  1  0
 25 27  1  0
 27 28  1  0
 27 29  2  0
 29 30  1  0
 29 31  1  0
 31 32  1  0
 31 33  2  0
 33 34  1  0
 34 35  1  0
  2 36  1  0
 36 37  2  0
 37 38  1  0
 37 39  1  0
 39 40  1  0
 39 41  2  0
 41 42  1  0
 41 43  1  0
 43 44  1  0
 44 45  1  0
 45 46  1  0
 45 47  1  0
 45 48  1  0
 43 49  2  0
 49 50  1  0
 34  5  2  0
 49 36  1  0
 33 24  1  0
M  CHG  3  23  -1  34   1  42  -1
M  END
>  <UniqueID>  (42) 
40

>  <SMILES>  (42) 
COc1cc(/C=C/c2[nH+]c3ccccc3[n-]/c2=N\CCN(C)C)ccc1[O-]

>  <Energy>  (42) 
63.955550388014444

>  <Genealogy>  (42) 
COc1cc(C=Cc2[nH+]c3ccccc3[n-]c2=NCCN(C)C)ccc1[O-] (protonated)
COc1cc(/C=C/c2[nH+]c3ccccc3[n-]/c2=N\CCN(C)C)ccc1[O-] (cis-trans isomerization)
COc1cc(/C=C/c2[nH+]c3ccccc3[n-]/c2=N\CCN(C)C)ccc1[O-] (3D coordinates assigned)
COc1cc(/C=C/c2[nH+]c3ccccc3[n-]/c2=N\CCN(C)C)ccc1[O-] (optimized conformer: 63.955550388014444 kcal/mol)

>  <smiles>  (42) 
COc1cc(C=Cc2nc3ccccc3[nH]c2=NCCN(C)C)ccc1O

>  <score_type>  (42) 
oracle

>  <origin>  (42) 
adg

>  <m_score__min__energy>  (42) 
-10.85

>  <m_primary>  (42) 
energy

$$$$
42:0
     RDKit          3D

 45 47  0  0  0  0  0  0  0  0999 V2000
   -5.6020   25.2880  -28.8490 O   0  0  0  0  0  0  0  0  0  0  0  0
   -4.9740   24.2740  -29.7640 S   0  0  0  0  0  0  0  0  0  0  0  0
   -4.2440   25.0250  -30.8450 O   0  0  0  0  0  0  0  0  0  0  0  0
   -6.2540   23.3070  -30.4990 C   0  0  0  0  0  0  0  0  0  0  0  0
   -7.2990   22.8010  -29.7130 C   0  0  0  0  0  0  0  0  0  0  0  0
   -8.2950   22.0080  -30.2900 C   0  0  0  0  0  0  0  0  0  0  0  0
   -8.2600   21.7120  -31.6620 C   0  0  0  0  0  0  0  0  0  0  0  0
   -9.2920   20.7920  -32.2590 C   0  0  0  0  0  0  0  0  0  0  0  0
   -8.6510   19.7990  -33.1370 N   0  0  0  0  0  0  0  0  0  0  0  0
   -8.0560   18.6820  -32.3880 C   0  0  0  0  0  0  0  0  0  0  0  0
   -6.8790   18.1030  -33.1250 C   0  0  0  0  0  0  0  0  0  0  0  0
   -6.0090   18.9330  -33.8480 C   0  0  0  0  0  0  0  0  0  0  0  0
   -4.9100   18.3720  -34.5010 C   0  0  0  0  0  0  0  0  0  0  0  0
   -4.6860   17.0330  -34.4350 N   0  0  0  0  0  0  0  0  0  0  0  0
   -5.5210   16.2040  -33.7510 C   0  0  0  0  0  0  0  0  0  0  0  0
   -6.6360   16.7230  -33.0910 C   0  0  0  0  0  0  0  0  0  0  0  0
   -7.2160   22.2240  -32.4490 C   0  0  0  0  0  0  0  0  0  0  0  0
   -6.2200   23.0160  -31.8710 C   0  0  0  0  0  0  0  0  0  0  0  0
   -3.8270   23.3110  -28.8570 N   0  0  0  0  0  0  0  0  0  0  0  0
   -2.6480   22.9200  -29.6580 C   0  0  0  0  0  0  0  0  0  0  0  0
   -1.4140   23.7920  -29.3700 C   0  0  0  0  0  0  0  0  0  0  0  0
   -1.8080   25.0800  -28.9630 O   0  0  0  0  0  0  0  0  0  0  0  0
   -2.3940   25.0160  -27.6780 C   0  0  0  0  0  0  0  0  0  0  0  0
   -3.4800   23.9210  -27.5590 C   0  0  0  0  0  0  0  0  0  0  0  0
   -7.3352   23.0291  -28.6375 H   0  0  0  0  0  0  0  0  0  0  0  0
   -9.1105   21.6138  -29.6659 H   0  0  0  0  0  0  0  0  0  0  0  0
   -9.8233   20.2701  -31.4495 H   0  0  0  0  0  0  0  0  0  0  0  0
   -9.9993   21.3888  -32.8536 H   0  0  0  0  0  0  0  0  0  0  0  0
   -9.3940   19.3920  -33.7530 H   0  0  0  0  0  0  0  0  0  0  0  0
   -7.7212   19.0460  -31.4054 H   0  0  0  0  0  0  0  0  0  0  0  0
   -8.8161   17.8957  -32.2700 H   0  0  0  0  0  0  0  0  0  0  0  0
   -6.1913   20.0165  -33.8999 H   0  0  0  0  0  0  0  0  0  0  0  0
   -4.2233   19.0155  -35.0706 H   0  0  0  0  0  0  0  0  0  0  0  0
   -5.3169   15.1236  -33.7183 H   0  0  0  0  0  0  0  0  0  0  0  0
   -7.3193   16.0536  -32.5479 H   0  0  0  0  0  0  0  0  0  0  0  0
   -7.1818   22.0007  -33.5256 H   0  0  0  0  0  0  0  0  0  0  0  0
   -5.4056   23.4131  -32.4948 H   0  0  0  0  0  0  0  0  0  0  0  0
   -2.3994   21.8732  -29.4291 H   0  0  0  0  0  0  0  0  0  0  0  0
   -2.9087   23.0560  -30.7180 H   0  0  0  0  0  0  0  0  0  0  0  0
   -0.8190   23.3255  -28.5710 H   0  0  0  0  0  0  0  0  0  0  0  0
   -0.8140   23.8758  -30.2881 H   0  0  0  0  0  0  0  0  0  0  0  0
   -1.6032   24.8058  -26.9429 H   0  0  0  0  0  0  0  0  0  0  0  0
   -2.8829   25.9837  -27.4924 H   0  0  0  0  0  0  0  0  0  0  0  0
   -3.1101   23.1316  -26.8882 H   0  0  0  0  0  0  0  0  0  0  0  0
   -4.3892   24.3999  -27.1665 H   0  0  0  0  0  0  0  0  0  0  0  0
  1  2  2  0
  2  3  2  0
  2  4  1  0
  4  5  2  0
  5  6  1  0
  6  7  2  0
  7  8  1  0
  8  9  1  0
  9 10  1  0
 10 11  1  0
 11 12  2  0
 12 13  1  0
 13 14  2  0
 14 15  1  0
 15 16  2  0
  7 17  1  0
 17 18  2  0
  2 19  1  0
 19 20  1  0
 20 21  1  0
 21 22  1  0
 22 23  1  0
 23 24  1  0
 18  4  1  0
 24 19  1  0
 16 11  1  0
  5 25  1  0
  6 26  1  0
  8 27  1  0
  8 28  1  0
  9 29  1  0
 10 30  1  0
 10 31  1  0
 12 32  1  0
 13 33  1  0
 15 34  1  0
 16 35  1  0
 17 36  1  0
 18 37  1  0
 20 38  1  0
 20 39  1  0
 21 40  1  0
 21 41  1  0
 23 42  1  0
 23 43  1  0
 24 44  1  0
 24 45  1  0
M  END
>  <UniqueID>  (43) 
41

>  <SMILES>  (43) 
O=S(=O)(c1ccc(CNCc2ccncc2)cc1)N1CCOCC1

>  <Energy>  (43) 
54.145590011411905

>  <Genealogy>  (43) 
O=S(=O)(c1ccc(CNCc2ccncc2)cc1)N1CCOCC1 (3D coordinates assigned)
O=S(=O)(c1ccc(CNCc2ccncc2)cc1)N1CCOCC1 (nonaromatic ring conformer: 54.145590011411905 kcal/mol)

>  <smiles>  (43) 
O=S(=O)(c1ccc(CNCc2ccncc2)cc1)N1CCOCC1

>  <score_type>  (43) 
oracle

>  <origin>  (43) 
adg

>  <m_score__min__energy>  (43) 
-9.6199999999999992

>  <m_primary>  (43) 
energy

$$$$
43:0
     RDKit          3D

 46 48  0  0  0  0  0  0  0  0999 V2000
   -3.9670   23.8540  -30.5000 C   0  0  0  0  0  0  0  0  0  0  0  0
   -5.0080   24.6170  -31.2060 N   0  0  0  0  0  0  0  0  0  0  0  0
   -5.3640   25.8410  -30.4720 C   0  0  0  0  0  0  0  0  0  0  0  0
   -6.1850   23.7910  -31.5600 C   0  0  0  0  0  0  0  0  0  0  0  0
   -6.3520   22.5220  -30.6960 C   0  0  0  0  0  0  0  0  0  0  0  0
   -7.2430   21.5150  -31.3900 C   0  0  0  0  0  0  0  0  0  0  0  0
   -8.6300   21.5670  -31.1680 C   0  0  0  0  0  0  0  0  0  0  0  0
   -9.4900   20.6950  -31.8390 C   0  0  0  0  0  0  0  0  0  0  0  0
   -8.9800   19.7700  -32.7490 C   0  0  0  0  0  0  0  0  0  0  0  0
   -7.6070   19.7140  -32.9940 C   0  0  0  0  0  0  0  0  0  0  0  0
   -6.7270   20.5760  -32.3210 C   0  0  0  0  0  0  0  0  0  0  0  0
   -5.2850   20.4960  -32.6280 C   0  0  0  0  0  0  0  0  0  0  0  0
   -4.5990   21.6320  -33.0800 C   0  0  0  0  0  0  0  0  0  0  0  0
   -3.2280   21.5720  -33.3350 C   0  0  0  0  0  0  0  0  0  0  0  0
   -2.5200   20.3690  -33.1540 C   0  0  0  0  0  0  0  0  0  0  0  0
   -1.0580   20.3100  -33.4050 C   0  0  0  0  0  0  0  0  0  0  0  0
   -0.2210   19.5320  -32.5830 C   0  0  0  0  0  0  0  0  0  0  0  0
    1.1560   19.4820  -32.8200 C   0  0  0  0  0  0  0  0  0  0  0  0
    1.7120   20.2060  -33.8770 C   0  0  0  0  0  0  0  0  0  0  0  0
    0.8920   20.9830  -34.6990 C   0  0  0  0  0  0  0  0  0  0  0  0
   -0.4860   21.0360  -34.4670 C   0  0  0  0  0  0  0  0  0  0  0  0
   -3.2190   19.2260  -32.7290 C   0  0  0  0  0  0  0  0  0  0  0  0
   -4.5910   19.2880  -32.4720 C   0  0  0  0  0  0  0  0  0  0  0  0
   -4.1090   23.9581  -29.4142 H   0  0  0  0  0  0  0  0  0  0  0  0
   -4.0378   22.7923  -30.7790 H   0  0  0  0  0  0  0  0  0  0  0  0
   -2.9759   24.2411  -30.7790 H   0  0  0  0  0  0  0  0  0  0  0  0
   -5.3082   25.6492  -29.3903 H   0  0  0  0  0  0  0  0  0  0  0  0
   -4.6626   26.6454  -30.7384 H   0  0  0  0  0  0  0  0  0  0  0  0
   -6.3874   26.1437  -30.7384 H   0  0  0  0  0  0  0  0  0  0  0  0
   -7.0875   24.4089  -31.4432 H   0  0  0  0  0  0  0  0  0  0  0  0
   -6.0320   23.4505  -32.5947 H   0  0  0  0  0  0  0  0  0  0  0  0
   -5.3639   22.0707  -30.5227 H   0  0  0  0  0  0  0  0  0  0  0  0
   -6.8161   22.8043  -29.7395 H   0  0  0  0  0  0  0  0  0  0  0  0
   -9.0416   22.3009  -30.4596 H   0  0  0  0  0  0  0  0  0  0  0  0
  -10.5726   20.7381  -31.6491 H   0  0  0  0  0  0  0  0  0  0  0  0
   -9.6603   19.0836  -33.2744 H   0  0  0  0  0  0  0  0  0  0  0  0
   -7.2115   18.9886  -33.7202 H   0  0  0  0  0  0  0  0  0  0  0  0
   -5.1438   22.5751  -33.2344 H   0  0  0  0  0  0  0  0  0  0  0  0
   -2.6969   22.4714  -33.6799 H   0  0  0  0  0  0  0  0  0  0  0  0
   -0.6531   18.9597  -31.7489 H   0  0  0  0  0  0  0  0  0  0  0  0
    1.8026   18.8713  -32.1728 H   0  0  0  0  0  0  0  0  0  0  0  0
    2.7955   20.1645  -34.0623 H   0  0  0  0  0  0  0  0  0  0  0  0
    1.3311   21.5541  -35.5302 H   0  0  0  0  0  0  0  0  0  0  0  0
   -1.1269   21.6486  -35.1182 H   0  0  0  0  0  0  0  0  0  0  0  0
   -2.6817   18.2752  -32.5977 H   0  0  0  0  0  0  0  0  0  0  0  0
   -5.1287   18.3854  -32.1460 H   0  0  0  0  0  0  0  0  0  0  0  0
  1  2  1  0
  2  3  1  0
  2  4  1  0
  4  5  1  0
  5  6  1  0
  6  7  2  0
  7  8  1  0
  8  9  2  0
  9 10  1  0
 10 11  2  0
 11 12  1  0
 12 13  2  0
 13 14  1  0
 14 15  2  0
 15 16  1  0
 16 17  2  0
 17 18  1  0
 18 19  2  0
 19 20  1  0
 20 21  2  0
 15 22  1  0
 22 23  2  0
 11  6  1  0
 23 12  1  0
 21 16  1  0
  1 24  1  0
  1 25  1  0
  1 26  1  0
  3 27  1  0
  3 28  1  0
  3 29  1  0
  4 30  1  0
  4 31  1  0
  5 32  1  0
  5 33  1  0
  7 34  1  0
  8 35  1  0
  9 36  1  0
 10 37  1  0
 13 38  1  0
 14 39  1  0
 17 40  1  0
 18 41  1  0
 19 42  1  0
 20 43  1  0
 21 44  1  0
 22 45  1  0
 23 46  1  0
M  END
>  <UniqueID>  (44) 
42

>  <SMILES>  (44) 
CN(C)CCc1ccccc1-c1ccc(-c2ccccc2)cc1

>  <Energy>  (44) 
61.18505123183495

>  <Genealogy>  (44) 
CN(C)CCc1ccccc1-c1ccc(-c2ccccc2)cc1 (3D coordinates assigned)
CN(C)CCc1ccccc1-c1ccc(-c2ccccc2)cc1 (optimized conformer: 61.18505123183495 kcal/mol)

>  <smiles>  (44) 
CN(C)CCc1ccccc1-c1ccc(-c2ccccc2)cc1

>  <score_type>  (44) 
oracle

>  <origin>  (44) 
adg

>  <m_score__min__energy>  (44) 
-8.3900000000000006

>  <m_primary>  (44) 
energy

$$$$
44:0
     RDKit          3D

 33 33  0  0  0  0  0  0  0  0999 V2000
  -10.4855   18.8986  -32.3122 H   0  0  0  0  0  0  0  0  0  0  0  0
   -9.4800   19.3420  -32.3600 C   0  0  0  0  0  0  0  0  0  0  0  0
   -9.3260   20.7890  -32.1170 C   0  0  0  0  0  0  0  0  0  0  0  0
   -6.9280   21.3700  -32.7120 C   0  0  0  0  0  0  0  0  0  0  0  0
   -6.6720   20.5140  -33.5970 O   0  0  0  0  0  0  0  0  0  0  0  0
   -5.9170   22.3320  -32.2210 C   0  0  0  0  0  0  0  0  0  0  0  0
   -5.5544   22.9676  -33.0422 H   0  0  0  0  0  0  0  0  0  0  0  0
   -5.0317   21.8306  -31.8029 H   0  0  0  0  0  0  0  0  0  0  0  0
   -6.6600   23.1710  -31.1740 C   0  0  0  0  0  0  0  0  0  0  0  0
   -6.8544   24.1785  -31.5704 H   0  0  0  0  0  0  0  0  0  0  0  0
   -6.0559   23.2700  -30.2600 H   0  0  0  0  0  0  0  0  0  0  0  0
   -7.9890   22.4640  -30.8670 C   0  0  0  0  0  0  0  0  0  0  0  0
   -8.8166   23.1885  -30.8567 H   0  0  0  0  0  0  0  0  0  0  0  0
   -7.9754   21.9796  -29.8795 H   0  0  0  0  0  0  0  0  0  0  0  0
   -8.1760   21.4750  -31.9660 C   0  0  0  0  0  0  0  0  0  0  0  0
  -10.2551   21.3742  -32.0517 H   0  0  0  0  0  0  0  0  0  0  0  0
   -8.4690   18.5760  -32.6280 N   0  0  0  0  0  0  0  0  0  0  0  0
   -7.4900   18.1670  -31.6240 C   0  0  0  0  0  0  0  0  0  0  0  0
   -7.8523   17.2561  -31.1250 H   0  0  0  0  0  0  0  0  0  0  0  0
   -7.3726   18.9932  -30.9073 H   0  0  0  0  0  0  0  0  0  0  0  0
   -6.1120   17.8780  -32.2470 C   0  0  0  0  0  0  0  0  0  0  0  0
   -5.7490   16.9114  -31.8677 H   0  0  0  0  0  0  0  0  0  0  0  0
   -5.4386   18.7011  -31.9659 H   0  0  0  0  0  0  0  0  0  0  0  0
   -6.1600   17.8200  -33.7360 N   0  0  0  0  0  0  0  0  0  0  0  0
   -6.9000   18.4630  -34.1050 H   0  0  0  0  0  0  0  0  0  0  0  0
   -6.4980   16.4630  -34.1990 C   0  0  0  0  0  0  0  0  0  0  0  0
   -6.6609   15.8089  -33.3297 H   0  0  0  0  0  0  0  0  0  0  0  0
   -7.4143   16.5005  -34.8065 H   0  0  0  0  0  0  0  0  0  0  0  0
   -5.6712   16.0663  -34.8065 H   0  0  0  0  0  0  0  0  0  0  0  0
   -4.8730   18.2330  -34.3280 C   0  0  0  0  0  0  0  0  0  0  0  0
   -4.1570   18.4628  -33.5251 H   0  0  0  0  0  0  0  0  0  0  0  0
   -4.4769   17.4169  -34.9501 H   0  0  0  0  0  0  0  0  0  0  0  0
   -5.0257   19.1272  -34.9501 H   0  0  0  0  0  0  0  0  0  0  0  0
  1  2  1  0
  2  3  2  0
  3  4  1  0
  4  5  2  0
  4  6  1  0
  6  7  1  0
  6  8  1  0
  6  9  1  0
  9 10  1  0
  9 11  1  0
  9 12  1  0
 12 13  1  0
 12 14  1  0
  2 15  1  0
 15 16  1  0
 15 17  2  0
 17 18  1  0
 18 19  1  0
 18 20  1  0
 18 21  1  0
 21 22  1  0
 21 23  1  0
 21 24  1  0
 24 25  1  0
 24 26  1  0
 26 27  1  0
 26 28  1  0
 26 29  1  0
 24 30  1  0
 30 31  1  0
 30 32  1  0
 30 33  1  0
 12  3  1  0
M  CHG  1  24   1
M  END
>  <UniqueID>  (45) 
43

>  <SMILES>  (45) 
C[NH+](C)CC/N=C/C=C1CCCC1=O

>  <Energy>  (45) 
40.11744789488101

>  <Genealogy>  (45) 
C[NH+](C)CCN=CC=C1CCCC1=O (protonated)
C[NH+](C)CC/N=C/C=C1CCCC1=O (cis-trans isomerization)
C[NH+](C)CC/N=C/C=C1CCCC1=O (3D coordinates assigned)
C[NH+](C)CC/N=C/C=C1CCCC1=O (nonaromatic ring conformer: 40.11744789488101 kcal/mol)

>  <smiles>  (45) 
CN(C)CCN=CC=C1CCCC1=O

>  <score_type>  (45) 
oracle

>  <origin>  (45) 
adg

>  <m_score__min__energy>  (45) 
-4.2199999999999998

>  <m_primary>  (45) 
energy

$$$$
45:0
     RDKit          3D

 59 62  0  0  0  0  0  0  0  0999 V2000
   -6.2870   20.7110  -33.6150 F   0  0  0  0  0  0  0  0  0  0  0  0
   -4.9980   20.5950  -33.2120 C   0  0  0  0  0  0  0  0  0  0  0  0
   -4.2590   21.7760  -33.0970 C   0  0  0  0  0  0  0  0  0  0  0  0
   -2.9200   21.7390  -32.7180 C   0  0  0  0  0  0  0  0  0  0  0  0
   -2.3090   20.5150  -32.4620 C   0  0  0  0  0  0  0  0  0  0  0  0
   -3.0330   19.3250  -32.5770 C   0  0  0  0  0  0  0  0  0  0  0  0
   -4.4060   19.3290  -32.9380 C   0  0  0  0  0  0  0  0  0  0  0  0
   -5.2240   18.0110  -33.1010 C   0  0  0  0  0  0  0  0  0  0  0  0
   -6.4410   18.1040  -32.1130 C   0  0  0  0  0  0  0  0  0  0  0  0
   -7.8480   17.7720  -32.6700 C   0  0  0  0  0  0  0  0  0  0  0  0
   -8.6500   18.9910  -32.8940 N   0  0  0  0  0  0  0  0  0  0  0  0
   -9.0370   19.6470  -31.6340 C   0  0  0  0  0  0  0  0  0  0  0  0
   -8.6360   21.1040  -31.6020 C   0  0  0  0  0  0  0  0  0  0  0  0
   -9.4770   22.0820  -32.1510 C   0  0  0  0  0  0  0  0  0  0  0  0
   -9.0710   23.4160  -32.1540 C   0  0  0  0  0  0  0  0  0  0  0  0
   -7.8620   23.7600  -31.6400 N   0  0  0  0  0  0  0  0  0  0  0  0
   -7.0140   22.8400  -31.1000 C   0  0  0  0  0  0  0  0  0  0  0  0
   -5.7390   23.2690  -30.5870 N   0  0  0  0  0  0  0  0  0  0  0  0
   -4.7810   22.4080  -29.9110 C   0  0  0  0  0  0  0  0  0  0  0  0
   -3.5530   23.2730  -29.6570 C   0  0  0  0  0  0  0  0  0  0  0  0
   -4.0110   24.7140  -29.8450 C   0  0  0  0  0  0  0  0  0  0  0  0
   -5.2680   24.6390  -30.6990 C   0  0  0  0  0  0  0  0  0  0  0  0
   -7.4010   21.4890  -31.0600 C   0  0  0  0  0  0  0  0  0  0  0  0
   -5.7160   17.7730  -34.5640 C   0  0  0  0  0  0  0  0  0  0  0  0
   -4.5540   17.4420  -35.5350 C   0  0  0  0  0  0  0  0  0  0  0  0
   -3.2920   17.5220  -34.9010 O   0  0  0  0  0  0  0  0  0  0  0  0
   -3.2120   16.5830  -33.8430 C   0  0  0  0  0  0  0  0  0  0  0  0
   -4.3220   16.7800  -32.7820 C   0  0  0  0  0  0  0  0  0  0  0  0
   -4.7396   22.7427  -33.3078 H   0  0  0  0  0  0  0  0  0  0  0  0
   -2.3473   22.6732  -32.6213 H   0  0  0  0  0  0  0  0  0  0  0  0
   -1.2497   20.4840  -32.1673 H   0  0  0  0  0  0  0  0  0  0  0  0
   -2.5290   18.3665  -32.3840 H   0  0  0  0  0  0  0  0  0  0  0  0
   -6.2440   17.4096  -31.2829 H   0  0  0  0  0  0  0  0  0  0  0  0
   -6.4949   19.1677  -31.8378 H   0  0  0  0  0  0  0  0  0  0  0  0
   -7.7361   17.2387  -33.6256 H   0  0  0  0  0  0  0  0  0  0  0  0
   -8.3712   17.1496  -31.9291 H   0  0  0  0  0  0  0  0  0  0  0  0
   -9.5040   18.7870  -33.4590 H   0  0  0  0  0  0  0  0  0  0  0  0
   -8.0720   19.6710  -33.4440 H   0  0  0  0  0  0  0  0  0  0  0  0
  -10.1288   19.5775  -31.5193 H   0  0  0  0  0  0  0  0  0  0  0  0
   -8.5146   19.1349  -30.8125 H   0  0  0  0  0  0  0  0  0  0  0  0
  -10.4510   21.7989  -32.5767 H   0  0  0  0  0  0  0  0  0  0  0  0
   -9.7305   24.1903  -32.5730 H   0  0  0  0  0  0  0  0  0  0  0  0
   -5.1971   22.0447  -28.9597 H   0  0  0  0  0  0  0  0  0  0  0  0
   -4.5348   21.5229  -30.5159 H   0  0  0  0  0  0  0  0  0  0  0  0
   -3.1824   23.1199  -28.6327 H   0  0  0  0  0  0  0  0  0  0  0  0
   -2.7308   23.0180  -30.3418 H   0  0  0  0  0  0  0  0  0  0  0  0
   -4.2355   25.1750  -28.8718 H   0  0  0  0  0  0  0  0  0  0  0  0
   -3.2328   25.3282  -30.3215 H   0  0  0  0  0  0  0  0  0  0  0  0
   -6.0294   25.3382  -30.3229 H   0  0  0  0  0  0  0  0  0  0  0  0
   -5.0652   24.9141  -31.7445 H   0  0  0  0  0  0  0  0  0  0  0  0
   -6.7384   20.7375  -30.6058 H   0  0  0  0  0  0  0  0  0  0  0  0
   -6.4265   16.9332  -34.5650 H   0  0  0  0  0  0  0  0  0  0  0  0
   -6.1884   18.7031  -34.9131 H   0  0  0  0  0  0  0  0  0  0  0  0
   -4.6934   16.4211  -35.9202 H   0  0  0  0  0  0  0  0  0  0  0  0
   -4.5717   18.1815  -36.3492 H   0  0  0  0  0  0  0  0  0  0  0  0
   -3.3033   15.5707  -34.2636 H   0  0  0  0  0  0  0  0  0  0  0  0
   -2.2441   16.7302  -33.3415 H   0  0  0  0  0  0  0  0  0  0  0  0
   -4.9502   15.8775  -32.7536 H   0  0  0  0  0  0  0  0  0  0  0  0
   -3.8361   16.9577  -31.8113 H   0  0  0  0  0  0  0  0  0  0  0  0
  1  2  1  0
  2  3  2  0
  3  4  1  0
  4  5  2  0
  5  6  1  0
  6  7  2  0
  7  8  1  0
  8  9  1  0
  9 10  1  0
 10 11  1  0
 11 12  1  0
 12 13  1  0
 13 14  2  0
 14 15  1  0
 15 16  2  0
 16 17  1  0
 17 18  1  0
 18 19  1  0
 19 20  1  0
 20 21  1  0
 21 22  1  0
 17 23  2  0
  8 24  1  0
 24 25  1  0
 25 26  1  0
 26 27  1  0
 27 28  1  0
  7  2  1  0
 28  8  1  0
 23 13  1  0
 22 18  1  0
  3 29  1  0
  4 30  1  0
  5 31  1  0
  6 32  1  0
  9 33  1  0
  9 34  1  0
 10 35  1  0
 10 36  1  0
 11 37  1  0
 11 38  1  0
 12 39  1  0
 12 40  1  0
 14 41  1  0
 15 42  1  0
 19 43  1  0
 19 44  1  0
 20 45  1  0
 20 46  1  0
 21 47  1  0
 21 48  1  0
 22 49  1  0
 22 50  1  0
 23 51  1  0
 24 52  1  0
 24 53  1  0
 25 54  1  0
 25 55  1  0
 27 56  1  0
 27 57  1  0
 28 58  1  0
 28 59  1  0
M  CHG  1  11   1
M  END
>  <UniqueID>  (46) 
44

>  <SMILES>  (46) 
Fc1ccccc1C1(CC[NH2+]Cc2ccnc(N3CCCC3)c2)CCOCC1

>  <Energy>  (46) 
82.24906024954144

>  <Genealogy>  (46) 
Fc1ccccc1C1(CC[NH2+]Cc2ccnc(N3CCCC3)c2)CCOCC1 (protonated)
Fc1ccccc1C1(CC[NH2+]Cc2ccnc(N3CCCC3)c2)CCOCC1 (3D coordinates assigned)
Fc1ccccc1C1(CC[NH2+]Cc2ccnc(N3CCCC3)c2)CCOCC1 (nonaromatic ring conformer: 82.24906024954144 kcal/mol)

>  <smiles>  (46) 
Fc1ccccc1C1(CCNCc2ccnc(N3CCCC3)c2)CCOCC1

>  <score_type>  (46) 
oracle

>  <origin>  (46) 
adg

>  <m_score__min__energy>  (46) 
-8.7100000000000009

>  <m_primary>  (46) 
energy

$$$$
46:0
     RDKit          3D

 43 46  0  0  0  0  0  0  0  0999 V2000
   -4.2030   23.5070  -28.8360 C   0  0  0  0  0  0  0  0  0  0  0  0
   -3.4510   24.5520  -29.3740 C   0  0  0  0  0  0  0  0  0  0  0  0
   -3.9010   25.2230  -30.4660 N   0  0  0  0  0  0  0  0  0  0  0  0
   -5.0820   24.9090  -31.0620 C   0  0  0  0  0  0  0  0  0  0  0  0
   -5.8780   23.8710  -30.5520 C   0  0  0  0  0  0  0  0  0  0  0  0
   -7.1960   23.5130  -31.2080 C   0  0  0  0  0  0  0  0  0  0  0  0
   -7.2050   22.1760  -31.8400 N   0  0  0  0  0  0  0  0  0  0  0  0
   -5.8680   21.7520  -32.3260 C   0  0  0  0  0  0  0  0  0  0  0  0
   -5.9960   20.5480  -33.2830 C   0  0  0  0  0  0  0  0  0  0  0  0
   -6.9360   19.5380  -32.7000 C   0  0  0  0  0  0  0  0  0  0  0  0
   -7.8300   19.8340  -31.7090 C   0  0  0  0  0  0  0  0  0  0  0  0
   -8.5910   18.7550  -31.4540 N   0  0  0  0  0  0  0  0  0  0  0  0
   -8.1640   17.8190  -32.3320 C   0  0  0  0  0  0  0  0  0  0  0  0
   -7.1510   18.2710  -33.1070 N   0  0  0  0  0  0  0  0  0  0  0  0
   -6.5070   17.5570  -34.2080 C   0  0  0  0  0  0  0  0  0  0  0  0
   -5.1400   17.0890  -33.7940 C   0  0  0  0  0  0  0  0  0  0  0  0
   -4.0110   17.8910  -34.0170 C   0  0  0  0  0  0  0  0  0  0  0  0
   -2.7480   17.4180  -33.6490 C   0  0  0  0  0  0  0  0  0  0  0  0
   -2.6170   16.1880  -33.0840 N   0  0  0  0  0  0  0  0  0  0  0  0
   -3.6940   15.3890  -32.8620 C   0  0  0  0  0  0  0  0  0  0  0  0
   -4.9740   15.8230  -33.2150 C   0  0  0  0  0  0  0  0  0  0  0  0
   -7.8470   21.1440  -30.9910 C   0  0  0  0  0  0  0  0  0  0  0  0
   -5.4190   23.1640  -29.4300 C   0  0  0  0  0  0  0  0  0  0  0  0
   -3.8416   22.9592  -27.9532 H   0  0  0  0  0  0  0  0  0  0  0  0
   -2.4925   24.8328  -28.9132 H   0  0  0  0  0  0  0  0  0  0  0  0
   -5.4152   25.4705  -31.9473 H   0  0  0  0  0  0  0  0  0  0  0  0
   -7.9836   23.5390  -30.4405 H   0  0  0  0  0  0  0  0  0  0  0  0
   -7.3645   24.2472  -32.0096 H   0  0  0  0  0  0  0  0  0  0  0  0
   -5.3947   22.5895  -32.8596 H   0  0  0  0  0  0  0  0  0  0  0  0
   -5.2538   21.4559  -31.4628 H   0  0  0  0  0  0  0  0  0  0  0  0
   -6.3841   20.8916  -34.2532 H   0  0  0  0  0  0  0  0  0  0  0  0
   -5.0071   20.0872  -33.4233 H   0  0  0  0  0  0  0  0  0  0  0  0
   -9.3500   18.6610  -30.7440 H   0  0  0  0  0  0  0  0  0  0  0  0
   -8.5906   16.8079  -32.4073 H   0  0  0  0  0  0  0  0  0  0  0  0
   -7.1205   16.6870  -34.4850 H   0  0  0  0  0  0  0  0  0  0  0  0
   -6.4088   18.2363  -35.0676 H   0  0  0  0  0  0  0  0  0  0  0  0
   -4.1186   18.8841  -34.4777 H   0  0  0  0  0  0  0  0  0  0  0  0
   -1.8580   18.0423  -33.8169 H   0  0  0  0  0  0  0  0  0  0  0  0
   -3.5573   14.3985  -32.4034 H   0  0  0  0  0  0  0  0  0  0  0  0
   -5.8460   15.1757  -33.0398 H   0  0  0  0  0  0  0  0  0  0  0  0
   -8.8870   21.4350  -30.7819 H   0  0  0  0  0  0  0  0  0  0  0  0
   -7.2967   21.0520  -30.0430 H   0  0  0  0  0  0  0  0  0  0  0  0
   -6.0181   22.3385  -29.0180 H   0  0  0  0  0  0  0  0  0  0  0  0
  1  2  2  0
  2  3  1  0
  3  4  2  0
  4  5  1  0
  5  6  1  0
  6  7  1  0
  7  8  1  0
  8  9  1  0
  9 10  1  0
 10 11  2  0
 11 12  1  0
 12 13  2  0
 13 14  1  0
 14 15  1  0
 15 16  1  0
 16 17  2  0
 17 18  1  0
 18 19  2  0
 19 20  1  0
 20 21  2  0
 11 22  1  0
  5 23  2  0
 23  1  1  0
 22  7  1  0
 14 10  1  0
 21 16  1  0
  1 24  1  0
  2 25  1  0
  4 26  1  0
  6 27  1  0
  6 28  1  0
  8 29  1  0
  8 30  1  0
  9 31  1  0
  9 32  1  0
 12 33  1  0
 13 34  1  0
 15 35  1  0
 15 36  1  0
 17 37  1  0
 18 38  1  0
 20 39  1  0
 21 40  1  0
 22 41  1  0
 22 42  1  0
 23 43  1  0
M  CHG  1  12   1
M  END
>  <UniqueID>  (47) 
45

>  <SMILES>  (47) 
c1cncc(CN2CCc3c([nH+]cn3Cc3ccncc3)C2)c1

>  <Energy>  (47) 
84.1121858776884

>  <Genealogy>  (47) 
c1cncc(CN2CCc3c([nH+]cn3Cc3ccncc3)C2)c1 (protonated)
c1cncc(CN2CCc3c([nH+]cn3Cc3ccncc3)C2)c1 (3D coordinates assigned)
c1cncc(CN2CCc3c([nH+]cn3Cc3ccncc3)C2)c1 (nonaromatic ring conformer: 84.1121858776884 kcal/mol)

>  <smiles>  (47) 
c1cncc(CN2CCc3c(ncn3Cc3ccncc3)C2)c1

>  <score_type>  (47) 
oracle

>  <origin>  (47) 
adg

>  <m_score__min__energy>  (47) 
-7.1399999999999997

>  <m_primary>  (47) 
energy

$$$$
47:0
     RDKit          3D

 51 53  0  0  0  0  0  0  0  0999 V2000
   -7.8873   17.4679  -33.6748 H   0  0  0  0  0  0  0  0  0  0  0  0
   -6.8510   17.7900  -33.4950 C   0  0  0  0  0  0  0  0  0  0  0  0
   -6.4650   18.2250  -32.2260 C   0  0  0  0  0  0  0  0  0  0  0  0
   -7.1975   18.2436  -31.4056 H   0  0  0  0  0  0  0  0  0  0  0  0
   -5.1490   18.6370  -31.9960 C   0  0  0  0  0  0  0  0  0  0  0  0
   -4.8484   18.9697  -30.9915 H   0  0  0  0  0  0  0  0  0  0  0  0
   -4.2070   18.6290  -33.0400 C   0  0  0  0  0  0  0  0  0  0  0  0
   -2.7660   19.0120  -32.7820 C   0  0  0  0  0  0  0  0  0  0  0  0
   -1.9620   17.8840  -32.7800 F   0  0  0  0  0  0  0  0  0  0  0  0
   -2.6620   19.5990  -31.5320 F   0  0  0  0  0  0  0  0  0  0  0  0
   -2.2900   20.0130  -33.8450 C   0  0  0  0  0  0  0  0  0  0  0  0
   -2.4803   19.5927  -34.8436 H   0  0  0  0  0  0  0  0  0  0  0  0
   -1.2149   20.1921  -33.6964 H   0  0  0  0  0  0  0  0  0  0  0  0
   -2.9930   21.2930  -33.7240 N   0  0  0  0  0  0  0  0  0  0  0  0
   -3.8850   21.6940  -32.8520 C   0  0  0  0  0  0  0  0  0  0  0  0
   -3.5700   22.3510  -31.6300 C   0  0  0  0  0  0  0  0  0  0  0  0
   -2.3710   22.5460  -31.2940 O   0  0  0  0  0  0  0  0  0  0  0  0
   -4.5810   22.7900  -30.8060 N   0  0  0  0  0  0  0  0  0  0  0  0
   -4.2510   23.5410  -29.5750 C   0  0  0  0  0  0  0  0  0  0  0  0
   -3.5497   22.9483  -28.9693 H   0  0  0  0  0  0  0  0  0  0  0  0
   -5.1811   23.7259  -29.0176 H   0  0  0  0  0  0  0  0  0  0  0  0
   -3.6170   24.8690  -29.9050 C   0  0  0  0  0  0  0  0  0  0  0  0
   -4.1650   25.6350  -30.7430 O   0  0  0  0  0  0  0  0  0  0  0  0
   -2.3640   25.2620  -29.3360 N   0  0  0  0  0  0  0  0  0  0  0  0
   -1.8960   24.8690  -28.0150 C   0  0  0  0  0  0  0  0  0  0  0  0
   -2.6925   25.0391  -27.2757 H   0  0  0  0  0  0  0  0  0  0  0  0
   -1.0146   25.4668  -27.7395 H   0  0  0  0  0  0  0  0  0  0  0  0
   -1.5340   23.4120  -28.0390 C   0  0  0  0  0  0  0  0  0  0  0  0
   -0.5610   22.9440  -28.9400 C   0  0  0  0  0  0  0  0  0  0  0  0
   -0.0186   23.6563  -29.5791 H   0  0  0  0  0  0  0  0  0  0  0  0
   -0.2800   21.5770  -29.0270 C   0  0  0  0  0  0  0  0  0  0  0  0
    0.4845   21.2187  -29.7320 H   0  0  0  0  0  0  0  0  0  0  0  0
   -0.9690   20.6610  -28.2190 C   0  0  0  0  0  0  0  0  0  0  0  0
   -0.7040   19.1890  -28.3320 C   0  0  0  0  0  0  0  0  0  0  0  0
   -0.6254   18.7523  -27.3255 H   0  0  0  0  0  0  0  0  0  0  0  0
   -1.5301   18.7085  -28.8767 H   0  0  0  0  0  0  0  0  0  0  0  0
    0.2378   19.0267  -28.8767 H   0  0  0  0  0  0  0  0  0  0  0  0
   -1.9470   21.1270  -27.3270 C   0  0  0  0  0  0  0  0  0  0  0  0
   -2.4941   20.4123  -26.6947 H   0  0  0  0  0  0  0  0  0  0  0  0
   -2.2310   22.4920  -27.2360 C   0  0  0  0  0  0  0  0  0  0  0  0
   -3.0009   22.8474  -26.5353 H   0  0  0  0  0  0  0  0  0  0  0  0
   -5.8910   22.6020  -31.1680 C   0  0  0  0  0  0  0  0  0  0  0  0
   -7.2390   23.2100  -30.2030 Cl  0  0  0  0  0  0  0  0  0  0  0  0
   -6.1940   21.9320  -32.3500 C   0  0  0  0  0  0  0  0  0  0  0  0
   -7.2435   21.7571  -32.6294 H   0  0  0  0  0  0  0  0  0  0  0  0
   -5.1960   21.4950  -33.1570 N   0  0  0  0  0  0  0  0  0  0  0  0
   -5.4550   21.0110  -34.0460 H   0  0  0  0  0  0  0  0  0  0  0  0
   -4.6030   18.1760  -34.3110 C   0  0  0  0  0  0  0  0  0  0  0  0
   -3.8719   18.1457  -35.1323 H   0  0  0  0  0  0  0  0  0  0  0  0
   -5.9190   17.7640  -34.5380 C   0  0  0  0  0  0  0  0  0  0  0  0
   -6.2222   17.4190  -35.5375 H   0  0  0  0  0  0  0  0  0  0  0  0
  1  2  1  0
  2  3  2  0
  3  4  1  0
  3  5  1  0
  5  6  1  0
  5  7  2  0
  7  8  1  0
  8  9  1  0
  8 10  1  0
  8 11  1  0
 11 12  1  0
 11 13  1  0
 11 14  1  0
 14 15  2  0
 15 16  1  0
 16 17  2  0
 16 18  1  0
 18 19  1  0
 19 20  1  0
 19 21  1  0
 19 22  1  0
 22 23  2  0
 22 24  1  0
 24 25  1  0
 25 26  1  0
 25 27  1  0
 25 28  1  0
 28 29  2  0
 29 30  1  0
 29 31  1  0
 31 32  1  0
 31 33  2  0
 33 34  1  0
 34 35  1  0
 34 36  1  0
 34 37  1  0
 33 38  1  0
 38 39  1  0
 38 40  2  0
 40 41  1  0
 18 42  1  0
 42 43  1  0
 42 44  2  0
 44 45  1  0
 44 46  1  0
 46 47  1  0
  7 48  1  0
 48 49  1  0
 48 50  2  0
 50 51  1  0
 50  2  1  0
 46 15  1  0
 40 28  1  0
M  CHG  1  24  -1
M  END
>  <UniqueID>  (48) 
46

>  <SMILES>  (48) 
Cc1ccc(C[N-]C(=O)Cn2c(Cl)c[nH]/c(=N/CC(F)(F)c3ccccc3)c2=O)cc1

>  <Energy>  (48) 
62.77242760683624

>  <Genealogy>  (48) 
Cc1ccc(C[N-]C(=O)Cn2c(Cl)c[nH]c(=NCC(F)(F)c3ccccc3)c2=O)cc1 (protonated)
Cc1ccc(C[N-]C(=O)Cn2c(Cl)c[nH]/c(=N/CC(F)(F)c3ccccc3)c2=O)cc1 (cis-trans isomerization)
Cc1ccc(C[N-]C(=O)Cn2c(Cl)c[nH]/c(=N/CC(F)(F)c3ccccc3)c2=O)cc1 (3D coordinates assigned)
Cc1ccc(C[N-]C(=O)Cn2c(Cl)c[nH]/c(=N/CC(F)(F)c3ccccc3)c2=O)cc1 (optimized conformer: 62.77242760683624 kcal/mol)

>  <smiles>  (48) 
Cc1ccc(CNC(=O)Cn2c(Cl)c[nH]c(=NCC(F)(F)c3ccccc3)c2=O)cc1

>  <score_type>  (48) 
oracle

>  <origin>  (48) 
adg

>  <m_score__min__energy>  (48) 
-10.800000000000001

>  <m_primary>  (48) 
energy

$$$$
48:0
     RDKit          3D

 32 33  0  0  0  0  0  0  0  0999 V2000
   -6.4780   21.8270  -32.1730 C   0  0  0  0  0  0  0  0  0  0  0  0
   -6.1190   23.0300  -31.3390 C   0  0  0  0  0  0  0  0  0  0  0  0
   -7.1530   23.8040  -30.7900 C   0  0  0  0  0  0  0  0  0  0  0  0
   -6.8660   24.9270  -30.0200 C   0  0  0  0  0  0  0  0  0  0  0  0
   -5.5440   25.3000  -29.7900 C   0  0  0  0  0  0  0  0  0  0  0  0
   -4.4840   24.5370  -30.3110 C   0  0  0  0  0  0  0  0  0  0  0  0
   -3.1170   24.9250  -30.0950 N   0  0  0  0  0  0  0  0  0  0  0  0
   -2.1640   24.5410  -28.6990 S   0  0  0  0  0  0  0  0  0  0  0  0
   -0.8740   25.3080  -28.7560 O   0  0  0  0  0  0  0  0  0  0  0  0
   -2.9170   24.9450  -27.4620 O   0  0  0  0  0  0  0  0  0  0  0  0
   -1.8020   22.8180  -28.6770 C   0  0  0  0  0  0  0  0  0  0  0  0
   -0.8240   22.3010  -29.5370 C   0  0  0  0  0  0  0  0  0  0  0  0
   -0.5380   20.9320  -29.5330 C   0  0  0  0  0  0  0  0  0  0  0  0
   -1.2260   20.0760  -28.6680 C   0  0  0  0  0  0  0  0  0  0  0  0
   -2.1990   20.5880  -27.8050 C   0  0  0  0  0  0  0  0  0  0  0  0
   -2.4880   21.9570  -27.8080 C   0  0  0  0  0  0  0  0  0  0  0  0
   -4.7680   23.3730  -31.0670 C   0  0  0  0  0  0  0  0  0  0  0  0
   -3.6350   22.5440  -31.6280 C   0  0  0  0  0  0  0  0  0  0  0  0
   -6.7294   20.9844  -31.5120 H   0  0  0  0  0  0  0  0  0  0  0  0
   -7.3439   22.0661  -32.8078 H   0  0  0  0  0  0  0  0  0  0  0  0
   -5.6226   21.5525  -32.8078 H   0  0  0  0  0  0  0  0  0  0  0  0
   -8.2004   23.5202  -30.9701 H   0  0  0  0  0  0  0  0  0  0  0  0
   -7.6860   25.5221  -29.5916 H   0  0  0  0  0  0  0  0  0  0  0  0
   -5.3271   26.1997  -29.1954 H   0  0  0  0  0  0  0  0  0  0  0  0
   -0.2800   22.9733  -30.2167 H   0  0  0  0  0  0  0  0  0  0  0  0
    0.2287   20.5286  -30.2108 H   0  0  0  0  0  0  0  0  0  0  0  0
   -1.0015   18.9991  -28.6665 H   0  0  0  0  0  0  0  0  0  0  0  0
   -2.7380   19.9141  -27.1229 H   0  0  0  0  0  0  0  0  0  0  0  0
   -3.2540   22.3584  -27.1282 H   0  0  0  0  0  0  0  0  0  0  0  0
   -3.0496   22.1157  -30.8010 H   0  0  0  0  0  0  0  0  0  0  0  0
   -4.0459   21.7317  -32.2456 H   0  0  0  0  0  0  0  0  0  0  0  0
   -2.9851   23.1814  -32.2456 H   0  0  0  0  0  0  0  0  0  0  0  0
  1  2  1  0
  2  3  2  0
  3  4  1  0
  4  5  2  0
  5  6  1  0
  6  7  1  0
  7  8  1  0
  8  9  2  0
  8 10  2  0
  8 11  1  0
 11 12  2  0
 12 13  1  0
 13 14  2  0
 14 15  1  0
 15 16  2  0
  6 17  2  0
 17 18  1  0
 17  2  1  0
 16 11  1  0
  1 19  1  0
  1 20  1  0
  1 21  1  0
  3 22  1  0
  4 23  1  0
  5 24  1  0
 12 25  1  0
 13 26  1  0
 14 27  1  0
 15 28  1  0
 16 29  1  0
 18 30  1  0
 18 31  1  0
 18 32  1  0
M  CHG  1   7  -1
M  END
>  <UniqueID>  (49) 
47

>  <SMILES>  (49) 
Cc1cccc([N-]S(=O)(=O)c2ccccc2)c1C

>  <Energy>  (49) 
37.40965466265612

>  <Genealogy>  (49) 
Cc1cccc([N-]S(=O)(=O)c2ccccc2)c1C (protonated)
Cc1cccc([N-]S(=O)(=O)c2ccccc2)c1C (3D coordinates assigned)
Cc1cccc([N-]S(=O)(=O)c2ccccc2)c1C (optimized conformer: 37.40965466265612 kcal/mol)

>  <smiles>  (49) 
Cc1cccc(NS(=O)(=O)c2ccccc2)c1C

>  <score_type>  (49) 
oracle

>  <origin>  (49) 
adg

>  <m_score__min__energy>  (49) 
-8.2400000000000002

>  <m_primary>  (49) 
energy

$$$$
49:0
     RDKit          3D

 50 52  0  0  0  0  0  0  0  0999 V2000
   -1.0600   18.9810  -34.2260 C   0  0  0  0  0  0  0  0  0  0  0  0
   -1.2960   19.4550  -32.9040 O   0  0  0  0  0  0  0  0  0  0  0  0
   -2.2830   20.3910  -32.5620 C   0  0  0  0  0  0  0  0  0  0  0  0
   -3.2500   20.8390  -33.4800 C   0  0  0  0  0  0  0  0  0  0  0  0
   -4.2140   21.7730  -33.0910 C   0  0  0  0  0  0  0  0  0  0  0  0
   -4.2290   22.2870  -31.7810 C   0  0  0  0  0  0  0  0  0  0  0  0
   -5.2700   23.2750  -31.3900 C   0  0  0  0  0  0  0  0  0  0  0  0
   -4.9330   24.4790  -31.2130 O   0  0  0  0  0  0  0  0  0  0  0  0
   -6.7300   22.8960  -31.2350 C   0  0  1  0  0  0  0  0  0  0  0  0
   -7.5830   23.4880  -32.3620 C   0  0  0  0  0  0  0  0  0  0  0  0
   -9.0750   23.2070  -32.1340 C   0  0  0  0  0  0  0  0  0  0  0  0
   -9.3470   21.9390  -31.2950 C   0  0  0  0  0  0  0  0  0  0  0  0
   -8.2900   20.9120  -31.4080 N   0  0  0  0  0  0  0  0  0  0  0  0
   -8.5000   19.8730  -32.4400 C   0  0  0  0  0  0  0  0  0  0  0  0
   -7.3410   18.9090  -32.5700 C   0  0  0  0  0  0  0  0  0  0  0  0
   -7.1190   17.9240  -31.5940 C   0  0  0  0  0  0  0  0  0  0  0  0
   -6.0420   17.0430  -31.7150 C   0  0  0  0  0  0  0  0  0  0  0  0
   -5.1860   17.1280  -32.8150 C   0  0  0  0  0  0  0  0  0  0  0  0
   -5.4040   18.0870  -33.8110 C   0  0  0  0  0  0  0  0  0  0  0  0
   -4.5180   18.1290  -34.8990 O   0  0  0  0  0  0  0  0  0  0  0  0
   -3.7150   17.0320  -35.3250 C   0  0  0  0  0  0  0  0  0  0  0  0
   -6.4940   18.9700  -33.6900 C   0  0  0  0  0  0  0  0  0  0  0  0
   -6.8890   21.3610  -31.2190 C   0  0  0  0  0  0  0  0  0  0  0  0
   -3.2620   21.8290  -30.8660 C   0  0  0  0  0  0  0  0  0  0  0  0
   -2.3020   20.8920  -31.2570 C   0  0  0  0  0  0  0  0  0  0  0  0
   -0.5701   17.9971  -34.1808 H   0  0  0  0  0  0  0  0  0  0  0  0
   -2.0178   18.8896  -34.7592 H   0  0  0  0  0  0  0  0  0  0  0  0
   -0.4098   19.6902  -34.7592 H   0  0  0  0  0  0  0  0  0  0  0  0
   -3.2474   20.4521  -34.5097 H   0  0  0  0  0  0  0  0  0  0  0  0
   -4.9691   22.1100  -33.8165 H   0  0  0  0  0  0  0  0  0  0  0  0
   -7.0806   23.3104  -30.2783 H   0  0  0  0  0  0  0  0  0  0  0  0
   -7.4241   24.5758  -32.3989 H   0  0  0  0  0  0  0  0  0  0  0  0
   -7.2810   23.0200  -33.3106 H   0  0  0  0  0  0  0  0  0  0  0  0
   -9.5151   24.0696  -31.6122 H   0  0  0  0  0  0  0  0  0  0  0  0
   -9.5256   23.0404  -33.1236 H   0  0  0  0  0  0  0  0  0  0  0  0
   -9.4330   22.2337  -30.2387 H   0  0  0  0  0  0  0  0  0  0  0  0
  -10.2732   21.4901  -31.6831 H   0  0  0  0  0  0  0  0  0  0  0  0
   -9.4019   19.3000  -32.1788 H   0  0  0  0  0  0  0  0  0  0  0  0
   -8.6000   20.3910  -33.4052 H   0  0  0  0  0  0  0  0  0  0  0  0
   -7.7961   17.8460  -30.7306 H   0  0  0  0  0  0  0  0  0  0  0  0
   -5.8676   16.2802  -30.9418 H   0  0  0  0  0  0  0  0  0  0  0  0
   -4.3346   16.4366  -32.8994 H   0  0  0  0  0  0  0  0  0  0  0  0
   -3.3252   16.4994  -34.4450 H   0  0  0  0  0  0  0  0  0  0  0  0
   -4.3246   16.3443  -35.9295 H   0  0  0  0  0  0  0  0  0  0  0  0
   -2.8752   17.4053  -35.9295 H   0  0  0  0  0  0  0  0  0  0  0  0
   -6.6842   19.7134  -34.4782 H   0  0  0  0  0  0  0  0  0  0  0  0
   -6.5294   20.9833  -30.2505 H   0  0  0  0  0  0  0  0  0  0  0  0
   -6.3045   20.9651  -32.0626 H   0  0  0  0  0  0  0  0  0  0  0  0
   -3.2622   22.2119  -29.8348 H   0  0  0  0  0  0  0  0  0  0  0  0
   -1.5530   20.5448  -30.5300 H   0  0  0  0  0  0  0  0  0  0  0  0
  1  2  1  0
  2  3  1  0
  3  4  2  0
  4  5  1  0
  5  6  2  0
  6  7  1  0
  7  8  2  0
  7  9  1  0
  9 10  1  0
 10 11  1  0
 11 12  1  0
 12 13  1  0
 13 14  1  0
 14 15  1  0
 15 16  2  0
 16 17  1  0
 17 18  2  0
 18 19  1  0
 19 20  1  0
 20 21  1  0
 19 22  2  0
 13 23  1  0
  6 24  1  0
 24 25  2  0
 25  3  1  0
 23  9  1  0
 22 15  1  0
  1 26  1  0
  1 27  1  0
  1 28  1  0
  4 29  1  0
  5 30  1  0
  9 31  1  1
 10 32  1  0
 10 33  1  0
 11 34  1  0
 11 35  1  0
 12 36  1  0
 12 37  1  0
 14 38  1  0
 14 39  1  0
 16 40  1  0
 17 41  1  0
 18 42  1  0
 21 43  1  0
 21 44  1  0
 21 45  1  0
 22 46  1  0
 23 47  1  0
 23 48  1  0
 24 49  1  0
 25 50  1  0
M  END
>  <UniqueID>  (50) 
48

>  <SMILES>  (50) 
COc1ccc(C(=O)[C@H]2CCCN(Cc3cccc(OC)c3)C2)cc1

>  <Energy>  (50) 
64.29416150356232

>  <Genealogy>  (50) 
COc1ccc(C(=O)[C@H]2CCCN(Cc3cccc(OC)c3)C2)cc1 (chirality)
COc1ccc(C(=O)[C@H]2CCCN(Cc3cccc(OC)c3)C2)cc1 (3D coordinates assigned)
COc1ccc(C(=O)[C@H]2CCCN(Cc3cccc(OC)c3)C2)cc1 (nonaromatic ring conformer: 64.29416150356232 kcal/mol)

>  <smiles>  (50) 
COc1ccc(C(=O)C2CCCN(Cc3cccc(OC)c3)C2)cc1

>  <score_type>  (50) 
oracle

>  <origin>  (50) 
adg

>  <m_score__min__energy>  (50) 
-9.3300000000000001

>  <m_primary>  (50) 
energy

$$$$
