0:0
     RDKit          3D

 39 40  0  0  0  0  0  0  0  0999 V2000
   -6.2040   24.9530  -29.6640 C   0  0  0  0  0  0  0  0  0  0  0  0
   -5.2860   25.7700  -30.5670 C   0  0  0  0  0  0  0  0  0  0  0  0
   -3.9400   25.3060  -30.4700 O   0  0  0  0  0  0  0  0  0  0  0  0
   -3.4850   24.2590  -29.6490 C   0  0  0  0  0  0  0  0  0  0  0  0
   -2.9730   24.4930  -28.3570 C   0  0  0  0  0  0  0  0  0  0  0  0
   -2.5740   23.4270  -27.5480 C   0  0  0  0  0  0  0  0  0  0  0  0
   -2.6860   22.1170  -28.0110 C   0  0  0  0  0  0  0  0  0  0  0  0
   -3.1860   21.8680  -29.2890 C   0  0  0  0  0  0  0  0  0  0  0  0
   -3.5750   22.9310  -30.1220 C   0  0  0  0  0  0  0  0  0  0  0  0
   -4.0700   22.6270  -31.4820 C   0  0  0  0  0  0  0  0  0  0  0  0
   -4.8830   23.4200  -32.0310 O   0  0  0  0  0  0  0  0  0  0  0  0
   -3.6850   21.4140  -32.1500 N   0  0  0  0  0  0  0  0  0  0  0  0
   -4.3090   20.9740  -33.3980 C   0  0  0  0  0  0  0  0  0  0  0  0
   -5.0150   19.6260  -33.2080 C   0  0  0  0  0  0  0  0  0  0  0  0
   -6.4380   19.8020  -32.7270 C   0  0  0  0  0  0  0  0  0  0  0  0
   -6.8930   21.0890  -32.3880 C   0  0  0  0  0  0  0  0  0  0  0  0
   -8.2200   21.2930  -32.0010 C   0  0  0  0  0  0  0  0  0  0  0  0
   -9.1060   20.2170  -31.9470 C   0  0  0  0  0  0  0  0  0  0  0  0
   -8.6690   18.9340  -32.2830 C   0  0  0  0  0  0  0  0  0  0  0  0
   -7.3420   18.7170  -32.6760 C   0  0  0  0  0  0  0  0  0  0  0  0
   -6.8570   17.0800  -33.1070 Cl  0  0  0  0  0  0  0  0  0  0  0  0
   -5.9660   25.1648  -28.6112 H   0  0  0  0  0  0  0  0  0  0  0  0
   -7.2512   25.2233  -29.8647 H   0  0  0  0  0  0  0  0  0  0  0  0
   -6.0570   23.8815  -29.8647 H   0  0  0  0  0  0  0  0  0  0  0  0
   -5.6265   25.6753  -31.6087 H   0  0  0  0  0  0  0  0  0  0  0  0
   -5.3213   26.8222  -30.2482 H   0  0  0  0  0  0  0  0  0  0  0  0
   -2.8870   25.5238  -27.9828 H   0  0  0  0  0  0  0  0  0  0  0  0
   -2.1705   23.6215  -26.5433 H   0  0  0  0  0  0  0  0  0  0  0  0
   -2.3798   21.2788  -27.3678 H   0  0  0  0  0  0  0  0  0  0  0  0
   -3.2765   20.8320  -29.6476 H   0  0  0  0  0  0  0  0  0  0  0  0
   -3.1080   20.7130  -31.6330 H   0  0  0  0  0  0  0  0  0  0  0  0
   -5.0462   21.7254  -33.7171 H   0  0  0  0  0  0  0  0  0  0  0  0
   -3.5260   20.8574  -34.1618 H   0  0  0  0  0  0  0  0  0  0  0  0
   -5.0273   19.0915  -34.1694 H   0  0  0  0  0  0  0  0  0  0  0  0
   -4.4640   19.0550  -32.4462 H   0  0  0  0  0  0  0  0  0  0  0  0
   -6.1989   21.9414  -32.4279 H   0  0  0  0  0  0  0  0  0  0  0  0
   -8.5665   22.3035  -31.7386 H   0  0  0  0  0  0  0  0  0  0  0  0
  -10.1496   20.3792  -31.6395 H   0  0  0  0  0  0  0  0  0  0  0  0
   -9.3712   18.0884  -32.2388 H   0  0  0  0  0  0  0  0  0  0  0  0
  1  2  1  0
  2  3  1  0
  3  4  1  0
  4  5  2  0
  5  6  1  0
  6  7  2  0
  7  8  1  0
  8  9  2  0
  9 10  1  0
 10 11  2  0
 10 12  1  0
 12 13  1  0
 13 14  1  0
 14 15  1  0
 15 16  2  0
 16 17  1  0
 17 18  2  0
 18 19  1  0
 19 20  2  0
 20 21  1  0
  9  4  1  0
 20 15  1  0
  1 22  1  0
  1 23  1  0
  1 24  1  0
  2 25  1  0
  2 26  1  0
  5 27  1  0
  6 28  1  0
  7 29  1  0
  8 30  1  0
 12 31  1  0
 13 32  1  0
 13 33  1  0
 14 34  1  0
 14 35  1  0
 16 36  1  0
 17 37  1  0
 18 38  1  0
 19 39  1  0
M  END
>  <UniqueID>  (1) 
1

>  <SMILES>  (1) 
CCOc1ccccc1C(=O)NCCc1ccccc1Cl

>  <Energy>  (1) 
37.2167679373484

>  <Genealogy>  (1) 
CCOc1ccccc1C(=O)NCCc1ccccc1Cl (3D coordinates assigned)
CCOc1ccccc1C(=O)NCCc1ccccc1Cl (optimized conformer: 37.2167679373484 kcal/mol)

>  <smiles>  (1) 
CCOc1ccccc1C(=O)NCCc1ccccc1Cl

>  <score_type>  (1) 
oracle

>  <origin>  (1) 
adg

>  <m_score__min__energy>  (1) 
-8.5600000000000005

>  <m_primary>  (1) 
energy

$$$$
1:0
     RDKit          3D

 56 55  0  0  0  0  0  0  0  0999 V2000
   -6.1890   25.5560  -29.4570 C   0  0  0  0  0  0  0  0  0  0  0  0
   -5.3340   25.7000  -30.7130 C   0  0  0  0  0  0  0  0  0  0  0  0
   -4.1370   24.8560  -30.6090 N   0  0  0  0  0  0  0  0  0  0  0  0
   -4.0740   24.2050  -29.2940 C   0  0  0  0  0  0  0  0  0  0  0  0
   -2.8460   23.2920  -29.2140 C   0  0  0  0  0  0  0  0  0  0  0  0
   -3.2490   21.8120  -29.0870 C   0  0  0  0  0  0  0  0  0  0  0  0
   -3.2650   21.0980  -30.4430 C   0  0  0  0  0  0  0  0  0  0  0  0
   -3.5420   22.0450  -31.5320 N   0  0  0  0  0  0  0  0  0  0  0  0
   -2.6520   21.8380  -32.6840 C   0  0  0  0  0  0  0  0  0  0  0  0
   -2.4270   20.3420  -32.9910 C   0  0  0  0  0  0  0  0  0  0  0  0
   -3.5470   19.7640  -33.8680 C   0  0  0  0  0  0  0  0  0  0  0  0
   -4.8530   20.2870  -33.4630 N   0  0  0  0  0  0  0  0  0  0  0  0
   -6.0830   19.6170  -33.7780 C   0  0  0  0  0  0  0  0  0  0  0  0
   -6.0930   18.6480  -34.5840 O   0  0  0  0  0  0  0  0  0  0  0  0
   -7.3560   20.0210  -33.0930 C   0  0  0  0  0  0  0  0  0  0  0  0
   -7.1720   20.0710  -31.5750 C   0  0  0  0  0  0  0  0  0  0  0  0
   -6.3170   21.2070  -31.2030 N   0  0  0  0  0  0  0  0  0  0  0  0
   -7.0600   22.2830  -30.5260 C   0  0  0  0  0  0  0  0  0  0  0  0
   -7.7640   23.2680  -31.4860 C   0  0  0  0  0  0  0  0  0  0  0  0
   -6.9160   23.7120  -32.6870 C   0  0  0  0  0  0  0  0  0  0  0  0
   -5.5180   23.3300  -32.5100 N   0  0  0  0  0  0  0  0  0  0  0  0
   -5.5528   25.6632  -28.5661 H   0  0  0  0  0  0  0  0  0  0  0  0
   -6.9644   26.3362  -29.4498 H   0  0  0  0  0  0  0  0  0  0  0  0
   -6.6661   24.5649  -29.4498 H   0  0  0  0  0  0  0  0  0  0  0  0
   -5.9215   25.3913  -31.5902 H   0  0  0  0  0  0  0  0  0  0  0  0
   -5.0253   26.7504  -30.8195 H   0  0  0  0  0  0  0  0  0  0  0  0
   -4.2020   24.1010  -31.3350 H   0  0  0  0  0  0  0  0  0  0  0  0
   -4.0066   24.9742  -28.5106 H   0  0  0  0  0  0  0  0  0  0  0  0
   -4.9812   23.6000  -29.1491 H   0  0  0  0  0  0  0  0  0  0  0  0
   -2.2447   23.4214  -30.1259 H   0  0  0  0  0  0  0  0  0  0  0  0
   -2.2680   23.5696  -28.3202 H   0  0  0  0  0  0  0  0  0  0  0  0
   -2.5296   21.3043  -28.4278 H   0  0  0  0  0  0  0  0  0  0  0  0
   -4.2674   21.7736  -28.6731 H   0  0  0  0  0  0  0  0  0  0  0  0
   -2.2849   20.6289  -30.6144 H   0  0  0  0  0  0  0  0  0  0  0  0
   -4.0588   20.3366  -30.4295 H   0  0  0  0  0  0  0  0  0  0  0  0
   -4.5380   21.9460  -31.8350 H   0  0  0  0  0  0  0  0  0  0  0  0
   -3.1000   22.3166  -33.5673 H   0  0  0  0  0  0  0  0  0  0  0  0
   -1.6756   22.2809  -32.4380 H   0  0  0  0  0  0  0  0  0  0  0  0
   -1.4678   20.2270  -33.5171 H   0  0  0  0  0  0  0  0  0  0  0  0
   -2.4234   19.7944  -32.0370 H   0  0  0  0  0  0  0  0  0  0  0  0
   -3.3597   20.0370  -34.9170 H   0  0  0  0  0  0  0  0  0  0  0  0
   -3.5555   18.6704  -33.7501 H   0  0  0  0  0  0  0  0  0  0  0  0
   -4.8840   21.1690  -32.9040 H   0  0  0  0  0  0  0  0  0  0  0  0
   -7.6567   21.0165  -33.4515 H   0  0  0  0  0  0  0  0  0  0  0  0
   -8.1306   19.2759  -33.3270 H   0  0  0  0  0  0  0  0  0  0  0  0
   -8.1547   20.1833  -31.0937 H   0  0  0  0  0  0  0  0  0  0  0  0
   -6.6938   19.1383  -31.2412 H   0  0  0  0  0  0  0  0  0  0  0  0
   -5.8230   21.5760  -32.0490 H   0  0  0  0  0  0  0  0  0  0  0  0
   -7.8244   21.8225  -29.8828 H   0  0  0  0  0  0  0  0  0  0  0  0
   -6.3215   22.8683  -29.9585 H   0  0  0  0  0  0  0  0  0  0  0  0
   -8.6729   22.7815  -31.8697 H   0  0  0  0  0  0  0  0  0  0  0  0
   -7.9724   24.1759  -30.9009 H   0  0  0  0  0  0  0  0  0  0  0  0
   -7.3064   23.2360  -33.5986 H   0  0  0  0  0  0  0  0  0  0  0  0
   -6.9722   24.8074  -32.7700 H   0  0  0  0  0  0  0  0  0  0  0  0
   -5.3870   22.3890  -32.9480 H   0  0  0  0  0  0  0  0  0  0  0  0
   -5.3430   23.1970  -31.4860 H   0  0  0  0  0  0  0  0  0  0  0  0
  1  2  1  0
  2  3  1  0
  3  4  1  0
  4  5  1  0
  5  6  1  0
  6  7  1  0
  7  8  1  0
  8  9  1  0
  9 10  1  0
 10 11  1  0
 11 12  1  0
 12 13  1  0
 13 14  2  0
 13 15  1  0
 15 16  1  0
 16 17  1  0
 17 18  1  0
 18 19  1  0
 19 20  1  0
 20 21  1  0
  1 22  1  0
  1 23  1  0
  1 24  1  0
  2 25  1  0
  2 26  1  0
  3 27  1  0
  4 28  1  0
  4 29  1  0
  5 30  1  0
  5 31  1  0
  6 32  1  0
  6 33  1  0
  7 34  1  0
  7 35  1  0
  8 36  1  0
  9 37  1  0
  9 38  1  0
 10 39  1  0
 10 40  1  0
 11 41  1  0
 11 42  1  0
 12 43  1  0
 15 44  1  0
 15 45  1  0
 16 46  1  0
 16 47  1  0
 17 48  1  0
 18 49  1  0
 18 50  1  0
 19 51  1  0
 19 52  1  0
 20 53  1  0
 20 54  1  0
 21 55  1  0
 21 56  1  0
M  END
>  <UniqueID>  (2) 
2

>  <SMILES>  (2) 
CCNCCCCNCCCNC(=O)CCNCCCN

>  <Energy>  (2) 
26.998095230520967

>  <Genealogy>  (2) 
CCNCCCCNCCCNC(=O)CCNCCCN (3D coordinates assigned)
CCNCCCCNCCCNC(=O)CCNCCCN (optimized conformer: 26.998095230520967 kcal/mol)

>  <smiles>  (2) 
CCNCCCCNCCCNC(=O)CCNCCCN

>  <score_type>  (2) 
oracle

>  <origin>  (2) 
adg

>  <m_score__min__energy>  (2) 
-4.6200000000000001

>  <m_primary>  (2) 
energy

$$$$
2:0
     RDKit          3D

 79 82  0  0  0  0  0  0  0  0999 V2000
   -6.2510   25.0090  -29.7630 C   0  0  0  0  0  0  0  0  0  0  0  0
   -5.0590   25.3710  -30.6520 C   0  0  0  0  0  0  0  0  0  0  0  0
   -3.9630   24.3800  -30.5570 N   0  0  0  0  0  0  0  0  0  0  0  0
   -3.2200   24.5610  -29.2870 C   0  0  0  0  0  0  0  0  0  0  0  0
   -3.5210   23.4650  -28.2630 C   0  0  0  0  0  0  0  0  0  0  0  0
   -4.3950   22.9790  -30.8120 C   0  0  0  0  0  0  0  0  0  0  0  0
   -3.6640   22.2760  -31.9750 C   0  0  0  0  0  0  0  0  0  0  0  0
   -4.5970   21.9900  -33.0640 N   0  0  0  0  0  0  0  0  0  0  0  0
   -5.6680   21.0530  -32.8790 C   0  0  0  0  0  0  0  0  0  0  0  0
   -6.9310   21.5010  -32.4630 C   0  0  0  0  0  0  0  0  0  0  0  0
   -7.1690   22.8730  -32.2380 C   0  0  0  0  0  0  0  0  0  0  0  0
   -8.4390   23.3240  -31.8880 C   0  0  0  0  0  0  0  0  0  0  0  0
   -9.4910   22.4230  -31.7750 C   0  0  0  0  0  0  0  0  0  0  0  0
   -9.2740   21.0600  -31.9740 C   0  0  0  0  0  0  0  0  0  0  0  0
   -7.9800   20.5630  -32.2810 C   0  0  0  0  0  0  0  0  0  0  0  0
   -7.7330   19.2090  -32.4170 N   0  0  0  0  0  0  0  0  0  0  0  0
   -8.7190   18.2210  -31.9270 C   0  0  0  0  0  0  0  0  0  0  0  0
   -6.5360   18.7750  -32.9610 C   0  0  0  0  0  0  0  0  0  0  0  0
   -6.3350   17.4240  -33.3410 C   0  0  0  0  0  0  0  0  0  0  0  0
   -5.0950   16.9750  -33.8310 C   0  0  0  0  0  0  0  0  0  0  0  0
   -4.8750   15.6340  -34.1900 O   0  0  0  0  0  0  0  0  0  0  0  0
   -5.8660   14.6090  -34.1550 C   0  0  0  0  0  0  0  0  0  0  0  0
   -4.0350   17.8750  -33.9600 C   0  0  0  0  0  0  0  0  0  0  0  0
   -2.7990   17.3870  -34.4220 O   0  0  0  0  0  0  0  0  0  0  0  0
   -1.8990   16.5700  -33.6670 C   0  0  0  0  0  0  0  0  0  0  0  0
   -0.4370   16.9980  -33.9490 C   0  0  0  0  0  0  0  0  0  0  0  0
   -0.0070   18.3180  -33.3820 N   0  0  0  0  0  0  0  0  0  0  0  0
    1.2630   18.0560  -32.6500 C   0  0  0  0  0  0  0  0  0  0  0  0
    0.2790   19.3130  -34.4720 C   0  0  0  0  0  0  0  0  0  0  0  0
   -0.8270   20.3660  -34.6450 C   0  0  0  0  0  0  0  0  0  0  0  0
   -0.9990   21.1760  -33.3550 C   0  0  0  0  0  0  0  0  0  0  0  0
   -0.9030   20.3090  -32.0840 C   0  0  0  0  0  0  0  0  0  0  0  0
   -1.0230   18.8040  -32.3890 C   0  0  0  0  0  0  0  0  0  0  0  0
   -4.2300   19.2260  -33.6330 C   0  0  0  0  0  0  0  0  0  0  0  0
   -5.4730   19.6900  -33.1590 C   0  0  0  0  0  0  0  0  0  0  0  0
   -5.9601   25.0973  -28.7058 H   0  0  0  0  0  0  0  0  0  0  0  0
   -7.0858   25.6941  -29.9721 H   0  0  0  0  0  0  0  0  0  0  0  0
   -6.5638   23.9754  -29.9721 H   0  0  0  0  0  0  0  0  0  0  0  0
   -5.3999   25.4218  -31.6966 H   0  0  0  0  0  0  0  0  0  0  0  0
   -4.6663   26.3395  -30.3088 H   0  0  0  0  0  0  0  0  0  0  0  0
   -2.1421   24.5511  -29.5059 H   0  0  0  0  0  0  0  0  0  0  0  0
   -3.5388   25.5190  -28.8503 H   0  0  0  0  0  0  0  0  0  0  0  0
   -3.4093   23.8717  -27.2471 H   0  0  0  0  0  0  0  0  0  0  0  0
   -4.5511   23.1055  -28.4028 H   0  0  0  0  0  0  0  0  0  0  0  0
   -2.8190   22.6298  -28.4028 H   0  0  0  0  0  0  0  0  0  0  0  0
   -4.2206   22.3954  -29.8960 H   0  0  0  0  0  0  0  0  0  0  0  0
   -5.4554   23.0303  -31.0998 H   0  0  0  0  0  0  0  0  0  0  0  0
   -2.8618   22.9301  -32.3472 H   0  0  0  0  0  0  0  0  0  0  0  0
   -3.2401   21.3289  -31.6099 H   0  0  0  0  0  0  0  0  0  0  0  0
   -4.4940   22.4500  -34.0000 H   0  0  0  0  0  0  0  0  0  0  0  0
   -6.3438   23.5932  -32.3400 H   0  0  0  0  0  0  0  0  0  0  0  0
   -8.6098   24.3944  -31.7008 H   0  0  0  0  0  0  0  0  0  0  0  0
  -10.4992   22.7866  -31.5275 H   0  0  0  0  0  0  0  0  0  0  0  0
  -10.1180   20.3594  -31.8919 H   0  0  0  0  0  0  0  0  0  0  0  0
   -8.7207   18.2193  -30.8270 H   0  0  0  0  0  0  0  0  0  0  0  0
   -9.7204   18.4890  -32.2948 H   0  0  0  0  0  0  0  0  0  0  0  0
   -8.4490   17.2201  -32.2948 H   0  0  0  0  0  0  0  0  0  0  0  0
   -7.1675   16.7107  -33.2507 H   0  0  0  0  0  0  0  0  0  0  0  0
   -6.1031   14.3638  -33.1092 H   0  0  0  0  0  0  0  0  0  0  0  0
   -6.7753   14.9606  -34.6644 H   0  0  0  0  0  0  0  0  0  0  0  0
   -5.4839   13.7120  -34.6644 H   0  0  0  0  0  0  0  0  0  0  0  0
   -2.1129   16.6866  -32.5943 H   0  0  0  0  0  0  0  0  0  0  0  0
   -2.0317   15.5181  -33.9600 H   0  0  0  0  0  0  0  0  0  0  0  0
    0.2244   16.2238  -33.5330 H   0  0  0  0  0  0  0  0  0  0  0  0
   -0.3722   17.1142  -35.0409 H   0  0  0  0  0  0  0  0  0  0  0  0
    1.0764   18.0945  -31.5666 H   0  0  0  0  0  0  0  0  0  0  0  0
    1.6439   17.0604  -32.9213 H   0  0  0  0  0  0  0  0  0  0  0  0
    2.0068   18.8196  -32.9213 H   0  0  0  0  0  0  0  0  0  0  0  0
    1.2192   19.8314  -34.2326 H   0  0  0  0  0  0  0  0  0  0  0  0
    0.3417   18.7509  -35.4155 H   0  0  0  0  0  0  0  0  0  0  0  0
   -0.5555   21.0455  -35.4663 H   0  0  0  0  0  0  0  0  0  0  0  0
   -1.7737   19.8552  -34.8749 H   0  0  0  0  0  0  0  0  0  0  0  0
   -0.2128   21.9444  -33.3158 H   0  0  0  0  0  0  0  0  0  0  0  0
   -2.0052   21.6200  -33.3761 H   0  0  0  0  0  0  0  0  0  0  0  0
    0.0680   20.4953  -31.6019 H   0  0  0  0  0  0  0  0  0  0  0  0
   -1.7398   20.5854  -31.4257 H   0  0  0  0  0  0  0  0  0  0  0  0
   -0.8895   18.2456  -31.4507 H   0  0  0  0  0  0  0  0  0  0  0  0
   -2.0166   18.6386  -32.8310 H   0  0  0  0  0  0  0  0  0  0  0  0
   -3.3973   19.9353  -33.7489 H   0  0  0  0  0  0  0  0  0  0  0  0
  1  2  1  0
  2  3  1  0
  3  4  1  0
  4  5  1  0
  3  6  1  0
  6  7  1  0
  7  8  1  0
  8  9  1  0
  9 10  2  0
 10 11  1  0
 11 12  2  0
 12 13  1  0
 13 14  2  0
 14 15  1  0
 15 16  2  0
 16 17  1  0
 16 18  1  0
 18 19  2  0
 19 20  1  0
 20 21  1  0
 21 22  1  0
 20 23  2  0
 23 24  1  0
 24 25  1  0
 25 26  1  0
 26 27  1  0
 27 28  1  0
 27 29  1  0
 29 30  1  0
 30 31  1  0
 31 32  1  0
 32 33  1  0
 23 34  1  0
 34 35  2  0
 35  9  1  0
 15 10  1  0
 35 18  1  0
 33 27  1  0
  1 36  1  0
  1 37  1  0
  1 38  1  0
  2 39  1  0
  2 40  1  0
  4 41  1  0
  4 42  1  0
  5 43  1  0
  5 44  1  0
  5 45  1  0
  6 46  1  0
  6 47  1  0
  7 48  1  0
  7 49  1  0
  8 50  1  0
 11 51  1  0
 12 52  1  0
 13 53  1  0
 14 54  1  0
 17 55  1  0
 17 56  1  0
 17 57  1  0
 19 58  1  0
 22 59  1  0
 22 60  1  0
 22 61  1  0
 25 62  1  0
 25 63  1  0
 26 64  1  0
 26 65  1  0
 28 66  1  0
 28 67  1  0
 28 68  1  0
 29 69  1  0
 29 70  1  0
 30 71  1  0
 30 72  1  0
 31 73  1  0
 31 74  1  0
 32 75  1  0
 32 76  1  0
 33 77  1  0
 33 78  1  0
 34 79  1  0
M  CHG  2  16   1  27   1
M  END
>  <UniqueID>  (3) 
3

>  <SMILES>  (3) 
CCN(CC)CCNc1c2ccccc2[n+](C)c2cc(OC)c(OCC[N+]3(C)CCCCC3)cc12

>  <Energy>  (3) 
121.72554182740629

>  <Genealogy>  (3) 
CCN(CC)CCNc1c2ccccc2[n+](C)c2cc(OC)c(OCC[N+]3(C)CCCCC3)cc12 (3D coordinates assigned)
CCN(CC)CCNc1c2ccccc2[n+](C)c2cc(OC)c(OCC[N+]3(C)CCCCC3)cc12 (nonaromatic ring conformer: 121.72554182740629 kcal/mol)

>  <smiles>  (3) 
CCN(CC)CCNc1c2ccccc2[n+](C)c2cc(OC)c(OCC[N+]3(C)CCCCC3)cc12

>  <score_type>  (3) 
oracle

>  <origin>  (3) 
adg

>  <m_score__min__energy>  (3) 
-8.6099999999999994

>  <m_primary>  (3) 
energy

$$$$
3:0
     RDKit          3D

 48 50  0  0  0  0  0  0  0  0999 V2000
   -1.7430   19.2800  -33.8170 C   0  0  0  0  0  0  0  0  0  0  0  0
   -3.0680   19.7980  -33.8960 O   0  0  0  0  0  0  0  0  0  0  0  0
   -4.2510   19.0430  -33.8410 C   0  0  0  0  0  0  0  0  0  0  0  0
   -4.2200   17.7020  -34.2600 C   0  0  0  0  0  0  0  0  0  0  0  0
   -5.3410   16.9010  -34.1680 C   0  0  0  0  0  0  0  0  0  0  0  0
   -6.5010   17.3950  -33.6010 C   0  0  0  0  0  0  0  0  0  0  0  0
   -6.5820   18.7250  -33.1250 C   0  0  0  0  0  0  0  0  0  0  0  0
   -5.4780   19.6100  -33.3380 C   0  0  0  0  0  0  0  0  0  0  0  0
   -5.6590   21.0070  -33.0480 C   0  0  0  0  0  0  0  0  0  0  0  0
   -4.6010   21.9730  -33.3250 N   0  0  0  0  0  0  0  0  0  0  0  0
   -3.6830   22.1380  -32.1760 C   0  0  0  0  0  0  0  0  0  0  0  0
   -4.3770   22.7440  -30.9450 C   0  0  0  0  0  0  0  0  0  0  0  0
   -4.0850   24.1910  -30.8440 N   0  0  0  0  0  0  0  0  0  0  0  0
   -5.3390   24.9610  -30.7840 C   0  0  0  0  0  0  0  0  0  0  0  0
   -3.2760   24.4870  -29.6470 C   0  0  0  0  0  0  0  0  0  0  0  0
   -6.9280   21.4520  -32.5610 C   0  0  0  0  0  0  0  0  0  0  0  0
   -7.2090   22.8220  -32.2990 C   0  0  0  0  0  0  0  0  0  0  0  0
   -8.4690   23.2410  -31.8830 C   0  0  0  0  0  0  0  0  0  0  0  0
   -9.4900   22.3200  -31.7240 C   0  0  0  0  0  0  0  0  0  0  0  0
   -9.2460   20.9700  -31.9440 C   0  0  0  0  0  0  0  0  0  0  0  0
   -7.9600   20.5030  -32.3230 C   0  0  0  0  0  0  0  0  0  0  0  0
   -7.7180   19.1580  -32.4780 N   0  0  0  0  0  0  0  0  0  0  0  0
   -8.6670   18.1700  -31.9110 C   0  0  0  0  0  0  0  0  0  0  0  0
   -1.4556   19.1676  -32.7612 H   0  0  0  0  0  0  0  0  0  0  0  0
   -1.7023   18.2997  -34.3144 H   0  0  0  0  0  0  0  0  0  0  0  0
   -1.0482   19.9727  -34.3144 H   0  0  0  0  0  0  0  0  0  0  0  0
   -3.2879   17.2838  -34.6677 H   0  0  0  0  0  0  0  0  0  0  0  0
   -5.3110   15.8685  -34.5463 H   0  0  0  0  0  0  0  0  0  0  0  0
   -7.3805   16.7396  -33.5181 H   0  0  0  0  0  0  0  0  0  0  0  0
   -4.0760   21.6900  -34.1790 H   0  0  0  0  0  0  0  0  0  0  0  0
   -4.9580   22.8980  -33.6400 H   0  0  0  0  0  0  0  0  0  0  0  0
   -3.2800   21.1516  -31.9029 H   0  0  0  0  0  0  0  0  0  0  0  0
   -2.8865   22.8315  -32.4837 H   0  0  0  0  0  0  0  0  0  0  0  0
   -5.4638   22.5996  -31.0348 H   0  0  0  0  0  0  0  0  0  0  0  0
   -4.0005   22.2417  -30.0417 H   0  0  0  0  0  0  0  0  0  0  0  0
   -5.6152   25.1306  -29.7328 H   0  0  0  0  0  0  0  0  0  0  0  0
   -5.1992   25.9291  -31.2872 H   0  0  0  0  0  0  0  0  0  0  0  0
   -6.1392   24.3984  -31.2872 H   0  0  0  0  0  0  0  0  0  0  0  0
   -3.8654   24.2714  -28.7436 H   0  0  0  0  0  0  0  0  0  0  0  0
   -2.3710   23.8618  -29.6523 H   0  0  0  0  0  0  0  0  0  0  0  0
   -2.9882   25.5487  -29.6523 H   0  0  0  0  0  0  0  0  0  0  0  0
   -6.4109   23.5679  -32.4284 H   0  0  0  0  0  0  0  0  0  0  0  0
   -8.6540   24.3062  -31.6801 H   0  0  0  0  0  0  0  0  0  0  0  0
  -10.4933   22.6565  -31.4238 H   0  0  0  0  0  0  0  0  0  0  0  0
  -10.0666   20.2477  -31.8219 H   0  0  0  0  0  0  0  0  0  0  0  0
   -8.6269   18.2117  -30.8125 H   0  0  0  0  0  0  0  0  0  0  0  0
   -9.6868   18.4048  -32.2499 H   0  0  0  0  0  0  0  0  0  0  0  0
   -8.3913   17.1605  -32.2499 H   0  0  0  0  0  0  0  0  0  0  0  0
  1  2  1  0
  2  3  1  0
  3  4  2  0
  4  5  1  0
  5  6  2  0
  6  7  1  0
  7  8  2  0
  8  9  1  0
  9 10  1  0
 10 11  1  0
 11 12  1  0
 12 13  1  0
 13 14  1  0
 13 15  1  0
  9 16  2  0
 16 17  1  0
 17 18  2  0
 18 19  1  0
 19 20  2  0
 20 21  1  0
 21 22  2  0
 22 23  1  0
  8  3  1  0
 21 16  1  0
 22  7  1  0
  1 24  1  0
  1 25  1  0
  1 26  1  0
  4 27  1  0
  5 28  1  0
  6 29  1  0
 10 30  1  0
 10 31  1  0
 11 32  1  0
 11 33  1  0
 12 34  1  0
 12 35  1  0
 14 36  1  0
 14 37  1  0
 14 38  1  0
 15 39  1  0
 15 40  1  0
 15 41  1  0
 17 42  1  0
 18 43  1  0
 19 44  1  0
 20 45  1  0
 23 46  1  0
 23 47  1  0
 23 48  1  0
M  CHG  2  10   1  22   1
M  END
>  <UniqueID>  (4) 
4

>  <SMILES>  (4) 
COc1cccc2c1c([NH2+]CCN(C)C)c1ccccc1[n+]2C

>  <Energy>  (4) 
86.58857993707484

>  <Genealogy>  (4) 
COc1cccc2c1c([NH2+]CCN(C)C)c1ccccc1[n+]2C (protonated)
COc1cccc2c1c([NH2+]CCN(C)C)c1ccccc1[n+]2C (3D coordinates assigned)
COc1cccc2c1c([NH2+]CCN(C)C)c1ccccc1[n+]2C (optimized conformer: 86.58857993707484 kcal/mol)

>  <smiles>  (4) 
COc1cccc2c1c(NCCN(C)C)c1ccccc1[n+]2C

>  <score_type>  (4) 
oracle

>  <origin>  (4) 
adg

>  <m_score__min__energy>  (4) 
-7.5999999999999996

>  <m_primary>  (4) 
energy

$$$$
4:0
     RDKit          3D

 59 62  0  0  0  0  0  0  0  0999 V2000
   -1.4030   25.6910  -27.7040 C   0  0  0  0  0  0  0  0  0  0  0  0
   -2.0430   25.5120  -28.9620 O   0  0  0  0  0  0  0  0  0  0  0  0
   -2.3150   24.2640  -29.5520 C   0  0  0  0  0  0  0  0  0  0  0  0
   -1.3900   23.2100  -29.4910 C   0  0  0  0  0  0  0  0  0  0  0  0
   -1.6710   21.9840  -30.0850 C   0  0  0  0  0  0  0  0  0  0  0  0
   -2.8690   21.7720  -30.7810 C   0  0  0  0  0  0  0  0  0  0  0  0
   -3.0840   20.4130  -31.4180 C   0  0  0  0  0  0  0  0  0  0  0  0
   -1.7960   19.7450  -31.6690 N   0  0  0  0  0  0  0  0  0  0  0  0
   -1.2650   20.0420  -33.0120 C   0  0  0  0  0  0  0  0  0  0  0  0
   -2.1390   19.4960  -34.1630 C   0  0  0  0  0  0  0  0  0  0  0  0
   -2.3810   17.9800  -34.0890 C   0  0  0  0  0  0  0  0  0  0  0  0
   -3.4930   17.5940  -34.9690 N   0  0  0  0  0  0  0  0  0  0  0  0
   -4.5500   16.8760  -34.2410 C   0  0  0  0  0  0  0  0  0  0  0  0
   -5.5700   17.8630  -33.7390 C   0  0  0  0  0  0  0  0  0  0  0  0
   -5.3900   19.2530  -33.9510 C   0  0  0  0  0  0  0  0  0  0  0  0
   -6.2770   20.1870  -33.3860 C   0  0  0  0  0  0  0  0  0  0  0  0
   -7.3380   19.6990  -32.6190 C   0  0  0  0  0  0  0  0  0  0  0  0
   -7.5250   18.3560  -32.4310 C   0  0  0  0  0  0  0  0  0  0  0  0
   -8.6610   18.1950  -31.6670 C   0  0  0  0  0  0  0  0  0  0  0  0
   -9.1140   19.4820  -31.4050 C   0  0  0  0  0  0  0  0  0  0  0  0
   -8.3010   20.3960  -31.9870 N   0  0  0  0  0  0  0  0  0  0  0  0
   -8.4770   21.8470  -31.9720 C   0  0  0  0  0  0  0  0  0  0  0  0
   -6.6570   17.4070  -32.9630 C   0  0  0  0  0  0  0  0  0  0  0  0
   -3.8360   22.8140  -30.8280 C   0  0  0  0  0  0  0  0  0  0  0  0
   -5.0830   22.6510  -31.4750 C   0  0  0  0  0  0  0  0  0  0  0  0
   -6.0140   23.6920  -31.5010 C   0  0  0  0  0  0  0  0  0  0  0  0
   -5.7260   24.9100  -30.8940 C   0  0  0  0  0  0  0  0  0  0  0  0
   -4.5040   25.0980  -30.2490 C   0  0  0  0  0  0  0  0  0  0  0  0
   -3.5480   24.0630  -30.2050 C   0  0  0  0  0  0  0  0  0  0  0  0
   -2.1212   25.4901  -26.8954 H   0  0  0  0  0  0  0  0  0  0  0  0
   -0.5546   24.9957  -27.6220 H   0  0  0  0  0  0  0  0  0  0  0  0
   -1.0384   26.7256  -27.6220 H   0  0  0  0  0  0  0  0  0  0  0  0
   -0.4331   23.3550  -28.9681 H   0  0  0  0  0  0  0  0  0  0  0  0
   -0.9397   21.1660  -30.0071 H   0  0  0  0  0  0  0  0  0  0  0  0
   -3.6884   19.7895  -30.7427 H   0  0  0  0  0  0  0  0  0  0  0  0
   -3.6032   20.5510  -32.3779 H   0  0  0  0  0  0  0  0  0  0  0  0
   -1.1040   20.0050  -30.9340 H   0  0  0  0  0  0  0  0  0  0  0  0
   -1.9370   18.7110  -31.6020 H   0  0  0  0  0  0  0  0  0  0  0  0
   -1.1899   21.1340  -33.1215 H   0  0  0  0  0  0  0  0  0  0  0  0
   -0.2876   19.5430  -33.0875 H   0  0  0  0  0  0  0  0  0  0  0  0
   -3.1135   20.0053  -34.1308 H   0  0  0  0  0  0  0  0  0  0  0  0
   -1.5952   19.6895  -35.0994 H   0  0  0  0  0  0  0  0  0  0  0  0
   -1.4692   17.4518  -34.4046 H   0  0  0  0  0  0  0  0  0  0  0  0
   -2.6358   17.7100  -33.0535 H   0  0  0  0  0  0  0  0  0  0  0  0
   -3.9020   18.4710  -35.3760 H   0  0  0  0  0  0  0  0  0  0  0  0
   -5.0367   16.1564  -34.9158 H   0  0  0  0  0  0  0  0  0  0  0  0
   -4.1090   16.3378  -33.3890 H   0  0  0  0  0  0  0  0  0  0  0  0
   -4.5473   19.6051  -34.5641 H   0  0  0  0  0  0  0  0  0  0  0  0
   -6.1398   21.2671  -33.5430 H   0  0  0  0  0  0  0  0  0  0  0  0
   -9.1129   17.2486  -31.3352 H   0  0  0  0  0  0  0  0  0  0  0  0
  -10.0064   19.7245  -30.8093 H   0  0  0  0  0  0  0  0  0  0  0  0
   -8.5199   22.2004  -30.9312 H   0  0  0  0  0  0  0  0  0  0  0  0
   -7.6302   22.3244  -32.4868 H   0  0  0  0  0  0  0  0  0  0  0  0
   -9.4134   22.1081  -32.4868 H   0  0  0  0  0  0  0  0  0  0  0  0
   -6.8136   16.3330  -32.7839 H   0  0  0  0  0  0  0  0  0  0  0  0
   -5.3222   21.6945  -31.9628 H   0  0  0  0  0  0  0  0  0  0  0  0
   -6.9812   23.5477  -32.0047 H   0  0  0  0  0  0  0  0  0  0  0  0
   -6.4631   25.7260  -30.9228 H   0  0  0  0  0  0  0  0  0  0  0  0
   -4.2839   26.0634  -29.7699 H   0  0  0  0  0  0  0  0  0  0  0  0
  1  2  1  0
  2  3  1  0
  3  4  2  0
  4  5  1  0
  5  6  2  0
  6  7  1  0
  7  8  1  0
  8  9  1  0
  9 10  1  0
 10 11  1  0
 11 12  1  0
 12 13  1  0
 13 14  1  0
 14 15  2  0
 15 16  1  0
 16 17  2  0
 17 18  1  0
 18 19  1  0
 19 20  2  0
 20 21  1  0
 21 22  1  0
 18 23  2  0
  6 24  1  0
 24 25  2  0
 25 26  1  0
 26 27  2  0
 27 28  1  0
 28 29  2  0
 29  3  1  0
 23 14  1  0
 29 24  1  0
 21 17  1  0
  1 30  1  0
  1 31  1  0
  1 32  1  0
  4 33  1  0
  5 34  1  0
  7 35  1  0
  7 36  1  0
  8 37  1  0
  8 38  1  0
  9 39  1  0
  9 40  1  0
 10 41  1  0
 10 42  1  0
 11 43  1  0
 11 44  1  0
 12 45  1  0
 13 46  1  0
 13 47  1  0
 15 48  1  0
 16 49  1  0
 19 50  1  0
 20 51  1  0
 22 52  1  0
 22 53  1  0
 22 54  1  0
 23 55  1  0
 25 56  1  0
 26 57  1  0
 27 58  1  0
 28 59  1  0
M  CHG  1   8   1
M  END
>  <UniqueID>  (5) 
5

>  <SMILES>  (5) 
COc1ccc(C[NH2+]CCCNCc2ccc3c(ccn3C)c2)c2ccccc12

>  <Energy>  (5) 
93.00479762876373

>  <Genealogy>  (5) 
COc1ccc(C[NH2+]CCCNCc2ccc3c(ccn3C)c2)c2ccccc12 (protonated)
COc1ccc(C[NH2+]CCCNCc2ccc3c(ccn3C)c2)c2ccccc12 (3D coordinates assigned)
COc1ccc(C[NH2+]CCCNCc2ccc3c(ccn3C)c2)c2ccccc12 (optimized conformer: 93.00479762876373 kcal/mol)

>  <smiles>  (5) 
COc1ccc(CNCCCNCc2ccc3c(ccn3C)c2)c2ccccc12

>  <score_type>  (5) 
oracle

>  <origin>  (5) 
adg

>  <m_score__min__energy>  (5) 
-9.5600000000000005

>  <m_primary>  (5) 
energy

$$$$
5:0
     RDKit          3D

 48 50  0  0  0  0  0  0  0  0999 V2000
   -1.1150   25.9420  -24.7790 C   0  0  0  0  0  0  0  0  0  0  0  0
   -1.6480   25.5040  -26.1100 C   0  0  0  0  0  0  0  0  0  0  0  0
   -0.8760   25.6820  -27.2660 C   0  0  0  0  0  0  0  0  0  0  0  0
   -1.3730   25.2940  -28.5140 C   0  0  0  0  0  0  0  0  0  0  0  0
   -2.6550   24.7250  -28.6260 C   0  0  0  0  0  0  0  0  0  0  0  0
   -3.1700   24.2860  -29.9430 C   0  0  0  0  0  0  0  0  0  0  0  0
   -2.9740   23.1030  -30.3380 O   0  0  0  0  0  0  0  0  0  0  0  0
   -3.8800   25.2040  -30.7790 N   0  0  0  0  0  0  0  0  0  0  0  0
   -5.2310   25.6640  -30.4850 C   0  0  0  0  0  0  0  0  0  0  0  0
   -6.1090   24.4860  -30.0630 C   0  0  0  0  0  0  0  0  0  0  0  0
   -6.0250   23.3490  -31.0460 C   0  0  0  0  0  0  0  0  0  0  0  0
   -5.0070   23.1950  -31.9130 N   0  0  0  0  0  0  0  0  0  0  0  0
   -5.2540   22.1300  -32.6580 N   0  0  0  0  0  0  0  0  0  0  0  0
   -6.4400   21.6490  -32.2390 C   0  0  0  0  0  0  0  0  0  0  0  0
   -7.2240   20.2020  -32.9560 S   0  0  0  0  0  0  0  0  0  0  0  0
   -5.7480   19.6670  -33.8910 C   0  0  0  0  0  0  0  0  0  0  0  0
   -5.6320   18.1630  -33.9210 C   0  0  0  0  0  0  0  0  0  0  0  0
   -6.8080   17.3950  -33.8450 C   0  0  0  0  0  0  0  0  0  0  0  0
   -6.7470   16.0000  -33.8430 C   0  0  0  0  0  0  0  0  0  0  0  0
   -5.5130   15.3550  -33.9110 C   0  0  0  0  0  0  0  0  0  0  0  0
   -4.3370   16.1020  -33.9960 C   0  0  0  0  0  0  0  0  0  0  0  0
   -4.3850   17.5020  -34.0130 C   0  0  0  0  0  0  0  0  0  0  0  0
   -2.8610   18.3730  -34.1470 Cl  0  0  0  0  0  0  0  0  0  0  0  0
   -6.9480   22.3790  -31.2220 N   0  0  0  0  0  0  0  0  0  0  0  0
   -8.2370   22.2010  -30.5560 C   0  0  0  0  0  0  0  0  0  0  0  0
   -3.4350   24.5720  -27.4660 C   0  0  0  0  0  0  0  0  0  0  0  0
   -2.9370   24.9620  -26.2200 C   0  0  0  0  0  0  0  0  0  0  0  0
   -1.6960   25.4645  -23.9762 H   0  0  0  0  0  0  0  0  0  0  0  0
   -0.0587   25.6475  -24.6921 H   0  0  0  0  0  0  0  0  0  0  0  0
   -1.1992   27.0353  -24.6921 H   0  0  0  0  0  0  0  0  0  0  0  0
    0.1262   26.1293  -27.1912 H   0  0  0  0  0  0  0  0  0  0  0  0
   -0.7574   25.4346  -29.4147 H   0  0  0  0  0  0  0  0  0  0  0  0
   -5.1946   26.4008  -29.6690 H   0  0  0  0  0  0  0  0  0  0  0  0
   -5.6580   26.1248  -31.3880 H   0  0  0  0  0  0  0  0  0  0  0  0
   -5.7775   24.1297  -29.0765 H   0  0  0  0  0  0  0  0  0  0  0  0
   -7.1526   24.8317  -30.0268 H   0  0  0  0  0  0  0  0  0  0  0  0
   -4.1620   23.8010  -32.0050 H   0  0  0  0  0  0  0  0  0  0  0  0
   -5.8227   20.0411  -34.9227 H   0  0  0  0  0  0  0  0  0  0  0  0
   -4.8557   20.0736  -33.3926 H   0  0  0  0  0  0  0  0  0  0  0  0
   -7.7846   17.8979  -33.7866 H   0  0  0  0  0  0  0  0  0  0  0  0
   -7.6734   15.4095  -33.7877 H   0  0  0  0  0  0  0  0  0  0  0  0
   -5.4660   14.2561  -33.8977 H   0  0  0  0  0  0  0  0  0  0  0  0
   -3.3660   15.5880  -34.0500 H   0  0  0  0  0  0  0  0  0  0  0  0
   -8.0923   22.2210  -29.4657 H   0  0  0  0  0  0  0  0  0  0  0  0
   -8.9172   23.0137  -30.8505 H   0  0  0  0  0  0  0  0  0  0  0  0
   -8.6715   21.2343  -30.8505 H   0  0  0  0  0  0  0  0  0  0  0  0
   -4.4448   24.1421  -27.5400 H   0  0  0  0  0  0  0  0  0  0  0  0
   -3.5592   24.8433  -25.3206 H   0  0  0  0  0  0  0  0  0  0  0  0
  1  2  1  0
  2  3  2  0
  3  4  1  0
  4  5  2  0
  5  6  1  0
  6  7  2  0
  6  8  1  0
  8  9  1  0
  9 10  1  0
 10 11  1  0
 11 12  2  0
 12 13  1  0
 13 14  2  0
 14 15  1  0
 15 16  1  0
 16 17  1  0
 17 18  2  0
 18 19  1  0
 19 20  2  0
 20 21  1  0
 21 22  2  0
 22 23  1  0
 14 24  1  0
 24 25  1  0
  5 26  1  0
 26 27  2  0
 27  2  1  0
 24 11  1  0
 22 17  1  0
  1 28  1  0
  1 29  1  0
  1 30  1  0
  3 31  1  0
  4 32  1  0
  9 33  1  0
  9 34  1  0
 10 35  1  0
 10 36  1  0
 12 37  1  0
 16 38  1  0
 16 39  1  0
 18 40  1  0
 19 41  1  0
 20 42  1  0
 21 43  1  0
 25 44  1  0
 25 45  1  0
 25 46  1  0
 26 47  1  0
 27 48  1  0
M  CHG  2   8  -1  12   1
M  END
>  <UniqueID>  (6) 
6

>  <SMILES>  (6) 
Cc1ccc(C(=O)[N-]CCc2[nH+]nc(SCc3ccccc3Cl)n2C)cc1

>  <Energy>  (6) 
70.57113324409754

>  <Genealogy>  (6) 
Cc1ccc(C(=O)[N-]CCc2[nH+]nc(SCc3ccccc3Cl)n2C)cc1 (protonated)
Cc1ccc(C(=O)[N-]CCc2[nH+]nc(SCc3ccccc3Cl)n2C)cc1 (3D coordinates assigned)
Cc1ccc(C(=O)[N-]CCc2[nH+]nc(SCc3ccccc3Cl)n2C)cc1 (optimized conformer: 70.57113324409754 kcal/mol)

>  <smiles>  (6) 
Cc1ccc(C(=O)NCCc2nnc(SCc3ccccc3Cl)n2C)cc1

>  <score_type>  (6) 
oracle

>  <origin>  (6) 
adg

>  <m_score__min__energy>  (6) 
-10.17

>  <m_primary>  (6) 
energy

$$$$
6:0
     RDKit          3D

 71 75  0  0  0  0  0  0  0  0999 V2000
   -8.7360   21.0580  -31.6840 C   0  0  0  0  0  0  0  0  0  0  0  0
   -8.6680   19.8670  -32.6380 C   0  0  0  0  0  0  0  0  0  0  0  0
   -7.3050   19.2940  -32.6570 N   0  0  0  0  0  0  0  0  0  0  0  0
   -7.2990   17.8110  -32.6130 C   0  0  0  0  0  0  0  0  0  0  0  0
   -6.5080   17.1500  -33.7550 C   0  0  0  0  0  0  0  0  0  0  0  0
   -6.4520   19.8390  -33.7390 C   0  0  0  0  0  0  0  0  0  0  0  0
   -5.1690   20.4320  -33.1500 C   0  0  0  0  0  0  0  0  0  0  0  0
   -5.0990   20.1850  -31.7100 N   0  0  0  0  0  0  0  0  0  0  0  0
   -4.2910   20.9790  -30.8220 C   0  0  0  0  0  0  0  0  0  0  0  0
   -3.1660   20.4250  -30.2860 N   0  0  0  0  0  0  0  0  0  0  0  0
   -2.4000   21.1380  -29.4320 C   0  0  0  0  0  0  0  0  0  0  0  0
   -1.2600   20.7180  -28.8630 N   0  0  0  0  0  0  0  0  0  0  0  0
   -0.6080   19.4200  -29.0080 C   0  0  0  0  0  0  0  0  0  0  0  0
   -0.8730   18.5440  -27.7770 C   0  0  0  0  0  0  0  0  0  0  0  0
   -1.6850   19.2830  -26.7130 C   0  0  0  0  0  0  0  0  0  0  0  0
   -2.4560   18.3590  -25.9740 O   0  0  0  0  0  0  0  0  0  0  0  0
   -3.8220   18.5630  -26.2520 C   0  0  0  0  0  0  0  0  0  0  0  0
   -0.7760   21.7230  -28.1480 N   0  0  0  0  0  0  0  0  0  0  0  0
   -1.6530   22.7470  -28.2890 C   0  0  0  0  0  0  0  0  0  0  0  0
   -1.3650   24.0850  -27.7580 C   0  0  0  0  0  0  0  0  0  0  0  0
   -1.1410   25.1530  -28.6380 C   0  0  0  0  0  0  0  0  0  0  0  0
   -0.8820   26.4330  -28.1420 C   0  0  0  0  0  0  0  0  0  0  0  0
   -0.8660   26.6620  -26.7570 C   0  0  0  0  0  0  0  0  0  0  0  0
   -0.6080   27.9440  -26.2450 C   0  0  0  0  0  0  0  0  0  0  0  0
   -0.6020   28.1590  -24.8640 C   0  0  0  0  0  0  0  0  0  0  0  0
   -0.8520   27.1020  -23.9840 C   0  0  0  0  0  0  0  0  0  0  0  0
   -1.1100   25.8210  -24.4790 C   0  0  0  0  0  0  0  0  0  0  0  0
   -1.1160   25.5890  -25.8640 C   0  0  0  0  0  0  0  0  0  0  0  0
   -1.3680   24.3070  -26.3730 C   0  0  0  0  0  0  0  0  0  0  0  0
   -2.6970   22.3990  -29.0900 N   0  0  0  0  0  0  0  0  0  0  0  0
   -3.8310   23.0210  -29.5400 C   0  0  0  0  0  0  0  0  0  0  0  0
   -4.2250   24.3000  -29.1030 C   0  0  0  0  0  0  0  0  0  0  0  0
   -5.3660   24.9060  -29.6300 C   0  0  0  0  0  0  0  0  0  0  0  0
   -6.1370   24.2440  -30.5840 C   0  0  0  0  0  0  0  0  0  0  0  0
   -5.7920   22.9570  -30.9990 C   0  0  0  0  0  0  0  0  0  0  0  0
   -4.6570   22.3130  -30.4640 C   0  0  0  0  0  0  0  0  0  0  0  0
   -8.7154   20.6972  -30.6451 H   0  0  0  0  0  0  0  0  0  0  0  0
   -7.8741   21.7184  -31.8600 H   0  0  0  0  0  0  0  0  0  0  0  0
   -9.6675   21.6160  -31.8600 H   0  0  0  0  0  0  0  0  0  0  0  0
   -9.3796   19.0966  -32.3062 H   0  0  0  0  0  0  0  0  0  0  0  0
   -8.9236   20.2090  -33.6518 H   0  0  0  0  0  0  0  0  0  0  0  0
   -6.8541   17.4959  -31.6576 H   0  0  0  0  0  0  0  0  0  0  0  0
   -8.3444   17.4870  -32.7234 H   0  0  0  0  0  0  0  0  0  0  0  0
   -5.7287   16.4988  -33.3323 H   0  0  0  0  0  0  0  0  0  0  0  0
   -7.1908   16.5501  -34.3746 H   0  0  0  0  0  0  0  0  0  0  0  0
   -6.0389   17.9285  -34.3746 H   0  0  0  0  0  0  0  0  0  0  0  0
   -6.1915   19.0312  -34.4387 H   0  0  0  0  0  0  0  0  0  0  0  0
   -7.0038   20.6296  -34.2685 H   0  0  0  0  0  0  0  0  0  0  0  0
   -4.2994   19.9683  -33.6386 H   0  0  0  0  0  0  0  0  0  0  0  0
   -5.1696   21.5183  -33.3229 H   0  0  0  0  0  0  0  0  0  0  0  0
   -5.5560   19.3140  -31.3660 H   0  0  0  0  0  0  0  0  0  0  0  0
   -1.0016   18.9154  -29.9027 H   0  0  0  0  0  0  0  0  0  0  0  0
    0.4764   19.5761  -29.1062 H   0  0  0  0  0  0  0  0  0  0  0  0
   -1.4302   17.6491  -28.0911 H   0  0  0  0  0  0  0  0  0  0  0  0
    0.0981   18.2736  -27.3367 H   0  0  0  0  0  0  0  0  0  0  0  0
   -1.0009   19.8135  -26.0343 H   0  0  0  0  0  0  0  0  0  0  0  0
   -2.3543   20.0056  -27.2029 H   0  0  0  0  0  0  0  0  0  0  0  0
   -4.3799   18.6463  -25.3077 H   0  0  0  0  0  0  0  0  0  0  0  0
   -3.9437   19.4893  -26.8327 H   0  0  0  0  0  0  0  0  0  0  0  0
   -4.2090   17.7127  -26.8327 H   0  0  0  0  0  0  0  0  0  0  0  0
   -1.1693   24.9823  -29.7243 H   0  0  0  0  0  0  0  0  0  0  0  0
   -0.6902   27.2630  -28.8379 H   0  0  0  0  0  0  0  0  0  0  0  0
   -0.4104   28.7802  -26.9319 H   0  0  0  0  0  0  0  0  0  0  0  0
   -0.3996   29.1649  -24.4676 H   0  0  0  0  0  0  0  0  0  0  0  0
   -0.8456   27.2792  -22.8984 H   0  0  0  0  0  0  0  0  0  0  0  0
   -1.3087   24.9930  -23.7827 H   0  0  0  0  0  0  0  0  0  0  0  0
   -1.5686   23.4731  -25.6843 H   0  0  0  0  0  0  0  0  0  0  0  0
   -3.6296   24.8248  -28.3414 H   0  0  0  0  0  0  0  0  0  0  0  0
   -5.6584   25.9108  -29.2910 H   0  0  0  0  0  0  0  0  0  0  0  0
   -7.0216   24.7384  -31.0118 H   0  0  0  0  0  0  0  0  0  0  0  0
   -6.4098   22.4411  -31.7488 H   0  0  0  0  0  0  0  0  0  0  0  0
  1  2  1  0
  2  3  1  0
  3  4  1  0
  4  5  1  0
  3  6  1  0
  6  7  1  0
  7  8  1  0
  8  9  1  0
  9 10  2  0
 10 11  1  0
 11 12  1  0
 12 13  1  0
 13 14  1  0
 14 15  1  0
 15 16  1  0
 16 17  1  0
 12 18  1  0
 18 19  2  0
 19 20  1  0
 20 21  2  0
 21 22  1  0
 22 23  2  0
 23 24  1  0
 24 25  2  0
 25 26  1  0
 26 27  2  0
 27 28  1  0
 28 29  2  0
 19 30  1  0
 30 31  1  0
 31 32  2  0
 32 33  1  0
 33 34  2  0
 34 35  1  0
 35 36  2  0
 36  9  1  0
 30 11  2  0
 36 31  1  0
 29 20  1  0
 28 23  1  0
  1 37  1  0
  1 38  1  0
  1 39  1  0
  2 40  1  0
  2 41  1  0
  4 42  1  0
  4 43  1  0
  5 44  1  0
  5 45  1  0
  5 46  1  0
  6 47  1  0
  6 48  1  0
  7 49  1  0
  7 50  1  0
  8 51  1  0
 13 52  1  0
 13 53  1  0
 14 54  1  0
 14 55  1  0
 15 56  1  0
 15 57  1  0
 17 58  1  0
 17 59  1  0
 17 60  1  0
 21 61  1  0
 22 62  1  0
 24 63  1  0
 25 64  1  0
 26 65  1  0
 27 66  1  0
 29 67  1  0
 32 68  1  0
 33 69  1  0
 34 70  1  0
 35 71  1  0
M  CHG  1  30   1
M  END
>  <UniqueID>  (7) 
7

>  <SMILES>  (7) 
CCN(CC)CCNc1nc2n(CCCOC)nc(-c3ccc4ccccc4c3)[n+]2c2ccccc12

>  <Energy>  (7) 
130.8501211889844

>  <Genealogy>  (7) 
CCN(CC)CCNc1nc2n(CCCOC)nc(-c3ccc4ccccc4c3)[n+]2c2ccccc12 (3D coordinates assigned)
CCN(CC)CCNc1nc2n(CCCOC)nc(-c3ccc4ccccc4c3)[n+]2c2ccccc12 (optimized conformer: 130.8501211889844 kcal/mol)

>  <smiles>  (7) 
CCN(CC)CCNc1nc2n(CCCOC)nc(-c3ccc4ccccc4c3)[n+]2c2ccccc12

>  <score_type>  (7) 
oracle

>  <origin>  (7) 
adg

>  <m_score__min__energy>  (7) 
-9.7200000000000006

>  <m_primary>  (7) 
energy

$$$$
7:0
     RDKit          3D

 52 54  0  0  0  0  0  0  0  0999 V2000
    0.6870   24.0700  -36.0560 C   0  0  0  0  0  0  0  0  0  0  0  0
    1.0540   22.6100  -35.7970 C   0  0  0  0  0  0  0  0  0  0  0  0
    0.1010   21.9880  -34.8650 N   0  0  0  0  0  0  0  0  0  0  0  0
    0.1890   20.5220  -34.9410 C   0  0  0  0  0  0  0  0  0  0  0  0
   -0.9620   19.8590  -34.1720 C   0  0  0  0  0  0  0  0  0  0  0  0
   -2.0730   20.8110  -34.0350 N   0  0  0  0  0  0  0  0  0  0  0  0
   -2.0420   21.5290  -32.7520 C   0  0  0  0  0  0  0  0  0  0  0  0
   -3.4460   21.9160  -32.2500 C   0  0  0  0  0  0  0  0  0  0  0  0
   -4.5040   21.5700  -33.2070 N   0  0  0  0  0  0  0  0  0  0  0  0
   -5.6480   20.7660  -32.8610 C   0  0  0  0  0  0  0  0  0  0  0  0
   -6.8420   21.3920  -32.4580 C   0  0  0  0  0  0  0  0  0  0  0  0
   -6.9100   22.7970  -32.3320 C   0  0  0  0  0  0  0  0  0  0  0  0
   -8.1090   23.4260  -32.0090 C   0  0  0  0  0  0  0  0  0  0  0  0
   -9.2620   22.6720  -31.8240 C   0  0  0  0  0  0  0  0  0  0  0  0
   -9.2180   21.2840  -31.9350 C   0  0  0  0  0  0  0  0  0  0  0  0
   -8.0040   20.6080  -32.2200 C   0  0  0  0  0  0  0  0  0  0  0  0
   -7.9410   19.2290  -32.3080 N   0  0  0  0  0  0  0  0  0  0  0  0
   -9.0740   18.4060  -31.8280 C   0  0  0  0  0  0  0  0  0  0  0  0
   -6.8110   18.6170  -32.8170 C   0  0  0  0  0  0  0  0  0  0  0  0
   -6.8010   17.2430  -33.1700 C   0  0  0  0  0  0  0  0  0  0  0  0
   -5.6300   16.6180  -33.5970 C   0  0  0  0  0  0  0  0  0  0  0  0
   -5.6540   14.7670  -34.0710 Br  0  0  0  0  0  0  0  0  0  0  0  0
   -4.4440   17.3380  -33.6720 C   0  0  0  0  0  0  0  0  0  0  0  0
   -4.4350   18.7000  -33.3830 C   0  0  0  0  0  0  0  0  0  0  0  0
   -5.6230   19.3680  -33.0230 C   0  0  0  0  0  0  0  0  0  0  0  0
    0.5560   24.5910  -35.0961 H   0  0  0  0  0  0  0  0  0  0  0  0
    1.4914   24.5541  -36.6292 H   0  0  0  0  0  0  0  0  0  0  0  0
   -0.2507   24.1162  -36.6292 H   0  0  0  0  0  0  0  0  0  0  0  0
    1.0379   22.0599  -36.7494 H   0  0  0  0  0  0  0  0  0  0  0  0
    2.0584   22.5735  -35.3500 H   0  0  0  0  0  0  0  0  0  0  0  0
    0.3280   22.2990  -33.8920 H   0  0  0  0  0  0  0  0  0  0  0  0
   -0.8720   22.2870  -35.1100 H   0  0  0  0  0  0  0  0  0  0  0  0
    0.1412   20.2134  -35.9957 H   0  0  0  0  0  0  0  0  0  0  0  0
    1.1401   20.2050  -34.4883 H   0  0  0  0  0  0  0  0  0  0  0  0
   -1.3063   18.9706  -34.7217 H   0  0  0  0  0  0  0  0  0  0  0  0
   -0.6109   19.5596  -33.1735 H   0  0  0  0  0  0  0  0  0  0  0  0
   -1.9790   21.5230  -34.7970 H   0  0  0  0  0  0  0  0  0  0  0  0
   -1.5653   20.8835  -31.9995 H   0  0  0  0  0  0  0  0  0  0  0  0
   -1.4777   22.4603  -32.9074 H   0  0  0  0  0  0  0  0  0  0  0  0
   -3.6399   21.3880  -31.3047 H   0  0  0  0  0  0  0  0  0  0  0  0
   -3.4623   23.0077  -32.1163 H   0  0  0  0  0  0  0  0  0  0  0  0
   -4.3780   21.8440  -34.2070 H   0  0  0  0  0  0  0  0  0  0  0  0
   -6.0048   23.4014  -32.4910 H   0  0  0  0  0  0  0  0  0  0  0  0
   -8.1441   24.5200  -31.9001 H   0  0  0  0  0  0  0  0  0  0  0  0
  -10.2126   23.1731  -31.5891 H   0  0  0  0  0  0  0  0  0  0  0  0
  -10.1414   20.7018  -31.7992 H   0  0  0  0  0  0  0  0  0  0  0  0
   -9.0826   18.3998  -30.7280 H   0  0  0  0  0  0  0  0  0  0  0  0
  -10.0185   18.8300  -32.1996 H   0  0  0  0  0  0  0  0  0  0  0  0
   -8.9628   17.3767  -32.1996 H   0  0  0  0  0  0  0  0  0  0  0  0
   -7.7323   16.6612  -33.1058 H   0  0  0  0  0  0  0  0  0  0  0  0
   -3.5111   16.8314  -33.9600 H   0  0  0  0  0  0  0  0  0  0  0  0
   -3.4903   19.2610  -33.4362 H   0  0  0  0  0  0  0  0  0  0  0  0
  1  2  1  0
  2  3  1  0
  3  4  1  0
  4  5  1  0
  5  6  1  0
  6  7  1  0
  7  8  1  0
  8  9  1  0
  9 10  1  0
 10 11  2  0
 11 12  1  0
 12 13  2  0
 13 14  1  0
 14 15  2  0
 15 16  1  0
 16 17  2  0
 17 18  1  0
 17 19  1  0
 19 20  2  0
 20 21  1  0
 21 22  1  0
 21 23  2  0
 23 24  1  0
 24 25  2  0
 25 10  1  0
 16 11  1  0
 25 19  1  0
  1 26  1  0
  1 27  1  0
  1 28  1  0
  2 29  1  0
  2 30  1  0
  3 31  1  0
  3 32  1  0
  4 33  1  0
  4 34  1  0
  5 35  1  0
  5 36  1  0
  6 37  1  0
  7 38  1  0
  7 39  1  0
  8 40  1  0
  8 41  1  0
  9 42  1  0
 12 43  1  0
 13 44  1  0
 14 45  1  0
 15 46  1  0
 18 47  1  0
 18 48  1  0
 18 49  1  0
 20 50  1  0
 23 51  1  0
 24 52  1  0
M  CHG  2   3   1  17   1
M  END
>  <UniqueID>  (8) 
8

>  <SMILES>  (8) 
CC[NH2+]CCNCCNc1c2ccccc2[n+](C)c2cc(Br)ccc12

>  <Energy>  (8) 
67.48184196180338

>  <Genealogy>  (8) 
CC[NH2+]CCNCCNc1c2ccccc2[n+](C)c2cc(Br)ccc12 (protonated)
CC[NH2+]CCNCCNc1c2ccccc2[n+](C)c2cc(Br)ccc12 (3D coordinates assigned)
CC[NH2+]CCNCCNc1c2ccccc2[n+](C)c2cc(Br)ccc12 (optimized conformer: 67.48184196180338 kcal/mol)

>  <smiles>  (8) 
CCNCCNCCNc1c2ccccc2[n+](C)c2cc(Br)ccc12

>  <score_type>  (8) 
oracle

>  <origin>  (8) 
adg

>  <m_score__min__energy>  (8) 
-9

>  <m_primary>  (8) 
energy

$$$$
8:0
     RDKit          3D

 47 50  0  0  0  0  0  0  0  0999 V2000
   -6.4030   25.3000  -29.6790 C   0  0  0  0  0  0  0  0  0  0  0  0
   -5.4250   25.4380  -30.8490 C   0  0  0  0  0  0  0  0  0  0  0  0
   -4.2030   24.6380  -30.6540 N   0  0  0  0  0  0  0  0  0  0  0  0
   -4.4450   23.1940  -30.7930 C   0  0  0  0  0  0  0  0  0  0  0  0
   -3.6360   22.6320  -31.9630 C   0  0  0  0  0  0  0  0  0  0  0  0
   -4.5310   22.2170  -33.0400 N   0  0  0  0  0  0  0  0  0  0  0  0
   -5.5740   21.2620  -32.8030 C   0  0  0  0  0  0  0  0  0  0  0  0
   -5.3210   19.9020  -32.9360 C   0  0  0  0  0  0  0  0  0  0  0  0
   -6.3200   18.9640  -32.7000 C   0  0  0  0  0  0  0  0  0  0  0  0
   -7.5910   19.3110  -32.3310 N   0  0  0  0  0  0  0  0  0  0  0  0
   -8.6000   18.2700  -32.0720 C   0  0  0  0  0  0  0  0  0  0  0  0
   -7.8960   20.6590  -32.2190 C   0  0  0  0  0  0  0  0  0  0  0  0
   -9.2010   21.0940  -31.8840 C   0  0  0  0  0  0  0  0  0  0  0  0
   -9.4950   22.4510  -31.7550 C   0  0  0  0  0  0  0  0  0  0  0  0
   -8.5060   23.4080  -31.9550 C   0  0  0  0  0  0  0  0  0  0  0  0
   -7.2130   23.0200  -32.2990 C   0  0  0  0  0  0  0  0  0  0  0  0
   -6.8870   21.6570  -32.4470 C   0  0  0  0  0  0  0  0  0  0  0  0
   -5.7340   17.6560  -32.9980 C   0  0  0  0  0  0  0  0  0  0  0  0
   -6.1310   16.4100  -33.0560 O   0  0  0  0  0  0  0  0  0  0  0  0
   -5.0900   15.7050  -33.4830 C   0  0  0  0  0  0  0  0  0  0  0  0
   -3.9890   16.5440  -33.6970 C   0  0  0  0  0  0  0  0  0  0  0  0
   -2.6700   16.1890  -34.2970 C   0  0  0  0  0  0  0  0  0  0  0  0
   -4.4580   17.7900  -33.3750 C   0  0  0  0  0  0  0  0  0  0  0  0
   -4.1020   19.1960  -33.3880 C   0  0  0  0  0  0  0  0  0  0  0  0
   -3.0120   19.7000  -33.7650 O   0  0  0  0  0  0  0  0  0  0  0  0
   -5.8525   25.3777  -28.7298 H   0  0  0  0  0  0  0  0  0  0  0  0
   -7.1550   26.1009  -29.7333 H   0  0  0  0  0  0  0  0  0  0  0  0
   -6.9041   24.3223  -29.7333 H   0  0  0  0  0  0  0  0  0  0  0  0
   -5.9248   25.1017  -31.7694 H   0  0  0  0  0  0  0  0  0  0  0  0
   -5.1280   26.4950  -30.9163 H   0  0  0  0  0  0  0  0  0  0  0  0
   -3.4770   24.9340  -31.3470 H   0  0  0  0  0  0  0  0  0  0  0  0
   -4.1444   22.6845  -29.8656 H   0  0  0  0  0  0  0  0  0  0  0  0
   -5.5153   23.0267  -30.9841 H   0  0  0  0  0  0  0  0  0  0  0  0
   -2.9515   23.4074  -32.3375 H   0  0  0  0  0  0  0  0  0  0  0  0
   -3.0614   21.7602  -31.6169 H   0  0  0  0  0  0  0  0  0  0  0  0
   -4.5940   22.8310  -33.8840 H   0  0  0  0  0  0  0  0  0  0  0  0
   -8.7243   18.1418  -30.9866 H   0  0  0  0  0  0  0  0  0  0  0  0
   -9.5596   18.5704  -32.5180 H   0  0  0  0  0  0  0  0  0  0  0  0
   -8.2698   17.3202  -32.5180 H   0  0  0  0  0  0  0  0  0  0  0  0
   -9.9952   20.3501  -31.7230 H   0  0  0  0  0  0  0  0  0  0  0  0
  -10.5158   22.7665  -31.4934 H   0  0  0  0  0  0  0  0  0  0  0  0
   -8.7456   24.4755  -31.8411 H   0  0  0  0  0  0  0  0  0  0  0  0
   -6.4387   23.7852  -32.4567 H   0  0  0  0  0  0  0  0  0  0  0  0
   -5.0920   14.6171  -33.6455 H   0  0  0  0  0  0  0  0  0  0  0  0
   -1.9431   15.9934  -33.4949 H   0  0  0  0  0  0  0  0  0  0  0  0
   -2.7806   15.2887  -34.9192 H   0  0  0  0  0  0  0  0  0  0  0  0
   -2.3138   17.0232  -34.9192 H   0  0  0  0  0  0  0  0  0  0  0  0
  1  2  1  0
  2  3  1  0
  3  4  1  0
  4  5  1  0
  5  6  1  0
  6  7  1  0
  7  8  2  0
  8  9  1  0
  9 10  2  0
 10 11  1  0
 10 12  1  0
 12 13  2  0
 13 14  1  0
 14 15  2  0
 15 16  1  0
 16 17  2  0
  9 18  1  0
 18 19  1  0
 19 20  1  0
 20 21  2  0
 21 22  1  0
 21 23  1  0
 23 24  1  0
 24 25  2  0
 17  7  1  0
 23 18  2  0
 24  8  1  0
 17 12  1  0
  1 26  1  0
  1 27  1  0
  1 28  1  0
  2 29  1  0
  2 30  1  0
  3 31  1  0
  4 32  1  0
  4 33  1  0
  5 34  1  0
  5 35  1  0
  6 36  1  0
 11 37  1  0
 11 38  1  0
 11 39  1  0
 13 40  1  0
 14 41  1  0
 15 42  1  0
 16 43  1  0
 20 44  1  0
 22 45  1  0
 22 46  1  0
 22 47  1  0
M  CHG  1  10   1
M  END
>  <UniqueID>  (9) 
9

>  <SMILES>  (9) 
CCNCCNc1c2c([n+](C)c3ccccc13)-c1occ(C)c1C2=O

>  <Energy>  (9) 
141.8403894440252

>  <Genealogy>  (9) 
CCNCCNc1c2c([n+](C)c3ccccc13)-c1occ(C)c1C2=O (3D coordinates assigned)
CCNCCNc1c2c([n+](C)c3ccccc13)-c1occ(C)c1C2=O (nonaromatic ring conformer: 141.8403894440252 kcal/mol)

>  <smiles>  (9) 
CCNCCNc1c2c([n+](C)c3ccccc13)-c1occ(C)c1C2=O

>  <score_type>  (9) 
oracle

>  <origin>  (9) 
adg

>  <m_score__min__energy>  (9) 
-9.0899999999999999

>  <m_primary>  (9) 
energy

$$$$
9:0
     RDKit          3D

 38 38  0  0  0  0  0  0  0  0999 V2000
   -4.0090   18.9090  -33.8350 C   0  0  0  0  0  0  0  0  0  0  0  0
   -5.2430   19.8170  -33.7270 C   0  0  0  0  0  0  0  0  0  0  0  0
   -5.3260   20.4040  -32.3070 C   0  0  0  0  0  0  0  0  0  0  0  0
   -6.4600   19.0530  -34.0870 N   0  0  0  0  0  0  0  0  0  0  0  0
   -6.9660   18.1540  -33.0300 C   0  0  0  0  0  0  0  0  0  0  0  0
   -8.3630   18.5490  -32.5260 C   0  0  0  0  0  0  0  0  0  0  0  0
   -8.6440   19.9440  -32.8910 N   0  0  0  0  0  0  0  0  0  0  0  0
   -9.4270   20.6350  -31.8510 C   0  0  0  0  0  0  0  0  0  0  0  0
   -9.3040   22.1550  -32.0090 C   0  0  0  0  0  0  0  0  0  0  0  0
   -7.9690   22.6600  -31.5280 C   0  0  0  0  0  0  0  0  0  0  0  0
   -7.1550   23.4260  -32.3800 C   0  0  0  0  0  0  0  0  0  0  0  0
   -5.9520   23.9600  -31.9100 C   0  0  0  0  0  0  0  0  0  0  0  0
   -5.5550   23.7420  -30.5870 C   0  0  0  0  0  0  0  0  0  0  0  0
   -3.9190   24.4870  -29.9430 Br  0  0  0  0  0  0  0  0  0  0  0  0
   -6.3630   22.9840  -29.7320 C   0  0  0  0  0  0  0  0  0  0  0  0
   -7.5650   22.4460  -30.1990 C   0  0  0  0  0  0  0  0  0  0  0  0
   -3.6557   18.6490  -32.8263 H   0  0  0  0  0  0  0  0  0  0  0  0
   -4.2761   17.9904  -34.3780 H   0  0  0  0  0  0  0  0  0  0  0  0
   -3.2115   19.4372  -34.3780 H   0  0  0  0  0  0  0  0  0  0  0  0
   -5.1596   20.6568  -34.4325 H   0  0  0  0  0  0  0  0  0  0  0  0
   -5.2118   19.5963  -31.5691 H   0  0  0  0  0  0  0  0  0  0  0  0
   -4.5235   21.1434  -32.1684 H   0  0  0  0  0  0  0  0  0  0  0  0
   -6.3021   20.8919  -32.1684 H   0  0  0  0  0  0  0  0  0  0  0  0
   -6.2640   18.4740  -34.9370 H   0  0  0  0  0  0  0  0  0  0  0  0
   -7.2270   19.7210  -34.3390 H   0  0  0  0  0  0  0  0  0  0  0  0
   -7.0144   17.1315  -33.4326 H   0  0  0  0  0  0  0  0  0  0  0  0
   -6.2751   18.2263  -32.1771 H   0  0  0  0  0  0  0  0  0  0  0  0
   -9.1166   17.8920  -32.9846 H   0  0  0  0  0  0  0  0  0  0  0  0
   -8.3990   18.4441  -31.4316 H   0  0  0  0  0  0  0  0  0  0  0  0
   -9.2010   19.9350  -33.7780 H   0  0  0  0  0  0  0  0  0  0  0  0
  -10.4844   20.3458  -31.9417 H   0  0  0  0  0  0  0  0  0  0  0  0
   -9.0391   20.3470  -30.8628 H   0  0  0  0  0  0  0  0  0  0  0  0
   -9.4207   22.4133  -33.0718 H   0  0  0  0  0  0  0  0  0  0  0  0
  -10.0885   22.6272  -31.3995 H   0  0  0  0  0  0  0  0  0  0  0  0
   -7.4657   23.6058  -33.4198 H   0  0  0  0  0  0  0  0  0  0  0  0
   -5.3156   24.5535  -32.5828 H   0  0  0  0  0  0  0  0  0  0  0  0
   -6.0515   22.8116  -28.6912 H   0  0  0  0  0  0  0  0  0  0  0  0
   -8.1981   21.8522  -29.5233 H   0  0  0  0  0  0  0  0  0  0  0  0
  1  2  1  0
  2  3  1  0
  2  4  1  0
  4  5  1  0
  5  6  1  0
  6  7  1  0
  7  8  1  0
  8  9  1  0
  9 10  1  0
 10 11  2  0
 11 12  1  0
 12 13  2  0
 13 14  1  0
 13 15  1  0
 15 16  2  0
 16 10  1  0
  1 17  1  0
  1 18  1  0
  1 19  1  0
  2 20  1  0
  3 21  1  0
  3 22  1  0
  3 23  1  0
  4 24  1  0
  4 25  1  0
  5 26  1  0
  5 27  1  0
  6 28  1  0
  6 29  1  0
  7 30  1  0
  8 31  1  0
  8 32  1  0
  9 33  1  0
  9 34  1  0
 11 35  1  0
 12 36  1  0
 15 37  1  0
 16 38  1  0
M  CHG  1   4   1
M  END
>  <UniqueID>  (10) 
10

>  <SMILES>  (10) 
CC(C)[NH2+]CCNCCc1ccc(Br)cc1

>  <Energy>  (10) 
29.0894553526882

>  <Genealogy>  (10) 
CC(C)[NH2+]CCNCCc1ccc(Br)cc1 (protonated)
CC(C)[NH2+]CCNCCc1ccc(Br)cc1 (3D coordinates assigned)
CC(C)[NH2+]CCNCCc1ccc(Br)cc1 (optimized conformer: 29.0894553526882 kcal/mol)

>  <smiles>  (10) 
CC(C)NCCNCCc1ccc(Br)cc1

>  <score_type>  (10) 
oracle

>  <origin>  (10) 
adg

>  <m_score__min__energy>  (10) 
-6.3399999999999999

>  <m_primary>  (10) 
energy

$$$$
10:0
     RDKit          3D

 83 85  0  0  0  0  0  0  0  0999 V2000
   -0.4310   22.4910  -24.0130 C   0  0  0  0  0  0  0  0  0  0  0  0
    0.2660   23.7870  -24.4540 C   0  0  0  0  0  0  0  0  0  0  0  0
   -0.6210   24.8040  -25.1190 N   0  0  0  0  0  0  0  0  0  0  0  0
   -0.8240   25.9840  -24.2330 C   0  0  0  0  0  0  0  0  0  0  0  0
   -1.2180   27.1790  -25.1020 C   0  0  0  0  0  0  0  0  0  0  0  0
   -0.1990   25.2100  -26.5000 C   0  0  0  0  0  0  0  0  0  0  0  0
   -0.3070   24.0500  -27.5700 C   0  0  0  0  0  0  0  0  0  0  0  0
   -1.6030   23.5310  -27.9050 O   0  0  0  0  0  0  0  0  0  0  0  0
   -2.7280   24.1100  -27.1360 C   0  0  0  0  0  0  0  0  0  0  0  0
   -4.2460   24.2160  -27.6490 C   0  0  0  0  0  0  0  0  0  0  0  0
   -4.5130   24.2020  -29.2110 C   0  0  0  0  0  0  0  0  0  0  0  0
   -3.2920   23.9640  -30.0570 N   0  0  0  0  0  0  0  0  0  0  0  0
   -3.6290   23.1720  -31.2420 C   0  0  0  0  0  0  0  0  0  0  0  0
   -2.4770   22.1970  -31.6960 C   0  0  2  0  0  0  0  0  0  0  0  0
   -2.8660   20.9600  -32.5440 C   0  0  0  0  0  0  0  0  0  0  0  0
   -4.1460   21.1150  -33.3120 N   0  0  0  0  0  0  0  0  0  0  0  0
   -5.3610   20.5250  -32.9080 C   0  0  0  0  0  0  0  0  0  0  0  0
   -6.5500   21.2710  -32.4990 C   0  0  0  0  0  0  0  0  0  0  0  0
   -6.4370   22.6900  -32.3430 C   0  0  0  0  0  0  0  0  0  0  0  0
   -7.5430   23.4170  -31.8910 C   0  0  0  0  0  0  0  0  0  0  0  0
   -8.7380   22.7900  -31.5850 C   0  0  0  0  0  0  0  0  0  0  0  0
   -8.8680   21.4150  -31.7640 C   0  0  0  0  0  0  0  0  0  0  0  0
   -7.7830   20.6400  -32.2760 C   0  0  0  0  0  0  0  0  0  0  0  0
   -7.9540   19.2450  -32.5170 N   0  0  0  0  0  0  0  0  0  0  0  0
   -9.2190   18.5540  -32.2900 C   0  0  0  0  0  0  0  0  0  0  0  0
   -6.8140   18.5100  -32.9240 C   0  0  0  0  0  0  0  0  0  0  0  0
   -6.8920   17.0820  -33.0700 C   0  0  0  0  0  0  0  0  0  0  0  0
   -5.7920   16.3610  -33.5160 C   0  0  0  0  0  0  0  0  0  0  0  0
   -4.6010   17.0180  -33.8030 C   0  0  0  0  0  0  0  0  0  0  0  0
   -4.4670   18.3950  -33.6350 C   0  0  0  0  0  0  0  0  0  0  0  0
   -5.5990   19.1450  -33.1550 C   0  0  0  0  0  0  0  0  0  0  0  0
   -1.4580   21.8920  -30.6320 N   0  0  0  0  0  0  0  0  0  0  0  0
   -1.3890   20.4520  -30.3630 C   0  0  0  0  0  0  0  0  0  0  0  0
   -1.1500   20.1500  -28.8700 C   0  0  0  0  0  0  0  0  0  0  0  0
   -2.4530   20.4190  -28.1050 C   0  0  0  0  0  0  0  0  0  0  0  0
   -3.2210   21.4930  -28.7320 N   0  0  0  0  0  0  0  0  0  0  0  0
   -0.4563   22.4439  -22.9143 H   0  0  0  0  0  0  0  0  0  0  0  0
   -1.4589   22.4760  -24.4045 H   0  0  0  0  0  0  0  0  0  0  0  0
    0.1231   21.6252  -24.4045 H   0  0  0  0  0  0  0  0  0  0  0  0
    0.7085   24.2545  -23.5620 H   0  0  0  0  0  0  0  0  0  0  0  0
    1.0062   23.4898  -25.2114 H   0  0  0  0  0  0  0  0  0  0  0  0
   -1.6244   25.7714  -23.5090 H   0  0  0  0  0  0  0  0  0  0  0  0
    0.1019   26.2065  -23.6824 H   0  0  0  0  0  0  0  0  0  0  0  0
   -1.4970   28.0252  -24.4570 H   0  0  0  0  0  0  0  0  0  0  0  0
   -0.3672   27.4669  -25.7370 H   0  0  0  0  0  0  0  0  0  0  0  0
   -2.0732   26.9044  -25.7370 H   0  0  0  0  0  0  0  0  0  0  0  0
   -0.8385   26.0432  -26.8267 H   0  0  0  0  0  0  0  0  0  0  0  0
    0.8628   25.4911  -26.4398 H   0  0  0  0  0  0  0  0  0  0  0  0
    0.1396   24.4280  -28.5015 H   0  0  0  0  0  0  0  0  0  0  0  0
    0.2017   23.2006  -27.0907 H   0  0  0  0  0  0  0  0  0  0  0  0
   -2.7750   23.5271  -26.2043 H   0  0  0  0  0  0  0  0  0  0  0  0
   -2.4443   25.1727  -27.1461 H   0  0  0  0  0  0  0  0  0  0  0  0
   -4.7960   23.3671  -27.2168 H   0  0  0  0  0  0  0  0  0  0  0  0
   -4.5728   25.2155  -27.3263 H   0  0  0  0  0  0  0  0  0  0  0  0
   -5.2397   23.4050  -29.4269 H   0  0  0  0  0  0  0  0  0  0  0  0
   -4.8799   25.2057  -29.4717 H   0  0  0  0  0  0  0  0  0  0  0  0
   -2.5790   23.4520  -29.4940 H   0  0  0  0  0  0  0  0  0  0  0  0
   -4.5237   22.5728  -31.0172 H   0  0  0  0  0  0  0  0  0  0  0  0
   -3.7970   23.8800  -32.0669 H   0  0  0  0  0  0  0  0  0  0  0  0
   -1.9716   22.8314  -32.4390 H   0  0  0  0  0  0  0  0  0  0  0  0
   -2.0552   20.7655  -33.2615 H   0  0  0  0  0  0  0  0  0  0  0  0
   -3.0207   20.1305  -31.8383 H   0  0  0  0  0  0  0  0  0  0  0  0
   -4.2120   21.9720  -33.9370 H   0  0  0  0  0  0  0  0  0  0  0  0
   -5.4917   23.2021  -32.5759 H   0  0  0  0  0  0  0  0  0  0  0  0
   -7.4614   24.5080  -31.7766 H   0  0  0  0  0  0  0  0  0  0  0  0
   -9.5849   23.3773  -31.2005 H   0  0  0  0  0  0  0  0  0  0  0  0
   -9.8167   20.9204  -31.5083 H   0  0  0  0  0  0  0  0  0  0  0  0
   -9.3953   18.4577  -31.2085 H   0  0  0  0  0  0  0  0  0  0  0  0
  -10.0382   19.1299  -32.7452 H   0  0  0  0  0  0  0  0  0  0  0  0
   -9.1771   17.5535  -32.7452 H   0  0  0  0  0  0  0  0  0  0  0  0
   -7.8280   16.5576  -32.8272 H   0  0  0  0  0  0  0  0  0  0  0  0
   -5.8631   15.2706  -33.6421 H   0  0  0  0  0  0  0  0  0  0  0  0
   -3.7431   16.4366  -34.1718 H   0  0  0  0  0  0  0  0  0  0  0  0
   -3.5163   18.8986  -33.8643 H   0  0  0  0  0  0  0  0  0  0  0  0
   -1.7870   22.3010  -29.7250 H   0  0  0  0  0  0  0  0  0  0  0  0
   -2.3377   19.9881  -30.6710 H   0  0  0  0  0  0  0  0  0  0  0  0
   -0.5406   20.0423  -30.9308 H   0  0  0  0  0  0  0  0  0  0  0  0
   -0.8577   19.0968  -28.7465 H   0  0  0  0  0  0  0  0  0  0  0  0
   -0.3446   20.7897  -28.4799 H   0  0  0  0  0  0  0  0  0  0  0  0
   -3.0600   19.5017  -28.0961 H   0  0  0  0  0  0  0  0  0  0  0  0
   -2.1985   20.7251  -27.0796 H   0  0  0  0  0  0  0  0  0  0  0  0
   -3.3770   21.2410  -29.7360 H   0  0  0  0  0  0  0  0  0  0  0  0
   -2.6400   22.3680  -28.7220 H   0  0  0  0  0  0  0  0  0  0  0  0
  1  2  1  0
  2  3  1  0
  3  4  1  0
  4  5  1  0
  3  6  1  0
  6  7  1  0
  7  8  1  0
  8  9  1  0
  9 10  1  0
 10 11  1  0
 11 12  1  0
 12 13  1  0
 13 14  1  0
 14 15  1  0
 15 16  1  0
 16 17  1  0
 17 18  2  0
 18 19  1  0
 19 20  2  0
 20 21  1  0
 21 22  2  0
 22 23  1  0
 23 24  2  0
 24 25  1  0
 24 26  1  0
 26 27  2  0
 27 28  1  0
 28 29  2  0
 29 30  1  0
 30 31  2  0
 14 32  1  0
 32 33  1  0
 33 34  1  0
 34 35  1  0
 35 36  1  0
 31 17  1  0
 23 18  1  0
 31 26  1  0
  1 37  1  0
  1 38  1  0
  1 39  1  0
  2 40  1  0
  2 41  1  0
  4 42  1  0
  4 43  1  0
  5 44  1  0
  5 45  1  0
  5 46  1  0
  6 47  1  0
  6 48  1  0
  7 49  1  0
  7 50  1  0
  9 51  1  0
  9 52  1  0
 10 53  1  0
 10 54  1  0
 11 55  1  0
 11 56  1  0
 12 57  1  0
 13 58  1  0
 13 59  1  0
 14 60  1  6
 15 61  1  0
 15 62  1  0
 16 63  1  0
 19 64  1  0
 20 65  1  0
 21 66  1  0
 22 67  1  0
 25 68  1  0
 25 69  1  0
 25 70  1  0
 27 71  1  0
 28 72  1  0
 29 73  1  0
 30 74  1  0
 32 75  1  0
 33 76  1  0
 33 77  1  0
 34 78  1  0
 34 79  1  0
 35 80  1  0
 35 81  1  0
 36 82  1  0
 36 83  1  0
M  CHG  1  24   1
M  END
>  <UniqueID>  (11) 
11

>  <SMILES>  (11) 
CCN(CC)CCOCCCNC[C@H](CNc1c2ccccc2[n+](C)c2ccccc12)NCCCN

>  <Energy>  (11) 
195.1384342810097

>  <Genealogy>  (11) 
CCN(CC)CCOCCCNC[C@H](CNc1c2ccccc2[n+](C)c2ccccc12)NCCCN (chirality)
CCN(CC)CCOCCCNC[C@H](CNc1c2ccccc2[n+](C)c2ccccc12)NCCCN (3D coordinates assigned)
CCN(CC)CCOCCCNC[C@H](CNc1c2ccccc2[n+](C)c2ccccc12)NCCCN (optimized conformer: 195.1384342810097 kcal/mol)

>  <smiles>  (11) 
CCN(CC)CCOCCCNCC(CNc1c2ccccc2[n+](C)c2ccccc12)NCCCN

>  <score_type>  (11) 
oracle

>  <origin>  (11) 
adg

>  <m_score__min__energy>  (11) 
-9.1199999999999992

>  <m_primary>  (11) 
energy

$$$$
11:0
     RDKit          3D

 48 50  0  0  0  0  0  0  0  0999 V2000
    0.6880   20.8670  -36.4210 C   0  0  0  0  0  0  0  0  0  0  0  0
   -0.0890   20.1580  -35.3070 C   0  0  0  0  0  0  0  0  0  0  0  0
   -1.0160   21.0690  -34.6050 N   0  0  0  0  0  0  0  0  0  0  0  0
   -0.8190   21.0830  -33.1420 C   0  0  0  0  0  0  0  0  0  0  0  0
   -2.1540   21.1120  -32.3780 C   0  0  0  0  0  0  0  0  0  0  0  0
   -3.2660   21.3670  -33.2910 N   0  0  0  0  0  0  0  0  0  0  0  0
   -4.5880   20.9160  -32.9660 C   0  0  0  0  0  0  0  0  0  0  0  0
   -5.0290   19.6590  -33.4070 C   0  0  0  0  0  0  0  0  0  0  0  0
   -4.2010   18.8450  -34.2090 C   0  0  0  0  0  0  0  0  0  0  0  0
   -4.6590   17.6190  -34.6860 C   0  0  0  0  0  0  0  0  0  0  0  0
   -5.9460   17.1910  -34.3850 C   0  0  0  0  0  0  0  0  0  0  0  0
   -6.7760   17.9730  -33.5800 C   0  0  0  0  0  0  0  0  0  0  0  0
   -6.3260   19.2070  -33.0430 C   0  0  0  0  0  0  0  0  0  0  0  0
   -7.1150   19.9680  -32.2010 N   0  0  0  0  0  0  0  0  0  0  0  0
   -8.3310   19.3810  -31.5930 C   0  0  0  0  0  0  0  0  0  0  0  0
   -6.7560   21.2710  -31.9070 C   0  0  0  0  0  0  0  0  0  0  0  0
   -7.6510   22.1690  -31.2700 C   0  0  0  0  0  0  0  0  0  0  0  0
   -7.2580   23.4660  -30.9410 C   0  0  0  0  0  0  0  0  0  0  0  0
   -5.9760   23.9110  -31.2510 C   0  0  0  0  0  0  0  0  0  0  0  0
   -5.4800   25.5820  -30.8280 S   0  0  0  0  0  0  0  0  0  0  0  0
   -6.4880   25.6270  -29.3140 C   0  0  0  0  0  0  0  0  0  0  0  0
   -5.0900   23.0670  -31.9170 C   0  0  0  0  0  0  0  0  0  0  0  0
   -5.4670   21.7520  -32.2600 C   0  0  0  0  0  0  0  0  0  0  0  0
    1.4310   21.5449  -35.9756 H   0  0  0  0  0  0  0  0  0  0  0  0
    1.2008   20.1191  -37.0436 H   0  0  0  0  0  0  0  0  0  0  0  0
   -0.0099   21.4460  -37.0436 H   0  0  0  0  0  0  0  0  0  0  0  0
   -0.6689   19.3343  -35.7488 H   0  0  0  0  0  0  0  0  0  0  0  0
    0.6397   19.7860  -34.5717 H   0  0  0  0  0  0  0  0  0  0  0  0
   -0.8940   22.0380  -34.9850 H   0  0  0  0  0  0  0  0  0  0  0  0
   -2.0050   20.7910  -34.8090 H   0  0  0  0  0  0  0  0  0  0  0  0
   -0.2631   20.1797  -32.8504 H   0  0  0  0  0  0  0  0  0  0  0  0
   -0.2616   21.9956  -32.8842 H   0  0  0  0  0  0  0  0  0  0  0  0
   -2.3081   20.1417  -31.8833 H   0  0  0  0  0  0  0  0  0  0  0  0
   -2.1169   21.9192  -31.6316 H   0  0  0  0  0  0  0  0  0  0  0  0
   -3.1040   21.8010  -34.2310 H   0  0  0  0  0  0  0  0  0  0  0  0
   -3.1843   19.1818  -34.4598 H   0  0  0  0  0  0  0  0  0  0  0  0
   -4.0007   16.9888  -35.3019 H   0  0  0  0  0  0  0  0  0  0  0  0
   -6.3121   16.2328  -34.7823 H   0  0  0  0  0  0  0  0  0  0  0  0
   -7.7963   17.6268  -33.3581 H   0  0  0  0  0  0  0  0  0  0  0  0
   -8.2486   19.4208  -30.4968 H   0  0  0  0  0  0  0  0  0  0  0  0
   -9.2143   19.9519  -31.9153 H   0  0  0  0  0  0  0  0  0  0  0  0
   -8.4334   18.3343  -31.9153 H   0  0  0  0  0  0  0  0  0  0  0  0
   -8.6721   21.8365  -31.0316 H   0  0  0  0  0  0  0  0  0  0  0  0
   -7.9641   24.1403  -30.4343 H   0  0  0  0  0  0  0  0  0  0  0  0
   -5.8290   25.5976  -28.4337 H   0  0  0  0  0  0  0  0  0  0  0  0
   -7.0822   26.5526  -29.2965 H   0  0  0  0  0  0  0  0  0  0  0  0
   -7.1623   24.7581  -29.2965 H   0  0  0  0  0  0  0  0  0  0  0  0
   -4.0851   23.4303  -32.1783 H   0  0  0  0  0  0  0  0  0  0  0  0
  1  2  1  0
  2  3  1  0
  3  4  1  0
  4  5  1  0
  5  6  1  0
  6  7  1  0
  7  8  2  0
  8  9  1  0
  9 10  2  0
 10 11  1  0
 11 12  2  0
 12 13  1  0
 13 14  2  0
 14 15  1  0
 14 16  1  0
 16 17  2  0
 17 18  1  0
 18 19  2  0
 19 20  1  0
 20 21  1  0
 19 22  1  0
 22 23  2  0
 23  7  1  0
 13  8  1  0
 23 16  1  0
  1 24  1  0
  1 25  1  0
  1 26  1  0
  2 27  1  0
  2 28  1  0
  3 29  1  0
  3 30  1  0
  4 31  1  0
  4 32  1  0
  5 33  1  0
  5 34  1  0
  6 35  1  0
  9 36  1  0
 10 37  1  0
 11 38  1  0
 12 39  1  0
 15 40  1  0
 15 41  1  0
 15 42  1  0
 17 43  1  0
 18 44  1  0
 21 45  1  0
 21 46  1  0
 21 47  1  0
 22 48  1  0
M  CHG  2   3   1  14   1
M  END
>  <UniqueID>  (12) 
12

>  <SMILES>  (12) 
CC[NH2+]CCNc1c2ccccc2[n+](C)c2ccc(SC)cc12

>  <Energy>  (12) 
69.01203697496412

>  <Genealogy>  (12) 
CC[NH2+]CCNc1c2ccccc2[n+](C)c2ccc(SC)cc12 (protonated)
CC[NH2+]CCNc1c2ccccc2[n+](C)c2ccc(SC)cc12 (3D coordinates assigned)
CC[NH2+]CCNc1c2ccccc2[n+](C)c2ccc(SC)cc12 (optimized conformer: 69.01203697496412 kcal/mol)

>  <smiles>  (12) 
CCNCCNc1c2ccccc2[n+](C)c2ccc(SC)cc12

>  <score_type>  (12) 
oracle

>  <origin>  (12) 
adg

>  <m_score__min__energy>  (12) 
-7.7999999999999998

>  <m_primary>  (12) 
energy

$$$$
12:0
     RDKit          3D

 46 48  0  0  0  0  0  0  0  0999 V2000
   -3.7750   24.8510  -26.6500 C   0  0  0  0  0  0  0  0  0  0  0  0
   -3.1080   24.2970  -27.9040 C   0  0  0  0  0  0  0  0  0  0  0  0
   -4.0850   23.6450  -28.7740 N   0  0  0  0  0  0  0  0  0  0  0  0
   -4.4360   24.2020  -30.0500 C   0  0  0  0  0  0  0  0  0  0  0  0
   -3.8430   25.2340  -30.4660 O   0  0  0  0  0  0  0  0  0  0  0  0
   -5.4770   23.5350  -30.9200 C   0  0  2  0  0  0  0  0  0  0  0  0
   -4.8810   22.6340  -32.0200 C   0  0  0  0  0  0  0  0  0  0  0  0
   -6.0570   21.7050  -32.3670 C   0  0  0  0  0  0  0  0  0  0  0  0
   -7.1850   22.2090  -31.4300 C   0  0  2  0  0  0  0  0  0  0  0  0
   -8.3010   21.2100  -31.1950 C   0  0  0  0  0  0  0  0  0  0  0  0
   -9.3020   21.5420  -30.5030 O   0  0  0  0  0  0  0  0  0  0  0  0
   -8.2510   19.8850  -31.7460 N   0  0  0  0  0  0  0  0  0  0  0  0
   -9.2570   19.5190  -32.7440 C   0  0  0  0  0  0  0  0  0  0  0  0
   -7.0700   19.0360  -31.5380 C   0  0  0  0  0  0  0  0  0  0  0  0
   -6.6210   18.3900  -32.8160 C   0  0  0  0  0  0  0  0  0  0  0  0
   -6.1760   19.0380  -33.9640 C   0  0  0  0  0  0  0  0  0  0  0  0
   -5.7440   18.1580  -34.9640 C   0  0  0  0  0  0  0  0  0  0  0  0
   -5.8220   16.8200  -34.6030 C   0  0  0  0  0  0  0  0  0  0  0  0
   -6.4250   16.7340  -33.0360 S   0  0  0  0  0  0  0  0  0  0  0  0
   -7.6560   23.5850  -31.9530 C   0  0  0  0  0  0  0  0  0  0  0  0
   -6.4850   24.5070  -31.5770 C   0  0  0  0  0  0  0  0  0  0  0  0
   -6.4020   22.5810  -30.1890 C   0  0  0  0  0  0  0  0  0  0  0  0
   -3.2792   24.4392  -25.7586 H   0  0  0  0  0  0  0  0  0  0  0  0
   -3.6897   25.9477  -26.6433 H   0  0  0  0  0  0  0  0  0  0  0  0
   -4.8374   24.5658  -26.6433 H   0  0  0  0  0  0  0  0  0  0  0  0
   -2.6325   25.1231  -28.4531 H   0  0  0  0  0  0  0  0  0  0  0  0
   -2.3573   23.5522  -27.6011 H   0  0  0  0  0  0  0  0  0  0  0  0
   -4.5330   22.7520  -28.4700 H   0  0  0  0  0  0  0  0  0  0  0  0
   -4.5716   23.2261  -32.8939 H   0  0  0  0  0  0  0  0  0  0  0  0
   -3.9768   22.0946  -31.7014 H   0  0  0  0  0  0  0  0  0  0  0  0
   -6.3446   21.8085  -33.4237 H   0  0  0  0  0  0  0  0  0  0  0  0
   -5.8231   20.6388  -32.2307 H   0  0  0  0  0  0  0  0  0  0  0  0
  -10.1736   19.1855  -32.2355 H   0  0  0  0  0  0  0  0  0  0  0  0
   -9.4838   20.3922  -33.3733 H   0  0  0  0  0  0  0  0  0  0  0  0
   -8.8697   18.7042  -33.3733 H   0  0  0  0  0  0  0  0  0  0  0  0
   -6.2505   19.6550  -31.1440 H   0  0  0  0  0  0  0  0  0  0  0  0
   -7.3392   18.2409  -30.8271 H   0  0  0  0  0  0  0  0  0  0  0  0
   -6.1647   20.1323  -34.0750 H   0  0  0  0  0  0  0  0  0  0  0  0
   -5.3770   18.4957  -35.9444 H   0  0  0  0  0  0  0  0  0  0  0  0
   -5.5384   15.9641  -35.2331 H   0  0  0  0  0  0  0  0  0  0  0  0
   -7.8107   23.5639  -33.0419 H   0  0  0  0  0  0  0  0  0  0  0  0
   -8.6189   23.9070  -31.5299 H   0  0  0  0  0  0  0  0  0  0  0  0
   -6.0525   24.9816  -32.4701 H   0  0  0  0  0  0  0  0  0  0  0  0
   -6.7800   25.3373  -30.9186 H   0  0  0  0  0  0  0  0  0  0  0  0
   -7.0164   23.0769  -29.4231 H   0  0  0  0  0  0  0  0  0  0  0  0
   -5.9489   21.7698  -29.6001 H   0  0  0  0  0  0  0  0  0  0  0  0
  1  2  1  0
  2  3  1  0
  3  4  1  0
  4  5  2  0
  6  4  1  1
  6  7  1  0
  7  8  1  0
  8  9  1  0
  9 10  1  1
 10 11  2  0
 10 12  1  0
 12 13  1  0
 12 14  1  0
 14 15  1  0
 15 16  2  0
 16 17  1  0
 17 18  2  0
 18 19  1  0
  9 20  1  0
 20 21  1  0
  9 22  1  0
 21  6  1  0
 22  6  1  0
 19 15  1  0
  1 23  1  0
  1 24  1  0
  1 25  1  0
  2 26  1  0
  2 27  1  0
  3 28  1  0
  7 29  1  0
  7 30  1  0
  8 31  1  0
  8 32  1  0
 13 33  1  0
 13 34  1  0
 13 35  1  0
 14 36  1  0
 14 37  1  0
 16 38  1  0
 17 39  1  0
 18 40  1  0
 20 41  1  0
 20 42  1  0
 21 43  1  0
 21 44  1  0
 22 45  1  0
 22 46  1  0
M  END
>  <UniqueID>  (13) 
13

>  <SMILES>  (13) 
CCNC(=O)C12CCC(C(=O)N(C)Cc3cccs3)(CC1)C2

>  <Energy>  (13) 
94.62314786079193

>  <Genealogy>  (13) 
CCNC(=O)C12CCC(C(=O)N(C)Cc3cccs3)(CC1)C2 (3D coordinates assigned)
CCNC(=O)C12CCC(C(=O)N(C)Cc3cccs3)(CC1)C2 (nonaromatic ring conformer: 94.62314786079193 kcal/mol)

>  <smiles>  (13) 
CCNC(=O)C12CCC(C(=O)N(C)Cc3cccs3)(CC1)C2

>  <score_type>  (13) 
oracle

>  <origin>  (13) 
adg

>  <m_score__min__energy>  (13) 
-8.6899999999999995

>  <m_primary>  (13) 
energy

$$$$
13:0
     RDKit          3D

 52 54  0  0  0  0  0  0  0  0999 V2000
   -3.8520   23.8020  -27.9230 C   0  0  0  0  0  0  0  0  0  0  0  0
   -3.5220   22.5960  -28.8190 C   0  0  0  0  0  0  0  0  0  0  0  0
   -2.4080   22.7970  -29.7930 N   0  0  0  0  0  0  0  0  0  0  0  0
   -1.2920   23.6640  -29.3270 C   0  0  0  0  0  0  0  0  0  0  0  0
   -0.1940   22.8600  -28.6190 C   0  0  0  0  0  0  0  0  0  0  0  0
   -1.9520   21.5470  -30.4650 C   0  0  0  0  0  0  0  0  0  0  0  0
   -1.6920   21.6160  -31.9900 C   0  0  0  0  0  0  0  0  0  0  0  0
   -2.0990   20.3700  -32.7910 C   0  0  0  0  0  0  0  0  0  0  0  0
   -3.2540   20.6390  -33.6470 N   0  0  0  0  0  0  0  0  0  0  0  0
   -4.5950   20.4790  -33.1580 C   0  0  0  0  0  0  0  0  0  0  0  0
   -5.3330   19.2960  -33.3940 C   0  0  0  0  0  0  0  0  0  0  0  0
   -4.8050   18.2610  -34.1920 C   0  0  0  0  0  0  0  0  0  0  0  0
   -5.5320   17.0950  -34.4170 C   0  0  0  0  0  0  0  0  0  0  0  0
   -6.7980   16.9410  -33.8640 C   0  0  0  0  0  0  0  0  0  0  0  0
   -7.3560   17.9570  -33.0890 C   0  0  0  0  0  0  0  0  0  0  0  0
   -6.6480   19.1580  -32.8390 C   0  0  0  0  0  0  0  0  0  0  0  0
   -7.2030   20.1830  -32.0920 N   0  0  0  0  0  0  0  0  0  0  0  0
   -8.5510   20.0550  -31.5060 C   0  0  0  0  0  0  0  0  0  0  0  0
   -6.4770   21.3310  -31.9150 C   0  0  0  0  0  0  0  0  0  0  0  0
   -6.9240   22.7240  -31.0670 S   0  0  0  0  0  0  0  0  0  0  0  0
   -5.4810   23.5460  -31.3600 C   0  0  0  0  0  0  0  0  0  0  0  0
   -5.1760   24.8620  -30.8910 N   0  0  0  0  0  0  0  0  0  0  0  0
   -6.0950   25.6570  -30.6060 O   0  0  0  0  0  0  0  0  0  0  0  0
   -3.8670   25.2620  -30.7470 O   0  0  0  0  0  0  0  0  0  0  0  0
   -4.6310   22.7490  -32.1200 C   0  0  0  0  0  0  0  0  0  0  0  0
   -5.2000   21.5030  -32.4300 C   0  0  0  0  0  0  0  0  0  0  0  0
   -3.7712   23.5068  -26.8664 H   0  0  0  0  0  0  0  0  0  0  0  0
   -3.1441   24.6179  -28.1309 H   0  0  0  0  0  0  0  0  0  0  0  0
   -4.8767   24.1438  -28.1309 H   0  0  0  0  0  0  0  0  0  0  0  0
   -3.2513   21.7537  -28.1654 H   0  0  0  0  0  0  0  0  0  0  0  0
   -4.4221   22.4190  -29.4261 H   0  0  0  0  0  0  0  0  0  0  0  0
   -2.8480   23.3290  -30.5840 H   0  0  0  0  0  0  0  0  0  0  0  0
   -0.8528   24.1749  -30.1965 H   0  0  0  0  0  0  0  0  0  0  0  0
   -1.7022   24.3858  -28.6054 H   0  0  0  0  0  0  0  0  0  0  0  0
   -0.3177   22.9506  -27.5297 H   0  0  0  0  0  0  0  0  0  0  0  0
   -0.2691   21.8018  -28.9098 H   0  0  0  0  0  0  0  0  0  0  0  0
    0.7922   23.2511  -28.9098 H   0  0  0  0  0  0  0  0  0  0  0  0
   -1.0132   21.2362  -29.9833 H   0  0  0  0  0  0  0  0  0  0  0  0
   -2.7901   20.8435  -30.3525 H   0  0  0  0  0  0  0  0  0  0  0  0
   -2.2529   22.4734  -32.3902 H   0  0  0  0  0  0  0  0  0  0  0  0
   -0.6016   21.7041  -32.1051 H   0  0  0  0  0  0  0  0  0  0  0  0
   -1.2527   20.0568  -33.4200 H   0  0  0  0  0  0  0  0  0  0  0  0
   -2.3724   19.5760  -32.0805 H   0  0  0  0  0  0  0  0  0  0  0  0
   -3.1090   21.1870  -34.5240 H   0  0  0  0  0  0  0  0  0  0  0  0
   -3.8078   18.3757  -34.6419 H   0  0  0  0  0  0  0  0  0  0  0  0
   -5.1028   16.2925  -35.0348 H   0  0  0  0  0  0  0  0  0  0  0  0
   -7.3624   16.0131  -34.0386 H   0  0  0  0  0  0  0  0  0  0  0  0
   -8.3622   17.8237  -32.6650 H   0  0  0  0  0  0  0  0  0  0  0  0
   -8.4759   20.0621  -30.4086 H   0  0  0  0  0  0  0  0  0  0  0  0
   -9.1759   20.8978  -31.8363 H   0  0  0  0  0  0  0  0  0  0  0  0
   -9.0061   19.1096  -31.8363 H   0  0  0  0  0  0  0  0  0  0  0  0
   -3.6261   23.0598  -32.4420 H   0  0  0  0  0  0  0  0  0  0  0  0
  1  2  1  0
  2  3  1  0
  3  4  1  0
  4  5  1  0
  3  6  1  0
  6  7  1  0
  7  8  1  0
  8  9  1  0
  9 10  1  0
 10 11  2  0
 11 12  1  0
 12 13  2  0
 13 14  1  0
 14 15  2  0
 15 16  1  0
 16 17  2  0
 17 18  1  0
 17 19  1  0
 19 20  1  0
 20 21  1  0
 21 22  1  0
 22 23  2  0
 22 24  1  0
 21 25  2  0
 25 26  1  0
 26 10  1  0
 16 11  1  0
 26 19  2  0
  1 27  1  0
  1 28  1  0
  1 29  1  0
  2 30  1  0
  2 31  1  0
  3 32  1  0
  4 33  1  0
  4 34  1  0
  5 35  1  0
  5 36  1  0
  5 37  1  0
  6 38  1  0
  6 39  1  0
  7 40  1  0
  7 41  1  0
  8 42  1  0
  8 43  1  0
  9 44  1  0
 12 45  1  0
 13 46  1  0
 14 47  1  0
 15 48  1  0
 18 49  1  0
 18 50  1  0
 18 51  1  0
 25 52  1  0
M  CHG  4   3   1  17   1  22   1  24  -1
M  END
>  <UniqueID>  (14) 
14

>  <SMILES>  (14) 
CC[NH+](CC)CCCNc1c2ccccc2[n+](C)c2sc([N+](=O)[O-])cc12

>  <Energy>  (14) 
109.19507037521952

>  <Genealogy>  (14) 
CC[NH+](CC)CCCNc1c2ccccc2[n+](C)c2sc([N+](=O)[O-])cc12 (protonated)
CC[NH+](CC)CCCNc1c2ccccc2[n+](C)c2sc([N+](=O)[O-])cc12 (3D coordinates assigned)
CC[NH+](CC)CCCNc1c2ccccc2[n+](C)c2sc([N+](=O)[O-])cc12 (optimized conformer: 109.19507037521952 kcal/mol)

>  <smiles>  (14) 
CCN(CC)CCCNc1c2ccccc2[n+](C)c2sc([N+](=O)[O-])cc12

>  <score_type>  (14) 
oracle

>  <origin>  (14) 
adg

>  <m_score__min__energy>  (14) 
-8.0700000000000003

>  <m_primary>  (14) 
energy

$$$$
14:0
     RDKit          3D

 79 82  0  0  0  0  0  0  0  0999 V2000
   -1.4880   16.9660  -32.7830 C   0  0  0  0  0  0  0  0  0  0  0  0
   -2.2190   16.7980  -34.1140 C   0  0  0  0  0  0  0  0  0  0  0  0
   -3.1080   15.5230  -34.1930 C   0  0  0  0  0  0  0  0  0  0  0  0
   -4.5600   15.6460  -33.8180 N   0  0  1  0  0  0  0  0  0  0  0  0
   -4.8500   15.6000  -32.3580 C   0  0  0  0  0  0  0  0  0  0  0  0
   -4.6110   14.2150  -31.7350 C   0  0  0  0  0  0  0  0  0  0  0  0
   -5.2500   16.7410  -34.5570 C   0  0  0  0  0  0  0  0  0  0  0  0
   -6.4000   17.4100  -33.7840 C   0  0  0  0  0  0  0  0  0  0  0  0
   -6.4880   18.8420  -34.0900 N   0  0  0  0  0  0  0  0  0  0  0  0
   -6.2630   19.8640  -33.1010 C   0  0  0  0  0  0  0  0  0  0  0  0
   -7.3460   20.5130  -32.4810 C   0  0  0  0  0  0  0  0  0  0  0  0
   -8.6720   20.0970  -32.7180 C   0  0  0  0  0  0  0  0  0  0  0  0
   -9.7470   20.7940  -32.1740 C   0  0  0  0  0  0  0  0  0  0  0  0
   -9.5180   21.9140  -31.3800 C   0  0  0  0  0  0  0  0  0  0  0  0
   -8.2140   22.3100  -31.0870 C   0  0  0  0  0  0  0  0  0  0  0  0
   -7.0980   21.5900  -31.5880 C   0  0  0  0  0  0  0  0  0  0  0  0
   -5.8020   21.9160  -31.2330 N   0  0  0  0  0  0  0  0  0  0  0  0
   -5.5500   22.8220  -30.0910 C   0  0  0  0  0  0  0  0  0  0  0  0
   -4.7360   21.3580  -31.9160 C   0  0  0  0  0  0  0  0  0  0  0  0
   -3.4110   21.8410  -31.7520 C   0  0  0  0  0  0  0  0  0  0  0  0
   -2.3240   21.2230  -32.3930 C   0  0  0  0  0  0  0  0  0  0  0  0
   -0.9940   21.6450  -32.2210 O   0  0  0  0  0  0  0  0  0  0  0  0
   -0.2090   21.4850  -31.0400 C   0  0  0  0  0  0  0  0  0  0  0  0
   -0.4800   20.1500  -30.2960 C   0  0  0  0  0  0  0  0  0  0  0  0
   -1.0020   20.2130  -28.8870 N   0  0  0  0  0  0  0  0  0  0  0  0
   -0.1960   21.2750  -28.2170 C   0  0  0  0  0  0  0  0  0  0  0  0
   -0.8050   18.9080  -28.1840 C   0  0  0  0  0  0  0  0  0  0  0  0
   -1.3750   18.8900  -26.7500 C   0  0  0  0  0  0  0  0  0  0  0  0
   -2.8500   19.2980  -26.7390 C   0  0  0  0  0  0  0  0  0  0  0  0
   -3.0600   20.6330  -27.4550 C   0  0  0  0  0  0  0  0  0  0  0  0
   -2.4470   20.5970  -28.8700 C   0  0  0  0  0  0  0  0  0  0  0  0
   -2.5570   20.1450  -33.2390 C   0  0  0  0  0  0  0  0  0  0  0  0
   -3.8500   19.6830  -33.4590 C   0  0  0  0  0  0  0  0  0  0  0  0
   -4.9510   20.2880  -32.8220 C   0  0  0  0  0  0  0  0  0  0  0  0
   -2.1931   16.8039  -31.9544 H   0  0  0  0  0  0  0  0  0  0  0  0
   -0.6711   16.2322  -32.7181 H   0  0  0  0  0  0  0  0  0  0  0  0
   -1.0735   17.9828  -32.7181 H   0  0  0  0  0  0  0  0  0  0  0  0
   -2.8614   17.6774  -34.2689 H   0  0  0  0  0  0  0  0  0  0  0  0
   -1.4462   16.6950  -34.8900 H   0  0  0  0  0  0  0  0  0  0  0  0
   -3.0685   15.1613  -35.2311 H   0  0  0  0  0  0  0  0  0  0  0  0
   -2.6859   14.8482  -33.4337 H   0  0  0  0  0  0  0  0  0  0  0  0
   -5.0070   14.7740  -34.1990 H   0  0  0  0  0  0  0  0  0  0  0  0
   -4.2010   16.3284  -31.8498 H   0  0  0  0  0  0  0  0  0  0  0  0
   -5.9167   15.8358  -32.2296 H   0  0  0  0  0  0  0  0  0  0  0  0
   -4.6255   14.2988  -30.6383 H   0  0  0  0  0  0  0  0  0  0  0  0
   -5.4033   13.5249  -32.0605 H   0  0  0  0  0  0  0  0  0  0  0  0
   -3.6332   13.8303  -32.0605 H   0  0  0  0  0  0  0  0  0  0  0  0
   -4.5052   17.5131  -34.8002 H   0  0  0  0  0  0  0  0  0  0  0  0
   -5.7004   16.2799  -35.4484 H   0  0  0  0  0  0  0  0  0  0  0  0
   -7.3477   16.9256  -34.0620 H   0  0  0  0  0  0  0  0  0  0  0  0
   -6.2055   17.2971  -32.7072 H   0  0  0  0  0  0  0  0  0  0  0  0
   -6.8620   19.1310  -35.0230 H   0  0  0  0  0  0  0  0  0  0  0  0
   -8.8595   19.2100  -33.3410 H   0  0  0  0  0  0  0  0  0  0  0  0
  -10.7763   20.4601  -32.3714 H   0  0  0  0  0  0  0  0  0  0  0  0
  -10.3681   22.4880  -30.9827 H   0  0  0  0  0  0  0  0  0  0  0  0
   -8.0469   23.1958  -30.4566 H   0  0  0  0  0  0  0  0  0  0  0  0
   -5.7021   22.2752  -29.1487 H   0  0  0  0  0  0  0  0  0  0  0  0
   -4.5150   23.1915  -30.1376 H   0  0  0  0  0  0  0  0  0  0  0  0
   -6.2456   23.6729  -30.1376 H   0  0  0  0  0  0  0  0  0  0  0  0
   -3.2318   22.7164  -31.1104 H   0  0  0  0  0  0  0  0  0  0  0  0
    0.8541   21.5182  -31.3207 H   0  0  0  0  0  0  0  0  0  0  0  0
   -0.4836   22.3003  -30.3546 H   0  0  0  0  0  0  0  0  0  0  0  0
   -1.2155   19.5888  -30.8911 H   0  0  0  0  0  0  0  0  0  0  0  0
    0.5131   19.6874  -30.1975 H   0  0  0  0  0  0  0  0  0  0  0  0
   -0.2795   21.1650  -27.1257 H   0  0  0  0  0  0  0  0  0  0  0  0
    0.8583   21.1785  -28.5157 H   0  0  0  0  0  0  0  0  0  0  0  0
   -0.5726   22.2644  -28.5157 H   0  0  0  0  0  0  0  0  0  0  0  0
   -1.3036   18.1196  -28.7669 H   0  0  0  0  0  0  0  0  0  0  0  0
    0.2797   18.7440  -28.1035 H   0  0  0  0  0  0  0  0  0  0  0  0
   -1.2800   17.8744  -26.3382 H   0  0  0  0  0  0  0  0  0  0  0  0
   -0.8088   19.6089  -26.1396 H   0  0  0  0  0  0  0  0  0  0  0  0
   -3.4408   18.5216  -27.2470 H   0  0  0  0  0  0  0  0  0  0  0  0
   -3.1729   19.4091  -25.6933 H   0  0  0  0  0  0  0  0  0  0  0  0
   -4.1385   20.8343  -27.5341 H   0  0  0  0  0  0  0  0  0  0  0  0
   -2.5644   21.4260  -26.8757 H   0  0  0  0  0  0  0  0  0  0  0  0
   -3.0077   19.8679  -29.4734 H   0  0  0  0  0  0  0  0  0  0  0  0
   -2.5145   21.6168  -29.2767 H   0  0  0  0  0  0  0  0  0  0  0  0
   -1.7102   19.6525  -33.7394 H   0  0  0  0  0  0  0  0  0  0  0  0
   -4.0151   18.8343  -34.1391 H   0  0  0  0  0  0  0  0  0  0  0  0
  1  2  1  0
  2  3  1  0
  3  4  1  0
  4  5  1  0
  5  6  1  0
  4  7  1  0
  7  8  1  0
  8  9  1  0
  9 10  1  0
 10 11  2  0
 11 12  1  0
 12 13  2  0
 13 14  1  0
 14 15  2  0
 15 16  1  0
 16 17  2  0
 17 18  1  0
 17 19  1  0
 19 20  2  0
 20 21  1  0
 21 22  1  0
 22 23  1  0
 23 24  1  0
 24 25  1  0
 25 26  1  0
 25 27  1  0
 27 28  1  0
 28 29  1  0
 29 30  1  0
 30 31  1  0
 21 32  2  0
 32 33  1  0
 33 34  2  0
 34 10  1  0
 16 11  1  0
 34 19  1  0
 31 25  1  0
  1 35  1  0
  1 36  1  0
  1 37  1  0
  2 38  1  0
  2 39  1  0
  3 40  1  0
  3 41  1  0
  4 42  1  6
  5 43  1  0
  5 44  1  0
  6 45  1  0
  6 46  1  0
  6 47  1  0
  7 48  1  0
  7 49  1  0
  8 50  1  0
  8 51  1  0
  9 52  1  0
 12 53  1  0
 13 54  1  0
 14 55  1  0
 15 56  1  0
 18 57  1  0
 18 58  1  0
 18 59  1  0
 20 60  1  0
 23 61  1  0
 23 62  1  0
 24 63  1  0
 24 64  1  0
 26 65  1  0
 26 66  1  0
 26 67  1  0
 27 68  1  0
 27 69  1  0
 28 70  1  0
 28 71  1  0
 29 72  1  0
 29 73  1  0
 30 74  1  0
 30 75  1  0
 31 76  1  0
 31 77  1  0
 32 78  1  0
 33 79  1  0
M  CHG  3   4   1  17   1  25   1
M  END
>  <UniqueID>  (15) 
15

>  <SMILES>  (15) 
CCC[N@@H+](CC)CCNc1c2ccccc2[n+](C)c2cc(OCC[N+]3(C)CCCCC3)ccc12

>  <Energy>  (15) 
129.41245507905967

>  <Genealogy>  (15) 
CCC[NH+](CC)CCNc1c2ccccc2[n+](C)c2cc(OCC[N+]3(C)CCCCC3)ccc12 (protonated)
CCC[N@@H+](CC)CCNc1c2ccccc2[n+](C)c2cc(OCC[N+]3(C)CCCCC3)ccc12 (chirality)
CCC[N@@H+](CC)CCNc1c2ccccc2[n+](C)c2cc(OCC[N+]3(C)CCCCC3)ccc12 (3D coordinates assigned)
CCC[N@@H+](CC)CCNc1c2ccccc2[n+](C)c2cc(OCC[N+]3(C)CCCCC3)ccc12 (nonaromatic ring conformer: 129.41245507905967 kcal/mol)

>  <smiles>  (15) 
CCCN(CC)CCNc1c2ccccc2[n+](C)c2cc(OCC[N+]3(C)CCCCC3)ccc12

>  <score_type>  (15) 
oracle

>  <origin>  (15) 
adg

>  <m_score__min__energy>  (15) 
-7.6799999999999997

>  <m_primary>  (15) 
energy

$$$$
15:0
     RDKit          3D

 58 60  0  0  0  0  0  0  0  0999 V2000
   -3.8890   22.5870  -28.7400 C   0  0  0  0  0  0  0  0  0  0  0  0
   -4.0720   23.5440  -30.2770 S   0  0  0  0  0  0  0  0  0  0  0  0
   -3.4760   22.2120  -31.3180 C   0  0  0  0  0  0  0  0  0  0  0  0
   -2.8510   21.0990  -30.7430 C   0  0  0  0  0  0  0  0  0  0  0  0
   -2.3910   20.0570  -31.5520 C   0  0  0  0  0  0  0  0  0  0  0  0
   -2.5430   20.1240  -32.9470 C   0  0  0  0  0  0  0  0  0  0  0  0
   -2.0760   18.9900  -33.8240 C   0  0  0  0  0  0  0  0  0  0  0  0
   -3.2210   18.2010  -34.3360 N   0  0  0  0  0  0  0  0  0  0  0  0
   -2.9950   16.7470  -34.1440 C   0  0  0  0  0  0  0  0  0  0  0  0
   -4.1470   15.8550  -34.6440 C   0  0  0  0  0  0  0  0  0  0  0  0
   -5.3230   15.8170  -33.6480 C   0  0  0  0  0  0  0  0  0  0  0  0
   -6.3140   16.9090  -33.8110 N   0  0  1  0  0  0  0  0  0  0  0  0
   -7.0600   17.1700  -32.5510 C   0  0  0  0  0  0  0  0  0  0  0  0
   -7.3480   18.6390  -32.3360 C   0  0  0  0  0  0  0  0  0  0  0  0
   -8.5890   19.1830  -32.6930 C   0  0  0  0  0  0  0  0  0  0  0  0
   -8.8600   20.5360  -32.4730 C   0  0  0  0  0  0  0  0  0  0  0  0
   -7.8930   21.3820  -31.8900 C   0  0  0  0  0  0  0  0  0  0  0  0
   -8.1740   22.7870  -31.6590 N   0  0  0  0  0  0  0  0  0  0  0  0
   -7.3180   23.5840  -30.7710 C   0  0  0  0  0  0  0  0  0  0  0  0
   -9.3140   23.4400  -32.3160 C   0  0  0  0  0  0  0  0  0  0  0  0
   -6.6480   20.8240  -31.5350 C   0  0  0  0  0  0  0  0  0  0  0  0
   -6.3790   19.4700  -31.7560 C   0  0  0  0  0  0  0  0  0  0  0  0
   -5.7590   18.1130  -34.4850 C   0  0  0  0  0  0  0  0  0  0  0  0
   -4.5070   18.7150  -33.8030 C   0  0  0  0  0  0  0  0  0  0  0  0
   -3.1690   21.2440  -33.5180 C   0  0  0  0  0  0  0  0  0  0  0  0
   -3.6310   22.2830  -32.7060 C   0  0  0  0  0  0  0  0  0  0  0  0
   -4.0166   23.2545  -27.8751 H   0  0  0  0  0  0  0  0  0  0  0  0
   -4.6520   21.7953  -28.7079 H   0  0  0  0  0  0  0  0  0  0  0  0
   -2.8877   22.1327  -28.7079 H   0  0  0  0  0  0  0  0  0  0  0  0
   -2.7218   21.0448  -29.6520 H   0  0  0  0  0  0  0  0  0  0  0  0
   -1.9080   19.1808  -31.0949 H   0  0  0  0  0  0  0  0  0  0  0  0
   -1.5154   19.4027  -34.6757 H   0  0  0  0  0  0  0  0  0  0  0  0
   -1.4367   18.3261  -33.2235 H   0  0  0  0  0  0  0  0  0  0  0  0
   -2.0808   16.4658  -34.6873 H   0  0  0  0  0  0  0  0  0  0  0  0
   -2.9160   16.5810  -33.0595 H   0  0  0  0  0  0  0  0  0  0  0  0
   -4.5087   16.2481  -35.6056 H   0  0  0  0  0  0  0  0  0  0  0  0
   -3.7608   14.8308  -34.7524 H   0  0  0  0  0  0  0  0  0  0  0  0
   -5.8470   14.8581  -33.7742 H   0  0  0  0  0  0  0  0  0  0  0  0
   -4.8845   15.9446  -32.6473 H   0  0  0  0  0  0  0  0  0  0  0  0
   -7.0240   16.5230  -34.4810 H   0  0  0  0  0  0  0  0  0  0  0  0
   -8.0154   16.6261  -32.5887 H   0  0  0  0  0  0  0  0  0  0  0  0
   -6.4303   16.8295  -31.7158 H   0  0  0  0  0  0  0  0  0  0  0  0
   -9.3557   18.5400  -33.1499 H   0  0  0  0  0  0  0  0  0  0  0  0
   -9.8398   20.9468  -32.7580 H   0  0  0  0  0  0  0  0  0  0  0  0
   -7.5633   23.3557  -29.7233 H   0  0  0  0  0  0  0  0  0  0  0  0
   -6.2627   23.3393  -30.9623 H   0  0  0  0  0  0  0  0  0  0  0  0
   -7.4868   24.6540  -30.9623 H   0  0  0  0  0  0  0  0  0  0  0  0
  -10.0011   23.8336  -31.5524 H   0  0  0  0  0  0  0  0  0  0  0  0
   -8.9509   24.2671  -32.9438 H   0  0  0  0  0  0  0  0  0  0  0  0
   -9.8437   22.7084  -32.9438 H   0  0  0  0  0  0  0  0  0  0  0  0
   -5.8778   21.4626  -31.0779 H   0  0  0  0  0  0  0  0  0  0  0  0
   -5.4008   19.0539  -31.4730 H   0  0  0  0  0  0  0  0  0  0  0  0
   -5.4886   17.8356  -35.5145 H   0  0  0  0  0  0  0  0  0  0  0  0
   -6.5411   18.8850  -34.4367 H   0  0  0  0  0  0  0  0  0  0  0  0
   -4.5279   19.8058  -33.9434 H   0  0  0  0  0  0  0  0  0  0  0  0
   -4.5511   18.4223  -32.7436 H   0  0  0  0  0  0  0  0  0  0  0  0
   -3.2961   21.3035  -34.6090 H   0  0  0  0  0  0  0  0  0  0  0  0
   -4.1178   23.1589  -33.1596 H   0  0  0  0  0  0  0  0  0  0  0  0
  1  2  1  0
  2  3  1  0
  3  4  2  0
  4  5  1  0
  5  6  2  0
  6  7  1  0
  7  8  1  0
  8  9  1  0
  9 10  1  0
 10 11  1  0
 11 12  1  0
 12 13  1  0
 13 14  1  0
 14 15  2  0
 15 16  1  0
 16 17  2  0
 17 18  1  0
 18 19  1  0
 18 20  1  0
 17 21  1  0
 21 22  2  0
 12 23  1  0
 23 24  1  0
  6 25  1  0
 25 26  2  0
 26  3  1  0
 24  8  1  0
 22 14  1  0
  1 27  1  0
  1 28  1  0
  1 29  1  0
  4 30  1  0
  5 31  1  0
  7 32  1  0
  7 33  1  0
  9 34  1  0
  9 35  1  0
 10 36  1  0
 10 37  1  0
 11 38  1  0
 11 39  1  0
 12 40  1  6
 13 41  1  0
 13 42  1  0
 15 43  1  0
 16 44  1  0
 19 45  1  0
 19 46  1  0
 19 47  1  0
 20 48  1  0
 20 49  1  0
 20 50  1  0
 21 51  1  0
 22 52  1  0
 23 53  1  0
 23 54  1  0
 24 55  1  0
 24 56  1  0
 25 57  1  0
 26 58  1  0
M  CHG  1  12   1
M  END
>  <UniqueID>  (16) 
16

>  <SMILES>  (16) 
CSc1ccc(CN2CCC[N@@H+](Cc3ccc(N(C)C)cc3)CC2)cc1

>  <Energy>  (16) 
74.81039887218304

>  <Genealogy>  (16) 
CSc1ccc(CN2CCC[NH+](Cc3ccc(N(C)C)cc3)CC2)cc1 (protonated)
CSc1ccc(CN2CCC[N@@H+](Cc3ccc(N(C)C)cc3)CC2)cc1 (chirality)
CSc1ccc(CN2CCC[N@@H+](Cc3ccc(N(C)C)cc3)CC2)cc1 (3D coordinates assigned)
CSc1ccc(CN2CCC[N@@H+](Cc3ccc(N(C)C)cc3)CC2)cc1 (nonaromatic ring conformer: 74.81039887218304 kcal/mol)

>  <smiles>  (16) 
CSc1ccc(CN2CCCN(Cc3ccc(N(C)C)cc3)CC2)cc1

>  <score_type>  (16) 
oracle

>  <origin>  (16) 
adg

>  <m_score__min__energy>  (16) 
-6

>  <m_primary>  (16) 
energy

$$$$
16:0
     RDKit          3D

 35 35  0  0  0  0  0  0  0  0999 V2000
   -0.9980   26.1000  -24.6250 C   0  0  0  0  0  0  0  0  0  0  0  0
   -2.2120   26.0360  -25.5450 C   0  0  0  0  0  0  0  0  0  0  0  0
   -2.1810   24.8130  -26.3590 N   0  0  0  0  0  0  0  0  0  0  0  0
   -3.5010   24.5140  -26.9290 C   0  0  0  0  0  0  0  0  0  0  0  0
   -3.3380   23.7810  -28.2620 C   0  0  0  0  0  0  0  0  0  0  0  0
   -2.9180   24.7320  -29.3370 C   0  0  0  0  0  0  0  0  0  0  0  0
   -1.7930   25.2970  -29.2670 O   0  0  0  0  0  0  0  0  0  0  0  0
   -3.7520   24.9120  -30.4860 N   0  0  0  0  0  0  0  0  0  0  0  0
   -4.9880   24.2260  -30.7210 C   0  0  0  0  0  0  0  0  0  0  0  0
   -6.2270   24.6240  -30.2610 C   0  0  0  0  0  0  0  0  0  0  0  0
   -6.5060   25.7700  -29.3460 C   0  0  0  0  0  0  0  0  0  0  0  0
   -7.1650   23.7630  -30.7040 N   0  0  0  0  0  0  0  0  0  0  0  0
   -6.5560   22.8550  -31.4530 N   0  0  0  0  0  0  0  0  0  0  0  0
   -7.2660   21.7860  -32.1490 C   0  0  0  0  0  0  0  0  0  0  0  0
   -5.2310   23.1180  -31.5150 C   0  0  0  0  0  0  0  0  0  0  0  0
   -4.2430   22.3510  -32.3440 C   0  0  0  0  0  0  0  0  0  0  0  0
   -1.3310   26.0824  -23.5768 H   0  0  0  0  0  0  0  0  0  0  0  0
   -0.3463   25.2350  -24.8172 H   0  0  0  0  0  0  0  0  0  0  0  0
   -0.4408   27.0288  -24.8172 H   0  0  0  0  0  0  0  0  0  0  0  0
   -3.1278   26.0415  -24.9357 H   0  0  0  0  0  0  0  0  0  0  0  0
   -2.1951   26.9082  -26.2151 H   0  0  0  0  0  0  0  0  0  0  0  0
   -1.5240   24.9800  -27.1570 H   0  0  0  0  0  0  0  0  0  0  0  0
   -4.0649   23.8789  -26.2300 H   0  0  0  0  0  0  0  0  0  0  0  0
   -4.0448   25.4553  -27.0971 H   0  0  0  0  0  0  0  0  0  0  0  0
   -2.5732   22.9979  -28.1529 H   0  0  0  0  0  0  0  0  0  0  0  0
   -4.3033   23.3335  -28.5413 H   0  0  0  0  0  0  0  0  0  0  0  0
   -6.4242   25.4338  -28.3018 H   0  0  0  0  0  0  0  0  0  0  0  0
   -5.7771   26.5728  -29.5310 H   0  0  0  0  0  0  0  0  0  0  0  0
   -7.5224   26.1479  -29.5310 H   0  0  0  0  0  0  0  0  0  0  0  0
   -7.7179   21.1056  -31.4122 H   0  0  0  0  0  0  0  0  0  0  0  0
   -8.0557   22.2203  -32.7796 H   0  0  0  0  0  0  0  0  0  0  0  0
   -6.5594   21.2265  -32.7796 H   0  0  0  0  0  0  0  0  0  0  0  0
   -3.5490   21.8122  -31.6821 H   0  0  0  0  0  0  0  0  0  0  0  0
   -4.7786   21.6298  -32.9788 H   0  0  0  0  0  0  0  0  0  0  0  0
   -3.6771   23.0487  -32.9788 H   0  0  0  0  0  0  0  0  0  0  0  0
  1  2  1  0
  2  3  1  0
  3  4  1  0
  4  5  1  0
  5  6  1  0
  6  7  2  0
  6  8  1  0
  8  9  1  0
  9 10  1  0
 10 11  1  0
 10 12  2  0
 12 13  1  0
 13 14  1  0
 13 15  1  0
 15 16  1  0
 15  9  2  0
  1 17  1  0
  1 18  1  0
  1 19  1  0
  2 20  1  0
  2 21  1  0
  3 22  1  0
  4 23  1  0
  4 24  1  0
  5 25  1  0
  5 26  1  0
 11 27  1  0
 11 28  1  0
 11 29  1  0
 14 30  1  0
 14 31  1  0
 14 32  1  0
 16 33  1  0
 16 34  1  0
 16 35  1  0
M  CHG  1   8  -1
M  END
>  <UniqueID>  (17) 
17

>  <SMILES>  (17) 
CCNCCC(=O)[N-]c1c(C)nn(C)c1C

>  <Energy>  (17) 
58.87693454605837

>  <Genealogy>  (17) 
CCNCCC(=O)[N-]c1c(C)nn(C)c1C (protonated)
CCNCCC(=O)[N-]c1c(C)nn(C)c1C (3D coordinates assigned)
CCNCCC(=O)[N-]c1c(C)nn(C)c1C (optimized conformer: 58.87693454605837 kcal/mol)

>  <smiles>  (17) 
CCNCCC(=O)Nc1c(C)nn(C)c1C

>  <score_type>  (17) 
oracle

>  <origin>  (17) 
adg

>  <m_score__min__energy>  (17) 
-7.3399999999999999

>  <m_primary>  (17) 
energy

$$$$
17:0
     RDKit          3D

 55 57  0  0  0  0  0  0  0  0999 V2000
   -4.5690   17.2970  -35.2680 C   0  0  0  0  0  0  0  0  0  0  0  0
   -5.7310   18.2310  -34.9410 C   0  0  0  0  0  0  0  0  0  0  0  0
   -5.6470   18.7310  -33.5520 N   0  0  0  0  0  0  0  0  0  0  0  0
   -4.2860   18.9290  -32.9990 C   0  0  0  0  0  0  0  0  0  0  0  0
   -3.5420   20.1630  -33.5950 C   0  0  0  0  0  0  0  0  0  0  0  0
   -3.0460   21.1650  -32.6160 N   0  0  0  0  0  0  0  0  0  0  0  0
   -1.7060   20.8230  -32.0920 C   0  0  0  0  0  0  0  0  0  0  0  0
   -1.1880   21.9270  -31.1620 C   0  0  0  0  0  0  0  0  0  0  0  0
   -2.1880   22.2650  -30.1450 N   0  0  0  0  0  0  0  0  0  0  0  0
   -1.8260   23.1500  -29.0700 C   0  0  0  0  0  0  0  0  0  0  0  0
   -1.0240   22.6740  -28.0210 C   0  0  0  0  0  0  0  0  0  0  0  0
   -0.6570   23.5190  -26.9730 C   0  0  0  0  0  0  0  0  0  0  0  0
   -1.0870   24.8450  -26.9600 C   0  0  0  0  0  0  0  0  0  0  0  0
   -1.8930   25.3310  -27.9930 C   0  0  0  0  0  0  0  0  0  0  0  0
   -2.2760   24.4870  -29.0550 C   0  0  0  0  0  0  0  0  0  0  0  0
   -3.1100   24.9350  -30.0920 O   0  0  0  0  0  0  0  0  0  0  0  0
   -4.5250   24.7820  -30.1160 C   0  0  0  0  0  0  0  0  0  0  0  0
   -3.4920   21.5950  -30.1480 C   0  0  0  0  0  0  0  0  0  0  0  0
   -4.0590   21.5210  -31.5750 C   0  0  0  0  0  0  0  0  0  0  0  0
   -6.8280   19.3050  -32.8980 C   0  0  0  0  0  0  0  0  0  0  0  0
   -6.9970   20.7090  -32.7830 C   0  0  0  0  0  0  0  0  0  0  0  0
   -8.1250   21.2540  -32.1620 C   0  0  0  0  0  0  0  0  0  0  0  0
   -9.1120   20.4210  -31.6430 C   0  0  0  0  0  0  0  0  0  0  0  0
   -8.9770   19.0390  -31.7450 C   0  0  0  0  0  0  0  0  0  0  0  0
   -7.8530   18.4860  -32.3630 C   0  0  0  0  0  0  0  0  0  0  0  0
   -4.1167   16.9334  -34.3335 H   0  0  0  0  0  0  0  0  0  0  0  0
   -4.9391   16.4422  -35.8531 H   0  0  0  0  0  0  0  0  0  0  0  0
   -3.8138   17.8423  -35.8531 H   0  0  0  0  0  0  0  0  0  0  0  0
   -5.7074   19.0869  -35.6315 H   0  0  0  0  0  0  0  0  0  0  0  0
   -6.6693   17.6674  -35.0498 H   0  0  0  0  0  0  0  0  0  0  0  0
   -4.3696   19.0659  -31.9108 H   0  0  0  0  0  0  0  0  0  0  0  0
   -3.6975   18.0386  -33.2654 H   0  0  0  0  0  0  0  0  0  0  0  0
   -2.6763   19.7911  -34.1627 H   0  0  0  0  0  0  0  0  0  0  0  0
   -4.2896   20.6916  -34.2047 H   0  0  0  0  0  0  0  0  0  0  0  0
   -2.8990   22.0350  -33.1840 H   0  0  0  0  0  0  0  0  0  0  0  0
   -1.7680   19.8786  -31.5314 H   0  0  0  0  0  0  0  0  0  0  0  0
   -1.0115   20.7201  -32.9388 H   0  0  0  0  0  0  0  0  0  0  0  0
   -0.2714   21.5779  -30.6640 H   0  0  0  0  0  0  0  0  0  0  0  0
   -0.9802   22.8245  -31.7630 H   0  0  0  0  0  0  0  0  0  0  0  0
   -0.6827   21.6283  -28.0251 H   0  0  0  0  0  0  0  0  0  0  0  0
   -0.0272   23.1381  -26.1555 H   0  0  0  0  0  0  0  0  0  0  0  0
   -0.7913   25.5100  -26.1351 H   0  0  0  0  0  0  0  0  0  0  0  0
   -2.2304   26.3779  -27.9773 H   0  0  0  0  0  0  0  0  0  0  0  0
   -4.9069   24.7407  -29.0852 H   0  0  0  0  0  0  0  0  0  0  0  0
   -4.9774   25.6365  -30.6407 H   0  0  0  0  0  0  0  0  0  0  0  0
   -4.7842   23.8506  -30.6407 H   0  0  0  0  0  0  0  0  0  0  0  0
   -3.3755   20.5754  -29.7520 H   0  0  0  0  0  0  0  0  0  0  0  0
   -4.1877   22.1702  -29.5194 H   0  0  0  0  0  0  0  0  0  0  0  0
   -4.8539   20.7608  -31.5921 H   0  0  0  0  0  0  0  0  0  0  0  0
   -4.4285   22.5271  -31.8224 H   0  0  0  0  0  0  0  0  0  0  0  0
   -6.2268   21.3808  -33.1897 H   0  0  0  0  0  0  0  0  0  0  0  0
   -8.2329   22.3459  -32.0833 H   0  0  0  0  0  0  0  0  0  0  0  0
   -9.9969   20.8537  -31.1533 H   0  0  0  0  0  0  0  0  0  0  0  0
   -9.7582   18.3804  -31.3375 H   0  0  0  0  0  0  0  0  0  0  0  0
   -7.7617   17.3922  -32.4358 H   0  0  0  0  0  0  0  0  0  0  0  0
  1  2  1  0
  2  3  1  0
  3  4  1  0
  4  5  1  0
  5  6  1  0
  6  7  1  0
  7  8  1  0
  8  9  1  0
  9 10  1  0
 10 11  2  0
 11 12  1  0
 12 13  2  0
 13 14  1  0
 14 15  2  0
 15 16  1  0
 16 17  1  0
  9 18  1  0
 18 19  1  0
  3 20  1  0
 20 21  2  0
 21 22  1  0
 22 23  2  0
 23 24  1  0
 24 25  2  0
 19  6  1  0
 25 20  1  0
 15 10  1  0
  1 26  1  0
  1 27  1  0
  1 28  1  0
  2 29  1  0
  2 30  1  0
  4 31  1  0
  4 32  1  0
  5 33  1  0
  5 34  1  0
  6 35  1  0
  7 36  1  0
  7 37  1  0
  8 38  1  0
  8 39  1  0
 11 40  1  0
 12 41  1  0
 13 42  1  0
 14 43  1  0
 17 44  1  0
 17 45  1  0
 17 46  1  0
 18 47  1  0
 18 48  1  0
 19 49  1  0
 19 50  1  0
 21 51  1  0
 22 52  1  0
 23 53  1  0
 24 54  1  0
 25 55  1  0
M  CHG  1   6   1
M  END
>  <UniqueID>  (18) 
18

>  <SMILES>  (18) 
CCN(CC[NH+]1CCN(c2ccccc2OC)CC1)c1ccccc1

>  <Energy>  (18) 
75.49240223157527

>  <Genealogy>  (18) 
CCN(CC[NH+]1CCN(c2ccccc2OC)CC1)c1ccccc1 (protonated)
CCN(CC[NH+]1CCN(c2ccccc2OC)CC1)c1ccccc1 (3D coordinates assigned)
CCN(CC[NH+]1CCN(c2ccccc2OC)CC1)c1ccccc1 (nonaromatic ring conformer: 75.49240223157527 kcal/mol)

>  <smiles>  (18) 
CCN(CCN1CCN(c2ccccc2OC)CC1)c1ccccc1

>  <score_type>  (18) 
oracle

>  <origin>  (18) 
adg

>  <m_score__min__energy>  (18) 
-7.21

>  <m_primary>  (18) 
energy

$$$$
18:0
     RDKit          3D

 73 76  0  0  0  0  0  0  0  0999 V2000
    0.0560   21.8600  -27.4300 C   0  0  0  0  0  0  0  0  0  0  0  0
   -0.1690   20.5820  -28.2430 C   0  0  0  0  0  0  0  0  0  0  0  0
   -1.4150   20.5780  -29.0480 N   0  0  0  0  0  0  0  0  0  0  0  0
   -2.6710   20.5810  -28.2590 C   0  0  0  0  0  0  0  0  0  0  0  0
   -2.7220   19.5390  -27.1290 C   0  0  0  0  0  0  0  0  0  0  0  0
   -1.4070   21.4500  -30.2420 C   0  0  0  0  0  0  0  0  0  0  0  0
   -2.2460   20.8350  -31.3780 C   0  0  0  0  0  0  0  0  0  0  0  0
   -1.7360   21.2310  -32.7780 C   0  0  0  0  0  0  0  0  0  0  0  0
   -2.7870   21.1930  -33.8150 N   0  0  0  0  0  0  0  0  0  0  0  0
   -3.9090   20.3590  -33.4220 C   0  0  0  0  0  0  0  0  0  0  0  0
   -5.0680   20.8850  -32.7850 C   0  0  0  0  0  0  0  0  0  0  0  0
   -5.2210   22.2720  -32.5540 C   0  0  0  0  0  0  0  0  0  0  0  0
   -6.3860   22.7910  -31.9650 C   0  0  0  0  0  0  0  0  0  0  0  0
   -6.5580   24.2030  -31.7280 N   0  0  0  0  0  0  0  0  0  0  0  0
   -6.3200   24.8390  -30.4280 C   0  0  0  0  0  0  0  0  0  0  0  0
   -5.1070   25.7750  -30.4710 C   0  0  0  0  0  0  0  0  0  0  0  0
   -3.8900   25.0180  -30.7970 N   0  0  0  0  0  0  0  0  0  0  0  0
   -3.6290   23.9350  -29.8330 C   0  0  0  0  0  0  0  0  0  0  0  0
   -2.6590   24.3450  -28.7100 C   0  0  0  0  0  0  0  0  0  0  0  0
   -2.0810   25.5950  -28.9730 O   0  0  0  0  0  0  0  0  0  0  0  0
   -7.4120   21.9150  -31.6080 C   0  0  0  0  0  0  0  0  0  0  0  0
   -7.2790   20.5430  -31.8020 C   0  0  0  0  0  0  0  0  0  0  0  0
   -6.1040   19.9930  -32.3640 C   0  0  0  0  0  0  0  0  0  0  0  0
   -5.9570   18.6220  -32.5100 N   0  0  0  0  0  0  0  0  0  0  0  0
   -6.7890   17.7060  -31.7050 C   0  0  0  0  0  0  0  0  0  0  0  0
   -4.9370   18.1400  -33.2980 C   0  0  0  0  0  0  0  0  0  0  0  0
   -3.9000   18.9860  -33.6920 C   0  0  0  0  0  0  0  0  0  0  0  0
   -2.7120   18.1100  -34.5120 S   0  0  0  0  0  0  0  0  0  0  0  0
   -3.5190   16.6480  -34.4210 C   0  0  0  0  0  0  0  0  0  0  0  0
   -3.1070   15.4370  -34.9690 C   0  0  0  0  0  0  0  0  0  0  0  0
   -3.9750   14.3420  -34.8930 C   0  0  0  0  0  0  0  0  0  0  0  0
   -5.2430   14.4880  -34.3080 C   0  0  0  0  0  0  0  0  0  0  0  0
   -5.6430   15.7200  -33.7640 C   0  0  0  0  0  0  0  0  0  0  0  0
   -4.7450   16.8070  -33.7710 C   0  0  0  0  0  0  0  0  0  0  0  0
    0.0144   21.6237  -26.3565 H   0  0  0  0  0  0  0  0  0  0  0  0
    1.0422   22.2814  -27.6748 H   0  0  0  0  0  0  0  0  0  0  0  0
   -0.7269   22.5929  -27.6748 H   0  0  0  0  0  0  0  0  0  0  0  0
    0.6829   20.4554  -28.9273 H   0  0  0  0  0  0  0  0  0  0  0  0
   -0.2623   19.7609  -27.5169 H   0  0  0  0  0  0  0  0  0  0  0  0
   -2.7921   21.5784  -27.8112 H   0  0  0  0  0  0  0  0  0  0  0  0
   -3.4785   20.3203  -28.9590 H   0  0  0  0  0  0  0  0  0  0  0  0
   -2.6969   20.0517  -26.1561 H   0  0  0  0  0  0  0  0  0  0  0  0
   -3.6499   18.9539  -27.2113 H   0  0  0  0  0  0  0  0  0  0  0  0
   -1.8557   18.8661  -27.2113 H   0  0  0  0  0  0  0  0  0  0  0  0
   -1.8272   22.4307  -29.9744 H   0  0  0  0  0  0  0  0  0  0  0  0
   -0.3694   21.5585  -30.5908 H   0  0  0  0  0  0  0  0  0  0  0  0
   -2.2105   19.7393  -31.2878 H   0  0  0  0  0  0  0  0  0  0  0  0
   -3.2718   21.2192  -31.2779 H   0  0  0  0  0  0  0  0  0  0  0  0
   -1.3331   22.2533  -32.7265 H   0  0  0  0  0  0  0  0  0  0  0  0
   -0.9686   20.4969  -33.0648 H   0  0  0  0  0  0  0  0  0  0  0  0
   -3.1200   22.1630  -34.0120 H   0  0  0  0  0  0  0  0  0  0  0  0
   -2.3770   20.8800  -34.7230 H   0  0  0  0  0  0  0  0  0  0  0  0
   -4.4110   22.9585  -32.8415 H   0  0  0  0  0  0  0  0  0  0  0  0
   -6.9010   24.7910  -32.5210 H   0  0  0  0  0  0  0  0  0  0  0  0
   -7.2101   25.4210  -30.1471 H   0  0  0  0  0  0  0  0  0  0  0  0
   -6.1184   24.0485  -29.6902 H   0  0  0  0  0  0  0  0  0  0  0  0
   -5.2709   26.5464  -31.2379 H   0  0  0  0  0  0  0  0  0  0  0  0
   -4.9825   26.2451  -29.4843 H   0  0  0  0  0  0  0  0  0  0  0  0
   -3.0690   25.6670  -30.8230 H   0  0  0  0  0  0  0  0  0  0  0  0
   -4.5841   23.6342  -29.3778 H   0  0  0  0  0  0  0  0  0  0  0  0
   -3.1581   23.1098  -30.3873 H   0  0  0  0  0  0  0  0  0  0  0  0
   -3.2110   24.3973  -27.7599 H   0  0  0  0  0  0  0  0  0  0  0  0
   -1.8566   23.5949  -28.6505 H   0  0  0  0  0  0  0  0  0  0  0  0
   -2.0150   25.6750  -29.9600 H   0  0  0  0  0  0  0  0  0  0  0  0
   -8.3377   22.3138  -31.1676 H   0  0  0  0  0  0  0  0  0  0  0  0
   -8.1032   19.8744  -31.5127 H   0  0  0  0  0  0  0  0  0  0  0  0
   -6.6154   17.8971  -30.6357 H   0  0  0  0  0  0  0  0  0  0  0  0
   -7.8506   17.8730  -31.9397 H   0  0  0  0  0  0  0  0  0  0  0  0
   -6.5209   16.6653  -31.9397 H   0  0  0  0  0  0  0  0  0  0  0  0
   -2.1225   15.3428  -35.4505 H   0  0  0  0  0  0  0  0  0  0  0  0
   -3.6635   13.3655  -35.2922 H   0  0  0  0  0  0  0  0  0  0  0  0
   -5.9299   13.6294  -34.2753 H   0  0  0  0  0  0  0  0  0  0  0  0
   -6.6495   15.8358  -33.3357 H   0  0  0  0  0  0  0  0  0  0  0  0
  1  2  1  0
  2  3  1  0
  3  4  1  0
  4  5  1  0
  3  6  1  0
  6  7  1  0
  7  8  1  0
  8  9  1  0
  9 10  1  0
 10 11  2  0
 11 12  1  0
 12 13  2  0
 13 14  1  0
 14 15  1  0
 15 16  1  0
 16 17  1  0
 17 18  1  0
 18 19  1  0
 19 20  1  0
 13 21  1  0
 21 22  2  0
 22 23  1  0
 23 24  2  0
 24 25  1  0
 24 26  1  0
 26 27  2  0
 27 28  1  0
 28 29  1  0
 29 30  2  0
 30 31  1  0
 31 32  2  0
 32 33  1  0
 33 34  2  0
 27 10  1  0
 34 29  1  0
 23 11  1  0
 34 26  1  0
  1 35  1  0
  1 36  1  0
  1 37  1  0
  2 38  1  0
  2 39  1  0
  4 40  1  0
  4 41  1  0
  5 42  1  0
  5 43  1  0
  5 44  1  0
  6 45  1  0
  6 46  1  0
  7 47  1  0
  7 48  1  0
  8 49  1  0
  8 50  1  0
  9 51  1  0
  9 52  1  0
 12 53  1  0
 14 54  1  0
 15 55  1  0
 15 56  1  0
 16 57  1  0
 16 58  1  0
 17 59  1  0
 18 60  1  0
 18 61  1  0
 19 62  1  0
 19 63  1  0
 20 64  1  0
 21 65  1  0
 22 66  1  0
 25 67  1  0
 25 68  1  0
 25 69  1  0
 30 70  1  0
 31 71  1  0
 32 72  1  0
 33 73  1  0
M  CHG  2   9   1  24   1
M  END
>  <UniqueID>  (19) 
19

>  <SMILES>  (19) 
CCN(CC)CCC[NH2+]c1c2cc(NCCNCCO)ccc2[n+](C)c2c1sc1ccccc12

>  <Energy>  (19) 
135.24798740264302

>  <Genealogy>  (19) 
CCN(CC)CCC[NH2+]c1c2cc(NCCNCCO)ccc2[n+](C)c2c1sc1ccccc12 (protonated)
CCN(CC)CCC[NH2+]c1c2cc(NCCNCCO)ccc2[n+](C)c2c1sc1ccccc12 (3D coordinates assigned)
CCN(CC)CCC[NH2+]c1c2cc(NCCNCCO)ccc2[n+](C)c2c1sc1ccccc12 (optimized conformer: 135.24798740264302 kcal/mol)

>  <smiles>  (19) 
CCN(CC)CCCNc1c2cc(NCCNCCO)ccc2[n+](C)c2c1sc1ccccc12

>  <score_type>  (19) 
oracle

>  <origin>  (19) 
adg

>  <m_score__min__energy>  (19) 
-9.3100000000000005

>  <m_primary>  (19) 
energy

$$$$
19:0
     RDKit          3D

 55 57  0  0  0  0  0  0  0  0999 V2000
   -9.0200   22.0430  -31.4230 C   0  0  0  0  0  0  0  0  0  0  0  0
   -7.7960   22.2860  -30.5400 C   0  0  0  0  0  0  0  0  0  0  0  0
   -6.8590   23.2300  -31.1890 N   0  0  0  0  0  0  0  0  0  0  0  0
   -7.2400   23.4600  -32.5980 C   0  0  0  0  0  0  0  0  0  0  0  0
   -6.7940   24.5160  -30.4570 C   0  0  0  0  0  0  0  0  0  0  0  0
   -5.3630   24.8130  -29.9890 C   0  0  0  0  0  0  0  0  0  0  0  0
   -4.3880   24.2410  -30.9330 N   0  0  0  0  0  0  0  0  0  0  0  0
   -3.4900   23.2760  -30.2810 C   0  0  0  0  0  0  0  0  0  0  0  0
   -3.8870   21.8410  -30.6510 C   0  0  0  0  0  0  0  0  0  0  0  0
   -4.6700   21.7930  -31.8970 N   0  0  0  0  0  0  0  0  0  0  0  0
   -4.3180   20.6110  -32.6720 C   0  0  0  0  0  0  0  0  0  0  0  0
   -3.0120   20.4640  -33.2120 C   0  0  0  0  0  0  0  0  0  0  0  0
   -2.0560   21.5080  -33.1420 C   0  0  0  0  0  0  0  0  0  0  0  0
   -0.7520   21.3210  -33.5900 C   0  0  0  0  0  0  0  0  0  0  0  0
   -0.3650   20.0950  -34.1100 C   0  0  0  0  0  0  0  0  0  0  0  0
   -1.2940   19.0650  -34.2360 C   0  0  0  0  0  0  0  0  0  0  0  0
   -2.6480   19.2420  -33.8460 C   0  0  0  0  0  0  0  0  0  0  0  0
   -3.5920   18.2580  -34.0650 N   0  0  0  0  0  0  0  0  0  0  0  0
   -3.2800   17.1310  -34.9760 C   0  0  0  0  0  0  0  0  0  0  0  0
   -4.8420   18.3500  -33.4860 C   0  0  0  0  0  0  0  0  0  0  0  0
   -5.7440   17.2540  -33.4960 C   0  0  0  0  0  0  0  0  0  0  0  0
   -7.0420   17.3780  -33.0100 C   0  0  0  0  0  0  0  0  0  0  0  0
   -7.4780   18.5920  -32.4940 C   0  0  0  0  0  0  0  0  0  0  0  0
   -9.1290   18.7580  -31.9230 Cl  0  0  0  0  0  0  0  0  0  0  0  0
   -6.5970   19.6700  -32.4090 C   0  0  0  0  0  0  0  0  0  0  0  0
   -5.2540   19.5550  -32.8490 C   0  0  0  0  0  0  0  0  0  0  0  0
   -9.9012   21.8681  -30.7882 H   0  0  0  0  0  0  0  0  0  0  0  0
   -9.1947   22.9240  -32.0581 H   0  0  0  0  0  0  0  0  0  0  0  0
   -8.8449   21.1621  -32.0581 H   0  0  0  0  0  0  0  0  0  0  0  0
   -8.1232   22.7069  -29.5778 H   0  0  0  0  0  0  0  0  0  0  0  0
   -7.2789   21.3280  -30.3827 H   0  0  0  0  0  0  0  0  0  0  0  0
   -8.1812   24.0282  -32.6353 H   0  0  0  0  0  0  0  0  0  0  0  0
   -6.4471   24.0304  -33.1038 H   0  0  0  0  0  0  0  0  0  0  0  0
   -7.3754   22.4926  -33.1038 H   0  0  0  0  0  0  0  0  0  0  0  0
   -7.1299   25.3253  -31.1219 H   0  0  0  0  0  0  0  0  0  0  0  0
   -7.4441   24.4479  -29.5723 H   0  0  0  0  0  0  0  0  0  0  0  0
   -5.2181   25.9020  -29.9329 H   0  0  0  0  0  0  0  0  0  0  0  0
   -5.2094   24.3611  -28.9979 H   0  0  0  0  0  0  0  0  0  0  0  0
   -4.9210   23.7260  -31.6730 H   0  0  0  0  0  0  0  0  0  0  0  0
   -2.4571   23.4625  -30.6101 H   0  0  0  0  0  0  0  0  0  0  0  0
   -3.5672   23.3975  -29.1905 H   0  0  0  0  0  0  0  0  0  0  0  0
   -2.9739   21.2416  -30.7812 H   0  0  0  0  0  0  0  0  0  0  0  0
   -4.5118   21.4397  -29.8395 H   0  0  0  0  0  0  0  0  0  0  0  0
   -5.6930   21.8170  -31.6910 H   0  0  0  0  0  0  0  0  0  0  0  0
   -4.5260   22.6580  -32.4600 H   0  0  0  0  0  0  0  0  0  0  0  0
   -2.3500   22.4830  -32.7263 H   0  0  0  0  0  0  0  0  0  0  0  0
   -0.0273   22.1465  -33.5316 H   0  0  0  0  0  0  0  0  0  0  0  0
    0.6773   19.9358  -34.4234 H   0  0  0  0  0  0  0  0  0  0  0  0
   -0.9728   18.0959  -34.6454 H   0  0  0  0  0  0  0  0  0  0  0  0
   -3.0328   16.2380  -34.3832 H   0  0  0  0  0  0  0  0  0  0  0  0
   -4.1534   16.9197  -35.6104 H   0  0  0  0  0  0  0  0  0  0  0  0
   -2.4223   17.3990  -35.6104 H   0  0  0  0  0  0  0  0  0  0  0  0
   -5.4097   16.2856  -33.8966 H   0  0  0  0  0  0  0  0  0  0  0  0
   -7.7231   16.5145  -33.0344 H   0  0  0  0  0  0  0  0  0  0  0  0
   -6.9500   20.6254  -31.9936 H   0  0  0  0  0  0  0  0  0  0  0  0
  1  2  1  0
  2  3  1  0
  3  4  1  0
  3  5  1  0
  5  6  1  0
  6  7  1  0
  7  8  1  0
  8  9  1  0
  9 10  1  0
 10 11  1  0
 11 12  2  0
 12 13  1  0
 13 14  2  0
 14 15  1  0
 15 16  2  0
 16 17  1  0
 17 18  2  0
 18 19  1  0
 18 20  1  0
 20 21  2  0
 21 22  1  0
 22 23  2  0
 23 24  1  0
 23 25  1  0
 25 26  2  0
 26 11  1  0
 17 12  1  0
 26 20  1  0
  1 27  1  0
  1 28  1  0
  1 29  1  0
  2 30  1  0
  2 31  1  0
  4 32  1  0
  4 33  1  0
  4 34  1  0
  5 35  1  0
  5 36  1  0
  6 37  1  0
  6 38  1  0
  7 39  1  0
  8 40  1  0
  8 41  1  0
  9 42  1  0
  9 43  1  0
 10 44  1  0
 10 45  1  0
 13 46  1  0
 14 47  1  0
 15 48  1  0
 16 49  1  0
 19 50  1  0
 19 51  1  0
 19 52  1  0
 21 53  1  0
 22 54  1  0
 25 55  1  0
M  CHG  2  10   1  18   1
M  END
>  <UniqueID>  (20) 
20

>  <SMILES>  (20) 
CCN(C)CCNCC[NH2+]c1c2ccccc2[n+](C)c2ccc(Cl)cc12

>  <Energy>  (20) 
82.00465221720862

>  <Genealogy>  (20) 
CCN(C)CCNCC[NH2+]c1c2ccccc2[n+](C)c2ccc(Cl)cc12 (protonated)
CCN(C)CCNCC[NH2+]c1c2ccccc2[n+](C)c2ccc(Cl)cc12 (3D coordinates assigned)
CCN(C)CCNCC[NH2+]c1c2ccccc2[n+](C)c2ccc(Cl)cc12 (optimized conformer: 82.00465221720862 kcal/mol)

>  <smiles>  (20) 
CCN(C)CCNCCNc1c2ccccc2[n+](C)c2ccc(Cl)cc12

>  <score_type>  (20) 
oracle

>  <origin>  (20) 
adg

>  <m_score__min__energy>  (20) 
-8.3200000000000003

>  <m_primary>  (20) 
energy

$$$$
20:0
     RDKit          3D

 49 50  0  0  0  0  0  0  0  0999 V2000
   -4.6290   14.9160  -32.3770 C   0  0  0  0  0  0  0  0  0  0  0  0
   -5.2870   15.4580  -33.6430 C   0  0  0  0  0  0  0  0  0  0  0  0
   -6.4980   16.3610  -33.3510 C   0  0  0  0  0  0  0  0  0  0  0  0
   -6.1140   17.7890  -33.2920 N   0  0  0  0  0  0  0  0  0  0  0  0
   -4.8570   18.0950  -33.7380 C   0  0  0  0  0  0  0  0  0  0  0  0
   -4.3740   19.3960  -33.7150 C   0  0  0  0  0  0  0  0  0  0  0  0
   -5.1760   20.4340  -33.2440 C   0  0  0  0  0  0  0  0  0  0  0  0
   -4.6520   21.7740  -33.1940 N   0  0  0  0  0  0  0  0  0  0  0  0
   -4.2380   22.4320  -31.9530 C   0  0  0  0  0  0  0  0  0  0  0  0
   -5.2410   23.5130  -31.5400 C   0  0  0  0  0  0  0  0  0  0  0  0
   -4.5420   24.6310  -30.8660 N   0  0  0  0  0  0  0  0  0  0  0  0
   -3.5930   24.1690  -29.8230 C   0  0  0  0  0  0  0  0  0  0  0  0
   -4.2510   23.4000  -28.6670 C   0  0  0  0  0  0  0  0  0  0  0  0
   -5.4640   25.7080  -30.4420 C   0  0  0  0  0  0  0  0  0  0  0  0
   -6.7720   25.1470  -29.8880 C   0  0  0  0  0  0  0  0  0  0  0  0
   -6.4860   20.1440  -32.8080 C   0  0  0  0  0  0  0  0  0  0  0  0
   -7.3530   21.1730  -32.3840 C   0  0  0  0  0  0  0  0  0  0  0  0
   -8.6480   20.8830  -31.9650 C   0  0  0  0  0  0  0  0  0  0  0  0
   -9.1050   19.5720  -31.9700 C   0  0  0  0  0  0  0  0  0  0  0  0
   -8.2750   18.5370  -32.4000 C   0  0  0  0  0  0  0  0  0  0  0  0
   -6.9510   18.7940  -32.8350 C   0  0  0  0  0  0  0  0  0  0  0  0
   -5.1349   15.3327  -31.4936 H   0  0  0  0  0  0  0  0  0  0  0  0
   -4.7100   13.8191  -32.3625 H   0  0  0  0  0  0  0  0  0  0  0  0
   -3.5679   15.2056  -32.3625 H   0  0  0  0  0  0  0  0  0  0  0  0
   -4.5416   16.0414  -34.2034 H   0  0  0  0  0  0  0  0  0  0  0  0
   -5.6511   14.5952  -34.2201 H   0  0  0  0  0  0  0  0  0  0  0  0
   -7.2444   16.2251  -34.1475 H   0  0  0  0  0  0  0  0  0  0  0  0
   -6.9103   16.0759  -32.3719 H   0  0  0  0  0  0  0  0  0  0  0  0
   -4.2138   17.2905  -34.1241 H   0  0  0  0  0  0  0  0  0  0  0  0
   -3.3547   19.6086  -34.0697 H   0  0  0  0  0  0  0  0  0  0  0  0
   -4.5420   22.3080  -34.0860 H   0  0  0  0  0  0  0  0  0  0  0  0
   -4.1708   21.6800  -31.1530 H   0  0  0  0  0  0  0  0  0  0  0  0
   -3.2605   22.9082  -32.1197 H   0  0  0  0  0  0  0  0  0  0  0  0
   -5.7544   23.8930  -32.4355 H   0  0  0  0  0  0  0  0  0  0  0  0
   -5.9721   23.0761  -30.8439 H   0  0  0  0  0  0  0  0  0  0  0  0
   -2.8525   23.5091  -30.2986 H   0  0  0  0  0  0  0  0  0  0  0  0
   -3.1416   25.0715  -29.3851 H   0  0  0  0  0  0  0  0  0  0  0  0
   -3.9007   23.8094  -27.7080 H   0  0  0  0  0  0  0  0  0  0  0  0
   -5.3441   23.5040  -28.7327 H   0  0  0  0  0  0  0  0  0  0  0  0
   -3.9793   22.3361  -28.7327 H   0  0  0  0  0  0  0  0  0  0  0  0
   -4.9749   26.3090  -29.6612 H   0  0  0  0  0  0  0  0  0  0  0  0
   -5.7007   26.3230  -31.3228 H   0  0  0  0  0  0  0  0  0  0  0  0
   -6.7403   25.1606  -28.7885 H   0  0  0  0  0  0  0  0  0  0  0  0
   -7.6129   25.7636  -30.2382 H   0  0  0  0  0  0  0  0  0  0  0  0
   -6.9049   24.1127  -30.2382 H   0  0  0  0  0  0  0  0  0  0  0  0
   -7.0017   22.2154  -32.3846 H   0  0  0  0  0  0  0  0  0  0  0  0
   -9.3108   21.6941  -31.6292 H   0  0  0  0  0  0  0  0  0  0  0  0
  -10.1279   19.3483  -31.6328 H   0  0  0  0  0  0  0  0  0  0  0  0
   -8.6542   17.5044  -32.4015 H   0  0  0  0  0  0  0  0  0  0  0  0
  1  2  1  0
  2  3  1  0
  3  4  1  0
  4  5  2  0
  5  6  1  0
  6  7  2  0
  7  8  1  0
  8  9  1  0
  9 10  1  0
 10 11  1  0
 11 12  1  0
 12 13  1  0
 11 14  1  0
 14 15  1  0
  7 16  1  0
 16 17  2  0
 17 18  1  0
 18 19  2  0
 19 20  1  0
 20 21  2  0
 21  4  1  0
 21 16  1  0
  1 22  1  0
  1 23  1  0
  1 24  1  0
  2 25  1  0
  2 26  1  0
  3 27  1  0
  3 28  1  0
  5 29  1  0
  6 30  1  0
  8 31  1  0
  9 32  1  0
  9 33  1  0
 10 34  1  0
 10 35  1  0
 12 36  1  0
 12 37  1  0
 13 38  1  0
 13 39  1  0
 13 40  1  0
 14 41  1  0
 14 42  1  0
 15 43  1  0
 15 44  1  0
 15 45  1  0
 17 46  1  0
 18 47  1  0
 19 48  1  0
 20 49  1  0
M  CHG  1   4   1
M  END
>  <UniqueID>  (21) 
21

>  <SMILES>  (21) 
CCC[n+]1ccc(NCCN(CC)CC)c2ccccc21

>  <Energy>  (21) 
54.56305082824479

>  <Genealogy>  (21) 
CCC[n+]1ccc(NCCN(CC)CC)c2ccccc21 (3D coordinates assigned)
CCC[n+]1ccc(NCCN(CC)CC)c2ccccc21 (optimized conformer: 54.56305082824479 kcal/mol)

>  <smiles>  (21) 
CCC[n+]1ccc(NCCN(CC)CC)c2ccccc21

>  <score_type>  (21) 
oracle

>  <origin>  (21) 
adg

>  <m_score__min__energy>  (21) 
-7.3600000000000003

>  <m_primary>  (21) 
energy

$$$$
21:0
     RDKit          3D

 39 39  0  0  0  0  0  0  0  0999 V2000
   -1.8920   21.1470  -33.4260 C   0  0  0  0  0  0  0  0  0  0  0  0
   -2.0920   21.8280  -32.0670 C   0  0  0  0  0  0  0  0  0  0  0  0
   -3.5310   21.9370  -31.6910 N   0  0  2  0  0  0  0  0  0  0  0  0
   -3.7550   21.3100  -30.3740 C   0  0  0  0  0  0  0  0  0  0  0  0
   -4.4210   21.2910  -32.6910 C   0  0  0  0  0  0  0  0  0  0  0  0
   -5.8910   21.4530  -32.3540 C   0  0  0  0  0  0  0  0  0  0  0  0
   -6.7160   20.3150  -32.4360 C   0  0  0  0  0  0  0  0  0  0  0  0
   -8.0940   20.4120  -32.2290 C   0  0  0  0  0  0  0  0  0  0  0  0
   -9.1910   18.8540  -32.3580 Br  0  0  0  0  0  0  0  0  0  0  0  0
   -8.6700   21.6490  -31.9480 C   0  0  0  0  0  0  0  0  0  0  0  0
   -7.8710   22.7880  -31.8630 C   0  0  0  0  0  0  0  0  0  0  0  0
   -6.4830   22.7090  -32.0430 C   0  0  0  0  0  0  0  0  0  0  0  0
   -5.7660   23.9110  -31.9390 O   0  0  0  0  0  0  0  0  0  0  0  0
   -6.0230   24.9380  -30.9850 C   0  0  0  0  0  0  0  0  0  0  0  0
   -4.9370   24.9230  -29.8990 C   0  0  0  0  0  0  0  0  0  0  0  0
   -3.6470   24.3990  -30.3770 N   0  0  0  0  0  0  0  0  0  0  0  0
   -2.5900   24.4940  -29.3670 C   0  0  0  0  0  0  0  0  0  0  0  0
   -1.5851   20.1021  -33.2709 H   0  0  0  0  0  0  0  0  0  0  0  0
   -2.8354   21.1721  -33.9911 H   0  0  0  0  0  0  0  0  0  0  0  0
   -1.1119   21.6782  -33.9911 H   0  0  0  0  0  0  0  0  0  0  0  0
   -1.5695   21.2407  -31.2975 H   0  0  0  0  0  0  0  0  0  0  0  0
   -1.6868   22.8480  -32.1406 H   0  0  0  0  0  0  0  0  0  0  0  0
   -3.7980   22.9440  -31.5860 H   0  0  0  0  0  0  0  0  0  0  0  0
   -3.4993   22.0258  -29.5789 H   0  0  0  0  0  0  0  0  0  0  0  0
   -4.8121   21.0206  -30.2807 H   0  0  0  0  0  0  0  0  0  0  0  0
   -3.1206   20.4163  -30.2807 H   0  0  0  0  0  0  0  0  0  0  0  0
   -4.2330   21.7449  -33.6752 H   0  0  0  0  0  0  0  0  0  0  0  0
   -4.1958   20.2143  -32.6912 H   0  0  0  0  0  0  0  0  0  0  0  0
   -6.2694   19.3364  -32.6662 H   0  0  0  0  0  0  0  0  0  0  0  0
   -9.7562   21.7269  -31.7931 H   0  0  0  0  0  0  0  0  0  0  0  0
   -8.3360   23.7622  -31.6518 H   0  0  0  0  0  0  0  0  0  0  0  0
   -6.0204   25.9150  -31.4905 H   0  0  0  0  0  0  0  0  0  0  0  0
   -7.0044   24.7640  -30.5196 H   0  0  0  0  0  0  0  0  0  0  0  0
   -4.7856   25.9522  -29.5416 H   0  0  0  0  0  0  0  0  0  0  0  0
   -5.2849   24.2546  -29.0976 H   0  0  0  0  0  0  0  0  0  0  0  0
   -3.3480   24.9210  -31.2330 H   0  0  0  0  0  0  0  0  0  0  0  0
   -3.0376   24.4538  -28.3630 H   0  0  0  0  0  0  0  0  0  0  0  0
   -1.8890   23.6552  -29.4898 H   0  0  0  0  0  0  0  0  0  0  0  0
   -2.0498   25.4443  -29.4898 H   0  0  0  0  0  0  0  0  0  0  0  0
  1  2  1  0
  2  3  1  0
  3  4  1  0
  3  5  1  0
  5  6  1  0
  6  7  2  0
  7  8  1  0
  8  9  1  0
  8 10  2  0
 10 11  1  0
 11 12  2  0
 12 13  1  0
 13 14  1  0
 14 15  1  0
 15 16  1  0
 16 17  1  0
 12  6  1  0
  1 18  1  0
  1 19  1  0
  1 20  1  0
  2 21  1  0
  2 22  1  0
  3 23  1  1
  4 24  1  0
  4 25  1  0
  4 26  1  0
  5 27  1  0
  5 28  1  0
  7 29  1  0
 10 30  1  0
 11 31  1  0
 14 32  1  0
 14 33  1  0
 15 34  1  0
 15 35  1  0
 16 36  1  0
 17 37  1  0
 17 38  1  0
 17 39  1  0
M  CHG  1   3   1
M  END
>  <UniqueID>  (22) 
22

>  <SMILES>  (22) 
CC[N@H+](C)Cc1cc(Br)ccc1OCCNC

>  <Energy>  (22) 
44.15663367596062

>  <Genealogy>  (22) 
CC[NH+](C)Cc1cc(Br)ccc1OCCNC (protonated)
CC[N@H+](C)Cc1cc(Br)ccc1OCCNC (chirality)
CC[N@H+](C)Cc1cc(Br)ccc1OCCNC (3D coordinates assigned)
CC[N@H+](C)Cc1cc(Br)ccc1OCCNC (optimized conformer: 44.15663367596062 kcal/mol)

>  <smiles>  (22) 
CCN(C)Cc1cc(Br)ccc1OCCNC

>  <score_type>  (22) 
oracle

>  <origin>  (22) 
adg

>  <m_score__min__energy>  (22) 
-5.4400000000000004

>  <m_primary>  (22) 
energy

$$$$
22:0
     RDKit          3D

 66 68  0  0  0  0  0  0  0  0999 V2000
    0.6610   28.1590  -24.0860 C   0  0  0  0  0  0  0  0  0  0  0  0
   -0.7070   28.0010  -24.7570 C   0  0  0  0  0  0  0  0  0  0  0  0
   -1.4780   26.8700  -24.2060 N   0  0  0  0  0  0  0  0  0  0  0  0
   -0.6340   25.6880  -23.9670 C   0  0  0  0  0  0  0  0  0  0  0  0
   -0.7080   24.6800  -25.1240 C   0  0  0  0  0  0  0  0  0  0  0  0
   -1.8650   24.9020  -25.9360 O   0  0  0  0  0  0  0  0  0  0  0  0
   -2.2310   24.1850  -27.0870 C   0  0  0  0  0  0  0  0  0  0  0  0
   -2.1090   22.7870  -27.1950 C   0  0  0  0  0  0  0  0  0  0  0  0
   -2.4990   22.1330  -28.3650 C   0  0  0  0  0  0  0  0  0  0  0  0
   -3.0130   22.8580  -29.4500 C   0  0  0  0  0  0  0  0  0  0  0  0
   -3.4000   22.1370  -30.7190 C   0  0  0  0  0  0  0  0  0  0  0  0
   -2.2500   22.0380  -31.6420 N   0  0  0  0  0  0  0  0  0  0  0  0
   -2.4940   21.0410  -32.7150 C   0  0  0  0  0  0  0  0  0  0  0  0
   -1.8320   19.6860  -32.4140 C   0  0  0  0  0  0  0  0  0  0  0  0
   -0.3600   19.7990  -32.2420 N   0  0  0  0  0  0  0  0  0  0  0  0
    0.3640   19.3750  -33.4570 C   0  0  0  0  0  0  0  0  0  0  0  0
    0.7720   20.5670  -34.2850 C   0  0  0  0  0  0  0  0  0  0  0  0
    2.1240   20.9270  -34.4030 C   0  0  0  0  0  0  0  0  0  0  0  0
    2.4990   22.0140  -35.1980 C   0  0  0  0  0  0  0  0  0  0  0  0
    1.5230   22.7540  -35.8940 C   0  0  0  0  0  0  0  0  0  0  0  0
    1.8480   23.8520  -36.7060 O   0  0  0  0  0  0  0  0  0  0  0  0
    1.6820   25.2120  -36.3220 C   0  0  0  0  0  0  0  0  0  0  0  0
    0.1770   22.3890  -35.7770 C   0  0  0  0  0  0  0  0  0  0  0  0
   -0.1980   21.3020  -34.9820 C   0  0  0  0  0  0  0  0  0  0  0  0
    0.0740   21.1470  -31.7950 C   0  0  0  0  0  0  0  0  0  0  0  0
   -0.9830   21.8050  -30.9040 C   0  0  0  0  0  0  0  0  0  0  0  0
   -3.1190   24.2600  -29.3640 C   0  0  0  0  0  0  0  0  0  0  0  0
   -3.6100   24.9720  -30.4710 O   0  0  0  0  0  0  0  0  0  0  0  0
   -4.9900   25.1830  -30.7510 C   0  0  0  0  0  0  0  0  0  0  0  0
   -2.7300   24.9090  -28.1750 C   0  0  0  0  0  0  0  0  0  0  0  0
    0.5372   28.1447  -22.9931 H   0  0  0  0  0  0  0  0  0  0  0  0
    1.3171   27.3307  -24.3915 H   0  0  0  0  0  0  0  0  0  0  0  0
    1.1110   29.1151  -24.3915 H   0  0  0  0  0  0  0  0  0  0  0  0
   -1.2824   28.9265  -24.6077 H   0  0  0  0  0  0  0  0  0  0  0  0
   -0.5350   27.8003  -25.8248 H   0  0  0  0  0  0  0  0  0  0  0  0
   -1.9530   27.1620  -23.3210 H   0  0  0  0  0  0  0  0  0  0  0  0
   -2.2090   26.6210  -24.9100 H   0  0  0  0  0  0  0  0  0  0  0  0
    0.4094   26.0156  -23.8485 H   0  0  0  0  0  0  0  0  0  0  0  0
   -1.0016   25.1880  -23.0588 H   0  0  0  0  0  0  0  0  0  0  0  0
    0.1922   24.7840  -25.7475 H   0  0  0  0  0  0  0  0  0  0  0  0
   -0.7727   23.6679  -24.6981 H   0  0  0  0  0  0  0  0  0  0  0  0
   -1.7041   22.2066  -26.3529 H   0  0  0  0  0  0  0  0  0  0  0  0
   -2.4023   21.0396  -28.4366 H   0  0  0  0  0  0  0  0  0  0  0  0
   -3.7469   21.1242  -30.4661 H   0  0  0  0  0  0  0  0  0  0  0  0
   -4.2006   22.7050  -31.2153 H   0  0  0  0  0  0  0  0  0  0  0  0
   -3.5787   20.8898  -32.8174 H   0  0  0  0  0  0  0  0  0  0  0  0
   -2.0535   21.4318  -33.6441 H   0  0  0  0  0  0  0  0  0  0  0  0
   -2.2654   19.2792  -31.4884 H   0  0  0  0  0  0  0  0  0  0  0  0
   -2.0190   19.0239  -33.2723 H   0  0  0  0  0  0  0  0  0  0  0  0
    1.2645   18.8159  -33.1627 H   0  0  0  0  0  0  0  0  0  0  0  0
   -0.3029   18.7408  -34.0596 H   0  0  0  0  0  0  0  0  0  0  0  0
    2.8923   20.3505  -33.8669 H   0  0  0  0  0  0  0  0  0  0  0  0
    3.5600   22.2925  -35.2804 H   0  0  0  0  0  0  0  0  0  0  0  0
    1.6731   25.2846  -35.2244 H   0  0  0  0  0  0  0  0  0  0  0  0
    2.5138   25.8102  -36.7223 H   0  0  0  0  0  0  0  0  0  0  0  0
    0.7307   25.5926  -36.7223 H   0  0  0  0  0  0  0  0  0  0  0  0
   -0.5923   22.9622  -36.3151 H   0  0  0  0  0  0  0  0  0  0  0  0
   -1.2588   21.0219  -34.9027 H   0  0  0  0  0  0  0  0  0  0  0  0
    1.0117   21.0517  -31.2279 H   0  0  0  0  0  0  0  0  0  0  0  0
    0.2194   21.7775  -32.6846 H   0  0  0  0  0  0  0  0  0  0  0  0
   -1.1855   21.1481  -30.0452 H   0  0  0  0  0  0  0  0  0  0  0  0
   -0.5947   22.7785  -30.5702 H   0  0  0  0  0  0  0  0  0  0  0  0
   -5.5470   25.2682  -29.8063 H   0  0  0  0  0  0  0  0  0  0  0  0
   -5.1088   26.1098  -31.3315 H   0  0  0  0  0  0  0  0  0  0  0  0
   -5.3803   24.3341  -31.3315 H   0  0  0  0  0  0  0  0  0  0  0  0
   -2.8202   26.0028  -28.1013 H   0  0  0  0  0  0  0  0  0  0  0  0
  1  2  1  0
  2  3  1  0
  3  4  1  0
  4  5  1  0
  5  6  1  0
  6  7  1  0
  7  8  2  0
  8  9  1  0
  9 10  2  0
 10 11  1  0
 11 12  1  0
 12 13  1  0
 13 14  1  0
 14 15  1  0
 15 16  1  0
 16 17  1  0
 17 18  2  0
 18 19  1  0
 19 20  2  0
 20 21  1  0
 21 22  1  0
 20 23  1  0
 23 24  2  0
 15 25  1  0
 25 26  1  0
 10 27  1  0
 27 28  1  0
 28 29  1  0
 27 30  2  0
 30  7  1  0
 26 12  1  0
 24 17  1  0
  1 31  1  0
  1 32  1  0
  1 33  1  0
  2 34  1  0
  2 35  1  0
  3 36  1  0
  3 37  1  0
  4 38  1  0
  4 39  1  0
  5 40  1  0
  5 41  1  0
  8 42  1  0
  9 43  1  0
 11 44  1  0
 11 45  1  0
 13 46  1  0
 13 47  1  0
 14 48  1  0
 14 49  1  0
 16 50  1  0
 16 51  1  0
 18 52  1  0
 19 53  1  0
 22 54  1  0
 22 55  1  0
 22 56  1  0
 23 57  1  0
 24 58  1  0
 25 59  1  0
 25 60  1  0
 26 61  1  0
 26 62  1  0
 29 63  1  0
 29 64  1  0
 29 65  1  0
 30 66  1  0
M  CHG  1   3   1
M  END
>  <UniqueID>  (23) 
23

>  <SMILES>  (23) 
CC[NH2+]CCOc1ccc(CN2CCN(Cc3ccc(OC)cc3)CC2)c(OC)c1

>  <Energy>  (23) 
76.87800843407749

>  <Genealogy>  (23) 
CC[NH2+]CCOc1ccc(CN2CCN(Cc3ccc(OC)cc3)CC2)c(OC)c1 (protonated)
CC[NH2+]CCOc1ccc(CN2CCN(Cc3ccc(OC)cc3)CC2)c(OC)c1 (3D coordinates assigned)
CC[NH2+]CCOc1ccc(CN2CCN(Cc3ccc(OC)cc3)CC2)c(OC)c1 (nonaromatic ring conformer: 76.87800843407749 kcal/mol)

>  <smiles>  (23) 
CCNCCOc1ccc(CN2CCN(Cc3ccc(OC)cc3)CC2)c(OC)c1

>  <score_type>  (23) 
oracle

>  <origin>  (23) 
adg

>  <m_score__min__energy>  (23) 
-8.6099999999999994

>  <m_primary>  (23) 
energy

$$$$
23:0
     RDKit          3D

 62 65  0  0  0  0  0  0  0  0999 V2000
   -9.1090   18.5340  -31.9700 C   0  0  0  0  0  0  0  0  0  0  0  0
   -7.6650   18.8790  -31.5830 C   0  0  0  0  0  0  0  0  0  0  0  0
   -7.3330   20.3110  -31.8190 N   0  0  0  0  0  0  0  0  0  0  0  0
   -8.5640   21.1440  -31.7810 C   0  0  0  0  0  0  0  0  0  0  0  0
   -8.2680   22.6480  -31.6730 C   0  0  0  0  0  0  0  0  0  0  0  0
   -6.6430   20.4630  -33.1310 C   0  0  0  0  0  0  0  0  0  0  0  0
   -5.2100   19.9730  -33.1020 C   0  0  0  0  0  0  0  0  0  0  0  0
   -4.6470   19.0040  -33.9300 C   0  0  0  0  0  0  0  0  0  0  0  0
   -5.3630   18.1280  -34.9170 C   0  0  0  0  0  0  0  0  0  0  0  0
   -6.1970   17.2430  -34.2640 F   0  0  0  0  0  0  0  0  0  0  0  0
   -4.4380   17.4210  -35.6610 F   0  0  0  0  0  0  0  0  0  0  0  0
   -6.1240   18.9040  -35.7730 F   0  0  0  0  0  0  0  0  0  0  0  0
   -3.3330   18.8670  -33.6460 N   0  0  0  0  0  0  0  0  0  0  0  0
   -3.1200   19.7510  -32.6460 C   0  0  0  0  0  0  0  0  0  0  0  0
   -1.9150   19.9590  -32.0310 N   0  0  0  0  0  0  0  0  0  0  0  0
   -0.7110   19.2600  -32.5350 C   0  0  0  0  0  0  0  0  0  0  0  0
    0.0320   20.1150  -33.5310 C   0  0  0  0  0  0  0  0  0  0  0  0
    1.4090   19.9310  -33.7440 C   0  0  0  0  0  0  0  0  0  0  0  0
    2.0900   20.7240  -34.6720 C   0  0  0  0  0  0  0  0  0  0  0  0
    1.4020   21.6990  -35.3990 C   0  0  0  0  0  0  0  0  0  0  0  0
    2.0630   22.4640  -36.3020 F   0  0  0  0  0  0  0  0  0  0  0  0
    0.0300   21.8810  -35.2010 C   0  0  0  0  0  0  0  0  0  0  0  0
   -0.6540   21.0890  -34.2740 C   0  0  0  0  0  0  0  0  0  0  0  0
   -1.8570   20.8620  -30.9800 C   0  0  0  0  0  0  0  0  0  0  0  0
   -0.5530   21.1270  -30.2480 C   0  0  0  0  0  0  0  0  0  0  0  0
   -3.0300   21.5820  -30.5980 C   0  0  0  0  0  0  0  0  0  0  0  0
   -3.0030   22.6270  -29.5460 C   0  0  0  0  0  0  0  0  0  0  0  0
   -2.1530   23.7370  -29.6710 C   0  0  0  0  0  0  0  0  0  0  0  0
   -2.1200   24.7130  -28.6700 C   0  0  0  0  0  0  0  0  0  0  0  0
   -2.9320   24.5840  -27.5390 C   0  0  0  0  0  0  0  0  0  0  0  0
   -3.7770   23.4780  -27.4060 C   0  0  0  0  0  0  0  0  0  0  0  0
   -3.8120   22.5000  -28.4040 C   0  0  0  0  0  0  0  0  0  0  0  0
   -4.2380   21.3110  -31.2630 C   0  0  0  0  0  0  0  0  0  0  0  0
   -5.3040   21.8860  -30.9110 O   0  0  0  0  0  0  0  0  0  0  0  0
   -4.2290   20.4170  -32.2830 N   0  0  0  0  0  0  0  0  0  0  0  0
   -9.7085   18.3908  -31.0589 H   0  0  0  0  0  0  0  0  0  0  0  0
   -9.5356   19.3555  -32.5643 H   0  0  0  0  0  0  0  0  0  0  0  0
   -9.1182   17.6084  -32.5643 H   0  0  0  0  0  0  0  0  0  0  0  0
   -7.5243   18.6566  -30.5149 H   0  0  0  0  0  0  0  0  0  0  0  0
   -6.9982   18.2749  -32.2158 H   0  0  0  0  0  0  0  0  0  0  0  0
   -6.6980   20.6430  -31.0580 H   0  0  0  0  0  0  0  0  0  0  0  0
   -9.1371   20.9648  -32.7027 H   0  0  0  0  0  0  0  0  0  0  0  0
   -9.1296   20.8546  -30.8830 H   0  0  0  0  0  0  0  0  0  0  0  0
   -8.2114   22.9354  -30.6127 H   0  0  0  0  0  0  0  0  0  0  0  0
   -7.3091   22.8692  -32.1645 H   0  0  0  0  0  0  0  0  0  0  0  0
   -9.0716   23.2161  -32.1645 H   0  0  0  0  0  0  0  0  0  0  0  0
   -7.1960   19.8869  -33.8875 H   0  0  0  0  0  0  0  0  0  0  0  0
   -6.6207   21.5364  -33.3706 H   0  0  0  0  0  0  0  0  0  0  0  0
   -0.0460   19.0330  -31.6887 H   0  0  0  0  0  0  0  0  0  0  0  0
   -1.0273   18.3329  -33.0354 H   0  0  0  0  0  0  0  0  0  0  0  0
    1.9528   19.1601  -33.1783 H   0  0  0  0  0  0  0  0  0  0  0  0
    3.1690   20.5803  -34.8302 H   0  0  0  0  0  0  0  0  0  0  0  0
   -0.5114   22.6476  -35.7748 H   0  0  0  0  0  0  0  0  0  0  0  0
   -1.7349   21.2296  -34.1260 H   0  0  0  0  0  0  0  0  0  0  0  0
   -0.7280   21.0914  -29.1626 H   0  0  0  0  0  0  0  0  0  0  0  0
    0.1856   20.3606  -30.5256 H   0  0  0  0  0  0  0  0  0  0  0  0
   -0.1721   22.1209  -30.5256 H   0  0  0  0  0  0  0  0  0  0  0  0
   -1.5113   23.8394  -30.5585 H   0  0  0  0  0  0  0  0  0  0  0  0
   -1.4547   25.5830  -28.7725 H   0  0  0  0  0  0  0  0  0  0  0  0
   -2.9060   25.3533  -26.7532 H   0  0  0  0  0  0  0  0  0  0  0  0
   -4.4147   23.3775  -26.5153 H   0  0  0  0  0  0  0  0  0  0  0  0
   -4.4745   21.6287  -28.2952 H   0  0  0  0  0  0  0  0  0  0  0  0
  1  2  1  0
  2  3  1  0
  3  4  1  0
  4  5  1  0
  3  6  1  0
  6  7  1  0
  7  8  2  0
  8  9  1  0
  9 10  1  0
  9 11  1  0
  9 12  1  0
  8 13  1  0
 13 14  2  0
 14 15  1  0
 15 16  1  0
 16 17  1  0
 17 18  2  0
 18 19  1  0
 19 20  2  0
 20 21  1  0
 20 22  1  0
 22 23  2  0
 15 24  1  0
 24 25  1  0
 24 26  2  0
 26 27  1  0
 27 28  2  0
 28 29  1  0
 29 30  2  0
 30 31  1  0
 31 32  2  0
 26 33  1  0
 33 34  2  0
 33 35  1  0
 35  7  1  0
 35 14  1  0
 23 17  1  0
 32 27  1  0
  1 36  1  0
  1 37  1  0
  1 38  1  0
  2 39  1  0
  2 40  1  0
  3 41  1  0
  4 42  1  0
  4 43  1  0
  5 44  1  0
  5 45  1  0
  5 46  1  0
  6 47  1  0
  6 48  1  0
 16 49  1  0
 16 50  1  0
 18 51  1  0
 19 52  1  0
 22 53  1  0
 23 54  1  0
 25 55  1  0
 25 56  1  0
 25 57  1  0
 28 58  1  0
 29 59  1  0
 30 60  1  0
 31 61  1  0
 32 62  1  0
M  CHG  1   3   1
M  END
>  <UniqueID>  (24) 
24

>  <SMILES>  (24) 
CC[NH+](CC)Cc1c(C(F)(F)F)nc2n(Cc3ccc(F)cc3)c(C)c(-c3ccccc3)c(=O)n12

>  <Energy>  (24) 
116.91570794159578

>  <Genealogy>  (24) 
CC[NH+](CC)Cc1c(C(F)(F)F)nc2n(Cc3ccc(F)cc3)c(C)c(-c3ccccc3)c(=O)n12 (protonated)
CC[NH+](CC)Cc1c(C(F)(F)F)nc2n(Cc3ccc(F)cc3)c(C)c(-c3ccccc3)c(=O)n12 (3D coordinates assigned)
CC[NH+](CC)Cc1c(C(F)(F)F)nc2n(Cc3ccc(F)cc3)c(C)c(-c3ccccc3)c(=O)n12 (optimized conformer: 116.91570794159578 kcal/mol)

>  <smiles>  (24) 
CCN(CC)Cc1c(C(F)(F)F)nc2n(Cc3ccc(F)cc3)c(C)c(-c3ccccc3)c(=O)n12

>  <score_type>  (24) 
oracle

>  <origin>  (24) 
adg

>  <m_score__min__energy>  (24) 
-7.3600000000000003

>  <m_primary>  (24) 
energy

$$$$
24:0
     RDKit          3D

 33 35  0  0  0  0  0  0  0  0999 V2000
   -1.0250   21.1620  -33.6060 C   0  0  0  0  0  0  0  0  0  0  0  0
   -2.4830   20.9520  -33.4960 N   0  0  0  0  0  0  0  0  0  0  0  0
   -2.9800   21.3750  -32.1510 C   0  0  0  0  0  0  0  0  0  0  0  0
   -4.0790   20.4630  -31.5680 C   0  0  0  0  0  0  0  0  0  0  0  0
   -4.9370   19.9330  -32.6320 N   0  0  0  0  0  0  0  0  0  0  0  0
   -6.3430   19.7540  -32.3920 C   0  0  0  0  0  0  0  0  0  0  0  0
   -6.9030   18.4570  -32.2920 C   0  0  0  0  0  0  0  0  0  0  0  0
   -5.9030   17.0220  -32.5160 Cl  0  0  0  0  0  0  0  0  0  0  0  0
   -8.2780   18.2960  -32.0290 C   0  0  0  0  0  0  0  0  0  0  0  0
   -9.1090   19.4170  -31.8680 C   0  0  0  0  0  0  0  0  0  0  0  0
   -8.5400   20.6830  -31.9790 C   0  0  0  0  0  0  0  0  0  0  0  0
   -9.2880   22.1760  -31.8020 S   0  0  0  0  0  0  0  0  0  0  0  0
   -7.8820   23.0860  -32.0410 C   0  0  0  0  0  0  0  0  0  0  0  0
   -6.8110   22.2200  -32.2600 C   0  0  0  0  0  0  0  0  0  0  0  0
   -7.1870   20.8670  -32.2270 C   0  0  0  0  0  0  0  0  0  0  0  0
   -4.3380   19.3590  -33.8420 C   0  0  0  0  0  0  0  0  0  0  0  0
   -2.8170   19.5500  -33.8320 C   0  0  0  0  0  0  0  0  0  0  0  0
   -0.5866   21.2251  -32.5991 H   0  0  0  0  0  0  0  0  0  0  0  0
   -0.5733   20.3197  -34.1504 H   0  0  0  0  0  0  0  0  0  0  0  0
   -0.8293   22.0976  -34.1504 H   0  0  0  0  0  0  0  0  0  0  0  0
   -2.9320   21.5720  -34.2220 H   0  0  0  0  0  0  0  0  0  0  0  0
   -2.1289   21.3786  -31.4541 H   0  0  0  0  0  0  0  0  0  0  0  0
   -3.4300   22.3706  -32.2788 H   0  0  0  0  0  0  0  0  0  0  0  0
   -3.6064   19.6247  -31.0352 H   0  0  0  0  0  0  0  0  0  0  0  0
   -4.6987   21.0554  -30.8788 H   0  0  0  0  0  0  0  0  0  0  0  0
   -8.7038   17.2849  -31.9492 H   0  0  0  0  0  0  0  0  0  0  0  0
  -10.1824   19.2977  -31.6594 H   0  0  0  0  0  0  0  0  0  0  0  0
   -7.8222   24.1843  -32.0261 H   0  0  0  0  0  0  0  0  0  0  0  0
   -5.7806   22.5605  -32.4396 H   0  0  0  0  0  0  0  0  0  0  0  0
   -4.5674   18.2840  -33.8842 H   0  0  0  0  0  0  0  0  0  0  0  0
   -4.7546   19.8711  -34.7219 H   0  0  0  0  0  0  0  0  0  0  0  0
   -2.3710   18.8800  -33.0822 H   0  0  0  0  0  0  0  0  0  0  0  0
   -2.4178   19.3138  -34.8294 H   0  0  0  0  0  0  0  0  0  0  0  0
  1  2  1  0
  2  3  1  0
  3  4  1  0
  4  5  1  0
  5  6  1  0
  6  7  2  0
  7  8  1  0
  7  9  1  0
  9 10  2  0
 10 11  1  0
 11 12  1  0
 12 13  1  0
 13 14  2  0
 14 15  1  0
  5 16  1  0
 16 17  1  0
 17  2  1  0
 15  6  1  0
 15 11  2  0
  1 18  1  0
  1 19  1  0
  1 20  1  0
  2 21  1  0
  3 22  1  0
  3 23  1  0
  4 24  1  0
  4 25  1  0
  9 26  1  0
 10 27  1  0
 13 28  1  0
 14 29  1  0
 16 30  1  0
 16 31  1  0
 17 32  1  0
 17 33  1  0
M  CHG  1   2   1
M  END
>  <UniqueID>  (25) 
25

>  <SMILES>  (25) 
C[NH+]1CCN(c2c(Cl)ccc3sccc23)CC1

>  <Energy>  (25) 
76.15492287537951

>  <Genealogy>  (25) 
C[NH+]1CCN(c2c(Cl)ccc3sccc23)CC1 (protonated)
C[NH+]1CCN(c2c(Cl)ccc3sccc23)CC1 (3D coordinates assigned)
C[NH+]1CCN(c2c(Cl)ccc3sccc23)CC1 (nonaromatic ring conformer: 76.15492287537951 kcal/mol)

>  <smiles>  (25) 
CN1CCN(c2c(Cl)ccc3sccc23)CC1

>  <score_type>  (25) 
oracle

>  <origin>  (25) 
adg

>  <m_score__min__energy>  (25) 
-6.75

>  <m_primary>  (25) 
energy

$$$$
25:0
     RDKit          3D

 56 60  0  0  0  0  0  0  0  0999 V2000
   -7.1130   24.0290  -30.3870 C   0  0  0  0  0  0  0  0  0  0  0  0
   -6.6560   22.6870  -30.8020 N   0  0  0  0  0  0  0  0  0  0  0  0
   -5.3290   22.3350  -30.6710 C   0  0  0  0  0  0  0  0  0  0  0  0
   -4.8070   21.2230  -31.3800 C   0  0  0  0  0  0  0  0  0  0  0  0
   -5.6910   20.3620  -32.0520 C   0  0  0  0  0  0  0  0  0  0  0  0
   -5.1890   19.1900  -32.7160 N   0  0  0  0  0  0  0  0  0  0  0  0
   -5.2830   19.0320  -34.1660 C   0  0  0  0  0  0  0  0  0  0  0  0
   -4.6980   17.6700  -34.5870 C   0  0  0  0  0  0  0  0  0  0  0  0
   -5.4000   16.4940  -34.0180 N   0  0  0  0  0  0  0  0  0  0  0  0
   -6.8400   16.7350  -33.8190 C   0  0  0  0  0  0  0  0  0  0  0  0
   -4.7720   16.0030  -32.7780 C   0  0  0  0  0  0  0  0  0  0  0  0
   -7.0700   20.6460  -32.0550 C   0  0  0  0  0  0  0  0  0  0  0  0
   -7.9860   19.7840  -32.6950 C   0  0  0  0  0  0  0  0  0  0  0  0
   -9.3530   20.0500  -32.6660 C   0  0  0  0  0  0  0  0  0  0  0  0
   -9.8320   21.1680  -31.9940 C   0  0  0  0  0  0  0  0  0  0  0  0
   -8.9460   22.0410  -31.3640 C   0  0  0  0  0  0  0  0  0  0  0  0
   -7.5460   21.8130  -31.3980 C   0  0  0  0  0  0  0  0  0  0  0  0
   -3.3030   20.9230  -31.3500 C   0  0  0  0  0  0  0  0  0  0  0  0
   -2.4300   22.1820  -31.1830 C   0  0  0  0  0  0  0  0  0  0  0  0
   -3.0020   23.0260  -30.0940 C   0  0  0  0  0  0  0  0  0  0  0  0
   -4.3580   23.1120  -29.8570 C   0  0  0  0  0  0  0  0  0  0  0  0
   -4.6010   23.7970  -28.7110 N   0  0  0  0  0  0  0  0  0  0  0  0
   -3.3900   24.1830  -28.2630 C   0  0  0  0  0  0  0  0  0  0  0  0
   -3.1110   24.8950  -27.0970 C   0  0  0  0  0  0  0  0  0  0  0  0
   -1.7630   25.1520  -26.7890 C   0  0  0  0  0  0  0  0  0  0  0  0
   -0.7320   24.6830  -27.6360 C   0  0  0  0  0  0  0  0  0  0  0  0
   -1.0400   23.9540  -28.7980 C   0  0  0  0  0  0  0  0  0  0  0  0
   -2.3860   23.7300  -29.0840 C   0  0  0  0  0  0  0  0  0  0  0  0
   -7.1325   24.0863  -29.2887 H   0  0  0  0  0  0  0  0  0  0  0  0
   -6.4232   24.7895  -30.7816 H   0  0  0  0  0  0  0  0  0  0  0  0
   -8.1236   24.2105  -30.7816 H   0  0  0  0  0  0  0  0  0  0  0  0
   -4.5430   18.5580  -32.1920 H   0  0  0  0  0  0  0  0  0  0  0  0
   -6.3387   19.0847  -34.4705 H   0  0  0  0  0  0  0  0  0  0  0  0
   -4.7131   19.8362  -34.6544 H   0  0  0  0  0  0  0  0  0  0  0  0
   -4.7456   17.6004  -35.6838 H   0  0  0  0  0  0  0  0  0  0  0  0
   -3.6700   17.6383  -34.1968 H   0  0  0  0  0  0  0  0  0  0  0  0
   -5.3150   15.7250  -34.7260 H   0  0  0  0  0  0  0  0  0  0  0  0
   -7.0602   16.7719  -32.7419 H   0  0  0  0  0  0  0  0  0  0  0  0
   -7.1191   17.6924  -34.2833 H   0  0  0  0  0  0  0  0  0  0  0  0
   -7.4156   15.9207  -34.2833 H   0  0  0  0  0  0  0  0  0  0  0  0
   -5.3030   16.4182  -31.9087 H   0  0  0  0  0  0  0  0  0  0  0  0
   -4.8254   14.9047  -32.7500 H   0  0  0  0  0  0  0  0  0  0  0  0
   -3.7190   16.3198  -32.7500 H   0  0  0  0  0  0  0  0  0  0  0  0
   -7.6164   18.8923  -33.2225 H   0  0  0  0  0  0  0  0  0  0  0  0
  -10.0547   19.3737  -33.1761 H   0  0  0  0  0  0  0  0  0  0  0  0
  -10.9137   21.3649  -31.9590 H   0  0  0  0  0  0  0  0  0  0  0  0
   -9.3385   22.9203  -30.8323 H   0  0  0  0  0  0  0  0  0  0  0  0
   -3.0998   20.2439  -30.5088 H   0  0  0  0  0  0  0  0  0  0  0  0
   -3.0425   20.4740  -32.3198 H   0  0  0  0  0  0  0  0  0  0  0  0
   -1.4032   21.8872  -30.9209 H   0  0  0  0  0  0  0  0  0  0  0  0
   -2.4120   22.7505  -32.1245 H   0  0  0  0  0  0  0  0  0  0  0  0
   -5.5130   23.9340  -28.2240 H   0  0  0  0  0  0  0  0  0  0  0  0
   -3.9199   25.2447  -26.4387 H   0  0  0  0  0  0  0  0  0  0  0  0
   -1.5088   25.7217  -25.8830 H   0  0  0  0  0  0  0  0  0  0  0  0
    0.3185   24.8901  -27.3838 H   0  0  0  0  0  0  0  0  0  0  0  0
   -0.2468   23.5737  -29.4584 H   0  0  0  0  0  0  0  0  0  0  0  0
  1  2  1  0
  2  3  2  0
  3  4  1  0
  4  5  2  0
  5  6  1  0
  6  7  1  0
  7  8  1  0
  8  9  1  0
  9 10  1  0
  9 11  1  0
  5 12  1  0
 12 13  2  0
 13 14  1  0
 14 15  2  0
 15 16  1  0
 16 17  2  0
  4 18  1  0
 18 19  1  0
 19 20  1  0
 20 21  2  0
 21 22  1  0
 22 23  1  0
 23 24  2  0
 24 25  1  0
 25 26  2  0
 26 27  1  0
 27 28  2  0
 17  2  1  0
 28 20  1  0
 21  3  1  0
 28 23  1  0
 17 12  1  0
  1 29  1  0
  1 30  1  0
  1 31  1  0
  6 32  1  0
  7 33  1  0
  7 34  1  0
  8 35  1  0
  8 36  1  0
  9 37  1  0
 10 38  1  0
 10 39  1  0
 10 40  1  0
 11 41  1  0
 11 42  1  0
 11 43  1  0
 13 44  1  0
 14 45  1  0
 15 46  1  0
 16 47  1  0
 18 48  1  0
 18 49  1  0
 19 50  1  0
 19 51  1  0
 22 52  1  0
 24 53  1  0
 25 54  1  0
 26 55  1  0
 27 56  1  0
M  CHG  2   2   1   9   1
M  END
>  <UniqueID>  (26) 
26

>  <SMILES>  (26) 
C[n+]1c2c(c(NCC[NH+](C)C)c3ccccc31)CCc1c-2[nH]c2ccccc12

>  <Energy>  (26) 
124.6341376321204

>  <Genealogy>  (26) 
C[n+]1c2c(c(NCC[NH+](C)C)c3ccccc31)CCc1c-2[nH]c2ccccc12 (protonated)
C[n+]1c2c(c(NCC[NH+](C)C)c3ccccc31)CCc1c-2[nH]c2ccccc12 (3D coordinates assigned)
C[n+]1c2c(c(NCC[NH+](C)C)c3ccccc31)CCc1c-2[nH]c2ccccc12 (nonaromatic ring conformer: 124.6341376321204 kcal/mol)

>  <smiles>  (26) 
CN(C)CCNc1c2c([n+](C)c3ccccc13)-c1[nH]c3ccccc3c1CC2

>  <score_type>  (26) 
oracle

>  <origin>  (26) 
adg

>  <m_score__min__energy>  (26) 
-7.8499999999999996

>  <m_primary>  (26) 
energy

$$$$
26:0
     RDKit          3D

 40 41  0  0  0  0  0  0  0  0999 V2000
   -3.0280   24.5370  -27.3490 C   0  0  0  0  0  0  0  0  0  0  0  0
   -2.2290   24.9730  -28.5730 C   0  0  0  0  0  0  0  0  0  0  0  0
   -3.1010   25.2820  -29.6620 O   0  0  0  0  0  0  0  0  0  0  0  0
   -4.2710   24.5810  -29.9960 C   0  0  0  0  0  0  0  0  0  0  0  0
   -5.5570   25.1480  -29.8960 C   0  0  0  0  0  0  0  0  0  0  0  0
   -6.6860   24.4000  -30.2440 C   0  0  0  0  0  0  0  0  0  0  0  0
   -6.5490   23.0800  -30.6890 C   0  0  0  0  0  0  0  0  0  0  0  0
   -7.9800   22.1630  -31.1530 S   0  0  0  0  0  0  0  0  0  0  0  0
   -8.7190   22.9350  -32.2110 O   0  0  0  0  0  0  0  0  0  0  0  0
   -8.8860   21.9870  -29.9660 O   0  0  0  0  0  0  0  0  0  0  0  0
   -7.5130   20.6010  -31.7820 N   0  0  0  0  0  0  0  0  0  0  0  0
   -8.7240   19.7850  -32.0110 C   0  0  0  0  0  0  0  0  0  0  0  0
   -8.4290   18.3790  -32.5660 C   0  0  0  0  0  0  0  0  0  0  0  0
   -7.0210   17.8530  -32.2380 C   0  0  0  0  0  0  0  0  0  0  0  0
   -5.8960   18.3130  -33.1930 C   0  0  0  0  0  0  0  0  0  0  0  0
   -5.4980   19.7940  -33.0440 C   0  0  0  0  0  0  0  0  0  0  0  0
   -6.7000   20.7720  -33.0050 C   0  0  0  0  0  0  0  0  0  0  0  0
   -5.2710   22.5140  -30.7920 C   0  0  0  0  0  0  0  0  0  0  0  0
   -4.1430   23.2610  -30.4440 C   0  0  0  0  0  0  0  0  0  0  0  0
   -2.4895   24.8308  -26.4359 H   0  0  0  0  0  0  0  0  0  0  0  0
   -4.0155   25.0213  -27.3642 H   0  0  0  0  0  0  0  0  0  0  0  0
   -3.1551   23.4445  -27.3642 H   0  0  0  0  0  0  0  0  0  0  0  0
   -1.6381   25.8654  -28.3193 H   0  0  0  0  0  0  0  0  0  0  0  0
   -1.5657   24.1488  -28.8742 H   0  0  0  0  0  0  0  0  0  0  0  0
   -5.6733   26.1832  -29.5428 H   0  0  0  0  0  0  0  0  0  0  0  0
   -7.6864   24.8510  -30.1677 H   0  0  0  0  0  0  0  0  0  0  0  0
   -9.2550   19.6759  -31.0539 H   0  0  0  0  0  0  0  0  0  0  0  0
   -9.3256   20.3091  -32.7682 H   0  0  0  0  0  0  0  0  0  0  0  0
   -9.1654   17.6799  -32.1430 H   0  0  0  0  0  0  0  0  0  0  0  0
   -8.4910   18.4528  -33.6618 H   0  0  0  0  0  0  0  0  0  0  0  0
   -6.7620   18.1896  -31.2233 H   0  0  0  0  0  0  0  0  0  0  0  0
   -7.0765   16.7595  -32.3437 H   0  0  0  0  0  0  0  0  0  0  0  0
   -5.0061   17.6966  -32.9978 H   0  0  0  0  0  0  0  0  0  0  0  0
   -6.2850   18.1946  -34.2151 H   0  0  0  0  0  0  0  0  0  0  0  0
   -4.9306   19.9067  -32.1084 H   0  0  0  0  0  0  0  0  0  0  0  0
   -4.9063   20.0543  -33.9340 H   0  0  0  0  0  0  0  0  0  0  0  0
   -6.3198   21.8037  -33.0374 H   0  0  0  0  0  0  0  0  0  0  0  0
   -7.3414   20.5572  -33.8725 H   0  0  0  0  0  0  0  0  0  0  0  0
   -5.1559   21.4794  -31.1476 H   0  0  0  0  0  0  0  0  0  0  0  0
   -3.1440   22.8073  -30.5228 H   0  0  0  0  0  0  0  0  0  0  0  0
  1  2  1  0
  2  3  1  0
  3  4  1  0
  4  5  2  0
  5  6  1  0
  6  7  2  0
  7  8  1  0
  8  9  2  0
  8 10  2  0
  8 11  1  0
 11 12  1  0
 12 13  1  0
 13 14  1  0
 14 15  1  0
 15 16  1  0
 16 17  1  0
  7 18  1  0
 18 19  2  0
 19  4  1  0
 17 11  1  0
  1 20  1  0
  1 21  1  0
  1 22  1  0
  2 23  1  0
  2 24  1  0
  5 25  1  0
  6 26  1  0
 12 27  1  0
 12 28  1  0
 13 29  1  0
 13 30  1  0
 14 31  1  0
 14 32  1  0
 15 33  1  0
 15 34  1  0
 16 35  1  0
 16 36  1  0
 17 37  1  0
 17 38  1  0
 18 39  1  0
 19 40  1  0
M  END
>  <UniqueID>  (27) 
27

>  <SMILES>  (27) 
CCOc1ccc(S(=O)(=O)N2CCCCCC2)cc1

>  <Energy>  (27) 
43.85333980893045

>  <Genealogy>  (27) 
CCOc1ccc(S(=O)(=O)N2CCCCCC2)cc1 (3D coordinates assigned)
CCOc1ccc(S(=O)(=O)N2CCCCCC2)cc1 (nonaromatic ring conformer: 43.85333980893045 kcal/mol)

>  <smiles>  (27) 
CCOc1ccc(S(=O)(=O)N2CCCCCC2)cc1

>  <score_type>  (27) 
oracle

>  <origin>  (27) 
adg

>  <m_score__min__energy>  (27) 
-6.4500000000000002

>  <m_primary>  (27) 
energy

$$$$
27:0
     RDKit          3D

 52 54  0  0  0  0  0  0  0  0999 V2000
   -3.4390   22.2690  -27.9870 C   0  0  0  0  0  0  0  0  0  0  0  0
   -2.7160   21.2830  -28.9160 C   0  0  0  0  0  0  0  0  0  0  0  0
   -1.3500   21.7380  -29.2850 N   0  0  2  0  0  0  0  0  0  0  0  0
   -1.3840   23.1850  -29.5780 C   0  0  0  0  0  0  0  0  0  0  0  0
   -0.8360   20.9750  -30.4530 C   0  0  0  0  0  0  0  0  0  0  0  0
   -1.2970   21.5530  -31.8150 C   0  0  0  0  0  0  0  0  0  0  0  0
   -2.1620   20.5730  -32.6240 C   0  0  0  0  0  0  0  0  0  0  0  0
   -3.2740   21.2580  -33.2800 N   0  0  0  0  0  0  0  0  0  0  0  0
   -4.5990   21.1750  -32.7340 C   0  0  0  0  0  0  0  0  0  0  0  0
   -5.4070   20.0630  -33.0170 C   0  0  0  0  0  0  0  0  0  0  0  0
   -4.9170   18.9970  -33.8010 C   0  0  0  0  0  0  0  0  0  0  0  0
   -5.7010   17.8720  -34.0400 C   0  0  0  0  0  0  0  0  0  0  0  0
   -6.9780   17.7850  -33.4960 C   0  0  0  0  0  0  0  0  0  0  0  0
   -7.4900   18.8360  -32.7340 C   0  0  0  0  0  0  0  0  0  0  0  0
   -6.7320   20.0130  -32.5070 C   0  0  0  0  0  0  0  0  0  0  0  0
   -7.2440   21.0870  -31.8030 N   0  0  0  0  0  0  0  0  0  0  0  0
   -8.6970   21.1640  -31.5260 C   0  0  0  0  0  0  0  0  0  0  0  0
   -6.4040   22.1000  -31.3770 C   0  0  0  0  0  0  0  0  0  0  0  0
   -6.8250   23.0740  -30.4370 C   0  0  0  0  0  0  0  0  0  0  0  0
   -5.9780   24.1110  -30.0440 C   0  0  0  0  0  0  0  0  0  0  0  0
   -4.6850   24.1990  -30.5560 C   0  0  0  0  0  0  0  0  0  0  0  0
   -3.8210   25.2640  -30.1500 N   0  0  0  0  0  0  0  0  0  0  0  0
   -4.2320   23.2280  -31.4530 C   0  0  0  0  0  0  0  0  0  0  0  0
   -5.0720   22.1720  -31.8650 C   0  0  0  0  0  0  0  0  0  0  0  0
   -3.2406   21.9985  -26.9394 H   0  0  0  0  0  0  0  0  0  0  0  0
   -3.0729   23.2885  -28.1781 H   0  0  0  0  0  0  0  0  0  0  0  0
   -4.5214   22.2263  -28.1781 H   0  0  0  0  0  0  0  0  0  0  0  0
   -2.6374   20.3118  -28.4055 H   0  0  0  0  0  0  0  0  0  0  0  0
   -3.3031   21.2092  -29.8433 H   0  0  0  0  0  0  0  0  0  0  0  0
   -0.7130   21.5930  -28.4660 H   0  0  0  0  0  0  0  0  0  0  0  0
   -1.3973   23.7500  -28.6343 H   0  0  0  0  0  0  0  0  0  0  0  0
   -0.4921   23.4625  -30.1590 H   0  0  0  0  0  0  0  0  0  0  0  0
   -2.2879   23.4203  -30.1590 H   0  0  0  0  0  0  0  0  0  0  0  0
    0.2635   20.9887  -30.4223 H   0  0  0  0  0  0  0  0  0  0  0  0
   -1.2406   19.9548  -30.3788 H   0  0  0  0  0  0  0  0  0  0  0  0
   -1.8829   22.4650  -31.6280 H   0  0  0  0  0  0  0  0  0  0  0  0
   -0.3930   21.7585  -32.4071 H   0  0  0  0  0  0  0  0  0  0  0  0
   -1.5362   20.0920  -33.3902 H   0  0  0  0  0  0  0  0  0  0  0  0
   -2.5765   19.8252  -31.9319 H   0  0  0  0  0  0  0  0  0  0  0  0
   -3.1030   21.9180  -34.0730 H   0  0  0  0  0  0  0  0  0  0  0  0
   -3.9049   19.0557  -34.2278 H   0  0  0  0  0  0  0  0  0  0  0  0
   -5.3103   17.0513  -34.6595 H   0  0  0  0  0  0  0  0  0  0  0  0
   -7.5865   16.8847  -33.6670 H   0  0  0  0  0  0  0  0  0  0  0  0
   -8.4981   18.7502  -32.3023 H   0  0  0  0  0  0  0  0  0  0  0  0
   -8.8630   21.1728  -30.4386 H   0  0  0  0  0  0  0  0  0  0  0  0
   -9.1060   22.0851  -31.9668 H   0  0  0  0  0  0  0  0  0  0  0  0
   -9.2011   20.2913  -31.9668 H   0  0  0  0  0  0  0  0  0  0  0  0
   -7.8368   23.0113  -30.0100 H   0  0  0  0  0  0  0  0  0  0  0  0
   -6.3334   24.8640  -29.3252 H   0  0  0  0  0  0  0  0  0  0  0  0
   -3.8850   25.6680  -29.1880 H   0  0  0  0  0  0  0  0  0  0  0  0
   -3.1080   25.6530  -30.8050 H   0  0  0  0  0  0  0  0  0  0  0  0
   -3.2054   23.2879  -31.8436 H   0  0  0  0  0  0  0  0  0  0  0  0
  1  2  1  0
  2  3  1  0
  3  4  1  0
  3  5  1  0
  5  6  1  0
  6  7  1  0
  7  8  1  0
  8  9  1  0
  9 10  2  0
 10 11  1  0
 11 12  2  0
 12 13  1  0
 13 14  2  0
 14 15  1  0
 15 16  2  0
 16 17  1  0
 16 18  1  0
 18 19  2  0
 19 20  1  0
 20 21  2  0
 21 22  1  0
 21 23  1  0
 23 24  2  0
 24  9  1  0
 15 10  1  0
 24 18  1  0
  1 25  1  0
  1 26  1  0
  1 27  1  0
  2 28  1  0
  2 29  1  0
  3 30  1  1
  4 31  1  0
  4 32  1  0
  4 33  1  0
  5 34  1  0
  5 35  1  0
  6 36  1  0
  6 37  1  0
  7 38  1  0
  7 39  1  0
  8 40  1  0
 11 41  1  0
 12 42  1  0
 13 43  1  0
 14 44  1  0
 17 45  1  0
 17 46  1  0
 17 47  1  0
 19 48  1  0
 20 49  1  0
 22 50  1  0
 22 51  1  0
 23 52  1  0
M  CHG  2   3   1  16   1
M  END
>  <UniqueID>  (28) 
28

>  <SMILES>  (28) 
CC[N@H+](C)CCCNc1c2ccccc2[n+](C)c2ccc(N)cc12

>  <Energy>  (28) 
78.91974007321302

>  <Genealogy>  (28) 
CC[NH+](C)CCCNc1c2ccccc2[n+](C)c2ccc(N)cc12 (protonated)
CC[N@H+](C)CCCNc1c2ccccc2[n+](C)c2ccc(N)cc12 (chirality)
CC[N@H+](C)CCCNc1c2ccccc2[n+](C)c2ccc(N)cc12 (3D coordinates assigned)
CC[N@H+](C)CCCNc1c2ccccc2[n+](C)c2ccc(N)cc12 (optimized conformer: 78.91974007321302 kcal/mol)

>  <smiles>  (28) 
CCN(C)CCCNc1c2ccccc2[n+](C)c2ccc(N)cc12

>  <score_type>  (28) 
oracle

>  <origin>  (28) 
adg

>  <m_score__min__energy>  (28) 
-7.3700000000000001

>  <m_primary>  (28) 
energy

$$$$
28:0
     RDKit          3D

 56 57  0  0  0  0  0  0  0  0999 V2000
   -0.5100   18.6080  -27.5040 C   0  0  0  0  0  0  0  0  0  0  0  0
   -0.9810   20.0550  -27.6960 C   0  0  0  0  0  0  0  0  0  0  0  0
   -2.3170   20.2980  -27.0930 N   0  0  0  0  0  0  0  0  0  0  0  0
   -3.1530   19.0690  -27.0480 C   0  0  0  0  0  0  0  0  0  0  0  0
   -3.4860   18.5660  -25.6400 C   0  0  0  0  0  0  0  0  0  0  0  0
   -3.0490   21.4930  -27.6080 C   0  0  0  0  0  0  0  0  0  0  0  0
   -2.3740   22.2420  -28.7860 C   0  0  0  0  0  0  0  0  0  0  0  0
   -2.9510   23.6590  -28.9800 C   0  0  0  0  0  0  0  0  0  0  0  0
   -3.7610   23.8130  -30.2790 C   0  0  0  0  0  0  0  0  0  0  0  0
   -4.2380   25.1910  -30.4690 N   0  0  0  0  0  0  0  0  0  0  0  0
   -5.6650   25.2280  -30.8110 C   0  0  0  0  0  0  0  0  0  0  0  0
   -6.2210   23.7990  -30.8660 C   0  0  0  0  0  0  0  0  0  0  0  0
   -6.6290   23.3830  -32.2870 C   0  0  0  0  0  0  0  0  0  0  0  0
   -7.3950   22.0750  -32.3050 C   0  0  0  0  0  0  0  0  0  0  0  0
   -8.7550   22.1010  -31.9460 C   0  0  0  0  0  0  0  0  0  0  0  0
   -9.5230   20.9390  -31.9600 C   0  0  0  0  0  0  0  0  0  0  0  0
   -8.9550   19.7260  -32.3360 C   0  0  0  0  0  0  0  0  0  0  0  0
   -7.6060   19.6620  -32.7070 C   0  0  0  0  0  0  0  0  0  0  0  0
   -7.0440   18.4330  -33.0900 C   0  0  0  0  0  0  0  0  0  0  0  0
   -5.7030   18.3580  -33.4630 C   0  0  0  0  0  0  0  0  0  0  0  0
   -4.9110   19.5040  -33.4610 C   0  0  0  0  0  0  0  0  0  0  0  0
   -5.4520   20.7360  -33.0830 C   0  0  0  0  0  0  0  0  0  0  0  0
   -6.8070   20.8390  -32.6970 C   0  0  0  0  0  0  0  0  0  0  0  0
   -0.4376   18.3855  -26.4292 H   0  0  0  0  0  0  0  0  0  0  0  0
   -1.2314   17.9224  -27.9726 H   0  0  0  0  0  0  0  0  0  0  0  0
    0.4767   18.4783  -27.9726 H   0  0  0  0  0  0  0  0  0  0  0  0
   -0.2518   20.7299  -27.2240 H   0  0  0  0  0  0  0  0  0  0  0  0
   -1.0607   20.2423  -28.7770 H   0  0  0  0  0  0  0  0  0  0  0  0
   -2.1370   20.5060  -26.0800 H   0  0  0  0  0  0  0  0  0  0  0  0
   -4.0991   19.2802  -27.5679 H   0  0  0  0  0  0  0  0  0  0  0  0
   -2.5604   18.2754  -27.5267 H   0  0  0  0  0  0  0  0  0  0  0  0
   -3.0395   19.2405  -24.8945 H   0  0  0  0  0  0  0  0  0  0  0  0
   -4.5777   18.5439  -25.5072 H   0  0  0  0  0  0  0  0  0  0  0  0
   -3.0799   17.5524  -25.5072 H   0  0  0  0  0  0  0  0  0  0  0  0
   -4.0425   21.1613  -27.9440 H   0  0  0  0  0  0  0  0  0  0  0  0
   -3.0750   22.2097  -26.7740 H   0  0  0  0  0  0  0  0  0  0  0  0
   -1.2958   22.3228  -28.5835 H   0  0  0  0  0  0  0  0  0  0  0  0
   -2.5659   21.6696  -29.7055 H   0  0  0  0  0  0  0  0  0  0  0  0
   -3.6092   23.8877  -28.1288 H   0  0  0  0  0  0  0  0  0  0  0  0
   -2.0992   24.3522  -29.0428 H   0  0  0  0  0  0  0  0  0  0  0  0
   -3.1221   23.5374  -31.1310 H   0  0  0  0  0  0  0  0  0  0  0  0
   -4.6398   23.1547  -30.2123 H   0  0  0  0  0  0  0  0  0  0  0  0
   -4.1180   25.6950  -29.5590 H   0  0  0  0  0  0  0  0  0  0  0  0
   -6.2092   25.8029  -30.0473 H   0  0  0  0  0  0  0  0  0  0  0  0
   -5.7918   25.7062  -31.7935 H   0  0  0  0  0  0  0  0  0  0  0  0
   -5.4483   23.1053  -30.5031 H   0  0  0  0  0  0  0  0  0  0  0  0
   -7.1217   23.7654  -30.2354 H   0  0  0  0  0  0  0  0  0  0  0  0
   -7.2641   24.1710  -32.7178 H   0  0  0  0  0  0  0  0  0  0  0  0
   -5.7094   23.2430  -32.8742 H   0  0  0  0  0  0  0  0  0  0  0  0
   -9.2189   23.0534  -31.6498 H   0  0  0  0  0  0  0  0  0  0  0  0
  -10.5839   20.9807  -31.6723 H   0  0  0  0  0  0  0  0  0  0  0  0
   -9.5683   18.8128  -32.3419 H   0  0  0  0  0  0  0  0  0  0  0  0
   -7.6652   17.5252  -33.0956 H   0  0  0  0  0  0  0  0  0  0  0  0
   -5.2692   17.3917  -33.7596 H   0  0  0  0  0  0  0  0  0  0  0  0
   -3.8540   19.4389  -33.7586 H   0  0  0  0  0  0  0  0  0  0  0  0
   -4.8167   21.6340  -33.0861 H   0  0  0  0  0  0  0  0  0  0  0  0
  1  2  1  0
  2  3  1  0
  3  4  1  0
  4  5  1  0
  3  6  1  0
  6  7  1  0
  7  8  1  0
  8  9  1  0
  9 10  1  0
 10 11  1  0
 11 12  1  0
 12 13  1  0
 13 14  1  0
 14 15  2  0
 15 16  1  0
 16 17  2  0
 17 18  1  0
 18 19  2  0
 19 20  1  0
 20 21  2  0
 21 22  1  0
 22 23  2  0
 23 14  1  0
 23 18  1  0
  1 24  1  0
  1 25  1  0
  1 26  1  0
  2 27  1  0
  2 28  1  0
  3 29  1  0
  4 30  1  0
  4 31  1  0
  5 32  1  0
  5 33  1  0
  5 34  1  0
  6 35  1  0
  6 36  1  0
  7 37  1  0
  7 38  1  0
  8 39  1  0
  8 40  1  0
  9 41  1  0
  9 42  1  0
 10 43  1  0
 11 44  1  0
 11 45  1  0
 12 46  1  0
 12 47  1  0
 13 48  1  0
 13 49  1  0
 15 50  1  0
 16 51  1  0
 17 52  1  0
 19 53  1  0
 20 54  1  0
 21 55  1  0
 22 56  1  0
M  CHG  1   3   1
M  END
>  <UniqueID>  (29) 
29

>  <SMILES>  (29) 
CC[NH+](CC)CCCCNCCCc1cccc2ccccc12

>  <Energy>  (29) 
59.47574790006691

>  <Genealogy>  (29) 
CC[NH+](CC)CCCCNCCCc1cccc2ccccc12 (protonated)
CC[NH+](CC)CCCCNCCCc1cccc2ccccc12 (3D coordinates assigned)
CC[NH+](CC)CCCCNCCCc1cccc2ccccc12 (optimized conformer: 59.47574790006691 kcal/mol)

>  <smiles>  (29) 
CCN(CC)CCCCNCCCc1cccc2ccccc12

>  <score_type>  (29) 
oracle

>  <origin>  (29) 
adg

>  <m_score__min__energy>  (29) 
-8.4000000000000004

>  <m_primary>  (29) 
energy

$$$$
29:0
     RDKit          3D

 52 54  0  0  0  0  0  0  0  0999 V2000
   -7.0110   23.0330  -29.7440 C   0  0  0  0  0  0  0  0  0  0  0  0
   -7.6970   22.3540  -30.9240 C   0  0  0  0  0  0  0  0  0  0  0  0
   -6.7060   21.8550  -31.8870 N   0  0  0  0  0  0  0  0  0  0  0  0
   -6.7860   20.4600  -32.3510 C   0  0  0  0  0  0  0  0  0  0  0  0
   -8.2400   20.0340  -32.5420 C   0  0  0  0  0  0  0  0  0  0  0  0
   -5.6530   22.7390  -32.3390 C   0  0  0  0  0  0  0  0  0  0  0  0
   -5.8020   23.9880  -32.2430 O   0  0  0  0  0  0  0  0  0  0  0  0
   -4.3380   22.2190  -32.8530 C   0  0  0  0  0  0  0  0  0  0  0  0
   -3.3690   21.4300  -31.5200 S   0  0  0  0  0  0  0  0  0  0  0  0
   -3.4520   22.8280  -30.3910 C   0  0  0  0  0  0  0  0  0  0  0  0
   -3.5300   24.1020  -30.8150 N   0  0  0  0  0  0  0  0  0  0  0  0
   -3.6410   24.8610  -29.7370 N   0  0  0  0  0  0  0  0  0  0  0  0
   -3.6380   24.0390  -28.6690 C   0  0  0  0  0  0  0  0  0  0  0  0
   -3.7190   24.5440  -27.2580 C   0  0  0  0  0  0  0  0  0  0  0  0
   -2.4450   25.2230  -26.8480 C   0  0  0  0  0  0  0  0  0  0  0  0
   -2.1690   25.7080  -25.5750 C   0  0  0  0  0  0  0  0  0  0  0  0
   -0.9290   26.3500  -25.4840 C   0  0  0  0  0  0  0  0  0  0  0  0
   -0.2330   26.3940  -26.6850 C   0  0  0  0  0  0  0  0  0  0  0  0
   -1.1640   25.6350  -27.8600 S   0  0  0  0  0  0  0  0  0  0  0  0
   -3.5070   22.7460  -29.0430 N   0  0  0  0  0  0  0  0  0  0  0  0
   -3.4750   21.5330  -28.2140 C   0  0  0  0  0  0  0  0  0  0  0  0
   -2.1870   21.4450  -27.3710 C   0  0  1  0  0  0  0  0  0  0  0  0
   -2.0080   20.0620  -26.7390 C   0  0  0  0  0  0  0  0  0  0  0  0
   -0.7940   19.5150  -27.4250 C   0  0  0  0  0  0  0  0  0  0  0  0
   -0.0880   20.7630  -27.8990 C   0  0  0  0  0  0  0  0  0  0  0  0
   -1.0580   21.7430  -28.1650 O   0  0  0  0  0  0  0  0  0  0  0  0
   -7.4165   22.6316  -28.8036 H   0  0  0  0  0  0  0  0  0  0  0  0
   -5.9289   22.8403  -29.7885 H   0  0  0  0  0  0  0  0  0  0  0  0
   -7.1926   24.1170  -29.7885 H   0  0  0  0  0  0  0  0  0  0  0  0
   -8.2979   21.5099  -30.5548 H   0  0  0  0  0  0  0  0  0  0  0  0
   -8.3400   23.0898  -31.4291 H   0  0  0  0  0  0  0  0  0  0  0  0
   -6.2544   20.3678  -33.3096 H   0  0  0  0  0  0  0  0  0  0  0  0
   -6.3249   19.8096  -31.5931 H   0  0  0  0  0  0  0  0  0  0  0  0
   -8.7136   19.8952  -31.5589 H   0  0  0  0  0  0  0  0  0  0  0  0
   -8.7794   20.8119  -33.1023 H   0  0  0  0  0  0  0  0  0  0  0  0
   -8.2743   19.0880  -33.1023 H   0  0  0  0  0  0  0  0  0  0  0  0
   -4.5299   21.4781  -33.6431 H   0  0  0  0  0  0  0  0  0  0  0  0
   -3.7594   23.0675  -33.2471 H   0  0  0  0  0  0  0  0  0  0  0  0
   -4.5486   25.2623  -27.1816 H   0  0  0  0  0  0  0  0  0  0  0  0
   -3.8851   23.6853  -26.5909 H   0  0  0  0  0  0  0  0  0  0  0  0
   -2.8569   25.5981  -24.7237 H   0  0  0  0  0  0  0  0  0  0  0  0
   -0.5416   26.7798  -24.5485 H   0  0  0  0  0  0  0  0  0  0  0  0
    0.7570   26.8475  -26.8403 H   0  0  0  0  0  0  0  0  0  0  0  0
   -4.3425   21.5418  -27.5377 H   0  0  0  0  0  0  0  0  0  0  0  0
   -3.5030   20.6616  -28.8847 H   0  0  0  0  0  0  0  0  0  0  0  0
   -2.2813   22.1836  -26.5613 H   0  0  0  0  0  0  0  0  0  0  0  0
   -1.8426   20.1443  -25.6546 H   0  0  0  0  0  0  0  0  0  0  0  0
   -2.8927   19.4195  -26.8596 H   0  0  0  0  0  0  0  0  0  0  0  0
   -0.1654   18.9459  -26.7243 H   0  0  0  0  0  0  0  0  0  0  0  0
   -1.0318   18.8133  -28.2380 H   0  0  0  0  0  0  0  0  0  0  0  0
    0.5988   21.1214  -27.1180 H   0  0  0  0  0  0  0  0  0  0  0  0
    0.4934   20.5481  -28.8077 H   0  0  0  0  0  0  0  0  0  0  0  0
  1  2  1  0
  2  3  1  0
  3  4  1  0
  4  5  1  0
  3  6  1  0
  6  7  2  0
  6  8  1  0
  8  9  1  0
  9 10  1  0
 10 11  2  0
 11 12  1  0
 12 13  2  0
 13 14  1  0
 14 15  1  0
 15 16  2  0
 16 17  1  0
 17 18  2  0
 18 19  1  0
 13 20  1  0
 20 21  1  0
 21 22  1  0
 22 23  1  0
 23 24  1  0
 24 25  1  0
 25 26  1  0
 20 10  1  0
 26 22  1  0
 19 15  1  0
  1 27  1  0
  1 28  1  0
  1 29  1  0
  2 30  1  0
  2 31  1  0
  4 32  1  0
  4 33  1  0
  5 34  1  0
  5 35  1  0
  5 36  1  0
  8 37  1  0
  8 38  1  0
 14 39  1  0
 14 40  1  0
 16 41  1  0
 17 42  1  0
 18 43  1  0
 21 44  1  0
 21 45  1  0
 22 46  1  1
 23 47  1  0
 23 48  1  0
 24 49  1  0
 24 50  1  0
 25 51  1  0
 25 52  1  0
M  END
>  <UniqueID>  (30) 
30

>  <SMILES>  (30) 
CCN(CC)C(=O)CSc1nnc(Cc2cccs2)n1C[C@H]1CCCO1

>  <Energy>  (30) 
98.40701211327777

>  <Genealogy>  (30) 
CCN(CC)C(=O)CSc1nnc(Cc2cccs2)n1C[C@H]1CCCO1 (chirality)
CCN(CC)C(=O)CSc1nnc(Cc2cccs2)n1C[C@H]1CCCO1 (3D coordinates assigned)
CCN(CC)C(=O)CSc1nnc(Cc2cccs2)n1C[C@H]1CCCO1 (nonaromatic ring conformer: 98.40701211327777 kcal/mol)

>  <smiles>  (30) 
CCN(CC)C(=O)CSc1nnc(Cc2cccs2)n1CC1CCCO1

>  <score_type>  (30) 
oracle

>  <origin>  (30) 
adg

>  <m_score__min__energy>  (30) 
-8.8800000000000008

>  <m_primary>  (30) 
energy

$$$$
30:0
     RDKit          3D

 47 50  0  0  1  0  0  0  0  0999 V2000
   -1.1170   25.3130  -27.3030 C   0  0  0  0  0  0  0  0  0  0  0  0
   -1.6900   24.4990  -28.3530 N   0  0  0  0  0  0  0  0  0  0  0  0
   -2.7950   24.9110  -29.0040 N   0  0  0  0  0  0  0  0  0  0  0  0
   -3.1340   23.9940  -29.9240 C   0  0  0  0  0  0  0  0  0  0  0  0
   -4.1630   23.9300  -30.8380 C   0  0  0  0  0  0  0  0  0  0  0  0
   -5.0060   24.8850  -30.9010 N   0  0  0  0  0  0  0  0  0  0  0  0
   -6.3670   24.8230  -30.4790 C   0  0  0  0  0  0  0  0  0  0  0  0
   -6.7920   23.3740  -30.3670 C   0  0  0  0  0  0  0  0  0  0  0  0
   -7.1260   22.7940  -31.6440 N   0  0  0  0  0  0  0  0  0  0  0  0
   -8.5130   22.9180  -31.9930 C   0  0  0  0  0  0  0  0  0  0  0  0
   -9.3970   21.9680  -31.2320 C   0  0  0  0  0  0  0  0  0  0  0  0
   -9.0960   20.6460  -31.4960 O   0  0  0  0  0  0  0  0  0  0  0  0
   -7.9110   20.5570  -32.2280 C   0  0  0  0  0  0  0  0  0  0  0  0
   -6.8330   21.3750  -31.5640 C   0  0  0  0  0  0  0  0  0  0  0  0
   -4.2910   22.8820  -31.6640 N   0  0  0  0  0  0  0  0  0  0  0  0
   -3.3740   21.8790  -31.5770 C   0  0  0  0  0  0  0  0  0  0  0  0
   -3.4630   20.7090  -32.4650 C   0  0  0  0  0  0  0  0  0  0  0  0
   -2.4090   19.9410  -32.9640 C   0  0  0  0  0  0  0  0  0  0  0  0
   -2.9800   18.9600  -33.7480 C   0  0  0  0  0  0  0  0  0  0  0  0
   -4.3650   19.1650  -33.6980 C   0  0  0  0  0  0  0  0  0  0  0  0
   -5.6960   18.1030  -34.6020 Br  0  0  0  0  0  0  0  0  0  0  0  0
   -4.6000   20.2160  -32.9230 O   0  0  0  0  0  0  0  0  0  0  0  0
   -2.3540   21.9360  -30.6770 N   0  0  0  0  0  0  0  0  0  0  0  0
   -2.2100   22.9760  -29.8420 C   0  0  0  0  0  0  0  0  0  0  0  0
   -1.2940   23.3120  -28.8340 C   0  0  0  0  0  0  0  0  0  0  0  0
   -0.1690   22.4440  -28.4900 C   0  0  0  0  0  0  0  0  0  0  0  0
   -0.4090   21.6930  -27.3500 F   0  0  0  0  0  0  0  0  0  0  0  0
    0.9240   23.2790  -28.2180 F   0  0  0  0  0  0  0  0  0  0  0  0
    0.2050   21.6140  -29.4880 F   0  0  0  0  0  0  0  0  0  0  0  0
   -1.4050   24.9038  -26.3234 H   0  0  0  0  0  0  0  0  0  0  0  0
   -0.0207   25.3100  -27.3937 H   0  0  0  0  0  0  0  0  0  0  0  0
   -1.4896   26.3440  -27.3937 H   0  0  0  0  0  0  0  0  0  0  0  0
   -6.4704   25.3128  -29.4995 H   0  0  0  0  0  0  0  0  0  0  0  0
   -7.0038   25.3375  -31.2137 H   0  0  0  0  0  0  0  0  0  0  0  0
   -5.9665   22.7980  -29.9235 H   0  0  0  0  0  0  0  0  0  0  0  0
   -7.6944   23.3390  -29.7389 H   0  0  0  0  0  0  0  0  0  0  0  0
   -8.8378   23.9469  -31.7790 H   0  0  0  0  0  0  0  0  0  0  0  0
   -8.6072   22.6718  -33.0609 H   0  0  0  0  0  0  0  0  0  0  0  0
   -9.2691   22.1516  -30.1550 H   0  0  0  0  0  0  0  0  0  0  0  0
  -10.4349   22.1466  -31.5496 H   0  0  0  0  0  0  0  0  0  0  0  0
   -7.5918   19.5055  -32.2782 H   0  0  0  0  0  0  0  0  0  0  0  0
   -8.0837   20.9430  -33.2435 H   0  0  0  0  0  0  0  0  0  0  0  0
   -6.7613   21.0826  -30.5060 H   0  0  0  0  0  0  0  0  0  0  0  0
   -5.8824   21.1860  -32.0842 H   0  0  0  0  0  0  0  0  0  0  0  0
   -5.0590   22.8510  -32.3350 H   0  0  0  0  0  0  0  0  0  0  0  0
   -1.3363   20.0889  -32.7704 H   0  0  0  0  0  0  0  0  0  0  0  0
   -2.4514   18.1713  -34.3035 H   0  0  0  0  0  0  0  0  0  0  0  0
  1  2  1  0
  2  3  1  0
  3  4  2  0
  4  5  1  0
  5  6  2  0
  6  7  1  0
  7  8  1  0
  8  9  1  0
  9 10  1  0
 10 11  1  0
 11 12  1  0
 12 13  1  0
 13 14  1  0
  5 15  1  0
 15 16  1  0
 16 17  1  0
 17 18  2  0
 18 19  1  0
 19 20  2  0
 20 21  1  0
 20 22  1  0
 16 23  2  0
 23 24  1  0
 24 25  2  0
 25 26  1  0
 26 27  1  0
 26 28  1  0
 26 29  1  0
 25  2  1  0
 24  4  1  0
 14  9  1  0
 22 17  1  0
  1 30  1  0
  1 31  1  0
  1 32  1  0
  7 33  1  0
  7 34  1  0
  8 35  1  0
  8 36  1  0
 10 37  1  0
 10 38  1  0
 11 39  1  0
 11 40  1  0
 13 41  1  0
 13 42  1  0
 14 43  1  0
 14 44  1  0
 15 45  1  0
 18 46  1  0
 19 47  1  0
M  END
>  <smiles>  (31) 
Cn1nc2c(=NCCN3CCOCC3)[nH]c(-c3ccc(Br)o3)nc2c1C(F)(F)F

>  <score_type>  (31) 
oracle

>  <origin>  (31) 
adg

>  <m_score__min__energy>  (31) 
-8.1400000000000006

>  <m_primary>  (31) 
energy

$$$$
31:0
     RDKit          3D

 40 42  0  0  0  0  0  0  0  0999 V2000
   -0.4180   23.1410  -26.9580 O   0  0  0  0  0  0  0  0  0  0  0  0
   -1.2300   24.1040  -26.8850 C   0  0  0  0  0  0  0  0  0  0  0  0
   -1.0830   25.0960  -25.7960 C   0  0  0  0  0  0  0  0  0  0  0  0
   -1.3780   26.4500  -26.0120 C   0  0  0  0  0  0  0  0  0  0  0  0
   -1.2170   27.3730  -24.9780 C   0  0  0  0  0  0  0  0  0  0  0  0
   -0.7530   26.9370  -23.7360 C   0  0  0  0  0  0  0  0  0  0  0  0
   -0.4550   25.6250  -23.5420 N   0  0  0  0  0  0  0  0  0  0  0  0
   -0.6030   24.7070  -24.5350 C   0  0  0  0  0  0  0  0  0  0  0  0
   -2.2800   24.2150  -27.8610 N   0  0  0  0  0  0  0  0  0  0  0  0
   -3.6740   24.3570  -27.4130 C   0  0  0  0  0  0  0  0  0  0  0  0
   -4.6560   24.3270  -28.5910 C   0  0  0  0  0  0  0  0  0  0  0  0
   -4.3350   23.2220  -29.5100 N   0  0  0  0  0  0  0  0  0  0  0  0
   -5.4040   22.5330  -30.2010 C   0  0  0  0  0  0  0  0  0  0  0  0
   -5.1380   21.6120  -31.2300 C   0  0  0  0  0  0  0  0  0  0  0  0
   -6.1970   20.9690  -31.8730 C   0  0  0  0  0  0  0  0  0  0  0  0
   -7.5200   21.2230  -31.4840 C   0  0  0  0  0  0  0  0  0  0  0  0
   -8.6730   20.5740  -32.2050 C   0  0  0  0  0  0  0  0  0  0  0  0
   -9.1330   19.4750  -31.5000 F   0  0  0  0  0  0  0  0  0  0  0  0
   -9.7240   21.4650  -32.3480 F   0  0  0  0  0  0  0  0  0  0  0  0
   -8.2550   20.1640  -33.4570 F   0  0  0  0  0  0  0  0  0  0  0  0
   -7.7460   22.1670  -30.4700 C   0  0  0  0  0  0  0  0  0  0  0  0
   -6.6990   22.7810  -29.8600 N   0  0  0  0  0  0  0  0  0  0  0  0
   -2.9280   22.9430  -29.8530 C   0  0  0  0  0  0  0  0  0  0  0  0
   -1.9850   24.0040  -29.2810 C   0  0  0  0  0  0  0  0  0  0  0  0
   -1.7364   26.7844  -26.9968 H   0  0  0  0  0  0  0  0  0  0  0  0
   -1.4537   28.4349  -25.1403 H   0  0  0  0  0  0  0  0  0  0  0  0
   -0.6283   27.6561  -22.9130 H   0  0  0  0  0  0  0  0  0  0  0  0
   -0.1040   25.3150  -22.6080 H   0  0  0  0  0  0  0  0  0  0  0  0
   -0.3452   23.6539  -24.3491 H   0  0  0  0  0  0  0  0  0  0  0  0
   -3.9140   23.5304  -26.7281 H   0  0  0  0  0  0  0  0  0  0  0  0
   -3.7740   25.3295  -26.9087 H   0  0  0  0  0  0  0  0  0  0  0  0
   -5.6774   24.1909  -28.2059 H   0  0  0  0  0  0  0  0  0  0  0  0
   -4.5778   25.2769  -29.1401 H   0  0  0  0  0  0  0  0  0  0  0  0
   -4.1003   21.3994  -31.5267 H   0  0  0  0  0  0  0  0  0  0  0  0
   -5.9927   20.2598  -32.6886 H   0  0  0  0  0  0  0  0  0  0  0  0
   -8.7753   22.4106  -30.1681 H   0  0  0  0  0  0  0  0  0  0  0  0
   -2.6494   21.9606  -29.4440 H   0  0  0  0  0  0  0  0  0  0  0  0
   -2.8333   22.9549  -30.9489 H   0  0  0  0  0  0  0  0  0  0  0  0
   -0.9442   23.6657  -29.3916 H   0  0  0  0  0  0  0  0  0  0  0  0
   -2.1269   24.9487  -29.8263 H   0  0  0  0  0  0  0  0  0  0  0  0
  1  2  2  0
  2  3  1  0
  3  4  2  0
  4  5  1  0
  5  6  2  0
  6  7  1  0
  7  8  2  0
  2  9  1  0
  9 10  1  0
 10 11  1  0
 11 12  1  0
 12 13  1  0
 13 14  2  0
 14 15  1  0
 15 16  2  0
 16 17  1  0
 17 18  1  0
 17 19  1  0
 17 20  1  0
 16 21  1  0
 21 22  2  0
 12 23  1  0
 23 24  1  0
  8  3  1  0
 24  9  1  0
 22 13  1  0
  4 25  1  0
  5 26  1  0
  6 27  1  0
  7 28  1  0
  8 29  1  0
 10 30  1  0
 10 31  1  0
 11 32  1  0
 11 33  1  0
 14 34  1  0
 15 35  1  0
 21 36  1  0
 23 37  1  0
 23 38  1  0
 24 39  1  0
 24 40  1  0
M  CHG  1   7   1
M  END
>  <UniqueID>  (32) 
31

>  <SMILES>  (32) 
O=C(c1ccc[nH+]c1)N1CCN(c2ccc(C(F)(F)F)cn2)CC1

>  <Energy>  (32) 
50.62775693221879

>  <Genealogy>  (32) 
O=C(c1ccc[nH+]c1)N1CCN(c2ccc(C(F)(F)F)cn2)CC1 (protonated)
O=C(c1ccc[nH+]c1)N1CCN(c2ccc(C(F)(F)F)cn2)CC1 (3D coordinates assigned)
O=C(c1ccc[nH+]c1)N1CCN(c2ccc(C(F)(F)F)cn2)CC1 (nonaromatic ring conformer: 50.62775693221879 kcal/mol)

>  <smiles>  (32) 
O=C(c1cccnc1)N1CCN(c2ccc(C(F)(F)F)cn2)CC1

>  <score_type>  (32) 
oracle

>  <origin>  (32) 
adg

>  <m_score__min__energy>  (32) 
-7.0099999999999998

>  <m_primary>  (32) 
energy

$$$$
32:0
     RDKit          3D

 72 74  0  0  0  0  0  0  0  0999 V2000
   -6.6570   24.9350  -29.8480 C   0  0  0  0  0  0  0  0  0  0  0  0
   -5.1540   24.9170  -29.5030 C   0  0  0  0  0  0  0  0  0  0  0  0
   -4.7360   23.9140  -28.4790 N   0  0  0  0  0  0  0  0  0  0  0  0
   -4.2350   24.5380  -27.2210 C   0  0  0  0  0  0  0  0  0  0  0  0
   -2.7100   24.6390  -27.0980 C   0  0  0  0  0  0  0  0  0  0  0  0
   -3.8470   22.8310  -28.9970 C   0  0  0  0  0  0  0  0  0  0  0  0
   -4.3780   22.1560  -30.2810 C   0  0  0  0  0  0  0  0  0  0  0  0
   -3.8220   22.7760  -31.5690 C   0  0  0  0  0  0  0  0  0  0  0  0
   -4.6470   22.4110  -32.7220 N   0  0  0  0  0  0  0  0  0  0  0  0
   -5.3890   21.1800  -32.7710 C   0  0  0  0  0  0  0  0  0  0  0  0
   -6.7420   21.1480  -32.3920 C   0  0  0  0  0  0  0  0  0  0  0  0
   -7.4270   22.3340  -32.0510 C   0  0  0  0  0  0  0  0  0  0  0  0
   -8.7440   22.2920  -31.6020 C   0  0  0  0  0  0  0  0  0  0  0  0
   -9.3990   21.0720  -31.4850 C   0  0  0  0  0  0  0  0  0  0  0  0
   -8.7580   19.8920  -31.8590 C   0  0  0  0  0  0  0  0  0  0  0  0
   -7.4330   19.9070  -32.3680 C   0  0  0  0  0  0  0  0  0  0  0  0
   -6.8140   18.7560  -32.8210 N   0  0  0  0  0  0  0  0  0  0  0  0
   -7.6130   17.5320  -33.0580 C   0  0  0  0  0  0  0  0  0  0  0  0
   -5.4580   18.7600  -33.0950 C   0  0  0  0  0  0  0  0  0  0  0  0
   -4.7380   17.5600  -33.3250 C   0  0  0  0  0  0  0  0  0  0  0  0
   -3.3810   17.5700  -33.6560 C   0  0  0  0  0  0  0  0  0  0  0  0
   -2.7430   16.3360  -33.8700 O   0  0  0  0  0  0  0  0  0  0  0  0
   -2.5340   15.3280  -32.8800 C   0  0  0  0  0  0  0  0  0  0  0  0
   -3.8780   14.6650  -32.5000 C   0  0  0  0  0  0  0  0  0  0  0  0
   -3.7930   13.2160  -32.1430 N   0  0  0  0  0  0  0  0  0  0  0  0
   -2.4670   12.9730  -31.5240 C   0  0  0  0  0  0  0  0  0  0  0  0
   -4.8410   12.8380  -31.1650 C   0  0  0  0  0  0  0  0  0  0  0  0
   -3.9050   12.3600  -33.3500 C   0  0  0  0  0  0  0  0  0  0  0  0
   -2.7110   18.7970  -33.7640 C   0  0  0  0  0  0  0  0  0  0  0  0
   -3.3800   19.9860  -33.4950 C   0  0  0  0  0  0  0  0  0  0  0  0
   -4.7410   19.9840  -33.1280 C   0  0  0  0  0  0  0  0  0  0  0  0
   -7.2463   24.9421  -28.9192 H   0  0  0  0  0  0  0  0  0  0  0  0
   -6.8876   25.8360  -30.4354 H   0  0  0  0  0  0  0  0  0  0  0  0
   -6.9091   24.0398  -30.4354 H   0  0  0  0  0  0  0  0  0  0  0  0
   -4.5975   24.7071  -30.4283 H   0  0  0  0  0  0  0  0  0  0  0  0
   -4.9356   25.9018  -29.0643 H   0  0  0  0  0  0  0  0  0  0  0  0
   -5.6380   23.4630  -28.1930 H   0  0  0  0  0  0  0  0  0  0  0  0
   -4.6484   25.5555  -27.1590 H   0  0  0  0  0  0  0  0  0  0  0  0
   -4.5614   23.8772  -26.4044 H   0  0  0  0  0  0  0  0  0  0  0  0
   -2.4283   24.6577  -26.0348 H   0  0  0  0  0  0  0  0  0  0  0  0
   -2.2445   23.7697  -27.5855 H   0  0  0  0  0  0  0  0  0  0  0  0
   -2.3632   25.5621  -27.5855 H   0  0  0  0  0  0  0  0  0  0  0  0
   -2.8603   23.2656  -29.2152 H   0  0  0  0  0  0  0  0  0  0  0  0
   -3.7993   22.0537  -28.2201 H   0  0  0  0  0  0  0  0  0  0  0  0
   -4.0986   21.0924  -30.2570 H   0  0  0  0  0  0  0  0  0  0  0  0
   -5.4686   22.2988  -30.2960 H   0  0  0  0  0  0  0  0  0  0  0  0
   -3.8109   23.8711  -31.4661 H   0  0  0  0  0  0  0  0  0  0  0  0
   -2.8027   22.3954  -31.7311 H   0  0  0  0  0  0  0  0  0  0  0  0
   -4.6390   23.0260  -33.5670 H   0  0  0  0  0  0  0  0  0  0  0  0
   -6.9141   23.3029  -32.1411 H   0  0  0  0  0  0  0  0  0  0  0  0
   -9.2660   23.2241  -31.3399 H   0  0  0  0  0  0  0  0  0  0  0  0
  -10.4272   21.0373  -31.0958 H   0  0  0  0  0  0  0  0  0  0  0  0
   -9.2878   18.9333  -31.7580 H   0  0  0  0  0  0  0  0  0  0  0  0
   -7.9016   17.0899  -32.0930 H   0  0  0  0  0  0  0  0  0  0  0  0
   -8.5176   17.7894  -33.6285 H   0  0  0  0  0  0  0  0  0  0  0  0
   -7.0134   16.8075  -33.6285 H   0  0  0  0  0  0  0  0  0  0  0  0
   -5.2618   16.5964  -33.2405 H   0  0  0  0  0  0  0  0  0  0  0  0
   -1.8516   14.5630  -33.2789 H   0  0  0  0  0  0  0  0  0  0  0  0
   -2.0965   15.7912  -31.9834 H   0  0  0  0  0  0  0  0  0  0  0  0
   -4.2917   15.2050  -31.6356 H   0  0  0  0  0  0  0  0  0  0  0  0
   -4.5117   14.7222  -33.3973 H   0  0  0  0  0  0  0  0  0  0  0  0
   -2.5649   12.9909  -30.4285 H   0  0  0  0  0  0  0  0  0  0  0  0
   -2.0883   11.9905  -31.8422 H   0  0  0  0  0  0  0  0  0  0  0  0
   -1.7645   13.7574  -31.8422 H   0  0  0  0  0  0  0  0  0  0  0  0
   -4.4566   12.9766  -30.1437 H   0  0  0  0  0  0  0  0  0  0  0  0
   -5.7267   13.4733  -31.3128 H   0  0  0  0  0  0  0  0  0  0  0  0
   -5.1173   11.7836  -31.3128 H   0  0  0  0  0  0  0  0  0  0  0  0
   -4.0421   11.3121  -33.0449 H   0  0  0  0  0  0  0  0  0  0  0  0
   -4.7685   12.6832  -33.9499 H   0  0  0  0  0  0  0  0  0  0  0  0
   -2.9874   12.4502  -33.9499 H   0  0  0  0  0  0  0  0  0  0  0  0
   -1.6525   18.8191  -34.0626 H   0  0  0  0  0  0  0  0  0  0  0  0
   -2.8397   20.9413  -33.5696 H   0  0  0  0  0  0  0  0  0  0  0  0
  1  2  1  0
  2  3  1  0
  3  4  1  0
  4  5  1  0
  3  6  1  0
  6  7  1  0
  7  8  1  0
  8  9  1  0
  9 10  1  0
 10 11  2  0
 11 12  1  0
 12 13  2  0
 13 14  1  0
 14 15  2  0
 15 16  1  0
 16 17  2  0
 17 18  1  0
 17 19  1  0
 19 20  2  0
 20 21  1  0
 21 22  1  0
 22 23  1  0
 23 24  1  0
 24 25  1  0
 25 26  1  0
 25 27  1  0
 25 28  1  0
 21 29  2  0
 29 30  1  0
 30 31  2  0
 31 10  1  0
 16 11  1  0
 31 19  1  0
  1 32  1  0
  1 33  1  0
  1 34  1  0
  2 35  1  0
  2 36  1  0
  3 37  1  0
  4 38  1  0
  4 39  1  0
  5 40  1  0
  5 41  1  0
  5 42  1  0
  6 43  1  0
  6 44  1  0
  7 45  1  0
  7 46  1  0
  8 47  1  0
  8 48  1  0
  9 49  1  0
 12 50  1  0
 13 51  1  0
 14 52  1  0
 15 53  1  0
 18 54  1  0
 18 55  1  0
 18 56  1  0
 20 57  1  0
 23 58  1  0
 23 59  1  0
 24 60  1  0
 24 61  1  0
 26 62  1  0
 26 63  1  0
 26 64  1  0
 27 65  1  0
 27 66  1  0
 27 67  1  0
 28 68  1  0
 28 69  1  0
 28 70  1  0
 29 71  1  0
 30 72  1  0
M  CHG  3   3   1  17   1  25   1
M  END
>  <UniqueID>  (33) 
32

>  <SMILES>  (33) 
CC[NH+](CC)CCCNc1c2ccccc2[n+](C)c2cc(OCC[N+](C)(C)C)ccc12

>  <Energy>  (33) 
113.63307658701387

>  <Genealogy>  (33) 
CC[NH+](CC)CCCNc1c2ccccc2[n+](C)c2cc(OCC[N+](C)(C)C)ccc12 (protonated)
CC[NH+](CC)CCCNc1c2ccccc2[n+](C)c2cc(OCC[N+](C)(C)C)ccc12 (3D coordinates assigned)
CC[NH+](CC)CCCNc1c2ccccc2[n+](C)c2cc(OCC[N+](C)(C)C)ccc12 (optimized conformer: 113.63307658701387 kcal/mol)

>  <smiles>  (33) 
CCN(CC)CCCNc1c2ccccc2[n+](C)c2cc(OCC[N+](C)(C)C)ccc12

>  <score_type>  (33) 
oracle

>  <origin>  (33) 
adg

>  <m_score__min__energy>  (33) 
-6.4000000000000004

>  <m_primary>  (33) 
energy

$$$$
