0:0
     RDKit          3D

 47 51  0  0  0  0  0  0  0  0999 V2000
   -5.6680   25.8090  -30.4650 C   0  0  0  0  0  0  0  0  0  0  0  0
   -6.0920   24.4050  -30.7770 C   0  0  0  0  0  0  0  0  0  0  0  0
   -6.8830   23.6870  -29.8680 C   0  0  0  0  0  0  0  0  0  0  0  0
   -7.3120   22.3920  -30.1760 C   0  0  0  0  0  0  0  0  0  0  0  0
   -6.9690   21.8010  -31.4030 C   0  0  0  0  0  0  0  0  0  0  0  0
   -7.4200   20.4270  -31.7290 C   0  0  0  0  0  0  0  0  0  0  0  0
   -8.7450   20.0200  -31.4770 C   0  0  0  0  0  0  0  0  0  0  0  0
   -9.1300   18.7050  -31.7960 C   0  0  0  0  0  0  0  0  0  0  0  0
   -8.2330   17.8340  -32.3390 N   0  0  0  0  0  0  0  0  0  0  0  0
   -6.9690   18.2620  -32.5800 C   0  0  0  0  0  0  0  0  0  0  0  0
   -5.9010   17.5380  -33.0610 C   0  0  0  0  0  0  0  0  0  0  0  0
   -5.8780   16.0960  -33.3870 C   0  0  0  0  0  0  0  0  0  0  0  0
   -6.8470   15.5510  -34.2460 C   0  0  0  0  0  0  0  0  0  0  0  0
   -6.8320   14.1850  -34.5490 C   0  0  0  0  0  0  0  0  0  0  0  0
   -5.8560   13.3540  -33.9910 C   0  0  0  0  0  0  0  0  0  0  0  0
   -5.8440   12.0300  -34.2870 F   0  0  0  0  0  0  0  0  0  0  0  0
   -4.8960   13.8860  -33.1270 C   0  0  0  0  0  0  0  0  0  0  0  0
   -4.9080   15.2510  -32.8210 C   0  0  0  0  0  0  0  0  0  0  0  0
   -4.8450   18.4600  -33.0160 C   0  0  0  0  0  0  0  0  0  0  0  0
   -3.4500   18.2570  -33.4650 C   0  0  0  0  0  0  0  0  0  0  0  0
   -2.4080   18.9560  -32.8400 C   0  0  0  0  0  0  0  0  0  0  0  0
   -1.0940   18.7750  -33.2770 C   0  0  0  0  0  0  0  0  0  0  0  0
   -0.8280   17.9340  -34.3140 N   0  0  0  0  0  0  0  0  0  0  0  0
   -1.8220   17.2600  -34.9520 C   0  0  0  0  0  0  0  0  0  0  0  0
   -3.1490   17.4130  -34.5460 C   0  0  0  0  0  0  0  0  0  0  0  0
   -5.2860   19.6440  -32.5250 N   0  0  0  0  0  0  0  0  0  0  0  0
   -6.5780   19.5060  -32.2760 N   0  0  0  0  0  0  0  0  0  0  0  0
   -6.1850   22.5280  -32.3160 C   0  0  0  0  0  0  0  0  0  0  0  0
   -5.7570   23.8230  -32.0090 C   0  0  0  0  0  0  0  0  0  0  0  0
   -5.6267   25.9457  -29.3743 H   0  0  0  0  0  0  0  0  0  0  0  0
   -4.6733   25.9960  -30.8959 H   0  0  0  0  0  0  0  0  0  0  0  0
   -6.3929   26.5153  -30.8959 H   0  0  0  0  0  0  0  0  0  0  0  0
   -7.1671   24.1444  -28.9088 H   0  0  0  0  0  0  0  0  0  0  0  0
   -7.9224   21.8323  -29.4520 H   0  0  0  0  0  0  0  0  0  0  0  0
   -9.4691   20.7212  -31.0366 H   0  0  0  0  0  0  0  0  0  0  0  0
  -10.1627   18.3772  -31.6058 H   0  0  0  0  0  0  0  0  0  0  0  0
   -7.6203   16.2005  -34.6820 H   0  0  0  0  0  0  0  0  0  0  0  0
   -7.5891   13.7645  -35.2271 H   0  0  0  0  0  0  0  0  0  0  0  0
   -4.1298   13.2310  -32.6868 H   0  0  0  0  0  0  0  0  0  0  0  0
   -4.1549   15.6648  -32.1343 H   0  0  0  0  0  0  0  0  0  0  0  0
   -2.6243   19.6438  -32.0093 H   0  0  0  0  0  0  0  0  0  0  0  0
   -0.2721   19.3132  -32.7822 H   0  0  0  0  0  0  0  0  0  0  0  0
    0.1600   17.8090  -34.6310 H   0  0  0  0  0  0  0  0  0  0  0  0
   -1.5795   16.5916  -35.7913 H   0  0  0  0  0  0  0  0  0  0  0  0
   -3.9535   16.8758  -35.0696 H   0  0  0  0  0  0  0  0  0  0  0  0
   -5.9064   22.0746  -33.2787 H   0  0  0  0  0  0  0  0  0  0  0  0
   -5.1552   24.3879  -32.7362 H   0  0  0  0  0  0  0  0  0  0  0  0
  1  2  1  0
  2  3  2  0
  3  4  1  0
  4  5  2  0
  5  6  1  0
  6  7  2  0
  7  8  1  0
  8  9  2  0
  9 10  1  0
 10 11  2  0
 11 12  1  0
 12 13  2  0
 13 14  1  0
 14 15  2  0
 15 16  1  0
 15 17  1  0
 17 18  2  0
 11 19  1  0
 19 20  1  0
 20 21  2  0
 21 22  1  0
 22 23  2  0
 23 24  1  0
 24 25  2  0
 19 26  2  0
 26 27  1  0
  5 28  1  0
 28 29  2  0
 29  2  1  0
 27  6  1  0
 27 10  1  0
 18 12  1  0
 25 20  1  0
  1 30  1  0
  1 31  1  0
  1 32  1  0
  3 33  1  0
  4 34  1  0
  7 35  1  0
  8 36  1  0
 13 37  1  0
 14 38  1  0
 17 39  1  0
 18 40  1  0
 21 41  1  0
 22 42  1  0
 23 43  1  0
 24 44  1  0
 25 45  1  0
 28 46  1  0
 29 47  1  0
M  CHG  1  23   1
M  END
>  <UniqueID>  (1) 
1

>  <SMILES>  (1) 
Cc1ccc(-c2ccnc3c(-c4ccc(F)cc4)c(-c4cc[nH+]cc4)nn23)cc1

>  <Energy>  (1) 
103.92360368728636

>  <Genealogy>  (1) 
Cc1ccc(-c2ccnc3c(-c4ccc(F)cc4)c(-c4cc[nH+]cc4)nn23)cc1 (protonated)
Cc1ccc(-c2ccnc3c(-c4ccc(F)cc4)c(-c4cc[nH+]cc4)nn23)cc1 (3D coordinates assigned)
Cc1ccc(-c2ccnc3c(-c4ccc(F)cc4)c(-c4cc[nH+]cc4)nn23)cc1 (optimized conformer: 103.92360368728636 kcal/mol)

>  <smiles>  (1) 
Cc1ccc(-c2ccnc3c(-c4ccc(F)cc4)c(-c4ccncc4)nn23)cc1

>  <score_type>  (1) 
oracle

>  <origin>  (1) 
adg

>  <m_score__min__energy>  (1) 
-8.8399999999999999

>  <m_primary>  (1) 
energy

$$$$
1:0
     RDKit          3D

 38 41  0  0  0  0  0  0  0  0999 V2000
   -5.4600   25.8520  -30.4530 C   0  0  0  0  0  0  0  0  0  0  0  0
   -4.9460   24.7610  -31.2090 O   0  0  0  0  0  0  0  0  0  0  0  0
   -5.5970   23.5300  -31.3650 C   0  0  0  0  0  0  0  0  0  0  0  0
   -6.9960   23.5130  -31.3730 C   0  0  0  0  0  0  0  0  0  0  0  0
   -7.6920   22.3080  -31.5020 C   0  0  0  0  0  0  0  0  0  0  0  0
   -6.9960   21.0920  -31.6050 C   0  0  0  0  0  0  0  0  0  0  0  0
   -7.6910   19.8370  -31.7020 N   0  0  0  0  0  0  0  0  0  0  0  0
   -8.6950   19.4850  -30.9160 N   0  0  0  0  0  0  0  0  0  0  0  0
   -9.1290   18.2970  -31.3030 N   0  0  0  0  0  0  0  0  0  0  0  0
   -8.4410   17.8550  -32.3460 N   0  0  0  0  0  0  0  0  0  0  0  0
   -7.5450   18.8290  -32.5910 C   0  0  0  0  0  0  0  0  0  0  0  0
   -6.3990   18.7800  -33.9770 S   0  0  0  0  0  0  0  0  0  0  0  0
   -5.0890   17.8820  -33.0760 C   0  0  0  0  0  0  0  0  0  0  0  0
   -3.7330   18.3700  -33.4860 C   0  0  0  0  0  0  0  0  0  0  0  0
   -2.8720   17.5440  -34.2360 C   0  0  0  0  0  0  0  0  0  0  0  0
   -1.5990   18.0200  -34.5730 C   0  0  0  0  0  0  0  0  0  0  0  0
   -0.8050   17.2940  -35.2300 O   0  0  0  0  0  0  0  0  0  0  0  0
   -1.2380   19.2710  -34.1740 N   0  0  0  0  0  0  0  0  0  0  0  0
   -0.0430   19.8830  -34.3960 C   0  0  0  0  0  0  0  0  0  0  0  0
    0.0490   21.1630  -33.8480 C   0  0  0  0  0  0  0  0  0  0  0  0
   -1.4100   21.5270  -33.0690 S   0  0  0  0  0  0  0  0  0  0  0  0
   -2.0880   20.0460  -33.4650 C   0  0  0  0  0  0  0  0  0  0  0  0
   -3.3220   19.6160  -33.1120 N   0  0  0  0  0  0  0  0  0  0  0  0
   -5.5930   21.1130  -31.6390 C   0  0  0  0  0  0  0  0  0  0  0  0
   -4.8970   22.3180  -31.5110 C   0  0  0  0  0  0  0  0  0  0  0  0
   -5.3576   25.6347  -29.3795 H   0  0  0  0  0  0  0  0  0  0  0  0
   -4.8973   26.7650  -30.6976 H   0  0  0  0  0  0  0  0  0  0  0  0
   -6.5223   25.9994  -30.6976 H   0  0  0  0  0  0  0  0  0  0  0  0
   -7.5531   24.4566  -31.2769 H   0  0  0  0  0  0  0  0  0  0  0  0
   -8.7918   22.3117  -31.5230 H   0  0  0  0  0  0  0  0  0  0  0  0
   -9.9160   17.7810  -30.8530 H   0  0  0  0  0  0  0  0  0  0  0  0
   -5.2189   18.0426  -31.9956 H   0  0  0  0  0  0  0  0  0  0  0  0
   -5.1662   16.8111  -33.3151 H   0  0  0  0  0  0  0  0  0  0  0  0
   -3.1950   16.5410  -34.5517 H   0  0  0  0  0  0  0  0  0  0  0  0
    0.7769   19.4110  -34.9571 H   0  0  0  0  0  0  0  0  0  0  0  0
    0.9245   21.8260  -33.9115 H   0  0  0  0  0  0  0  0  0  0  0  0
   -5.0365   20.1729  -31.7675 H   0  0  0  0  0  0  0  0  0  0  0  0
   -3.7971   22.3191  -31.5244 H   0  0  0  0  0  0  0  0  0  0  0  0
  1  2  1  0
  2  3  1  0
  3  4  2  0
  4  5  1  0
  5  6  2  0
  6  7  1  0
  7  8  1  0
  8  9  2  0
  9 10  1  0
 10 11  2  0
 11 12  1  0
 12 13  1  0
 13 14  1  0
 14 15  2  0
 15 16  1  0
 16 17  2  0
 16 18  1  0
 18 19  1  0
 19 20  2  0
 20 21  1  0
 21 22  1  0
 22 23  2  0
  6 24  1  0
 24 25  2  0
 25  3  1  0
 11  7  1  0
 23 14  1  0
 22 18  1  0
  1 26  1  0
  1 27  1  0
  1 28  1  0
  4 29  1  0
  5 30  1  0
  9 31  1  0
 13 32  1  0
 13 33  1  0
 15 34  1  0
 19 35  1  0
 20 36  1  0
 24 37  1  0
 25 38  1  0
M  CHG  1   9   1
M  END
>  <UniqueID>  (2) 
2

>  <SMILES>  (2) 
COc1ccc(-n2n[nH+]nc2SCc2cc(=O)n3ccsc3n2)cc1

>  <Energy>  (2) 
111.20030698610854

>  <Genealogy>  (2) 
COc1ccc(-n2n[nH+]nc2SCc2cc(=O)n3ccsc3n2)cc1 (protonated)
COc1ccc(-n2n[nH+]nc2SCc2cc(=O)n3ccsc3n2)cc1 (3D coordinates assigned)
COc1ccc(-n2n[nH+]nc2SCc2cc(=O)n3ccsc3n2)cc1 (optimized conformer: 111.20030698610854 kcal/mol)

>  <smiles>  (2) 
COc1ccc(-n2nnnc2SCc2cc(=O)n3ccsc3n2)cc1

>  <score_type>  (2) 
oracle

>  <origin>  (2) 
adg

>  <m_score__min__energy>  (2) 
-8.2799999999999994

>  <m_primary>  (2) 
energy

$$$$
2:0
     RDKit          3D

 47 50  0  0  0  0  0  0  0  0999 V2000
   -3.7560   24.1230  -28.2120 C   0  0  0  0  0  0  0  0  0  0  0  0
   -2.8040   24.4070  -29.3690 C   0  0  0  0  0  0  0  0  0  0  0  0
   -3.4960   25.0830  -30.4610 N   0  0  0  0  0  0  0  0  0  0  0  0
   -4.9100   25.1710  -30.6920 C   0  0  0  0  0  0  0  0  0  0  0  0
   -5.4520   26.3060  -30.6060 O   0  0  0  0  0  0  0  0  0  0  0  0
   -5.7630   24.0070  -31.0190 C   0  0  0  0  0  0  0  0  0  0  0  0
   -7.1600   24.0400  -31.0560 C   0  0  0  0  0  0  0  0  0  0  0  0
   -7.7220   22.8260  -31.4640 C   0  0  0  0  0  0  0  0  0  0  0  0
   -9.0860   22.5650  -31.6140 C   0  0  0  0  0  0  0  0  0  0  0  0
   -9.4880   21.2950  -32.0580 C   0  0  0  0  0  0  0  0  0  0  0  0
   -8.5320   20.3030  -32.3460 C   0  0  0  0  0  0  0  0  0  0  0  0
   -7.1570   20.5690  -32.1920 C   0  0  0  0  0  0  0  0  0  0  0  0
   -6.1760   19.5530  -32.4600 N   0  0  0  0  0  0  0  0  0  0  0  0
   -5.3920   19.5680  -33.6970 C   0  0  0  0  0  0  0  0  0  0  0  0
   -5.7310   18.3340  -34.5390 C   0  0  0  0  0  0  0  0  0  0  0  0
   -5.6960   17.1220  -33.7050 N   0  0  0  0  0  0  0  0  0  0  0  0
   -5.1910   15.8770  -34.2260 C   0  0  0  0  0  0  0  0  0  0  0  0
   -5.8920   14.6730  -34.0450 C   0  0  0  0  0  0  0  0  0  0  0  0
   -5.3660   13.4860  -34.5600 C   0  0  0  0  0  0  0  0  0  0  0  0
   -4.1500   13.5030  -35.2440 C   0  0  0  0  0  0  0  0  0  0  0  0
   -3.4760   14.7140  -35.4020 C   0  0  0  0  0  0  0  0  0  0  0  0
   -4.0040   15.8600  -34.8950 N   0  0  0  0  0  0  0  0  0  0  0  0
   -6.4400   17.1270  -32.4360 C   0  0  0  0  0  0  0  0  0  0  0  0
   -6.0800   18.3630  -31.6130 C   0  0  0  0  0  0  0  0  0  0  0  0
   -6.7850   21.8440  -31.7530 C   0  0  0  0  0  0  0  0  0  0  0  0
   -5.2460   22.4760  -31.5290 S   0  0  0  0  0  0  0  0  0  0  0  0
   -3.2309   24.2796  -27.2582 H   0  0  0  0  0  0  0  0  0  0  0  0
   -4.6186   24.8029  -28.2716 H   0  0  0  0  0  0  0  0  0  0  0  0
   -4.1051   23.0816  -28.2716 H   0  0  0  0  0  0  0  0  0  0  0  0
   -1.9841   25.0473  -29.0115 H   0  0  0  0  0  0  0  0  0  0  0  0
   -2.4105   23.4500  -29.7423 H   0  0  0  0  0  0  0  0  0  0  0  0
   -7.7545   24.9271  -30.7921 H   0  0  0  0  0  0  0  0  0  0  0  0
   -9.8323   23.3409  -31.3882 H   0  0  0  0  0  0  0  0  0  0  0  0
  -10.5584   21.0737  -32.1817 H   0  0  0  0  0  0  0  0  0  0  0  0
   -8.8608   19.3126  -32.6939 H   0  0  0  0  0  0  0  0  0  0  0  0
   -5.6291   20.4772  -34.2690 H   0  0  0  0  0  0  0  0  0  0  0  0
   -4.3204   19.5562  -33.4489 H   0  0  0  0  0  0  0  0  0  0  0  0
   -6.7377   18.4516  -34.9664 H   0  0  0  0  0  0  0  0  0  0  0  0
   -4.9889   18.2356  -35.3450 H   0  0  0  0  0  0  0  0  0  0  0  0
   -6.8483   14.6652  -33.5015 H   0  0  0  0  0  0  0  0  0  0  0  0
   -5.9097   12.5391  -34.4265 H   0  0  0  0  0  0  0  0  0  0  0  0
   -3.7282   12.5732  -35.6534 H   0  0  0  0  0  0  0  0  0  0  0  0
   -2.5157   14.7420  -35.9377 H   0  0  0  0  0  0  0  0  0  0  0  0
   -7.5192   17.1347  -32.6485 H   0  0  0  0  0  0  0  0  0  0  0  0
   -6.1743   16.2265  -31.8628 H   0  0  0  0  0  0  0  0  0  0  0  0
   -6.7768   18.4569  -30.7671 H   0  0  0  0  0  0  0  0  0  0  0  0
   -5.0533   18.2648  -31.2305 H   0  0  0  0  0  0  0  0  0  0  0  0
  1  2  1  0
  2  3  1  0
  3  4  1  0
  4  5  2  0
  4  6  1  0
  6  7  2  0
  7  8  1  0
  8  9  2  0
  9 10  1  0
 10 11  2  0
 11 12  1  0
 12 13  1  0
 13 14  1  0
 14 15  1  0
 15 16  1  0
 16 17  1  0
 17 18  2  0
 18 19  1  0
 19 20  2  0
 20 21  1  0
 21 22  2  0
 16 23  1  0
 23 24  1  0
 12 25  2  0
 25 26  1  0
 26  6  1  0
 25  8  1  0
 24 13  1  0
 22 17  1  0
  1 27  1  0
  1 28  1  0
  1 29  1  0
  2 30  1  0
  2 31  1  0
  7 32  1  0
  9 33  1  0
 10 34  1  0
 11 35  1  0
 14 36  1  0
 14 37  1  0
 15 38  1  0
 15 39  1  0
 18 40  1  0
 19 41  1  0
 20 42  1  0
 21 43  1  0
 23 44  1  0
 23 45  1  0
 24 46  1  0
 24 47  1  0
M  CHG  1   3  -1
M  END
>  <UniqueID>  (3) 
3

>  <SMILES>  (3) 
CC[N-]C(=O)c1cc2cccc(N3CCN(c4ccccn4)CC3)c2s1

>  <Energy>  (3) 
88.27588500621579

>  <Genealogy>  (3) 
CC[N-]C(=O)c1cc2cccc(N3CCN(c4ccccn4)CC3)c2s1 (protonated)
CC[N-]C(=O)c1cc2cccc(N3CCN(c4ccccn4)CC3)c2s1 (3D coordinates assigned)
CC[N-]C(=O)c1cc2cccc(N3CCN(c4ccccn4)CC3)c2s1 (nonaromatic ring conformer: 88.27588500621579 kcal/mol)

>  <smiles>  (3) 
CCNC(=O)c1cc2cccc(N3CCN(c4ccccn4)CC3)c2s1

>  <score_type>  (3) 
oracle

>  <origin>  (3) 
adg

>  <m_score__min__energy>  (3) 
-10.859999999999999

>  <m_primary>  (3) 
energy

$$$$
3:0
     RDKit          3D

 62 65  0  0  0  0  0  0  0  0999 V2000
   -6.1820   25.6810  -29.7830 C   0  0  0  0  0  0  0  0  0  0  0  0
   -4.9830   25.2010  -30.5900 C   0  0  0  0  0  0  0  0  0  0  0  0
   -4.8200   23.7330  -30.4880 N   0  0  0  0  0  0  0  0  0  0  0  0
   -5.3510   23.2010  -29.2120 C   0  0  0  0  0  0  0  0  0  0  0  0
   -4.2670   22.6700  -28.2590 C   0  0  0  0  0  0  0  0  0  0  0  0
   -3.4420   23.2650  -30.7670 C   0  0  0  0  0  0  0  0  0  0  0  0
   -3.4240   22.2810  -31.9470 C   0  0  0  0  0  0  0  0  0  0  0  0
   -4.5790   22.4650  -32.8510 N   0  0  0  0  0  0  0  0  0  0  0  0
   -5.4450   21.2990  -32.8500 C   0  0  0  0  0  0  0  0  0  0  0  0
   -6.8100   21.4030  -32.4880 C   0  0  0  0  0  0  0  0  0  0  0  0
   -7.4510   22.6540  -32.3430 C   0  0  0  0  0  0  0  0  0  0  0  0
   -8.7970   22.7290  -31.9860 C   0  0  0  0  0  0  0  0  0  0  0  0
   -9.5330   21.5660  -31.7710 C   0  0  0  0  0  0  0  0  0  0  0  0
   -8.9240   20.3180  -31.8980 C   0  0  0  0  0  0  0  0  0  0  0  0
   -7.5570   20.2120  -32.2560 C   0  0  0  0  0  0  0  0  0  0  0  0
   -6.9530   18.9800  -32.3820 N   0  0  0  0  0  0  0  0  0  0  0  0
   -7.5260   17.8270  -31.6560 C   0  0  0  0  0  0  0  0  0  0  0  0
   -5.7540   18.8690  -33.0610 C   0  0  0  0  0  0  0  0  0  0  0  0
   -5.2870   17.6290  -33.6000 C   0  0  0  0  0  0  0  0  0  0  0  0
   -6.1140   16.4660  -33.7000 N   0  0  0  0  0  0  0  0  0  0  0  0
   -5.6900   15.1460  -33.3310 C   0  0  0  0  0  0  0  0  0  0  0  0
   -6.1040   14.0590  -34.1130 C   0  0  0  0  0  0  0  0  0  0  0  0
   -5.7150   12.7610  -33.7860 C   0  0  0  0  0  0  0  0  0  0  0  0
   -4.8930   12.5320  -32.6850 C   0  0  0  0  0  0  0  0  0  0  0  0
   -4.4640   13.6040  -31.9040 C   0  0  0  0  0  0  0  0  0  0  0  0
   -4.8680   14.9090  -32.2130 C   0  0  0  0  0  0  0  0  0  0  0  0
   -3.9970   17.5340  -34.1360 C   0  0  0  0  0  0  0  0  0  0  0  0
   -3.1900   18.6540  -34.2340 C   0  0  0  0  0  0  0  0  0  0  0  0
   -3.6640   19.8930  -33.8200 C   0  0  0  0  0  0  0  0  0  0  0  0
   -4.9460   20.0300  -33.2420 C   0  0  0  0  0  0  0  0  0  0  0  0
   -5.9605   25.5923  -28.7092 H   0  0  0  0  0  0  0  0  0  0  0  0
   -6.3920   26.7325  -30.0285 H   0  0  0  0  0  0  0  0  0  0  0  0
   -7.0596   25.0649  -30.0285 H   0  0  0  0  0  0  0  0  0  0  0  0
   -5.1294   25.4730  -31.6458 H   0  0  0  0  0  0  0  0  0  0  0  0
   -4.0785   25.6800  -30.1870 H   0  0  0  0  0  0  0  0  0  0  0  0
   -5.8966   24.0078  -28.7007 H   0  0  0  0  0  0  0  0  0  0  0  0
   -5.9981   22.3486  -29.4661 H   0  0  0  0  0  0  0  0  0  0  0  0
   -4.5857   22.8261  -27.2178 H   0  0  0  0  0  0  0  0  0  0  0  0
   -4.1151   21.5955  -28.4388 H   0  0  0  0  0  0  0  0  0  0  0  0
   -3.3249   23.2086  -28.4388 H   0  0  0  0  0  0  0  0  0  0  0  0
   -2.8102   24.1316  -31.0114 H   0  0  0  0  0  0  0  0  0  0  0  0
   -3.0591   22.7491  -29.8741 H   0  0  0  0  0  0  0  0  0  0  0  0
   -2.4982   22.4343  -32.5209 H   0  0  0  0  0  0  0  0  0  0  0  0
   -3.4788   21.2623  -31.5355 H   0  0  0  0  0  0  0  0  0  0  0  0
   -4.2460   22.6780  -33.8150 H   0  0  0  0  0  0  0  0  0  0  0  0
   -5.1410   23.3080  -32.6010 H   0  0  0  0  0  0  0  0  0  0  0  0
   -6.8816   23.5795  -32.5137 H   0  0  0  0  0  0  0  0  0  0  0  0
   -9.2797   23.7110  -31.8737 H   0  0  0  0  0  0  0  0  0  0  0  0
  -10.5971   21.6323  -31.5004 H   0  0  0  0  0  0  0  0  0  0  0  0
   -9.5114   19.4055  -31.7183 H   0  0  0  0  0  0  0  0  0  0  0  0
   -7.4414   17.9971  -30.5725 H   0  0  0  0  0  0  0  0  0  0  0  0
   -8.5858   17.7126  -31.9276 H   0  0  0  0  0  0  0  0  0  0  0  0
   -6.9772   16.9132  -31.9276 H   0  0  0  0  0  0  0  0  0  0  0  0
   -7.1320   16.6190  -33.8810 H   0  0  0  0  0  0  0  0  0  0  0  0
   -6.7416   14.2317  -34.9926 H   0  0  0  0  0  0  0  0  0  0  0  0
   -6.0582   11.9148  -34.3994 H   0  0  0  0  0  0  0  0  0  0  0  0
   -4.5830   11.5073  -32.4323 H   0  0  0  0  0  0  0  0  0  0  0  0
   -3.8054   13.4243  -31.0414 H   0  0  0  0  0  0  0  0  0  0  0  0
   -4.5428   15.7491  -31.5818 H   0  0  0  0  0  0  0  0  0  0  0  0
   -3.6214   16.5599  -34.4825 H   0  0  0  0  0  0  0  0  0  0  0  0
   -2.1718   18.5633  -34.6402 H   0  0  0  0  0  0  0  0  0  0  0  0
   -3.0297   20.7831  -33.9445 H   0  0  0  0  0  0  0  0  0  0  0  0
  1  2  1  0
  2  3  1  0
  3  4  1  0
  4  5  1  0
  3  6  1  0
  6  7  1  0
  7  8  1  0
  8  9  1  0
  9 10  2  0
 10 11  1  0
 11 12  2  0
 12 13  1  0
 13 14  2  0
 14 15  1  0
 15 16  2  0
 16 17  1  0
 16 18  1  0
 18 19  2  0
 19 20  1  0
 20 21  1  0
 21 22  2  0
 22 23  1  0
 23 24  2  0
 24 25  1  0
 25 26  2  0
 19 27  1  0
 27 28  2  0
 28 29  1  0
 29 30  2  0
 30  9  1  0
 15 10  1  0
 30 18  1  0
 26 21  1  0
  1 31  1  0
  1 32  1  0
  1 33  1  0
  2 34  1  0
  2 35  1  0
  4 36  1  0
  4 37  1  0
  5 38  1  0
  5 39  1  0
  5 40  1  0
  6 41  1  0
  6 42  1  0
  7 43  1  0
  7 44  1  0
  8 45  1  0
  8 46  1  0
 11 47  1  0
 12 48  1  0
 13 49  1  0
 14 50  1  0
 17 51  1  0
 17 52  1  0
 17 53  1  0
 20 54  1  0
 22 55  1  0
 23 56  1  0
 24 57  1  0
 25 58  1  0
 26 59  1  0
 27 60  1  0
 28 61  1  0
 29 62  1  0
M  CHG  2   8   1  16   1
M  END
>  <UniqueID>  (4) 
4

>  <SMILES>  (4) 
CCN(CC)CC[NH2+]c1c2ccccc2[n+](C)c2c(Nc3ccccc3)cccc12

>  <Energy>  (4) 
106.86868976637419

>  <Genealogy>  (4) 
CCN(CC)CC[NH2+]c1c2ccccc2[n+](C)c2c(Nc3ccccc3)cccc12 (protonated)
CCN(CC)CC[NH2+]c1c2ccccc2[n+](C)c2c(Nc3ccccc3)cccc12 (3D coordinates assigned)
CCN(CC)CC[NH2+]c1c2ccccc2[n+](C)c2c(Nc3ccccc3)cccc12 (optimized conformer: 106.86868976637419 kcal/mol)

>  <smiles>  (4) 
CCN(CC)CCNc1c2ccccc2[n+](C)c2c(Nc3ccccc3)cccc12

>  <score_type>  (4) 
oracle

>  <origin>  (4) 
adg

>  <m_score__min__energy>  (4) 
-7.8700000000000001

>  <m_primary>  (4) 
energy

$$$$
4:0
     RDKit          3D

 32 34  0  0  0  0  0  0  0  0999 V2000
   -0.3990   24.5120  -29.0420 N   0  0  0  0  0  0  0  0  0  0  0  0
   -1.9820   24.6920  -28.3620 S   0  0  0  0  0  0  0  0  0  0  0  0
   -1.9810   25.8330  -27.3840 O   0  0  0  0  0  0  0  0  0  0  0  0
   -2.3810   23.4320  -27.6470 O   0  0  0  0  0  0  0  0  0  0  0  0
   -3.1080   25.0310  -29.6060 O   0  0  0  0  0  0  0  0  0  0  0  0
   -3.7470   24.0650  -30.3940 C   0  0  0  0  0  0  0  0  0  0  0  0
   -3.0340   22.9080  -30.7260 C   0  0  0  0  0  0  0  0  0  0  0  0
   -3.6270   21.9050  -31.4970 C   0  0  0  0  0  0  0  0  0  0  0  0
   -4.9510   22.0390  -31.9440 C   0  0  0  0  0  0  0  0  0  0  0  0
   -5.6540   23.2150  -31.6480 C   0  0  0  0  0  0  0  0  0  0  0  0
   -5.0650   24.2130  -30.8610 C   0  0  0  0  0  0  0  0  0  0  0  0
   -7.3390   23.4160  -32.2000 S   0  0  0  0  0  0  0  0  0  0  0  0
   -7.9030   22.1370  -31.0360 C   0  0  0  0  0  0  0  0  0  0  0  0
   -7.8880   20.7620  -31.6680 C   0  0  0  0  0  0  0  0  0  0  0  0
   -9.0090   19.9450  -31.4170 C   0  0  0  0  0  0  0  0  0  0  0  0
   -9.1000   18.6620  -31.9530 C   0  0  0  0  0  0  0  0  0  0  0  0
   -8.0710   18.1620  -32.7370 C   0  0  0  0  0  0  0  0  0  0  0  0
   -6.9390   18.9380  -32.9840 C   0  0  0  0  0  0  0  0  0  0  0  0
   -6.8100   20.2420  -32.4560 C   0  0  0  0  0  0  0  0  0  0  0  0
   -5.5380   20.9710  -32.7790 C   0  0  0  0  0  0  0  0  0  0  0  0
   -4.8760   20.6120  -33.7910 O   0  0  0  0  0  0  0  0  0  0  0  0
   -0.4740   24.6940  -30.0670 H   0  0  0  0  0  0  0  0  0  0  0  0
   -0.1230   23.5100  -28.9350 H   0  0  0  0  0  0  0  0  0  0  0  0
   -1.9978   22.7869  -30.3771 H   0  0  0  0  0  0  0  0  0  0  0  0
   -3.0521   21.0036  -31.7557 H   0  0  0  0  0  0  0  0  0  0  0  0
   -5.6368   25.1177  -30.6069 H   0  0  0  0  0  0  0  0  0  0  0  0
   -7.2384   22.1341  -30.1595 H   0  0  0  0  0  0  0  0  0  0  0  0
   -8.9377   22.3699  -30.7442 H   0  0  0  0  0  0  0  0  0  0  0  0
   -9.8260   20.3269  -30.7872 H   0  0  0  0  0  0  0  0  0  0  0  0
   -9.9888   18.0452  -31.7541 H   0  0  0  0  0  0  0  0  0  0  0  0
   -8.1479   17.1515  -33.1647 H   0  0  0  0  0  0  0  0  0  0  0  0
   -6.1288   18.5258  -33.6035 H   0  0  0  0  0  0  0  0  0  0  0  0
  1  2  1  0
  2  3  2  0
  2  4  2  0
  2  5  1  0
  5  6  1  0
  6  7  2  0
  7  8  1  0
  8  9  2  0
  9 10  1  0
 10 11  2  0
 10 12  1  0
 12 13  1  0
 13 14  1  0
 14 15  2  0
 15 16  1  0
 16 17  2  0
 17 18  1  0
 18 19  2  0
 19 20  1  0
 20 21  2  0
 11  6  1  0
 19 14  1  0
 20  9  1  0
  1 22  1  0
  1 23  1  0
  7 24  1  0
  8 25  1  0
 11 26  1  0
 13 27  1  0
 13 28  1  0
 15 29  1  0
 16 30  1  0
 17 31  1  0
 18 32  1  0
M  END
>  <UniqueID>  (5) 
5

>  <SMILES>  (5) 
NS(=O)(=O)Oc1ccc2c(c1)SCc1ccccc1C2=O

>  <Energy>  (5) 
48.72370047523028

>  <Genealogy>  (5) 
NS(=O)(=O)Oc1ccc2c(c1)SCc1ccccc1C2=O (3D coordinates assigned)
NS(=O)(=O)Oc1ccc2c(c1)SCc1ccccc1C2=O (nonaromatic ring conformer: 48.72370047523028 kcal/mol)

>  <smiles>  (5) 
NS(=O)(=O)Oc1ccc2c(c1)SCc1ccccc1C2=O

>  <score_type>  (5) 
oracle

>  <origin>  (5) 
adg

>  <m_score__min__energy>  (5) 
-9.0899999999999999

>  <m_primary>  (5) 
energy

$$$$
5:0
     RDKit          3D

 47 49  0  0  0  0  0  0  0  0999 V2000
   -3.2410   19.9160  -32.9160 C   0  0  0  0  0  0  0  0  0  0  0  0
   -4.1450   19.9630  -31.8350 O   0  0  0  0  0  0  0  0  0  0  0  0
   -3.8700   21.0760  -31.0010 C   0  0  0  0  0  0  0  0  0  0  0  0
   -3.4940   22.2840  -31.8520 C   0  0  0  0  0  0  0  0  0  0  0  0
   -4.6710   22.9830  -32.2380 O   0  0  0  0  0  0  0  0  0  0  0  0
   -5.3040   23.9100  -31.4080 C   0  0  0  0  0  0  0  0  0  0  0  0
   -4.6770   24.9570  -30.8300 N   0  0  0  0  0  0  0  0  0  0  0  0
   -5.6590   25.5830  -30.1470 C   0  0  0  0  0  0  0  0  0  0  0  0
   -6.8520   24.9120  -30.3240 C   0  0  0  0  0  0  0  0  0  0  0  0
   -6.6170   23.8520  -31.1140 N   0  0  0  0  0  0  0  0  0  0  0  0
   -7.5980   22.8890  -31.6150 C   0  0  0  0  0  0  0  0  0  0  0  0
   -7.0520   21.4530  -31.5270 C   0  0  2  0  0  0  0  0  0  0  0  0
   -6.6140   20.8990  -32.9110 C   0  0  0  0  0  0  0  0  0  0  0  0
   -6.7170   19.4280  -32.9200 N   0  0  2  0  0  0  0  0  0  0  0  0
   -6.1950   18.8870  -34.1960 C   0  0  0  0  0  0  0  0  0  0  0  0
   -5.5250   17.5130  -33.9970 C   0  0  0  0  0  0  0  0  0  0  0  0
   -5.7310   16.8810  -32.6290 C   0  0  0  0  0  0  0  0  0  0  0  0
   -6.4750   16.3380  -33.8390 C   0  0  0  0  0  0  0  0  0  0  0  0
   -8.1220   19.0100  -32.6790 C   0  0  0  0  0  0  0  0  0  0  0  0
   -8.8700   19.9850  -31.7470 C   0  0  0  0  0  0  0  0  0  0  0  0
   -7.9760   20.6100  -30.8480 O   0  0  0  0  0  0  0  0  0  0  0  0
   -2.2119   19.8625  -32.5313 H   0  0  0  0  0  0  0  0  0  0  0  0
   -3.4496   19.0275  -33.5300 H   0  0  0  0  0  0  0  0  0  0  0  0
   -3.3563   20.8214  -33.5300 H   0  0  0  0  0  0  0  0  0  0  0  0
   -4.7632   21.3141  -30.4047 H   0  0  0  0  0  0  0  0  0  0  0  0
   -3.0313   20.8290  -30.3335 H   0  0  0  0  0  0  0  0  0  0  0  0
   -2.8452   22.9543  -31.2691 H   0  0  0  0  0  0  0  0  0  0  0  0
   -2.9604   21.9440  -32.7518 H   0  0  0  0  0  0  0  0  0  0  0  0
   -5.5280   26.4913  -29.5406 H   0  0  0  0  0  0  0  0  0  0  0  0
   -7.8239   25.1956  -29.8938 H   0  0  0  0  0  0  0  0  0  0  0  0
   -8.5155   22.9630  -31.0127 H   0  0  0  0  0  0  0  0  0  0  0  0
   -7.8108   23.1202  -32.6692 H   0  0  0  0  0  0  0  0  0  0  0  0
   -6.1307   21.4730  -30.9263 H   0  0  0  0  0  0  0  0  0  0  0  0
   -7.2663   21.3148  -33.6930 H   0  0  0  0  0  0  0  0  0  0  0  0
   -5.5705   21.1895  -33.1028 H   0  0  0  0  0  0  0  0  0  0  0  0
   -6.1180   19.0590  -32.1420 H   0  0  0  0  0  0  0  0  0  0  0  0
   -7.0286   18.7785  -34.9055 H   0  0  0  0  0  0  0  0  0  0  0  0
   -5.4389   19.5861  -34.5828 H   0  0  0  0  0  0  0  0  0  0  0  0
   -4.6546   17.7297  -34.6337 H   0  0  0  0  0  0  0  0  0  0  0  0
   -4.9249   16.2910  -32.1685 H   0  0  0  0  0  0  0  0  0  0  0  0
   -6.0257   17.2526  -31.6365 H   0  0  0  0  0  0  0  0  0  0  0  0
   -6.2073   15.3549  -34.2535 H   0  0  0  0  0  0  0  0  0  0  0  0
   -7.5314   16.1538  -34.0840 H   0  0  0  0  0  0  0  0  0  0  0  0
   -8.6491   18.9678  -33.6436 H   0  0  0  0  0  0  0  0  0  0  0  0
   -8.1013   18.0251  -32.1896 H   0  0  0  0  0  0  0  0  0  0  0  0
   -9.3662   20.7555  -32.3554 H   0  0  0  0  0  0  0  0  0  0  0  0
   -9.6118   19.4168  -31.1666 H   0  0  0  0  0  0  0  0  0  0  0  0
  1  2  1  0
  2  3  1  0
  3  4  1  0
  4  5  1  0
  5  6  1  0
  6  7  2  0
  7  8  1  0
  8  9  2  0
  9 10  1  0
 10 11  1  0
 11 12  1  0
 12 13  1  0
 13 14  1  0
 14 15  1  0
 15 16  1  0
 16 17  1  0
 17 18  1  0
 14 19  1  0
 19 20  1  0
 20 21  1  0
 10  6  1  0
 21 12  1  0
 18 16  1  0
  1 22  1  0
  1 23  1  0
  1 24  1  0
  3 25  1  0
  3 26  1  0
  4 27  1  0
  4 28  1  0
  8 29  1  0
  9 30  1  0
 11 31  1  0
 11 32  1  0
 12 33  1  1
 13 34  1  0
 13 35  1  0
 14 36  1  1
 15 37  1  0
 15 38  1  0
 16 39  1  0
 17 40  1  0
 17 41  1  0
 18 42  1  0
 18 43  1  0
 19 44  1  0
 19 45  1  0
 20 46  1  0
 20 47  1  0
M  CHG  1  14   1
M  END
>  <UniqueID>  (6) 
6

>  <SMILES>  (6) 
COCCOc1nccn1C[C@@H]1C[N@H+](CC2CC2)CCO1

>  <Energy>  (6) 
344.9589561268504

>  <Genealogy>  (6) 
COCCOc1nccn1CC1C[NH+](CC2CC2)CCO1 (protonated)
COCCOc1nccn1C[C@@H]1C[N@H+](CC2CC2)CCO1 (chirality)
COCCOc1nccn1C[C@@H]1C[N@H+](CC2CC2)CCO1 (3D coordinates assigned)
COCCOc1nccn1C[C@@H]1C[N@H+](CC2CC2)CCO1 (nonaromatic ring conformer: 344.9589561268504 kcal/mol)

>  <smiles>  (6) 
COCCOc1nccn1CC1CN(CC2CC2)CCO1

>  <score_type>  (6) 
oracle

>  <origin>  (6) 
adg

>  <m_score__min__energy>  (6) 
-6.8200000000000003

>  <m_primary>  (6) 
energy

$$$$
6:0
     RDKit          3D

 31 31  0  0  0  0  0  0  0  0999 V2000
   -5.3910   24.9320  -29.7870 C   0  0  0  0  0  0  0  0  0  0  0  0
   -3.8910   24.7700  -30.0300 C   0  0  0  0  0  0  0  0  0  0  0  0
   -3.1550   24.2620  -28.7750 C   0  0  2  0  0  0  0  0  0  0  0  0
   -4.0940   24.1800  -27.5680 C   0  0  0  0  0  0  0  0  0  0  0  0
   -1.9800   25.0810  -28.4670 N   0  0  0  0  0  0  0  0  0  0  0  0
   -0.7080   24.6100  -28.0060 C   0  0  0  0  0  0  0  0  0  0  0  0
    0.2640   24.5470  -28.8050 O   0  0  0  0  0  0  0  0  0  0  0  0
   -0.5240   24.1750  -26.5980 C   0  0  0  0  0  0  0  0  0  0  0  0
   -0.6760   22.8730  -26.1300 C   0  0  0  0  0  0  0  0  0  0  0  0
   -1.1630   21.2930  -27.0920 Br  0  0  0  0  0  0  0  0  0  0  0  0
   -0.4400   22.9390  -24.7740 C   0  0  0  0  0  0  0  0  0  0  0  0
   -0.1560   24.2110  -24.4480 N   0  0  0  0  0  0  0  0  0  0  0  0
   -0.1950   24.9620  -25.5400 N   0  0  0  0  0  0  0  0  0  0  0  0
    0.0520   26.4050  -25.5090 C   0  0  0  0  0  0  0  0  0  0  0  0
   -1.2380   27.1600  -25.2050 C   0  0  0  0  0  0  0  0  0  0  0  0
   -5.5869   24.9532  -28.7048 H   0  0  0  0  0  0  0  0  0  0  0  0
   -5.7365   25.8727  -30.2406 H   0  0  0  0  0  0  0  0  0  0  0  0
   -5.9293   24.0868  -30.2406 H   0  0  0  0  0  0  0  0  0  0  0  0
   -3.7393   24.0492  -30.8470 H   0  0  0  0  0  0  0  0  0  0  0  0
   -3.4800   25.7569  -30.2891 H   0  0  0  0  0  0  0  0  0  0  0  0
   -2.8031   23.2442  -28.9992 H   0  0  0  0  0  0  0  0  0  0  0  0
   -3.5045   24.2315  -26.6407 H   0  0  0  0  0  0  0  0  0  0  0  0
   -4.8041   25.0196  -27.5982 H   0  0  0  0  0  0  0  0  0  0  0  0
   -4.6478   23.2301  -27.5982 H   0  0  0  0  0  0  0  0  0  0  0  0
   -0.4779   22.0909  -24.0745 H   0  0  0  0  0  0  0  0  0  0  0  0
    0.0580   24.5620  -23.4880 H   0  0  0  0  0  0  0  0  0  0  0  0
    0.7950   26.6287  -24.7293 H   0  0  0  0  0  0  0  0  0  0  0  0
    0.4279   26.7234  -26.4925 H   0  0  0  0  0  0  0  0  0  0  0  0
   -1.3697   27.2371  -24.1156 H   0  0  0  0  0  0  0  0  0  0  0  0
   -1.1836   28.1688  -25.6401 H   0  0  0  0  0  0  0  0  0  0  0  0
   -2.0910   26.6186  -25.6401 H   0  0  0  0  0  0  0  0  0  0  0  0
  1  2  1  0
  2  3  1  0
  3  4  1  0
  3  5  1  0
  5  6  1  0
  6  7  2  0
  6  8  1  0
  8  9  2  0
  9 10  1  0
  9 11  1  0
 11 12  2  0
 12 13  1  0
 13 14  1  0
 14 15  1  0
 13  8  1  0
  1 16  1  0
  1 17  1  0
  1 18  1  0
  2 19  1  0
  2 20  1  0
  3 21  1  6
  4 22  1  0
  4 23  1  0
  4 24  1  0
 11 25  1  0
 12 26  1  0
 14 27  1  0
 14 28  1  0
 15 29  1  0
 15 30  1  0
 15 31  1  0
M  CHG  2   5  -1  12   1
M  END
>  <UniqueID>  (7) 
7

>  <SMILES>  (7) 
CC[C@H](C)[N-]C(=O)c1c(Br)c[nH+]n1CC

>  <Energy>  (7) 
51.643774230116776

>  <Genealogy>  (7) 
CCC(C)[N-]C(=O)c1c(Br)c[nH+]n1CC (protonated)
CC[C@H](C)[N-]C(=O)c1c(Br)c[nH+]n1CC (chirality)
CC[C@H](C)[N-]C(=O)c1c(Br)c[nH+]n1CC (3D coordinates assigned)
CC[C@H](C)[N-]C(=O)c1c(Br)c[nH+]n1CC (optimized conformer: 51.643774230116776 kcal/mol)

>  <smiles>  (7) 
CCC(C)NC(=O)c1c(Br)cnn1CC

>  <score_type>  (7) 
oracle

>  <origin>  (7) 
adg

>  <m_score__min__energy>  (7) 
-6.5999999999999996

>  <m_primary>  (7) 
energy

$$$$
7:0
     RDKit          3D

 48 51  0  0  0  0  0  0  0  0999 V2000
   -1.8660   25.5810  -28.9190 O   0  0  0  0  0  0  0  0  0  0  0  0
   -2.5290   24.6250  -29.3980 C   0  0  0  0  0  0  0  0  0  0  0  0
   -3.4410   24.8930  -30.4710 N   0  0  0  0  0  0  0  0  0  0  0  0
   -4.7860   24.4050  -30.5820 C   0  0  0  0  0  0  0  0  0  0  0  0
   -5.8760   25.1260  -30.0660 C   0  0  0  0  0  0  0  0  0  0  0  0
   -7.1720   24.6260  -30.1990 C   0  0  0  0  0  0  0  0  0  0  0  0
   -7.3960   23.4170  -30.8590 C   0  0  0  0  0  0  0  0  0  0  0  0
   -6.3200   22.6930  -31.4060 C   0  0  0  0  0  0  0  0  0  0  0  0
   -6.5560   21.4120  -32.1200 C   0  0  0  0  0  0  0  0  0  0  0  0
   -7.7140   20.6270  -31.9530 C   0  0  0  0  0  0  0  0  0  0  0  0
   -7.7240   19.4710  -32.7190 C   0  0  0  0  0  0  0  0  0  0  0  0
   -6.3000   19.4190  -33.6050 S   0  0  0  0  0  0  0  0  0  0  0  0
   -5.6530   20.8570  -33.0280 C   0  0  0  0  0  0  0  0  0  0  0  0
   -5.0170   23.2070  -31.2680 C   0  0  0  0  0  0  0  0  0  0  0  0
   -2.2860   23.2430  -28.9140 C   0  0  0  0  0  0  0  0  0  0  0  0
   -2.2590   23.0200  -27.5260 C   0  0  0  0  0  0  0  0  0  0  0  0
   -2.0080   21.7480  -27.0110 C   0  0  0  0  0  0  0  0  0  0  0  0
   -1.7760   20.6800  -27.8730 C   0  0  0  0  0  0  0  0  0  0  0  0
   -1.7950   20.8770  -29.2530 C   0  0  0  0  0  0  0  0  0  0  0  0
   -2.0560   22.1500  -29.7990 C   0  0  0  0  0  0  0  0  0  0  0  0
   -2.0560   22.3110  -31.2380 N   0  0  0  0  0  0  0  0  0  0  0  0
   -2.6590   21.1480  -31.9150 C   0  0  0  0  0  0  0  0  0  0  0  0
   -1.7970   20.6410  -33.0450 C   0  0  0  0  0  0  0  0  0  0  0  0
   -1.8370   19.2870  -33.4190 C   0  0  0  0  0  0  0  0  0  0  0  0
   -1.0100   18.8150  -34.4440 C   0  0  0  0  0  0  0  0  0  0  0  0
   -0.1390   19.6890  -35.0980 C   0  0  0  0  0  0  0  0  0  0  0  0
   -0.0900   21.0360  -34.7290 C   0  0  0  0  0  0  0  0  0  0  0  0
   -0.9140   21.5120  -33.7050 C   0  0  0  0  0  0  0  0  0  0  0  0
   -5.7075   26.0861  -29.5564 H   0  0  0  0  0  0  0  0  0  0  0  0
   -8.0209   25.1874  -29.7817 H   0  0  0  0  0  0  0  0  0  0  0  0
   -8.4204   23.0272  -30.9524 H   0  0  0  0  0  0  0  0  0  0  0  0
   -8.5354   20.9057  -31.2766 H   0  0  0  0  0  0  0  0  0  0  0  0
   -8.5262   18.7187  -32.7418 H   0  0  0  0  0  0  0  0  0  0  0  0
   -4.6830   21.2881  -33.3164 H   0  0  0  0  0  0  0  0  0  0  0  0
   -4.1688   22.6598  -31.7052 H   0  0  0  0  0  0  0  0  0  0  0  0
   -2.4380   23.8590  -26.8376 H   0  0  0  0  0  0  0  0  0  0  0  0
   -1.9934   21.5889  -25.9227 H   0  0  0  0  0  0  0  0  0  0  0  0
   -1.5772   19.6782  -27.4644 H   0  0  0  0  0  0  0  0  0  0  0  0
   -1.6037   20.0274  -29.9250 H   0  0  0  0  0  0  0  0  0  0  0  0
   -2.5780   23.1760  -31.5070 H   0  0  0  0  0  0  0  0  0  0  0  0
   -1.0770   22.4530  -31.5810 H   0  0  0  0  0  0  0  0  0  0  0  0
   -2.7931   20.3400  -31.1807 H   0  0  0  0  0  0  0  0  0  0  0  0
   -3.6232   21.4646  -32.3394 H   0  0  0  0  0  0  0  0  0  0  0  0
   -2.5207   18.5960  -32.9042 H   0  0  0  0  0  0  0  0  0  0  0  0
   -1.0459   17.7548  -34.7349 H   0  0  0  0  0  0  0  0  0  0  0  0
    0.5094   19.3166  -35.9048 H   0  0  0  0  0  0  0  0  0  0  0  0
    0.5976   21.7224  -35.2448 H   0  0  0  0  0  0  0  0  0  0  0  0
   -0.8709   22.5722  -33.4150 H   0  0  0  0  0  0  0  0  0  0  0  0
  1  2  2  0
  2  3  1  0
  3  4  1  0
  4  5  2  0
  5  6  1  0
  6  7  2  0
  7  8  1  0
  8  9  1  0
  9 10  1  0
 10 11  2  0
 11 12  1  0
 12 13  1  0
  8 14  2  0
  2 15  1  0
 15 16  2  0
 16 17  1  0
 17 18  2  0
 18 19  1  0
 19 20  2  0
 20 21  1  0
 21 22  1  0
 22 23  1  0
 23 24  2  0
 24 25  1  0
 25 26  2  0
 26 27  1  0
 27 28  2  0
 14  4  1  0
 20 15  1  0
 28 23  1  0
 13  9  2  0
  5 29  1  0
  6 30  1  0
  7 31  1  0
 10 32  1  0
 11 33  1  0
 13 34  1  0
 14 35  1  0
 16 36  1  0
 17 37  1  0
 18 38  1  0
 19 39  1  0
 21 40  1  0
 21 41  1  0
 22 42  1  0
 22 43  1  0
 24 44  1  0
 25 45  1  0
 26 46  1  0
 27 47  1  0
 28 48  1  0
M  CHG  2   3  -1  21   1
M  END
>  <UniqueID>  (8) 
8

>  <SMILES>  (8) 
O=C([N-]c1cccc(-c2ccsc2)c1)c1ccccc1[NH2+]Cc1ccccc1

>  <Energy>  (8) 
92.49367916812399

>  <Genealogy>  (8) 
O=C([N-]c1cccc(-c2ccsc2)c1)c1ccccc1[NH2+]Cc1ccccc1 (protonated)
O=C([N-]c1cccc(-c2ccsc2)c1)c1ccccc1[NH2+]Cc1ccccc1 (3D coordinates assigned)
O=C([N-]c1cccc(-c2ccsc2)c1)c1ccccc1[NH2+]Cc1ccccc1 (optimized conformer: 92.49367916812399 kcal/mol)

>  <smiles>  (8) 
O=C(Nc1cccc(-c2ccsc2)c1)c1ccccc1NCc1ccccc1

>  <score_type>  (8) 
oracle

>  <origin>  (8) 
adg

>  <m_score__min__energy>  (8) 
-10.93

>  <m_primary>  (8) 
energy

$$$$
8:0
     RDKit          3D

 44 46  0  0  0  0  0  0  0  0999 V2000
   -3.0460   19.0070  -26.4980 C   0  0  0  0  0  0  0  0  0  0  0  0
   -1.6160   19.3470  -26.5650 N   0  0  0  0  0  0  0  0  0  0  0  0
   -1.4560   20.8070  -26.4620 C   0  0  0  0  0  0  0  0  0  0  0  0
   -1.0080   18.8660  -27.8250 C   0  0  0  0  0  0  0  0  0  0  0  0
    0.2360   19.6900  -28.2190 C   0  0  0  0  0  0  0  0  0  0  0  0
    0.2760   19.9990  -29.6530 N   0  0  0  0  0  0  0  0  0  0  0  0
   -0.8870   20.3110  -30.4510 C   0  0  0  0  0  0  0  0  0  0  0  0
   -1.5250   21.5720  -30.3260 C   0  0  0  0  0  0  0  0  0  0  0  0
   -1.0790   22.5610  -29.4210 C   0  0  0  0  0  0  0  0  0  0  0  0
   -1.7310   23.7930  -29.3390 C   0  0  0  0  0  0  0  0  0  0  0  0
   -2.8300   24.0660  -30.1530 C   0  0  0  0  0  0  0  0  0  0  0  0
   -3.4710   25.2940  -30.0660 O   0  0  0  0  0  0  0  0  0  0  0  0
   -3.2820   23.1050  -31.0580 C   0  0  0  0  0  0  0  0  0  0  0  0
   -2.6360   21.8610  -31.1520 C   0  0  0  0  0  0  0  0  0  0  0  0
   -3.0820   20.9120  -32.0700 C   0  0  0  0  0  0  0  0  0  0  0  0
   -2.4370   19.6760  -32.1610 C   0  0  0  0  0  0  0  0  0  0  0  0
   -2.9200   18.6830  -33.1460 C   0  0  0  0  0  0  0  0  0  0  0  0
   -2.0090   18.1000  -34.0420 C   0  0  0  0  0  0  0  0  0  0  0  0
   -2.4430   17.1640  -34.9850 C   0  0  0  0  0  0  0  0  0  0  0  0
   -3.7910   16.8000  -35.0380 C   0  0  0  0  0  0  0  0  0  0  0  0
   -4.7040   17.3630  -34.1440 C   0  0  0  0  0  0  0  0  0  0  0  0
   -4.2780   18.3020  -33.1960 C   0  0  0  0  0  0  0  0  0  0  0  0
   -5.4590   18.9380  -32.0530 Cl  0  0  0  0  0  0  0  0  0  0  0  0
   -1.3810   19.3890  -31.3410 N   0  0  0  0  0  0  0  0  0  0  0  0
   -0.8620   18.1140  -31.3610 O   0  0  0  0  0  0  0  0  0  0  0  0
   -3.3564   18.9332  -25.4453 H   0  0  0  0  0  0  0  0  0  0  0  0
   -3.6331   19.7906  -26.9993 H   0  0  0  0  0  0  0  0  0  0  0  0
   -3.2176   18.0430  -26.9993 H   0  0  0  0  0  0  0  0  0  0  0  0
   -1.4241   21.0985  -25.4018 H   0  0  0  0  0  0  0  0  0  0  0  0
   -0.5194   21.1088  -26.9536 H   0  0  0  0  0  0  0  0  0  0  0  0
   -2.3050   21.3045  -26.9536 H   0  0  0  0  0  0  0  0  0  0  0  0
   -0.7114   17.8145  -27.6973 H   0  0  0  0  0  0  0  0  0  0  0  0
   -1.7547   18.9748  -28.6254 H   0  0  0  0  0  0  0  0  0  0  0  0
    0.2264   20.6344  -27.6551 H   0  0  0  0  0  0  0  0  0  0  0  0
    1.1246   19.0862  -27.9829 H   0  0  0  0  0  0  0  0  0  0  0  0
    1.2060   19.9350  -30.1230 H   0  0  0  0  0  0  0  0  0  0  0  0
   -0.2113   22.3589  -28.7759 H   0  0  0  0  0  0  0  0  0  0  0  0
   -1.3755   24.5531  -28.6278 H   0  0  0  0  0  0  0  0  0  0  0  0
   -4.1479   23.3224  -31.7006 H   0  0  0  0  0  0  0  0  0  0  0  0
   -3.9398   21.1355  -32.7214 H   0  0  0  0  0  0  0  0  0  0  0  0
   -0.9465   18.3820  -34.0013 H   0  0  0  0  0  0  0  0  0  0  0  0
   -1.7236   16.7141  -35.6851 H   0  0  0  0  0  0  0  0  0  0  0  0
   -4.1335   16.0689  -35.7851 H   0  0  0  0  0  0  0  0  0  0  0  0
   -5.7628   17.0677  -34.1844 H   0  0  0  0  0  0  0  0  0  0  0  0
  1  2  1  0
  2  3  1  0
  2  4  1  0
  4  5  1  0
  5  6  1  0
  6  7  1  0
  7  8  2  0
  8  9  1  0
  9 10  2  0
 10 11  1  0
 11 12  1  0
 11 13  2  0
 13 14  1  0
 14 15  2  0
 15 16  1  0
 16 17  1  0
 17 18  2  0
 18 19  1  0
 19 20  2  0
 20 21  1  0
 21 22  2  0
 22 23  1  0
 16 24  2  0
 24 25  1  0
 24  7  1  0
 14  8  1  0
 22 17  1  0
  1 26  1  0
  1 27  1  0
  1 28  1  0
  3 29  1  0
  3 30  1  0
  3 31  1  0
  4 32  1  0
  4 33  1  0
  5 34  1  0
  5 35  1  0
  6 36  1  0
  9 37  1  0
 10 38  1  0
 13 39  1  0
 15 40  1  0
 18 41  1  0
 19 42  1  0
 20 43  1  0
 21 44  1  0
M  CHG  3  12  -1  24   1  25  -1
M  END
>  <UniqueID>  (9) 
9

>  <SMILES>  (9) 
CN(C)CCNc1c2ccc([O-])cc2cc(-c2ccccc2Cl)[n+]1[O-]

>  <Energy>  (9) 
63.52436567402762

>  <Genealogy>  (9) 
CN(C)CCNc1c2ccc([O-])cc2cc(-c2ccccc2Cl)[n+]1[O-] (protonated)
CN(C)CCNc1c2ccc([O-])cc2cc(-c2ccccc2Cl)[n+]1[O-] (3D coordinates assigned)
CN(C)CCNc1c2ccc([O-])cc2cc(-c2ccccc2Cl)[n+]1[O-] (optimized conformer: 63.52436567402762 kcal/mol)

>  <smiles>  (9) 
CN(C)CCNc1c2ccc(O)cc2cc(-c2ccccc2Cl)[n+]1[O-]

>  <score_type>  (9) 
oracle

>  <origin>  (9) 
adg

>  <m_score__min__energy>  (9) 
-10.26

>  <m_primary>  (9) 
energy

$$$$
9:0
     RDKit          3D

 40 43  0  0  0  0  0  0  0  0999 V2000
   -0.7110   20.7800  -33.6450 C   0  0  0  0  0  0  0  0  0  0  0  0
   -1.4310   21.2330  -32.4100 C   0  0  0  0  0  0  0  0  0  0  0  0
   -0.9040   20.9500  -31.1410 C   0  0  0  0  0  0  0  0  0  0  0  0
   -1.5950   21.3390  -29.9910 C   0  0  0  0  0  0  0  0  0  0  0  0
   -2.8190   22.0030  -30.0980 C   0  0  0  0  0  0  0  0  0  0  0  0
   -3.3620   22.2900  -31.3620 C   0  0  0  0  0  0  0  0  0  0  0  0
   -4.6650   22.9830  -31.4830 C   0  0  0  0  0  0  0  0  0  0  0  0
   -5.7910   22.5000  -32.0290 C   0  0  0  0  0  0  0  0  0  0  0  0
   -6.0200   21.1220  -32.5040 C   0  0  0  0  0  0  0  0  0  0  0  0
   -5.2130   20.4060  -33.3870 C   0  0  0  0  0  0  0  0  0  0  0  0
   -5.7210   19.1670  -33.5810 N   0  0  0  0  0  0  0  0  0  0  0  0
   -5.1740   18.1380  -34.4610 C   0  0  0  0  0  0  0  0  0  0  0  0
   -6.8440   19.0920  -32.8390 C   0  0  0  0  0  0  0  0  0  0  0  0
   -7.7330   18.0190  -32.7350 C   0  0  0  0  0  0  0  0  0  0  0  0
   -8.8670   18.1800  -31.9180 C   0  0  0  0  0  0  0  0  0  0  0  0
   -9.0910   19.3950  -31.2370 C   0  0  0  0  0  0  0  0  0  0  0  0
   -8.1820   20.4610  -31.3630 C   0  0  0  0  0  0  0  0  0  0  0  0
   -7.0560   20.2690  -32.1640 C   0  0  0  0  0  0  0  0  0  0  0  0
   -6.8100   23.5490  -31.9410 C   0  0  0  0  0  0  0  0  0  0  0  0
   -8.0150   23.4310  -32.2870 O   0  0  0  0  0  0  0  0  0  0  0  0
   -6.2820   24.7190  -31.3390 N   0  0  0  0  0  0  0  0  0  0  0  0
   -4.9410   24.3570  -31.0510 C   0  0  0  0  0  0  0  0  0  0  0  0
   -4.1100   25.1370  -30.5150 O   0  0  0  0  0  0  0  0  0  0  0  0
   -2.6700   21.8860  -32.5150 C   0  0  0  0  0  0  0  0  0  0  0  0
    0.1880   20.2144  -33.3587 H   0  0  0  0  0  0  0  0  0  0  0  0
   -1.3747   20.1365  -34.2411 H   0  0  0  0  0  0  0  0  0  0  0  0
   -0.4181   21.6569  -34.2411 H   0  0  0  0  0  0  0  0  0  0  0  0
    0.0559   20.4204  -31.0513 H   0  0  0  0  0  0  0  0  0  0  0  0
   -1.1739   21.1217  -28.9983 H   0  0  0  0  0  0  0  0  0  0  0  0
   -3.3605   22.3027  -29.1887 H   0  0  0  0  0  0  0  0  0  0  0  0
   -4.2967   20.7921  -33.8575 H   0  0  0  0  0  0  0  0  0  0  0  0
   -4.7433   17.3278  -33.8543 H   0  0  0  0  0  0  0  0  0  0  0  0
   -5.9764   17.7340  -35.0958 H   0  0  0  0  0  0  0  0  0  0  0  0
   -4.3903   18.5771  -35.0958 H   0  0  0  0  0  0  0  0  0  0  0  0
   -7.5519   17.0779  -33.2750 H   0  0  0  0  0  0  0  0  0  0  0  0
   -9.5839   17.3528  -31.8095 H   0  0  0  0  0  0  0  0  0  0  0  0
   -9.9827   19.5095  -30.6031 H   0  0  0  0  0  0  0  0  0  0  0  0
   -8.3537   21.4166  -30.8459 H   0  0  0  0  0  0  0  0  0  0  0  0
   -6.7700   25.6170  -31.1260 H   0  0  0  0  0  0  0  0  0  0  0  0
   -3.1014   22.0823  -33.5077 H   0  0  0  0  0  0  0  0  0  0  0  0
  1  2  1  0
  2  3  2  0
  3  4  1  0
  4  5  2  0
  5  6  1  0
  6  7  1  0
  7  8  2  0
  8  9  1  0
  9 10  2  0
 10 11  1  0
 11 12  1  0
 11 13  1  0
 13 14  2  0
 14 15  1  0
 15 16  2  0
 16 17  1  0
 17 18  2  0
  8 19  1  0
 19 20  2  0
 19 21  1  0
 21 22  1  0
 22 23  2  0
  6 24  2  0
 24  2  1  0
 22  7  1  0
 18  9  1  0
 18 13  1  0
  1 25  1  0
  1 26  1  0
  1 27  1  0
  3 28  1  0
  4 29  1  0
  5 30  1  0
 10 31  1  0
 12 32  1  0
 12 33  1  0
 12 34  1  0
 14 35  1  0
 15 36  1  0
 16 37  1  0
 17 38  1  0
 21 39  1  0
 24 40  1  0
M  END
>  <UniqueID>  (10) 
10

>  <SMILES>  (10) 
Cc1cccc(C2=C(c3cn(C)c4ccccc34)C(=O)NC2=O)c1

>  <Energy>  (10) 
111.27551203746802

>  <Genealogy>  (10) 
Cc1cccc(C2=C(c3cn(C)c4ccccc34)C(=O)NC2=O)c1 (3D coordinates assigned)
Cc1cccc(C2=C(c3cn(C)c4ccccc34)C(=O)NC2=O)c1 (nonaromatic ring conformer: 111.27551203746802 kcal/mol)

>  <smiles>  (10) 
Cc1cccc(C2=C(c3cn(C)c4ccccc34)C(=O)NC2=O)c1

>  <score_type>  (10) 
oracle

>  <origin>  (10) 
adg

>  <m_score__min__energy>  (10) 
-9.2599999999999998

>  <m_primary>  (10) 
energy

$$$$
10:0
     RDKit          3D

 50 52  0  0  0  0  0  0  0  0999 V2000
   -6.8600   14.7780  -34.2440 C   0  0  0  0  0  0  0  0  0  0  0  0
   -6.1140   15.6130  -33.3640 O   0  0  0  0  0  0  0  0  0  0  0  0
   -6.3330   16.9890  -33.1980 C   0  0  0  0  0  0  0  0  0  0  0  0
   -7.3790   17.4900  -32.3980 C   0  0  0  0  0  0  0  0  0  0  0  0
   -7.5660   18.8670  -32.2590 C   0  0  0  0  0  0  0  0  0  0  0  0
   -6.7190   19.7670  -32.9210 C   0  0  0  0  0  0  0  0  0  0  0  0
   -6.8920   21.2490  -32.7310 C   0  0  0  0  0  0  0  0  0  0  0  0
   -6.3130   21.6500  -31.4450 N   0  0  0  0  0  0  0  0  0  0  0  0
   -7.3600   22.1120  -30.5270 C   0  0  0  0  0  0  0  0  0  0  0  0
   -6.9090   23.3710  -29.7720 C   0  0  0  0  0  0  0  0  0  0  0  0
   -6.5870   24.5550  -30.7050 C   0  0  0  0  0  0  0  0  0  0  0  0
   -5.7260   25.6290  -30.0250 C   0  0  0  0  0  0  0  0  0  0  0  0
   -4.3320   25.5120  -30.4480 N   0  0  0  0  0  0  0  0  0  0  0  0
   -3.5820   24.2840  -30.4600 C   0  0  0  0  0  0  0  0  0  0  0  0
   -2.6780   23.9490  -29.4340 C   0  0  0  0  0  0  0  0  0  0  0  0
   -1.9740   22.7430  -29.4920 C   0  0  0  0  0  0  0  0  0  0  0  0
   -1.1630   22.4540  -28.5710 O   0  0  0  0  0  0  0  0  0  0  0  0
   -2.1760   21.8670  -30.5740 C   0  0  0  0  0  0  0  0  0  0  0  0
   -1.4940   20.6410  -30.6800 C   0  0  0  0  0  0  0  0  0  0  0  0
   -1.7280   19.8000  -31.7720 C   0  0  0  0  0  0  0  0  0  0  0  0
   -2.6390   20.1720  -32.7650 C   0  0  0  0  0  0  0  0  0  0  0  0
   -3.3210   21.3880  -32.6710 C   0  0  0  0  0  0  0  0  0  0  0  0
   -3.0950   22.2380  -31.5810 C   0  0  0  0  0  0  0  0  0  0  0  0
   -3.7610   23.4190  -31.4950 N   0  0  0  0  0  0  0  0  0  0  0  0
   -5.6680   19.2720  -33.7060 C   0  0  0  0  0  0  0  0  0  0  0  0
   -5.4780   17.8930  -33.8490 C   0  0  0  0  0  0  0  0  0  0  0  0
   -4.0390   17.2580  -34.9380 Br  0  0  0  0  0  0  0  0  0  0  0  0
   -7.4790   14.0851  -33.6552 H   0  0  0  0  0  0  0  0  0  0  0  0
   -7.5084   15.4003  -34.8783 H   0  0  0  0  0  0  0  0  0  0  0  0
   -6.1688   14.2036  -34.8783 H   0  0  0  0  0  0  0  0  0  0  0  0
   -8.0528   16.7920  -31.8795 H   0  0  0  0  0  0  0  0  0  0  0  0
   -8.3820   19.2474  -31.6269 H   0  0  0  0  0  0  0  0  0  0  0  0
   -6.3820   21.7846  -33.5452 H   0  0  0  0  0  0  0  0  0  0  0  0
   -7.9637   21.4965  -32.7426 H   0  0  0  0  0  0  0  0  0  0  0  0
   -5.6630   22.4540  -31.6190 H   0  0  0  0  0  0  0  0  0  0  0  0
   -8.2680   22.3433  -31.1032 H   0  0  0  0  0  0  0  0  0  0  0  0
   -7.5623   21.3163  -29.7950 H   0  0  0  0  0  0  0  0  0  0  0  0
   -7.7138   23.6748  -29.0864 H   0  0  0  0  0  0  0  0  0  0  0  0
   -5.9834   23.1165  -29.2350 H   0  0  0  0  0  0  0  0  0  0  0  0
   -6.0452   24.1737  -31.5831 H   0  0  0  0  0  0  0  0  0  0  0  0
   -7.5410   25.0241  -30.9874 H   0  0  0  0  0  0  0  0  0  0  0  0
   -6.1052   26.6243  -30.2998 H   0  0  0  0  0  0  0  0  0  0  0  0
   -5.7796   25.4900  -28.9351 H   0  0  0  0  0  0  0  0  0  0  0  0
   -3.8660   26.3710  -30.8200 H   0  0  0  0  0  0  0  0  0  0  0  0
   -2.5260   24.6354  -28.5880 H   0  0  0  0  0  0  0  0  0  0  0  0
   -0.7753   20.3436  -29.9022 H   0  0  0  0  0  0  0  0  0  0  0  0
   -1.1933   18.8419  -31.8502 H   0  0  0  0  0  0  0  0  0  0  0  0
   -2.8193   19.5063  -33.6219 H   0  0  0  0  0  0  0  0  0  0  0  0
   -4.0366   21.6782  -33.4544 H   0  0  0  0  0  0  0  0  0  0  0  0
   -4.9881   19.9725  -34.2130 H   0  0  0  0  0  0  0  0  0  0  0  0
  1  2  1  0
  2  3  1  0
  3  4  2  0
  4  5  1  0
  5  6  2  0
  6  7  1  0
  7  8  1  0
  8  9  1  0
  9 10  1  0
 10 11  1  0
 11 12  1  0
 12 13  1  0
 13 14  1  0
 14 15  2  0
 15 16  1  0
 16 17  2  0
 16 18  1  0
 18 19  2  0
 19 20  1  0
 20 21  2  0
 21 22  1  0
 22 23  2  0
 23 24  1  0
  6 25  1  0
 25 26  2  0
 26 27  1  0
 26  3  1  0
 24 14  1  0
 23 18  1  0
  1 28  1  0
  1 29  1  0
  1 30  1  0
  4 31  1  0
  5 32  1  0
  7 33  1  0
  7 34  1  0
  8 35  1  0
  9 36  1  0
  9 37  1  0
 10 38  1  0
 10 39  1  0
 11 40  1  0
 11 41  1  0
 12 42  1  0
 12 43  1  0
 13 44  1  0
 15 45  1  0
 19 46  1  0
 20 47  1  0
 21 48  1  0
 22 49  1  0
 25 50  1  0
M  CHG  1  24  -1
M  END
>  <UniqueID>  (11) 
11

>  <SMILES>  (11) 
COc1ccc(CNCCCCNc2cc(=O)c3ccccc3[n-]2)cc1Br

>  <Energy>  (11) 
47.793007078249424

>  <Genealogy>  (11) 
COc1ccc(CNCCCCNc2cc(=O)c3ccccc3[n-]2)cc1Br (protonated)
COc1ccc(CNCCCCNc2cc(=O)c3ccccc3[n-]2)cc1Br (3D coordinates assigned)
COc1ccc(CNCCCCNc2cc(=O)c3ccccc3[n-]2)cc1Br (optimized conformer: 47.793007078249424 kcal/mol)

>  <smiles>  (11) 
COc1ccc(CNCCCCNc2cc(=O)c3ccccc3[nH]2)cc1Br

>  <score_type>  (11) 
oracle

>  <origin>  (11) 
adg

>  <m_score__min__energy>  (11) 
-10.869999999999999

>  <m_primary>  (11) 
energy

$$$$
11:0
     RDKit          3D

 46 48  0  0  0  0  0  0  0  0999 V2000
    0.5560   16.8210  -35.5130 C   0  0  0  0  0  0  0  0  0  0  0  0
   -0.6160   17.5290  -35.1270 O   0  0  0  0  0  0  0  0  0  0  0  0
   -0.6400   18.8740  -34.7180 C   0  0  0  0  0  0  0  0  0  0  0  0
    0.4080   19.7610  -35.0310 C   0  0  0  0  0  0  0  0  0  0  0  0
    0.3660   21.0870  -34.5970 C   0  0  0  0  0  0  0  0  0  0  0  0
   -0.7150   21.5450  -33.8440 C   0  0  0  0  0  0  0  0  0  0  0  0
   -1.7610   20.6760  -33.5250 C   0  0  0  0  0  0  0  0  0  0  0  0
   -1.7400   19.3420  -33.9650 C   0  0  0  0  0  0  0  0  0  0  0  0
   -2.8730   18.4180  -33.5740 C   0  0  0  0  0  0  0  0  0  0  0  0
   -3.0290   17.3000  -34.5220 N   0  0  0  0  0  0  0  0  0  0  0  0
   -4.4100   16.7900  -34.5510 C   0  0  0  0  0  0  0  0  0  0  0  0
   -5.2520   17.4100  -33.4250 C   0  0  0  0  0  0  0  0  0  0  0  0
   -6.4790   18.1580  -33.9670 C   0  0  0  0  0  0  0  0  0  0  0  0
   -6.9480   19.1710  -33.0190 N   0  0  0  0  0  0  0  0  0  0  0  0
   -8.1390   19.1620  -32.3710 C   0  0  0  0  0  0  0  0  0  0  0  0
   -8.2890   20.3140  -31.6080 C   0  0  0  0  0  0  0  0  0  0  0  0
   -7.1360   21.0400  -31.8160 C   0  0  0  0  0  0  0  0  0  0  0  0
   -6.7500   22.2820  -31.3140 C   0  0  0  0  0  0  0  0  0  0  0  0
   -5.5020   22.7950  -31.7160 C   0  0  0  0  0  0  0  0  0  0  0  0
   -5.0600   24.0730  -31.2240 C   0  0  0  0  0  0  0  0  0  0  0  0
   -4.7040   25.1010  -30.8290 N   0  0  0  0  0  0  0  0  0  0  0  0
   -4.6810   22.0590  -32.6040 C   0  0  0  0  0  0  0  0  0  0  0  0
   -5.1010   20.8090  -33.0940 C   0  0  0  0  0  0  0  0  0  0  0  0
   -6.3430   20.3260  -32.6760 C   0  0  0  0  0  0  0  0  0  0  0  0
    1.0989   16.4930  -34.6143 H   0  0  0  0  0  0  0  0  0  0  0  0
    0.2732   15.9425  -36.1116 H   0  0  0  0  0  0  0  0  0  0  0  0
    1.2020   17.4800  -36.1116 H   0  0  0  0  0  0  0  0  0  0  0  0
    1.2656   19.4065  -35.6216 H   0  0  0  0  0  0  0  0  0  0  0  0
    1.1880   21.7729  -34.8496 H   0  0  0  0  0  0  0  0  0  0  0  0
   -0.7438   22.5899  -33.5016 H   0  0  0  0  0  0  0  0  0  0  0  0
   -2.6080   21.0391  -32.9244 H   0  0  0  0  0  0  0  0  0  0  0  0
   -2.6679   18.0089  -32.5737 H   0  0  0  0  0  0  0  0  0  0  0  0
   -3.8050   19.0022  -33.5829 H   0  0  0  0  0  0  0  0  0  0  0  0
   -2.7470   17.6100  -35.4820 H   0  0  0  0  0  0  0  0  0  0  0  0
   -2.3850   16.5310  -34.2210 H   0  0  0  0  0  0  0  0  0  0  0  0
   -4.8655   17.0411  -35.5203 H   0  0  0  0  0  0  0  0  0  0  0  0
   -4.3831   15.6997  -34.4076 H   0  0  0  0  0  0  0  0  0  0  0  0
   -5.5932   16.6078  -32.7542 H   0  0  0  0  0  0  0  0  0  0  0  0
   -4.6214   18.1356  -32.8903 H   0  0  0  0  0  0  0  0  0  0  0  0
   -6.2092   18.6505  -34.9129 H   0  0  0  0  0  0  0  0  0  0  0  0
   -7.2879   17.4292  -34.1238 H   0  0  0  0  0  0  0  0  0  0  0  0
   -8.8833   18.3549  -32.4396 H   0  0  0  0  0  0  0  0  0  0  0  0
   -9.1450   20.5878  -30.9737 H   0  0  0  0  0  0  0  0  0  0  0  0
   -7.3995   22.8431  -30.6260 H   0  0  0  0  0  0  0  0  0  0  0  0
   -3.7076   22.4675  -32.9131 H   0  0  0  0  0  0  0  0  0  0  0  0
   -4.4707   20.2299  -33.7850 H   0  0  0  0  0  0  0  0  0  0  0  0
  1  2  1  0
  2  3  1  0
  3  4  2  0
  4  5  1  0
  5  6  2  0
  6  7  1  0
  7  8  2  0
  8  9  1  0
  9 10  1  0
 10 11  1  0
 11 12  1  0
 12 13  1  0
 13 14  1  0
 14 15  1  0
 15 16  2  0
 16 17  1  0
 17 18  2  0
 18 19  1  0
 19 20  1  0
 20 21  3  0
 19 22  2  0
 22 23  1  0
 23 24  2  0
  8  3  1  0
 24 14  1  0
 24 17  1  0
  1 25  1  0
  1 26  1  0
  1 27  1  0
  4 28  1  0
  5 29  1  0
  6 30  1  0
  7 31  1  0
  9 32  1  0
  9 33  1  0
 10 34  1  0
 10 35  1  0
 11 36  1  0
 11 37  1  0
 12 38  1  0
 12 39  1  0
 13 40  1  0
 13 41  1  0
 15 42  1  0
 16 43  1  0
 18 44  1  0
 22 45  1  0
 23 46  1  0
M  CHG  1  10   1
M  END
>  <UniqueID>  (12) 
12

>  <SMILES>  (12) 
COc1ccccc1C[NH2+]CCCn1ccc2cc(C#N)ccc21

>  <Energy>  (12) 
73.91360868219034

>  <Genealogy>  (12) 
COc1ccccc1C[NH2+]CCCn1ccc2cc(C#N)ccc21 (protonated)
COc1ccccc1C[NH2+]CCCn1ccc2cc(C#N)ccc21 (3D coordinates assigned)
COc1ccccc1C[NH2+]CCCn1ccc2cc(C#N)ccc21 (optimized conformer: 73.91360868219034 kcal/mol)

>  <smiles>  (12) 
COc1ccccc1CNCCCn1ccc2cc(C#N)ccc21

>  <score_type>  (12) 
oracle

>  <origin>  (12) 
adg

>  <m_score__min__energy>  (12) 
-7.9699999999999998

>  <m_primary>  (12) 
energy

$$$$
12:0
     RDKit          3D

 21 22  0  0  0  0  0  0  0  0999 V2000
   -9.2670   21.5480  -31.5590 Br  0  0  0  0  0  0  0  0  0  0  0  0
   -7.5550   22.3880  -31.6300 C   0  0  0  0  0  0  0  0  0  0  0  0
   -6.4900   21.8740  -32.3600 C   0  0  0  0  0  0  0  0  0  0  0  0
   -5.1770   22.9080  -32.1670 S   0  0  0  0  0  0  0  0  0  0  0  0
   -5.9530   24.0020  -31.1510 C   0  0  0  0  0  0  0  0  0  0  0  0
   -5.3420   25.2580  -30.5960 C   0  0  0  0  0  0  0  0  0  0  0  0
   -3.8830   25.1490  -30.4610 N   0  0  0  0  0  0  0  0  0  0  0  0
   -3.5240   24.0600  -29.5490 C   0  0  0  0  0  0  0  0  0  0  0  0
   -2.6980   24.5380  -28.3680 C   0  0  0  0  0  0  0  0  0  0  0  0
   -4.1620   24.1730  -28.1760 C   0  0  0  0  0  0  0  0  0  0  0  0
   -7.2600   23.5780  -30.9550 C   0  0  0  0  0  0  0  0  0  0  0  0
   -6.5032   20.9518  -32.9595 H   0  0  0  0  0  0  0  0  0  0  0  0
   -5.5743   26.0943  -31.2718 H   0  0  0  0  0  0  0  0  0  0  0  0
   -5.7636   25.4261  -29.5940 H   0  0  0  0  0  0  0  0  0  0  0  0
   -3.4620   24.9420  -31.3960 H   0  0  0  0  0  0  0  0  0  0  0  0
   -3.4383   23.2592  -30.2983 H   0  0  0  0  0  0  0  0  0  0  0  0
   -1.9108   23.8932  -27.9502 H   0  0  0  0  0  0  0  0  0  0  0  0
   -2.0830   25.4252  -28.1567 H   0  0  0  0  0  0  0  0  0  0  0  0
   -4.4339   23.2641  -27.6192 H   0  0  0  0  0  0  0  0  0  0  0  0
   -5.0450   24.6868  -27.7682 H   0  0  0  0  0  0  0  0  0  0  0  0
   -7.9880   24.1206  -30.3340 H   0  0  0  0  0  0  0  0  0  0  0  0
  1  2  1  0
  2  3  2  0
  3  4  1  0
  4  5  1  0
  5  6  1  0
  6  7  1  0
  7  8  1  0
  8  9  1  0
  9 10  1  0
  5 11  2  0
 11  2  1  0
 10  8  1  0
  3 12  1  0
  6 13  1  0
  6 14  1  0
  7 15  1  0
  8 16  1  0
  9 17  1  0
  9 18  1  0
 10 19  1  0
 10 20  1  0
 11 21  1  0
M  END
>  <UniqueID>  (13) 
13

>  <SMILES>  (13) 
Brc1csc(CNC2CC2)c1

>  <Energy>  (13) 
308.10532433981916

>  <Genealogy>  (13) 
Brc1csc(CNC2CC2)c1 (3D coordinates assigned)
Brc1csc(CNC2CC2)c1 (nonaromatic ring conformer: 308.10532433981916 kcal/mol)

>  <smiles>  (13) 
Brc1csc(CNC2CC2)c1

>  <score_type>  (13) 
oracle

>  <origin>  (13) 
adg

>  <m_score__min__energy>  (13) 
-6.1699999999999999

>  <m_primary>  (13) 
energy

$$$$
13:0
     RDKit          3D

 39 41  0  0  0  0  0  0  0  0999 V2000
   -5.0720   25.2040  -30.5170 C   0  0  0  0  0  0  0  0  0  0  0  0
   -3.8850   24.3350  -30.5260 N   0  0  0  0  0  0  0  0  0  0  0  0
   -3.0610   24.5480  -29.3250 C   0  0  0  0  0  0  0  0  0  0  0  0
   -4.2130   22.9100  -30.7570 C   0  0  0  0  0  0  0  0  0  0  0  0
   -3.5690   22.3040  -32.0170 C   0  0  0  0  0  0  0  0  0  0  0  0
   -4.6270   21.9190  -32.9430 N   0  0  0  0  0  0  0  0  0  0  0  0
   -5.4860   20.9260  -32.9650 C   0  0  0  0  0  0  0  0  0  0  0  0
   -6.8060   21.2250  -32.5390 C   0  0  0  0  0  0  0  0  0  0  0  0
   -7.1300   22.4700  -31.9470 C   0  0  0  0  0  0  0  0  0  0  0  0
   -8.4390   22.7550  -31.5560 C   0  0  0  0  0  0  0  0  0  0  0  0
   -9.4490   21.8150  -31.7490 C   0  0  0  0  0  0  0  0  0  0  0  0
   -9.1540   20.5850  -32.3370 C   0  0  0  0  0  0  0  0  0  0  0  0
   -7.8400   20.2810  -32.7320 C   0  0  0  0  0  0  0  0  0  0  0  0
   -7.5720   19.0860  -33.3180 N   0  0  0  0  0  0  0  0  0  0  0  0
   -6.3100   18.7210  -33.6730 C   0  0  0  0  0  0  0  0  0  0  0  0
   -6.1020   17.4460  -34.2250 C   0  0  0  0  0  0  0  0  0  0  0  0
   -4.8200   17.0060  -34.5310 C   0  0  0  0  0  0  0  0  0  0  0  0
   -3.7280   17.8210  -34.2600 C   0  0  0  0  0  0  0  0  0  0  0  0
   -3.9130   19.0940  -33.7180 C   0  0  0  0  0  0  0  0  0  0  0  0
   -5.2120   19.6070  -33.4650 C   0  0  0  0  0  0  0  0  0  0  0  0
   -5.3627   25.4168  -29.4777 H   0  0  0  0  0  0  0  0  0  0  0  0
   -4.8399   26.1472  -31.0333 H   0  0  0  0  0  0  0  0  0  0  0  0
   -5.9010   24.6978  -31.0333 H   0  0  0  0  0  0  0  0  0  0  0  0
   -3.6750   24.3893  -28.4262 H   0  0  0  0  0  0  0  0  0  0  0  0
   -2.2213   23.8374  -29.3257 H   0  0  0  0  0  0  0  0  0  0  0  0
   -2.6709   25.5765  -29.3257 H   0  0  0  0  0  0  0  0  0  0  0  0
   -3.8716   22.3329  -29.8850 H   0  0  0  0  0  0  0  0  0  0  0  0
   -5.3016   22.8593  -30.9062 H   0  0  0  0  0  0  0  0  0  0  0  0
   -2.9137   23.0486  -32.4925 H   0  0  0  0  0  0  0  0  0  0  0  0
   -2.9697   21.4226  -31.7449 H   0  0  0  0  0  0  0  0  0  0  0  0
   -6.3410   23.2209  -31.7936 H   0  0  0  0  0  0  0  0  0  0  0  0
   -8.6741   23.7251  -31.0939 H   0  0  0  0  0  0  0  0  0  0  0  0
  -10.4791   22.0428  -31.4377 H   0  0  0  0  0  0  0  0  0  0  0  0
   -9.9555   19.8478  -32.4926 H   0  0  0  0  0  0  0  0  0  0  0  0
   -8.3580   18.4120  -33.4720 H   0  0  0  0  0  0  0  0  0  0  0  0
   -6.9631   16.7890  -34.4170 H   0  0  0  0  0  0  0  0  0  0  0  0
   -4.6703   16.0159  -34.9862 H   0  0  0  0  0  0  0  0  0  0  0  0
   -2.7109   17.4608  -34.4739 H   0  0  0  0  0  0  0  0  0  0  0  0
   -3.0342   19.7121  -33.4822 H   0  0  0  0  0  0  0  0  0  0  0  0
  1  2  1  0
  2  3  1  0
  2  4  1  0
  4  5  1  0
  5  6  1  0
  6  7  2  3
  7  8  1  0
  8  9  2  0
  9 10  1  0
 10 11  2  0
 11 12  1  0
 12 13  2  0
 13 14  1  0
 14 15  1  0
 15 16  2  0
 16 17  1  0
 17 18  2  0
 18 19  1  0
 19 20  2  0
 20  7  1  0
 13  8  1  0
 20 15  1  0
  1 21  1  0
  1 22  1  0
  1 23  1  0
  3 24  1  0
  3 25  1  0
  3 26  1  0
  4 27  1  0
  4 28  1  0
  5 29  1  0
  5 30  1  0
  9 31  1  0
 10 32  1  0
 11 33  1  0
 12 34  1  0
 14 35  1  0
 16 36  1  0
 17 37  1  0
 18 38  1  0
 19 39  1  0
M  END
>  <UniqueID>  (14) 
14

>  <SMILES>  (14) 
CN(C)CCN=c1c2ccccc2[nH]c2ccccc12

>  <Energy>  (14) 
66.63973231929643

>  <Genealogy>  (14) 
CN(C)CCN=c1c2ccccc2[nH]c2ccccc12 (3D coordinates assigned)
CN(C)CCN=c1c2ccccc2[nH]c2ccccc12 (optimized conformer: 66.63973231929643 kcal/mol)

>  <smiles>  (14) 
CN(C)CCN=c1c2ccccc2[nH]c2ccccc12

>  <score_type>  (14) 
oracle

>  <origin>  (14) 
adg

>  <m_score__min__energy>  (14) 
-7.7699999999999996

>  <m_primary>  (14) 
energy

$$$$
14:0
     RDKit          3D

 60 63  0  0  0  0  0  0  0  0999 V2000
    0.0100   27.1520  -23.3420 C   0  0  0  0  0  0  0  0  0  0  0  0
   -1.0920   27.1370  -24.3960 C   0  0  0  0  0  0  0  0  0  0  0  0
   -1.5990   25.8160  -24.5770 O   0  0  0  0  0  0  0  0  0  0  0  0
   -2.3830   25.3800  -25.6580 C   0  0  0  0  0  0  0  0  0  0  0  0
   -3.7470   25.4540  -25.6310 N   0  0  0  0  0  0  0  0  0  0  0  0
   -4.4800   25.0380  -26.6640 N   0  0  0  0  0  0  0  0  0  0  0  0
   -3.9020   24.5200  -27.7790 C   0  0  0  0  0  0  0  0  0  0  0  0
   -4.7320   24.0710  -28.9220 C   0  0  0  0  0  0  0  0  0  0  0  0
   -5.6340   24.9540  -29.5430 C   0  0  0  0  0  0  0  0  0  0  0  0
   -6.4220   24.5280  -30.6150 C   0  0  0  0  0  0  0  0  0  0  0  0
   -6.3210   23.2180  -31.0950 C   0  0  0  0  0  0  0  0  0  0  0  0
   -7.1490   22.8270  -32.1570 O   0  0  0  0  0  0  0  0  0  0  0  0
   -7.6840   21.5450  -32.3510 C   0  0  0  0  0  0  0  0  0  0  0  0
   -9.0030   21.2250  -31.9870 C   0  0  0  0  0  0  0  0  0  0  0  0
   -9.4910   19.9300  -32.1760 C   0  0  0  0  0  0  0  0  0  0  0  0
   -8.6640   18.9400  -32.7140 C   0  0  0  0  0  0  0  0  0  0  0  0
   -7.3350   19.2360  -33.0580 C   0  0  0  0  0  0  0  0  0  0  0  0
   -6.4790   18.2080  -33.5950 N   0  0  0  0  0  0  0  0  0  0  0  0
   -6.8310   16.7940  -33.4280 C   0  0  0  0  0  0  0  0  0  0  0  0
   -5.5650   15.9330  -33.4830 C   0  0  0  0  0  0  0  0  0  0  0  0
   -4.8130   16.2200  -34.6460 O   0  0  0  0  0  0  0  0  0  0  0  0
   -4.3350   17.5500  -34.5910 C   0  0  0  0  0  0  0  0  0  0  0  0
   -5.4950   18.5480  -34.6290 C   0  0  0  0  0  0  0  0  0  0  0  0
   -6.8550   20.5440  -32.8720 C   0  0  0  0  0  0  0  0  0  0  0  0
   -5.4380   22.3240  -30.4660 C   0  0  0  0  0  0  0  0  0  0  0  0
   -4.6440   22.7490  -29.3960 C   0  0  0  0  0  0  0  0  0  0  0  0
   -2.5490   24.4280  -27.8320 N   0  0  0  0  0  0  0  0  0  0  0  0
   -1.7650   24.8420  -26.8030 C   0  0  0  0  0  0  0  0  0  0  0  0
   -0.2610   24.7250  -26.9550 C   0  0  0  0  0  0  0  0  0  0  0  0
    0.4020   26.0970  -27.1270 C   0  0  0  0  0  0  0  0  0  0  0  0
    0.3740   23.9290  -25.8080 C   0  0  0  0  0  0  0  0  0  0  0  0
   -0.4418   27.1459  -22.3391 H   0  0  0  0  0  0  0  0  0  0  0  0
    0.6456   26.2624  -23.4633 H   0  0  0  0  0  0  0  0  0  0  0  0
    0.6211   28.0585  -23.4633 H   0  0  0  0  0  0  0  0  0  0  0  0
   -1.9105   27.7966  -24.0720 H   0  0  0  0  0  0  0  0  0  0  0  0
   -0.6732   27.4888  -25.3504 H   0  0  0  0  0  0  0  0  0  0  0  0
   -4.2500   25.8340  -24.8030 H   0  0  0  0  0  0  0  0  0  0  0  0
   -5.7196   25.9893  -29.1812 H   0  0  0  0  0  0  0  0  0  0  0  0
   -7.1277   25.2285  -31.0855 H   0  0  0  0  0  0  0  0  0  0  0  0
   -9.6538   21.9975  -31.5515 H   0  0  0  0  0  0  0  0  0  0  0  0
  -10.5284   19.6888  -31.9008 H   0  0  0  0  0  0  0  0  0  0  0  0
   -9.0561   17.9240  -32.8687 H   0  0  0  0  0  0  0  0  0  0  0  0
   -7.3260   16.6535  -32.4558 H   0  0  0  0  0  0  0  0  0  0  0  0
   -7.5110   16.4913  -34.2379 H   0  0  0  0  0  0  0  0  0  0  0  0
   -4.9493   16.1398  -32.5952 H   0  0  0  0  0  0  0  0  0  0  0  0
   -5.8597   14.8735  -33.5060 H   0  0  0  0  0  0  0  0  0  0  0  0
   -3.7686   17.6911  -33.6586 H   0  0  0  0  0  0  0  0  0  0  0  0
   -3.6887   17.7281  -35.4631 H   0  0  0  0  0  0  0  0  0  0  0  0
   -5.1100   19.5622  -34.4469 H   0  0  0  0  0  0  0  0  0  0  0  0
   -5.9775   18.5057  -35.6166 H   0  0  0  0  0  0  0  0  0  0  0  0
   -5.8153   20.7842  -33.1390 H   0  0  0  0  0  0  0  0  0  0  0  0
   -5.3709   21.2838  -30.8173 H   0  0  0  0  0  0  0  0  0  0  0  0
   -3.9453   22.0444  -28.9213 H   0  0  0  0  0  0  0  0  0  0  0  0
   -0.0782   24.1565  -27.8788 H   0  0  0  0  0  0  0  0  0  0  0  0
    0.6111   26.5298  -26.1376 H   0  0  0  0  0  0  0  0  0  0  0  0
    1.3439   25.9819  -27.6834 H   0  0  0  0  0  0  0  0  0  0  0  0
   -0.2735   26.7635  -27.6834 H   0  0  0  0  0  0  0  0  0  0  0  0
    0.0421   24.3450  -24.8453 H   0  0  0  0  0  0  0  0  0  0  0  0
    0.0655   22.8755  -25.8781 H   0  0  0  0  0  0  0  0  0  0  0  0
    1.4697   23.9957  -25.8781 H   0  0  0  0  0  0  0  0  0  0  0  0
  1  2  1  0
  2  3  1  0
  3  4  1  0
  4  5  2  0
  5  6  1  0
  6  7  2  0
  7  8  1  0
  8  9  2  0
  9 10  1  0
 10 11  2  0
 11 12  1  0
 12 13  1  0
 13 14  2  0
 14 15  1  0
 15 16  2  0
 16 17  1  0
 17 18  1  0
 18 19  1  0
 19 20  1  0
 20 21  1  0
 21 22  1  0
 22 23  1  0
 17 24  2  0
 11 25  1  0
 25 26  2  0
  7 27  1  0
 27 28  2  0
 28 29  1  0
 29 30  1  0
 29 31  1  0
 28  4  1  0
 26  8  1  0
 24 13  1  0
 23 18  1  0
  1 32  1  0
  1 33  1  0
  1 34  1  0
  2 35  1  0
  2 36  1  0
  5 37  1  0
  9 38  1  0
 10 39  1  0
 14 40  1  0
 15 41  1  0
 16 42  1  0
 19 43  1  0
 19 44  1  0
 20 45  1  0
 20 46  1  0
 22 47  1  0
 22 48  1  0
 23 49  1  0
 23 50  1  0
 24 51  1  0
 25 52  1  0
 26 53  1  0
 29 54  1  0
 30 55  1  0
 30 56  1  0
 30 57  1  0
 31 58  1  0
 31 59  1  0
 31 60  1  0
M  CHG  1   5   1
M  END
>  <UniqueID>  (15) 
15

>  <SMILES>  (15) 
CCOc1[nH+]nc(-c2ccc(Oc3cccc(N4CCOCC4)c3)cc2)nc1C(C)C

>  <Energy>  (15) 
71.71789970285609

>  <Genealogy>  (15) 
CCOc1[nH+]nc(-c2ccc(Oc3cccc(N4CCOCC4)c3)cc2)nc1C(C)C (protonated)
CCOc1[nH+]nc(-c2ccc(Oc3cccc(N4CCOCC4)c3)cc2)nc1C(C)C (3D coordinates assigned)
CCOc1[nH+]nc(-c2ccc(Oc3cccc(N4CCOCC4)c3)cc2)nc1C(C)C (nonaromatic ring conformer: 71.71789970285609 kcal/mol)

>  <smiles>  (15) 
CCOc1nnc(-c2ccc(Oc3cccc(N4CCOCC4)c3)cc2)nc1C(C)C

>  <score_type>  (15) 
oracle

>  <origin>  (15) 
adg

>  <m_score__min__energy>  (15) 
-9.0099999999999998

>  <m_primary>  (15) 
energy

$$$$
15:0
     RDKit          3D

 57 59  0  0  0  0  0  0  0  0999 V2000
   -3.4800   18.5560  -25.8320 C   0  0  0  0  0  0  0  0  0  0  0  0
   -2.9910   19.3170  -27.0650 C   0  0  0  0  0  0  0  0  0  0  0  0
   -1.6720   19.9480  -26.8300 N   0  0  0  0  0  0  0  0  0  0  0  0
   -0.6200   19.2590  -27.6030 C   0  0  0  0  0  0  0  0  0  0  0  0
   -1.7050   21.3820  -27.2010 C   0  0  0  0  0  0  0  0  0  0  0  0
   -0.5690   21.7430  -28.1660 C   0  0  0  0  0  0  0  0  0  0  0  0
   -0.9230   22.8750  -28.9630 O   0  0  0  0  0  0  0  0  0  0  0  0
   -2.1440   23.0460  -29.6340 C   0  0  0  0  0  0  0  0  0  0  0  0
   -2.4620   22.3530  -30.8330 C   0  0  0  0  0  0  0  0  0  0  0  0
   -3.7040   22.5420  -31.4650 C   0  0  0  0  0  0  0  0  0  0  0  0
   -4.6160   23.4220  -30.8770 C   0  0  0  0  0  0  0  0  0  0  0  0
   -4.2960   24.1130  -29.7350 C   0  0  0  0  0  0  0  0  0  0  0  0
   -5.3710   24.9080  -29.4100 C   0  0  0  0  0  0  0  0  0  0  0  0
   -6.3210   24.6560  -30.3900 C   0  0  0  0  0  0  0  0  0  0  0  0
   -5.8670   23.7360  -31.2780 N   0  0  0  0  0  0  0  0  0  0  0  0
   -6.5990   23.2540  -32.4540 C   0  0  0  0  0  0  0  0  0  0  0  0
   -7.4520   22.0560  -32.0950 C   0  0  0  0  0  0  0  0  0  0  0  0
   -8.5570   22.2600  -31.2460 C   0  0  0  0  0  0  0  0  0  0  0  0
   -9.3770   21.1970  -30.8710 C   0  0  0  0  0  0  0  0  0  0  0  0
   -9.1150   19.9140  -31.3430 C   0  0  0  0  0  0  0  0  0  0  0  0
   -8.0230   19.6850  -32.1810 C   0  0  0  0  0  0  0  0  0  0  0  0
   -7.1580   20.7380  -32.5440 C   0  0  0  0  0  0  0  0  0  0  0  0
   -5.9980   20.4230  -33.4680 C   0  0  0  0  0  0  0  0  0  0  0  0
   -6.2440   19.1930  -34.2230 N   0  0  0  0  0  0  0  0  0  0  0  0
   -5.7030   17.9270  -33.8270 C   0  0  0  0  0  0  0  0  0  0  0  0
   -6.0560   16.6960  -34.5970 C   0  0  0  0  0  0  0  0  0  0  0  0
   -4.9200   17.8460  -32.8430 O   0  0  0  0  0  0  0  0  0  0  0  0
   -3.0710   23.9570  -29.0940 C   0  0  0  0  0  0  0  0  0  0  0  0
   -3.1452   19.0770  -24.9229 H   0  0  0  0  0  0  0  0  0  0  0  0
   -4.5789   18.5073  -25.8431 H   0  0  0  0  0  0  0  0  0  0  0  0
   -3.0677   17.5363  -25.8431 H   0  0  0  0  0  0  0  0  0  0  0  0
   -2.9054   18.6145  -27.9071 H   0  0  0  0  0  0  0  0  0  0  0  0
   -3.7174   20.1123  -27.2883 H   0  0  0  0  0  0  0  0  0  0  0  0
    0.0956   18.7903  -26.9115 H   0  0  0  0  0  0  0  0  0  0  0  0
   -1.0779   18.4853  -28.2368 H   0  0  0  0  0  0  0  0  0  0  0  0
   -0.0938   19.9880  -28.2368 H   0  0  0  0  0  0  0  0  0  0  0  0
   -2.6678   21.6033  -27.6847 H   0  0  0  0  0  0  0  0  0  0  0  0
   -1.5792   21.9770  -26.2844 H   0  0  0  0  0  0  0  0  0  0  0  0
    0.3358   21.9783  -27.5864 H   0  0  0  0  0  0  0  0  0  0  0  0
   -0.3846   20.8864  -28.8310 H   0  0  0  0  0  0  0  0  0  0  0  0
   -1.7283   21.6608  -31.2719 H   0  0  0  0  0  0  0  0  0  0  0  0
   -3.9506   22.0116  -32.3966 H   0  0  0  0  0  0  0  0  0  0  0  0
   -5.4587   25.5960  -28.5562 H   0  0  0  0  0  0  0  0  0  0  0  0
   -7.3089   25.1373  -30.4400 H   0  0  0  0  0  0  0  0  0  0  0  0
   -7.2465   24.0589  -32.8320 H   0  0  0  0  0  0  0  0  0  0  0  0
   -5.8742   22.9555  -33.2257 H   0  0  0  0  0  0  0  0  0  0  0  0
   -8.7759   23.2717  -30.8738 H   0  0  0  0  0  0  0  0  0  0  0  0
  -10.2320   21.3722  -30.2014 H   0  0  0  0  0  0  0  0  0  0  0  0
   -9.7702   19.0788  -31.0548 H   0  0  0  0  0  0  0  0  0  0  0  0
   -7.8346   18.6708  -32.5631 H   0  0  0  0  0  0  0  0  0  0  0  0
   -5.8639   21.2565  -34.1731 H   0  0  0  0  0  0  0  0  0  0  0  0
   -5.0935   20.2832  -32.8578 H   0  0  0  0  0  0  0  0  0  0  0  0
   -6.8480   19.2440  -35.0740 H   0  0  0  0  0  0  0  0  0  0  0  0
   -6.2899   15.8802  -33.8971 H   0  0  0  0  0  0  0  0  0  0  0  0
   -6.9323   16.8984  -35.2303 H   0  0  0  0  0  0  0  0  0  0  0  0
   -5.2056   16.4032  -35.2303 H   0  0  0  0  0  0  0  0  0  0  0  0
   -2.8327   24.5319  -28.1869 H   0  0  0  0  0  0  0  0  0  0  0  0
  1  2  1  0
  2  3  1  0
  3  4  1  0
  3  5  1  0
  5  6  1  0
  6  7  1  0
  7  8  1  0
  8  9  2  0
  9 10  1  0
 10 11  2  0
 11 12  1  0
 12 13  1  0
 13 14  2  0
 14 15  1  0
 15 16  1  0
 16 17  1  0
 17 18  2  0
 18 19  1  0
 19 20  2  0
 20 21  1  0
 21 22  2  0
 22 23  1  0
 23 24  1  0
 24 25  1  0
 25 26  1  0
 25 27  2  0
 12 28  2  0
 28  8  1  0
 15 11  1  0
 22 17  1  0
  1 29  1  0
  1 30  1  0
  1 31  1  0
  2 32  1  0
  2 33  1  0
  4 34  1  0
  4 35  1  0
  4 36  1  0
  5 37  1  0
  5 38  1  0
  6 39  1  0
  6 40  1  0
  9 41  1  0
 10 42  1  0
 13 43  1  0
 14 44  1  0
 16 45  1  0
 16 46  1  0
 18 47  1  0
 19 48  1  0
 20 49  1  0
 21 50  1  0
 23 51  1  0
 23 52  1  0
 24 53  1  0
 26 54  1  0
 26 55  1  0
 26 56  1  0
 28 57  1  0
M  END
>  <UniqueID>  (16) 
16

>  <SMILES>  (16) 
CCN(C)CCOc1ccc2c(ccn2Cc2ccccc2CNC(C)=O)c1

>  <Energy>  (16) 
85.7447342503709

>  <Genealogy>  (16) 
CCN(C)CCOc1ccc2c(ccn2Cc2ccccc2CNC(C)=O)c1 (3D coordinates assigned)
CCN(C)CCOc1ccc2c(ccn2Cc2ccccc2CNC(C)=O)c1 (optimized conformer: 85.7447342503709 kcal/mol)

>  <smiles>  (16) 
CCN(C)CCOc1ccc2c(ccn2Cc2ccccc2CNC(C)=O)c1

>  <score_type>  (16) 
oracle

>  <origin>  (16) 
adg

>  <m_score__min__energy>  (16) 
-8.5500000000000007

>  <m_primary>  (16) 
energy

$$$$
16:0
     RDKit          3D

 51 52  0  0  0  0  0  0  0  0999 V2000
   -4.1300   24.9230  -26.5240 C   0  0  0  0  0  0  0  0  0  0  0  0
   -3.4220   23.8490  -27.3470 C   0  0  0  0  0  0  0  0  0  0  0  0
   -2.2940   24.4380  -28.2010 C   0  0  0  0  0  0  0  0  0  0  0  0
   -2.8100   25.1140  -29.3500 O   0  0  0  0  0  0  0  0  0  0  0  0
   -3.8680   24.6630  -30.1560 C   0  0  0  0  0  0  0  0  0  0  0  0
   -3.8310   23.4370  -30.8480 C   0  0  0  0  0  0  0  0  0  0  0  0
   -4.9160   23.0360  -31.6330 C   0  0  0  0  0  0  0  0  0  0  0  0
   -6.0580   23.8510  -31.7440 C   0  0  0  0  0  0  0  0  0  0  0  0
   -7.2050   23.4580  -32.5220 N   0  0  0  0  0  0  0  0  0  0  0  0
   -8.4640   22.9750  -31.9560 C   0  0  0  0  0  0  0  0  0  0  0  0
   -8.2430   21.8130  -31.0060 C   0  0  0  0  0  0  0  0  0  0  0  0
   -8.4240   22.0170  -29.8140 O   0  0  0  0  0  0  0  0  0  0  0  0
   -7.8530   20.4760  -31.4370 N   0  0  0  0  0  0  0  0  0  0  0  0
   -6.8570   20.4660  -32.5390 C   0  0  0  0  0  0  0  0  0  0  0  0
   -6.8720   19.1490  -33.3480 C   0  0  0  0  0  0  0  0  0  0  0  0
   -7.2990   17.9880  -32.5420 N   0  0  0  0  0  0  0  0  0  0  0  0
   -6.2650   17.5440  -31.5810 C   0  0  0  0  0  0  0  0  0  0  0  0
   -5.4260   16.4280  -32.1970 C   0  0  0  0  0  0  0  0  0  0  0  0
   -5.9650   16.0660  -33.4380 O   0  0  0  0  0  0  0  0  0  0  0  0
   -8.6390   18.1750  -31.9280 C   0  0  0  0  0  0  0  0  0  0  0  0
   -9.0350   19.6580  -31.7610 C   0  0  0  0  0  0  0  0  0  0  0  0
   -6.0850   25.0750  -31.0580 C   0  0  0  0  0  0  0  0  0  0  0  0
   -4.9990   25.4770  -30.2760 C   0  0  0  0  0  0  0  0  0  0  0  0
   -3.9924   24.7142  -25.4528 H   0  0  0  0  0  0  0  0  0  0  0  0
   -3.7039   25.9085  -26.7632 H   0  0  0  0  0  0  0  0  0  0  0  0
   -5.2037   24.9199  -26.7632 H   0  0  0  0  0  0  0  0  0  0  0  0
   -2.9969   23.0992  -26.6636 H   0  0  0  0  0  0  0  0  0  0  0  0
   -4.1608   23.3938  -28.0230 H   0  0  0  0  0  0  0  0  0  0  0  0
   -1.7201   25.1526  -27.5928 H   0  0  0  0  0  0  0  0  0  0  0  0
   -1.6514   23.6134  -28.5433 H   0  0  0  0  0  0  0  0  0  0  0  0
   -2.9437   22.7915  -30.7704 H   0  0  0  0  0  0  0  0  0  0  0  0
   -4.8769   22.0758  -32.1682 H   0  0  0  0  0  0  0  0  0  0  0  0
   -7.1380   23.5010  -33.5660 H   0  0  0  0  0  0  0  0  0  0  0  0
   -8.9468   23.7971  -31.4074 H   0  0  0  0  0  0  0  0  0  0  0  0
   -9.1000   22.6258  -32.7828 H   0  0  0  0  0  0  0  0  0  0  0  0
   -7.3910   20.0310  -30.6090 H   0  0  0  0  0  0  0  0  0  0  0  0
   -7.0791   21.3000  -33.2210 H   0  0  0  0  0  0  0  0  0  0  0  0
   -5.8599   20.5645  -32.0851 H   0  0  0  0  0  0  0  0  0  0  0  0
   -7.5656   19.2639  -34.1940 H   0  0  0  0  0  0  0  0  0  0  0  0
   -5.8435   18.9567  -33.6873 H   0  0  0  0  0  0  0  0  0  0  0  0
   -5.6130   18.3933  -31.3289 H   0  0  0  0  0  0  0  0  0  0  0  0
   -6.7551   17.1675  -30.6710 H   0  0  0  0  0  0  0  0  0  0  0  0
   -4.3930   16.7800  -32.3351 H   0  0  0  0  0  0  0  0  0  0  0  0
   -5.4309   15.5551  -31.5277 H   0  0  0  0  0  0  0  0  0  0  0  0
   -6.7910   16.6040  -33.5470 H   0  0  0  0  0  0  0  0  0  0  0  0
   -9.3873   17.6841  -32.5676 H   0  0  0  0  0  0  0  0  0  0  0  0
   -8.5994   17.7339  -30.9211 H   0  0  0  0  0  0  0  0  0  0  0  0
   -9.4802   20.0213  -32.6990 H   0  0  0  0  0  0  0  0  0  0  0  0
   -9.7607   19.7413  -30.9386 H   0  0  0  0  0  0  0  0  0  0  0  0
   -6.9695   25.7241  -31.1367 H   0  0  0  0  0  0  0  0  0  0  0  0
   -5.0339   26.4424  -29.7500 H   0  0  0  0  0  0  0  0  0  0  0  0
  1  2  1  0
  2  3  1  0
  3  4  1  0
  4  5  1  0
  5  6  2  0
  6  7  1  0
  7  8  2  0
  8  9  1  0
  9 10  1  0
 10 11  1  0
 11 12  2  0
 11 13  1  0
 13 14  1  0
 14 15  1  0
 15 16  1  0
 16 17  1  0
 17 18  1  0
 18 19  1  0
 16 20  1  0
 20 21  1  0
  8 22  1  0
 22 23  2  0
 23  5  1  0
 21 13  1  0
  1 24  1  0
  1 25  1  0
  1 26  1  0
  2 27  1  0
  2 28  1  0
  3 29  1  0
  3 30  1  0
  6 31  1  0
  7 32  1  0
  9 33  1  0
 10 34  1  0
 10 35  1  0
 13 36  1  0
 14 37  1  0
 14 38  1  0
 15 39  1  0
 15 40  1  0
 17 41  1  0
 17 42  1  0
 18 43  1  0
 18 44  1  0
 19 45  1  0
 20 46  1  0
 20 47  1  0
 21 48  1  0
 21 49  1  0
 22 50  1  0
 23 51  1  0
M  CHG  1  13   1
M  END
>  <UniqueID>  (17) 
17

>  <SMILES>  (17) 
CCCOc1ccc(NCC(=O)[NH+]2CCN(CCO)CC2)cc1

>  <Energy>  (17) 
59.169124528523376

>  <Genealogy>  (17) 
CCCOc1ccc(NCC(=O)[NH+]2CCN(CCO)CC2)cc1 (protonated)
CCCOc1ccc(NCC(=O)[NH+]2CCN(CCO)CC2)cc1 (3D coordinates assigned)
CCCOc1ccc(NCC(=O)[NH+]2CCN(CCO)CC2)cc1 (nonaromatic ring conformer: 59.169124528523376 kcal/mol)

>  <smiles>  (17) 
CCCOc1ccc(NCC(=O)N2CCN(CCO)CC2)cc1

>  <score_type>  (17) 
oracle

>  <origin>  (17) 
adg

>  <m_score__min__energy>  (17) 
-7.2599999999999998

>  <m_primary>  (17) 
energy

$$$$
17:0
     RDKit          3D

 51 53  0  0  0  0  0  0  0  0999 V2000
   -4.2970   18.1310  -34.6030 C   0  0  0  0  0  0  0  0  0  0  0  0
   -4.8340   17.6630  -33.2520 C   0  0  0  0  0  0  0  0  0  0  0  0
   -6.3160   17.6810  -33.2480 N   0  0  0  0  0  0  0  0  0  0  0  0
   -6.8620   16.4250  -33.8140 C   0  0  0  0  0  0  0  0  0  0  0  0
   -5.7850   15.3430  -33.8380 C   0  0  0  0  0  0  0  0  0  0  0  0
   -6.8420   17.9240  -31.8850 C   0  0  0  0  0  0  0  0  0  0  0  0
   -8.0340   18.8840  -31.9450 C   0  0  0  0  0  0  0  0  0  0  0  0
   -7.6430   20.3440  -32.8930 S   0  0  0  0  0  0  0  0  0  0  0  0
   -6.7340   20.0070  -34.2660 O   0  0  0  0  0  0  0  0  0  0  0  0
   -6.9220   21.6310  -31.9420 C   0  0  0  0  0  0  0  0  0  0  0  0
   -7.5330   22.8300  -31.7620 N   0  0  0  0  0  0  0  0  0  0  0  0
   -6.6690   23.4920  -30.9730 C   0  0  0  0  0  0  0  0  0  0  0  0
   -6.8030   24.7840  -30.4690 C   0  0  0  0  0  0  0  0  0  0  0  0
   -5.7740   25.2750  -29.6440 C   0  0  0  0  0  0  0  0  0  0  0  0
   -4.6500   24.4730  -29.3480 C   0  0  0  0  0  0  0  0  0  0  0  0
   -4.5430   23.1720  -29.8750 C   0  0  0  0  0  0  0  0  0  0  0  0
   -5.5820   22.7150  -30.6900 C   0  0  0  0  0  0  0  0  0  0  0  0
   -5.7250   21.5270  -31.3050 N   0  0  0  0  0  0  0  0  0  0  0  0
   -4.8460   20.3570  -31.2410 C   0  0  0  0  0  0  0  0  0  0  0  0
   -3.4940   20.6880  -31.8150 C   0  0  0  0  0  0  0  0  0  0  0  0
   -2.3730   20.7810  -30.9740 C   0  0  0  0  0  0  0  0  0  0  0  0
   -1.1120   21.0700  -31.5080 C   0  0  0  0  0  0  0  0  0  0  0  0
   -0.9630   21.2640  -32.8850 C   0  0  0  0  0  0  0  0  0  0  0  0
    0.2610   21.5460  -33.4010 F   0  0  0  0  0  0  0  0  0  0  0  0
   -2.0720   21.1700  -33.7290 C   0  0  0  0  0  0  0  0  0  0  0  0
   -3.3330   20.8830  -33.1980 C   0  0  0  0  0  0  0  0  0  0  0  0
   -3.4765   18.8461  -34.4436 H   0  0  0  0  0  0  0  0  0  0  0  0
   -3.9238   17.2649  -35.1692 H   0  0  0  0  0  0  0  0  0  0  0  0
   -5.1040   18.6191  -35.1692 H   0  0  0  0  0  0  0  0  0  0  0  0
   -4.4839   16.6383  -33.0586 H   0  0  0  0  0  0  0  0  0  0  0  0
   -4.4679   18.3430  -32.4687 H   0  0  0  0  0  0  0  0  0  0  0  0
   -7.7051   16.0843  -33.1950 H   0  0  0  0  0  0  0  0  0  0  0  0
   -7.2024   16.6142  -34.8427 H   0  0  0  0  0  0  0  0  0  0  0  0
   -5.5149   15.0716  -32.8068 H   0  0  0  0  0  0  0  0  0  0  0  0
   -6.1687   14.4553  -34.3622 H   0  0  0  0  0  0  0  0  0  0  0  0
   -4.8956   15.7225  -34.3622 H   0  0  0  0  0  0  0  0  0  0  0  0
   -7.1653   16.9695  -31.4441 H   0  0  0  0  0  0  0  0  0  0  0  0
   -6.0495   18.3718  -31.2674 H   0  0  0  0  0  0  0  0  0  0  0  0
   -8.8854   18.3693  -32.4143 H   0  0  0  0  0  0  0  0  0  0  0  0
   -8.2834   19.1925  -30.9190 H   0  0  0  0  0  0  0  0  0  0  0  0
   -7.1010   19.1550  -34.6130 H   0  0  0  0  0  0  0  0  0  0  0  0
   -7.6830   25.3992  -30.7078 H   0  0  0  0  0  0  0  0  0  0  0  0
   -5.8457   26.2903  -29.2269 H   0  0  0  0  0  0  0  0  0  0  0  0
   -3.8526   24.8676  -28.7012 H   0  0  0  0  0  0  0  0  0  0  0  0
   -3.6722   22.5376  -29.6531 H   0  0  0  0  0  0  0  0  0  0  0  0
   -4.7291   20.0477  -30.1919 H   0  0  0  0  0  0  0  0  0  0  0  0
   -5.2935   19.5404  -31.8266 H   0  0  0  0  0  0  0  0  0  0  0  0
   -2.4866   20.6260  -29.8909 H   0  0  0  0  0  0  0  0  0  0  0  0
   -0.2378   21.1446  -30.8445 H   0  0  0  0  0  0  0  0  0  0  0  0
   -1.9531   21.3219  -34.8120 H   0  0  0  0  0  0  0  0  0  0  0  0
   -4.2039   20.8093  -33.8659 H   0  0  0  0  0  0  0  0  0  0  0  0
  1  2  1  0
  2  3  1  0
  3  4  1  0
  4  5  1  0
  3  6  1  0
  6  7  1  0
  7  8  1  0
  8  9  1  6
  8 10  1  0
 10 11  2  0
 11 12  1  0
 12 13  2  0
 13 14  1  0
 14 15  2  0
 15 16  1  0
 16 17  2  0
 17 18  1  0
 18 19  1  0
 19 20  1  0
 20 21  2  0
 21 22  1  0
 22 23  2  0
 23 24  1  0
 23 25  1  0
 25 26  2  0
 18 10  1  0
 26 20  1  0
 17 12  1  0
  1 27  1  0
  1 28  1  0
  1 29  1  0
  2 30  1  0
  2 31  1  0
  4 32  1  0
  4 33  1  0
  5 34  1  0
  5 35  1  0
  5 36  1  0
  6 37  1  0
  6 38  1  0
  7 39  1  0
  7 40  1  0
  9 41  1  0
 13 42  1  0
 14 43  1  0
 15 44  1  0
 16 45  1  0
 19 46  1  0
 19 47  1  0
 21 48  1  0
 22 49  1  0
 25 50  1  0
 26 51  1  0
M  CHG  1   8   1
M  END
>  <UniqueID>  (18) 
18

>  <SMILES>  (18) 
CCN(CC)CC[S@+](O)c1nc2ccccc2n1Cc1ccc(F)cc1

>  <Energy>  (18) 
81.37715807265634

>  <Genealogy>  (18) 
CCN(CC)CC[S+](O)c1nc2ccccc2n1Cc1ccc(F)cc1 (protonated)
CCN(CC)CC[S@+](O)c1nc2ccccc2n1Cc1ccc(F)cc1 (chirality)
CCN(CC)CC[S@+](O)c1nc2ccccc2n1Cc1ccc(F)cc1 (3D coordinates assigned)
CCN(CC)CC[S@+](O)c1nc2ccccc2n1Cc1ccc(F)cc1 (optimized conformer: 81.37715807265634 kcal/mol)

>  <smiles>  (18) 
CCN(CC)CC[S+]([O-])c1nc2ccccc2n1Cc1ccc(F)cc1

>  <score_type>  (18) 
oracle

>  <origin>  (18) 
adg

>  <m_score__min__energy>  (18) 
-7.1600000000000001

>  <m_primary>  (18) 
energy

$$$$
18:0
     RDKit          3D

 33 35  0  0  0  0  0  0  0  0999 V2000
    0.7170   24.4990  -26.8060 C   0  0  0  0  0  0  0  0  0  0  0  0
   -0.7010   24.5730  -27.2610 C   0  0  0  0  0  0  0  0  0  0  0  0
   -1.7430   24.7690  -26.4250 N   0  0  0  0  0  0  0  0  0  0  0  0
   -2.9370   24.7310  -27.0770 C   0  0  0  0  0  0  0  0  0  0  0  0
   -4.2240   24.9370  -26.3420 C   0  0  0  0  0  0  0  0  0  0  0  0
   -2.8420   24.4820  -28.4520 C   0  0  0  0  0  0  0  0  0  0  0  0
   -3.9320   24.3870  -29.4340 C   0  0  0  0  0  0  0  0  0  0  0  0
   -3.8580   24.7960  -30.7170 N   0  0  0  0  0  0  0  0  0  0  0  0
   -5.0280   24.5140  -31.2670 N   0  0  0  0  0  0  0  0  0  0  0  0
   -5.7680   23.9460  -30.2980 C   0  0  0  0  0  0  0  0  0  0  0  0
   -7.4370   23.3400  -30.5270 S   0  0  0  0  0  0  0  0  0  0  0  0
   -7.1350   22.7200  -32.2200 C   0  0  0  0  0  0  0  0  0  0  0  0
   -7.4310   21.2450  -32.3150 C   0  0  0  0  0  0  0  0  0  0  0  0
   -6.4310   20.3630  -32.7580 C   0  0  0  0  0  0  0  0  0  0  0  0
   -6.7050   18.9980  -32.8950 C   0  0  0  0  0  0  0  0  0  0  0  0
   -7.9750   18.5040  -32.5940 C   0  0  0  0  0  0  0  0  0  0  0  0
   -8.9770   19.3730  -32.1540 C   0  0  0  0  0  0  0  0  0  0  0  0
   -8.7110   20.7390  -32.0120 C   0  0  0  0  0  0  0  0  0  0  0  0
   -9.7030   21.5650  -31.5920 F   0  0  0  0  0  0  0  0  0  0  0  0
   -5.1070   23.8690  -29.1700 O   0  0  0  0  0  0  0  0  0  0  0  0
   -1.2140   24.3120  -28.8400 S   0  0  0  0  0  0  0  0  0  0  0  0
    0.7497   24.4973  -25.7065 H   0  0  0  0  0  0  0  0  0  0  0  0
    1.1769   23.5756  -27.1879 H   0  0  0  0  0  0  0  0  0  0  0  0
    1.2705   25.3695  -27.1879 H   0  0  0  0  0  0  0  0  0  0  0  0
   -4.0364   24.9070  -25.2585 H   0  0  0  0  0  0  0  0  0  0  0  0
   -4.6489   25.9146  -26.6136 H   0  0  0  0  0  0  0  0  0  0  0  0
   -4.9328   24.1409  -26.6136 H   0  0  0  0  0  0  0  0  0  0  0  0
   -7.7834   23.2632  -32.9232 H   0  0  0  0  0  0  0  0  0  0  0  0
   -6.0759   22.8821  -32.4693 H   0  0  0  0  0  0  0  0  0  0  0  0
   -5.4287   20.7473  -32.9981 H   0  0  0  0  0  0  0  0  0  0  0  0
   -5.9174   18.3124  -33.2408 H   0  0  0  0  0  0  0  0  0  0  0  0
   -8.1874   17.4302  -32.7031 H   0  0  0  0  0  0  0  0  0  0  0  0
   -9.9778   18.9818  -31.9186 H   0  0  0  0  0  0  0  0  0  0  0  0
  1  2  1  0
  2  3  2  0
  3  4  1  0
  4  5  1  0
  4  6  2  0
  6  7  1  0
  7  8  2  0
  8  9  1  0
  9 10  2  0
 10 11  1  0
 11 12  1  0
 12 13  1  0
 13 14  2  0
 14 15  1  0
 15 16  2  0
 16 17  1  0
 17 18  2  0
 18 19  1  0
 10 20  1  0
  6 21  1  0
 21  2  1  0
 20  7  1  0
 18 13  1  0
  1 22  1  0
  1 23  1  0
  1 24  1  0
  5 25  1  0
  5 26  1  0
  5 27  1  0
 12 28  1  0
 12 29  1  0
 14 30  1  0
 15 31  1  0
 16 32  1  0
 17 33  1  0
M  END
>  <UniqueID>  (19) 
19

>  <SMILES>  (19) 
Cc1nc(C)c(-c2nnc(SCc3ccccc3F)o2)s1

>  <Energy>  (19) 
92.13265518984775

>  <Genealogy>  (19) 
Cc1nc(C)c(-c2nnc(SCc3ccccc3F)o2)s1 (3D coordinates assigned)
Cc1nc(C)c(-c2nnc(SCc3ccccc3F)o2)s1 (optimized conformer: 92.13265518984775 kcal/mol)

>  <smiles>  (19) 
Cc1nc(C)c(-c2nnc(SCc3ccccc3F)o2)s1

>  <score_type>  (19) 
oracle

>  <origin>  (19) 
adg

>  <m_score__min__energy>  (19) 
-8.1600000000000001

>  <m_primary>  (19) 
energy

$$$$
19:0
     RDKit          3D

 67 68  0  0  0  0  0  0  0  0999 V2000
   -0.8510   29.8100  -25.1980 C   0  0  0  0  0  0  0  0  0  0  0  0
    0.4740   29.5770  -24.4570 C   0  0  0  0  0  0  0  0  0  0  0  0
    0.6930   28.1760  -24.0160 N   0  0  1  0  0  0  0  0  0  0  0  0
    1.4280   28.1150  -22.7360 C   0  0  0  0  0  0  0  0  0  0  0  0
   -0.5790   27.4080  -23.9620 C   0  0  0  0  0  0  0  0  0  0  0  0
   -0.7950   26.5130  -25.1980 C   0  0  0  0  0  0  0  0  0  0  0  0
    0.1090   26.8570  -26.2330 O   0  0  0  0  0  0  0  0  0  0  0  0
   -0.5440   26.8540  -27.4860 C   0  0  0  0  0  0  0  0  0  0  0  0
   -0.7500   25.4150  -27.9370 C   0  0  0  0  0  0  0  0  0  0  0  0
   -1.7480   25.3820  -28.9340 O   0  0  0  0  0  0  0  0  0  0  0  0
   -2.4280   24.1390  -28.9180 C   0  0  0  0  0  0  0  0  0  0  0  0
   -3.3810   24.0250  -30.1130 C   0  0  0  0  0  0  0  0  0  0  0  0
   -3.9060   25.2930  -30.4650 O   0  0  0  0  0  0  0  0  0  0  0  0
   -5.2800   25.3960  -30.1360 C   0  0  0  0  0  0  0  0  0  0  0  0
   -5.9460   24.0150  -30.1140 C   0  0  0  0  0  0  0  0  0  0  0  0
   -6.7270   23.7790  -31.3490 N   0  0  0  0  0  0  0  0  0  0  0  0
   -7.9850   23.0280  -31.0740 C   0  0  0  0  0  0  0  0  0  0  0  0
   -8.3330   22.0250  -32.1760 C   0  0  0  0  0  0  0  0  0  0  0  0
   -7.1990   21.1130  -32.3420 N   0  0  0  0  0  0  0  0  0  0  0  0
   -7.3540   19.7040  -32.0900 C   0  0  0  0  0  0  0  0  0  0  0  0
   -8.1640   19.3150  -31.2040 O   0  0  0  0  0  0  0  0  0  0  0  0
   -6.5740   18.6970  -32.8420 C   0  0  0  0  0  0  0  0  0  0  0  0
   -6.3460   17.4230  -32.2920 C   0  0  0  0  0  0  0  0  0  0  0  0
   -5.6250   16.4640  -33.0080 C   0  0  0  0  0  0  0  0  0  0  0  0
   -5.1340   16.7630  -34.2820 C   0  0  0  0  0  0  0  0  0  0  0  0
   -5.3710   18.0210  -34.8450 C   0  0  0  0  0  0  0  0  0  0  0  0
   -6.0910   18.9840  -34.1310 C   0  0  0  0  0  0  0  0  0  0  0  0
   -5.8510   21.6880  -32.4520 C   0  0  0  0  0  0  0  0  0  0  0  0
   -5.8960   23.2260  -32.4500 C   0  0  0  0  0  0  0  0  0  0  0  0
   -1.6601   29.9523  -24.4665 H   0  0  0  0  0  0  0  0  0  0  0  0
   -0.7654   30.7069  -25.8291 H   0  0  0  0  0  0  0  0  0  0  0  0
   -1.0765   28.9377  -25.8291 H   0  0  0  0  0  0  0  0  0  0  0  0
    1.2980   29.8588  -25.1290 H   0  0  0  0  0  0  0  0  0  0  0  0
    0.4352   30.1905  -23.5448 H   0  0  0  0  0  0  0  0  0  0  0  0
    1.3140   27.7440  -24.7430 H   0  0  0  0  0  0  0  0  0  0  0  0
    0.7149   28.1742  -21.9005 H   0  0  0  0  0  0  0  0  0  0  0  0
    1.9839   27.1676  -22.6772 H   0  0  0  0  0  0  0  0  0  0  0  0
    2.1325   28.9578  -22.6772 H   0  0  0  0  0  0  0  0  0  0  0  0
   -0.5658   26.7706  -23.0656 H   0  0  0  0  0  0  0  0  0  0  0  0
   -1.4025   28.1368  -23.9355 H   0  0  0  0  0  0  0  0  0  0  0  0
   -0.6355   25.4622  -24.9145 H   0  0  0  0  0  0  0  0  0  0  0  0
   -1.8219   26.6595  -25.5640 H   0  0  0  0  0  0  0  0  0  0  0  0
   -1.5193   27.3544  -27.3943 H   0  0  0  0  0  0  0  0  0  0  0  0
    0.0699   27.3896  -28.2250 H   0  0  0  0  0  0  0  0  0  0  0  0
    0.1915   25.0185  -28.3450 H   0  0  0  0  0  0  0  0  0  0  0  0
   -1.0614   24.7991  -27.0804 H   0  0  0  0  0  0  0  0  0  0  0  0
   -1.6908   23.3239  -28.9655 H   0  0  0  0  0  0  0  0  0  0  0  0
   -3.0154   24.0702  -27.9905 H   0  0  0  0  0  0  0  0  0  0  0  0
   -2.8329   23.6112  -30.9723 H   0  0  0  0  0  0  0  0  0  0  0  0
   -4.2155   23.3646  -29.8347 H   0  0  0  0  0  0  0  0  0  0  0  0
   -5.3782   25.8583  -29.1427 H   0  0  0  0  0  0  0  0  0  0  0  0
   -5.7774   26.0123  -30.8994 H   0  0  0  0  0  0  0  0  0  0  0  0
   -5.1677   23.2424  -30.0282 H   0  0  0  0  0  0  0  0  0  0  0  0
   -6.6310   23.9717  -29.2544 H   0  0  0  0  0  0  0  0  0  0  0  0
   -7.8676   22.4817  -30.1265 H   0  0  0  0  0  0  0  0  0  0  0  0
   -8.8032   23.7615  -31.0250 H   0  0  0  0  0  0  0  0  0  0  0  0
   -9.2299   21.4554  -31.8910 H   0  0  0  0  0  0  0  0  0  0  0  0
   -8.5360   22.5533  -33.1192 H   0  0  0  0  0  0  0  0  0  0  0  0
   -6.7373   17.1802  -31.2930 H   0  0  0  0  0  0  0  0  0  0  0  0
   -5.4435   15.4721  -32.5684 H   0  0  0  0  0  0  0  0  0  0  0  0
   -4.5612   16.0089  -34.8417 H   0  0  0  0  0  0  0  0  0  0  0  0
   -4.9906   18.2533  -35.8507 H   0  0  0  0  0  0  0  0  0  0  0  0
   -6.2803   19.9703  -34.5797 H   0  0  0  0  0  0  0  0  0  0  0  0
   -5.2453   21.3464  -31.5997 H   0  0  0  0  0  0  0  0  0  0  0  0
   -5.4088   21.3554  -33.4027 H   0  0  0  0  0  0  0  0  0  0  0  0
   -4.8699   23.6070  -32.3406 H   0  0  0  0  0  0  0  0  0  0  0  0
   -6.3518   23.5441  -33.3992 H   0  0  0  0  0  0  0  0  0  0  0  0
  1  2  1  0
  2  3  1  0
  3  4  1  0
  3  5  1  0
  5  6  1  0
  6  7  1  0
  7  8  1  0
  8  9  1  0
  9 10  1  0
 10 11  1  0
 11 12  1  0
 12 13  1  0
 13 14  1  0
 14 15  1  0
 15 16  1  0
 16 17  1  0
 17 18  1  0
 18 19  1  0
 19 20  1  0
 20 21  2  0
 20 22  1  0
 22 23  2  0
 23 24  1  0
 24 25  2  0
 25 26  1  0
 26 27  2  0
 19 28  1  0
 28 29  1  0
 29 16  1  0
 27 22  1  0
  1 30  1  0
  1 31  1  0
  1 32  1  0
  2 33  1  0
  2 34  1  0
  3 35  1  6
  4 36  1  0
  4 37  1  0
  4 38  1  0
  5 39  1  0
  5 40  1  0
  6 41  1  0
  6 42  1  0
  8 43  1  0
  8 44  1  0
  9 45  1  0
  9 46  1  0
 11 47  1  0
 11 48  1  0
 12 49  1  0
 12 50  1  0
 14 51  1  0
 14 52  1  0
 15 53  1  0
 15 54  1  0
 17 55  1  0
 17 56  1  0
 18 57  1  0
 18 58  1  0
 23 59  1  0
 24 60  1  0
 25 61  1  0
 26 62  1  0
 27 63  1  0
 28 64  1  0
 28 65  1  0
 29 66  1  0
 29 67  1  0
M  CHG  1   3   1
M  END
>  <UniqueID>  (20) 
20

>  <SMILES>  (20) 
CC[N@@H+](C)CCOCCOCCOCCN1CCN(C(=O)c2ccccc2)CC1

>  <Energy>  (20) 
83.46895895529947

>  <Genealogy>  (20) 
CC[NH+](C)CCOCCOCCOCCN1CCN(C(=O)c2ccccc2)CC1 (protonated)
CC[N@@H+](C)CCOCCOCCOCCN1CCN(C(=O)c2ccccc2)CC1 (chirality)
CC[N@@H+](C)CCOCCOCCOCCN1CCN(C(=O)c2ccccc2)CC1 (3D coordinates assigned)
CC[N@@H+](C)CCOCCOCCOCCN1CCN(C(=O)c2ccccc2)CC1 (nonaromatic ring conformer: 83.46895895529947 kcal/mol)

>  <smiles>  (20) 
CCN(C)CCOCCOCCOCCN1CCN(C(=O)c2ccccc2)CC1

>  <score_type>  (20) 
oracle

>  <origin>  (20) 
adg

>  <m_score__min__energy>  (20) 
-8.5199999999999996

>  <m_primary>  (20) 
energy

$$$$
20:0
     RDKit          3D

 57 58  0  0  0  0  0  0  0  0999 V2000
   -3.3750   23.6980  -27.5080 C   0  0  0  0  0  0  0  0  0  0  0  0
   -1.9710   23.1700  -27.2240 C   0  0  0  0  0  0  0  0  0  0  0  0
   -1.8240   21.7960  -27.7580 N   0  0  0  0  0  0  0  0  0  0  0  0
   -1.4600   20.8410  -26.6870 C   0  0  0  0  0  0  0  0  0  0  0  0
   -2.3330   19.5930  -26.7720 C   0  0  0  0  0  0  0  0  0  0  0  0
   -0.8470   21.7530  -28.8710 C   0  0  0  0  0  0  0  0  0  0  0  0
   -1.4420   20.9910  -30.0600 C   0  0  0  0  0  0  0  0  0  0  0  0
   -1.8020   21.9420  -31.2070 C   0  0  0  0  0  0  0  0  0  0  0  0
   -3.2650   22.0500  -31.3400 N   0  0  0  0  0  0  0  0  0  0  0  0
   -3.9380   23.2840  -30.9020 C   0  0  0  0  0  0  0  0  0  0  0  0
   -5.4280   23.1760  -31.1020 C   0  0  0  0  0  0  0  0  0  0  0  0
   -6.0080   23.5780  -32.3160 C   0  0  0  0  0  0  0  0  0  0  0  0
   -7.3880   23.4720  -32.5090 C   0  0  0  0  0  0  0  0  0  0  0  0
   -8.2010   22.9580  -31.4930 C   0  0  0  0  0  0  0  0  0  0  0  0
   -9.5380   22.8530  -31.6810 F   0  0  0  0  0  0  0  0  0  0  0  0
   -7.6300   22.5430  -30.2850 C   0  0  0  0  0  0  0  0  0  0  0  0
   -6.2490   22.6450  -30.0910 C   0  0  0  0  0  0  0  0  0  0  0  0
   -4.0090   20.9290  -31.8730 C   0  0  0  0  0  0  0  0  0  0  0  0
   -4.1370   19.8840  -31.1770 O   0  0  0  0  0  0  0  0  0  0  0  0
   -4.5940   20.9700  -33.1870 N   0  0  0  0  0  0  0  0  0  0  0  0
   -5.1830   19.7870  -33.8080 C   0  0  0  0  0  0  0  0  0  0  0  0
   -6.4310   19.3850  -33.0720 C   0  0  0  0  0  0  0  0  0  0  0  0
   -6.4650   18.2030  -32.3130 C   0  0  0  0  0  0  0  0  0  0  0  0
   -7.6420   17.8170  -31.6640 C   0  0  0  0  0  0  0  0  0  0  0  0
   -8.7920   18.6030  -31.7720 C   0  0  0  0  0  0  0  0  0  0  0  0
   -8.7680   19.7770  -32.5300 C   0  0  0  0  0  0  0  0  0  0  0  0
   -7.5930   20.1660  -33.1810 C   0  0  0  0  0  0  0  0  0  0  0  0
   -3.8928   23.8927  -26.5572 H   0  0  0  0  0  0  0  0  0  0  0  0
   -3.3058   24.6315  -28.0857 H   0  0  0  0  0  0  0  0  0  0  0  0
   -3.9381   22.9502  -28.0857 H   0  0  0  0  0  0  0  0  0  0  0  0
   -1.2314   23.8276  -27.7041 H   0  0  0  0  0  0  0  0  0  0  0  0
   -1.8072   23.1521  -26.1364 H   0  0  0  0  0  0  0  0  0  0  0  0
   -0.4042   20.5538  -26.8002 H   0  0  0  0  0  0  0  0  0  0  0  0
   -1.6168   21.3218  -25.7101 H   0  0  0  0  0  0  0  0  0  0  0  0
   -2.5760   19.2457  -25.7570 H   0  0  0  0  0  0  0  0  0  0  0  0
   -3.2622   19.8315  -27.3102 H   0  0  0  0  0  0  0  0  0  0  0  0
   -1.7903   18.8019  -27.3102 H   0  0  0  0  0  0  0  0  0  0  0  0
   -0.6027   22.7796  -29.1814 H   0  0  0  0  0  0  0  0  0  0  0  0
    0.0648   21.2394  -28.5321 H   0  0  0  0  0  0  0  0  0  0  0  0
   -0.7056   20.2576  -30.4203 H   0  0  0  0  0  0  0  0  0  0  0  0
   -2.3608   20.4875  -29.7250 H   0  0  0  0  0  0  0  0  0  0  0  0
   -1.3819   22.9371  -30.9990 H   0  0  0  0  0  0  0  0  0  0  0  0
   -1.3852   21.5461  -32.1449 H   0  0  0  0  0  0  0  0  0  0  0  0
   -3.7277   23.4512  -29.8353 H   0  0  0  0  0  0  0  0  0  0  0  0
   -3.5601   24.1256  -31.5012 H   0  0  0  0  0  0  0  0  0  0  0  0
   -5.3725   23.9786  -33.1196 H   0  0  0  0  0  0  0  0  0  0  0  0
   -7.8357   23.7931  -33.4611 H   0  0  0  0  0  0  0  0  0  0  0  0
   -8.2683   22.1360  -29.4869 H   0  0  0  0  0  0  0  0  0  0  0  0
   -5.8028   22.3085  -29.1436 H   0  0  0  0  0  0  0  0  0  0  0  0
   -4.5690   21.8430  -33.7530 H   0  0  0  0  0  0  0  0  0  0  0  0
   -5.4345   20.0126  -34.8548 H   0  0  0  0  0  0  0  0  0  0  0  0
   -4.4586   18.9602  -33.7672 H   0  0  0  0  0  0  0  0  0  0  0  0
   -5.5628   17.5793  -32.2291 H   0  0  0  0  0  0  0  0  0  0  0  0
   -7.6624   16.8930  -31.0675 H   0  0  0  0  0  0  0  0  0  0  0  0
   -9.7166   18.2978  -31.2603 H   0  0  0  0  0  0  0  0  0  0  0  0
   -9.6738   20.3953  -32.6146 H   0  0  0  0  0  0  0  0  0  0  0  0
   -7.5789   21.0878  -33.7811 H   0  0  0  0  0  0  0  0  0  0  0  0
  1  2  1  0
  2  3  1  0
  3  4  1  0
  4  5  1  0
  3  6  1  0
  6  7  1  0
  7  8  1  0
  8  9  1  0
  9 10  1  0
 10 11  1  0
 11 12  2  0
 12 13  1  0
 13 14  2  0
 14 15  1  0
 14 16  1  0
 16 17  2  0
  9 18  1  0
 18 19  2  0
 18 20  1  0
 20 21  1  0
 21 22  1  0
 22 23  2  0
 23 24  1  0
 24 25  2  0
 25 26  1  0
 26 27  2  0
 17 11  1  0
 27 22  1  0
  1 28  1  0
  1 29  1  0
  1 30  1  0
  2 31  1  0
  2 32  1  0
  4 33  1  0
  4 34  1  0
  5 35  1  0
  5 36  1  0
  5 37  1  0
  6 38  1  0
  6 39  1  0
  7 40  1  0
  7 41  1  0
  8 42  1  0
  8 43  1  0
 10 44  1  0
 10 45  1  0
 12 46  1  0
 13 47  1  0
 16 48  1  0
 17 49  1  0
 20 50  1  0
 21 51  1  0
 21 52  1  0
 23 53  1  0
 24 54  1  0
 25 55  1  0
 26 56  1  0
 27 57  1  0
M  END
>  <UniqueID>  (21) 
21

>  <SMILES>  (21) 
CCN(CC)CCCN(Cc1ccc(F)cc1)C(=O)NCc1ccccc1

>  <Energy>  (21) 
47.335789574657085

>  <Genealogy>  (21) 
CCN(CC)CCCN(Cc1ccc(F)cc1)C(=O)NCc1ccccc1 (3D coordinates assigned)
CCN(CC)CCCN(Cc1ccc(F)cc1)C(=O)NCc1ccccc1 (optimized conformer: 47.335789574657085 kcal/mol)

>  <smiles>  (21) 
CCN(CC)CCCN(Cc1ccc(F)cc1)C(=O)NCc1ccccc1

>  <score_type>  (21) 
oracle

>  <origin>  (21) 
adg

>  <m_score__min__energy>  (21) 
-7.6500000000000004

>  <m_primary>  (21) 
energy

$$$$
21:0
     RDKit          3D

 39 41  0  0  0  0  0  0  0  0999 V2000
   -2.1570   24.9000  -28.1400 C   0  0  0  0  0  0  0  0  0  0  0  0
   -2.8200   25.2890  -29.3380 O   0  0  0  0  0  0  0  0  0  0  0  0
   -3.6490   24.4460  -30.0920 C   0  0  0  0  0  0  0  0  0  0  0  0
   -5.0520   24.6460  -30.1860 C   0  0  0  0  0  0  0  0  0  0  0  0
   -5.8500   23.7790  -30.9510 C   0  0  0  0  0  0  0  0  0  0  0  0
   -5.2410   22.7160  -31.6200 C   0  0  0  0  0  0  0  0  0  0  0  0
   -5.8850   21.7660  -32.4200 C   0  0  0  0  0  0  0  0  0  0  0  0
   -4.9990   20.8250  -32.9510 C   0  0  0  0  0  0  0  0  0  0  0  0
   -5.3770   19.7070  -33.8340 C   0  0  0  0  0  0  0  0  0  0  0  0
   -6.5280   19.6890  -34.3500 O   0  0  0  0  0  0  0  0  0  0  0  0
   -4.4530   18.6410  -34.1090 N   0  0  0  0  0  0  0  0  0  0  0  0
   -4.7690   17.5460  -35.0240 C   0  0  0  0  0  0  0  0  0  0  0  0
   -5.0980   16.2720  -34.2400 C   0  0  0  0  0  0  0  0  0  0  0  0
   -6.5920   16.1920  -33.9200 C   0  0  0  0  0  0  0  0  0  0  0  0
   -6.9130   17.0620  -32.7920 N   0  0  0  0  0  0  0  0  0  0  0  0
   -7.9810   17.8670  -32.6730 C   0  0  0  0  0  0  0  0  0  0  0  0
   -7.8500   18.5660  -31.4930 C   0  0  0  0  0  0  0  0  0  0  0  0
   -6.7000   18.2120  -30.8820 N   0  0  0  0  0  0  0  0  0  0  0  0
   -6.1520   17.2960  -31.7060 C   0  0  0  0  0  0  0  0  0  0  0  0
   -3.4270   21.1820  -32.4260 S   0  0  0  0  0  0  0  0  0  0  0  0
   -3.8720   22.5260  -31.5250 C   0  0  0  0  0  0  0  0  0  0  0  0
   -3.0580   23.3690  -30.7740 C   0  0  0  0  0  0  0  0  0  0  0  0
   -2.7391   25.2415  -27.2713 H   0  0  0  0  0  0  0  0  0  0  0  0
   -2.0643   23.8043  -28.1114 H   0  0  0  0  0  0  0  0  0  0  0  0
   -1.1553   25.3536  -28.1114 H   0  0  0  0  0  0  0  0  0  0  0  0
   -5.5186   25.4884  -29.6544 H   0  0  0  0  0  0  0  0  0  0  0  0
   -6.9366   23.9352  -31.0216 H   0  0  0  0  0  0  0  0  0  0  0  0
   -6.9685   21.7604  -32.6099 H   0  0  0  0  0  0  0  0  0  0  0  0
   -3.5380   18.6080  -33.6050 H   0  0  0  0  0  0  0  0  0  0  0  0
   -5.6365   17.8269  -35.6393 H   0  0  0  0  0  0  0  0  0  0  0  0
   -3.8962   17.3544  -35.6655 H   0  0  0  0  0  0  0  0  0  0  0  0
   -4.8121   15.3964  -34.8412 H   0  0  0  0  0  0  0  0  0  0  0  0
   -4.5386   16.2905  -33.2931 H   0  0  0  0  0  0  0  0  0  0  0  0
   -7.1698   16.5102  -34.8003 H   0  0  0  0  0  0  0  0  0  0  0  0
   -6.8481   15.1548  -33.6578 H   0  0  0  0  0  0  0  0  0  0  0  0
   -8.8115   17.9530  -33.3891 H   0  0  0  0  0  0  0  0  0  0  0  0
   -8.5725   19.3005  -31.1077 H   0  0  0  0  0  0  0  0  0  0  0  0
   -5.1914   16.7961  -31.5128 H   0  0  0  0  0  0  0  0  0  0  0  0
   -1.9733   23.1955  -30.7155 H   0  0  0  0  0  0  0  0  0  0  0  0
  1  2  1  0
  2  3  1  0
  3  4  2  0
  4  5  1  0
  5  6  2  0
  6  7  1  0
  7  8  2  0
  8  9  1  0
  9 10  2  0
  9 11  1  0
 11 12  1  0
 12 13  1  0
 13 14  1  0
 14 15  1  0
 15 16  1  0
 16 17  2  0
 17 18  1  0
 18 19  2  0
  8 20  1  0
 20 21  1  0
 21 22  2  0
 22  3  1  0
 21  6  1  0
 19 15  1  0
  1 23  1  0
  1 24  1  0
  1 25  1  0
  4 26  1  0
  5 27  1  0
  7 28  1  0
 11 29  1  0
 12 30  1  0
 12 31  1  0
 13 32  1  0
 13 33  1  0
 14 34  1  0
 14 35  1  0
 16 36  1  0
 17 37  1  0
 19 38  1  0
 22 39  1  0
M  END
>  <UniqueID>  (22) 
22

>  <SMILES>  (22) 
COc1ccc2cc(C(=O)NCCCn3ccnc3)sc2c1

>  <Energy>  (22) 
92.37510761508445

>  <Genealogy>  (22) 
COc1ccc2cc(C(=O)NCCCn3ccnc3)sc2c1 (3D coordinates assigned)
COc1ccc2cc(C(=O)NCCCn3ccnc3)sc2c1 (optimized conformer: 92.37510761508445 kcal/mol)

>  <smiles>  (22) 
COc1ccc2cc(C(=O)NCCCn3ccnc3)sc2c1

>  <score_type>  (22) 
oracle

>  <origin>  (22) 
adg

>  <m_score__min__energy>  (22) 
-7.0599999999999996

>  <m_primary>  (22) 
energy

$$$$
22:0
     RDKit          3D

 52 54  0  0  0  0  0  0  0  0999 V2000
   -1.9040   24.9810  -28.2170 C   0  0  0  0  0  0  0  0  0  0  0  0
   -2.7430   25.2910  -29.3250 O   0  0  0  0  0  0  0  0  0  0  0  0
   -3.7980   24.4800  -29.7700 C   0  0  0  0  0  0  0  0  0  0  0  0
   -3.7230   23.0760  -29.7720 C   0  0  0  0  0  0  0  0  0  0  0  0
   -4.8010   22.3110  -30.2270 C   0  0  0  0  0  0  0  0  0  0  0  0
   -5.9750   22.9330  -30.6880 C   0  0  0  0  0  0  0  0  0  0  0  0
   -7.0880   22.1440  -31.1560 N   0  0  0  0  0  0  0  0  0  0  0  0
   -8.2910   22.6080  -31.5620 C   0  0  0  0  0  0  0  0  0  0  0  0
   -9.0990   21.5600  -31.9540 C   0  0  0  0  0  0  0  0  0  0  0  0
   -8.3520   20.4130  -31.7740 C   0  0  0  0  0  0  0  0  0  0  0  0
   -8.7740   19.0180  -32.1250 C   0  0  0  0  0  0  0  0  0  0  0  0
   -7.6270   18.1030  -32.0530 N   0  0  0  0  0  0  0  0  0  0  0  0
   -7.1740   17.7090  -33.3940 C   0  0  0  0  0  0  0  0  0  0  0  0
   -6.2740   18.8020  -33.9850 C   0  0  0  0  0  0  0  0  0  0  0  0
   -5.2890   19.2920  -32.9940 N   0  0  0  0  0  0  0  0  0  0  0  0
   -4.2240   18.2850  -32.7480 C   0  0  0  0  0  0  0  0  0  0  0  0
   -2.9470   18.5900  -33.5430 C   0  0  0  0  0  0  0  0  0  0  0  0
   -2.3650   19.8920  -33.1470 N   0  0  0  0  0  0  0  0  0  0  0  0
   -1.5000   20.4150  -34.2150 C   0  0  0  0  0  0  0  0  0  0  0  0
   -3.3800   20.8920  -32.7330 C   0  0  0  0  0  0  0  0  0  0  0  0
   -4.7530   20.6260  -33.3690 C   0  0  0  0  0  0  0  0  0  0  0  0
   -7.1210   20.8000  -31.2870 C   0  0  0  0  0  0  0  0  0  0  0  0
   -6.0440   24.3370  -30.6840 C   0  0  0  0  0  0  0  0  0  0  0  0
   -4.9650   25.0990  -30.2290 C   0  0  0  0  0  0  0  0  0  0  0  0
   -2.4449   25.1809  -27.2803 H   0  0  0  0  0  0  0  0  0  0  0  0
   -1.6208   23.9189  -28.2574 H   0  0  0  0  0  0  0  0  0  0  0  0
   -0.9982   25.6038  -28.2574 H   0  0  0  0  0  0  0  0  0  0  0  0
   -2.8108   22.5766  -29.4135 H   0  0  0  0  0  0  0  0  0  0  0  0
   -4.7303   21.2133  -30.2244 H   0  0  0  0  0  0  0  0  0  0  0  0
   -8.5838   23.6682  -31.5777 H   0  0  0  0  0  0  0  0  0  0  0  0
  -10.1295   21.6254  -32.3331 H   0  0  0  0  0  0  0  0  0  0  0  0
   -9.5484   18.6849  -31.4183 H   0  0  0  0  0  0  0  0  0  0  0  0
   -9.1711   19.0126  -33.1508 H   0  0  0  0  0  0  0  0  0  0  0  0
   -6.8430   18.6210  -31.5920 H   0  0  0  0  0  0  0  0  0  0  0  0
   -6.6080   16.7683  -33.3257 H   0  0  0  0  0  0  0  0  0  0  0  0
   -8.0497   17.5705  -34.0452 H   0  0  0  0  0  0  0  0  0  0  0  0
   -5.7347   18.3907  -34.8510 H   0  0  0  0  0  0  0  0  0  0  0  0
   -6.9108   19.6476  -34.2841 H   0  0  0  0  0  0  0  0  0  0  0  0
   -3.9813   18.2801  -31.6751 H   0  0  0  0  0  0  0  0  0  0  0  0
   -4.6016   17.3053  -33.0760 H   0  0  0  0  0  0  0  0  0  0  0  0
   -2.2095   17.7958  -33.3549 H   0  0  0  0  0  0  0  0  0  0  0  0
   -3.2057   18.6358  -34.6112 H   0  0  0  0  0  0  0  0  0  0  0  0
   -0.6398   20.9351  -33.7684 H   0  0  0  0  0  0  0  0  0  0  0  0
   -1.1419   19.5820  -34.8378 H   0  0  0  0  0  0  0  0  0  0  0  0
   -2.0713   21.1191  -34.8378 H   0  0  0  0  0  0  0  0  0  0  0  0
   -3.4844   20.8579  -31.6385 H   0  0  0  0  0  0  0  0  0  0  0  0
   -3.0372   21.8804  -33.0730 H   0  0  0  0  0  0  0  0  0  0  0  0
   -5.4575   21.4001  -33.0307 H   0  0  0  0  0  0  0  0  0  0  0  0
   -4.6323   20.6496  -34.4621 H   0  0  0  0  0  0  0  0  0  0  0  0
   -6.2929   20.1185  -31.0427 H   0  0  0  0  0  0  0  0  0  0  0  0
   -6.9546   24.8396  -31.0419 H   0  0  0  0  0  0  0  0  0  0  0  0
   -5.0341   26.1968  -30.2318 H   0  0  0  0  0  0  0  0  0  0  0  0
  1  2  1  0
  2  3  1  0
  3  4  2  0
  4  5  1  0
  5  6  2  0
  6  7  1  0
  7  8  1  0
  8  9  2  0
  9 10  1  0
 10 11  1  0
 11 12  1  0
 12 13  1  0
 13 14  1  0
 14 15  1  0
 15 16  1  0
 16 17  1  0
 17 18  1  0
 18 19  1  0
 18 20  1  0
 20 21  1  0
 10 22  2  0
  6 23  1  0
 23 24  2  0
 24  3  1  0
 22  7  1  0
 21 15  1  0
  1 25  1  0
  1 26  1  0
  1 27  1  0
  4 28  1  0
  5 29  1  0
  8 30  1  0
  9 31  1  0
 11 32  1  0
 11 33  1  0
 12 34  1  0
 13 35  1  0
 13 36  1  0
 14 37  1  0
 14 38  1  0
 16 39  1  0
 16 40  1  0
 17 41  1  0
 17 42  1  0
 19 43  1  0
 19 44  1  0
 19 45  1  0
 20 46  1  0
 20 47  1  0
 21 48  1  0
 21 49  1  0
 22 50  1  0
 23 51  1  0
 24 52  1  0
M  END
>  <UniqueID>  (23) 
23

>  <SMILES>  (23) 
COc1ccc(-n2ccc(CNCCN3CCN(C)CC3)c2)cc1

>  <Energy>  (23) 
90.54784966585972

>  <Genealogy>  (23) 
COc1ccc(-n2ccc(CNCCN3CCN(C)CC3)c2)cc1 (3D coordinates assigned)
COc1ccc(-n2ccc(CNCCN3CCN(C)CC3)c2)cc1 (nonaromatic ring conformer: 90.54784966585972 kcal/mol)

>  <smiles>  (23) 
COc1ccc(-n2ccc(CNCCN3CCN(C)CC3)c2)cc1

>  <score_type>  (23) 
oracle

>  <origin>  (23) 
adg

>  <m_score__min__energy>  (23) 
-8.4499999999999993

>  <m_primary>  (23) 
energy

$$$$
23:0
     RDKit          3D

 46 47  0  0  0  0  0  0  0  0999 V2000
   -7.1090   17.7320  -32.2440 C   0  0  0  0  0  0  0  0  0  0  0  0
   -8.3510   18.5700  -31.9270 C   0  0  0  0  0  0  0  0  0  0  0  0
   -8.4180   19.8510  -32.6640 N   0  0  0  0  0  0  0  0  0  0  0  0
   -7.1150   20.4720  -32.9760 C   0  0  0  0  0  0  0  0  0  0  0  0
   -6.6070   21.4270  -31.8740 C   0  0  0  0  0  0  0  0  0  0  0  0
   -7.6570   21.7780  -30.8910 N   0  0  0  0  0  0  0  0  0  0  0  0
   -7.2430   22.9190  -30.0460 C   0  0  0  0  0  0  0  0  0  0  0  0
   -6.5770   24.0120  -30.8950 C   0  0  0  0  0  0  0  0  0  0  0  0
   -5.8170   25.0310  -30.0360 C   0  0  0  0  0  0  0  0  0  0  0  0
   -4.4150   25.1820  -30.4640 N   0  0  0  0  0  0  0  0  0  0  0  0
   -3.7420   23.8900  -30.6970 C   0  0  0  0  0  0  0  0  0  0  0  0
   -3.0750   23.4080  -29.4330 C   0  0  0  0  0  0  0  0  0  0  0  0
   -3.4170   22.1530  -28.9030 C   0  0  0  0  0  0  0  0  0  0  0  0
   -2.8020   21.6840  -27.7380 C   0  0  0  0  0  0  0  0  0  0  0  0
   -1.8350   22.4610  -27.0960 C   0  0  0  0  0  0  0  0  0  0  0  0
   -1.2430   22.0080  -25.9630 F   0  0  0  0  0  0  0  0  0  0  0  0
   -1.4790   23.7060  -27.6200 C   0  0  0  0  0  0  0  0  0  0  0  0
   -2.0890   24.1810  -28.7870 C   0  0  0  0  0  0  0  0  0  0  0  0
   -1.7210   25.3910  -29.2760 F   0  0  0  0  0  0  0  0  0  0  0  0
   -8.9140   22.0740  -31.5930 C   0  0  0  0  0  0  0  0  0  0  0  0
   -9.4750   20.7870  -32.2150 C   0  0  0  0  0  0  0  0  0  0  0  0
   -6.6337   17.4113  -31.3053 H   0  0  0  0  0  0  0  0  0  0  0  0
   -7.4030   16.8469  -32.8272 H   0  0  0  0  0  0  0  0  0  0  0  0
   -6.3983   18.3359  -32.8272 H   0  0  0  0  0  0  0  0  0  0  0  0
   -9.2421   17.9775  -32.1819 H   0  0  0  0  0  0  0  0  0  0  0  0
   -8.3004   18.8211  -30.8572 H   0  0  0  0  0  0  0  0  0  0  0  0
   -6.3723   19.6723  -33.1129 H   0  0  0  0  0  0  0  0  0  0  0  0
   -7.2536   21.0737  -33.8863 H   0  0  0  0  0  0  0  0  0  0  0  0
   -5.7763   20.9400  -31.3423 H   0  0  0  0  0  0  0  0  0  0  0  0
   -6.2872   22.3584  -32.3641 H   0  0  0  0  0  0  0  0  0  0  0  0
   -8.1291   23.3391  -29.5476 H   0  0  0  0  0  0  0  0  0  0  0  0
   -6.5183   22.5610  -29.2999 H   0  0  0  0  0  0  0  0  0  0  0  0
   -5.8695   23.5379  -31.5911 H   0  0  0  0  0  0  0  0  0  0  0  0
   -7.3700   24.5503  -31.4348 H   0  0  0  0  0  0  0  0  0  0  0  0
   -6.3191   26.0065  -30.1158 H   0  0  0  0  0  0  0  0  0  0  0  0
   -5.8166   24.6655  -28.9985 H   0  0  0  0  0  0  0  0  0  0  0  0
   -3.9090   25.6690  -29.6880 H   0  0  0  0  0  0  0  0  0  0  0  0
   -4.4861   23.1470  -31.0200 H   0  0  0  0  0  0  0  0  0  0  0  0
   -2.9765   24.0222  -31.4758 H   0  0  0  0  0  0  0  0  0  0  0  0
   -4.1739   21.5348  -29.4079 H   0  0  0  0  0  0  0  0  0  0  0  0
   -3.0800   20.7023  -27.3268 H   0  0  0  0  0  0  0  0  0  0  0  0
   -0.7162   24.3156  -27.1135 H   0  0  0  0  0  0  0  0  0  0  0  0
   -9.6439   22.4833  -30.8791 H   0  0  0  0  0  0  0  0  0  0  0  0
   -8.7226   22.8095  -32.3882 H   0  0  0  0  0  0  0  0  0  0  0  0
  -10.0980   20.2780  -31.4648 H   0  0  0  0  0  0  0  0  0  0  0  0
  -10.0555   21.0774  -33.1031 H   0  0  0  0  0  0  0  0  0  0  0  0
  1  2  1  0
  2  3  1  0
  3  4  1  0
  4  5  1  0
  5  6  1  0
  6  7  1  0
  7  8  1  0
  8  9  1  0
  9 10  1  0
 10 11  1  0
 11 12  1  0
 12 13  2  0
 13 14  1  0
 14 15  2  0
 15 16  1  0
 15 17  1  0
 17 18  2  0
 18 19  1  0
  6 20  1  0
 20 21  1  0
 21  3  1  0
 18 12  1  0
  1 22  1  0
  1 23  1  0
  1 24  1  0
  2 25  1  0
  2 26  1  0
  4 27  1  0
  4 28  1  0
  5 29  1  0
  5 30  1  0
  7 31  1  0
  7 32  1  0
  8 33  1  0
  8 34  1  0
  9 35  1  0
  9 36  1  0
 10 37  1  0
 11 38  1  0
 11 39  1  0
 13 40  1  0
 14 41  1  0
 17 42  1  0
 20 43  1  0
 20 44  1  0
 21 45  1  0
 21 46  1  0
M  END
>  <UniqueID>  (24) 
24

>  <SMILES>  (24) 
CCN1CCN(CCCNCc2ccc(F)cc2F)CC1

>  <Energy>  (24) 
53.69236526500114

>  <Genealogy>  (24) 
CCN1CCN(CCCNCc2ccc(F)cc2F)CC1 (3D coordinates assigned)
CCN1CCN(CCCNCc2ccc(F)cc2F)CC1 (nonaromatic ring conformer: 53.69236526500114 kcal/mol)

>  <smiles>  (24) 
CCN1CCN(CCCNCc2ccc(F)cc2F)CC1

>  <score_type>  (24) 
oracle

>  <origin>  (24) 
adg

>  <m_score__min__energy>  (24) 
-7.7300000000000004

>  <m_primary>  (24) 
energy

$$$$
24:0
     RDKit          3D

 76 78  0  0  0  0  0  0  0  0999 V2000
   -4.4710   21.9740  -32.7080 C   0  0  0  0  0  0  0  0  0  0  0  0
   -5.3820   20.7630  -32.5070 C   0  0  0  0  0  0  0  0  0  0  0  0
   -6.6080   20.7610  -33.4450 C   0  0  0  0  0  0  0  0  0  0  0  0
   -7.5710   19.6470  -33.2220 N   0  0  2  0  0  0  0  0  0  0  0  0
   -8.6860   20.1330  -32.3630 C   0  0  0  0  0  0  0  0  0  0  0  0
   -8.2350   20.7130  -31.0040 C   0  0  0  0  0  0  0  0  0  0  0  0
   -8.6850   22.1000  -30.8160 N   0  0  0  0  0  0  0  0  0  0  0  0
   -7.9180   23.0370  -31.6440 C   0  0  0  0  0  0  0  0  0  0  0  0
   -6.7010   23.4940  -30.8920 C   0  0  0  0  0  0  0  0  0  0  0  0
   -6.1090   24.7340  -31.1920 C   0  0  0  0  0  0  0  0  0  0  0  0
   -4.9990   25.1790  -30.4660 C   0  0  0  0  0  0  0  0  0  0  0  0
   -4.4810   24.3980  -29.4300 C   0  0  0  0  0  0  0  0  0  0  0  0
   -5.0730   23.1710  -29.1150 C   0  0  0  0  0  0  0  0  0  0  0  0
   -6.1820   22.7220  -29.8380 C   0  0  0  0  0  0  0  0  0  0  0  0
   -6.9320   18.3960  -32.7220 C   0  0  0  0  0  0  0  0  0  0  0  0
   -6.1180   17.6120  -33.7790 C   0  0  0  0  0  0  0  0  0  0  0  0
   -5.0270   16.7150  -33.1230 C   0  0  1  0  0  0  0  0  0  0  0  0
   -5.2860   15.2230  -33.5150 C   0  0  0  0  0  0  0  0  0  0  0  0
   -4.0590   14.4510  -33.7430 N   0  0  0  0  0  0  0  0  0  0  0  0
   -3.0370   14.8230  -32.7740 C   0  0  0  0  0  0  0  0  0  0  0  0
   -2.5500   16.2320  -33.0990 C   0  0  0  0  0  0  0  0  0  0  0  0
   -3.6480   17.1500  -33.5010 N   0  0  0  0  0  0  0  0  0  0  0  0
   -3.2930   18.5680  -33.2090 C   0  0  0  0  0  0  0  0  0  0  0  0
   -2.2820   19.2280  -34.1790 C   0  0  0  0  0  0  0  0  0  0  0  0
   -2.0620   20.6450  -33.8590 N   0  0  0  0  0  0  0  0  0  0  0  0
   -0.7810   20.8220  -33.1650 C   0  0  0  0  0  0  0  0  0  0  0  0
   -1.0040   20.8090  -31.6730 C   0  0  0  0  0  0  0  0  0  0  0  0
   -1.6710   21.8870  -31.0650 C   0  0  0  0  0  0  0  0  0  0  0  0
   -1.9200   21.8840  -29.6910 C   0  0  0  0  0  0  0  0  0  0  0  0
   -1.5100   20.8030  -28.9080 C   0  0  0  0  0  0  0  0  0  0  0  0
   -1.8250   20.8020  -27.1830 Cl  0  0  0  0  0  0  0  0  0  0  0  0
   -0.8610   19.7150  -29.5020 C   0  0  0  0  0  0  0  0  0  0  0  0
   -0.6130   19.7070  -30.8810 C   0  0  0  0  0  0  0  0  0  0  0  0
    0.1730   18.2950  -31.5820 Cl  0  0  0  0  0  0  0  0  0  0  0  0
   -4.1705   22.3734  -31.7281 H   0  0  0  0  0  0  0  0  0  0  0  0
   -3.5757   21.6701  -33.2703 H   0  0  0  0  0  0  0  0  0  0  0  0
   -5.0112   22.7499  -33.2703 H   0  0  0  0  0  0  0  0  0  0  0  0
   -4.7969   19.8506  -32.6946 H   0  0  0  0  0  0  0  0  0  0  0  0
   -5.7604   20.8067  -31.4751 H   0  0  0  0  0  0  0  0  0  0  0  0
   -7.1461   21.7101  -33.3048 H   0  0  0  0  0  0  0  0  0  0  0  0
   -6.2148   20.6273  -34.4636 H   0  0  0  0  0  0  0  0  0  0  0  0
   -7.9930   19.4230  -34.1530 H   0  0  0  0  0  0  0  0  0  0  0  0
   -9.2257   20.9193  -32.9111 H   0  0  0  0  0  0  0  0  0  0  0  0
   -9.3154   19.2590  -32.1393 H   0  0  0  0  0  0  0  0  0  0  0  0
   -8.6530   20.0925  -30.1976 H   0  0  0  0  0  0  0  0  0  0  0  0
   -7.1352   20.7087  -30.9829 H   0  0  0  0  0  0  0  0  0  0  0  0
   -8.5140   22.3510  -29.8120 H   0  0  0  0  0  0  0  0  0  0  0  0
   -7.6077   22.5356  -32.5726 H   0  0  0  0  0  0  0  0  0  0  0  0
   -8.5452   23.9073  -31.8874 H   0  0  0  0  0  0  0  0  0  0  0  0
   -6.5203   25.3563  -32.0005 H   0  0  0  0  0  0  0  0  0  0  0  0
   -4.5335   26.1450  -30.7112 H   0  0  0  0  0  0  0  0  0  0  0  0
   -3.6068   24.7485  -28.8617 H   0  0  0  0  0  0  0  0  0  0  0  0
   -4.6656   22.5583  -28.2973 H   0  0  0  0  0  0  0  0  0  0  0  0
   -6.6505   21.7605  -29.5811 H   0  0  0  0  0  0  0  0  0  0  0  0
   -6.2537   18.6644  -31.8987 H   0  0  0  0  0  0  0  0  0  0  0  0
   -7.7532   17.7332  -32.4116 H   0  0  0  0  0  0  0  0  0  0  0  0
   -6.8043   16.9737  -34.3548 H   0  0  0  0  0  0  0  0  0  0  0  0
   -5.6138   18.3408  -34.4307 H   0  0  0  0  0  0  0  0  0  0  0  0
   -5.0938   16.8176  -32.0298 H   0  0  0  0  0  0  0  0  0  0  0  0
   -5.8518   14.7437  -32.7025 H   0  0  0  0  0  0  0  0  0  0  0  0
   -5.8410   15.2320  -34.4647 H   0  0  0  0  0  0  0  0  0  0  0  0
   -4.2820   13.4360  -33.6060 H   0  0  0  0  0  0  0  0  0  0  0  0
   -3.4625   14.8024  -31.7598 H   0  0  0  0  0  0  0  0  0  0  0  0
   -2.1972   14.1141  -32.8217 H   0  0  0  0  0  0  0  0  0  0  0  0
   -2.0561   16.6461  -32.2076 H   0  0  0  0  0  0  0  0  0  0  0  0
   -1.8602   16.1521  -33.9521 H   0  0  0  0  0  0  0  0  0  0  0  0
   -4.2201   19.1594  -33.2355 H   0  0  0  0  0  0  0  0  0  0  0  0
   -2.7964   18.5535  -32.2276 H   0  0  0  0  0  0  0  0  0  0  0  0
   -1.3225   18.6945  -34.1100 H   0  0  0  0  0  0  0  0  0  0  0  0
   -2.6962   19.1682  -35.1963 H   0  0  0  0  0  0  0  0  0  0  0  0
   -1.9880   21.1690  -34.7640 H   0  0  0  0  0  0  0  0  0  0  0  0
   -0.1001   20.0030  -33.4399 H   0  0  0  0  0  0  0  0  0  0  0  0
   -0.3382   21.7852  -33.4584 H   0  0  0  0  0  0  0  0  0  0  0  0
   -1.9995   22.7400  -31.6769 H   0  0  0  0  0  0  0  0  0  0  0  0
   -2.4397   22.7341  -29.2250 H   0  0  0  0  0  0  0  0  0  0  0  0
   -0.5441   18.8622  -28.8837 H   0  0  0  0  0  0  0  0  0  0  0  0
  1  2  1  0
  2  3  1  0
  3  4  1  0
  4  5  1  0
  5  6  1  0
  6  7  1  0
  7  8  1  0
  8  9  1  0
  9 10  2  0
 10 11  1  0
 11 12  2  0
 12 13  1  0
 13 14  2  0
  4 15  1  0
 15 16  1  0
 16 17  1  0
 17 18  1  0
 18 19  1  0
 19 20  1  0
 20 21  1  0
 21 22  1  0
 22 23  1  0
 23 24  1  0
 24 25  1  0
 25 26  1  0
 26 27  1  0
 27 28  2  0
 28 29  1  0
 29 30  2  0
 30 31  1  0
 30 32  1  0
 32 33  2  0
 33 34  1  0
 14  9  1  0
 22 17  1  0
 33 27  1  0
  1 35  1  0
  1 36  1  0
  1 37  1  0
  2 38  1  0
  2 39  1  0
  3 40  1  0
  3 41  1  0
  4 42  1  6
  5 43  1  0
  5 44  1  0
  6 45  1  0
  6 46  1  0
  7 47  1  0
  8 48  1  0
  8 49  1  0
 10 50  1  0
 11 51  1  0
 12 52  1  0
 13 53  1  0
 14 54  1  0
 15 55  1  0
 15 56  1  0
 16 57  1  0
 16 58  1  0
 17 59  1  1
 18 60  1  0
 18 61  1  0
 19 62  1  0
 20 63  1  0
 20 64  1  0
 21 65  1  0
 21 66  1  0
 23 67  1  0
 23 68  1  0
 24 69  1  0
 24 70  1  0
 25 71  1  0
 26 72  1  0
 26 73  1  0
 28 74  1  0
 29 75  1  0
 32 76  1  0
M  CHG  1   4   1
M  END
>  <UniqueID>  (25) 
25

>  <SMILES>  (25) 
CCC[N@H+](CCNCc1ccccc1)CC[C@H]1CNCCN1CCNCc1ccc(Cl)cc1Cl

>  <Energy>  (25) 
91.24486742542608

>  <Genealogy>  (25) 
CCC[NH+](CCNCc1ccccc1)CCC1CNCCN1CCNCc1ccc(Cl)cc1Cl (protonated)
CCC[N@H+](CCNCc1ccccc1)CC[C@H]1CNCCN1CCNCc1ccc(Cl)cc1Cl (chirality)
CCC[N@H+](CCNCc1ccccc1)CC[C@H]1CNCCN1CCNCc1ccc(Cl)cc1Cl (3D coordinates assigned)
CCC[N@H+](CCNCc1ccccc1)CC[C@H]1CNCCN1CCNCc1ccc(Cl)cc1Cl (nonaromatic ring conformer: 91.24486742542608 kcal/mol)

>  <smiles>  (25) 
CCCN(CCNCc1ccccc1)CCC1CNCCN1CCNCc1ccc(Cl)cc1Cl

>  <score_type>  (25) 
oracle

>  <origin>  (25) 
adg

>  <m_score__min__energy>  (25) 
-8.6600000000000001

>  <m_primary>  (25) 
energy

$$$$
25:0
     RDKit          3D

 39 42  0  0  0  0  0  0  0  0999 V2000
   -4.2530   17.6870  -33.6490 C   0  0  0  0  0  0  0  0  0  0  0  0
   -4.7920   19.0530  -33.6320 N   0  0  0  0  0  0  0  0  0  0  0  0
   -6.1220   19.2950  -34.2130 C   0  0  0  0  0  0  0  0  0  0  0  0
   -7.1730   19.2820  -33.1410 C   0  0  0  0  0  0  0  0  0  0  0  0
   -7.8430   20.4360  -32.7020 C   0  0  0  0  0  0  0  0  0  0  0  0
   -8.7590   20.1930  -31.6890 C   0  0  0  0  0  0  0  0  0  0  0  0
   -8.7350   18.5480  -31.3470 S   0  0  0  0  0  0  0  0  0  0  0  0
   -7.5650   18.1250  -32.4760 C   0  0  0  0  0  0  0  0  0  0  0  0
   -4.0850   20.1500  -32.9970 C   0  0  0  0  0  0  0  0  0  0  0  0
   -4.7930   21.1110  -32.3290 N   0  0  0  0  0  0  0  0  0  0  0  0
   -4.2090   22.1710  -31.6900 C   0  0  0  0  0  0  0  0  0  0  0  0
   -5.0650   23.1620  -30.9920 C   0  0  0  0  0  0  0  0  0  0  0  0
   -6.4310   23.3010  -31.2970 C   0  0  0  0  0  0  0  0  0  0  0  0
   -7.2030   24.2560  -30.6320 C   0  0  0  0  0  0  0  0  0  0  0  0
   -6.6070   25.0700  -29.6690 C   0  0  0  0  0  0  0  0  0  0  0  0
   -5.2850   24.9350  -29.3860 N   0  0  0  0  0  0  0  0  0  0  0  0
   -4.5100   24.0130  -30.0200 C   0  0  0  0  0  0  0  0  0  0  0  0
   -2.8070   22.2930  -31.7290 C   0  0  0  0  0  0  0  0  0  0  0  0
   -2.1130   21.3400  -32.3960 N   0  0  0  0  0  0  0  0  0  0  0  0
   -0.7930   21.2280  -32.5950 C   0  0  0  0  0  0  0  0  0  0  0  0
   -0.5940   20.0870  -33.3510 C   0  0  0  0  0  0  0  0  0  0  0  0
   -1.7830   19.4970  -33.6230 N   0  0  0  0  0  0  0  0  0  0  0  0
   -2.6850   20.2970  -33.0160 C   0  0  0  0  0  0  0  0  0  0  0  0
   -4.1140   17.3348  -32.6162 H   0  0  0  0  0  0  0  0  0  0  0  0
   -4.9561   17.0219  -34.1718 H   0  0  0  0  0  0  0  0  0  0  0  0
   -3.2852   17.6812  -34.1718 H   0  0  0  0  0  0  0  0  0  0  0  0
   -6.1262   20.2750  -34.7125 H   0  0  0  0  0  0  0  0  0  0  0  0
   -6.3438   18.4990  -34.9391 H   0  0  0  0  0  0  0  0  0  0  0  0
   -7.6590   21.4362  -33.1212 H   0  0  0  0  0  0  0  0  0  0  0  0
   -9.3910   20.9460  -31.1955 H   0  0  0  0  0  0  0  0  0  0  0  0
   -7.1773   17.1117  -32.6573 H   0  0  0  0  0  0  0  0  0  0  0  0
   -6.8918   22.6567  -32.0603 H   0  0  0  0  0  0  0  0  0  0  0  0
   -8.2723   24.3653  -30.8658 H   0  0  0  0  0  0  0  0  0  0  0  0
   -7.2082   25.8225  -29.1377 H   0  0  0  0  0  0  0  0  0  0  0  0
   -4.8530   25.5530  -28.6620 H   0  0  0  0  0  0  0  0  0  0  0  0
   -3.4417   23.9331  -29.7701 H   0  0  0  0  0  0  0  0  0  0  0  0
   -2.2939   23.1317  -31.2358 H   0  0  0  0  0  0  0  0  0  0  0  0
   -0.0152   21.9133  -32.2271 H   0  0  0  0  0  0  0  0  0  0  0  0
    0.3859   19.7133  -33.6828 H   0  0  0  0  0  0  0  0  0  0  0  0
  1  2  1  0
  2  3  1  0
  3  4  1  0
  4  5  1  0
  5  6  2  0
  6  7  1  0
  7  8  1  0
  2  9  1  0
  9 10  2  0
 10 11  1  0
 11 12  1  0
 12 13  2  0
 13 14  1  0
 14 15  2  0
 15 16  1  0
 16 17  2  0
 11 18  2  0
 18 19  1  0
 19 20  1  0
 20 21  2  0
 21 22  1  0
 22 23  2  0
  8  4  2  0
 23  9  1  0
 17 12  1  0
 23 19  1  0
  1 24  1  0
  1 25  1  0
  1 26  1  0
  3 27  1  0
  3 28  1  0
  5 29  1  0
  6 30  1  0
  8 31  1  0
 13 32  1  0
 14 33  1  0
 15 34  1  0
 16 35  1  0
 17 36  1  0
 18 37  1  0
 20 38  1  0
 21 39  1  0
M  CHG  1  16   1
M  END
>  <UniqueID>  (26) 
26

>  <SMILES>  (26) 
CN(Cc1ccsc1)c1nc(-c2ccc[nH+]c2)cn2ccnc12

>  <Energy>  (26) 
107.41271842210519

>  <Genealogy>  (26) 
CN(Cc1ccsc1)c1nc(-c2ccc[nH+]c2)cn2ccnc12 (protonated)
CN(Cc1ccsc1)c1nc(-c2ccc[nH+]c2)cn2ccnc12 (3D coordinates assigned)
CN(Cc1ccsc1)c1nc(-c2ccc[nH+]c2)cn2ccnc12 (optimized conformer: 107.41271842210519 kcal/mol)

>  <smiles>  (26) 
CN(Cc1ccsc1)c1nc(-c2cccnc2)cn2ccnc12

>  <score_type>  (26) 
oracle

>  <origin>  (26) 
adg

>  <m_score__min__energy>  (26) 
-6.7300000000000004

>  <m_primary>  (26) 
energy

$$$$
26:0
     RDKit          3D

 59 61  0  0  0  0  0  0  0  0999 V2000
   -4.5800   14.4940  -32.1990 C   0  0  0  0  0  0  0  0  0  0  0  0
   -5.2030   14.9480  -33.5230 C   0  0  0  0  0  0  0  0  0  0  0  0
   -4.8950   16.3790  -33.8230 N   0  0  0  0  0  0  0  0  0  0  0  0
   -6.0930   17.1440  -34.2550 C   0  0  0  0  0  0  0  0  0  0  0  0
   -5.7320   18.4900  -34.8900 C   0  0  0  0  0  0  0  0  0  0  0  0
   -3.7720   16.5170  -34.7900 C   0  0  0  0  0  0  0  0  0  0  0  0
   -2.4360   16.9960  -34.1870 C   0  0  0  0  0  0  0  0  0  0  0  0
   -2.6100   17.5740  -32.8960 O   0  0  0  0  0  0  0  0  0  0  0  0
   -1.8640   18.6770  -32.4680 C   0  0  0  0  0  0  0  0  0  0  0  0
   -0.6640   18.5190  -32.1070 O   0  0  0  0  0  0  0  0  0  0  0  0
   -2.4760   20.0250  -32.4380 C   0  0  0  0  0  0  0  0  0  0  0  0
   -3.0820   20.5250  -33.5190 C   0  0  0  0  0  0  0  0  0  0  0  0
   -3.7020   21.8820  -33.4480 C   0  0  0  0  0  0  0  0  0  0  0  0
   -4.4270   22.0690  -32.0950 C   0  0  1  0  0  0  0  0  0  0  0  0
   -5.7690   21.3490  -31.9700 C   0  0  0  0  0  0  0  0  0  0  0  0
   -7.0200   22.0050  -32.0420 C   0  0  0  0  0  0  0  0  0  0  0  0
   -8.2100   21.2790  -31.9410 C   0  0  0  0  0  0  0  0  0  0  0  0
   -8.1770   19.8940  -31.7690 C   0  0  0  0  0  0  0  0  0  0  0  0
   -6.9510   19.2310  -31.6950 C   0  0  0  0  0  0  0  0  0  0  0  0
   -5.7580   19.9500  -31.7920 C   0  0  0  0  0  0  0  0  0  0  0  0
   -3.5710   21.6920  -30.9260 N   0  0  0  0  0  0  0  0  0  0  0  0
   -3.2700   22.8610  -30.0700 C   0  0  0  0  0  0  0  0  0  0  0  0
   -4.3590   23.8850  -30.1490 C   0  0  0  0  0  0  0  0  0  0  0  0
   -5.6070   23.7800  -29.5700 C   0  0  0  0  0  0  0  0  0  0  0  0
   -6.2720   24.9350  -29.9170 C   0  0  0  0  0  0  0  0  0  0  0  0
   -5.3880   25.6710  -30.6840 C   0  0  0  0  0  0  0  0  0  0  0  0
   -4.2550   25.0200  -30.8010 O   0  0  0  0  0  0  0  0  0  0  0  0
   -2.3320   20.9210  -31.2300 C   0  0  0  0  0  0  0  0  0  0  0  0
   -5.1552   14.9132  -31.3603 H   0  0  0  0  0  0  0  0  0  0  0  0
   -4.5977   13.3956  -32.1430 H   0  0  0  0  0  0  0  0  0  0  0  0
   -3.5398   14.8473  -32.1430 H   0  0  0  0  0  0  0  0  0  0  0  0
   -4.8069   14.3212  -34.3356 H   0  0  0  0  0  0  0  0  0  0  0  0
   -6.2949   14.8452  -33.4385 H   0  0  0  0  0  0  0  0  0  0  0  0
   -4.5450   16.8440  -32.9480 H   0  0  0  0  0  0  0  0  0  0  0  0
   -6.6479   16.5441  -34.9914 H   0  0  0  0  0  0  0  0  0  0  0  0
   -6.6994   17.3485  -33.3603 H   0  0  0  0  0  0  0  0  0  0  0  0
   -5.5342   19.2276  -34.0983 H   0  0  0  0  0  0  0  0  0  0  0  0
   -4.8338   18.3719  -35.5139 H   0  0  0  0  0  0  0  0  0  0  0  0
   -6.5688   18.8373  -35.5139 H   0  0  0  0  0  0  0  0  0  0  0  0
   -3.6018   15.5348  -35.2551 H   0  0  0  0  0  0  0  0  0  0  0  0
   -4.0796   17.2960  -35.5031 H   0  0  0  0  0  0  0  0  0  0  0  0
   -1.7558   16.1357  -34.1022 H   0  0  0  0  0  0  0  0  0  0  0  0
   -2.0204   17.7677  -34.8517 H   0  0  0  0  0  0  0  0  0  0  0  0
   -3.1238   19.9431  -34.4516 H   0  0  0  0  0  0  0  0  0  0  0  0
   -2.9167   22.6457  -33.5478 H   0  0  0  0  0  0  0  0  0  0  0  0
   -4.4329   21.9853  -34.2636 H   0  0  0  0  0  0  0  0  0  0  0  0
   -4.6348   23.1491  -32.0792 H   0  0  0  0  0  0  0  0  0  0  0  0
   -7.0567   23.0959  -32.1787 H   0  0  0  0  0  0  0  0  0  0  0  0
   -9.1766   21.8011  -31.9973 H   0  0  0  0  0  0  0  0  0  0  0  0
   -9.1159   19.3260  -31.6919 H   0  0  0  0  0  0  0  0  0  0  0  0
   -6.9246   18.1396  -31.5600 H   0  0  0  0  0  0  0  0  0  0  0  0
   -4.7971   19.4184  -31.7288 H   0  0  0  0  0  0  0  0  0  0  0  0
   -3.1681   22.5254  -29.0274 H   0  0  0  0  0  0  0  0  0  0  0  0
   -2.3346   23.3196  -30.4233 H   0  0  0  0  0  0  0  0  0  0  0  0
   -5.9901   22.9488  -28.9598 H   0  0  0  0  0  0  0  0  0  0  0  0
   -7.2990   25.2153  -29.6399 H   0  0  0  0  0  0  0  0  0  0  0  0
   -5.6023   26.6539  -31.1289 H   0  0  0  0  0  0  0  0  0  0  0  0
   -1.5136   21.6319  -31.4164 H   0  0  0  0  0  0  0  0  0  0  0  0
   -2.1254   20.2751  -30.3639 H   0  0  0  0  0  0  0  0  0  0  0  0
  1  2  1  0
  2  3  1  0
  3  4  1  0
  4  5  1  0
  3  6  1  0
  6  7  1  0
  7  8  1  0
  8  9  1  0
  9 10  2  0
  9 11  1  0
 11 12  2  0
 12 13  1  0
 13 14  1  0
 14 15  1  0
 15 16  2  0
 16 17  1  0
 17 18  2  0
 18 19  1  0
 19 20  2  0
 14 21  1  0
 21 22  1  0
 22 23  1  0
 23 24  2  0
 24 25  1  0
 25 26  2  0
 26 27  1  0
 21 28  1  0
 28 11  1  0
 20 15  1  0
 27 23  1  0
  1 29  1  0
  1 30  1  0
  1 31  1  0
  2 32  1  0
  2 33  1  0
  3 34  1  0
  4 35  1  0
  4 36  1  0
  5 37  1  0
  5 38  1  0
  5 39  1  0
  6 40  1  0
  6 41  1  0
  7 42  1  0
  7 43  1  0
 12 44  1  0
 13 45  1  0
 13 46  1  0
 14 47  1  1
 16 48  1  0
 17 49  1  0
 18 50  1  0
 19 51  1  0
 20 52  1  0
 22 53  1  0
 22 54  1  0
 24 55  1  0
 25 56  1  0
 26 57  1  0
 28 58  1  0
 28 59  1  0
M  CHG  1   3   1
M  END
>  <UniqueID>  (27) 
27

>  <SMILES>  (27) 
CC[NH+](CC)CCOC(=O)C1=CC[C@@H](c2ccccc2)N(Cc2ccco2)C1

>  <Energy>  (27) 
98.67213479562285

>  <Genealogy>  (27) 
CC[NH+](CC)CCOC(=O)C1=CCC(c2ccccc2)N(Cc2ccco2)C1 (protonated)
CC[NH+](CC)CCOC(=O)C1=CC[C@@H](c2ccccc2)N(Cc2ccco2)C1 (chirality)
CC[NH+](CC)CCOC(=O)C1=CC[C@@H](c2ccccc2)N(Cc2ccco2)C1 (3D coordinates assigned)
CC[NH+](CC)CCOC(=O)C1=CC[C@@H](c2ccccc2)N(Cc2ccco2)C1 (nonaromatic ring conformer: 98.67213479562285 kcal/mol)

>  <smiles>  (27) 
CCN(CC)CCOC(=O)C1=CCC(c2ccccc2)N(Cc2ccco2)C1

>  <score_type>  (27) 
oracle

>  <origin>  (27) 
adg

>  <m_score__min__energy>  (27) 
-6.9800000000000004

>  <m_primary>  (27) 
energy

$$$$
27:0
     RDKit          3D

 52 54  0  0  0  0  0  0  0  0999 V2000
   -2.6580   25.6740  -25.5920 C   0  0  0  0  0  0  0  0  0  0  0  0
   -1.5870   26.6420  -25.2830 N   0  0  0  0  0  0  0  0  0  0  0  0
   -0.6370   26.0380  -24.3320 C   0  0  0  0  0  0  0  0  0  0  0  0
   -0.8690   27.0740  -26.5050 C   0  0  0  0  0  0  0  0  0  0  0  0
    0.2790   26.1190  -26.8810 C   0  0  0  0  0  0  0  0  0  0  0  0
   -0.0740   25.3310  -28.0180 O   0  0  0  0  0  0  0  0  0  0  0  0
   -1.1080   24.3830  -28.0650 C   0  0  0  0  0  0  0  0  0  0  0  0
   -1.1030   23.2090  -27.2860 C   0  0  0  0  0  0  0  0  0  0  0  0
   -2.1580   22.2970  -27.3790 C   0  0  0  0  0  0  0  0  0  0  0  0
   -3.2250   22.5440  -28.2440 C   0  0  0  0  0  0  0  0  0  0  0  0
   -3.2480   23.7110  -29.0220 C   0  0  0  0  0  0  0  0  0  0  0  0
   -4.3800   23.9530  -29.9870 C   0  0  0  0  0  0  0  0  0  0  0  0
   -4.4990   22.8230  -30.9250 N   0  0  0  0  0  0  0  0  0  0  0  0
   -3.4320   22.5040  -31.7130 C   0  0  0  0  0  0  0  0  0  0  0  0
   -3.5170   21.4670  -32.6350 C   0  0  0  0  0  0  0  0  0  0  0  0
   -2.3780   21.1430  -33.4600 C   0  0  0  0  0  0  0  0  0  0  0  0
   -1.4640   20.8830  -34.1210 N   0  0  0  0  0  0  0  0  0  0  0  0
   -4.7210   20.7670  -32.7480 C   0  0  0  0  0  0  0  0  0  0  0  0
   -4.8240   19.8340  -33.5940 O   0  0  0  0  0  0  0  0  0  0  0  0
   -5.7860   21.1030  -31.9550 N   0  0  0  0  0  0  0  0  0  0  0  0
   -7.0310   20.3840  -32.0810 C   0  0  0  0  0  0  0  0  0  0  0  0
   -7.0540   18.9840  -31.9650 C   0  0  0  0  0  0  0  0  0  0  0  0
   -8.2610   18.2880  -32.0870 C   0  0  0  0  0  0  0  0  0  0  0  0
   -9.4500   18.9840  -32.3260 C   0  0  0  0  0  0  0  0  0  0  0  0
   -9.4340   20.3770  -32.4420 C   0  0  0  0  0  0  0  0  0  0  0  0
   -8.2290   21.0760  -32.3210 C   0  0  0  0  0  0  0  0  0  0  0  0
   -5.6750   22.1270  -31.0480 C   0  0  0  0  0  0  0  0  0  0  0  0
   -6.6600   22.4230  -30.3130 O   0  0  0  0  0  0  0  0  0  0  0  0
   -2.1830   24.6210  -28.9310 C   0  0  0  0  0  0  0  0  0  0  0  0
   -3.0850   25.2880  -24.6546 H   0  0  0  0  0  0  0  0  0  0  0  0
   -3.4457   26.1727  -26.1758 H   0  0  0  0  0  0  0  0  0  0  0  0
   -2.2412   24.8400  -26.1758 H   0  0  0  0  0  0  0  0  0  0  0  0
   -2.0150   27.4770  -24.8170 H   0  0  0  0  0  0  0  0  0  0  0  0
   -0.9654   26.2468  -23.3031 H   0  0  0  0  0  0  0  0  0  0  0  0
   -0.6001   24.9503  -24.4915 H   0  0  0  0  0  0  0  0  0  0  0  0
    0.3636   26.4661  -24.4915 H   0  0  0  0  0  0  0  0  0  0  0  0
   -1.5842   27.1122  -27.3398 H   0  0  0  0  0  0  0  0  0  0  0  0
   -0.4302   28.0624  -26.3039 H   0  0  0  0  0  0  0  0  0  0  0  0
    1.1777   26.7087  -27.1149 H   0  0  0  0  0  0  0  0  0  0  0  0
    0.4742   25.4479  -26.0316 H   0  0  0  0  0  0  0  0  0  0  0  0
   -0.2652   23.0094  -26.6017 H   0  0  0  0  0  0  0  0  0  0  0  0
   -2.1473   21.3819  -26.7687 H   0  0  0  0  0  0  0  0  0  0  0  0
   -4.0509   21.8210  -28.3159 H   0  0  0  0  0  0  0  0  0  0  0  0
   -5.3198   24.0596  -29.4254 H   0  0  0  0  0  0  0  0  0  0  0  0
   -4.1764   24.8721  -30.5561 H   0  0  0  0  0  0  0  0  0  0  0  0
   -2.4953   23.0728  -31.6179 H   0  0  0  0  0  0  0  0  0  0  0  0
   -6.1201   18.4338  -31.7777 H   0  0  0  0  0  0  0  0  0  0  0  0
   -8.2750   17.1920  -31.9948 H   0  0  0  0  0  0  0  0  0  0  0  0
  -10.3984   18.4351  -32.4228 H   0  0  0  0  0  0  0  0  0  0  0  0
  -10.3701   20.9237  -32.6286 H   0  0  0  0  0  0  0  0  0  0  0  0
   -8.2195   22.1720  -32.4142 H   0  0  0  0  0  0  0  0  0  0  0  0
   -2.1928   25.5321  -29.5473 H   0  0  0  0  0  0  0  0  0  0  0  0
  1  2  1  0
  2  3  1  0
  2  4  1  0
  4  5  1  0
  5  6  1  0
  6  7  1  0
  7  8  2  0
  8  9  1  0
  9 10  2  0
 10 11  1  0
 11 12  1  0
 12 13  1  0
 13 14  1  0
 14 15  2  0
 15 16  1  0
 16 17  3  0
 15 18  1  0
 18 19  2  0
 18 20  1  0
 20 21  1  0
 21 22  2  0
 22 23  1  0
 23 24  2  0
 24 25  1  0
 25 26  2  0
 20 27  1  0
 27 28  2  0
 11 29  2  0
 29  7  1  0
 27 13  1  0
 26 21  1  0
  1 30  1  0
  1 31  1  0
  1 32  1  0
  2 33  1  0
  3 34  1  0
  3 35  1  0
  3 36  1  0
  4 37  1  0
  4 38  1  0
  5 39  1  0
  5 40  1  0
  8 41  1  0
  9 42  1  0
 10 43  1  0
 12 44  1  0
 12 45  1  0
 14 46  1  0
 22 47  1  0
 23 48  1  0
 24 49  1  0
 25 50  1  0
 26 51  1  0
 29 52  1  0
M  CHG  1   2   1
M  END
>  <UniqueID>  (28) 
28

>  <SMILES>  (28) 
C[NH+](C)CCOc1cccc(Cn2cc(C#N)c(=O)n(-c3ccccc3)c2=O)c1

>  <Energy>  (28) 
65.60368729468254

>  <Genealogy>  (28) 
C[NH+](C)CCOc1cccc(Cn2cc(C#N)c(=O)n(-c3ccccc3)c2=O)c1 (protonated)
C[NH+](C)CCOc1cccc(Cn2cc(C#N)c(=O)n(-c3ccccc3)c2=O)c1 (3D coordinates assigned)
C[NH+](C)CCOc1cccc(Cn2cc(C#N)c(=O)n(-c3ccccc3)c2=O)c1 (optimized conformer: 65.60368729468254 kcal/mol)

>  <smiles>  (28) 
CN(C)CCOc1cccc(Cn2cc(C#N)c(=O)n(-c3ccccc3)c2=O)c1

>  <score_type>  (28) 
oracle

>  <origin>  (28) 
adg

>  <m_score__min__energy>  (28) 
-7.7800000000000002

>  <m_primary>  (28) 
energy

$$$$
28:0
     RDKit          3D

 42 45  0  0  0  0  0  0  0  0999 V2000
   -5.4290   12.8240  -35.0340 C   0  0  0  0  0  0  0  0  0  0  0  0
   -4.6460   14.0120  -35.0850 O   0  0  0  0  0  0  0  0  0  0  0  0
   -5.0460   15.2500  -34.5590 C   0  0  0  0  0  0  0  0  0  0  0  0
   -6.3580   15.3780  -34.0980 C   0  0  0  0  0  0  0  0  0  0  0  0
   -6.8120   16.5840  -33.5580 C   0  0  0  0  0  0  0  0  0  0  0  0
   -5.9450   17.6890  -33.4470 C   0  0  0  0  0  0  0  0  0  0  0  0
   -6.3690   18.9210  -32.8910 C   0  0  0  0  0  0  0  0  0  0  0  0
   -5.5020   20.0350  -32.8770 C   0  0  0  0  0  0  0  0  0  0  0  0
   -4.2340   19.9200  -33.4710 C   0  0  0  0  0  0  0  0  0  0  0  0
   -3.7880   18.6950  -33.9650 C   0  0  0  0  0  0  0  0  0  0  0  0
   -4.6280   17.5750  -33.9540 C   0  0  0  0  0  0  0  0  0  0  0  0
   -4.1820   16.3570  -34.4920 C   0  0  0  0  0  0  0  0  0  0  0  0
   -6.0370   21.3380  -32.3590 C   0  0  0  0  0  0  0  0  0  0  0  0
   -7.4400   21.5280  -32.3890 C   0  0  0  0  0  0  0  0  0  0  0  0
   -7.9920   22.7640  -32.0400 C   0  0  0  0  0  0  0  0  0  0  0  0
   -7.1760   23.7960  -31.5840 C   0  0  0  0  0  0  0  0  0  0  0  0
   -5.7940   23.5920  -31.4250 C   0  0  0  0  0  0  0  0  0  0  0  0
   -4.9580   24.5890  -30.8960 O   0  0  0  0  0  0  0  0  0  0  0  0
   -5.4040   25.6800  -30.0950 C   0  0  0  0  0  0  0  0  0  0  0  0
   -5.2260   22.3570  -31.7880 C   0  0  0  0  0  0  0  0  0  0  0  0
   -3.5400   22.0810  -31.3410 Cl  0  0  0  0  0  0  0  0  0  0  0  0
   -8.3450   20.3910  -32.7950 C   0  0  0  0  0  0  0  0  0  0  0  0
   -7.7160   19.1200  -32.4250 N   0  0  0  0  0  0  0  0  0  0  0  0
   -8.1820   18.4290  -31.2200 C   0  0  0  0  0  0  0  0  0  0  0  0
   -5.6102   12.5491  -33.9844 H   0  0  0  0  0  0  0  0  0  0  0  0
   -6.3908   12.9968  -35.5391 H   0  0  0  0  0  0  0  0  0  0  0  0
   -4.8910   12.0083  -35.5391 H   0  0  0  0  0  0  0  0  0  0  0  0
   -7.0422   14.5190  -34.1608 H   0  0  0  0  0  0  0  0  0  0  0  0
   -7.8541   16.6714  -33.2170 H   0  0  0  0  0  0  0  0  0  0  0  0
   -3.5863   20.8058  -33.5471 H   0  0  0  0  0  0  0  0  0  0  0  0
   -2.7677   18.6077  -34.3667 H   0  0  0  0  0  0  0  0  0  0  0  0
   -3.1503   16.2685  -34.8633 H   0  0  0  0  0  0  0  0  0  0  0  0
   -9.0772   22.9222  -32.1261 H   0  0  0  0  0  0  0  0  0  0  0  0
   -7.6150   24.7763  -31.3468 H   0  0  0  0  0  0  0  0  0  0  0  0
   -5.2982   25.4211  -29.0311 H   0  0  0  0  0  0  0  0  0  0  0  0
   -4.7977   26.5704  -30.3178 H   0  0  0  0  0  0  0  0  0  0  0  0
   -6.4604   25.8906  -30.3178 H   0  0  0  0  0  0  0  0  0  0  0  0
   -9.3115   20.4874  -32.2787 H   0  0  0  0  0  0  0  0  0  0  0  0
   -8.5099   20.4195  -33.8822 H   0  0  0  0  0  0  0  0  0  0  0  0
   -7.8217   18.9632  -30.3285 H   0  0  0  0  0  0  0  0  0  0  0  0
   -9.2817   18.4047  -31.2134 H   0  0  0  0  0  0  0  0  0  0  0  0
   -7.7924   17.4003  -31.2134 H   0  0  0  0  0  0  0  0  0  0  0  0
  1  2  1  0
  2  3  1  0
  3  4  2  0
  4  5  1  0
  5  6  2  0
  6  7  1  0
  7  8  2  0
  8  9  1  0
  9 10  2  0
 10 11  1  0
 11 12  2  0
  8 13  1  0
 13 14  2  0
 14 15  1  0
 15 16  2  0
 16 17  1  0
 17 18  1  0
 18 19  1  0
 17 20  2  0
 20 21  1  0
 14 22  1  0
 22 23  1  0
 23 24  1  0
 12  3  1  0
 20 13  1  0
 11  6  1  0
 23  7  1  0
  1 25  1  0
  1 26  1  0
  1 27  1  0
  4 28  1  0
  5 29  1  0
  9 30  1  0
 10 31  1  0
 12 32  1  0
 15 33  1  0
 16 34  1  0
 19 35  1  0
 19 36  1  0
 19 37  1  0
 22 38  1  0
 22 39  1  0
 24 40  1  0
 24 41  1  0
 24 42  1  0
M  END
>  <UniqueID>  (29) 
29

>  <SMILES>  (29) 
COc1ccc2c3c(ccc2c1)-c1c(ccc(OC)c1Cl)CN3C

>  <Energy>  (29) 
68.2841090371208

>  <Genealogy>  (29) 
COc1ccc2c3c(ccc2c1)-c1c(ccc(OC)c1Cl)CN3C (3D coordinates assigned)
COc1ccc2c3c(ccc2c1)-c1c(ccc(OC)c1Cl)CN3C (nonaromatic ring conformer: 68.2841090371208 kcal/mol)

>  <smiles>  (29) 
COc1ccc2c3c(ccc2c1)-c1c(ccc(OC)c1Cl)CN3C

>  <score_type>  (29) 
oracle

>  <origin>  (29) 
adg

>  <m_score__min__energy>  (29) 
-8.6099999999999994

>  <m_primary>  (29) 
energy

$$$$
29:0
     RDKit          3D

 47 49  0  0  1  0  0  0  0  0999 V2000
   -2.0180   24.6680  -28.5250 C   0  0  0  0  0  0  0  0  0  0  0  0
   -2.7170   24.9260  -29.7080 O   0  0  0  0  0  0  0  0  0  0  0  0
   -3.6290   24.0280  -30.2670 C   0  0  0  0  0  0  0  0  0  0  0  0
   -4.9840   24.2810  -30.2400 C   0  0  0  0  0  0  0  0  0  0  0  0
   -5.8980   23.3980  -30.7910 C   0  0  0  0  0  0  0  0  0  0  0  0
   -5.4310   22.2420  -31.3790 C   0  0  0  0  0  0  0  0  0  0  0  0
   -4.0800   21.9740  -31.4140 C   0  0  0  0  0  0  0  0  0  0  0  0
   -3.1600   22.8720  -30.8550 C   0  0  0  0  0  0  0  0  0  0  0  0
   -1.8080   22.6560  -30.8630 O   0  0  0  0  0  0  0  0  0  0  0  0
   -1.1380   21.4710  -31.1680 C   0  0  0  0  0  0  0  0  0  0  0  0
   -6.4000   21.3220  -31.9550 C   0  0  0  0  0  0  0  0  0  0  0  0
   -5.9790   20.1570  -32.5500 C   0  0  0  0  0  0  0  0  0  0  0  0
   -6.9050   19.2650  -33.1080 C   0  0  0  0  0  0  0  0  0  0  0  0
   -6.5040   18.1610  -33.6730 N   0  0  0  0  0  0  0  0  0  0  0  0
   -5.5670   17.2800  -32.9760 C   0  0  0  0  0  0  0  0  0  0  0  0
   -4.3190   17.2780  -33.8700 C   0  0  0  0  0  0  0  0  0  0  0  0
   -4.7020   17.4250  -35.3190 C   0  0  0  0  0  0  0  0  0  0  0  0
   -3.3470   18.3330  -33.4590 C   0  0  0  0  0  0  0  0  0  0  0  0
   -8.1990   19.5880  -33.0370 N   0  0  0  0  0  0  0  0  0  0  0  0
   -8.6020   20.7290  -32.4520 C   0  0  0  0  0  0  0  0  0  0  0  0
   -9.8400   20.9580  -32.4280 O   0  0  0  0  0  0  0  0  0  0  0  0
   -7.7160   21.6100  -31.9040 N   0  0  0  0  0  0  0  0  0  0  0  0
   -8.2710   22.7890  -31.3120 C   0  0  0  0  0  0  0  0  0  0  0  0
   -7.3160   23.7450  -30.7170 C   0  0  0  0  0  0  0  0  0  0  0  0
   -2.6579   24.9042  -27.6620 H   0  0  0  0  0  0  0  0  0  0  0  0
   -1.7340   23.6058  -28.4911 H   0  0  0  0  0  0  0  0  0  0  0  0
   -1.1121   25.2910  -28.4911 H   0  0  0  0  0  0  0  0  0  0  0  0
   -5.3480   25.2063  -29.7696 H   0  0  0  0  0  0  0  0  0  0  0  0
   -3.7201   21.0472  -31.8847 H   0  0  0  0  0  0  0  0  0  0  0  0
   -0.8503   20.9622  -30.2362 H   0  0  0  0  0  0  0  0  0  0  0  0
   -1.7995   20.8162  -31.7542 H   0  0  0  0  0  0  0  0  0  0  0  0
   -0.2359   21.7003  -31.7542 H   0  0  0  0  0  0  0  0  0  0  0  0
   -4.9050   19.9223  -32.5887 H   0  0  0  0  0  0  0  0  0  0  0  0
   -5.3307   17.6738  -31.9765 H   0  0  0  0  0  0  0  0  0  0  0  0
   -5.9746   16.2706  -32.8180 H   0  0  0  0  0  0  0  0  0  0  0  0
   -3.8179   16.3069  -33.7442 H   0  0  0  0  0  0  0  0  0  0  0  0
   -5.7269   17.8184  -35.3893 H   0  0  0  0  0  0  0  0  0  0  0  0
   -4.0076   18.1205  -35.8131 H   0  0  0  0  0  0  0  0  0  0  0  0
   -4.6513   16.4435  -35.8131 H   0  0  0  0  0  0  0  0  0  0  0  0
   -3.3017   18.3822  -32.3610 H   0  0  0  0  0  0  0  0  0  0  0  0
   -2.3509   18.0887  -33.8565 H   0  0  0  0  0  0  0  0  0  0  0  0
   -3.6719   19.3058  -33.8565 H   0  0  0  0  0  0  0  0  0  0  0  0
   -8.8880   18.9090  -33.4600 H   0  0  0  0  0  0  0  0  0  0  0  0
   -8.8325   23.3217  -32.0936 H   0  0  0  0  0  0  0  0  0  0  0  0
   -8.8822   22.4298  -30.4709 H   0  0  0  0  0  0  0  0  0  0  0  0
   -7.4490   24.7094  -31.2291 H   0  0  0  0  0  0  0  0  0  0  0  0
   -7.5525   23.7545  -29.6428 H   0  0  0  0  0  0  0  0  0  0  0  0
  1  2  1  0
  2  3  1  0
  3  4  2  0
  4  5  1  0
  5  6  2  0
  6  7  1  0
  7  8  2  0
  8  9  1  0
  9 10  1  0
  6 11  1  0
 11 12  2  0
 12 13  1  0
 13 14  2  0
 14 15  1  0
 15 16  1  0
 16 17  1  0
 16 18  1  0
 13 19  1  0
 19 20  1  0
 20 21  2  0
 20 22  1  0
 22 23  1  0
 23 24  1  0
  8  3  1  0
 22 11  1  0
 24  5  1  0
  1 25  1  0
  1 26  1  0
  1 27  1  0
  4 28  1  0
  7 29  1  0
 10 30  1  0
 10 31  1  0
 10 32  1  0
 12 33  1  0
 15 34  1  0
 15 35  1  0
 16 36  1  0
 17 37  1  0
 17 38  1  0
 17 39  1  0
 18 40  1  0
 18 41  1  0
 18 42  1  0
 19 43  1  0
 23 44  1  0
 23 45  1  0
 24 46  1  0
 24 47  1  0
M  END
>  <smiles>  (30) 
COc1cc2c(cc1OC)-c1cc(=NCC(C)C)[nH]c(=O)n1CC2

>  <score_type>  (30) 
oracle

>  <origin>  (30) 
adg

>  <m_score__min__energy>  (30) 
-8.0899999999999999

>  <m_primary>  (30) 
energy

$$$$
30:0
     RDKit          3D

 56 58  0  0  0  0  0  0  0  0999 V2000
   -2.7280   24.5600  -29.2720 C   0  0  0  0  0  0  0  0  0  0  0  0
   -3.4830   24.7760  -30.4590 O   0  0  0  0  0  0  0  0  0  0  0  0
   -4.7700   24.2640  -30.6930 C   0  0  0  0  0  0  0  0  0  0  0  0
   -5.9240   24.9320  -30.2410 C   0  0  0  0  0  0  0  0  0  0  0  0
   -7.1930   24.4190  -30.5130 C   0  0  0  0  0  0  0  0  0  0  0  0
   -7.3380   23.2340  -31.2430 C   0  0  0  0  0  0  0  0  0  0  0  0
   -8.7130   22.6690  -31.5100 C   0  0  0  0  0  0  0  0  0  0  0  0
   -8.7980   21.2400  -31.1640 N   0  0  0  0  0  0  0  0  0  0  0  0
   -9.0070   20.3960  -32.3520 C   0  0  0  0  0  0  0  0  0  0  0  0
   -7.8000   19.5280  -32.6000 C   0  0  0  0  0  0  0  0  0  0  0  0
   -7.6000   18.3590  -31.8500 C   0  0  0  0  0  0  0  0  0  0  0  0
   -6.4600   17.5740  -32.0580 C   0  0  0  0  0  0  0  0  0  0  0  0
   -5.5090   17.9600  -33.0080 C   0  0  0  0  0  0  0  0  0  0  0  0
   -5.6940   19.1310  -33.7470 C   0  0  0  0  0  0  0  0  0  0  0  0
   -6.8310   19.9170  -33.5410 C   0  0  0  0  0  0  0  0  0  0  0  0
   -6.1940   22.5580  -31.6900 C   0  0  0  0  0  0  0  0  0  0  0  0
   -4.9090   23.0570  -31.4140 C   0  0  0  0  0  0  0  0  0  0  0  0
   -3.7210   22.3070  -31.8860 C   0  0  0  0  0  0  0  0  0  0  0  0
   -3.6470   21.8590  -33.2160 C   0  0  0  0  0  0  0  0  0  0  0  0
   -2.5320   21.1450  -33.6610 C   0  0  0  0  0  0  0  0  0  0  0  0
   -1.4700   20.8660  -32.7860 C   0  0  0  0  0  0  0  0  0  0  0  0
   -0.2560   20.1000  -33.2730 C   0  0  0  0  0  0  0  0  0  0  0  0
   -0.0010   20.2400  -34.7240 N   0  0  0  0  0  0  0  0  0  0  0  0
    0.5680   21.5500  -35.0770 C   0  0  0  0  0  0  0  0  0  0  0  0
    0.8240   19.1460  -35.2630 C   0  0  0  0  0  0  0  0  0  0  0  0
   -1.5500   21.2980  -31.4530 C   0  0  0  0  0  0  0  0  0  0  0  0
   -2.6660   22.0110  -31.0060 C   0  0  0  0  0  0  0  0  0  0  0  0
   -3.3651   24.7423  -28.3940 H   0  0  0  0  0  0  0  0  0  0  0  0
   -2.3647   23.5219  -29.2523 H   0  0  0  0  0  0  0  0  0  0  0  0
   -1.8707   25.2489  -29.2523 H   0  0  0  0  0  0  0  0  0  0  0  0
   -5.8245   25.8661  -29.6687 H   0  0  0  0  0  0  0  0  0  0  0  0
   -8.0857   24.9500  -30.1509 H   0  0  0  0  0  0  0  0  0  0  0  0
   -9.4482   23.2244  -30.9091 H   0  0  0  0  0  0  0  0  0  0  0  0
   -8.9199   22.7715  -32.5855 H   0  0  0  0  0  0  0  0  0  0  0  0
   -7.9250   20.9430  -30.6650 H   0  0  0  0  0  0  0  0  0  0  0  0
   -9.6080   21.1130  -30.5120 H   0  0  0  0  0  0  0  0  0  0  0  0
   -9.8868   19.7557  -32.1912 H   0  0  0  0  0  0  0  0  0  0  0  0
   -9.1655   21.0443  -33.2264 H   0  0  0  0  0  0  0  0  0  0  0  0
   -8.3420   18.0584  -31.0957 H   0  0  0  0  0  0  0  0  0  0  0  0
   -6.3121   16.6535  -31.4743 H   0  0  0  0  0  0  0  0  0  0  0  0
   -4.6148   17.3412  -33.1734 H   0  0  0  0  0  0  0  0  0  0  0  0
   -4.9438   19.4347  -34.4919 H   0  0  0  0  0  0  0  0  0  0  0  0
   -6.9682   20.8437  -34.1175 H   0  0  0  0  0  0  0  0  0  0  0  0
   -6.3032   21.6258  -32.2637 H   0  0  0  0  0  0  0  0  0  0  0  0
   -4.4725   22.0720  -33.9111 H   0  0  0  0  0  0  0  0  0  0  0  0
   -2.4856   20.7989  -34.7041 H   0  0  0  0  0  0  0  0  0  0  0  0
    0.6266   20.4677  -32.7292 H   0  0  0  0  0  0  0  0  0  0  0  0
   -0.4542   19.0345  -33.0850 H   0  0  0  0  0  0  0  0  0  0  0  0
    0.8089   22.1047  -34.1582 H   0  0  0  0  0  0  0  0  0  0  0  0
    1.4840   21.4046  -35.6684 H   0  0  0  0  0  0  0  0  0  0  0  0
   -0.1635   22.1202  -35.6684 H   0  0  0  0  0  0  0  0  0  0  0  0
    1.2580   18.5705  -34.4321 H   0  0  0  0  0  0  0  0  0  0  0  0
    0.1981   18.4844  -35.8798 H   0  0  0  0  0  0  0  0  0  0  0  0
    1.6323   19.5659  -35.8798 H   0  0  0  0  0  0  0  0  0  0  0  0
   -0.7293   21.0740  -30.7557 H   0  0  0  0  0  0  0  0  0  0  0  0
   -2.7189   22.3426  -29.9585 H   0  0  0  0  0  0  0  0  0  0  0  0
  1  2  1  0
  2  3  1  0
  3  4  2  0
  4  5  1  0
  5  6  2  0
  6  7  1  0
  7  8  1  0
  8  9  1  0
  9 10  1  0
 10 11  2  0
 11 12  1  0
 12 13  2  0
 13 14  1  0
 14 15  2  0
  6 16  1  0
 16 17  2  0
 17 18  1  0
 18 19  2  0
 19 20  1  0
 20 21  2  0
 21 22  1  0
 22 23  1  0
 23 24  1  0
 23 25  1  0
 21 26  1  0
 26 27  2  0
 17  3  1  0
 27 18  1  0
 15 10  1  0
  1 28  1  0
  1 29  1  0
  1 30  1  0
  4 31  1  0
  5 32  1  0
  7 33  1  0
  7 34  1  0
  8 35  1  0
  8 36  1  0
  9 37  1  0
  9 38  1  0
 11 39  1  0
 12 40  1  0
 13 41  1  0
 14 42  1  0
 15 43  1  0
 16 44  1  0
 19 45  1  0
 20 46  1  0
 22 47  1  0
 22 48  1  0
 24 49  1  0
 24 50  1  0
 24 51  1  0
 25 52  1  0
 25 53  1  0
 25 54  1  0
 26 55  1  0
 27 56  1  0
M  CHG  1   8   1
M  END
>  <UniqueID>  (31) 
30

>  <SMILES>  (31) 
COc1ccc(C[NH2+]Cc2ccccc2)cc1-c1ccc(CN(C)C)cc1

>  <Energy>  (31) 
64.2346623078734

>  <Genealogy>  (31) 
COc1ccc(C[NH2+]Cc2ccccc2)cc1-c1ccc(CN(C)C)cc1 (protonated)
COc1ccc(C[NH2+]Cc2ccccc2)cc1-c1ccc(CN(C)C)cc1 (3D coordinates assigned)
COc1ccc(C[NH2+]Cc2ccccc2)cc1-c1ccc(CN(C)C)cc1 (optimized conformer: 64.2346623078734 kcal/mol)

>  <smiles>  (31) 
COc1ccc(CNCc2ccccc2)cc1-c1ccc(CN(C)C)cc1

>  <score_type>  (31) 
oracle

>  <origin>  (31) 
adg

>  <m_score__min__energy>  (31) 
-8.7100000000000009

>  <m_primary>  (31) 
energy

$$$$
31:0
     RDKit          3D

 65 68  0  0  0  0  0  0  0  0999 V2000
   -8.9060   19.8980  -32.1310 C   0  0  0  0  0  0  0  0  0  0  0  0
   -7.5150   20.1110  -31.5450 C   0  0  0  0  0  0  0  0  0  0  0  0
   -6.8250   21.1450  -32.2460 O   0  0  0  0  0  0  0  0  0  0  0  0
   -5.4890   21.0210  -32.6390 C   0  0  0  0  0  0  0  0  0  0  0  0
   -4.5140   21.8870  -32.1220 C   0  0  0  0  0  0  0  0  0  0  0  0
   -4.8580   22.9660  -31.2320 N   0  0  0  0  0  0  0  0  0  0  0  0
   -5.7410   24.0510  -31.6790 C   0  0  0  0  0  0  0  0  0  0  0  0
   -5.5180   25.3010  -30.8250 C   0  0  0  0  0  0  0  0  0  0  0  0
   -4.1430   25.4330  -30.5390 O   0  0  0  0  0  0  0  0  0  0  0  0
   -3.7460   24.4640  -29.5840 C   0  0  0  0  0  0  0  0  0  0  0  0
   -4.2520   23.0350  -29.8960 C   0  0  0  0  0  0  0  0  0  0  0  0
   -3.2110   21.6940  -32.4540 N   0  0  0  0  0  0  0  0  0  0  0  0
   -2.8210   20.6980  -33.2930 C   0  0  0  0  0  0  0  0  0  0  0  0
   -1.3790   20.5360  -33.6020 C   0  0  0  0  0  0  0  0  0  0  0  0
   -0.4120   20.5020  -32.5810 C   0  0  0  0  0  0  0  0  0  0  0  0
    0.9450   20.3630  -32.8910 C   0  0  0  0  0  0  0  0  0  0  0  0
    1.3660   20.2640  -34.2300 C   0  0  0  0  0  0  0  0  0  0  0  0
    2.7560   20.1230  -34.5800 N   0  0  0  0  0  0  0  0  0  0  0  0
    3.3740   20.8230  -35.7090 C   0  0  0  0  0  0  0  0  0  0  0  0
    3.6160   22.3000  -35.3710 C   0  0  0  0  0  0  0  0  0  0  0  0
    2.8160   23.1870  -36.2450 N   0  0  0  0  0  0  0  0  0  0  0  0
    3.4410   24.5210  -36.3260 C   0  0  0  0  0  0  0  0  0  0  0  0
    2.6420   25.4250  -37.2900 C   0  0  0  0  0  0  0  0  0  0  0  0
    1.3590   24.9030  -37.5930 O   0  0  0  0  0  0  0  0  0  0  0  0
    0.7060   24.5160  -36.4020 C   0  0  0  0  0  0  0  0  0  0  0  0
    1.4190   23.3070  -35.7660 C   0  0  0  0  0  0  0  0  0  0  0  0
    0.4020   20.3120  -35.2470 C   0  0  0  0  0  0  0  0  0  0  0  0
   -0.9530   20.4490  -34.9390 C   0  0  0  0  0  0  0  0  0  0  0  0
   -3.7630   19.8800  -33.8460 N   0  0  0  0  0  0  0  0  0  0  0  0
   -5.0860   20.0280  -33.5510 C   0  0  0  0  0  0  0  0  0  0  0  0
   -6.0880   19.1020  -34.1850 C   0  0  0  0  0  0  0  0  0  0  0  0
   -9.6347   19.7864  -31.3146 H   0  0  0  0  0  0  0  0  0  0  0  0
   -9.1795   20.7647  -32.7507 H   0  0  0  0  0  0  0  0  0  0  0  0
   -8.9076   18.9891  -32.7507 H   0  0  0  0  0  0  0  0  0  0  0  0
   -7.6087   20.3932  -30.4860 H   0  0  0  0  0  0  0  0  0  0  0  0
   -6.9436   19.1761  -31.6418 H   0  0  0  0  0  0  0  0  0  0  0  0
   -5.5231   24.2864  -32.7312 H   0  0  0  0  0  0  0  0  0  0  0  0
   -6.7872   23.7277  -31.5749 H   0  0  0  0  0  0  0  0  0  0  0  0
   -5.8654   26.1881  -31.3749 H   0  0  0  0  0  0  0  0  0  0  0  0
   -6.0820   25.2096  -29.8850 H   0  0  0  0  0  0  0  0  0  0  0  0
   -2.6468   24.4425  -29.5482 H   0  0  0  0  0  0  0  0  0  0  0  0
   -4.1930   24.7593  -28.6233 H   0  0  0  0  0  0  0  0  0  0  0  0
   -3.4038   22.3361  -29.8502 H   0  0  0  0  0  0  0  0  0  0  0  0
   -5.0167   22.7662  -29.1524 H   0  0  0  0  0  0  0  0  0  0  0  0
   -0.7255   20.5854  -31.5299 H   0  0  0  0  0  0  0  0  0  0  0  0
    1.6890   20.3308  -32.0814 H   0  0  0  0  0  0  0  0  0  0  0  0
    3.3520   19.5040  -33.9830 H   0  0  0  0  0  0  0  0  0  0  0  0
    4.3362   20.3454  -35.9459 H   0  0  0  0  0  0  0  0  0  0  0  0
    2.6944   20.7667  -36.5721 H   0  0  0  0  0  0  0  0  0  0  0  0
    3.3337   22.4792  -34.3231 H   0  0  0  0  0  0  0  0  0  0  0  0
    4.6813   22.5236  -35.5293 H   0  0  0  0  0  0  0  0  0  0  0  0
    3.4537   24.9780  -35.3255 H   0  0  0  0  0  0  0  0  0  0  0  0
    4.4691   24.4141  -36.7023 H   0  0  0  0  0  0  0  0  0  0  0  0
    2.5185   26.4138  -36.8241 H   0  0  0  0  0  0  0  0  0  0  0  0
    3.2065   25.4867  -38.2321 H   0  0  0  0  0  0  0  0  0  0  0  0
    0.7168   25.3571  -35.6931 H   0  0  0  0  0  0  0  0  0  0  0  0
   -0.3306   24.2343  -36.6391 H   0  0  0  0  0  0  0  0  0  0  0  0
    1.4252   23.4301  -34.6729 H   0  0  0  0  0  0  0  0  0  0  0  0
    0.8757   22.3950  -36.0542 H   0  0  0  0  0  0  0  0  0  0  0  0
    0.7165   20.2410  -36.2987 H   0  0  0  0  0  0  0  0  0  0  0  0
   -1.6945   20.4893  -35.7505 H   0  0  0  0  0  0  0  0  0  0  0  0
   -3.4810   19.1430  -34.5300 H   0  0  0  0  0  0  0  0  0  0  0  0
   -6.6532   18.5797  -33.3990 H   0  0  0  0  0  0  0  0  0  0  0  0
   -6.7813   19.6842  -34.8098 H   0  0  0  0  0  0  0  0  0  0  0  0
   -5.5621   18.3650  -34.8098 H   0  0  0  0  0  0  0  0  0  0  0  0
  1  2  1  0
  2  3  1  0
  3  4  1  0
  4  5  2  0
  5  6  1  0
  6  7  1  0
  7  8  1  0
  8  9  1  0
  9 10  1  0
 10 11  1  0
  5 12  1  0
 12 13  2  0
 13 14  1  0
 14 15  2  0
 15 16  1  0
 16 17  2  0
 17 18  1  0
 18 19  1  0
 19 20  1  0
 20 21  1  0
 21 22  1  0
 22 23  1  0
 23 24  1  0
 24 25  1  0
 25 26  1  0
 17 27  1  0
 27 28  2  0
 13 29  1  0
 29 30  2  0
 30 31  1  0
 30  4  1  0
 11  6  1  0
 28 14  1  0
 26 21  1  0
  1 32  1  0
  1 33  1  0
  1 34  1  0
  2 35  1  0
  2 36  1  0
  7 37  1  0
  7 38  1  0
  8 39  1  0
  8 40  1  0
 10 41  1  0
 10 42  1  0
 11 43  1  0
 11 44  1  0
 15 45  1  0
 16 46  1  0
 18 47  1  0
 19 48  1  0
 19 49  1  0
 20 50  1  0
 20 51  1  0
 22 52  1  0
 22 53  1  0
 23 54  1  0
 23 55  1  0
 25 56  1  0
 25 57  1  0
 26 58  1  0
 26 59  1  0
 27 60  1  0
 28 61  1  0
 29 62  1  0
 31 63  1  0
 31 64  1  0
 31 65  1  0
M  CHG  1  29   1
M  END
>  <UniqueID>  (32) 
31

>  <SMILES>  (32) 
CCOc1c(N2CCOCC2)nc(-c2ccc(NCCN3CCOCC3)cc2)[nH+]c1C

>  <Energy>  (32) 
91.37157693002915

>  <Genealogy>  (32) 
CCOc1c(N2CCOCC2)nc(-c2ccc(NCCN3CCOCC3)cc2)[nH+]c1C (protonated)
CCOc1c(N2CCOCC2)nc(-c2ccc(NCCN3CCOCC3)cc2)[nH+]c1C (3D coordinates assigned)
CCOc1c(N2CCOCC2)nc(-c2ccc(NCCN3CCOCC3)cc2)[nH+]c1C (nonaromatic ring conformer: 91.37157693002915 kcal/mol)

>  <smiles>  (32) 
CCOc1c(C)nc(-c2ccc(NCCN3CCOCC3)cc2)nc1N1CCOCC1

>  <score_type>  (32) 
oracle

>  <origin>  (32) 
adg

>  <m_score__min__energy>  (32) 
-8.0199999999999996

>  <m_primary>  (32) 
energy

$$$$
32:0
     RDKit          3D

 53 57  0  0  0  0  0  0  0  0999 V2000
   -7.6790   23.4380  -32.2040 C   0  0  0  0  0  0  0  0  0  0  0  0
   -6.1940   23.7780  -32.2850 C   0  0  0  0  0  0  0  0  0  0  0  0
   -5.6180   23.9910  -30.9130 C   0  0  0  0  0  0  0  0  0  0  0  0
   -5.9230   25.0710  -30.0860 C   0  0  0  0  0  0  0  0  0  0  0  0
   -5.3480   24.9200  -28.8730 N   0  0  0  0  0  0  0  0  0  0  0  0
   -4.6900   23.7530  -28.9270 C   0  0  0  0  0  0  0  0  0  0  0  0
   -4.0010   23.1890  -27.9070 N   0  0  0  0  0  0  0  0  0  0  0  0
   -3.4120   21.9770  -28.1100 C   0  0  0  0  0  0  0  0  0  0  0  0
   -3.5090   21.3510  -29.3240 N   0  0  0  0  0  0  0  0  0  0  0  0
   -4.1820   21.9200  -30.3710 C   0  0  0  0  0  0  0  0  0  0  0  0
   -4.2230   21.2640  -31.6510 N   0  0  0  0  0  0  0  0  0  0  0  0
   -3.1780   21.6610  -32.6150 C   0  0  0  0  0  0  0  0  0  0  0  0
   -2.2610   20.4940  -32.9650 C   0  0  0  0  0  0  0  0  0  0  0  0
   -5.3700   20.3660  -31.9930 C   0  0  1  0  0  0  0  0  0  0  0  0
   -5.6940   20.4470  -33.5200 C   0  0  0  0  0  0  0  0  0  0  0  0
   -6.8620   19.5040  -33.8840 C   0  0  2  0  0  0  0  0  0  0  0  0
   -8.1200   19.9150  -33.0930 C   0  0  0  0  0  0  0  0  0  0  0  0
   -7.8320   19.8120  -31.5820 C   0  0  1  0  0  0  0  0  0  0  0  0
   -7.4480   18.3620  -31.2230 C   0  0  0  0  0  0  0  0  0  0  0  0
   -6.1910   17.9510  -32.0170 C   0  0  1  0  0  0  0  0  0  0  0  0
   -6.4810   18.0520  -33.5290 C   0  0  0  0  0  0  0  0  0  0  0  0
   -5.0160   18.8870  -31.6570 C   0  0  0  0  0  0  0  0  0  0  0  0
   -6.6670   20.7540  -31.2130 C   0  0  0  0  0  0  0  0  0  0  0  0
   -4.8160   23.1490  -30.1470 C   0  0  0  0  0  0  0  0  0  0  0  0
   -7.9822   23.3686  -31.1489 H   0  0  0  0  0  0  0  0  0  0  0  0
   -8.2632   24.2256  -32.7023 H   0  0  0  0  0  0  0  0  0  0  0  0
   -7.8623   22.4746  -32.7023 H   0  0  0  0  0  0  0  0  0  0  0  0
   -5.6609   22.9499  -32.7750 H   0  0  0  0  0  0  0  0  0  0  0  0
   -6.0765   24.7059  -32.8640 H   0  0  0  0  0  0  0  0  0  0  0  0
   -6.5462   25.9282  -30.3807 H   0  0  0  0  0  0  0  0  0  0  0  0
   -5.4230   25.5680  -28.0570 H   0  0  0  0  0  0  0  0  0  0  0  0
   -2.8541   21.4977  -27.2920 H   0  0  0  0  0  0  0  0  0  0  0  0
   -3.0620   20.4150  -29.4390 H   0  0  0  0  0  0  0  0  0  0  0  0
   -3.6605   22.0235  -33.5347 H   0  0  0  0  0  0  0  0  0  0  0  0
   -2.5672   22.4505  -32.1529 H   0  0  0  0  0  0  0  0  0  0  0  0
   -1.8934   20.0262  -32.0398 H   0  0  0  0  0  0  0  0  0  0  0  0
   -2.8202   19.7521  -33.5539 H   0  0  0  0  0  0  0  0  0  0  0  0
   -1.4078   20.8619  -33.5539 H   0  0  0  0  0  0  0  0  0  0  0  0
   -4.8022   20.1546  -34.0938 H   0  0  0  0  0  0  0  0  0  0  0  0
   -5.9852   21.4793  -33.7642 H   0  0  0  0  0  0  0  0  0  0  0  0
   -7.0682   19.5747  -34.9622 H   0  0  0  0  0  0  0  0  0  0  0  0
   -8.9527   19.2454  -33.3542 H   0  0  0  0  0  0  0  0  0  0  0  0
   -8.3902   20.9510  -33.3455 H   0  0  0  0  0  0  0  0  0  0  0  0
   -8.7331   20.1018  -31.0216 H   0  0  0  0  0  0  0  0  0  0  0  0
   -8.2794   17.6886  -31.4785 H   0  0  0  0  0  0  0  0  0  0  0  0
   -7.2391   18.2943  -30.1451 H   0  0  0  0  0  0  0  0  0  0  0  0
   -5.9235   16.9153  -31.7606 H   0  0  0  0  0  0  0  0  0  0  0  0
   -7.3130   17.3808  -33.7883 H   0  0  0  0  0  0  0  0  0  0  0  0
   -5.5839   17.7597  -34.0946 H   0  0  0  0  0  0  0  0  0  0  0  0
   -4.1270   18.5886  -32.2319 H   0  0  0  0  0  0  0  0  0  0  0  0
   -4.8164   18.8066  -30.5782 H   0  0  0  0  0  0  0  0  0  0  0  0
   -6.9448   21.7876  -31.4671 H   0  0  0  0  0  0  0  0  0  0  0  0
   -6.4695   20.6642  -30.1346 H   0  0  0  0  0  0  0  0  0  0  0  0
  1  2  1  0
  2  3  1  0
  3  4  2  0
  4  5  1  0
  5  6  1  0
  6  7  2  0
  7  8  1  0
  8  9  2  0
  9 10  1  0
 10 11  1  0
 11 12  1  0
 12 13  1  0
 14 11  1  6
 14 15  1  0
 15 16  1  0
 16 17  1  0
 17 18  1  0
 18 19  1  0
 19 20  1  0
 20 21  1  0
 20 22  1  0
 18 23  1  0
 10 24  2  0
 24  3  1  0
 24  6  1  0
 22 14  1  0
 23 14  1  0
 21 16  1  0
  1 25  1  0
  1 26  1  0
  1 27  1  0
  2 28  1  0
  2 29  1  0
  4 30  1  0
  5 31  1  0
  8 32  1  0
  9 33  1  0
 12 34  1  0
 12 35  1  0
 13 36  1  0
 13 37  1  0
 13 38  1  0
 15 39  1  0
 15 40  1  0
 16 41  1  6
 17 42  1  0
 17 43  1  0
 18 44  1  1
 19 45  1  0
 19 46  1  0
 20 47  1  6
 21 48  1  0
 21 49  1  0
 22 50  1  0
 22 51  1  0
 23 52  1  0
 23 53  1  0
M  CHG  1   9   1
M  END
>  <UniqueID>  (33) 
32

>  <SMILES>  (33) 
CCc1c[nH]c2nc[nH+]c(N(CC)C34CC5CC(CC(C5)C3)C4)c12

>  <Energy>  (33) 
93.28764700745761

>  <Genealogy>  (33) 
CCc1c[nH]c2nc[nH+]c(N(CC)C34CC5CC(CC(C5)C3)C4)c12 (protonated)
CCc1c[nH]c2nc[nH+]c(N(CC)C34CC5CC(CC(C5)C3)C4)c12 (3D coordinates assigned)
CCc1c[nH]c2nc[nH+]c(N(CC)C34CC5CC(CC(C5)C3)C4)c12 (nonaromatic ring conformer: 93.28764700745761 kcal/mol)

>  <smiles>  (33) 
CCc1c[nH]c2ncnc(N(CC)C34CC5CC(CC(C5)C3)C4)c12

>  <score_type>  (33) 
oracle

>  <origin>  (33) 
adg

>  <m_score__min__energy>  (33) 
-7.5700000000000003

>  <m_primary>  (33) 
energy

$$$$
33:0
     RDKit          3D

 49 52  0  0  0  0  0  0  0  0999 V2000
   -6.8440   15.5550  -34.2370 C   0  0  0  0  0  0  0  0  0  0  0  0
   -5.4180   15.9900  -34.5820 C   0  0  0  0  0  0  0  0  0  0  0  0
   -5.2330   17.5210  -34.5030 C   0  0  0  0  0  0  0  0  0  0  0  0
   -4.5700   17.9600  -33.2420 N   0  0  2  0  0  0  0  0  0  0  0  0
   -5.3510   17.5210  -32.0490 C   0  0  0  0  0  0  0  0  0  0  0  0
   -6.7390   18.1920  -31.9480 C   0  0  0  0  0  0  0  0  0  0  0  0
   -6.6120   19.6500  -32.2260 C   0  0  0  0  0  0  0  0  0  0  0  0
   -5.5300   20.2200  -32.8620 C   0  0  0  0  0  0  0  0  0  0  0  0
   -5.7070   21.5500  -33.0350 N   0  0  0  0  0  0  0  0  0  0  0  0
   -6.9250   21.8140  -32.5220 C   0  0  0  0  0  0  0  0  0  0  0  0
   -7.5720   23.0470  -32.4730 C   0  0  0  0  0  0  0  0  0  0  0  0
   -8.8570   23.0920  -31.8980 C   0  0  0  0  0  0  0  0  0  0  0  0
   -9.4590   21.9190  -31.3920 C   0  0  0  0  0  0  0  0  0  0  0  0
   -8.7830   20.6860  -31.4520 C   0  0  0  0  0  0  0  0  0  0  0  0
   -7.5120   20.6740  -32.0240 C   0  0  0  0  0  0  0  0  0  0  0  0
   -4.3010   19.4360  -33.2420 C   0  0  1  0  0  0  0  0  0  0  0  0
   -3.1140   19.7830  -32.3520 C   0  0  0  0  0  0  0  0  0  0  0  0
   -1.8000   19.3870  -32.6670 C   0  0  0  0  0  0  0  0  0  0  0  0
   -0.7310   19.7570  -31.8460 C   0  0  0  0  0  0  0  0  0  0  0  0
   -0.9460   20.5400  -30.7070 C   0  0  0  0  0  0  0  0  0  0  0  0
    0.1600   20.8850  -29.9160 O   0  0  0  0  0  0  0  0  0  0  0  0
    0.3770   20.4150  -28.5900 C   0  0  0  0  0  0  0  0  0  0  0  0
   -2.2540   20.9550  -30.3970 C   0  0  0  0  0  0  0  0  0  0  0  0
   -3.3240   20.5840  -31.2160 C   0  0  0  0  0  0  0  0  0  0  0  0
   -6.9620   15.5190  -33.1439 H   0  0  0  0  0  0  0  0  0  0  0  0
   -7.5596   16.2757  -34.6595 H   0  0  0  0  0  0  0  0  0  0  0  0
   -7.0354   14.5576  -34.6595 H   0  0  0  0  0  0  0  0  0  0  0  0
   -4.7228   15.5134  -33.8752 H   0  0  0  0  0  0  0  0  0  0  0  0
   -5.2151   15.6812  -35.6181 H   0  0  0  0  0  0  0  0  0  0  0  0
   -4.6168   17.8447  -35.3548 H   0  0  0  0  0  0  0  0  0  0  0  0
   -6.2340   17.9765  -34.5260 H   0  0  0  0  0  0  0  0  0  0  0  0
   -3.6520   17.4620  -33.1750 H   0  0  0  0  0  0  0  0  0  0  0  0
   -5.4929   16.4317  -32.1058 H   0  0  0  0  0  0  0  0  0  0  0  0
   -4.7793   17.8180  -31.1574 H   0  0  0  0  0  0  0  0  0  0  0  0
   -7.4195   17.7373  -32.6830 H   0  0  0  0  0  0  0  0  0  0  0  0
   -7.1411   18.0476  -30.9344 H   0  0  0  0  0  0  0  0  0  0  0  0
   -5.0410   22.2260  -33.4730 H   0  0  0  0  0  0  0  0  0  0  0  0
   -7.0951   23.9552  -32.8702 H   0  0  0  0  0  0  0  0  0  0  0  0
   -9.3963   24.0491  -31.8426 H   0  0  0  0  0  0  0  0  0  0  0  0
  -10.4640   21.9694  -30.9476 H   0  0  0  0  0  0  0  0  0  0  0  0
   -9.2411   19.7652  -31.0617 H   0  0  0  0  0  0  0  0  0  0  0  0
   -4.0356   19.7255  -34.2695 H   0  0  0  0  0  0  0  0  0  0  0  0
   -1.6133   18.7817  -33.5663 H   0  0  0  0  0  0  0  0  0  0  0  0
    0.2885   19.4295  -32.0978 H   0  0  0  0  0  0  0  0  0  0  0  0
    0.0279   21.1710  -27.8713 H   0  0  0  0  0  0  0  0  0  0  0  0
   -0.1801   19.4789  -28.4370 H   0  0  0  0  0  0  0  0  0  0  0  0
    1.4508   20.2319  -28.4370 H   0  0  0  0  0  0  0  0  0  0  0  0
   -2.4354   21.5742  -29.5061 H   0  0  0  0  0  0  0  0  0  0  0  0
   -4.3411   20.9223  -30.9691 H   0  0  0  0  0  0  0  0  0  0  0  0
  1  2  1  0
  2  3  1  0
  3  4  1  0
  4  5  1  0
  5  6  1  0
  6  7  1  0
  7  8  2  0
  8  9  1  0
  9 10  1  0
 10 11  2  0
 11 12  1  0
 12 13  2  0
 13 14  1  0
 14 15  2  0
  8 16  1  0
 16 17  1  0
 17 18  2  0
 18 19  1  0
 19 20  2  0
 20 21  1  0
 21 22  1  0
 20 23  1  0
 23 24  2  0
 16  4  1  0
 24 17  1  0
 15  7  1  0
 15 10  1  0
  1 25  1  0
  1 26  1  0
  1 27  1  0
  2 28  1  0
  2 29  1  0
  3 30  1  0
  3 31  1  0
  4 32  1  1
  5 33  1  0
  5 34  1  0
  6 35  1  0
  6 36  1  0
  9 37  1  0
 11 38  1  0
 12 39  1  0
 13 40  1  0
 14 41  1  0
 16 42  1  6
 18 43  1  0
 19 44  1  0
 22 45  1  0
 22 46  1  0
 22 47  1  0
 23 48  1  0
 24 49  1  0
M  CHG  1   4   1
M  END
>  <UniqueID>  (34) 
33

>  <SMILES>  (34) 
CCC[N@@H+]1CCc2c([nH]c3ccccc23)[C@H]1c1ccc(OC)cc1

>  <Energy>  (34) 
92.10085451105675

>  <Genealogy>  (34) 
CCC[NH+]1CCc2c([nH]c3ccccc23)C1c1ccc(OC)cc1 (protonated)
CCC[N@@H+]1CCc2c([nH]c3ccccc23)[C@H]1c1ccc(OC)cc1 (chirality)
CCC[N@@H+]1CCc2c([nH]c3ccccc23)[C@H]1c1ccc(OC)cc1 (3D coordinates assigned)
CCC[N@@H+]1CCc2c([nH]c3ccccc23)[C@H]1c1ccc(OC)cc1 (nonaromatic ring conformer: 92.10085451105675 kcal/mol)

>  <smiles>  (34) 
CCCN1CCc2c([nH]c3ccccc23)C1c1ccc(OC)cc1

>  <score_type>  (34) 
oracle

>  <origin>  (34) 
adg

>  <m_score__min__energy>  (34) 
-6.6399999999999997

>  <m_primary>  (34) 
energy

$$$$
34:0
     RDKit          3D

 49 51  0  0  0  0  0  0  0  0999 V2000
   -4.1300   23.1340  -28.4770 C   0  0  0  0  0  0  0  0  0  0  0  0
   -4.0180   24.5170  -29.1150 C   0  0  0  0  0  0  0  0  0  0  0  0
   -4.2710   24.4510  -30.5710 N   0  0  0  0  0  0  0  0  0  0  0  0
   -5.6070   24.9500  -30.9670 C   0  0  0  0  0  0  0  0  0  0  0  0
   -6.4120   25.3050  -29.7230 C   0  0  0  0  0  0  0  0  0  0  0  0
   -3.9410   23.1350  -31.1670 C   0  0  0  0  0  0  0  0  0  0  0  0
   -4.8500   22.7020  -32.3340 C   0  0  0  0  0  0  0  0  0  0  0  0
   -5.4340   21.4200  -32.1020 O   0  0  0  0  0  0  0  0  0  0  0  0
   -6.8190   21.1710  -32.1000 C   0  0  0  0  0  0  0  0  0  0  0  0
   -7.7420   22.1290  -31.6260 C   0  0  0  0  0  0  0  0  0  0  0  0
   -9.1070   21.8360  -31.5820 C   0  0  0  0  0  0  0  0  0  0  0  0
   -9.5710   20.5920  -32.0060 C   0  0  0  0  0  0  0  0  0  0  0  0
   -8.6740   19.6400  -32.4900 C   0  0  0  0  0  0  0  0  0  0  0  0
   -7.2990   19.9230  -32.5540 C   0  0  0  0  0  0  0  0  0  0  0  0
   -6.3810   18.9120  -33.1170 C   0  0  0  0  0  0  0  0  0  0  0  0
   -6.8550   17.6410  -33.4640 C   0  0  0  0  0  0  0  0  0  0  0  0
   -6.0030   16.7320  -34.0010 N   0  0  0  0  0  0  0  0  0  0  0  0
   -4.6970   17.0330  -34.2210 C   0  0  0  0  0  0  0  0  0  0  0  0
   -4.2130   18.3090  -33.8980 C   0  0  0  0  0  0  0  0  0  0  0  0
   -2.7890   18.6540  -34.1360 C   0  0  0  0  0  0  0  0  0  0  0  0
   -1.7810   17.7830  -34.5520 C   0  0  0  0  0  0  0  0  0  0  0  0
   -0.5440   18.4110  -34.7470 C   0  0  0  0  0  0  0  0  0  0  0  0
   -0.5720   19.7700  -34.4860 C   0  0  0  0  0  0  0  0  0  0  0  0
    0.9000   20.9700  -34.6430 Br  0  0  0  0  0  0  0  0  0  0  0  0
   -2.1240   20.2010  -34.0150 S   0  0  0  0  0  0  0  0  0  0  0  0
   -5.0710   19.2180  -33.3440 N   0  0  0  0  0  0  0  0  0  0  0  0
   -4.1219   23.2338  -27.3816 H   0  0  0  0  0  0  0  0  0  0  0  0
   -5.0696   22.6585  -28.7949 H   0  0  0  0  0  0  0  0  0  0  0  0
   -3.2792   22.5135  -28.7949 H   0  0  0  0  0  0  0  0  0  0  0  0
   -4.7564   25.1878  -28.6516 H   0  0  0  0  0  0  0  0  0  0  0  0
   -2.9981   24.8961  -28.9533 H   0  0  0  0  0  0  0  0  0  0  0  0
   -5.4914   25.8453  -31.5955 H   0  0  0  0  0  0  0  0  0  0  0  0
   -6.1353   24.1678  -31.5319 H   0  0  0  0  0  0  0  0  0  0  0  0
   -5.8310   25.0488  -28.8248 H   0  0  0  0  0  0  0  0  0  0  0  0
   -6.6307   26.3830  -29.7231 H   0  0  0  0  0  0  0  0  0  0  0  0
   -7.3555   24.7395  -29.7231 H   0  0  0  0  0  0  0  0  0  0  0  0
   -2.9064   23.1783  -31.5382 H   0  0  0  0  0  0  0  0  0  0  0  0
   -4.0884   22.3911  -30.3702 H   0  0  0  0  0  0  0  0  0  0  0  0
   -5.6538   23.4433  -32.4536 H   0  0  0  0  0  0  0  0  0  0  0  0
   -4.2336   22.6382  -33.2428 H   0  0  0  0  0  0  0  0  0  0  0  0
   -7.3835   23.1128  -31.2891 H   0  0  0  0  0  0  0  0  0  0  0  0
   -9.8179   22.5893  -31.2116 H   0  0  0  0  0  0  0  0  0  0  0  0
  -10.6454   20.3609  -31.9589 H   0  0  0  0  0  0  0  0  0  0  0  0
   -9.0457   18.6601  -32.8242 H   0  0  0  0  0  0  0  0  0  0  0  0
   -7.9116   17.3811  -33.3022 H   0  0  0  0  0  0  0  0  0  0  0  0
   -4.0215   16.2788  -34.6509 H   0  0  0  0  0  0  0  0  0  0  0  0
   -1.9423   16.7066  -34.7115 H   0  0  0  0  0  0  0  0  0  0  0  0
    0.3600   17.8770  -35.0750 H   0  0  0  0  0  0  0  0  0  0  0  0
   -4.7310   20.1700  -33.0830 H   0  0  0  0  0  0  0  0  0  0  0  0
  1  2  1  0
  2  3  1  0
  3  4  1  0
  4  5  1  0
  3  6  1  0
  6  7  1  0
  7  8  1  0
  8  9  1  0
  9 10  2  0
 10 11  1  0
 11 12  2  0
 12 13  1  0
 13 14  2  0
 14 15  1  0
 15 16  2  0
 16 17  1  0
 17 18  2  0
 18 19  1  0
 19 20  1  0
 20 21  2  0
 21 22  1  0
 22 23  2  0
 23 24  1  0
 23 25  1  0
 19 26  2  0
 14  9  1  0
 26 15  1  0
 25 20  1  0
  1 27  1  0
  1 28  1  0
  1 29  1  0
  2 30  1  0
  2 31  1  0
  4 32  1  0
  4 33  1  0
  5 34  1  0
  5 35  1  0
  5 36  1  0
  6 37  1  0
  6 38  1  0
  7 39  1  0
  7 40  1  0
 10 41  1  0
 11 42  1  0
 12 43  1  0
 13 44  1  0
 16 45  1  0
 18 46  1  0
 21 47  1  0
 22 48  1  0
 26 49  1  0
M  CHG  1  26   1
M  END
>  <UniqueID>  (35) 
34

>  <SMILES>  (35) 
CCN(CC)CCOc1ccccc1-c1cncc(-c2ccc(Br)s2)[nH+]1

>  <Energy>  (35) 
83.08650632383043

>  <Genealogy>  (35) 
CCN(CC)CCOc1ccccc1-c1cncc(-c2ccc(Br)s2)[nH+]1 (protonated)
CCN(CC)CCOc1ccccc1-c1cncc(-c2ccc(Br)s2)[nH+]1 (3D coordinates assigned)
CCN(CC)CCOc1ccccc1-c1cncc(-c2ccc(Br)s2)[nH+]1 (optimized conformer: 83.08650632383043 kcal/mol)

>  <smiles>  (35) 
CCN(CC)CCOc1ccccc1-c1cncc(-c2ccc(Br)s2)n1

>  <score_type>  (35) 
oracle

>  <origin>  (35) 
adg

>  <m_score__min__energy>  (35) 
-7.75

>  <m_primary>  (35) 
energy

$$$$
35:0
     RDKit          3D

 36 38  0  0  0  0  0  0  0  0999 V2000
   -1.9010   25.0410  -28.0100 C   0  0  0  0  0  0  0  0  0  0  0  0
   -2.4290   25.1700  -29.3260 O   0  0  0  0  0  0  0  0  0  0  0  0
   -2.9180   24.1020  -30.0960 C   0  0  0  0  0  0  0  0  0  0  0  0
   -2.1770   22.9210  -30.2870 C   0  0  0  0  0  0  0  0  0  0  0  0
   -2.6930   21.8800  -31.0640 C   0  0  0  0  0  0  0  0  0  0  0  0
   -1.9740   20.7360  -31.2200 N   0  0  0  0  0  0  0  0  0  0  0  0
   -2.4390   19.6910  -31.9530 C   0  0  0  0  0  0  0  0  0  0  0  0
   -3.6800   19.7760  -32.5850 C   0  0  0  0  0  0  0  0  0  0  0  0
   -4.4390   20.9440  -32.4710 C   0  0  0  0  0  0  0  0  0  0  0  0
   -5.6660   21.0090  -33.1450 O   0  0  0  0  0  0  0  0  0  0  0  0
   -6.8280   20.3300  -32.7450 C   0  0  0  0  0  0  0  0  0  0  0  0
   -6.8270   18.9290  -32.7720 C   0  0  0  0  0  0  0  0  0  0  0  0
   -7.9600   18.2120  -32.3770 C   0  0  0  0  0  0  0  0  0  0  0  0
   -9.1060   18.8920  -31.9560 C   0  0  0  0  0  0  0  0  0  0  0  0
   -9.1220   20.2890  -31.9350 C   0  0  0  0  0  0  0  0  0  0  0  0
   -7.9910   21.0090  -32.3320 C   0  0  0  0  0  0  0  0  0  0  0  0
   -3.9590   22.0100  -31.6770 C   0  0  0  0  0  0  0  0  0  0  0  0
   -4.7070   23.1800  -31.4620 C   0  0  0  0  0  0  0  0  0  0  0  0
   -4.1860   24.2320  -30.6820 C   0  0  0  0  0  0  0  0  0  0  0  0
   -4.8990   25.4220  -30.4670 O   0  0  0  0  0  0  0  0  0  0  0  0
   -6.1160   25.5130  -29.7320 C   0  0  0  0  0  0  0  0  0  0  0  0
   -2.6962   25.2353  -27.2752 H   0  0  0  0  0  0  0  0  0  0  0  0
   -1.5126   24.0215  -27.8690 H   0  0  0  0  0  0  0  0  0  0  0  0
   -1.0863   25.7665  -27.8690 H   0  0  0  0  0  0  0  0  0  0  0  0
   -1.1856   22.8165  -29.8220 H   0  0  0  0  0  0  0  0  0  0  0  0
   -1.8359   18.7760  -32.0484 H   0  0  0  0  0  0  0  0  0  0  0  0
   -4.0599   18.9263  -33.1712 H   0  0  0  0  0  0  0  0  0  0  0  0
   -5.9284   18.3898  -33.1063 H   0  0  0  0  0  0  0  0  0  0  0  0
   -7.9496   17.1122  -32.3975 H   0  0  0  0  0  0  0  0  0  0  0  0
   -9.9958   18.3272  -31.6410 H   0  0  0  0  0  0  0  0  0  0  0  0
  -10.0255   20.8231  -31.6057 H   0  0  0  0  0  0  0  0  0  0  0  0
   -8.0095   22.1088  -32.3218 H   0  0  0  0  0  0  0  0  0  0  0  0
   -5.7086   23.2757  -31.9066 H   0  0  0  0  0  0  0  0  0  0  0  0
   -5.8957   25.4965  -28.6544 H   0  0  0  0  0  0  0  0  0  0  0  0
   -6.6290   26.4520  -29.9870 H   0  0  0  0  0  0  0  0  0  0  0  0
   -6.7630   24.6607  -29.9870 H   0  0  0  0  0  0  0  0  0  0  0  0
  1  2  1  0
  2  3  1  0
  3  4  2  0
  4  5  1  0
  5  6  2  0
  6  7  1  0
  7  8  2  0
  8  9  1  0
  9 10  1  0
 10 11  1  0
 11 12  2  0
 12 13  1  0
 13 14  2  0
 14 15  1  0
 15 16  2  0
  9 17  2  0
 17 18  1  0
 18 19  2  0
 19 20  1  0
 20 21  1  0
 19  3  1  0
 17  5  1  0
 16 11  1  0
  1 22  1  0
  1 23  1  0
  1 24  1  0
  4 25  1  0
  7 26  1  0
  8 27  1  0
 12 28  1  0
 13 29  1  0
 14 30  1  0
 15 31  1  0
 16 32  1  0
 18 33  1  0
 21 34  1  0
 21 35  1  0
 21 36  1  0
M  END
>  <UniqueID>  (36) 
35

>  <SMILES>  (36) 
COc1cc2nccc(Oc3ccccc3)c2cc1OC

>  <Energy>  (36) 
49.608597399424404

>  <Genealogy>  (36) 
COc1cc2nccc(Oc3ccccc3)c2cc1OC (3D coordinates assigned)
COc1cc2nccc(Oc3ccccc3)c2cc1OC (optimized conformer: 49.608597399424404 kcal/mol)

>  <smiles>  (36) 
COc1cc2nccc(Oc3ccccc3)c2cc1OC

>  <score_type>  (36) 
oracle

>  <origin>  (36) 
adg

>  <m_score__min__energy>  (36) 
-7.4100000000000001

>  <m_primary>  (36) 
energy

$$$$
36:0
     RDKit          3D

 40 42  0  0  1  0  0  0  0  0999 V2000
   -6.4360   25.2680  -29.6910 C   0  0  0  0  0  0  0  0  0  0  0  0
   -5.4870   25.2790  -30.8460 C   0  0  0  0  0  0  0  0  0  0  0  0
   -4.0940   25.2850  -30.4870 N   0  0  0  0  0  0  0  0  0  0  0  0
   -3.9330   24.5060  -29.2500 C   0  0  0  0  0  0  0  0  0  0  0  0
   -3.2890   23.2120  -29.6200 C   0  0  0  0  0  0  0  0  0  0  0  0
   -2.9700   23.2240  -31.0400 N   0  0  0  0  0  0  0  0  0  0  0  0
   -3.4620   22.2890  -31.8100 C   0  0  0  0  0  0  0  0  0  0  0  0
   -4.8300   22.0830  -31.7780 C   0  0  0  0  0  0  0  0  0  0  0  0
   -5.4880   21.1360  -32.5240 C   0  0  0  0  0  0  0  0  0  0  0  0
   -6.9310   20.9730  -32.4500 C   0  0  0  0  0  0  0  0  0  0  0  0
   -7.5580   19.8040  -32.8050 C   0  0  0  0  0  0  0  0  0  0  0  0
   -8.9410   19.6710  -32.7100 C   0  0  0  0  0  0  0  0  0  0  0  0
   -9.7480   20.6930  -32.2580 C   0  0  0  0  0  0  0  0  0  0  0  0
   -9.1300   21.8620  -31.9000 C   0  0  0  0  0  0  0  0  0  0  0  0
   -7.7440   22.0120  -31.9910 C   0  0  0  0  0  0  0  0  0  0  0  0
   -4.7140   20.3770  -33.3320 N   0  0  0  0  0  0  0  0  0  0  0  0
   -3.3680   20.5780  -33.3670 C   0  0  0  0  0  0  0  0  0  0  0  0
   -2.4060   19.9080  -34.1220 C   0  0  0  0  0  0  0  0  0  0  0  0
   -1.2140   20.5010  -33.7760 C   0  0  0  0  0  0  0  0  0  0  0  0
   -1.4520   21.4660  -32.8680 N   0  0  0  0  0  0  0  0  0  0  0  0
   -2.7520   21.5160  -32.6210 N   0  0  0  0  0  0  0  0  0  0  0  0
   -5.8675   25.2746  -28.7493 H   0  0  0  0  0  0  0  0  0  0  0  0
   -7.0798   26.1587  -29.7369 H   0  0  0  0  0  0  0  0  0  0  0  0
   -7.0590   24.3626  -29.7369 H   0  0  0  0  0  0  0  0  0  0  0  0
   -5.6790   24.3828  -31.4542 H   0  0  0  0  0  0  0  0  0  0  0  0
   -5.6699   26.2198  -31.3858 H   0  0  0  0  0  0  0  0  0  0  0  0
   -3.4950   24.9260  -31.2340 H   0  0  0  0  0  0  0  0  0  0  0  0
   -3.2957   25.0541  -28.5405 H   0  0  0  0  0  0  0  0  0  0  0  0
   -4.9074   24.3323  -28.7700 H   0  0  0  0  0  0  0  0  0  0  0  0
   -2.3656   23.0808  -29.0368 H   0  0  0  0  0  0  0  0  0  0  0  0
   -3.9773   22.3818  -29.4032 H   0  0  0  0  0  0  0  0  0  0  0  0
   -5.4300   22.7197  -31.1111 H   0  0  0  0  0  0  0  0  0  0  0  0
   -6.9575   18.9580  -33.1707 H   0  0  0  0  0  0  0  0  0  0  0  0
   -9.4050   18.7184  -33.0056 H   0  0  0  0  0  0  0  0  0  0  0  0
  -10.8394   20.5752  -32.1879 H   0  0  0  0  0  0  0  0  0  0  0  0
   -9.7387   22.7014  -31.5327 H   0  0  0  0  0  0  0  0  0  0  0  0
   -7.2841   22.9666  -31.6955 H   0  0  0  0  0  0  0  0  0  0  0  0
   -5.1210   19.6270  -33.9280 H   0  0  0  0  0  0  0  0  0  0  0  0
   -2.5651   19.0868  -34.8364 H   0  0  0  0  0  0  0  0  0  0  0  0
   -0.2259   20.2304  -34.1766 H   0  0  0  0  0  0  0  0  0  0  0  0
  1  2  1  0
  2  3  1  0
  3  4  1  0
  4  5  1  0
  5  6  1  0
  6  7  2  0
  7  8  1  0
  8  9  2  0
  9 10  1  0
 10 11  2  0
 11 12  1  0
 12 13  2  0
 13 14  1  0
 14 15  2  0
  9 16  1  0
 16 17  1  0
 17 18  2  0
 18 19  1  0
 19 20  2  0
 20 21  1  0
 21  7  1  0
 15 10  1  0
 21 17  1  0
  1 22  1  0
  1 23  1  0
  1 24  1  0
  2 25  1  0
  2 26  1  0
  3 27  1  0
  4 28  1  0
  4 29  1  0
  5 30  1  0
  5 31  1  0
  8 32  1  0
 11 33  1  0
 12 34  1  0
 13 35  1  0
 14 36  1  0
 15 37  1  0
 16 38  1  0
 18 39  1  0
 19 40  1  0
M  END
>  <smiles>  (37) 
CCNCCN=c1cc(-c2ccccc2)[nH]c2ccnn12

>  <score_type>  (37) 
oracle

>  <origin>  (37) 
adg

>  <m_score__min__energy>  (37) 
-8.0199999999999996

>  <m_primary>  (37) 
energy

$$$$
37:0
     RDKit          3D

 48 50  0  0  0  0  0  0  0  0999 V2000
   -6.2276   25.8083  -31.6006 H   0  0  0  0  0  0  0  0  0  0  0  0
   -6.1510   25.0050  -30.8530 C   0  0  0  0  0  0  0  0  0  0  0  0
   -4.9230   24.9110  -30.0400 C   0  0  0  0  0  0  0  0  0  0  0  0
   -3.8360   25.3010  -30.5450 O   0  0  0  0  0  0  0  0  0  0  0  0
   -4.9570   24.4450  -28.6800 N   0  0  0  0  0  0  0  0  0  0  0  0
   -5.8370   24.5830  -28.1340 H   0  0  0  0  0  0  0  0  0  0  0  0
   -3.8000   23.9570  -27.9770 C   0  0  0  0  0  0  0  0  0  0  0  0
   -3.3180   22.6740  -28.2600 C   0  0  0  0  0  0  0  0  0  0  0  0
   -3.8346   22.0488  -29.0032 H   0  0  0  0  0  0  0  0  0  0  0  0
   -2.1890   22.1820  -27.6080 C   0  0  0  0  0  0  0  0  0  0  0  0
   -1.8265   21.1677  -27.8314 H   0  0  0  0  0  0  0  0  0  0  0  0
   -1.5130   22.9730  -26.6690 C   0  0  0  0  0  0  0  0  0  0  0  0
   -0.3810   22.4760  -26.0180 C   0  0  0  0  0  0  0  0  0  0  0  0
   -0.0209   21.4598  -26.2363 H   0  0  0  0  0  0  0  0  0  0  0  0
    0.2880   23.2680  -25.0950 C   0  0  0  0  0  0  0  0  0  0  0  0
    1.1788   22.8815  -24.5782 H   0  0  0  0  0  0  0  0  0  0  0  0
   -0.1740   24.5550  -24.8260 C   0  0  0  0  0  0  0  0  0  0  0  0
    0.3612   25.1803  -24.0962 H   0  0  0  0  0  0  0  0  0  0  0  0
   -1.2830   25.0540  -25.4550 N   0  0  0  0  0  0  0  0  0  0  0  0
   -1.7150   26.4210  -25.1190 C   0  0  0  0  0  0  0  0  0  0  0  0
   -1.7513   26.5357  -24.0256 H   0  0  0  0  0  0  0  0  0  0  0  0
   -1.0018   27.1449  -25.5402 H   0  0  0  0  0  0  0  0  0  0  0  0
   -2.7146   26.6036  -25.5402 H   0  0  0  0  0  0  0  0  0  0  0  0
   -1.9660   24.2850  -26.3780 C   0  0  0  0  0  0  0  0  0  0  0  0
   -3.1130   24.7650  -27.0530 C   0  0  0  0  0  0  0  0  0  0  0  0
   -3.4728   25.7849  -26.8523 H   0  0  0  0  0  0  0  0  0  0  0  0
   -7.1770   24.1530  -30.7190 C   0  0  0  0  0  0  0  0  0  0  0  0
   -8.0466   24.4753  -30.1274 H   0  0  0  0  0  0  0  0  0  0  0  0
   -7.2040   22.7990  -31.3250 C   0  0  0  0  0  0  0  0  0  0  0  0
   -8.3560   21.9900  -31.3170 C   0  0  0  0  0  0  0  0  0  0  0  0
   -9.2820   22.3634  -30.8555 H   0  0  0  0  0  0  0  0  0  0  0  0
   -8.3320   20.7160  -31.8910 C   0  0  0  0  0  0  0  0  0  0  0  0
   -9.2422   20.0984  -31.8857 H   0  0  0  0  0  0  0  0  0  0  0  0
   -7.1550   20.2170  -32.4750 C   0  0  0  0  0  0  0  0  0  0  0  0
   -7.1430   18.8300  -33.0930 C   0  0  0  0  0  0  0  0  0  0  0  0
   -8.1175   18.6691  -33.5772 H   0  0  0  0  0  0  0  0  0  0  0  0
   -6.0610   18.7160  -34.1730 C   0  0  0  0  0  0  0  0  0  0  0  0
   -5.0756   18.6122  -33.6953 H   0  0  0  0  0  0  0  0  0  0  0  0
   -6.2596   17.8338  -34.7993 H   0  0  0  0  0  0  0  0  0  0  0  0
   -6.0714   19.6202  -34.7993 H   0  0  0  0  0  0  0  0  0  0  0  0
   -6.9710   17.7490  -32.0200 C   0  0  0  0  0  0  0  0  0  0  0  0
   -7.0439   18.2074  -31.0227 H   0  0  0  0  0  0  0  0  0  0  0  0
   -7.7598   16.9908  -32.1336 H   0  0  0  0  0  0  0  0  0  0  0  0
   -5.9858   17.2731  -32.1336 H   0  0  0  0  0  0  0  0  0  0  0  0
   -6.0010   21.0180  -32.4660 C   0  0  0  0  0  0  0  0  0  0  0  0
   -5.0704   20.6386  -32.9133 H   0  0  0  0  0  0  0  0  0  0  0  0
   -6.0250   22.2920  -31.8940 C   0  0  0  0  0  0  0  0  0  0  0  0
   -5.1111   22.9041  -31.8893 H   0  0  0  0  0  0  0  0  0  0  0  0
  1  2  1  0
  2  3  1  0
  3  4  2  0
  3  5  1  0
  5  6  1  0
  5  7  1  0
  7  8  2  0
  8  9  1  0
  8 10  1  0
 10 11  1  0
 10 12  2  0
 12 13  1  0
 13 14  1  0
 13 15  2  0
 15 16  1  0
 15 17  1  0
 17 18  1  0
 17 19  2  0
 19 20  1  0
 20 21  1  0
 20 22  1  0
 20 23  1  0
 19 24  1  0
 24 25  2  0
 25 26  1  0
  2 27  2  0
 27 28  1  0
 27 29  1  0
 29 30  2  0
 30 31  1  0
 30 32  1  0
 32 33  1  0
 32 34  2  0
 34 35  1  0
 35 36  1  0
 35 37  1  0
 37 38  1  0
 37 39  1  0
 37 40  1  0
 35 41  1  0
 41 42  1  0
 41 43  1  0
 41 44  1  0
 34 45  1  0
 45 46  1  0
 45 47  2  0
 47 48  1  0
 25  7  1  0
 47 29  1  0
 24 12  1  0
M  CHG  1  19   1
M  END
>  <UniqueID>  (38) 
36

>  <SMILES>  (38) 
CC(C)c1ccc(/C=C/C(=O)Nc2ccc3ccc[n+](C)c3c2)cc1

>  <Energy>  (38) 
59.468302432816024

>  <Genealogy>  (38) 
CC(C)c1ccc(/C=C/C(=O)Nc2ccc3ccc[n+](C)c3c2)cc1 (cis-trans isomerization)
CC(C)c1ccc(/C=C/C(=O)Nc2ccc3ccc[n+](C)c3c2)cc1 (3D coordinates assigned)
CC(C)c1ccc(/C=C/C(=O)Nc2ccc3ccc[n+](C)c3c2)cc1 (optimized conformer: 59.468302432816024 kcal/mol)

>  <smiles>  (38) 
CC(C)c1ccc(C=CC(=O)Nc2ccc3ccc[n+](C)c3c2)cc1

>  <score_type>  (38) 
oracle

>  <origin>  (38) 
adg

>  <m_score__min__energy>  (38) 
-9.9199999999999999

>  <m_primary>  (38) 
energy

$$$$
38:0
     RDKit          3D

 37 38  0  0  0  0  0  0  0  0999 V2000
   -5.7400   18.5820  -34.5460 C   0  0  0  0  0  0  0  0  0  0  0  0
   -5.6110   19.6210  -33.5840 O   0  0  0  0  0  0  0  0  0  0  0  0
   -6.2980   19.6100  -32.3650 C   0  0  0  0  0  0  0  0  0  0  0  0
   -5.8770   18.9020  -31.4090 O   0  0  0  0  0  0  0  0  0  0  0  0
   -7.5410   20.3980  -32.2340 C   0  0  0  0  0  0  0  0  0  0  0  0
   -7.6570   21.6200  -31.7130 C   0  0  0  0  0  0  0  0  0  0  0  0
   -6.5420   22.5020  -31.3010 C   0  0  0  0  0  0  0  0  0  0  0  0
   -6.7840   23.6250  -30.4980 C   0  0  0  0  0  0  0  0  0  0  0  0
   -5.7270   24.4340  -30.0810 C   0  0  0  0  0  0  0  0  0  0  0  0
   -4.4040   24.1260  -30.4490 C   0  0  0  0  0  0  0  0  0  0  0  0
   -3.3150   24.9180  -30.0500 O   0  0  0  0  0  0  0  0  0  0  0  0
   -2.3850   24.5570  -29.0360 C   0  0  0  0  0  0  0  0  0  0  0  0
   -4.1510   22.9910  -31.2370 C   0  0  0  0  0  0  0  0  0  0  0  0
   -2.8210   22.7030  -31.5830 O   0  0  0  0  0  0  0  0  0  0  0  0
   -2.3830   21.4750  -32.1540 C   0  0  0  0  0  0  0  0  0  0  0  0
   -5.2240   22.1790  -31.6530 C   0  0  0  0  0  0  0  0  0  0  0  0
   -9.0780   22.0530  -31.6190 C   0  0  0  0  0  0  0  0  0  0  0  0
   -9.8640   20.9580  -32.3400 C   0  0  0  0  0  0  0  0  0  0  0  0
   -8.8640   19.8350  -32.6190 C   0  0  0  0  0  0  0  0  0  0  0  0
   -5.8597   17.6177  -34.0304 H   0  0  0  0  0  0  0  0  0  0  0  0
   -6.6213   18.7729  -35.1759 H   0  0  0  0  0  0  0  0  0  0  0  0
   -4.8387   18.5516  -35.1759 H   0  0  0  0  0  0  0  0  0  0  0  0
   -7.8128   23.8696  -30.1951 H   0  0  0  0  0  0  0  0  0  0  0  0
   -5.9290   25.3192  -29.4600 H   0  0  0  0  0  0  0  0  0  0  0  0
   -2.8345   24.7315  -28.0473 H   0  0  0  0  0  0  0  0  0  0  0  0
   -2.1257   23.4929  -29.1383 H   0  0  0  0  0  0  0  0  0  0  0  0
   -1.4757   25.1675  -29.1383 H   0  0  0  0  0  0  0  0  0  0  0  0
   -2.1304   20.7668  -31.3511 H   0  0  0  0  0  0  0  0  0  0  0  0
   -3.1860   21.0529  -32.7761 H   0  0  0  0  0  0  0  0  0  0  0  0
   -1.4941   21.6563  -32.7761 H   0  0  0  0  0  0  0  0  0  0  0  0
   -5.0260   21.2831  -32.2597 H   0  0  0  0  0  0  0  0  0  0  0  0
   -9.3922   22.1281  -30.5675 H   0  0  0  0  0  0  0  0  0  0  0  0
   -9.2417   23.0455  -32.0641 H   0  0  0  0  0  0  0  0  0  0  0  0
  -10.6819   20.5917  -31.7022 H   0  0  0  0  0  0  0  0  0  0  0  0
  -10.3178   21.3332  -33.2691 H   0  0  0  0  0  0  0  0  0  0  0  0
   -9.0987   18.9479  -32.0124 H   0  0  0  0  0  0  0  0  0  0  0  0
   -8.8869   19.5109  -33.6699 H   0  0  0  0  0  0  0  0  0  0  0  0
  1  2  1  0
  2  3  1  0
  3  4  2  0
  3  5  1  0
  5  6  2  0
  6  7  1  0
  7  8  2  0
  8  9  1  0
  9 10  2  0
 10 11  1  0
 11 12  1  0
 10 13  1  0
 13 14  1  0
 14 15  1  0
 13 16  2  0
  6 17  1  0
 17 18  1  0
 18 19  1  0
 19  5  1  0
 16  7  1  0
  1 20  1  0
  1 21  1  0
  1 22  1  0
  8 23  1  0
  9 24  1  0
 12 25  1  0
 12 26  1  0
 12 27  1  0
 15 28  1  0
 15 29  1  0
 15 30  1  0
 16 31  1  0
 17 32  1  0
 17 33  1  0
 18 34  1  0
 18 35  1  0
 19 36  1  0
 19 37  1  0
M  END
>  <UniqueID>  (39) 
37

>  <SMILES>  (39) 
COC(=O)C1=C(c2ccc(OC)c(OC)c2)CCC1

>  <Energy>  (39) 
43.59238549736965

>  <Genealogy>  (39) 
COC(=O)C1=C(c2ccc(OC)c(OC)c2)CCC1 (3D coordinates assigned)
COC(=O)C1=C(c2ccc(OC)c(OC)c2)CCC1 (nonaromatic ring conformer: 43.59238549736965 kcal/mol)

>  <smiles>  (39) 
COC(=O)C1=C(c2ccc(OC)c(OC)c2)CCC1

>  <score_type>  (39) 
oracle

>  <origin>  (39) 
adg

>  <m_score__min__energy>  (39) 
-6.9900000000000002

>  <m_primary>  (39) 
energy

$$$$
39:0
     RDKit          3D

 32 33  0  0  0  0  0  0  0  0999 V2000
   -5.5440   25.8430  -30.4450 C   0  0  0  0  0  0  0  0  0  0  0  0
   -4.1970   25.4580  -30.6970 O   0  0  0  0  0  0  0  0  0  0  0  0
   -3.5820   24.2780  -30.2400 C   0  0  0  0  0  0  0  0  0  0  0  0
   -2.3620   24.4150  -29.5520 C   0  0  0  0  0  0  0  0  0  0  0  0
   -1.8160   25.6730  -29.3230 O   0  0  0  0  0  0  0  0  0  0  0  0
   -1.7010   23.2710  -29.1140 C   0  0  0  0  0  0  0  0  0  0  0  0
   -2.1830   22.0360  -29.3520 C   0  0  0  0  0  0  0  0  0  0  0  0
   -3.3710   21.8290  -30.0600 C   0  0  0  0  0  0  0  0  0  0  0  0
   -3.7450   20.5070  -30.3580 O   0  0  0  0  0  0  0  0  0  0  0  0
   -4.2950   20.0670  -31.5950 C   0  0  0  0  0  0  0  0  0  0  0  0
   -4.1230   22.9730  -30.4460 C   0  0  0  0  0  0  0  0  0  0  0  0
   -5.4080   22.8220  -30.9650 O   0  0  0  0  0  0  0  0  0  0  0  0
   -5.6810   23.1170  -32.3310 C   0  0  0  0  0  0  0  0  0  0  0  0
   -1.2160   21.0430  -28.8270 C   0  0  2  0  0  0  0  0  0  0  0  0
   -1.8330   20.1950  -27.7140 C   0  0  0  0  0  0  0  0  0  0  0  0
   -0.1100   21.7730  -28.3090 O   0  0  0  0  0  0  0  0  0  0  0  0
   -0.3980   23.1580  -28.4330 C   0  0  0  0  0  0  0  0  0  0  0  0
   -5.7144   25.8917  -29.3594 H   0  0  0  0  0  0  0  0  0  0  0  0
   -5.7324   26.8310  -30.8904 H   0  0  0  0  0  0  0  0  0  0  0  0
   -6.2261   25.1038  -30.8904 H   0  0  0  0  0  0  0  0  0  0  0  0
   -5.1404   19.3907  -31.4005 H   0  0  0  0  0  0  0  0  0  0  0  0
   -4.6459   20.9365  -32.1702 H   0  0  0  0  0  0  0  0  0  0  0  0
   -3.5237   19.5338  -32.1702 H   0  0  0  0  0  0  0  0  0  0  0  0
   -6.4271   23.9232  -32.3900 H   0  0  0  0  0  0  0  0  0  0  0  0
   -4.7542   23.4379  -32.8291 H   0  0  0  0  0  0  0  0  0  0  0  0
   -6.0726   22.2178  -32.8291 H   0  0  0  0  0  0  0  0  0  0  0  0
   -0.9121   20.3574  -29.6317 H   0  0  0  0  0  0  0  0  0  0  0  0
   -1.5369   20.6020  -26.7359 H   0  0  0  0  0  0  0  0  0  0  0  0
   -2.9292   20.2149  -27.8027 H   0  0  0  0  0  0  0  0  0  0  0  0
   -1.4767   19.1581  -27.8027 H   0  0  0  0  0  0  0  0  0  0  0  0
   -0.4511   23.6229  -27.4375 H   0  0  0  0  0  0  0  0  0  0  0  0
    0.3886   23.6716  -29.0053 H   0  0  0  0  0  0  0  0  0  0  0  0
  1  2  1  0
  2  3  1  0
  3  4  2  0
  4  5  1  0
  4  6  1  0
  6  7  2  0
  7  8  1  0
  8  9  1  0
  9 10  1  0
  8 11  2  0
 11 12  1  0
 12 13  1  0
  7 14  1  0
 14 15  1  0
 14 16  1  0
 16 17  1  0
 11  3  1  0
 17  6  1  0
  1 18  1  0
  1 19  1  0
  1 20  1  0
 10 21  1  0
 10 22  1  0
 10 23  1  0
 13 24  1  0
 13 25  1  0
 13 26  1  0
 14 27  1  6
 15 28  1  0
 15 29  1  0
 15 30  1  0
 17 31  1  0
 17 32  1  0
M  CHG  1   5  -1
M  END
>  <UniqueID>  (40) 
38

>  <SMILES>  (40) 
COc1c([O-])c2c(c(OC)c1OC)[C@H](C)OC2

>  <Energy>  (40) 
52.11924629058979

>  <Genealogy>  (40) 
COc1c([O-])c2c(c(OC)c1OC)C(C)OC2 (protonated)
COc1c([O-])c2c(c(OC)c1OC)[C@H](C)OC2 (chirality)
COc1c([O-])c2c(c(OC)c1OC)[C@H](C)OC2 (3D coordinates assigned)
COc1c([O-])c2c(c(OC)c1OC)[C@H](C)OC2 (nonaromatic ring conformer: 52.11924629058979 kcal/mol)

>  <smiles>  (40) 
COc1c(O)c2c(c(OC)c1OC)C(C)OC2

>  <score_type>  (40) 
oracle

>  <origin>  (40) 
adg

>  <m_score__min__energy>  (40) 
-7.7800000000000002

>  <m_primary>  (40) 
energy

$$$$
40:0
     RDKit          3D

 55 58  0  0  0  0  0  0  0  0999 V2000
   -0.1020   22.6900  -24.1110 C   0  0  0  0  0  0  0  0  0  0  0  0
    0.5920   23.8440  -24.8240 C   0  0  0  0  0  0  0  0  0  0  0  0
    1.2520   23.3440  -25.9850 O   0  0  0  0  0  0  0  0  0  0  0  0
    0.5960   22.9030  -27.1440 C   0  0  0  0  0  0  0  0  0  0  0  0
   -0.1230   23.7720  -27.9870 C   0  0  0  0  0  0  0  0  0  0  0  0
   -0.7450   23.2800  -29.1390 C   0  0  0  0  0  0  0  0  0  0  0  0
   -0.6700   21.9140  -29.4680 C   0  0  0  0  0  0  0  0  0  0  0  0
   -1.3330   21.4020  -30.6880 C   0  0  0  0  0  0  0  0  0  0  0  0
   -0.7050   21.2610  -31.8810 N   0  0  0  0  0  0  0  0  0  0  0  0
   -1.5390   20.8070  -32.8580 C   0  0  0  0  0  0  0  0  0  0  0  0
   -1.0700   20.6630  -34.2710 C   0  0  0  0  0  0  0  0  0  0  0  0
   -2.8550   20.5860  -32.4440 C   0  0  0  0  0  0  0  0  0  0  0  0
   -4.0390   20.2840  -33.3070 C   0  0  0  0  0  0  0  0  0  0  0  0
   -5.0560   21.3150  -33.1070 N   0  0  0  0  0  0  0  0  0  0  0  0
   -6.3290   21.0380  -32.5000 C   0  0  0  0  0  0  0  0  0  0  0  0
   -7.1030   19.9420  -32.9150 C   0  0  0  0  0  0  0  0  0  0  0  0
   -8.3150   19.6610  -32.2830 C   0  0  0  0  0  0  0  0  0  0  0  0
   -8.7400   20.4720  -31.2310 C   0  0  0  0  0  0  0  0  0  0  0  0
   -7.9800   21.5260  -30.8300 N   0  0  0  0  0  0  0  0  0  0  0  0
   -6.7960   21.8280  -31.4310 C   0  0  0  0  0  0  0  0  0  0  0  0
   -6.0710   22.9880  -31.0040 N   0  0  0  0  0  0  0  0  0  0  0  0
   -5.1140   22.8360  -29.9000 C   0  0  0  0  0  0  0  0  0  0  0  0
   -4.6240   24.2050  -29.3900 C   0  0  0  0  0  0  0  0  0  0  0  0
   -4.2940   25.0700  -30.4650 O   0  0  0  0  0  0  0  0  0  0  0  0
   -5.4630   25.3540  -31.2090 C   0  0  0  0  0  0  0  0  0  0  0  0
   -5.9290   24.0990  -31.9490 C   0  0  0  0  0  0  0  0  0  0  0  0
   -2.9600   20.9850  -30.8160 S   0  0  0  0  0  0  0  0  0  0  0  0
    0.0410   21.0510  -28.6150 C   0  0  0  0  0  0  0  0  0  0  0  0
    0.6680   21.5450  -27.4690 C   0  0  0  0  0  0  0  0  0  0  0  0
   -0.0189   22.8282  -23.0229 H   0  0  0  0  0  0  0  0  0  0  0  0
   -1.1637   22.6672  -24.3977 H   0  0  0  0  0  0  0  0  0  0  0  0
    0.3756   21.7415  -24.3977 H   0  0  0  0  0  0  0  0  0  0  0  0
   -0.1538   24.5967  -25.1194 H   0  0  0  0  0  0  0  0  0  0  0  0
    1.3271   24.3084  -24.1502 H   0  0  0  0  0  0  0  0  0  0  0  0
   -0.1957   24.8411  -27.7387 H   0  0  0  0  0  0  0  0  0  0  0  0
   -1.2986   23.9681  -29.7947 H   0  0  0  0  0  0  0  0  0  0  0  0
   -0.0185   20.3401  -34.2772 H   0  0  0  0  0  0  0  0  0  0  0  0
   -1.6869   19.9129  -34.7875 H   0  0  0  0  0  0  0  0  0  0  0  0
   -1.1597   21.6301  -34.7875 H   0  0  0  0  0  0  0  0  0  0  0  0
   -3.7308   20.2713  -34.3629 H   0  0  0  0  0  0  0  0  0  0  0  0
   -4.4517   19.3008  -33.0367 H   0  0  0  0  0  0  0  0  0  0  0  0
   -4.9740   22.1720  -33.6930 H   0  0  0  0  0  0  0  0  0  0  0  0
   -6.7531   19.3038  -33.7398 H   0  0  0  0  0  0  0  0  0  0  0  0
   -8.9286   18.8090  -32.6110 H   0  0  0  0  0  0  0  0  0  0  0  0
   -9.6927   20.2585  -30.7242 H   0  0  0  0  0  0  0  0  0  0  0  0
   -5.6031   22.3000  -29.0733 H   0  0  0  0  0  0  0  0  0  0  0  0
   -4.2448   22.2723  -30.2697 H   0  0  0  0  0  0  0  0  0  0  0  0
   -5.4199   24.6688  -28.7888 H   0  0  0  0  0  0  0  0  0  0  0  0
   -3.7199   24.0453  -28.7841 H   0  0  0  0  0  0  0  0  0  0  0  0
   -6.2570   25.6902  -30.5259 H   0  0  0  0  0  0  0  0  0  0  0  0
   -5.2421   26.1444  -31.9415 H   0  0  0  0  0  0  0  0  0  0  0  0
   -6.8992   24.2969  -32.4280 H   0  0  0  0  0  0  0  0  0  0  0  0
   -5.1850   23.8317  -32.7138 H   0  0  0  0  0  0  0  0  0  0  0  0
    0.1037   19.9787  -28.8523 H   0  0  0  0  0  0  0  0  0  0  0  0
    1.2247   20.8580  -26.8147 H   0  0  0  0  0  0  0  0  0  0  0  0
  1  2  1  0
  2  3  1  0
  3  4  1  0
  4  5  2  0
  5  6  1  0
  6  7  2  0
  7  8  1  0
  8  9  2  0
  9 10  1  0
 10 11  1  0
 10 12  2  0
 12 13  1  0
 13 14  1  0
 14 15  1  0
 15 16  2  0
 16 17  1  0
 17 18  2  0
 18 19  1  0
 19 20  2  0
 20 21  1  0
 21 22  1  0
 22 23  1  0
 23 24  1  0
 24 25  1  0
 25 26  1  0
 12 27  1  0
  7 28  1  0
 28 29  2  0
 29  4  1  0
 27  8  1  0
 20 15  1  0
 26 21  1  0
  1 30  1  0
  1 31  1  0
  1 32  1  0
  2 33  1  0
  2 34  1  0
  5 35  1  0
  6 36  1  0
 11 37  1  0
 11 38  1  0
 11 39  1  0
 13 40  1  0
 13 41  1  0
 14 42  1  0
 16 43  1  0
 17 44  1  0
 18 45  1  0
 22 46  1  0
 22 47  1  0
 23 48  1  0
 23 49  1  0
 25 50  1  0
 25 51  1  0
 26 52  1  0
 26 53  1  0
 28 54  1  0
 29 55  1  0
M  END
>  <UniqueID>  (41) 
39

>  <SMILES>  (41) 
CCOc1ccc(-c2nc(C)c(CNc3cccnc3N3CCOCC3)s2)cc1

>  <Energy>  (41) 
89.53898301916738

>  <Genealogy>  (41) 
CCOc1ccc(-c2nc(C)c(CNc3cccnc3N3CCOCC3)s2)cc1 (3D coordinates assigned)
CCOc1ccc(-c2nc(C)c(CNc3cccnc3N3CCOCC3)s2)cc1 (nonaromatic ring conformer: 89.53898301916738 kcal/mol)

>  <smiles>  (41) 
CCOc1ccc(-c2nc(C)c(CNc3cccnc3N3CCOCC3)s2)cc1

>  <score_type>  (41) 
oracle

>  <origin>  (41) 
adg

>  <m_score__min__energy>  (41) 
-8.4100000000000001

>  <m_primary>  (41) 
energy

$$$$
41:0
     RDKit          3D

 60 63  0  0  0  0  0  0  0  0999 V2000
   -8.7410   23.3770  -31.9410 C   0  0  0  0  0  0  0  0  0  0  0  0
   -8.5090   22.1950  -32.0050 C   0  0  0  0  0  0  0  0  0  0  0  0
   -8.2330   20.7840  -32.0810 C   0  0  0  0  0  0  0  0  0  0  0  0
   -8.8640   19.8980  -31.1980 C   0  0  0  0  0  0  0  0  0  0  0  0
   -8.5970   18.5290  -31.2710 C   0  0  0  0  0  0  0  0  0  0  0  0
   -7.7000   18.0390  -32.2260 C   0  0  0  0  0  0  0  0  0  0  0  0
   -7.0600   18.9200  -33.1130 C   0  0  0  0  0  0  0  0  0  0  0  0
   -6.0930   18.3840  -34.1380 C   0  0  0  0  0  0  0  0  0  0  0  0
   -4.7550   18.1920  -33.5400 N   0  0  0  0  0  0  0  0  0  0  0  0
   -3.7800   17.7900  -34.5790 C   0  0  0  0  0  0  0  0  0  0  0  0
   -2.3420   18.0280  -34.1030 C   0  0  0  0  0  0  0  0  0  0  0  0
   -2.0680   19.4730  -33.8690 N   0  0  0  0  0  0  0  0  0  0  0  0
   -1.0050   19.6630  -32.8500 C   0  0  0  0  0  0  0  0  0  0  0  0
   -0.6170   21.1420  -32.6100 C   0  0  0  0  0  0  0  0  0  0  0  0
   -0.3390   21.5400  -31.1450 C   0  0  0  0  0  0  0  0  0  0  0  0
   -1.2520   20.8850  -30.0870 C   0  0  0  0  0  0  0  0  0  0  0  0
   -1.4630   21.7310  -28.8190 C   0  0  0  0  0  0  0  0  0  0  0  0
   -2.1420   22.9970  -29.1020 N   0  0  0  0  0  0  0  0  0  0  0  0
   -1.6400   24.2550  -29.0030 C   0  0  0  0  0  0  0  0  0  0  0  0
   -0.4740   24.5130  -28.6050 O   0  0  0  0  0  0  0  0  0  0  0  0
   -2.5040   25.1890  -29.3630 O   0  0  0  0  0  0  0  0  0  0  0  0
   -3.5900   24.5450  -29.7220 C   0  0  0  0  0  0  0  0  0  0  0  0
   -4.7920   25.0660  -30.1930 C   0  0  0  0  0  0  0  0  0  0  0  0
   -5.8080   24.1530  -30.5340 C   0  0  0  0  0  0  0  0  0  0  0  0
   -5.5940   22.7600  -30.4040 C   0  0  0  0  0  0  0  0  0  0  0  0
   -4.3660   22.2670  -29.9240 C   0  0  0  0  0  0  0  0  0  0  0  0
   -3.3850   23.1990  -29.5790 C   0  0  0  0  0  0  0  0  0  0  0  0
   -3.2920   20.2370  -33.4980 C   0  0  0  0  0  0  0  0  0  0  0  0
   -4.3180   19.3700  -32.7470 C   0  0  0  0  0  0  0  0  0  0  0  0
   -7.3320   20.2960  -33.0370 C   0  0  0  0  0  0  0  0  0  0  0  0
   -8.9526   24.4549  -31.8826 H   0  0  0  0  0  0  0  0  0  0  0  0
   -9.5703   20.2809  -30.4466 H   0  0  0  0  0  0  0  0  0  0  0  0
   -9.0929   17.8350  -30.5764 H   0  0  0  0  0  0  0  0  0  0  0  0
   -7.4951   16.9597  -32.2825 H   0  0  0  0  0  0  0  0  0  0  0  0
   -6.4629   17.4187  -34.5140 H   0  0  0  0  0  0  0  0  0  0  0  0
   -6.0126   19.1078  -34.9624 H   0  0  0  0  0  0  0  0  0  0  0  0
   -3.9128   16.7213  -34.8029 H   0  0  0  0  0  0  0  0  0  0  0  0
   -3.9565   18.3967  -35.4794 H   0  0  0  0  0  0  0  0  0  0  0  0
   -2.1827   17.4788  -33.1633 H   0  0  0  0  0  0  0  0  0  0  0  0
   -1.6590   17.6738  -34.8891 H   0  0  0  0  0  0  0  0  0  0  0  0
   -1.7310   19.8870  -34.7700 H   0  0  0  0  0  0  0  0  0  0  0  0
   -1.3591   19.2399  -31.8984 H   0  0  0  0  0  0  0  0  0  0  0  0
   -0.1058   19.1570  -33.2314 H   0  0  0  0  0  0  0  0  0  0  0  0
    0.2919   21.3503  -33.1935 H   0  0  0  0  0  0  0  0  0  0  0  0
   -1.4937   21.7317  -32.9160 H   0  0  0  0  0  0  0  0  0  0  0  0
    0.7000   21.2643  -30.9116 H   0  0  0  0  0  0  0  0  0  0  0  0
   -0.5391   22.6200  -31.0854 H   0  0  0  0  0  0  0  0  0  0  0  0
   -2.2347   20.7021  -30.5462 H   0  0  0  0  0  0  0  0  0  0  0  0
   -0.7495   19.9601  -29.7676 H   0  0  0  0  0  0  0  0  0  0  0  0
   -2.0716   21.1548  -28.1066 H   0  0  0  0  0  0  0  0  0  0  0  0
   -0.4723   21.9663  -28.4029 H   0  0  0  0  0  0  0  0  0  0  0  0
   -4.9424   26.1509  -30.2950 H   0  0  0  0  0  0  0  0  0  0  0  0
   -6.7748   24.5249  -30.9040 H   0  0  0  0  0  0  0  0  0  0  0  0
   -6.3937   22.0570  -30.6803 H   0  0  0  0  0  0  0  0  0  0  0  0
   -4.1856   21.1865  -29.8243 H   0  0  0  0  0  0  0  0  0  0  0  0
   -3.0011   21.0791  -32.8528 H   0  0  0  0  0  0  0  0  0  0  0  0
   -3.7643   20.5869  -34.4278 H   0  0  0  0  0  0  0  0  0  0  0  0
   -3.8625   19.0158  -31.8105 H   0  0  0  0  0  0  0  0  0  0  0  0
   -5.2048   19.9918  -32.5550 H   0  0  0  0  0  0  0  0  0  0  0  0
   -6.8365   20.9922  -33.7296 H   0  0  0  0  0  0  0  0  0  0  0  0
  1  2  3  0
  2  3  1  0
  3  4  2  0
  4  5  1  0
  5  6  2  0
  6  7  1  0
  7  8  1  0
  8  9  1  0
  9 10  1  0
 10 11  1  0
 11 12  1  0
 12 13  1  0
 13 14  1  0
 14 15  1  0
 15 16  1  0
 16 17  1  0
 17 18  1  0
 18 19  1  0
 19 20  2  0
 19 21  1  0
 21 22  1  0
 22 23  2  0
 23 24  1  0
 24 25  2  0
 25 26  1  0
 26 27  2  0
 12 28  1  0
 28 29  1  0
  7 30  2  0
 30  3  1  0
 29  9  1  0
 27 18  1  0
 27 22  1  0
  1 31  1  0
  4 32  1  0
  5 33  1  0
  6 34  1  0
  8 35  1  0
  8 36  1  0
 10 37  1  0
 10 38  1  0
 11 39  1  0
 11 40  1  0
 12 41  1  0
 13 42  1  0
 13 43  1  0
 14 44  1  0
 14 45  1  0
 15 46  1  0
 15 47  1  0
 16 48  1  0
 16 49  1  0
 17 50  1  0
 17 51  1  0
 23 52  1  0
 24 53  1  0
 25 54  1  0
 26 55  1  0
 28 56  1  0
 28 57  1  0
 29 58  1  0
 29 59  1  0
 30 60  1  0
M  CHG  1  12   1
M  END
>  <UniqueID>  (42) 
40

>  <SMILES>  (42) 
C#Cc1cccc(CN2CC[NH+](CCCCCn3c(=O)oc4ccccc43)CC2)c1

>  <Energy>  (42) 
112.13973778067388

>  <Genealogy>  (42) 
C#Cc1cccc(CN2CC[NH+](CCCCCn3c(=O)oc4ccccc43)CC2)c1 (protonated)
C#Cc1cccc(CN2CC[NH+](CCCCCn3c(=O)oc4ccccc43)CC2)c1 (3D coordinates assigned)
C#Cc1cccc(CN2CC[NH+](CCCCCn3c(=O)oc4ccccc43)CC2)c1 (nonaromatic ring conformer: 112.13973778067388 kcal/mol)

>  <smiles>  (42) 
C#Cc1cccc(CN2CCN(CCCCCn3c(=O)oc4ccccc43)CC2)c1

>  <score_type>  (42) 
oracle

>  <origin>  (42) 
adg

>  <m_score__min__energy>  (42) 
-9.3200000000000003

>  <m_primary>  (42) 
energy

$$$$
42:0
     RDKit          3D

 50 52  0  0  0  0  0  0  0  0999 V2000
   -1.5440   18.0670  -32.7340 C   0  0  0  0  0  0  0  0  0  0  0  0
   -2.9870   18.5460  -32.9160 C   0  0  0  0  0  0  0  0  0  0  0  0
   -3.1300   20.0100  -32.6360 N   0  0  0  0  0  0  0  0  0  0  0  0
   -2.7070   20.7970  -33.8260 C   0  0  0  0  0  0  0  0  0  0  0  0
   -1.2140   21.1550  -33.8170 C   0  0  0  0  0  0  0  0  0  0  0  0
   -2.3470   20.4050  -31.4370 C   0  0  0  0  0  0  0  0  0  0  0  0
   -2.9650   21.6080  -30.7030 C   0  0  0  0  0  0  0  0  0  0  0  0
   -4.1260   22.0690  -31.3930 O   0  0  0  0  0  0  0  0  0  0  0  0
   -4.9790   23.1080  -30.9780 C   0  0  0  0  0  0  0  0  0  0  0  0
   -4.4720   24.2960  -30.4110 C   0  0  0  0  0  0  0  0  0  0  0  0
   -5.3370   25.3030  -29.9820 C   0  0  0  0  0  0  0  0  0  0  0  0
   -6.7140   25.1420  -30.1100 C   0  0  0  0  0  0  0  0  0  0  0  0
   -7.2340   23.9750  -30.6720 C   0  0  0  0  0  0  0  0  0  0  0  0
   -6.3800   22.9480  -31.1160 C   0  0  0  0  0  0  0  0  0  0  0  0
   -6.9600   21.7260  -31.7340 C   0  0  0  0  0  0  0  0  0  0  0  0
   -6.2190   20.6990  -32.2080 N   0  0  0  0  0  0  0  0  0  0  0  0
   -6.9710   19.6940  -32.7400 C   0  0  0  0  0  0  0  0  0  0  0  0
   -6.3310   18.4780  -33.3110 C   0  0  0  0  0  0  0  0  0  0  0  0
   -5.7510   18.5320  -34.5950 C   0  0  0  0  0  0  0  0  0  0  0  0
   -5.1450   17.4010  -35.1520 C   0  0  0  0  0  0  0  0  0  0  0  0
   -5.1110   16.2010  -34.4380 C   0  0  0  0  0  0  0  0  0  0  0  0
   -4.5240   15.1060  -34.9810 F   0  0  0  0  0  0  0  0  0  0  0  0
   -5.6830   16.1310  -33.1670 C   0  0  0  0  0  0  0  0  0  0  0  0
   -6.2900   17.2580  -32.6040 C   0  0  0  0  0  0  0  0  0  0  0  0
   -8.3490   19.9240  -32.6910 C   0  0  0  0  0  0  0  0  0  0  0  0
   -8.5990   21.4200  -31.9670 S   0  0  0  0  0  0  0  0  0  0  0  0
   -1.3155   17.9911  -31.6607 H   0  0  0  0  0  0  0  0  0  0  0  0
   -1.4229   17.0805  -33.2053 H   0  0  0  0  0  0  0  0  0  0  0  0
   -0.8570   18.7853  -33.2053 H   0  0  0  0  0  0  0  0  0  0  0  0
   -3.2984   18.3503  -33.9527 H   0  0  0  0  0  0  0  0  0  0  0  0
   -3.6199   17.9993  -32.2014 H   0  0  0  0  0  0  0  0  0  0  0  0
   -4.1380   20.2410  -32.4570 H   0  0  0  0  0  0  0  0  0  0  0  0
   -2.9190   20.2058  -34.7291 H   0  0  0  0  0  0  0  0  0  0  0  0
   -3.2692   21.7423  -33.8085 H   0  0  0  0  0  0  0  0  0  0  0  0
   -0.8634   21.2391  -32.7778 H   0  0  0  0  0  0  0  0  0  0  0  0
   -0.6451   20.3678  -34.3334 H   0  0  0  0  0  0  0  0  0  0  0  0
   -1.0639   22.1146  -34.3334 H   0  0  0  0  0  0  0  0  0  0  0  0
   -2.3066   19.5513  -30.7445 H   0  0  0  0  0  0  0  0  0  0  0  0
   -1.3419   20.6982  -31.7744 H   0  0  0  0  0  0  0  0  0  0  0  0
   -3.2457   21.3053  -29.6834 H   0  0  0  0  0  0  0  0  0  0  0  0
   -2.2255   22.4215  -30.6658 H   0  0  0  0  0  0  0  0  0  0  0  0
   -3.3852   24.4296  -30.3062 H   0  0  0  0  0  0  0  0  0  0  0  0
   -4.9305   26.2256  -29.5420 H   0  0  0  0  0  0  0  0  0  0  0  0
   -7.3936   25.9362  -29.7675 H   0  0  0  0  0  0  0  0  0  0  0  0
   -8.3233   23.8566  -30.7690 H   0  0  0  0  0  0  0  0  0  0  0  0
   -5.7753   19.4729  -35.1644 H   0  0  0  0  0  0  0  0  0  0  0  0
   -4.6945   17.4567  -36.1540 H   0  0  0  0  0  0  0  0  0  0  0  0
   -5.6563   15.1854  -32.6057 H   0  0  0  0  0  0  0  0  0  0  0  0
   -6.7390   17.1927  -31.6020 H   0  0  0  0  0  0  0  0  0  0  0  0
   -9.1317   19.2455  -33.0611 H   0  0  0  0  0  0  0  0  0  0  0  0
  1  2  1  0
  2  3  1  0
  3  4  1  0
  4  5  1  0
  3  6  1  0
  6  7  1  0
  7  8  1  0
  8  9  1  0
  9 10  2  0
 10 11  1  0
 11 12  2  0
 12 13  1  0
 13 14  2  0
 14 15  1  0
 15 16  2  0
 16 17  1  0
 17 18  1  0
 18 19  2  0
 19 20  1  0
 20 21  2  0
 21 22  1  0
 21 23  1  0
 23 24  2  0
 17 25  2  0
 25 26  1  0
 14  9  1  0
 26 15  1  0
 24 18  1  0
  1 27  1  0
  1 28  1  0
  1 29  1  0
  2 30  1  0
  2 31  1  0
  3 32  1  0
  4 33  1  0
  4 34  1  0
  5 35  1  0
  5 36  1  0
  5 37  1  0
  6 38  1  0
  6 39  1  0
  7 40  1  0
  7 41  1  0
 10 42  1  0
 11 43  1  0
 12 44  1  0
 13 45  1  0
 19 46  1  0
 20 47  1  0
 23 48  1  0
 24 49  1  0
 25 50  1  0
M  CHG  1   3   1
M  END
>  <UniqueID>  (43) 
41

>  <SMILES>  (43) 
CC[NH+](CC)CCOc1ccccc1-c1nc(-c2ccc(F)cc2)cs1

>  <Energy>  (43) 
89.01477266967925

>  <Genealogy>  (43) 
CC[NH+](CC)CCOc1ccccc1-c1nc(-c2ccc(F)cc2)cs1 (protonated)
CC[NH+](CC)CCOc1ccccc1-c1nc(-c2ccc(F)cc2)cs1 (3D coordinates assigned)
CC[NH+](CC)CCOc1ccccc1-c1nc(-c2ccc(F)cc2)cs1 (optimized conformer: 89.01477266967925 kcal/mol)

>  <smiles>  (43) 
CCN(CC)CCOc1ccccc1-c1nc(-c2ccc(F)cc2)cs1

>  <score_type>  (43) 
oracle

>  <origin>  (43) 
adg

>  <m_score__min__energy>  (43) 
-6.2800000000000002

>  <m_primary>  (43) 
energy

$$$$
43:0
     RDKit          3D

 39 42  0  0  0  0  0  0  0  0999 V2000
   -5.9050   11.5970  -34.0380 C   0  0  0  0  0  0  0  0  0  0  0  0
   -4.9990   12.6940  -33.9930 O   0  0  0  0  0  0  0  0  0  0  0  0
   -5.3650   14.0110  -33.6760 C   0  0  0  0  0  0  0  0  0  0  0  0
   -4.6570   14.7880  -32.7410 C   0  0  0  0  0  0  0  0  0  0  0  0
   -5.0610   16.0950  -32.4600 C   0  0  0  0  0  0  0  0  0  0  0  0
   -6.1800   16.6520  -33.1040 C   0  0  0  0  0  0  0  0  0  0  0  0
   -6.6110   18.0420  -32.8050 C   0  0  0  0  0  0  0  0  0  0  0  0
   -7.9870   18.3730  -32.7250 C   0  0  0  0  0  0  0  0  0  0  0  0
   -8.3940   19.6860  -32.4410 C   0  0  0  0  0  0  0  0  0  0  0  0
   -7.4040   20.6430  -32.2440 C   0  0  0  0  0  0  0  0  0  0  0  0
   -7.6140   21.9450  -31.9570 N   0  0  0  0  0  0  0  0  0  0  0  0
   -6.3590   22.4490  -31.8660 C   0  0  0  0  0  0  0  0  0  0  0  0
   -6.0660   23.8690  -31.4910 C   0  0  0  0  0  0  0  0  0  0  0  0
   -4.9860   23.9100  -30.4600 C   0  0  0  0  0  0  0  0  0  0  0  0
   -3.8840   24.6850  -30.5640 N   0  0  0  0  0  0  0  0  0  0  0  0
   -3.0970   24.5820  -29.4600 C   0  0  0  0  0  0  0  0  0  0  0  0
   -1.9030   25.2830  -29.3400 O   0  0  0  0  0  0  0  0  0  0  0  0
   -3.5660   23.7380  -28.4610 C   0  0  0  0  0  0  0  0  0  0  0  0
   -5.0300   23.0970  -28.9860 S   0  0  0  0  0  0  0  0  0  0  0  0
   -5.4250   21.4470  -32.0820 C   0  0  0  0  0  0  0  0  0  0  0  0
   -3.6740   21.5950  -32.0320 Cl  0  0  0  0  0  0  0  0  0  0  0  0
   -6.1040   20.3160  -32.3230 N   0  0  0  0  0  0  0  0  0  0  0  0
   -5.6600   19.0620  -32.5930 C   0  0  0  0  0  0  0  0  0  0  0  0
   -6.8850   15.8710  -34.0360 C   0  0  0  0  0  0  0  0  0  0  0  0
   -6.4790   14.5630  -34.3170 C   0  0  0  0  0  0  0  0  0  0  0  0
   -6.1592   11.2892  -33.0130 H   0  0  0  0  0  0  0  0  0  0  0  0
   -6.8204   11.8990  -34.5679 H   0  0  0  0  0  0  0  0  0  0  0  0
   -5.4354   10.7551  -34.5679 H   0  0  0  0  0  0  0  0  0  0  0  0
   -3.7808   14.3640  -32.2287 H   0  0  0  0  0  0  0  0  0  0  0  0
   -4.4989   16.6940  -31.7284 H   0  0  0  0  0  0  0  0  0  0  0  0
   -8.7445   17.5920  -32.8873 H   0  0  0  0  0  0  0  0  0  0  0  0
   -9.4601   19.9493  -32.3764 H   0  0  0  0  0  0  0  0  0  0  0  0
   -5.7390   24.4220  -32.3839 H   0  0  0  0  0  0  0  0  0  0  0  0
   -6.9763   24.3304  -31.0805 H   0  0  0  0  0  0  0  0  0  0  0  0
   -1.0910   24.8520  -28.9150 H   0  0  0  0  0  0  0  0  0  0  0  0
   -3.0704   23.5274  -27.5018 H   0  0  0  0  0  0  0  0  0  0  0  0
   -4.5827   18.8460  -32.6453 H   0  0  0  0  0  0  0  0  0  0  0  0
   -7.7627   16.2921  -34.5481 H   0  0  0  0  0  0  0  0  0  0  0  0
   -7.0403   13.9629  -35.0483 H   0  0  0  0  0  0  0  0  0  0  0  0
  1  2  1  0
  2  3  1  0
  3  4  2  0
  4  5  1  0
  5  6  2  0
  6  7  1  0
  7  8  1  0
  8  9  2  0
  9 10  1  0
 10 11  2  0
 11 12  1  0
 12 13  1  0
 13 14  1  0
 14 15  2  0
 15 16  1  0
 16 17  1  0
 16 18  2  0
 18 19  1  0
 12 20  2  0
 20 21  1  0
 20 22  1  0
 22 23  1  0
  6 24  1  0
 24 25  2  0
 25  3  1  0
 23  7  2  0
 22 10  1  0
 19 14  1  0
  1 26  1  0
  1 27  1  0
  1 28  1  0
  4 29  1  0
  5 30  1  0
  8 31  1  0
  9 32  1  0
 13 33  1  0
 13 34  1  0
 17 35  1  0
 18 36  1  0
 23 37  1  0
 24 38  1  0
 25 39  1  0
M  END
>  <UniqueID>  (44) 
42

>  <SMILES>  (44) 
COc1ccc(-c2ccc3nc(Cc4nc(O)cs4)c(Cl)n3c2)cc1

>  <Energy>  (44) 
109.41125676342756

>  <Genealogy>  (44) 
COc1ccc(-c2ccc3nc(Cc4nc(O)cs4)c(Cl)n3c2)cc1 (3D coordinates assigned)
COc1ccc(-c2ccc3nc(Cc4nc(O)cs4)c(Cl)n3c2)cc1 (optimized conformer: 109.41125676342756 kcal/mol)

>  <smiles>  (44) 
COc1ccc(-c2ccc3nc(Cc4nc(O)cs4)c(Cl)n3c2)cc1

>  <score_type>  (44) 
oracle

>  <origin>  (44) 
adg

>  <m_score__min__energy>  (44) 
-9.0600000000000005

>  <m_primary>  (44) 
energy

$$$$
44:0
     RDKit          3D

 51 53  0  0  0  0  0  0  0  0999 V2000
   -5.5710   25.7020  -30.4440 C   0  0  0  0  0  0  0  0  0  0  0  0
   -4.1550   25.5480  -30.3940 O   0  0  0  0  0  0  0  0  0  0  0  0
   -3.4970   24.3420  -30.1090 C   0  0  0  0  0  0  0  0  0  0  0  0
   -4.0000   23.0970  -30.5340 C   0  0  0  0  0  0  0  0  0  0  0  0
   -3.3170   21.9180  -30.2330 C   0  0  0  0  0  0  0  0  0  0  0  0
   -2.1220   21.9590  -29.5020 C   0  0  0  0  0  0  0  0  0  0  0  0
   -1.3740   20.6910  -29.1810 C   0  0  0  0  0  0  0  0  0  0  0  0
   -0.5110   20.3010  -30.3150 N   0  0  0  0  0  0  0  0  0  0  0  0
   -0.1260   21.4650  -31.1560 C   0  0  0  0  0  0  0  0  0  0  0  0
   -0.9130   21.5200  -32.4730 C   0  0  0  0  0  0  0  0  0  0  0  0
   -0.6800   20.3070  -33.2990 N   0  0  0  0  0  0  0  0  0  0  0  0
   -1.7740   20.1610  -34.2920 C   0  0  0  0  0  0  0  0  0  0  0  0
   -3.1140   19.9100  -33.6350 C   0  0  0  0  0  0  0  0  0  0  0  0
   -3.5430   18.5950  -33.3790 C   0  0  0  0  0  0  0  0  0  0  0  0
   -4.7850   18.3620  -32.7790 C   0  0  0  0  0  0  0  0  0  0  0  0
   -5.6050   19.4360  -32.4260 C   0  0  0  0  0  0  0  0  0  0  0  0
   -5.1860   20.7460  -32.6710 C   0  0  0  0  0  0  0  0  0  0  0  0
   -3.9460   20.9870  -33.2710 C   0  0  0  0  0  0  0  0  0  0  0  0
   -3.5540   22.2670  -33.4890 F   0  0  0  0  0  0  0  0  0  0  0  0
   -0.5020   19.0730  -32.4790 C   0  0  0  0  0  0  0  0  0  0  0  0
   -1.1350   19.2010  -31.0860 C   0  0  0  0  0  0  0  0  0  0  0  0
   -1.6170   23.1960  -29.0760 C   0  0  0  0  0  0  0  0  0  0  0  0
   -2.3000   24.3920  -29.3770 C   0  0  0  0  0  0  0  0  0  0  0  0
   -1.8210   25.6460  -28.9680 O   0  0  0  0  0  0  0  0  0  0  0  0
   -1.2450   25.9140  -27.6940 C   0  0  0  0  0  0  0  0  0  0  0  0
   -5.9715   25.7456  -29.4204 H   0  0  0  0  0  0  0  0  0  0  0  0
   -5.8201   26.6325  -30.9751 H   0  0  0  0  0  0  0  0  0  0  0  0
   -6.0143   24.8468  -30.9751 H   0  0  0  0  0  0  0  0  0  0  0  0
   -4.9378   23.0537  -31.1072 H   0  0  0  0  0  0  0  0  0  0  0  0
   -3.7186   20.9514  -30.5712 H   0  0  0  0  0  0  0  0  0  0  0  0
   -0.7500   20.8540  -28.2899 H   0  0  0  0  0  0  0  0  0  0  0  0
   -2.1000   19.8865  -28.9920 H   0  0  0  0  0  0  0  0  0  0  0  0
   -0.3184   22.3887  -30.5905 H   0  0  0  0  0  0  0  0  0  0  0  0
    0.9401   21.3607  -31.4060 H   0  0  0  0  0  0  0  0  0  0  0  0
   -1.9864   21.5960  -32.2448 H   0  0  0  0  0  0  0  0  0  0  0  0
   -0.5702   22.3961  -33.0430 H   0  0  0  0  0  0  0  0  0  0  0  0
    0.2160   20.4680  -33.8200 H   0  0  0  0  0  0  0  0  0  0  0  0
   -1.8384   21.0845  -34.8862 H   0  0  0  0  0  0  0  0  0  0  0  0
   -1.5409   19.2923  -34.9253 H   0  0  0  0  0  0  0  0  0  0  0  0
   -2.8989   17.7461  -33.6519 H   0  0  0  0  0  0  0  0  0  0  0  0
   -5.1163   17.3312  -32.5849 H   0  0  0  0  0  0  0  0  0  0  0  0
   -6.5814   19.2503  -31.9547 H   0  0  0  0  0  0  0  0  0  0  0  0
   -5.8332   21.5903  -32.3912 H   0  0  0  0  0  0  0  0  0  0  0  0
   -0.9718   18.2286  -33.0045 H   0  0  0  0  0  0  0  0  0  0  0  0
    0.5778   18.9124  -32.3438 H   0  0  0  0  0  0  0  0  0  0  0  0
   -2.2101   19.4054  -31.1975 H   0  0  0  0  0  0  0  0  0  0  0  0
   -0.9747   18.2586  -30.5418 H   0  0  0  0  0  0  0  0  0  0  0  0
   -0.6795   23.2334  -28.5018 H   0  0  0  0  0  0  0  0  0  0  0  0
   -1.9381   25.5915  -26.9031 H   0  0  0  0  0  0  0  0  0  0  0  0
   -0.2970   25.3645  -27.5973 H   0  0  0  0  0  0  0  0  0  0  0  0
   -1.0548   26.9931  -27.5973 H   0  0  0  0  0  0  0  0  0  0  0  0
  1  2  1  0
  2  3  1  0
  3  4  2  0
  4  5  1  0
  5  6  2  0
  6  7  1  0
  7  8  1  0
  8  9  1  0
  9 10  1  0
 10 11  1  0
 11 12  1  0
 12 13  1  0
 13 14  2  0
 14 15  1  0
 15 16  2  0
 16 17  1  0
 17 18  2  0
 18 19  1  0
 11 20  1  0
 20 21  1  0
  6 22  1  0
 22 23  2  0
 23 24  1  0
 24 25  1  0
 23  3  1  0
 21  8  1  0
 18 13  1  0
  1 26  1  0
  1 27  1  0
  1 28  1  0
  4 29  1  0
  5 30  1  0
  7 31  1  0
  7 32  1  0
  9 33  1  0
  9 34  1  0
 10 35  1  0
 10 36  1  0
 11 37  1  0
 12 38  1  0
 12 39  1  0
 14 40  1  0
 15 41  1  0
 16 42  1  0
 17 43  1  0
 20 44  1  0
 20 45  1  0
 21 46  1  0
 21 47  1  0
 22 48  1  0
 25 49  1  0
 25 50  1  0
 25 51  1  0
M  CHG  1  11   1
M  END
>  <UniqueID>  (45) 
43

>  <SMILES>  (45) 
COc1ccc(CN2CC[NH+](Cc3ccccc3F)CC2)cc1OC

>  <Energy>  (45) 
65.30138382640023

>  <Genealogy>  (45) 
COc1ccc(CN2CC[NH+](Cc3ccccc3F)CC2)cc1OC (protonated)
COc1ccc(CN2CC[NH+](Cc3ccccc3F)CC2)cc1OC (3D coordinates assigned)
COc1ccc(CN2CC[NH+](Cc3ccccc3F)CC2)cc1OC (nonaromatic ring conformer: 65.30138382640023 kcal/mol)

>  <smiles>  (45) 
COc1ccc(CN2CCN(Cc3ccccc3F)CC2)cc1OC

>  <score_type>  (45) 
oracle

>  <origin>  (45) 
adg

>  <m_score__min__energy>  (45) 
-7.6799999999999997

>  <m_primary>  (45) 
energy

$$$$
45:0
     RDKit          3D

 59 62  0  0  0  0  0  0  0  0999 V2000
   -1.9270   16.6060  -34.4280 C   0  0  0  0  0  0  0  0  0  0  0  0
   -2.7880   15.8010  -35.3110 N   0  0  0  0  0  0  0  0  0  0  0  0
   -2.0000   14.7080  -35.9100 C   0  0  0  0  0  0  0  0  0  0  0  0
   -3.9460   15.2770  -34.5500 C   0  0  0  0  0  0  0  0  0  0  0  0
   -4.8750   16.3840  -34.1070 C   0  0  0  0  0  0  0  0  0  0  0  0
   -5.4000   16.3830  -32.8060 C   0  0  0  0  0  0  0  0  0  0  0  0
   -6.2310   17.4240  -32.3800 C   0  0  0  0  0  0  0  0  0  0  0  0
   -6.5300   18.4850  -33.2460 C   0  0  0  0  0  0  0  0  0  0  0  0
   -7.3440   19.6200  -32.7680 C   0  0  0  0  0  0  0  0  0  0  0  0
   -8.6810   19.3930  -32.4090 C   0  0  0  0  0  0  0  0  0  0  0  0
   -9.4740   20.4420  -31.9400 C   0  0  0  0  0  0  0  0  0  0  0  0
   -8.9370   21.7240  -31.8160 C   0  0  0  0  0  0  0  0  0  0  0  0
   -7.6040   21.9630  -32.1580 C   0  0  0  0  0  0  0  0  0  0  0  0
   -6.7920   20.9200  -32.6350 C   0  0  0  0  0  0  0  0  0  0  0  0
   -5.3400   21.1920  -32.9560 C   0  0  0  0  0  0  0  0  0  0  0  0
   -5.0070   22.5890  -32.6680 N   0  0  0  0  0  0  0  0  0  0  0  0
   -4.7890   23.0960  -31.3390 C   0  0  0  0  0  0  0  0  0  0  0  0
   -5.4150   24.2900  -30.9520 C   0  0  0  0  0  0  0  0  0  0  0  0
   -5.2230   24.8070  -29.6710 C   0  0  0  0  0  0  0  0  0  0  0  0
   -4.3990   24.1410  -28.7620 C   0  0  0  0  0  0  0  0  0  0  0  0
   -3.7610   22.9430  -29.1250 C   0  0  0  0  0  0  0  0  0  0  0  0
   -2.8950   22.2260  -28.1520 C   0  0  0  0  0  0  0  0  0  0  0  0
   -1.9450   22.9290  -27.3860 C   0  0  0  0  0  0  0  0  0  0  0  0
   -1.1390   22.2530  -26.4660 C   0  0  0  0  0  0  0  0  0  0  0  0
   -1.2680   20.8730  -26.3000 C   0  0  0  0  0  0  0  0  0  0  0  0
   -2.2050   20.1640  -27.0550 C   0  0  0  0  0  0  0  0  0  0  0  0
   -3.0160   20.8340  -27.9770 C   0  0  0  0  0  0  0  0  0  0  0  0
   -3.9590   22.4290  -30.4200 C   0  0  0  0  0  0  0  0  0  0  0  0
   -6.0120   18.4850  -34.5480 C   0  0  0  0  0  0  0  0  0  0  0  0
   -5.1890   17.4410  -34.9770 C   0  0  0  0  0  0  0  0  0  0  0  0
   -2.1668   16.3818  -33.3781 H   0  0  0  0  0  0  0  0  0  0  0  0
   -0.8722   16.3627  -34.6232 H   0  0  0  0  0  0  0  0  0  0  0  0
   -2.0989   17.6748  -34.6232 H   0  0  0  0  0  0  0  0  0  0  0  0
   -3.1290   16.4270  -36.0800 H   0  0  0  0  0  0  0  0  0  0  0  0
   -1.5577   14.0945  -35.1113 H   0  0  0  0  0  0  0  0  0  0  0  0
   -2.6558   14.0818  -36.5328 H   0  0  0  0  0  0  0  0  0  0  0  0
   -1.1987   15.1323  -36.5328 H   0  0  0  0  0  0  0  0  0  0  0  0
   -4.5050   14.5778  -35.1892 H   0  0  0  0  0  0  0  0  0  0  0  0
   -3.5635   14.7719  -33.6508 H   0  0  0  0  0  0  0  0  0  0  0  0
   -5.1569   15.5598  -32.1180 H   0  0  0  0  0  0  0  0  0  0  0  0
   -6.6508   17.4102  -31.3634 H   0  0  0  0  0  0  0  0  0  0  0  0
   -9.1070   18.3827  -32.4975 H   0  0  0  0  0  0  0  0  0  0  0  0
  -10.5237   20.2576  -31.6678 H   0  0  0  0  0  0  0  0  0  0  0  0
   -9.5652   22.5486  -31.4479 H   0  0  0  0  0  0  0  0  0  0  0  0
   -7.1867   22.9753  -32.0532 H   0  0  0  0  0  0  0  0  0  0  0  0
   -4.7043   20.5344  -32.3450 H   0  0  0  0  0  0  0  0  0  0  0  0
   -5.1680   20.9970  -34.0248 H   0  0  0  0  0  0  0  0  0  0  0  0
   -4.9790   23.2680  -33.4640 H   0  0  0  0  0  0  0  0  0  0  0  0
   -6.0623   24.8227  -31.6642 H   0  0  0  0  0  0  0  0  0  0  0  0
   -5.7221   25.7419  -29.3762 H   0  0  0  0  0  0  0  0  0  0  0  0
   -4.2482   24.5569  -27.7549 H   0  0  0  0  0  0  0  0  0  0  0  0
   -1.8368   24.0163  -27.5126 H   0  0  0  0  0  0  0  0  0  0  0  0
   -0.4006   22.8101  -25.8708 H   0  0  0  0  0  0  0  0  0  0  0  0
   -0.6320   20.3442  -25.5749 H   0  0  0  0  0  0  0  0  0  0  0  0
   -2.3054   19.0764  -26.9243 H   0  0  0  0  0  0  0  0  0  0  0  0
   -3.7524   20.2704  -28.5686 H   0  0  0  0  0  0  0  0  0  0  0  0
   -3.4591   21.4952  -30.7168 H   0  0  0  0  0  0  0  0  0  0  0  0
   -6.2542   19.3097  -35.2344 H   0  0  0  0  0  0  0  0  0  0  0  0
   -4.7852   17.4467  -36.0002 H   0  0  0  0  0  0  0  0  0  0  0  0
  1  2  1  0
  2  3  1  0
  2  4  1  0
  4  5  1  0
  5  6  2  0
  6  7  1  0
  7  8  2  0
  8  9  1  0
  9 10  2  0
 10 11  1  0
 11 12  2  0
 12 13  1  0
 13 14  2  0
 14 15  1  0
 15 16  1  0
 16 17  1  0
 17 18  2  0
 18 19  1  0
 19 20  2  0
 20 21  1  0
 21 22  1  0
 22 23  2  0
 23 24  1  0
 24 25  2  0
 25 26  1  0
 26 27  2  0
 21 28  2  0
  8 29  1  0
 29 30  2  0
 30  5  1  0
 14  9  1  0
 28 17  1  0
 27 22  1  0
  1 31  1  0
  1 32  1  0
  1 33  1  0
  2 34  1  0
  3 35  1  0
  3 36  1  0
  3 37  1  0
  4 38  1  0
  4 39  1  0
  6 40  1  0
  7 41  1  0
 10 42  1  0
 11 43  1  0
 12 44  1  0
 13 45  1  0
 15 46  1  0
 15 47  1  0
 16 48  1  0
 18 49  1  0
 19 50  1  0
 20 51  1  0
 23 52  1  0
 24 53  1  0
 25 54  1  0
 26 55  1  0
 27 56  1  0
 28 57  1  0
 29 58  1  0
 30 59  1  0
M  CHG  1   2   1
M  END
>  <UniqueID>  (46) 
44

>  <SMILES>  (46) 
C[NH+](C)Cc1ccc(-c2ccccc2CNc2cccc(-c3ccccc3)c2)cc1

>  <Energy>  (46) 
71.71876754853483

>  <Genealogy>  (46) 
C[NH+](C)Cc1ccc(-c2ccccc2CNc2cccc(-c3ccccc3)c2)cc1 (protonated)
C[NH+](C)Cc1ccc(-c2ccccc2CNc2cccc(-c3ccccc3)c2)cc1 (3D coordinates assigned)
C[NH+](C)Cc1ccc(-c2ccccc2CNc2cccc(-c3ccccc3)c2)cc1 (optimized conformer: 71.71876754853483 kcal/mol)

>  <smiles>  (46) 
CN(C)Cc1ccc(-c2ccccc2CNc2cccc(-c3ccccc3)c2)cc1

>  <score_type>  (46) 
oracle

>  <origin>  (46) 
adg

>  <m_score__min__energy>  (46) 
-10.43

>  <m_primary>  (46) 
energy

$$$$
