0:0
     RDKit          3D

 36 38  0  0  0  0  0  0  0  0999 V2000
   -2.8480   20.9200  -29.6300 C   0  0  0  0  0  0  0  0  0  0  0  0
   -2.2110   21.9990  -28.7960 C   0  0  0  0  0  0  0  0  0  0  0  0
   -2.1080   23.3050  -29.3280 C   0  0  0  0  0  0  0  0  0  0  0  0
   -1.5680   24.3070  -28.5260 C   0  0  0  0  0  0  0  0  0  0  0  0
   -1.3770   25.5960  -28.8700 N   0  0  0  0  0  0  0  0  0  0  0  0
   -0.8320   26.1940  -27.7890 C   0  0  0  0  0  0  0  0  0  0  0  0
   -0.6790   25.2790  -26.7440 C   0  0  0  0  0  0  0  0  0  0  0  0
   -0.1830   25.6160  -25.3890 C   0  0  0  0  0  0  0  0  0  0  0  0
    1.1390   25.5430  -25.1520 C   0  0  0  0  0  0  0  0  0  0  0  0
    1.7480   25.9770  -23.8520 C   0  0  0  0  0  0  0  0  0  0  0  0
    0.9710   27.0450  -23.1950 N   0  0  1  0  0  0  0  0  0  0  0  0
    1.1180   28.3460  -23.8780 C   0  0  0  0  0  0  0  0  0  0  0  0
   -0.4460   26.6470  -23.0560 C   0  0  0  0  0  0  0  0  0  0  0  0
   -1.1080   26.2950  -24.4070 C   0  0  0  0  0  0  0  0  0  0  0  0
   -1.1500   24.0650  -27.2400 C   0  0  0  0  0  0  0  0  0  0  0  0
   -1.2050   22.7770  -26.6880 C   0  0  0  0  0  0  0  0  0  0  0  0
   -1.7630   21.7420  -27.4660 C   0  0  0  0  0  0  0  0  0  0  0  0
   -1.9070   19.9990  -26.6720 Br  0  0  0  0  0  0  0  0  0  0  0  0
   -3.2953   20.1623  -28.9698 H   0  0  0  0  0  0  0  0  0  0  0  0
   -3.6305   21.3612  -30.2648 H   0  0  0  0  0  0  0  0  0  0  0  0
   -2.0837   20.4480  -30.2648 H   0  0  0  0  0  0  0  0  0  0  0  0
   -2.4465   23.5243  -30.3514 H   0  0  0  0  0  0  0  0  0  0  0  0
   -1.6100   26.0490  -29.7820 H   0  0  0  0  0  0  0  0  0  0  0  0
   -0.5476   27.2554  -27.7380 H   0  0  0  0  0  0  0  0  0  0  0  0
    1.7977   25.1505  -25.9407 H   0  0  0  0  0  0  0  0  0  0  0  0
    1.7961   25.1094  -23.1775 H   0  0  0  0  0  0  0  0  0  0  0  0
    2.7500   26.3761  -24.0681 H   0  0  0  0  0  0  0  0  0  0  0  0
    1.3620   27.1650  -22.2310 H   0  0  0  0  0  0  0  0  0  0  0  0
    1.2084   29.1457  -23.1281 H   0  0  0  0  0  0  0  0  0  0  0  0
    2.0200   28.3299  -24.5073 H   0  0  0  0  0  0  0  0  0  0  0  0
    0.2351   28.5316  -24.5073 H   0  0  0  0  0  0  0  0  0  0  0  0
   -0.5002   25.7666  -22.3988 H   0  0  0  0  0  0  0  0  0  0  0  0
   -0.9900   27.5059  -22.6362 H   0  0  0  0  0  0  0  0  0  0  0  0
   -1.9569   25.6234  -24.2111 H   0  0  0  0  0  0  0  0  0  0  0  0
   -1.4156   27.2459  -24.8666 H   0  0  0  0  0  0  0  0  0  0  0  0
   -0.8231   22.5796  -25.6755 H   0  0  0  0  0  0  0  0  0  0  0  0
  1  2  1  0
  2  3  2  0
  3  4  1  0
  4  5  1  0
  5  6  1  0
  6  7  2  0
  7  8  1  0
  8  9  2  0
  9 10  1  0
 10 11  1  0
 11 12  1  0
 11 13  1  0
 13 14  1  0
  7 15  1  0
 15 16  1  0
 16 17  2  0
 17 18  1  0
 17  2  1  0
 15  4  2  0
 14  8  1  0
  1 19  1  0
  1 20  1  0
  1 21  1  0
  3 22  1  0
  5 23  1  0
  6 24  1  0
  9 25  1  0
 10 26  1  0
 10 27  1  0
 11 28  1  1
 12 29  1  0
 12 30  1  0
 12 31  1  0
 13 32  1  0
 13 33  1  0
 14 34  1  0
 14 35  1  0
 16 36  1  0
M  CHG  1  11   1
M  END
>  <UniqueID>  (1) 
1

>  <SMILES>  (1) 
Cc1cc2[nH]cc(C3=CC[N@@H+](C)CC3)c2cc1Br

>  <Energy>  (1) 
80.994354304541

>  <Genealogy>  (1) 
Cc1cc2[nH]cc(C3=CC[NH+](C)CC3)c2cc1Br (protonated)
Cc1cc2[nH]cc(C3=CC[N@@H+](C)CC3)c2cc1Br (chirality)
Cc1cc2[nH]cc(C3=CC[N@@H+](C)CC3)c2cc1Br (3D coordinates assigned)
Cc1cc2[nH]cc(C3=CC[N@@H+](C)CC3)c2cc1Br (nonaromatic ring conformer: 80.994354304541 kcal/mol)

>  <smiles>  (1) 
Cc1cc2[nH]cc(C3=CCN(C)CC3)c2cc1Br

>  <score_type>  (1) 
oracle

>  <origin>  (1) 
adg

>  <m_score__min__energy>  (1) 
-7.6900000000000004

>  <m_primary>  (1) 
energy

$$$$
1:0
     RDKit          3D

 53 56  0  0  1  0  0  0  0  0999 V2000
   -4.9640   21.6200  -30.8690 C   0  0  0  0  0  0  0  0  0  0  0  0
   -4.8840   23.0620  -30.8860 N   0  0  0  0  0  0  0  0  0  0  0  0
   -5.8100   23.9290  -31.3900 C   0  0  0  0  0  0  0  0  0  0  0  0
   -7.3370   23.3460  -32.1400 S   0  0  0  0  0  0  0  0  0  0  0  0
   -8.1910   22.1860  -31.0150 C   0  0  0  0  0  0  0  0  0  0  0  0
   -8.8980   21.1880  -31.8730 C   0  0  0  0  0  0  0  0  0  0  0  0
   -8.3730   19.7990  -31.7980 C   0  0  0  0  0  0  0  0  0  0  0  0
   -7.0260   19.6060  -32.2580 N   0  0  0  0  0  0  0  0  0  0  0  0
   -6.3540   18.5220  -31.6150 C   0  0  0  0  0  0  0  0  0  0  0  0
   -5.2100   18.0170  -32.4170 C   0  0  2  0  0  0  0  0  0  0  0  0
   -4.5830   19.1920  -33.1450 C   0  0  0  0  0  0  0  0  0  0  0  0
   -5.6970   18.9680  -34.1720 C   0  0  2  0  0  0  0  0  0  0  0  0
   -6.8660   19.7310  -33.6660 C   0  0  0  0  0  0  0  0  0  0  0  0
   -5.6250   17.5330  -33.7890 C   0  0  0  0  0  0  0  0  0  0  0  0
   -6.8570   16.6980  -33.8460 C   0  0  0  0  0  0  0  0  0  0  0  0
   -4.4670   16.8410  -34.4660 C   0  0  0  0  0  0  0  0  0  0  0  0
   -5.3730   25.1740  -31.2190 N   0  0  0  0  0  0  0  0  0  0  0  0
   -4.2110   25.0760  -30.6260 N   0  0  0  0  0  0  0  0  0  0  0  0
   -3.8670   23.7910  -30.4000 C   0  0  0  0  0  0  0  0  0  0  0  0
   -2.6300   23.3640  -29.7560 C   0  0  0  0  0  0  0  0  0  0  0  0
   -1.8790   22.3400  -30.3140 C   0  0  0  0  0  0  0  0  0  0  0  0
   -0.7000   21.8900  -29.7520 C   0  0  0  0  0  0  0  0  0  0  0  0
   -0.2220   22.4640  -28.5830 C   0  0  0  0  0  0  0  0  0  0  0  0
   -0.9690   23.4890  -28.0200 C   0  0  0  0  0  0  0  0  0  0  0  0
   -2.1450   23.9270  -28.5950 C   0  0  0  0  0  0  0  0  0  0  0  0
   -4.9836   21.2661  -29.8277 H   0  0  0  0  0  0  0  0  0  0  0  0
   -5.8814   21.2976  -31.3832 H   0  0  0  0  0  0  0  0  0  0  0  0
   -4.0879   21.1981  -31.3832 H   0  0  0  0  0  0  0  0  0  0  0  0
   -7.4595   21.6783  -30.3691 H   0  0  0  0  0  0  0  0  0  0  0  0
   -8.9010   22.7192  -30.3657 H   0  0  0  0  0  0  0  0  0  0  0  0
   -9.9553   21.1683  -31.5702 H   0  0  0  0  0  0  0  0  0  0  0  0
   -8.7424   21.5158  -32.9114 H   0  0  0  0  0  0  0  0  0  0  0  0
   -8.4179   19.4792  -30.7465 H   0  0  0  0  0  0  0  0  0  0  0  0
   -9.0044   19.2078  -32.4775 H   0  0  0  0  0  0  0  0  0  0  0  0
   -7.0702   17.7010  -31.4633 H   0  0  0  0  0  0  0  0  0  0  0  0
   -5.9587   18.8901  -30.6568 H   0  0  0  0  0  0  0  0  0  0  0  0
   -4.6845   17.3559  -31.7122 H   0  0  0  0  0  0  0  0  0  0  0  0
   -3.5615   19.0230  -33.5163 H   0  0  0  0  0  0  0  0  0  0  0  0
   -4.3914   20.1639  -32.6668 H   0  0  0  0  0  0  0  0  0  0  0  0
   -5.6873   19.2250  -35.2415 H   0  0  0  0  0  0  0  0  0  0  0  0
   -7.7741   19.3548  -34.1597 H   0  0  0  0  0  0  0  0  0  0  0  0
   -6.6962   20.7942  -33.8915 H   0  0  0  0  0  0  0  0  0  0  0  0
   -7.1932   16.4702  -32.8237 H   0  0  0  0  0  0  0  0  0  0  0  0
   -7.6478   17.2470  -34.3782 H   0  0  0  0  0  0  0  0  0  0  0  0
   -6.6400   15.7601  -34.3782 H   0  0  0  0  0  0  0  0  0  0  0  0
   -3.7864   16.4343  -33.7035 H   0  0  0  0  0  0  0  0  0  0  0  0
   -4.8461   16.0212  -35.0939 H   0  0  0  0  0  0  0  0  0  0  0  0
   -3.9246   17.5632  -35.0939 H   0  0  0  0  0  0  0  0  0  0  0  0
   -2.2364   21.8675  -31.2408 H   0  0  0  0  0  0  0  0  0  0  0  0
   -0.1390   21.0748  -30.2324 H   0  0  0  0  0  0  0  0  0  0  0  0
    0.7143   22.1195  -28.1196 H   0  0  0  0  0  0  0  0  0  0  0  0
   -0.6154   23.9640  -27.0930 H   0  0  0  0  0  0  0  0  0  0  0  0
   -2.7070   24.7426  -28.1166 H   0  0  0  0  0  0  0  0  0  0  0  0
  1  2  1  0
  2  3  1  0
  3  4  1  0
  4  5  1  0
  5  6  1  0
  6  7  1  0
  7  8  1  0
  8  9  1  0
  9 10  1  0
 10 11  1  0
 11 12  1  0
 12 13  1  0
 12 14  1  0
 14 15  1  0
 14 16  1  0
  3 17  2  0
 17 18  1  0
 18 19  2  0
 19 20  1  0
 20 21  2  0
 21 22  1  0
 22 23  2  0
 23 24  1  0
 24 25  2  0
 19  2  1  0
 25 20  1  0
 13  8  1  0
 14 10  1  0
  1 26  1  0
  1 27  1  0
  1 28  1  0
  5 29  1  0
  5 30  1  0
  6 31  1  0
  6 32  1  0
  7 33  1  0
  7 34  1  0
  9 35  1  0
  9 36  1  0
 10 37  1  1
 11 38  1  0
 11 39  1  0
 12 40  1  6
 13 41  1  0
 13 42  1  0
 15 43  1  0
 15 44  1  0
 15 45  1  0
 16 46  1  0
 16 47  1  0
 16 48  1  0
 21 49  1  0
 22 50  1  0
 23 51  1  0
 24 52  1  0
 25 53  1  0
M  END
>  <smiles>  (2) 
Cn1c(SCCCN2CC3CC(C2)C3(C)C)nnc1-c1ccccc1

>  <score_type>  (2) 
oracle

>  <origin>  (2) 
adg

>  <m_score__min__energy>  (2) 
-9.6799999999999997

>  <m_primary>  (2) 
energy

$$$$
2:0
     RDKit          3D

 57 59  0  0  0  0  0  0  0  0999 V2000
   -6.3350   25.6730  -29.7080 C   0  0  0  0  0  0  0  0  0  0  0  0
   -5.3600   25.4000  -30.8520 C   0  0  0  0  0  0  0  0  0  0  0  0
   -5.0880   23.9510  -30.9700 N   0  0  0  0  0  0  0  0  0  0  0  0
   -6.0870   23.1870  -30.2000 C   0  0  0  0  0  0  0  0  0  0  0  0
   -3.7170   23.6110  -30.5240 C   0  0  0  0  0  0  0  0  0  0  0  0
   -3.3590   22.1600  -30.8950 C   0  0  0  0  0  0  0  0  0  0  0  0
   -3.2550   21.9220  -32.4170 C   0  0  0  0  0  0  0  0  0  0  0  0
   -4.5690   21.8960  -33.0960 N   0  0  0  0  0  0  0  0  0  0  0  0
   -5.0900   20.5400  -33.2340 C   0  0  0  0  0  0  0  0  0  0  0  0
   -4.3130   19.5020  -33.8120 C   0  0  0  0  0  0  0  0  0  0  0  0
   -4.9250   18.2740  -34.1410 C   0  0  0  0  0  0  0  0  0  0  0  0
   -6.1860   17.9610  -33.6780 N   0  0  0  0  0  0  0  0  0  0  0  0
   -6.6770   16.5650  -33.7830 C   0  0  0  0  0  0  0  0  0  0  0  0
   -5.7240   15.5890  -33.0910 C   0  0  0  0  0  0  0  0  0  0  0  0
   -6.9620   18.9390  -33.0800 C   0  0  0  0  0  0  0  0  0  0  0  0
   -8.3140   18.6940  -32.7100 C   0  0  0  0  0  0  0  0  0  0  0  0
   -9.0910   19.6770  -32.1050 C   0  0  0  0  0  0  0  0  0  0  0  0
   -8.5590   20.9300  -31.8570 C   0  0  0  0  0  0  0  0  0  0  0  0
   -7.2490   21.2170  -32.2250 C   0  0  0  0  0  0  0  0  0  0  0  0
   -6.4280   20.2420  -32.8470 C   0  0  0  0  0  0  0  0  0  0  0  0
   -4.1360   17.3720  -35.0840 C   0  0  0  0  0  0  0  0  0  0  0  0
   -2.7310   17.0930  -34.5400 C   0  0  0  0  0  0  0  0  0  0  0  0
   -2.0860   18.3170  -33.8600 C   0  0  0  0  0  0  0  0  0  0  0  0
   -2.8270   19.6350  -34.1410 C   0  0  0  0  0  0  0  0  0  0  0  0
   -5.8212   25.5291  -28.7461 H   0  0  0  0  0  0  0  0  0  0  0  0
   -6.7008   26.7081  -29.7771 H   0  0  0  0  0  0  0  0  0  0  0  0
   -7.1851   24.9783  -29.7771 H   0  0  0  0  0  0  0  0  0  0  0  0
   -5.7969   25.7636  -31.7938 H   0  0  0  0  0  0  0  0  0  0  0  0
   -4.4145   25.9224  -30.6442 H   0  0  0  0  0  0  0  0  0  0  0  0
   -5.9052   23.3260  -29.1241 H   0  0  0  0  0  0  0  0  0  0  0  0
   -7.0961   23.5460  -30.4508 H   0  0  0  0  0  0  0  0  0  0  0  0
   -6.0049   22.1191  -30.4508 H   0  0  0  0  0  0  0  0  0  0  0  0
   -3.0021   24.2927  -31.0079 H   0  0  0  0  0  0  0  0  0  0  0  0
   -3.6690   23.7146  -29.4299 H   0  0  0  0  0  0  0  0  0  0  0  0
   -2.3902   21.9122  -30.4367 H   0  0  0  0  0  0  0  0  0  0  0  0
   -4.1724   21.5202  -30.5220 H   0  0  0  0  0  0  0  0  0  0  0  0
   -2.6509   22.7295  -32.8562 H   0  0  0  0  0  0  0  0  0  0  0  0
   -2.7938   20.9339  -32.5616 H   0  0  0  0  0  0  0  0  0  0  0  0
   -4.4850   22.3310  -34.0420 H   0  0  0  0  0  0  0  0  0  0  0  0
   -5.2160   22.5400  -32.6100 H   0  0  0  0  0  0  0  0  0  0  0  0
   -7.6672   16.4965  -33.3088 H   0  0  0  0  0  0  0  0  0  0  0  0
   -6.7371   16.2965  -34.8480 H   0  0  0  0  0  0  0  0  0  0  0  0
   -5.8233   15.6907  -32.0002 H   0  0  0  0  0  0  0  0  0  0  0  0
   -5.9743   14.5597  -33.3876 H   0  0  0  0  0  0  0  0  0  0  0  0
   -4.6890   15.8147  -33.3876 H   0  0  0  0  0  0  0  0  0  0  0  0
   -8.7547   17.7055  -32.9066 H   0  0  0  0  0  0  0  0  0  0  0  0
  -10.1313   19.4573  -31.8230 H   0  0  0  0  0  0  0  0  0  0  0  0
   -9.1733   21.7004  -31.3680 H   0  0  0  0  0  0  0  0  0  0  0  0
   -6.8415   22.2199  -32.0298 H   0  0  0  0  0  0  0  0  0  0  0  0
   -4.6716   16.4182  -35.1996 H   0  0  0  0  0  0  0  0  0  0  0  0
   -4.0384   17.8829  -36.0533 H   0  0  0  0  0  0  0  0  0  0  0  0
   -2.7972   16.2789  -33.8032 H   0  0  0  0  0  0  0  0  0  0  0  0
   -2.0968   16.8252  -35.3979 H   0  0  0  0  0  0  0  0  0  0  0  0
   -2.0770   18.1473  -32.7732 H   0  0  0  0  0  0  0  0  0  0  0  0
   -1.0721   18.4207  -34.2739 H   0  0  0  0  0  0  0  0  0  0  0  0
   -2.3906   20.4331  -33.5225 H   0  0  0  0  0  0  0  0  0  0  0  0
   -2.7224   19.8779  -35.2087 H   0  0  0  0  0  0  0  0  0  0  0  0
  1  2  1  0
  2  3  1  0
  3  4  1  0
  3  5  1  0
  5  6  1  0
  6  7  1  0
  7  8  1  0
  8  9  1  0
  9 10  2  0
 10 11  1  0
 11 12  2  0
 12 13  1  0
 13 14  1  0
 12 15  1  0
 15 16  2  0
 16 17  1  0
 17 18  2  0
 18 19  1  0
 19 20  2  0
 11 21  1  0
 21 22  1  0
 22 23  1  0
 23 24  1  0
 20  9  1  0
 24 10  1  0
 20 15  1  0
  1 25  1  0
  1 26  1  0
  1 27  1  0
  2 28  1  0
  2 29  1  0
  4 30  1  0
  4 31  1  0
  4 32  1  0
  5 33  1  0
  5 34  1  0
  6 35  1  0
  6 36  1  0
  7 37  1  0
  7 38  1  0
  8 39  1  0
  8 40  1  0
 13 41  1  0
 13 42  1  0
 14 43  1  0
 14 44  1  0
 14 45  1  0
 16 46  1  0
 17 47  1  0
 18 48  1  0
 19 49  1  0
 21 50  1  0
 21 51  1  0
 22 52  1  0
 22 53  1  0
 23 54  1  0
 23 55  1  0
 24 56  1  0
 24 57  1  0
M  CHG  2   8   1  12   1
M  END
>  <UniqueID>  (3) 
2

>  <SMILES>  (3) 
CCN(C)CCC[NH2+]c1c2c([n+](CC)c3ccccc13)CCCC2

>  <Energy>  (3) 
84.85837178841673

>  <Genealogy>  (3) 
CCN(C)CCC[NH2+]c1c2c([n+](CC)c3ccccc13)CCCC2 (protonated)
CCN(C)CCC[NH2+]c1c2c([n+](CC)c3ccccc13)CCCC2 (3D coordinates assigned)
CCN(C)CCC[NH2+]c1c2c([n+](CC)c3ccccc13)CCCC2 (nonaromatic ring conformer: 84.85837178841673 kcal/mol)

>  <smiles>  (3) 
CCN(C)CCCNc1c2c([n+](CC)c3ccccc13)CCCC2

>  <score_type>  (3) 
oracle

>  <origin>  (3) 
adg

>  <m_score__min__energy>  (3) 
-7.6399999999999997

>  <m_primary>  (3) 
energy

$$$$
3:0
     RDKit          3D

 83 83  0  0  0  0  0  0  0  0999 V2000
    3.0540   25.1920  -24.2800 C   0  0  0  0  0  0  0  0  0  0  0  0
    2.2400   26.4890  -24.2550 C   0  0  0  0  0  0  0  0  0  0  0  0
    1.1100   26.4310  -23.3110 N   0  0  0  0  0  0  0  0  0  0  0  0
   -0.0270   27.2630  -23.7470 C   0  0  0  0  0  0  0  0  0  0  0  0
   -1.0890   26.4190  -24.4670 C   0  0  0  0  0  0  0  0  0  0  0  0
   -0.7470   25.0460  -24.4240 O   0  0  0  0  0  0  0  0  0  0  0  0
   -0.1710   24.6430  -25.6480 C   0  0  0  0  0  0  0  0  0  0  0  0
   -1.1620   23.8900  -26.4120 C   0  0  0  0  0  0  0  0  0  0  0  0
   -1.9770   23.2730  -27.0510 C   0  0  0  0  0  0  0  0  0  0  0  0
   -2.9630   22.5190  -27.8440 C   0  0  0  0  0  0  0  0  0  0  0  0
   -2.4600   22.1560  -29.1870 N   0  0  0  0  0  0  0  0  0  0  0  0
   -3.1020   20.9280  -29.6910 C   0  0  0  0  0  0  0  0  0  0  0  0
   -2.5650   23.2790  -30.1460 C   0  0  0  0  0  0  0  0  0  0  0  0
   -3.4770   24.3950  -29.6140 C   0  0  0  0  0  0  0  0  0  0  0  0
   -3.8630   25.2960  -30.6360 O   0  0  0  0  0  0  0  0  0  0  0  0
   -5.2620   25.2690  -30.8490 C   0  0  0  0  0  0  0  0  0  0  0  0
   -5.9330   24.6050  -29.6470 C   0  0  0  0  0  0  0  0  0  0  0  0
   -6.8970   23.4970  -30.1010 C   0  0  0  0  0  0  0  0  0  0  0  0
   -7.5050   23.7760  -31.4910 C   0  0  0  0  0  0  0  0  0  0  0  0
   -8.4440   22.7270  -31.9290 N   0  0  0  0  0  0  0  0  0  0  0  0
   -8.0800   21.3930  -31.4290 C   0  0  0  0  0  0  0  0  0  0  0  0
   -7.7000   20.4560  -32.5790 C   0  0  0  0  0  0  0  0  0  0  0  0
   -6.2040   20.4350  -32.8330 C   0  0  0  0  0  0  0  0  0  0  0  0
   -5.4720   21.5600  -32.4230 C   0  0  0  0  0  0  0  0  0  0  0  0
   -4.1380   21.6350  -32.6350 N   0  0  0  0  0  0  0  0  0  0  0  0
   -3.4470   20.6580  -33.2700 C   0  0  0  0  0  0  0  0  0  0  0  0
   -1.9640   20.8260  -33.4200 C   0  0  0  0  0  0  0  0  0  0  0  0
   -4.1300   19.5230  -33.7520 C   0  0  0  0  0  0  0  0  0  0  0  0
   -3.4600   18.5310  -34.4860 O   0  0  0  0  0  0  0  0  0  0  0  0
   -2.7840   17.4260  -33.8830 C   0  0  0  0  0  0  0  0  0  0  0  0
   -3.3370   16.1000  -34.3920 C   0  0  0  0  0  0  0  0  0  0  0  0
   -5.5070   19.3640  -33.4630 C   0  0  0  0  0  0  0  0  0  0  0  0
   -6.1710   18.0450  -33.8340 C   0  0  0  0  0  0  0  0  0  0  0  0
   -6.5100   17.2180  -32.5930 C   0  0  0  0  0  0  0  0  0  0  0  0
    3.2579   24.8671  -23.2490 H   0  0  0  0  0  0  0  0  0  0  0  0
    2.4837   24.4112  -24.8045 H   0  0  0  0  0  0  0  0  0  0  0  0
    4.0051   25.3661  -24.8045 H   0  0  0  0  0  0  0  0  0  0  0  0
    2.9033   27.3155  -23.9601 H   0  0  0  0  0  0  0  0  0  0  0  0
    1.8250   26.6412  -25.2623 H   0  0  0  0  0  0  0  0  0  0  0  0
    1.4280   26.7360  -22.3620 H   0  0  0  0  0  0  0  0  0  0  0  0
    0.8050   25.4320  -23.2470 H   0  0  0  0  0  0  0  0  0  0  0  0
   -0.4830   27.7377  -22.8657 H   0  0  0  0  0  0  0  0  0  0  0  0
    0.3469   28.0241  -24.4477 H   0  0  0  0  0  0  0  0  0  0  0  0
   -2.0617   26.5649  -23.9745 H   0  0  0  0  0  0  0  0  0  0  0  0
   -1.1432   26.7384  -25.5182 H   0  0  0  0  0  0  0  0  0  0  0  0
    0.1398   25.5300  -26.2196 H   0  0  0  0  0  0  0  0  0  0  0  0
    0.7094   24.0121  -25.4558 H   0  0  0  0  0  0  0  0  0  0  0  0
   -3.2179   21.5960  -27.3026 H   0  0  0  0  0  0  0  0  0  0  0  0
   -3.8417   23.1660  -27.9826 H   0  0  0  0  0  0  0  0  0  0  0  0
   -3.4259   20.3085  -28.8417 H   0  0  0  0  0  0  0  0  0  0  0  0
   -3.9755   21.1958  -30.3036 H   0  0  0  0  0  0  0  0  0  0  0  0
   -2.3836   20.3636  -30.3036 H   0  0  0  0  0  0  0  0  0  0  0  0
   -1.5611   23.6924  -30.3226 H   0  0  0  0  0  0  0  0  0  0  0  0
   -3.0017   22.8941  -31.0794 H   0  0  0  0  0  0  0  0  0  0  0  0
   -4.3803   23.9398  -29.1818 H   0  0  0  0  0  0  0  0  0  0  0  0
   -2.9154   24.9608  -28.8560 H   0  0  0  0  0  0  0  0  0  0  0  0
   -5.6384   26.2965  -30.9610 H   0  0  0  0  0  0  0  0  0  0  0  0
   -5.4889   24.7011  -31.7633 H   0  0  0  0  0  0  0  0  0  0  0  0
   -5.1596   24.1666  -28.9993 H   0  0  0  0  0  0  0  0  0  0  0  0
   -6.5061   25.3671  -29.0985 H   0  0  0  0  0  0  0  0  0  0  0  0
   -6.3468   22.5453  -30.1412 H   0  0  0  0  0  0  0  0  0  0  0  0
   -7.7238   23.4558  -29.3767 H   0  0  0  0  0  0  0  0  0  0  0  0
   -8.0431   24.7346  -31.4524 H   0  0  0  0  0  0  0  0  0  0  0  0
   -6.6766   23.7996  -32.2143 H   0  0  0  0  0  0  0  0  0  0  0  0
   -9.4140   22.9570  -31.6160 H   0  0  0  0  0  0  0  0  0  0  0  0
   -7.2237   21.4874  -30.7450 H   0  0  0  0  0  0  0  0  0  0  0  0
   -8.9490   20.9678  -30.9056 H   0  0  0  0  0  0  0  0  0  0  0  0
   -8.0310   19.4371  -32.3295 H   0  0  0  0  0  0  0  0  0  0  0  0
   -8.1915   20.8254  -33.4911 H   0  0  0  0  0  0  0  0  0  0  0  0
   -5.9897   22.3917  -31.9227 H   0  0  0  0  0  0  0  0  0  0  0  0
   -1.4984   20.8787  -32.4248 H   0  0  0  0  0  0  0  0  0  0  0  0
   -1.5519   19.9688  -33.9726 H   0  0  0  0  0  0  0  0  0  0  0  0
   -1.7541   21.7537  -33.9726 H   0  0  0  0  0  0  0  0  0  0  0  0
   -1.7126   17.4849  -34.1250 H   0  0  0  0  0  0  0  0  0  0  0  0
   -2.9380   17.4740  -32.7949 H   0  0  0  0  0  0  0  0  0  0  0  0
   -3.6033   15.4614  -33.5369 H   0  0  0  0  0  0  0  0  0  0  0  0
   -4.2323   16.2865  -35.0032 H   0  0  0  0  0  0  0  0  0  0  0  0
   -2.5744   15.5951  -35.0032 H   0  0  0  0  0  0  0  0  0  0  0  0
   -7.0981   18.2551  -34.3874 H   0  0  0  0  0  0  0  0  0  0  0  0
   -5.4678   17.4670  -34.4517 H   0  0  0  0  0  0  0  0  0  0  0  0
   -6.2721   17.7984  -31.6894 H   0  0  0  0  0  0  0  0  0  0  0  0
   -7.5819   16.9710  -32.5985 H   0  0  0  0  0  0  0  0  0  0  0  0
   -5.9198   16.2897  -32.5985 H   0  0  0  0  0  0  0  0  0  0  0  0
  1  2  1  0
  2  3  1  0
  3  4  1  0
  4  5  1  0
  5  6  1  0
  6  7  1  0
  7  8  1  0
  8  9  3  0
  9 10  1  0
 10 11  1  0
 11 12  1  0
 11 13  1  0
 13 14  1  0
 14 15  1  0
 15 16  1  0
 16 17  1  0
 17 18  1  0
 18 19  1  0
 19 20  1  0
 20 21  1  0
 21 22  1  0
 22 23  1  0
 23 24  2  0
 24 25  1  0
 25 26  2  0
 26 27  1  0
 26 28  1  0
 28 29  1  0
 29 30  1  0
 30 31  1  0
 28 32  2  0
 32 33  1  0
 33 34  1  0
 32 23  1  0
  1 35  1  0
  1 36  1  0
  1 37  1  0
  2 38  1  0
  2 39  1  0
  3 40  1  0
  3 41  1  0
  4 42  1  0
  4 43  1  0
  5 44  1  0
  5 45  1  0
  7 46  1  0
  7 47  1  0
 10 48  1  0
 10 49  1  0
 12 50  1  0
 12 51  1  0
 12 52  1  0
 13 53  1  0
 13 54  1  0
 14 55  1  0
 14 56  1  0
 16 57  1  0
 16 58  1  0
 17 59  1  0
 17 60  1  0
 18 61  1  0
 18 62  1  0
 19 63  1  0
 19 64  1  0
 20 65  1  0
 21 66  1  0
 21 67  1  0
 22 68  1  0
 22 69  1  0
 24 70  1  0
 27 71  1  0
 27 72  1  0
 27 73  1  0
 30 74  1  0
 30 75  1  0
 31 76  1  0
 31 77  1  0
 31 78  1  0
 33 79  1  0
 33 80  1  0
 34 81  1  0
 34 82  1  0
 34 83  1  0
M  CHG  1   3   1
M  END
>  <UniqueID>  (4) 
3

>  <SMILES>  (4) 
CC[NH2+]CCOCC#CCN(C)CCOCCCCNCCc1cnc(C)c(OCC)c1CC

>  <Energy>  (4) 
78.06167463233375

>  <Genealogy>  (4) 
CC[NH2+]CCOCC#CCN(C)CCOCCCCNCCc1cnc(C)c(OCC)c1CC (protonated)
CC[NH2+]CCOCC#CCN(C)CCOCCCCNCCc1cnc(C)c(OCC)c1CC (3D coordinates assigned)
CC[NH2+]CCOCC#CCN(C)CCOCCCCNCCc1cnc(C)c(OCC)c1CC (optimized conformer: 78.06167463233375 kcal/mol)

>  <smiles>  (4) 
CCNCCOCC#CCN(C)CCOCCCCNCCc1cnc(C)c(OCC)c1CC

>  <score_type>  (4) 
oracle

>  <origin>  (4) 
adg

>  <m_score__min__energy>  (4) 
-7.8200000000000003

>  <m_primary>  (4) 
energy

$$$$
4:0
     RDKit          3D

 49 52  0  0  0  0  0  0  0  0999 V2000
   -1.4990   26.6040  -24.3480 C   0  0  0  0  0  0  0  0  0  0  0  0
   -0.2150   25.8670  -23.9790 C   0  0  0  0  0  0  0  0  0  0  0  0
   -0.4050   24.4190  -24.0670 N   0  0  0  0  0  0  0  0  0  0  0  0
   -0.5320   23.6790  -25.2970 C   0  0  0  0  0  0  0  0  0  0  0  0
   -0.4530   22.2760  -25.3350 C   0  0  0  0  0  0  0  0  0  0  0  0
   -0.5830   21.5940  -26.5470 C   0  0  0  0  0  0  0  0  0  0  0  0
   -0.8020   22.2930  -27.7450 C   0  0  0  0  0  0  0  0  0  0  0  0
   -0.8480   23.6960  -27.7210 C   0  0  0  0  0  0  0  0  0  0  0  0
   -0.7260   24.3780  -26.4970 C   0  0  0  0  0  0  0  0  0  0  0  0
   -1.0880   24.4620  -28.9850 C   0  0  0  0  0  0  0  0  0  0  0  0
   -2.5100   24.2090  -29.4600 C   0  0  0  0  0  0  0  0  0  0  0  0
   -2.6890   22.9280  -30.2520 C   0  0  0  0  0  0  0  0  0  0  0  0
   -3.7020   22.9470  -31.2320 C   0  0  0  0  0  0  0  0  0  0  0  0
   -3.9720   21.8300  -32.0330 C   0  0  0  0  0  0  0  0  0  0  0  0
   -5.0310   21.8680  -33.0120 N   0  0  0  0  0  0  0  0  0  0  0  0
   -6.0810   20.9560  -32.6300 C   0  0  0  0  0  0  0  0  0  0  0  0
   -6.1130   19.6520  -33.1610 C   0  0  0  0  0  0  0  0  0  0  0  0
   -7.1090   18.7520  -32.7730 C   0  0  0  0  0  0  0  0  0  0  0  0
   -8.0810   19.1390  -31.8480 C   0  0  0  0  0  0  0  0  0  0  0  0
   -9.0460   18.2640  -31.4720 F   0  0  0  0  0  0  0  0  0  0  0  0
   -8.0590   20.4280  -31.3090 C   0  0  0  0  0  0  0  0  0  0  0  0
   -7.0650   21.3350  -31.6930 C   0  0  0  0  0  0  0  0  0  0  0  0
   -7.0640   22.5800  -31.1560 F   0  0  0  0  0  0  0  0  0  0  0  0
   -3.2290   20.6630  -31.8400 C   0  0  0  0  0  0  0  0  0  0  0  0
   -2.2380   20.6110  -30.8630 C   0  0  0  0  0  0  0  0  0  0  0  0
   -1.9510   21.7220  -30.0410 C   0  0  0  0  0  0  0  0  0  0  0  0
   -0.8830   21.5320  -29.0100 C   0  0  0  0  0  0  0  0  0  0  0  0
   -0.0240   20.6250  -29.1900 O   0  0  0  0  0  0  0  0  0  0  0  0
   -2.0251   26.9060  -23.4304 H   0  0  0  0  0  0  0  0  0  0  0  0
   -1.2517   27.4976  -24.9398 H   0  0  0  0  0  0  0  0  0  0  0  0
   -2.1459   25.9397  -24.9398 H   0  0  0  0  0  0  0  0  0  0  0  0
    0.5856   26.1686  -24.6704 H   0  0  0  0  0  0  0  0  0  0  0  0
    0.0557   26.1254  -22.9446 H   0  0  0  0  0  0  0  0  0  0  0  0
   -0.4580   23.8940  -23.1640 H   0  0  0  0  0  0  0  0  0  0  0  0
   -0.2879   21.7121  -24.4051 H   0  0  0  0  0  0  0  0  0  0  0  0
   -0.5130   20.4963  -26.5632 H   0  0  0  0  0  0  0  0  0  0  0  0
   -0.7836   25.4764  -26.4808 H   0  0  0  0  0  0  0  0  0  0  0  0
   -0.9488   25.5367  -28.7961 H   0  0  0  0  0  0  0  0  0  0  0  0
   -0.3764   24.1339  -29.7570 H   0  0  0  0  0  0  0  0  0  0  0  0
   -3.1641   24.1614  -28.5769 H   0  0  0  0  0  0  0  0  0  0  0  0
   -2.7651   25.0356  -30.1394 H   0  0  0  0  0  0  0  0  0  0  0  0
   -4.2957   23.8625  -31.3713 H   0  0  0  0  0  0  0  0  0  0  0  0
   -4.6560   21.6060  -33.9540 H   0  0  0  0  0  0  0  0  0  0  0  0
   -5.4070   22.8410  -33.1030 H   0  0  0  0  0  0  0  0  0  0  0  0
   -5.3479   19.3395  -33.8869 H   0  0  0  0  0  0  0  0  0  0  0  0
   -7.1275   17.7371  -33.1968 H   0  0  0  0  0  0  0  0  0  0  0  0
   -8.8255   20.7307  -30.5805 H   0  0  0  0  0  0  0  0  0  0  0  0
   -3.4280   19.7792  -32.4639 H   0  0  0  0  0  0  0  0  0  0  0  0
   -1.6650   19.6817  -30.7286 H   0  0  0  0  0  0  0  0  0  0  0  0
  1  2  1  0
  2  3  1  0
  3  4  1  0
  4  5  2  0
  5  6  1  0
  6  7  2  0
  7  8  1  0
  8  9  2  0
  8 10  1  0
 10 11  1  0
 11 12  1  0
 12 13  2  0
 13 14  1  0
 14 15  1  0
 15 16  1  0
 16 17  2  0
 17 18  1  0
 18 19  2  0
 19 20  1  0
 19 21  1  0
 21 22  2  0
 22 23  1  0
 14 24  2  0
 24 25  1  0
 25 26  2  0
 26 27  1  0
 27 28  2  0
  9  4  1  0
 26 12  1  0
 27  7  1  0
 22 16  1  0
  1 29  1  0
  1 30  1  0
  1 31  1  0
  2 32  1  0
  2 33  1  0
  3 34  1  0
  5 35  1  0
  6 36  1  0
  9 37  1  0
 10 38  1  0
 10 39  1  0
 11 40  1  0
 11 41  1  0
 13 42  1  0
 15 43  1  0
 15 44  1  0
 17 45  1  0
 18 46  1  0
 21 47  1  0
 24 48  1  0
 25 49  1  0
M  CHG  1  15   1
M  END
>  <UniqueID>  (5) 
4

>  <SMILES>  (5) 
CCNc1ccc2c(c1)CCc1cc([NH2+]c3ccc(F)cc3F)ccc1C2=O

>  <Energy>  (5) 
69.08807103185033

>  <Genealogy>  (5) 
CCNc1ccc2c(c1)CCc1cc([NH2+]c3ccc(F)cc3F)ccc1C2=O (protonated)
CCNc1ccc2c(c1)CCc1cc([NH2+]c3ccc(F)cc3F)ccc1C2=O (3D coordinates assigned)
CCNc1ccc2c(c1)CCc1cc([NH2+]c3ccc(F)cc3F)ccc1C2=O (nonaromatic ring conformer: 69.08807103185033 kcal/mol)

>  <smiles>  (5) 
CCNc1ccc2c(c1)CCc1cc(Nc3ccc(F)cc3F)ccc1C2=O

>  <score_type>  (5) 
oracle

>  <origin>  (5) 
adg

>  <m_score__min__energy>  (5) 
-6.3799999999999999

>  <m_primary>  (5) 
energy

$$$$
5:0
     RDKit          3D

 68 70  0  0  0  0  0  0  0  0999 V2000
    0.3070   27.4040  -23.6990 C   0  0  0  0  0  0  0  0  0  0  0  0
   -0.8220   26.3740  -23.7580 C   0  0  0  0  0  0  0  0  0  0  0  0
   -0.3260   25.0750  -24.2480 N   0  0  0  0  0  0  0  0  0  0  0  0
    0.1990   25.1690  -25.6310 C   0  0  0  0  0  0  0  0  0  0  0  0
   -0.8690   24.8760  -26.7020 C   0  0  0  0  0  0  0  0  0  0  0  0
   -1.1720   26.0730  -27.6200 C   0  0  0  0  0  0  0  0  0  0  0  0
   -1.6130   25.6590  -28.9020 O   0  0  0  0  0  0  0  0  0  0  0  0
   -1.6800   24.2480  -29.0090 C   0  0  0  0  0  0  0  0  0  0  0  0
   -2.9580   23.8190  -29.7350 C   0  0  0  0  0  0  0  0  0  0  0  0
   -3.5430   24.9270  -30.3950 O   0  0  0  0  0  0  0  0  0  0  0  0
   -4.9070   24.6810  -30.6600 C   0  0  0  0  0  0  0  0  0  0  0  0
   -5.1780   23.1770  -30.6270 C   0  0  0  0  0  0  0  0  0  0  0  0
   -4.9470   22.5610  -31.9370 N   0  0  0  0  0  0  0  0  0  0  0  0
   -5.6500   21.3760  -32.3520 C   0  0  0  0  0  0  0  0  0  0  0  0
   -7.0470   21.3120  -32.2020 C   0  0  0  0  0  0  0  0  0  0  0  0
   -7.7900   22.4630  -31.8630 C   0  0  0  0  0  0  0  0  0  0  0  0
   -9.1770   22.4030  -31.7330 C   0  0  0  0  0  0  0  0  0  0  0  0
   -9.8440   21.2060  -31.9580 C   0  0  0  0  0  0  0  0  0  0  0  0
   -9.1320   20.0600  -32.3040 C   0  0  0  0  0  0  0  0  0  0  0  0
   -7.7180   20.0830  -32.4190 C   0  0  0  0  0  0  0  0  0  0  0  0
   -6.9980   18.9520  -32.7430 N   0  0  0  0  0  0  0  0  0  0  0  0
   -7.6420   17.6240  -32.6510 C   0  0  0  0  0  0  0  0  0  0  0  0
   -5.6750   19.0610  -33.1310 C   0  0  0  0  0  0  0  0  0  0  0  0
   -5.0050   17.9820  -33.7580 C   0  0  0  0  0  0  0  0  0  0  0  0
   -3.6590   18.0640  -34.0850 C   0  0  0  0  0  0  0  0  0  0  0  0
   -2.9460   19.2240  -33.8320 C   0  0  0  0  0  0  0  0  0  0  0  0
   -3.5770   20.3490  -33.2730 C   0  0  0  0  0  0  0  0  0  0  0  0
   -2.8590   21.5450  -33.0760 O   0  0  0  0  0  0  0  0  0  0  0  0
   -1.7410   21.7350  -32.2070 C   0  0  0  0  0  0  0  0  0  0  0  0
   -1.8520   20.8320  -30.9820 C   0  0  0  0  0  0  0  0  0  0  0  0
   -4.9570   20.2760  -32.9150 C   0  0  0  0  0  0  0  0  0  0  0  0
    0.5481   27.6240  -22.6485 H   0  0  0  0  0  0  0  0  0  0  0  0
    1.1978   27.0009  -24.2030 H   0  0  0  0  0  0  0  0  0  0  0  0
   -0.0129   28.3279  -24.2030 H   0  0  0  0  0  0  0  0  0  0  0  0
   -1.2416   26.2419  -22.7498 H   0  0  0  0  0  0  0  0  0  0  0  0
   -1.5939   26.7390  -24.4515 H   0  0  0  0  0  0  0  0  0  0  0  0
   -1.0870   24.3600  -24.1780 H   0  0  0  0  0  0  0  0  0  0  0  0
    0.4550   24.7680  -23.6200 H   0  0  0  0  0  0  0  0  0  0  0  0
    0.5856   26.1864  -25.7907 H   0  0  0  0  0  0  0  0  0  0  0  0
    0.9871   24.4088  -25.7359 H   0  0  0  0  0  0  0  0  0  0  0  0
   -0.5153   24.0416  -27.3254 H   0  0  0  0  0  0  0  0  0  0  0  0
   -1.8009   24.6372  -26.1685 H   0  0  0  0  0  0  0  0  0  0  0  0
   -1.9572   26.6874  -27.1553 H   0  0  0  0  0  0  0  0  0  0  0  0
   -0.2426   26.6471  -27.7487 H   0  0  0  0  0  0  0  0  0  0  0  0
   -0.8067   23.8869  -29.5720 H   0  0  0  0  0  0  0  0  0  0  0  0
   -1.6873   23.8171  -27.9969 H   0  0  0  0  0  0  0  0  0  0  0  0
   -2.7120   23.0438  -30.4756 H   0  0  0  0  0  0  0  0  0  0  0  0
   -3.6725   23.4228  -28.9984 H   0  0  0  0  0  0  0  0  0  0  0  0
   -5.5229   25.1798  -29.8972 H   0  0  0  0  0  0  0  0  0  0  0  0
   -5.1600   25.0738  -31.6558 H   0  0  0  0  0  0  0  0  0  0  0  0
   -4.5095   22.7094  -29.8892 H   0  0  0  0  0  0  0  0  0  0  0  0
   -6.2322   23.0220  -30.3536 H   0  0  0  0  0  0  0  0  0  0  0  0
   -4.3330   23.0530  -32.6270 H   0  0  0  0  0  0  0  0  0  0  0  0
   -7.2692   23.4180  -31.6995 H   0  0  0  0  0  0  0  0  0  0  0  0
   -9.7427   23.3037  -31.4523 H   0  0  0  0  0  0  0  0  0  0  0  0
  -10.9390   21.1627  -31.8626 H   0  0  0  0  0  0  0  0  0  0  0  0
   -9.6748   19.1217  -32.4912 H   0  0  0  0  0  0  0  0  0  0  0  0
   -7.7735   17.3528  -31.5931 H   0  0  0  0  0  0  0  0  0  0  0  0
   -8.6239   17.6576  -33.1457 H   0  0  0  0  0  0  0  0  0  0  0  0
   -7.0076   16.8738  -33.1457 H   0  0  0  0  0  0  0  0  0  0  0  0
   -5.5619   17.0622  -33.9899 H   0  0  0  0  0  0  0  0  0  0  0  0
   -3.1553   17.2026  -34.5479 H   0  0  0  0  0  0  0  0  0  0  0  0
   -1.8732   19.2656  -34.0713 H   0  0  0  0  0  0  0  0  0  0  0  0
   -0.8157   21.4941  -32.7508 H   0  0  0  0  0  0  0  0  0  0  0  0
   -1.7254   22.7833  -31.8740 H   0  0  0  0  0  0  0  0  0  0  0  0
   -1.7771   21.4414  -30.0693 H   0  0  0  0  0  0  0  0  0  0  0  0
   -2.8209   20.3114  -30.9968 H   0  0  0  0  0  0  0  0  0  0  0  0
   -1.0380   20.0923  -30.9968 H   0  0  0  0  0  0  0  0  0  0  0  0
  1  2  1  0
  2  3  1  0
  3  4  1  0
  4  5  1  0
  5  6  1  0
  6  7  1  0
  7  8  1  0
  8  9  1  0
  9 10  1  0
 10 11  1  0
 11 12  1  0
 12 13  1  0
 13 14  1  0
 14 15  2  0
 15 16  1  0
 16 17  2  0
 17 18  1  0
 18 19  2  0
 19 20  1  0
 20 21  2  0
 21 22  1  0
 21 23  1  0
 23 24  2  0
 24 25  1  0
 25 26  2  0
 26 27  1  0
 27 28  1  0
 28 29  1  0
 29 30  1  0
 27 31  2  0
 31 14  1  0
 20 15  1  0
 31 23  1  0
  1 32  1  0
  1 33  1  0
  1 34  1  0
  2 35  1  0
  2 36  1  0
  3 37  1  0
  3 38  1  0
  4 39  1  0
  4 40  1  0
  5 41  1  0
  5 42  1  0
  6 43  1  0
  6 44  1  0
  8 45  1  0
  8 46  1  0
  9 47  1  0
  9 48  1  0
 11 49  1  0
 11 50  1  0
 12 51  1  0
 12 52  1  0
 13 53  1  0
 16 54  1  0
 17 55  1  0
 18 56  1  0
 19 57  1  0
 22 58  1  0
 22 59  1  0
 22 60  1  0
 24 61  1  0
 25 62  1  0
 26 63  1  0
 29 64  1  0
 29 65  1  0
 30 66  1  0
 30 67  1  0
 30 68  1  0
M  CHG  2   3   1  21   1
M  END
>  <UniqueID>  (6) 
5

>  <SMILES>  (6) 
CC[NH2+]CCCOCCOCCNc1c2ccccc2[n+](C)c2cccc(OCC)c12

>  <Energy>  (6) 
94.43789723969773

>  <Genealogy>  (6) 
CC[NH2+]CCCOCCOCCNc1c2ccccc2[n+](C)c2cccc(OCC)c12 (protonated)
CC[NH2+]CCCOCCOCCNc1c2ccccc2[n+](C)c2cccc(OCC)c12 (3D coordinates assigned)
CC[NH2+]CCCOCCOCCNc1c2ccccc2[n+](C)c2cccc(OCC)c12 (optimized conformer: 94.43789723969773 kcal/mol)

>  <smiles>  (6) 
CCNCCCOCCOCCNc1c2ccccc2[n+](C)c2cccc(OCC)c12

>  <score_type>  (6) 
oracle

>  <origin>  (6) 
adg

>  <m_score__min__energy>  (6) 
-9.0800000000000001

>  <m_primary>  (6) 
energy

$$$$
6:0
     RDKit          3D

 21 22  0  0  0  0  0  0  0  0999 V2000
   -4.4880   25.4840  -30.8450 O   0  0  0  0  0  0  0  0  0  0  0  0
   -5.3410   25.2650  -29.9440 C   0  0  0  0  0  0  0  0  0  0  0  0
   -6.0270   24.0090  -29.8640 N   0  0  0  0  0  0  0  0  0  0  0  0
   -5.8770   22.9650  -30.8400 C   0  0  0  0  0  0  0  0  0  0  0  0
   -4.6070   22.7150  -31.3800 C   0  0  0  0  0  0  0  0  0  0  0  0
   -4.4230   21.7070  -32.3300 C   0  0  0  0  0  0  0  0  0  0  0  0
   -5.5010   20.9200  -32.7390 C   0  0  0  0  0  0  0  0  0  0  0  0
   -6.7720   21.1310  -32.1880 C   0  0  0  0  0  0  0  0  0  0  0  0
   -7.8620   20.3330  -32.5590 C   0  0  0  0  0  0  0  0  0  0  0  0
   -9.1100   20.5420  -31.9700 C   0  0  0  0  0  0  0  0  0  0  0  0
   -9.2570   21.5480  -31.0130 C   0  0  0  0  0  0  0  0  0  0  0  0
   -8.1940   22.3190  -30.6630 N   0  0  0  0  0  0  0  0  0  0  0  0
   -6.9640   22.1530  -31.2270 C   0  0  0  0  0  0  0  0  0  0  0  0
   -5.5629   26.0506  -29.2067 H   0  0  0  0  0  0  0  0  0  0  0  0
   -6.5210   23.7880  -28.9710 H   0  0  0  0  0  0  0  0  0  0  0  0
   -3.7475   23.3183  -31.0525 H   0  0  0  0  0  0  0  0  0  0  0  0
   -3.4245   21.5329  -32.7574 H   0  0  0  0  0  0  0  0  0  0  0  0
   -5.3527   20.1340  -33.4941 H   0  0  0  0  0  0  0  0  0  0  0  0
   -7.7345   19.5428  -33.3135 H   0  0  0  0  0  0  0  0  0  0  0  0
   -9.9703   19.9196  -32.2573 H   0  0  0  0  0  0  0  0  0  0  0  0
  -10.2361   21.7170  -30.5410 H   0  0  0  0  0  0  0  0  0  0  0  0
  1  2  2  0
  2  3  1  0
  3  4  1  0
  4  5  2  0
  5  6  1  0
  6  7  2  0
  7  8  1  0
  8  9  2  0
  9 10  1  0
 10 11  2  0
 11 12  1  0
 12 13  2  0
 13  4  1  0
 13  8  1  0
  2 14  1  0
  3 15  1  0
  5 16  1  0
  6 17  1  0
  7 18  1  0
  9 19  1  0
 10 20  1  0
 11 21  1  0
M  END
>  <UniqueID>  (7) 
6

>  <SMILES>  (7) 
O=CNc1cccc2cccnc12

>  <Energy>  (7) 
29.992991097826806

>  <Genealogy>  (7) 
O=CNc1cccc2cccnc12 (3D coordinates assigned)
O=CNc1cccc2cccnc12 (optimized conformer: 29.992991097826806 kcal/mol)

>  <smiles>  (7) 
O=CNc1cccc2cccnc12

>  <score_type>  (7) 
oracle

>  <origin>  (7) 
adg

>  <m_score__min__energy>  (7) 
-6.29

>  <m_primary>  (7) 
energy

$$$$
7:0
     RDKit          3D

 26 27  0  0  0  0  0  0  0  0999 V2000
   -3.8750   23.3730  -27.7370 C   0  0  0  0  0  0  0  0  0  0  0  0
   -4.6970   23.7230  -28.9350 C   0  0  0  0  0  0  0  0  0  0  0  0
   -4.8350   22.8240  -29.9460 N   0  0  0  0  0  0  0  0  0  0  0  0
   -5.5830   23.1000  -31.0480 C   0  0  0  0  0  0  0  0  0  0  0  0
   -5.7130   22.0740  -32.1060 C   0  0  0  0  0  0  0  0  0  0  0  0
   -4.7930   21.9750  -32.9620 O   0  0  0  0  0  0  0  0  0  0  0  0
   -6.8830   21.1690  -32.2050 C   0  0  0  0  0  0  0  0  0  0  0  0
   -8.1690   21.6490  -31.9010 C   0  0  0  0  0  0  0  0  0  0  0  0
   -9.2760   20.8000  -31.9710 C   0  0  0  0  0  0  0  0  0  0  0  0
   -9.1100   19.4600  -32.3310 C   0  0  0  0  0  0  0  0  0  0  0  0
   -7.8340   18.9680  -32.6170 C   0  0  0  0  0  0  0  0  0  0  0  0
   -6.7240   19.8140  -32.5490 C   0  0  0  0  0  0  0  0  0  0  0  0
   -6.2550   24.3300  -31.1240 C   0  0  0  0  0  0  0  0  0  0  0  0
   -6.1090   25.2380  -30.0770 C   0  0  0  0  0  0  0  0  0  0  0  0
   -5.3360   24.9230  -29.0040 N   0  0  0  0  0  0  0  0  0  0  0  0
   -4.4382   23.6128  -26.8231 H   0  0  0  0  0  0  0  0  0  0  0  0
   -3.6427   22.2979  -27.7531 H   0  0  0  0  0  0  0  0  0  0  0  0
   -2.9390   23.9506  -27.7531 H   0  0  0  0  0  0  0  0  0  0  0  0
   -8.3043   22.7001  -31.6061 H   0  0  0  0  0  0  0  0  0  0  0  0
  -10.2800   21.1868  -31.7424 H   0  0  0  0  0  0  0  0  0  0  0  0
   -9.9830   18.7933  -32.3891 H   0  0  0  0  0  0  0  0  0  0  0  0
   -7.7029   17.9122  -32.8964 H   0  0  0  0  0  0  0  0  0  0  0  0
   -5.7206   19.4186  -32.7655 H   0  0  0  0  0  0  0  0  0  0  0  0
   -6.8845   24.5724  -31.9929 H   0  0  0  0  0  0  0  0  0  0  0  0
   -6.6201   26.2112  -30.1188 H   0  0  0  0  0  0  0  0  0  0  0  0
   -5.2430   25.6130  -28.2250 H   0  0  0  0  0  0  0  0  0  0  0  0
  1  2  1  0
  2  3  2  0
  3  4  1  0
  4  5  1  0
  5  6  2  0
  5  7  1  0
  7  8  2  0
  8  9  1  0
  9 10  2  0
 10 11  1  0
 11 12  2  0
  4 13  2  0
 13 14  1  0
 14 15  2  0
 15  2  1  0
 12  7  1  0
  1 16  1  0
  1 17  1  0
  1 18  1  0
  8 19  1  0
  9 20  1  0
 10 21  1  0
 11 22  1  0
 12 23  1  0
 13 24  1  0
 14 25  1  0
 15 26  1  0
M  CHG  1  15   1
M  END
>  <UniqueID>  (8) 
7

>  <SMILES>  (8) 
Cc1nc(C(=O)c2ccccc2)cc[nH+]1

>  <Energy>  (8) 
31.103789191472192

>  <Genealogy>  (8) 
Cc1nc(C(=O)c2ccccc2)cc[nH+]1 (protonated)
Cc1nc(C(=O)c2ccccc2)cc[nH+]1 (3D coordinates assigned)
Cc1nc(C(=O)c2ccccc2)cc[nH+]1 (optimized conformer: 31.103789191472192 kcal/mol)

>  <smiles>  (8) 
Cc1nccc(C(=O)c2ccccc2)n1

>  <score_type>  (8) 
oracle

>  <origin>  (8) 
adg

>  <m_score__min__energy>  (8) 
-6

>  <m_primary>  (8) 
energy

$$$$
8:0
     RDKit          3D

 61 63  0  0  0  0  0  0  0  0999 V2000
   -0.4960   20.7710  -30.7290 C   0  0  0  0  0  0  0  0  0  0  0  0
   -1.0340   21.9200  -31.5680 C   0  0  0  0  0  0  0  0  0  0  0  0
   -2.3600   21.6180  -31.9930 O   0  0  0  0  0  0  0  0  0  0  0  0
   -2.7410   20.4740  -32.7150 C   0  0  0  0  0  0  0  0  0  0  0  0
   -1.7680   19.6510  -33.3050 C   0  0  0  0  0  0  0  0  0  0  0  0
   -2.1270   18.4720  -33.9410 C   0  0  0  0  0  0  0  0  0  0  0  0
   -3.4630   18.0940  -34.0170 C   0  0  0  0  0  0  0  0  0  0  0  0
   -4.4880   18.9140  -33.4870 C   0  0  0  0  0  0  0  0  0  0  0  0
   -4.1200   20.1200  -32.8220 C   0  0  0  0  0  0  0  0  0  0  0  0
   -5.1420   20.9170  -32.2550 C   0  0  0  0  0  0  0  0  0  0  0  0
   -4.8590   22.2310  -31.7550 N   0  0  0  0  0  0  0  0  0  0  0  0
   -5.6300   23.3900  -32.2030 C   0  0  0  0  0  0  0  0  0  0  0  0
   -5.4560   24.5690  -31.2400 C   0  0  0  0  0  0  0  0  0  0  0  0
   -4.1670   24.4940  -30.5360 N   0  0  0  0  0  0  0  0  0  0  0  0
   -4.3440   24.4940  -29.0780 C   0  0  0  0  0  0  0  0  0  0  0  0
   -4.2520   23.0590  -28.5450 C   0  0  0  0  0  0  0  0  0  0  0  0
   -3.0900   22.3310  -29.1020 N   0  0  0  0  0  0  0  0  0  0  0  0
   -1.8310   22.9230  -28.6180 C   0  0  0  0  0  0  0  0  0  0  0  0
   -3.1180   20.8600  -28.9040 C   0  0  0  0  0  0  0  0  0  0  0  0
   -2.7160   20.3960  -27.4970 C   0  0  0  0  0  0  0  0  0  0  0  0
   -6.4530   20.4190  -32.1850 C   0  0  0  0  0  0  0  0  0  0  0  0
   -7.4560   21.1190  -31.4780 C   0  0  0  0  0  0  0  0  0  0  0  0
   -8.7460   20.6040  -31.3770 C   0  0  0  0  0  0  0  0  0  0  0  0
   -9.0560   19.3830  -31.9640 C   0  0  0  0  0  0  0  0  0  0  0  0
   -8.0850   18.6830  -32.6790 C   0  0  0  0  0  0  0  0  0  0  0  0
   -6.7730   19.2010  -32.8340 C   0  0  0  0  0  0  0  0  0  0  0  0
   -5.8190   18.5510  -33.5910 N   0  0  0  0  0  0  0  0  0  0  0  0
   -6.2260   17.4770  -34.5260 C   0  0  0  0  0  0  0  0  0  0  0  0
   -0.6089   21.0121  -29.6617 H   0  0  0  0  0  0  0  0  0  0  0  0
   -1.0584   19.8541  -30.9593 H   0  0  0  0  0  0  0  0  0  0  0  0
    0.5684   20.6158  -30.9593 H   0  0  0  0  0  0  0  0  0  0  0  0
   -1.0427   22.8407  -30.9662 H   0  0  0  0  0  0  0  0  0  0  0  0
   -0.3906   22.0634  -32.4486 H   0  0  0  0  0  0  0  0  0  0  0  0
   -0.7088   19.9449  -33.2622 H   0  0  0  0  0  0  0  0  0  0  0  0
   -1.3511   17.8328  -34.3875 H   0  0  0  0  0  0  0  0  0  0  0  0
   -3.7281   17.1407  -34.4976 H   0  0  0  0  0  0  0  0  0  0  0  0
   -4.1820   22.3390  -30.9650 H   0  0  0  0  0  0  0  0  0  0  0  0
   -5.2833   23.6882  -33.2034 H   0  0  0  0  0  0  0  0  0  0  0  0
   -6.6944   23.1139  -32.2312 H   0  0  0  0  0  0  0  0  0  0  0  0
   -5.4990   25.5082  -31.8110 H   0  0  0  0  0  0  0  0  0  0  0  0
   -6.2634   24.5318  -30.4939 H   0  0  0  0  0  0  0  0  0  0  0  0
   -3.7130   23.5880  -30.8000 H   0  0  0  0  0  0  0  0  0  0  0  0
   -3.5572   25.1072  -28.6144 H   0  0  0  0  0  0  0  0  0  0  0  0
   -5.3316   24.9111  -28.8314 H   0  0  0  0  0  0  0  0  0  0  0  0
   -4.1573   23.0930  -27.4496 H   0  0  0  0  0  0  0  0  0  0  0  0
   -5.1640   22.5253  -28.8507 H   0  0  0  0  0  0  0  0  0  0  0  0
   -1.8260   22.9254  -27.5180 H   0  0  0  0  0  0  0  0  0  0  0  0
   -0.9812   22.3301  -28.9873 H   0  0  0  0  0  0  0  0  0  0  0  0
   -1.7456   23.9556  -28.9873 H   0  0  0  0  0  0  0  0  0  0  0  0
   -4.1406   20.5066  -29.1025 H   0  0  0  0  0  0  0  0  0  0  0  0
   -2.3735   20.4385  -29.5954 H   0  0  0  0  0  0  0  0  0  0  0  0
   -3.2424   21.0036  -26.7462 H   0  0  0  0  0  0  0  0  0  0  0  0
   -2.9876   19.3379  -27.3683 H   0  0  0  0  0  0  0  0  0  0  0  0
   -1.6300   20.5141  -27.3683 H   0  0  0  0  0  0  0  0  0  0  0  0
   -7.2155   22.0811  -31.0022 H   0  0  0  0  0  0  0  0  0  0  0  0
   -9.5202   21.1641  -30.8322 H   0  0  0  0  0  0  0  0  0  0  0  0
  -10.0698   18.9679  -31.8643 H   0  0  0  0  0  0  0  0  0  0  0  0
   -8.3403   17.7130  -33.1305 H   0  0  0  0  0  0  0  0  0  0  0  0
   -6.5588   16.5988  -33.9532 H   0  0  0  0  0  0  0  0  0  0  0  0
   -7.0506   17.8355  -35.1596 H   0  0  0  0  0  0  0  0  0  0  0  0
   -5.3709   17.1990  -35.1596 H   0  0  0  0  0  0  0  0  0  0  0  0
  1  2  1  0
  2  3  1  0
  3  4  1  0
  4  5  2  0
  5  6  1  0
  6  7  2  0
  7  8  1  0
  8  9  2  0
  9 10  1  0
 10 11  1  0
 11 12  1  0
 12 13  1  0
 13 14  1  0
 14 15  1  0
 15 16  1  0
 16 17  1  0
 17 18  1  0
 17 19  1  0
 19 20  1  0
 10 21  2  0
 21 22  1  0
 22 23  2  0
 23 24  1  0
 24 25  2  0
 25 26  1  0
 26 27  2  0
 27 28  1  0
  9  4  1  0
 26 21  1  0
 27  8  1  0
  1 29  1  0
  1 30  1  0
  1 31  1  0
  2 32  1  0
  2 33  1  0
  5 34  1  0
  6 35  1  0
  7 36  1  0
 11 37  1  0
 12 38  1  0
 12 39  1  0
 13 40  1  0
 13 41  1  0
 14 42  1  0
 15 43  1  0
 15 44  1  0
 16 45  1  0
 16 46  1  0
 18 47  1  0
 18 48  1  0
 18 49  1  0
 19 50  1  0
 19 51  1  0
 20 52  1  0
 20 53  1  0
 20 54  1  0
 22 55  1  0
 23 56  1  0
 24 57  1  0
 25 58  1  0
 28 59  1  0
 28 60  1  0
 28 61  1  0
M  CHG  1  27   1
M  END
>  <UniqueID>  (9) 
8

>  <SMILES>  (9) 
CCOc1cccc2c1c(NCCNCCN(C)CC)c1ccccc1[n+]2C

>  <Energy>  (9) 
85.63607052500018

>  <Genealogy>  (9) 
CCOc1cccc2c1c(NCCNCCN(C)CC)c1ccccc1[n+]2C (3D coordinates assigned)
CCOc1cccc2c1c(NCCNCCN(C)CC)c1ccccc1[n+]2C (optimized conformer: 85.63607052500018 kcal/mol)

>  <smiles>  (9) 
CCOc1cccc2c1c(NCCNCCN(C)CC)c1ccccc1[n+]2C

>  <score_type>  (9) 
oracle

>  <origin>  (9) 
adg

>  <m_score__min__energy>  (9) 
-8.1999999999999993

>  <m_primary>  (9) 
energy

$$$$
9:0
     RDKit          3D

 53 55  0  0  0  0  0  0  0  0999 V2000
   -7.9820   23.5130  -31.6090 C   0  0  0  0  0  0  0  0  0  0  0  0
   -6.8580   23.7690  -32.6050 C   0  0  0  0  0  0  0  0  0  0  0  0
   -5.7880   24.4450  -31.9710 O   0  0  0  0  0  0  0  0  0  0  0  0
   -6.1710   24.8730  -30.6800 C   0  0  0  0  0  0  0  0  0  0  0  0
   -4.9820   24.7400  -29.7340 C   0  0  0  0  0  0  0  0  0  0  0  0
   -3.7960   24.6080  -30.4980 O   0  0  0  0  0  0  0  0  0  0  0  0
   -2.9650   23.5820  -29.9950 C   0  0  0  0  0  0  0  0  0  0  0  0
   -3.6340   22.2190  -30.1890 C   0  0  0  0  0  0  0  0  0  0  0  0
   -4.3960   22.1910  -31.4360 N   0  0  0  0  0  0  0  0  0  0  0  0
   -4.4540   21.0080  -32.2530 C   0  0  0  0  0  0  0  0  0  0  0  0
   -5.6340   20.2460  -32.3190 C   0  0  0  0  0  0  0  0  0  0  0  0
   -6.8010   20.6530  -31.6320 C   0  0  0  0  0  0  0  0  0  0  0  0
   -7.9400   19.8530  -31.6320 C   0  0  0  0  0  0  0  0  0  0  0  0
   -7.9450   18.6460  -32.3190 C   0  0  0  0  0  0  0  0  0  0  0  0
   -6.8230   18.2460  -33.0440 C   0  0  0  0  0  0  0  0  0  0  0  0
   -5.6590   19.0580  -33.0960 C   0  0  0  0  0  0  0  0  0  0  0  0
   -4.5680   18.7120  -33.8750 N   0  0  0  0  0  0  0  0  0  0  0  0
   -4.7060   17.6680  -34.9170 C   0  0  0  0  0  0  0  0  0  0  0  0
   -3.3670   19.3760  -33.7150 C   0  0  0  0  0  0  0  0  0  0  0  0
   -2.1640   18.8830  -34.2850 C   0  0  0  0  0  0  0  0  0  0  0  0
   -0.9530   19.5850  -34.1530 C   0  0  0  0  0  0  0  0  0  0  0  0
    0.2530   19.1140  -34.6920 O   0  0  0  0  0  0  0  0  0  0  0  0
    1.4720   18.9950  -33.9660 C   0  0  0  0  0  0  0  0  0  0  0  0
   -0.9340   20.7840  -33.4500 C   0  0  0  0  0  0  0  0  0  0  0  0
   -2.0870   21.2670  -32.8390 C   0  0  0  0  0  0  0  0  0  0  0  0
   -3.3060   20.5640  -32.9380 C   0  0  0  0  0  0  0  0  0  0  0  0
   -7.5914   23.6020  -30.5845 H   0  0  0  0  0  0  0  0  0  0  0  0
   -8.7825   24.2518  -31.7617 H   0  0  0  0  0  0  0  0  0  0  0  0
   -8.3836   22.5004  -31.7617 H   0  0  0  0  0  0  0  0  0  0  0  0
   -6.4973   22.8081  -33.0007 H   0  0  0  0  0  0  0  0  0  0  0  0
   -7.2409   24.3931  -33.4259 H   0  0  0  0  0  0  0  0  0  0  0  0
   -6.4925   25.9242  -30.7212 H   0  0  0  0  0  0  0  0  0  0  0  0
   -7.0034   24.2523  -30.3168 H   0  0  0  0  0  0  0  0  0  0  0  0
   -4.9139   25.6359  -29.0994 H   0  0  0  0  0  0  0  0  0  0  0  0
   -5.1129   23.8538  -29.0956 H   0  0  0  0  0  0  0  0  0  0  0  0
   -2.0050   23.5956  -30.5319 H   0  0  0  0  0  0  0  0  0  0  0  0
   -2.7963   23.7501  -28.9211 H   0  0  0  0  0  0  0  0  0  0  0  0
   -2.8600   21.4380  -30.2210 H   0  0  0  0  0  0  0  0  0  0  0  0
   -4.3221   22.0398  -29.3497 H   0  0  0  0  0  0  0  0  0  0  0  0
   -4.6870   23.1030  -31.8560 H   0  0  0  0  0  0  0  0  0  0  0  0
   -6.8088   21.6114  -31.0922 H   0  0  0  0  0  0  0  0  0  0  0  0
   -8.8384   20.1775  -31.0865 H   0  0  0  0  0  0  0  0  0  0  0  0
   -8.8372   18.0032  -32.2911 H   0  0  0  0  0  0  0  0  0  0  0  0
   -6.8397   17.2875  -33.5835 H   0  0  0  0  0  0  0  0  0  0  0  0
   -4.8357   16.6865  -34.4377 H   0  0  0  0  0  0  0  0  0  0  0  0
   -5.5828   17.8889  -35.5435 H   0  0  0  0  0  0  0  0  0  0  0  0
   -3.8020   17.6535  -35.5435 H   0  0  0  0  0  0  0  0  0  0  0  0
   -2.1796   17.9337  -34.8405 H   0  0  0  0  0  0  0  0  0  0  0  0
    1.2596   19.0157  -32.8869 H   0  0  0  0  0  0  0  0  0  0  0  0
    1.9618   18.0448  -34.2251 H   0  0  0  0  0  0  0  0  0  0  0  0
    2.1363   19.8326  -34.2251 H   0  0  0  0  0  0  0  0  0  0  0  0
    0.0021   21.3569  -33.3760 H   0  0  0  0  0  0  0  0  0  0  0  0
   -2.0475   22.2086  -32.2718 H   0  0  0  0  0  0  0  0  0  0  0  0
  1  2  1  0
  2  3  1  0
  3  4  1  0
  4  5  1  0
  5  6  1  0
  6  7  1  0
  7  8  1  0
  8  9  1  0
  9 10  1  0
 10 11  2  0
 11 12  1  0
 12 13  2  0
 13 14  1  0
 14 15  2  0
 15 16  1  0
 16 17  2  0
 17 18  1  0
 17 19  1  0
 19 20  2  0
 20 21  1  0
 21 22  1  0
 22 23  1  0
 21 24  2  0
 24 25  1  0
 25 26  2  0
 26 10  1  0
 16 11  1  0
 26 19  1  0
  1 27  1  0
  1 28  1  0
  1 29  1  0
  2 30  1  0
  2 31  1  0
  4 32  1  0
  4 33  1  0
  5 34  1  0
  5 35  1  0
  7 36  1  0
  7 37  1  0
  8 38  1  0
  8 39  1  0
  9 40  1  0
 12 41  1  0
 13 42  1  0
 14 43  1  0
 15 44  1  0
 18 45  1  0
 18 46  1  0
 18 47  1  0
 20 48  1  0
 23 49  1  0
 23 50  1  0
 23 51  1  0
 24 52  1  0
 25 53  1  0
M  CHG  1  17   1
M  END
>  <UniqueID>  (10) 
9

>  <SMILES>  (10) 
CCOCCOCCNc1c2ccccc2[n+](C)c2cc(OC)ccc12

>  <Energy>  (10) 
78.79171650434287

>  <Genealogy>  (10) 
CCOCCOCCNc1c2ccccc2[n+](C)c2cc(OC)ccc12 (3D coordinates assigned)
CCOCCOCCNc1c2ccccc2[n+](C)c2cc(OC)ccc12 (optimized conformer: 78.79171650434287 kcal/mol)

>  <smiles>  (10) 
CCOCCOCCNc1c2ccccc2[n+](C)c2cc(OC)ccc12

>  <score_type>  (10) 
oracle

>  <origin>  (10) 
adg

>  <m_score__min__energy>  (10) 
-8.75

>  <m_primary>  (10) 
energy

$$$$
10:0
     RDKit          3D

 40 41  0  0  0  0  0  0  0  0999 V2000
   -3.1350   21.1900  -27.7080 C   0  0  0  0  0  0  0  0  0  0  0  0
   -3.6310   22.6410  -27.7170 C   0  0  0  0  0  0  0  0  0  0  0  0
   -2.5170   23.6260  -27.7900 N   0  0  0  0  0  0  0  0  0  0  0  0
   -2.7530   24.7650  -26.8600 C   0  0  0  0  0  0  0  0  0  0  0  0
   -4.2130   24.9280  -26.4100 C   0  0  0  0  0  0  0  0  0  0  0  0
   -1.2040   22.9600  -27.5870 C   0  0  0  0  0  0  0  0  0  0  0  0
   -0.4150   22.7670  -28.8970 C   0  0  0  0  0  0  0  0  0  0  0  0
   -1.1130   23.3880  -30.0270 N   0  0  0  0  0  0  0  0  0  0  0  0
   -2.2970   22.8510  -30.6480 C   0  0  0  0  0  0  0  0  0  0  0  0
   -2.2720   21.5190  -31.0910 C   0  0  0  0  0  0  0  0  0  0  0  0
   -3.3820   20.9540  -31.7210 C   0  0  0  0  0  0  0  0  0  0  0  0
   -4.5420   21.7040  -31.9090 C   0  0  0  0  0  0  0  0  0  0  0  0
   -4.6080   23.0320  -31.4510 C   0  0  0  0  0  0  0  0  0  0  0  0
   -5.7750   23.8080  -31.6030 C   0  0  0  0  0  0  0  0  0  0  0  0
   -6.7950   23.3390  -32.1760 O   0  0  0  0  0  0  0  0  0  0  0  0
   -5.8070   25.1140  -31.1100 C   0  0  0  0  0  0  0  0  0  0  0  0
   -4.6850   25.6330  -30.4670 C   0  0  0  0  0  0  0  0  0  0  0  0
   -3.5650   24.8770  -30.3310 N   0  0  0  0  0  0  0  0  0  0  0  0
   -3.4810   23.6070  -30.8080 C   0  0  0  0  0  0  0  0  0  0  0  0
   -3.0184   20.8488  -26.6688 H   0  0  0  0  0  0  0  0  0  0  0  0
   -3.8653   20.5497  -28.2244 H   0  0  0  0  0  0  0  0  0  0  0  0
   -2.1656   21.1307  -28.2244 H   0  0  0  0  0  0  0  0  0  0  0  0
   -4.2857   22.7842  -28.5893 H   0  0  0  0  0  0  0  0  0  0  0  0
   -4.1688   22.8153  -26.7734 H   0  0  0  0  0  0  0  0  0  0  0  0
   -2.5170   24.0390  -28.7530 H   0  0  0  0  0  0  0  0  0  0  0  0
   -2.1326   24.6118  -25.9647 H   0  0  0  0  0  0  0  0  0  0  0  0
   -2.4920   25.6795  -27.4128 H   0  0  0  0  0  0  0  0  0  0  0  0
   -4.2595   24.9332  -25.3110 H   0  0  0  0  0  0  0  0  0  0  0  0
   -4.6127   25.8763  -26.7984 H   0  0  0  0  0  0  0  0  0  0  0  0
   -4.8120   24.0912  -26.7984 H   0  0  0  0  0  0  0  0  0  0  0  0
   -0.6014   23.5754  -26.9028 H   0  0  0  0  0  0  0  0  0  0  0  0
   -1.4037   21.9602  -27.1740 H   0  0  0  0  0  0  0  0  0  0  0  0
    0.5780   23.2281  -28.7902 H   0  0  0  0  0  0  0  0  0  0  0  0
   -0.3200   21.6888  -29.0934 H   0  0  0  0  0  0  0  0  0  0  0  0
   -0.8530   24.3760  -30.2510 H   0  0  0  0  0  0  0  0  0  0  0  0
   -1.3664   20.9131  -30.9397 H   0  0  0  0  0  0  0  0  0  0  0  0
   -3.3413   19.9119  -32.0708 H   0  0  0  0  0  0  0  0  0  0  0  0
   -5.4084   21.2556  -32.4172 H   0  0  0  0  0  0  0  0  0  0  0  0
   -6.7115   25.7288  -31.2284 H   0  0  0  0  0  0  0  0  0  0  0  0
   -4.7065   26.6580  -30.0684 H   0  0  0  0  0  0  0  0  0  0  0  0
  1  2  1  0
  2  3  1  0
  3  4  1  0
  4  5  1  0
  3  6  1  0
  6  7  1  0
  7  8  1  0
  8  9  1  0
  9 10  2  0
 10 11  1  0
 11 12  2  0
 12 13  1  0
 13 14  1  0
 14 15  2  0
 14 16  1  0
 16 17  2  0
 17 18  1  0
 18 19  1  0
 19  9  1  0
 19 13  2  0
  1 20  1  0
  1 21  1  0
  1 22  1  0
  2 23  1  0
  2 24  1  0
  3 25  1  0
  4 26  1  0
  4 27  1  0
  5 28  1  0
  5 29  1  0
  5 30  1  0
  6 31  1  0
  6 32  1  0
  7 33  1  0
  7 34  1  0
  8 35  1  0
 10 36  1  0
 11 37  1  0
 12 38  1  0
 16 39  1  0
 17 40  1  0
M  CHG  2   3   1  18  -1
M  END
>  <UniqueID>  (11) 
10

>  <SMILES>  (11) 
CC[NH+](CC)CCNc1cccc2c(=O)cc[n-]c12

>  <Energy>  (11) 
48.63636270073023

>  <Genealogy>  (11) 
CC[NH+](CC)CCNc1cccc2c(=O)cc[n-]c12 (protonated)
CC[NH+](CC)CCNc1cccc2c(=O)cc[n-]c12 (3D coordinates assigned)
CC[NH+](CC)CCNc1cccc2c(=O)cc[n-]c12 (optimized conformer: 48.63636270073023 kcal/mol)

>  <smiles>  (11) 
CCN(CC)CCNc1cccc2c(=O)cc[nH]c12

>  <score_type>  (11) 
oracle

>  <origin>  (11) 
adg

>  <m_score__min__energy>  (11) 
-7.4400000000000004

>  <m_primary>  (11) 
energy

$$$$
11:0
     RDKit          3D

 53 55  0  0  0  0  0  0  0  0999 V2000
   -6.0790   24.9990  -29.6420 C   0  0  0  0  0  0  0  0  0  0  0  0
   -5.1200   25.6920  -30.6040 C   0  0  0  0  0  0  0  0  0  0  0  0
   -3.8410   24.9710  -30.6380 N   0  0  0  0  0  0  0  0  0  0  0  0
   -3.5420   24.3340  -29.3450 C   0  0  0  0  0  0  0  0  0  0  0  0
   -2.6390   23.0990  -29.5140 C   0  0  0  0  0  0  0  0  0  0  0  0
   -3.4080   21.8690  -29.9990 C   0  0  0  0  0  0  0  0  0  0  0  0
   -2.5180   20.9600  -30.6190 O   0  0  0  0  0  0  0  0  0  0  0  0
   -2.4140   21.2230  -32.0040 C   0  0  0  0  0  0  0  0  0  0  0  0
   -3.4940   22.2230  -32.4270 C   0  0  0  0  0  0  0  0  0  0  0  0
   -4.4140   21.6210  -33.3890 N   0  0  0  0  0  0  0  0  0  0  0  0
   -5.4890   20.7850  -32.9360 C   0  0  0  0  0  0  0  0  0  0  0  0
   -6.6700   21.3580  -32.4350 C   0  0  0  0  0  0  0  0  0  0  0  0
   -6.8000   22.7590  -32.3180 C   0  0  0  0  0  0  0  0  0  0  0  0
   -7.9520   23.3250  -31.7790 C   0  0  0  0  0  0  0  0  0  0  0  0
   -8.9830   22.5080  -31.3280 C   0  0  0  0  0  0  0  0  0  0  0  0
   -8.8780   21.1200  -31.4350 C   0  0  0  0  0  0  0  0  0  0  0  0
   -7.7350   20.5130  -32.0180 C   0  0  0  0  0  0  0  0  0  0  0  0
   -7.6280   19.1420  -32.1600 N   0  0  0  0  0  0  0  0  0  0  0  0
   -8.8240   18.2850  -31.9910 C   0  0  0  0  0  0  0  0  0  0  0  0
   -6.4110   18.5710  -32.4850 C   0  0  0  0  0  0  0  0  0  0  0  0
   -6.1870   17.1750  -32.3780 C   0  0  0  0  0  0  0  0  0  0  0  0
   -4.9720   16.6080  -32.7680 C   0  0  0  0  0  0  0  0  0  0  0  0
   -4.7240   14.8780  -32.6240 Cl  0  0  0  0  0  0  0  0  0  0  0  0
   -3.9510   17.4140  -33.2610 C   0  0  0  0  0  0  0  0  0  0  0  0
   -4.1250   18.7940  -33.3330 C   0  0  0  0  0  0  0  0  0  0  0  0
   -5.3360   19.3890  -32.9210 C   0  0  0  0  0  0  0  0  0  0  0  0
   -5.7793   25.2156  -28.6060 H   0  0  0  0  0  0  0  0  0  0  0  0
   -7.1008   25.3687  -29.8130 H   0  0  0  0  0  0  0  0  0  0  0  0
   -6.0487   23.9128  -29.8130 H   0  0  0  0  0  0  0  0  0  0  0  0
   -5.5594   25.7036  -31.6123 H   0  0  0  0  0  0  0  0  0  0  0  0
   -4.9463   26.7233  -30.2631 H   0  0  0  0  0  0  0  0  0  0  0  0
   -3.0870   25.6720  -30.8270 H   0  0  0  0  0  0  0  0  0  0  0  0
   -3.0318   25.0628  -28.6981 H   0  0  0  0  0  0  0  0  0  0  0  0
   -4.4914   24.0058  -28.8968 H   0  0  0  0  0  0  0  0  0  0  0  0
   -1.8534   23.3348  -30.2470 H   0  0  0  0  0  0  0  0  0  0  0  0
   -2.2153   22.8590  -28.5276 H   0  0  0  0  0  0  0  0  0  0  0  0
   -3.8913   21.3789  -29.1410 H   0  0  0  0  0  0  0  0  0  0  0  0
   -4.1718   22.1820  -30.7261 H   0  0  0  0  0  0  0  0  0  0  0  0
   -1.4215   21.6442  -32.2218 H   0  0  0  0  0  0  0  0  0  0  0  0
   -2.5504   20.2849  -32.5621 H   0  0  0  0  0  0  0  0  0  0  0  0
   -4.0591   22.5402  -31.5381 H   0  0  0  0  0  0  0  0  0  0  0  0
   -3.0062   23.0875  -32.9009 H   0  0  0  0  0  0  0  0  0  0  0  0
   -4.3580   21.8560  -34.4070 H   0  0  0  0  0  0  0  0  0  0  0  0
   -5.9814   23.4110  -32.6567 H   0  0  0  0  0  0  0  0  0  0  0  0
   -8.0468   24.4187  -31.7098 H   0  0  0  0  0  0  0  0  0  0  0  0
   -9.8844   22.9570  -30.8854 H   0  0  0  0  0  0  0  0  0  0  0  0
   -9.6952   20.4858  -31.0610 H   0  0  0  0  0  0  0  0  0  0  0  0
   -9.0239   18.1418  -30.9188 H   0  0  0  0  0  0  0  0  0  0  0  0
   -9.6913   18.7684  -32.4643 H   0  0  0  0  0  0  0  0  0  0  0  0
   -8.6451   17.3083  -32.4643 H   0  0  0  0  0  0  0  0  0  0  0  0
   -6.9833   16.5281  -31.9813 H   0  0  0  0  0  0  0  0  0  0  0  0
   -3.0056   16.9611  -33.5942 H   0  0  0  0  0  0  0  0  0  0  0  0
   -3.3100   19.4263  -33.7150 H   0  0  0  0  0  0  0  0  0  0  0  0
  1  2  1  0
  2  3  1  0
  3  4  1  0
  4  5  1  0
  5  6  1  0
  6  7  1  0
  7  8  1  0
  8  9  1  0
  9 10  1  0
 10 11  1  0
 11 12  2  0
 12 13  1  0
 13 14  2  0
 14 15  1  0
 15 16  2  0
 16 17  1  0
 17 18  2  0
 18 19  1  0
 18 20  1  0
 20 21  2  0
 21 22  1  0
 22 23  1  0
 22 24  2  0
 24 25  1  0
 25 26  2  0
 26 11  1  0
 17 12  1  0
 26 20  1  0
  1 27  1  0
  1 28  1  0
  1 29  1  0
  2 30  1  0
  2 31  1  0
  3 32  1  0
  4 33  1  0
  4 34  1  0
  5 35  1  0
  5 36  1  0
  6 37  1  0
  6 38  1  0
  8 39  1  0
  8 40  1  0
  9 41  1  0
  9 42  1  0
 10 43  1  0
 13 44  1  0
 14 45  1  0
 15 46  1  0
 16 47  1  0
 19 48  1  0
 19 49  1  0
 19 50  1  0
 21 51  1  0
 24 52  1  0
 25 53  1  0
M  CHG  1  18   1
M  END
>  <UniqueID>  (12) 
11

>  <SMILES>  (12) 
CCNCCCOCCNc1c2ccccc2[n+](C)c2cc(Cl)ccc12

>  <Energy>  (12) 
72.67856870272593

>  <Genealogy>  (12) 
CCNCCCOCCNc1c2ccccc2[n+](C)c2cc(Cl)ccc12 (3D coordinates assigned)
CCNCCCOCCNc1c2ccccc2[n+](C)c2cc(Cl)ccc12 (optimized conformer: 72.67856870272593 kcal/mol)

>  <smiles>  (12) 
CCNCCCOCCNc1c2ccccc2[n+](C)c2cc(Cl)ccc12

>  <score_type>  (12) 
oracle

>  <origin>  (12) 
adg

>  <m_score__min__energy>  (12) 
-8.8499999999999996

>  <m_primary>  (12) 
energy

$$$$
12:0
     RDKit          3D

 52 54  0  0  0  0  0  0  0  0999 V2000
   -9.0560   20.2130  -32.0890 C   0  0  0  0  0  0  0  0  0  0  0  0
   -7.6120   20.4730  -32.2780 N   0  0  0  0  0  0  0  0  0  0  0  0
   -6.8110   19.5180  -32.8780 C   0  0  0  0  0  0  0  0  0  0  0  0
   -7.2500   18.1810  -33.0590 C   0  0  0  0  0  0  0  0  0  0  0  0
   -6.4450   17.2390  -33.6980 C   0  0  0  0  0  0  0  0  0  0  0  0
   -5.1820   17.5930  -34.1570 C   0  0  0  0  0  0  0  0  0  0  0  0
   -4.7060   18.8870  -33.9600 C   0  0  0  0  0  0  0  0  0  0  0  0
   -5.5000   19.8570  -33.3110 C   0  0  0  0  0  0  0  0  0  0  0  0
   -5.0010   21.1470  -33.0620 C   0  0  0  0  0  0  0  0  0  0  0  0
   -3.6900   21.5190  -33.5140 N   0  0  0  0  0  0  0  0  0  0  0  0
   -2.5730   21.5690  -32.5690 C   0  0  0  0  0  0  0  0  0  0  0  0
   -1.9360   20.1840  -32.3580 C   0  0  0  0  0  0  0  0  0  0  0  0
   -1.4440   19.5240  -33.6600 C   0  0  0  0  0  0  0  0  0  0  0  0
   -0.6580   20.4490  -34.4900 N   0  0  0  0  0  0  0  0  0  0  0  0
    0.1160   19.7080  -35.5000 C   0  0  0  0  0  0  0  0  0  0  0  0
    0.8920   20.6530  -36.4360 C   0  0  0  0  0  0  0  0  0  0  0  0
    1.3630   21.9350  -35.7270 C   0  0  0  0  0  0  0  0  0  0  0  0
    0.2300   22.6950  -35.2000 N   0  0  0  0  0  0  0  0  0  0  0  0
   -5.7620   22.0480  -32.2990 C   0  0  0  0  0  0  0  0  0  0  0  0
   -5.2440   23.3130  -31.9490 C   0  0  0  0  0  0  0  0  0  0  0  0
   -5.9790   24.1860  -31.1520 C   0  0  0  0  0  0  0  0  0  0  0  0
   -7.2330   23.8110  -30.6820 C   0  0  0  0  0  0  0  0  0  0  0  0
   -7.7730   22.5740  -31.0320 C   0  0  0  0  0  0  0  0  0  0  0  0
   -7.0680   21.6790  -31.8770 C   0  0  0  0  0  0  0  0  0  0  0  0
   -9.2835   20.1720  -31.0136 H   0  0  0  0  0  0  0  0  0  0  0  0
   -9.6383   21.0207  -32.5565 H   0  0  0  0  0  0  0  0  0  0  0  0
   -9.3200   19.2529  -32.5565 H   0  0  0  0  0  0  0  0  0  0  0  0
   -8.2420   17.8827  -32.6890 H   0  0  0  0  0  0  0  0  0  0  0  0
   -6.8111   16.2114  -33.8394 H   0  0  0  0  0  0  0  0  0  0  0  0
   -4.5578   16.8508  -34.6762 H   0  0  0  0  0  0  0  0  0  0  0  0
   -3.6999   19.1561  -34.3142 H   0  0  0  0  0  0  0  0  0  0  0  0
   -3.5130   21.5360  -34.5440 H   0  0  0  0  0  0  0  0  0  0  0  0
   -1.8079   22.2564  -32.9591 H   0  0  0  0  0  0  0  0  0  0  0  0
   -2.9619   21.9160  -31.6003 H   0  0  0  0  0  0  0  0  0  0  0  0
   -1.0774   20.2963  -31.6796 H   0  0  0  0  0  0  0  0  0  0  0  0
   -2.7171   19.5309  -31.9417 H   0  0  0  0  0  0  0  0  0  0  0  0
   -0.8160   18.6583  -33.4028 H   0  0  0  0  0  0  0  0  0  0  0  0
   -2.3284   19.2197  -34.2390 H   0  0  0  0  0  0  0  0  0  0  0  0
   -1.3010   21.1210  -34.9710 H   0  0  0  0  0  0  0  0  0  0  0  0
    0.0050   20.9700  -33.8780 H   0  0  0  0  0  0  0  0  0  0  0  0
    0.8319   19.0493  -34.9866 H   0  0  0  0  0  0  0  0  0  0  0  0
   -0.5899   19.1267  -36.1114 H   0  0  0  0  0  0  0  0  0  0  0  0
    1.7734   20.1202  -36.8223 H   0  0  0  0  0  0  0  0  0  0  0  0
    0.2106   20.9521  -37.2461 H   0  0  0  0  0  0  0  0  0  0  0  0
    2.0291   21.6611  -34.8956 H   0  0  0  0  0  0  0  0  0  0  0  0
    1.8933   22.5626  -36.4584 H   0  0  0  0  0  0  0  0  0  0  0  0
   -0.5120   22.7480  -35.9360 H   0  0  0  0  0  0  0  0  0  0  0  0
    0.5450   23.6700  -34.9930 H   0  0  0  0  0  0  0  0  0  0  0  0
   -4.2489   23.6124  -32.3098 H   0  0  0  0  0  0  0  0  0  0  0  0
   -5.5677   25.1730  -30.8938 H   0  0  0  0  0  0  0  0  0  0  0  0
   -7.8009   24.4927  -30.0318 H   0  0  0  0  0  0  0  0  0  0  0  0
   -8.7625   22.2873  -30.6463 H   0  0  0  0  0  0  0  0  0  0  0  0
  1  2  1  0
  2  3  2  0
  3  4  1  0
  4  5  2  0
  5  6  1  0
  6  7  2  0
  7  8  1  0
  8  9  2  0
  9 10  1  0
 10 11  1  0
 11 12  1  0
 12 13  1  0
 13 14  1  0
 14 15  1  0
 15 16  1  0
 16 17  1  0
 17 18  1  0
  9 19  1  0
 19 20  2  0
 20 21  1  0
 21 22  2  0
 22 23  1  0
 23 24  2  0
 24  2  1  0
  8  3  1  0
 24 19  1  0
  1 25  1  0
  1 26  1  0
  1 27  1  0
  4 28  1  0
  5 29  1  0
  6 30  1  0
  7 31  1  0
 10 32  1  0
 11 33  1  0
 11 34  1  0
 12 35  1  0
 12 36  1  0
 13 37  1  0
 13 38  1  0
 14 39  1  0
 14 40  1  0
 15 41  1  0
 15 42  1  0
 16 43  1  0
 16 44  1  0
 17 45  1  0
 17 46  1  0
 18 47  1  0
 18 48  1  0
 20 49  1  0
 21 50  1  0
 22 51  1  0
 23 52  1  0
M  CHG  2   2   1  14   1
M  END
>  <UniqueID>  (13) 
12

>  <SMILES>  (13) 
C[n+]1c2ccccc2c(NCCC[NH2+]CCCN)c2ccccc21

>  <Energy>  (13) 
71.62157733929733

>  <Genealogy>  (13) 
C[n+]1c2ccccc2c(NCCC[NH2+]CCCN)c2ccccc21 (protonated)
C[n+]1c2ccccc2c(NCCC[NH2+]CCCN)c2ccccc21 (3D coordinates assigned)
C[n+]1c2ccccc2c(NCCC[NH2+]CCCN)c2ccccc21 (optimized conformer: 71.62157733929733 kcal/mol)

>  <smiles>  (13) 
C[n+]1c2ccccc2c(NCCCNCCCN)c2ccccc21

>  <score_type>  (13) 
oracle

>  <origin>  (13) 
adg

>  <m_score__min__energy>  (13) 
-8.0199999999999996

>  <m_primary>  (13) 
energy

$$$$
13:0
     RDKit          3D

 79 84  0  0  0  0  0  0  0  0999 V2000
   -4.6060   14.1380  -31.9180 C   0  0  0  0  0  0  0  0  0  0  0  0
   -5.0050   15.6020  -32.1560 C   0  0  0  0  0  0  0  0  0  0  0  0
   -4.1940   16.2970  -33.1890 N   0  0  1  0  0  0  0  0  0  0  0  0
   -3.0760   15.4550  -33.6620 C   0  0  0  0  0  0  0  0  0  0  0  0
   -5.0320   16.7850  -34.3120 C   0  0  0  0  0  0  0  0  0  0  0  0
   -5.0740   18.3190  -34.3920 C   0  0  0  0  0  0  0  0  0  0  0  0
   -4.3920   18.8750  -33.2190 N   0  0  0  0  0  0  0  0  0  0  0  0
   -3.5410   20.0150  -33.5860 C   0  0  0  0  0  0  0  0  0  0  0  0
   -3.3930   20.9780  -32.4050 C   0  0  0  0  0  0  0  0  0  0  0  0
   -4.4390   20.7910  -31.3920 N   0  0  0  0  0  0  0  0  0  0  0  0
   -4.9920   21.8710  -30.6190 C   0  0  0  0  0  0  0  0  0  0  0  0
   -6.3640   22.2500  -30.7540 C   0  0  0  0  0  0  0  0  0  0  0  0
   -7.4330   21.5040  -31.5650 C   0  0  0  0  0  0  0  0  0  0  0  0
   -8.9050   21.7500  -31.1790 C   0  0  0  0  0  0  0  0  0  0  0  0
   -9.8600   21.1720  -32.2430 C   0  0  0  0  0  0  0  0  0  0  0  0
   -9.3390   19.8710  -32.8910 C   0  0  0  0  0  0  0  0  0  0  0  0
   -8.3550   19.1260  -31.9810 C   0  0  0  0  0  0  0  0  0  0  0  0
   -7.1210   19.9900  -31.6510 C   0  0  0  0  0  0  0  0  0  0  0  0
   -6.7920   23.4380  -30.1320 C   0  0  0  0  0  0  0  0  0  0  0  0
   -5.9290   24.2080  -29.3620 C   0  0  0  0  0  0  0  0  0  0  0  0
   -4.6170   23.7880  -29.1400 C   0  0  0  0  0  0  0  0  0  0  0  0
   -3.7730   24.5340  -28.3130 C   0  0  0  0  0  0  0  0  0  0  0  0
   -2.4700   24.0820  -28.0440 C   0  0  0  0  0  0  0  0  0  0  0  0
   -2.0280   22.9150  -28.6230 N   0  0  0  0  0  0  0  0  0  0  0  0
   -2.8510   22.1680  -29.4200 C   0  0  0  0  0  0  0  0  0  0  0  0
   -4.1500   22.6030  -29.7390 C   0  0  0  0  0  0  0  0  0  0  0  0
   -0.6850   22.3950  -28.3140 C   0  0  0  0  0  0  0  0  0  0  0  0
    0.3370   23.5310  -28.2200 C   0  0  0  0  0  0  0  0  0  0  0  0
   -0.1460   24.5800  -27.2600 C   0  0  0  0  0  0  0  0  0  0  0  0
    0.7810   25.3090  -26.4850 C   0  0  0  0  0  0  0  0  0  0  0  0
    0.2880   26.2770  -25.6200 C   0  0  0  0  0  0  0  0  0  0  0  0
   -1.0380   26.5340  -25.5110 C   0  0  0  0  0  0  0  0  0  0  0  0
   -1.9890   25.8540  -26.2650 C   0  0  0  0  0  0  0  0  0  0  0  0
   -1.5380   24.8670  -27.1800 C   0  0  0  0  0  0  0  0  0  0  0  0
   -1.2380   27.5290  -24.5740 O   0  0  0  0  0  0  0  0  0  0  0  0
    0.0440   27.9230  -24.0650 C   0  0  0  0  0  0  0  0  0  0  0  0
    0.9900   27.0980  -24.7590 O   0  0  0  0  0  0  0  0  0  0  0  0
   -4.5530   13.9436  -30.8366 H   0  0  0  0  0  0  0  0  0  0  0  0
   -5.3562   13.4748  -32.3735 H   0  0  0  0  0  0  0  0  0  0  0  0
   -3.6231   13.9472  -32.3735 H   0  0  0  0  0  0  0  0  0  0  0  0
   -6.0583   15.6249  -32.4722 H   0  0  0  0  0  0  0  0  0  0  0  0
   -4.8311   16.1337  -31.2089 H   0  0  0  0  0  0  0  0  0  0  0  0
   -3.7710   17.1270  -32.7080 H   0  0  0  0  0  0  0  0  0  0  0  0
   -2.5333   15.0463  -32.7969 H   0  0  0  0  0  0  0  0  0  0  0  0
   -3.4715   14.6285  -34.2706 H   0  0  0  0  0  0  0  0  0  0  0  0
   -2.3908   16.0633  -34.2706 H   0  0  0  0  0  0  0  0  0  0  0  0
   -4.6213   16.3938  -35.2545 H   0  0  0  0  0  0  0  0  0  0  0  0
   -6.0593   16.4311  -34.1406 H   0  0  0  0  0  0  0  0  0  0  0  0
   -4.5661   18.6550  -35.3081 H   0  0  0  0  0  0  0  0  0  0  0  0
   -6.1188   18.6625  -34.4130 H   0  0  0  0  0  0  0  0  0  0  0  0
   -5.1260   19.2080  -32.5500 H   0  0  0  0  0  0  0  0  0  0  0  0
   -2.5470   19.6451  -33.8778 H   0  0  0  0  0  0  0  0  0  0  0  0
   -4.0084   20.5513  -34.4250 H   0  0  0  0  0  0  0  0  0  0  0  0
   -2.4127   20.8112  -31.9347 H   0  0  0  0  0  0  0  0  0  0  0  0
   -3.4855   22.0022  -32.7955 H   0  0  0  0  0  0  0  0  0  0  0  0
   -4.6410   19.8150  -31.0800 H   0  0  0  0  0  0  0  0  0  0  0  0
   -7.3543   21.9623  -32.5619 H   0  0  0  0  0  0  0  0  0  0  0  0
   -9.1089   21.2666  -30.2122 H   0  0  0  0  0  0  0  0  0  0  0  0
   -9.0725   22.8350  -31.1106 H   0  0  0  0  0  0  0  0  0  0  0  0
  -10.8279   20.9604  -31.7650 H   0  0  0  0  0  0  0  0  0  0  0  0
   -9.9472   21.9216  -33.0433 H   0  0  0  0  0  0  0  0  0  0  0  0
  -10.1947   19.2127  -33.1020 H   0  0  0  0  0  0  0  0  0  0  0  0
   -8.8065   20.1427  -33.8144 H   0  0  0  0  0  0  0  0  0  0  0  0
   -8.8662   18.8610  -31.0437 H   0  0  0  0  0  0  0  0  0  0  0  0
   -8.0122   18.2246  -32.5101 H   0  0  0  0  0  0  0  0  0  0  0  0
   -6.7154   19.6624  -30.6824 H   0  0  0  0  0  0  0  0  0  0  0  0
   -6.4015   19.8538  -32.4718 H   0  0  0  0  0  0  0  0  0  0  0  0
   -7.8347   23.7646  -30.2586 H   0  0  0  0  0  0  0  0  0  0  0  0
   -6.2820   25.1538  -28.9251 H   0  0  0  0  0  0  0  0  0  0  0  0
   -4.1292   25.4766  -27.8719 H   0  0  0  0  0  0  0  0  0  0  0  0
   -2.4901   21.2086  -29.8192 H   0  0  0  0  0  0  0  0  0  0  0  0
   -0.7186   21.8614  -27.3527 H   0  0  0  0  0  0  0  0  0  0  0  0
   -0.3787   21.7151  -29.1227 H   0  0  0  0  0  0  0  0  0  0  0  0
    1.2975   23.1282  -27.8661 H   0  0  0  0  0  0  0  0  0  0  0  0
    0.4652   23.9838  -29.2143 H   0  0  0  0  0  0  0  0  0  0  0  0
    1.8611   25.1163  -26.5637 H   0  0  0  0  0  0  0  0  0  0  0  0
   -3.0609   26.0751  -26.1551 H   0  0  0  0  0  0  0  0  0  0  0  0
    0.2324   28.9864  -24.2738 H   0  0  0  0  0  0  0  0  0  0  0  0
    0.1106   27.7990  -22.9740 H   0  0  0  0  0  0  0  0  0  0  0  0
  1  2  1  0
  2  3  1  0
  3  4  1  0
  3  5  1  0
  5  6  1  0
  6  7  1  0
  7  8  1  0
  8  9  1  0
  9 10  1  0
 10 11  1  0
 11 12  2  0
 12 13  1  0
 13 14  1  0
 14 15  1  0
 15 16  1  0
 16 17  1  0
 17 18  1  0
 12 19  1  0
 19 20  2  0
 20 21  1  0
 21 22  2  0
 22 23  1  0
 23 24  2  0
 24 25  1  0
 25 26  2  0
 24 27  1  0
 27 28  1  0
 28 29  1  0
 29 30  2  0
 30 31  1  0
 31 32  2  0
 32 33  1  0
 33 34  2  0
 32 35  1  0
 35 36  1  0
 36 37  1  0
 26 11  1  0
 34 29  1  0
 18 13  1  0
 26 21  1  0
 37 31  1  0
 34 23  1  0
  1 38  1  0
  1 39  1  0
  1 40  1  0
  2 41  1  0
  2 42  1  0
  3 43  1  1
  4 44  1  0
  4 45  1  0
  4 46  1  0
  5 47  1  0
  5 48  1  0
  6 49  1  0
  6 50  1  0
  7 51  1  0
  8 52  1  0
  8 53  1  0
  9 54  1  0
  9 55  1  0
 10 56  1  0
 13 57  1  0
 14 58  1  0
 14 59  1  0
 15 60  1  0
 15 61  1  0
 16 62  1  0
 16 63  1  0
 17 64  1  0
 17 65  1  0
 18 66  1  0
 18 67  1  0
 19 68  1  0
 20 69  1  0
 22 70  1  0
 25 71  1  0
 27 72  1  0
 27 73  1  0
 28 74  1  0
 28 75  1  0
 30 76  1  0
 33 77  1  0
 36 78  1  0
 36 79  1  0
M  CHG  2   3   1  24   1
M  END
>  <UniqueID>  (14) 
13

>  <SMILES>  (14) 
CC[N@@H+](C)CCNCCNc1c(C2CCCCC2)ccc2cc3[n+](cc12)CCc1cc2c(cc1-3)OCO2

>  <Energy>  (14) 
133.49307865483698

>  <Genealogy>  (14) 
CC[NH+](C)CCNCCNc1c(C2CCCCC2)ccc2cc3[n+](cc12)CCc1cc2c(cc1-3)OCO2 (protonated)
CC[N@@H+](C)CCNCCNc1c(C2CCCCC2)ccc2cc3[n+](cc12)CCc1cc2c(cc1-3)OCO2 (chirality)
CC[N@@H+](C)CCNCCNc1c(C2CCCCC2)ccc2cc3[n+](cc12)CCc1cc2c(cc1-3)OCO2 (3D coordinates assigned)
CC[N@@H+](C)CCNCCNc1c(C2CCCCC2)ccc2cc3[n+](cc12)CCc1cc2c(cc1-3)OCO2 (nonaromatic ring conformer: 133.49307865483698 kcal/mol)

>  <smiles>  (14) 
CCN(C)CCNCCNc1c(C2CCCCC2)ccc2cc3[n+](cc12)CCc1cc2c(cc1-3)OCO2

>  <score_type>  (14) 
oracle

>  <origin>  (14) 
adg

>  <m_score__min__energy>  (14) 
-8.0099999999999998

>  <m_primary>  (14) 
energy

$$$$
14:0
     RDKit          3D

 62 65  0  0  0  0  0  0  0  0999 V2000
   -1.9860   24.5160  -28.8500 C   0  0  0  0  0  0  0  0  0  0  0  0
   -3.5090   24.5530  -28.9680 C   0  0  0  0  0  0  0  0  0  0  0  0
   -3.9190   24.7320  -30.3790 N   0  0  0  0  0  0  0  0  0  0  0  0
   -5.0700   25.6600  -30.5020 C   0  0  0  0  0  0  0  0  0  0  0  0
   -6.0820   25.4930  -29.3680 C   0  0  0  0  0  0  0  0  0  0  0  0
   -4.1060   23.4300  -31.0700 C   0  0  0  0  0  0  0  0  0  0  0  0
   -5.5760   22.9720  -31.1660 C   0  0  0  0  0  0  0  0  0  0  0  0
   -5.8550   22.4020  -32.4860 N   0  0  0  0  0  0  0  0  0  0  0  0
   -5.8010   20.9850  -32.7090 C   0  0  0  0  0  0  0  0  0  0  0  0
   -4.6000   20.3720  -33.1000 C   0  0  0  0  0  0  0  0  0  0  0  0
   -4.5390   18.9630  -33.2040 C   0  0  0  0  0  0  0  0  0  0  0  0
   -5.5900   18.1980  -32.7350 N   0  0  0  0  0  0  0  0  0  0  0  0
   -5.3760   16.7950  -32.3260 C   0  0  0  0  0  0  0  0  0  0  0  0
   -6.8230   18.7830  -32.5230 C   0  0  0  0  0  0  0  0  0  0  0  0
   -7.9840   18.0050  -32.2920 C   0  0  0  0  0  0  0  0  0  0  0  0
   -9.2180   18.6120  -32.0510 C   0  0  0  0  0  0  0  0  0  0  0  0
   -9.3270   19.9990  -32.0440 C   0  0  0  0  0  0  0  0  0  0  0  0
   -8.2050   20.7880  -32.2830 C   0  0  0  0  0  0  0  0  0  0  0  0
   -6.9470   20.1960  -32.5180 C   0  0  0  0  0  0  0  0  0  0  0  0
   -3.2850   18.3630  -33.7730 C   0  0  0  0  0  0  0  0  0  0  0  0
   -3.2800   17.1510  -34.4920 C   0  0  0  0  0  0  0  0  0  0  0  0
   -2.0810   16.6130  -34.9820 C   0  0  0  0  0  0  0  0  0  0  0  0
   -2.0720   15.2830  -35.6770 C   0  0  0  0  0  0  0  0  0  0  0  0
   -0.8790   17.2980  -34.7680 C   0  0  0  0  0  0  0  0  0  0  0  0
   -0.8820   18.5460  -34.1390 C   0  0  0  0  0  0  0  0  0  0  0  0
   -2.0880   19.0990  -33.6760 C   0  0  0  0  0  0  0  0  0  0  0  0
   -2.1610   20.4580  -33.2060 N   0  0  0  0  0  0  0  0  0  0  0  0
   -0.9930   21.1460  -32.6490 C   0  0  0  0  0  0  0  0  0  0  0  0
   -3.3920   21.1940  -33.5060 C   0  0  0  0  0  0  0  0  0  0  0  0
   -1.7006   24.5091  -27.7877 H   0  0  0  0  0  0  0  0  0  0  0  0
   -1.6023   23.6083  -29.3387 H   0  0  0  0  0  0  0  0  0  0  0  0
   -1.5587   25.4040  -29.3387 H   0  0  0  0  0  0  0  0  0  0  0  0
   -3.9239   23.6076  -28.5883 H   0  0  0  0  0  0  0  0  0  0  0  0
   -3.8895   25.4001  -28.3784 H   0  0  0  0  0  0  0  0  0  0  0  0
   -4.6928   26.6932  -30.4886 H   0  0  0  0  0  0  0  0  0  0  0  0
   -5.5854   25.4292  -31.4460 H   0  0  0  0  0  0  0  0  0  0  0  0
   -5.5658   25.5782  -28.4004 H   0  0  0  0  0  0  0  0  0  0  0  0
   -6.8504   26.2765  -29.4439 H   0  0  0  0  0  0  0  0  0  0  0  0
   -6.5579   24.5042  -29.4439 H   0  0  0  0  0  0  0  0  0  0  0  0
   -3.7051   23.5200  -32.0904 H   0  0  0  0  0  0  0  0  0  0  0  0
   -3.5774   22.6744  -30.4703 H   0  0  0  0  0  0  0  0  0  0  0  0
   -5.7681   22.2105  -30.3958 H   0  0  0  0  0  0  0  0  0  0  0  0
   -6.2290   23.8437  -31.0117 H   0  0  0  0  0  0  0  0  0  0  0  0
   -6.1000   23.0360  -33.2790 H   0  0  0  0  0  0  0  0  0  0  0  0
   -5.3662   16.7306  -31.2279 H   0  0  0  0  0  0  0  0  0  0  0  0
   -6.1891   16.1693  -32.7227 H   0  0  0  0  0  0  0  0  0  0  0  0
   -4.4133   16.4402  -32.7227 H   0  0  0  0  0  0  0  0  0  0  0  0
   -7.9123   16.9074  -32.3026 H   0  0  0  0  0  0  0  0  0  0  0  0
  -10.1072   17.9914  -31.8660 H   0  0  0  0  0  0  0  0  0  0  0  0
  -10.3005   20.4727  -31.8495 H   0  0  0  0  0  0  0  0  0  0  0  0
   -8.3009   21.8838  -32.2886 H   0  0  0  0  0  0  0  0  0  0  0  0
   -4.2271   16.6209  -34.6709 H   0  0  0  0  0  0  0  0  0  0  0  0
   -2.0666   14.4777  -34.9276 H   0  0  0  0  0  0  0  0  0  0  0  0
   -2.9696   15.1921  -36.3064 H   0  0  0  0  0  0  0  0  0  0  0  0
   -1.1733   15.2043  -36.3064 H   0  0  0  0  0  0  0  0  0  0  0  0
    0.0715   16.8522  -35.0962 H   0  0  0  0  0  0  0  0  0  0  0  0
    0.0612   19.0963  -34.0061 H   0  0  0  0  0  0  0  0  0  0  0  0
   -1.0404   21.1181  -31.5504 H   0  0  0  0  0  0  0  0  0  0  0  0
   -0.0751   20.6443  -32.9893 H   0  0  0  0  0  0  0  0  0  0  0  0
   -0.9868   22.1920  -32.9893 H   0  0  0  0  0  0  0  0  0  0  0  0
   -3.3936   22.1431  -32.9499 H   0  0  0  0  0  0  0  0  0  0  0  0
   -3.4385   21.3946  -34.5866 H   0  0  0  0  0  0  0  0  0  0  0  0
  1  2  1  0
  2  3  1  0
  3  4  1  0
  4  5  1  0
  3  6  1  0
  6  7  1  0
  7  8  1  0
  8  9  1  0
  9 10  2  0
 10 11  1  0
 11 12  2  0
 12 13  1  0
 12 14  1  0
 14 15  2  0
 15 16  1  0
 16 17  2  0
 17 18  1  0
 18 19  2  0
 11 20  1  0
 20 21  2  0
 21 22  1  0
 22 23  1  0
 22 24  2  0
 24 25  1  0
 25 26  2  0
 26 27  1  0
 27 28  1  0
 27 29  1  0
 19  9  1  0
 26 20  1  0
 29 10  1  0
 19 14  1  0
  1 30  1  0
  1 31  1  0
  1 32  1  0
  2 33  1  0
  2 34  1  0
  4 35  1  0
  4 36  1  0
  5 37  1  0
  5 38  1  0
  5 39  1  0
  6 40  1  0
  6 41  1  0
  7 42  1  0
  7 43  1  0
  8 44  1  0
 13 45  1  0
 13 46  1  0
 13 47  1  0
 15 48  1  0
 16 49  1  0
 17 50  1  0
 18 51  1  0
 21 52  1  0
 23 53  1  0
 23 54  1  0
 23 55  1  0
 24 56  1  0
 25 57  1  0
 28 58  1  0
 28 59  1  0
 28 60  1  0
 29 61  1  0
 29 62  1  0
M  CHG  1  12   1
M  END
>  <UniqueID>  (15) 
14

>  <SMILES>  (15) 
CCN(CC)CCNc1c2c([n+](C)c3ccccc13)-c1cc(C)ccc1N(C)C2

>  <Energy>  (15) 
97.70788651393877

>  <Genealogy>  (15) 
CCN(CC)CCNc1c2c([n+](C)c3ccccc13)-c1cc(C)ccc1N(C)C2 (3D coordinates assigned)
CCN(CC)CCNc1c2c([n+](C)c3ccccc13)-c1cc(C)ccc1N(C)C2 (nonaromatic ring conformer: 97.70788651393877 kcal/mol)

>  <smiles>  (15) 
CCN(CC)CCNc1c2c([n+](C)c3ccccc13)-c1cc(C)ccc1N(C)C2

>  <score_type>  (15) 
oracle

>  <origin>  (15) 
adg

>  <m_score__min__energy>  (15) 
-9.7599999999999998

>  <m_primary>  (15) 
energy

$$$$
15:0
     RDKit          3D

 57 59  0  0  0  0  0  0  0  0999 V2000
   -1.2550   25.9960  -26.7650 C   0  0  0  0  0  0  0  0  0  0  0  0
   -0.9620   26.4990  -28.1780 C   0  0  0  0  0  0  0  0  0  0  0  0
   -1.1520   25.4210  -29.1590 N   0  0  0  0  0  0  0  0  0  0  0  0
   -1.4060   24.1320  -28.4980 C   0  0  0  0  0  0  0  0  0  0  0  0
   -2.8530   23.6860  -28.7300 C   0  0  0  0  0  0  0  0  0  0  0  0
   -3.2330   23.7360  -30.2170 C   0  0  0  0  0  0  0  0  0  0  0  0
   -3.8870   24.9510  -30.5280 O   0  0  0  0  0  0  0  0  0  0  0  0
   -5.2400   24.7440  -30.8920 C   0  0  0  0  0  0  0  0  0  0  0  0
   -5.5570   23.2460  -30.9530 C   0  0  0  0  0  0  0  0  0  0  0  0
   -5.8810   22.8220  -32.3160 N   0  0  0  0  0  0  0  0  0  0  0  0
   -5.8500   21.4320  -32.6750 C   0  0  0  0  0  0  0  0  0  0  0  0
   -4.6330   20.8610  -33.0880 C   0  0  0  0  0  0  0  0  0  0  0  0
   -3.4560   21.6390  -33.1630 C   0  0  0  0  0  0  0  0  0  0  0  0
   -2.2390   21.0630  -33.5180 C   0  0  0  0  0  0  0  0  0  0  0  0
   -2.1710   19.7050  -33.7950 C   0  0  0  0  0  0  0  0  0  0  0  0
   -3.3240   18.9220  -33.7530 C   0  0  0  0  0  0  0  0  0  0  0  0
   -4.5860   19.4890  -33.4410 C   0  0  0  0  0  0  0  0  0  0  0  0
   -5.7480   18.7410  -33.4660 N   0  0  0  0  0  0  0  0  0  0  0  0
   -5.7530   17.4130  -34.1200 C   0  0  0  0  0  0  0  0  0  0  0  0
   -6.9140   19.2460  -32.9180 C   0  0  0  0  0  0  0  0  0  0  0  0
   -8.0290   18.4070  -32.6770 C   0  0  0  0  0  0  0  0  0  0  0  0
   -9.2220   18.9190  -32.1880 C   0  0  0  0  0  0  0  0  0  0  0  0
   -9.3450   20.2740  -31.9200 C   0  0  0  0  0  0  0  0  0  0  0  0
   -8.2560   21.1440  -32.1000 C   0  0  0  0  0  0  0  0  0  0  0  0
   -8.3980   22.5160  -31.8300 O   0  0  0  0  0  0  0  0  0  0  0  0
   -9.4510   23.3440  -32.3050 C   0  0  0  0  0  0  0  0  0  0  0  0
   -7.0090   20.6250  -32.5650 C   0  0  0  0  0  0  0  0  0  0  0  0
   -0.8426   26.7039  -26.0309 H   0  0  0  0  0  0  0  0  0  0  0  0
   -2.3427   25.9131  -26.6235 H   0  0  0  0  0  0  0  0  0  0  0  0
   -0.7905   25.0090  -26.6235 H   0  0  0  0  0  0  0  0  0  0  0  0
   -1.6442   27.3286  -28.4154 H   0  0  0  0  0  0  0  0  0  0  0  0
    0.0824   26.8412  -28.2239 H   0  0  0  0  0  0  0  0  0  0  0  0
   -2.0000   25.6540  -29.7280 H   0  0  0  0  0  0  0  0  0  0  0  0
   -0.7232   23.3737  -28.9089 H   0  0  0  0  0  0  0  0  0  0  0  0
   -1.2383   24.2474  -27.4170 H   0  0  0  0  0  0  0  0  0  0  0  0
   -2.9703   22.6543  -28.3669 H   0  0  0  0  0  0  0  0  0  0  0  0
   -3.5150   24.3745  -28.1843 H   0  0  0  0  0  0  0  0  0  0  0  0
   -2.3204   23.6517  -30.8254 H   0  0  0  0  0  0  0  0  0  0  0  0
   -3.9166   22.9021  -30.4343 H   0  0  0  0  0  0  0  0  0  0  0  0
   -5.8925   25.2219  -30.1464 H   0  0  0  0  0  0  0  0  0  0  0  0
   -5.4123   25.1845  -31.8851 H   0  0  0  0  0  0  0  0  0  0  0  0
   -4.6814   22.6806  -30.6013 H   0  0  0  0  0  0  0  0  0  0  0  0
   -6.4309   23.0515  -30.3138 H   0  0  0  0  0  0  0  0  0  0  0  0
   -6.3110   23.4890  -32.9940 H   0  0  0  0  0  0  0  0  0  0  0  0
   -3.5017   22.7147  -32.9378 H   0  0  0  0  0  0  0  0  0  0  0  0
   -1.3328   21.6836  -33.5788 H   0  0  0  0  0  0  0  0  0  0  0  0
   -1.2046   19.2448  -34.0485 H   0  0  0  0  0  0  0  0  0  0  0  0
   -3.2535   17.8451  -33.9657 H   0  0  0  0  0  0  0  0  0  0  0  0
   -5.7560   16.6259  -33.3516 H   0  0  0  0  0  0  0  0  0  0  0  0
   -6.6515   17.3165  -34.7472 H   0  0  0  0  0  0  0  0  0  0  0  0
   -4.8552   17.3098  -34.7472 H   0  0  0  0  0  0  0  0  0  0  0  0
   -7.9477   17.3292  -32.8813 H   0  0  0  0  0  0  0  0  0  0  0  0
  -10.0747   18.2467  -32.0120 H   0  0  0  0  0  0  0  0  0  0  0  0
  -10.3059   20.6725  -31.5624 H   0  0  0  0  0  0  0  0  0  0  0  0
   -9.9951   23.7719  -31.4501 H   0  0  0  0  0  0  0  0  0  0  0  0
   -9.0313   24.1565  -32.9163 H   0  0  0  0  0  0  0  0  0  0  0  0
  -10.1416   22.7445  -32.9163 H   0  0  0  0  0  0  0  0  0  0  0  0
  1  2  1  0
  2  3  1  0
  3  4  1  0
  4  5  1  0
  5  6  1  0
  6  7  1  0
  7  8  1  0
  8  9  1  0
  9 10  1  0
 10 11  1  0
 11 12  2  0
 12 13  1  0
 13 14  2  0
 14 15  1  0
 15 16  2  0
 16 17  1  0
 17 18  2  0
 18 19  1  0
 18 20  1  0
 20 21  2  0
 21 22  1  0
 22 23  2  0
 23 24  1  0
 24 25  1  0
 25 26  1  0
 24 27  2  0
 27 11  1  0
 17 12  1  0
 27 20  1  0
  1 28  1  0
  1 29  1  0
  1 30  1  0
  2 31  1  0
  2 32  1  0
  3 33  1  0
  4 34  1  0
  4 35  1  0
  5 36  1  0
  5 37  1  0
  6 38  1  0
  6 39  1  0
  8 40  1  0
  8 41  1  0
  9 42  1  0
  9 43  1  0
 10 44  1  0
 13 45  1  0
 14 46  1  0
 15 47  1  0
 16 48  1  0
 19 49  1  0
 19 50  1  0
 19 51  1  0
 21 52  1  0
 22 53  1  0
 23 54  1  0
 26 55  1  0
 26 56  1  0
 26 57  1  0
M  CHG  1  18   1
M  END
>  <UniqueID>  (16) 
15

>  <SMILES>  (16) 
CCNCCCOCCNc1c2ccccc2[n+](C)c2cccc(OC)c12

>  <Energy>  (16) 
82.69626551422962

>  <Genealogy>  (16) 
CCNCCCOCCNc1c2ccccc2[n+](C)c2cccc(OC)c12 (3D coordinates assigned)
CCNCCCOCCNc1c2ccccc2[n+](C)c2cccc(OC)c12 (optimized conformer: 82.69626551422962 kcal/mol)

>  <smiles>  (16) 
CCNCCCOCCNc1c2ccccc2[n+](C)c2cccc(OC)c12

>  <score_type>  (16) 
oracle

>  <origin>  (16) 
adg

>  <m_score__min__energy>  (16) 
-8.8599999999999994

>  <m_primary>  (16) 
energy

$$$$
16:0
     RDKit          3D

 64 67  0  0  0  0  0  0  0  0999 V2000
    1.0860   24.1450  -27.6230 C   0  0  0  0  0  0  0  0  0  0  0  0
   -0.0520   23.6810  -28.5380 C   0  0  0  0  0  0  0  0  0  0  0  0
   -0.8500   24.8030  -29.0590 N   0  0  0  0  0  0  0  0  0  0  0  0
   -1.3570   25.6750  -27.9900 C   0  0  0  0  0  0  0  0  0  0  0  0
   -2.1240   24.8500  -26.9500 C   0  0  0  0  0  0  0  0  0  0  0  0
   -3.5710   24.5500  -27.3810 C   0  0  0  0  0  0  0  0  0  0  0  0
   -3.6350   24.1910  -28.7500 O   0  0  0  0  0  0  0  0  0  0  0  0
   -4.1720   22.8920  -28.9250 C   0  0  0  0  0  0  0  0  0  0  0  0
   -3.0600   21.9210  -29.3240 C   0  0  0  0  0  0  0  0  0  0  0  0
   -2.2390   22.4710  -30.3360 O   0  0  0  0  0  0  0  0  0  0  0  0
   -2.5600   21.9560  -31.6200 C   0  0  0  0  0  0  0  0  0  0  0  0
   -3.8030   22.6540  -32.1690 C   0  0  0  0  0  0  0  0  0  0  0  0
   -4.4380   21.8400  -33.2060 N   0  0  0  0  0  0  0  0  0  0  0  0
   -5.5530   20.9840  -32.9090 C   0  0  0  0  0  0  0  0  0  0  0  0
   -5.4590   19.6130  -33.1150 C   0  0  0  0  0  0  0  0  0  0  0  0
   -6.5420   18.7790  -32.8560 C   0  0  0  0  0  0  0  0  0  0  0  0
   -7.7450   19.2430  -32.3980 N   0  0  0  0  0  0  0  0  0  0  0  0
   -8.8490   18.3030  -32.1310 C   0  0  0  0  0  0  0  0  0  0  0  0
   -7.8940   20.6090  -32.2140 C   0  0  0  0  0  0  0  0  0  0  0  0
   -9.1290   21.1660  -31.8000 C   0  0  0  0  0  0  0  0  0  0  0  0
   -9.2640   22.5400  -31.5980 C   0  0  0  0  0  0  0  0  0  0  0  0
   -8.1820   23.3910  -31.8020 C   0  0  0  0  0  0  0  0  0  0  0  0
   -6.9560   22.8810  -32.2250 C   0  0  0  0  0  0  0  0  0  0  0  0
   -6.7920   21.5000  -32.4540 C   0  0  0  0  0  0  0  0  0  0  0  0
   -6.1340   17.4360  -33.2710 C   0  0  0  0  0  0  0  0  0  0  0  0
   -6.6860   16.2550  -33.3850 O   0  0  0  0  0  0  0  0  0  0  0  0
   -5.7700   15.4690  -33.9420 C   0  0  0  0  0  0  0  0  0  0  0  0
   -4.5910   16.1870  -34.1830 C   0  0  0  0  0  0  0  0  0  0  0  0
   -3.3790   15.7340  -34.9300 C   0  0  0  0  0  0  0  0  0  0  0  0
   -4.8770   17.4500  -33.7320 C   0  0  0  0  0  0  0  0  0  0  0  0
   -4.3610   18.8050  -33.6950 C   0  0  0  0  0  0  0  0  0  0  0  0
   -3.2500   19.2040  -34.1340 O   0  0  0  0  0  0  0  0  0  0  0  0
    0.7848   24.0222  -26.5722 H   0  0  0  0  0  0  0  0  0  0  0  0
    1.9842   23.5413  -27.8200 H   0  0  0  0  0  0  0  0  0  0  0  0
    1.3060   25.2046  -27.8200 H   0  0  0  0  0  0  0  0  0  0  0  0
    0.3801   23.1312  -29.3872 H   0  0  0  0  0  0  0  0  0  0  0  0
   -0.7213   23.0435  -27.9417 H   0  0  0  0  0  0  0  0  0  0  0  0
   -1.6550   24.4290  -29.6110 H   0  0  0  0  0  0  0  0  0  0  0  0
   -0.5106   26.1793  -27.5008 H   0  0  0  0  0  0  0  0  0  0  0  0
   -2.0371   26.4203  -28.4282 H   0  0  0  0  0  0  0  0  0  0  0  0
   -1.5968   23.8965  -26.7985 H   0  0  0  0  0  0  0  0  0  0  0  0
   -2.1686   25.4412  -26.0234 H   0  0  0  0  0  0  0  0  0  0  0  0
   -3.9612   23.7198  -26.7740 H   0  0  0  0  0  0  0  0  0  0  0  0
   -4.1739   25.4577  -27.2309 H   0  0  0  0  0  0  0  0  0  0  0  0
   -4.6295   22.5560  -27.9827 H   0  0  0  0  0  0  0  0  0  0  0  0
   -4.9335   22.9177  -29.7183 H   0  0  0  0  0  0  0  0  0  0  0  0
   -2.4421   21.7008  -28.4410 H   0  0  0  0  0  0  0  0  0  0  0  0
   -3.5231   21.0020  -29.7125 H   0  0  0  0  0  0  0  0  0  0  0  0
   -1.7148   22.1277  -32.3027 H   0  0  0  0  0  0  0  0  0  0  0  0
   -2.7598   20.8776  -31.5361 H   0  0  0  0  0  0  0  0  0  0  0  0
   -4.5180   22.8160  -31.3489 H   0  0  0  0  0  0  0  0  0  0  0  0
   -3.5027   23.6163  -32.6093 H   0  0  0  0  0  0  0  0  0  0  0  0
   -4.2420   22.0740  -34.2060 H   0  0  0  0  0  0  0  0  0  0  0  0
   -8.9806   18.1910  -31.0447 H   0  0  0  0  0  0  0  0  0  0  0  0
   -9.7773   18.6922  -32.5746 H   0  0  0  0  0  0  0  0  0  0  0  0
   -8.6128   17.3245  -32.5746 H   0  0  0  0  0  0  0  0  0  0  0  0
   -9.9936   20.5061  -31.6355 H   0  0  0  0  0  0  0  0  0  0  0  0
  -10.2313   22.9529  -31.2756 H   0  0  0  0  0  0  0  0  0  0  0  0
   -8.2950   24.4713  -31.6285 H   0  0  0  0  0  0  0  0  0  0  0  0
   -6.1075   23.5633  -32.3818 H   0  0  0  0  0  0  0  0  0  0  0  0
   -5.9168   14.4052  -34.1801 H   0  0  0  0  0  0  0  0  0  0  0  0
   -2.5958   15.4413  -34.2152 H   0  0  0  0  0  0  0  0  0  0  0  0
   -3.6389   14.8723  -35.5624 H   0  0  0  0  0  0  0  0  0  0  0  0
   -3.0100   16.5549  -35.5624 H   0  0  0  0  0  0  0  0  0  0  0  0
  1  2  1  0
  2  3  1  0
  3  4  1  0
  4  5  1  0
  5  6  1  0
  6  7  1  0
  7  8  1  0
  8  9  1  0
  9 10  1  0
 10 11  1  0
 11 12  1  0
 12 13  1  0
 13 14  1  0
 14 15  2  0
 15 16  1  0
 16 17  2  0
 17 18  1  0
 17 19  1  0
 19 20  2  0
 20 21  1  0
 21 22  2  0
 22 23  1  0
 23 24  2  0
 16 25  1  0
 25 26  1  0
 26 27  1  0
 27 28  2  0
 28 29  1  0
 28 30  1  0
 30 31  1  0
 31 32  2  0
 24 14  1  0
 30 25  2  0
 31 15  1  0
 24 19  1  0
  1 33  1  0
  1 34  1  0
  1 35  1  0
  2 36  1  0
  2 37  1  0
  3 38  1  0
  4 39  1  0
  4 40  1  0
  5 41  1  0
  5 42  1  0
  6 43  1  0
  6 44  1  0
  8 45  1  0
  8 46  1  0
  9 47  1  0
  9 48  1  0
 11 49  1  0
 11 50  1  0
 12 51  1  0
 12 52  1  0
 13 53  1  0
 18 54  1  0
 18 55  1  0
 18 56  1  0
 20 57  1  0
 21 58  1  0
 22 59  1  0
 23 60  1  0
 27 61  1  0
 29 62  1  0
 29 63  1  0
 29 64  1  0
M  CHG  1  17   1
M  END
>  <UniqueID>  (17) 
16

>  <SMILES>  (17) 
CCNCCCOCCOCCNc1c2c([n+](C)c3ccccc13)-c1occ(C)c1C2=O

>  <Energy>  (17) 
159.515492658764

>  <Genealogy>  (17) 
CCNCCCOCCOCCNc1c2c([n+](C)c3ccccc13)-c1occ(C)c1C2=O (3D coordinates assigned)
CCNCCCOCCOCCNc1c2c([n+](C)c3ccccc13)-c1occ(C)c1C2=O (nonaromatic ring conformer: 159.515492658764 kcal/mol)

>  <smiles>  (17) 
CCNCCCOCCOCCNc1c2c([n+](C)c3ccccc13)-c1occ(C)c1C2=O

>  <score_type>  (17) 
oracle

>  <origin>  (17) 
adg

>  <m_score__min__energy>  (17) 
-9.5800000000000001

>  <m_primary>  (17) 
energy

$$$$
17:0
     RDKit          3D

 58 60  0  0  0  0  0  0  0  0999 V2000
   -6.1310   25.6270  -29.4440 C   0  0  0  0  0  0  0  0  0  0  0  0
   -5.3870   25.2790  -30.7270 C   0  0  0  0  0  0  0  0  0  0  0  0
   -3.9390   25.2940  -30.4830 N   0  0  0  0  0  0  0  0  0  0  0  0
   -3.5680   24.5380  -29.2750 C   0  0  0  0  0  0  0  0  0  0  0  0
   -4.1540   23.1160  -29.2720 C   0  0  0  0  0  0  0  0  0  0  0  0
   -3.0560   22.0540  -29.1630 C   0  0  0  0  0  0  0  0  0  0  0  0
   -3.4320   20.5840  -30.1910 S   0  0  0  0  0  0  0  0  0  0  0  0
   -2.6410   21.1540  -31.7410 C   0  0  0  0  0  0  0  0  0  0  0  0
   -3.5200   22.2080  -32.4220 C   0  0  0  0  0  0  0  0  0  0  0  0
   -4.2330   21.6390  -33.5760 N   0  0  0  0  0  0  0  0  0  0  0  0
   -5.3010   20.7600  -33.1310 C   0  0  0  0  0  0  0  0  0  0  0  0
   -6.3710   21.2680  -32.3530 C   0  0  0  0  0  0  0  0  0  0  0  0
   -7.4630   20.4380  -32.0350 C   0  0  0  0  0  0  0  0  0  0  0  0
   -7.4190   19.0870  -32.2960 N   0  0  0  0  0  0  0  0  0  0  0  0
   -8.4250   18.1910  -31.6870 C   0  0  0  0  0  0  0  0  0  0  0  0
   -6.4180   18.5690  -33.0940 C   0  0  0  0  0  0  0  0  0  0  0  0
   -6.4630   17.2280  -33.5550 C   0  0  0  0  0  0  0  0  0  0  0  0
   -5.4160   16.6830  -34.2920 C   0  0  0  0  0  0  0  0  0  0  0  0
   -4.3010   17.4510  -34.5910 C   0  0  0  0  0  0  0  0  0  0  0  0
   -4.2440   18.7840  -34.1950 C   0  0  0  0  0  0  0  0  0  0  0  0
   -5.3130   19.3830  -33.4830 C   0  0  0  0  0  0  0  0  0  0  0  0
   -8.6670   21.0950  -31.3690 C   0  0  0  0  0  0  0  0  0  0  0  0
   -8.9300   22.4820  -31.9710 C   0  0  0  0  0  0  0  0  0  0  0  0
   -7.6890   23.3970  -31.9730 C   0  0  0  0  0  0  0  0  0  0  0  0
   -6.3690   22.6530  -31.7220 C   0  0  0  0  0  0  0  0  0  0  0  0
   -5.5189   25.3407  -28.5760 H   0  0  0  0  0  0  0  0  0  0  0  0
   -6.3251   26.7093  -29.4148 H   0  0  0  0  0  0  0  0  0  0  0  0
   -7.0862   25.0822  -29.4148 H   0  0  0  0  0  0  0  0  0  0  0  0
   -5.6900   24.2768  -31.0643 H   0  0  0  0  0  0  0  0  0  0  0  0
   -5.6322   26.0209  -31.5012 H   0  0  0  0  0  0  0  0  0  0  0  0
   -3.4490   24.8810  -31.3110 H   0  0  0  0  0  0  0  0  0  0  0  0
   -2.4714   24.4686  -29.2243 H   0  0  0  0  0  0  0  0  0  0  0  0
   -3.9779   25.0722  -28.4052 H   0  0  0  0  0  0  0  0  0  0  0  0
   -4.8365   23.0130  -28.4155 H   0  0  0  0  0  0  0  0  0  0  0  0
   -4.6885   22.9621  -30.2210 H   0  0  0  0  0  0  0  0  0  0  0  0
   -2.1035   22.4899  -29.4988 H   0  0  0  0  0  0  0  0  0  0  0  0
   -2.9930   21.7318  -28.1131 H   0  0  0  0  0  0  0  0  0  0  0  0
   -1.6596   21.5932  -31.5088 H   0  0  0  0  0  0  0  0  0  0  0  0
   -2.5156   20.2965  -32.4185 H   0  0  0  0  0  0  0  0  0  0  0  0
   -4.2553   22.5857  -31.6962 H   0  0  0  0  0  0  0  0  0  0  0  0
   -2.8738   23.0237  -32.7786 H   0  0  0  0  0  0  0  0  0  0  0  0
   -3.5640   21.1400  -34.2050 H   0  0  0  0  0  0  0  0  0  0  0  0
   -4.6090   22.3950  -34.1890 H   0  0  0  0  0  0  0  0  0  0  0  0
   -8.3555   18.2529  -30.5909 H   0  0  0  0  0  0  0  0  0  0  0  0
   -9.4314   18.4974  -32.0085 H   0  0  0  0  0  0  0  0  0  0  0  0
   -8.2367   17.1560  -32.0085 H   0  0  0  0  0  0  0  0  0  0  0  0
   -7.3419   16.6076  -33.3256 H   0  0  0  0  0  0  0  0  0  0  0  0
   -5.4731   15.6405  -34.6382 H   0  0  0  0  0  0  0  0  0  0  0  0
   -3.4597   17.0058  -35.1424 H   0  0  0  0  0  0  0  0  0  0  0  0
   -3.3541   19.3828  -34.4388 H   0  0  0  0  0  0  0  0  0  0  0  0
   -9.5536   20.4617  -31.5203 H   0  0  0  0  0  0  0  0  0  0  0  0
   -8.4584   21.2093  -30.2950 H   0  0  0  0  0  0  0  0  0  0  0  0
   -9.2686   22.3523  -33.0095 H   0  0  0  0  0  0  0  0  0  0  0  0
   -9.6899   22.9689  -31.3421 H   0  0  0  0  0  0  0  0  0  0  0  0
   -7.6261   23.8938  -32.9524 H   0  0  0  0  0  0  0  0  0  0  0  0
   -7.8163   24.1108  -31.1458 H   0  0  0  0  0  0  0  0  0  0  0  0
   -5.5430   23.2387  -32.1518 H   0  0  0  0  0  0  0  0  0  0  0  0
   -6.2458   22.5331  -30.6355 H   0  0  0  0  0  0  0  0  0  0  0  0
  1  2  1  0
  2  3  1  0
  3  4  1  0
  4  5  1  0
  5  6  1  0
  6  7  1  0
  7  8  1  0
  8  9  1  0
  9 10  1  0
 10 11  1  0
 11 12  2  0
 12 13  1  0
 13 14  2  0
 14 15  1  0
 14 16  1  0
 16 17  2  0
 17 18  1  0
 18 19  2  0
 19 20  1  0
 20 21  2  0
 13 22  1  0
 22 23  1  0
 23 24  1  0
 24 25  1  0
 21 11  1  0
 25 12  1  0
 21 16  1  0
  1 26  1  0
  1 27  1  0
  1 28  1  0
  2 29  1  0
  2 30  1  0
  3 31  1  0
  4 32  1  0
  4 33  1  0
  5 34  1  0
  5 35  1  0
  6 36  1  0
  6 37  1  0
  8 38  1  0
  8 39  1  0
  9 40  1  0
  9 41  1  0
 10 42  1  0
 10 43  1  0
 15 44  1  0
 15 45  1  0
 15 46  1  0
 17 47  1  0
 18 48  1  0
 19 49  1  0
 20 50  1  0
 22 51  1  0
 22 52  1  0
 23 53  1  0
 23 54  1  0
 24 55  1  0
 24 56  1  0
 25 57  1  0
 25 58  1  0
M  CHG  2  10   1  14   1
M  END
>  <UniqueID>  (18) 
17

>  <SMILES>  (18) 
CCNCCCSCC[NH2+]c1c2c([n+](C)c3ccccc13)CCCC2

>  <Energy>  (18) 
73.44182418496901

>  <Genealogy>  (18) 
CCNCCCSCC[NH2+]c1c2c([n+](C)c3ccccc13)CCCC2 (protonated)
CCNCCCSCC[NH2+]c1c2c([n+](C)c3ccccc13)CCCC2 (3D coordinates assigned)
CCNCCCSCC[NH2+]c1c2c([n+](C)c3ccccc13)CCCC2 (nonaromatic ring conformer: 73.44182418496901 kcal/mol)

>  <smiles>  (18) 
CCNCCCSCCNc1c2c([n+](C)c3ccccc13)CCCC2

>  <score_type>  (18) 
oracle

>  <origin>  (18) 
adg

>  <m_score__min__energy>  (18) 
-8.9499999999999993

>  <m_primary>  (18) 
energy

$$$$
18:0
     RDKit          3D

 86 90  0  0  0  0  0  0  0  0999 V2000
   -0.4230   18.5990  -27.9980 C   0  0  0  0  0  0  0  0  0  0  0  0
   -0.6070   20.1150  -27.7600 C   0  0  2  0  0  0  0  0  0  0  0  0
   -1.6800   20.3520  -26.6990 C   0  0  0  0  0  0  0  0  0  0  0  0
   -2.9700   20.5240  -27.4850 C   0  0  0  0  0  0  0  0  0  0  0  0
   -2.5430   20.7590  -28.9330 C   0  0  0  0  0  0  0  0  0  0  0  0
   -1.0740   20.8640  -28.9480 N   0  0  2  0  0  0  0  0  0  0  0  0
   -0.4610   20.4410  -30.2330 C   0  0  0  0  0  0  0  0  0  0  0  0
   -0.8970   21.3140  -31.4280 C   0  0  0  0  0  0  0  0  0  0  0  0
   -1.9110   20.6140  -32.3410 C   0  0  0  0  0  0  0  0  0  0  0  0
   -2.8880   21.5710  -32.8590 N   0  0  0  0  0  0  0  0  0  0  0  0
   -4.1620   21.7150  -32.2170 C   0  0  0  0  0  0  0  0  0  0  0  0
   -5.2170   20.8510  -32.5490 C   0  0  0  0  0  0  0  0  0  0  0  0
   -5.0460   19.8520  -33.5320 C   0  0  0  0  0  0  0  0  0  0  0  0
   -6.0730   18.9560  -33.8210 C   0  0  0  0  0  0  0  0  0  0  0  0
   -7.2750   19.0300  -33.1270 C   0  0  0  0  0  0  0  0  0  0  0  0
   -7.4700   20.0160  -32.1610 C   0  0  0  0  0  0  0  0  0  0  0  0
   -6.4610   20.9720  -31.8750 C   0  0  0  0  0  0  0  0  0  0  0  0
   -6.6570   21.9860  -30.9550 N   0  0  0  0  0  0  0  0  0  0  0  0
   -8.0200   22.2860  -30.4600 C   0  0  0  0  0  0  0  0  0  0  0  0
   -5.5820   22.7450  -30.5230 C   0  0  0  0  0  0  0  0  0  0  0  0
   -5.6820   23.6130  -29.4080 C   0  0  0  0  0  0  0  0  0  0  0  0
   -4.6130   24.4250  -29.0300 C   0  0  0  0  0  0  0  0  0  0  0  0
   -3.4180   24.4040  -29.7440 C   0  0  0  0  0  0  0  0  0  0  0  0
   -2.3960   25.2810  -29.3530 O   0  0  0  0  0  0  0  0  0  0  0  0
   -1.4390   25.0020  -28.3330 C   0  0  0  0  0  0  0  0  0  0  0  0
   -2.0170   25.3410  -26.9420 C   0  0  0  0  0  0  0  0  0  0  0  0
   -1.0080   25.6190  -25.8650 N   0  0  0  0  0  0  0  0  0  0  0  0
   -0.5120   24.3370  -25.2970 C   0  0  0  0  0  0  0  0  0  0  0  0
   -1.6230   26.4480  -24.7750 C   0  0  0  0  0  0  0  0  0  0  0  0
   -0.5980   27.3730  -24.0880 C   0  0  0  0  0  0  0  0  0  0  0  0
   -0.0260   28.3810  -25.0360 N   0  0  0  0  0  0  0  0  0  0  0  0
    1.3470   28.7320  -24.5950 C   0  0  0  0  0  0  0  0  0  0  0  0
   -0.8440   29.6180  -25.0020 C   0  0  0  0  0  0  0  0  0  0  0  0
    0.0160   27.8620  -26.4430 C   0  0  0  0  0  0  0  0  0  0  0  0
    0.1610   26.3290  -26.4900 C   0  0  0  0  0  0  0  0  0  0  0  0
   -3.2770   23.5120  -30.8160 C   0  0  0  0  0  0  0  0  0  0  0  0
   -4.3330   22.6560  -31.1890 C   0  0  0  0  0  0  0  0  0  0  0  0
   -0.3601   18.0808  -27.0297 H   0  0  0  0  0  0  0  0  0  0  0  0
   -1.2806   18.2104  -28.5668 H   0  0  0  0  0  0  0  0  0  0  0  0
    0.5026   18.4268  -28.5668 H   0  0  0  0  0  0  0  0  0  0  0  0
    0.3924   20.4704  -27.4686 H   0  0  0  0  0  0  0  0  0  0  0  0
   -1.7515   19.4892  -26.0204 H   0  0  0  0  0  0  0  0  0  0  0  0
   -1.4567   21.2263  -26.0699 H   0  0  0  0  0  0  0  0  0  0  0  0
   -3.5888   19.6177  -27.4098 H   0  0  0  0  0  0  0  0  0  0  0  0
   -3.5728   21.3591  -27.0986 H   0  0  0  0  0  0  0  0  0  0  0  0
   -2.8660   19.9161  -29.5617 H   0  0  0  0  0  0  0  0  0  0  0  0
   -3.0019   21.6770  -29.3289 H   0  0  0  0  0  0  0  0  0  0  0  0
   -0.8280   21.8670  -28.7770 H   0  0  0  0  0  0  0  0  0  0  0  0
    0.6330   20.5018  -30.1358 H   0  0  0  0  0  0  0  0  0  0  0  0
   -0.8001   19.4144  -30.4359 H   0  0  0  0  0  0  0  0  0  0  0  0
   -1.3527   22.2371  -31.0403 H   0  0  0  0  0  0  0  0  0  0  0  0
    0.0003   21.5213  -32.0296 H   0  0  0  0  0  0  0  0  0  0  0  0
   -1.3778   20.1504  -33.1841 H   0  0  0  0  0  0  0  0  0  0  0  0
   -2.4421   19.8478  -31.7572 H   0  0  0  0  0  0  0  0  0  0  0  0
   -2.7420   22.0380  -33.7810 H   0  0  0  0  0  0  0  0  0  0  0  0
   -4.0922   19.7804  -34.0752 H   0  0  0  0  0  0  0  0  0  0  0  0
   -5.9326   18.1903  -34.5981 H   0  0  0  0  0  0  0  0  0  0  0  0
   -8.0761   18.3072  -33.3410 H   0  0  0  0  0  0  0  0  0  0  0  0
   -8.4220   20.0536  -31.6112 H   0  0  0  0  0  0  0  0  0  0  0  0
   -8.0189   22.2858  -29.3600 H   0  0  0  0  0  0  0  0  0  0  0  0
   -8.3337   23.2747  -30.8261 H   0  0  0  0  0  0  0  0  0  0  0  0
   -8.7198   21.5204  -30.8261 H   0  0  0  0  0  0  0  0  0  0  0  0
   -6.6179   23.6471  -28.8310 H   0  0  0  0  0  0  0  0  0  0  0  0
   -4.7151   25.0888  -28.1588 H   0  0  0  0  0  0  0  0  0  0  0  0
   -1.1762   23.9343  -28.3654 H   0  0  0  0  0  0  0  0  0  0  0  0
   -0.5444   25.6181  -28.5063 H   0  0  0  0  0  0  0  0  0  0  0  0
   -2.6515   26.2332  -27.0485 H   0  0  0  0  0  0  0  0  0  0  0  0
   -2.5606   24.4416  -26.6171 H   0  0  0  0  0  0  0  0  0  0  0  0
   -0.5326   24.3903  -24.1985 H   0  0  0  0  0  0  0  0  0  0  0  0
   -1.1559   23.5122  -25.6362 H   0  0  0  0  0  0  0  0  0  0  0  0
    0.5194   24.1603  -25.6362 H   0  0  0  0  0  0  0  0  0  0  0  0
   -2.4211   27.0673  -25.2103 H   0  0  0  0  0  0  0  0  0  0  0  0
   -2.0162   25.7596  -24.0125 H   0  0  0  0  0  0  0  0  0  0  0  0
   -1.0960   27.9040  -23.2634 H   0  0  0  0  0  0  0  0  0  0  0  0
    0.2283   26.7481  -23.7183 H   0  0  0  0  0  0  0  0  0  0  0  0
    1.3876   28.7424  -23.4958 H   0  0  0  0  0  0  0  0  0  0  0  0
    2.0579   27.9867  -24.9812 H   0  0  0  0  0  0  0  0  0  0  0  0
    1.6130   29.7270  -24.9812 H   0  0  0  0  0  0  0  0  0  0  0  0
   -1.0331   29.9039  -23.9568 H   0  0  0  0  0  0  0  0  0  0  0  0
   -0.3036   30.4291  -25.5120 H   0  0  0  0  0  0  0  0  0  0  0  0
   -1.8019   29.4383  -25.5120 H   0  0  0  0  0  0  0  0  0  0  0  0
   -0.9157   28.1462  -26.9540 H   0  0  0  0  0  0  0  0  0  0  0  0
    0.8934   28.3011  -26.9404 H   0  0  0  0  0  0  0  0  0  0  0  0
    0.2433   26.0148  -27.5410 H   0  0  0  0  0  0  0  0  0  0  0  0
    1.0599   26.0612  -25.9153 H   0  0  0  0  0  0  0  0  0  0  0  0
   -2.3294   23.4795  -31.3738 H   0  0  0  0  0  0  0  0  0  0  0  0
  1  2  1  0
  2  3  1  0
  3  4  1  0
  4  5  1  0
  5  6  1  0
  6  7  1  0
  7  8  1  0
  8  9  1  0
  9 10  1  0
 10 11  1  0
 11 12  1  0
 12 13  2  0
 13 14  1  0
 14 15  2  0
 15 16  1  0
 16 17  2  0
 17 18  1  0
 18 19  1  0
 18 20  2  0
 20 21  1  0
 21 22  2  0
 22 23  1  0
 23 24  1  0
 24 25  1  0
 25 26  1  0
 26 27  1  0
 27 28  1  0
 27 29  1  0
 29 30  1  0
 30 31  1  0
 31 32  1  0
 31 33  1  0
 31 34  1  0
 34 35  1  0
 23 36  2  0
 36 37  1  0
  6  2  1  0
 37 11  2  0
 17 12  1  0
 37 20  1  0
 35 27  1  0
  1 38  1  0
  1 39  1  0
  1 40  1  0
  2 41  1  1
  3 42  1  0
  3 43  1  0
  4 44  1  0
  4 45  1  0
  5 46  1  0
  5 47  1  0
  6 48  1  1
  7 49  1  0
  7 50  1  0
  8 51  1  0
  8 52  1  0
  9 53  1  0
  9 54  1  0
 10 55  1  0
 13 56  1  0
 14 57  1  0
 15 58  1  0
 16 59  1  0
 19 60  1  0
 19 61  1  0
 19 62  1  0
 21 63  1  0
 22 64  1  0
 25 65  1  0
 25 66  1  0
 26 67  1  0
 26 68  1  0
 28 69  1  0
 28 70  1  0
 28 71  1  0
 29 72  1  0
 29 73  1  0
 30 74  1  0
 30 75  1  0
 32 76  1  0
 32 77  1  0
 32 78  1  0
 33 79  1  0
 33 80  1  0
 33 81  1  0
 34 82  1  0
 34 83  1  0
 35 84  1  0
 35 85  1  0
 36 86  1  0
M  CHG  4   6   1  18   1  27   1  31   1
M  END
>  <UniqueID>  (19) 
18

>  <SMILES>  (19) 
C[C@@H]1CCC[N@@H+]1CCCNc1c2ccccc2[n+](C)c2ccc(OCC[N+]3(C)CC[N+](C)(C)CC3)cc12

>  <Energy>  (19) 
144.05485390887847

>  <Genealogy>  (19) 
CC1CCC[NH+]1CCCNc1c2ccccc2[n+](C)c2ccc(OCC[N+]3(C)CC[N+](C)(C)CC3)cc12 (protonated)
C[C@@H]1CCC[N@@H+]1CCCNc1c2ccccc2[n+](C)c2ccc(OCC[N+]3(C)CC[N+](C)(C)CC3)cc12 (chirality)
C[C@@H]1CCC[N@@H+]1CCCNc1c2ccccc2[n+](C)c2ccc(OCC[N+]3(C)CC[N+](C)(C)CC3)cc12 (3D coordinates assigned)
C[C@@H]1CCC[N@@H+]1CCCNc1c2ccccc2[n+](C)c2ccc(OCC[N+]3(C)CC[N+](C)(C)CC3)cc12 (nonaromatic ring conformer: 144.05485390887847 kcal/mol)

>  <smiles>  (19) 
CC1CCCN1CCCNc1c2ccccc2[n+](C)c2ccc(OCC[N+]3(C)CC[N+](C)(C)CC3)cc12

>  <score_type>  (19) 
oracle

>  <origin>  (19) 
adg

>  <m_score__min__energy>  (19) 
-8.9000000000000004

>  <m_primary>  (19) 
energy

$$$$
19:0
     RDKit          3D

 42 41  0  0  0  0  0  0  0  0999 V2000
   -7.5180   18.2310  -32.2220 C   0  0  0  0  0  0  0  0  0  0  0  0
   -8.7230   18.9380  -31.6010 C   0  0  0  0  0  0  0  0  0  0  0  0
   -9.1050   20.2270  -32.3450 C   0  0  0  0  0  0  0  0  0  0  0  0
   -8.9900   21.4760  -31.4560 C   0  0  0  0  0  0  0  0  0  0  0  0
   -7.8910   22.4390  -31.9300 C   0  0  0  0  0  0  0  0  0  0  0  0
   -7.2230   23.1900  -30.7680 C   0  0  0  0  0  0  0  0  0  0  0  0
   -6.4840   24.4330  -31.2710 C   0  0  0  0  0  0  0  0  0  0  0  0
   -5.3110   25.0270  -30.0270 S   0  0  0  0  0  0  0  0  0  0  0  0
   -4.1960   25.6630  -30.8470 O   0  0  0  0  0  0  0  0  0  0  0  0
   -4.5300   23.6000  -29.2190 C   0  0  0  0  0  0  0  0  0  0  0  0
   -3.1250   23.2910  -29.7560 C   0  0  0  0  0  0  0  0  0  0  0  0
   -3.1320   23.2250  -31.2210 N   0  0  0  0  0  0  0  0  0  0  0  0
   -4.2030   22.3330  -31.6860 C   0  0  0  0  0  0  0  0  0  0  0  0
   -3.7820   21.5790  -32.9530 C   0  0  0  0  0  0  0  0  0  0  0  0
   -4.7310   20.4290  -33.2850 C   0  0  0  0  0  0  0  0  0  0  0  0
   -6.8657   17.8483  -31.4232 H   0  0  0  0  0  0  0  0  0  0  0  0
   -7.8652   17.3934  -32.8448 H   0  0  0  0  0  0  0  0  0  0  0  0
   -6.9562   18.9427  -32.8448 H   0  0  0  0  0  0  0  0  0  0  0  0
   -9.5826   18.2519  -31.6223 H   0  0  0  0  0  0  0  0  0  0  0  0
   -8.4496   19.2174  -30.5728 H   0  0  0  0  0  0  0  0  0  0  0  0
   -8.4358   20.3467  -33.2098 H   0  0  0  0  0  0  0  0  0  0  0  0
  -10.1558   20.1341  -32.6566 H   0  0  0  0  0  0  0  0  0  0  0  0
   -9.9532   22.0071  -31.4683 H   0  0  0  0  0  0  0  0  0  0  0  0
   -8.7247   21.1405  -30.4426 H   0  0  0  0  0  0  0  0  0  0  0  0
   -7.1225   21.8612  -32.4643 H   0  0  0  0  0  0  0  0  0  0  0  0
   -8.3627   23.1876  -32.5835 H   0  0  0  0  0  0  0  0  0  0  0  0
   -7.9950   23.4975  -30.0473 H   0  0  0  0  0  0  0  0  0  0  0  0
   -6.4946   22.5188  -30.2895 H   0  0  0  0  0  0  0  0  0  0  0  0
   -5.9371   24.1802  -32.1914 H   0  0  0  0  0  0  0  0  0  0  0  0
   -7.2201   25.2258  -31.4700 H   0  0  0  0  0  0  0  0  0  0  0  0
   -4.4540   23.8075  -28.1414 H   0  0  0  0  0  0  0  0  0  0  0  0
   -5.1591   22.7224  -29.4291 H   0  0  0  0  0  0  0  0  0  0  0  0
   -2.4331   24.0831  -29.4337 H   0  0  0  0  0  0  0  0  0  0  0  0
   -2.8018   22.3170  -29.3600 H   0  0  0  0  0  0  0  0  0  0  0  0
   -3.3340   24.1870  -31.5830 H   0  0  0  0  0  0  0  0  0  0  0  0
   -4.4332   21.6048  -30.8943 H   0  0  0  0  0  0  0  0  0  0  0  0
   -5.0884   22.9424  -31.9200 H   0  0  0  0  0  0  0  0  0  0  0  0
   -3.7715   22.2840  -33.7973 H   0  0  0  0  0  0  0  0  0  0  0  0
   -2.7843   21.1514  -32.7745 H   0  0  0  0  0  0  0  0  0  0  0  0
   -5.1023   19.9791  -32.3524 H   0  0  0  0  0  0  0  0  0  0  0  0
   -5.5798   20.8115  -33.8708 H   0  0  0  0  0  0  0  0  0  0  0  0
   -4.1943   19.6682  -33.8708 H   0  0  0  0  0  0  0  0  0  0  0  0
  1  2  1  0
  2  3  1  0
  3  4  1  0
  4  5  1  0
  5  6  1  0
  6  7  1  0
  8  7  1  6
  8  9  2  0
  8 10  1  0
 10 11  1  0
 11 12  1  0
 12 13  1  0
 13 14  1  0
 14 15  1  0
  1 16  1  0
  1 17  1  0
  1 18  1  0
  2 19  1  0
  2 20  1  0
  3 21  1  0
  3 22  1  0
  4 23  1  0
  4 24  1  0
  5 25  1  0
  5 26  1  0
  6 27  1  0
  6 28  1  0
  7 29  1  0
  7 30  1  0
 10 31  1  0
 10 32  1  0
 11 33  1  0
 11 34  1  0
 12 35  1  0
 13 36  1  0
 13 37  1  0
 14 38  1  0
 14 39  1  0
 15 40  1  0
 15 41  1  0
 15 42  1  0
M  END
>  <UniqueID>  (20) 
19

>  <SMILES>  (20) 
CCCCCCC[S@](=O)CCNCCC

>  <Energy>  (20) 
11.559022697036918

>  <Genealogy>  (20) 
CCCCCCC[S@](=O)CCNCCC (chirality)
CCCCCCC[S@](=O)CCNCCC (3D coordinates assigned)
CCCCCCC[S@](=O)CCNCCC (optimized conformer: 11.559022697036918 kcal/mol)

>  <smiles>  (20) 
CCCCCCCS(=O)CCNCCC

>  <score_type>  (20) 
oracle

>  <origin>  (20) 
adg

>  <m_score__min__energy>  (20) 
-6.6600000000000001

>  <m_primary>  (20) 
energy

$$$$
20:0
     RDKit          3D

 45 47  0  0  0  0  0  0  0  0999 V2000
   -6.6820   24.5130  -30.6400 C   0  0  0  0  0  0  0  0  0  0  0  0
   -5.5990   25.5730  -30.4320 C   0  0  0  0  0  0  0  0  0  0  0  0
   -4.2580   25.0770  -30.7970 N   0  0  0  0  0  0  0  0  0  0  0  0
   -3.4900   24.5680  -29.6490 C   0  0  0  0  0  0  0  0  0  0  0  0
   -2.9430   23.1520  -29.8980 C   0  0  0  0  0  0  0  0  0  0  0  0
   -4.0700   22.1280  -30.0270 C   0  0  0  0  0  0  0  0  0  0  0  0
   -4.6910   22.2420  -31.3050 O   0  0  0  0  0  0  0  0  0  0  0  0
   -5.0250   21.1100  -32.0570 C   0  0  0  0  0  0  0  0  0  0  0  0
   -6.3410   20.6330  -32.0610 C   0  0  0  0  0  0  0  0  0  0  0  0
   -7.3370   21.2800  -31.3020 C   0  0  0  0  0  0  0  0  0  0  0  0
   -8.6320   20.7690  -31.2510 C   0  0  0  0  0  0  0  0  0  0  0  0
   -8.9490   19.6060  -31.9430 C   0  0  0  0  0  0  0  0  0  0  0  0
   -7.9830   18.9630  -32.7180 C   0  0  0  0  0  0  0  0  0  0  0  0
   -6.6690   19.4830  -32.8280 C   0  0  0  0  0  0  0  0  0  0  0  0
   -5.7140   18.8950  -33.6390 N   0  0  0  0  0  0  0  0  0  0  0  0
   -6.1140   17.8780  -34.6370 C   0  0  0  0  0  0  0  0  0  0  0  0
   -4.3890   19.2840  -33.5430 C   0  0  0  0  0  0  0  0  0  0  0  0
   -3.3450   18.5580  -34.1710 C   0  0  0  0  0  0  0  0  0  0  0  0
   -2.0230   18.9990  -34.1110 C   0  0  0  0  0  0  0  0  0  0  0  0
   -1.7030   20.1630  -33.4210 C   0  0  0  0  0  0  0  0  0  0  0  0
   -2.6990   20.8760  -32.7570 C   0  0  0  0  0  0  0  0  0  0  0  0
   -4.0370   20.4330  -32.7850 C   0  0  0  0  0  0  0  0  0  0  0  0
   -7.0424   24.1603  -29.6624 H   0  0  0  0  0  0  0  0  0  0  0  0
   -7.5194   24.9501  -31.2036 H   0  0  0  0  0  0  0  0  0  0  0  0
   -6.2630   23.6664  -31.2036 H   0  0  0  0  0  0  0  0  0  0  0  0
   -5.8351   26.4481  -31.0553 H   0  0  0  0  0  0  0  0  0  0  0  0
   -5.5834   25.8356  -29.3639 H   0  0  0  0  0  0  0  0  0  0  0  0
   -4.2980   24.3470  -31.5480 H   0  0  0  0  0  0  0  0  0  0  0  0
   -2.6448   25.2461  -29.4595 H   0  0  0  0  0  0  0  0  0  0  0  0
   -4.1673   24.5211  -28.7835 H   0  0  0  0  0  0  0  0  0  0  0  0
   -2.3551   23.1548  -30.8277 H   0  0  0  0  0  0  0  0  0  0  0  0
   -2.3176   22.8688  -29.0385 H   0  0  0  0  0  0  0  0  0  0  0  0
   -3.6563   21.1152  -29.9125 H   0  0  0  0  0  0  0  0  0  0  0  0
   -4.8195   22.3167  -29.2442 H   0  0  0  0  0  0  0  0  0  0  0  0
   -7.0897   22.1960  -30.7453 H   0  0  0  0  0  0  0  0  0  0  0  0
   -9.4042   21.2863  -30.6627 H   0  0  0  0  0  0  0  0  0  0  0  0
   -9.9656   19.1907  -31.8795 H   0  0  0  0  0  0  0  0  0  0  0  0
   -8.2454   18.0378  -33.2521 H   0  0  0  0  0  0  0  0  0  0  0  0
   -6.4691   16.9752  -34.1184 H   0  0  0  0  0  0  0  0  0  0  0  0
   -6.9209   18.2802  -35.2672 H   0  0  0  0  0  0  0  0  0  0  0  0
   -5.2493   17.6227  -35.2672 H   0  0  0  0  0  0  0  0  0  0  0  0
   -3.5818   17.6315  -34.7146 H   0  0  0  0  0  0  0  0  0  0  0  0
   -1.2304   18.4236  -34.6116 H   0  0  0  0  0  0  0  0  0  0  0  0
   -0.6631   20.5211  -33.3994 H   0  0  0  0  0  0  0  0  0  0  0  0
   -2.4391   21.7921  -32.2064 H   0  0  0  0  0  0  0  0  0  0  0  0
  1  2  1  0
  2  3  1  0
  3  4  1  0
  4  5  1  0
  5  6  1  0
  6  7  1  0
  7  8  1  0
  8  9  2  0
  9 10  1  0
 10 11  2  0
 11 12  1  0
 12 13  2  0
 13 14  1  0
 14 15  2  0
 15 16  1  0
 15 17  1  0
 17 18  2  0
 18 19  1  0
 19 20  2  0
 20 21  1  0
 21 22  2  0
 22  8  1  0
 14  9  1  0
 22 17  1  0
  1 23  1  0
  1 24  1  0
  1 25  1  0
  2 26  1  0
  2 27  1  0
  3 28  1  0
  4 29  1  0
  4 30  1  0
  5 31  1  0
  5 32  1  0
  6 33  1  0
  6 34  1  0
 10 35  1  0
 11 36  1  0
 12 37  1  0
 13 38  1  0
 16 39  1  0
 16 40  1  0
 16 41  1  0
 18 42  1  0
 19 43  1  0
 20 44  1  0
 21 45  1  0
M  CHG  1  15   1
M  END
>  <UniqueID>  (21) 
20

>  <SMILES>  (21) 
CCNCCCOc1c2ccccc2[n+](C)c2ccccc12

>  <Energy>  (21) 
69.26092544009478

>  <Genealogy>  (21) 
CCNCCCOc1c2ccccc2[n+](C)c2ccccc12 (3D coordinates assigned)
CCNCCCOc1c2ccccc2[n+](C)c2ccccc12 (optimized conformer: 69.26092544009478 kcal/mol)

>  <smiles>  (21) 
CCNCCCOc1c2ccccc2[n+](C)c2ccccc12

>  <score_type>  (21) 
oracle

>  <origin>  (21) 
adg

>  <m_score__min__energy>  (21) 
-8.4700000000000006

>  <m_primary>  (21) 
energy

$$$$
