0:0
     RDKit          3D

 43 47  0  0  0  0  0  0  0  0999 V2000
   -1.0396   22.2298  -27.8971 H   0  0  0  0  0  0  0  0  0  0  0  0
   -1.7050   22.9000  -28.4610 C   0  0  0  0  0  0  0  0  0  0  0  0
   -1.3690   24.2700  -28.6180 C   0  0  0  0  0  0  0  0  0  0  0  0
   -0.1050   24.8050  -28.0230 C   0  0  0  0  0  0  0  0  0  0  0  0
   -0.1751   24.7753  -26.9256 H   0  0  0  0  0  0  0  0  0  0  0  0
    0.7448   24.1894  -28.3529 H   0  0  0  0  0  0  0  0  0  0  0  0
    0.0447   25.8436  -28.3529 H   0  0  0  0  0  0  0  0  0  0  0  0
   -2.1950   25.1050  -29.3220 N   0  0  0  0  0  0  0  0  0  0  0  0
   -3.3320   24.6020  -29.8600 C   0  0  0  0  0  0  0  0  0  0  0  0
   -4.2420   25.2760  -30.5750 N   0  0  0  0  0  0  0  0  0  0  0  0
   -5.1450   24.2990  -30.8660 C   0  0  0  0  0  0  0  0  0  0  0  0
   -6.2270   24.5070  -31.5570 N   0  0  0  0  0  0  0  0  0  0  0  0
   -7.0660   23.4950  -32.1360 C   0  0  0  0  0  0  0  0  0  0  0  0
   -8.2710   23.7770  -32.3740 O   0  0  0  0  0  0  0  0  0  0  0  0
   -6.5770   22.1230  -32.4070 C   0  0  0  0  0  0  0  0  0  0  0  0
   -7.4910   21.0390  -32.4340 C   0  0  0  0  0  0  0  0  0  0  0  0
   -8.5607   21.2175  -32.2502 H   0  0  0  0  0  0  0  0  0  0  0  0
   -7.0320   19.7390  -32.6950 C   0  0  0  0  0  0  0  0  0  0  0  0
   -7.7234   18.8839  -32.7213 H   0  0  0  0  0  0  0  0  0  0  0  0
   -5.6710   19.5730  -32.9190 C   0  0  0  0  0  0  0  0  0  0  0  0
   -4.9360   18.4480  -33.1870 C   0  0  0  0  0  0  0  0  0  0  0  0
   -5.3105   17.4190  -33.2915 H   0  0  0  0  0  0  0  0  0  0  0  0
   -3.6110   18.8800  -33.3000 C   0  0  0  0  0  0  0  0  0  0  0  0
   -3.5360   20.2410  -33.1300 N   0  0  0  0  0  0  0  0  0  0  0  0
   -4.8080   20.6260  -32.8820 C   0  0  0  0  0  0  0  0  0  0  0  0
   -5.2390   21.8900  -32.6090 N   0  0  0  0  0  0  0  0  0  0  0  0
   -4.5540   22.6740  -32.5360 H   0  0  0  0  0  0  0  0  0  0  0  0
   -2.4020   21.1800  -33.1500 C   0  0  0  0  0  0  0  0  0  0  0  0
   -2.3294   21.6071  -34.1611 H   0  0  0  0  0  0  0  0  0  0  0  0
   -2.6095   21.9320  -32.3745 H   0  0  0  0  0  0  0  0  0  0  0  0
   -1.0520   20.5620  -32.7980 C   0  0  0  0  0  0  0  0  0  0  0  0
   -0.3060   21.3641  -32.6976 H   0  0  0  0  0  0  0  0  0  0  0  0
   -1.1589   20.0094  -31.8529 H   0  0  0  0  0  0  0  0  0  0  0  0
   -0.5920   19.5890  -33.8740 C   0  0  0  0  0  0  0  0  0  0  0  0
   -0.9491   19.9340  -34.8556 H   0  0  0  0  0  0  0  0  0  0  0  0
    0.5070   19.5416  -33.8760 H   0  0  0  0  0  0  0  0  0  0  0  0
   -1.1280   18.2710  -33.6030 N   0  0  0  0  0  0  0  0  0  0  0  0
   -2.5120   17.9200  -33.5870 C   0  0  0  0  0  0  0  0  0  0  0  0
   -2.8110   16.7180  -33.8100 O   0  0  0  0  0  0  0  0  0  0  0  0
   -4.8480   23.0720  -30.3600 N   0  0  0  0  0  0  0  0  0  0  0  0
   -3.6870   23.3000  -29.7300 C   0  0  0  0  0  0  0  0  0  0  0  0
   -2.8920   22.4020  -29.0290 C   0  0  0  0  0  0  0  0  0  0  0  0
   -3.1786   21.3454  -28.9224 H   0  0  0  0  0  0  0  0  0  0  0  0
  1  2  1  0
  2  3  2  0
  3  4  1  0
  4  5  1  0
  4  6  1  0
  4  7  1  0
  3  8  1  0
  8  9  2  0
  9 10  1  0
 10 11  1  0
 11 12  2  0
 12 13  1  0
 13 14  2  0
 13 15  1  0
 15 16  2  0
 16 17  1  0
 16 18  1  0
 18 19  1  0
 18 20  2  0
 20 21  1  0
 21 22  1  0
 21 23  2  0
 23 24  1  0
 24 25  1  0
 25 26  2  0
 26 27  1  0
 24 28  1  0
 28 29  1  0
 28 30  1  0
 28 31  1  0
 31 32  1  0
 31 33  1  0
 31 34  1  0
 34 35  1  0
 34 36  1  0
 34 37  1  0
 37 38  1  0
 38 39  2  0
 11 40  1  0
 40 41  1  0
 41 42  2  0
 42 43  1  0
 42  2  1  0
 41  9  1  0
 26 15  1  0
 25 20  1  0
 38 23  1  0
M  CHG  4  10  -1  26   1  37  -1  40  -1
M  END
>  <UniqueID>  (1) 
1

>  <SMILES>  (1) 
Cc1ccc2[n-]/c(=N/C(=O)c3ccc4cc5n(c4[nH+]3)CCC[N-]C5=O)[n-]c2n1

>  <Energy>  (1) 
131.70710875680618

>  <Genealogy>  (1) 
Cc1ccc2[n-]c(=NC(=O)c3ccc4cc5n(c4[nH+]3)CCC[N-]C5=O)[n-]c2n1 (protonated)
Cc1ccc2[n-]/c(=N/C(=O)c3ccc4cc5n(c4[nH+]3)CCC[N-]C5=O)[n-]c2n1 (cis-trans isomerization)
Cc1ccc2[n-]/c(=N/C(=O)c3ccc4cc5n(c4[nH+]3)CCC[N-]C5=O)[n-]c2n1 (3D coordinates assigned)
Cc1ccc2[n-]/c(=N/C(=O)c3ccc4cc5n(c4[nH+]3)CCC[N-]C5=O)[n-]c2n1 (nonaromatic ring conformer: 131.70710875680618 kcal/mol)

>  <smiles>  (1) 
Cc1ccc2[nH]c(=NC(=O)c3ccc4cc5n(c4n3)CCCNC5=O)[nH]c2n1

>  <score_type>  (1) 
oracle

>  <origin>  (1) 
adg

>  <m_score__min__energy>  (1) 
-9.0099999999999998

>  <m_primary>  (1) 
energy

$$$$
1:0
     RDKit          3D

 33 35  0  0  0  0  0  0  0  0999 V2000
   -9.9010   19.2510  -34.0690 H   0  0  0  0  0  0  0  0  0  0  0  0
   -9.7360   19.2430  -33.0690 O   0  0  0  0  0  0  0  0  0  0  0  0
   -8.8890   20.1690  -32.4630 C   0  0  0  0  0  0  0  0  0  0  0  0
   -7.5200   19.8960  -32.3700 C   0  0  0  0  0  0  0  0  0  0  0  0
   -7.1197   18.9550  -32.7752 H   0  0  0  0  0  0  0  0  0  0  0  0
   -6.6600   20.8150  -31.7640 C   0  0  0  0  0  0  0  0  0  0  0  0
   -5.5857   20.5910  -31.6879 H   0  0  0  0  0  0  0  0  0  0  0  0
   -7.1590   22.0220  -31.2520 C   0  0  0  0  0  0  0  0  0  0  0  0
   -6.2390   22.9920  -30.5640 C   0  0  0  0  0  0  0  0  0  0  0  0
   -6.3117   22.8526  -29.4753 H   0  0  0  0  0  0  0  0  0  0  0  0
   -6.5331   24.0179  -30.8307 H   0  0  0  0  0  0  0  0  0  0  0  0
   -4.8280   22.7590  -30.9990 C   0  0  0  0  0  0  0  0  0  0  0  0
   -4.4780   23.0340  -32.1790 O   0  0  0  0  0  0  0  0  0  0  0  0
   -3.8890   22.1980  -30.0800 N   0  0  0  0  0  0  0  0  0  0  0  0
   -3.7210   22.6940  -28.9220 N   0  0  0  0  0  0  0  0  0  0  0  0
   -2.7530   23.7190  -28.6730 C   0  0  0  0  0  0  0  0  0  0  0  0
   -2.6500   24.9080  -29.3720 C   0  0  0  0  0  0  0  0  0  0  0  0
   -3.4800   25.2880  -30.4170 O   0  0  0  0  0  0  0  0  0  0  0  0
   -1.6300   25.6740  -28.9190 N   0  0  0  0  0  0  0  0  0  0  0  0
   -1.0890   24.9460  -27.9200 C   0  0  0  0  0  0  0  0  0  0  0  0
    0.0040   25.3080  -27.1340 C   0  0  0  0  0  0  0  0  0  0  0  0
    0.5174   26.2687  -27.2871 H   0  0  0  0  0  0  0  0  0  0  0  0
    0.4310   24.4110  -26.1410 C   0  0  0  0  0  0  0  0  0  0  0  0
    1.2911   24.6691  -25.5057 H   0  0  0  0  0  0  0  0  0  0  0  0
   -0.2350   23.1810  -25.9520 C   0  0  0  0  0  0  0  0  0  0  0  0
    0.1099   22.4875  -25.1709 H   0  0  0  0  0  0  0  0  0  0  0  0
   -1.3360   22.8360  -26.7550 C   0  0  0  0  0  0  0  0  0  0  0  0
   -1.8627   21.8803  -26.6162 H   0  0  0  0  0  0  0  0  0  0  0  0
   -1.7400   23.7470  -27.7360 C   0  0  0  0  0  0  0  0  0  0  0  0
   -8.5360   22.2880  -31.3370 C   0  0  0  0  0  0  0  0  0  0  0  0
   -8.9391   23.2248  -30.9246 H   0  0  0  0  0  0  0  0  0  0  0  0
   -9.3960   21.3680  -31.9430 C   0  0  0  0  0  0  0  0  0  0  0  0
  -10.4722   21.5850  -32.0120 H   0  0  0  0  0  0  0  0  0  0  0  0
  1  2  1  0
  2  3  1  0
  3  4  2  0
  4  5  1  0
  4  6  1  0
  6  7  1  0
  6  8  2  0
  8  9  1  0
  9 10  1  0
  9 11  1  0
  9 12  1  0
 12 13  2  0
 12 14  1  0
 14 15  2  0
 15 16  1  0
 16 17  2  0
 17 18  1  0
 17 19  1  0
 19 20  1  0
 20 21  2  0
 21 22  1  0
 21 23  1  0
 23 24  1  0
 23 25  2  0
 25 26  1  0
 25 27  1  0
 27 28  1  0
 27 29  2  0
  8 30  1  0
 30 31  1  0
 30 32  2  0
 32 33  1  0
 32  3  1  0
 29 16  1  0
 29 20  1  0
M  CHG  2  18  -1  19  -1
M  END
>  <UniqueID>  (2) 
2

>  <SMILES>  (2) 
O=C(Cc1ccc(O)cc1)/N=N/c1c([O-])[n-]c2ccccc12

>  <Energy>  (2) 
66.51833440837899

>  <Genealogy>  (2) 
O=C(Cc1ccc(O)cc1)N=Nc1c([O-])[n-]c2ccccc12 (protonated)
O=C(Cc1ccc(O)cc1)/N=N/c1c([O-])[n-]c2ccccc12 (cis-trans isomerization)
O=C(Cc1ccc(O)cc1)/N=N/c1c([O-])[n-]c2ccccc12 (3D coordinates assigned)
O=C(Cc1ccc(O)cc1)/N=N/c1c([O-])[n-]c2ccccc12 (optimized conformer: 66.51833440837899 kcal/mol)

>  <smiles>  (2) 
O=C(Cc1ccc(O)cc1)N=Nc1c(O)[nH]c2ccccc12

>  <score_type>  (2) 
oracle

>  <origin>  (2) 
adg

>  <m_score__min__energy>  (2) 
-12.35

>  <m_primary>  (2) 
energy

$$$$
2:0
     RDKit          3D

 59 61  0  0  0  0  0  0  0  0999 V2000
   -3.4280   20.0700  -33.3980 C   0  0  0  0  0  0  0  0  0  0  0  0
   -2.5070   21.2060  -32.9560 C   0  0  0  0  0  0  0  0  0  0  0  0
   -3.2500   22.2960  -32.1700 C   0  0  0  0  0  0  0  0  0  0  0  0
   -2.5290   22.6660  -30.8940 C   0  0  0  0  0  0  0  0  0  0  0  0
   -1.4120   21.9110  -30.4960 C   0  0  0  0  0  0  0  0  0  0  0  0
   -0.7440   22.2080  -29.3070 C   0  0  0  0  0  0  0  0  0  0  0  0
   -1.1860   23.2580  -28.5020 C   0  0  0  0  0  0  0  0  0  0  0  0
   -2.2980   24.0120  -28.8800 C   0  0  0  0  0  0  0  0  0  0  0  0
   -2.9880   23.7210  -30.0760 C   0  0  0  0  0  0  0  0  0  0  0  0
   -4.1160   24.4540  -30.4830 O   0  0  0  0  0  0  0  0  0  0  0  0
   -5.1550   24.9370  -29.6300 C   0  0  0  0  0  0  0  0  0  0  0  0
   -6.5140   24.8370  -30.3340 C   0  0  0  0  0  0  0  0  0  0  0  0
   -6.4430   24.3380  -31.7990 C   0  0  0  0  0  0  0  0  0  0  0  0
   -6.8150   22.9160  -32.0490 N   0  0  0  0  0  0  0  0  0  0  0  0
   -6.0950   21.9450  -31.2000 C   0  0  0  0  0  0  0  0  0  0  0  0
   -6.3420   20.4970  -31.6780 C   0  0  0  0  0  0  0  0  0  0  0  0
   -7.5870   20.3730  -32.4760 N   0  0  0  0  0  0  0  0  0  0  0  0
   -8.0240   18.9650  -32.5700 C   0  0  0  0  0  0  0  0  0  0  0  0
   -6.8670   18.0700  -32.9300 C   0  0  0  0  0  0  0  0  0  0  0  0
   -6.4110   17.1080  -32.0120 C   0  0  0  0  0  0  0  0  0  0  0  0
   -5.3560   16.2560  -32.3510 C   0  0  0  0  0  0  0  0  0  0  0  0
   -4.7530   16.3550  -33.6080 C   0  0  0  0  0  0  0  0  0  0  0  0
   -5.2050   17.3030  -34.5300 C   0  0  0  0  0  0  0  0  0  0  0  0
   -6.2610   18.1570  -34.1940 C   0  0  0  0  0  0  0  0  0  0  0  0
   -8.6550   21.2070  -31.8990 C   0  0  0  0  0  0  0  0  0  0  0  0
   -8.2840   22.6990  -32.0170 C   0  0  0  0  0  0  0  0  0  0  0  0
   -3.8380   19.5643  -32.5113 H   0  0  0  0  0  0  0  0  0  0  0  0
   -4.2522   20.4795  -34.0004 H   0  0  0  0  0  0  0  0  0  0  0  0
   -2.8569   19.3483  -34.0004 H   0  0  0  0  0  0  0  0  0  0  0  0
   -1.7146   20.7889  -32.3171 H   0  0  0  0  0  0  0  0  0  0  0  0
   -2.0936   21.6719  -33.8626 H   0  0  0  0  0  0  0  0  0  0  0  0
   -3.3367   23.1925  -32.8015 H   0  0  0  0  0  0  0  0  0  0  0  0
   -4.2408   21.9030  -31.8983 H   0  0  0  0  0  0  0  0  0  0  0  0
   -1.0619   21.0802  -31.1262 H   0  0  0  0  0  0  0  0  0  0  0  0
    0.1311   21.6140  -29.0047 H   0  0  0  0  0  0  0  0  0  0  0  0
   -0.6566   23.4924  -27.5667 H   0  0  0  0  0  0  0  0  0  0  0  0
   -2.6392   24.8395  -28.2406 H   0  0  0  0  0  0  0  0  0  0  0  0
   -5.1781   24.3345  -28.7100 H   0  0  0  0  0  0  0  0  0  0  0  0
   -4.9558   25.9910  -29.3864 H   0  0  0  0  0  0  0  0  0  0  0  0
   -7.1459   24.1401  -29.7639 H   0  0  0  0  0  0  0  0  0  0  0  0
   -6.9235   25.8573  -30.3703 H   0  0  0  0  0  0  0  0  0  0  0  0
   -7.1183   24.9676  -32.3970 H   0  0  0  0  0  0  0  0  0  0  0  0
   -5.3799   24.4073  -32.0729 H   0  0  0  0  0  0  0  0  0  0  0  0
   -6.5160   22.7220  -33.0360 H   0  0  0  0  0  0  0  0  0  0  0  0
   -5.0169   22.1590  -31.2446 H   0  0  0  0  0  0  0  0  0  0  0  0
   -6.4660   22.0403  -30.1689 H   0  0  0  0  0  0  0  0  0  0  0  0
   -5.4910   20.1790  -32.2982 H   0  0  0  0  0  0  0  0  0  0  0  0
   -6.4485   19.8614  -30.7865 H   0  0  0  0  0  0  0  0  0  0  0  0
   -8.4361   18.6495  -31.6001 H   0  0  0  0  0  0  0  0  0  0  0  0
   -8.7902   18.8847  -33.3552 H   0  0  0  0  0  0  0  0  0  0  0  0
   -6.8861   17.0254  -31.0233 H   0  0  0  0  0  0  0  0  0  0  0  0
   -5.0001   15.5072  -31.6281 H   0  0  0  0  0  0  0  0  0  0  0  0
   -3.9211   15.6855  -33.8721 H   0  0  0  0  0  0  0  0  0  0  0  0
   -4.7306   17.3777  -35.5196 H   0  0  0  0  0  0  0  0  0  0  0  0
   -6.6181   18.8996  -34.9227 H   0  0  0  0  0  0  0  0  0  0  0  0
   -9.5942   21.0216  -32.4408 H   0  0  0  0  0  0  0  0  0  0  0  0
   -8.7787   20.9496  -30.8367 H   0  0  0  0  0  0  0  0  0  0  0  0
   -8.7206   23.0994  -32.9439 H   0  0  0  0  0  0  0  0  0  0  0  0
   -8.6801   23.2144  -31.1296 H   0  0  0  0  0  0  0  0  0  0  0  0
  1  2  1  0
  2  3  1  0
  3  4  1  0
  4  5  2  0
  5  6  1  0
  6  7  2  0
  7  8  1  0
  8  9  2  0
  9 10  1  0
 10 11  1  0
 11 12  1  0
 12 13  1  0
 13 14  1  0
 14 15  1  0
 15 16  1  0
 16 17  1  0
 17 18  1  0
 18 19  1  0
 19 20  2  0
 20 21  1  0
 21 22  2  0
 22 23  1  0
 23 24  2  0
 17 25  1  0
 25 26  1  0
  9  4  1  0
 26 14  1  0
 24 19  1  0
  1 27  1  0
  1 28  1  0
  1 29  1  0
  2 30  1  0
  2 31  1  0
  3 32  1  0
  3 33  1  0
  5 34  1  0
  6 35  1  0
  7 36  1  0
  8 37  1  0
 11 38  1  0
 11 39  1  0
 12 40  1  0
 12 41  1  0
 13 42  1  0
 13 43  1  0
 14 44  1  0
 15 45  1  0
 15 46  1  0
 16 47  1  0
 16 48  1  0
 18 49  1  0
 18 50  1  0
 20 51  1  0
 21 52  1  0
 22 53  1  0
 23 54  1  0
 24 55  1  0
 25 56  1  0
 25 57  1  0
 26 58  1  0
 26 59  1  0
M  CHG  1  14   1
M  END
>  <UniqueID>  (3) 
3

>  <SMILES>  (3) 
CCCc1ccccc1OCCC[NH+]1CCN(Cc2ccccc2)CC1

>  <Energy>  (3) 
68.07279038723529

>  <Genealogy>  (3) 
CCCc1ccccc1OCCC[NH+]1CCN(Cc2ccccc2)CC1 (protonated)
CCCc1ccccc1OCCC[NH+]1CCN(Cc2ccccc2)CC1 (3D coordinates assigned)
CCCc1ccccc1OCCC[NH+]1CCN(Cc2ccccc2)CC1 (nonaromatic ring conformer: 68.07279038723529 kcal/mol)

>  <smiles>  (3) 
CCCc1ccccc1OCCCN1CCN(Cc2ccccc2)CC1

>  <score_type>  (3) 
oracle

>  <origin>  (3) 
adg

>  <m_score__min__energy>  (3) 
-8.1099999999999994

>  <m_primary>  (3) 
energy

$$$$
3:0
     RDKit          3D

 34 36  0  0  0  0  0  0  0  0999 V2000
  -10.0274   22.1632  -32.3282 H   0  0  0  0  0  0  0  0  0  0  0  0
   -9.1450   21.6050  -31.9820 C   0  0  0  0  0  0  0  0  0  0  0  0
   -9.2100   20.2640  -32.0170 C   0  0  0  0  0  0  0  0  0  0  0  0
  -10.1955   19.8028  -31.8552 H   0  0  0  0  0  0  0  0  0  0  0  0
   -8.0670   19.3550  -32.2550 C   0  0  0  0  0  0  0  0  0  0  0  0
   -7.5950   18.5620  -31.2570 N   0  0  0  0  0  0  0  0  0  0  0  0
   -6.5270   17.7440  -31.4370 C   0  0  0  0  0  0  0  0  0  0  0  0
   -6.1370   17.0200  -30.4830 O   0  0  0  0  0  0  0  0  0  0  0  0
   -5.8750   17.7180  -32.6790 C   0  0  0  0  0  0  0  0  0  0  0  0
   -4.7660   16.8900  -32.9270 C   0  0  0  0  0  0  0  0  0  0  0  0
   -4.3842   16.2302  -32.1340 H   0  0  0  0  0  0  0  0  0  0  0  0
   -4.1480   16.9050  -34.1820 C   0  0  0  0  0  0  0  0  0  0  0  0
   -3.2804   16.2564  -34.3735 H   0  0  0  0  0  0  0  0  0  0  0  0
   -4.6290   17.7410  -35.1930 C   0  0  0  0  0  0  0  0  0  0  0  0
   -4.1390   17.7490  -36.1778 H   0  0  0  0  0  0  0  0  0  0  0  0
   -5.7310   18.5670  -34.9560 C   0  0  0  0  0  0  0  0  0  0  0  0
   -6.1058   19.2230  -35.7555 H   0  0  0  0  0  0  0  0  0  0  0  0
   -6.3620   18.5630  -33.7010 C   0  0  0  0  0  0  0  0  0  0  0  0
   -7.4370   19.3650  -33.4640 N   0  0  0  0  0  0  0  0  0  0  0  0
   -7.7940   19.9920  -34.2230 H   0  0  0  0  0  0  0  0  0  0  0  0
   -7.9840   22.3910  -31.5160 C   0  0  0  0  0  0  0  0  0  0  0  0
   -7.5900   22.3050  -30.1740 C   0  0  0  0  0  0  0  0  0  0  0  0
   -8.1629   21.6774  -29.4754 H   0  0  0  0  0  0  0  0  0  0  0  0
   -6.4730   23.0120  -29.7170 C   0  0  0  0  0  0  0  0  0  0  0  0
   -6.1759   22.9426  -28.6602 H   0  0  0  0  0  0  0  0  0  0  0  0
   -5.7300   23.8090  -30.6000 C   0  0  0  0  0  0  0  0  0  0  0  0
   -4.5110   24.5360  -30.1190 C   0  0  0  0  0  0  0  0  0  0  0  0
   -4.4986   24.5434  -29.0191 H   0  0  0  0  0  0  0  0  0  0  0  0
   -3.6098   24.0277  -30.4924 H   0  0  0  0  0  0  0  0  0  0  0  0
   -4.5298   25.5705  -30.4924 H   0  0  0  0  0  0  0  0  0  0  0  0
   -6.0930   23.8560  -31.9550 C   0  0  0  0  0  0  0  0  0  0  0  0
   -5.4964   24.4520  -32.6613 H   0  0  0  0  0  0  0  0  0  0  0  0
   -7.2090   23.1490  -32.4110 C   0  0  0  0  0  0  0  0  0  0  0  0
   -7.4824   23.1859  -33.4758 H   0  0  0  0  0  0  0  0  0  0  0  0
  1  2  1  0
  2  3  2  0
  3  4  1  0
  3  5  1  0
  5  6  2  0
  6  7  1  0
  7  8  2  0
  7  9  1  0
  9 10  2  0
 10 11  1  0
 10 12  1  0
 12 13  1  0
 12 14  2  0
 14 15  1  0
 14 16  1  0
 16 17  1  0
 16 18  2  0
 18 19  1  0
 19 20  1  0
  2 21  1  0
 21 22  2  0
 22 23  1  0
 22 24  1  0
 24 25  1  0
 24 26  2  0
 26 27  1  0
 27 28  1  0
 27 29  1  0
 27 30  1  0
 26 31  1  0
 31 32  1  0
 31 33  2  0
 33 34  1  0
 19  5  1  0
 33 21  1  0
 18  9  1  0
M  END
>  <UniqueID>  (4) 
4

>  <SMILES>  (4) 
Cc1ccc(/C=C\c2nc(=O)c3ccccc3[nH]2)cc1

>  <Energy>  (4) 
48.3038709712169

>  <Genealogy>  (4) 
Cc1ccc(/C=C\c2nc(=O)c3ccccc3[nH]2)cc1 (cis-trans isomerization)
Cc1ccc(/C=C\c2nc(=O)c3ccccc3[nH]2)cc1 (3D coordinates assigned)
Cc1ccc(/C=C\c2nc(=O)c3ccccc3[nH]2)cc1 (optimized conformer: 48.3038709712169 kcal/mol)

>  <smiles>  (4) 
Cc1ccc(C=Cc2nc(=O)c3ccccc3[nH]2)cc1

>  <score_type>  (4) 
oracle

>  <origin>  (4) 
adg

>  <m_score__min__energy>  (4) 
-8.2300000000000004

>  <m_primary>  (4) 
energy

$$$$
4:0
     RDKit          3D

 37 39  0  0  0  0  0  0  0  0999 V2000
   -5.0940   19.4660  -32.8290 O   0  0  0  0  0  0  0  0  0  0  0  0
   -5.4270   20.6200  -32.4360 C   0  0  0  0  0  0  0  0  0  0  0  0
   -6.7820   20.9280  -32.2700 C   0  0  0  0  0  0  0  0  0  0  0  0
   -7.7790   19.9650  -32.5260 C   0  0  0  0  0  0  0  0  0  0  0  0
   -9.1240   20.2720  -32.3400 C   0  0  0  0  0  0  0  0  0  0  0  0
   -9.4920   21.5370  -31.8920 C   0  0  0  0  0  0  0  0  0  0  0  0
   -8.5190   22.5040  -31.6360 C   0  0  0  0  0  0  0  0  0  0  0  0
   -7.1400   22.2240  -31.8280 C   0  0  0  0  0  0  0  0  0  0  0  0
   -6.1530   23.1630  -31.5980 N   0  0  0  0  0  0  0  0  0  0  0  0
   -6.4690   24.5470  -31.1620 C   0  0  0  0  0  0  0  0  0  0  0  0
   -5.7400   24.9080  -29.8630 C   0  0  0  0  0  0  0  0  0  0  0  0
   -4.5800   25.6120  -30.1280 F   0  0  0  0  0  0  0  0  0  0  0  0
   -5.4120   23.7480  -29.1860 F   0  0  0  0  0  0  0  0  0  0  0  0
   -6.5580   25.6790  -29.0570 F   0  0  0  0  0  0  0  0  0  0  0  0
   -4.8280   22.8140  -31.7520 C   0  0  0  0  0  0  0  0  0  0  0  0
   -3.9250   23.6650  -31.5040 O   0  0  0  0  0  0  0  0  0  0  0  0
   -4.4670   21.5590  -32.1710 N   0  0  0  0  0  0  0  0  0  0  0  0
   -3.0350   21.2090  -32.2930 C   0  0  0  0  0  0  0  0  0  0  0  0
   -2.3580   21.2850  -30.9480 C   0  0  0  0  0  0  0  0  0  0  0  0
   -3.0090   20.8070  -29.7980 C   0  0  0  0  0  0  0  0  0  0  0  0
   -2.3940   20.9070  -28.5460 C   0  0  0  0  0  0  0  0  0  0  0  0
   -1.1290   21.4870  -28.4310 C   0  0  0  0  0  0  0  0  0  0  0  0
   -0.4750   21.9690  -29.5680 C   0  0  0  0  0  0  0  0  0  0  0  0
   -1.0860   21.8690  -30.8230 C   0  0  0  0  0  0  0  0  0  0  0  0
   -7.4918   18.9624  -32.8757 H   0  0  0  0  0  0  0  0  0  0  0  0
   -9.8951   19.5154  -32.5470 H   0  0  0  0  0  0  0  0  0  0  0  0
  -10.5548   21.7758  -31.7389 H   0  0  0  0  0  0  0  0  0  0  0  0
   -8.8249   23.4988  -31.2799 H   0  0  0  0  0  0  0  0  0  0  0  0
   -6.1617   25.2491  -31.9511 H   0  0  0  0  0  0  0  0  0  0  0  0
   -7.5517   24.6121  -30.9792 H   0  0  0  0  0  0  0  0  0  0  0  0
   -2.9444   20.1859  -32.6869 H   0  0  0  0  0  0  0  0  0  0  0  0
   -2.5508   21.9220  -32.9765 H   0  0  0  0  0  0  0  0  0  0  0  0
   -4.0069   20.3521  -29.8830 H   0  0  0  0  0  0  0  0  0  0  0  0
   -2.9077   20.5281  -27.6502 H   0  0  0  0  0  0  0  0  0  0  0  0
   -0.6472   21.5645  -27.4452 H   0  0  0  0  0  0  0  0  0  0  0  0
    0.5208   22.4273  -29.4765 H   0  0  0  0  0  0  0  0  0  0  0  0
   -0.5681   22.2493  -31.7158 H   0  0  0  0  0  0  0  0  0  0  0  0
  1  2  2  0
  2  3  1  0
  3  4  2  0
  4  5  1  0
  5  6  2  0
  6  7  1  0
  7  8  2  0
  8  9  1  0
  9 10  1  0
 10 11  1  0
 11 12  1  0
 11 13  1  0
 11 14  1  0
  9 15  1  0
 15 16  2  0
 15 17  1  0
 17 18  1  0
 18 19  1  0
 19 20  2  0
 20 21  1  0
 21 22  2  0
 22 23  1  0
 23 24  2  0
 17  2  1  0
 24 19  1  0
  8  3  1  0
  4 25  1  0
  5 26  1  0
  6 27  1  0
  7 28  1  0
 10 29  1  0
 10 30  1  0
 18 31  1  0
 18 32  1  0
 20 33  1  0
 21 34  1  0
 22 35  1  0
 23 36  1  0
 24 37  1  0
M  END
>  <UniqueID>  (5) 
5

>  <SMILES>  (5) 
O=c1c2ccccc2n(CC(F)(F)F)c(=O)n1Cc1ccccc1

>  <Energy>  (5) 
53.66900982046144

>  <Genealogy>  (5) 
O=c1c2ccccc2n(CC(F)(F)F)c(=O)n1Cc1ccccc1 (3D coordinates assigned)
O=c1c2ccccc2n(CC(F)(F)F)c(=O)n1Cc1ccccc1 (optimized conformer: 53.66900982046144 kcal/mol)

>  <smiles>  (5) 
O=c1c2ccccc2n(CC(F)(F)F)c(=O)n1Cc1ccccc1

>  <score_type>  (5) 
oracle

>  <origin>  (5) 
adg

>  <m_score__min__energy>  (5) 
-7.04

>  <m_primary>  (5) 
energy

$$$$
5:0
     RDKit          3D

 32 34  0  0  0  0  0  0  0  0999 V2000
   -6.4710   25.7470  -30.0390 O   0  0  0  0  0  0  0  0  0  0  0  0
   -5.6030   24.8540  -30.2310 C   0  0  0  0  0  0  0  0  0  0  0  0
   -4.4590   24.6990  -29.4270 N   0  0  0  0  0  0  0  0  0  0  0  0
   -3.6880   23.5800  -29.9550 C   0  0  0  0  0  0  0  0  0  0  0  0
   -4.4790   23.0610  -31.1840 C   0  0  0  0  0  0  0  0  0  0  0  0
   -5.6620   23.9080  -31.2750 N   0  0  0  0  0  0  0  0  0  0  0  0
   -6.7110   23.7950  -32.2850 C   0  0  0  0  0  0  0  0  0  0  0  0
   -7.3950   22.4600  -32.1720 C   0  0  0  0  0  0  0  0  0  0  0  0
   -8.6670   22.3730  -31.5900 C   0  0  0  0  0  0  0  0  0  0  0  0
   -9.3190   21.1430  -31.5080 C   0  0  0  0  0  0  0  0  0  0  0  0
   -8.7130   19.9910  -32.0160 C   0  0  0  0  0  0  0  0  0  0  0  0
   -7.4440   20.0570  -32.6200 C   0  0  0  0  0  0  0  0  0  0  0  0
   -6.8110   18.8290  -33.1660 C   0  0  0  0  0  0  0  0  0  0  0  0
   -6.0670   18.7190  -34.3420 C   0  0  0  0  0  0  0  0  0  0  0  0
   -5.6010   17.4220  -34.5940 C   0  0  0  0  0  0  0  0  0  0  0  0
   -5.9700   16.4970  -33.6290 C   0  0  0  0  0  0  0  0  0  0  0  0
   -6.8760   17.2950  -32.4640 S   0  0  0  0  0  0  0  0  0  0  0  0
   -6.7910   21.3030  -32.6910 C   0  0  0  0  0  0  0  0  0  0  0  0
   -4.2070   25.2820  -28.5980 H   0  0  0  0  0  0  0  0  0  0  0  0
   -2.6856   23.9157  -30.2591 H   0  0  0  0  0  0  0  0  0  0  0  0
   -3.5517   22.7916  -29.2001 H   0  0  0  0  0  0  0  0  0  0  0  0
   -3.8719   23.1500  -32.0969 H   0  0  0  0  0  0  0  0  0  0  0  0
   -4.7459   21.9992  -31.0775 H   0  0  0  0  0  0  0  0  0  0  0  0
   -7.4494   24.5962  -32.1340 H   0  0  0  0  0  0  0  0  0  0  0  0
   -6.2602   23.8854  -33.2843 H   0  0  0  0  0  0  0  0  0  0  0  0
   -9.1527   23.2781  -31.1965 H   0  0  0  0  0  0  0  0  0  0  0  0
  -10.3134   21.0795  -31.0420 H   0  0  0  0  0  0  0  0  0  0  0  0
   -9.2325   19.0242  -31.9431 H   0  0  0  0  0  0  0  0  0  0  0  0
   -5.8655   19.5707  -35.0083 H   0  0  0  0  0  0  0  0  0  0  0  0
   -4.9979   17.1614  -35.4762 H   0  0  0  0  0  0  0  0  0  0  0  0
   -5.7136   15.4273  -33.6276 H   0  0  0  0  0  0  0  0  0  0  0  0
   -5.7973   21.3707  -33.1579 H   0  0  0  0  0  0  0  0  0  0  0  0
  1  2  2  0
  2  3  1  0
  3  4  1  0
  4  5  1  0
  5  6  1  0
  6  7  1  0
  7  8  1  0
  8  9  2  0
  9 10  1  0
 10 11  2  0
 11 12  1  0
 12 13  1  0
 13 14  2  0
 14 15  1  0
 15 16  2  0
 16 17  1  0
 12 18  2  0
  6  2  1  0
 18  8  1  0
 17 13  1  0
  3 19  1  0
  4 20  1  0
  4 21  1  0
  5 22  1  0
  5 23  1  0
  7 24  1  0
  7 25  1  0
  9 26  1  0
 10 27  1  0
 11 28  1  0
 14 29  1  0
 15 30  1  0
 16 31  1  0
 18 32  1  0
M  END
>  <UniqueID>  (6) 
6

>  <SMILES>  (6) 
O=C1NCCN1Cc1cccc(-c2cccs2)c1

>  <Energy>  (6) 
71.83966834153553

>  <Genealogy>  (6) 
O=C1NCCN1Cc1cccc(-c2cccs2)c1 (3D coordinates assigned)
O=C1NCCN1Cc1cccc(-c2cccs2)c1 (nonaromatic ring conformer: 71.83966834153553 kcal/mol)

>  <smiles>  (6) 
O=C1NCCN1Cc1cccc(-c2cccs2)c1

>  <score_type>  (6) 
oracle

>  <origin>  (6) 
adg

>  <m_score__min__energy>  (6) 
-8.1099999999999994

>  <m_primary>  (6) 
energy

$$$$
6:0
     RDKit          3D

 34 36  0  0  0  0  0  0  0  0999 V2000
   -7.3868   23.4424  -33.2347 H   0  0  0  0  0  0  0  0  0  0  0  0
   -7.2160   22.9660  -32.2580 C   0  0  0  0  0  0  0  0  0  0  0  0
   -7.9030   21.8430  -31.9750 C   0  0  0  0  0  0  0  0  0  0  0  0
   -9.0830   21.8880  -31.1370 C   0  0  0  0  0  0  0  0  0  0  0  0
  -10.0250   21.9240  -30.4660 N   0  0  0  0  0  0  0  0  0  0  0  0
   -7.4130   20.5190  -32.4440 C   0  0  0  0  0  0  0  0  0  0  0  0
   -6.3690   20.4270  -33.3860 C   0  0  0  0  0  0  0  0  0  0  0  0
   -5.9039   21.3446  -33.7755 H   0  0  0  0  0  0  0  0  0  0  0  0
   -5.9190   19.1800  -33.8300 C   0  0  0  0  0  0  0  0  0  0  0  0
   -5.0945   19.1227  -34.5559 H   0  0  0  0  0  0  0  0  0  0  0  0
   -6.5130   18.0020  -33.3550 C   0  0  0  0  0  0  0  0  0  0  0  0
   -6.0020   16.6650  -33.8020 C   0  0  0  0  0  0  0  0  0  0  0  0
   -5.7667   16.0493  -32.9214 H   0  0  0  0  0  0  0  0  0  0  0  0
   -6.7712   16.1618  -34.4063 H   0  0  0  0  0  0  0  0  0  0  0  0
   -5.0933   16.8031  -34.4063 H   0  0  0  0  0  0  0  0  0  0  0  0
   -7.5440   18.0850  -32.4090 C   0  0  0  0  0  0  0  0  0  0  0  0
   -7.9993   17.1650  -32.0137 H   0  0  0  0  0  0  0  0  0  0  0  0
   -7.9970   19.3320  -31.9650 C   0  0  0  0  0  0  0  0  0  0  0  0
   -8.8176   19.3849  -31.2344 H   0  0  0  0  0  0  0  0  0  0  0  0
   -6.2480   23.5980  -31.3400 C   0  0  0  0  0  0  0  0  0  0  0  0
   -6.5290   24.6390  -30.4610 C   0  0  0  0  0  0  0  0  0  0  0  0
   -7.5012   25.1471  -30.3801 H   0  0  0  0  0  0  0  0  0  0  0  0
   -5.4380   24.9380  -29.7200 N   0  0  0  0  0  0  0  0  0  0  0  0
   -5.3680   25.6730  -28.9810 H   0  0  0  0  0  0  0  0  0  0  0  0
   -4.4790   24.0790  -30.1050 C   0  0  0  0  0  0  0  0  0  0  0  0
   -3.1890   23.9710  -29.5870 C   0  0  0  0  0  0  0  0  0  0  0  0
   -2.8314   24.6590  -28.8067 H   0  0  0  0  0  0  0  0  0  0  0  0
   -2.3590   22.9540  -30.0940 C   0  0  0  0  0  0  0  0  0  0  0  0
   -1.3315   22.8478  -29.7160 H   0  0  0  0  0  0  0  0  0  0  0  0
   -2.8370   22.0690  -31.0850 C   0  0  0  0  0  0  0  0  0  0  0  0
   -2.1817   21.2734  -31.4691 H   0  0  0  0  0  0  0  0  0  0  0  0
   -4.1450   22.1980  -31.5840 C   0  0  0  0  0  0  0  0  0  0  0  0
   -4.5335   21.5035  -32.3435 H   0  0  0  0  0  0  0  0  0  0  0  0
   -4.9360   23.2360  -31.0850 C   0  0  0  0  0  0  0  0  0  0  0  0
  1  2  1  0
  2  3  2  0
  3  4  1  0
  4  5  3  0
  3  6  1  0
  6  7  2  0
  7  8  1  0
  7  9  1  0
  9 10  1  0
  9 11  2  0
 11 12  1  0
 12 13  1  0
 12 14  1  0
 12 15  1  0
 11 16  1  0
 16 17  1  0
 16 18  2  0
 18 19  1  0
  2 20  1  0
 20 21  2  0
 21 22  1  0
 21 23  1  0
 23 24  1  0
 23 25  1  0
 25 26  2  0
 26 27  1  0
 26 28  1  0
 28 29  1  0
 28 30  2  0
 30 31  1  0
 30 32  1  0
 32 33  1  0
 32 34  2  0
 18  6  1  0
 34 20  1  0
 34 25  1  0
M  END
>  <UniqueID>  (7) 
7

>  <SMILES>  (7) 
Cc1ccc(/C(C#N)=C/c2c[nH]c3ccccc23)cc1

>  <Energy>  (7) 
78.64834718191838

>  <Genealogy>  (7) 
Cc1ccc(/C(C#N)=C/c2c[nH]c3ccccc23)cc1 (cis-trans isomerization)
Cc1ccc(/C(C#N)=C/c2c[nH]c3ccccc23)cc1 (3D coordinates assigned)
Cc1ccc(/C(C#N)=C/c2c[nH]c3ccccc23)cc1 (optimized conformer: 78.64834718191838 kcal/mol)

>  <smiles>  (7) 
Cc1ccc(C(C#N)=Cc2c[nH]c3ccccc23)cc1

>  <score_type>  (7) 
oracle

>  <origin>  (7) 
adg

>  <m_score__min__energy>  (7) 
-8.2300000000000004

>  <m_primary>  (7) 
energy

$$$$
7:0
     RDKit          3D

 24 26  0  0  0  0  0  0  0  0999 V2000
   -8.7580   22.2780  -31.6420 C   0  0  0  0  0  0  0  0  0  0  0  0
   -7.7020   23.0960  -32.1340 O   0  0  0  0  0  0  0  0  0  0  0  0
   -6.4280   23.1770  -31.5550 C   0  0  0  0  0  0  0  0  0  0  0  0
   -5.7750   24.4230  -31.3220 C   0  0  0  0  0  0  0  0  0  0  0  0
   -4.4990   24.4630  -30.7320 C   0  0  0  0  0  0  0  0  0  0  0  0
   -3.8640   25.6730  -30.4790 O   0  0  0  0  0  0  0  0  0  0  0  0
   -3.8940   23.2500  -30.4210 C   0  0  0  0  0  0  0  0  0  0  0  0
   -4.5200   22.0460  -30.6170 C   0  0  0  0  0  0  0  0  0  0  0  0
   -5.7910   21.9740  -31.1820 C   0  0  0  0  0  0  0  0  0  0  0  0
   -3.8160   21.0370  -30.0500 N   0  0  0  0  0  0  0  0  0  0  0  0
   -2.7250   21.6990  -29.5880 C   0  0  0  0  0  0  0  0  0  0  0  0
   -2.7340   23.0110  -29.8010 N   0  0  0  0  0  0  0  0  0  0  0  0
   -1.9700   23.7010  -28.7760 C   0  0  0  0  0  0  0  0  0  0  0  0
   -1.4360   22.5380  -27.9680 C   0  0  0  0  0  0  0  0  0  0  0  0
   -1.8960   21.3790  -28.4490 C   0  0  0  0  0  0  0  0  0  0  0  0
   -1.6510   19.7970  -27.7380 Cl  0  0  0  0  0  0  0  0  0  0  0  0
   -8.7466   22.2868  -30.5421 H   0  0  0  0  0  0  0  0  0  0  0  0
   -9.7217   22.6676  -32.0019 H   0  0  0  0  0  0  0  0  0  0  0  0
   -8.6217   21.2475  -32.0019 H   0  0  0  0  0  0  0  0  0  0  0  0
   -6.2737   25.3613  -31.6063 H   0  0  0  0  0  0  0  0  0  0  0  0
   -6.2861   21.0035  -31.3338 H   0  0  0  0  0  0  0  0  0  0  0  0
   -1.1542   24.2951  -29.2137 H   0  0  0  0  0  0  0  0  0  0  0  0
   -2.5551   24.4249  -28.1898 H   0  0  0  0  0  0  0  0  0  0  0  0
   -0.7621   22.6335  -27.1039 H   0  0  0  0  0  0  0  0  0  0  0  0
  1  2  1  0
  2  3  1  0
  3  4  2  0
  4  5  1  0
  5  6  1  0
  5  7  2  0
  7  8  1  0
  8  9  2  0
  8 10  1  0
 10 11  2  0
 11 12  1  0
 12 13  1  0
 13 14  1  0
 14 15  2  0
 15 16  1  0
  9  3  1  0
 15 11  1  0
 12  7  1  0
  1 17  1  0
  1 18  1  0
  1 19  1  0
  4 20  1  0
  9 21  1  0
 13 22  1  0
 13 23  1  0
 14 24  1  0
M  CHG  1   6  -1
M  END
>  <UniqueID>  (8) 
8

>  <SMILES>  (8) 
COc1cc([O-])c2c(c1)nc1n2CC=C1Cl

>  <Energy>  (8) 
99.88236362741827

>  <Genealogy>  (8) 
COc1cc([O-])c2c(c1)nc1n2CC=C1Cl (protonated)
COc1cc([O-])c2c(c1)nc1n2CC=C1Cl (3D coordinates assigned)
COc1cc([O-])c2c(c1)nc1n2CC=C1Cl (nonaromatic ring conformer: 99.88236362741827 kcal/mol)

>  <smiles>  (8) 
COc1cc(O)c2c(c1)nc1n2CC=C1Cl

>  <score_type>  (8) 
oracle

>  <origin>  (8) 
adg

>  <m_score__min__energy>  (8) 
-8.2400000000000002

>  <m_primary>  (8) 
energy

$$$$
8:0
     RDKit          3D

 41 44  0  0  0  0  0  0  0  0999 V2000
   -6.2790   17.7780  -31.1750 C   0  0  0  0  0  0  0  0  0  0  0  0
   -7.2190   18.0570  -32.2800 N   0  0  0  0  0  0  0  0  0  0  0  0
   -8.1460   19.1610  -31.9460 C   0  0  0  0  0  0  0  0  0  0  0  0
   -7.4530   20.5440  -31.9170 C   0  0  0  0  0  0  0  0  0  0  0  0
   -6.1260   20.5100  -32.5670 N   0  0  0  0  0  0  0  0  0  0  0  0
   -5.4210   21.8140  -32.7200 C   0  0  0  0  0  0  0  0  0  0  0  0
   -5.6970   22.8370  -31.6280 C   0  0  0  0  0  0  0  0  0  0  0  0
   -6.8350   23.6360  -31.4660 C   0  0  0  0  0  0  0  0  0  0  0  0
   -6.8600   24.5790  -30.4260 C   0  0  0  0  0  0  0  0  0  0  0  0
   -5.7390   24.7490  -29.5920 C   0  0  0  0  0  0  0  0  0  0  0  0
   -4.5780   23.9910  -29.8050 C   0  0  0  0  0  0  0  0  0  0  0  0
   -4.5840   23.0470  -30.8340 C   0  0  0  0  0  0  0  0  0  0  0  0
   -3.4950   22.2620  -31.3640 C   0  0  0  0  0  0  0  0  0  0  0  0
   -2.1660   22.1860  -30.9430 C   0  0  0  0  0  0  0  0  0  0  0  0
   -1.2810   21.3820  -31.6760 C   0  0  0  0  0  0  0  0  0  0  0  0
   -1.7310   20.6850  -32.8130 C   0  0  0  0  0  0  0  0  0  0  0  0
   -3.0710   20.7840  -33.2240 C   0  0  0  0  0  0  0  0  0  0  0  0
   -3.9470   21.5830  -32.4820 C   0  0  0  0  0  0  0  0  0  0  0  0
   -6.2100   19.7750  -33.8390 C   0  0  0  0  0  0  0  0  0  0  0  0
   -6.5140   18.2890  -33.5680 C   0  0  0  0  0  0  0  0  0  0  0  0
   -6.7894   17.9295  -30.2124 H   0  0  0  0  0  0  0  0  0  0  0  0
   -5.9294   16.7374  -31.2449 H   0  0  0  0  0  0  0  0  0  0  0  0
   -5.4183   18.4594  -31.2449 H   0  0  0  0  0  0  0  0  0  0  0  0
   -7.8010   17.1920  -32.3940 H   0  0  0  0  0  0  0  0  0  0  0  0
   -8.9472   19.1861  -32.6993 H   0  0  0  0  0  0  0  0  0  0  0  0
   -8.5377   18.9679  -30.9364 H   0  0  0  0  0  0  0  0  0  0  0  0
   -8.0884   21.2711  -32.4438 H   0  0  0  0  0  0  0  0  0  0  0  0
   -7.3097   20.8312  -30.8649 H   0  0  0  0  0  0  0  0  0  0  0  0
   -5.7454   22.1732  -33.7078 H   0  0  0  0  0  0  0  0  0  0  0  0
   -7.6956   23.5268  -32.1424 H   0  0  0  0  0  0  0  0  0  0  0  0
   -7.7609   25.1885  -30.2621 H   0  0  0  0  0  0  0  0  0  0  0  0
   -5.7734   25.4791  -28.7700 H   0  0  0  0  0  0  0  0  0  0  0  0
   -3.6861   24.1364  -29.1778 H   0  0  0  0  0  0  0  0  0  0  0  0
   -1.8218   22.7426  -30.0588 H   0  0  0  0  0  0  0  0  0  0  0  0
   -0.2306   21.2957  -31.3610 H   0  0  0  0  0  0  0  0  0  0  0  0
   -1.0292   20.0588  -33.3834 H   0  0  0  0  0  0  0  0  0  0  0  0
   -3.4249   20.2426  -34.1137 H   0  0  0  0  0  0  0  0  0  0  0  0
   -7.0129   20.2047  -34.4560 H   0  0  0  0  0  0  0  0  0  0  0  0
   -5.2492   19.8570  -34.3683 H   0  0  0  0  0  0  0  0  0  0  0  0
   -7.1446   17.9074  -34.3845 H   0  0  0  0  0  0  0  0  0  0  0  0
   -5.5486   17.7651  -33.5092 H   0  0  0  0  0  0  0  0  0  0  0  0
  1  2  1  0
  2  3  1  0
  3  4  1  0
  4  5  1  0
  5  6  1  0
  6  7  1  0
  7  8  2  0
  8  9  1  0
  9 10  2  0
 10 11  1  0
 11 12  2  0
 12 13  1  0
 13 14  2  0
 14 15  1  0
 15 16  2  0
 16 17  1  0
 17 18  2  0
  5 19  1  0
 19 20  1  0
 20  2  1  0
 18  6  1  0
 12  7  1  0
 18 13  1  0
  1 21  1  0
  1 22  1  0
  1 23  1  0
  2 24  1  0
  3 25  1  0
  3 26  1  0
  4 27  1  0
  4 28  1  0
  6 29  1  0
  8 30  1  0
  9 31  1  0
 10 32  1  0
 11 33  1  0
 14 34  1  0
 15 35  1  0
 16 36  1  0
 17 37  1  0
 19 38  1  0
 19 39  1  0
 20 40  1  0
 20 41  1  0
M  CHG  1   2   1
M  END
>  <UniqueID>  (9) 
9

>  <SMILES>  (9) 
C[NH+]1CCN(C2c3ccccc3-c3ccccc32)CC1

>  <Energy>  (9) 
85.53911696350828

>  <Genealogy>  (9) 
C[NH+]1CCN(C2c3ccccc3-c3ccccc32)CC1 (protonated)
C[NH+]1CCN(C2c3ccccc3-c3ccccc32)CC1 (3D coordinates assigned)
C[NH+]1CCN(C2c3ccccc3-c3ccccc32)CC1 (nonaromatic ring conformer: 85.53911696350828 kcal/mol)

>  <smiles>  (9) 
CN1CCN(C2c3ccccc3-c3ccccc32)CC1

>  <score_type>  (9) 
oracle

>  <origin>  (9) 
adg

>  <m_score__min__energy>  (9) 
-7.1500000000000004

>  <m_primary>  (9) 
energy

$$$$
9:0
     RDKit          3D

 37 39  0  0  0  0  0  0  0  0999 V2000
   -1.7600   20.3120  -34.1450 C   0  0  0  0  0  0  0  0  0  0  0  0
   -2.9240   20.7030  -33.3580 N   0  0  0  0  0  0  0  0  0  0  0  0
   -3.1550   21.9220  -32.8360 C   0  0  0  0  0  0  0  0  0  0  0  0
   -4.3020   21.8510  -32.0600 C   0  0  0  0  0  0  0  0  0  0  0  0
   -4.9280   22.9620  -31.3010 C   0  0  0  0  0  0  0  0  0  0  0  0
   -4.1380   23.8370  -30.5300 C   0  0  0  0  0  0  0  0  0  0  0  0
   -4.7300   24.8820  -29.8140 C   0  0  0  0  0  0  0  0  0  0  0  0
   -6.1120   25.0680  -29.8580 C   0  0  0  0  0  0  0  0  0  0  0  0
   -6.9070   24.2070  -30.6180 C   0  0  0  0  0  0  0  0  0  0  0  0
   -6.3220   23.1600  -31.3360 C   0  0  0  0  0  0  0  0  0  0  0  0
   -4.7630   20.5820  -32.0910 N   0  0  0  0  0  0  0  0  0  0  0  0
   -3.9050   19.9090  -32.8810 C   0  0  0  0  0  0  0  0  0  0  0  0
   -4.0700   18.1560  -33.2410 S   0  0  0  0  0  0  0  0  0  0  0  0
   -5.5890   18.3470  -34.2380 C   0  0  0  0  0  0  0  0  0  0  0  0
   -6.7540   18.7460  -33.3760 C   0  0  0  0  0  0  0  0  0  0  0  0
   -7.2880   20.0420  -33.4670 C   0  0  0  0  0  0  0  0  0  0  0  0
   -8.3410   20.4290  -32.6330 C   0  0  0  0  0  0  0  0  0  0  0  0
   -8.8650   19.5280  -31.7010 C   0  0  0  0  0  0  0  0  0  0  0  0
   -8.3370   18.2380  -31.6030 C   0  0  0  0  0  0  0  0  0  0  0  0
   -7.2860   17.8460  -32.4360 C   0  0  0  0  0  0  0  0  0  0  0  0
   -0.9369   20.0355  -33.4697 H   0  0  0  0  0  0  0  0  0  0  0  0
   -2.0186   19.4514  -34.7794 H   0  0  0  0  0  0  0  0  0  0  0  0
   -1.4466   21.1542  -34.7794 H   0  0  0  0  0  0  0  0  0  0  0  0
   -2.5400   22.8197  -32.9972 H   0  0  0  0  0  0  0  0  0  0  0  0
   -3.0476   23.6972  -30.4909 H   0  0  0  0  0  0  0  0  0  0  0  0
   -4.1043   25.5594  -29.2143 H   0  0  0  0  0  0  0  0  0  0  0  0
   -6.5750   25.8917  -29.2948 H   0  0  0  0  0  0  0  0  0  0  0  0
   -7.9967   24.3533  -30.6516 H   0  0  0  0  0  0  0  0  0  0  0  0
   -6.9547   22.4862  -31.9324 H   0  0  0  0  0  0  0  0  0  0  0  0
   -5.5910   20.1830  -31.5970 H   0  0  0  0  0  0  0  0  0  0  0  0
   -5.4235   19.1226  -35.0003 H   0  0  0  0  0  0  0  0  0  0  0  0
   -5.8195   17.3820  -34.7129 H   0  0  0  0  0  0  0  0  0  0  0  0
   -6.8763   20.7546  -34.1968 H   0  0  0  0  0  0  0  0  0  0  0  0
   -8.7580   21.4440  -32.7101 H   0  0  0  0  0  0  0  0  0  0  0  0
   -9.6929   19.8347  -31.0449 H   0  0  0  0  0  0  0  0  0  0  0  0
   -8.7494   17.5301  -30.8690 H   0  0  0  0  0  0  0  0  0  0  0  0
   -6.8733   16.8295  -32.3561 H   0  0  0  0  0  0  0  0  0  0  0  0
  1  2  1  0
  2  3  1  0
  3  4  2  0
  4  5  1  0
  5  6  2  0
  6  7  1  0
  7  8  2  0
  8  9  1  0
  9 10  2  0
  4 11  1  0
 11 12  2  0
 12 13  1  0
 13 14  1  0
 14 15  1  0
 15 16  2  0
 16 17  1  0
 17 18  2  0
 18 19  1  0
 19 20  2  0
 12  2  1  0
 20 15  1  0
 10  5  1  0
  1 21  1  0
  1 22  1  0
  1 23  1  0
  3 24  1  0
  6 25  1  0
  7 26  1  0
  8 27  1  0
  9 28  1  0
 10 29  1  0
 11 30  1  0
 14 31  1  0
 14 32  1  0
 16 33  1  0
 17 34  1  0
 18 35  1  0
 19 36  1  0
 20 37  1  0
M  CHG  1  11   1
M  END
>  <UniqueID>  (10) 
10

>  <SMILES>  (10) 
Cn1cc(-c2ccccc2)[nH+]c1SCc1ccccc1

>  <Energy>  (10) 
65.71927696221368

>  <Genealogy>  (10) 
Cn1cc(-c2ccccc2)[nH+]c1SCc1ccccc1 (protonated)
Cn1cc(-c2ccccc2)[nH+]c1SCc1ccccc1 (3D coordinates assigned)
Cn1cc(-c2ccccc2)[nH+]c1SCc1ccccc1 (optimized conformer: 65.71927696221368 kcal/mol)

>  <smiles>  (10) 
Cn1cc(-c2ccccc2)nc1SCc1ccccc1

>  <score_type>  (10) 
oracle

>  <origin>  (10) 
adg

>  <m_score__min__energy>  (10) 
-6.8700000000000001

>  <m_primary>  (10) 
energy

$$$$
10:0
     RDKit          3D

 45 48  0  0  0  0  0  0  0  0999 V2000
   -8.1537   24.3820  -30.8353 H   0  0  0  0  0  0  0  0  0  0  0  0
   -7.0700   24.2120  -30.9170 C   0  0  0  0  0  0  0  0  0  0  0  0
   -6.1150   25.0610  -30.5000 N   0  0  0  0  0  0  0  0  0  0  0  0
   -4.9640   24.4410  -30.8260 C   0  0  0  0  0  0  0  0  0  0  0  0
   -3.6830   24.9810  -30.4620 N   0  0  0  0  0  0  0  0  0  0  0  0
   -2.9690   24.7550  -29.3940 C   0  0  0  0  0  0  0  0  0  0  0  0
   -1.7270   25.2990  -29.3300 N   0  0  0  0  0  0  0  0  0  0  0  0
   -0.8970   25.1210  -28.2690 C   0  0  0  0  0  0  0  0  0  0  0  0
    0.0973   25.5915  -28.2717 H   0  0  0  0  0  0  0  0  0  0  0  0
   -1.2960   24.3390  -27.1630 C   0  0  0  0  0  0  0  0  0  0  0  0
   -0.4190   24.1390  -26.0120 N   0  0  0  0  0  0  0  0  0  0  0  0
   -0.4810   22.8620  -25.2680 C   0  0  0  0  0  0  0  0  0  0  0  0
   -1.5166   22.7053  -24.9319 H   0  0  0  0  0  0  0  0  0  0  0  0
   -0.1396   22.0724  -25.9535 H   0  0  0  0  0  0  0  0  0  0  0  0
    0.4370   22.8210  -24.0430 C   0  0  0  0  0  0  0  0  0  0  0  0
   -0.0635   23.3225  -23.2016 H   0  0  0  0  0  0  0  0  0  0  0  0
    0.6452   21.7694  -23.7965 H   0  0  0  0  0  0  0  0  0  0  0  0
    1.6580   23.4700  -24.3050 O   0  0  0  0  0  0  0  0  0  0  0  0
    1.4090   24.8500  -24.4310 C   0  0  0  0  0  0  0  0  0  0  0  0
    0.8328   25.1925  -23.5588 H   0  0  0  0  0  0  0  0  0  0  0  0
    2.3734   25.3761  -24.4870 H   0  0  0  0  0  0  0  0  0  0  0  0
    0.6150   25.1510  -25.7050 C   0  0  0  0  0  0  0  0  0  0  0  0
    0.1216   26.1267  -25.5847 H   0  0  0  0  0  0  0  0  0  0  0  0
    1.3309   25.1439  -26.5401 H   0  0  0  0  0  0  0  0  0  0  0  0
   -2.5810   23.7570  -27.2220 C   0  0  0  0  0  0  0  0  0  0  0  0
   -2.9335   23.1381  -26.3838 H   0  0  0  0  0  0  0  0  0  0  0  0
   -3.4110   23.9540  -28.3260 C   0  0  0  0  0  0  0  0  0  0  0  0
   -4.4056   23.4854  -28.3608 H   0  0  0  0  0  0  0  0  0  0  0  0
   -5.1370   23.2300  -31.3920 N   0  0  0  0  0  0  0  0  0  0  0  0
   -6.4750   23.0930  -31.4640 C   0  0  0  0  0  0  0  0  0  0  0  0
   -7.1480   21.8990  -32.0360 C   0  0  0  0  0  0  0  0  0  0  0  0
   -8.5200   21.7020  -31.8220 C   0  0  0  0  0  0  0  0  0  0  0  0
   -9.0959   22.4299  -31.2316 H   0  0  0  0  0  0  0  0  0  0  0  0
   -9.1520   20.5820  -32.3590 C   0  0  0  0  0  0  0  0  0  0  0  0
  -10.2283   20.4282  -32.1920 H   0  0  0  0  0  0  0  0  0  0  0  0
   -8.4450   19.6790  -33.0880 N   0  0  0  0  0  0  0  0  0  0  0  0
   -8.9400   18.8470  -33.4790 H   0  0  0  0  0  0  0  0  0  0  0  0
   -7.1110   19.8290  -33.3210 C   0  0  0  0  0  0  0  0  0  0  0  0
   -6.4510   18.8540  -34.0830 O   0  0  0  0  0  0  0  0  0  0  0  0
   -5.0410   18.6480  -34.0850 C   0  0  0  0  0  0  0  0  0  0  0  0
   -4.6767   18.5948  -33.0484 H   0  0  0  0  0  0  0  0  0  0  0  0
   -4.8087   17.7064  -34.6041 H   0  0  0  0  0  0  0  0  0  0  0  0
   -4.5491   19.4838  -34.6041 H   0  0  0  0  0  0  0  0  0  0  0  0
   -6.4400   20.9500  -32.7940 C   0  0  0  0  0  0  0  0  0  0  0  0
   -5.3632   21.0826  -32.9754 H   0  0  0  0  0  0  0  0  0  0  0  0
  1  2  1  0
  2  3  1  0
  3  4  1  0
  4  5  1  0
  5  6  2  0
  6  7  1  0
  7  8  1  0
  8  9  1  0
  8 10  2  0
 10 11  1  0
 11 12  1  0
 12 13  1  0
 12 14  1  0
 12 15  1  0
 15 16  1  0
 15 17  1  0
 15 18  1  0
 18 19  1  0
 19 20  1  0
 19 21  1  0
 19 22  1  0
 22 23  1  0
 22 24  1  0
 10 25  1  0
 25 26  1  0
 25 27  2  0
 27 28  1  0
  4 29  2  0
 29 30  1  0
 30 31  1  0
 31 32  2  0
 32 33  1  0
 32 34  1  0
 34 35  1  0
 34 36  2  0
 36 37  1  0
 36 38  1  0
 38 39  1  0
 39 40  1  0
 40 41  1  0
 40 42  1  0
 40 43  1  0
 38 44  2  0
 44 45  1  0
 30  2  2  0
 44 31  1  0
 27  6  1  0
 22 11  1  0
M  CHG  3   3  -1   7  -1  36   1
M  END
>  <UniqueID>  (11) 
11

>  <SMILES>  (11) 
COc1cc(-c2c[n-]c(/N=c3\ccc(N4CCOCC4)c[n-]3)n2)cc[nH+]1

>  <Energy>  (11) 
92.9389080138524

>  <Genealogy>  (11) 
COc1cc(-c2c[n-]c(N=c3ccc(N4CCOCC4)c[n-]3)n2)cc[nH+]1 (protonated)
COc1cc(-c2c[n-]c(/N=c3\ccc(N4CCOCC4)c[n-]3)n2)cc[nH+]1 (cis-trans isomerization)
COc1cc(-c2c[n-]c(/N=c3\ccc(N4CCOCC4)c[n-]3)n2)cc[nH+]1 (3D coordinates assigned)
COc1cc(-c2c[n-]c(/N=c3\ccc(N4CCOCC4)c[n-]3)n2)cc[nH+]1 (nonaromatic ring conformer: 92.9389080138524 kcal/mol)

>  <smiles>  (11) 
COc1cc(-c2c[nH]c(N=c3ccc(N4CCOCC4)c[nH]3)n2)ccn1

>  <score_type>  (11) 
oracle

>  <origin>  (11) 
adg

>  <m_score__min__energy>  (11) 
-10.390000000000001

>  <m_primary>  (11) 
energy

$$$$
11:0
     RDKit          3D

 70 75  0  0  0  0  0  0  0  0999 V2000
   -3.3520   17.5580  -33.6140 C   0  0  0  0  0  0  0  0  0  0  0  0
   -3.3330   19.0170  -33.6290 N   0  0  0  0  0  0  0  0  0  0  0  0
   -4.3090   19.8820  -33.2750 C   0  0  0  0  0  0  0  0  0  0  0  0
   -5.6380   19.5050  -32.7550 C   0  0  0  0  0  0  0  0  0  0  0  0
   -6.8080   20.0440  -33.3200 C   0  0  0  0  0  0  0  0  0  0  0  0
   -8.0620   19.6410  -32.8500 C   0  0  0  0  0  0  0  0  0  0  0  0
   -8.1550   18.7110  -31.8090 C   0  0  0  0  0  0  0  0  0  0  0  0
   -6.9980   18.1640  -31.2450 C   0  0  0  0  0  0  0  0  0  0  0  0
   -5.7420   18.5540  -31.7240 C   0  0  0  0  0  0  0  0  0  0  0  0
   -3.9130   21.1640  -33.4350 N   0  0  0  0  0  0  0  0  0  0  0  0
   -2.6640   21.1140  -33.8700 N   0  0  0  0  0  0  0  0  0  0  0  0
   -2.3090   19.8230  -33.9720 C   0  0  0  0  0  0  0  0  0  0  0  0
   -0.6620   19.2600  -34.4270 S   0  0  0  0  0  0  0  0  0  0  0  0
    0.1150   19.8780  -32.8910 C   0  0  0  0  0  0  0  0  0  0  0  0
   -0.6230   19.3340  -31.6640 C   0  0  0  0  0  0  0  0  0  0  0  0
   -0.2980   20.1240  -30.3870 C   0  0  0  0  0  0  0  0  0  0  0  0
   -1.5040   20.7370  -29.7810 N   0  0  0  0  0  0  0  0  0  0  0  0
   -2.2840   21.5310  -30.7490 C   0  0  0  0  0  0  0  0  0  0  0  0
   -2.6220   22.8730  -30.1190 C   0  0  1  0  0  0  0  0  0  0  0  0
   -3.9070   22.8360  -29.4000 N   0  0  0  0  0  0  0  0  0  0  0  0
   -4.9660   24.1400  -29.8800 S   0  0  0  0  0  0  0  0  0  0  0  0
   -5.3760   24.9200  -28.6610 O   0  0  0  0  0  0  0  0  0  0  0  0
   -4.3030   25.0750  -30.8500 O   0  0  0  0  0  0  0  0  0  0  0  0
   -6.3940   23.4520  -30.6260 C   0  0  0  0  0  0  0  0  0  0  0  0
   -7.3370   22.6500  -29.9990 C   0  0  0  0  0  0  0  0  0  0  0  0
   -8.4040   22.3060  -30.8400 C   0  0  0  0  0  0  0  0  0  0  0  0
   -8.3040   22.8450  -32.1210 C   0  0  0  0  0  0  0  0  0  0  0  0
   -6.8850   23.7450  -32.2060 S   0  0  0  0  0  0  0  0  0  0  0  0
   -3.1870   23.1190  -28.1540 C   0  0  0  0  0  0  0  0  0  0  0  0
   -1.8200   22.9880  -28.8450 C   0  0  2  0  0  0  0  0  0  0  0  0
   -0.8140   24.1740  -28.7330 C   0  0  0  0  0  0  0  0  0  0  0  0
   -0.8740   24.9920  -27.4660 C   0  0  0  0  0  0  0  0  0  0  0  0
   -0.8550   26.3990  -27.5300 C   0  0  0  0  0  0  0  0  0  0  0  0
   -0.8580   27.1550  -26.3560 C   0  0  0  0  0  0  0  0  0  0  0  0
   -0.8790   26.5190  -25.1110 C   0  0  0  0  0  0  0  0  0  0  0  0
   -0.8850   25.1190  -25.0360 C   0  0  0  0  0  0  0  0  0  0  0  0
   -0.8710   24.3600  -26.2100 C   0  0  0  0  0  0  0  0  0  0  0  0
   -1.1540   21.6120  -28.6470 C   0  0  0  0  0  0  0  0  0  0  0  0
   -3.3566   17.2021  -32.5732 H   0  0  0  0  0  0  0  0  0  0  0  0
   -4.2549   17.1977  -34.1287 H   0  0  0  0  0  0  0  0  0  0  0  0
   -2.4588   17.1744  -34.1287 H   0  0  0  0  0  0  0  0  0  0  0  0
   -6.7366   20.7828  -34.1318 H   0  0  0  0  0  0  0  0  0  0  0  0
   -8.9763   20.0558  -33.2994 H   0  0  0  0  0  0  0  0  0  0  0  0
   -9.1432   18.4085  -31.4322 H   0  0  0  0  0  0  0  0  0  0  0  0
   -7.0747   17.4307  -30.4287 H   0  0  0  0  0  0  0  0  0  0  0  0
   -4.8311   18.1143  -31.2917 H   0  0  0  0  0  0  0  0  0  0  0  0
   -2.0700   21.9490  -34.0770 H   0  0  0  0  0  0  0  0  0  0  0  0
    1.1644   19.5497  -32.8580 H   0  0  0  0  0  0  0  0  0  0  0  0
    0.0626   20.9767  -32.8813 H   0  0  0  0  0  0  0  0  0  0  0  0
   -1.7058   19.3914  -31.8489 H   0  0  0  0  0  0  0  0  0  0  0  0
   -0.2950   18.2956  -31.5085 H   0  0  0  0  0  0  0  0  0  0  0  0
    0.1571   19.4408  -29.6548 H   0  0  0  0  0  0  0  0  0  0  0  0
    0.3905   20.9369  -30.6609 H   0  0  0  0  0  0  0  0  0  0  0  0
   -1.6903   21.6895  -31.6614 H   0  0  0  0  0  0  0  0  0  0  0  0
   -3.2090   20.9972  -31.0126 H   0  0  0  0  0  0  0  0  0  0  0  0
   -2.5168   23.6082  -30.9304 H   0  0  0  0  0  0  0  0  0  0  0  0
   -7.2557   22.3194  -28.9530 H   0  0  0  0  0  0  0  0  0  0  0  0
   -9.2420   21.6700  -30.5188 H   0  0  0  0  0  0  0  0  0  0  0  0
   -9.0286   22.7059  -32.9369 H   0  0  0  0  0  0  0  0  0  0  0  0
   -3.3823   24.1237  -27.7510 H   0  0  0  0  0  0  0  0  0  0  0  0
   -3.3982   22.5113  -27.2617 H   0  0  0  0  0  0  0  0  0  0  0  0
    0.2016   23.7594  -28.8151 H   0  0  0  0  0  0  0  0  0  0  0  0
   -1.0916   24.8678  -29.5402 H   0  0  0  0  0  0  0  0  0  0  0  0
   -0.8378   26.9035  -28.5073 H   0  0  0  0  0  0  0  0  0  0  0  0
   -0.8438   28.2535  -26.4108 H   0  0  0  0  0  0  0  0  0  0  0  0
   -0.8908   27.1182  -24.1886 H   0  0  0  0  0  0  0  0  0  0  0  0
   -0.9007   24.6192  -24.0562 H   0  0  0  0  0  0  0  0  0  0  0  0
   -0.8576   23.2617  -26.1507 H   0  0  0  0  0  0  0  0  0  0  0  0
   -0.0619   21.7350  -28.6005 H   0  0  0  0  0  0  0  0  0  0  0  0
   -1.5089   21.1610  -27.7086 H   0  0  0  0  0  0  0  0  0  0  0  0
  1  2  1  0
  2  3  1  0
  3  4  1  0
  4  5  2  0
  5  6  1  0
  6  7  2  0
  7  8  1  0
  8  9  2  0
  3 10  2  0
 10 11  1  0
 11 12  2  0
 12 13  1  0
 13 14  1  0
 14 15  1  0
 15 16  1  0
 16 17  1  0
 17 18  1  0
 18 19  1  0
 19 20  1  0
 20 21  1  0
 21 22  2  0
 21 23  2  0
 21 24  1  0
 24 25  2  0
 25 26  1  0
 26 27  2  0
 27 28  1  0
 20 29  1  0
 29 30  1  0
 30 31  1  6
 31 32  1  0
 32 33  2  0
 33 34  1  0
 34 35  2  0
 35 36  1  0
 36 37  2  0
 30 38  1  0
 12  2  1  0
 38 17  1  0
  9  4  1  0
 30 19  1  0
 37 32  1  0
 28 24  1  0
  1 39  1  0
  1 40  1  0
  1 41  1  0
  5 42  1  0
  6 43  1  0
  7 44  1  0
  8 45  1  0
  9 46  1  0
 11 47  1  0
 14 48  1  0
 14 49  1  0
 15 50  1  0
 15 51  1  0
 16 52  1  0
 16 53  1  0
 18 54  1  0
 18 55  1  0
 19 56  1  6
 25 57  1  0
 26 58  1  0
 27 59  1  0
 29 60  1  0
 29 61  1  0
 31 62  1  0
 31 63  1  0
 33 64  1  0
 34 65  1  0
 35 66  1  0
 36 67  1  0
 37 68  1  0
 38 69  1  0
 38 70  1  0
M  CHG  1  11   1
M  END
>  <UniqueID>  (12) 
12

>  <SMILES>  (12) 
Cn1c(-c2ccccc2)n[nH+]c1SCCCN1C[C@H]2N(S(=O)(=O)c3cccs3)C[C@@]2(Cc2ccccc2)C1

>  <Energy>  (12) 
207.86350570553972

>  <Genealogy>  (12) 
Cn1c(-c2ccccc2)n[nH+]c1SCCCN1CC2N(S(=O)(=O)c3cccs3)CC2(Cc2ccccc2)C1 (protonated)
Cn1c(-c2ccccc2)n[nH+]c1SCCCN1C[C@H]2N(S(=O)(=O)c3cccs3)C[C@@]2(Cc2ccccc2)C1 (chirality)
Cn1c(-c2ccccc2)n[nH+]c1SCCCN1C[C@H]2N(S(=O)(=O)c3cccs3)C[C@@]2(Cc2ccccc2)C1 (3D coordinates assigned)
Cn1c(-c2ccccc2)n[nH+]c1SCCCN1C[C@H]2N(S(=O)(=O)c3cccs3)C[C@@]2(Cc2ccccc2)C1 (nonaromatic ring conformer: 207.86350570553972 kcal/mol)

>  <smiles>  (12) 
Cn1c(SCCCN2CC3N(S(=O)(=O)c4cccs4)CC3(Cc3ccccc3)C2)nnc1-c1ccccc1

>  <score_type>  (12) 
oracle

>  <origin>  (12) 
adg

>  <m_score__min__energy>  (12) 
-11.58

>  <m_primary>  (12) 
energy

$$$$
12:0
     RDKit          3D

 47 51  0  0  0  0  0  0  0  0999 V2000
   -8.6010   17.8730  -31.9290 O   0  0  0  0  0  0  0  0  0  0  0  0
   -7.7790   18.7550  -32.3000 C   0  0  0  0  0  0  0  0  0  0  0  0
   -8.0700   20.1160  -32.1050 C   0  0  0  0  0  0  0  0  0  0  0  0
   -9.2670   20.5530  -31.5040 C   0  0  0  0  0  0  0  0  0  0  0  0
   -9.5030   21.9210  -31.3320 C   0  0  0  0  0  0  0  0  0  0  0  0
   -8.5560   22.8580  -31.7550 C   0  0  0  0  0  0  0  0  0  0  0  0
   -7.3670   22.4310  -32.3520 C   0  0  0  0  0  0  0  0  0  0  0  0
   -7.1210   21.0650  -32.5280 C   0  0  0  0  0  0  0  0  0  0  0  0
   -5.9700   20.6510  -33.1090 N   0  0  0  0  0  0  0  0  0  0  0  0
   -5.6990   19.3330  -33.3030 C   0  0  0  0  0  0  0  0  0  0  0  0
   -4.3920   18.9710  -33.9620 C   0  0  0  0  0  0  0  0  0  0  0  0
   -3.3600   19.9300  -33.5800 N   0  0  0  0  0  0  0  0  0  0  0  0
   -3.4590   21.2530  -33.6690 N   0  0  0  0  0  0  0  0  0  0  0  0
   -2.3180   21.8610  -33.3400 N   0  0  0  0  0  0  0  0  0  0  0  0
   -1.4650   20.8640  -33.0350 C   0  0  0  0  0  0  0  0  0  0  0  0
   -0.1300   20.9190  -32.6580 C   0  0  0  0  0  0  0  0  0  0  0  0
    0.5220   19.6890  -32.4430 C   0  0  0  0  0  0  0  0  0  0  0  0
   -0.1860   18.4720  -32.6220 C   0  0  0  0  0  0  0  0  0  0  0  0
   -1.5020   18.4810  -33.0000 N   0  0  0  0  0  0  0  0  0  0  0  0
   -2.1050   19.6790  -33.1880 C   0  0  0  0  0  0  0  0  0  0  0  0
   -6.6010   18.3830  -32.8890 N   0  0  0  0  0  0  0  0  0  0  0  0
   -6.3280   17.0120  -33.0590 N   0  0  0  0  0  0  0  0  0  0  0  0
   -6.8570   16.3140  -34.2360 C   0  0  0  0  0  0  0  0  0  0  0  0
   -6.4850   14.8280  -34.2130 C   0  0  0  0  0  0  0  0  0  0  0  0
   -4.9800   14.6380  -33.9730 C   0  0  0  0  0  0  0  0  0  0  0  0
   -4.4180   15.4880  -32.8080 C   0  0  0  0  0  0  0  0  0  0  0  0
   -5.4900   16.3110  -32.0830 C   0  0  0  0  0  0  0  0  0  0  0  0
  -10.0153   19.8191  -31.1703 H   0  0  0  0  0  0  0  0  0  0  0  0
  -10.4377   22.2607  -30.8619 H   0  0  0  0  0  0  0  0  0  0  0  0
   -8.7469   23.9326  -31.6178 H   0  0  0  0  0  0  0  0  0  0  0  0
   -6.6231   23.1701  -32.6842 H   0  0  0  0  0  0  0  0  0  0  0  0
   -4.0893   17.9629  -33.6423 H   0  0  0  0  0  0  0  0  0  0  0  0
   -4.5194   18.9923  -35.0544 H   0  0  0  0  0  0  0  0  0  0  0  0
   -4.3170   21.7610  -33.9780 H   0  0  0  0  0  0  0  0  0  0  0  0
    0.3940   21.8781  -32.5331 H   0  0  0  0  0  0  0  0  0  0  0  0
    1.5784   19.6717  -32.1368 H   0  0  0  0  0  0  0  0  0  0  0  0
    0.3269   17.5132  -32.4556 H   0  0  0  0  0  0  0  0  0  0  0  0
   -7.9528   16.4094  -34.2472 H   0  0  0  0  0  0  0  0  0  0  0  0
   -6.4187   16.7687  -35.1366 H   0  0  0  0  0  0  0  0  0  0  0  0
   -7.0430   14.3305  -33.4061 H   0  0  0  0  0  0  0  0  0  0  0  0
   -6.7413   14.3887  -35.1884 H   0  0  0  0  0  0  0  0  0  0  0  0
   -4.7966   13.5771  -33.7475 H   0  0  0  0  0  0  0  0  0  0  0  0
   -4.4666   14.9706  -34.8872 H   0  0  0  0  0  0  0  0  0  0  0  0
   -3.9451   14.8125  -32.0799 H   0  0  0  0  0  0  0  0  0  0  0  0
   -3.7000   16.1996  -33.2418 H   0  0  0  0  0  0  0  0  0  0  0  0
   -6.1181   15.6397  -31.4789 H   0  0  0  0  0  0  0  0  0  0  0  0
   -4.9995   17.0493  -31.4315 H   0  0  0  0  0  0  0  0  0  0  0  0
  1  2  2  0
  2  3  1  0
  3  4  2  0
  4  5  1  0
  5  6  2  0
  6  7  1  0
  7  8  2  0
  8  9  1  0
  9 10  2  0
 10 11  1  0
 11 12  1  0
 12 13  1  0
 13 14  2  0
 14 15  1  0
 15 16  2  0
 16 17  1  0
 17 18  2  0
 18 19  1  0
 19 20  2  0
 10 21  1  0
 21 22  1  0
 22 23  1  0
 23 24  1  0
 24 25  1  0
 25 26  1  0
 26 27  1  0
 21  2  1  0
 27 22  1  0
  8  3  1  0
 20 12  1  0
 20 15  1  0
  4 28  1  0
  5 29  1  0
  6 30  1  0
  7 31  1  0
 11 32  1  0
 11 33  1  0
 13 34  1  0
 16 35  1  0
 17 36  1  0
 18 37  1  0
 23 38  1  0
 23 39  1  0
 24 40  1  0
 24 41  1  0
 25 42  1  0
 25 43  1  0
 26 44  1  0
 26 45  1  0
 27 46  1  0
 27 47  1  0
M  CHG  1  13   1
M  END
>  <UniqueID>  (13) 
13

>  <SMILES>  (13) 
O=c1c2ccccc2nc(Cn2[nH+]nc3cccnc32)n1N1CCCCC1

>  <Energy>  (13) 
109.75262136334159

>  <Genealogy>  (13) 
O=c1c2ccccc2nc(Cn2[nH+]nc3cccnc32)n1N1CCCCC1 (protonated)
O=c1c2ccccc2nc(Cn2[nH+]nc3cccnc32)n1N1CCCCC1 (3D coordinates assigned)
O=c1c2ccccc2nc(Cn2[nH+]nc3cccnc32)n1N1CCCCC1 (nonaromatic ring conformer: 109.75262136334159 kcal/mol)

>  <smiles>  (13) 
O=c1c2ccccc2nc(Cn2nnc3cccnc32)n1N1CCCCC1

>  <score_type>  (13) 
oracle

>  <origin>  (13) 
adg

>  <m_score__min__energy>  (13) 
-8.2699999999999996

>  <m_primary>  (13) 
energy

$$$$
13:0
     RDKit          3D

 40 43  0  0  0  0  0  0  0  0999 V2000
   -4.5696   19.2225  -34.6793 H   0  0  0  0  0  0  0  0  0  0  0  0
   -4.3490   19.7400  -33.7340 C   0  0  0  0  0  0  0  0  0  0  0  0
   -5.3490   20.4020  -33.1320 C   0  0  0  0  0  0  0  0  0  0  0  0
   -5.4250   21.8110  -32.7140 C   0  0  0  0  0  0  0  0  0  0  0  0
   -4.5000   22.6590  -32.8200 O   0  0  0  0  0  0  0  0  0  0  0  0
   -6.6700   22.0840  -32.0680 N   0  0  0  0  0  0  0  0  0  0  0  0
   -6.9480   23.2440  -31.2190 C   0  0  0  0  0  0  0  0  0  0  0  0
   -7.3334   24.0652  -31.8412 H   0  0  0  0  0  0  0  0  0  0  0  0
   -7.6948   22.9629  -30.4618 H   0  0  0  0  0  0  0  0  0  0  0  0
   -5.6910   23.6950  -30.5240 C   0  0  0  0  0  0  0  0  0  0  0  0
   -5.0260   24.8600  -30.9360 C   0  0  0  0  0  0  0  0  0  0  0  0
   -5.4414   25.4686  -31.7528 H   0  0  0  0  0  0  0  0  0  0  0  0
   -3.8700   25.2390  -30.3290 N   0  0  0  0  0  0  0  0  0  0  0  0
   -3.3210   24.5150  -29.3190 C   0  0  0  0  0  0  0  0  0  0  0  0
   -1.8290   25.0530  -28.5750 Cl  0  0  0  0  0  0  0  0  0  0  0  0
   -3.9450   23.3450  -28.8790 C   0  0  0  0  0  0  0  0  0  0  0  0
   -3.5047   22.7537  -28.0626 H   0  0  0  0  0  0  0  0  0  0  0  0
   -5.1330   22.9340  -29.4860 C   0  0  0  0  0  0  0  0  0  0  0  0
   -5.6319   22.0129  -29.1502 H   0  0  0  0  0  0  0  0  0  0  0  0
   -7.3490   20.8260  -32.0430 C   0  0  0  0  0  0  0  0  0  0  0  0
   -8.6110   20.5610  -31.5020 C   0  0  0  0  0  0  0  0  0  0  0  0
   -9.1997   21.3604  -31.0282 H   0  0  0  0  0  0  0  0  0  0  0  0
   -9.1090   19.2500  -31.5780 C   0  0  0  0  0  0  0  0  0  0  0  0
  -10.0970   19.0159  -31.1547 H   0  0  0  0  0  0  0  0  0  0  0  0
   -8.3530   18.2330  -32.1920 C   0  0  0  0  0  0  0  0  0  0  0  0
   -8.7529   17.2096  -32.2432 H   0  0  0  0  0  0  0  0  0  0  0  0
   -7.0900   18.5180  -32.7400 C   0  0  0  0  0  0  0  0  0  0  0  0
   -6.4954   17.7303  -33.2258 H   0  0  0  0  0  0  0  0  0  0  0  0
   -6.6090   19.8270  -32.6520 C   0  0  0  0  0  0  0  0  0  0  0  0
   -2.9730   19.6620  -33.2090 C   0  0  0  0  0  0  0  0  0  0  0  0
   -2.3510   20.8180  -32.7190 C   0  0  0  0  0  0  0  0  0  0  0  0
   -2.8751   21.7842  -32.7609 H   0  0  0  0  0  0  0  0  0  0  0  0
   -1.0670   20.7440  -32.1780 C   0  0  0  0  0  0  0  0  0  0  0  0
   -0.5671   21.6513  -31.8079 H   0  0  0  0  0  0  0  0  0  0  0  0
   -0.4230   19.5070  -32.1110 C   0  0  0  0  0  0  0  0  0  0  0  0
    0.5924   19.4392  -31.6933 H   0  0  0  0  0  0  0  0  0  0  0  0
   -1.0480   18.3850  -32.5610 N   0  0  0  0  0  0  0  0  0  0  0  0
   -0.5590   17.4650  -32.4910 H   0  0  0  0  0  0  0  0  0  0  0  0
   -2.3000   18.4350  -33.0940 C   0  0  0  0  0  0  0  0  0  0  0  0
   -2.7866   17.5097  -33.4362 H   0  0  0  0  0  0  0  0  0  0  0  0
  1  2  1  0
  2  3  2  0
  3  4  1  0
  4  5  2  0
  4  6  1  0
  6  7  1  0
  7  8  1  0
  7  9  1  0
  7 10  1  0
 10 11  2  0
 11 12  1  0
 11 13  1  0
 13 14  2  0
 14 15  1  0
 14 16  1  0
 16 17  1  0
 16 18  2  0
 18 19  1  0
  6 20  1  0
 20 21  2  0
 21 22  1  0
 21 23  1  0
 23 24  1  0
 23 25  2  0
 25 26  1  0
 25 27  1  0
 27 28  1  0
 27 29  2  0
  2 30  1  0
 30 31  2  0
 31 32  1  0
 31 33  1  0
 33 34  1  0
 33 35  2  0
 35 36  1  0
 35 37  1  0
 37 38  1  0
 37 39  2  0
 39 40  1  0
 29  3  1  0
 39 30  1  0
 18 10  1  0
 29 20  1  0
M  CHG  1  37   1
M  END
>  <UniqueID>  (14) 
14

>  <SMILES>  (14) 
O=C1/C(=C\c2ccc[nH+]c2)c2ccccc2N1Cc1ccc(Cl)nc1

>  <Energy>  (14) 
80.41043484232105

>  <Genealogy>  (14) 
O=C1C(=Cc2ccc[nH+]c2)c2ccccc2N1Cc1ccc(Cl)nc1 (protonated)
O=C1/C(=C\c2ccc[nH+]c2)c2ccccc2N1Cc1ccc(Cl)nc1 (cis-trans isomerization)
O=C1/C(=C\c2ccc[nH+]c2)c2ccccc2N1Cc1ccc(Cl)nc1 (3D coordinates assigned)
O=C1/C(=C\c2ccc[nH+]c2)c2ccccc2N1Cc1ccc(Cl)nc1 (nonaromatic ring conformer: 80.41043484232105 kcal/mol)

>  <smiles>  (14) 
O=C1C(=Cc2cccnc2)c2ccccc2N1Cc1ccc(Cl)nc1

>  <score_type>  (14) 
oracle

>  <origin>  (14) 
adg

>  <m_score__min__energy>  (14) 
-8.9100000000000001

>  <m_primary>  (14) 
energy

$$$$
14:0
     RDKit          3D

 48 50  0  0  0  0  0  0  0  0999 V2000
   -1.4410   24.8760  -27.8440 C   0  0  0  0  0  0  0  0  0  0  0  0
   -1.9820   25.1760  -29.1120 O   0  0  0  0  0  0  0  0  0  0  0  0
   -2.5100   24.0070  -29.7190 C   0  0  1  0  0  0  0  0  0  0  0  0
   -2.6860   22.9160  -28.6430 C   0  0  0  0  0  0  0  0  0  0  0  0
   -4.1920   22.7460  -28.3990 C   0  0  0  0  0  0  0  0  0  0  0  0
   -4.8240   23.9790  -29.0510 C   0  0  1  0  0  0  0  0  0  0  0  0
   -3.9230   24.2730  -30.2410 C   0  0  1  0  0  0  0  0  0  0  0  0
   -4.0950   25.5960  -30.7330 O   0  0  0  0  0  0  0  0  0  0  0  0
   -5.4440   26.0510  -30.6270 C   0  0  0  0  0  0  0  0  0  0  0  0
   -6.5020   24.9160  -30.5750 C   0  0  0  0  0  0  0  0  0  0  0  0
   -6.2660   23.9560  -29.4520 N   0  0  1  0  0  0  0  0  0  0  0  0
   -6.8150   22.6200  -29.8190 C   0  0  0  0  0  0  0  0  0  0  0  0
   -7.7650   22.6640  -31.0400 C   0  0  0  0  0  0  0  0  0  0  0  0
   -8.7380   21.4720  -31.1180 C   0  0  0  0  0  0  0  0  0  0  0  0
   -8.1270   20.2730  -31.7980 C   0  0  0  0  0  0  0  0  0  0  0  0
   -7.0510   20.4270  -32.6830 C   0  0  0  0  0  0  0  0  0  0  0  0
   -6.5040   19.3130  -33.3210 C   0  0  0  0  0  0  0  0  0  0  0  0
   -7.0460   18.0460  -33.0750 C   0  0  0  0  0  0  0  0  0  0  0  0
   -6.4710   16.8350  -33.7370 C   0  0  0  0  0  0  0  0  0  0  0  0
   -8.0910   17.9140  -32.2120 N   0  0  0  0  0  0  0  0  0  0  0  0
   -8.6370   18.9850  -31.5770 C   0  0  0  0  0  0  0  0  0  0  0  0
   -2.1155   25.2501  -27.0597 H   0  0  0  0  0  0  0  0  0  0  0  0
   -1.3284   23.7866  -27.7418 H   0  0  0  0  0  0  0  0  0  0  0  0
   -0.4573   25.3575  -27.7418 H   0  0  0  0  0  0  0  0  0  0  0  0
   -1.8248   23.7082  -30.5260 H   0  0  0  0  0  0  0  0  0  0  0  0
   -2.2534   21.9680  -28.9953 H   0  0  0  0  0  0  0  0  0  0  0  0
   -2.1732   23.2031  -27.7132 H   0  0  0  0  0  0  0  0  0  0  0  0
   -4.5613   21.8235  -28.8709 H   0  0  0  0  0  0  0  0  0  0  0  0
   -4.4373   22.6644  -27.3298 H   0  0  0  0  0  0  0  0  0  0  0  0
   -4.8757   24.7578  -28.2759 H   0  0  0  0  0  0  0  0  0  0  0  0
   -4.1586   23.6426  -31.1111 H   0  0  0  0  0  0  0  0  0  0  0  0
   -5.5344   26.6479  -29.7074 H   0  0  0  0  0  0  0  0  0  0  0  0
   -5.6516   26.6319  -31.5378 H   0  0  0  0  0  0  0  0  0  0  0  0
   -7.4968   25.3680  -30.4480 H   0  0  0  0  0  0  0  0  0  0  0  0
   -6.4284   24.3506  -31.5157 H   0  0  0  0  0  0  0  0  0  0  0  0
   -6.8080   24.3250  -28.6360 H   0  0  0  0  0  0  0  0  0  0  0  0
   -5.9750   21.9497  -30.0539 H   0  0  0  0  0  0  0  0  0  0  0  0
   -7.4029   22.2620  -28.9610 H   0  0  0  0  0  0  0  0  0  0  0  0
   -8.3559   23.5903  -30.9858 H   0  0  0  0  0  0  0  0  0  0  0  0
   -7.1320   22.6184  -31.9385 H   0  0  0  0  0  0  0  0  0  0  0  0
   -9.0303   21.1875  -30.0964 H   0  0  0  0  0  0  0  0  0  0  0  0
   -9.6072   21.7878  -31.7136 H   0  0  0  0  0  0  0  0  0  0  0  0
   -6.6370   21.4279  -32.8750 H   0  0  0  0  0  0  0  0  0  0  0  0
   -5.6550   19.4294  -34.0107 H   0  0  0  0  0  0  0  0  0  0  0  0
   -6.1330   16.1232  -32.9695 H   0  0  0  0  0  0  0  0  0  0  0  0
   -7.2398   16.3602  -34.3643 H   0  0  0  0  0  0  0  0  0  0  0  0
   -5.6171   17.1306  -34.3643 H   0  0  0  0  0  0  0  0  0  0  0  0
   -9.4818   18.8410  -30.8874 H   0  0  0  0  0  0  0  0  0  0  0  0
  1  2  1  0
  2  3  1  0
  3  4  1  0
  4  5  1  0
  5  6  1  0
  6  7  1  0
  7  8  1  0
  8  9  1  0
  9 10  1  0
 10 11  1  0
 11 12  1  0
 12 13  1  0
 13 14  1  0
 14 15  1  0
 15 16  2  0
 16 17  1  0
 17 18  2  0
 18 19  1  0
 18 20  1  0
 20 21  2  0
  7  3  1  0
 21 15  1  0
 11  6  1  0
  1 22  1  0
  1 23  1  0
  1 24  1  0
  3 25  1  6
  4 26  1  0
  4 27  1  0
  5 28  1  0
  5 29  1  0
  6 30  1  1
  7 31  1  6
  9 32  1  0
  9 33  1  0
 10 34  1  0
 10 35  1  0
 11 36  1  1
 12 37  1  0
 12 38  1  0
 13 39  1  0
 13 40  1  0
 14 41  1  0
 14 42  1  0
 16 43  1  0
 17 44  1  0
 19 45  1  0
 19 46  1  0
 19 47  1  0
 21 48  1  0
M  CHG  1  11   1
M  END
>  <UniqueID>  (15) 
15

>  <SMILES>  (15) 
CO[C@H]1CC[C@H]2C1OCC[NH+]2CCCc1ccc(C)nc1

>  <Energy>  (15) 
77.65500487053518

>  <Genealogy>  (15) 
COC1CCC2C1OCC[NH+]2CCCc1ccc(C)nc1 (protonated)
CO[C@H]1CC[C@H]2C1OCC[NH+]2CCCc1ccc(C)nc1 (chirality)
CO[C@H]1CC[C@H]2C1OCC[NH+]2CCCc1ccc(C)nc1 (3D coordinates assigned)
CO[C@H]1CC[C@H]2C1OCC[NH+]2CCCc1ccc(C)nc1 (nonaromatic ring conformer: 77.65500487053518 kcal/mol)

>  <smiles>  (15) 
COC1CCC2C1OCCN2CCCc1ccc(C)nc1

>  <score_type>  (15) 
oracle

>  <origin>  (15) 
adg

>  <m_score__min__energy>  (15) 
-8.6400000000000006

>  <m_primary>  (15) 
energy

$$$$
15:0
     RDKit          3D

 29 30  0  0  0  0  0  0  0  0999 V2000
   -6.9720   17.8610  -31.9900 C   0  0  0  0  0  0  0  0  0  0  0  0
   -8.2500   18.9430  -32.7020 S   0  0  0  0  0  0  0  0  0  0  0  0
   -7.3860   20.4580  -32.2530 C   0  0  0  0  0  0  0  0  0  0  0  0
   -6.0310   20.4540  -32.3170 N   0  0  0  0  0  0  0  0  0  0  0  0
   -5.2880   21.5490  -32.0240 C   0  0  0  0  0  0  0  0  0  0  0  0
   -3.8150   21.4450  -32.1330 C   0  0  0  0  0  0  0  0  0  0  0  0
   -3.0250   21.5170  -30.9730 C   0  0  0  0  0  0  0  0  0  0  0  0
   -1.6340   21.3950  -31.0570 C   0  0  0  0  0  0  0  0  0  0  0  0
   -1.0220   21.1880  -32.2970 C   0  0  0  0  0  0  0  0  0  0  0  0
    0.3260   21.0690  -32.3750 F   0  0  0  0  0  0  0  0  0  0  0  0
   -1.8010   21.0950  -33.4530 C   0  0  0  0  0  0  0  0  0  0  0  0
   -3.1920   21.2160  -33.3730 C   0  0  0  0  0  0  0  0  0  0  0  0
   -5.9430   22.7270  -31.6210 C   0  0  0  0  0  0  0  0  0  0  0  0
   -5.2040   23.9050  -31.2190 C   0  0  0  0  0  0  0  0  0  0  0  0
   -4.6120   24.8460  -30.8970 N   0  0  0  0  0  0  0  0  0  0  0  0
   -7.3460   22.7260  -31.5550 C   0  0  0  0  0  0  0  0  0  0  0  0
   -7.9470   23.7810  -31.2060 O   0  0  0  0  0  0  0  0  0  0  0  0
   -8.0570   21.5900  -31.8600 N   0  0  0  0  0  0  0  0  0  0  0  0
   -9.5280   21.5800  -31.7870 C   0  0  0  0  0  0  0  0  0  0  0  0
   -7.0242   17.9052  -30.8921 H   0  0  0  0  0  0  0  0  0  0  0  0
   -7.1400   16.8264  -32.3237 H   0  0  0  0  0  0  0  0  0  0  0  0
   -5.9793   18.1973  -32.3237 H   0  0  0  0  0  0  0  0  0  0  0  0
   -3.5028   21.6701  -29.9941 H   0  0  0  0  0  0  0  0  0  0  0  0
   -1.0208   21.4620  -30.1462 H   0  0  0  0  0  0  0  0  0  0  0  0
   -1.3196   20.9264  -34.4276 H   0  0  0  0  0  0  0  0  0  0  0  0
   -3.8019   21.1316  -34.2845 H   0  0  0  0  0  0  0  0  0  0  0  0
   -9.8428   21.5779  -30.7330 H   0  0  0  0  0  0  0  0  0  0  0  0
   -9.9260   22.4755  -32.2867 H   0  0  0  0  0  0  0  0  0  0  0  0
   -9.9138   20.6792  -32.2867 H   0  0  0  0  0  0  0  0  0  0  0  0
  1  2  1  0
  2  3  1  0
  3  4  2  0
  4  5  1  0
  5  6  1  0
  6  7  2  0
  7  8  1  0
  8  9  2  0
  9 10  1  0
  9 11  1  0
 11 12  2  0
  5 13  2  0
 13 14  1  0
 14 15  3  0
 13 16  1  0
 16 17  2  0
 16 18  1  0
 18 19  1  0
 18  3  1  0
 12  6  1  0
  1 20  1  0
  1 21  1  0
  1 22  1  0
  7 23  1  0
  8 24  1  0
 11 25  1  0
 12 26  1  0
 19 27  1  0
 19 28  1  0
 19 29  1  0
M  END
>  <UniqueID>  (16) 
16

>  <SMILES>  (16) 
CSc1nc(-c2ccc(F)cc2)c(C#N)c(=O)n1C

>  <Energy>  (16) 
37.32137797337075

>  <Genealogy>  (16) 
CSc1nc(-c2ccc(F)cc2)c(C#N)c(=O)n1C (3D coordinates assigned)
CSc1nc(-c2ccc(F)cc2)c(C#N)c(=O)n1C (optimized conformer: 37.32137797337075 kcal/mol)

>  <smiles>  (16) 
CSc1nc(-c2ccc(F)cc2)c(C#N)c(=O)n1C

>  <score_type>  (16) 
oracle

>  <origin>  (16) 
adg

>  <m_score__min__energy>  (16) 
-6.7000000000000002

>  <m_primary>  (16) 
energy

$$$$
16:0
     RDKit          3D

 32 34  0  0  0  0  0  0  0  0999 V2000
   -9.0780   19.1120  -32.2210 C   0  0  0  0  0  0  0  0  0  0  0  0
   -9.0460   20.4950  -31.9540 C   0  0  0  0  0  0  0  0  0  0  0  0
   -7.8880   21.2000  -32.1020 N   0  0  0  0  0  0  0  0  0  0  0  0
   -6.7710   20.5510  -32.5140 C   0  0  0  0  0  0  0  0  0  0  0  0
   -5.5110   21.0750  -32.7180 C   0  0  0  0  0  0  0  0  0  0  0  0
   -5.0590   22.4990  -32.5370 C   0  0  0  0  0  0  0  0  0  0  0  0
   -5.4440   23.0790  -31.2320 N   0  0  0  0  0  0  0  0  0  0  0  0
   -4.4060   23.0420  -30.1810 C   0  0  0  0  0  0  0  0  0  0  0  0
   -3.5600   24.3360  -30.0990 C   0  0  0  0  0  0  0  0  0  0  0  0
   -4.2460   25.5400  -30.5950 N   0  0  0  0  0  0  0  0  0  0  0  0
   -5.6970   25.4450  -30.4320 C   0  0  0  0  0  0  0  0  0  0  0  0
   -6.2590   24.3130  -31.3000 C   0  0  0  0  0  0  0  0  0  0  0  0
   -4.7170   19.9950  -33.0960 C   0  0  0  0  0  0  0  0  0  0  0  0
   -5.5370   18.8730  -33.1210 C   0  0  0  0  0  0  0  0  0  0  0  0
   -6.7820   19.2340  -32.7630 N   0  0  0  0  0  0  0  0  0  0  0  0
   -7.9000   18.4780  -32.6350 C   0  0  0  0  0  0  0  0  0  0  0  0
  -10.0111   18.5408  -32.1064 H   0  0  0  0  0  0  0  0  0  0  0  0
   -9.9607   21.0093  -31.6241 H   0  0  0  0  0  0  0  0  0  0  0  0
   -3.9627   22.5297  -32.6218 H   0  0  0  0  0  0  0  0  0  0  0  0
   -5.5547   23.0972  -33.3157 H   0  0  0  0  0  0  0  0  0  0  0  0
   -4.8995   22.8872  -29.2102 H   0  0  0  0  0  0  0  0  0  0  0  0
   -3.7179   22.2226  -30.4362 H   0  0  0  0  0  0  0  0  0  0  0  0
   -3.2876   24.5035  -29.0465 H   0  0  0  0  0  0  0  0  0  0  0  0
   -2.6849   24.1821  -30.7475 H   0  0  0  0  0  0  0  0  0  0  0  0
   -4.0280   25.6690  -31.6100 H   0  0  0  0  0  0  0  0  0  0  0  0
   -5.9307   25.2426  -29.3763 H   0  0  0  0  0  0  0  0  0  0  0  0
   -6.1543   26.3953  -30.7447 H   0  0  0  0  0  0  0  0  0  0  0  0
   -7.2781   24.0804  -30.9575 H   0  0  0  0  0  0  0  0  0  0  0  0
   -6.2484   24.6597  -32.3439 H   0  0  0  0  0  0  0  0  0  0  0  0
   -3.6427   20.0244  -33.3307 H   0  0  0  0  0  0  0  0  0  0  0  0
   -5.2191   17.8549  -33.3900 H   0  0  0  0  0  0  0  0  0  0  0  0
   -7.8824   17.3993  -32.8498 H   0  0  0  0  0  0  0  0  0  0  0  0
  1  2  1  0
  2  3  2  0
  3  4  1  0
  4  5  2  0
  5  6  1  0
  6  7  1  0
  7  8  1  0
  8  9  1  0
  9 10  1  0
 10 11  1  0
 11 12  1  0
  5 13  1  0
 13 14  2  0
 14 15  1  0
 15 16  1  0
 16  1  2  0
 15  4  1  0
 12  7  1  0
  1 17  1  0
  2 18  1  0
  6 19  1  0
  6 20  1  0
  8 21  1  0
  8 22  1  0
  9 23  1  0
  9 24  1  0
 10 25  1  0
 11 26  1  0
 11 27  1  0
 12 28  1  0
 12 29  1  0
 13 30  1  0
 14 31  1  0
 16 32  1  0
M  END
>  <UniqueID>  (17) 
17

>  <SMILES>  (17) 
c1cnc2c(CN3CCNCC3)ccn2c1

>  <Energy>  (17) 
79.27196633650141

>  <Genealogy>  (17) 
c1cnc2c(CN3CCNCC3)ccn2c1 (3D coordinates assigned)
c1cnc2c(CN3CCNCC3)ccn2c1 (nonaromatic ring conformer: 79.27196633650141 kcal/mol)

>  <smiles>  (17) 
c1cnc2c(CN3CCNCC3)ccn2c1

>  <score_type>  (17) 
oracle

>  <origin>  (17) 
adg

>  <m_score__min__energy>  (17) 
-7.3799999999999999

>  <m_primary>  (17) 
energy

$$$$
17:0
     RDKit          3D

 57 61  0  0  1  0  0  0  0  0999 V2000
   -5.6820   24.2120  -31.5950 N   0  0  0  0  0  0  0  0  0  0  0  0
   -5.2030   23.2160  -31.9660 C   0  0  0  0  0  0  0  0  0  0  0  0
   -4.5870   21.9910  -32.4160 C   0  0  0  0  0  0  0  0  0  0  0  0
   -3.2100   21.9190  -32.6530 C   0  0  0  0  0  0  0  0  0  0  0  0
   -2.6660   20.7290  -33.0820 C   0  0  0  0  0  0  0  0  0  0  0  0
   -1.2310   20.6900  -33.3170 C   0  0  0  0  0  0  0  0  0  0  0  0
   -0.3360   20.0630  -32.4780 C   0  0  0  0  0  0  0  0  0  0  0  0
    1.0150   20.0720  -32.7740 C   0  0  0  0  0  0  0  0  0  0  0  0
    1.4620   20.6920  -33.8810 N   0  0  0  0  0  0  0  0  0  0  0  0
    0.5800   21.3020  -34.6950 C   0  0  0  0  0  0  0  0  0  0  0  0
    1.0570   21.8820  -35.7420 N   0  0  0  0  0  0  0  0  0  0  0  0
    1.1820   23.3030  -35.8140 C   0  0  0  0  0  0  0  0  0  0  0  0
    2.3710   23.9640  -35.5860 C   0  0  0  0  0  0  0  0  0  0  0  0
    2.1120   25.2560  -35.7360 N   0  0  0  0  0  0  0  0  0  0  0  0
    0.8240   25.4690  -36.0490 N   0  0  0  0  0  0  0  0  0  0  0  0
    0.1990   26.7630  -36.2840 C   0  0  0  0  0  0  0  0  0  0  0  0
   -0.5360   27.2590  -35.0750 C   0  0  0  0  0  0  0  0  0  0  0  0
   -1.1540   28.6000  -35.4780 C   0  0  0  0  0  0  0  0  0  0  0  0
   -2.1560   28.3030  -36.4790 N   0  0  0  0  0  0  0  0  0  0  0  0
   -1.5980   27.8010  -37.7010 C   0  0  0  0  0  0  0  0  0  0  0  0
   -0.6540   26.6530  -37.5040 C   0  0  0  0  0  0  0  0  0  0  0  0
    0.2180   24.2470  -36.1020 C   0  0  0  0  0  0  0  0  0  0  0  0
   -0.7560   21.2990  -34.4130 N   0  0  0  0  0  0  0  0  0  0  0  0
   -3.5050   19.6560  -33.2620 C   0  0  0  0  0  0  0  0  0  0  0  0
   -4.8500   19.7350  -33.0300 C   0  0  0  0  0  0  0  0  0  0  0  0
   -5.4210   20.9140  -32.5980 C   0  0  0  0  0  0  0  0  0  0  0  0
   -6.8090   20.9320  -32.3770 N   0  0  0  0  0  0  0  0  0  0  0  0
   -7.8230   20.1580  -33.1070 C   0  0  0  0  0  0  0  0  0  0  0  0
   -8.5750   19.5560  -31.9370 C   0  0  0  0  0  0  0  0  0  0  0  0
   -8.7230   20.7510  -31.0160 C   0  0  0  0  0  0  0  0  0  0  0  0
   -7.5910   21.6940  -31.4020 C   0  0  0  0  0  0  0  0  0  0  0  0
   -2.5708   22.8008  -32.4988 H   0  0  0  0  0  0  0  0  0  0  0  0
   -0.6964   19.5546  -31.5716 H   0  0  0  0  0  0  0  0  0  0  0  0
    1.7266   19.5703  -32.1017 H   0  0  0  0  0  0  0  0  0  0  0  0
    2.4930   20.6720  -34.0620 H   0  0  0  0  0  0  0  0  0  0  0  0
    3.3401   23.5103  -35.3308 H   0  0  0  0  0  0  0  0  0  0  0  0
    0.9666   27.5295  -36.4666 H   0  0  0  0  0  0  0  0  0  0  0  0
   -1.3231   26.5465  -34.7872 H   0  0  0  0  0  0  0  0  0  0  0  0
    0.1364   27.3685  -34.2113 H   0  0  0  0  0  0  0  0  0  0  0  0
   -1.6190   29.0823  -34.6055 H   0  0  0  0  0  0  0  0  0  0  0  0
   -0.3913   29.2894  -35.8691 H   0  0  0  0  0  0  0  0  0  0  0  0
   -2.9060   27.7070  -36.0800 H   0  0  0  0  0  0  0  0  0  0  0  0
   -2.4224   27.4660  -38.3477 H   0  0  0  0  0  0  0  0  0  0  0  0
   -1.0188   28.6207  -38.1512 H   0  0  0  0  0  0  0  0  0  0  0  0
   -1.2460   25.7290  -37.4285 H   0  0  0  0  0  0  0  0  0  0  0  0
    0.0281   26.6537  -38.3670 H   0  0  0  0  0  0  0  0  0  0  0  0
   -0.8400   24.0517  -36.3312 H   0  0  0  0  0  0  0  0  0  0  0  0
   -3.0801   18.7009  -33.6044 H   0  0  0  0  0  0  0  0  0  0  0  0
   -5.4831   18.8497  -33.1894 H   0  0  0  0  0  0  0  0  0  0  0  0
   -8.4685   20.8041  -33.7200 H   0  0  0  0  0  0  0  0  0  0  0  0
   -7.4239   19.4304  -33.8291 H   0  0  0  0  0  0  0  0  0  0  0  0
   -9.5554   19.1666  -32.2486 H   0  0  0  0  0  0  0  0  0  0  0  0
   -8.0662   18.6974  -31.4746 H   0  0  0  0  0  0  0  0  0  0  0  0
   -9.6983   21.2365  -31.1675 H   0  0  0  0  0  0  0  0  0  0  0  0
   -8.6744   20.4620  -29.9558 H   0  0  0  0  0  0  0  0  0  0  0  0
   -7.9871   22.6155  -31.8535 H   0  0  0  0  0  0  0  0  0  0  0  0
   -6.9921   22.0118  -30.5358 H   0  0  0  0  0  0  0  0  0  0  0  0
  1  2  3  0
  2  3  1  0
  3  4  2  0
  4  5  1  0
  5  6  1  0
  6  7  1  0
  7  8  2  0
  8  9  1  0
  9 10  1  0
 10 11  2  0
 11 12  1  0
 12 13  1  0
 13 14  2  0
 14 15  1  0
 15 16  1  0
 16 17  1  0
 17 18  1  0
 18 19  1  0
 19 20  1  0
 20 21  1  0
 15 22  1  0
 10 23  1  0
  5 24  2  0
 24 25  1  0
 25 26  2  0
 26 27  1  0
 27 28  1  0
 28 29  1  0
 29 30  1  0
 30 31  1  0
 26  3  1  0
 31 27  1  0
 23  6  2  0
 22 12  2  0
 21 16  1  0
  4 32  1  0
  7 33  1  0
  8 34  1  0
  9 35  1  0
 13 36  1  0
 16 37  1  0
 17 38  1  0
 17 39  1  0
 18 40  1  0
 18 41  1  0
 19 42  1  0
 20 43  1  0
 20 44  1  0
 21 45  1  0
 21 46  1  0
 22 47  1  0
 24 48  1  0
 25 49  1  0
 28 50  1  0
 28 51  1  0
 29 52  1  0
 29 53  1  0
 30 54  1  0
 30 55  1  0
 31 56  1  0
 31 57  1  0
M  END
>  <smiles>  (18) 
N#Cc1cc(-c2cc[nH]c(=Nc3cnn(C4CCNCC4)c3)n2)ccc1N1CCCC1

>  <score_type>  (18) 
oracle

>  <origin>  (18) 
adg

>  <m_score__min__energy>  (18) 
-9.9499999999999993

>  <m_primary>  (18) 
energy

$$$$
18:0
     RDKit          3D

 54 56  0  0  1  0  0  0  0  0999 V2000
    0.4670   19.9790  -31.9800 C   0  0  0  0  0  0  0  0  0  0  0  0
    0.2890   19.7740  -30.6250 O   0  0  0  0  0  0  0  0  0  0  0  0
   -0.5300   20.5320  -29.8430 C   0  0  0  0  0  0  0  0  0  0  0  0
   -1.0660   21.7570  -30.1750 C   0  0  0  0  0  0  0  0  0  0  0  0
   -1.8860   22.4640  -29.3340 C   0  0  0  0  0  0  0  0  0  0  0  0
   -2.4750   23.7750  -29.7230 C   0  0  0  0  0  0  0  0  0  0  0  0
   -2.1730   24.7260  -28.9840 O   0  0  0  0  0  0  0  0  0  0  0  0
   -3.2830   23.7670  -30.8640 N   0  0  0  0  0  0  0  0  0  0  0  0
   -4.5400   23.9430  -30.7910 C   0  0  0  0  0  0  0  0  0  0  0  0
   -4.9920   24.8320  -29.8830 N   0  0  0  0  0  0  0  0  0  0  0  0
   -6.2950   25.1090  -29.7010 C   0  0  0  0  0  0  0  0  0  0  0  0
   -7.2370   24.4550  -30.4810 C   0  0  0  0  0  0  0  0  0  0  0  0
   -6.7570   23.5540  -31.3990 C   0  0  0  0  0  0  0  0  0  0  0  0
   -7.5650   22.9270  -32.1360 N   0  0  0  0  0  0  0  0  0  0  0  0
   -7.6820   21.5270  -32.2840 C   0  0  0  0  0  0  0  0  0  0  0  0
   -6.7830   20.7900  -33.2050 C   0  0  0  0  0  0  0  0  0  0  0  0
   -6.3070   19.5120  -32.4900 C   0  0  0  0  0  0  0  0  0  0  0  0
   -7.4090   19.0850  -31.5820 C   0  0  0  0  0  0  0  0  0  0  0  0
   -8.7930   19.4290  -31.9960 C   0  0  0  0  0  0  0  0  0  0  0  0
   -9.0230   20.9060  -32.2930 C   0  0  0  0  0  0  0  0  0  0  0  0
   -5.4410   23.3180  -31.5370 N   0  0  0  0  0  0  0  0  0  0  0  0
   -2.1690   21.8970  -28.1010 C   0  0  0  0  0  0  0  0  0  0  0  0
   -1.6650   20.6800  -27.7130 C   0  0  0  0  0  0  0  0  0  0  0  0
   -1.9460   20.1000  -26.4700 O   0  0  0  0  0  0  0  0  0  0  0  0
   -2.7970   18.9600  -26.3730 C   0  0  0  0  0  0  0  0  0  0  0  0
   -0.8550   20.0110  -28.5830 C   0  0  0  0  0  0  0  0  0  0  0  0
   -0.3210   18.7640  -28.2290 O   0  0  0  0  0  0  0  0  0  0  0  0
    1.0680   18.6290  -27.9550 C   0  0  0  0  0  0  0  0  0  0  0  0
    1.1809   20.8012  -32.1358 H   0  0  0  0  0  0  0  0  0  0  0  0
    0.8591   19.0606  -32.4414 H   0  0  0  0  0  0  0  0  0  0  0  0
   -0.4973   20.2383  -32.4414 H   0  0  0  0  0  0  0  0  0  0  0  0
   -0.8253   22.1869  -31.1585 H   0  0  0  0  0  0  0  0  0  0  0  0
   -4.3140   25.3390  -29.2810 H   0  0  0  0  0  0  0  0  0  0  0  0
   -6.6092   25.8434  -28.9447 H   0  0  0  0  0  0  0  0  0  0  0  0
   -8.3141   24.6484  -30.3698 H   0  0  0  0  0  0  0  0  0  0  0  0
   -7.2612   21.3846  -31.2777 H   0  0  0  0  0  0  0  0  0  0  0  0
   -7.3275   20.5228  -34.1227 H   0  0  0  0  0  0  0  0  0  0  0  0
   -5.9212   21.4167  -33.4782 H   0  0  0  0  0  0  0  0  0  0  0  0
   -6.0973   18.7226  -33.2268 H   0  0  0  0  0  0  0  0  0  0  0  0
   -5.3825   19.6997  -31.9243 H   0  0  0  0  0  0  0  0  0  0  0  0
   -7.3538   17.9907  -31.4844 H   0  0  0  0  0  0  0  0  0  0  0  0
   -7.2426   19.6419  -30.6481 H   0  0  0  0  0  0  0  0  0  0  0  0
   -9.0307   18.8562  -32.9045 H   0  0  0  0  0  0  0  0  0  0  0  0
   -9.4421   19.1799  -31.1435 H   0  0  0  0  0  0  0  0  0  0  0  0
   -9.4971   21.0303  -33.2778 H   0  0  0  0  0  0  0  0  0  0  0  0
   -9.6915   21.3705  -31.5532 H   0  0  0  0  0  0  0  0  0  0  0  0
   -5.1440   22.6500  -32.2380 H   0  0  0  0  0  0  0  0  0  0  0  0
   -2.8232   22.4437  -27.4059 H   0  0  0  0  0  0  0  0  0  0  0  0
   -2.9736   18.7234  -25.3134 H   0  0  0  0  0  0  0  0  0  0  0  0
   -3.7567   19.1759  -26.8654 H   0  0  0  0  0  0  0  0  0  0  0  0
   -2.3172   18.1013  -26.8654 H   0  0  0  0  0  0  0  0  0  0  0  0
    1.2272   18.6135  -26.8667 H   0  0  0  0  0  0  0  0  0  0  0  0
    1.4387   17.6906  -28.3932 H   0  0  0  0  0  0  0  0  0  0  0  0
    1.6124   19.4785  -28.3932 H   0  0  0  0  0  0  0  0  0  0  0  0
  1  2  1  0
  2  3  1  0
  3  4  2  0
  4  5  1  0
  5  6  1  0
  6  7  2  0
  6  8  1  0
  8  9  2  0
  9 10  1  0
 10 11  1  0
 11 12  2  0
 12 13  1  0
 13 14  2  0
 14 15  1  0
 15 16  1  0
 16 17  1  0
 17 18  1  0
 18 19  1  0
 19 20  1  0
 13 21  1  0
  5 22  2  0
 22 23  1  0
 23 24  1  0
 24 25  1  0
 23 26  2  0
 26 27  1  0
 27 28  1  0
 26  3  1  0
 21  9  1  0
 20 15  1  0
  1 29  1  0
  1 30  1  0
  1 31  1  0
  4 32  1  0
 10 33  1  0
 11 34  1  0
 12 35  1  0
 15 36  1  0
 16 37  1  0
 16 38  1  0
 17 39  1  0
 17 40  1  0
 18 41  1  0
 18 42  1  0
 19 43  1  0
 19 44  1  0
 20 45  1  0
 20 46  1  0
 21 47  1  0
 22 48  1  0
 25 49  1  0
 25 50  1  0
 25 51  1  0
 28 52  1  0
 28 53  1  0
 28 54  1  0
M  END
>  <smiles>  (19) 
COc1cc(C(=O)N=c2[nH]ccc(=NC3CCCCC3)[nH]2)cc(OC)c1OC

>  <score_type>  (19) 
oracle

>  <origin>  (19) 
adg

>  <m_score__min__energy>  (19) 
-8.8000000000000007

>  <m_primary>  (19) 
energy

$$$$
19:0
     RDKit          3D

 65 68  0  0  0  0  0  0  0  0999 V2000
   -0.1080   18.2630  -28.8030 C   0  0  0  0  0  0  0  0  0  0  0  0
   -0.6720   19.0730  -29.8300 O   0  0  0  0  0  0  0  0  0  0  0  0
   -1.1450   20.3780  -29.6380 C   0  0  0  0  0  0  0  0  0  0  0  0
   -0.6100   21.4860  -30.3240 C   0  0  0  0  0  0  0  0  0  0  0  0
   -1.1230   22.7670  -30.1040 C   0  0  0  0  0  0  0  0  0  0  0  0
   -2.1730   22.9600  -29.1970 C   0  0  0  0  0  0  0  0  0  0  0  0
   -2.8700   24.5630  -28.9860 S   0  0  0  0  0  0  0  0  0  0  0  0
   -3.8070   24.5550  -27.8100 O   0  0  0  0  0  0  0  0  0  0  0  0
   -1.7830   25.5690  -28.7250 O   0  0  0  0  0  0  0  0  0  0  0  0
   -3.7470   25.0090  -30.4080 N   0  0  0  0  0  0  0  0  0  0  0  0
   -4.6620   24.0950  -31.0130 C   0  0  0  0  0  0  0  0  0  0  0  0
   -4.1750   22.9220  -31.5990 C   0  0  0  0  0  0  0  0  0  0  0  0
   -5.0570   21.9870  -32.1680 C   0  0  0  0  0  0  0  0  0  0  0  0
   -4.5370   20.7390  -32.7830 C   0  0  0  0  0  0  0  0  0  0  0  0
   -3.2080   20.3350  -32.5660 C   0  0  0  0  0  0  0  0  0  0  0  0
   -2.7190   19.1630  -33.1510 C   0  0  0  0  0  0  0  0  0  0  0  0
   -3.5450   18.3790  -33.9720 C   0  0  0  0  0  0  0  0  0  0  0  0
   -3.0140   17.1210  -34.6130 C   0  0  0  0  0  0  0  0  0  0  0  0
   -4.1230   16.1880  -35.1690 C   0  0  0  0  0  0  0  0  0  0  0  0
   -4.9820   15.5250  -34.1590 N   0  0  0  0  0  0  0  0  0  0  0  0
   -4.5450   15.6860  -32.7650 C   0  0  0  0  0  0  0  0  0  0  0  0
   -5.6850   16.3180  -31.9750 C   0  0  0  0  0  0  0  0  0  0  0  0
   -6.7490   16.6770  -32.9940 C   0  0  0  0  0  0  0  0  0  0  0  0
   -6.4110   15.8600  -34.2380 C   0  0  2  0  0  0  0  0  0  0  0  0
   -7.2240   14.5630  -34.2890 C   0  0  0  0  0  0  0  0  0  0  0  0
   -4.8770   18.7700  -34.1730 C   0  0  0  0  0  0  0  0  0  0  0  0
   -5.3680   19.9410  -33.5900 C   0  0  0  0  0  0  0  0  0  0  0  0
   -6.4360   22.2500  -32.1410 C   0  0  0  0  0  0  0  0  0  0  0  0
   -6.9250   23.4240  -31.5630 C   0  0  0  0  0  0  0  0  0  0  0  0
   -6.0410   24.3600  -30.9970 C   0  0  0  0  0  0  0  0  0  0  0  0
   -6.4910   25.5540  -30.4120 O   0  0  0  0  0  0  0  0  0  0  0  0
   -6.4810   25.8200  -29.0140 C   0  0  0  0  0  0  0  0  0  0  0  0
   -2.7070   21.8610  -28.5130 C   0  0  0  0  0  0  0  0  0  0  0  0
   -2.1930   20.5790  -28.7310 C   0  0  0  0  0  0  0  0  0  0  0  0
   -0.3901   18.6681  -27.8200 H   0  0  0  0  0  0  0  0  0  0  0  0
   -0.4862   17.2345  -28.8979 H   0  0  0  0  0  0  0  0  0  0  0  0
    0.9879   18.2609  -28.8979 H   0  0  0  0  0  0  0  0  0  0  0  0
    0.2157   21.3420  -31.0364 H   0  0  0  0  0  0  0  0  0  0  0  0
   -0.7009   23.6268  -30.6449 H   0  0  0  0  0  0  0  0  0  0  0  0
   -3.0921   22.7295  -31.6147 H   0  0  0  0  0  0  0  0  0  0  0  0
   -2.5483   20.9452  -31.9316 H   0  0  0  0  0  0  0  0  0  0  0  0
   -1.6798   18.8531  -32.9667 H   0  0  0  0  0  0  0  0  0  0  0  0
   -2.3522   17.4072  -35.4437 H   0  0  0  0  0  0  0  0  0  0  0  0
   -2.4847   16.5595  -33.8291 H   0  0  0  0  0  0  0  0  0  0  0  0
   -4.7733   16.7898  -35.8209 H   0  0  0  0  0  0  0  0  0  0  0  0
   -3.5937   15.3749  -35.6874 H   0  0  0  0  0  0  0  0  0  0  0  0
   -4.2964   14.7034  -32.3375 H   0  0  0  0  0  0  0  0  0  0  0  0
   -3.6522   16.3269  -32.7198 H   0  0  0  0  0  0  0  0  0  0  0  0
   -6.0843   15.6026  -31.2410 H   0  0  0  0  0  0  0  0  0  0  0  0
   -5.3466   17.2030  -31.4162 H   0  0  0  0  0  0  0  0  0  0  0  0
   -7.7477   16.4101  -32.6179 H   0  0  0  0  0  0  0  0  0  0  0  0
   -6.7652   17.7564  -33.2055 H   0  0  0  0  0  0  0  0  0  0  0  0
   -6.6485   16.4426  -35.1403 H   0  0  0  0  0  0  0  0  0  0  0  0
   -7.4370   14.2232  -33.2647 H   0  0  0  0  0  0  0  0  0  0  0  0
   -8.1705   14.7441  -34.8195 H   0  0  0  0  0  0  0  0  0  0  0  0
   -6.6485   13.7901  -34.8195 H   0  0  0  0  0  0  0  0  0  0  0  0
   -5.5400   18.1500  -34.7943 H   0  0  0  0  0  0  0  0  0  0  0  0
   -6.4120   20.2410  -33.7634 H   0  0  0  0  0  0  0  0  0  0  0  0
   -7.1377   21.5249  -32.5790 H   0  0  0  0  0  0  0  0  0  0  0  0
   -8.0078   23.6175  -31.5505 H   0  0  0  0  0  0  0  0  0  0  0  0
   -6.5167   24.8705  -28.4598 H   0  0  0  0  0  0  0  0  0  0  0  0
   -5.5618   26.3638  -28.7508 H   0  0  0  0  0  0  0  0  0  0  0  0
   -7.3568   26.4313  -28.7508 H   0  0  0  0  0  0  0  0  0  0  0  0
   -3.5335   22.0067  -27.8019 H   0  0  0  0  0  0  0  0  0  0  0  0
   -2.6150   19.7218  -28.1859 H   0  0  0  0  0  0  0  0  0  0  0  0
  1  2  1  0
  2  3  1  0
  3  4  2  0
  4  5  1  0
  5  6  2  0
  6  7  1  0
  7  8  2  0
  7  9  2  0
  7 10  1  0
 10 11  1  0
 11 12  2  0
 12 13  1  0
 13 14  1  0
 14 15  2  0
 15 16  1  0
 16 17  2  0
 17 18  1  0
 18 19  1  0
 19 20  1  0
 20 21  1  0
 21 22  1  0
 22 23  1  0
 23 24  1  0
 24 25  1  0
 17 26  1  0
 26 27  2  0
 13 28  2  0
 28 29  1  0
 29 30  2  0
 30 31  1  0
 31 32  1  0
  6 33  1  0
 33 34  2  0
 34  3  1  0
 30 11  1  0
 27 14  1  0
 24 20  1  0
  1 35  1  0
  1 36  1  0
  1 37  1  0
  4 38  1  0
  5 39  1  0
 12 40  1  0
 15 41  1  0
 16 42  1  0
 18 43  1  0
 18 44  1  0
 19 45  1  0
 19 46  1  0
 21 47  1  0
 21 48  1  0
 22 49  1  0
 22 50  1  0
 23 51  1  0
 23 52  1  0
 24 53  1  6
 25 54  1  0
 25 55  1  0
 25 56  1  0
 26 57  1  0
 27 58  1  0
 28 59  1  0
 29 60  1  0
 32 61  1  0
 32 62  1  0
 32 63  1  0
 33 64  1  0
 34 65  1  0
M  CHG  1  10  -1
M  END
>  <UniqueID>  (20) 
18

>  <SMILES>  (20) 
COc1ccc(S(=O)(=O)[N-]c2cc(-c3ccc(CCN4CCC[C@@H]4C)cc3)ccc2OC)cc1

>  <Energy>  (20) 
84.05723603508599

>  <Genealogy>  (20) 
COc1ccc(S(=O)(=O)[N-]c2cc(-c3ccc(CCN4CCCC4C)cc3)ccc2OC)cc1 (protonated)
COc1ccc(S(=O)(=O)[N-]c2cc(-c3ccc(CCN4CCC[C@@H]4C)cc3)ccc2OC)cc1 (chirality)
COc1ccc(S(=O)(=O)[N-]c2cc(-c3ccc(CCN4CCC[C@@H]4C)cc3)ccc2OC)cc1 (3D coordinates assigned)
COc1ccc(S(=O)(=O)[N-]c2cc(-c3ccc(CCN4CCC[C@@H]4C)cc3)ccc2OC)cc1 (nonaromatic ring conformer: 84.05723603508599 kcal/mol)

>  <smiles>  (20) 
COc1ccc(S(=O)(=O)Nc2cc(-c3ccc(CCN4CCCC4C)cc3)ccc2OC)cc1

>  <score_type>  (20) 
oracle

>  <origin>  (20) 
adg

>  <m_score__min__energy>  (20) 
-11.16

>  <m_primary>  (20) 
energy

$$$$
20:0
     RDKit          3D

 44 47  0  0  0  0  0  0  0  0999 V2000
   -0.2290   22.3790  -23.8040 C   0  0  0  0  0  0  0  0  0  0  0  0
   -0.3310   23.6210  -24.6230 C   0  0  0  0  0  0  0  0  0  0  0  0
   -0.3380   24.8810  -24.1150 N   0  0  0  0  0  0  0  0  0  0  0  0
   -0.7830   25.7000  -25.0690 N   0  0  0  0  0  0  0  0  0  0  0  0
   -1.2380   27.0670  -24.8480 C   0  0  0  0  0  0  0  0  0  0  0  0
   -1.0440   24.9220  -26.1350 C   0  0  0  0  0  0  0  0  0  0  0  0
   -1.9910   25.1040  -27.0750 N   0  0  0  0  0  0  0  0  0  0  0  0
   -2.2450   23.8210  -27.4620 C   0  0  0  0  0  0  0  0  0  0  0  0
   -3.3160   23.4550  -28.4400 C   0  0  0  0  0  0  0  0  0  0  0  0
   -3.6660   24.5980  -29.2960 N   0  0  0  0  0  0  0  0  0  0  0  0
   -5.0410   24.5160  -29.8190 C   0  0  0  0  0  0  0  0  0  0  0  0
   -5.1610   23.4110  -30.8270 C   0  0  0  0  0  0  0  0  0  0  0  0
   -4.1190   22.8150  -31.5310 C   0  0  0  0  0  0  0  0  0  0  0  0
   -4.5920   21.8020  -32.2960 N   0  0  0  0  0  0  0  0  0  0  0  0
   -3.8070   20.9400  -33.1740 C   0  0  0  0  0  0  0  0  0  0  0  0
   -5.9210   21.7510  -32.0840 C   0  0  0  0  0  0  0  0  0  0  0  0
   -6.8470   20.8610  -32.6370 C   0  0  0  0  0  0  0  0  0  0  0  0
   -8.1940   20.9880  -32.2510 C   0  0  0  0  0  0  0  0  0  0  0  0
   -8.5830   21.9840  -31.3280 C   0  0  0  0  0  0  0  0  0  0  0  0
   -7.6300   22.8610  -30.7810 C   0  0  0  0  0  0  0  0  0  0  0  0
   -6.3030   22.7170  -31.1860 C   0  0  0  0  0  0  0  0  0  0  0  0
   -1.5170   22.9100  -26.6920 C   0  0  0  0  0  0  0  0  0  0  0  0
   -0.7530   23.6620  -25.8980 N   0  0  0  0  0  0  0  0  0  0  0  0
   -0.2505   22.6413  -22.7359 H   0  0  0  0  0  0  0  0  0  0  0  0
   -1.0757   21.7163  -24.0360 H   0  0  0  0  0  0  0  0  0  0  0  0
    0.7145   21.8633  -24.0360 H   0  0  0  0  0  0  0  0  0  0  0  0
   -0.1800   25.1530  -23.1190 H   0  0  0  0  0  0  0  0  0  0  0  0
   -1.3028   27.2617  -23.7673 H   0  0  0  0  0  0  0  0  0  0  0  0
   -0.5251   27.7691  -25.3050 H   0  0  0  0  0  0  0  0  0  0  0  0
   -2.2295   27.2018  -25.3050 H   0  0  0  0  0  0  0  0  0  0  0  0
   -2.9578   22.6293  -29.0724 H   0  0  0  0  0  0  0  0  0  0  0  0
   -4.2123   23.1522  -27.8787 H   0  0  0  0  0  0  0  0  0  0  0  0
   -3.6110   25.4550  -28.6960 H   0  0  0  0  0  0  0  0  0  0  0  0
   -5.7329   24.3216  -28.9862 H   0  0  0  0  0  0  0  0  0  0  0  0
   -5.2903   25.4691  -30.3083 H   0  0  0  0  0  0  0  0  0  0  0  0
   -3.0642   23.1220  -31.4745 H   0  0  0  0  0  0  0  0  0  0  0  0
   -3.1897   20.2622  -32.5661 H   0  0  0  0  0  0  0  0  0  0  0  0
   -4.4839   20.3493  -33.8088 H   0  0  0  0  0  0  0  0  0  0  0  0
   -3.1558   21.5588  -33.8088 H   0  0  0  0  0  0  0  0  0  0  0  0
   -6.5322   20.0860  -33.3513 H   0  0  0  0  0  0  0  0  0  0  0  0
   -8.9492   20.3072  -32.6708 H   0  0  0  0  0  0  0  0  0  0  0  0
   -9.6394   22.0741  -31.0350 H   0  0  0  0  0  0  0  0  0  0  0  0
   -7.9215   23.6360  -30.0568 H   0  0  0  0  0  0  0  0  0  0  0  0
   -1.5637   21.8117  -26.7319 H   0  0  0  0  0  0  0  0  0  0  0  0
  1  2  1  0
  2  3  2  0
  3  4  1  0
  4  5  1  0
  4  6  1  0
  6  7  2  0
  7  8  1  0
  8  9  1  0
  9 10  1  0
 10 11  1  0
 11 12  1  0
 12 13  2  0
 13 14  1  0
 14 15  1  0
 14 16  1  0
 16 17  2  0
 17 18  1  0
 18 19  2  0
 19 20  1  0
 20 21  2  0
  8 22  2  0
 22 23  1  0
 23  2  1  0
 23  6  1  0
 21 12  1  0
 21 16  1  0
  1 24  1  0
  1 25  1  0
  1 26  1  0
  3 27  1  0
  5 28  1  0
  5 29  1  0
  5 30  1  0
  9 31  1  0
  9 32  1  0
 10 33  1  0
 11 34  1  0
 11 35  1  0
 13 36  1  0
 15 37  1  0
 15 38  1  0
 15 39  1  0
 17 40  1  0
 18 41  1  0
 19 42  1  0
 20 43  1  0
 22 44  1  0
M  CHG  1   3   1
M  END
>  <UniqueID>  (21) 
19

>  <SMILES>  (21) 
Cc1[nH+]n(C)c2nc(CNCc3cn(C)c4ccccc34)cn12

>  <Energy>  (21) 
166.84099655602282

>  <Genealogy>  (21) 
Cc1[nH+]n(C)c2nc(CNCc3cn(C)c4ccccc34)cn12 (protonated)
Cc1[nH+]n(C)c2nc(CNCc3cn(C)c4ccccc34)cn12 (3D coordinates assigned)
Cc1[nH+]n(C)c2nc(CNCc3cn(C)c4ccccc34)cn12 (optimized conformer: 166.84099655602282 kcal/mol)

>  <smiles>  (21) 
Cc1nn(C)c2nc(CNCc3cn(C)c4ccccc34)cn12

>  <score_type>  (21) 
oracle

>  <origin>  (21) 
adg

>  <m_score__min__energy>  (21) 
-7.75

>  <m_primary>  (21) 
energy

$$$$
21:0
     RDKit          3D

 62 66  0  0  0  0  0  0  0  0999 V2000
   -5.4600   24.8460  -30.4140 C   0  0  0  0  0  0  0  0  0  0  0  0
   -4.3760   24.1630  -31.0350 O   0  0  0  0  0  0  0  0  0  0  0  0
   -4.4620   22.8770  -31.5880 C   0  0  0  0  0  0  0  0  0  0  0  0
   -3.2970   22.2850  -32.0650 C   0  0  0  0  0  0  0  0  0  0  0  0
   -3.3130   21.0020  -32.6160 C   0  0  0  0  0  0  0  0  0  0  0  0
   -4.5090   20.2570  -32.7030 C   0  0  0  0  0  0  0  0  0  0  0  0
   -5.7110   20.8880  -32.2430 C   0  0  0  0  0  0  0  0  0  0  0  0
   -6.9560   20.2360  -32.3510 C   0  0  0  0  0  0  0  0  0  0  0  0
   -7.0460   18.9630  -32.9080 C   0  0  0  0  0  0  0  0  0  0  0  0
   -5.8760   18.3410  -33.3290 C   0  0  0  0  0  0  0  0  0  0  0  0
   -4.6270   18.9300  -33.2360 C   0  0  0  0  0  0  0  0  0  0  0  0
   -3.6940   18.0410  -33.7190 N   0  0  0  0  0  0  0  0  0  0  0  0
   -2.2080   18.1560  -33.7170 C   0  0  2  0  0  0  0  0  0  0  0  0
   -1.4900   17.5940  -34.9740 C   0  0  0  0  0  0  0  0  0  0  0  0
   -1.2400   16.0630  -34.9630 C   0  0  0  0  0  0  0  0  0  0  0  0
   -1.6670   15.4250  -33.7020 N   0  0  1  0  0  0  0  0  0  0  0  0
   -1.2990   14.0180  -33.7090 C   0  0  0  0  0  0  0  0  0  0  0  0
   -0.1190   13.6970  -33.6380 O   0  0  0  0  0  0  0  0  0  0  0  0
   -2.3270   12.9140  -33.8790 C   0  0  0  0  0  0  0  0  0  0  0  0
   -3.7100   13.3900  -33.6790 N   0  0  0  0  0  0  0  0  0  0  0  0
   -4.6930   12.3450  -34.0260 C   0  0  0  0  0  0  0  0  0  0  0  0
   -5.0390   11.5000  -32.7880 C   0  0  0  0  0  0  0  0  0  0  0  0
   -5.1260   12.4300  -31.5890 C   0  0  0  0  0  0  0  0  0  0  0  0
   -4.0240   13.7350  -32.0050 S   0  0  0  0  0  0  0  0  0  0  0  0
   -2.7840   13.6780  -31.1570 O   0  0  0  0  0  0  0  0  0  0  0  0
   -4.6940   15.0740  -31.8660 O   0  0  0  0  0  0  0  0  0  0  0  0
   -1.0630   16.1210  -32.5520 C   0  0  0  0  0  0  0  0  0  0  0  0
   -1.6020   17.5600  -32.4140 C   0  0  0  0  0  0  0  0  0  0  0  0
   -4.4530   16.9730  -34.1190 C   0  0  0  0  0  0  0  0  0  0  0  0
   -3.9960   15.9470  -34.6870 O   0  0  0  0  0  0  0  0  0  0  0  0
   -5.7680   17.1170  -33.8650 N   0  0  0  0  0  0  0  0  0  0  0  0
   -6.8350   16.1710  -34.1930 C   0  0  0  0  0  0  0  0  0  0  0  0
   -5.6720   22.1750  -31.6840 C   0  0  0  0  0  0  0  0  0  0  0  0
   -5.3565   24.7808  -29.3208 H   0  0  0  0  0  0  0  0  0  0  0  0
   -5.4517   25.9023  -30.7207 H   0  0  0  0  0  0  0  0  0  0  0  0
   -6.4093   24.3826  -30.7207 H   0  0  0  0  0  0  0  0  0  0  0  0
   -2.3472   22.8368  -32.0072 H   0  0  0  0  0  0  0  0  0  0  0  0
   -2.3758   20.5635  -32.9894 H   0  0  0  0  0  0  0  0  0  0  0  0
   -7.8662   20.7382  -31.9914 H   0  0  0  0  0  0  0  0  0  0  0  0
   -8.0194   18.4615  -33.0124 H   0  0  0  0  0  0  0  0  0  0  0  0
   -2.0169   19.2387  -33.7522 H   0  0  0  0  0  0  0  0  0  0  0  0
   -2.1070   17.8317  -35.8531 H   0  0  0  0  0  0  0  0  0  0  0  0
   -0.4963   18.0653  -34.9941 H   0  0  0  0  0  0  0  0  0  0  0  0
   -1.7996   15.6091  -35.7941 H   0  0  0  0  0  0  0  0  0  0  0  0
   -0.1567   15.9025  -35.0663 H   0  0  0  0  0  0  0  0  0  0  0  0
   -2.7000   15.5090  -33.6190 H   0  0  0  0  0  0  0  0  0  0  0  0
   -2.2391   12.5044  -34.8961 H   0  0  0  0  0  0  0  0  0  0  0  0
   -2.1241   12.1494  -33.1146 H   0  0  0  0  0  0  0  0  0  0  0  0
   -5.6085   12.8211  -34.4070 H   0  0  0  0  0  0  0  0  0  0  0  0
   -4.2591   11.6891  -34.7951 H   0  0  0  0  0  0  0  0  0  0  0  0
   -6.0048   10.9957  -32.9392 H   0  0  0  0  0  0  0  0  0  0  0  0
   -4.2660   10.7353  -32.6211 H   0  0  0  0  0  0  0  0  0  0  0  0
   -6.1508   12.8072  -31.4570 H   0  0  0  0  0  0  0  0  0  0  0  0
   -4.8670   11.9347  -30.6416 H   0  0  0  0  0  0  0  0  0  0  0  0
   -1.2964   15.5625  -31.6336 H   0  0  0  0  0  0  0  0  0  0  0  0
    0.0238   16.1740  -32.7131 H   0  0  0  0  0  0  0  0  0  0  0  0
   -2.3848   17.5598  -31.6412 H   0  0  0  0  0  0  0  0  0  0  0  0
   -0.7388   18.1912  -32.1563 H   0  0  0  0  0  0  0  0  0  0  0  0
   -7.2763   15.7797  -33.2645 H   0  0  0  0  0  0  0  0  0  0  0  0
   -7.6112   16.6831  -34.7805 H   0  0  0  0  0  0  0  0  0  0  0  0
   -6.4196   15.3390  -34.7805 H   0  0  0  0  0  0  0  0  0  0  0  0
   -6.6003   22.6376  -31.3175 H   0  0  0  0  0  0  0  0  0  0  0  0
  1  2  1  0
  2  3  1  0
  3  4  2  0
  4  5  1  0
  5  6  2  0
  6  7  1  0
  7  8  1  0
  8  9  2  0
  9 10  1  0
 10 11  2  0
 11 12  1  0
 12 13  1  0
 13 14  1  0
 14 15  1  0
 15 16  1  0
 16 17  1  0
 17 18  2  0
 17 19  1  0
 19 20  1  0
 20 21  1  0
 21 22  1  0
 22 23  1  0
 23 24  1  0
 24 25  2  0
 24 26  2  0
 16 27  1  0
 27 28  1  0
 12 29  1  0
 29 30  2  0
 29 31  1  0
 31 32  1  0
  7 33  2  0
 33  3  1  0
 11  6  1  0
 28 13  1  0
 31 10  1  0
 24 20  1  0
  1 34  1  0
  1 35  1  0
  1 36  1  0
  4 37  1  0
  5 38  1  0
  8 39  1  0
  9 40  1  0
 13 41  1  1
 14 42  1  0
 14 43  1  0
 15 44  1  0
 15 45  1  0
 16 46  1  1
 19 47  1  0
 19 48  1  0
 21 49  1  0
 21 50  1  0
 22 51  1  0
 22 52  1  0
 23 53  1  0
 23 54  1  0
 27 55  1  0
 27 56  1  0
 28 57  1  0
 28 58  1  0
 32 59  1  0
 32 60  1  0
 32 61  1  0
 33 62  1  0
M  CHG  1  16   1
M  END
>  <UniqueID>  (22) 
20

>  <SMILES>  (22) 
COc1ccc2c(ccc3c2n(C2CC[NH+](C(=O)CN4CCCS4(=O)=O)CC2)c(=O)n3C)c1

>  <Energy>  (22) 
132.6621501939002

>  <Genealogy>  (22) 
COc1ccc2c(ccc3c2n(C2CC[NH+](C(=O)CN4CCCS4(=O)=O)CC2)c(=O)n3C)c1 (protonated)
COc1ccc2c(ccc3c2n(C2CC[NH+](C(=O)CN4CCCS4(=O)=O)CC2)c(=O)n3C)c1 (3D coordinates assigned)
COc1ccc2c(ccc3c2n(C2CC[NH+](C(=O)CN4CCCS4(=O)=O)CC2)c(=O)n3C)c1 (nonaromatic ring conformer: 132.6621501939002 kcal/mol)

>  <smiles>  (22) 
COc1ccc2c(ccc3c2n(C2CCN(C(=O)CN4CCCS4(=O)=O)CC2)c(=O)n3C)c1

>  <score_type>  (22) 
oracle

>  <origin>  (22) 
adg

>  <m_score__min__energy>  (22) 
-9.6899999999999995

>  <m_primary>  (22) 
energy

$$$$
22:0
     RDKit          3D

 37 39  0  0  0  0  0  0  0  0999 V2000
   -2.5236   22.9403  -30.9823 H   0  0  0  0  0  0  0  0  0  0  0  0
   -3.4040   22.7230  -31.6050 C   0  0  0  0  0  0  0  0  0  0  0  0
   -3.2900   21.9210  -32.6150 N   0  0  0  0  0  0  0  0  0  0  0  0
   -3.0740   20.4870  -32.4640 C   0  0  0  0  0  0  0  0  0  0  0  0
   -2.0088   20.2983  -32.2649 H   0  0  0  0  0  0  0  0  0  0  0  0
   -3.6821   20.1171  -31.6253 H   0  0  0  0  0  0  0  0  0  0  0  0
   -3.4870   19.7570  -33.7430 C   0  0  0  0  0  0  0  0  0  0  0  0
   -3.7986   20.4986  -34.4933 H   0  0  0  0  0  0  0  0  0  0  0  0
   -2.6253   19.1753  -34.1024 H   0  0  0  0  0  0  0  0  0  0  0  0
   -4.6280   18.8060  -33.4910 C   0  0  0  0  0  0  0  0  0  0  0  0
   -5.0370   18.5240  -32.1760 C   0  0  0  0  0  0  0  0  0  0  0  0
   -4.5033   18.9765  -31.3272 H   0  0  0  0  0  0  0  0  0  0  0  0
   -6.1190   17.6710  -31.9430 C   0  0  0  0  0  0  0  0  0  0  0  0
   -6.4308   17.4483  -30.9119 H   0  0  0  0  0  0  0  0  0  0  0  0
   -6.8060   17.1000  -33.0190 C   0  0  0  0  0  0  0  0  0  0  0  0
   -7.6558   16.4265  -32.8338 H   0  0  0  0  0  0  0  0  0  0  0  0
   -6.4130   17.3850  -34.3300 C   0  0  0  0  0  0  0  0  0  0  0  0
   -6.9561   16.9387  -35.1761 H   0  0  0  0  0  0  0  0  0  0  0  0
   -5.3300   18.2370  -34.5660 C   0  0  0  0  0  0  0  0  0  0  0  0
   -5.0262   18.4628  -35.5988 H   0  0  0  0  0  0  0  0  0  0  0  0
   -4.7050   23.3520  -31.2770 C   0  0  0  0  0  0  0  0  0  0  0  0
   -4.6820   24.6240  -30.6690 C   0  0  0  0  0  0  0  0  0  0  0  0
   -3.4760   25.2820  -30.4480 O   0  0  0  0  0  0  0  0  0  0  0  0
   -5.8650   25.2380  -30.2560 C   0  0  0  0  0  0  0  0  0  0  0  0
   -5.8292   26.2317  -29.7856 H   0  0  0  0  0  0  0  0  0  0  0  0
   -7.0900   24.6020  -30.4350 C   0  0  0  0  0  0  0  0  0  0  0  0
   -8.0137   25.0839  -30.0821 H   0  0  0  0  0  0  0  0  0  0  0  0
   -7.1520   23.3520  -31.0620 C   0  0  0  0  0  0  0  0  0  0  0  0
   -8.3980   22.7350  -31.2580 C   0  0  0  0  0  0  0  0  0  0  0  0
   -9.3135   23.2202  -30.8885 H   0  0  0  0  0  0  0  0  0  0  0  0
   -8.4800   21.5100  -31.9190 C   0  0  0  0  0  0  0  0  0  0  0  0
   -9.4579   21.0259  -32.0585 H   0  0  0  0  0  0  0  0  0  0  0  0
   -7.3260   20.8980  -32.4030 C   0  0  0  0  0  0  0  0  0  0  0  0
   -7.3978   19.9388  -32.9367 H   0  0  0  0  0  0  0  0  0  0  0  0
   -6.0790   21.4960  -32.2140 C   0  0  0  0  0  0  0  0  0  0  0  0
   -5.1772   21.0107  -32.6156 H   0  0  0  0  0  0  0  0  0  0  0  0
   -5.9610   22.7190  -31.5120 C   0  0  0  0  0  0  0  0  0  0  0  0
  1  2  1  0
  2  3  2  0
  3  4  1  0
  4  5  1  0
  4  6  1  0
  4  7  1  0
  7  8  1  0
  7  9  1  0
  7 10  1  0
 10 11  2  0
 11 12  1  0
 11 13  1  0
 13 14  1  0
 13 15  2  0
 15 16  1  0
 15 17  1  0
 17 18  1  0
 17 19  2  0
 19 20  1  0
  2 21  1  0
 21 22  2  0
 22 23  1  0
 22 24  1  0
 24 25  1  0
 24 26  2  0
 26 27  1  0
 26 28  1  0
 28 29  2  0
 29 30  1  0
 29 31  1  0
 31 32  1  0
 31 33  2  0
 33 34  1  0
 33 35  1  0
 35 36  1  0
 35 37  2  0
 19 10  1  0
 37 21  1  0
 37 28  1  0
M  CHG  1  23  -1
M  END
>  <UniqueID>  (23) 
21

>  <SMILES>  (23) 
[O-]c1ccc2ccccc2c1/C=N/CCc1ccccc1

>  <Energy>  (23) 
44.80560305725646

>  <Genealogy>  (23) 
[O-]c1ccc2ccccc2c1C=NCCc1ccccc1 (protonated)
[O-]c1ccc2ccccc2c1/C=N/CCc1ccccc1 (cis-trans isomerization)
[O-]c1ccc2ccccc2c1/C=N/CCc1ccccc1 (3D coordinates assigned)
[O-]c1ccc2ccccc2c1/C=N/CCc1ccccc1 (optimized conformer: 44.80560305725646 kcal/mol)

>  <smiles>  (23) 
Oc1ccc2ccccc2c1C=NCCc1ccccc1

>  <score_type>  (23) 
oracle

>  <origin>  (23) 
adg

>  <m_score__min__energy>  (23) 
-11.01

>  <m_primary>  (23) 
energy

$$$$
23:0
     RDKit          3D

 25 27  0  0  0  0  0  0  0  0999 V2000
   -0.7540   25.6800  -23.7760 N   0  0  0  0  0  0  0  0  0  0  0  0
   -1.0560   25.4470  -24.8690 C   0  0  0  0  0  0  0  0  0  0  0  0
   -1.4300   25.1570  -26.2250 C   0  0  0  0  0  0  0  0  0  0  0  0
   -0.5540   25.0390  -27.2960 C   0  0  0  0  0  0  0  0  0  0  0  0
   -1.2040   24.7500  -28.5020 C   0  0  0  0  0  0  0  0  0  0  0  0
   -2.5840   24.6440  -28.3680 C   0  0  0  0  0  0  0  0  0  0  0  0
   -3.5320   24.3540  -29.4480 C   0  0  0  0  0  0  0  0  0  0  0  0
   -4.2130   23.1980  -29.5650 N   0  0  0  0  0  0  0  0  0  0  0  0
   -4.9270   23.4160  -30.6910 C   0  0  0  0  0  0  0  0  0  0  0  0
   -5.8870   22.4430  -31.2740 C   0  0  0  0  0  0  0  0  0  0  0  0
   -7.2060   22.3850  -30.7750 C   0  0  0  0  0  0  0  0  0  0  0  0
   -7.6070   23.1930  -29.7600 F   0  0  0  0  0  0  0  0  0  0  0  0
   -8.1240   21.4710  -31.2990 C   0  0  0  0  0  0  0  0  0  0  0  0
   -7.7470   20.6060  -32.3240 C   0  0  0  0  0  0  0  0  0  0  0  0
   -6.4510   20.6540  -32.8350 C   0  0  0  0  0  0  0  0  0  0  0  0
   -5.5170   21.5640  -32.3240 C   0  0  0  0  0  0  0  0  0  0  0  0
   -3.9250   21.5930  -33.0780 Cl  0  0  0  0  0  0  0  0  0  0  0  0
   -4.6910   24.6390  -31.2110 N   0  0  0  0  0  0  0  0  0  0  0  0
   -3.8230   25.1850  -30.4160 O   0  0  0  0  0  0  0  0  0  0  0  0
   -3.0040   24.9070  -26.7600 S   0  0  0  0  0  0  0  0  0  0  0  0
    0.5357   25.1598  -27.2064 H   0  0  0  0  0  0  0  0  0  0  0  0
   -0.6765   24.6200  -29.4585 H   0  0  0  0  0  0  0  0  0  0  0  0
   -9.1486   21.4343  -30.9005 H   0  0  0  0  0  0  0  0  0  0  0  0
   -8.4720   19.8852  -32.7300 H   0  0  0  0  0  0  0  0  0  0  0  0
   -6.1593   19.9712  -33.6466 H   0  0  0  0  0  0  0  0  0  0  0  0
  1  2  3  0
  2  3  1  0
  3  4  2  0
  4  5  1  0
  5  6  2  0
  6  7  1  0
  7  8  2  0
  8  9  1  0
  9 10  1  0
 10 11  2  0
 11 12  1  0
 11 13  1  0
 13 14  2  0
 14 15  1  0
 15 16  2  0
 16 17  1  0
  9 18  2  0
 18 19  1  0
  6 20  1  0
 20  3  1  0
 19  7  1  0
 16 10  1  0
  4 21  1  0
  5 22  1  0
 13 23  1  0
 14 24  1  0
 15 25  1  0
M  END
>  <UniqueID>  (24) 
22

>  <SMILES>  (24) 
N#Cc1ccc(-c2nc(-c3c(F)cccc3Cl)no2)s1

>  <Energy>  (24) 
90.74246150111915

>  <Genealogy>  (24) 
N#Cc1ccc(-c2nc(-c3c(F)cccc3Cl)no2)s1 (3D coordinates assigned)
N#Cc1ccc(-c2nc(-c3c(F)cccc3Cl)no2)s1 (optimized conformer: 90.74246150111915 kcal/mol)

>  <smiles>  (24) 
N#Cc1ccc(-c2nc(-c3c(F)cccc3Cl)no2)s1

>  <score_type>  (24) 
oracle

>  <origin>  (24) 
adg

>  <m_score__min__energy>  (24) 
-7.79

>  <m_primary>  (24) 
energy

$$$$
24:0
     RDKit          3D

 88 92  0  0  0  0  0  0  0  0999 V2000
    1.2280   17.3180  -35.2430 C   0  0  0  0  0  0  0  0  0  0  0  0
    0.2340   18.3320  -35.8060 C   0  0  0  0  0  0  0  0  0  0  0  0
   -0.7840   18.7670  -34.7510 C   0  0  0  0  0  0  0  0  0  0  0  0
   -0.6270   19.9410  -33.9670 C   0  0  0  0  0  0  0  0  0  0  0  0
    0.6220   20.8090  -34.1150 C   0  0  0  0  0  0  0  0  0  0  0  0
    0.2760   22.1800  -34.4750 N   0  0  0  0  0  0  0  0  0  0  0  0
    0.6790   22.7950  -35.7010 C   0  0  0  0  0  0  0  0  0  0  0  0
    0.7960   22.0910  -36.7410 O   0  0  0  0  0  0  0  0  0  0  0  0
    0.9010   24.2090  -35.7510 N   0  0  0  0  0  0  0  0  0  0  0  0
    1.1270   24.9270  -37.0010 C   0  0  0  0  0  0  0  0  0  0  0  0
    0.1510   26.0610  -37.1390 C   0  0  0  0  0  0  0  0  0  0  0  0
   -0.3000   26.7610  -36.0090 C   0  0  0  0  0  0  0  0  0  0  0  0
   -1.1710   27.8450  -36.1560 C   0  0  0  0  0  0  0  0  0  0  0  0
   -1.5950   28.2380  -37.4280 C   0  0  0  0  0  0  0  0  0  0  0  0
   -1.1450   27.5490  -38.5580 C   0  0  0  0  0  0  0  0  0  0  0  0
   -0.2790   26.4620  -38.4150 C   0  0  0  0  0  0  0  0  0  0  0  0
   -1.6670   20.3060  -33.0650 C   0  0  0  0  0  0  0  0  0  0  0  0
   -1.6300   21.5180  -32.3300 C   0  0  0  0  0  0  0  0  0  0  0  0
   -2.5880   21.8240  -31.3550 C   0  0  0  0  0  0  0  0  0  0  0  0
   -2.4610   23.0600  -30.4700 C   0  0  0  0  0  0  0  0  0  0  0  0
   -3.7740   23.8810  -30.4720 C   0  0  0  0  0  0  0  0  0  0  0  0
   -4.8360   23.3400  -29.4960 C   0  0  0  0  0  0  0  0  0  0  0  0
   -4.2750   22.9440  -28.1120 C   0  0  0  0  0  0  0  0  0  0  0  0
   -2.8050   23.3390  -27.9230 C   0  0  0  0  0  0  0  0  0  0  0  0
   -1.9350   22.7420  -29.0390 C   0  0  0  0  0  0  0  0  0  0  0  0
   -3.6250   20.9200  -31.1280 C   0  0  0  0  0  0  0  0  0  0  0  0
   -3.7340   19.7610  -31.8880 C   0  0  0  0  0  0  0  0  0  0  0  0
   -2.7760   19.4320  -32.8810 C   0  0  0  0  0  0  0  0  0  0  0  0
   -2.9020   18.2950  -33.6590 N   0  0  0  0  0  0  0  0  0  0  0  0
   -4.0650   17.3830  -33.5070 C   0  0  0  0  0  0  0  0  0  0  0  0
   -5.2940   17.8980  -34.2810 C   0  0  0  0  0  0  0  0  0  0  0  0
   -6.5970   17.6960  -33.4980 C   0  0  0  0  0  0  0  0  0  0  0  0
   -6.7610   18.7520  -32.4770 N   0  0  0  0  0  0  0  0  0  0  0  0
   -7.3450   20.0000  -33.0180 C   0  0  0  0  0  0  0  0  0  0  0  0
   -8.8260   20.1520  -32.5630 C   0  0  0  0  0  0  0  0  0  0  0  0
   -8.9280   20.8360  -31.1960 C   0  0  0  0  0  0  0  0  0  0  0  0
   -8.3430   22.2660  -31.2240 C   0  0  0  0  0  0  0  0  0  0  0  0
   -7.3160   22.4820  -32.3530 C   0  0  0  0  0  0  0  0  0  0  0  0
   -6.4810   21.2190  -32.5900 C   0  0  0  0  0  0  0  0  0  0  0  0
   -1.9460   17.9850  -34.5950 C   0  0  0  0  0  0  0  0  0  0  0  0
   -2.0970   16.9710  -35.3350 O   0  0  0  0  0  0  0  0  0  0  0  0
    1.1990   17.3476  -34.1438 H   0  0  0  0  0  0  0  0  0  0  0  0
    0.9590   16.3094  -35.5899 H   0  0  0  0  0  0  0  0  0  0  0  0
    2.2418   17.5668  -35.5899 H   0  0  0  0  0  0  0  0  0  0  0  0
    0.7860   19.2168  -36.1558 H   0  0  0  0  0  0  0  0  0  0  0  0
   -0.3109   17.8563  -36.6347 H   0  0  0  0  0  0  0  0  0  0  0  0
    1.1683   20.8163  -33.1603 H   0  0  0  0  0  0  0  0  0  0  0  0
    1.2451   20.3865  -34.9170 H   0  0  0  0  0  0  0  0  0  0  0  0
    0.8480   24.7620  -34.8640 H   0  0  0  0  0  0  0  0  0  0  0  0
    2.1514   25.3278  -37.0084 H   0  0  0  0  0  0  0  0  0  0  0  0
    0.9864   24.2317  -37.8417 H   0  0  0  0  0  0  0  0  0  0  0  0
    0.0324   26.4562  -35.0057 H   0  0  0  0  0  0  0  0  0  0  0  0
   -1.5234   28.3898  -35.2677 H   0  0  0  0  0  0  0  0  0  0  0  0
   -2.2826   29.0892  -37.5402 H   0  0  0  0  0  0  0  0  0  0  0  0
   -1.4728   27.8627  -39.5600 H   0  0  0  0  0  0  0  0  0  0  0  0
    0.0678   25.9176  -39.3057 H   0  0  0  0  0  0  0  0  0  0  0  0
   -0.8247   22.2397  -32.5316 H   0  0  0  0  0  0  0  0  0  0  0  0
   -1.6811   23.6965  -30.9134 H   0  0  0  0  0  0  0  0  0  0  0  0
   -3.5374   24.9176  -30.1901 H   0  0  0  0  0  0  0  0  0  0  0  0
   -4.1985   23.8117  -31.4844 H   0  0  0  0  0  0  0  0  0  0  0  0
   -5.5996   24.1182  -29.3498 H   0  0  0  0  0  0  0  0  0  0  0  0
   -5.2451   22.4240  -29.9471 H   0  0  0  0  0  0  0  0  0  0  0  0
   -4.8740   23.4426  -27.3357 H   0  0  0  0  0  0  0  0  0  0  0  0
   -4.3324   21.8481  -28.0362 H   0  0  0  0  0  0  0  0  0  0  0  0
   -2.7198   24.4355  -27.9461 H   0  0  0  0  0  0  0  0  0  0  0  0
   -2.4556   22.9495  -26.9554 H   0  0  0  0  0  0  0  0  0  0  0  0
   -0.9174   23.1486  -28.9431 H   0  0  0  0  0  0  0  0  0  0  0  0
   -1.9587   21.6487  -28.9197 H   0  0  0  0  0  0  0  0  0  0  0  0
   -4.3642   21.1259  -30.3398 H   0  0  0  0  0  0  0  0  0  0  0  0
   -4.5830   19.0833  -31.7152 H   0  0  0  0  0  0  0  0  0  0  0  0
   -3.7919   16.3890  -33.8910 H   0  0  0  0  0  0  0  0  0  0  0  0
   -4.3263   17.3333  -32.4397 H   0  0  0  0  0  0  0  0  0  0  0  0
   -5.1630   18.9719  -34.4801 H   0  0  0  0  0  0  0  0  0  0  0  0
   -5.3693   17.3241  -35.2164 H   0  0  0  0  0  0  0  0  0  0  0  0
   -7.4469   17.7326  -34.1954 H   0  0  0  0  0  0  0  0  0  0  0  0
   -6.5593   16.7190  -32.9940 H   0  0  0  0  0  0  0  0  0  0  0  0
   -7.4010   18.3670  -31.7410 H   0  0  0  0  0  0  0  0  0  0  0  0
   -7.3439   19.9542  -34.1170 H   0  0  0  0  0  0  0  0  0  0  0  0
   -9.3676   20.7561  -33.3058 H   0  0  0  0  0  0  0  0  0  0  0  0
   -9.2652   19.1470  -32.4788 H   0  0  0  0  0  0  0  0  0  0  0  0
   -9.9870   20.8903  -30.9033 H   0  0  0  0  0  0  0  0  0  0  0  0
   -8.3476   20.2436  -30.4734 H   0  0  0  0  0  0  0  0  0  0  0  0
   -9.1693   22.9787  -31.3625 H   0  0  0  0  0  0  0  0  0  0  0  0
   -7.8170   22.4218  -30.2706 H   0  0  0  0  0  0  0  0  0  0  0  0
   -7.8500   22.7385  -33.2799 H   0  0  0  0  0  0  0  0  0  0  0  0
   -6.6392   23.2973  -32.0577 H   0  0  0  0  0  0  0  0  0  0  0  0
   -5.7472   21.4260  -33.3829 H   0  0  0  0  0  0  0  0  0  0  0  0
   -5.9911   20.9615  -31.6394 H   0  0  0  0  0  0  0  0  0  0  0  0
  1  2  1  0
  2  3  1  0
  3  4  2  0
  4  5  1  0
  5  6  1  0
  6  7  1  0
  7  8  2  0
  7  9  1  0
  9 10  1  0
 10 11  1  0
 11 12  2  0
 12 13  1  0
 13 14  2  0
 14 15  1  0
 15 16  2  0
  4 17  1  0
 17 18  2  0
 18 19  1  0
 19 20  1  0
 20 21  1  0
 21 22  1  0
 22 23  1  0
 23 24  1  0
 24 25  1  0
 19 26  2  0
 26 27  1  0
 27 28  2  0
 28 29  1  0
 29 30  1  0
 30 31  1  0
 31 32  1  0
 32 33  1  0
 33 34  1  0
 34 35  1  0
 35 36  1  0
 36 37  1  0
 37 38  1  0
 38 39  1  0
 29 40  1  0
 40 41  2  0
 40  3  1  0
 16 11  1  0
 28 17  1  0
 39 34  1  0
 25 20  1  0
  1 42  1  0
  1 43  1  0
  1 44  1  0
  2 45  1  0
  2 46  1  0
  5 47  1  0
  5 48  1  0
  9 49  1  0
 10 50  1  0
 10 51  1  0
 12 52  1  0
 13 53  1  0
 14 54  1  0
 15 55  1  0
 16 56  1  0
 18 57  1  0
 20 58  1  0
 21 59  1  0
 21 60  1  0
 22 61  1  0
 22 62  1  0
 23 63  1  0
 23 64  1  0
 24 65  1  0
 24 66  1  0
 25 67  1  0
 25 68  1  0
 26 69  1  0
 27 70  1  0
 30 71  1  0
 30 72  1  0
 31 73  1  0
 31 74  1  0
 32 75  1  0
 32 76  1  0
 33 77  1  0
 34 78  1  0
 35 79  1  0
 35 80  1  0
 36 81  1  0
 36 82  1  0
 37 83  1  0
 37 84  1  0
 38 85  1  0
 38 86  1  0
 39 87  1  0
 39 88  1  0
M  CHG  1   6  -1
M  END
>  <UniqueID>  (25) 
23

>  <SMILES>  (25) 
CCc1c(C[N-]C(=O)NCc2ccccc2)c2cc(C3CCCCC3)ccc2n(CCCNC2CCCCC2)c1=O

>  <Energy>  (25) 
112.84550560765341

>  <Genealogy>  (25) 
CCc1c(C[N-]C(=O)NCc2ccccc2)c2cc(C3CCCCC3)ccc2n(CCCNC2CCCCC2)c1=O (protonated)
CCc1c(C[N-]C(=O)NCc2ccccc2)c2cc(C3CCCCC3)ccc2n(CCCNC2CCCCC2)c1=O (3D coordinates assigned)
CCc1c(C[N-]C(=O)NCc2ccccc2)c2cc(C3CCCCC3)ccc2n(CCCNC2CCCCC2)c1=O (nonaromatic ring conformer: 112.84550560765341 kcal/mol)

>  <smiles>  (25) 
CCc1c(CNC(=O)NCc2ccccc2)c2cc(C3CCCCC3)ccc2n(CCCNC2CCCCC2)c1=O

>  <score_type>  (25) 
oracle

>  <origin>  (25) 
adg

>  <m_score__min__energy>  (25) 
-11.82

>  <m_primary>  (25) 
energy

$$$$
25:0
     RDKit          3D

 41 44  0  0  0  0  0  0  0  0999 V2000
   -2.5190   24.5560  -29.3170 C   0  0  0  0  0  0  0  0  0  0  0  0
   -3.4730   25.1370  -30.1990 O   0  0  0  0  0  0  0  0  0  0  0  0
   -4.7420   24.5980  -30.4610 C   0  0  0  0  0  0  0  0  0  0  0  0
   -5.9310   25.2880  -30.1590 C   0  0  0  0  0  0  0  0  0  0  0  0
   -7.1700   24.7090  -30.4460 C   0  0  0  0  0  0  0  0  0  0  0  0
   -7.2370   23.4420  -31.0270 C   0  0  0  0  0  0  0  0  0  0  0  0
   -6.0600   22.7320  -31.3200 C   0  0  0  0  0  0  0  0  0  0  0  0
   -6.1080   21.3910  -31.9460 C   0  0  0  0  0  0  0  0  0  0  0  0
   -7.1020   20.4990  -31.7120 N   0  0  0  0  0  0  0  0  0  0  0  0
   -6.7680   19.4360  -32.4740 C   0  0  0  0  0  0  0  0  0  0  0  0
   -7.5100   18.2640  -32.6010 C   0  0  0  0  0  0  0  0  0  0  0  0
   -7.0390   17.2850  -33.4900 C   0  0  0  0  0  0  0  0  0  0  0  0
   -5.8630   17.5060  -34.2320 C   0  0  0  0  0  0  0  0  0  0  0  0
   -5.1580   18.7070  -34.0680 C   0  0  0  0  0  0  0  0  0  0  0  0
   -5.6320   19.6130  -33.1720 N   0  0  0  0  0  0  0  0  0  0  0  0
   -5.1950   20.8390  -32.8360 C   0  0  0  0  0  0  0  0  0  0  0  0
   -4.0960   21.5190  -33.4600 N   0  0  0  0  0  0  0  0  0  0  0  0
   -2.7210   21.2990  -33.1060 C   0  0  0  0  0  0  0  0  0  0  0  0
   -2.2980   21.5580  -31.7920 C   0  0  0  0  0  0  0  0  0  0  0  0
   -0.9680   21.3350  -31.4190 C   0  0  0  0  0  0  0  0  0  0  0  0
   -0.0530   20.8430  -32.3520 C   0  0  0  0  0  0  0  0  0  0  0  0
   -0.4660   20.5670  -33.6570 C   0  0  0  0  0  0  0  0  0  0  0  0
   -1.7940   20.7880  -34.0350 C   0  0  0  0  0  0  0  0  0  0  0  0
   -4.8170   23.3270  -31.0450 C   0  0  0  0  0  0  0  0  0  0  0  0
   -2.8221   24.7406  -28.2758 H   0  0  0  0  0  0  0  0  0  0  0  0
   -2.4659   23.4721  -29.4967 H   0  0  0  0  0  0  0  0  0  0  0  0
   -1.5316   25.0063  -29.4967 H   0  0  0  0  0  0  0  0  0  0  0  0
   -5.8848   26.2848  -29.6962 H   0  0  0  0  0  0  0  0  0  0  0  0
   -8.0965   25.2543  -30.2129 H   0  0  0  0  0  0  0  0  0  0  0  0
   -8.2162   22.9966  -31.2569 H   0  0  0  0  0  0  0  0  0  0  0  0
   -8.4340   18.1108  -32.0241 H   0  0  0  0  0  0  0  0  0  0  0  0
   -7.5912   16.3409  -33.6075 H   0  0  0  0  0  0  0  0  0  0  0  0
   -5.4999   16.7421  -34.9353 H   0  0  0  0  0  0  0  0  0  0  0  0
   -4.2461   18.9106  -34.6486 H   0  0  0  0  0  0  0  0  0  0  0  0
   -4.3200   22.2650  -34.1570 H   0  0  0  0  0  0  0  0  0  0  0  0
   -3.0168   21.9386  -31.0514 H   0  0  0  0  0  0  0  0  0  0  0  0
   -0.6429   21.5475  -30.3898 H   0  0  0  0  0  0  0  0  0  0  0  0
    0.9935   20.6728  -32.0589 H   0  0  0  0  0  0  0  0  0  0  0  0
    0.2550   20.1748  -34.3894 H   0  0  0  0  0  0  0  0  0  0  0  0
   -2.1160   20.5618  -35.0622 H   0  0  0  0  0  0  0  0  0  0  0  0
   -3.8906   22.7875  -31.2916 H   0  0  0  0  0  0  0  0  0  0  0  0
  1  2  1  0
  2  3  1  0
  3  4  2  0
  4  5  1  0
  5  6  2  0
  6  7  1  0
  7  8  1  0
  8  9  1  0
  9 10  2  0
 10 11  1  0
 11 12  2  0
 12 13  1  0
 13 14  2  0
 14 15  1  0
 15 16  1  0
 16 17  1  0
 17 18  1  0
 18 19  2  0
 19 20  1  0
 20 21  2  0
 21 22  1  0
 22 23  2  0
  7 24  2  0
 24  3  1  0
 16  8  2  0
 23 18  1  0
 15 10  1  0
  1 25  1  0
  1 26  1  0
  1 27  1  0
  4 28  1  0
  5 29  1  0
  6 30  1  0
 11 31  1  0
 12 32  1  0
 13 33  1  0
 14 34  1  0
 17 35  1  0
 19 36  1  0
 20 37  1  0
 21 38  1  0
 22 39  1  0
 23 40  1  0
 24 41  1  0
M  END
>  <UniqueID>  (26) 
24

>  <SMILES>  (26) 
COc1cccc(-c2nc3ccccn3c2Nc2ccccc2)c1

>  <Energy>  (26) 
89.58412297740506

>  <Genealogy>  (26) 
COc1cccc(-c2nc3ccccn3c2Nc2ccccc2)c1 (3D coordinates assigned)
COc1cccc(-c2nc3ccccn3c2Nc2ccccc2)c1 (optimized conformer: 89.58412297740506 kcal/mol)

>  <smiles>  (26) 
COc1cccc(-c2nc3ccccn3c2Nc2ccccc2)c1

>  <score_type>  (26) 
oracle

>  <origin>  (26) 
adg

>  <m_score__min__energy>  (26) 
-9.0899999999999999

>  <m_primary>  (26) 
energy

$$$$
26:0
     RDKit          3D

 40 42  0  0  0  0  0  0  0  0999 V2000
   -9.0430   21.0120  -31.5600 C   0  0  0  0  0  0  0  0  0  0  0  0
   -7.8830   21.9450  -31.6850 C   0  0  0  0  0  0  0  0  0  0  0  0
   -6.8230   21.7270  -32.5600 C   0  0  0  0  0  0  0  0  0  0  0  0
   -5.6640   22.9150  -32.2870 S   0  0  0  0  0  0  0  0  0  0  0  0
   -6.5000   23.7140  -31.0660 C   0  0  0  0  0  0  0  0  0  0  0  0
   -5.9930   24.8950  -30.2880 C   0  0  0  0  0  0  0  0  0  0  0  0
   -5.3370   24.4950  -29.0310 N   0  0  0  0  0  0  0  0  0  0  0  0
   -5.1160   23.0340  -28.9330 C   0  0  0  0  0  0  0  0  0  0  0  0
   -3.6690   22.6520  -29.2900 C   0  0  0  0  0  0  0  0  0  0  0  0
   -3.1070   23.5210  -30.4210 C   0  0  0  0  0  0  0  0  0  0  0  0
   -2.9470   24.9130  -29.9980 N   0  0  0  0  0  0  0  0  0  0  0  0
   -2.3280   25.2850  -28.9180 C   0  0  0  0  0  0  0  0  0  0  0  0
   -2.7180   24.9120  -27.6690 N   0  0  0  0  0  0  0  0  0  0  0  0
   -1.8180   25.5320  -26.8940 C   0  0  0  0  0  0  0  0  0  0  0  0
   -1.7260   25.5040  -25.5040 C   0  0  0  0  0  0  0  0  0  0  0  0
   -0.6910   26.2440  -24.9030 C   0  0  0  0  0  0  0  0  0  0  0  0
    0.2150   26.9830  -25.6980 C   0  0  0  0  0  0  0  0  0  0  0  0
    0.0930   26.9850  -27.1010 C   0  0  0  0  0  0  0  0  0  0  0  0
   -0.9420   26.2400  -27.6610 C   0  0  0  0  0  0  0  0  0  0  0  0
   -1.2420   26.0990  -28.9600 N   0  0  0  0  0  0  0  0  0  0  0  0
   -7.7010   23.0530  -30.8430 C   0  0  0  0  0  0  0  0  0  0  0  0
   -9.2601   20.8374  -30.4959 H   0  0  0  0  0  0  0  0  0  0  0  0
   -9.9244   21.4557  -32.0460 H   0  0  0  0  0  0  0  0  0  0  0  0
   -8.7986   20.0559  -32.0460 H   0  0  0  0  0  0  0  0  0  0  0  0
   -6.7549   20.9177  -33.3019 H   0  0  0  0  0  0  0  0  0  0  0  0
   -5.2671   25.4419  -30.9077 H   0  0  0  0  0  0  0  0  0  0  0  0
   -6.8570   25.5257  -30.0315 H   0  0  0  0  0  0  0  0  0  0  0  0
   -5.8850   24.8620  -28.2170 H   0  0  0  0  0  0  0  0  0  0  0  0
   -4.4050   24.9710  -29.0040 H   0  0  0  0  0  0  0  0  0  0  0  0
   -5.3265   22.7099  -27.9031 H   0  0  0  0  0  0  0  0  0  0  0  0
   -5.7882   22.5369  -29.6479 H   0  0  0  0  0  0  0  0  0  0  0  0
   -3.0380   22.7788  -28.3979 H   0  0  0  0  0  0  0  0  0  0  0  0
   -3.6687   21.6068  -29.6329 H   0  0  0  0  0  0  0  0  0  0  0  0
   -2.1266   23.1242  -30.7234 H   0  0  0  0  0  0  0  0  0  0  0  0
   -3.8159   23.4947  -31.2617 H   0  0  0  0  0  0  0  0  0  0  0  0
   -2.4374   24.9239  -24.8978 H   0  0  0  0  0  0  0  0  0  0  0  0
   -0.5862   26.2475  -23.8080 H   0  0  0  0  0  0  0  0  0  0  0  0
    1.0195   27.5595  -25.2181 H   0  0  0  0  0  0  0  0  0  0  0  0
    0.7906   27.5549  -27.7324 H   0  0  0  0  0  0  0  0  0  0  0  0
   -8.4339   23.3657  -30.0847 H   0  0  0  0  0  0  0  0  0  0  0  0
  1  2  1  0
  2  3  2  0
  3  4  1  0
  4  5  1  0
  5  6  1  0
  6  7  1  0
  7  8  1  0
  8  9  1  0
  9 10  1  0
 10 11  1  0
 11 12  2  3
 12 13  1  0
 13 14  1  0
 14 15  2  0
 15 16  1  0
 16 17  2  0
 17 18  1  0
 18 19  2  0
 19 20  1  0
  5 21  2  0
 21  2  1  0
 20 12  1  0
 19 14  1  0
  1 22  1  0
  1 23  1  0
  1 24  1  0
  3 25  1  0
  6 26  1  0
  6 27  1  0
  7 28  1  0
  7 29  1  0
  8 30  1  0
  8 31  1  0
  9 32  1  0
  9 33  1  0
 10 34  1  0
 10 35  1  0
 15 36  1  0
 16 37  1  0
 17 38  1  0
 18 39  1  0
 21 40  1  0
M  CHG  3   7   1  13  -1  20  -1
M  END
>  <UniqueID>  (27) 
25

>  <SMILES>  (27) 
Cc1csc(C[NH2+]CCCN=c2[n-]c3ccccc3[n-]2)c1

>  <Energy>  (27) 
93.99938943324145

>  <Genealogy>  (27) 
Cc1csc(C[NH2+]CCCN=c2[n-]c3ccccc3[n-]2)c1 (protonated)
Cc1csc(C[NH2+]CCCN=c2[n-]c3ccccc3[n-]2)c1 (3D coordinates assigned)
Cc1csc(C[NH2+]CCCN=c2[n-]c3ccccc3[n-]2)c1 (optimized conformer: 93.99938943324145 kcal/mol)

>  <smiles>  (27) 
Cc1csc(CNCCCN=c2[nH]c3ccccc3[nH]2)c1

>  <score_type>  (27) 
oracle

>  <origin>  (27) 
adg

>  <m_score__min__energy>  (27) 
-9.4199999999999999

>  <m_primary>  (27) 
energy

$$$$
27:0
     RDKit          3D

 44 46  0  0  0  0  0  0  0  0999 V2000
   -7.0480   24.3250  -30.0310 C   0  0  0  0  0  0  0  0  0  0  0  0
   -7.1710   23.0980  -30.8930 C   0  0  0  0  0  0  0  0  0  0  0  0
   -8.3280   22.3090  -30.7900 C   0  0  0  0  0  0  0  0  0  0  0  0
   -8.5030   21.1920  -31.6080 C   0  0  0  0  0  0  0  0  0  0  0  0
   -7.5190   20.8350  -32.5430 C   0  0  0  0  0  0  0  0  0  0  0  0
   -7.7200   19.7070  -33.4190 N   0  0  0  0  0  0  0  0  0  0  0  0
   -7.1500   18.4940  -32.8160 C   0  0  0  0  0  0  0  0  0  0  0  0
   -5.7570   18.2510  -33.3380 C   0  0  0  0  0  0  0  0  0  0  0  0
   -4.6450   18.7830  -32.6640 C   0  0  0  0  0  0  0  0  0  0  0  0
   -3.3560   18.5890  -33.1700 C   0  0  0  0  0  0  0  0  0  0  0  0
   -3.1710   17.8720  -34.3560 C   0  0  0  0  0  0  0  0  0  0  0  0
   -4.2730   17.3540  -35.0400 C   0  0  0  0  0  0  0  0  0  0  0  0
   -5.5640   17.5460  -34.5380 C   0  0  0  0  0  0  0  0  0  0  0  0
   -6.3570   21.6160  -32.6450 C   0  0  0  0  0  0  0  0  0  0  0  0
   -6.1560   22.7190  -31.8050 C   0  0  0  0  0  0  0  0  0  0  0  0
   -4.9390   23.4630  -31.9380 N   0  0  0  0  0  0  0  0  0  0  0  0
   -4.1240   23.8760  -30.8350 C   0  0  0  0  0  0  0  0  0  0  0  0
   -3.8650   25.1000  -30.6810 O   0  0  0  0  0  0  0  0  0  0  0  0
   -3.5990   22.8620  -29.8830 C   0  0  0  0  0  0  0  0  0  0  0  0
   -3.9480   22.9680  -28.5220 C   0  0  0  0  0  0  0  0  0  0  0  0
   -3.4890   22.0330  -27.5900 C   0  0  0  0  0  0  0  0  0  0  0  0
   -2.6760   20.9780  -28.0010 C   0  0  0  0  0  0  0  0  0  0  0  0
   -2.3150   20.8570  -29.3420 C   0  0  0  0  0  0  0  0  0  0  0  0
   -2.7640   21.7870  -30.2880 C   0  0  0  0  0  0  0  0  0  0  0  0
   -2.2070   21.5780  -31.9470 Cl  0  0  0  0  0  0  0  0  0  0  0  0
   -7.0773   24.0328  -28.9709 H   0  0  0  0  0  0  0  0  0  0  0  0
   -6.0947   24.8300  -30.2459 H   0  0  0  0  0  0  0  0  0  0  0  0
   -7.8821   25.0092  -30.2459 H   0  0  0  0  0  0  0  0  0  0  0  0
   -9.1043   22.5741  -30.0571 H   0  0  0  0  0  0  0  0  0  0  0  0
   -9.4178   20.5876  -31.5194 H   0  0  0  0  0  0  0  0  0  0  0  0
   -7.2610   19.8920  -34.3420 H   0  0  0  0  0  0  0  0  0  0  0  0
   -8.7440   19.5710  -33.5890 H   0  0  0  0  0  0  0  0  0  0  0  0
   -7.1112   18.6165  -31.7235 H   0  0  0  0  0  0  0  0  0  0  0  0
   -7.7838   17.6341  -33.0783 H   0  0  0  0  0  0  0  0  0  0  0  0
   -4.7889   19.3542  -31.7350 H   0  0  0  0  0  0  0  0  0  0  0  0
   -2.4874   19.0005  -32.6349 H   0  0  0  0  0  0  0  0  0  0  0  0
   -2.1563   17.7157  -34.7508 H   0  0  0  0  0  0  0  0  0  0  0  0
   -4.1252   16.7940  -35.9752 H   0  0  0  0  0  0  0  0  0  0  0  0
   -6.4304   17.1442  -35.0838 H   0  0  0  0  0  0  0  0  0  0  0  0
   -5.5941   21.3585  -33.3945 H   0  0  0  0  0  0  0  0  0  0  0  0
   -4.5897   23.7970  -28.1888 H   0  0  0  0  0  0  0  0  0  0  0  0
   -3.7697   22.1298  -26.5308 H   0  0  0  0  0  0  0  0  0  0  0  0
   -2.3191   20.2406  -27.2669 H   0  0  0  0  0  0  0  0  0  0  0  0
   -1.6716   20.0234  -29.6601 H   0  0  0  0  0  0  0  0  0  0  0  0
  1  2  1  0
  2  3  2  0
  3  4  1  0
  4  5  2  0
  5  6  1  0
  6  7  1  0
  7  8  1  0
  8  9  2  0
  9 10  1  0
 10 11  2  0
 11 12  1  0
 12 13  2  0
  5 14  1  0
 14 15  2  0
 15 16  1  0
 16 17  1  0
 17 18  2  0
 17 19  1  0
 19 20  2  0
 20 21  1  0
 21 22  2  0
 22 23  1  0
 23 24  2  0
 24 25  1  0
 15  2  1  0
 24 19  1  0
 13  8  1  0
  1 26  1  0
  1 27  1  0
  1 28  1  0
  3 29  1  0
  4 30  1  0
  6 31  1  0
  6 32  1  0
  7 33  1  0
  7 34  1  0
  9 35  1  0
 10 36  1  0
 11 37  1  0
 12 38  1  0
 13 39  1  0
 14 40  1  0
 20 41  1  0
 21 42  1  0
 22 43  1  0
 23 44  1  0
M  CHG  2   6   1  16  -1
M  END
>  <UniqueID>  (28) 
26

>  <SMILES>  (28) 
Cc1ccc([NH2+]Cc2ccccc2)cc1[N-]C(=O)c1ccccc1Cl

>  <Energy>  (28) 
57.686666319370964

>  <Genealogy>  (28) 
Cc1ccc([NH2+]Cc2ccccc2)cc1[N-]C(=O)c1ccccc1Cl (protonated)
Cc1ccc([NH2+]Cc2ccccc2)cc1[N-]C(=O)c1ccccc1Cl (3D coordinates assigned)
Cc1ccc([NH2+]Cc2ccccc2)cc1[N-]C(=O)c1ccccc1Cl (optimized conformer: 57.686666319370964 kcal/mol)

>  <smiles>  (28) 
Cc1ccc(NCc2ccccc2)cc1NC(=O)c1ccccc1Cl

>  <score_type>  (28) 
oracle

>  <origin>  (28) 
adg

>  <m_score__min__energy>  (28) 
-10.01

>  <m_primary>  (28) 
energy

$$$$
28:0
     RDKit          3D

 42 46  0  0  0  0  0  0  0  0999 V2000
   -7.8557   24.6447  -29.7259 H   0  0  0  0  0  0  0  0  0  0  0  0
   -6.9530   24.2060  -30.1760 C   0  0  0  0  0  0  0  0  0  0  0  0
   -5.7510   24.8230  -30.0290 N   0  0  0  0  0  0  0  0  0  0  0  0
   -4.6160   24.2970  -30.5610 C   0  0  0  0  0  0  0  0  0  0  0  0
   -3.4920   24.9300  -30.4130 N   0  0  0  0  0  0  0  0  0  0  0  0
   -2.5300   24.6390  -29.3530 C   0  0  0  0  0  0  0  0  0  0  0  0
   -1.9603   25.5788  -29.4002 H   0  0  0  0  0  0  0  0  0  0  0  0
   -2.1580   23.1720  -29.2510 C   0  0  0  0  0  0  0  0  0  0  0  0
   -2.5213   22.4585  -30.0053 H   0  0  0  0  0  0  0  0  0  0  0  0
   -1.2143   22.6118  -29.1761 H   0  0  0  0  0  0  0  0  0  0  0  0
   -3.1280   23.7830  -28.2530 C   0  0  0  0  0  0  0  0  0  0  0  0
   -4.1936   23.5118  -28.2847 H   0  0  0  0  0  0  0  0  0  0  0  0
   -3.1776   23.8484  -27.1561 H   0  0  0  0  0  0  0  0  0  0  0  0
   -4.6730   23.1250  -31.2510 N   0  0  0  0  0  0  0  0  0  0  0  0
   -5.8520   22.4720  -31.4190 C   0  0  0  0  0  0  0  0  0  0  0  0
   -7.0410   23.0130  -30.9000 C   0  0  0  0  0  0  0  0  0  0  0  0
   -8.3590   22.2620  -31.0250 C   0  0  0  0  0  0  0  0  0  0  0  0
   -8.4652   21.5958  -30.1561 H   0  0  0  0  0  0  0  0  0  0  0  0
   -9.1602   23.0144  -31.0702 H   0  0  0  0  0  0  0  0  0  0  0  0
   -8.4570   21.4080  -32.3150 C   0  0  0  0  0  0  0  0  0  0  0  0
   -9.2379   20.6446  -32.1831 H   0  0  0  0  0  0  0  0  0  0  0  0
   -8.7058   22.0705  -33.1571 H   0  0  0  0  0  0  0  0  0  0  0  0
   -7.1520   20.7300  -32.6080 C   0  0  0  0  0  0  0  0  0  0  0  0
   -6.9630   19.6900  -33.4410 N   0  0  0  0  0  0  0  0  0  0  0  0
   -5.6520   19.5080  -33.5450 N   0  0  0  0  0  0  0  0  0  0  0  0
   -5.0550   18.4640  -34.3700 C   0  0  0  0  0  0  0  0  0  0  0  0
   -4.6137   17.6922  -33.7222 H   0  0  0  0  0  0  0  0  0  0  0  0
   -5.8302   18.0103  -35.0050 H   0  0  0  0  0  0  0  0  0  0  0  0
   -4.2708   18.9020  -35.0050 H   0  0  0  0  0  0  0  0  0  0  0  0
   -4.9960   20.4480  -32.8200 C   0  0  0  0  0  0  0  0  0  0  0  0
   -3.5310   20.5670  -32.6940 C   0  0  0  0  0  0  0  0  0  0  0  0
   -2.7430   20.7890  -33.8350 C   0  0  0  0  0  0  0  0  0  0  0  0
   -3.2179   20.8591  -34.8247 H   0  0  0  0  0  0  0  0  0  0  0  0
   -1.3570   20.9210  -33.7160 C   0  0  0  0  0  0  0  0  0  0  0  0
   -0.7448   21.1087  -34.6104 H   0  0  0  0  0  0  0  0  0  0  0  0
   -0.7470   20.8150  -32.4630 C   0  0  0  0  0  0  0  0  0  0  0  0
    0.3452   20.9103  -32.3729 H   0  0  0  0  0  0  0  0  0  0  0  0
   -1.5250   20.5880  -31.3250 C   0  0  0  0  0  0  0  0  0  0  0  0
   -1.0443   20.5035  -30.3392 H   0  0  0  0  0  0  0  0  0  0  0  0
   -2.9140   20.4680  -31.4370 C   0  0  0  0  0  0  0  0  0  0  0  0
   -3.5242   20.2957  -30.5382 H   0  0  0  0  0  0  0  0  0  0  0  0
   -5.9460   21.2420  -32.2110 C   0  0  0  0  0  0  0  0  0  0  0  0
  1  2  1  0
  2  3  1  0
  3  4  1  0
  4  5  2  0
  5  6  1  0
  6  7  1  0
  6  8  1  0
  8  9  1  0
  8 10  1  0
  8 11  1  0
 11 12  1  0
 11 13  1  0
  4 14  1  0
 14 15  2  0
 15 16  1  0
 16 17  1  0
 17 18  1  0
 17 19  1  0
 17 20  1  0
 20 21  1  0
 20 22  1  0
 20 23  1  0
 23 24  2  0
 24 25  1  0
 25 26  1  0
 26 27  1  0
 26 28  1  0
 26 29  1  0
 25 30  1  0
 30 31  1  0
 31 32  2  0
 32 33  1  0
 32 34  1  0
 34 35  1  0
 34 36  2  0
 36 37  1  0
 36 38  1  0
 38 39  1  0
 38 40  2  0
 40 41  1  0
 30 42  2  0
 16  2  2  0
 42 23  1  0
 11  6  1  0
 42 15  1  0
 40 31  1  0
M  CHG  1   3  -1
M  END
>  <UniqueID>  (29) 
27

>  <SMILES>  (29) 
Cn1nc2c(c1-c1ccccc1)-c1n/c(=N\C3CC3)[n-]cc1CC2

>  <Energy>  (29) 
351.2057558753716

>  <Genealogy>  (29) 
Cn1nc2c(c1-c1ccccc1)-c1nc(=NC3CC3)[n-]cc1CC2 (protonated)
Cn1nc2c(c1-c1ccccc1)-c1n/c(=N\C3CC3)[n-]cc1CC2 (cis-trans isomerization)
Cn1nc2c(c1-c1ccccc1)-c1n/c(=N\C3CC3)[n-]cc1CC2 (3D coordinates assigned)
Cn1nc2c(c1-c1ccccc1)-c1n/c(=N\C3CC3)[n-]cc1CC2 (nonaromatic ring conformer: 351.2057558753716 kcal/mol)

>  <smiles>  (29) 
Cn1nc2c(c1-c1ccccc1)-c1nc(=NC3CC3)[nH]cc1CC2

>  <score_type>  (29) 
oracle

>  <origin>  (29) 
adg

>  <m_score__min__energy>  (29) 
-9.6600000000000001

>  <m_primary>  (29) 
energy

$$$$
29:0
     RDKit          3D

 49 51  0  0  0  0  0  0  0  0999 V2000
   -2.0010   25.5680  -28.9640 O   0  0  0  0  0  0  0  0  0  0  0  0
   -2.7460   24.6640  -29.4300 C   0  0  0  0  0  0  0  0  0  0  0  0
   -3.7020   24.9630  -30.4570 N   0  0  0  0  0  0  0  0  0  0  0  0
   -4.8400   24.1690  -30.8240 C   0  0  0  0  0  0  0  0  0  0  0  0
   -6.1550   24.5560  -30.5110 C   0  0  0  0  0  0  0  0  0  0  0  0
   -7.2380   23.7680  -30.9130 C   0  0  0  0  0  0  0  0  0  0  0  0
   -7.0230   22.5870  -31.6490 C   0  0  0  0  0  0  0  0  0  0  0  0
   -8.0700   21.7580  -32.0850 O   0  0  0  0  0  0  0  0  0  0  0  0
   -7.9340   20.4160  -32.5640 C   0  0  2  0  0  0  0  0  0  0  0  0
   -9.0880   20.0600  -33.2740 O   0  0  0  0  0  0  0  0  0  0  0  0
   -7.7120   19.4210  -31.4040 C   0  0  0  0  0  0  0  0  0  0  0  0
   -7.1410   18.0430  -31.8210 C   0  0  0  0  0  0  0  0  0  0  0  0
   -6.8650   17.9080  -33.2750 N   0  0  0  0  0  0  0  0  0  0  0  0
   -6.8620   16.4680  -33.6710 C   0  0  0  0  0  0  0  0  0  0  0  0
   -5.4510   15.8610  -33.6820 C   0  0  0  0  0  0  0  0  0  0  0  0
   -4.5510   16.5820  -34.7000 C   0  0  0  0  0  0  0  0  0  0  0  0
   -4.9680   18.0450  -34.9210 C   0  0  0  0  0  0  0  0  0  0  0  0
   -5.6130   18.6260  -33.6560 C   0  0  0  0  0  0  0  0  0  0  0  0
   -5.7130   22.2140  -31.9700 C   0  0  0  0  0  0  0  0  0  0  0  0
   -4.6310   23.0040  -31.5700 C   0  0  0  0  0  0  0  0  0  0  0  0
   -2.6730   23.3060  -28.8760 C   0  0  0  0  0  0  0  0  0  0  0  0
   -1.6200   22.4130  -29.0370 C   0  0  0  0  0  0  0  0  0  0  0  0
   -1.8300   21.1900  -28.3900 C   0  0  0  0  0  0  0  0  0  0  0  0
   -3.0430   21.1160  -27.7160 C   0  0  0  0  0  0  0  0  0  0  0  0
   -3.8550   22.5730  -27.9300 S   0  0  0  0  0  0  0  0  0  0  0  0
   -6.3328   25.4835  -29.9469 H   0  0  0  0  0  0  0  0  0  0  0  0
   -8.2627   24.0722  -30.6530 H   0  0  0  0  0  0  0  0  0  0  0  0
   -7.0535   20.3715  -33.2218 H   0  0  0  0  0  0  0  0  0  0  0  0
   -8.8340   20.0440  -34.2340 H   0  0  0  0  0  0  0  0  0  0  0  0
   -7.0103   19.8792  -30.6915 H   0  0  0  0  0  0  0  0  0  0  0  0
   -8.7055   19.2239  -30.9749 H   0  0  0  0  0  0  0  0  0  0  0  0
   -6.1996   17.8812  -31.2755 H   0  0  0  0  0  0  0  0  0  0  0  0
   -7.9114   17.2968  -31.5768 H   0  0  0  0  0  0  0  0  0  0  0  0
   -7.6600   18.3480  -33.7930 H   0  0  0  0  0  0  0  0  0  0  0  0
   -7.4820   15.9052  -32.9576 H   0  0  0  0  0  0  0  0  0  0  0  0
   -7.2604   16.4032  -34.6943 H   0  0  0  0  0  0  0  0  0  0  0  0
   -5.0096   15.9577  -32.6791 H   0  0  0  0  0  0  0  0  0  0  0  0
   -5.5265   14.8016  -33.9682 H   0  0  0  0  0  0  0  0  0  0  0  0
   -3.5149   16.5623  -34.3312 H   0  0  0  0  0  0  0  0  0  0  0  0
   -4.6475   16.0577  -35.6622 H   0  0  0  0  0  0  0  0  0  0  0  0
   -4.0781   18.6387  -35.1770 H   0  0  0  0  0  0  0  0  0  0  0  0
   -5.7021   18.0820  -35.7393 H   0  0  0  0  0  0  0  0  0  0  0  0
   -4.8951   18.5491  -32.8261 H   0  0  0  0  0  0  0  0  0  0  0  0
   -5.8770   19.6733  -33.8646 H   0  0  0  0  0  0  0  0  0  0  0  0
   -5.5330   21.2917  -32.5417 H   0  0  0  0  0  0  0  0  0  0  0  0
   -3.6078   22.7074  -31.8439 H   0  0  0  0  0  0  0  0  0  0  0  0
   -0.7130   22.6443  -29.6148 H   0  0  0  0  0  0  0  0  0  0  0  0
   -1.1031   20.3647  -28.4128 H   0  0  0  0  0  0  0  0  0  0  0  0
   -3.4092   20.2526  -27.1412 H   0  0  0  0  0  0  0  0  0  0  0  0
  1  2  2  0
  2  3  1  0
  3  4  1  0
  4  5  2  0
  5  6  1  0
  6  7  2  0
  7  8  1  0
  8  9  1  0
  9 10  1  0
  9 11  1  0
 11 12  1  0
 12 13  1  0
 13 14  1  0
 14 15  1  0
 15 16  1  0
 16 17  1  0
 17 18  1  0
  7 19  1  0
 19 20  2  0
  2 21  1  0
 21 22  2  0
 22 23  1  0
 23 24  2  0
 24 25  1  0
 20  4  1  0
 25 21  1  0
 18 13  1  0
  5 26  1  0
  6 27  1  0
  9 28  1  6
 10 29  1  0
 11 30  1  0
 11 31  1  0
 12 32  1  0
 12 33  1  0
 13 34  1  0
 14 35  1  0
 14 36  1  0
 15 37  1  0
 15 38  1  0
 16 39  1  0
 16 40  1  0
 17 41  1  0
 17 42  1  0
 18 43  1  0
 18 44  1  0
 19 45  1  0
 20 46  1  0
 22 47  1  0
 23 48  1  0
 24 49  1  0
M  CHG  2   3  -1  13   1
M  END
>  <UniqueID>  (30) 
28

>  <SMILES>  (30) 
O=C([N-]c1ccc(O[C@H](O)CC[NH+]2CCCCC2)cc1)c1cccs1

>  <Energy>  (30) 
86.63447072496326

>  <Genealogy>  (30) 
O=C([N-]c1ccc(OC(O)CC[NH+]2CCCCC2)cc1)c1cccs1 (protonated)
O=C([N-]c1ccc(O[C@H](O)CC[NH+]2CCCCC2)cc1)c1cccs1 (chirality)
O=C([N-]c1ccc(O[C@H](O)CC[NH+]2CCCCC2)cc1)c1cccs1 (3D coordinates assigned)
O=C([N-]c1ccc(O[C@H](O)CC[NH+]2CCCCC2)cc1)c1cccs1 (nonaromatic ring conformer: 86.63447072496326 kcal/mol)

>  <smiles>  (30) 
O=C(Nc1ccc(OC(O)CCN2CCCCC2)cc1)c1cccs1

>  <score_type>  (30) 
oracle

>  <origin>  (30) 
adg

>  <m_score__min__energy>  (30) 
-9.4399999999999995

>  <m_primary>  (30) 
energy

$$$$
30:0
     RDKit          3D

 38 41  0  0  0  0  0  0  0  0999 V2000
   -5.3980   25.7830  -30.4640 C   0  0  0  0  0  0  0  0  0  0  0  0
   -4.3710   24.8740  -30.8450 O   0  0  0  0  0  0  0  0  0  0  0  0
   -4.5860   23.5280  -31.1760 C   0  0  0  0  0  0  0  0  0  0  0  0
   -3.4840   22.6650  -31.1990 C   0  0  0  0  0  0  0  0  0  0  0  0
   -3.6470   21.3160  -31.5170 C   0  0  0  0  0  0  0  0  0  0  0  0
   -4.9140   20.8160  -31.8220 C   0  0  0  0  0  0  0  0  0  0  0  0
   -6.0310   21.6680  -31.8250 C   0  0  0  0  0  0  0  0  0  0  0  0
   -7.3800   21.1460  -32.1350 C   0  0  0  0  0  0  0  0  0  0  0  0
   -8.8080   21.9720  -31.8030 S   0  0  0  0  0  0  0  0  0  0  0  0
   -9.8000   20.7080  -32.2890 C   0  0  0  0  0  0  0  0  0  0  0  0
   -9.0680   19.6550  -32.7120 N   0  0  0  0  0  0  0  0  0  0  0  0
   -7.7260   19.8820  -32.6410 C   0  0  0  0  0  0  0  0  0  0  0  0
   -6.7670   18.8670  -33.1270 C   0  0  0  0  0  0  0  0  0  0  0  0
   -6.1130   19.0210  -34.3650 C   0  0  0  0  0  0  0  0  0  0  0  0
   -5.2230   18.0440  -34.8220 C   0  0  0  0  0  0  0  0  0  0  0  0
   -4.9930   16.8990  -34.0570 C   0  0  0  0  0  0  0  0  0  0  0  0
   -5.6330   16.7410  -32.8200 C   0  0  0  0  0  0  0  0  0  0  0  0
   -6.5340   17.7080  -32.3660 C   0  0  0  0  0  0  0  0  0  0  0  0
   -5.3570   15.6050  -32.0530 O   0  0  0  0  0  0  0  0  0  0  0  0
   -4.2470   14.7570  -32.3630 C   0  0  0  0  0  0  0  0  0  0  0  0
   -4.0990   14.6110  -33.8830 C   0  0  0  0  0  0  0  0  0  0  0  0
   -4.1300   15.8970  -34.5090 O   0  0  0  0  0  0  0  0  0  0  0  0
   -5.8630   23.0210  -31.4860 C   0  0  0  0  0  0  0  0  0  0  0  0
   -5.4547   25.8332  -29.3666 H   0  0  0  0  0  0  0  0  0  0  0  0
   -5.1712   26.7817  -30.8655 H   0  0  0  0  0  0  0  0  0  0  0  0
   -6.3618   25.4366  -30.8655 H   0  0  0  0  0  0  0  0  0  0  0  0
   -2.4818   23.0532  -30.9646 H   0  0  0  0  0  0  0  0  0  0  0  0
   -2.7752   20.6453  -31.5273 H   0  0  0  0  0  0  0  0  0  0  0  0
   -5.0385   19.7496  -32.0612 H   0  0  0  0  0  0  0  0  0  0  0  0
  -10.8995   20.7340  -32.2660 H   0  0  0  0  0  0  0  0  0  0  0  0
   -6.3036   19.9155  -34.9762 H   0  0  0  0  0  0  0  0  0  0  0  0
   -4.7048   18.1775  -35.7830 H   0  0  0  0  0  0  0  0  0  0  0  0
   -7.0616   17.5621  -31.4119 H   0  0  0  0  0  0  0  0  0  0  0  0
   -3.3275   15.1965  -31.9491 H   0  0  0  0  0  0  0  0  0  0  0  0
   -4.4204   13.7640  -31.9226 H   0  0  0  0  0  0  0  0  0  0  0  0
   -3.1410   14.1200  -34.1091 H   0  0  0  0  0  0  0  0  0  0  0  0
   -4.9323   14.0047  -34.2678 H   0  0  0  0  0  0  0  0  0  0  0  0
   -6.7359   23.6899  -31.4625 H   0  0  0  0  0  0  0  0  0  0  0  0
  1  2  1  0
  2  3  1  0
  3  4  2  0
  4  5  1  0
  5  6  2  0
  6  7  1  0
  7  8  1  0
  8  9  1  0
  9 10  1  0
 10 11  2  0
 11 12  1  0
 12 13  1  0
 13 14  2  0
 14 15  1  0
 15 16  2  0
 16 17  1  0
 17 18  2  0
 17 19  1  0
 19 20  1  0
 20 21  1  0
 21 22  1  0
  7 23  2  0
 23  3  1  0
 12  8  2  0
 18 13  1  0
 22 16  1  0
  1 24  1  0
  1 25  1  0
  1 26  1  0
  4 27  1  0
  5 28  1  0
  6 29  1  0
 10 30  1  0
 14 31  1  0
 15 32  1  0
 18 33  1  0
 20 34  1  0
 20 35  1  0
 21 36  1  0
 21 37  1  0
 23 38  1  0
M  END
>  <UniqueID>  (31) 
29

>  <SMILES>  (31) 
COc1cccc(-c2scnc2-c2ccc3c(c2)OCCO3)c1

>  <Energy>  (31) 
80.49188414431681

>  <Genealogy>  (31) 
COc1cccc(-c2scnc2-c2ccc3c(c2)OCCO3)c1 (3D coordinates assigned)
COc1cccc(-c2scnc2-c2ccc3c(c2)OCCO3)c1 (nonaromatic ring conformer: 80.49188414431681 kcal/mol)

>  <smiles>  (31) 
COc1cccc(-c2scnc2-c2ccc3c(c2)OCCO3)c1

>  <score_type>  (31) 
oracle

>  <origin>  (31) 
adg

>  <m_score__min__energy>  (31) 
-8.2899999999999991

>  <m_primary>  (31) 
energy

$$$$
31:0
     RDKit          3D

 33 35  0  0  0  0  0  0  0  0999 V2000
   -2.6090   22.4440  -31.2720 N   0  0  0  0  0  0  0  0  0  0  0  0
   -3.7650   22.4990  -31.2650 C   0  0  0  0  0  0  0  0  0  0  0  0
   -5.2050   22.5670  -31.2580 C   0  0  0  0  0  0  0  0  0  0  0  0
   -5.9460   21.4270  -31.6000 C   0  0  0  0  0  0  0  0  0  0  0  0
   -7.3470   21.4680  -31.6020 C   0  0  0  0  0  0  0  0  0  0  0  0
   -8.2700   20.0260  -32.0070 S   0  0  0  0  0  0  0  0  0  0  0  0
   -9.2410   20.3280  -33.1140 O   0  0  0  0  0  0  0  0  0  0  0  0
   -9.0470   19.5590  -30.8090 O   0  0  0  0  0  0  0  0  0  0  0  0
   -7.1670   18.7650  -32.5200 C   0  0  0  0  0  0  0  0  0  0  0  0
   -6.4760   18.7350  -33.7200 C   0  0  0  0  0  0  0  0  0  0  0  0
   -5.6310   17.6260  -33.8410 C   0  0  0  0  0  0  0  0  0  0  0  0
   -5.6510   16.7820  -32.7270 C   0  0  0  0  0  0  0  0  0  0  0  0
   -4.8640   15.5350  -32.5460 C   0  0  0  0  0  0  0  0  0  0  0  0
   -3.9710   15.1110  -33.5470 C   0  0  0  0  0  0  0  0  0  0  0  0
   -3.2380   13.9380  -33.3670 C   0  0  0  0  0  0  0  0  0  0  0  0
   -3.3910   13.1960  -32.2000 C   0  0  0  0  0  0  0  0  0  0  0  0
   -4.2790   13.6400  -31.2210 C   0  0  0  0  0  0  0  0  0  0  0  0
   -4.9900   14.7870  -31.4060 N   0  0  0  0  0  0  0  0  0  0  0  0
   -6.7240   17.4350  -31.5980 S   0  0  0  0  0  0  0  0  0  0  0  0
   -8.0070   22.6510  -31.2460 C   0  0  0  0  0  0  0  0  0  0  0  0
   -7.2720   23.7890  -30.9040 C   0  0  0  0  0  0  0  0  0  0  0  0
   -5.8730   23.7550  -30.9100 C   0  0  0  0  0  0  0  0  0  0  0  0
   -4.9860   25.2120  -30.4710 Cl  0  0  0  0  0  0  0  0  0  0  0  0
   -5.4253   20.4959  -31.8681 H   0  0  0  0  0  0  0  0  0  0  0  0
   -6.5808   19.5047  -34.4988 H   0  0  0  0  0  0  0  0  0  0  0  0
   -5.0098   17.4365  -34.7288 H   0  0  0  0  0  0  0  0  0  0  0  0
   -3.8514   15.7017  -34.4672 H   0  0  0  0  0  0  0  0  0  0  0  0
   -2.5397   13.5999  -34.1468 H   0  0  0  0  0  0  0  0  0  0  0  0
   -2.8176   12.2691  -32.0513 H   0  0  0  0  0  0  0  0  0  0  0  0
   -4.4060   13.0610  -30.2944 H   0  0  0  0  0  0  0  0  0  0  0  0
   -5.6280   15.0870  -30.6390 H   0  0  0  0  0  0  0  0  0  0  0  0
   -9.1064   22.6842  -31.2356 H   0  0  0  0  0  0  0  0  0  0  0  0
   -7.7957   24.7163  -30.6286 H   0  0  0  0  0  0  0  0  0  0  0  0
  1  2  3  0
  2  3  1  0
  3  4  2  0
  4  5  1  0
  5  6  1  0
  6  7  2  0
  6  8  2  0
  6  9  1  0
  9 10  2  0
 10 11  1  0
 11 12  2  0
 12 13  1  0
 13 14  2  0
 14 15  1  0
 15 16  2  0
 16 17  1  0
 17 18  2  0
 12 19  1  0
  5 20  2  0
 20 21  1  0
 21 22  2  0
 22 23  1  0
 22  3  1  0
 19  9  1  0
 18 13  1  0
  4 24  1  0
 10 25  1  0
 11 26  1  0
 14 27  1  0
 15 28  1  0
 16 29  1  0
 17 30  1  0
 18 31  1  0
 20 32  1  0
 21 33  1  0
M  CHG  1  18   1
M  END
>  <UniqueID>  (32) 
30

>  <SMILES>  (32) 
N#Cc1cc(S(=O)(=O)c2ccc(-c3cccc[nH+]3)s2)ccc1Cl

>  <Energy>  (32) 
66.36550865286856

>  <Genealogy>  (32) 
N#Cc1cc(S(=O)(=O)c2ccc(-c3cccc[nH+]3)s2)ccc1Cl (protonated)
N#Cc1cc(S(=O)(=O)c2ccc(-c3cccc[nH+]3)s2)ccc1Cl (3D coordinates assigned)
N#Cc1cc(S(=O)(=O)c2ccc(-c3cccc[nH+]3)s2)ccc1Cl (optimized conformer: 66.36550865286856 kcal/mol)

>  <smiles>  (32) 
N#Cc1cc(S(=O)(=O)c2ccc(-c3ccccn3)s2)ccc1Cl

>  <score_type>  (32) 
oracle

>  <origin>  (32) 
adg

>  <m_score__min__energy>  (32) 
-8.4700000000000006

>  <m_primary>  (32) 
energy

$$$$
32:0
     RDKit          3D

 28 30  0  0  1  0  0  0  0  0999 V2000
   -1.3280   25.7800  -29.0460 O   0  0  0  0  0  0  0  0  0  0  0  0
   -1.7650   25.2480  -27.9960 C   0  0  0  0  0  0  0  0  0  0  0  0
   -2.7510   24.2000  -28.0040 N   0  0  0  0  0  0  0  0  0  0  0  0
   -3.5140   24.0360  -29.0360 C   0  0  0  0  0  0  0  0  0  0  0  0
   -3.5310   24.8200  -30.1440 N   0  0  0  0  0  0  0  0  0  0  0  0
   -4.4490   24.3040  -30.9620 N   0  0  0  0  0  0  0  0  0  0  0  0
   -4.9960   23.2140  -30.3650 C   0  0  0  0  0  0  0  0  0  0  0  0
   -6.0430   22.3540  -30.9230 C   0  0  0  0  0  0  0  0  0  0  0  0
   -7.3530   22.4690  -30.4680 C   0  0  0  0  0  0  0  0  0  0  0  0
   -8.3500   21.6550  -30.9900 C   0  0  0  0  0  0  0  0  0  0  0  0
   -8.0420   20.7160  -31.9760 C   0  0  0  0  0  0  0  0  0  0  0  0
   -9.3860   19.5820  -32.7080 Br  0  0  0  0  0  0  0  0  0  0  0  0
   -6.7440   20.6070  -32.4230 C   0  0  0  0  0  0  0  0  0  0  0  0
   -5.7280   21.4210  -31.9050 C   0  0  0  0  0  0  0  0  0  0  0  0
   -4.4060   23.0730  -29.1870 O   0  0  0  0  0  0  0  0  0  0  0  0
   -1.2880   25.6720  -26.7000 C   0  0  0  0  0  0  0  0  0  0  0  0
   -2.0020   26.0950  -25.5920 C   0  0  0  0  0  0  0  0  0  0  0  0
   -1.3310   26.4430  -24.5040 C   0  0  0  0  0  0  0  0  0  0  0  0
    0.0500   26.3630  -24.5400 C   0  0  0  0  0  0  0  0  0  0  0  0
    0.4360   25.7620  -26.2040 S   0  0  0  0  0  0  0  0  0  0  0  0
   -2.9360   25.6720  -30.3370 H   0  0  0  0  0  0  0  0  0  0  0  0
   -7.6000   23.2079  -29.6914 H   0  0  0  0  0  0  0  0  0  0  0  0
   -9.3836   21.7504  -30.6260 H   0  0  0  0  0  0  0  0  0  0  0  0
   -6.5006   19.8678  -33.2004 H   0  0  0  0  0  0  0  0  0  0  0  0
   -4.6950   21.3234  -32.2702 H   0  0  0  0  0  0  0  0  0  0  0  0
   -3.1008   26.1411  -25.6144 H   0  0  0  0  0  0  0  0  0  0  0  0
   -1.8556   26.7851  -23.5997 H   0  0  0  0  0  0  0  0  0  0  0  0
    0.7576   26.6101  -23.7349 H   0  0  0  0  0  0  0  0  0  0  0  0
  1  2  2  0
  2  3  1  0
  3  4  2  0
  4  5  1  0
  5  6  1  0
  6  7  2  0
  7  8  1  0
  8  9  2  0
  9 10  1  0
 10 11  2  0
 11 12  1  0
 11 13  1  0
 13 14  2  0
  7 15  1  0
  2 16  1  0
 16 17  2  0
 17 18  1  0
 18 19  2  0
 19 20  1  0
 15  4  1  0
 20 16  1  0
 14  8  1  0
  5 21  1  0
  9 22  1  0
 10 23  1  0
 13 24  1  0
 14 25  1  0
 17 26  1  0
 18 27  1  0
 19 28  1  0
M  END
>  <smiles>  (33) 
O=C(N=c1[nH]nc(-c2ccc(Br)cc2)o1)c1cccs1

>  <score_type>  (33) 
oracle

>  <origin>  (33) 
adg

>  <m_score__min__energy>  (33) 
-8.1899999999999995

>  <m_primary>  (33) 
energy

$$$$
33:0
     RDKit          3D

 46 48  0  0  0  0  0  0  0  0999 V2000
   -2.7530   18.9250  -26.4130 C   0  0  0  0  0  0  0  0  0  0  0  0
   -1.9700   19.5290  -27.4380 O   0  0  0  0  0  0  0  0  0  0  0  0
   -2.1370   20.8470  -27.8880 C   0  0  0  0  0  0  0  0  0  0  0  0
   -3.4320   21.3780  -27.9270 C   0  0  0  0  0  0  0  0  0  0  0  0
   -3.6490   22.6910  -28.3520 C   0  0  0  0  0  0  0  0  0  0  0  0
   -2.5680   23.4960  -28.7440 C   0  0  0  0  0  0  0  0  0  0  0  0
   -2.8020   24.9160  -29.1830 C   0  0  0  0  0  0  0  0  0  0  0  0
   -3.4930   24.9560  -30.4700 N   0  0  0  0  0  0  0  0  0  0  0  0
   -4.9130   25.0330  -30.6380 C   0  0  0  0  0  0  0  0  0  0  0  0
   -5.4950   26.1310  -30.4380 O   0  0  0  0  0  0  0  0  0  0  0  0
   -5.7150   23.8500  -30.9940 C   0  0  0  0  0  0  0  0  0  0  0  0
   -7.0580   23.7930  -30.6090 C   0  0  0  0  0  0  0  0  0  0  0  0
   -7.8120   22.6490  -30.8680 C   0  0  0  0  0  0  0  0  0  0  0  0
   -7.2110   21.5650  -31.5070 C   0  0  0  0  0  0  0  0  0  0  0  0
   -5.9050   21.6290  -31.8810 N   0  0  0  0  0  0  0  0  0  0  0  0
   -5.1480   22.7400  -31.6620 C   0  0  0  0  0  0  0  0  0  0  0  0
   -3.8040   22.7300  -32.0570 O   0  0  0  0  0  0  0  0  0  0  0  0
   -3.0810   21.5750  -32.3830 C   0  0  0  0  0  0  0  0  0  0  0  0
   -3.4020   20.7870  -33.5030 C   0  0  0  0  0  0  0  0  0  0  0  0
   -2.6640   19.6350  -33.7860 C   0  0  0  0  0  0  0  0  0  0  0  0
   -1.6060   19.2580  -32.9560 C   0  0  0  0  0  0  0  0  0  0  0  0
   -1.2750   20.0370  -31.8370 C   0  0  0  0  0  0  0  0  0  0  0  0
   -0.1680   19.6090  -30.9190 C   0  0  0  0  0  0  0  0  0  0  0  0
   -2.0300   21.1820  -31.5450 C   0  0  0  0  0  0  0  0  0  0  0  0
   -1.2710   22.9590  -28.7300 C   0  0  0  0  0  0  0  0  0  0  0  0
   -1.0540   21.6470  -28.2980 C   0  0  0  0  0  0  0  0  0  0  0  0
   -2.3636   19.2254  -25.4291 H   0  0  0  0  0  0  0  0  0  0  0  0
   -3.7986   19.2527  -26.5092 H   0  0  0  0  0  0  0  0  0  0  0  0
   -2.7015   17.8304  -26.5092 H   0  0  0  0  0  0  0  0  0  0  0  0
   -4.2858   20.7560  -27.6204 H   0  0  0  0  0  0  0  0  0  0  0  0
   -4.6715   23.0957  -28.3796 H   0  0  0  0  0  0  0  0  0  0  0  0
   -3.4157   25.4299  -28.4285 H   0  0  0  0  0  0  0  0  0  0  0  0
   -1.8281   25.4159  -29.2909 H   0  0  0  0  0  0  0  0  0  0  0  0
   -7.5205   24.6521  -30.1010 H   0  0  0  0  0  0  0  0  0  0  0  0
   -8.8702   22.6021  -30.5713 H   0  0  0  0  0  0  0  0  0  0  0  0
   -7.7952   20.6551  -31.7092 H   0  0  0  0  0  0  0  0  0  0  0  0
   -5.4740   20.8030  -32.3540 H   0  0  0  0  0  0  0  0  0  0  0  0
   -4.2364   21.0786  -34.1578 H   0  0  0  0  0  0  0  0  0  0  0  0
   -2.9169   19.0234  -34.6647 H   0  0  0  0  0  0  0  0  0  0  0  0
   -1.0305   18.3477  -33.1802 H   0  0  0  0  0  0  0  0  0  0  0  0
   -0.4893   19.7332  -29.8743 H   0  0  0  0  0  0  0  0  0  0  0  0
    0.0745   18.5523  -31.1048 H   0  0  0  0  0  0  0  0  0  0  0  0
    0.7223   20.2277  -31.1048 H   0  0  0  0  0  0  0  0  0  0  0  0
   -1.7947   21.7766  -30.6500 H   0  0  0  0  0  0  0  0  0  0  0  0
   -0.4208   23.5737  -29.0607 H   0  0  0  0  0  0  0  0  0  0  0  0
   -0.0329   21.2385  -28.2785 H   0  0  0  0  0  0  0  0  0  0  0  0
  1  2  1  0
  2  3  1  0
  3  4  2  0
  4  5  1  0
  5  6  2  0
  6  7  1  0
  7  8  1  0
  8  9  1  0
  9 10  2  0
  9 11  1  0
 11 12  2  0
 12 13  1  0
 13 14  2  0
 14 15  1  0
 15 16  2  0
 16 17  1  0
 17 18  1  0
 18 19  2  0
 19 20  1  0
 20 21  2  0
 21 22  1  0
 22 23  1  0
 22 24  2  0
  6 25  1  0
 25 26  2  0
 26  3  1  0
 16 11  1  0
 24 18  1  0
  1 27  1  0
  1 28  1  0
  1 29  1  0
  4 30  1  0
  5 31  1  0
  7 32  1  0
  7 33  1  0
 12 34  1  0
 13 35  1  0
 14 36  1  0
 15 37  1  0
 19 38  1  0
 20 39  1  0
 21 40  1  0
 23 41  1  0
 23 42  1  0
 23 43  1  0
 24 44  1  0
 25 45  1  0
 26 46  1  0
M  CHG  2   8  -1  15   1
M  END
>  <UniqueID>  (34) 
31

>  <SMILES>  (34) 
COc1ccc(C[N-]C(=O)c2ccc[nH+]c2Oc2cccc(C)c2)cc1

>  <Energy>  (34) 
57.19231322797903

>  <Genealogy>  (34) 
COc1ccc(C[N-]C(=O)c2ccc[nH+]c2Oc2cccc(C)c2)cc1 (protonated)
COc1ccc(C[N-]C(=O)c2ccc[nH+]c2Oc2cccc(C)c2)cc1 (3D coordinates assigned)
COc1ccc(C[N-]C(=O)c2ccc[nH+]c2Oc2cccc(C)c2)cc1 (optimized conformer: 57.19231322797903 kcal/mol)

>  <smiles>  (34) 
COc1ccc(CNC(=O)c2cccnc2Oc2cccc(C)c2)cc1

>  <score_type>  (34) 
oracle

>  <origin>  (34) 
adg

>  <m_score__min__energy>  (34) 
-9.0199999999999996

>  <m_primary>  (34) 
energy

$$$$
34:0
     RDKit          3D

 47 48  0  0  0  0  0  0  0  0999 V2000
   -6.4690   21.9240  -32.2840 C   0  0  0  0  0  0  0  0  0  0  0  0
   -6.1540   23.0780  -31.3790 C   0  0  0  0  0  0  0  0  0  0  0  0
   -7.1890   23.8470  -30.8280 C   0  0  0  0  0  0  0  0  0  0  0  0
   -6.8940   24.9430  -30.0150 C   0  0  0  0  0  0  0  0  0  0  0  0
   -5.5640   25.2890  -29.7560 C   0  0  0  0  0  0  0  0  0  0  0  0
   -4.5150   24.5390  -30.3220 C   0  0  0  0  0  0  0  0  0  0  0  0
   -3.1610   24.8450  -30.1070 O   0  0  0  0  0  0  0  0  0  0  0  0
   -2.1790   23.9530  -29.5750 C   0  0  0  0  0  0  0  0  0  0  0  0
   -1.5420   24.5160  -28.2950 C   0  0  1  0  0  0  0  0  0  0  0  0
   -1.6480   25.9170  -28.3210 O   0  0  0  0  0  0  0  0  0  0  0  0
   -2.2400   23.9610  -27.0410 C   0  0  0  0  0  0  0  0  0  0  0  0
   -2.8310   25.0570  -26.2580 N   0  0  0  0  0  0  0  0  0  0  0  0
   -1.9280   25.6710  -25.2600 C   0  0  2  0  0  0  0  0  0  0  0  0
   -1.5780   27.1510  -25.5690 C   0  0  0  0  0  0  0  0  0  0  0  0
   -0.0710   27.4220  -25.5330 C   0  0  0  0  0  0  0  0  0  0  0  0
    0.6480   26.4160  -26.3350 N   0  0  1  0  0  0  0  0  0  0  0  0
    2.0480   26.8280  -26.5320 C   0  0  0  0  0  0  0  0  0  0  0  0
    0.5900   25.0670  -25.7150 C   0  0  0  0  0  0  0  0  0  0  0  0
   -0.7070   24.7790  -24.9180 C   0  0  0  0  0  0  0  0  0  0  0  0
   -4.8210   23.4380  -31.1310 C   0  0  0  0  0  0  0  0  0  0  0  0
   -6.7108   21.0383  -31.6782 H   0  0  0  0  0  0  0  0  0  0  0  0
   -7.3301   22.1802  -32.9188 H   0  0  0  0  0  0  0  0  0  0  0  0
   -5.5972   21.7072  -32.9188 H   0  0  0  0  0  0  0  0  0  0  0  0
   -8.2369   23.5859  -31.0370 H   0  0  0  0  0  0  0  0  0  0  0  0
   -7.7102   25.5362  -29.5768 H   0  0  0  0  0  0  0  0  0  0  0  0
   -5.3367   26.1489  -29.1087 H   0  0  0  0  0  0  0  0  0  0  0  0
   -2.6587   22.9908  -29.3423 H   0  0  0  0  0  0  0  0  0  0  0  0
   -1.3866   23.8235  -30.3269 H   0  0  0  0  0  0  0  0  0  0  0  0
   -0.4851   24.2137  -28.2541 H   0  0  0  0  0  0  0  0  0  0  0  0
   -2.6070   26.1390  -28.1910 H   0  0  0  0  0  0  0  0  0  0  0  0
   -3.0343   23.2640  -27.3464 H   0  0  0  0  0  0  0  0  0  0  0  0
   -1.4975   23.4380  -26.4204 H   0  0  0  0  0  0  0  0  0  0  0  0
   -3.1470   25.8080  -26.9170 H   0  0  0  0  0  0  0  0  0  0  0  0
   -2.5046   25.7236  -24.3247 H   0  0  0  0  0  0  0  0  0  0  0  0
   -1.9565   27.4002  -26.5713 H   0  0  0  0  0  0  0  0  0  0  0  0
   -2.0460   27.7724  -24.7913 H   0  0  0  0  0  0  0  0  0  0  0  0
    0.1278   28.4231  -25.9433 H   0  0  0  0  0  0  0  0  0  0  0  0
    0.2782   27.3660  -24.4914 H   0  0  0  0  0  0  0  0  0  0  0  0
    0.2130   26.3680  -27.2870 H   0  0  0  0  0  0  0  0  0  0  0  0
    2.5297   26.9698  -25.5533 H   0  0  0  0  0  0  0  0  0  0  0  0
    2.5836   26.0494  -27.0949 H   0  0  0  0  0  0  0  0  0  0  0  0
    2.0765   27.7726  -27.0949 H   0  0  0  0  0  0  0  0  0  0  0  0
    0.6743   24.3174  -26.5157 H   0  0  0  0  0  0  0  0  0  0  0  0
    1.4174   25.0204  -24.9916 H   0  0  0  0  0  0  0  0  0  0  0  0
   -0.9916   23.7331  -25.1051 H   0  0  0  0  0  0  0  0  0  0  0  0
   -0.4644   24.9990  -23.8679 H   0  0  0  0  0  0  0  0  0  0  0  0
   -4.0067   22.8484  -31.5773 H   0  0  0  0  0  0  0  0  0  0  0  0
  1  2  1  0
  2  3  2  0
  3  4  1  0
  4  5  2  0
  5  6  1  0
  6  7  1  0
  7  8  1  0
  8  9  1  0
  9 10  1  0
  9 11  1  0
 11 12  1  0
 12 13  1  0
 13 14  1  0
 14 15  1  0
 15 16  1  0
 16 17  1  0
 16 18  1  0
 18 19  1  0
  6 20  2  0
 20  2  1  0
 19 13  1  0
  1 21  1  0
  1 22  1  0
  1 23  1  0
  3 24  1  0
  4 25  1  0
  5 26  1  0
  8 27  1  0
  8 28  1  0
  9 29  1  1
 10 30  1  0
 11 31  1  0
 11 32  1  0
 12 33  1  0
 13 34  1  1
 14 35  1  0
 14 36  1  0
 15 37  1  0
 15 38  1  0
 16 39  1  6
 17 40  1  0
 17 41  1  0
 17 42  1  0
 18 43  1  0
 18 44  1  0
 19 45  1  0
 19 46  1  0
 20 47  1  0
M  CHG  1  16   1
M  END
>  <UniqueID>  (35) 
32

>  <SMILES>  (35) 
Cc1cccc(OC[C@@H](O)CNC2CC[NH+](C)CC2)c1

>  <Energy>  (35) 
55.077874720705616

>  <Genealogy>  (35) 
Cc1cccc(OCC(O)CNC2CC[NH+](C)CC2)c1 (protonated)
Cc1cccc(OC[C@@H](O)CNC2CC[NH+](C)CC2)c1 (chirality)
Cc1cccc(OC[C@@H](O)CNC2CC[NH+](C)CC2)c1 (3D coordinates assigned)
Cc1cccc(OC[C@@H](O)CNC2CC[NH+](C)CC2)c1 (nonaromatic ring conformer: 55.077874720705616 kcal/mol)

>  <smiles>  (35) 
Cc1cccc(OCC(O)CNC2CCN(C)CC2)c1

>  <score_type>  (35) 
oracle

>  <origin>  (35) 
adg

>  <m_score__min__energy>  (35) 
-7.8300000000000001

>  <m_primary>  (35) 
energy

$$$$
35:0
     RDKit          3D

 54 55  0  0  0  0  0  0  0  0999 V2000
   -2.2070   20.5910  -32.9190 C   0  0  0  0  0  0  0  0  0  0  0  0
   -3.0550   21.8500  -32.7750 C   0  0  0  0  0  0  0  0  0  0  0  0
   -4.5080   21.4930  -32.5600 C   0  0  0  0  0  0  0  0  0  0  0  0
   -4.9390   20.1920  -32.8640 C   0  0  0  0  0  0  0  0  0  0  0  0
   -6.2860   19.8510  -32.7600 C   0  0  0  0  0  0  0  0  0  0  0  0
   -7.2250   20.8060  -32.3710 C   0  0  0  0  0  0  0  0  0  0  0  0
   -6.8220   22.1150  -32.0610 C   0  0  0  0  0  0  0  0  0  0  0  0
   -7.8700   23.1390  -31.6970 C   0  0  0  0  0  0  0  0  0  0  0  0
   -9.2700   22.6020  -31.9710 C   0  0  0  0  0  0  0  0  0  0  0  0
   -5.4540   22.4610  -32.1490 C   0  0  0  0  0  0  0  0  0  0  0  0
   -5.0380   23.7960  -31.8400 N   0  0  0  0  0  0  0  0  0  0  0  0
   -4.4530   24.1790  -30.5880 C   0  0  0  0  0  0  0  0  0  0  0  0
   -3.8620   25.2880  -30.5090 O   0  0  0  0  0  0  0  0  0  0  0  0
   -4.5070   23.2820  -29.3800 C   0  0  0  0  0  0  0  0  0  0  0  0
   -3.1450   22.8540  -29.0010 N   0  0  0  0  0  0  0  0  0  0  0  0
   -3.0890   21.4430  -28.5830 C   0  0  0  0  0  0  0  0  0  0  0  0
   -2.0970   23.2380  -29.9760 C   0  0  0  0  0  0  0  0  0  0  0  0
   -1.0250   24.1680  -29.4340 C   0  0  0  0  0  0  0  0  0  0  0  0
    0.1530   23.7540  -29.2840 O   0  0  0  0  0  0  0  0  0  0  0  0
   -1.3630   25.4540  -28.9000 N   0  0  0  0  0  0  0  0  0  0  0  0
   -1.2150   25.8670  -27.5370 C   0  0  0  0  0  0  0  0  0  0  0  0
   -0.3210   26.8990  -27.2270 C   0  0  0  0  0  0  0  0  0  0  0  0
   -0.1810   27.3370  -25.9070 C   0  0  0  0  0  0  0  0  0  0  0  0
   -0.9590   26.7710  -24.8860 C   0  0  0  0  0  0  0  0  0  0  0  0
   -0.7800   27.2130  -23.4640 C   0  0  0  0  0  0  0  0  0  0  0  0
   -1.8670   25.7470  -25.1990 C   0  0  0  0  0  0  0  0  0  0  0  0
   -2.0060   25.3100  -26.5200 C   0  0  0  0  0  0  0  0  0  0  0  0
   -1.9484   20.2070  -31.9212 H   0  0  0  0  0  0  0  0  0  0  0  0
   -2.7754   19.8271  -33.4699 H   0  0  0  0  0  0  0  0  0  0  0  0
   -1.2855   20.8306  -33.4699 H   0  0  0  0  0  0  0  0  0  0  0  0
   -2.6947   22.4316  -31.9137 H   0  0  0  0  0  0  0  0  0  0  0  0
   -2.9689   22.4422  -33.6980 H   0  0  0  0  0  0  0  0  0  0  0  0
   -4.2079   19.4361  -33.1867 H   0  0  0  0  0  0  0  0  0  0  0  0
   -6.6101   18.8243  -32.9856 H   0  0  0  0  0  0  0  0  0  0  0  0
   -8.2884   20.5320  -32.3066 H   0  0  0  0  0  0  0  0  0  0  0  0
   -7.7801   23.3827  -30.6281 H   0  0  0  0  0  0  0  0  0  0  0  0
   -7.7114   24.0387  -32.3096 H   0  0  0  0  0  0  0  0  0  0  0  0
   -9.7808   22.4061  -31.0167 H   0  0  0  0  0  0  0  0  0  0  0  0
   -9.8414   23.3448  -32.5470 H   0  0  0  0  0  0  0  0  0  0  0  0
   -9.1981   21.6676  -32.5470 H   0  0  0  0  0  0  0  0  0  0  0  0
   -4.9625   23.8290  -28.5414 H   0  0  0  0  0  0  0  0  0  0  0  0
   -5.1088   22.3930  -29.6197 H   0  0  0  0  0  0  0  0  0  0  0  0
   -3.0867   21.3858  -27.4845 H   0  0  0  0  0  0  0  0  0  0  0  0
   -3.9667   20.9090  -28.9761 H   0  0  0  0  0  0  0  0  0  0  0  0
   -2.1718   20.9802  -28.9761 H   0  0  0  0  0  0  0  0  0  0  0  0
   -1.6053   22.3191  -30.3280 H   0  0  0  0  0  0  0  0  0  0  0  0
   -2.6097   23.7930  -30.7755 H   0  0  0  0  0  0  0  0  0  0  0  0
    0.2736   27.3670  -28.0254 H   0  0  0  0  0  0  0  0  0  0  0  0
    0.5431   28.1297  -25.6675 H   0  0  0  0  0  0  0  0  0  0  0  0
   -1.1053   26.4097  -22.7866 H   0  0  0  0  0  0  0  0  0  0  0  0
    0.2808   27.4396  -23.2812 H   0  0  0  0  0  0  0  0  0  0  0  0
   -1.3842   28.1139  -23.2812 H   0  0  0  0  0  0  0  0  0  0  0  0
   -2.4708   25.2871  -24.4028 H   0  0  0  0  0  0  0  0  0  0  0  0
   -2.7385   24.5262  -26.7633 H   0  0  0  0  0  0  0  0  0  0  0  0
  1  2  1  0
  2  3  1  0
  3  4  2  0
  4  5  1  0
  5  6  2  0
  6  7  1  0
  7  8  1  0
  8  9  1  0
  7 10  2  0
 10 11  1  0
 11 12  1  0
 12 13  2  0
 12 14  1  0
 14 15  1  0
 15 16  1  0
 15 17  1  0
 17 18  1  0
 18 19  2  0
 18 20  1  0
 20 21  1  0
 21 22  2  0
 22 23  1  0
 23 24  2  0
 24 25  1  0
 24 26  1  0
 26 27  2  0
 10  3  1  0
 27 21  1  0
  1 28  1  0
  1 29  1  0
  1 30  1  0
  2 31  1  0
  2 32  1  0
  4 33  1  0
  5 34  1  0
  6 35  1  0
  8 36  1  0
  8 37  1  0
  9 38  1  0
  9 39  1  0
  9 40  1  0
 14 41  1  0
 14 42  1  0
 16 43  1  0
 16 44  1  0
 16 45  1  0
 17 46  1  0
 17 47  1  0
 22 48  1  0
 23 49  1  0
 25 50  1  0
 25 51  1  0
 25 52  1  0
 26 53  1  0
 27 54  1  0
M  CHG  2  11  -1  20  -1
M  END
>  <UniqueID>  (36) 
33

>  <SMILES>  (36) 
CCc1cccc(CC)c1[N-]C(=O)CN(C)CC(=O)[N-]c1ccc(C)cc1

>  <Energy>  (36) 
63.49894944662671

>  <Genealogy>  (36) 
CCc1cccc(CC)c1[N-]C(=O)CN(C)CC(=O)[N-]c1ccc(C)cc1 (protonated)
CCc1cccc(CC)c1[N-]C(=O)CN(C)CC(=O)[N-]c1ccc(C)cc1 (3D coordinates assigned)
CCc1cccc(CC)c1[N-]C(=O)CN(C)CC(=O)[N-]c1ccc(C)cc1 (optimized conformer: 63.49894944662671 kcal/mol)

>  <smiles>  (36) 
CCc1cccc(CC)c1NC(=O)CN(C)CC(=O)Nc1ccc(C)cc1

>  <score_type>  (36) 
oracle

>  <origin>  (36) 
adg

>  <m_score__min__energy>  (36) 
-10.74

>  <m_primary>  (36) 
energy

$$$$
36:0
     RDKit          3D

 38 40  0  0  0  0  0  0  0  0999 V2000
   -1.1830   20.2710  -30.1820 C   0  0  0  0  0  0  0  0  0  0  0  0
   -1.9460   21.3640  -29.4920 C   0  0  0  0  0  0  0  0  0  0  0  0
   -1.8090   21.5560  -28.1120 C   0  0  0  0  0  0  0  0  0  0  0  0
   -2.5440   22.5500  -27.4650 C   0  0  0  0  0  0  0  0  0  0  0  0
   -3.4320   23.3680  -28.1810 C   0  0  0  0  0  0  0  0  0  0  0  0
   -4.2160   24.4140  -27.4320 C   0  0  0  0  0  0  0  0  0  0  0  0
   -3.6050   23.1520  -29.5710 C   0  0  0  0  0  0  0  0  0  0  0  0
   -4.7400   24.1150  -30.5310 S   0  0  0  0  0  0  0  0  0  0  0  0
   -6.0740   24.1350  -29.8390 O   0  0  0  0  0  0  0  0  0  0  0  0
   -4.2300   25.5230  -30.6730 O   0  0  0  0  0  0  0  0  0  0  0  0
   -4.8940   23.4130  -32.1090 N   0  0  0  0  0  0  0  0  0  0  0  0
   -5.3810   22.0930  -32.3940 C   0  0  0  0  0  0  0  0  0  0  0  0
   -4.5170   21.0780  -32.8480 C   0  0  0  0  0  0  0  0  0  0  0  0
   -5.0040   19.7990  -33.1200 C   0  0  0  0  0  0  0  0  0  0  0  0
   -6.3570   19.5080  -32.9470 C   0  0  0  0  0  0  0  0  0  0  0  0
   -7.2350   20.5010  -32.4950 C   0  0  0  0  0  0  0  0  0  0  0  0
   -8.5960   20.2230  -32.3170 C   0  0  0  0  0  0  0  0  0  0  0  0
   -9.4550   21.2240  -31.8690 C   0  0  0  0  0  0  0  0  0  0  0  0
   -8.9490   22.4960  -31.6020 C   0  0  0  0  0  0  0  0  0  0  0  0
   -7.6260   22.7620  -31.7750 N   0  0  0  0  0  0  0  0  0  0  0  0
   -6.7520   21.8040  -32.2140 C   0  0  0  0  0  0  0  0  0  0  0  0
   -2.8550   22.1520  -30.2110 C   0  0  0  0  0  0  0  0  0  0  0  0
   -0.7237   19.6131  -29.4295 H   0  0  0  0  0  0  0  0  0  0  0  0
   -1.8695   19.6854  -30.8111 H   0  0  0  0  0  0  0  0  0  0  0  0
   -0.3966   20.7136  -30.8111 H   0  0  0  0  0  0  0  0  0  0  0  0
   -1.1197   20.9212  -27.5359 H   0  0  0  0  0  0  0  0  0  0  0  0
   -2.4262   22.6943  -26.3809 H   0  0  0  0  0  0  0  0  0  0  0  0
   -4.0976   24.2560  -26.3499 H   0  0  0  0  0  0  0  0  0  0  0  0
   -3.8427   25.4135  -27.6996 H   0  0  0  0  0  0  0  0  0  0  0  0
   -5.2801   24.3362  -27.6996 H   0  0  0  0  0  0  0  0  0  0  0  0
   -3.4480   21.2954  -32.9896 H   0  0  0  0  0  0  0  0  0  0  0  0
   -4.3169   19.0158  -33.4729 H   0  0  0  0  0  0  0  0  0  0  0  0
   -6.7346   18.4982  -33.1656 H   0  0  0  0  0  0  0  0  0  0  0  0
   -8.9857   19.2167  -32.5304 H   0  0  0  0  0  0  0  0  0  0  0  0
  -10.5251   21.0127  -31.7268 H   0  0  0  0  0  0  0  0  0  0  0  0
   -9.6242   23.2895  -31.2492 H   0  0  0  0  0  0  0  0  0  0  0  0
   -7.2960   23.7310  -31.5620 H   0  0  0  0  0  0  0  0  0  0  0  0
   -2.9826   21.9850  -31.2907 H   0  0  0  0  0  0  0  0  0  0  0  0
  1  2  1  0
  2  3  2  0
  3  4  1  0
  4  5  2  0
  5  6  1  0
  5  7  1  0
  7  8  1  0
  8  9  2  0
  8 10  2  0
  8 11  1  0
 11 12  1  0
 12 13  2  0
 13 14  1  0
 14 15  2  0
 15 16  1  0
 16 17  2  0
 17 18  1  0
 18 19  2  0
 19 20  1  0
 20 21  2  0
  7 22  2  0
 22  2  1  0
 21 12  1  0
 21 16  1  0
  1 23  1  0
  1 24  1  0
  1 25  1  0
  3 26  1  0
  4 27  1  0
  6 28  1  0
  6 29  1  0
  6 30  1  0
 13 31  1  0
 14 32  1  0
 15 33  1  0
 17 34  1  0
 18 35  1  0
 19 36  1  0
 20 37  1  0
 22 38  1  0
M  CHG  2  11  -1  20   1
M  END
>  <UniqueID>  (37) 
34

>  <SMILES>  (37) 
Cc1ccc(C)c(S(=O)(=O)[N-]c2cccc3ccc[nH+]c23)c1

>  <Energy>  (37) 
49.0583035781897

>  <Genealogy>  (37) 
Cc1ccc(C)c(S(=O)(=O)[N-]c2cccc3ccc[nH+]c23)c1 (protonated)
Cc1ccc(C)c(S(=O)(=O)[N-]c2cccc3ccc[nH+]c23)c1 (3D coordinates assigned)
Cc1ccc(C)c(S(=O)(=O)[N-]c2cccc3ccc[nH+]c23)c1 (optimized conformer: 49.0583035781897 kcal/mol)

>  <smiles>  (37) 
Cc1ccc(C)c(S(=O)(=O)Nc2cccc3cccnc23)c1

>  <score_type>  (37) 
oracle

>  <origin>  (37) 
adg

>  <m_score__min__energy>  (37) 
-8.2799999999999994

>  <m_primary>  (37) 
energy

$$$$
37:0
     RDKit          3D

 51 53  0  0  0  0  0  0  0  0999 V2000
   -1.4340   19.3030  -32.8830 C   0  0  0  0  0  0  0  0  0  0  0  0
   -2.3890   19.5470  -33.9110 O   0  0  0  0  0  0  0  0  0  0  0  0
   -3.7760   19.3740  -33.7690 C   0  0  0  0  0  0  0  0  0  0  0  0
   -4.3960   18.1350  -34.0320 C   0  0  0  0  0  0  0  0  0  0  0  0
   -5.7750   17.9850  -33.8700 C   0  0  0  0  0  0  0  0  0  0  0  0
   -6.5520   19.0640  -33.4530 C   0  0  0  0  0  0  0  0  0  0  0  0
   -5.9550   20.2980  -33.1950 C   0  0  0  0  0  0  0  0  0  0  0  0
   -4.5680   20.4660  -33.3480 C   0  0  0  0  0  0  0  0  0  0  0  0
   -3.9490   21.8040  -33.0180 C   0  0  0  0  0  0  0  0  0  0  0  0
   -4.3190   22.2380  -31.6640 N   0  0  0  0  0  0  0  0  0  0  0  0
   -3.6600   21.6440  -30.4880 C   0  0  0  0  0  0  0  0  0  0  0  0
   -3.1120   22.7200  -29.5870 C   0  0  0  0  0  0  0  0  0  0  0  0
   -3.8830   23.2140  -28.5260 C   0  0  0  0  0  0  0  0  0  0  0  0
   -3.3600   24.1750  -27.6570 C   0  0  0  0  0  0  0  0  0  0  0  0
   -2.0480   24.6640  -27.8260 C   0  0  0  0  0  0  0  0  0  0  0  0
   -1.5000   25.6600  -26.9210 N   0  0  0  0  0  0  0  0  0  0  0  0
   -1.9670   25.7450  -25.5320 C   0  0  0  0  0  0  0  0  0  0  0  0
   -0.4700   26.6000  -27.3820 C   0  0  0  0  0  0  0  0  0  0  0  0
   -1.2810   24.1600  -28.8980 C   0  0  0  0  0  0  0  0  0  0  0  0
   -1.8090   23.2010  -29.7650 C   0  0  0  0  0  0  0  0  0  0  0  0
   -5.3570   23.2200  -31.5000 C   0  0  0  0  0  0  0  0  0  0  0  0
   -5.0450   24.4330  -31.3580 O   0  0  0  0  0  0  0  0  0  0  0  0
   -6.7800   22.8380  -31.4790 C   0  0  0  0  0  0  0  0  0  0  0  0
   -7.7840   23.4190  -32.2450 C   0  0  0  0  0  0  0  0  0  0  0  0
   -9.0550   22.8910  -31.9890 C   0  0  0  0  0  0  0  0  0  0  0  0
   -9.0610   21.9040  -31.0120 C   0  0  0  0  0  0  0  0  0  0  0  0
   -7.4860   21.6900  -30.4690 S   0  0  0  0  0  0  0  0  0  0  0  0
   -1.9134   19.4255  -31.9006 H   0  0  0  0  0  0  0  0  0  0  0  0
   -1.0478   18.2773  -32.9772 H   0  0  0  0  0  0  0  0  0  0  0  0
   -0.6032   20.0177  -32.9772 H   0  0  0  0  0  0  0  0  0  0  0  0
   -3.7893   17.2808  -34.3671 H   0  0  0  0  0  0  0  0  0  0  0  0
   -6.2488   17.0131  -34.0720 H   0  0  0  0  0  0  0  0  0  0  0  0
   -7.6380   18.9424  -33.3271 H   0  0  0  0  0  0  0  0  0  0  0  0
   -6.5747   21.1464  -32.8692 H   0  0  0  0  0  0  0  0  0  0  0  0
   -2.8541   21.7188  -33.0814 H   0  0  0  0  0  0  0  0  0  0  0  0
   -4.3210   22.5482  -33.7375 H   0  0  0  0  0  0  0  0  0  0  0  0
   -4.3919   21.0425  -29.9289 H   0  0  0  0  0  0  0  0  0  0  0  0
   -2.8284   21.0104  -30.8300 H   0  0  0  0  0  0  0  0  0  0  0  0
   -4.9075   22.8424  -28.3763 H   0  0  0  0  0  0  0  0  0  0  0  0
   -3.9791   24.5548  -26.8309 H   0  0  0  0  0  0  0  0  0  0  0  0
   -1.1181   25.5905  -24.8497 H   0  0  0  0  0  0  0  0  0  0  0  0
   -2.4056   26.7377  -25.3527 H   0  0  0  0  0  0  0  0  0  0  0  0
   -2.7272   24.9705  -25.3527 H   0  0  0  0  0  0  0  0  0  0  0  0
    0.0276   27.0541  -26.5124 H   0  0  0  0  0  0  0  0  0  0  0  0
    0.2724   26.0616  -27.9894 H   0  0  0  0  0  0  0  0  0  0  0  0
   -0.9385   27.3884  -27.9894 H   0  0  0  0  0  0  0  0  0  0  0  0
   -0.2555   24.5267  -29.0524 H   0  0  0  0  0  0  0  0  0  0  0  0
   -1.1959   22.8201  -30.5951 H   0  0  0  0  0  0  0  0  0  0  0  0
   -7.5980   24.2157  -32.9803 H   0  0  0  0  0  0  0  0  0  0  0  0
   -9.9628   23.2261  -32.5121 H   0  0  0  0  0  0  0  0  0  0  0  0
   -9.9456   21.3563  -30.6550 H   0  0  0  0  0  0  0  0  0  0  0  0
  1  2  1  0
  2  3  1  0
  3  4  2  0
  4  5  1  0
  5  6  2  0
  6  7  1  0
  7  8  2  0
  8  9  1  0
  9 10  1  0
 10 11  1  0
 11 12  1  0
 12 13  2  0
 13 14  1  0
 14 15  2  0
 15 16  1  0
 16 17  1  0
 16 18  1  0
 15 19  1  0
 19 20  2  0
 10 21  1  0
 21 22  2  0
 21 23  1  0
 23 24  2  0
 24 25  1  0
 25 26  2  0
 26 27  1  0
  8  3  1  0
 20 12  1  0
 27 23  1  0
  1 28  1  0
  1 29  1  0
  1 30  1  0
  4 31  1  0
  5 32  1  0
  6 33  1  0
  7 34  1  0
  9 35  1  0
  9 36  1  0
 11 37  1  0
 11 38  1  0
 13 39  1  0
 14 40  1  0
 17 41  1  0
 17 42  1  0
 17 43  1  0
 18 44  1  0
 18 45  1  0
 18 46  1  0
 19 47  1  0
 20 48  1  0
 24 49  1  0
 25 50  1  0
 26 51  1  0
M  END
>  <UniqueID>  (38) 
35

>  <SMILES>  (38) 
COc1ccccc1CN(Cc1ccc(N(C)C)cc1)C(=O)c1cccs1

>  <Energy>  (38) 
80.17908934620742

>  <Genealogy>  (38) 
COc1ccccc1CN(Cc1ccc(N(C)C)cc1)C(=O)c1cccs1 (3D coordinates assigned)
COc1ccccc1CN(Cc1ccc(N(C)C)cc1)C(=O)c1cccs1 (optimized conformer: 80.17908934620742 kcal/mol)

>  <smiles>  (38) 
COc1ccccc1CN(Cc1ccc(N(C)C)cc1)C(=O)c1cccs1

>  <score_type>  (38) 
oracle

>  <origin>  (38) 
adg

>  <m_score__min__energy>  (38) 
-8.0700000000000003

>  <m_primary>  (38) 
energy

$$$$
38:0
     RDKit          3D

 35 38  0  0  0  0  0  0  0  0999 V2000
   -0.1670   24.3970  -28.3900 O   0  0  0  0  0  0  0  0  0  0  0  0
   -1.2650   24.0640  -28.9380 C   0  0  0  0  0  0  0  0  0  0  0  0
   -1.7370   22.8400  -29.1510 N   0  0  0  0  0  0  0  0  0  0  0  0
   -2.9440   22.9730  -29.7630 C   0  0  0  0  0  0  0  0  0  0  0  0
   -3.8430   22.0180  -30.1970 C   0  0  0  0  0  0  0  0  0  0  0  0
   -5.0010   22.4750  -30.7920 C   0  0  0  0  0  0  0  0  0  0  0  0
   -5.9420   21.5700  -31.2490 C   0  0  0  0  0  0  0  0  0  0  0  0
   -7.1240   22.0060  -31.8530 C   0  0  0  0  0  0  0  0  0  0  0  0
   -8.0730   21.1020  -32.3140 O   0  0  0  0  0  0  0  0  0  0  0  0
   -7.9570   19.7700  -31.8800 C   0  0  0  0  0  0  0  0  0  0  0  0
   -7.1980   18.9040  -32.7890 C   0  0  0  0  0  0  0  0  0  0  0  0
   -7.2750   17.5250  -32.5590 C   0  0  0  0  0  0  0  0  0  0  0  0
   -6.5670   16.6800  -33.4030 C   0  0  0  0  0  0  0  0  0  0  0  0
   -5.8040   17.1620  -34.4470 C   0  0  0  0  0  0  0  0  0  0  0  0
   -5.7230   18.5400  -34.6820 C   0  0  0  0  0  0  0  0  0  0  0  0
   -6.4300   19.4070  -33.8400 C   0  0  0  0  0  0  0  0  0  0  0  0
   -7.2760   23.3750  -31.9580 C   0  0  0  0  0  0  0  0  0  0  0  0
   -6.3610   24.2850  -31.5150 C   0  0  0  0  0  0  0  0  0  0  0  0
   -5.2040   23.8520  -30.9220 C   0  0  0  0  0  0  0  0  0  0  0  0
   -4.3230   24.7580  -30.4960 N   0  0  0  0  0  0  0  0  0  0  0  0
   -3.1750   24.3300  -29.9070 C   0  0  0  0  0  0  0  0  0  0  0  0
   -2.1270   25.0090  -29.3920 N   0  0  0  0  0  0  0  0  0  0  0  0
   -1.2970   21.9300  -28.9100 H   0  0  0  0  0  0  0  0  0  0  0  0
   -3.6448   20.9430  -30.0739 H   0  0  0  0  0  0  0  0  0  0  0  0
   -5.7571   20.4916  -31.1353 H   0  0  0  0  0  0  0  0  0  0  0  0
   -7.4535   19.7687  -30.9020 H   0  0  0  0  0  0  0  0  0  0  0  0
   -8.9778   19.3627  -31.8351 H   0  0  0  0  0  0  0  0  0  0  0  0
   -7.8795   17.1224  -31.7328 H   0  0  0  0  0  0  0  0  0  0  0  0
   -6.6157   15.5941  -33.2345 H   0  0  0  0  0  0  0  0  0  0  0  0
   -5.2580   16.4618  -35.0963 H   0  0  0  0  0  0  0  0  0  0  0  0
   -5.1164   18.9333  -35.5111 H   0  0  0  0  0  0  0  0  0  0  0  0
   -6.3797   20.4929  -34.0082 H   0  0  0  0  0  0  0  0  0  0  0  0
   -8.1940   23.7561  -32.4292 H   0  0  0  0  0  0  0  0  0  0  0  0
   -6.5513   25.3619  -31.6334 H   0  0  0  0  0  0  0  0  0  0  0  0
   -2.0040   26.0420  -29.3520 H   0  0  0  0  0  0  0  0  0  0  0  0
  1  2  2  0
  2  3  1  0
  3  4  1  0
  4  5  2  0
  5  6  1  0
  6  7  2  0
  7  8  1  0
  8  9  1  0
  9 10  1  0
 10 11  1  0
 11 12  2  0
 12 13  1  0
 13 14  2  0
 14 15  1  0
 15 16  2  0
  8 17  2  0
 17 18  1  0
 18 19  2  0
 19 20  1  0
 20 21  2  0
 21 22  1  0
 22  2  1  0
 21  4  1  0
 19  6  1  0
 16 11  1  0
  3 23  1  0
  5 24  1  0
  7 25  1  0
 10 26  1  0
 10 27  1  0
 12 28  1  0
 13 29  1  0
 14 30  1  0
 15 31  1  0
 16 32  1  0
 17 33  1  0
 18 34  1  0
 22 35  1  0
M  END
>  <smiles>  (39) 
O=c1[nH]c2cc3cc(OCc4ccccc4)ccc3nc2[nH]1

>  <score_type>  (39) 
oracle

>  <origin>  (39) 
adg

>  <m_score__min__energy>  (39) 
-8.75

>  <m_primary>  (39) 
energy

$$$$
39:0
     RDKit          3D

 39 41  0  0  0  0  0  0  0  0999 V2000
   -9.4350   23.4260  -32.3500 C   0  0  0  0  0  0  0  0  0  0  0  0
   -8.6550   22.5600  -31.3540 C   0  0  2  0  0  0  0  0  0  0  0  0
   -7.2700   23.1230  -31.1060 C   0  0  0  0  0  0  0  0  0  0  0  0
   -6.1920   22.7960  -31.9490 C   0  0  0  0  0  0  0  0  0  0  0  0
   -4.9200   23.3230  -31.7100 C   0  0  0  0  0  0  0  0  0  0  0  0
   -4.7010   24.1780  -30.6180 C   0  0  0  0  0  0  0  0  0  0  0  0
   -3.4420   24.7380  -30.3540 O   0  0  0  0  0  0  0  0  0  0  0  0
   -2.5560   24.3110  -29.3530 C   0  0  0  0  0  0  0  0  0  0  0  0
   -1.3920   23.5760  -29.6520 C   0  0  0  0  0  0  0  0  0  0  0  0
   -0.5440   23.1540  -28.6240 C   0  0  0  0  0  0  0  0  0  0  0  0
   -0.8540   23.4510  -27.2950 C   0  0  0  0  0  0  0  0  0  0  0  0
   -2.0170   24.1630  -26.9890 C   0  0  0  0  0  0  0  0  0  0  0  0
   -2.8670   24.5860  -28.0160 C   0  0  0  0  0  0  0  0  0  0  0  0
   -5.7760   24.5250  -29.7930 C   0  0  0  0  0  0  0  0  0  0  0  0
   -7.0500   24.0000  -30.0290 C   0  0  0  0  0  0  0  0  0  0  0  0
   -8.5700   21.1290  -31.8090 C   0  0  0  0  0  0  0  0  0  0  0  0
   -9.3840   20.5640  -32.7290 N   0  0  0  0  0  0  0  0  0  0  0  0
   -8.9160   19.3350  -32.8650 N   0  0  0  0  0  0  0  0  0  0  0  0
   -7.8630   19.1680  -32.0850 N   0  0  0  0  0  0  0  0  0  0  0  0
   -7.1210   17.9220  -31.9420 C   0  0  0  0  0  0  0  0  0  0  0  0
   -6.5480   17.5350  -33.2340 C   0  0  0  0  0  0  0  0  0  0  0  0
   -6.0940   17.2300  -34.2540 N   0  0  0  0  0  0  0  0  0  0  0  0
   -7.6120   20.2700  -31.4010 N   0  0  0  0  0  0  0  0  0  0  0  0
  -10.0725   24.1338  -31.7998 H   0  0  0  0  0  0  0  0  0  0  0  0
   -8.7287   23.9839  -32.9824 H   0  0  0  0  0  0  0  0  0  0  0  0
  -10.0635   22.7817  -32.9824 H   0  0  0  0  0  0  0  0  0  0  0  0
   -9.2107   22.5782  -30.4048 H   0  0  0  0  0  0  0  0  0  0  0  0
   -6.3516   22.1206  -32.8024 H   0  0  0  0  0  0  0  0  0  0  0  0
   -4.0864   23.0668  -32.3805 H   0  0  0  0  0  0  0  0  0  0  0  0
   -1.1498   23.3335  -30.6972 H   0  0  0  0  0  0  0  0  0  0  0  0
    0.3683   22.5875  -28.8620 H   0  0  0  0  0  0  0  0  0  0  0  0
   -0.1818   23.1241  -26.4880 H   0  0  0  0  0  0  0  0  0  0  0  0
   -2.2636   24.3905  -25.9414 H   0  0  0  0  0  0  0  0  0  0  0  0
   -3.7862   25.1386  -27.7715 H   0  0  0  0  0  0  0  0  0  0  0  0
   -5.6177   25.2163  -28.9521 H   0  0  0  0  0  0  0  0  0  0  0  0
   -7.8854   24.2746  -29.3682 H   0  0  0  0  0  0  0  0  0  0  0  0
   -9.3220   18.6100  -33.4970 H   0  0  0  0  0  0  0  0  0  0  0  0
   -6.3115   18.0608  -31.2103 H   0  0  0  0  0  0  0  0  0  0  0  0
   -7.8023   17.1311  -31.5951 H   0  0  0  0  0  0  0  0  0  0  0  0
  1  2  1  0
  2  3  1  0
  3  4  2  0
  4  5  1  0
  5  6  2  0
  6  7  1  0
  7  8  1  0
  8  9  2  0
  9 10  1  0
 10 11  2  0
 11 12  1  0
 12 13  2  0
  6 14  1  0
 14 15  2  0
  2 16  1  0
 16 17  1  0
 17 18  2  0
 18 19  1  0
 19 20  1  0
 20 21  1  0
 21 22  3  0
 19 23  1  0
 15  3  1  0
 23 16  2  0
 13  8  1  0
  1 24  1  0
  1 25  1  0
  1 26  1  0
  2 27  1  1
  4 28  1  0
  5 29  1  0
  9 30  1  0
 10 31  1  0
 11 32  1  0
 12 33  1  0
 13 34  1  0
 14 35  1  0
 15 36  1  0
 18 37  1  0
 20 38  1  0
 20 39  1  0
M  CHG  1  18   1
M  END
>  <UniqueID>  (40) 
36

>  <SMILES>  (40) 
C[C@H](c1ccc(Oc2ccccc2)cc1)c1n[nH+]n(CC#N)n1

>  <Energy>  (40) 
82.29094362420165

>  <Genealogy>  (40) 
CC(c1ccc(Oc2ccccc2)cc1)c1n[nH+]n(CC#N)n1 (protonated)
C[C@H](c1ccc(Oc2ccccc2)cc1)c1n[nH+]n(CC#N)n1 (chirality)
C[C@H](c1ccc(Oc2ccccc2)cc1)c1n[nH+]n(CC#N)n1 (3D coordinates assigned)
C[C@H](c1ccc(Oc2ccccc2)cc1)c1n[nH+]n(CC#N)n1 (optimized conformer: 82.29094362420165 kcal/mol)

>  <smiles>  (40) 
CC(c1ccc(Oc2ccccc2)cc1)c1nnn(CC#N)n1

>  <score_type>  (40) 
oracle

>  <origin>  (40) 
adg

>  <m_score__min__energy>  (40) 
-8.6400000000000006

>  <m_primary>  (40) 
energy

$$$$
40:0
     RDKit          3D

 15 16  0  0  0  0  0  0  0  0999 V2000
   -1.5090   24.9510  -28.9300 S   0  0  0  0  0  0  0  0  0  0  0  0
   -2.8580   24.4520  -29.7070 C   0  0  0  0  0  0  0  0  0  0  0  0
   -3.0670   23.1570  -30.0630 N   0  0  0  0  0  0  0  0  0  0  0  0
   -4.2710   23.2110  -30.6600 C   0  0  0  0  0  0  0  0  0  0  0  0
   -4.9880   22.1590  -31.2260 C   0  0  0  0  0  0  0  0  0  0  0  0
   -6.2400   22.4570  -31.8000 C   0  0  0  0  0  0  0  0  0  0  0  0
   -6.7340   23.7820  -31.7930 C   0  0  0  0  0  0  0  0  0  0  0  0
   -5.9820   24.8200  -31.2130 C   0  0  0  0  0  0  0  0  0  0  0  0
   -4.7500   24.4880  -30.6550 C   0  0  0  0  0  0  0  0  0  0  0  0
   -3.8650   25.2910  -30.0520 N   0  0  0  0  0  0  0  0  0  0  0  0
   -4.5912   21.1331  -31.2248 H   0  0  0  0  0  0  0  0  0  0  0  0
   -6.8369   21.6537  -32.2565 H   0  0  0  0  0  0  0  0  0  0  0  0
   -7.7127   24.0026  -32.2440 H   0  0  0  0  0  0  0  0  0  0  0  0
   -6.3534   25.8553  -31.2007 H   0  0  0  0  0  0  0  0  0  0  0  0
   -3.9350   26.3200  -29.8890 H   0  0  0  0  0  0  0  0  0  0  0  0
  1  2  2  0
  2  3  1  0
  3  4  1  0
  4  5  2  0
  5  6  1  0
  6  7  2  0
  7  8  1  0
  8  9  2  0
  9 10  1  0
 10  2  1  0
  9  4  1  0
  5 11  1  0
  6 12  1  0
  7 13  1  0
  8 14  1  0
 10 15  1  0
M  CHG  1   3  -1
M  END
>  <UniqueID>  (41) 
37

>  <SMILES>  (41) 
S=c1[n-]c2ccccc2[nH]1

>  <Energy>  (41) 
52.25642756277516

>  <Genealogy>  (41) 
S=c1[n-]c2ccccc2[nH]1 (protonated)
S=c1[n-]c2ccccc2[nH]1 (3D coordinates assigned)
S=c1[n-]c2ccccc2[nH]1 (optimized conformer: 52.25642756277516 kcal/mol)

>  <smiles>  (41) 
S=c1[nH]c2ccccc2[nH]1

>  <score_type>  (41) 
oracle

>  <origin>  (41) 
adg

>  <m_score__min__energy>  (41) 
-6.0599999999999996

>  <m_primary>  (41) 
energy

$$$$
41:0
     RDKit          3D

 33 35  0  0  0  0  0  0  0  0999 V2000
    2.4460   18.8200  -33.0010 C   0  0  0  0  0  0  0  0  0  0  0  0
    1.6870   19.6770  -33.8480 O   0  0  0  0  0  0  0  0  0  0  0  0
    0.3960   20.1400  -33.5540 C   0  0  0  0  0  0  0  0  0  0  0  0
    0.1900   20.8090  -32.3440 C   0  0  0  0  0  0  0  0  0  0  0  0
   -1.0770   21.2900  -32.0030 C   0  0  0  0  0  0  0  0  0  0  0  0
   -2.1690   21.1080  -32.8710 C   0  0  0  0  0  0  0  0  0  0  0  0
   -3.5140   21.6190  -32.5100 C   0  0  0  0  0  0  0  0  0  0  0  0
   -4.7300   21.0040  -32.7850 C   0  0  0  0  0  0  0  0  0  0  0  0
   -5.6960   21.7800  -32.2700 N   0  0  0  0  0  0  0  0  0  0  0  0
   -7.0370   21.5790  -32.2500 C   0  0  0  0  0  0  0  0  0  0  0  0
   -7.8370   22.5220  -31.5990 C   0  0  0  0  0  0  0  0  0  0  0  0
   -7.2390   23.6440  -30.9980 C   0  0  0  0  0  0  0  0  0  0  0  0
   -5.8400   23.8360  -31.0500 C   0  0  0  0  0  0  0  0  0  0  0  0
   -5.2420   25.0490  -30.4470 C   0  0  0  0  0  0  0  0  0  0  0  0
   -3.8450   25.3110  -30.5580 N   0  0  0  0  0  0  0  0  0  0  0  0
   -5.9790   25.8900  -29.8660 O   0  0  0  0  0  0  0  0  0  0  0  0
   -5.0880   22.8410  -31.7080 C   0  0  0  0  0  0  0  0  0  0  0  0
   -3.7450   22.7680  -31.8280 N   0  0  0  0  0  0  0  0  0  0  0  0
   -1.9590   20.4360  -34.0890 C   0  0  0  0  0  0  0  0  0  0  0  0
   -0.6900   19.9550  -34.4270 C   0  0  0  0  0  0  0  0  0  0  0  0
    2.2325   19.0611  -31.9492 H   0  0  0  0  0  0  0  0  0  0  0  0
    2.1736   17.7730  -33.1998 H   0  0  0  0  0  0  0  0  0  0  0  0
    3.5183   18.9639  -33.1998 H   0  0  0  0  0  0  0  0  0  0  0  0
    1.0333   20.9583  -31.6536 H   0  0  0  0  0  0  0  0  0  0  0  0
   -1.2217   21.8155  -31.0475 H   0  0  0  0  0  0  0  0  0  0  0  0
   -4.8737   20.0565  -33.3249 H   0  0  0  0  0  0  0  0  0  0  0  0
   -7.4831   20.6973  -32.7333 H   0  0  0  0  0  0  0  0  0  0  0  0
   -8.9279   22.3874  -31.5569 H   0  0  0  0  0  0  0  0  0  0  0  0
   -7.8690   24.3823  -30.4803 H   0  0  0  0  0  0  0  0  0  0  0  0
   -3.4860   26.0400  -31.2150 H   0  0  0  0  0  0  0  0  0  0  0  0
   -3.0290   23.4120  -31.4310 H   0  0  0  0  0  0  0  0  0  0  0  0
   -2.8005   20.2876  -34.7817 H   0  0  0  0  0  0  0  0  0  0  0  0
   -0.5409   19.4289  -35.3815 H   0  0  0  0  0  0  0  0  0  0  0  0
  1  2  1  0
  2  3  1  0
  3  4  2  0
  4  5  1  0
  5  6  2  0
  6  7  1  0
  7  8  2  0
  8  9  1  0
  9 10  1  0
 10 11  2  0
 11 12  1  0
 12 13  2  0
 13 14  1  0
 14 15  1  0
 14 16  2  0
 13 17  1  0
 17 18  2  0
  6 19  1  0
 19 20  2  0
 20  3  1  0
 18  7  1  0
 17  9  1  0
  1 21  1  0
  1 22  1  0
  1 23  1  0
  4 24  1  0
  5 25  1  0
  8 26  1  0
 10 27  1  0
 11 28  1  0
 12 29  1  0
 15 30  1  0
 18 31  1  0
 19 32  1  0
 20 33  1  0
M  CHG  2  15  -1  18   1
M  END
>  <UniqueID>  (42) 
38

>  <SMILES>  (42) 
COc1ccc(-c2cn3cccc(C([NH-])=O)c3[nH+]2)cc1

>  <Energy>  (42) 
76.34818546822584

>  <Genealogy>  (42) 
COc1ccc(-c2cn3cccc(C([NH-])=O)c3[nH+]2)cc1 (protonated)
COc1ccc(-c2cn3cccc(C([NH-])=O)c3[nH+]2)cc1 (3D coordinates assigned)
COc1ccc(-c2cn3cccc(C([NH-])=O)c3[nH+]2)cc1 (optimized conformer: 76.34818546822584 kcal/mol)

>  <smiles>  (42) 
COc1ccc(-c2cn3cccc(C(N)=O)c3n2)cc1

>  <score_type>  (42) 
oracle

>  <origin>  (42) 
adg

>  <m_score__min__energy>  (42) 
-8.3800000000000008

>  <m_primary>  (42) 
energy

$$$$
42:0
     RDKit          3D

 67 72  0  0  0  0  0  0  0  0999 V2000
    1.3010   22.3260  -28.1561 H   0  0  0  0  0  0  0  0  0  0  0  0
    0.4050   21.7640  -27.8540 C   0  0  0  0  0  0  0  0  0  0  0  0
    0.4270   20.4040  -27.8500 N   0  0  0  0  0  0  0  0  0  0  0  0
   -0.6590   19.6570  -27.5060 C   0  0  0  0  0  0  0  0  0  0  0  0
   -0.5640   18.3570  -27.5720 N   0  0  0  0  0  0  0  0  0  0  0  0
    0.6190   17.5640  -27.9280 C   0  0  0  0  0  0  0  0  0  0  0  0
    1.5252   18.1337  -27.6746 H   0  0  0  0  0  0  0  0  0  0  0  0
    0.6340   16.2460  -27.1370 C   0  0  0  0  0  0  0  0  0  0  0  0
    0.6544   16.4746  -26.0612 H   0  0  0  0  0  0  0  0  0  0  0  0
   -0.2696   15.6755  -27.3981 H   0  0  0  0  0  0  0  0  0  0  0  0
    1.8690   15.3890  -27.4920 C   0  0  0  0  0  0  0  0  0  0  0  0
    2.6611   15.5972  -26.7577 H   0  0  0  0  0  0  0  0  0  0  0  0
    1.5513   14.3361  -27.4720 H   0  0  0  0  0  0  0  0  0  0  0  0
    2.4000   15.6600  -28.8440 N   0  0  0  0  0  0  0  0  0  0  0  0
    2.9240   14.8180  -29.1770 H   0  0  0  0  0  0  0  0  0  0  0  0
    3.0730   16.4630  -28.8070 H   0  0  0  0  0  0  0  0  0  0  0  0
    1.3330   15.9630  -29.8080 C   0  0  0  0  0  0  0  0  0  0  0  0
    1.7739   16.0643  -30.8107 H   0  0  0  0  0  0  0  0  0  0  0  0
    0.6014   15.1418  -29.7863 H   0  0  0  0  0  0  0  0  0  0  0  0
    0.6060   17.2730  -29.4440 C   0  0  0  0  0  0  0  0  0  0  0  0
    1.1002   18.1057  -29.9658 H   0  0  0  0  0  0  0  0  0  0  0  0
   -0.4447   17.1646  -29.7511 H   0  0  0  0  0  0  0  0  0  0  0  0
   -1.8440   20.3130  -27.1200 C   0  0  0  0  0  0  0  0  0  0  0  0
   -2.7289   19.7298  -26.8252 H   0  0  0  0  0  0  0  0  0  0  0  0
   -1.8880   21.7060  -27.1140 C   0  0  0  0  0  0  0  0  0  0  0  0
   -2.8151   22.2228  -26.8253 H   0  0  0  0  0  0  0  0  0  0  0  0
   -0.7570   22.4520  -27.4740 C   0  0  0  0  0  0  0  0  0  0  0  0
   -0.8340   23.9310  -27.5490 C   0  0  0  0  0  0  0  0  0  0  0  0
   -0.3260   24.6420  -26.4480 C   0  0  0  0  0  0  0  0  0  0  0  0
    0.2167   24.0996  -25.6597 H   0  0  0  0  0  0  0  0  0  0  0  0
   -0.4970   26.0260  -26.3350 C   0  0  0  0  0  0  0  0  0  0  0  0
    0.0860   26.7740  -25.1620 C   0  0  0  0  0  0  0  0  0  0  0  0
    0.1460   28.1330  -25.4190 F   0  0  0  0  0  0  0  0  0  0  0  0
    1.3640   26.3090  -24.9160 F   0  0  0  0  0  0  0  0  0  0  0  0
   -0.6890   26.5800  -24.0330 F   0  0  0  0  0  0  0  0  0  0  0  0
   -1.1650   26.6970  -27.3610 C   0  0  0  0  0  0  0  0  0  0  0  0
   -1.3154   27.7849  -27.2981 H   0  0  0  0  0  0  0  0  0  0  0  0
   -1.6290   26.0110  -28.4350 N   0  0  0  0  0  0  0  0  0  0  0  0
   -1.4750   24.6680  -28.5910 C   0  0  0  0  0  0  0  0  0  0  0  0
   -1.9270   24.1560  -29.7050 N   0  0  0  0  0  0  0  0  0  0  0  0
   -3.2620   23.8460  -30.1240 C   0  0  0  0  0  0  0  0  0  0  0  0
   -4.2180   24.8910  -30.1720 C   0  0  0  0  0  0  0  0  0  0  0  0
   -3.9342   25.9023  -29.8454 H   0  0  0  0  0  0  0  0  0  0  0  0
   -5.5250   24.6510  -30.6320 C   0  0  0  0  0  0  0  0  0  0  0  0
   -6.2754   25.4548  -30.6623 H   0  0  0  0  0  0  0  0  0  0  0  0
   -5.8340   23.3610  -31.0470 C   0  0  0  0  0  0  0  0  0  0  0  0
   -7.0090   22.9080  -31.5150 N   0  0  0  0  0  0  0  0  0  0  0  0
   -6.8350   21.6130  -31.7690 N   0  0  0  0  0  0  0  0  0  0  0  0
   -7.8690   20.7460  -32.3330 C   0  0  0  0  0  0  0  0  0  0  0  0
   -8.4105   21.2959  -33.1168 H   0  0  0  0  0  0  0  0  0  0  0  0
   -8.5539   20.4486  -31.5252 H   0  0  0  0  0  0  0  0  0  0  0  0
   -7.2660   19.4990  -32.9330 C   0  0  0  0  0  0  0  0  0  0  0  0
   -6.3910   19.6050  -34.0300 C   0  0  0  0  0  0  0  0  0  0  0  0
   -6.1420   20.5964  -34.4363 H   0  0  0  0  0  0  0  0  0  0  0  0
   -5.8360   18.4590  -34.6070 C   0  0  0  0  0  0  0  0  0  0  0  0
   -5.1391   18.5523  -35.4530 H   0  0  0  0  0  0  0  0  0  0  0  0
   -6.1650   17.1970  -34.1110 C   0  0  0  0  0  0  0  0  0  0  0  0
   -5.7315   16.2960  -34.5695 H   0  0  0  0  0  0  0  0  0  0  0  0
   -7.0450   17.0770  -33.0320 C   0  0  0  0  0  0  0  0  0  0  0  0
   -7.3043   16.0809  -32.6440 H   0  0  0  0  0  0  0  0  0  0  0  0
   -7.5970   18.2200  -32.4440 C   0  0  0  0  0  0  0  0  0  0  0  0
   -8.4580   18.0740  -31.4020 F   0  0  0  0  0  0  0  0  0  0  0  0
   -5.5600   21.2420  -31.5000 C   0  0  0  0  0  0  0  0  0  0  0  0
   -5.1292   20.2387  -31.6330 H   0  0  0  0  0  0  0  0  0  0  0  0
   -4.9070   22.3550  -31.0300 C   0  0  0  0  0  0  0  0  0  0  0  0
   -3.5980   22.5600  -30.6050 C   0  0  0  0  0  0  0  0  0  0  0  0
   -2.8527   21.7518  -30.6419 H   0  0  0  0  0  0  0  0  0  0  0  0
  1  2  1  0
  2  3  1  0
  3  4  1  0
  4  5  2  0
  5  6  1  0
  6  7  1  0
  6  8  1  0
  8  9  1  0
  8 10  1  0
  8 11  1  0
 11 12  1  0
 11 13  1  0
 11 14  1  0
 14 15  1  0
 14 16  1  0
 14 17  1  0
 17 18  1  0
 17 19  1  0
 17 20  1  0
 20 21  1  0
 20 22  1  0
  4 23  1  0
 23 24  1  0
 23 25  2  0
 25 26  1  0
 25 27  1  0
 27 28  1  0
 28 29  2  0
 29 30  1  0
 29 31  1  0
 31 32  1  0
 32 33  1  0
 32 34  1  0
 32 35  1  0
 31 36  2  0
 36 37  1  0
 36 38  1  0
 38 39  1  0
 39 40  2  0
 40 41  1  0
 41 42  1  0
 42 43  1  0
 42 44  2  0
 44 45  1  0
 44 46  1  0
 46 47  2  0
 47 48  1  0
 48 49  1  0
 49 50  1  0
 49 51  1  0
 49 52  1  0
 52 53  2  0
 53 54  1  0
 53 55  1  0
 55 56  1  0
 55 57  2  0
 57 58  1  0
 57 59  1  0
 59 60  1  0
 59 61  2  0
 61 62  1  0
 48 63  1  0
 63 64  1  0
 63 65  2  0
 65 66  1  0
 66 67  1  0
 27  2  2  0
 39 28  1  0
 66 41  2  0
 20  6  1  0
 65 46  1  0
 61 52  1  0
M  CHG  3   3  -1  14   1  38  -1
M  END
>  <UniqueID>  (43) 
39

>  <SMILES>  (43) 
Fc1ccccc1Cn1cc2cc(/N=c3/[n-]cc(C(F)(F)F)cc3-c3cc/c(=N\C4CC[NH2+]CC4)[n-]c3)ccc2n1

>  <Energy>  (43) 
139.94169261054887

>  <Genealogy>  (43) 
Fc1ccccc1Cn1cc2cc(N=c3[n-]cc(C(F)(F)F)cc3-c3ccc(=NC4CC[NH2+]CC4)[n-]c3)ccc2n1 (protonated)
Fc1ccccc1Cn1cc2cc(/N=c3/[n-]cc(C(F)(F)F)cc3-c3cc/c(=N\C4CC[NH2+]CC4)[n-]c3)ccc2n1 (cis-trans isomerization)
Fc1ccccc1Cn1cc2cc(/N=c3/[n-]cc(C(F)(F)F)cc3-c3cc/c(=N\C4CC[NH2+]CC4)[n-]c3)ccc2n1 (3D coordinates assigned)
Fc1ccccc1Cn1cc2cc(/N=c3/[n-]cc(C(F)(F)F)cc3-c3cc/c(=N\C4CC[NH2+]CC4)[n-]c3)ccc2n1 (nonaromatic ring conformer: 139.94169261054887 kcal/mol)

>  <smiles>  (43) 
Fc1ccccc1Cn1cc2cc(N=c3[nH]cc(C(F)(F)F)cc3-c3ccc(=NC4CCNCC4)[nH]c3)ccc2n1

>  <score_type>  (43) 
oracle

>  <origin>  (43) 
adg

>  <m_score__min__energy>  (43) 
-10.98

>  <m_primary>  (43) 
energy

$$$$
43:0
     RDKit          3D

 49 52  0  0  0  0  0  0  0  0999 V2000
   -4.2520   23.7780  -31.5930 O   0  0  0  0  0  0  0  0  0  0  0  0
   -5.2820   23.0590  -31.6930 C   0  0  0  0  0  0  0  0  0  0  0  0
   -6.4040   23.2560  -30.9560 N   0  0  0  0  0  0  0  0  0  0  0  0
   -6.5930   24.2080  -29.8620 C   0  0  0  0  0  0  0  0  0  0  0  0
   -5.2440   24.7240  -29.3170 C   0  0  0  0  0  0  0  0  0  0  0  0
   -4.6490   23.8230  -28.2870 N   0  0  0  0  0  0  0  0  0  0  0  0
   -4.0760   24.5750  -27.1370 C   0  0  0  0  0  0  0  0  0  0  0  0
   -2.5850   24.9180  -27.3350 C   0  0  0  0  0  0  0  0  0  0  0  0
   -2.2730   24.9960  -28.7090 O   0  0  0  0  0  0  0  0  0  0  0  0
   -2.3610   23.7110  -29.3000 C   0  0  0  0  0  0  0  0  0  0  0  0
   -3.6260   22.9290  -28.8710 C   0  0  0  0  0  0  0  0  0  0  0  0
   -7.2220   22.2500  -31.3290 C   0  0  0  0  0  0  0  0  0  0  0  0
   -8.4870   21.9240  -30.8360 C   0  0  0  0  0  0  0  0  0  0  0  0
   -9.1120   20.7720  -31.3440 C   0  0  0  0  0  0  0  0  0  0  0  0
   -8.4640   19.9730  -32.3120 C   0  0  0  0  0  0  0  0  0  0  0  0
   -7.1840   20.3180  -32.7810 C   0  0  0  0  0  0  0  0  0  0  0  0
   -6.5900   21.4740  -32.2670 C   0  0  0  0  0  0  0  0  0  0  0  0
   -5.3620   21.9800  -32.5110 N   0  0  0  0  0  0  0  0  0  0  0  0
   -4.2590   21.3640  -33.2520 C   0  0  0  0  0  0  0  0  0  0  0  0
   -3.0670   21.2090  -32.3450 C   0  0  0  0  0  0  0  0  0  0  0  0
   -3.2180   20.6490  -31.0640 C   0  0  0  0  0  0  0  0  0  0  0  0
   -2.0990   20.4320  -30.2540 C   0  0  0  0  0  0  0  0  0  0  0  0
   -0.8230   20.7640  -30.7180 C   0  0  0  0  0  0  0  0  0  0  0  0
   -0.6640   21.3140  -31.9930 C   0  0  0  0  0  0  0  0  0  0  0  0
   -1.7800   21.5340  -32.8050 C   0  0  0  0  0  0  0  0  0  0  0  0
   -7.1795   25.0627  -30.2301 H   0  0  0  0  0  0  0  0  0  0  0  0
   -7.1192   23.6926  -29.0450 H   0  0  0  0  0  0  0  0  0  0  0  0
   -4.5377   24.8124  -30.1557 H   0  0  0  0  0  0  0  0  0  0  0  0
   -5.4330   25.6949  -28.8357 H   0  0  0  0  0  0  0  0  0  0  0  0
   -5.4000   23.1950  -27.9130 H   0  0  0  0  0  0  0  0  0  0  0  0
   -4.6393   25.5116  -27.0129 H   0  0  0  0  0  0  0  0  0  0  0  0
   -4.1544   23.9329  -26.2473 H   0  0  0  0  0  0  0  0  0  0  0  0
   -2.3703   25.8865  -26.8597 H   0  0  0  0  0  0  0  0  0  0  0  0
   -1.9744   24.1263  -26.8764 H   0  0  0  0  0  0  0  0  0  0  0  0
   -2.3769   23.8293  -30.3935 H   0  0  0  0  0  0  0  0  0  0  0  0
   -1.4884   23.1339  -28.9600 H   0  0  0  0  0  0  0  0  0  0  0  0
   -4.0517   22.4280  -29.7529 H   0  0  0  0  0  0  0  0  0  0  0  0
   -3.3330   22.1961  -28.1049 H   0  0  0  0  0  0  0  0  0  0  0  0
   -8.9783   22.5482  -30.0751 H   0  0  0  0  0  0  0  0  0  0  0  0
  -10.1130   20.4906  -30.9851 H   0  0  0  0  0  0  0  0  0  0  0  0
   -8.9644   19.0743  -32.7018 H   0  0  0  0  0  0  0  0  0  0  0  0
   -6.6669   19.6981  -33.5282 H   0  0  0  0  0  0  0  0  0  0  0  0
   -4.5713   20.3751  -33.6187 H   0  0  0  0  0  0  0  0  0  0  0  0
   -3.9889   22.0040  -34.1049 H   0  0  0  0  0  0  0  0  0  0  0  0
   -4.2200   20.3807  -30.6978 H   0  0  0  0  0  0  0  0  0  0  0  0
   -2.2231   19.9994  -29.2503 H   0  0  0  0  0  0  0  0  0  0  0  0
    0.0562   20.5924  -30.0796 H   0  0  0  0  0  0  0  0  0  0  0  0
    0.3407   21.5740  -32.3578 H   0  0  0  0  0  0  0  0  0  0  0  0
   -1.6500   21.9637  -33.8092 H   0  0  0  0  0  0  0  0  0  0  0  0
  1  2  2  0
  2  3  1  0
  3  4  1  0
  4  5  1  0
  5  6  1  0
  6  7  1  0
  7  8  1  0
  8  9  1  0
  9 10  1  0
 10 11  1  0
  3 12  1  0
 12 13  2  0
 13 14  1  0
 14 15  2  0
 15 16  1  0
 16 17  2  0
 17 18  1  0
 18 19  1  0
 19 20  1  0
 20 21  2  0
 21 22  1  0
 22 23  2  0
 23 24  1  0
 24 25  2  0
 18  2  1  0
 25 20  1  0
 11  6  1  0
 17 12  1  0
  4 26  1  0
  4 27  1  0
  5 28  1  0
  5 29  1  0
  6 30  1  0
  7 31  1  0
  7 32  1  0
  8 33  1  0
  8 34  1  0
 10 35  1  0
 10 36  1  0
 11 37  1  0
 11 38  1  0
 13 39  1  0
 14 40  1  0
 15 41  1  0
 16 42  1  0
 19 43  1  0
 19 44  1  0
 21 45  1  0
 22 46  1  0
 23 47  1  0
 24 48  1  0
 25 49  1  0
M  CHG  1   6   1
M  END
>  <UniqueID>  (44) 
40

>  <SMILES>  (44) 
O=c1n(CC[NH+]2CCOCC2)c2ccccc2n1Cc1ccccc1

>  <Energy>  (44) 
101.54927299276294

>  <Genealogy>  (44) 
O=c1n(CC[NH+]2CCOCC2)c2ccccc2n1Cc1ccccc1 (protonated)
O=c1n(CC[NH+]2CCOCC2)c2ccccc2n1Cc1ccccc1 (3D coordinates assigned)
O=c1n(CC[NH+]2CCOCC2)c2ccccc2n1Cc1ccccc1 (nonaromatic ring conformer: 101.54927299276294 kcal/mol)

>  <smiles>  (44) 
O=c1n(CCN2CCOCC2)c2ccccc2n1Cc1ccccc1

>  <score_type>  (44) 
oracle

>  <origin>  (44) 
adg

>  <m_score__min__energy>  (44) 
-7.7300000000000004

>  <m_primary>  (44) 
energy

$$$$
44:0
     RDKit          3D

 33 35  0  0  0  0  0  0  0  0999 V2000
   -9.1070   18.5260  -31.5870 C   0  0  0  0  0  0  0  0  0  0  0  0
   -9.4590   19.8200  -32.0200 O   0  0  0  0  0  0  0  0  0  0  0  0
   -8.8080   20.8000  -31.2310 C   0  0  0  0  0  0  0  0  0  0  0  0
   -8.1000   21.8320  -32.1160 C   0  0  0  0  0  0  0  0  0  0  0  0
   -6.6550   21.5770  -32.1610 N   0  0  0  0  0  0  0  0  0  0  0  0
   -5.6310   22.4040  -31.7950 C   0  0  0  0  0  0  0  0  0  0  0  0
   -5.7790   23.6970  -31.1050 C   0  0  0  0  0  0  0  0  0  0  0  0
   -6.7900   24.0640  -30.2380 C   0  0  0  0  0  0  0  0  0  0  0  0
   -6.4810   25.3430  -29.8280 C   0  0  0  0  0  0  0  0  0  0  0  0
   -5.3010   25.6740  -30.4600 C   0  0  0  0  0  0  0  0  0  0  0  0
   -4.9030   24.6700  -31.2070 O   0  0  0  0  0  0  0  0  0  0  0  0
   -4.4210   21.9430  -32.1960 N   0  0  0  0  0  0  0  0  0  0  0  0
   -4.6930   20.7910  -32.8280 C   0  0  0  0  0  0  0  0  0  0  0  0
   -3.8020   19.9300  -33.4660 C   0  0  0  0  0  0  0  0  0  0  0  0
   -4.3380   18.8020  -34.1130 C   0  0  0  0  0  0  0  0  0  0  0  0
   -5.7320   18.5730  -34.1160 C   0  0  0  0  0  0  0  0  0  0  0  0
   -6.6050   19.4670  -33.4680 C   0  0  0  0  0  0  0  0  0  0  0  0
   -6.0400   20.5690  -32.8180 C   0  0  0  0  0  0  0  0  0  0  0  0
   -9.0991   18.4968  -30.4874 H   0  0  0  0  0  0  0  0  0  0  0  0
   -9.8402   17.7998  -31.9678 H   0  0  0  0  0  0  0  0  0  0  0  0
   -8.1069   18.2713  -31.9678 H   0  0  0  0  0  0  0  0  0  0  0  0
   -9.5538   21.3127  -30.6057 H   0  0  0  0  0  0  0  0  0  0  0  0
   -8.0562   20.3019  -30.6012 H   0  0  0  0  0  0  0  0  0  0  0  0
   -8.5084   21.7733  -33.1357 H   0  0  0  0  0  0  0  0  0  0  0  0
   -8.2681   22.8334  -31.6931 H   0  0  0  0  0  0  0  0  0  0  0  0
   -7.6598   23.4613  -29.9377 H   0  0  0  0  0  0  0  0  0  0  0  0
   -7.0592   25.9729  -29.1360 H   0  0  0  0  0  0  0  0  0  0  0  0
   -4.7732   26.6333  -30.3545 H   0  0  0  0  0  0  0  0  0  0  0  0
   -3.4870   22.3920  -32.0620 H   0  0  0  0  0  0  0  0  0  0  0  0
   -2.7195   20.1254  -33.4637 H   0  0  0  0  0  0  0  0  0  0  0  0
   -3.6670   18.0931  -34.6202 H   0  0  0  0  0  0  0  0  0  0  0  0
   -6.1385   17.6889  -34.6289 H   0  0  0  0  0  0  0  0  0  0  0  0
   -7.6930   19.3047  -33.4726 H   0  0  0  0  0  0  0  0  0  0  0  0
  1  2  1  0
  2  3  1  0
  3  4  1  0
  4  5  1  0
  5  6  1  0
  6  7  1  0
  7  8  2  0
  8  9  1  0
  9 10  2  0
 10 11  1  0
  6 12  2  0
 12 13  1  0
 13 14  2  0
 14 15  1  0
 15 16  2  0
 16 17  1  0
 17 18  2  0
 18  5  1  0
 11  7  1  0
 18 13  1  0
  1 19  1  0
  1 20  1  0
  1 21  1  0
  3 22  1  0
  3 23  1  0
  4 24  1  0
  4 25  1  0
  8 26  1  0
  9 27  1  0
 10 28  1  0
 12 29  1  0
 14 30  1  0
 15 31  1  0
 16 32  1  0
 17 33  1  0
M  CHG  1  12   1
M  END
>  <UniqueID>  (45) 
41

>  <SMILES>  (45) 
COCCn1c(-c2ccco2)[nH+]c2ccccc21

>  <Energy>  (45) 
102.99280200255625

>  <Genealogy>  (45) 
COCCn1c(-c2ccco2)[nH+]c2ccccc21 (protonated)
COCCn1c(-c2ccco2)[nH+]c2ccccc21 (3D coordinates assigned)
COCCn1c(-c2ccco2)[nH+]c2ccccc21 (optimized conformer: 102.99280200255625 kcal/mol)

>  <smiles>  (45) 
COCCn1c(-c2ccco2)nc2ccccc21

>  <score_type>  (45) 
oracle

>  <origin>  (45) 
adg

>  <m_score__min__energy>  (45) 
-6

>  <m_primary>  (45) 
energy

$$$$
45:0
     RDKit          3D

 33 35  0  0  0  0  0  0  0  0999 V2000
   -7.6360   23.4730  -31.2970 C   0  0  0  0  0  0  0  0  0  0  0  0
   -6.3840   22.7250  -31.6720 C   0  0  0  0  0  0  0  0  0  0  0  0
   -6.5020   21.5060  -32.3650 C   0  0  0  0  0  0  0  0  0  0  0  0
   -5.3650   20.8040  -32.7650 C   0  0  0  0  0  0  0  0  0  0  0  0
   -4.0970   21.3110  -32.4900 C   0  0  0  0  0  0  0  0  0  0  0  0
   -3.9600   22.5120  -31.7930 C   0  0  0  0  0  0  0  0  0  0  0  0
   -5.0940   23.2170  -31.3390 C   0  0  0  0  0  0  0  0  0  0  0  0
   -4.9220   24.5190  -30.5790 C   0  0  0  0  0  0  0  0  0  0  0  0
   -3.5200   24.9180  -30.4660 N   0  0  0  0  0  0  0  0  0  0  0  0
   -2.6010   24.5980  -29.4080 C   0  0  0  0  0  0  0  0  0  0  0  0
   -1.8750   25.5210  -28.9550 O   0  0  0  0  0  0  0  0  0  0  0  0
   -2.4560   23.2420  -28.8370 C   0  0  0  0  0  0  0  0  0  0  0  0
   -1.3140   22.5120  -28.8630 N   0  0  0  0  0  0  0  0  0  0  0  0
   -1.4780   21.3130  -28.2490 C   0  0  0  0  0  0  0  0  0  0  0  0
   -0.4750   20.3530  -28.1090 C   0  0  0  0  0  0  0  0  0  0  0  0
   -0.7780   19.1510  -27.4460 C   0  0  0  0  0  0  0  0  0  0  0  0
   -2.0720   18.9240  -26.9340 C   0  0  0  0  0  0  0  0  0  0  0  0
   -3.0720   19.8980  -27.0790 C   0  0  0  0  0  0  0  0  0  0  0  0
   -2.7450   21.0800  -27.7400 C   0  0  0  0  0  0  0  0  0  0  0  0
   -3.7130   22.4110  -28.0560 S   0  0  0  0  0  0  0  0  0  0  0  0
   -7.7191   23.5227  -30.2013 H   0  0  0  0  0  0  0  0  0  0  0  0
   -7.5911   24.4924  -31.7079 H   0  0  0  0  0  0  0  0  0  0  0  0
   -8.5123   22.9503  -31.7079 H   0  0  0  0  0  0  0  0  0  0  0  0
   -7.4998   21.1031  -32.5933 H   0  0  0  0  0  0  0  0  0  0  0  0
   -5.4698   19.8479  -33.2988 H   0  0  0  0  0  0  0  0  0  0  0  0
   -3.2026   20.7639  -32.8227 H   0  0  0  0  0  0  0  0  0  0  0  0
   -2.9553   22.9138  -31.5952 H   0  0  0  0  0  0  0  0  0  0  0  0
   -5.4732   25.3113  -31.1066 H   0  0  0  0  0  0  0  0  0  0  0  0
   -5.3102   24.3667  -29.5611 H   0  0  0  0  0  0  0  0  0  0  0  0
    0.5334   20.5333  -28.5097 H   0  0  0  0  0  0  0  0  0  0  0  0
   -0.0003   18.3824  -27.3258 H   0  0  0  0  0  0  0  0  0  0  0  0
   -2.2988   17.9791  -26.4185 H   0  0  0  0  0  0  0  0  0  0  0  0
   -4.0846   19.7329  -26.6823 H   0  0  0  0  0  0  0  0  0  0  0  0
  1  2  1  0
  2  3  2  0
  3  4  1  0
  4  5  2  0
  5  6  1  0
  6  7  2  0
  7  8  1  0
  8  9  1  0
  9 10  1  0
 10 11  2  0
 10 12  1  0
 12 13  2  0
 13 14  1  0
 14 15  2  0
 15 16  1  0
 16 17  2  0
 17 18  1  0
 18 19  2  0
 19 20  1  0
  7  2  1  0
 20 12  1  0
 19 14  1  0
  1 21  1  0
  1 22  1  0
  1 23  1  0
  3 24  1  0
  4 25  1  0
  5 26  1  0
  6 27  1  0
  8 28  1  0
  8 29  1  0
 15 30  1  0
 16 31  1  0
 17 32  1  0
 18 33  1  0
M  CHG  1   9  -1
M  END
>  <UniqueID>  (46) 
42

>  <SMILES>  (46) 
Cc1ccccc1C[N-]C(=O)c1nc2ccccc2s1

>  <Energy>  (46) 
70.27567991016961

>  <Genealogy>  (46) 
Cc1ccccc1C[N-]C(=O)c1nc2ccccc2s1 (protonated)
Cc1ccccc1C[N-]C(=O)c1nc2ccccc2s1 (3D coordinates assigned)
Cc1ccccc1C[N-]C(=O)c1nc2ccccc2s1 (optimized conformer: 70.27567991016961 kcal/mol)

>  <smiles>  (46) 
Cc1ccccc1CNC(=O)c1nc2ccccc2s1

>  <score_type>  (46) 
oracle

>  <origin>  (46) 
adg

>  <m_score__min__energy>  (46) 
-9.8800000000000008

>  <m_primary>  (46) 
energy

$$$$
46:0
     RDKit          3D

 27 29  0  0  0  0  0  0  0  0999 V2000
   -3.3880   25.6750  -31.6000 H   0  0  0  0  0  0  0  0  0  0  0  0
   -4.0050   25.3010  -30.8440 N   0  0  0  0  0  0  0  0  0  0  0  0
   -4.9780   24.4930  -31.1120 C   0  0  0  0  0  0  0  0  0  0  0  0
   -6.2730   24.7850  -30.8300 N   0  0  0  0  0  0  0  0  0  0  0  0
   -6.8750   23.6710  -31.2850 C   0  0  0  0  0  0  0  0  0  0  0  0
   -8.2080   23.4370  -31.2730 N   0  0  0  0  0  0  0  0  0  0  0  0
   -8.6730   22.2650  -31.7940 C   0  0  0  0  0  0  0  0  0  0  0  0
   -9.7532   22.0572  -31.7895 H   0  0  0  0  0  0  0  0  0  0  0  0
   -7.7820   21.3180  -32.3380 C   0  0  0  0  0  0  0  0  0  0  0  0
   -8.2620   20.1460  -32.8240 F   0  0  0  0  0  0  0  0  0  0  0  0
   -6.4000   21.6000  -32.3330 C   0  0  0  0  0  0  0  0  0  0  0  0
   -5.4110   20.6450  -32.8870 C   0  0  0  0  0  0  0  0  0  0  0  0
   -4.0350   20.8420  -32.6830 C   0  0  0  0  0  0  0  0  0  0  0  0
   -3.6869   21.7099  -32.1037 H   0  0  0  0  0  0  0  0  0  0  0  0
   -3.1070   19.9430  -33.2110 C   0  0  0  0  0  0  0  0  0  0  0  0
   -2.0313   20.1076  -33.0501 H   0  0  0  0  0  0  0  0  0  0  0  0
   -3.5400   18.8350  -33.9430 C   0  0  0  0  0  0  0  0  0  0  0  0
   -2.8039   18.1352  -34.3654 H   0  0  0  0  0  0  0  0  0  0  0  0
   -4.9100   18.6120  -34.1410 C   0  0  0  0  0  0  0  0  0  0  0  0
   -5.3750   17.4460  -34.9620 C   0  0  0  0  0  0  0  0  0  0  0  0
   -5.6989   16.6337  -34.2948 H   0  0  0  0  0  0  0  0  0  0  0  0
   -6.2178   17.7573  -35.5967 H   0  0  0  0  0  0  0  0  0  0  0  0
   -4.5493   17.0919  -35.5967 H   0  0  0  0  0  0  0  0  0  0  0  0
   -5.8410   19.5280  -33.6240 C   0  0  0  0  0  0  0  0  0  0  0  0
   -6.9157   19.3698  -33.7974 H   0  0  0  0  0  0  0  0  0  0  0  0
   -6.0130   22.7870  -31.7920 N   0  0  0  0  0  0  0  0  0  0  0  0
   -4.7950   23.2870  -31.7020 N   0  0  0  0  0  0  0  0  0  0  0  0
  1  2  1  0
  2  3  2  0
  3  4  1  0
  4  5  2  0
  5  6  1  0
  6  7  2  0
  7  8  1  0
  7  9  1  0
  9 10  1  0
  9 11  2  0
 11 12  1  0
 12 13  2  0
 13 14  1  0
 13 15  1  0
 15 16  1  0
 15 17  2  0
 17 18  1  0
 17 19  1  0
 19 20  1  0
 20 21  1  0
 20 22  1  0
 20 23  1  0
 19 24  2  0
 24 25  1  0
 11 26  1  0
 26 27  1  0
 27  3  1  0
 26  5  1  0
 24 12  1  0
M  CHG  1  27  -1
M  END
>  <UniqueID>  (47) 
43

>  <SMILES>  (47) 
[H]/N=c1/nc2ncc(F)c(-c3cccc(C)c3)n2[n-]1

>  <Energy>  (47) 
75.03505197256385

>  <Genealogy>  (47) 
Cc1cccc(-c2c(F)cnc3nc(=N)[n-]n23)c1 (protonated)
[H]/N=c1/nc2ncc(F)c(-c3cccc(C)c3)n2[n-]1 (cis-trans isomerization)
[H]/N=c1/nc2ncc(F)c(-c3cccc(C)c3)n2[n-]1 (3D coordinates assigned)
[H]/N=c1/nc2ncc(F)c(-c3cccc(C)c3)n2[n-]1 (optimized conformer: 75.03505197256385 kcal/mol)

>  <smiles>  (47) 
Cc1cccc(-c2c(F)cnc3nc(=N)[nH]n23)c1

>  <score_type>  (47) 
oracle

>  <origin>  (47) 
adg

>  <m_score__min__energy>  (47) 
-8.1699999999999999

>  <m_primary>  (47) 
energy

$$$$
47:0
     RDKit          3D

 57 61  0  0  0  0  0  0  0  0999 V2000
   -1.6710   22.0020  -31.3550 C   0  0  0  0  0  0  0  0  0  0  0  0
   -1.8910   22.0620  -29.8690 C   0  0  0  0  0  0  0  0  0  0  0  0
   -1.6250   20.9290  -29.0820 C   0  0  0  0  0  0  0  0  0  0  0  0
   -1.8540   20.9550  -27.7090 C   0  0  0  0  0  0  0  0  0  0  0  0
   -2.3330   22.1140  -27.0990 C   0  0  0  0  0  0  0  0  0  0  0  0
   -2.5980   23.2640  -27.8600 C   0  0  0  0  0  0  0  0  0  0  0  0
   -3.0560   24.5060  -27.1440 C   0  0  0  0  0  0  0  0  0  0  0  0
   -2.4230   23.2220  -29.2680 C   0  0  0  0  0  0  0  0  0  0  0  0
   -2.7390   24.3510  -30.0980 N   0  0  0  0  0  0  0  0  0  0  0  0
   -4.0580   24.7910  -30.4490 C   0  0  0  0  0  0  0  0  0  0  0  0
   -4.2900   26.0290  -30.4820 O   0  0  0  0  0  0  0  0  0  0  0  0
   -5.1400   23.8410  -30.7960 C   0  0  0  0  0  0  0  0  0  0  0  0
   -6.4760   24.2940  -30.9800 C   0  0  0  0  0  0  0  0  0  0  0  0
   -7.5060   23.3920  -31.3060 C   0  0  0  0  0  0  0  0  0  0  0  0
   -7.1680   22.0480  -31.4350 C   0  0  0  0  0  0  0  0  0  0  0  0
   -5.8910   21.5990  -31.2440 C   0  0  0  0  0  0  0  0  0  0  0  0
   -4.8480   22.4620  -30.9170 C   0  0  0  0  0  0  0  0  0  0  0  0
   -5.8430   20.2620  -31.4070 N   0  0  0  0  0  0  0  0  0  0  0  0
   -7.1300   19.9290  -31.6920 C   0  0  0  0  0  0  0  0  0  0  0  0
   -7.9530   20.9990  -31.7340 N   0  0  0  0  0  0  0  0  0  0  0  0
   -9.3940   20.9400  -31.9580 C   0  0  0  0  0  0  0  0  0  0  0  0
   -9.7480   19.6460  -32.7090 C   0  0  0  0  0  0  0  0  0  0  0  0
   -9.0760   18.4210  -32.0570 C   0  0  0  0  0  0  0  0  0  0  0  0
   -7.6190   18.6000  -31.9440 N   0  0  0  0  0  0  0  0  0  0  0  0
   -6.7540   17.4170  -31.8440 C   0  0  0  0  0  0  0  0  0  0  0  0
   -5.7770   17.3810  -32.9910 C   0  0  0  0  0  0  0  0  0  0  0  0
   -4.4470   16.9810  -32.7730 C   0  0  0  0  0  0  0  0  0  0  0  0
   -3.5300   16.9690  -33.8290 C   0  0  0  0  0  0  0  0  0  0  0  0
   -3.9300   17.3650  -35.1070 C   0  0  0  0  0  0  0  0  0  0  0  0
   -5.2480   17.7760  -35.3310 C   0  0  0  0  0  0  0  0  0  0  0  0
   -6.1700   17.7860  -34.2780 C   0  0  0  0  0  0  0  0  0  0  0  0
   -0.6284   21.7177  -31.5601 H   0  0  0  0  0  0  0  0  0  0  0  0
   -2.3481   21.2557  -31.7961 H   0  0  0  0  0  0  0  0  0  0  0  0
   -1.8755   22.9887  -31.7961 H   0  0  0  0  0  0  0  0  0  0  0  0
   -1.2333   20.0156  -29.5536 H   0  0  0  0  0  0  0  0  0  0  0  0
   -1.6564   20.0583  -27.1033 H   0  0  0  0  0  0  0  0  0  0  0  0
   -2.5047   22.1275  -26.0126 H   0  0  0  0  0  0  0  0  0  0  0  0
   -2.9969   24.3457  -26.0574 H   0  0  0  0  0  0  0  0  0  0  0  0
   -2.4103   25.3508  -27.4257 H   0  0  0  0  0  0  0  0  0  0  0  0
   -4.0956   24.7293  -27.4257 H   0  0  0  0  0  0  0  0  0  0  0  0
   -6.7070   25.3634  -30.8660 H   0  0  0  0  0  0  0  0  0  0  0  0
   -8.5402   23.7366  -31.4534 H   0  0  0  0  0  0  0  0  0  0  0  0
   -3.8278   22.0828  -30.7576 H   0  0  0  0  0  0  0  0  0  0  0  0
   -5.0040   19.6490  -31.3260 H   0  0  0  0  0  0  0  0  0  0  0  0
   -9.9157   20.9554  -30.9897 H   0  0  0  0  0  0  0  0  0  0  0  0
   -9.7056   21.8072  -32.5587 H   0  0  0  0  0  0  0  0  0  0  0  0
  -10.8392   19.5082  -32.6916 H   0  0  0  0  0  0  0  0  0  0  0  0
   -9.3844   19.7332  -33.7435 H   0  0  0  0  0  0  0  0  0  0  0  0
   -9.4971   18.2756  -31.0513 H   0  0  0  0  0  0  0  0  0  0  0  0
   -9.2672   17.5439  -32.6927 H   0  0  0  0  0  0  0  0  0  0  0  0
   -6.1980   17.4538  -30.8956 H   0  0  0  0  0  0  0  0  0  0  0  0
   -7.3802   16.5134  -31.8807 H   0  0  0  0  0  0  0  0  0  0  0  0
   -4.1257   16.6757  -31.7662 H   0  0  0  0  0  0  0  0  0  0  0  0
   -2.4929   16.6474  -33.6527 H   0  0  0  0  0  0  0  0  0  0  0  0
   -3.2086   17.3537  -35.9374 H   0  0  0  0  0  0  0  0  0  0  0  0
   -5.5607   18.0921  -36.3371 H   0  0  0  0  0  0  0  0  0  0  0  0
   -7.2051   18.1118  -34.4583 H   0  0  0  0  0  0  0  0  0  0  0  0
  1  2  1  0
  2  3  2  0
  3  4  1  0
  4  5  2  0
  5  6  1  0
  6  7  1  0
  6  8  2  0
  8  9  1  0
  9 10  1  0
 10 11  2  0
 10 12  1  0
 12 13  2  0
 13 14  1  0
 14 15  2  0
 15 16  1  0
 16 17  2  0
 16 18  1  0
 18 19  2  0
 19 20  1  0
 20 21  1  0
 21 22  1  0
 22 23  1  0
 23 24  1  0
 24 25  1  0
 25 26  1  0
 26 27  2  0
 27 28  1  0
 28 29  2  0
 29 30  1  0
 30 31  2  0
  8  2  1  0
 17 12  1  0
 24 19  1  0
 31 26  1  0
 20 15  1  0
  1 32  1  0
  1 33  1  0
  1 34  1  0
  3 35  1  0
  4 36  1  0
  5 37  1  0
  7 38  1  0
  7 39  1  0
  7 40  1  0
 13 41  1  0
 14 42  1  0
 17 43  1  0
 18 44  1  0
 21 45  1  0
 21 46  1  0
 22 47  1  0
 22 48  1  0
 23 49  1  0
 23 50  1  0
 25 51  1  0
 25 52  1  0
 27 53  1  0
 28 54  1  0
 29 55  1  0
 30 56  1  0
 31 57  1  0
M  CHG  2   9  -1  18   1
M  END
>  <UniqueID>  (48) 
44

>  <SMILES>  (48) 
Cc1cccc(C)c1[N-]C(=O)c1ccc2c(c1)[nH+]c1n2CCCN1Cc1ccccc1

>  <Energy>  (48) 
109.56375450098044

>  <Genealogy>  (48) 
Cc1cccc(C)c1[N-]C(=O)c1ccc2c(c1)[nH+]c1n2CCCN1Cc1ccccc1 (protonated)
Cc1cccc(C)c1[N-]C(=O)c1ccc2c(c1)[nH+]c1n2CCCN1Cc1ccccc1 (3D coordinates assigned)
Cc1cccc(C)c1[N-]C(=O)c1ccc2c(c1)[nH+]c1n2CCCN1Cc1ccccc1 (nonaromatic ring conformer: 109.56375450098044 kcal/mol)

>  <smiles>  (48) 
Cc1cccc(C)c1NC(=O)c1ccc2c(c1)nc1n2CCCN1Cc1ccccc1

>  <score_type>  (48) 
oracle

>  <origin>  (48) 
adg

>  <m_score__min__energy>  (48) 
-10.869999999999999

>  <m_primary>  (48) 
energy

$$$$
48:0
     RDKit          3D

 90 94  0  0  0  0  0  0  0  0999 V2000
    2.5690   25.0360  -26.8450 C   0  0  0  0  0  0  0  0  0  0  0  0
    2.6980   25.4040  -25.3670 C   0  0  0  0  0  0  0  0  0  0  0  0
    1.8020   24.5440  -24.4650 C   0  0  0  0  0  0  0  0  0  0  0  0
    0.4770   24.2360  -25.1230 C   0  0  0  0  0  0  0  0  0  0  0  0
    0.2600   22.9590  -25.6570 C   0  0  0  0  0  0  0  0  0  0  0  0
   -0.9210   22.6640  -26.3360 C   0  0  0  0  0  0  0  0  0  0  0  0
   -1.8760   23.6760  -26.5800 C   0  0  0  0  0  0  0  0  0  0  0  0
   -1.7150   24.9150  -25.9330 C   0  0  0  0  0  0  0  0  0  0  0  0
   -0.5280   25.2200  -25.2390 C   0  0  0  0  0  0  0  0  0  0  0  0
   -0.3140   26.4840  -24.6640 O   0  0  0  0  0  0  0  0  0  0  0  0
   -0.4680   26.7840  -23.2800 C   0  0  0  0  0  0  0  0  0  0  0  0
   -3.1260   23.3560  -27.4060 C   0  0  1  0  0  0  0  0  0  0  0  0
   -3.5710   24.4650  -28.3100 N   0  0  0  0  0  0  0  0  0  0  0  0
   -4.9940   24.5290  -28.7360 C   0  0  0  0  0  0  0  0  0  0  0  0
   -5.2570   25.0010  -30.2030 C   0  0  1  0  0  0  0  0  0  0  0  0
   -4.1270   25.6260  -30.7650 O   0  0  0  0  0  0  0  0  0  0  0  0
   -5.8360   23.8790  -31.1200 C   0  0  2  0  0  0  0  0  0  0  0  0
   -6.3210   22.6730  -30.2830 C   0  0  0  0  0  0  0  0  0  0  0  0
   -7.3970   21.9090  -31.0070 C   0  0  0  0  0  0  0  0  0  0  0  0
   -7.2070   20.5510  -31.3160 C   0  0  0  0  0  0  0  0  0  0  0  0
   -8.2210   19.8230  -31.9490 C   0  0  0  0  0  0  0  0  0  0  0  0
   -9.4320   20.4410  -32.2670 C   0  0  0  0  0  0  0  0  0  0  0  0
   -9.6310   21.7880  -31.9540 C   0  0  0  0  0  0  0  0  0  0  0  0
   -8.6210   22.5200  -31.3220 C   0  0  0  0  0  0  0  0  0  0  0  0
   -4.7940   23.4020  -32.0370 N   0  0  0  0  0  0  0  0  0  0  0  0
   -3.5860   22.6930  -31.7180 C   0  0  0  0  0  0  0  0  0  0  0  0
   -2.8880   23.1100  -30.7570 O   0  0  0  0  0  0  0  0  0  0  0  0
   -3.1260   21.5010  -32.4690 C   0  0  0  0  0  0  0  0  0  0  0  0
   -1.8600   21.4700  -33.0700 C   0  0  0  0  0  0  0  0  0  0  0  0
   -1.4210   20.3320  -33.7590 C   0  0  0  0  0  0  0  0  0  0  0  0
   -0.0540   20.3090  -34.3740 C   0  0  0  0  0  0  0  0  0  0  0  0
   -2.2950   19.2510  -33.9300 C   0  0  0  0  0  0  0  0  0  0  0  0
   -3.5860   19.2900  -33.3870 C   0  0  0  0  0  0  0  0  0  0  0  0
   -4.5100   18.2190  -33.6290 N   0  0  0  0  0  0  0  0  0  0  0  0
   -5.9130   18.5400  -33.9140 C   0  0  0  0  0  0  0  0  0  0  0  0
   -6.8530   17.4170  -33.4530 C   0  0  0  0  0  0  0  0  0  0  0  0
   -6.5750   16.0960  -34.1850 C   0  0  0  0  0  0  0  0  0  0  0  0
   -5.2400   15.4790  -33.7610 C   0  0  0  0  0  0  0  0  0  0  0  0
   -3.9190   16.6370  -34.0300 S   0  0  0  0  0  0  0  0  0  0  0  0
   -2.7610   16.2770  -33.1400 O   0  0  0  0  0  0  0  0  0  0  0  0
   -3.4910   16.5940  -35.4710 O   0  0  0  0  0  0  0  0  0  0  0  0
   -3.9950   20.4130  -32.6530 C   0  0  0  0  0  0  0  0  0  0  0  0
   -3.0150   21.9860  -28.1260 C   0  0  0  0  0  0  0  0  0  0  0  0
   -2.4440   20.9330  -27.1860 C   0  0  0  0  0  0  0  0  0  0  0  0
   -1.1550   21.3500  -26.7520 O   0  0  0  0  0  0  0  0  0  0  0  0
    2.2063   24.0014  -26.9350 H   0  0  0  0  0  0  0  0  0  0  0  0
    1.8563   25.7180  -27.3318 H   0  0  0  0  0  0  0  0  0  0  0  0
    3.5515   25.1238  -27.3318 H   0  0  0  0  0  0  0  0  0  0  0  0
    3.7449   25.2651  -25.0593 H   0  0  0  0  0  0  0  0  0  0  0  0
    2.3780   26.4504  -25.2547 H   0  0  0  0  0  0  0  0  0  0  0  0
    2.3195   23.5984  -24.2460 H   0  0  0  0  0  0  0  0  0  0  0  0
    1.6032   25.1079  -23.5417 H   0  0  0  0  0  0  0  0  0  0  0  0
    1.0292   22.1816  -25.5392 H   0  0  0  0  0  0  0  0  0  0  0  0
   -2.5274   25.6557  -25.9697 H   0  0  0  0  0  0  0  0  0  0  0  0
   -0.0475   25.9648  -22.6782 H   0  0  0  0  0  0  0  0  0  0  0  0
    0.0613   27.7196  -23.0465 H   0  0  0  0  0  0  0  0  0  0  0  0
   -1.5367   26.8993  -23.0465 H   0  0  0  0  0  0  0  0  0  0  0  0
   -3.9430   23.2646  -26.6751 H   0  0  0  0  0  0  0  0  0  0  0  0
   -2.9610   24.5630  -29.1500 H   0  0  0  0  0  0  0  0  0  0  0  0
   -3.4050   25.3470  -27.7720 H   0  0  0  0  0  0  0  0  0  0  0  0
   -5.4224   23.5218  -28.6260 H   0  0  0  0  0  0  0  0  0  0  0  0
   -5.4583   25.2924  -28.0944 H   0  0  0  0  0  0  0  0  0  0  0  0
   -6.0482   25.7626  -30.1392 H   0  0  0  0  0  0  0  0  0  0  0  0
   -3.5870   24.9340  -31.2230 H   0  0  0  0  0  0  0  0  0  0  0  0
   -6.6834   24.3053  -31.6769 H   0  0  0  0  0  0  0  0  0  0  0  0
   -5.4702   22.0023  -30.0927 H   0  0  0  0  0  0  0  0  0  0  0  0
   -6.7360   23.0489  -29.3362 H   0  0  0  0  0  0  0  0  0  0  0  0
   -6.2575   20.0584  -31.0593 H   0  0  0  0  0  0  0  0  0  0  0  0
   -8.0637   18.7628  -32.1963 H   0  0  0  0  0  0  0  0  0  0  0  0
  -10.2288   19.8678  -32.7636 H   0  0  0  0  0  0  0  0  0  0  0  0
  -10.5851   22.2742  -32.2055 H   0  0  0  0  0  0  0  0  0  0  0  0
   -8.7861   23.5781  -31.0708 H   0  0  0  0  0  0  0  0  0  0  0  0
   -1.2034   22.3497  -32.9998 H   0  0  0  0  0  0  0  0  0  0  0  0
    0.7057   20.2962  -33.5786 H   0  0  0  0  0  0  0  0  0  0  0  0
    0.0525   19.4089  -34.9973 H   0  0  0  0  0  0  0  0  0  0  0  0
    0.0828   21.2050  -34.9973 H   0  0  0  0  0  0  0  0  0  0  0  0
   -1.9658   18.3659  -34.4941 H   0  0  0  0  0  0  0  0  0  0  0  0
   -6.1809   19.4685  -33.3885 H   0  0  0  0  0  0  0  0  0  0  0  0
   -6.0253   18.6588  -35.0018 H   0  0  0  0  0  0  0  0  0  0  0  0
   -6.7156   17.2601  -32.3730 H   0  0  0  0  0  0  0  0  0  0  0  0
   -7.8845   17.7220  -33.6832 H   0  0  0  0  0  0  0  0  0  0  0  0
   -7.3835   15.3859  -33.9568 H   0  0  0  0  0  0  0  0  0  0  0  0
   -6.5258   16.3074  -35.2634 H   0  0  0  0  0  0  0  0  0  0  0  0
   -5.2828   15.2175  -32.6934 H   0  0  0  0  0  0  0  0  0  0  0  0
   -5.0544   14.5756  -34.3605 H   0  0  0  0  0  0  0  0  0  0  0  0
   -5.0048   20.4419  -32.2178 H   0  0  0  0  0  0  0  0  0  0  0  0
   -4.0148   21.6701  -28.4586 H   0  0  0  0  0  0  0  0  0  0  0  0
   -2.3431   22.0924  -28.9905 H   0  0  0  0  0  0  0  0  0  0  0  0
   -3.1067   20.8173  -26.3157 H   0  0  0  0  0  0  0  0  0  0  0  0
   -2.3658   19.9694  -27.7108 H   0  0  0  0  0  0  0  0  0  0  0  0
  1  2  1  0
  2  3  1  0
  3  4  1  0
  4  5  2  0
  5  6  1  0
  6  7  2  0
  7  8  1  0
  8  9  2  0
  9 10  1  0
 10 11  1  0
  7 12  1  0
 12 13  1  0
 13 14  1  0
 14 15  1  0
 15 16  1  0
 15 17  1  0
 17 18  1  0
 18 19  1  0
 19 20  2  0
 20 21  1  0
 21 22  2  0
 22 23  1  0
 23 24  2  0
 17 25  1  0
 25 26  1  0
 26 27  2  0
 26 28  1  0
 28 29  2  0
 29 30  1  0
 30 31  1  0
 30 32  2  0
 32 33  1  0
 33 34  1  0
 34 35  1  0
 35 36  1  0
 36 37  1  0
 37 38  1  0
 38 39  1  0
 39 40  2  0
 39 41  2  0
 33 42  2  0
 12 43  1  0
 43 44  1  0
 44 45  1  0
  9  4  1  0
 24 19  1  0
 42 28  1  0
 45  6  1  0
 39 34  1  0
  1 46  1  0
  1 47  1  0
  1 48  1  0
  2 49  1  0
  2 50  1  0
  3 51  1  0
  3 52  1  0
  5 53  1  0
  8 54  1  0
 11 55  1  0
 11 56  1  0
 11 57  1  0
 12 58  1  1
 13 59  1  0
 13 60  1  0
 14 61  1  0
 14 62  1  0
 15 63  1  1
 16 64  1  0
 17 65  1  6
 18 66  1  0
 18 67  1  0
 20 68  1  0
 21 69  1  0
 22 70  1  0
 23 71  1  0
 24 72  1  0
 29 73  1  0
 31 74  1  0
 31 75  1  0
 31 76  1  0
 32 77  1  0
 35 78  1  0
 35 79  1  0
 36 80  1  0
 36 81  1  0
 37 82  1  0
 37 83  1  0
 38 84  1  0
 38 85  1  0
 42 86  1  0
 43 87  1  0
 43 88  1  0
 44 89  1  0
 44 90  1  0
M  CHG  2  13   1  25  -1
M  END
>  <UniqueID>  (49) 
45

>  <SMILES>  (49) 
CCCc1cc2c(cc1OC)[C@@H]([NH2+]C[C@@H](O)C(Cc1ccccc1)[N-]C(=O)c1cc(C)cc(N3CCCCS3(=O)=O)c1)CCO2

>  <Energy>  (49) 
105.76047027542744

>  <Genealogy>  (49) 
CCCc1cc2c(cc1OC)C([NH2+]CC(O)C(Cc1ccccc1)[N-]C(=O)c1cc(C)cc(N3CCCCS3(=O)=O)c1)CCO2 (protonated)
CCCc1cc2c(cc1OC)[C@@H]([NH2+]C[C@@H](O)C(Cc1ccccc1)[N-]C(=O)c1cc(C)cc(N3CCCCS3(=O)=O)c1)CCO2 (chirality)
CCCc1cc2c(cc1OC)[C@@H]([NH2+]C[C@@H](O)C(Cc1ccccc1)[N-]C(=O)c1cc(C)cc(N3CCCCS3(=O)=O)c1)CCO2 (3D coordinates assigned)
CCCc1cc2c(cc1OC)[C@@H]([NH2+]C[C@@H](O)C(Cc1ccccc1)[N-]C(=O)c1cc(C)cc(N3CCCCS3(=O)=O)c1)CCO2 (nonaromatic ring conformer: 105.76047027542744 kcal/mol)

>  <smiles>  (49) 
CCCc1cc2c(cc1OC)C(NCC(O)C(Cc1ccccc1)NC(=O)c1cc(C)cc(N3CCCCS3(=O)=O)c1)CCO2

>  <score_type>  (49) 
oracle

>  <origin>  (49) 
adg

>  <m_score__min__energy>  (49) 
-11.56

>  <m_primary>  (49) 
energy

$$$$
49:0
     RDKit          3D

 28 29  0  0  0  0  0  0  0  0999 V2000
   -8.4120   20.7740  -31.6480 C   0  0  0  0  0  0  0  0  0  0  0  0
   -7.5350   21.9640  -31.3900 C   0  0  0  0  0  0  0  0  0  0  0  0
   -7.5940   22.6320  -30.1590 C   0  0  0  0  0  0  0  0  0  0  0  0
   -6.7500   23.7170  -29.9040 C   0  0  0  0  0  0  0  0  0  0  0  0
   -5.8160   24.1360  -30.8680 C   0  0  0  0  0  0  0  0  0  0  0  0
   -4.9160   25.2830  -30.6050 C   0  0  0  0  0  0  0  0  0  0  0  0
   -5.4080   26.4340  -30.4680 O   0  0  0  0  0  0  0  0  0  0  0  0
   -3.4990   25.1200  -30.4510 N   0  0  0  0  0  0  0  0  0  0  0  0
   -2.8390   24.4140  -29.3910 C   0  0  0  0  0  0  0  0  0  0  0  0
   -1.8850   25.0900  -28.6180 C   0  0  0  0  0  0  0  0  0  0  0  0
   -1.2170   24.4270  -27.5840 C   0  0  0  0  0  0  0  0  0  0  0  0
   -1.4860   23.0810  -27.3240 C   0  0  0  0  0  0  0  0  0  0  0  0
   -2.4190   22.3920  -28.1060 C   0  0  0  0  0  0  0  0  0  0  0  0
   -2.7450   20.6970  -27.7910 Cl  0  0  0  0  0  0  0  0  0  0  0  0
   -3.0870   23.0520  -29.1420 C   0  0  0  0  0  0  0  0  0  0  0  0
   -5.7590   23.4620  -32.0990 C   0  0  0  0  0  0  0  0  0  0  0  0
   -6.6040   22.3780  -32.3540 C   0  0  0  0  0  0  0  0  0  0  0  0
   -8.7321   20.3397  -30.6894 H   0  0  0  0  0  0  0  0  0  0  0  0
   -9.2964   21.0878  -32.2219 H   0  0  0  0  0  0  0  0  0  0  0  0
   -7.8504   20.0222  -32.2219 H   0  0  0  0  0  0  0  0  0  0  0  0
   -8.3076   22.3010  -29.3901 H   0  0  0  0  0  0  0  0  0  0  0  0
   -6.8171   24.2467  -28.9423 H   0  0  0  0  0  0  0  0  0  0  0  0
   -1.6609   26.1467  -28.8257 H   0  0  0  0  0  0  0  0  0  0  0  0
   -0.4778   24.9666  -26.9737 H   0  0  0  0  0  0  0  0  0  0  0  0
   -0.9647   22.5635  -26.5052 H   0  0  0  0  0  0  0  0  0  0  0  0
   -3.8093   22.5039  -29.7648 H   0  0  0  0  0  0  0  0  0  0  0  0
   -5.0441   23.7896  -32.8681 H   0  0  0  0  0  0  0  0  0  0  0  0
   -6.5385   21.8472  -33.3152 H   0  0  0  0  0  0  0  0  0  0  0  0
  1  2  1  0
  2  3  2  0
  3  4  1  0
  4  5  2  0
  5  6  1  0
  6  7  2  0
  6  8  1  0
  8  9  1  0
  9 10  2  0
 10 11  1  0
 11 12  2  0
 12 13  1  0
 13 14  1  0
 13 15  2  0
  5 16  1  0
 16 17  2  0
 17  2  1  0
 15  9  1  0
  1 18  1  0
  1 19  1  0
  1 20  1  0
  3 21  1  0
  4 22  1  0
 10 23  1  0
 11 24  1  0
 12 25  1  0
 15 26  1  0
 16 27  1  0
 17 28  1  0
M  CHG  1   8  -1
M  END
>  <UniqueID>  (50) 
46

>  <SMILES>  (50) 
Cc1ccc(C(=O)[N-]c2cccc(Cl)c2)cc1

>  <Energy>  (50) 
34.469412269882326

>  <Genealogy>  (50) 
Cc1ccc(C(=O)[N-]c2cccc(Cl)c2)cc1 (protonated)
Cc1ccc(C(=O)[N-]c2cccc(Cl)c2)cc1 (3D coordinates assigned)
Cc1ccc(C(=O)[N-]c2cccc(Cl)c2)cc1 (optimized conformer: 34.469412269882326 kcal/mol)

>  <smiles>  (50) 
Cc1ccc(C(=O)Nc2cccc(Cl)c2)cc1

>  <score_type>  (50) 
oracle

>  <origin>  (50) 
adg

>  <m_score__min__energy>  (50) 
-8.6699999999999999

>  <m_primary>  (50) 
energy

$$$$
