0:0
     RDKit          3D

 65 68  0  0  0  0  0  0  0  0999 V2000
    0.6740   18.4770  -36.5870 C   0  0  0  0  0  0  0  0  0  0  0  0
    0.5310   17.1090  -35.9300 C   0  0  0  0  0  0  0  0  0  0  0  0
    0.0920   17.2410  -34.5780 O   0  0  0  0  0  0  0  0  0  0  0  0
   -1.2150   17.5580  -34.1640 C   0  0  0  0  0  0  0  0  0  0  0  0
   -2.2280   16.5900  -34.0740 C   0  0  0  0  0  0  0  0  0  0  0  0
   -3.4900   16.9510  -33.7310 N   0  0  0  0  0  0  0  0  0  0  0  0
   -3.8070   18.2450  -33.4620 C   0  0  0  0  0  0  0  0  0  0  0  0
   -5.2010   18.6210  -33.1230 C   0  0  0  0  0  0  0  0  0  0  0  0
   -5.8950   17.9540  -32.0960 C   0  0  0  0  0  0  0  0  0  0  0  0
   -7.2000   18.3250  -31.7620 C   0  0  0  0  0  0  0  0  0  0  0  0
   -7.8410   19.3720  -32.4450 C   0  0  0  0  0  0  0  0  0  0  0  0
   -9.1670   19.7910  -32.0620 N   0  0  0  0  0  0  0  0  0  0  0  0
   -9.2070   21.2530  -31.9070 C   0  0  0  0  0  0  0  0  0  0  0  0
   -8.2060   21.7160  -30.8390 C   0  0  0  0  0  0  0  0  0  0  0  0
   -7.5000   23.0180  -31.2830 C   0  0  0  0  0  0  0  0  0  0  0  0
   -6.2920   23.3550  -30.4960 N   0  0  0  0  0  0  0  0  0  0  0  0
   -5.0270   23.0500  -31.1950 C   0  0  0  0  0  0  0  0  0  0  0  0
   -3.8530   23.7780  -30.5230 C   0  0  0  0  0  0  0  0  0  0  0  0
   -3.9820   25.1950  -30.5200 O   0  0  0  0  0  0  0  0  0  0  0  0
   -5.3280   25.6560  -30.5190 C   0  0  0  0  0  0  0  0  0  0  0  0
   -6.3200   24.6860  -29.8520 C   0  0  0  0  0  0  0  0  0  0  0  0
   -7.1490   20.0420  -33.4700 C   0  0  0  0  0  0  0  0  0  0  0  0
   -5.8470   19.6660  -33.8090 C   0  0  0  0  0  0  0  0  0  0  0  0
   -2.8360   19.1930  -33.5280 N   0  0  0  0  0  0  0  0  0  0  0  0
   -1.5510   18.8920  -33.8600 C   0  0  0  0  0  0  0  0  0  0  0  0
   -0.5760   19.9530  -33.9060 N   0  0  0  0  0  0  0  0  0  0  0  0
    0.6640   19.8340  -33.1330 C   0  0  0  0  0  0  0  0  0  0  0  0
    1.8140   20.5160  -33.8830 C   0  0  0  0  0  0  0  0  0  0  0  0
    1.4650   21.8360  -34.2540 O   0  0  0  0  0  0  0  0  0  0  0  0
    0.4010   21.8050  -35.1860 C   0  0  0  0  0  0  0  0  0  0  0  0
   -0.8700   21.2430  -34.5410 C   0  0  0  0  0  0  0  0  0  0  0  0
    0.7549   19.2506  -35.8092 H   0  0  0  0  0  0  0  0  0  0  0  0
    1.5784   18.4904  -37.2129 H   0  0  0  0  0  0  0  0  0  0  0  0
   -0.2081   18.6772  -37.2129 H   0  0  0  0  0  0  0  0  0  0  0  0
   -0.2041   16.5139  -36.4917 H   0  0  0  0  0  0  0  0  0  0  0  0
    1.5113   16.6100  -35.9360 H   0  0  0  0  0  0  0  0  0  0  0  0
   -1.9975   15.5348  -34.2824 H   0  0  0  0  0  0  0  0  0  0  0  0
   -5.4055   17.1332  -31.5514 H   0  0  0  0  0  0  0  0  0  0  0  0
   -7.7297   17.7931  -30.9579 H   0  0  0  0  0  0  0  0  0  0  0  0
   -9.4300   19.3320  -31.1570 H   0  0  0  0  0  0  0  0  0  0  0  0
   -9.8610   19.4930  -32.7900 H   0  0  0  0  0  0  0  0  0  0  0  0
   -8.9530   21.7245  -32.8678 H   0  0  0  0  0  0  0  0  0  0  0  0
  -10.2193   21.5464  -31.5920 H   0  0  0  0  0  0  0  0  0  0  0  0
   -8.7422   21.8989  -29.8961 H   0  0  0  0  0  0  0  0  0  0  0  0
   -7.4479   20.9313  -30.6995 H   0  0  0  0  0  0  0  0  0  0  0  0
   -7.2048   22.9077  -32.3369 H   0  0  0  0  0  0  0  0  0  0  0  0
   -8.2181   23.8358  -31.1235 H   0  0  0  0  0  0  0  0  0  0  0  0
   -4.8473   21.9653  -31.1618 H   0  0  0  0  0  0  0  0  0  0  0  0
   -5.1060   23.3890  -32.2385 H   0  0  0  0  0  0  0  0  0  0  0  0
   -3.7826   23.4340  -29.4806 H   0  0  0  0  0  0  0  0  0  0  0  0
   -2.9517   23.5396  -31.1069 H   0  0  0  0  0  0  0  0  0  0  0  0
   -5.3653   26.6142  -29.9800 H   0  0  0  0  0  0  0  0  0  0  0  0
   -5.6334   25.7507  -31.5715 H   0  0  0  0  0  0  0  0  0  0  0  0
   -6.0530   24.5753  -28.7907 H   0  0  0  0  0  0  0  0  0  0  0  0
   -7.3333   25.1004  -29.9595 H   0  0  0  0  0  0  0  0  0  0  0  0
   -7.6366   20.8680  -34.0085 H   0  0  0  0  0  0  0  0  0  0  0  0
   -5.3218   20.1919  -34.6199 H   0  0  0  0  0  0  0  0  0  0  0  0
    0.5308   20.3162  -32.1533 H   0  0  0  0  0  0  0  0  0  0  0  0
    0.9033   18.7694  -32.9940 H   0  0  0  0  0  0  0  0  0  0  0  0
    2.6997   20.5477  -33.2314 H   0  0  0  0  0  0  0  0  0  0  0  0
    2.0275   19.9402  -34.7956 H   0  0  0  0  0  0  0  0  0  0  0  0
    0.2034   22.8269  -35.5420 H   0  0  0  0  0  0  0  0  0  0  0  0
    0.6870   21.1557  -36.0266 H   0  0  0  0  0  0  0  0  0  0  0  0
   -1.2369   21.9489  -33.7813 H   0  0  0  0  0  0  0  0  0  0  0  0
   -1.6379   21.1002  -35.3155 H   0  0  0  0  0  0  0  0  0  0  0  0
  1  2  1  0
  2  3  1  0
  3  4  1  0
  4  5  2  0
  5  6  1  0
  6  7  2  0
  7  8  1  0
  8  9  2  0
  9 10  1  0
 10 11  2  0
 11 12  1  0
 12 13  1  0
 13 14  1  0
 14 15  1  0
 15 16  1  0
 16 17  1  0
 17 18  1  0
 18 19  1  0
 19 20  1  0
 20 21  1  0
 11 22  1  0
 22 23  2  0
  7 24  1  0
 24 25  2  0
 25 26  1  0
 26 27  1  0
 27 28  1  0
 28 29  1  0
 29 30  1  0
 30 31  1  0
 25  4  1  0
 31 26  1  0
 23  8  1  0
 21 16  1  0
  1 32  1  0
  1 33  1  0
  1 34  1  0
  2 35  1  0
  2 36  1  0
  5 37  1  0
  9 38  1  0
 10 39  1  0
 12 40  1  0
 12 41  1  0
 13 42  1  0
 13 43  1  0
 14 44  1  0
 14 45  1  0
 15 46  1  0
 15 47  1  0
 17 48  1  0
 17 49  1  0
 18 50  1  0
 18 51  1  0
 20 52  1  0
 20 53  1  0
 21 54  1  0
 21 55  1  0
 22 56  1  0
 23 57  1  0
 27 58  1  0
 27 59  1  0
 28 60  1  0
 28 61  1  0
 30 62  1  0
 30 63  1  0
 31 64  1  0
 31 65  1  0
M  CHG  1  12   1
M  END
>  <UniqueID>  (1) 
1

>  <SMILES>  (1) 
CCOc1cnc(-c2ccc([NH2+]CCCN3CCOCC3)cc2)nc1N1CCOCC1

>  <Energy>  (1) 
86.55996702365198

>  <Genealogy>  (1) 
CCOc1cnc(-c2ccc([NH2+]CCCN3CCOCC3)cc2)nc1N1CCOCC1 (protonated)
CCOc1cnc(-c2ccc([NH2+]CCCN3CCOCC3)cc2)nc1N1CCOCC1 (3D coordinates assigned)
CCOc1cnc(-c2ccc([NH2+]CCCN3CCOCC3)cc2)nc1N1CCOCC1 (nonaromatic ring conformer: 86.55996702365198 kcal/mol)

>  <smiles>  (1) 
CCOc1cnc(-c2ccc(NCCCN3CCOCC3)cc2)nc1N1CCOCC1

>  <score_type>  (1) 
oracle

>  <origin>  (1) 
adg

>  <m_score__min__energy>  (1) 
-7.7800000000000002

>  <m_primary>  (1) 
energy

$$$$
1:0
     RDKit          3D

 46 47  0  0  0  0  0  0  0  0999 V2000
   -5.4003   18.1169  -34.3100 H   0  0  0  0  0  0  0  0  0  0  0  0
   -5.3240   19.0670  -33.7610 C   0  0  0  0  0  0  0  0  0  0  0  0
   -6.4840   19.7260  -33.3460 C   0  0  0  0  0  0  0  0  0  0  0  0
   -7.4687   19.2895  -33.5692 H   0  0  0  0  0  0  0  0  0  0  0  0
   -6.4030   20.9450  -32.6440 C   0  0  0  0  0  0  0  0  0  0  0  0
   -7.6250   21.6740  -32.1990 C   0  0  0  0  0  0  0  0  0  0  0  0
   -8.7540   21.1260  -32.3270 O   0  0  0  0  0  0  0  0  0  0  0  0
   -7.5760   23.0600  -31.6140 C   0  0  0  0  0  0  0  0  0  0  0  0
   -6.7710   23.6284  -32.1029 H   0  0  0  0  0  0  0  0  0  0  0  0
   -8.5485   23.5457  -31.7825 H   0  0  0  0  0  0  0  0  0  0  0  0
   -7.2590   23.0020  -29.8160 S   0  0  0  0  0  0  0  0  0  0  0  0
   -5.6170   23.7070  -29.9320 C   0  0  0  0  0  0  0  0  0  0  0  0
   -5.0300   24.0460  -31.1010 N   0  0  0  0  0  0  0  0  0  0  0  0
   -3.8060   24.5480  -30.9460 N   0  0  0  0  0  0  0  0  0  0  0  0
   -3.4190   24.6050  -29.6540 C   0  0  0  0  0  0  0  0  0  0  0  0
   -2.2600   25.0660  -29.2950 N   0  0  0  0  0  0  0  0  0  0  0  0
   -1.6930   24.9030  -27.9600 C   0  0  0  0  0  0  0  0  0  0  0  0
   -1.3074   25.8705  -27.6060 H   0  0  0  0  0  0  0  0  0  0  0  0
   -2.4740   24.5431  -27.2741 H   0  0  0  0  0  0  0  0  0  0  0  0
   -0.5540   23.8890  -28.0050 C   0  0  0  0  0  0  0  0  0  0  0  0
   -0.3749   23.4994  -26.9920 H   0  0  0  0  0  0  0  0  0  0  0  0
   -0.8331   23.0674  -28.6811 H   0  0  0  0  0  0  0  0  0  0  0  0
    0.6280   24.4990  -28.4860 O   0  0  0  0  0  0  0  0  0  0  0  0
    1.6000   24.5660  -27.4640 C   0  0  0  0  0  0  0  0  0  0  0  0
    1.1035   24.5318  -26.4830 H   0  0  0  0  0  0  0  0  0  0  0  0
    2.2886   23.7132  -27.5564 H   0  0  0  0  0  0  0  0  0  0  0  0
    2.1651   25.5052  -27.5564 H   0  0  0  0  0  0  0  0  0  0  0  0
   -4.6150   24.0170  -28.6130 S   0  0  0  0  0  0  0  0  0  0  0  0
   -5.1300   21.4800  -32.3650 C   0  0  0  0  0  0  0  0  0  0  0  0
   -5.0488   22.4338  -31.8231 H   0  0  0  0  0  0  0  0  0  0  0  0
   -3.9630   20.8110  -32.7700 C   0  0  0  0  0  0  0  0  0  0  0  0
   -2.6080   21.4140  -32.4970 C   0  0  0  0  0  0  0  0  0  0  0  0
   -2.3200   22.0558  -33.3427 H   0  0  0  0  0  0  0  0  0  0  0  0
   -1.8757   20.6029  -32.3710 H   0  0  0  0  0  0  0  0  0  0  0  0
   -2.6430   22.2200  -31.2670 N   0  0  0  0  0  0  0  0  0  0  0  0
   -3.6430   22.3790  -30.9990 H   0  0  0  0  0  0  0  0  0  0  0  0
   -2.2010   23.1540  -31.4380 H   0  0  0  0  0  0  0  0  0  0  0  0
   -1.9750   21.5470  -30.1380 C   0  0  0  0  0  0  0  0  0  0  0  0
   -1.2796   22.2565  -29.6657 H   0  0  0  0  0  0  0  0  0  0  0  0
   -1.4469   20.6686  -30.5373 H   0  0  0  0  0  0  0  0  0  0  0  0
   -2.9670   21.0530  -29.0800 C   0  0  0  0  0  0  0  0  0  0  0  0
   -2.5633   21.2540  -28.0767 H   0  0  0  0  0  0  0  0  0  0  0  0
   -3.9253   21.5791  -29.2019 H   0  0  0  0  0  0  0  0  0  0  0  0
   -3.1246   19.9712  -29.2019 H   0  0  0  0  0  0  0  0  0  0  0  0
   -4.0700   19.6090  -33.4820 C   0  0  0  0  0  0  0  0  0  0  0  0
   -3.1612   19.0909  -33.8222 H   0  0  0  0  0  0  0  0  0  0  0  0
  1  2  1  0
  2  3  2  0
  3  4  1  0
  3  5  1  0
  5  6  1  0
  6  7  2  0
  6  8  1  0
  8  9  1  0
  8 10  1  0
  8 11  1  0
 11 12  1  0
 12 13  2  0
 13 14  1  0
 14 15  1  0
 15 16  2  0
 16 17  1  0
 17 18  1  0
 17 19  1  0
 17 20  1  0
 20 21  1  0
 20 22  1  0
 20 23  1  0
 23 24  1  0
 24 25  1  0
 24 26  1  0
 24 27  1  0
 15 28  1  0
  5 29  2  0
 29 30  1  0
 29 31  1  0
 31 32  1  0
 32 33  1  0
 32 34  1  0
 32 35  1  0
 35 36  1  0
 35 37  1  0
 35 38  1  0
 38 39  1  0
 38 40  1  0
 38 41  1  0
 41 42  1  0
 41 43  1  0
 41 44  1  0
 31 45  2  0
 45 46  1  0
 45  2  1  0
 28 12  1  0
M  CHG  2  14  -1  35   1
M  END
>  <UniqueID>  (2) 
2

>  <SMILES>  (2) 
CC[NH2+]Cc1cccc(C(=O)CSc2n[n-]/c(=N/CCOC)s2)c1

>  <Energy>  (2) 
74.02735921992884

>  <Genealogy>  (2) 
CC[NH2+]Cc1cccc(C(=O)CSc2n[n-]c(=NCCOC)s2)c1 (protonated)
CC[NH2+]Cc1cccc(C(=O)CSc2n[n-]/c(=N/CCOC)s2)c1 (cis-trans isomerization)
CC[NH2+]Cc1cccc(C(=O)CSc2n[n-]/c(=N/CCOC)s2)c1 (3D coordinates assigned)
CC[NH2+]Cc1cccc(C(=O)CSc2n[n-]/c(=N/CCOC)s2)c1 (optimized conformer: 74.02735921992884 kcal/mol)

>  <smiles>  (2) 
CCNCc1cccc(C(=O)CSc2n[nH]c(=NCCOC)s2)c1

>  <score_type>  (2) 
oracle

>  <origin>  (2) 
adg

>  <m_score__min__energy>  (2) 
-8.9499999999999993

>  <m_primary>  (2) 
energy

$$$$
2:0
     RDKit          3D

 50 52  0  0  0  0  0  0  0  0999 V2000
   -0.2500   21.1310  -34.5630 C   0  0  0  0  0  0  0  0  0  0  0  0
   -1.1200   21.5210  -33.5060 O   0  0  0  0  0  0  0  0  0  0  0  0
   -2.4010   20.9890  -33.2950 C   0  0  0  0  0  0  0  0  0  0  0  0
   -2.6910   19.6320  -33.4820 C   0  0  0  0  0  0  0  0  0  0  0  0
   -3.9770   19.1470  -33.2480 C   0  0  0  0  0  0  0  0  0  0  0  0
   -5.0140   20.0000  -32.7960 C   0  0  0  0  0  0  0  0  0  0  0  0
   -4.7290   21.3840  -32.6550 C   0  0  0  0  0  0  0  0  0  0  0  0
   -3.4200   21.8540  -32.8930 C   0  0  0  0  0  0  0  0  0  0  0  0
   -5.7560   22.2620  -32.2580 C   0  0  0  0  0  0  0  0  0  0  0  0
   -5.4620   23.6350  -31.9410 N   0  0  0  0  0  0  0  0  0  0  0  0
   -6.1260   24.3100  -30.8250 C   0  0  0  0  0  0  0  0  0  0  0  0
   -5.1750   25.3070  -30.1360 C   0  0  0  0  0  0  0  0  0  0  0  0
   -3.7650   24.9620  -30.3860 N   0  0  0  0  0  0  0  0  0  0  0  0
   -3.3800   23.6570  -29.8150 C   0  0  0  0  0  0  0  0  0  0  0  0
   -1.8530   23.5010  -29.7040 C   0  0  0  0  0  0  0  0  0  0  0  0
   -4.0250   23.5090  -28.4360 C   0  0  0  0  0  0  0  0  0  0  0  0
   -7.0750   21.7830  -32.1700 C   0  0  0  0  0  0  0  0  0  0  0  0
   -8.1530   22.6700  -31.9610 C   0  0  0  0  0  0  0  0  0  0  0  0
   -9.4620   22.1990  -31.9120 C   0  0  0  0  0  0  0  0  0  0  0  0
   -9.7230   20.8460  -32.0920 C   0  0  0  0  0  0  0  0  0  0  0  0
   -8.6740   19.9510  -32.3050 C   0  0  0  0  0  0  0  0  0  0  0  0
   -7.3270   20.3940  -32.3230 C   0  0  0  0  0  0  0  0  0  0  0  0
   -6.2740   19.5150  -32.5010 N   0  0  0  0  0  0  0  0  0  0  0  0
   -6.4940   18.0590  -32.3550 C   0  0  0  0  0  0  0  0  0  0  0  0
    0.6768   20.7155  -34.1406 H   0  0  0  0  0  0  0  0  0  0  0  0
   -0.7446   20.3685  -35.1826 H   0  0  0  0  0  0  0  0  0  0  0  0
   -0.0099   22.0076  -35.1826 H   0  0  0  0  0  0  0  0  0  0  0  0
   -1.8996   18.9446  -33.8155 H   0  0  0  0  0  0  0  0  0  0  0  0
   -4.1907   18.0814  -33.4176 H   0  0  0  0  0  0  0  0  0  0  0  0
   -3.1983   22.9231  -32.7591 H   0  0  0  0  0  0  0  0  0  0  0  0
   -4.6140   24.0830  -32.3540 H   0  0  0  0  0  0  0  0  0  0  0  0
   -7.0034   24.8540  -31.2047 H   0  0  0  0  0  0  0  0  0  0  0  0
   -6.4307   23.5515  -30.0889 H   0  0  0  0  0  0  0  0  0  0  0  0
   -5.3712   26.3169  -30.5254 H   0  0  0  0  0  0  0  0  0  0  0  0
   -5.3554   25.2661  -29.0517 H   0  0  0  0  0  0  0  0  0  0  0  0
   -3.5990   24.9560  -31.4200 H   0  0  0  0  0  0  0  0  0  0  0  0
   -3.7368   22.8661  -30.4912 H   0  0  0  0  0  0  0  0  0  0  0  0
   -1.5636   23.4714  -28.6432 H   0  0  0  0  0  0  0  0  0  0  0  0
   -1.5433   22.5665  -30.1947 H   0  0  0  0  0  0  0  0  0  0  0  0
   -1.3607   24.3535  -30.1947 H   0  0  0  0  0  0  0  0  0  0  0  0
   -3.2683   23.6826  -27.6567 H   0  0  0  0  0  0  0  0  0  0  0  0
   -4.8361   24.2444  -28.3298 H   0  0  0  0  0  0  0  0  0  0  0  0
   -4.4344   22.4936  -28.3298 H   0  0  0  0  0  0  0  0  0  0  0  0
   -7.9565   23.7450  -31.8355 H   0  0  0  0  0  0  0  0  0  0  0  0
  -10.2910   22.8988  -31.7305 H   0  0  0  0  0  0  0  0  0  0  0  0
  -10.7598   20.4795  -32.0665 H   0  0  0  0  0  0  0  0  0  0  0  0
   -8.8954   18.8849  -32.4614 H   0  0  0  0  0  0  0  0  0  0  0  0
   -6.5332   17.7994  -31.2868 H   0  0  0  0  0  0  0  0  0  0  0  0
   -7.4442   17.7818  -32.8348 H   0  0  0  0  0  0  0  0  0  0  0  0
   -5.6681   17.5134  -32.8348 H   0  0  0  0  0  0  0  0  0  0  0  0
  1  2  1  0
  2  3  1  0
  3  4  2  0
  4  5  1  0
  5  6  2  0
  6  7  1  0
  7  8  2  0
  7  9  1  0
  9 10  1  0
 10 11  1  0
 11 12  1  0
 12 13  1  0
 13 14  1  0
 14 15  1  0
 14 16  1  0
  9 17  2  0
 17 18  1  0
 18 19  2  0
 19 20  1  0
 20 21  2  0
 21 22  1  0
 22 23  2  0
 23 24  1  0
  8  3  1  0
 22 17  1  0
 23  6  1  0
  1 25  1  0
  1 26  1  0
  1 27  1  0
  4 28  1  0
  5 29  1  0
  8 30  1  0
 10 31  1  0
 11 32  1  0
 11 33  1  0
 12 34  1  0
 12 35  1  0
 13 36  1  0
 14 37  1  0
 15 38  1  0
 15 39  1  0
 15 40  1  0
 16 41  1  0
 16 42  1  0
 16 43  1  0
 18 44  1  0
 19 45  1  0
 20 46  1  0
 21 47  1  0
 24 48  1  0
 24 49  1  0
 24 50  1  0
M  CHG  1  23   1
M  END
>  <UniqueID>  (3) 
3

>  <SMILES>  (3) 
COc1ccc2c(c1)c(NCCNC(C)C)c1ccccc1[n+]2C

>  <Energy>  (3) 
72.82400117244603

>  <Genealogy>  (3) 
COc1ccc2c(c1)c(NCCNC(C)C)c1ccccc1[n+]2C (3D coordinates assigned)
COc1ccc2c(c1)c(NCCNC(C)C)c1ccccc1[n+]2C (optimized conformer: 72.82400117244603 kcal/mol)

>  <smiles>  (3) 
COc1ccc2c(c1)c(NCCNC(C)C)c1ccccc1[n+]2C

>  <score_type>  (3) 
oracle

>  <origin>  (3) 
adg

>  <m_score__min__energy>  (3) 
-8.6799999999999997

>  <m_primary>  (3) 
energy

$$$$
3:0
     RDKit          3D

 42 44  0  0  0  0  0  0  0  0999 V2000
   -2.8650   19.5970  -33.8590 C   0  0  0  0  0  0  0  0  0  0  0  0
   -4.3260   19.6010  -33.4940 C   0  0  0  0  0  0  0  0  0  0  0  0
   -4.9260   20.8100  -33.0790 C   0  0  0  0  0  0  0  0  0  0  0  0
   -6.2770   20.7970  -32.7340 C   0  0  0  0  0  0  0  0  0  0  0  0
   -7.1130   21.8060  -32.2850 C   0  0  0  0  0  0  0  0  0  0  0  0
   -6.7600   23.2460  -32.0210 C   0  0  0  0  0  0  0  0  0  0  0  0
   -6.2590   23.4920  -30.6510 N   0  0  0  0  0  0  0  0  0  0  0  0
   -6.5680   24.8250  -30.0940 C   0  0  0  0  0  0  0  0  0  0  0  0
   -5.4990   25.8920  -30.4270 C   0  0  0  0  0  0  0  0  0  0  0  0
   -4.2530   25.3070  -30.9370 N   0  0  0  0  0  0  0  0  0  0  0  0
   -3.8790   24.1350  -30.1460 C   0  0  0  0  0  0  0  0  0  0  0  0
   -4.8890   23.0010  -30.3770 C   0  0  0  0  0  0  0  0  0  0  0  0
   -8.3600   21.2110  -32.1110 C   0  0  0  0  0  0  0  0  0  0  0  0
   -8.2970   19.8970  -32.4240 N   0  0  0  0  0  0  0  0  0  0  0  0
   -9.3940   18.9360  -32.3410 C   0  0  0  0  0  0  0  0  0  0  0  0
   -7.0260   19.6520  -32.7990 C   0  0  0  0  0  0  0  0  0  0  0  0
   -6.4720   18.4380  -33.2010 C   0  0  0  0  0  0  0  0  0  0  0  0
   -5.1030   18.4030  -33.5500 C   0  0  0  0  0  0  0  0  0  0  0  0
   -4.4910   17.0990  -33.9870 C   0  0  0  0  0  0  0  0  0  0  0  0
   -2.2579   19.5953  -32.9417 H   0  0  0  0  0  0  0  0  0  0  0  0
   -2.6374   18.6982  -34.4510 H   0  0  0  0  0  0  0  0  0  0  0  0
   -2.6325   20.4945  -34.4510 H   0  0  0  0  0  0  0  0  0  0  0  0
   -4.3413   21.7404  -33.0290 H   0  0  0  0  0  0  0  0  0  0  0  0
   -5.9810   23.5496  -32.7358 H   0  0  0  0  0  0  0  0  0  0  0  0
   -7.6846   23.8308  -32.1359 H   0  0  0  0  0  0  0  0  0  0  0  0
   -7.5331   25.1587  -30.5029 H   0  0  0  0  0  0  0  0  0  0  0  0
   -6.5941   24.7217  -28.9992 H   0  0  0  0  0  0  0  0  0  0  0  0
   -5.9064   26.5719  -31.1897 H   0  0  0  0  0  0  0  0  0  0  0  0
   -5.2587   26.4233  -29.4943 H   0  0  0  0  0  0  0  0  0  0  0  0
   -3.4940   26.0210  -30.8420 H   0  0  0  0  0  0  0  0  0  0  0  0
   -2.8766   23.7969  -30.4474 H   0  0  0  0  0  0  0  0  0  0  0  0
   -3.8769   24.4049  -29.0796 H   0  0  0  0  0  0  0  0  0  0  0  0
   -4.5530   22.4022  -31.2364 H   0  0  0  0  0  0  0  0  0  0  0  0
   -4.9319   22.4058  -29.4529 H   0  0  0  0  0  0  0  0  0  0  0  0
   -9.2651   21.7341  -31.7686 H   0  0  0  0  0  0  0  0  0  0  0  0
   -9.6250   18.7336  -31.2847 H   0  0  0  0  0  0  0  0  0  0  0  0
  -10.2833   19.3509  -32.8379 H   0  0  0  0  0  0  0  0  0  0  0  0
   -9.0997   17.9998  -32.8379 H   0  0  0  0  0  0  0  0  0  0  0  0
   -7.0869   17.5270  -33.2457 H   0  0  0  0  0  0  0  0  0  0  0  0
   -4.2140   16.5088  -33.1010 H   0  0  0  0  0  0  0  0  0  0  0  0
   -5.2189   16.5361  -34.5897 H   0  0  0  0  0  0  0  0  0  0  0  0
   -3.5928   17.2992  -34.5897 H   0  0  0  0  0  0  0  0  0  0  0  0
  1  2  1  0
  2  3  2  0
  3  4  1  0
  4  5  1  0
  5  6  1  0
  6  7  1  0
  7  8  1  0
  8  9  1  0
  9 10  1  0
 10 11  1  0
 11 12  1  0
  5 13  2  0
 13 14  1  0
 14 15  1  0
 14 16  1  0
 16 17  1  0
 17 18  2  0
 18 19  1  0
 18  2  1  0
 16  4  2  0
 12  7  1  0
  1 20  1  0
  1 21  1  0
  1 22  1  0
  3 23  1  0
  6 24  1  0
  6 25  1  0
  8 26  1  0
  8 27  1  0
  9 28  1  0
  9 29  1  0
 10 30  1  0
 11 31  1  0
 11 32  1  0
 12 33  1  0
 12 34  1  0
 13 35  1  0
 15 36  1  0
 15 37  1  0
 15 38  1  0
 17 39  1  0
 19 40  1  0
 19 41  1  0
 19 42  1  0
M  END
>  <UniqueID>  (4) 
4

>  <SMILES>  (4) 
Cc1cc2c(CN3CCNCC3)cn(C)c2cc1C

>  <Energy>  (4) 
86.50028541866634

>  <Genealogy>  (4) 
Cc1cc2c(CN3CCNCC3)cn(C)c2cc1C (3D coordinates assigned)
Cc1cc2c(CN3CCNCC3)cn(C)c2cc1C (nonaromatic ring conformer: 86.50028541866634 kcal/mol)

>  <smiles>  (4) 
Cc1cc2c(CN3CCNCC3)cn(C)c2cc1C

>  <score_type>  (4) 
oracle

>  <origin>  (4) 
adg

>  <m_score__min__energy>  (4) 
-8.7799999999999994

>  <m_primary>  (4) 
energy

$$$$
4:0
     RDKit          3D

 43 43  0  0  0  0  0  0  0  0999 V2000
   -7.0780   23.6320  -31.1820 C   0  0  0  0  0  0  0  0  0  0  0  0
   -5.7330   23.8220  -31.8750 C   0  0  0  0  0  0  0  0  0  0  0  0
   -5.0140   24.8840  -31.2730 O   0  0  0  0  0  0  0  0  0  0  0  0
   -5.3660   25.0390  -29.9100 C   0  0  0  0  0  0  0  0  0  0  0  0
   -4.3000   24.4240  -29.0060 C   0  0  0  0  0  0  0  0  0  0  0  0
   -3.0460   25.0060  -29.2960 O   0  0  0  0  0  0  0  0  0  0  0  0
   -2.0290   24.0210  -29.2990 C   0  0  0  0  0  0  0  0  0  0  0  0
   -0.9640   24.3590  -28.2610 C   0  0  0  0  0  0  0  0  0  0  0  0
   -1.2220   23.6300  -27.0820 O   0  0  0  0  0  0  0  0  0  0  0  0
   -0.9150   24.4380  -26.0260 N   0  0  0  0  0  0  0  0  0  0  0  0
   -1.8390   25.4780  -25.6450 C   0  0  0  0  0  0  0  0  0  0  0  0
   -3.0730   25.6460  -26.3520 N   0  0  0  0  0  0  0  0  0  0  0  0
   -1.5470   26.2690  -24.6550 N   0  0  0  0  0  0  0  0  0  0  0  0
   -0.3100   26.1350  -23.9440 C   0  0  0  0  0  0  0  0  0  0  0  0
    0.0940   27.1440  -23.0180 N   0  0  0  0  0  0  0  0  0  0  0  0
    0.4620   25.1130  -24.1540 N   0  0  0  0  0  0  0  0  0  0  0  0
    0.1020   24.0040  -25.0460 C   0  0  0  0  0  0  0  0  0  0  0  0
   -0.4770   22.8600  -24.1990 C   0  0  0  0  0  0  0  0  0  0  0  0
    1.3800   23.5270  -25.7490 C   0  0  0  0  0  0  0  0  0  0  0  0
   -6.9347   23.6522  -30.0916 H   0  0  0  0  0  0  0  0  0  0  0  0
   -7.7604   24.4427  -31.4773 H   0  0  0  0  0  0  0  0  0  0  0  0
   -7.5091   22.6640  -31.4773 H   0  0  0  0  0  0  0  0  0  0  0  0
   -5.1477   22.8944  -31.7912 H   0  0  0  0  0  0  0  0  0  0  0  0
   -5.9076   24.0638  -32.9338 H   0  0  0  0  0  0  0  0  0  0  0  0
   -5.4600   26.1107  -29.6806 H   0  0  0  0  0  0  0  0  0  0  0  0
   -6.3223   24.5259  -29.7303 H   0  0  0  0  0  0  0  0  0  0  0  0
   -4.5578   24.6132  -27.9535 H   0  0  0  0  0  0  0  0  0  0  0  0
   -4.2509   23.3392  -29.1814 H   0  0  0  0  0  0  0  0  0  0  0  0
   -2.4707   23.0422  -29.0607 H   0  0  0  0  0  0  0  0  0  0  0  0
   -1.5623   23.9905  -30.2946 H   0  0  0  0  0  0  0  0  0  0  0  0
    0.0289   24.0900  -28.6507 H   0  0  0  0  0  0  0  0  0  0  0  0
   -0.9874   25.4370  -28.0431 H   0  0  0  0  0  0  0  0  0  0  0  0
   -3.7360   26.4100  -26.0920 H   0  0  0  0  0  0  0  0  0  0  0  0
   -3.3450   25.0000  -27.1260 H   0  0  0  0  0  0  0  0  0  0  0  0
   -2.2020   27.0390  -24.3890 H   0  0  0  0  0  0  0  0  0  0  0  0
   -0.5110   27.9790  -22.8480 H   0  0  0  0  0  0  0  0  0  0  0  0
    0.9960   27.0590  -22.5010 H   0  0  0  0  0  0  0  0  0  0  0  0
   -0.3570   23.0971  -23.1316 H   0  0  0  0  0  0  0  0  0  0  0  0
   -1.5456   22.7376  -24.4296 H   0  0  0  0  0  0  0  0  0  0  0  0
    0.0571   21.9264  -24.4296 H   0  0  0  0  0  0  0  0  0  0  0  0
    2.1304   23.2469  -24.9951 H   0  0  0  0  0  0  0  0  0  0  0  0
    1.1487   22.6546  -26.3779 H   0  0  0  0  0  0  0  0  0  0  0  0
    1.7769   24.3375  -26.3779 H   0  0  0  0  0  0  0  0  0  0  0  0
  1  2  1  0
  2  3  1  0
  3  4  1  0
  4  5  1  0
  5  6  1  0
  6  7  1  0
  7  8  1  0
  8  9  1  0
  9 10  1  0
 10 11  1  0
 11 12  1  0
 11 13  2  0
 13 14  1  0
 14 15  1  0
 14 16  2  0
 16 17  1  0
 17 18  1  0
 17 19  1  0
 17 10  1  0
  1 20  1  0
  1 21  1  0
  1 22  1  0
  2 23  1  0
  2 24  1  0
  4 25  1  0
  4 26  1  0
  5 27  1  0
  5 28  1  0
  7 29  1  0
  7 30  1  0
  8 31  1  0
  8 32  1  0
 12 33  1  0
 12 34  1  0
 13 35  1  0
 15 36  1  0
 15 37  1  0
 18 38  1  0
 18 39  1  0
 18 40  1  0
 19 41  1  0
 19 42  1  0
 19 43  1  0
M  CHG  1  13   1
M  END
>  <UniqueID>  (5) 
5

>  <SMILES>  (5) 
CCOCCOCCON1C(N)=[NH+]C(N)=NC1(C)C

>  <Energy>  (5) 
32.836145826713235

>  <Genealogy>  (5) 
CCOCCOCCON1C(N)=[NH+]C(N)=NC1(C)C (protonated)
CCOCCOCCON1C(N)=[NH+]C(N)=NC1(C)C (3D coordinates assigned)
CCOCCOCCON1C(N)=[NH+]C(N)=NC1(C)C (nonaromatic ring conformer: 32.836145826713235 kcal/mol)

>  <smiles>  (5) 
CCOCCOCCON1C(N)=NC(N)=NC1(C)C

>  <score_type>  (5) 
oracle

>  <origin>  (5) 
adg

>  <m_score__min__energy>  (5) 
-6.4900000000000002

>  <m_primary>  (5) 
energy

$$$$
5:0
     RDKit          3D

 54 56  0  0  0  0  0  0  0  0999 V2000
    0.6130   20.3530  -36.4120 C   0  0  0  0  0  0  0  0  0  0  0  0
    0.1810   21.6480  -35.7230 C   0  0  0  0  0  0  0  0  0  0  0  0
   -0.0540   21.4690  -34.2080 C   0  0  0  0  0  0  0  0  0  0  0  0
   -1.4770   21.5480  -33.8240 N   0  0  0  0  0  0  0  0  0  0  0  0
   -1.7430   20.9450  -32.5100 C   0  0  0  0  0  0  0  0  0  0  0  0
   -2.4940   21.9240  -31.5930 C   0  0  0  0  0  0  0  0  0  0  0  0
   -3.8800   22.3450  -32.1370 C   0  0  0  0  0  0  0  0  0  0  0  0
   -4.3210   21.5950  -33.3360 N   0  0  0  0  0  0  0  0  0  0  0  0
   -5.4600   20.7160  -33.0750 C   0  0  0  0  0  0  0  0  0  0  0  0
   -6.6600   21.3020  -32.5570 C   0  0  0  0  0  0  0  0  0  0  0  0
   -6.7860   22.7060  -32.3520 C   0  0  0  0  0  0  0  0  0  0  0  0
   -7.9650   23.2690  -31.8730 C   0  0  0  0  0  0  0  0  0  0  0  0
   -9.0580   22.4650  -31.6010 C   0  0  0  0  0  0  0  0  0  0  0  0
   -8.9700   21.0900  -31.7850 C   0  0  0  0  0  0  0  0  0  0  0  0
   -7.7690   20.4780  -32.2350 C   0  0  0  0  0  0  0  0  0  0  0  0
   -7.6810   19.1140  -32.3790 N   0  0  0  0  0  0  0  0  0  0  0  0
   -8.6870   18.2410  -31.7300 C   0  0  0  0  0  0  0  0  0  0  0  0
   -6.6550   18.5570  -33.1130 C   0  0  0  0  0  0  0  0  0  0  0  0
   -6.7770   17.2310  -33.5920 C   0  0  0  0  0  0  0  0  0  0  0  0
   -5.7530   16.6140  -34.2830 C   0  0  0  0  0  0  0  0  0  0  0  0
   -4.5650   17.2800  -34.4930 C   0  0  0  0  0  0  0  0  0  0  0  0
   -4.3810   18.6020  -34.0500 C   0  0  0  0  0  0  0  0  0  0  0  0
   -3.1120   19.1820  -34.1980 O   0  0  0  0  0  0  0  0  0  0  0  0
   -1.8850   18.4830  -34.4080 C   0  0  0  0  0  0  0  0  0  0  0  0
   -5.4720   19.3110  -33.4190 C   0  0  0  0  0  0  0  0  0  0  0  0
    0.8645   19.5992  -35.6514 H   0  0  0  0  0  0  0  0  0  0  0  0
   -0.2093   19.9799  -37.0401 H   0  0  0  0  0  0  0  0  0  0  0  0
    1.4946   20.5483  -37.0401 H   0  0  0  0  0  0  0  0  0  0  0  0
    0.9668   22.4035  -35.8700 H   0  0  0  0  0  0  0  0  0  0  0  0
   -0.7736   21.9599  -36.1720 H   0  0  0  0  0  0  0  0  0  0  0  0
    0.3342   20.4843  -33.9085 H   0  0  0  0  0  0  0  0  0  0  0  0
    0.4670   22.2928  -33.6982 H   0  0  0  0  0  0  0  0  0  0  0  0
   -2.0740   21.0890  -34.5500 H   0  0  0  0  0  0  0  0  0  0  0  0
   -2.3540   20.0406  -32.6469 H   0  0  0  0  0  0  0  0  0  0  0  0
   -0.7808   20.6943  -32.0396 H   0  0  0  0  0  0  0  0  0  0  0  0
   -2.6363   21.4434  -30.6138 H   0  0  0  0  0  0  0  0  0  0  0  0
   -1.8832   22.8365  -31.5271 H   0  0  0  0  0  0  0  0  0  0  0  0
   -4.6235   22.1895  -31.3413 H   0  0  0  0  0  0  0  0  0  0  0  0
   -3.7909   23.3984  -32.4411 H   0  0  0  0  0  0  0  0  0  0  0  0
   -3.5150   21.1720  -33.8210 H   0  0  0  0  0  0  0  0  0  0  0  0
   -4.6060   22.2790  -34.0720 H   0  0  0  0  0  0  0  0  0  0  0  0
   -5.9312   23.3605  -32.5776 H   0  0  0  0  0  0  0  0  0  0  0  0
   -8.0283   24.3551  -31.7103 H   0  0  0  0  0  0  0  0  0  0  0  0
   -9.9952   22.9134  -31.2397 H   0  0  0  0  0  0  0  0  0  0  0  0
   -9.8490   20.4620  -31.5778 H   0  0  0  0  0  0  0  0  0  0  0  0
   -8.5929   18.3227  -30.6371 H   0  0  0  0  0  0  0  0  0  0  0  0
   -9.6962   18.5544  -32.0355 H   0  0  0  0  0  0  0  0  0  0  0  0
   -8.5188   17.1978  -32.0355 H   0  0  0  0  0  0  0  0  0  0  0  0
   -7.7104   16.6783  -33.4094 H   0  0  0  0  0  0  0  0  0  0  0  0
   -5.8855   15.5913  -34.6657 H   0  0  0  0  0  0  0  0  0  0  0  0
   -3.7448   16.7677  -35.0172 H   0  0  0  0  0  0  0  0  0  0  0  0
   -1.4373   18.2280  -33.4361 H   0  0  0  0  0  0  0  0  0  0  0  0
   -2.0807   17.5608  -34.9748 H   0  0  0  0  0  0  0  0  0  0  0  0
   -1.1916   19.1216  -34.9748 H   0  0  0  0  0  0  0  0  0  0  0  0
  1  2  1  0
  2  3  1  0
  3  4  1  0
  4  5  1  0
  5  6  1  0
  6  7  1  0
  7  8  1  0
  8  9  1  0
  9 10  2  0
 10 11  1  0
 11 12  2  0
 12 13  1  0
 13 14  2  0
 14 15  1  0
 15 16  2  0
 16 17  1  0
 16 18  1  0
 18 19  2  0
 19 20  1  0
 20 21  2  0
 21 22  1  0
 22 23  1  0
 23 24  1  0
 22 25  2  0
 25  9  1  0
 15 10  1  0
 25 18  1  0
  1 26  1  0
  1 27  1  0
  1 28  1  0
  2 29  1  0
  2 30  1  0
  3 31  1  0
  3 32  1  0
  4 33  1  0
  5 34  1  0
  5 35  1  0
  6 36  1  0
  6 37  1  0
  7 38  1  0
  7 39  1  0
  8 40  1  0
  8 41  1  0
 11 42  1  0
 12 43  1  0
 13 44  1  0
 14 45  1  0
 17 46  1  0
 17 47  1  0
 17 48  1  0
 19 49  1  0
 20 50  1  0
 21 51  1  0
 24 52  1  0
 24 53  1  0
 24 54  1  0
M  CHG  2   8   1  16   1
M  END
>  <UniqueID>  (6) 
6

>  <SMILES>  (6) 
CCCNCCC[NH2+]c1c2ccccc2[n+](C)c2cccc(OC)c12

>  <Energy>  (6) 
93.79847987662788

>  <Genealogy>  (6) 
CCCNCCC[NH2+]c1c2ccccc2[n+](C)c2cccc(OC)c12 (protonated)
CCCNCCC[NH2+]c1c2ccccc2[n+](C)c2cccc(OC)c12 (3D coordinates assigned)
CCCNCCC[NH2+]c1c2ccccc2[n+](C)c2cccc(OC)c12 (optimized conformer: 93.79847987662788 kcal/mol)

>  <smiles>  (6) 
CCCNCCCNc1c2ccccc2[n+](C)c2cccc(OC)c12

>  <score_type>  (6) 
oracle

>  <origin>  (6) 
adg

>  <m_score__min__energy>  (6) 
-8.3499999999999996

>  <m_primary>  (6) 
energy

$$$$
6:0
     RDKit          3D

 54 56  0  0  0  0  0  0  0  0999 V2000
   -6.8410   16.0980  -34.2120 C   0  0  0  0  0  0  0  0  0  0  0  0
   -6.9500   17.0880  -33.0590 C   0  0  0  0  0  0  0  0  0  0  0  0
   -5.9520   18.1470  -33.2060 N   0  0  0  0  0  0  0  0  0  0  0  0
   -4.8040   18.0040  -33.8540 N   0  0  0  0  0  0  0  0  0  0  0  0
   -4.1430   19.1810  -33.8400 C   0  0  0  0  0  0  0  0  0  0  0  0
   -4.9180   20.1010  -33.1570 C   0  0  0  0  0  0  0  0  0  0  0  0
   -6.0480   19.4250  -32.7910 C   0  0  0  0  0  0  0  0  0  0  0  0
   -7.1590   20.0680  -32.0350 C   0  0  0  0  0  0  0  0  0  0  0  0
   -7.1330   21.5730  -32.3340 C   0  0  0  0  0  0  0  0  0  0  0  0
   -5.7900   22.1590  -32.0760 N   0  0  0  0  0  0  0  0  0  0  0  0
   -5.7920   23.6460  -32.0680 C   0  0  0  0  0  0  0  0  0  0  0  0
   -6.1230   24.3310  -30.7170 C   0  0  0  0  0  0  0  0  0  0  0  0
   -5.3670   25.6400  -30.4630 C   0  0  0  0  0  0  0  0  0  0  0  0
   -4.0250   25.5110  -30.8420 O   0  0  0  0  0  0  0  0  0  0  0  0
   -4.6360   21.5390  -32.8000 C   0  0  1  0  0  0  0  0  0  0  0  0
   -3.3380   21.6160  -31.9510 C   0  0  0  0  0  0  0  0  0  0  0  0
   -3.5590   21.7270  -30.4280 C   0  0  0  0  0  0  0  0  0  0  0  0
   -3.0890   23.0230  -29.8960 N   0  0  0  0  0  0  0  0  0  0  0  0
   -3.6860   23.2920  -28.5740 C   0  0  0  0  0  0  0  0  0  0  0  0
   -3.0660   24.5540  -27.9400 C   0  0  0  0  0  0  0  0  0  0  0  0
   -2.2720   25.2570  -28.8760 O   0  0  0  0  0  0  0  0  0  0  0  0
   -1.1750   24.4550  -29.2710 C   0  0  0  0  0  0  0  0  0  0  0  0
   -1.6190   23.0710  -29.7910 C   0  0  0  0  0  0  0  0  0  0  0  0
   -6.7289   15.0796  -33.8115 H   0  0  0  0  0  0  0  0  0  0  0  0
   -7.7505   16.1515  -34.8285 H   0  0  0  0  0  0  0  0  0  0  0  0
   -5.9650   16.3481  -34.8285 H   0  0  0  0  0  0  0  0  0  0  0  0
   -7.9555   17.5341  -33.0570 H   0  0  0  0  0  0  0  0  0  0  0  0
   -6.7727   16.5569  -32.1122 H   0  0  0  0  0  0  0  0  0  0  0  0
   -4.4740   17.1200  -34.3000 H   0  0  0  0  0  0  0  0  0  0  0  0
   -3.1594   19.3747  -34.2928 H   0  0  0  0  0  0  0  0  0  0  0  0
   -8.1218   19.6416  -32.3531 H   0  0  0  0  0  0  0  0  0  0  0  0
   -7.0365   19.8924  -30.9560 H   0  0  0  0  0  0  0  0  0  0  0  0
   -7.3949   21.7317  -33.3905 H   0  0  0  0  0  0  0  0  0  0  0  0
   -7.8578   22.0683  -31.6712 H   0  0  0  0  0  0  0  0  0  0  0  0
   -4.7916   23.9830  -32.3771 H   0  0  0  0  0  0  0  0  0  0  0  0
   -6.6043   23.9393  -32.7493 H   0  0  0  0  0  0  0  0  0  0  0  0
   -7.2012   24.5482  -30.6975 H   0  0  0  0  0  0  0  0  0  0  0  0
   -5.8093   23.6318  -29.9279 H   0  0  0  0  0  0  0  0  0  0  0  0
   -5.8327   26.4468  -31.0480 H   0  0  0  0  0  0  0  0  0  0  0  0
   -5.4132   25.8758  -29.3896 H   0  0  0  0  0  0  0  0  0  0  0  0
   -3.6940   24.6830  -30.4060 H   0  0  0  0  0  0  0  0  0  0  0  0
   -4.4932   22.1116  -33.7283 H   0  0  0  0  0  0  0  0  0  0  0  0
   -2.7494   20.7072  -32.1448 H   0  0  0  0  0  0  0  0  0  0  0  0
   -2.8269   22.5414  -32.2551 H   0  0  0  0  0  0  0  0  0  0  0  0
   -4.6335   21.6242  -30.2162 H   0  0  0  0  0  0  0  0  0  0  0  0
   -2.9805   20.9284  -29.9405 H   0  0  0  0  0  0  0  0  0  0  0  0
   -4.7693   23.4423  -28.6913 H   0  0  0  0  0  0  0  0  0  0  0  0
   -3.4878   22.4330  -27.9161 H   0  0  0  0  0  0  0  0  0  0  0  0
   -3.8735   25.2126  -27.5875 H   0  0  0  0  0  0  0  0  0  0  0  0
   -2.4252   24.2446  -27.1012 H   0  0  0  0  0  0  0  0  0  0  0  0
   -0.6269   24.9744  -30.0709 H   0  0  0  0  0  0  0  0  0  0  0  0
   -0.5396   24.2948  -28.3875 H   0  0  0  0  0  0  0  0  0  0  0  0
   -1.1764   22.8946  -30.7825 H   0  0  0  0  0  0  0  0  0  0  0  0
   -1.2802   22.2945  -29.0894 H   0  0  0  0  0  0  0  0  0  0  0  0
  1  2  1  0
  2  3  1  0
  3  4  1  0
  4  5  2  0
  5  6  1  0
  6  7  2  0
  7  8  1  0
  8  9  1  0
  9 10  1  0
 10 11  1  0
 11 12  1  0
 12 13  1  0
 13 14  1  0
 10 15  1  0
 15 16  1  0
 16 17  1  0
 17 18  1  0
 18 19  1  0
 19 20  1  0
 20 21  1  0
 21 22  1  0
 22 23  1  0
  7  3  1  0
 23 18  1  0
 15  6  1  0
  1 24  1  0
  1 25  1  0
  1 26  1  0
  2 27  1  0
  2 28  1  0
  4 29  1  0
  5 30  1  0
  8 31  1  0
  8 32  1  0
  9 33  1  0
  9 34  1  0
 11 35  1  0
 11 36  1  0
 12 37  1  0
 12 38  1  0
 13 39  1  0
 13 40  1  0
 14 41  1  0
 15 42  1  6
 16 43  1  0
 16 44  1  0
 17 45  1  0
 17 46  1  0
 19 47  1  0
 19 48  1  0
 20 49  1  0
 20 50  1  0
 22 51  1  0
 22 52  1  0
 23 53  1  0
 23 54  1  0
M  CHG  1   4   1
M  END
>  <UniqueID>  (7) 
7

>  <SMILES>  (7) 
CCn1[nH+]cc2c1CCN(CCCO)[C@H]2CCN1CCOCC1

>  <Energy>  (7) 
97.6151593001683

>  <Genealogy>  (7) 
CCn1[nH+]cc2c1CCN(CCCO)C2CCN1CCOCC1 (protonated)
CCn1[nH+]cc2c1CCN(CCCO)[C@H]2CCN1CCOCC1 (chirality)
CCn1[nH+]cc2c1CCN(CCCO)[C@H]2CCN1CCOCC1 (3D coordinates assigned)
CCn1[nH+]cc2c1CCN(CCCO)[C@H]2CCN1CCOCC1 (nonaromatic ring conformer: 97.6151593001683 kcal/mol)

>  <smiles>  (7) 
CCn1ncc2c1CCN(CCCO)C2CCN1CCOCC1

>  <score_type>  (7) 
oracle

>  <origin>  (7) 
adg

>  <m_score__min__energy>  (7) 
-7.9500000000000002

>  <m_primary>  (7) 
energy

$$$$
7:0
     RDKit          3D

 63 65  0  0  0  0  0  0  0  0999 V2000
   -6.1570   25.3890  -29.3820 C   0  0  0  0  0  0  0  0  0  0  0  0
   -5.3390   25.9980  -30.5160 C   0  0  0  0  0  0  0  0  0  0  0  0
   -4.0460   25.4250  -30.5490 O   0  0  0  0  0  0  0  0  0  0  0  0
   -3.9810   24.2980  -29.7000 C   0  0  0  0  0  0  0  0  0  0  0  0
   -2.9450   24.5410  -28.6100 C   0  0  0  0  0  0  0  0  0  0  0  0
   -1.7080   24.8720  -29.2060 O   0  0  0  0  0  0  0  0  0  0  0  0
   -0.7910   23.8190  -29.0010 C   0  0  0  0  0  0  0  0  0  0  0  0
   -1.4750   22.4910  -29.3220 C   0  0  0  0  0  0  0  0  0  0  0  0
   -1.4680   22.2560  -30.7180 O   0  0  0  0  0  0  0  0  0  0  0  0
   -2.5450   21.4250  -31.1090 C   0  0  0  0  0  0  0  0  0  0  0  0
   -2.2580   20.7900  -32.4710 C   0  0  0  0  0  0  0  0  0  0  0  0
   -3.3440   21.0640  -33.4120 N   0  0  0  0  0  0  0  0  0  0  0  0
   -4.6750   20.5660  -33.2020 C   0  0  0  0  0  0  0  0  0  0  0  0
   -4.9610   19.2160  -33.4410 C   0  0  0  0  0  0  0  0  0  0  0  0
   -6.2400   18.7060  -33.1500 C   0  0  0  0  0  0  0  0  0  0  0  0
   -7.2590   19.5470  -32.7380 N   0  0  0  0  0  0  0  0  0  0  0  0
   -8.6460   19.0320  -32.6490 C   0  0  0  0  0  0  0  0  0  0  0  0
   -8.9740   18.5780  -31.2270 C   0  0  0  0  0  0  0  0  0  0  0  0
   -6.9830   20.8770  -32.4570 C   0  0  0  0  0  0  0  0  0  0  0  0
   -7.9520   21.7460  -31.8880 C   0  0  0  0  0  0  0  0  0  0  0  0
   -7.6750   23.0950  -31.6680 C   0  0  0  0  0  0  0  0  0  0  0  0
   -6.4320   23.6180  -32.0020 C   0  0  0  0  0  0  0  0  0  0  0  0
   -5.4450   22.7870  -32.5250 C   0  0  0  0  0  0  0  0  0  0  0  0
   -5.6910   21.4120  -32.7250 C   0  0  0  0  0  0  0  0  0  0  0  0
   -6.3750   17.1890  -33.2310 C   0  0  0  0  0  0  0  0  0  0  0  0
   -5.8350   16.6590  -34.5680 C   0  0  0  0  0  0  0  0  0  0  0  0
   -4.5020   17.3110  -35.0070 C   0  0  0  0  0  0  0  0  0  0  0  0
   -3.9030   18.2590  -33.9560 C   0  0  0  0  0  0  0  0  0  0  0  0
   -5.7351   25.7031  -28.4159 H   0  0  0  0  0  0  0  0  0  0  0  0
   -7.1993   25.7327  -29.4561 H   0  0  0  0  0  0  0  0  0  0  0  0
   -6.1266   24.2919  -29.4561 H   0  0  0  0  0  0  0  0  0  0  0  0
   -5.8459   25.8061  -31.4732 H   0  0  0  0  0  0  0  0  0  0  0  0
   -5.2470   27.0815  -30.3500 H   0  0  0  0  0  0  0  0  0  0  0  0
   -4.9654   24.1293  -29.2389 H   0  0  0  0  0  0  0  0  0  0  0  0
   -3.6940   23.4132  -30.2872 H   0  0  0  0  0  0  0  0  0  0  0  0
   -3.2761   25.3696  -27.9667 H   0  0  0  0  0  0  0  0  0  0  0  0
   -2.8293   23.6312  -28.0027 H   0  0  0  0  0  0  0  0  0  0  0  0
    0.0788   23.9543  -29.6607 H   0  0  0  0  0  0  0  0  0  0  0  0
   -0.4546   23.8190  -27.9537 H   0  0  0  0  0  0  0  0  0  0  0  0
   -0.9389   21.6754  -28.8147 H   0  0  0  0  0  0  0  0  0  0  0  0
   -2.5173   22.5334  -28.9730 H   0  0  0  0  0  0  0  0  0  0  0  0
   -2.6813   20.6311  -30.3599 H   0  0  0  0  0  0  0  0  0  0  0  0
   -3.4582   22.0338  -31.1832 H   0  0  0  0  0  0  0  0  0  0  0  0
   -1.3209   21.2041  -32.8715 H   0  0  0  0  0  0  0  0  0  0  0  0
   -2.1711   19.7012  -32.3407 H   0  0  0  0  0  0  0  0  0  0  0  0
   -3.1480   21.6300  -34.2680 H   0  0  0  0  0  0  0  0  0  0  0  0
   -9.3448   19.8295  -32.9417 H   0  0  0  0  0  0  0  0  0  0  0  0
   -8.7417   18.1677  -33.3226 H   0  0  0  0  0  0  0  0  0  0  0  0
   -8.4876   19.2512  -30.5058 H   0  0  0  0  0  0  0  0  0  0  0  0
  -10.0633   18.6040  -31.0759 H   0  0  0  0  0  0  0  0  0  0  0  0
   -8.6072   17.5520  -31.0759 H   0  0  0  0  0  0  0  0  0  0  0  0
   -8.9402   21.3471  -31.6156 H   0  0  0  0  0  0  0  0  0  0  0  0
   -8.4437   23.7475  -31.2283 H   0  0  0  0  0  0  0  0  0  0  0  0
   -6.2277   24.6886  -31.8532 H   0  0  0  0  0  0  0  0  0  0  0  0
   -4.4622   23.2071  -32.7853 H   0  0  0  0  0  0  0  0  0  0  0  0
   -5.8065   16.7327  -32.4072 H   0  0  0  0  0  0  0  0  0  0  0  0
   -7.4407   16.9274  -33.1550 H   0  0  0  0  0  0  0  0  0  0  0  0
   -5.6755   15.5749  -34.4721 H   0  0  0  0  0  0  0  0  0  0  0  0
   -6.5816   16.9090  -35.3362 H   0  0  0  0  0  0  0  0  0  0  0  0
   -3.7740   16.5114  -35.2086 H   0  0  0  0  0  0  0  0  0  0  0  0
   -4.7185   17.9160  -35.8998 H   0  0  0  0  0  0  0  0  0  0  0  0
   -3.5104   17.6670  -33.1161 H   0  0  0  0  0  0  0  0  0  0  0  0
   -3.0930   18.8401  -34.4209 H   0  0  0  0  0  0  0  0  0  0  0  0
  1  2  1  0
  2  3  1  0
  3  4  1  0
  4  5  1  0
  5  6  1  0
  6  7  1  0
  7  8  1  0
  8  9  1  0
  9 10  1  0
 10 11  1  0
 11 12  1  0
 12 13  1  0
 13 14  2  0
 14 15  1  0
 15 16  2  0
 16 17  1  0
 17 18  1  0
 16 19  1  0
 19 20  2  0
 20 21  1  0
 21 22  2  0
 22 23  1  0
 23 24  2  0
 15 25  1  0
 25 26  1  0
 26 27  1  0
 27 28  1  0
 24 13  1  0
 28 14  1  0
 24 19  1  0
  1 29  1  0
  1 30  1  0
  1 31  1  0
  2 32  1  0
  2 33  1  0
  4 34  1  0
  4 35  1  0
  5 36  1  0
  5 37  1  0
  7 38  1  0
  7 39  1  0
  8 40  1  0
  8 41  1  0
 10 42  1  0
 10 43  1  0
 11 44  1  0
 11 45  1  0
 12 46  1  0
 17 47  1  0
 17 48  1  0
 18 49  1  0
 18 50  1  0
 18 51  1  0
 20 52  1  0
 21 53  1  0
 22 54  1  0
 23 55  1  0
 25 56  1  0
 25 57  1  0
 26 58  1  0
 26 59  1  0
 27 60  1  0
 27 61  1  0
 28 62  1  0
 28 63  1  0
M  CHG  1  16   1
M  END
>  <UniqueID>  (8) 
8

>  <SMILES>  (8) 
CCOCCOCCOCCNc1c2c([n+](CC)c3ccccc13)CCCC2

>  <Energy>  (8) 
84.71294015621562

>  <Genealogy>  (8) 
CCOCCOCCOCCNc1c2c([n+](CC)c3ccccc13)CCCC2 (3D coordinates assigned)
CCOCCOCCOCCNc1c2c([n+](CC)c3ccccc13)CCCC2 (nonaromatic ring conformer: 84.71294015621562 kcal/mol)

>  <smiles>  (8) 
CCOCCOCCOCCNc1c2c([n+](CC)c3ccccc13)CCCC2

>  <score_type>  (8) 
oracle

>  <origin>  (8) 
adg

>  <m_score__min__energy>  (8) 
-9.1400000000000006

>  <m_primary>  (8) 
energy

$$$$
8:0
     RDKit          3D

 37 37  0  0  0  0  0  0  0  0999 V2000
   -2.9230   25.3570  -25.9560 C   0  0  0  0  0  0  0  0  0  0  0  0
   -4.3300   24.9260  -26.3660 C   0  0  0  0  0  0  0  0  0  0  0  0
   -4.3670   24.5330  -27.7840 N   0  0  0  0  0  0  0  0  0  0  0  0
   -3.5980   23.3040  -28.0540 C   0  0  0  0  0  0  0  0  0  0  0  0
   -3.0130   23.2180  -29.4810 C   0  0  0  0  0  0  0  0  0  0  0  0
   -4.0330   23.4860  -30.5920 C   0  0  0  0  0  0  0  0  0  0  0  0
   -4.7760   24.6500  -30.2930 O   0  0  0  0  0  0  0  0  0  0  0  0
   -6.1040   24.5290  -30.7670 C   0  0  0  0  0  0  0  0  0  0  0  0
   -6.1220   23.7820  -32.1030 C   0  0  0  0  0  0  0  0  0  0  0  0
   -7.0430   22.5940  -32.0370 C   0  0  0  0  0  0  0  0  0  0  0  0
   -6.6070   21.3320  -32.4740 C   0  0  0  0  0  0  0  0  0  0  0  0
   -7.4750   20.2360  -32.4410 C   0  0  0  0  0  0  0  0  0  0  0  0
   -8.7850   20.3950  -31.9810 C   0  0  0  0  0  0  0  0  0  0  0  0
   -9.2310   21.6500  -31.5580 C   0  0  0  0  0  0  0  0  0  0  0  0
   -8.3660   22.7480  -31.5890 C   0  0  0  0  0  0  0  0  0  0  0  0
   -2.8514   25.3789  -24.8585 H   0  0  0  0  0  0  0  0  0  0  0  0
   -2.1891   24.6425  -26.3571 H   0  0  0  0  0  0  0  0  0  0  0  0
   -2.7153   26.3600  -26.3571 H   0  0  0  0  0  0  0  0  0  0  0  0
   -4.6393   24.0708  -25.7471 H   0  0  0  0  0  0  0  0  0  0  0  0
   -5.0143   25.7746  -26.2187 H   0  0  0  0  0  0  0  0  0  0  0  0
   -5.3610   24.3410  -28.0520 H   0  0  0  0  0  0  0  0  0  0  0  0
   -4.0260   25.3170  -28.3860 H   0  0  0  0  0  0  0  0  0  0  0  0
   -2.7651   23.2549  -27.3372 H   0  0  0  0  0  0  0  0  0  0  0  0
   -4.3016   22.4646  -27.9520 H   0  0  0  0  0  0  0  0  0  0  0  0
   -2.2045   23.9588  -29.5682 H   0  0  0  0  0  0  0  0  0  0  0  0
   -2.6594   22.1854  -29.6173 H   0  0  0  0  0  0  0  0  0  0  0  0
   -3.5043   23.6261  -31.5464 H   0  0  0  0  0  0  0  0  0  0  0  0
   -4.7183   22.6290  -30.6685 H   0  0  0  0  0  0  0  0  0  0  0  0
   -6.7032   23.9724  -30.0313 H   0  0  0  0  0  0  0  0  0  0  0  0
   -6.5266   25.5342  -30.9119 H   0  0  0  0  0  0  0  0  0  0  0  0
   -6.4689   24.4641  -32.8932 H   0  0  0  0  0  0  0  0  0  0  0  0
   -5.1041   23.4279  -32.3234 H   0  0  0  0  0  0  0  0  0  0  0  0
   -5.5787   21.2054  -32.8436 H   0  0  0  0  0  0  0  0  0  0  0  0
   -7.1265   19.2484  -32.7773 H   0  0  0  0  0  0  0  0  0  0  0  0
   -9.4657   19.5314  -31.9519 H   0  0  0  0  0  0  0  0  0  0  0  0
  -10.2638   21.7741  -31.2002 H   0  0  0  0  0  0  0  0  0  0  0  0
   -8.7223   23.7358  -31.2616 H   0  0  0  0  0  0  0  0  0  0  0  0
  1  2  1  0
  2  3  1  0
  3  4  1  0
  4  5  1  0
  5  6  1  0
  6  7  1  0
  7  8  1  0
  8  9  1  0
  9 10  1  0
 10 11  2  0
 11 12  1  0
 12 13  2  0
 13 14  1  0
 14 15  2  0
 15 10  1  0
  1 16  1  0
  1 17  1  0
  1 18  1  0
  2 19  1  0
  2 20  1  0
  3 21  1  0
  3 22  1  0
  4 23  1  0
  4 24  1  0
  5 25  1  0
  5 26  1  0
  6 27  1  0
  6 28  1  0
  8 29  1  0
  8 30  1  0
  9 31  1  0
  9 32  1  0
 11 33  1  0
 12 34  1  0
 13 35  1  0
 14 36  1  0
 15 37  1  0
M  CHG  1   3   1
M  END
>  <UniqueID>  (9) 
9

>  <SMILES>  (9) 
CC[NH2+]CCCOCCc1ccccc1

>  <Energy>  (9) 
28.701155672746737

>  <Genealogy>  (9) 
CC[NH2+]CCCOCCc1ccccc1 (protonated)
CC[NH2+]CCCOCCc1ccccc1 (3D coordinates assigned)
CC[NH2+]CCCOCCc1ccccc1 (optimized conformer: 28.701155672746737 kcal/mol)

>  <smiles>  (9) 
CCNCCCOCCc1ccccc1

>  <score_type>  (9) 
oracle

>  <origin>  (9) 
adg

>  <m_score__min__energy>  (9) 
-5.3399999999999999

>  <m_primary>  (9) 
energy

$$$$
9:0
     RDKit          3D

 89 93  0  0  0  0  0  0  0  0999 V2000
   -5.7250   25.6050  -30.4900 C   0  0  0  0  0  0  0  0  0  0  0  0
   -5.3540   24.5850  -29.4140 C   0  0  0  0  0  0  0  0  0  0  0  0
   -4.1730   23.8030  -29.8170 N   0  0  0  0  0  0  0  0  0  0  0  0
   -4.1530   23.2670  -31.1890 C   0  0  0  0  0  0  0  0  0  0  0  0
   -3.5090   21.8700  -31.2080 C   0  0  0  0  0  0  0  0  0  0  0  0
   -3.4370   21.2630  -32.6180 C   0  0  0  0  0  0  0  0  0  0  0  0
   -4.5990   21.6320  -33.4440 N   0  0  0  0  0  0  0  0  0  0  0  0
   -5.7510   20.8220  -33.0800 C   0  0  0  0  0  0  0  0  0  0  0  0
   -6.9340   21.4270  -32.5750 C   0  0  0  0  0  0  0  0  0  0  0  0
   -7.0980   22.8340  -32.5490 C   0  0  0  0  0  0  0  0  0  0  0  0
   -8.2690   23.4130  -32.0620 C   0  0  0  0  0  0  0  0  0  0  0  0
   -9.3080   22.6120  -31.6100 C   0  0  0  0  0  0  0  0  0  0  0  0
   -9.1820   21.2260  -31.6370 C   0  0  0  0  0  0  0  0  0  0  0  0
   -7.9940   20.6040  -32.1020 C   0  0  0  0  0  0  0  0  0  0  0  0
   -7.8750   19.2290  -32.1360 N   0  0  0  0  0  0  0  0  0  0  0  0
   -8.8260   18.3820  -31.3830 C   0  0  0  0  0  0  0  0  0  0  0  0
   -6.8640   18.6440  -32.8690 C   0  0  0  0  0  0  0  0  0  0  0  0
   -6.9170   17.2740  -33.2330 C   0  0  0  0  0  0  0  0  0  0  0  0
   -5.8770   16.6560  -33.9260 C   0  0  0  0  0  0  0  0  0  0  0  0
   -6.0360   15.3110  -34.2950 O   0  0  0  0  0  0  0  0  0  0  0  0
   -4.9880   14.3980  -34.6310 C   0  0  0  0  0  0  0  0  0  0  0  0
   -4.0940   14.1460  -33.3930 C   0  0  0  0  0  0  0  0  0  0  0  0
   -3.0760   13.0470  -33.5170 N   0  0  0  0  0  0  0  0  0  0  0  0
   -3.4270   12.1630  -34.6640 C   0  0  0  0  0  0  0  0  0  0  0  0
   -1.7490   13.6910  -33.8160 C   0  0  0  0  0  0  0  0  0  0  0  0
   -0.5580   12.8940  -33.2480 C   0  0  0  0  0  0  0  0  0  0  0  0
   -0.6050   12.7960  -31.7540 N   0  0  0  0  0  0  0  0  0  0  0  0
    0.1270   13.9390  -31.1540 C   0  0  0  0  0  0  0  0  0  0  0  0
    0.0800   11.5480  -31.3350 C   0  0  0  0  0  0  0  0  0  0  0  0
   -2.0120   12.7950  -31.2400 C   0  0  0  0  0  0  0  0  0  0  0  0
   -3.0020   12.2160  -32.2680 C   0  0  0  0  0  0  0  0  0  0  0  0
   -4.7520   17.4090  -34.2730 C   0  0  0  0  0  0  0  0  0  0  0  0
   -4.6960   18.7680  -33.9800 C   0  0  0  0  0  0  0  0  0  0  0  0
   -5.7540   19.4190  -33.3030 C   0  0  0  0  0  0  0  0  0  0  0  0
   -3.0260   23.6470  -28.9300 C   0  0  0  0  0  0  0  0  0  0  0  0
   -1.9490   24.5650  -28.9570 C   0  0  0  0  0  0  0  0  0  0  0  0
   -0.8460   24.4030  -28.1160 C   0  0  0  0  0  0  0  0  0  0  0  0
   -0.7950   23.3360  -27.2230 C   0  0  0  0  0  0  0  0  0  0  0  0
   -1.8500   22.4260  -27.1640 C   0  0  0  0  0  0  0  0  0  0  0  0
   -2.9540   22.5750  -28.0100 C   0  0  0  0  0  0  0  0  0  0  0  0
   -6.0636   26.5359  -30.0116 H   0  0  0  0  0  0  0  0  0  0  0  0
   -4.8452   25.8136  -31.1164 H   0  0  0  0  0  0  0  0  0  0  0  0
   -6.5333   25.1996  -31.1164 H   0  0  0  0  0  0  0  0  0  0  0  0
   -5.1321   25.1153  -28.4761 H   0  0  0  0  0  0  0  0  0  0  0  0
   -6.2008   23.8968  -29.2748 H   0  0  0  0  0  0  0  0  0  0  0  0
   -5.1840   23.1963  -31.5659 H   0  0  0  0  0  0  0  0  0  0  0  0
   -3.5633   23.9412  -31.8276 H   0  0  0  0  0  0  0  0  0  0  0  0
   -2.4876   21.9491  -30.8075 H   0  0  0  0  0  0  0  0  0  0  0  0
   -4.1391   21.2081  -30.5958 H   0  0  0  0  0  0  0  0  0  0  0  0
   -2.5227   21.6233  -33.1122 H   0  0  0  0  0  0  0  0  0  0  0  0
   -3.4317   20.1680  -32.5137 H   0  0  0  0  0  0  0  0  0  0  0  0
   -4.3750   21.5330  -34.4610 H   0  0  0  0  0  0  0  0  0  0  0  0
   -4.8230   22.6450  -33.3430 H   0  0  0  0  0  0  0  0  0  0  0  0
   -6.2883   23.4801  -32.9191 H   0  0  0  0  0  0  0  0  0  0  0  0
   -8.3696   24.5081  -32.0360 H   0  0  0  0  0  0  0  0  0  0  0  0
  -10.2319   23.0726  -31.2301 H   0  0  0  0  0  0  0  0  0  0  0  0
  -10.0188   20.6011  -31.2915 H   0  0  0  0  0  0  0  0  0  0  0  0
   -8.6675   18.5232  -30.3037 H   0  0  0  0  0  0  0  0  0  0  0  0
   -9.8561   18.6672  -31.6427 H   0  0  0  0  0  0  0  0  0  0  0  0
   -8.6614   17.3258  -31.6427 H   0  0  0  0  0  0  0  0  0  0  0  0
   -7.8036   16.6826  -32.9608 H   0  0  0  0  0  0  0  0  0  0  0  0
   -5.4264   13.4459  -34.9646 H   0  0  0  0  0  0  0  0  0  0  0  0
   -4.3770   14.8282  -35.4382 H   0  0  0  0  0  0  0  0  0  0  0  0
   -3.5543   15.0792  -33.1743 H   0  0  0  0  0  0  0  0  0  0  0  0
   -4.7807   13.8202  -32.5978 H   0  0  0  0  0  0  0  0  0  0  0  0
   -3.8080   11.2035  -34.2843 H   0  0  0  0  0  0  0  0  0  0  0  0
   -4.2008   12.6479  -35.2773 H   0  0  0  0  0  0  0  0  0  0  0  0
   -2.5313   11.9850  -35.2773 H   0  0  0  0  0  0  0  0  0  0  0  0
   -1.6329   13.7670  -34.9072 H   0  0  0  0  0  0  0  0  0  0  0  0
   -1.7450   14.6807  -33.3359 H   0  0  0  0  0  0  0  0  0  0  0  0
   -0.5772   11.8786  -33.6706 H   0  0  0  0  0  0  0  0  0  0  0  0
    0.3657   13.4242  -33.5232 H   0  0  0  0  0  0  0  0  0  0  0  0
    0.0817   13.8683  -30.0572 H   0  0  0  0  0  0  0  0  0  0  0  0
    1.1773   13.9136  -31.4800 H   0  0  0  0  0  0  0  0  0  0  0  0
   -0.3354   14.8823  -31.4800 H   0  0  0  0  0  0  0  0  0  0  0  0
    0.1084   11.4963  -30.2366 H   0  0  0  0  0  0  0  0  0  0  0  0
   -0.4676   10.6791  -31.7289 H   0  0  0  0  0  0  0  0  0  0  0  0
    1.1070   11.5435  -31.7289 H   0  0  0  0  0  0  0  0  0  0  0  0
   -2.0550   12.1871  -30.3243 H   0  0  0  0  0  0  0  0  0  0  0  0
   -2.3011   13.8373  -31.0399 H   0  0  0  0  0  0  0  0  0  0  0  0
   -2.6784   11.1998  -32.5376 H   0  0  0  0  0  0  0  0  0  0  0  0
   -4.0010   12.2099  -31.8075 H   0  0  0  0  0  0  0  0  0  0  0  0
   -3.9053   16.9242  -34.7810 H   0  0  0  0  0  0  0  0  0  0  0  0
   -3.8111   19.3480  -34.2809 H   0  0  0  0  0  0  0  0  0  0  0  0
   -1.9813   25.4183  -29.6504 H   0  0  0  0  0  0  0  0  0  0  0  0
   -0.0140   25.1213  -28.1592 H   0  0  0  0  0  0  0  0  0  0  0  0
    0.0771   23.2109  -26.5643 H   0  0  0  0  0  0  0  0  0  0  0  0
   -1.8140   21.5893  -26.4508 H   0  0  0  0  0  0  0  0  0  0  0  0
   -3.7780   21.8481  -27.9591 H   0  0  0  0  0  0  0  0  0  0  0  0
  1  2  1  0
  2  3  1  0
  3  4  1  0
  4  5  1  0
  5  6  1  0
  6  7  1  0
  7  8  1  0
  8  9  1  0
  9 10  2  0
 10 11  1  0
 11 12  2  0
 12 13  1  0
 13 14  2  0
 14 15  1  0
 15 16  1  0
 15 17  2  0
 17 18  1  0
 18 19  2  0
 19 20  1  0
 20 21  1  0
 21 22  1  0
 22 23  1  0
 23 24  1  0
 23 25  1  0
 25 26  1  0
 26 27  1  0
 27 28  1  0
 27 29  1  0
 27 30  1  0
 30 31  1  0
 19 32  1  0
 32 33  2  0
 33 34  1  0
  3 35  1  0
 35 36  2  0
 36 37  1  0
 37 38  2  0
 38 39  1  0
 39 40  2  0
 34  8  2  0
 40 35  1  0
 14  9  1  0
 34 17  1  0
 31 23  1  0
  1 41  1  0
  1 42  1  0
  1 43  1  0
  2 44  1  0
  2 45  1  0
  4 46  1  0
  4 47  1  0
  5 48  1  0
  5 49  1  0
  6 50  1  0
  6 51  1  0
  7 52  1  0
  7 53  1  0
 10 54  1  0
 11 55  1  0
 12 56  1  0
 13 57  1  0
 16 58  1  0
 16 59  1  0
 16 60  1  0
 18 61  1  0
 21 62  1  0
 21 63  1  0
 22 64  1  0
 22 65  1  0
 24 66  1  0
 24 67  1  0
 24 68  1  0
 25 69  1  0
 25 70  1  0
 26 71  1  0
 26 72  1  0
 28 73  1  0
 28 74  1  0
 28 75  1  0
 29 76  1  0
 29 77  1  0
 29 78  1  0
 30 79  1  0
 30 80  1  0
 31 81  1  0
 31 82  1  0
 32 83  1  0
 33 84  1  0
 36 85  1  0
 37 86  1  0
 38 87  1  0
 39 88  1  0
 40 89  1  0
M  CHG  4   7   1  15   1  23   1  27   1
M  END
>  <UniqueID>  (10) 
10

>  <SMILES>  (10) 
CCN(CCC[NH2+]c1c2ccccc2[n+](C)c2cc(OCC[N+]3(C)CC[N+](C)(C)CC3)ccc12)c1ccccc1

>  <Energy>  (10) 
150.60860797932173

>  <Genealogy>  (10) 
CCN(CCC[NH2+]c1c2ccccc2[n+](C)c2cc(OCC[N+]3(C)CC[N+](C)(C)CC3)ccc12)c1ccccc1 (protonated)
CCN(CCC[NH2+]c1c2ccccc2[n+](C)c2cc(OCC[N+]3(C)CC[N+](C)(C)CC3)ccc12)c1ccccc1 (3D coordinates assigned)
CCN(CCC[NH2+]c1c2ccccc2[n+](C)c2cc(OCC[N+]3(C)CC[N+](C)(C)CC3)ccc12)c1ccccc1 (nonaromatic ring conformer: 150.60860797932173 kcal/mol)

>  <smiles>  (10) 
CCN(CCCNc1c2ccccc2[n+](C)c2cc(OCC[N+]3(C)CC[N+](C)(C)CC3)ccc12)c1ccccc1

>  <score_type>  (10) 
oracle

>  <origin>  (10) 
adg

>  <m_score__min__energy>  (10) 
-8.1699999999999999

>  <m_primary>  (10) 
energy

$$$$
10:0
     RDKit          3D

 39 40  0  0  0  0  0  0  0  0999 V2000
   -8.1690   22.9620  -31.6240 C   0  0  0  0  0  0  0  0  0  0  0  0
   -7.0550   23.7410  -31.0830 C   0  0  0  0  0  0  0  0  0  0  0  0
   -6.1360   24.3810  -30.6380 C   0  0  0  0  0  0  0  0  0  0  0  0
   -5.0160   25.1600  -30.0970 C   0  0  0  0  0  0  0  0  0  0  0  0
   -3.8220   24.8380  -30.7810 O   0  0  0  0  0  0  0  0  0  0  0  0
   -3.3880   23.5240  -30.4690 C   0  0  0  0  0  0  0  0  0  0  0  0
   -2.2490   23.5590  -29.4450 C   0  0  0  0  0  0  0  0  0  0  0  0
   -1.9560   24.9340  -29.0330 N   0  0  0  0  0  0  0  0  0  0  0  0
   -1.5560   25.3280  -27.7060 C   0  0  0  0  0  0  0  0  0  0  0  0
   -2.5220   25.3740  -26.6890 C   0  0  0  0  0  0  0  0  0  0  0  0
   -2.1710   25.7440  -25.3900 C   0  0  0  0  0  0  0  0  0  0  0  0
   -0.8440   26.0640  -25.0760 C   0  0  0  0  0  0  0  0  0  0  0  0
    0.1340   26.0430  -26.0920 C   0  0  0  0  0  0  0  0  0  0  0  0
   -0.2220   25.6560  -27.3930 C   0  0  0  0  0  0  0  0  0  0  0  0
    1.5790   26.3390  -25.7800 C   0  0  0  0  0  0  0  0  0  0  0  0
    1.7380   27.0630  -24.4390 C   0  0  0  0  0  0  0  0  0  0  0  0
    0.9390   26.4050  -23.3970 N   0  0  0  0  0  0  0  0  0  0  0  0
   -0.4990   26.5250  -23.6790 C   0  0  0  0  0  0  0  0  0  0  0  0
   -8.7625   22.5470  -30.7960 H   0  0  0  0  0  0  0  0  0  0  0  0
   -8.8057   23.6127  -32.2414 H   0  0  0  0  0  0  0  0  0  0  0  0
   -7.7764   22.1406  -32.2414 H   0  0  0  0  0  0  0  0  0  0  0  0
   -5.2269   26.2326  -30.2194 H   0  0  0  0  0  0  0  0  0  0  0  0
   -4.8943   24.9204  -29.0303 H   0  0  0  0  0  0  0  0  0  0  0  0
   -4.2315   22.9546  -30.0516 H   0  0  0  0  0  0  0  0  0  0  0  0
   -3.0221   23.0445  -31.3889 H   0  0  0  0  0  0  0  0  0  0  0  0
   -2.5417   22.9732  -28.5612 H   0  0  0  0  0  0  0  0  0  0  0  0
   -1.3474   23.1322  -29.9087 H   0  0  0  0  0  0  0  0  0  0  0  0
   -2.0390   25.6750  -29.7660 H   0  0  0  0  0  0  0  0  0  0  0  0
   -3.5664   25.1158  -26.9181 H   0  0  0  0  0  0  0  0  0  0  0  0
   -2.9423   25.7846  -24.6068 H   0  0  0  0  0  0  0  0  0  0  0  0
    0.5485   25.6082  -28.1767 H   0  0  0  0  0  0  0  0  0  0  0  0
    2.1355   25.3910  -25.7404 H   0  0  0  0  0  0  0  0  0  0  0  0
    1.9704   26.9963  -26.5704 H   0  0  0  0  0  0  0  0  0  0  0  0
    2.7977   27.0492  -24.1444 H   0  0  0  0  0  0  0  0  0  0  0  0
    1.3874   28.0995  -24.5524 H   0  0  0  0  0  0  0  0  0  0  0  0
    1.1400   26.8630  -22.4770 H   0  0  0  0  0  0  0  0  0  0  0  0
    1.2040   25.3930  -23.3270 H   0  0  0  0  0  0  0  0  0  0  0  0
   -1.0550   25.9109  -22.9553 H   0  0  0  0  0  0  0  0  0  0  0  0
   -0.7735   27.5869  -23.5949 H   0  0  0  0  0  0  0  0  0  0  0  0
  1  2  1  0
  2  3  3  0
  3  4  1  0
  4  5  1  0
  5  6  1  0
  6  7  1  0
  7  8  1  0
  8  9  1  0
  9 10  2  0
 10 11  1  0
 11 12  2  0
 12 13  1  0
 13 14  2  0
 13 15  1  0
 15 16  1  0
 16 17  1  0
 17 18  1  0
 14  9  1  0
 18 12  1  0
  1 19  1  0
  1 20  1  0
  1 21  1  0
  4 22  1  0
  4 23  1  0
  6 24  1  0
  6 25  1  0
  7 26  1  0
  7 27  1  0
  8 28  1  0
 10 29  1  0
 11 30  1  0
 14 31  1  0
 15 32  1  0
 15 33  1  0
 16 34  1  0
 16 35  1  0
 17 36  1  0
 17 37  1  0
 18 38  1  0
 18 39  1  0
M  CHG  1  17   1
M  END
>  <UniqueID>  (11) 
11

>  <SMILES>  (11) 
CC#CCOCCNc1ccc2c(c1)CC[NH2+]C2

>  <Energy>  (11) 
35.01016398910984

>  <Genealogy>  (11) 
CC#CCOCCNc1ccc2c(c1)CC[NH2+]C2 (protonated)
CC#CCOCCNc1ccc2c(c1)CC[NH2+]C2 (3D coordinates assigned)
CC#CCOCCNc1ccc2c(c1)CC[NH2+]C2 (nonaromatic ring conformer: 35.01016398910984 kcal/mol)

>  <smiles>  (11) 
CC#CCOCCNc1ccc2c(c1)CCNC2

>  <score_type>  (11) 
oracle

>  <origin>  (11) 
adg

>  <m_score__min__energy>  (11) 
-8.1199999999999992

>  <m_primary>  (11) 
energy

$$$$
11:0
     RDKit          3D

 39 41  0  0  0  0  0  0  0  0999 V2000
   -8.1960   22.7340  -31.6940 C   0  0  0  0  0  0  0  0  0  0  0  0
   -6.9080   22.0970  -32.0410 N   0  0  0  0  0  0  0  0  0  0  0  0
   -5.7400   22.8360  -31.9950 C   0  0  0  0  0  0  0  0  0  0  0  0
   -5.6700   24.2150  -31.3520 C   0  0  0  0  0  0  0  0  0  0  0  0
   -4.2830   24.6940  -31.2180 N   0  0  0  0  0  0  0  0  0  0  0  0
   -3.7980   24.6870  -29.8250 C   0  0  0  0  0  0  0  0  0  0  0  0
   -3.2070   23.3560  -29.4250 C   0  0  0  0  0  0  0  0  0  0  0  0
   -2.2010   22.7640  -30.2060 C   0  0  0  0  0  0  0  0  0  0  0  0
   -1.6360   21.5440  -29.8200 C   0  0  0  0  0  0  0  0  0  0  0  0
   -2.0690   20.9110  -28.6510 C   0  0  0  0  0  0  0  0  0  0  0  0
   -3.0670   21.4960  -27.8670 C   0  0  0  0  0  0  0  0  0  0  0  0
   -3.6350   22.7140  -28.2510 C   0  0  0  0  0  0  0  0  0  0  0  0
   -4.5740   22.3310  -32.5880 C   0  0  0  0  0  0  0  0  0  0  0  0
   -4.5450   21.0420  -33.0980 C   0  0  0  0  0  0  0  0  0  0  0  0
   -3.4820   20.6110  -33.6250 O   0  0  0  0  0  0  0  0  0  0  0  0
   -5.6810   20.2290  -32.9950 C   0  0  0  0  0  0  0  0  0  0  0  0
   -5.6530   18.8910  -33.4370 C   0  0  0  0  0  0  0  0  0  0  0  0
   -6.7750   18.0750  -33.2940 C   0  0  0  0  0  0  0  0  0  0  0  0
   -6.7230   16.4080  -33.8370 Cl  0  0  0  0  0  0  0  0  0  0  0  0
   -7.9300   18.5780  -32.7000 C   0  0  0  0  0  0  0  0  0  0  0  0
   -7.9800   19.9050  -32.2660 C   0  0  0  0  0  0  0  0  0  0  0  0
   -6.8690   20.7690  -32.4290 C   0  0  0  0  0  0  0  0  0  0  0  0
   -8.2973   22.7841  -30.5998 H   0  0  0  0  0  0  0  0  0  0  0  0
   -8.2264   23.7510  -32.1120 H   0  0  0  0  0  0  0  0  0  0  0  0
   -9.0228   22.1409  -32.1120 H   0  0  0  0  0  0  0  0  0  0  0  0
   -6.2322   24.9260  -31.9752 H   0  0  0  0  0  0  0  0  0  0  0  0
   -6.1018   24.1408  -30.3430 H   0  0  0  0  0  0  0  0  0  0  0  0
   -4.2340   25.6710  -31.5890 H   0  0  0  0  0  0  0  0  0  0  0  0
   -3.0257   25.4628  -29.7165 H   0  0  0  0  0  0  0  0  0  0  0  0
   -4.6603   24.8802  -29.1699 H   0  0  0  0  0  0  0  0  0  0  0  0
   -1.8562   23.2615  -31.1245 H   0  0  0  0  0  0  0  0  0  0  0  0
   -0.8506   21.0824  -30.4365 H   0  0  0  0  0  0  0  0  0  0  0  0
   -1.6238   19.9518  -28.3482 H   0  0  0  0  0  0  0  0  0  0  0  0
   -3.4059   20.9975  -26.9469 H   0  0  0  0  0  0  0  0  0  0  0  0
   -4.4203   23.1717  -27.6315 H   0  0  0  0  0  0  0  0  0  0  0  0
   -3.6753   22.9624  -32.6491 H   0  0  0  0  0  0  0  0  0  0  0  0
   -4.7395   18.4873  -33.8981 H   0  0  0  0  0  0  0  0  0  0  0  0
   -8.8074   17.9270  -32.5719 H   0  0  0  0  0  0  0  0  0  0  0  0
   -8.8962   20.2849  -31.7903 H   0  0  0  0  0  0  0  0  0  0  0  0
  1  2  1  0
  2  3  1  0
  3  4  1  0
  4  5  1  0
  5  6  1  0
  6  7  1  0
  7  8  2  0
  8  9  1  0
  9 10  2  0
 10 11  1  0
 11 12  2  0
  3 13  2  0
 13 14  1  0
 14 15  2  0
 14 16  1  0
 16 17  2  0
 17 18  1  0
 18 19  1  0
 18 20  2  0
 20 21  1  0
 21 22  2  0
 22  2  1  0
 12  7  1  0
 22 16  1  0
  1 23  1  0
  1 24  1  0
  1 25  1  0
  4 26  1  0
  4 27  1  0
  5 28  1  0
  6 29  1  0
  6 30  1  0
  8 31  1  0
  9 32  1  0
 10 33  1  0
 11 34  1  0
 12 35  1  0
 13 36  1  0
 17 37  1  0
 20 38  1  0
 21 39  1  0
M  END
>  <UniqueID>  (12) 
12

>  <SMILES>  (12) 
Cn1c(CNCc2ccccc2)cc(=O)c2cc(Cl)ccc21

>  <Energy>  (12) 
56.9823341726183

>  <Genealogy>  (12) 
Cn1c(CNCc2ccccc2)cc(=O)c2cc(Cl)ccc21 (3D coordinates assigned)
Cn1c(CNCc2ccccc2)cc(=O)c2cc(Cl)ccc21 (optimized conformer: 56.9823341726183 kcal/mol)

>  <smiles>  (12) 
Cn1c(CNCc2ccccc2)cc(=O)c2cc(Cl)ccc21

>  <score_type>  (12) 
oracle

>  <origin>  (12) 
adg

>  <m_score__min__energy>  (12) 
-8.6899999999999995

>  <m_primary>  (12) 
energy

$$$$
12:0
     RDKit          3D

 53 55  0  0  0  0  0  0  0  0999 V2000
   -3.1890   24.1270  -28.7000 C   0  0  0  0  0  0  0  0  0  0  0  0
   -3.6050   23.7350  -30.0870 C   0  0  0  0  0  0  0  0  0  0  0  0
   -3.2240   22.6290  -30.5580 O   0  0  0  0  0  0  0  0  0  0  0  0
   -4.4050   24.5990  -30.9020 N   0  0  0  0  0  0  0  0  0  0  0  0
   -5.2760   25.6440  -30.3750 C   0  0  0  0  0  0  0  0  0  0  0  0
   -6.5020   25.0130  -29.7200 C   0  0  0  0  0  0  0  0  0  0  0  0
   -6.7030   23.7190  -30.2600 O   0  0  0  0  0  0  0  0  0  0  0  0
   -7.3800   23.7930  -31.4980 C   0  0  0  0  0  0  0  0  0  0  0  0
   -6.5010   23.1990  -32.6060 C   0  0  0  0  0  0  0  0  0  0  0  0
   -5.3270   22.4650  -32.0930 N   0  0  0  0  0  0  0  0  0  0  0  0
   -5.2410   21.1040  -32.6110 C   0  0  0  0  0  0  0  0  0  0  0  0
   -6.3800   20.2510  -32.6400 C   0  0  0  0  0  0  0  0  0  0  0  0
   -6.2580   18.9430  -33.1610 C   0  0  0  0  0  0  0  0  0  0  0  0
   -5.1100   18.5460  -33.8050 N   0  0  0  0  0  0  0  0  0  0  0  0
   -5.1260   17.3260  -34.6420 C   0  0  0  0  0  0  0  0  0  0  0  0
   -3.9550   19.2910  -33.6760 C   0  0  0  0  0  0  0  0  0  0  0  0
   -2.7010   18.7800  -34.1010 C   0  0  0  0  0  0  0  0  0  0  0  0
   -1.5430   19.5460  -34.0090 C   0  0  0  0  0  0  0  0  0  0  0  0
   -1.5930   20.8230  -33.4750 C   0  0  0  0  0  0  0  0  0  0  0  0
   -2.8000   21.3420  -33.0160 C   0  0  0  0  0  0  0  0  0  0  0  0
   -4.0010   20.5900  -33.0920 C   0  0  0  0  0  0  0  0  0  0  0  0
   -7.4570   18.0130  -33.0100 C   0  0  0  0  0  0  0  0  0  0  0  0
   -8.0890   18.1670  -31.6200 C   0  0  0  0  0  0  0  0  0  0  0  0
   -8.3900   19.6330  -31.2410 C   0  0  0  0  0  0  0  0  0  0  0  0
   -7.7850   20.6600  -32.2100 C   0  0  0  0  0  0  0  0  0  0  0  0
   -3.7852   23.5652  -27.9658 H   0  0  0  0  0  0  0  0  0  0  0  0
   -2.1224   23.8979  -28.5586 H   0  0  0  0  0  0  0  0  0  0  0  0
   -3.3543   25.2053  -28.5586 H   0  0  0  0  0  0  0  0  0  0  0  0
   -4.7263   26.2353  -29.6278 H   0  0  0  0  0  0  0  0  0  0  0  0
   -5.5998   26.2970  -31.1989 H   0  0  0  0  0  0  0  0  0  0  0  0
   -6.3417   24.9380  -28.6343 H   0  0  0  0  0  0  0  0  0  0  0  0
   -7.3873   25.6365  -29.9138 H   0  0  0  0  0  0  0  0  0  0  0  0
   -8.3206   23.2262  -31.4345 H   0  0  0  0  0  0  0  0  0  0  0  0
   -7.5973   24.8458  -31.7313 H   0  0  0  0  0  0  0  0  0  0  0  0
   -7.1125   22.5057  -33.2022 H   0  0  0  0  0  0  0  0  0  0  0  0
   -6.1218   24.0397  -33.2055 H   0  0  0  0  0  0  0  0  0  0  0  0
   -5.3110   22.5160  -31.0560 H   0  0  0  0  0  0  0  0  0  0  0  0
   -4.4600   22.9890  -32.3450 H   0  0  0  0  0  0  0  0  0  0  0  0
   -5.1377   16.4370  -33.9942 H   0  0  0  0  0  0  0  0  0  0  0  0
   -6.0242   17.3288  -35.2770 H   0  0  0  0  0  0  0  0  0  0  0  0
   -4.2281   17.3052  -35.2770 H   0  0  0  0  0  0  0  0  0  0  0  0
   -2.6435   17.7606  -34.5103 H   0  0  0  0  0  0  0  0  0  0  0  0
   -0.5850   19.1361  -34.3614 H   0  0  0  0  0  0  0  0  0  0  0  0
   -0.6766   21.4284  -33.4135 H   0  0  0  0  0  0  0  0  0  0  0  0
   -2.8235   22.3543  -32.5862 H   0  0  0  0  0  0  0  0  0  0  0  0
   -8.2056   18.2610  -33.7769 H   0  0  0  0  0  0  0  0  0  0  0  0
   -7.1171   16.9739  -33.1316 H   0  0  0  0  0  0  0  0  0  0  0  0
   -9.0324   17.6016  -31.6016 H   0  0  0  0  0  0  0  0  0  0  0  0
   -7.3609   17.7861  -30.8888 H   0  0  0  0  0  0  0  0  0  0  0  0
   -9.4813   19.7706  -31.2266 H   0  0  0  0  0  0  0  0  0  0  0  0
   -7.9305   19.8107  -30.2575 H   0  0  0  0  0  0  0  0  0  0  0  0
   -8.4258   20.7336  -33.1010 H   0  0  0  0  0  0  0  0  0  0  0  0
   -7.7234   21.6303  -31.6956 H   0  0  0  0  0  0  0  0  0  0  0  0
  1  2  1  0
  2  3  2  0
  2  4  1  0
  4  5  1  0
  5  6  1  0
  6  7  1  0
  7  8  1  0
  8  9  1  0
  9 10  1  0
 10 11  1  0
 11 12  2  0
 12 13  1  0
 13 14  2  0
 14 15  1  0
 14 16  1  0
 16 17  2  0
 17 18  1  0
 18 19  2  0
 19 20  1  0
 20 21  2  0
 13 22  1  0
 22 23  1  0
 23 24  1  0
 24 25  1  0
 21 11  1  0
 25 12  1  0
 21 16  1  0
  1 26  1  0
  1 27  1  0
  1 28  1  0
  5 29  1  0
  5 30  1  0
  6 31  1  0
  6 32  1  0
  8 33  1  0
  8 34  1  0
  9 35  1  0
  9 36  1  0
 10 37  1  0
 10 38  1  0
 15 39  1  0
 15 40  1  0
 15 41  1  0
 17 42  1  0
 18 43  1  0
 19 44  1  0
 20 45  1  0
 22 46  1  0
 22 47  1  0
 23 48  1  0
 23 49  1  0
 24 50  1  0
 24 51  1  0
 25 52  1  0
 25 53  1  0
M  CHG  3   4  -1  10   1  14   1
M  END
>  <UniqueID>  (13) 
13

>  <SMILES>  (13) 
CC(=O)[N-]CCOCC[NH2+]c1c2c([n+](C)c3ccccc13)CCCC2

>  <Energy>  (13) 
77.58316097651918

>  <Genealogy>  (13) 
CC(=O)[N-]CCOCC[NH2+]c1c2c([n+](C)c3ccccc13)CCCC2 (protonated)
CC(=O)[N-]CCOCC[NH2+]c1c2c([n+](C)c3ccccc13)CCCC2 (3D coordinates assigned)
CC(=O)[N-]CCOCC[NH2+]c1c2c([n+](C)c3ccccc13)CCCC2 (nonaromatic ring conformer: 77.58316097651918 kcal/mol)

>  <smiles>  (13) 
CC(=O)NCCOCCNc1c2c([n+](C)c3ccccc13)CCCC2

>  <score_type>  (13) 
oracle

>  <origin>  (13) 
adg

>  <m_score__min__energy>  (13) 
-10.6

>  <m_primary>  (13) 
energy

$$$$
13:0
     RDKit          3D

 53 55  0  0  0  0  0  0  0  0999 V2000
   -1.9820   25.2540  -26.9120 C   0  0  0  0  0  0  0  0  0  0  0  0
   -1.2080   26.1430  -27.8770 C   0  0  0  0  0  0  0  0  0  0  0  0
   -1.1000   25.4830  -29.1840 N   0  0  0  0  0  0  0  0  0  0  0  0
   -0.9850   24.0240  -29.0520 C   0  0  0  0  0  0  0  0  0  0  0  0
   -1.9440   23.2860  -30.0030 C   0  0  0  0  0  0  0  0  0  0  0  0
   -3.4080   23.6880  -29.8040 C   0  0  0  0  0  0  0  0  0  0  0  0
   -3.6940   24.8550  -30.5520 O   0  0  0  0  0  0  0  0  0  0  0  0
   -5.0300   25.2700  -30.3400 C   0  0  0  0  0  0  0  0  0  0  0  0
   -5.9990   24.2160  -30.8800 C   0  0  0  0  0  0  0  0  0  0  0  0
   -5.4070   23.4750  -31.9910 N   0  0  0  0  0  0  0  0  0  0  0  0
   -5.7810   22.1110  -32.2290 C   0  0  0  0  0  0  0  0  0  0  0  0
   -7.1270   21.7180  -32.1290 C   0  0  0  0  0  0  0  0  0  0  0  0
   -8.1400   22.6690  -31.8840 C   0  0  0  0  0  0  0  0  0  0  0  0
   -9.4760   22.2830  -31.8230 C   0  0  0  0  0  0  0  0  0  0  0  0
   -9.8290   20.9550  -32.0310 C   0  0  0  0  0  0  0  0  0  0  0  0
   -8.8450   19.9990  -32.2800 C   0  0  0  0  0  0  0  0  0  0  0  0
   -7.4700   20.3510  -32.3040 C   0  0  0  0  0  0  0  0  0  0  0  0
   -6.4800   19.4070  -32.5120 N   0  0  0  0  0  0  0  0  0  0  0  0
   -6.7990   17.9660  -32.4160 C   0  0  0  0  0  0  0  0  0  0  0  0
   -5.1860   19.8120  -32.7850 C   0  0  0  0  0  0  0  0  0  0  0  0
   -4.2030   18.9050  -33.2560 C   0  0  0  0  0  0  0  0  0  0  0  0
   -2.8880   19.3160  -33.4680 C   0  0  0  0  0  0  0  0  0  0  0  0
   -2.5180   20.6360  -33.2320 C   0  0  0  0  0  0  0  0  0  0  0  0
   -0.7110   21.1870  -33.5110 Br  0  0  0  0  0  0  0  0  0  0  0  0
   -3.4710   21.5610  -32.8110 C   0  0  0  0  0  0  0  0  0  0  0  0
   -4.8120   21.1700  -32.6090 C   0  0  0  0  0  0  0  0  0  0  0  0
   -1.7369   25.5355  -25.8773 H   0  0  0  0  0  0  0  0  0  0  0  0
   -3.0614   25.3820  -27.0810 H   0  0  0  0  0  0  0  0  0  0  0  0
   -1.7066   24.2025  -27.0810 H   0  0  0  0  0  0  0  0  0  0  0  0
   -1.7358   27.1010  -27.9942 H   0  0  0  0  0  0  0  0  0  0  0  0
   -0.1994   26.3220  -27.4762 H   0  0  0  0  0  0  0  0  0  0  0  0
   -1.9820   25.6830  -29.7140 H   0  0  0  0  0  0  0  0  0  0  0  0
    0.0476   23.7258  -29.2859 H   0  0  0  0  0  0  0  0  0  0  0  0
   -1.2512   23.7523  -28.0199 H   0  0  0  0  0  0  0  0  0  0  0  0
   -1.6552   23.5146  -31.0395 H   0  0  0  0  0  0  0  0  0  0  0  0
   -1.8643   22.2112  -29.7830 H   0  0  0  0  0  0  0  0  0  0  0  0
   -4.0601   22.8692  -30.1423 H   0  0  0  0  0  0  0  0  0  0  0  0
   -3.5861   23.8893  -28.7373 H   0  0  0  0  0  0  0  0  0  0  0  0
   -5.2026   25.4048  -29.2620 H   0  0  0  0  0  0  0  0  0  0  0  0
   -5.2003   26.2201  -30.8675 H   0  0  0  0  0  0  0  0  0  0  0  0
   -6.2503   23.5124  -30.0727 H   0  0  0  0  0  0  0  0  0  0  0  0
   -6.9026   24.7270  -31.2439 H   0  0  0  0  0  0  0  0  0  0  0  0
   -4.6340   23.8930  -32.5590 H   0  0  0  0  0  0  0  0  0  0  0  0
   -7.8714   23.7259  -31.7398 H   0  0  0  0  0  0  0  0  0  0  0  0
  -10.2541   23.0307  -31.6097 H   0  0  0  0  0  0  0  0  0  0  0  0
  -10.8875   20.6573  -31.9991 H   0  0  0  0  0  0  0  0  0  0  0  0
   -9.1391   18.9546  -32.4609 H   0  0  0  0  0  0  0  0  0  0  0  0
   -6.8635   17.6745  -31.3573 H   0  0  0  0  0  0  0  0  0  0  0  0
   -7.7623   17.7700  -32.9097 H   0  0  0  0  0  0  0  0  0  0  0  0
   -6.0084   17.3818  -32.9097 H   0  0  0  0  0  0  0  0  0  0  0  0
   -4.4826   17.8604  -33.4573 H   0  0  0  0  0  0  0  0  0  0  0  0
   -2.1392   18.5929  -33.8237 H   0  0  0  0  0  0  0  0  0  0  0  0
   -3.1755   22.6058  -32.6344 H   0  0  0  0  0  0  0  0  0  0  0  0
  1  2  1  0
  2  3  1  0
  3  4  1  0
  4  5  1  0
  5  6  1  0
  6  7  1  0
  7  8  1  0
  8  9  1  0
  9 10  1  0
 10 11  1  0
 11 12  2  0
 12 13  1  0
 13 14  2  0
 14 15  1  0
 15 16  2  0
 16 17  1  0
 17 18  2  0
 18 19  1  0
 18 20  1  0
 20 21  2  0
 21 22  1  0
 22 23  2  0
 23 24  1  0
 23 25  1  0
 25 26  2  0
 26 11  1  0
 17 12  1  0
 26 20  1  0
  1 27  1  0
  1 28  1  0
  1 29  1  0
  2 30  1  0
  2 31  1  0
  3 32  1  0
  4 33  1  0
  4 34  1  0
  5 35  1  0
  5 36  1  0
  6 37  1  0
  6 38  1  0
  8 39  1  0
  8 40  1  0
  9 41  1  0
  9 42  1  0
 10 43  1  0
 13 44  1  0
 14 45  1  0
 15 46  1  0
 16 47  1  0
 19 48  1  0
 19 49  1  0
 19 50  1  0
 21 51  1  0
 22 52  1  0
 25 53  1  0
M  CHG  1  18   1
M  END
>  <UniqueID>  (14) 
14

>  <SMILES>  (14) 
CCNCCCOCCNc1c2ccccc2[n+](C)c2ccc(Br)cc12

>  <Energy>  (14) 
72.34351240426743

>  <Genealogy>  (14) 
CCNCCCOCCNc1c2ccccc2[n+](C)c2ccc(Br)cc12 (3D coordinates assigned)
CCNCCCOCCNc1c2ccccc2[n+](C)c2ccc(Br)cc12 (optimized conformer: 72.34351240426743 kcal/mol)

>  <smiles>  (14) 
CCNCCCOCCNc1c2ccccc2[n+](C)c2ccc(Br)cc12

>  <score_type>  (14) 
oracle

>  <origin>  (14) 
adg

>  <m_score__min__energy>  (14) 
-9.5500000000000007

>  <m_primary>  (14) 
energy

$$$$
14:0
     RDKit          3D

 55 57  0  0  0  0  0  0  0  0999 V2000
   -0.9330   21.9480  -26.2050 C   0  0  0  0  0  0  0  0  0  0  0  0
   -0.9420   22.4270  -27.6540 C   0  0  0  0  0  0  0  0  0  0  0  0
   -1.0660   23.8920  -27.7130 N   0  0  0  0  0  0  0  0  0  0  0  0
    0.0810   24.7190  -27.2940 C   0  0  0  0  0  0  0  0  0  0  0  0
   -0.2840   25.5920  -26.1200 C   0  0  0  0  0  0  0  0  0  0  0  0
   -0.1400   25.1180  -24.8040 C   0  0  0  0  0  0  0  0  0  0  0  0
   -0.4800   25.9310  -23.7200 C   0  0  0  0  0  0  0  0  0  0  0  0
   -0.9870   27.2150  -23.9390 C   0  0  0  0  0  0  0  0  0  0  0  0
   -1.1590   27.6850  -25.2440 C   0  0  0  0  0  0  0  0  0  0  0  0
   -0.8130   26.8780  -26.3300 C   0  0  0  0  0  0  0  0  0  0  0  0
   -2.3150   24.4800  -28.1610 C   0  0  0  0  0  0  0  0  0  0  0  0
   -2.3040   25.3070  -29.1140 O   0  0  0  0  0  0  0  0  0  0  0  0
   -3.6360   24.2050  -27.4830 C   0  0  0  0  0  0  0  0  0  0  0  0
   -4.5960   23.5980  -28.4280 N   0  0  0  0  0  0  0  0  0  0  0  0
   -5.4770   24.6150  -29.0610 C   0  0  0  0  0  0  0  0  0  0  0  0
   -4.9950   25.0150  -30.4650 C   0  0  0  0  0  0  0  0  0  0  0  0
   -4.9270   23.8540  -31.3890 N   0  0  0  0  0  0  0  0  0  0  0  0
   -6.1080   23.7920  -32.2780 C   0  0  0  0  0  0  0  0  0  0  0  0
   -6.8320   22.4820  -32.1120 C   0  0  0  0  0  0  0  0  0  0  0  0
   -6.4100   21.3380  -32.8100 C   0  0  0  0  0  0  0  0  0  0  0  0
   -7.1060   20.1330  -32.6730 C   0  0  0  0  0  0  0  0  0  0  0  0
   -8.2310   20.0630  -31.8440 C   0  0  0  0  0  0  0  0  0  0  0  0
   -9.0990   18.5480  -31.6730 Cl  0  0  0  0  0  0  0  0  0  0  0  0
   -8.6600   21.1990  -31.1520 C   0  0  0  0  0  0  0  0  0  0  0  0
   -7.9660   22.4050  -31.2870 C   0  0  0  0  0  0  0  0  0  0  0  0
   -4.7060   22.5610  -30.6920 C   0  0  0  0  0  0  0  0  0  0  0  0
   -3.8820   22.7500  -29.4130 C   0  0  0  0  0  0  0  0  0  0  0  0
   -0.9493   22.8174  -25.5313 H   0  0  0  0  0  0  0  0  0  0  0  0
   -1.8196   21.3238  -26.0196 H   0  0  0  0  0  0  0  0  0  0  0  0
   -0.0236   21.3575  -26.0196 H   0  0  0  0  0  0  0  0  0  0  0  0
   -0.0036   22.1235  -28.1412 H   0  0  0  0  0  0  0  0  0  0  0  0
   -1.8017   21.9766  -28.1717 H   0  0  0  0  0  0  0  0  0  0  0  0
    0.9141   24.0603  -27.0075 H   0  0  0  0  0  0  0  0  0  0  0  0
    0.3732   25.3655  -28.1346 H   0  0  0  0  0  0  0  0  0  0  0  0
    0.2423   24.1019  -24.6272 H   0  0  0  0  0  0  0  0  0  0  0  0
   -0.3485   25.5602  -22.6928 H   0  0  0  0  0  0  0  0  0  0  0  0
   -1.2506   27.8555  -23.0844 H   0  0  0  0  0  0  0  0  0  0  0  0
   -1.5674   28.6918  -25.4159 H   0  0  0  0  0  0  0  0  0  0  0  0
   -0.9550   27.2503  -27.3553 H   0  0  0  0  0  0  0  0  0  0  0  0
   -3.4727   23.5149  -26.6421 H   0  0  0  0  0  0  0  0  0  0  0  0
   -4.0515   25.1575  -27.1224 H   0  0  0  0  0  0  0  0  0  0  0  0
   -6.4932   24.2016  -29.1408 H   0  0  0  0  0  0  0  0  0  0  0  0
   -5.4569   25.5158  -28.4300 H   0  0  0  0  0  0  0  0  0  0  0  0
   -5.6923   25.7574  -30.8803 H   0  0  0  0  0  0  0  0  0  0  0  0
   -3.9801   25.4279  -30.3677 H   0  0  0  0  0  0  0  0  0  0  0  0
   -6.7918   24.6165  -32.0278 H   0  0  0  0  0  0  0  0  0  0  0  0
   -5.7700   23.8791  -33.3211 H   0  0  0  0  0  0  0  0  0  0  0  0
   -5.5290   21.3905  -33.4666 H   0  0  0  0  0  0  0  0  0  0  0  0
   -6.7686   19.2389  -33.2177 H   0  0  0  0  0  0  0  0  0  0  0  0
   -9.5446   21.1441  -30.5005 H   0  0  0  0  0  0  0  0  0  0  0  0
   -8.3098   23.2980  -30.7444 H   0  0  0  0  0  0  0  0  0  0  0  0
   -5.6809   22.1249  -30.4287 H   0  0  0  0  0  0  0  0  0  0  0  0
   -4.1501   21.8938  -31.3671 H   0  0  0  0  0  0  0  0  0  0  0  0
   -3.6888   21.7649  -28.9633 H   0  0  0  0  0  0  0  0  0  0  0  0
   -2.9392   23.2498  -29.6801 H   0  0  0  0  0  0  0  0  0  0  0  0
  1  2  1  0
  2  3  1  0
  3  4  1  0
  4  5  1  0
  5  6  2  0
  6  7  1  0
  7  8  2  0
  8  9  1  0
  9 10  2  0
  3 11  1  0
 11 12  2  0
 11 13  1  0
 13 14  1  0
 14 15  1  0
 15 16  1  0
 16 17  1  0
 17 18  1  0
 18 19  1  0
 19 20  2  0
 20 21  1  0
 21 22  2  0
 22 23  1  0
 22 24  1  0
 24 25  2  0
 17 26  1  0
 26 27  1  0
 10  5  1  0
 27 14  1  0
 25 19  1  0
  1 28  1  0
  1 29  1  0
  1 30  1  0
  2 31  1  0
  2 32  1  0
  4 33  1  0
  4 34  1  0
  6 35  1  0
  7 36  1  0
  8 37  1  0
  9 38  1  0
 10 39  1  0
 13 40  1  0
 13 41  1  0
 15 42  1  0
 15 43  1  0
 16 44  1  0
 16 45  1  0
 18 46  1  0
 18 47  1  0
 20 48  1  0
 21 49  1  0
 24 50  1  0
 25 51  1  0
 26 52  1  0
 26 53  1  0
 27 54  1  0
 27 55  1  0
M  END
>  <UniqueID>  (15) 
15

>  <SMILES>  (15) 
CCN(Cc1ccccc1)C(=O)CN1CCN(Cc2ccc(Cl)cc2)CC1

>  <Energy>  (15) 
63.07809310640538

>  <Genealogy>  (15) 
CCN(Cc1ccccc1)C(=O)CN1CCN(Cc2ccc(Cl)cc2)CC1 (3D coordinates assigned)
CCN(Cc1ccccc1)C(=O)CN1CCN(Cc2ccc(Cl)cc2)CC1 (nonaromatic ring conformer: 63.07809310640538 kcal/mol)

>  <smiles>  (15) 
CCN(Cc1ccccc1)C(=O)CN1CCN(Cc2ccc(Cl)cc2)CC1

>  <score_type>  (15) 
oracle

>  <origin>  (15) 
adg

>  <m_score__min__energy>  (15) 
-9.4000000000000004

>  <m_primary>  (15) 
energy

$$$$
15:0
     RDKit          3D

 37 37  0  0  0  0  0  0  0  0999 V2000
   -4.6250   23.2950  -31.6210 H   0  0  0  0  0  0  0  0  0  0  0  0
   -4.5850   22.6250  -32.3800 O   0  0  0  0  0  0  0  0  0  0  0  0
   -4.9730   21.3080  -32.2270 N   0  0  0  0  0  0  0  0  0  0  0  0
   -5.7300   20.6690  -33.0680 C   0  0  0  0  0  0  0  0  0  0  0  0
   -5.3326   20.4471  -34.0694 H   0  0  0  0  0  0  0  0  0  0  0  0
   -7.0990   20.2280  -32.7390 C   0  0  0  0  0  0  0  0  0  0  0  0
   -8.0840   21.0430  -32.2900 N   0  0  0  0  0  0  0  0  0  0  0  0
   -7.9960   22.4610  -31.9410 C   0  0  0  0  0  0  0  0  0  0  0  0
   -8.9701   22.9399  -32.1190 H   0  0  0  0  0  0  0  0  0  0  0  0
   -7.2239   22.9363  -32.5639 H   0  0  0  0  0  0  0  0  0  0  0  0
   -7.6160   22.6210  -30.4670 C   0  0  0  0  0  0  0  0  0  0  0  0
   -7.5514   21.6278  -29.9987 H   0  0  0  0  0  0  0  0  0  0  0  0
   -8.3841   23.2254  -29.9622 H   0  0  0  0  0  0  0  0  0  0  0  0
   -6.3660   23.2740  -30.3520 O   0  0  0  0  0  0  0  0  0  0  0  0
   -6.4360   24.6110  -30.8110 C   0  0  0  0  0  0  0  0  0  0  0  0
   -7.4306   25.0195  -30.5788 H   0  0  0  0  0  0  0  0  0  0  0  0
   -6.2604   24.6186  -31.8969 H   0  0  0  0  0  0  0  0  0  0  0  0
   -5.3690   25.4780  -30.1380 C   0  0  0  0  0  0  0  0  0  0  0  0
   -5.4150   25.3300  -29.0490 H   0  0  0  0  0  0  0  0  0  0  0  0
   -5.5586   26.5334  -30.3832 H   0  0  0  0  0  0  0  0  0  0  0  0
   -4.0800   25.1210  -30.6040 O   0  0  0  0  0  0  0  0  0  0  0  0
   -3.4380   24.2200  -29.7200 C   0  0  0  0  0  0  0  0  0  0  0  0
   -2.4028   24.5526  -29.5533 H   0  0  0  0  0  0  0  0  0  0  0  0
   -3.4466   23.2155  -30.1683 H   0  0  0  0  0  0  0  0  0  0  0  0
   -4.1700   24.1690  -28.3830 C   0  0  0  0  0  0  0  0  0  0  0  0
   -3.4390   24.2199  -27.5626 H   0  0  0  0  0  0  0  0  0  0  0  0
   -4.8619   25.0211  -28.3110 H   0  0  0  0  0  0  0  0  0  0  0  0
   -4.7370   23.2292  -28.3110 H   0  0  0  0  0  0  0  0  0  0  0  0
   -9.1210   20.2290  -31.9980 C   0  0  0  0  0  0  0  0  0  0  0  0
  -10.0957   20.5490  -31.6011 H   0  0  0  0  0  0  0  0  0  0  0  0
   -8.7550   18.9300  -32.2800 C   0  0  0  0  0  0  0  0  0  0  0  0
   -9.3877   18.0400  -32.1473 H   0  0  0  0  0  0  0  0  0  0  0  0
   -7.4900   18.9360  -32.7460 N   0  0  0  0  0  0  0  0  0  0  0  0
   -6.6810   17.7650  -33.0640 C   0  0  0  0  0  0  0  0  0  0  0  0
   -6.3491   17.2845  -32.1318 H   0  0  0  0  0  0  0  0  0  0  0  0
   -7.2808   17.0531  -33.6500 H   0  0  0  0  0  0  0  0  0  0  0  0
   -5.8029   18.0741  -33.6500 H   0  0  0  0  0  0  0  0  0  0  0  0
  1  2  1  0
  2  3  1  0
  3  4  2  0
  4  5  1  0
  4  6  1  0
  6  7  1  0
  7  8  1  0
  8  9  1  0
  8 10  1  0
  8 11  1  0
 11 12  1  0
 11 13  1  0
 11 14  1  0
 14 15  1  0
 15 16  1  0
 15 17  1  0
 15 18  1  0
 18 19  1  0
 18 20  1  0
 18 21  1  0
 21 22  1  0
 22 23  1  0
 22 24  1  0
 22 25  1  0
 25 26  1  0
 25 27  1  0
 25 28  1  0
  7 29  1  0
 29 30  1  0
 29 31  2  0
 31 32  1  0
 31 33  1  0
 33 34  1  0
 34 35  1  0
 34 36  1  0
 34 37  1  0
 33  6  2  0
M  CHG  1  33   1
M  END
>  <UniqueID>  (16) 
16

>  <SMILES>  (16) 
CCOCCOCCn1cc[n+](C)c1/C=N\O

>  <Energy>  (16) 
71.72195368547324

>  <Genealogy>  (16) 
CCOCCOCCn1cc[n+](C)c1/C=N\O (cis-trans isomerization)
CCOCCOCCn1cc[n+](C)c1/C=N\O (3D coordinates assigned)
CCOCCOCCn1cc[n+](C)c1/C=N\O (optimized conformer: 71.72195368547324 kcal/mol)

>  <smiles>  (16) 
CCOCCOCCn1cc[n+](C)c1C=NO

>  <score_type>  (16) 
oracle

>  <origin>  (16) 
adg

>  <m_score__min__energy>  (16) 
-5.0599999999999996

>  <m_primary>  (16) 
energy

$$$$
16:0
     RDKit          3D

 60 62  0  0  0  0  0  0  0  0999 V2000
    0.6880   24.7290  -36.1260 C   0  0  0  0  0  0  0  0  0  0  0  0
    1.0610   23.2510  -36.0420 C   0  0  0  0  0  0  0  0  0  0  0  0
    0.3790   22.6150  -34.9760 O   0  0  0  0  0  0  0  0  0  0  0  0
    0.6090   21.2210  -34.9950 C   0  0  0  0  0  0  0  0  0  0  0  0
   -0.6930   20.4950  -34.6540 C   0  0  0  0  0  0  0  0  0  0  0  0
   -1.5290   21.3010  -33.8460 O   0  0  0  0  0  0  0  0  0  0  0  0
   -1.5810   20.8050  -32.5230 C   0  0  0  0  0  0  0  0  0  0  0  0
   -2.9780   20.2510  -32.2490 C   0  0  0  0  0  0  0  0  0  0  0  0
   -3.9820   20.9080  -33.0980 N   0  0  0  0  0  0  0  0  0  0  0  0
   -5.3240   21.1290  -32.6310 C   0  0  0  0  0  0  0  0  0  0  0  0
   -6.3110   20.1250  -32.7700 C   0  0  0  0  0  0  0  0  0  0  0  0
   -7.5940   20.3560  -32.2280 C   0  0  0  0  0  0  0  0  0  0  0  0
   -7.9570   21.6090  -31.7870 N   0  0  0  0  0  0  0  0  0  0  0  0
   -9.3830   21.9160  -31.5440 C   0  0  0  0  0  0  0  0  0  0  0  0
   -6.9840   22.5520  -31.5310 C   0  0  0  0  0  0  0  0  0  0  0  0
   -7.2770   23.7530  -30.8340 C   0  0  0  0  0  0  0  0  0  0  0  0
   -6.2700   24.6610  -30.5140 C   0  0  0  0  0  0  0  0  0  0  0  0
   -4.9510   24.3900  -30.8530 C   0  0  0  0  0  0  0  0  0  0  0  0
   -4.6310   23.2190  -31.5340 C   0  0  0  0  0  0  0  0  0  0  0  0
   -5.6390   22.3060  -31.9170 C   0  0  0  0  0  0  0  0  0  0  0  0
   -8.5410   19.1750  -32.1330 C   0  0  0  0  0  0  0  0  0  0  0  0
   -7.7310   17.8990  -31.9050 C   0  0  0  0  0  0  0  0  0  0  0  0
   -6.7410   17.7320  -32.9820 N   0  0  0  0  0  0  0  0  0  0  0  0
   -6.5930   16.3760  -33.5500 C   0  0  0  0  0  0  0  0  0  0  0  0
   -5.3340   15.6970  -33.0090 C   0  0  0  0  0  0  0  0  0  0  0  0
   -6.0610   18.7820  -33.4100 C   0  0  0  0  0  0  0  0  0  0  0  0
   -5.1420   18.6810  -34.6070 C   0  0  0  0  0  0  0  0  0  0  0  0
    0.5845   25.1393  -35.1107 H   0  0  0  0  0  0  0  0  0  0  0  0
    1.4762   25.2761  -36.6639 H   0  0  0  0  0  0  0  0  0  0  0  0
   -0.2654   24.8365  -36.6639 H   0  0  0  0  0  0  0  0  0  0  0  0
    0.7907   22.7575  -36.9872 H   0  0  0  0  0  0  0  0  0  0  0  0
    2.1433   23.1725  -35.8619 H   0  0  0  0  0  0  0  0  0  0  0  0
    0.9490   20.9173  -35.9961 H   0  0  0  0  0  0  0  0  0  0  0  0
    1.3821   20.9626  -34.2564 H   0  0  0  0  0  0  0  0  0  0  0  0
   -1.2225   20.2500  -35.5865 H   0  0  0  0  0  0  0  0  0  0  0  0
   -0.4467   19.5789  -34.0971 H   0  0  0  0  0  0  0  0  0  0  0  0
   -0.8370   20.0040  -32.4008 H   0  0  0  0  0  0  0  0  0  0  0  0
   -1.3600   21.6172  -31.8148 H   0  0  0  0  0  0  0  0  0  0  0  0
   -2.9834   19.1707  -32.4561 H   0  0  0  0  0  0  0  0  0  0  0  0
   -3.2304   20.4432  -31.1957 H   0  0  0  0  0  0  0  0  0  0  0  0
   -3.6920   21.3750  -33.9850 H   0  0  0  0  0  0  0  0  0  0  0  0
   -9.5700   21.9563  -30.4608 H   0  0  0  0  0  0  0  0  0  0  0  0
   -9.6309   22.8881  -31.9952 H   0  0  0  0  0  0  0  0  0  0  0  0
  -10.0089   21.1320  -31.9952 H   0  0  0  0  0  0  0  0  0  0  0  0
   -8.3150   23.9703  -30.5420 H   0  0  0  0  0  0  0  0  0  0  0  0
   -6.5206   25.5957  -29.9910 H   0  0  0  0  0  0  0  0  0  0  0  0
   -4.1574   25.1022  -30.5828 H   0  0  0  0  0  0  0  0  0  0  0  0
   -3.5804   23.0017  -31.7770 H   0  0  0  0  0  0  0  0  0  0  0  0
   -9.2343   19.3259  -31.2924 H   0  0  0  0  0  0  0  0  0  0  0  0
   -9.1160   19.0861  -33.0665 H   0  0  0  0  0  0  0  0  0  0  0  0
   -7.2101   17.9660  -30.9385 H   0  0  0  0  0  0  0  0  0  0  0  0
   -8.4115   17.0348  -31.9028 H   0  0  0  0  0  0  0  0  0  0  0  0
   -7.4726   15.7734  -33.2796 H   0  0  0  0  0  0  0  0  0  0  0  0
   -6.5079   16.4583  -34.6436 H   0  0  0  0  0  0  0  0  0  0  0  0
   -5.3551   15.7084  -31.9093 H   0  0  0  0  0  0  0  0  0  0  0  0
   -5.2970   14.6566  -33.3643 H   0  0  0  0  0  0  0  0  0  0  0  0
   -4.4444   16.2376  -33.3643 H   0  0  0  0  0  0  0  0  0  0  0  0
   -4.1033   18.5668  -34.2632 H   0  0  0  0  0  0  0  0  0  0  0  0
   -5.4253   17.8086  -35.2142 H   0  0  0  0  0  0  0  0  0  0  0  0
   -5.2290   19.5941  -35.2142 H   0  0  0  0  0  0  0  0  0  0  0  0
  1  2  1  0
  2  3  1  0
  3  4  1  0
  4  5  1  0
  5  6  1  0
  6  7  1  0
  7  8  1  0
  8  9  1  0
  9 10  1  0
 10 11  2  0
 11 12  1  0
 12 13  2  0
 13 14  1  0
 13 15  1  0
 15 16  2  0
 16 17  1  0
 17 18  2  0
 18 19  1  0
 19 20  2  0
 12 21  1  0
 21 22  1  0
 22 23  1  0
 23 24  1  0
 24 25  1  0
 23 26  2  0
 26 27  1  0
 20 10  1  0
 26 11  1  0
 20 15  1  0
  1 28  1  0
  1 29  1  0
  1 30  1  0
  2 31  1  0
  2 32  1  0
  4 33  1  0
  4 34  1  0
  5 35  1  0
  5 36  1  0
  7 37  1  0
  7 38  1  0
  8 39  1  0
  8 40  1  0
  9 41  1  0
 14 42  1  0
 14 43  1  0
 14 44  1  0
 16 45  1  0
 17 46  1  0
 18 47  1  0
 19 48  1  0
 21 49  1  0
 21 50  1  0
 22 51  1  0
 22 52  1  0
 24 53  1  0
 24 54  1  0
 25 55  1  0
 25 56  1  0
 25 57  1  0
 27 58  1  0
 27 59  1  0
 27 60  1  0
M  CHG  2  13   1  23   1
M  END
>  <UniqueID>  (17) 
17

>  <SMILES>  (17) 
CCOCCOCCNc1c2c([n+](C)c3ccccc13)CC[N+](CC)=C2C

>  <Energy>  (17) 
88.12949707040366

>  <Genealogy>  (17) 
CCOCCOCCNc1c2c([n+](C)c3ccccc13)CC[N+](CC)=C2C (3D coordinates assigned)
CCOCCOCCNc1c2c([n+](C)c3ccccc13)CC[N+](CC)=C2C (nonaromatic ring conformer: 88.12949707040366 kcal/mol)

>  <smiles>  (17) 
CCOCCOCCNc1c2c([n+](C)c3ccccc13)CC[N+](CC)=C2C

>  <score_type>  (17) 
oracle

>  <origin>  (17) 
adg

>  <m_score__min__energy>  (17) 
-7.8700000000000001

>  <m_primary>  (17) 
energy

$$$$
17:0
     RDKit          3D

 27 27  0  0  0  0  0  0  0  0999 V2000
   -4.2280   25.6680  -31.6090 H   0  0  0  0  0  0  0  0  0  0  0  0
   -3.8770   25.6210  -30.6590 O   0  0  0  0  0  0  0  0  0  0  0  0
   -3.1310   24.5480  -30.2170 N   0  0  0  0  0  0  0  0  0  0  0  0
   -3.6170   23.3490  -30.1690 C   0  0  0  0  0  0  0  0  0  0  0  0
   -4.0921   22.9976  -29.2412 H   0  0  0  0  0  0  0  0  0  0  0  0
   -3.5470   22.4390  -31.3380 C   0  0  0  0  0  0  0  0  0  0  0  0
   -4.5640   22.2540  -32.2170 N   0  0  0  0  0  0  0  0  0  0  0  0
   -5.9000   22.8580  -32.2310 C   0  0  0  0  0  0  0  0  0  0  0  0
   -6.5446   22.3271  -31.5150 H   0  0  0  0  0  0  0  0  0  0  0  0
   -6.3150   22.7789  -33.2466 H   0  0  0  0  0  0  0  0  0  0  0  0
   -5.8310   24.2230  -31.8710 O   0  0  0  0  0  0  0  0  0  0  0  0
   -6.6520   24.4760  -30.7510 C   0  0  0  0  0  0  0  0  0  0  0  0
   -7.5186   25.0798  -31.0581 H   0  0  0  0  0  0  0  0  0  0  0  0
   -6.0806   25.0255  -29.9884 H   0  0  0  0  0  0  0  0  0  0  0  0
   -7.1310   23.1520  -30.1780 C   0  0  0  0  0  0  0  0  0  0  0  0
   -7.1135   23.2003  -29.0792 H   0  0  0  0  0  0  0  0  0  0  0  0
   -8.1576   22.9544  -30.5201 H   0  0  0  0  0  0  0  0  0  0  0  0
   -6.4685   22.3433  -30.5201 H   0  0  0  0  0  0  0  0  0  0  0  0
   -4.1260   21.3370  -33.1010 C   0  0  0  0  0  0  0  0  0  0  0  0
   -4.6995   20.9410  -33.9520 H   0  0  0  0  0  0  0  0  0  0  0  0
   -2.8410   20.9780  -32.7620 C   0  0  0  0  0  0  0  0  0  0  0  0
   -2.2144   20.2512  -33.2997 H   0  0  0  0  0  0  0  0  0  0  0  0
   -2.4790   21.6660  -31.6610 N   0  0  0  0  0  0  0  0  0  0  0  0
   -1.1930   21.5460  -30.9770 C   0  0  0  0  0  0  0  0  0  0  0  0
   -1.3536   21.5610  -29.8889 H   0  0  0  0  0  0  0  0  0  0  0  0
   -0.7122   20.5991  -31.2636 H   0  0  0  0  0  0  0  0  0  0  0  0
   -0.5453   22.3876  -31.2636 H   0  0  0  0  0  0  0  0  0  0  0  0
  1  2  1  0
  2  3  1  0
  3  4  2  0
  4  5  1  0
  4  6  1  0
  6  7  1  0
  7  8  1  0
  8  9  1  0
  8 10  1  0
  8 11  1  0
 11 12  1  0
 12 13  1  0
 12 14  1  0
 12 15  1  0
 15 16  1  0
 15 17  1  0
 15 18  1  0
  7 19  1  0
 19 20  1  0
 19 21  2  0
 21 22  1  0
 21 23  1  0
 23 24  1  0
 24 25  1  0
 24 26  1  0
 24 27  1  0
 23  6  2  0
M  CHG  1  23   1
M  END
>  <UniqueID>  (18) 
18

>  <SMILES>  (18) 
CCOCn1cc[n+](C)c1/C=N/O

>  <Energy>  (18) 
54.670109380315424

>  <Genealogy>  (18) 
CCOCn1cc[n+](C)c1/C=N/O (cis-trans isomerization)
CCOCn1cc[n+](C)c1/C=N/O (3D coordinates assigned)
CCOCn1cc[n+](C)c1/C=N/O (optimized conformer: 54.670109380315424 kcal/mol)

>  <smiles>  (18) 
CCOCn1cc[n+](C)c1C=NO

>  <score_type>  (18) 
oracle

>  <origin>  (18) 
adg

>  <m_score__min__energy>  (18) 
-4.7599999999999998

>  <m_primary>  (18) 
energy

$$$$
18:0
     RDKit          3D

 73 75  0  0  0  0  0  0  0  0999 V2000
   -7.6090   22.7800  -31.3350 C   0  0  0  0  0  0  0  0  0  0  0  0
   -6.3710   22.6700  -32.2210 C   0  0  0  0  0  0  0  0  0  0  0  0
   -5.4680   23.8050  -31.9760 N   0  0  0  0  0  0  0  0  0  0  0  0
   -6.0230   24.7780  -31.0180 C   0  0  0  0  0  0  0  0  0  0  0  0
   -4.9960   25.1750  -29.9350 C   0  0  0  0  0  0  0  0  0  0  0  0
   -3.6070   24.9720  -30.3770 N   0  0  0  0  0  0  0  0  0  0  0  0
   -2.7370   24.5200  -29.2830 C   0  0  0  0  0  0  0  0  0  0  0  0
   -2.7130   22.9940  -29.2260 C   0  0  0  0  0  0  0  0  0  0  0  0
   -3.5710   22.4720  -30.2190 O   0  0  0  0  0  0  0  0  0  0  0  0
   -2.9510   21.3670  -30.8390 C   0  0  0  0  0  0  0  0  0  0  0  0
   -2.5240   21.7580  -32.2520 C   0  0  0  0  0  0  0  0  0  0  0  0
   -3.3610   21.1000  -33.2580 N   0  0  0  0  0  0  0  0  0  0  0  0
   -3.0590   19.7910  -33.7770 C   0  0  0  0  0  0  0  0  0  0  0  0
   -4.0060   18.7610  -33.6330 C   0  0  0  0  0  0  0  0  0  0  0  0
   -5.3080   19.0690  -33.0860 N   0  0  0  0  0  0  0  0  0  0  0  0
   -5.4200   19.0600  -31.6120 C   0  0  0  0  0  0  0  0  0  0  0  0
   -6.5910   18.2200  -31.0810 C   0  0  0  0  0  0  0  0  0  0  0  0
   -7.5700   17.7990  -32.1850 C   0  0  0  0  0  0  0  0  0  0  0  0
   -8.4500   18.9400  -32.7160 C   0  0  0  0  0  0  0  0  0  0  0  0
   -7.6360   20.1050  -33.2940 C   0  0  0  0  0  0  0  0  0  0  0  0
   -6.2990   19.7160  -33.9740 C   0  0  0  0  0  0  0  0  0  0  0  0
   -3.6840   17.4740  -34.0060 N   0  0  0  0  0  0  0  0  0  0  0  0
   -4.7050   16.4090  -33.9530 C   0  0  0  0  0  0  0  0  0  0  0  0
   -2.3940   17.1800  -34.3950 C   0  0  0  0  0  0  0  0  0  0  0  0
   -1.9650   15.8430  -34.6000 C   0  0  0  0  0  0  0  0  0  0  0  0
   -0.6650   15.5620  -35.0150 C   0  0  0  0  0  0  0  0  0  0  0  0
    0.2400   16.5940  -35.2220 C   0  0  0  0  0  0  0  0  0  0  0  0
   -0.1450   17.9150  -35.0110 C   0  0  0  0  0  0  0  0  0  0  0  0
   -1.4620   18.2350  -34.5970 C   0  0  0  0  0  0  0  0  0  0  0  0
   -1.8490   19.5360  -34.3720 N   0  0  0  0  0  0  0  0  0  0  0  0
   -0.9830   20.6580  -34.7870 C   0  0  0  0  0  0  0  0  0  0  0  0
   -7.3068   22.7531  -30.2777 H   0  0  0  0  0  0  0  0  0  0  0  0
   -8.1267   23.7277  -31.5444 H   0  0  0  0  0  0  0  0  0  0  0  0
   -8.2857   21.9384  -31.5444 H   0  0  0  0  0  0  0  0  0  0  0  0
   -5.8443   21.7313  -31.9943 H   0  0  0  0  0  0  0  0  0  0  0  0
   -6.6827   22.6808  -33.2759 H   0  0  0  0  0  0  0  0  0  0  0  0
   -4.5510   23.4440  -31.6200 H   0  0  0  0  0  0  0  0  0  0  0  0
   -6.3280   25.6816  -31.5662 H   0  0  0  0  0  0  0  0  0  0  0  0
   -6.8815   24.3081  -30.5158 H   0  0  0  0  0  0  0  0  0  0  0  0
   -5.1363   26.2377  -29.6879 H   0  0  0  0  0  0  0  0  0  0  0  0
   -5.1665   24.5314  -29.0594 H   0  0  0  0  0  0  0  0  0  0  0  0
   -3.5860   24.2650  -31.1480 H   0  0  0  0  0  0  0  0  0  0  0  0
   -1.7163   24.8936  -29.4521 H   0  0  0  0  0  0  0  0  0  0  0  0
   -3.1257   24.9092  -28.3304 H   0  0  0  0  0  0  0  0  0  0  0  0
   -1.6878   22.6366  -29.4025 H   0  0  0  0  0  0  0  0  0  0  0  0
   -3.0527   22.6588  -28.2349 H   0  0  0  0  0  0  0  0  0  0  0  0
   -2.0669   21.0671  -30.2573 H   0  0  0  0  0  0  0  0  0  0  0  0
   -3.6577   20.5254  -30.8862 H   0  0  0  0  0  0  0  0  0  0  0  0
   -2.6156   22.8482  -32.3660 H   0  0  0  0  0  0  0  0  0  0  0  0
   -1.4820   21.4392  -32.4024 H   0  0  0  0  0  0  0  0  0  0  0  0
   -4.2440   21.5700  -33.5510 H   0  0  0  0  0  0  0  0  0  0  0  0
   -4.4861   18.6537  -31.1964 H   0  0  0  0  0  0  0  0  0  0  0  0
   -5.6052   20.0984  -31.2999 H   0  0  0  0  0  0  0  0  0  0  0  0
   -6.1866   17.3141  -30.6058 H   0  0  0  0  0  0  0  0  0  0  0  0
   -7.1473   18.8429  -30.3651 H   0  0  0  0  0  0  0  0  0  0  0  0
   -6.9880   17.3927  -33.0254 H   0  0  0  0  0  0  0  0  0  0  0  0
   -8.2494   17.0579  -31.7387 H   0  0  0  0  0  0  0  0  0  0  0  0
   -9.1017   18.5410  -33.5073 H   0  0  0  0  0  0  0  0  0  0  0  0
   -9.0286   19.3321  -31.8666 H   0  0  0  0  0  0  0  0  0  0  0  0
   -8.2602   20.6154  -34.0423 H   0  0  0  0  0  0  0  0  0  0  0  0
   -7.3640   20.7368  -32.4356 H   0  0  0  0  0  0  0  0  0  0  0  0
   -6.5245   19.0211  -34.7964 H   0  0  0  0  0  0  0  0  0  0  0  0
   -5.8406   20.6580  -34.3095 H   0  0  0  0  0  0  0  0  0  0  0  0
   -4.9328   16.1714  -32.9034 H   0  0  0  0  0  0  0  0  0  0  0  0
   -5.6198   16.7526  -34.4580 H   0  0  0  0  0  0  0  0  0  0  0  0
   -4.3231   15.5095  -34.4580 H   0  0  0  0  0  0  0  0  0  0  0  0
   -2.6696   15.0158  -34.4286 H   0  0  0  0  0  0  0  0  0  0  0  0
   -0.3549   14.5194  -35.1791 H   0  0  0  0  0  0  0  0  0  0  0  0
    1.2640   16.3673  -35.5536 H   0  0  0  0  0  0  0  0  0  0  0  0
    0.5845   18.7232  -35.1681 H   0  0  0  0  0  0  0  0  0  0  0  0
   -0.5899   21.1673  -33.8947 H   0  0  0  0  0  0  0  0  0  0  0  0
   -0.1460   20.2724  -35.3877 H   0  0  0  0  0  0  0  0  0  0  0  0
   -1.5680   21.3700  -35.3877 H   0  0  0  0  0  0  0  0  0  0  0  0
  1  2  1  0
  2  3  1  0
  3  4  1  0
  4  5  1  0
  5  6  1  0
  6  7  1  0
  7  8  1  0
  8  9  1  0
  9 10  1  0
 10 11  1  0
 11 12  1  0
 12 13  1  0
 13 14  2  0
 14 15  1  0
 15 16  1  0
 16 17  1  0
 17 18  1  0
 18 19  1  0
 19 20  1  0
 20 21  1  0
 14 22  1  0
 22 23  1  0
 22 24  2  0
 24 25  1  0
 25 26  2  0
 26 27  1  0
 27 28  2  0
 28 29  1  0
 29 30  2  0
 30 31  1  0
 30 13  1  0
 21 15  1  0
 29 24  1  0
  1 32  1  0
  1 33  1  0
  1 34  1  0
  2 35  1  0
  2 36  1  0
  3 37  1  0
  4 38  1  0
  4 39  1  0
  5 40  1  0
  5 41  1  0
  6 42  1  0
  7 43  1  0
  7 44  1  0
  8 45  1  0
  8 46  1  0
 10 47  1  0
 10 48  1  0
 11 49  1  0
 11 50  1  0
 12 51  1  0
 16 52  1  0
 16 53  1  0
 17 54  1  0
 17 55  1  0
 18 56  1  0
 18 57  1  0
 19 58  1  0
 19 59  1  0
 20 60  1  0
 20 61  1  0
 21 62  1  0
 21 63  1  0
 23 64  1  0
 23 65  1  0
 23 66  1  0
 25 67  1  0
 26 68  1  0
 27 69  1  0
 28 70  1  0
 31 71  1  0
 31 72  1  0
 31 73  1  0
M  CHG  2  22   1  30   1
M  END
>  <UniqueID>  (19) 
19

>  <SMILES>  (19) 
CCNCCNCCOCCNc1c(N2CCCCCC2)[n+](C)c2ccccc2[n+]1C

>  <Energy>  (19) 
98.79861407959135

>  <Genealogy>  (19) 
CCNCCNCCOCCNc1c(N2CCCCCC2)[n+](C)c2ccccc2[n+]1C (3D coordinates assigned)
CCNCCNCCOCCNc1c(N2CCCCCC2)[n+](C)c2ccccc2[n+]1C (nonaromatic ring conformer: 98.79861407959135 kcal/mol)

>  <smiles>  (19) 
CCNCCNCCOCCNc1c(N2CCCCCC2)[n+](C)c2ccccc2[n+]1C

>  <score_type>  (19) 
oracle

>  <origin>  (19) 
adg

>  <m_score__min__energy>  (19) 
-5.4100000000000001

>  <m_primary>  (19) 
energy

$$$$
19:0
     RDKit          3D

 43 45  0  0  0  0  0  0  0  0999 V2000
   -4.2370   24.5450  -27.0700 C   0  0  0  0  0  0  0  0  0  0  0  0
   -2.7210   24.4220  -26.9230 C   0  0  0  0  0  0  0  0  0  0  0  0
   -1.9880   24.6790  -28.2440 C   0  0  0  0  0  0  0  0  0  0  0  0
   -2.3150   23.6460  -29.2260 N   0  0  0  0  0  0  0  0  0  0  0  0
   -3.2680   23.8470  -30.2820 C   0  0  0  0  0  0  0  0  0  0  0  0
   -3.7330   24.9980  -30.5050 O   0  0  0  0  0  0  0  0  0  0  0  0
   -3.7500   22.6950  -31.0770 C   0  0  0  0  0  0  0  0  0  0  0  0
   -5.1350   22.4910  -31.1680 C   0  0  0  0  0  0  0  0  0  0  0  0
   -5.6480   21.4500  -31.9560 C   0  0  0  0  0  0  0  0  0  0  0  0
   -7.1080   21.2110  -32.0830 C   0  0  0  0  0  0  0  0  0  0  0  0
   -8.0180   22.1890  -31.6380 C   0  0  0  0  0  0  0  0  0  0  0  0
   -9.3960   21.9780  -31.7430 C   0  0  0  0  0  0  0  0  0  0  0  0
   -9.8830   20.7880  -32.2860 C   0  0  0  0  0  0  0  0  0  0  0  0
   -8.9930   19.8030  -32.7190 C   0  0  0  0  0  0  0  0  0  0  0  0
   -7.6140   20.0080  -32.6180 C   0  0  0  0  0  0  0  0  0  0  0  0
   -4.7840   20.6310  -32.6120 N   0  0  0  0  0  0  0  0  0  0  0  0
   -3.4340   20.7750  -32.5460 C   0  0  0  0  0  0  0  0  0  0  0  0
   -2.5990   19.8820  -33.2470 C   0  0  0  0  0  0  0  0  0  0  0  0
   -3.1870   18.7750  -34.0810 C   0  0  0  0  0  0  0  0  0  0  0  0
   -1.2060   20.0180  -33.1490 C   0  0  0  0  0  0  0  0  0  0  0  0
   -0.6500   21.0260  -32.3620 C   0  0  0  0  0  0  0  0  0  0  0  0
   -1.4710   21.9160  -31.6690 C   0  0  0  0  0  0  0  0  0  0  0  0
   -2.8740   21.8170  -31.7640 C   0  0  0  0  0  0  0  0  0  0  0  0
   -4.7002   24.5826  -26.0730 H   0  0  0  0  0  0  0  0  0  0  0  0
   -4.4784   25.4657  -27.6214 H   0  0  0  0  0  0  0  0  0  0  0  0
   -4.6237   23.6753  -27.6214 H   0  0  0  0  0  0  0  0  0  0  0  0
   -2.3768   25.1550  -26.1786 H   0  0  0  0  0  0  0  0  0  0  0  0
   -2.4951   23.3931  -26.6064 H   0  0  0  0  0  0  0  0  0  0  0  0
   -2.2888   25.6607  -28.6388 H   0  0  0  0  0  0  0  0  0  0  0  0
   -0.9042   24.6587  -28.0569 H   0  0  0  0  0  0  0  0  0  0  0  0
   -1.9050   22.6950  -29.0880 H   0  0  0  0  0  0  0  0  0  0  0  0
   -5.8224   23.1509  -30.6185 H   0  0  0  0  0  0  0  0  0  0  0  0
   -7.6415   23.1270  -31.2041 H   0  0  0  0  0  0  0  0  0  0  0  0
  -10.0977   22.7512  -31.3970 H   0  0  0  0  0  0  0  0  0  0  0  0
  -10.9676   20.6262  -32.3728 H   0  0  0  0  0  0  0  0  0  0  0  0
   -9.3782   18.8630  -33.1408 H   0  0  0  0  0  0  0  0  0  0  0  0
   -6.9189   19.2261  -32.9579 H   0  0  0  0  0  0  0  0  0  0  0  0
   -3.5997   17.9980  -33.4207 H   0  0  0  0  0  0  0  0  0  0  0  0
   -3.9887   19.1804  -34.7158 H   0  0  0  0  0  0  0  0  0  0  0  0
   -2.4023   18.3378  -34.7158 H   0  0  0  0  0  0  0  0  0  0  0  0
   -0.5489   19.3258  -33.6959 H   0  0  0  0  0  0  0  0  0  0  0  0
    0.4434   21.1201  -32.2871 H   0  0  0  0  0  0  0  0  0  0  0  0
   -1.0202   22.7008  -31.0438 H   0  0  0  0  0  0  0  0  0  0  0  0
  1  2  1  0
  2  3  1  0
  3  4  1  0
  4  5  1  0
  5  6  2  0
  5  7  1  0
  7  8  2  0
  8  9  1  0
  9 10  1  0
 10 11  2  0
 11 12  1  0
 12 13  2  0
 13 14  1  0
 14 15  2  0
  9 16  2  0
 16 17  1  0
 17 18  2  0
 18 19  1  0
 18 20  1  0
 20 21  2  0
 21 22  1  0
 22 23  2  0
 23  7  1  0
 15 10  1  0
 23 17  1  0
  1 24  1  0
  1 25  1  0
  1 26  1  0
  2 27  1  0
  2 28  1  0
  3 29  1  0
  3 30  1  0
  4 31  1  0
  8 32  1  0
 11 33  1  0
 12 34  1  0
 13 35  1  0
 14 36  1  0
 15 37  1  0
 19 38  1  0
 19 39  1  0
 19 40  1  0
 20 41  1  0
 21 42  1  0
 22 43  1  0
M  END
>  <UniqueID>  (20) 
20

>  <SMILES>  (20) 
CCCNC(=O)c1cc(-c2ccccc2)nc2c(C)cccc12

>  <Energy>  (20) 
53.04568034062878

>  <Genealogy>  (20) 
CCCNC(=O)c1cc(-c2ccccc2)nc2c(C)cccc12 (3D coordinates assigned)
CCCNC(=O)c1cc(-c2ccccc2)nc2c(C)cccc12 (optimized conformer: 53.04568034062878 kcal/mol)

>  <smiles>  (20) 
CCCNC(=O)c1cc(-c2ccccc2)nc2c(C)cccc12

>  <score_type>  (20) 
oracle

>  <origin>  (20) 
adg

>  <m_score__min__energy>  (20) 
-8.4100000000000001

>  <m_primary>  (20) 
energy

$$$$
20:0
     RDKit          3D

 47 48  0  0  0  0  0  0  0  0999 V2000
   -0.6460   21.3760  -29.5870 C   0  0  0  0  0  0  0  0  0  0  0  0
   -1.6720   20.3400  -30.0300 C   0  0  0  0  0  0  0  0  0  0  0  0
   -1.8840   20.4090  -31.4780 N   0  0  0  0  0  0  0  0  0  0  0  0
   -1.4670   19.4980  -32.3800 C   0  0  0  0  0  0  0  0  0  0  0  0
   -1.8240   19.9340  -33.6380 C   0  0  0  0  0  0  0  0  0  0  0  0
   -2.4620   21.1120  -33.5210 N   0  0  0  0  0  0  0  0  0  0  0  0
   -2.4900   21.3810  -32.2000 C   0  0  0  0  0  0  0  0  0  0  0  0
   -3.0970   22.6320  -31.6280 C   0  0  0  0  0  0  0  0  0  0  0  0
   -4.5020   22.3950  -31.2320 N   0  0  0  0  0  0  0  0  0  0  0  0
   -4.8470   23.1120  -29.9760 C   0  0  0  0  0  0  0  0  0  0  0  0
   -3.7680   24.1470  -29.6580 C   0  0  0  0  0  0  0  0  0  0  0  0
   -3.9380   25.2960  -30.4680 O   0  0  0  0  0  0  0  0  0  0  0  0
   -5.2980   25.6690  -30.5110 C   0  0  0  0  0  0  0  0  0  0  0  0
   -5.4160   22.7600  -32.3390 C   0  0  0  0  0  0  0  0  0  0  0  0
   -6.7530   22.0560  -32.1880 C   0  0  0  0  0  0  0  0  0  0  0  0
   -7.8470   22.8290  -31.7560 C   0  0  0  0  0  0  0  0  0  0  0  0
   -9.1160   22.2680  -31.6320 C   0  0  0  0  0  0  0  0  0  0  0  0
   -9.3130   20.9220  -31.9220 C   0  0  0  0  0  0  0  0  0  0  0  0
   -8.2370   20.1240  -32.3140 C   0  0  0  0  0  0  0  0  0  0  0  0
   -6.9390   20.6640  -32.4350 C   0  0  0  0  0  0  0  0  0  0  0  0
   -5.7870   19.7500  -32.8110 C   0  0  0  0  0  0  0  0  0  0  0  0
   -5.0220   20.2790  -33.8370 F   0  0  0  0  0  0  0  0  0  0  0  0
   -4.9610   19.5570  -31.7190 F   0  0  0  0  0  0  0  0  0  0  0  0
   -6.2790   18.5290  -33.2400 F   0  0  0  0  0  0  0  0  0  0  0  0
   -0.6113   21.4111  -28.4881 H   0  0  0  0  0  0  0  0  0  0  0  0
    0.3451   21.1004  -29.9766 H   0  0  0  0  0  0  0  0  0  0  0  0
   -0.9312   22.3644  -29.9766 H   0  0  0  0  0  0  0  0  0  0  0  0
   -1.3090   19.3359  -29.7654 H   0  0  0  0  0  0  0  0  0  0  0  0
   -2.6257   20.5465  -29.5222 H   0  0  0  0  0  0  0  0  0  0  0  0
   -0.9322   18.5645  -32.1508 H   0  0  0  0  0  0  0  0  0  0  0  0
   -1.6207   19.4059  -34.5813 H   0  0  0  0  0  0  0  0  0  0  0  0
   -2.8480   21.6960  -34.2960 H   0  0  0  0  0  0  0  0  0  0  0  0
   -2.5199   22.9425  -30.7445 H   0  0  0  0  0  0  0  0  0  0  0  0
   -3.0729   23.4204  -32.3947 H   0  0  0  0  0  0  0  0  0  0  0  0
   -5.8150   23.6196  -30.0993 H   0  0  0  0  0  0  0  0  0  0  0  0
   -4.9108   22.3882  -29.1502 H   0  0  0  0  0  0  0  0  0  0  0  0
   -3.8418   24.4350  -28.5989 H   0  0  0  0  0  0  0  0  0  0  0  0
   -2.7796   23.7086  -29.8603 H   0  0  0  0  0  0  0  0  0  0  0  0
   -5.6819   25.7743  -29.4856 H   0  0  0  0  0  0  0  0  0  0  0  0
   -5.3986   26.6279  -31.0405 H   0  0  0  0  0  0  0  0  0  0  0  0
   -5.8738   24.8956  -31.0405 H   0  0  0  0  0  0  0  0  0  0  0  0
   -5.5780   23.8480  -32.3292 H   0  0  0  0  0  0  0  0  0  0  0  0
   -4.9594   22.4498  -33.2904 H   0  0  0  0  0  0  0  0  0  0  0  0
   -7.6978   23.8914  -31.5128 H   0  0  0  0  0  0  0  0  0  0  0  0
   -9.9624   22.8896  -31.3047 H   0  0  0  0  0  0  0  0  0  0  0  0
  -10.3194   20.4853  -31.8422 H   0  0  0  0  0  0  0  0  0  0  0  0
   -8.4033   19.0587  -32.5318 H   0  0  0  0  0  0  0  0  0  0  0  0
  1  2  1  0
  2  3  1  0
  3  4  1  0
  4  5  2  0
  5  6  1  0
  6  7  2  0
  7  8  1  0
  8  9  1  0
  9 10  1  0
 10 11  1  0
 11 12  1  0
 12 13  1  0
  9 14  1  0
 14 15  1  0
 15 16  2  0
 16 17  1  0
 17 18  2  0
 18 19  1  0
 19 20  2  0
 20 21  1  0
 21 22  1  0
 21 23  1  0
 21 24  1  0
  7  3  1  0
 20 15  1  0
  1 25  1  0
  1 26  1  0
  1 27  1  0
  2 28  1  0
  2 29  1  0
  4 30  1  0
  5 31  1  0
  6 32  1  0
  8 33  1  0
  8 34  1  0
 10 35  1  0
 10 36  1  0
 11 37  1  0
 11 38  1  0
 13 39  1  0
 13 40  1  0
 13 41  1  0
 14 42  1  0
 14 43  1  0
 16 44  1  0
 17 45  1  0
 18 46  1  0
 19 47  1  0
M  CHG  1   6   1
M  END
>  <UniqueID>  (21) 
21

>  <SMILES>  (21) 
CCn1cc[nH+]c1CN(CCOC)Cc1ccccc1C(F)(F)F

>  <Energy>  (21) 
77.98620546288689

>  <Genealogy>  (21) 
CCn1cc[nH+]c1CN(CCOC)Cc1ccccc1C(F)(F)F (protonated)
CCn1cc[nH+]c1CN(CCOC)Cc1ccccc1C(F)(F)F (3D coordinates assigned)
CCn1cc[nH+]c1CN(CCOC)Cc1ccccc1C(F)(F)F (optimized conformer: 77.98620546288689 kcal/mol)

>  <smiles>  (21) 
CCn1ccnc1CN(CCOC)Cc1ccccc1C(F)(F)F

>  <score_type>  (21) 
oracle

>  <origin>  (21) 
adg

>  <m_score__min__energy>  (21) 
-6.3099999999999996

>  <m_primary>  (21) 
energy

$$$$
21:0
     RDKit          3D

 52 54  0  0  0  0  0  0  0  0999 V2000
   -2.7130   20.6240  -27.8400 C   0  0  0  0  0  0  0  0  0  0  0  0
   -3.3690   21.9640  -28.1690 C   0  0  0  0  0  0  0  0  0  0  0  0
   -3.2560   22.2440  -29.5520 O   0  0  0  0  0  0  0  0  0  0  0  0
   -2.2500   23.2100  -29.7790 C   0  0  0  0  0  0  0  0  0  0  0  0
   -2.6810   24.5500  -29.1780 C   0  0  0  0  0  0  0  0  0  0  0  0
   -3.5260   25.2740  -30.0550 O   0  0  0  0  0  0  0  0  0  0  0  0
   -4.8850   24.9160  -29.8720 C   0  0  0  0  0  0  0  0  0  0  0  0
   -5.6070   24.9220  -31.2230 C   0  0  0  0  0  0  0  0  0  0  0  0
   -6.3670   23.6170  -31.5030 C   0  0  0  0  0  0  0  0  0  0  0  0
   -5.5600   22.4420  -31.1640 N   0  0  0  0  0  0  0  0  0  0  0  0
   -5.6100   21.2350  -31.9460 C   0  0  0  0  0  0  0  0  0  0  0  0
   -4.4620   20.7830  -32.6240 C   0  0  0  0  0  0  0  0  0  0  0  0
   -3.2420   21.4880  -32.5280 C   0  0  0  0  0  0  0  0  0  0  0  0
   -2.0880   21.0050  -33.1400 C   0  0  0  0  0  0  0  0  0  0  0  0
   -2.1250   19.8090  -33.8470 C   0  0  0  0  0  0  0  0  0  0  0  0
   -3.3220   19.1030  -33.9710 C   0  0  0  0  0  0  0  0  0  0  0  0
   -4.5230   19.5880  -33.3920 C   0  0  0  0  0  0  0  0  0  0  0  0
   -5.7250   18.9210  -33.5430 N   0  0  0  0  0  0  0  0  0  0  0  0
   -5.8560   17.8510  -34.5600 C   0  0  0  0  0  0  0  0  0  0  0  0
   -6.8160   19.2740  -32.7700 C   0  0  0  0  0  0  0  0  0  0  0  0
   -7.9800   18.4630  -32.7070 C   0  0  0  0  0  0  0  0  0  0  0  0
   -9.1050   18.8720  -31.9940 C   0  0  0  0  0  0  0  0  0  0  0  0
   -9.1040   20.0910  -31.3250 C   0  0  0  0  0  0  0  0  0  0  0  0
   -7.9600   20.8880  -31.3310 C   0  0  0  0  0  0  0  0  0  0  0  0
   -6.7920   20.4720  -32.0070 C   0  0  0  0  0  0  0  0  0  0  0  0
   -2.6538   20.5030  -26.7483 H   0  0  0  0  0  0  0  0  0  0  0  0
   -3.3131   19.8072  -28.2674 H   0  0  0  0  0  0  0  0  0  0  0  0
   -1.6998   20.5970  -28.2674 H   0  0  0  0  0  0  0  0  0  0  0  0
   -4.4332   21.9236  -27.8934 H   0  0  0  0  0  0  0  0  0  0  0  0
   -2.8608   22.7580  -27.6022 H   0  0  0  0  0  0  0  0  0  0  0  0
   -1.3129   22.8810  -29.3061 H   0  0  0  0  0  0  0  0  0  0  0  0
   -2.0940   23.3280  -30.8615 H   0  0  0  0  0  0  0  0  0  0  0  0
   -3.2212   24.3613  -28.2385 H   0  0  0  0  0  0  0  0  0  0  0  0
   -1.7770   25.1513  -29.0012 H   0  0  0  0  0  0  0  0  0  0  0  0
   -4.9419   23.9097  -29.4315 H   0  0  0  0  0  0  0  0  0  0  0  0
   -5.3654   25.6415  -29.1991 H   0  0  0  0  0  0  0  0  0  0  0  0
   -6.3253   25.7550  -31.2329 H   0  0  0  0  0  0  0  0  0  0  0  0
   -4.8411   25.0310  -32.0050 H   0  0  0  0  0  0  0  0  0  0  0  0
   -7.2879   23.6037  -30.9016 H   0  0  0  0  0  0  0  0  0  0  0  0
   -6.6001   23.5772  -32.5773 H   0  0  0  0  0  0  0  0  0  0  0  0
   -5.0630   22.4180  -30.2450 H   0  0  0  0  0  0  0  0  0  0  0  0
   -3.2028   22.4307  -31.9626 H   0  0  0  0  0  0  0  0  0  0  0  0
   -1.1473   21.5701  -33.0638 H   0  0  0  0  0  0  0  0  0  0  0  0
   -1.2073   19.4177  -34.3104 H   0  0  0  0  0  0  0  0  0  0  0  0
   -3.3348   18.1541  -34.5272 H   0  0  0  0  0  0  0  0  0  0  0  0
   -5.9749   16.8799  -34.0573 H   0  0  0  0  0  0  0  0  0  0  0  0
   -6.7367   18.0486  -35.1888 H   0  0  0  0  0  0  0  0  0  0  0  0
   -4.9537   17.8303  -35.1888 H   0  0  0  0  0  0  0  0  0  0  0  0
   -7.9937   17.4954  -33.2300 H   0  0  0  0  0  0  0  0  0  0  0  0
   -9.9966   18.2287  -31.9602 H   0  0  0  0  0  0  0  0  0  0  0  0
  -10.0054   20.4264  -30.7912 H   0  0  0  0  0  0  0  0  0  0  0  0
   -7.9673   21.8528  -30.8026 H   0  0  0  0  0  0  0  0  0  0  0  0
  1  2  1  0
  2  3  1  0
  3  4  1  0
  4  5  1  0
  5  6  1  0
  6  7  1  0
  7  8  1  0
  8  9  1  0
  9 10  1  0
 10 11  1  0
 11 12  2  0
 12 13  1  0
 13 14  2  0
 14 15  1  0
 15 16  2  0
 16 17  1  0
 17 18  2  0
 18 19  1  0
 18 20  1  0
 20 21  2  0
 21 22  1  0
 22 23  2  0
 23 24  1  0
 24 25  2  0
 25 11  1  0
 17 12  1  0
 25 20  1  0
  1 26  1  0
  1 27  1  0
  1 28  1  0
  2 29  1  0
  2 30  1  0
  4 31  1  0
  4 32  1  0
  5 33  1  0
  5 34  1  0
  7 35  1  0
  7 36  1  0
  8 37  1  0
  8 38  1  0
  9 39  1  0
  9 40  1  0
 10 41  1  0
 13 42  1  0
 14 43  1  0
 15 44  1  0
 16 45  1  0
 19 46  1  0
 19 47  1  0
 19 48  1  0
 21 49  1  0
 22 50  1  0
 23 51  1  0
 24 52  1  0
M  CHG  1  18   1
M  END
>  <UniqueID>  (22) 
22

>  <SMILES>  (22) 
CCOCCOCCCNc1c2ccccc2[n+](C)c2ccccc12

>  <Energy>  (22) 
77.01602491394998

>  <Genealogy>  (22) 
CCOCCOCCCNc1c2ccccc2[n+](C)c2ccccc12 (3D coordinates assigned)
CCOCCOCCCNc1c2ccccc2[n+](C)c2ccccc12 (optimized conformer: 77.01602491394998 kcal/mol)

>  <smiles>  (22) 
CCOCCOCCCNc1c2ccccc2[n+](C)c2ccccc12

>  <score_type>  (22) 
oracle

>  <origin>  (22) 
adg

>  <m_score__min__energy>  (22) 
-9.3100000000000005

>  <m_primary>  (22) 
energy

$$$$
22:0
     RDKit          3D

 32 31  0  0  0  0  0  0  0  0999 V2000
   -4.2320   22.1050  -32.7020 C   0  0  0  0  0  0  0  0  0  0  0  0
   -5.6550   21.9780  -32.1550 C   0  0  0  0  0  0  0  0  0  0  0  0
   -6.2550   23.2570  -31.7090 N   0  0  0  0  0  0  0  0  0  0  0  0
   -7.7140   23.3850  -31.9450 C   0  0  0  0  0  0  0  0  0  0  0  0
   -8.5320   22.1330  -31.5930 C   0  0  0  0  0  0  0  0  0  0  0  0
   -5.7760   23.7540  -30.4030 C   0  0  0  0  0  0  0  0  0  0  0  0
   -4.9200   24.9800  -30.5850 C   0  0  0  0  0  0  0  0  0  0  0  0
   -5.4770   26.0700  -30.8790 O   0  0  0  0  0  0  0  0  0  0  0  0
   -3.4940   24.9480  -30.4520 N   0  0  0  0  0  0  0  0  0  0  0  0
   -2.7400   23.9130  -29.7550 C   0  0  0  0  0  0  0  0  0  0  0  0
   -1.9500   24.5300  -28.6070 C   0  0  0  0  0  0  0  0  0  0  0  0
   -1.5350   25.8310  -28.9680 O   0  0  0  0  0  0  0  0  0  0  0  0
   -0.8470   26.4180  -27.8860 C   0  0  0  0  0  0  0  0  0  0  0  0
   -3.5216   22.1684  -31.8646 H   0  0  0  0  0  0  0  0  0  0  0  0
   -3.9958   21.2244  -33.3174 H   0  0  0  0  0  0  0  0  0  0  0  0
   -4.1554   23.0135  -33.3174 H   0  0  0  0  0  0  0  0  0  0  0  0
   -6.2918   21.5568  -32.9469 H   0  0  0  0  0  0  0  0  0  0  0  0
   -5.5935   21.3330  -31.2661 H   0  0  0  0  0  0  0  0  0  0  0  0
   -8.0878   24.2213  -31.3360 H   0  0  0  0  0  0  0  0  0  0  0  0
   -7.8416   23.5467  -33.0255 H   0  0  0  0  0  0  0  0  0  0  0  0
   -8.5973   22.0331  -30.4995 H   0  0  0  0  0  0  0  0  0  0  0  0
   -9.5441   22.2260  -32.0137 H   0  0  0  0  0  0  0  0  0  0  0  0
   -8.0403   21.2435  -32.0137 H   0  0  0  0  0  0  0  0  0  0  0  0
   -6.6413   24.0073  -29.7729 H   0  0  0  0  0  0  0  0  0  0  0  0
   -5.1737   22.9684  -29.9234 H   0  0  0  0  0  0  0  0  0  0  0  0
   -3.4364   23.1610  -29.3556 H   0  0  0  0  0  0  0  0  0  0  0  0
   -2.0423   23.4370  -30.4597 H   0  0  0  0  0  0  0  0  0  0  0  0
   -2.5859   24.5832  -27.7110 H   0  0  0  0  0  0  0  0  0  0  0  0
   -1.0674   23.9092  -28.3934 H   0  0  0  0  0  0  0  0  0  0  0  0
   -1.2735   26.0541  -26.9396 H   0  0  0  0  0  0  0  0  0  0  0  0
    0.2175   26.1456  -27.9372 H   0  0  0  0  0  0  0  0  0  0  0  0
   -0.9484   27.5121  -27.9372 H   0  0  0  0  0  0  0  0  0  0  0  0
  1  2  1  0
  2  3  1  0
  3  4  1  0
  4  5  1  0
  3  6  1  0
  6  7  1  0
  7  8  2  0
  7  9  1  0
  9 10  1  0
 10 11  1  0
 11 12  1  0
 12 13  1  0
  1 14  1  0
  1 15  1  0
  1 16  1  0
  2 17  1  0
  2 18  1  0
  4 19  1  0
  4 20  1  0
  5 21  1  0
  5 22  1  0
  5 23  1  0
  6 24  1  0
  6 25  1  0
 10 26  1  0
 10 27  1  0
 11 28  1  0
 11 29  1  0
 13 30  1  0
 13 31  1  0
 13 32  1  0
M  CHG  1   9  -1
M  END
>  <UniqueID>  (23) 
23

>  <SMILES>  (23) 
CCN(CC)CC(=O)[N-]CCOC

>  <Energy>  (23) 
28.62189964941866

>  <Genealogy>  (23) 
CCN(CC)CC(=O)[N-]CCOC (protonated)
CCN(CC)CC(=O)[N-]CCOC (3D coordinates assigned)
CCN(CC)CC(=O)[N-]CCOC (optimized conformer: 28.62189964941866 kcal/mol)

>  <smiles>  (23) 
CCN(CC)CC(=O)NCCOC

>  <score_type>  (23) 
oracle

>  <origin>  (23) 
adg

>  <m_score__min__energy>  (23) 
-6.5800000000000001

>  <m_primary>  (23) 
energy

$$$$
23:0
     RDKit          3D

 60 63  0  0  0  0  0  0  0  0999 V2000
   -4.2360   24.8810  -26.3670 C   0  0  0  0  0  0  0  0  0  0  0  0
   -4.0490   24.2810  -27.7710 C   0  0  1  0  0  0  0  0  0  0  0  0
   -3.9020   22.7330  -27.7030 C   0  0  0  0  0  0  0  0  0  0  0  0
   -2.7900   22.1760  -28.5590 C   0  0  0  0  0  0  0  0  0  0  0  0
   -1.9320   23.0410  -29.2620 C   0  0  0  0  0  0  0  0  0  0  0  0
   -0.9060   22.5250  -30.0570 C   0  0  0  0  0  0  0  0  0  0  0  0
   -0.7220   21.1430  -30.1540 C   0  0  0  0  0  0  0  0  0  0  0  0
   -1.5630   20.2760  -29.4530 C   0  0  0  0  0  0  0  0  0  0  0  0
   -2.5920   20.7870  -28.6570 C   0  0  0  0  0  0  0  0  0  0  0  0
   -5.1420   24.7250  -28.6710 N   0  0  0  0  0  0  0  0  0  0  0  0
   -5.0860   24.0940  -30.0130 C   0  0  0  0  0  0  0  0  0  0  0  0
   -6.2110   24.5790  -30.9500 C   0  0  0  0  0  0  0  0  0  0  0  0
   -7.0910   23.4430  -31.4910 C   0  0  0  0  0  0  0  0  0  0  0  0
   -6.4930   22.8310  -32.6780 N   0  0  0  0  0  0  0  0  0  0  0  0
   -6.1760   21.4280  -32.7120 C   0  0  0  0  0  0  0  0  0  0  0  0
   -4.8450   21.0080  -32.8900 C   0  0  0  0  0  0  0  0  0  0  0  0
   -3.7910   21.9450  -32.9310 C   0  0  0  0  0  0  0  0  0  0  0  0
   -2.4700   21.5260  -33.0650 C   0  0  0  0  0  0  0  0  0  0  0  0
   -2.1750   20.1700  -33.1390 C   0  0  0  0  0  0  0  0  0  0  0  0
   -3.1990   19.2250  -33.0950 C   0  0  0  0  0  0  0  0  0  0  0  0
   -4.5580   19.6210  -32.9970 C   0  0  0  0  0  0  0  0  0  0  0  0
   -5.5850   18.6960  -32.9810 N   0  0  0  0  0  0  0  0  0  0  0  0
   -5.3260   17.2940  -33.3770 C   0  0  0  0  0  0  0  0  0  0  0  0
   -6.8590   19.0860  -32.6100 C   0  0  0  0  0  0  0  0  0  0  0  0
   -7.8730   18.1390  -32.3150 C   0  0  0  0  0  0  0  0  0  0  0  0
   -9.1690   18.5450  -32.0010 C   0  0  0  0  0  0  0  0  0  0  0  0
   -9.4870   19.8970  -31.9600 C   0  0  0  0  0  0  0  0  0  0  0  0
   -8.5030   20.8530  -32.2040 C   0  0  0  0  0  0  0  0  0  0  0  0
   -7.1810   20.4670  -32.5060 C   0  0  0  0  0  0  0  0  0  0  0  0
   -3.9989   24.1203  -25.6086 H   0  0  0  0  0  0  0  0  0  0  0  0
   -3.5639   25.7431  -26.2442 H   0  0  0  0  0  0  0  0  0  0  0  0
   -5.2789   25.2086  -26.2442 H   0  0  0  0  0  0  0  0  0  0  0  0
   -3.1091   24.6567  -28.2016 H   0  0  0  0  0  0  0  0  0  0  0  0
   -3.7063   22.4512  -26.6579 H   0  0  0  0  0  0  0  0  0  0  0  0
   -4.8403   22.3102  -28.0914 H   0  0  0  0  0  0  0  0  0  0  0  0
   -2.0698   24.1296  -29.1853 H   0  0  0  0  0  0  0  0  0  0  0  0
   -0.2418   23.2074  -30.6076 H   0  0  0  0  0  0  0  0  0  0  0  0
    0.0851   20.7382  -30.7823 H   0  0  0  0  0  0  0  0  0  0  0  0
   -1.4153   19.1885  -29.5275 H   0  0  0  0  0  0  0  0  0  0  0  0
   -3.2499   20.0998  -28.1048 H   0  0  0  0  0  0  0  0  0  0  0  0
   -6.0680   24.5200  -28.2310 H   0  0  0  0  0  0  0  0  0  0  0  0
   -5.1070   25.7660  -28.7650 H   0  0  0  0  0  0  0  0  0  0  0  0
   -4.1167   24.3345  -30.4741 H   0  0  0  0  0  0  0  0  0  0  0  0
   -5.2149   23.0104  -29.8746 H   0  0  0  0  0  0  0  0  0  0  0  0
   -6.8505   25.2793  -30.3926 H   0  0  0  0  0  0  0  0  0  0  0  0
   -5.7276   25.0540  -31.8164 H   0  0  0  0  0  0  0  0  0  0  0  0
   -7.2065   22.6759  -30.7111 H   0  0  0  0  0  0  0  0  0  0  0  0
   -8.0690   23.8621  -31.7700 H   0  0  0  0  0  0  0  0  0  0  0  0
   -6.1330   23.4480  -33.4400 H   0  0  0  0  0  0  0  0  0  0  0  0
   -4.0155   23.0192  -32.8562 H   0  0  0  0  0  0  0  0  0  0  0  0
   -1.6597   22.2684  -33.1123 H   0  0  0  0  0  0  0  0  0  0  0  0
   -1.1295   19.8410  -33.2326 H   0  0  0  0  0  0  0  0  0  0  0  0
   -2.9493   18.1545  -33.1370 H   0  0  0  0  0  0  0  0  0  0  0  0
   -5.2114   16.6737  -32.4759 H   0  0  0  0  0  0  0  0  0  0  0  0
   -6.1702   16.9199  -33.9748 H   0  0  0  0  0  0  0  0  0  0  0  0
   -4.4038   17.2462  -33.9748 H   0  0  0  0  0  0  0  0  0  0  0  0
   -7.6325   17.0658  -32.3343 H   0  0  0  0  0  0  0  0  0  0  0  0
   -9.9422   17.7929  -31.7851 H   0  0  0  0  0  0  0  0  0  0  0  0
  -10.5163   20.2129  -31.7348 H   0  0  0  0  0  0  0  0  0  0  0  0
   -8.7607   21.9215  -32.1605 H   0  0  0  0  0  0  0  0  0  0  0  0
  1  2  1  0
  2  3  1  0
  3  4  1  0
  4  5  2  0
  5  6  1  0
  6  7  2  0
  7  8  1  0
  8  9  2  0
  2 10  1  0
 10 11  1  0
 11 12  1  0
 12 13  1  0
 13 14  1  0
 14 15  1  0
 15 16  1  0
 16 17  2  0
 17 18  1  0
 18 19  2  0
 19 20  1  0
 20 21  2  0
 21 22  1  0
 22 23  1  0
 22 24  2  0
 24 25  1  0
 25 26  2  0
 26 27  1  0
 27 28  2  0
 28 29  1  0
  9  4  1  0
 29 15  2  0
 21 16  1  0
 29 24  1  0
  1 30  1  0
  1 31  1  0
  1 32  1  0
  2 33  1  6
  3 34  1  0
  3 35  1  0
  5 36  1  0
  6 37  1  0
  7 38  1  0
  8 39  1  0
  9 40  1  0
 10 41  1  0
 10 42  1  0
 11 43  1  0
 11 44  1  0
 12 45  1  0
 12 46  1  0
 13 47  1  0
 13 48  1  0
 14 49  1  0
 17 50  1  0
 18 51  1  0
 19 52  1  0
 20 53  1  0
 23 54  1  0
 23 55  1  0
 23 56  1  0
 25 57  1  0
 26 58  1  0
 27 59  1  0
 28 60  1  0
M  CHG  2  10   1  22   1
M  END
>  <UniqueID>  (24) 
24

>  <SMILES>  (24) 
C[C@@H](Cc1ccccc1)[NH2+]CCCNc1c2ccccc2[n+](C)c2ccccc12

>  <Energy>  (24) 
88.37625873781876

>  <Genealogy>  (24) 
CC(Cc1ccccc1)[NH2+]CCCNc1c2ccccc2[n+](C)c2ccccc12 (protonated)
C[C@@H](Cc1ccccc1)[NH2+]CCCNc1c2ccccc2[n+](C)c2ccccc12 (chirality)
C[C@@H](Cc1ccccc1)[NH2+]CCCNc1c2ccccc2[n+](C)c2ccccc12 (3D coordinates assigned)
C[C@@H](Cc1ccccc1)[NH2+]CCCNc1c2ccccc2[n+](C)c2ccccc12 (optimized conformer: 88.37625873781876 kcal/mol)

>  <smiles>  (24) 
CC(Cc1ccccc1)NCCCNc1c2ccccc2[n+](C)c2ccccc12

>  <score_type>  (24) 
oracle

>  <origin>  (24) 
adg

>  <m_score__min__energy>  (24) 
-9.2200000000000006

>  <m_primary>  (24) 
energy

$$$$
24:0
     RDKit          3D

 35 37  0  0  0  0  0  0  0  0999 V2000
   -0.6919   20.5892  -27.2871 H   0  0  0  0  0  0  0  0  0  0  0  0
   -1.3850   21.0760  -27.9890 C   0  0  0  0  0  0  0  0  0  0  0  0
   -1.0130   21.2600  -29.3230 C   0  0  0  0  0  0  0  0  0  0  0  0
   -0.0265   20.9190  -29.6703 H   0  0  0  0  0  0  0  0  0  0  0  0
   -1.8930   21.8770  -30.2170 C   0  0  0  0  0  0  0  0  0  0  0  0
   -1.5948   22.0230  -31.2657 H   0  0  0  0  0  0  0  0  0  0  0  0
   -3.1580   22.3120  -29.7820 C   0  0  0  0  0  0  0  0  0  0  0  0
   -4.0860   22.9740  -30.7300 C   0  0  0  0  0  0  0  0  0  0  0  0
   -3.8350   24.1590  -31.2000 N   0  0  0  0  0  0  0  0  0  0  0  0
   -4.0760   25.3060  -30.4770 O   0  0  0  0  0  0  0  0  0  0  0  0
   -5.3640   25.9030  -30.4830 C   0  0  0  0  0  0  0  0  0  0  0  0
   -5.8584   25.6977  -31.4440 H   0  0  0  0  0  0  0  0  0  0  0  0
   -5.2641   26.9898  -30.3457 H   0  0  0  0  0  0  0  0  0  0  0  0
   -6.1980   25.3250  -29.3510 C   0  0  0  0  0  0  0  0  0  0  0  0
   -5.7644   25.6255  -28.3857 H   0  0  0  0  0  0  0  0  0  0  0  0
   -7.2281   25.7038  -29.4241 H   0  0  0  0  0  0  0  0  0  0  0  0
   -6.2049   24.2275  -29.4241 H   0  0  0  0  0  0  0  0  0  0  0  0
   -5.3210   22.2840  -31.1490 C   0  0  0  0  0  0  0  0  0  0  0  0
   -6.5330   22.7910  -31.0030 O   0  0  0  0  0  0  0  0  0  0  0  0
   -7.3870   21.9170  -31.4740 C   0  0  0  0  0  0  0  0  0  0  0  0
   -8.7740   22.0230  -31.5290 C   0  0  0  0  0  0  0  0  0  0  0  0
   -9.2909   22.9175  -31.1511 H   0  0  0  0  0  0  0  0  0  0  0  0
   -9.4930   20.9480  -32.0840 C   0  0  0  0  0  0  0  0  0  0  0  0
  -10.5902   20.9977  -32.1438 H   0  0  0  0  0  0  0  0  0  0  0  0
   -8.8150   19.8050  -32.5650 C   0  0  0  0  0  0  0  0  0  0  0  0
   -9.3876   18.9708  -32.9965 H   0  0  0  0  0  0  0  0  0  0  0  0
   -7.4110   19.7280  -32.4950 C   0  0  0  0  0  0  0  0  0  0  0  0
   -6.8704   18.8443  -32.8648 H   0  0  0  0  0  0  0  0  0  0  0  0
   -6.7300   20.8100  -31.9410 C   0  0  0  0  0  0  0  0  0  0  0  0
   -5.3860   21.0220  -31.7400 C   0  0  0  0  0  0  0  0  0  0  0  0
   -4.5519   20.3493  -31.9887 H   0  0  0  0  0  0  0  0  0  0  0  0
   -3.5200   22.1270  -28.4360 C   0  0  0  0  0  0  0  0  0  0  0  0
   -4.5034   22.4698  -28.0818 H   0  0  0  0  0  0  0  0  0  0  0  0
   -2.6370   21.5100  -27.5460 C   0  0  0  0  0  0  0  0  0  0  0  0
   -2.9280   21.3658  -26.4950 H   0  0  0  0  0  0  0  0  0  0  0  0
  1  2  1  0
  2  3  2  0
  3  4  1  0
  3  5  1  0
  5  6  1  0
  5  7  2  0
  7  8  1  0
  8  9  2  0
  9 10  1  0
 10 11  1  0
 11 12  1  0
 11 13  1  0
 11 14  1  0
 14 15  1  0
 14 16  1  0
 14 17  1  0
  8 18  1  0
 18 19  1  0
 19 20  1  0
 20 21  2  0
 21 22  1  0
 21 23  1  0
 23 24  1  0
 23 25  2  0
 25 26  1  0
 25 27  1  0
 27 28  1  0
 27 29  2  0
 29 30  1  0
 30 31  1  0
  7 32  1  0
 32 33  1  0
 32 34  2  0
 34 35  1  0
 34  2  1  0
 30 18  2  0
 29 20  1  0
M  END
>  <UniqueID>  (25) 
25

>  <SMILES>  (25) 
CCO/N=C(\c1ccccc1)c1cc2ccccc2o1

>  <Energy>  (25) 
69.37344462858663

>  <Genealogy>  (25) 
CCO/N=C(\c1ccccc1)c1cc2ccccc2o1 (cis-trans isomerization)
CCO/N=C(\c1ccccc1)c1cc2ccccc2o1 (3D coordinates assigned)
CCO/N=C(\c1ccccc1)c1cc2ccccc2o1 (optimized conformer: 69.37344462858663 kcal/mol)

>  <smiles>  (25) 
CCON=C(c1ccccc1)c1cc2ccccc2o1

>  <score_type>  (25) 
oracle

>  <origin>  (25) 
adg

>  <m_score__min__energy>  (25) 
-7.8200000000000003

>  <m_primary>  (25) 
energy

$$$$
25:0
     RDKit          3D

 63 65  0  0  0  0  0  0  0  0999 V2000
    0.4100   22.3040  -27.2150 C   0  0  0  0  0  0  0  0  0  0  0  0
    1.3680   23.4670  -27.4810 C   0  0  0  0  0  0  0  0  0  0  0  0
    0.6930   24.5350  -28.1200 O   0  0  0  0  0  0  0  0  0  0  0  0
   -0.5560   24.7800  -27.5090 C   0  0  0  0  0  0  0  0  0  0  0  0
   -1.3020   25.8640  -28.2860 C   0  0  0  0  0  0  0  0  0  0  0  0
   -2.0910   25.2990  -29.3230 O   0  0  0  0  0  0  0  0  0  0  0  0
   -2.9010   24.2380  -28.8470 C   0  0  0  0  0  0  0  0  0  0  0  0
   -4.3050   24.3980  -29.4420 C   0  0  0  0  0  0  0  0  0  0  0  0
   -4.2690   24.5670  -30.8450 O   0  0  0  0  0  0  0  0  0  0  0  0
   -5.3740   23.9700  -31.4930 C   0  0  0  0  0  0  0  0  0  0  0  0
   -5.3140   22.4340  -31.3990 C   0  0  0  0  0  0  0  0  0  0  0  0
   -5.0490   21.7870  -32.6950 N   0  0  0  0  0  0  0  0  0  0  0  0
   -5.4450   20.4360  -32.9970 C   0  0  0  0  0  0  0  0  0  0  0  0
   -6.7710   20.0230  -32.7390 C   0  0  0  0  0  0  0  0  0  0  0  0
   -7.7670   20.9440  -32.3470 C   0  0  0  0  0  0  0  0  0  0  0  0
   -9.0300   20.5110  -31.9400 C   0  0  0  0  0  0  0  0  0  0  0  0
   -9.3210   19.1520  -31.9200 C   0  0  0  0  0  0  0  0  0  0  0  0
   -8.3780   18.2320  -32.3680 C   0  0  0  0  0  0  0  0  0  0  0  0
   -7.1130   18.6530  -32.8580 C   0  0  0  0  0  0  0  0  0  0  0  0
   -6.2160   17.7640  -33.4220 N   0  0  0  0  0  0  0  0  0  0  0  0
   -6.6740   16.4270  -33.8580 C   0  0  0  0  0  0  0  0  0  0  0  0
   -4.9020   18.1370  -33.6310 C   0  0  0  0  0  0  0  0  0  0  0  0
   -3.9200   17.1740  -33.9830 C   0  0  0  0  0  0  0  0  0  0  0  0
   -2.6030   17.5400  -34.2120 C   0  0  0  0  0  0  0  0  0  0  0  0
   -2.2200   18.8630  -34.1130 C   0  0  0  0  0  0  0  0  0  0  0  0
   -3.1400   19.8560  -33.7350 C   0  0  0  0  0  0  0  0  0  0  0  0
   -2.7180   21.1890  -33.5960 O   0  0  0  0  0  0  0  0  0  0  0  0
   -1.7210   21.6530  -32.6910 C   0  0  0  0  0  0  0  0  0  0  0  0
   -2.0730   21.2040  -31.2770 C   0  0  0  0  0  0  0  0  0  0  0  0
   -4.4930   19.4940  -33.4720 C   0  0  0  0  0  0  0  0  0  0  0  0
    0.2951   22.1645  -26.1300 H   0  0  0  0  0  0  0  0  0  0  0  0
   -0.5701   22.5268  -27.6619 H   0  0  0  0  0  0  0  0  0  0  0  0
    0.8163   21.3847  -27.6619 H   0  0  0  0  0  0  0  0  0  0  0  0
    1.7804   23.8211  -26.5247 H   0  0  0  0  0  0  0  0  0  0  0  0
    2.1768   23.1157  -28.1386 H   0  0  0  0  0  0  0  0  0  0  0  0
   -1.1510   23.8548  -27.5081 H   0  0  0  0  0  0  0  0  0  0  0  0
   -0.3970   25.1160  -26.4737 H   0  0  0  0  0  0  0  0  0  0  0  0
   -1.9576   26.4144  -27.5951 H   0  0  0  0  0  0  0  0  0  0  0  0
   -0.5624   26.5406  -28.7391 H   0  0  0  0  0  0  0  0  0  0  0  0
   -2.4725   23.2743  -29.1594 H   0  0  0  0  0  0  0  0  0  0  0  0
   -2.9505   24.2632  -27.7484 H   0  0  0  0  0  0  0  0  0  0  0  0
   -4.8947   23.4995  -29.2075 H   0  0  0  0  0  0  0  0  0  0  0  0
   -4.7598   25.2981  -29.0027 H   0  0  0  0  0  0  0  0  0  0  0  0
   -6.3014   24.3222  -31.0178 H   0  0  0  0  0  0  0  0  0  0  0  0
   -5.3491   24.2544  -32.5553 H   0  0  0  0  0  0  0  0  0  0  0  0
   -4.5122   22.1569  -30.6987 H   0  0  0  0  0  0  0  0  0  0  0  0
   -6.2993   22.0872  -31.0541 H   0  0  0  0  0  0  0  0  0  0  0  0
   -4.6340   22.3620  -33.4660 H   0  0  0  0  0  0  0  0  0  0  0  0
   -7.5438   22.0210  -32.3626 H   0  0  0  0  0  0  0  0  0  0  0  0
   -9.7927   21.2430  -31.6360 H   0  0  0  0  0  0  0  0  0  0  0  0
  -10.2966   18.8038  -31.5501 H   0  0  0  0  0  0  0  0  0  0  0  0
   -8.6167   17.1585  -32.3422 H   0  0  0  0  0  0  0  0  0  0  0  0
   -6.8866   15.8063  -32.9751 H   0  0  0  0  0  0  0  0  0  0  0  0
   -7.5877   16.5312  -34.4616 H   0  0  0  0  0  0  0  0  0  0  0  0
   -5.8883   15.9491  -34.4616 H   0  0  0  0  0  0  0  0  0  0  0  0
   -4.2100   16.1170  -34.0758 H   0  0  0  0  0  0  0  0  0  0  0  0
   -1.8593   16.7730  -34.4739 H   0  0  0  0  0  0  0  0  0  0  0  0
   -1.1795   19.1439  -34.3332 H   0  0  0  0  0  0  0  0  0  0  0  0
   -0.7438   21.2360  -32.9760 H   0  0  0  0  0  0  0  0  0  0  0  0
   -1.6742   22.7514  -32.7271 H   0  0  0  0  0  0  0  0  0  0  0  0
   -1.5643   21.8529  -30.5489 H   0  0  0  0  0  0  0  0  0  0  0  0
   -3.1612   21.2717  -31.1310 H   0  0  0  0  0  0  0  0  0  0  0  0
   -1.7475   20.1635  -31.1310 H   0  0  0  0  0  0  0  0  0  0  0  0
  1  2  1  0
  2  3  1  0
  3  4  1  0
  4  5  1  0
  5  6  1  0
  6  7  1  0
  7  8  1  0
  8  9  1  0
  9 10  1  0
 10 11  1  0
 11 12  1  0
 12 13  1  0
 13 14  2  0
 14 15  1  0
 15 16  2  0
 16 17  1  0
 17 18  2  0
 18 19  1  0
 19 20  2  0
 20 21  1  0
 20 22  1  0
 22 23  2  0
 23 24  1  0
 24 25  2  0
 25 26  1  0
 26 27  1  0
 27 28  1  0
 28 29  1  0
 26 30  2  0
 30 13  1  0
 19 14  1  0
 30 22  1  0
  1 31  1  0
  1 32  1  0
  1 33  1  0
  2 34  1  0
  2 35  1  0
  4 36  1  0
  4 37  1  0
  5 38  1  0
  5 39  1  0
  7 40  1  0
  7 41  1  0
  8 42  1  0
  8 43  1  0
 10 44  1  0
 10 45  1  0
 11 46  1  0
 11 47  1  0
 12 48  1  0
 15 49  1  0
 16 50  1  0
 17 51  1  0
 18 52  1  0
 21 53  1  0
 21 54  1  0
 21 55  1  0
 23 56  1  0
 24 57  1  0
 25 58  1  0
 28 59  1  0
 28 60  1  0
 29 61  1  0
 29 62  1  0
 29 63  1  0
M  CHG  1  20   1
M  END
>  <UniqueID>  (26) 
26

>  <SMILES>  (26) 
CCOCCOCCOCCNc1c2ccccc2[n+](C)c2cccc(OCC)c12

>  <Energy>  (26) 
94.96329705417516

>  <Genealogy>  (26) 
CCOCCOCCOCCNc1c2ccccc2[n+](C)c2cccc(OCC)c12 (3D coordinates assigned)
CCOCCOCCOCCNc1c2ccccc2[n+](C)c2cccc(OCC)c12 (optimized conformer: 94.96329705417516 kcal/mol)

>  <smiles>  (26) 
CCOCCOCCOCCNc1c2ccccc2[n+](C)c2cccc(OCC)c12

>  <score_type>  (26) 
oracle

>  <origin>  (26) 
adg

>  <m_score__min__energy>  (26) 
-8.25

>  <m_primary>  (26) 
energy

$$$$
26:0
     RDKit          3D

 74 77  0  0  0  0  0  0  0  0999 V2000
    0.2850   21.6480  -35.4030 C   0  0  0  0  0  0  0  0  0  0  0  0
   -0.3780   20.2960  -35.1770 C   0  0  0  0  0  0  0  0  0  0  0  0
   -1.5560   20.4470  -34.3860 O   0  0  0  0  0  0  0  0  0  0  0  0
   -1.5700   21.1500  -33.1730 C   0  0  0  0  0  0  0  0  0  0  0  0
   -0.5650   21.1300  -32.4100 O   0  0  0  0  0  0  0  0  0  0  0  0
   -2.7910   21.9220  -32.7710 C   0  0  0  0  0  0  0  0  0  0  0  0
   -3.9660   21.5190  -33.5660 N   0  0  0  0  0  0  0  0  0  0  0  0
   -5.1040   21.1960  -32.7090 C   0  0  0  0  0  0  0  0  0  0  0  0
   -5.7000   22.2110  -31.9200 C   0  0  0  0  0  0  0  0  0  0  0  0
   -4.9900   23.3760  -31.5470 C   0  0  0  0  0  0  0  0  0  0  0  0
   -5.5810   24.3520  -30.7510 C   0  0  0  0  0  0  0  0  0  0  0  0
   -6.8830   24.1890  -30.2960 C   0  0  0  0  0  0  0  0  0  0  0  0
   -7.6140   23.0590  -30.6640 C   0  0  0  0  0  0  0  0  0  0  0  0
   -7.0530   22.0710  -31.5110 C   0  0  0  0  0  0  0  0  0  0  0  0
   -7.7960   21.0030  -31.9620 N   0  0  0  0  0  0  0  0  0  0  0  0
   -9.2760   21.0500  -31.8930 C   0  0  0  0  0  0  0  0  0  0  0  0
   -7.1570   19.8890  -32.4680 C   0  0  0  0  0  0  0  0  0  0  0  0
   -7.8590   18.6760  -32.6670 C   0  0  0  0  0  0  0  0  0  0  0  0
   -7.2230   17.5500  -33.1690 C   0  0  0  0  0  0  0  0  0  0  0  0
   -5.8600   17.5670  -33.3990 C   0  0  0  0  0  0  0  0  0  0  0  0
   -5.1040   18.7270  -33.1500 C   0  0  0  0  0  0  0  0  0  0  0  0
   -3.7030   18.6650  -33.1710 O   0  0  0  0  0  0  0  0  0  0  0  0
   -2.9310   17.8020  -34.0080 C   0  0  0  0  0  0  0  0  0  0  0  0
   -2.1650   16.7490  -33.1800 C   0  0  0  0  0  0  0  0  0  0  0  0
   -2.2370   15.3280  -33.6590 N   0  0  0  0  0  0  0  0  0  0  0  0
   -0.8700   14.8280  -33.9580 C   0  0  0  0  0  0  0  0  0  0  0  0
   -3.0950   15.2290  -34.8860 C   0  0  0  0  0  0  0  0  0  0  0  0
   -3.8620   13.8920  -34.9670 C   0  0  0  0  0  0  0  0  0  0  0  0
   -4.8200   13.7280  -33.8290 N   0  0  0  0  0  0  0  0  0  0  0  0
   -5.0110   12.2760  -33.5670 C   0  0  0  0  0  0  0  0  0  0  0  0
   -6.1430   14.3030  -34.1950 C   0  0  0  0  0  0  0  0  0  0  0  0
   -4.3260   14.4030  -32.5820 C   0  0  0  0  0  0  0  0  0  0  0  0
   -2.7890   14.4860  -32.5420 C   0  0  0  0  0  0  0  0  0  0  0  0
   -5.7670   19.9380  -32.7880 C   0  0  0  0  0  0  0  0  0  0  0  0
    0.5124   22.1118  -34.4318 H   0  0  0  0  0  0  0  0  0  0  0  0
    1.2172   21.5090  -35.9702 H   0  0  0  0  0  0  0  0  0  0  0  0
   -0.3956   22.2999  -35.9702 H   0  0  0  0  0  0  0  0  0  0  0  0
   -0.6476   19.8573  -36.1490 H   0  0  0  0  0  0  0  0  0  0  0  0
    0.3258   19.6369  -34.6477 H   0  0  0  0  0  0  0  0  0  0  0  0
   -2.9978   21.7365  -31.7067 H   0  0  0  0  0  0  0  0  0  0  0  0
   -2.6006   22.9905  -32.9502 H   0  0  0  0  0  0  0  0  0  0  0  0
   -3.7220   20.7110  -34.1790 H   0  0  0  0  0  0  0  0  0  0  0  0
   -4.1430   22.3000  -34.2240 H   0  0  0  0  0  0  0  0  0  0  0  0
   -3.9543   23.5125  -31.8917 H   0  0  0  0  0  0  0  0  0  0  0  0
   -5.0151   25.2559  -30.4811 H   0  0  0  0  0  0  0  0  0  0  0  0
   -7.3378   24.9506  -29.6456 H   0  0  0  0  0  0  0  0  0  0  0  0
   -8.6412   22.9331  -30.2911 H   0  0  0  0  0  0  0  0  0  0  0  0
   -9.5938   21.0601  -30.8400 H   0  0  0  0  0  0  0  0  0  0  0  0
   -9.6377   21.9601  -32.3939 H   0  0  0  0  0  0  0  0  0  0  0  0
   -9.6947   20.1647  -32.3939 H   0  0  0  0  0  0  0  0  0  0  0  0
   -8.9294   18.6253  -32.4188 H   0  0  0  0  0  0  0  0  0  0  0  0
   -7.8046   16.6415  -33.3845 H   0  0  0  0  0  0  0  0  0  0  0  0
   -5.3613   16.6639  -33.7808 H   0  0  0  0  0  0  0  0  0  0  0  0
   -3.6049   17.2857  -34.7075 H   0  0  0  0  0  0  0  0  0  0  0  0
   -2.1969   18.4145  -34.5520 H   0  0  0  0  0  0  0  0  0  0  0  0
   -1.1050   17.0425  -33.1672 H   0  0  0  0  0  0  0  0  0  0  0  0
   -2.6544   16.7458  -32.1949 H   0  0  0  0  0  0  0  0  0  0  0  0
   -0.3367   14.6329  -33.0159 H   0  0  0  0  0  0  0  0  0  0  0  0
   -0.9392   13.8970  -34.5397 H   0  0  0  0  0  0  0  0  0  0  0  0
   -0.3222   15.5840  -34.5397 H   0  0  0  0  0  0  0  0  0  0  0  0
   -3.8236   16.0531  -34.8740 H   0  0  0  0  0  0  0  0  0  0  0  0
   -2.4321   15.2867  -35.7619 H   0  0  0  0  0  0  0  0  0  0  0  0
   -4.4240   13.8612  -35.9121 H   0  0  0  0  0  0  0  0  0  0  0  0
   -3.1280   13.0744  -34.9150 H   0  0  0  0  0  0  0  0  0  0  0  0
   -5.0343   12.0992  -32.4815 H   0  0  0  0  0  0  0  0  0  0  0  0
   -5.9605   11.9447  -34.0129 H   0  0  0  0  0  0  0  0  0  0  0  0
   -4.1795   11.7105  -34.0129 H   0  0  0  0  0  0  0  0  0  0  0  0
   -6.7029   14.5463  -33.2799 H   0  0  0  0  0  0  0  0  0  0  0  0
   -5.9940   15.2175  -34.7878 H   0  0  0  0  0  0  0  0  0  0  0  0
   -6.7100   13.5701  -34.7878 H   0  0  0  0  0  0  0  0  0  0  0  0
   -4.7379   15.4222  -32.5427 H   0  0  0  0  0  0  0  0  0  0  0  0
   -4.6569   13.8069  -31.7188 H   0  0  0  0  0  0  0  0  0  0  0  0
   -2.4828   14.9264  -31.5816 H   0  0  0  0  0  0  0  0  0  0  0  0
   -2.3923   13.4667  -32.6593 H   0  0  0  0  0  0  0  0  0  0  0  0
  1  2  1  0
  2  3  1  0
  3  4  1  0
  4  5  2  0
  4  6  1  0
  6  7  1  0
  7  8  1  0
  8  9  2  0
  9 10  1  0
 10 11  2  0
 11 12  1  0
 12 13  2  0
 13 14  1  0
 14 15  2  0
 15 16  1  0
 15 17  1  0
 17 18  2  0
 18 19  1  0
 19 20  2  0
 20 21  1  0
 21 22  1  0
 22 23  1  0
 23 24  1  0
 24 25  1  0
 25 26  1  0
 25 27  1  0
 27 28  1  0
 28 29  1  0
 29 30  1  0
 29 31  1  0
 29 32  1  0
 32 33  1  0
 21 34  2  0
 34  8  1  0
 14  9  1  0
 34 17  1  0
 33 25  1  0
  1 35  1  0
  1 36  1  0
  1 37  1  0
  2 38  1  0
  2 39  1  0
  6 40  1  0
  6 41  1  0
  7 42  1  0
  7 43  1  0
 10 44  1  0
 11 45  1  0
 12 46  1  0
 13 47  1  0
 16 48  1  0
 16 49  1  0
 16 50  1  0
 18 51  1  0
 19 52  1  0
 20 53  1  0
 23 54  1  0
 23 55  1  0
 24 56  1  0
 24 57  1  0
 26 58  1  0
 26 59  1  0
 26 60  1  0
 27 61  1  0
 27 62  1  0
 28 63  1  0
 28 64  1  0
 30 65  1  0
 30 66  1  0
 30 67  1  0
 31 68  1  0
 31 69  1  0
 31 70  1  0
 32 71  1  0
 32 72  1  0
 33 73  1  0
 33 74  1  0
M  CHG  4   7   1  15   1  25   1  29   1
M  END
>  <UniqueID>  (27) 
27

>  <SMILES>  (27) 
CCOC(=O)C[NH2+]c1c2ccccc2[n+](C)c2cccc(OCC[N+]3(C)CC[N+](C)(C)CC3)c12

>  <Energy>  (27) 
132.32889410524191

>  <Genealogy>  (27) 
CCOC(=O)C[NH2+]c1c2ccccc2[n+](C)c2cccc(OCC[N+]3(C)CC[N+](C)(C)CC3)c12 (protonated)
CCOC(=O)C[NH2+]c1c2ccccc2[n+](C)c2cccc(OCC[N+]3(C)CC[N+](C)(C)CC3)c12 (3D coordinates assigned)
CCOC(=O)C[NH2+]c1c2ccccc2[n+](C)c2cccc(OCC[N+]3(C)CC[N+](C)(C)CC3)c12 (nonaromatic ring conformer: 132.32889410524191 kcal/mol)

>  <smiles>  (27) 
CCOC(=O)CNc1c2ccccc2[n+](C)c2cccc(OCC[N+]3(C)CC[N+](C)(C)CC3)c12

>  <score_type>  (27) 
oracle

>  <origin>  (27) 
adg

>  <m_score__min__energy>  (27) 
-7.2699999999999996

>  <m_primary>  (27) 
energy

$$$$
27:0
     RDKit          3D

 67 68  0  0  0  0  0  0  0  0999 V2000
   -2.6690   18.7710  -26.3750 C   0  0  0  0  0  0  0  0  0  0  0  0
   -3.1270   19.7460  -27.4720 C   0  0  0  0  0  0  0  0  0  0  0  0
   -2.0180   20.3300  -28.2680 N   0  0  2  0  0  0  0  0  0  0  0  0
   -0.7990   19.4990  -28.1930 C   0  0  0  0  0  0  0  0  0  0  0  0
   -1.7480   21.7430  -27.8940 C   0  0  0  0  0  0  0  0  0  0  0  0
   -1.4950   22.6360  -29.1140 C   0  0  0  0  0  0  0  0  0  0  0  0
   -1.7610   21.8910  -30.2840 O   0  0  0  0  0  0  0  0  0  0  0  0
   -0.5730   21.6740  -31.0230 C   0  0  0  0  0  0  0  0  0  0  0  0
   -0.5990   20.2740  -31.6390 C   0  0  0  0  0  0  0  0  0  0  0  0
   -1.7730   19.5710  -31.2350 O   0  0  0  0  0  0  0  0  0  0  0  0
   -3.0740   19.9700  -31.5730 C   0  0  0  0  0  0  0  0  0  0  0  0
   -3.9640   20.0940  -30.6860 O   0  0  0  0  0  0  0  0  0  0  0  0
   -3.4230   20.2200  -33.0130 C   0  0  2  0  0  0  0  0  0  0  0  0
   -3.7280   21.7120  -33.2430 C   0  0  0  0  0  0  0  0  0  0  0  0
   -4.7530   22.2460  -32.2440 C   0  0  0  0  0  0  0  0  0  0  0  0
   -6.0860   21.7690  -32.5980 N   0  0  0  0  0  0  0  0  0  0  0  0
   -6.5940   20.5800  -32.4190 C   0  0  0  0  0  0  0  0  0  0  0  0
   -5.8780   19.3160  -32.7920 C   0  0  0  0  0  0  0  0  0  0  0  0
   -6.4960   18.1410  -32.5790 C   0  0  0  0  0  0  0  0  0  0  0  0
   -7.8270   18.0630  -31.9560 C   0  0  0  0  0  0  0  0  0  0  0  0
   -8.4800   19.1670  -31.5970 C   0  0  0  0  0  0  0  0  0  0  0  0
   -7.9080   20.4680  -31.8190 N   0  0  0  0  0  0  0  0  0  0  0  0
   -8.6530   21.6460  -31.3550 C   0  0  0  0  0  0  0  0  0  0  0  0
   -7.9140   22.3620  -30.2150 C   0  0  0  0  0  0  0  0  0  0  0  0
   -7.2680   23.6840  -30.6810 C   0  0  0  0  0  0  0  0  0  0  0  0
   -6.2400   24.2200  -29.7610 N   0  0  0  0  0  0  0  0  0  0  0  0
   -5.4460   25.3090  -30.3570 C   0  0  0  0  0  0  0  0  0  0  0  0
   -5.3710   23.1720  -29.2010 C   0  0  0  0  0  0  0  0  0  0  0  0
   -4.5370   19.2890  -33.4250 C   0  0  0  0  0  0  0  0  0  0  0  0
   -4.2850   18.3930  -34.2770 O   0  0  0  0  0  0  0  0  0  0  0  0
   -2.8744   19.2082  -25.3868 H   0  0  0  0  0  0  0  0  0  0  0  0
   -3.2154   17.8217  -26.4767 H   0  0  0  0  0  0  0  0  0  0  0  0
   -1.5895   18.5855  -26.4767 H   0  0  0  0  0  0  0  0  0  0  0  0
   -3.7960   19.2049  -28.1573 H   0  0  0  0  0  0  0  0  0  0  0  0
   -3.6261   20.5836  -26.9627 H   0  0  0  0  0  0  0  0  0  0  0  0
   -2.3420   20.3070  -29.2660 H   0  0  0  0  0  0  0  0  0  0  0  0
   -0.5399   19.3224  -27.1386 H   0  0  0  0  0  0  0  0  0  0  0  0
   -0.9806   18.5358  -28.6923 H   0  0  0  0  0  0  0  0  0  0  0  0
    0.0312   20.0200  -28.6923 H   0  0  0  0  0  0  0  0  0  0  0  0
   -2.6168   22.1345  -27.3446 H   0  0  0  0  0  0  0  0  0  0  0  0
   -0.8383   21.7567  -27.2758 H   0  0  0  0  0  0  0  0  0  0  0  0
   -2.1582   23.5127  -29.0748 H   0  0  0  0  0  0  0  0  0  0  0  0
   -0.4496   22.9782  -29.1174 H   0  0  0  0  0  0  0  0  0  0  0  0
   -0.4978   22.4246  -31.8236 H   0  0  0  0  0  0  0  0  0  0  0  0
    0.2948   21.7616  -30.3527 H   0  0  0  0  0  0  0  0  0  0  0  0
   -0.5887   20.3609  -32.7355 H   0  0  0  0  0  0  0  0  0  0  0  0
    0.2848   19.7175  -31.2939 H   0  0  0  0  0  0  0  0  0  0  0  0
   -2.5664   19.9943  -33.6652 H   0  0  0  0  0  0  0  0  0  0  0  0
   -2.7956   22.2858  -33.1365 H   0  0  0  0  0  0  0  0  0  0  0  0
   -4.1487   21.8215  -34.2535 H   0  0  0  0  0  0  0  0  0  0  0  0
   -4.4958   21.8940  -31.2341 H   0  0  0  0  0  0  0  0  0  0  0  0
   -4.7434   23.3457  -32.2678 H   0  0  0  0  0  0  0  0  0  0  0  0
   -5.9918   17.2106  -32.8793 H   0  0  0  0  0  0  0  0  0  0  0  0
   -8.2889   17.0795  -31.7845 H   0  0  0  0  0  0  0  0  0  0  0  0
   -9.4698   19.0827  -31.1245 H   0  0  0  0  0  0  0  0  0  0  0  0
   -8.7776   22.3447  -32.1954 H   0  0  0  0  0  0  0  0  0  0  0  0
   -9.6307   21.3113  -30.9779 H   0  0  0  0  0  0  0  0  0  0  0  0
   -8.6313   22.5821  -29.4106 H   0  0  0  0  0  0  0  0  0  0  0  0
   -7.1105   21.6983  -29.8631 H   0  0  0  0  0  0  0  0  0  0  0  0
   -6.7968   23.5104  -31.6597 H   0  0  0  0  0  0  0  0  0  0  0  0
   -8.0746   24.4309  -30.7197 H   0  0  0  0  0  0  0  0  0  0  0  0
   -5.0013   25.9189  -29.5568 H   0  0  0  0  0  0  0  0  0  0  0  0
   -4.6463   24.8814  -30.9795 H   0  0  0  0  0  0  0  0  0  0  0  0
   -6.0977   25.9396  -30.9795 H   0  0  0  0  0  0  0  0  0  0  0  0
   -5.4064   23.2147  -28.1024 H   0  0  0  0  0  0  0  0  0  0  0  0
   -5.7200   22.1858  -29.5411 H   0  0  0  0  0  0  0  0  0  0  0  0
   -4.3373   23.3324  -29.5411 H   0  0  0  0  0  0  0  0  0  0  0  0
  1  2  1  0
  2  3  1  0
  3  4  1  0
  3  5  1  0
  5  6  1  0
  6  7  1  0
  7  8  1  0
  8  9  1  0
  9 10  1  0
 10 11  1  0
 11 12  2  0
 11 13  1  0
 13 14  1  0
 14 15  1  0
 15 16  1  0
 16 17  2  0
 17 18  1  0
 18 19  2  0
 19 20  1  0
 20 21  2  0
 21 22  1  0
 22 23  1  0
 23 24  1  0
 24 25  1  0
 25 26  1  0
 26 27  1  0
 26 28  1  0
 18 29  1  0
 29 30  2  0
 29 13  1  0
 22 17  1  0
  1 31  1  0
  1 32  1  0
  1 33  1  0
  2 34  1  0
  2 35  1  0
  3 36  1  6
  4 37  1  0
  4 38  1  0
  4 39  1  0
  5 40  1  0
  5 41  1  0
  6 42  1  0
  6 43  1  0
  8 44  1  0
  8 45  1  0
  9 46  1  0
  9 47  1  0
 13 48  1  6
 14 49  1  0
 14 50  1  0
 15 51  1  0
 15 52  1  0
 19 53  1  0
 20 54  1  0
 21 55  1  0
 23 56  1  0
 23 57  1  0
 24 58  1  0
 24 59  1  0
 25 60  1  0
 25 61  1  0
 27 62  1  0
 27 63  1  0
 27 64  1  0
 28 65  1  0
 28 66  1  0
 28 67  1  0
M  CHG  1   3   1
M  END
>  <UniqueID>  (28) 
28

>  <SMILES>  (28) 
CC[N@H+](C)CCOCCOC(=O)[C@@H]1CCN=C2C(=CC=CN2CCCN(C)C)C1=O

>  <Energy>  (28) 
70.18974626780755

>  <Genealogy>  (28) 
CC[NH+](C)CCOCCOC(=O)C1CCN=C2C(=CC=CN2CCCN(C)C)C1=O (protonated)
CC[N@H+](C)CCOCCOC(=O)[C@@H]1CCN=C2C(=CC=CN2CCCN(C)C)C1=O (chirality)
CC[N@H+](C)CCOCCOC(=O)[C@@H]1CCN=C2C(=CC=CN2CCCN(C)C)C1=O (3D coordinates assigned)
CC[N@H+](C)CCOCCOC(=O)[C@@H]1CCN=C2C(=CC=CN2CCCN(C)C)C1=O (nonaromatic ring conformer: 70.18974626780755 kcal/mol)

>  <smiles>  (28) 
CCN(C)CCOCCOC(=O)C1CCN=C2C(=CC=CN2CCCN(C)C)C1=O

>  <score_type>  (28) 
oracle

>  <origin>  (28) 
adg

>  <m_score__min__energy>  (28) 
-5.3899999999999997

>  <m_primary>  (28) 
energy

$$$$
28:0
     RDKit          3D

 47 50  0  0  0  0  0  0  0  0999 V2000
   -6.4310   25.1710  -29.7170 C   0  0  0  0  0  0  0  0  0  0  0  0
   -5.3230   25.6500  -30.6500 C   0  0  0  0  0  0  0  0  0  0  0  0
   -4.4370   24.5350  -31.0160 N   0  0  0  0  0  0  0  0  0  0  0  0
   -4.2750   23.5890  -29.9040 C   0  0  0  0  0  0  0  0  0  0  0  0
   -4.3880   22.1410  -30.3990 C   0  0  0  0  0  0  0  0  0  0  0  0
   -4.9380   22.0700  -31.7560 N   0  0  0  0  0  0  0  0  0  0  0  0
   -5.3780   20.8380  -32.3430 C   0  0  0  0  0  0  0  0  0  0  0  0
   -6.7260   20.4150  -32.2760 C   0  0  0  0  0  0  0  0  0  0  0  0
   -7.7230   21.2680  -31.7620 C   0  0  0  0  0  0  0  0  0  0  0  0
   -9.0530   20.8590  -31.7150 C   0  0  0  0  0  0  0  0  0  0  0  0
   -9.4190   19.6070  -32.1980 C   0  0  0  0  0  0  0  0  0  0  0  0
   -8.4590   18.7490  -32.7330 C   0  0  0  0  0  0  0  0  0  0  0  0
   -7.0930   19.1210  -32.7800 C   0  0  0  0  0  0  0  0  0  0  0  0
   -6.1290   18.2780  -33.3150 N   0  0  0  0  0  0  0  0  0  0  0  0
   -6.4570   16.9030  -33.7330 C   0  0  0  0  0  0  0  0  0  0  0  0
   -4.8570   18.7630  -33.4720 C   0  0  0  0  0  0  0  0  0  0  0  0
   -3.8170   18.1290  -34.0710 N   0  0  0  0  0  0  0  0  0  0  0  0
   -2.7760   18.9780  -33.9610 C   0  0  0  0  0  0  0  0  0  0  0  0
   -1.4770   18.7670  -34.4190 C   0  0  0  0  0  0  0  0  0  0  0  0
   -0.5260   19.7790  -34.2010 C   0  0  0  0  0  0  0  0  0  0  0  0
    1.1240   19.5580  -34.7550 Cl  0  0  0  0  0  0  0  0  0  0  0  0
   -0.8920   20.9730  -33.5430 C   0  0  0  0  0  0  0  0  0  0  0  0
   -2.2100   21.1660  -33.0930 C   0  0  0  0  0  0  0  0  0  0  0  0
   -3.1350   20.1410  -33.3110 C   0  0  0  0  0  0  0  0  0  0  0  0
   -4.4780   20.0050  -33.0020 C   0  0  0  0  0  0  0  0  0  0  0  0
   -6.1151   25.3076  -28.6722 H   0  0  0  0  0  0  0  0  0  0  0  0
   -7.3448   25.7544  -29.9030 H   0  0  0  0  0  0  0  0  0  0  0  0
   -6.6320   24.1056  -29.9030 H   0  0  0  0  0  0  0  0  0  0  0  0
   -5.7739   26.0679  -31.5621 H   0  0  0  0  0  0  0  0  0  0  0  0
   -4.7306   26.4186  -30.1320 H   0  0  0  0  0  0  0  0  0  0  0  0
   -3.4930   24.9390  -31.2290 H   0  0  0  0  0  0  0  0  0  0  0  0
   -3.2861   23.7372  -29.4457 H   0  0  0  0  0  0  0  0  0  0  0  0
   -5.0704   23.7724  -29.1666 H   0  0  0  0  0  0  0  0  0  0  0  0
   -3.3870   21.6849  -30.3964 H   0  0  0  0  0  0  0  0  0  0  0  0
   -5.0704   21.6020  -29.7253 H   0  0  0  0  0  0  0  0  0  0  0  0
   -4.9960   22.9430  -32.3270 H   0  0  0  0  0  0  0  0  0  0  0  0
   -7.4476   22.2674  -31.3941 H   0  0  0  0  0  0  0  0  0  0  0  0
   -9.8175   21.5287  -31.2942 H   0  0  0  0  0  0  0  0  0  0  0  0
  -10.4721   19.2919  -32.1576 H   0  0  0  0  0  0  0  0  0  0  0  0
   -8.7671   17.7683  -33.1245 H   0  0  0  0  0  0  0  0  0  0  0  0
   -6.6068   16.2749  -32.8425 H   0  0  0  0  0  0  0  0  0  0  0  0
   -7.3781   16.9124  -34.3342 H   0  0  0  0  0  0  0  0  0  0  0  0
   -5.6308   16.4956  -34.3342 H   0  0  0  0  0  0  0  0  0  0  0  0
   -3.7950   17.2000  -34.5450 H   0  0  0  0  0  0  0  0  0  0  0  0
   -1.2036   17.8355  -34.9362 H   0  0  0  0  0  0  0  0  0  0  0  0
   -0.1398   21.7590  -33.3809 H   0  0  0  0  0  0  0  0  0  0  0  0
   -2.5044   22.0959  -32.5845 H   0  0  0  0  0  0  0  0  0  0  0  0
  1  2  1  0
  2  3  1  0
  3  4  1  0
  4  5  1  0
  5  6  1  0
  6  7  1  0
  7  8  2  0
  8  9  1  0
  9 10  2  0
 10 11  1  0
 11 12  2  0
 12 13  1  0
 13 14  2  0
 14 15  1  0
 14 16  1  0
 16 17  1  0
 17 18  1  0
 18 19  2  0
 19 20  1  0
 20 21  1  0
 20 22  2  0
 22 23  1  0
 23 24  2  0
 24 25  1  0
 25  7  1  0
 13  8  1  0
 25 16  2  0
 24 18  1  0
  1 26  1  0
  1 27  1  0
  1 28  1  0
  2 29  1  0
  2 30  1  0
  3 31  1  0
  4 32  1  0
  4 33  1  0
  5 34  1  0
  5 35  1  0
  6 36  1  0
  9 37  1  0
 10 38  1  0
 11 39  1  0
 12 40  1  0
 15 41  1  0
 15 42  1  0
 15 43  1  0
 17 44  1  0
 19 45  1  0
 22 46  1  0
 23 47  1  0
M  CHG  1  14   1
M  END
>  <UniqueID>  (29) 
29

>  <SMILES>  (29) 
CCNCCNc1c2ccccc2[n+](C)c2[nH]c3cc(Cl)ccc3c12

>  <Energy>  (29) 
99.95727733214811

>  <Genealogy>  (29) 
CCNCCNc1c2ccccc2[n+](C)c2[nH]c3cc(Cl)ccc3c12 (3D coordinates assigned)
CCNCCNc1c2ccccc2[n+](C)c2[nH]c3cc(Cl)ccc3c12 (optimized conformer: 99.95727733214811 kcal/mol)

>  <smiles>  (29) 
CCNCCNc1c2ccccc2[n+](C)c2[nH]c3cc(Cl)ccc3c12

>  <score_type>  (29) 
oracle

>  <origin>  (29) 
adg

>  <m_score__min__energy>  (29) 
-8.9600000000000009

>  <m_primary>  (29) 
energy

$$$$
29:0
     RDKit          3D

 46 47  0  0  0  0  0  0  0  0999 V2000
   -0.7880   26.7300  -23.3750 C   0  0  0  0  0  0  0  0  0  0  0  0
   -0.4020   26.9080  -24.8360 C   0  0  0  0  0  0  0  0  0  0  0  0
   -1.5510   26.7870  -25.6340 O   0  0  0  0  0  0  0  0  0  0  0  0
   -1.4490   25.5900  -26.2730 N   0  0  0  0  0  0  0  0  0  0  0  0
   -2.7990   25.0460  -26.4500 C   0  0  0  0  0  0  0  0  0  0  0  0
   -2.9360   24.1910  -27.7260 C   0  0  0  0  0  0  0  0  0  0  0  0
   -2.5390   24.9270  -28.9820 C   0  0  0  0  0  0  0  0  0  0  0  0
   -1.3190   25.1460  -29.2090 O   0  0  0  0  0  0  0  0  0  0  0  0
   -3.4920   25.2280  -30.0100 N   0  0  0  0  0  0  0  0  0  0  0  0
   -4.4290   24.3040  -30.5780 C   0  0  0  0  0  0  0  0  0  0  0  0
   -4.0340   23.0170  -30.9650 C   0  0  0  0  0  0  0  0  0  0  0  0
   -4.9650   22.1230  -31.5000 C   0  0  0  0  0  0  0  0  0  0  0  0
   -6.3140   22.4980  -31.6400 C   0  0  0  0  0  0  0  0  0  0  0  0
   -7.3370   21.5370  -32.2190 C   0  0  0  0  0  0  0  0  0  0  0  0
   -8.7850   22.0170  -31.9420 C   0  0  0  0  0  0  0  0  0  0  0  0
   -9.8150   20.8670  -31.9260 C   0  0  0  0  0  0  0  0  0  0  0  0
   -9.3990   19.7150  -32.8460 C   0  0  0  0  0  0  0  0  0  0  0  0
   -8.0510   19.0980  -32.4180 C   0  0  0  0  0  0  0  0  0  0  0  0
   -7.1120   20.1000  -31.7130 C   0  0  0  0  0  0  0  0  0  0  0  0
   -6.7120   23.7760  -31.2090 C   0  0  0  0  0  0  0  0  0  0  0  0
   -5.7760   24.6680  -30.6760 C   0  0  0  0  0  0  0  0  0  0  0  0
    0.0233   27.1041  -22.7332 H   0  0  0  0  0  0  0  0  0  0  0  0
   -1.7093   27.2942  -23.1678 H   0  0  0  0  0  0  0  0  0  0  0  0
   -0.9571   25.6630  -23.1678 H   0  0  0  0  0  0  0  0  0  0  0  0
    0.0434   27.9034  -24.9804 H   0  0  0  0  0  0  0  0  0  0  0  0
    0.3299   26.1381  -25.1219 H   0  0  0  0  0  0  0  0  0  0  0  0
   -1.0220   25.7620  -27.2130 H   0  0  0  0  0  0  0  0  0  0  0  0
   -3.0424   24.4195  -25.5793 H   0  0  0  0  0  0  0  0  0  0  0  0
   -3.4892   25.8971  -26.5459 H   0  0  0  0  0  0  0  0  0  0  0  0
   -2.2934   23.3042  -27.6229 H   0  0  0  0  0  0  0  0  0  0  0  0
   -3.9981   23.9232  -27.8268 H   0  0  0  0  0  0  0  0  0  0  0  0
   -2.9848   22.7084  -30.8470 H   0  0  0  0  0  0  0  0  0  0  0  0
   -4.6413   21.1196  -31.8138 H   0  0  0  0  0  0  0  0  0  0  0  0
   -7.1970   21.5254  -33.3100 H   0  0  0  0  0  0  0  0  0  0  0  0
   -8.8058   22.5184  -30.9631 H   0  0  0  0  0  0  0  0  0  0  0  0
   -9.0662   22.6960  -32.7605 H   0  0  0  0  0  0  0  0  0  0  0  0
   -9.9067   20.4860  -30.8982 H   0  0  0  0  0  0  0  0  0  0  0  0
  -10.7747   21.2637  -32.2889 H   0  0  0  0  0  0  0  0  0  0  0  0
  -10.1741   18.9351  -32.8128 H   0  0  0  0  0  0  0  0  0  0  0  0
   -9.2840   20.1150  -33.8642 H   0  0  0  0  0  0  0  0  0  0  0  0
   -8.2525   18.2651  -31.7283 H   0  0  0  0  0  0  0  0  0  0  0  0
   -7.5412   18.7663  -33.3345 H   0  0  0  0  0  0  0  0  0  0  0  0
   -7.3036   20.0683  -30.6303 H   0  0  0  0  0  0  0  0  0  0  0  0
   -6.0733   19.8146  -31.9356 H   0  0  0  0  0  0  0  0  0  0  0  0
   -7.7670   24.0762  -31.2917 H   0  0  0  0  0  0  0  0  0  0  0  0
   -6.1008   25.6611  -30.3320 H   0  0  0  0  0  0  0  0  0  0  0  0
  1  2  1  0
  2  3  1  0
  3  4  1  0
  4  5  1  0
  5  6  1  0
  6  7  1  0
  7  8  2  0
  7  9  1  0
  9 10  1  0
 10 11  2  0
 11 12  1  0
 12 13  2  0
 13 14  1  0
 14 15  1  0
 15 16  1  0
 16 17  1  0
 17 18  1  0
 18 19  1  0
 13 20  1  0
 20 21  2  0
 21 10  1  0
 19 14  1  0
  1 22  1  0
  1 23  1  0
  1 24  1  0
  2 25  1  0
  2 26  1  0
  4 27  1  0
  5 28  1  0
  5 29  1  0
  6 30  1  0
  6 31  1  0
 11 32  1  0
 12 33  1  0
 14 34  1  0
 15 35  1  0
 15 36  1  0
 16 37  1  0
 16 38  1  0
 17 39  1  0
 17 40  1  0
 18 41  1  0
 18 42  1  0
 19 43  1  0
 19 44  1  0
 20 45  1  0
 21 46  1  0
M  CHG  1   9  -1
M  END
>  <UniqueID>  (30) 
30

>  <SMILES>  (30) 
CCONCCC(=O)[N-]c1ccc(C2CCCCC2)cc1

>  <Energy>  (30) 
45.427067287139714

>  <Genealogy>  (30) 
CCONCCC(=O)[N-]c1ccc(C2CCCCC2)cc1 (protonated)
CCONCCC(=O)[N-]c1ccc(C2CCCCC2)cc1 (3D coordinates assigned)
CCONCCC(=O)[N-]c1ccc(C2CCCCC2)cc1 (nonaromatic ring conformer: 45.427067287139714 kcal/mol)

>  <smiles>  (30) 
CCONCCC(=O)Nc1ccc(C2CCCCC2)cc1

>  <score_type>  (30) 
oracle

>  <origin>  (30) 
adg

>  <m_score__min__energy>  (30) 
-9.8000000000000007

>  <m_primary>  (30) 
energy

$$$$
30:0
     RDKit          3D

 46 49  0  0  0  0  0  0  0  0999 V2000
   -6.1740   25.6470  -29.3830 C   0  0  0  0  0  0  0  0  0  0  0  0
   -5.7400   25.3370  -30.8130 C   0  0  0  0  0  0  0  0  0  0  0  0
   -4.3640   25.0040  -30.8490 O   0  0  0  0  0  0  0  0  0  0  0  0
   -4.1680   23.6060  -30.7570 C   0  0  0  0  0  0  0  0  0  0  0  0
   -5.4450   22.8640  -31.1780 C   0  0  0  0  0  0  0  0  0  0  0  0
   -5.4530   22.5330  -32.6150 N   0  0  0  0  0  0  0  0  0  0  0  0
   -5.5490   21.1010  -32.8410 C   0  0  0  0  0  0  0  0  0  0  0  0
   -4.4280   20.3570  -33.2430 C   0  0  0  0  0  0  0  0  0  0  0  0
   -4.5230   18.9960  -33.4950 C   0  0  0  0  0  0  0  0  0  0  0  0
   -5.7070   18.3130  -33.4140 N   0  0  0  0  0  0  0  0  0  0  0  0
   -5.7760   16.9110  -33.8630 C   0  0  0  0  0  0  0  0  0  0  0  0
   -6.8170   18.9720  -32.9110 C   0  0  0  0  0  0  0  0  0  0  0  0
   -8.0160   18.2740  -32.6210 C   0  0  0  0  0  0  0  0  0  0  0  0
   -9.1470   18.9450  -32.1620 C   0  0  0  0  0  0  0  0  0  0  0  0
   -9.1150   20.3200  -31.9680 C   0  0  0  0  0  0  0  0  0  0  0  0
   -7.9430   21.0340  -32.2020 C   0  0  0  0  0  0  0  0  0  0  0  0
   -6.7700   20.3860  -32.6530 C   0  0  0  0  0  0  0  0  0  0  0  0
   -3.1790   18.4990  -33.8380 C   0  0  0  0  0  0  0  0  0  0  0  0
   -2.7570   17.2240  -34.0420 N   0  0  0  0  0  0  0  0  0  0  0  0
   -1.4360   16.9790  -34.2850 C   0  0  0  0  0  0  0  0  0  0  0  0
   -0.5030   18.0360  -34.3010 C   0  0  0  0  0  0  0  0  0  0  0  0
   -0.9360   19.3490  -34.0550 C   0  0  0  0  0  0  0  0  0  0  0  0
   -2.2930   19.5510  -33.8230 C   0  0  0  0  0  0  0  0  0  0  0  0
   -3.0230   20.7540  -33.4630 C   0  0  0  0  0  0  0  0  0  0  0  0
   -2.5190   21.9020  -33.3500 O   0  0  0  0  0  0  0  0  0  0  0  0
   -5.4876   25.1567  -28.6770 H   0  0  0  0  0  0  0  0  0  0  0  0
   -6.1516   26.7347  -29.2207 H   0  0  0  0  0  0  0  0  0  0  0  0
   -7.1957   25.2730  -29.2207 H   0  0  0  0  0  0  0  0  0  0  0  0
   -6.3283   24.4896  -31.1949 H   0  0  0  0  0  0  0  0  0  0  0  0
   -5.9089   26.2261  -31.4383 H   0  0  0  0  0  0  0  0  0  0  0  0
   -3.3407   23.3105  -31.4190 H   0  0  0  0  0  0  0  0  0  0  0  0
   -3.9269   23.3445  -29.7161 H   0  0  0  0  0  0  0  0  0  0  0  0
   -5.5188   21.9311  -30.5999 H   0  0  0  0  0  0  0  0  0  0  0  0
   -6.2998   23.5278  -30.9812 H   0  0  0  0  0  0  0  0  0  0  0  0
   -6.2220   23.0510  -33.0910 H   0  0  0  0  0  0  0  0  0  0  0  0
   -4.5860   22.9040  -33.0650 H   0  0  0  0  0  0  0  0  0  0  0  0
   -5.8087   16.2466  -32.9869 H   0  0  0  0  0  0  0  0  0  0  0  0
   -6.6825   16.7641  -34.4686 H   0  0  0  0  0  0  0  0  0  0  0  0
   -4.8883   16.6758  -34.4686 H   0  0  0  0  0  0  0  0  0  0  0  0
   -8.0540   17.1836  -32.7608 H   0  0  0  0  0  0  0  0  0  0  0  0
  -10.0694   18.3836  -31.9523 H   0  0  0  0  0  0  0  0  0  0  0  0
  -10.0190   20.8467  -31.6282 H   0  0  0  0  0  0  0  0  0  0  0  0
   -7.9293   22.1209  -32.0331 H   0  0  0  0  0  0  0  0  0  0  0  0
   -1.0970   15.9490  -34.4697 H   0  0  0  0  0  0  0  0  0  0  0  0
    0.5587   17.8332  -34.5051 H   0  0  0  0  0  0  0  0  0  0  0  0
   -0.2264   20.1894  -34.0460 H   0  0  0  0  0  0  0  0  0  0  0  0
  1  2  1  0
  2  3  1  0
  3  4  1  0
  4  5  1  0
  5  6  1  0
  6  7  1  0
  7  8  2  0
  8  9  1  0
  9 10  2  0
 10 11  1  0
 10 12  1  0
 12 13  2  0
 13 14  1  0
 14 15  2  0
 15 16  1  0
 16 17  2  0
  9 18  1  0
 18 19  2  0
 19 20  1  0
 20 21  2  0
 21 22  1  0
 22 23  2  0
 23 24  1  0
 24 25  2  0
 17  7  1  0
 23 18  1  0
 24  8  1  0
 17 12  1  0
  1 26  1  0
  1 27  1  0
  1 28  1  0
  2 29  1  0
  2 30  1  0
  4 31  1  0
  4 32  1  0
  5 33  1  0
  5 34  1  0
  6 35  1  0
  6 36  1  0
 11 37  1  0
 11 38  1  0
 11 39  1  0
 13 40  1  0
 14 41  1  0
 15 42  1  0
 16 43  1  0
 20 44  1  0
 21 45  1  0
 22 46  1  0
M  CHG  2   6   1  10   1
M  END
>  <UniqueID>  (31) 
31

>  <SMILES>  (31) 
CCOCC[NH2+]c1c2c([n+](C)c3ccccc13)-c1ncccc1C2=O

>  <Energy>  (31) 
102.83094136266395

>  <Genealogy>  (31) 
CCOCC[NH2+]c1c2c([n+](C)c3ccccc13)-c1ncccc1C2=O (protonated)
CCOCC[NH2+]c1c2c([n+](C)c3ccccc13)-c1ncccc1C2=O (3D coordinates assigned)
CCOCC[NH2+]c1c2c([n+](C)c3ccccc13)-c1ncccc1C2=O (nonaromatic ring conformer: 102.83094136266395 kcal/mol)

>  <smiles>  (31) 
CCOCCNc1c2c([n+](C)c3ccccc13)-c1ncccc1C2=O

>  <score_type>  (31) 
oracle

>  <origin>  (31) 
adg

>  <m_score__min__energy>  (31) 
-8.0099999999999998

>  <m_primary>  (31) 
energy

$$$$
31:0
     RDKit          3D

 61 63  0  0  0  0  0  0  0  0999 V2000
   -6.0980   25.3370  -30.1090 C   0  0  0  0  0  0  0  0  0  0  0  0
   -4.8290   24.5650  -29.7640 C   0  0  0  0  0  0  0  0  0  0  0  0
   -4.2410   24.0260  -30.9320 O   0  0  0  0  0  0  0  0  0  0  0  0
   -3.9670   22.6460  -30.7820 C   0  0  0  0  0  0  0  0  0  0  0  0
   -3.4530   22.0570  -32.0980 C   0  0  0  0  0  0  0  0  0  0  0  0
   -4.5490   21.9310  -33.0580 N   0  0  0  0  0  0  0  0  0  0  0  0
   -5.6220   20.9940  -32.8600 C   0  0  0  0  0  0  0  0  0  0  0  0
   -6.8760   21.4430  -32.4080 C   0  0  0  0  0  0  0  0  0  0  0  0
   -7.0930   22.8060  -32.1080 C   0  0  0  0  0  0  0  0  0  0  0  0
   -8.3490   23.2550  -31.7060 C   0  0  0  0  0  0  0  0  0  0  0  0
   -9.4090   22.3630  -31.6100 C   0  0  0  0  0  0  0  0  0  0  0  0
   -9.2120   21.0100  -31.8770 C   0  0  0  0  0  0  0  0  0  0  0  0
   -7.9350   20.5100  -32.2390 C   0  0  0  0  0  0  0  0  0  0  0  0
   -7.7100   19.1600  -32.4370 N   0  0  0  0  0  0  0  0  0  0  0  0
   -8.7150   18.1730  -31.9790 C   0  0  0  0  0  0  0  0  0  0  0  0
   -6.5360   18.7340  -33.0300 C   0  0  0  0  0  0  0  0  0  0  0  0
   -6.3720   17.4000  -33.4900 C   0  0  0  0  0  0  0  0  0  0  0  0
   -5.1550   16.9630  -34.0160 C   0  0  0  0  0  0  0  0  0  0  0  0
   -5.0100   15.6350  -34.4160 O   0  0  0  0  0  0  0  0  0  0  0  0
   -5.9280   14.6310  -33.9950 C   0  0  0  0  0  0  0  0  0  0  0  0
   -5.1900   13.2980  -33.7450 C   0  0  0  0  0  0  0  0  0  0  0  0
   -4.1630   13.3230  -32.6560 N   0  0  0  0  0  0  0  0  0  0  0  0
   -4.0150   11.9960  -32.0130 C   0  0  0  0  0  0  0  0  0  0  0  0
   -2.8460   13.7780  -33.1710 C   0  0  0  0  0  0  0  0  0  0  0  0
   -4.6150   14.2920  -31.6270 C   0  0  0  0  0  0  0  0  0  0  0  0
   -4.0950   17.8540  -34.1480 C   0  0  0  0  0  0  0  0  0  0  0  0
   -4.2510   19.1850  -33.7800 C   0  0  0  0  0  0  0  0  0  0  0  0
   -5.4600   19.6430  -33.2150 C   0  0  0  0  0  0  0  0  0  0  0  0
   -6.6036   25.6446  -29.1818 H   0  0  0  0  0  0  0  0  0  0  0  0
   -5.8361   26.2290  -30.6971 H   0  0  0  0  0  0  0  0  0  0  0  0
   -6.7697   24.6943  -30.6971 H   0  0  0  0  0  0  0  0  0  0  0  0
   -4.1128   25.2449  -29.2794 H   0  0  0  0  0  0  0  0  0  0  0  0
   -5.0896   23.7397  -29.0850 H   0  0  0  0  0  0  0  0  0  0  0  0
   -3.2033   22.5110  -30.0019 H   0  0  0  0  0  0  0  0  0  0  0  0
   -4.8944   22.1273  -30.4975 H   0  0  0  0  0  0  0  0  0  0  0  0
   -2.6795   22.7190  -32.5146 H   0  0  0  0  0  0  0  0  0  0  0  0
   -3.0301   21.0603  -31.9038 H   0  0  0  0  0  0  0  0  0  0  0  0
   -4.6670   22.6870  -33.7670 H   0  0  0  0  0  0  0  0  0  0  0  0
   -6.2612   23.5208  -32.1927 H   0  0  0  0  0  0  0  0  0  0  0  0
   -8.5013   24.3173  -31.4644 H   0  0  0  0  0  0  0  0  0  0  0  0
  -10.4068   22.7257  -31.3224 H   0  0  0  0  0  0  0  0  0  0  0  0
  -10.0628   20.3164  -31.8057 H   0  0  0  0  0  0  0  0  0  0  0  0
   -8.7350   18.1534  -30.8794 H   0  0  0  0  0  0  0  0  0  0  0  0
   -9.7075   18.4571  -32.3588 H   0  0  0  0  0  0  0  0  0  0  0  0
   -8.4489   17.1755  -32.3588 H   0  0  0  0  0  0  0  0  0  0  0  0
   -7.2182   16.6997  -33.4307 H   0  0  0  0  0  0  0  0  0  0  0  0
   -6.4174   14.9545  -33.0645 H   0  0  0  0  0  0  0  0  0  0  0  0
   -6.6792   14.4805  -34.7844 H   0  0  0  0  0  0  0  0  0  0  0  0
   -5.9417   12.5384  -33.4842 H   0  0  0  0  0  0  0  0  0  0  0  0
   -4.6407   13.0790  -34.6725 H   0  0  0  0  0  0  0  0  0  0  0  0
   -4.0283   12.1149  -30.9195 H   0  0  0  0  0  0  0  0  0  0  0  0
   -4.8461   11.3445  -32.3211 H   0  0  0  0  0  0  0  0  0  0  0  0
   -3.0608   11.5436  -32.3211 H   0  0  0  0  0  0  0  0  0  0  0  0
   -2.1811   14.0077  -32.3253 H   0  0  0  0  0  0  0  0  0  0  0  0
   -2.3976   12.9827  -33.7845 H   0  0  0  0  0  0  0  0  0  0  0  0
   -2.9841   14.6805  -33.7845 H   0  0  0  0  0  0  0  0  0  0  0  0
   -4.4227   13.8797  -30.6255 H   0  0  0  0  0  0  0  0  0  0  0  0
   -4.0647   15.2370  -31.7464 H   0  0  0  0  0  0  0  0  0  0  0  0
   -5.6926   14.4776  -31.7464 H   0  0  0  0  0  0  0  0  0  0  0  0
   -3.1306   17.5041  -34.5448 H   0  0  0  0  0  0  0  0  0  0  0  0
   -3.4209   19.8908  -33.9312 H   0  0  0  0  0  0  0  0  0  0  0  0
  1  2  1  0
  2  3  1  0
  3  4  1  0
  4  5  1  0
  5  6  1  0
  6  7  1  0
  7  8  2  0
  8  9  1  0
  9 10  2  0
 10 11  1  0
 11 12  2  0
 12 13  1  0
 13 14  2  0
 14 15  1  0
 14 16  1  0
 16 17  2  0
 17 18  1  0
 18 19  1  0
 19 20  1  0
 20 21  1  0
 21 22  1  0
 22 23  1  0
 22 24  1  0
 22 25  1  0
 18 26  2  0
 26 27  1  0
 27 28  2  0
 28  7  1  0
 13  8  1  0
 28 16  1  0
  1 29  1  0
  1 30  1  0
  1 31  1  0
  2 32  1  0
  2 33  1  0
  4 34  1  0
  4 35  1  0
  5 36  1  0
  5 37  1  0
  6 38  1  0
  9 39  1  0
 10 40  1  0
 11 41  1  0
 12 42  1  0
 15 43  1  0
 15 44  1  0
 15 45  1  0
 17 46  1  0
 20 47  1  0
 20 48  1  0
 21 49  1  0
 21 50  1  0
 23 51  1  0
 23 52  1  0
 23 53  1  0
 24 54  1  0
 24 55  1  0
 24 56  1  0
 25 57  1  0
 25 58  1  0
 25 59  1  0
 26 60  1  0
 27 61  1  0
M  CHG  2  14   1  22   1
M  END
>  <UniqueID>  (32) 
32

>  <SMILES>  (32) 
CCOCCNc1c2ccccc2[n+](C)c2cc(OCC[N+](C)(C)C)ccc12

>  <Energy>  (32) 
98.59513387151674

>  <Genealogy>  (32) 
CCOCCNc1c2ccccc2[n+](C)c2cc(OCC[N+](C)(C)C)ccc12 (3D coordinates assigned)
CCOCCNc1c2ccccc2[n+](C)c2cc(OCC[N+](C)(C)C)ccc12 (optimized conformer: 98.59513387151674 kcal/mol)

>  <smiles>  (32) 
CCOCCNc1c2ccccc2[n+](C)c2cc(OCC[N+](C)(C)C)ccc12

>  <score_type>  (32) 
oracle

>  <origin>  (32) 
adg

>  <m_score__min__energy>  (32) 
-7.7699999999999996

>  <m_primary>  (32) 
energy

$$$$
32:0
     RDKit          3D

 31 33  0  0  0  0  0  0  0  0999 V2000
   -5.0040   24.5300  -29.1870 C   0  0  0  0  0  0  0  0  0  0  0  0
   -5.3480   25.3200  -30.4460 C   0  0  0  0  0  0  0  0  0  0  0  0
   -5.3670   24.4660  -31.5900 O   0  0  0  0  0  0  0  0  0  0  0  0
   -6.1760   23.3260  -31.7600 C   0  0  0  0  0  0  0  0  0  0  0  0
   -7.5310   23.3200  -31.3860 C   0  0  0  0  0  0  0  0  0  0  0  0
   -8.3070   22.1810  -31.5660 C   0  0  0  0  0  0  0  0  0  0  0  0
   -7.7570   21.0290  -32.1250 C   0  0  0  0  0  0  0  0  0  0  0  0
   -6.4000   20.9920  -32.5220 C   0  0  0  0  0  0  0  0  0  0  0  0
   -5.6140   22.1610  -32.3310 C   0  0  0  0  0  0  0  0  0  0  0  0
   -4.2650   22.1480  -32.7170 C   0  0  0  0  0  0  0  0  0  0  0  0
   -3.7090   21.0400  -33.2630 N   0  0  0  0  0  0  0  0  0  0  0  0
   -4.4230   19.9000  -33.4640 C   0  0  0  0  0  0  0  0  0  0  0  0
   -3.7910   18.7820  -34.0350 C   0  0  0  0  0  0  0  0  0  0  0  0
   -4.4990   17.6030  -34.2510 C   0  0  0  0  0  0  0  0  0  0  0  0
   -5.8450   17.5220  -33.9000 C   0  0  0  0  0  0  0  0  0  0  0  0
   -6.8080   15.9000  -34.2000 Br  0  0  0  0  0  0  0  0  0  0  0  0
   -6.4910   18.6240  -33.3290 C   0  0  0  0  0  0  0  0  0  0  0  0
   -5.7950   19.8360  -33.1000 C   0  0  0  0  0  0  0  0  0  0  0  0
   -5.2630   25.1248  -28.2987 H   0  0  0  0  0  0  0  0  0  0  0  0
   -5.5739   23.5892  -29.1773 H   0  0  0  0  0  0  0  0  0  0  0  0
   -3.9270   24.3064  -29.1773 H   0  0  0  0  0  0  0  0  0  0  0  0
   -6.3393   25.7808  -30.3232 H   0  0  0  0  0  0  0  0  0  0  0  0
   -4.5820   26.0950  -30.5967 H   0  0  0  0  0  0  0  0  0  0  0  0
   -7.9805   24.2233  -30.9477 H   0  0  0  0  0  0  0  0  0  0  0  0
   -9.3648   22.1890  -31.2645 H   0  0  0  0  0  0  0  0  0  0  0  0
   -8.3864   20.1369  -32.2592 H   0  0  0  0  0  0  0  0  0  0  0  0
   -3.6509   23.0494  -32.5743 H   0  0  0  0  0  0  0  0  0  0  0  0
   -2.6990   21.0820  -33.5330 H   0  0  0  0  0  0  0  0  0  0  0  0
   -2.7284   18.8391  -34.3135 H   0  0  0  0  0  0  0  0  0  0  0  0
   -3.9951   16.7341  -34.6994 H   0  0  0  0  0  0  0  0  0  0  0  0
   -7.5534   18.5480  -33.0543 H   0  0  0  0  0  0  0  0  0  0  0  0
  1  2  1  0
  2  3  1  0
  3  4  1  0
  4  5  2  0
  5  6  1  0
  6  7  2  0
  7  8  1  0
  8  9  2  0
  9 10  1  0
 10 11  2  0
 11 12  1  0
 12 13  2  0
 13 14  1  0
 14 15  2  0
 15 16  1  0
 15 17  1  0
 17 18  2  0
  9  4  1  0
 18 12  1  0
 18  8  1  0
  1 19  1  0
  1 20  1  0
  1 21  1  0
  2 22  1  0
  2 23  1  0
  5 24  1  0
  6 25  1  0
  7 26  1  0
 10 27  1  0
 11 28  1  0
 13 29  1  0
 14 30  1  0
 17 31  1  0
M  CHG  1  11   1
M  END
>  <UniqueID>  (33) 
33

>  <SMILES>  (33) 
CCOc1cccc2c1c[nH+]c1ccc(Br)cc12

>  <Energy>  (33) 
43.46904194480767

>  <Genealogy>  (33) 
CCOc1cccc2c1c[nH+]c1ccc(Br)cc12 (protonated)
CCOc1cccc2c1c[nH+]c1ccc(Br)cc12 (3D coordinates assigned)
CCOc1cccc2c1c[nH+]c1ccc(Br)cc12 (optimized conformer: 43.46904194480767 kcal/mol)

>  <smiles>  (33) 
CCOc1cccc2c1cnc1ccc(Br)cc12

>  <score_type>  (33) 
oracle

>  <origin>  (33) 
adg

>  <m_score__min__energy>  (33) 
-7.0800000000000001

>  <m_primary>  (33) 
energy

$$$$
33:0
     RDKit          3D

 52 54  0  0  0  0  0  0  0  0999 V2000
   -2.4540   21.0050  -31.9440 C   0  0  0  0  0  0  0  0  0  0  0  0
   -2.5110   21.1140  -33.4650 C   0  0  0  0  0  0  0  0  0  0  0  0
   -1.5310   20.2720  -34.0750 O   0  0  0  0  0  0  0  0  0  0  0  0
   -0.2520   20.6720  -34.4970 C   0  0  0  0  0  0  0  0  0  0  0  0
   -0.0120   21.9260  -35.0920 C   0  0  0  0  0  0  0  0  0  0  0  0
    1.2800   22.2810  -35.4930 C   0  0  0  0  0  0  0  0  0  0  0  0
    2.3370   21.3870  -35.3220 C   0  0  0  0  0  0  0  0  0  0  0  0
    2.1110   20.1410  -34.7310 C   0  0  0  0  0  0  0  0  0  0  0  0
    0.8180   19.7820  -34.3000 C   0  0  0  0  0  0  0  0  0  0  0  0
    0.5590   18.5570  -33.6670 O   0  0  0  0  0  0  0  0  0  0  0  0
    0.0260   18.4210  -32.3510 C   0  0  0  0  0  0  0  0  0  0  0  0
   -1.3230   17.6850  -32.3970 C   0  0  0  0  0  0  0  0  0  0  0  0
   -2.0170   17.8170  -33.6950 N   0  0  0  0  0  0  0  0  0  0  0  0
   -2.6620   16.5860  -34.1970 C   0  0  0  0  0  0  0  0  0  0  0  0
   -4.0300   16.8360  -34.8470 C   0  0  0  0  0  0  0  0  0  0  0  0
   -4.4510   18.1780  -34.6190 O   0  0  0  0  0  0  0  0  0  0  0  0
   -5.5750   18.5420  -33.8650 C   0  0  0  0  0  0  0  0  0  0  0  0
   -6.5490   17.6070  -33.4650 C   0  0  0  0  0  0  0  0  0  0  0  0
   -7.6530   18.0160  -32.7100 C   0  0  0  0  0  0  0  0  0  0  0  0
   -7.8000   19.3620  -32.3440 C   0  0  0  0  0  0  0  0  0  0  0  0
   -8.9050   19.7830  -31.5870 C   0  0  0  0  0  0  0  0  0  0  0  0
   -9.0380   21.1270  -31.2290 C   0  0  0  0  0  0  0  0  0  0  0  0
   -8.0750   22.0600  -31.6240 C   0  0  0  0  0  0  0  0  0  0  0  0
   -6.9720   21.6550  -32.3810 C   0  0  0  0  0  0  0  0  0  0  0  0
   -6.8250   20.3070  -32.7440 C   0  0  0  0  0  0  0  0  0  0  0  0
   -5.7200   19.8870  -33.5020 C   0  0  0  0  0  0  0  0  0  0  0  0
   -2.9193   21.8948  -31.4949 H   0  0  0  0  0  0  0  0  0  0  0  0
   -2.9967   20.1046  -31.6203 H   0  0  0  0  0  0  0  0  0  0  0  0
   -1.4049   20.9370  -31.6203 H   0  0  0  0  0  0  0  0  0  0  0  0
   -3.5106   20.8114  -33.8103 H   0  0  0  0  0  0  0  0  0  0  0  0
   -2.3044   22.1562  -33.7500 H   0  0  0  0  0  0  0  0  0  0  0  0
   -0.8445   22.6292  -35.2419 H   0  0  0  0  0  0  0  0  0  0  0  0
    1.4630   23.2674  -35.9442 H   0  0  0  0  0  0  0  0  0  0  0  0
    3.3492   21.6630  -35.6526 H   0  0  0  0  0  0  0  0  0  0  0  0
    2.9463   19.4370  -34.6015 H   0  0  0  0  0  0  0  0  0  0  0  0
    0.7313   17.8482  -31.7309 H   0  0  0  0  0  0  0  0  0  0  0  0
   -0.1261   19.4218  -31.9206 H   0  0  0  0  0  0  0  0  0  0  0  0
   -1.1448   16.6169  -32.2034 H   0  0  0  0  0  0  0  0  0  0  0  0
   -1.9698   18.1423  -31.6338 H   0  0  0  0  0  0  0  0  0  0  0  0
   -2.7380   18.5710  -33.6120 H   0  0  0  0  0  0  0  0  0  0  0  0
   -1.3240   18.1400  -34.4130 H   0  0  0  0  0  0  0  0  0  0  0  0
   -1.9997   16.1254  -34.9447 H   0  0  0  0  0  0  0  0  0  0  0  0
   -2.8295   15.9304  -33.3298 H   0  0  0  0  0  0  0  0  0  0  0  0
   -3.9543   16.6590  -35.9300 H   0  0  0  0  0  0  0  0  0  0  0  0
   -4.7667   16.1507  -34.4023 H   0  0  0  0  0  0  0  0  0  0  0  0
   -6.4410   16.5495  -33.7478 H   0  0  0  0  0  0  0  0  0  0  0  0
   -8.4092   17.2789  -32.4019 H   0  0  0  0  0  0  0  0  0  0  0  0
   -9.6671   19.0536  -31.2753 H   0  0  0  0  0  0  0  0  0  0  0  0
   -9.9041   21.4522  -30.6339 H   0  0  0  0  0  0  0  0  0  0  0  0
   -8.1856   23.1164  -31.3382 H   0  0  0  0  0  0  0  0  0  0  0  0
   -6.2184   22.3933  -32.6926 H   0  0  0  0  0  0  0  0  0  0  0  0
   -4.9618   20.6206  -33.8133 H   0  0  0  0  0  0  0  0  0  0  0  0
  1  2  1  0
  2  3  1  0
  3  4  1  0
  4  5  2  0
  5  6  1  0
  6  7  2  0
  7  8  1  0
  8  9  2  0
  9 10  1  0
 10 11  1  0
 11 12  1  0
 12 13  1  0
 13 14  1  0
 14 15  1  0
 15 16  1  0
 16 17  1  0
 17 18  2  0
 18 19  1  0
 19 20  2  0
 20 21  1  0
 21 22  2  0
 22 23  1  0
 23 24  2  0
 24 25  1  0
 25 26  2  0
  9  4  1  0
 26 17  1  0
 25 20  1  0
  1 27  1  0
  1 28  1  0
  1 29  1  0
  2 30  1  0
  2 31  1  0
  5 32  1  0
  6 33  1  0
  7 34  1  0
  8 35  1  0
 11 36  1  0
 11 37  1  0
 12 38  1  0
 12 39  1  0
 13 40  1  0
 13 41  1  0
 14 42  1  0
 14 43  1  0
 15 44  1  0
 15 45  1  0
 18 46  1  0
 19 47  1  0
 21 48  1  0
 22 49  1  0
 23 50  1  0
 24 51  1  0
 26 52  1  0
M  CHG  1  13   1
M  END
>  <UniqueID>  (34) 
34

>  <SMILES>  (34) 
CCOc1ccccc1OCC[NH2+]CCOc1ccc2ccccc2c1

>  <Energy>  (34) 
50.458366789689634

>  <Genealogy>  (34) 
CCOc1ccccc1OCC[NH2+]CCOc1ccc2ccccc2c1 (protonated)
CCOc1ccccc1OCC[NH2+]CCOc1ccc2ccccc2c1 (3D coordinates assigned)
CCOc1ccccc1OCC[NH2+]CCOc1ccc2ccccc2c1 (optimized conformer: 50.458366789689634 kcal/mol)

>  <smiles>  (34) 
CCOc1ccccc1OCCNCCOc1ccc2ccccc2c1

>  <score_type>  (34) 
oracle

>  <origin>  (34) 
adg

>  <m_score__min__energy>  (34) 
-7.4299999999999997

>  <m_primary>  (34) 
energy

$$$$
