0:0
     RDKit          3D

 51 55  0  0  0  0  0  0  0  0999 V2000
    2.8120   14.7920  -26.5340 C   0  0  0  0  0  0  0  0  0  0  0  0
    2.3610   16.1280  -27.0460 C   0  0  0  0  0  0  0  0  0  0  0  0
    3.3190   17.1290  -27.3570 C   0  0  0  0  0  0  0  0  0  0  0  0
    2.9100   18.4070  -27.7980 C   0  0  0  0  0  0  0  0  0  0  0  0
    3.9080   19.4590  -28.1760 C   0  0  0  0  0  0  0  0  0  0  0  0
    1.5380   18.6280  -27.9240 C   0  0  0  0  0  0  0  0  0  0  0  0
    0.9110   19.7000  -28.3260 O   0  0  0  0  0  0  0  0  0  0  0  0
   -0.3790   19.4120  -28.2630 C   0  0  0  0  0  0  0  0  0  0  0  0
   -1.4440   20.3670  -28.6350 C   0  0  0  0  0  0  0  0  0  0  0  0
   -1.5250   20.8780  -29.9410 C   0  0  0  0  0  0  0  0  0  0  0  0
   -2.5320   21.7820  -30.2860 C   0  0  0  0  0  0  0  0  0  0  0  0
   -3.4750   22.1960  -29.3310 C   0  0  0  0  0  0  0  0  0  0  0  0
   -4.5470   23.1520  -29.7020 C   0  0  0  0  0  0  0  0  0  0  0  0
   -5.8580   22.6820  -29.8950 C   0  0  0  0  0  0  0  0  0  0  0  0
   -6.8860   23.5680  -30.2270 C   0  0  0  0  0  0  0  0  0  0  0  0
   -6.6160   24.9270  -30.3800 C   0  0  0  0  0  0  0  0  0  0  0  0
   -5.3180   25.4080  -30.1990 C   0  0  0  0  0  0  0  0  0  0  0  0
   -4.2740   24.5290  -29.8520 C   0  0  0  0  0  0  0  0  0  0  0  0
   -2.9560   24.9940  -29.7200 O   0  0  0  0  0  0  0  0  0  0  0  0
   -2.1300   24.7910  -28.6060 C   0  0  0  0  0  0  0  0  0  0  0  0
   -0.8040   24.3910  -28.8160 C   0  0  0  0  0  0  0  0  0  0  0  0
    0.0460   24.1630  -27.7290 C   0  0  0  0  0  0  0  0  0  0  0  0
   -0.4280   24.3210  -26.4240 C   0  0  0  0  0  0  0  0  0  0  0  0
   -1.7550   24.7020  -26.2040 C   0  0  0  0  0  0  0  0  0  0  0  0
   -2.6070   24.9310  -27.2890 C   0  0  0  0  0  0  0  0  0  0  0  0
   -3.3990   21.6770  -28.0270 C   0  0  0  0  0  0  0  0  0  0  0  0
   -2.3900   20.7730  -27.6820 C   0  0  0  0  0  0  0  0  0  0  0  0
   -0.6250   18.1480  -27.8230 N   0  0  0  0  0  0  0  0  0  0  0  0
    0.6160   17.6760  -27.6170 C   0  0  0  0  0  0  0  0  0  0  0  0
    0.9830   16.4120  -27.1650 C   0  0  0  0  0  0  0  0  0  0  0  0
    2.8090   14.8008  -25.4340 H   0  0  0  0  0  0  0  0  0  0  0  0
    2.1279   14.0105  -26.8963 H   0  0  0  0  0  0  0  0  0  0  0  0
    3.8298   14.5850  -26.8963 H   0  0  0  0  0  0  0  0  0  0  0  0
    4.3913   16.9067  -27.2533 H   0  0  0  0  0  0  0  0  0  0  0  0
    4.3322   19.9062  -27.2649 H   0  0  0  0  0  0  0  0  0  0  0  0
    4.7138   19.0034  -28.7703 H   0  0  0  0  0  0  0  0  0  0  0  0
    3.4106   20.2397  -28.7703 H   0  0  0  0  0  0  0  0  0  0  0  0
   -0.7903   20.5640  -30.6970 H   0  0  0  0  0  0  0  0  0  0  0  0
   -2.5870   22.1725  -31.3129 H   0  0  0  0  0  0  0  0  0  0  0  0
   -6.0758   21.6095  -29.7839 H   0  0  0  0  0  0  0  0  0  0  0  0
   -7.9103   23.1925  -30.3679 H   0  0  0  0  0  0  0  0  0  0  0  0
   -7.4271   25.6216  -30.6438 H   0  0  0  0  0  0  0  0  0  0  0  0
   -5.1095   26.4803  -30.3282 H   0  0  0  0  0  0  0  0  0  0  0  0
   -0.4293   24.2555  -29.8413 H   0  0  0  0  0  0  0  0  0  0  0  0
    1.0890   23.8589  -27.9016 H   0  0  0  0  0  0  0  0  0  0  0  0
    0.2428   24.1456  -25.5700 H   0  0  0  0  0  0  0  0  0  0  0  0
   -2.1292   24.8217  -25.1766 H   0  0  0  0  0  0  0  0  0  0  0  0
   -3.6532   25.2214  -27.1128 H   0  0  0  0  0  0  0  0  0  0  0  0
   -4.1385   21.9842  -27.2728 H   0  0  0  0  0  0  0  0  0  0  0  0
   -2.3375   20.3776  -26.6569 H   0  0  0  0  0  0  0  0  0  0  0  0
    0.2239   15.6583  -26.9087 H   0  0  0  0  0  0  0  0  0  0  0  0
  1  2  1  0
  2  3  2  0
  3  4  1  0
  4  5  1  0
  4  6  2  0
  6  7  1  0
  7  8  1  0
  8  9  1  0
  9 10  2  0
 10 11  1  0
 11 12  2  0
 12 13  1  0
 13 14  2  0
 14 15  1  0
 15 16  2  0
 16 17  1  0
 17 18  2  0
 18 19  1  0
 19 20  1  0
 20 21  2  0
 21 22  1  0
 22 23  2  0
 23 24  1  0
 24 25  2  0
 12 26  1  0
 26 27  2  0
  8 28  2  0
 28 29  1  0
 29 30  2  0
 30  2  1  0
 29  6  1  0
 27  9  1  0
 18 13  1  0
 25 20  1  0
  1 31  1  0
  1 32  1  0
  1 33  1  0
  3 34  1  0
  5 35  1  0
  5 36  1  0
  5 37  1  0
 10 38  1  0
 11 39  1  0
 14 40  1  0
 15 41  1  0
 16 42  1  0
 17 43  1  0
 21 44  1  0
 22 45  1  0
 23 46  1  0
 24 47  1  0
 25 48  1  0
 26 49  1  0
 27 50  1  0
 30 51  1  0
M  END
>  <UniqueID>  (1) 
1

>  <SMILES>  (1) 
Cc1cc(C)c2oc(-c3ccc(-c4ccccc4Oc4ccccc4)cc3)nc2c1

>  <Energy>  (1) 
105.69354216797845

>  <Genealogy>  (1) 
Cc1cc(C)c2oc(-c3ccc(-c4ccccc4Oc4ccccc4)cc3)nc2c1 (3D coordinates assigned)
Cc1cc(C)c2oc(-c3ccc(-c4ccccc4Oc4ccccc4)cc3)nc2c1 (optimized conformer: 105.69354216797845 kcal/mol)

>  <smiles>  (1) 
Cc1cc(C)c2oc(-c3ccc(-c4ccccc4Oc4ccccc4)cc3)nc2c1

>  <score_type>  (1) 
oracle

>  <origin>  (1) 
adg

>  <m_score__min__energy>  (1) 
-9.3499999999999996

>  <m_primary>  (1) 
energy

$$$$
1:0
     RDKit          3D

 50 49  0  0  0  0  0  0  0  0999 V2000
   -3.0560   25.6740  -29.8410 H   0  0  0  0  0  0  0  0  0  0  0  0
   -4.0450   25.4040  -30.0340 N   0  0  0  0  0  0  0  0  0  0  0  0
   -4.7980   25.9790  -29.5960 H   0  0  0  0  0  0  0  0  0  0  0  0
   -4.3870   24.2680  -30.8430 C   0  0  0  0  0  0  0  0  0  0  0  0
   -3.4830   23.4210  -31.2400 N   0  0  0  0  0  0  0  0  0  0  0  0
   -2.3620   22.9380  -30.4390 C   0  0  0  0  0  0  0  0  0  0  0  0
   -1.4898   23.5870  -30.6068 H   0  0  0  0  0  0  0  0  0  0  0  0
   -2.1268   21.9059  -30.7382 H   0  0  0  0  0  0  0  0  0  0  0  0
   -2.7260   22.9550  -28.9500 C   0  0  0  0  0  0  0  0  0  0  0  0
   -3.1006   21.9593  -28.6704 H   0  0  0  0  0  0  0  0  0  0  0  0
   -3.4861   23.7374  -28.8084 H   0  0  0  0  0  0  0  0  0  0  0  0
   -1.5380   23.3030  -28.0400 C   0  0  0  0  0  0  0  0  0  0  0  0
   -0.9230   22.4015  -27.9019 H   0  0  0  0  0  0  0  0  0  0  0  0
   -1.9434   23.6653  -27.0838 H   0  0  0  0  0  0  0  0  0  0  0  0
   -0.6780   24.3890  -28.6120 C   0  0  0  0  0  0  0  0  0  0  0  0
    0.5020   24.1270  -28.9710 O   0  0  0  0  0  0  0  0  0  0  0  0
   -1.2020   25.6780  -28.7630 O   0  0  0  0  0  0  0  0  0  0  0  0
   -0.8750   26.7630  -27.8980 C   0  0  0  0  0  0  0  0  0  0  0  0
   -1.4351   27.6559  -28.2125 H   0  0  0  0  0  0  0  0  0  0  0  0
    0.2077   26.9476  -27.9592 H   0  0  0  0  0  0  0  0  0  0  0  0
   -1.2320   26.4330  -26.4540 C   0  0  0  0  0  0  0  0  0  0  0  0
   -0.5962   27.0208  -25.7756 H   0  0  0  0  0  0  0  0  0  0  0  0
   -2.2884   26.6795  -26.2720 H   0  0  0  0  0  0  0  0  0  0  0  0
   -1.0691   25.3605  -26.2720 H   0  0  0  0  0  0  0  0  0  0  0  0
   -5.7590   23.9650  -31.1140 N   0  0  0  0  0  0  0  0  0  0  0  0
   -6.4450   22.9380  -30.6990 C   0  0  0  0  0  0  0  0  0  0  0  0
   -7.2300   23.0750  -29.5140 N   0  0  0  0  0  0  0  0  0  0  0  0
   -7.2700   23.9870  -29.0070 H   0  0  0  0  0  0  0  0  0  0  0  0
   -7.7680   22.2640  -29.1370 H   0  0  0  0  0  0  0  0  0  0  0  0
   -6.3880   21.6540  -31.3470 N   0  0  0  0  0  0  0  0  0  0  0  0
   -7.1320   20.9520  -31.1300 H   0  0  0  0  0  0  0  0  0  0  0  0
   -5.3440   21.2650  -32.1260 O   0  0  0  0  0  0  0  0  0  0  0  0
   -5.3710   19.8550  -32.2110 C   0  0  0  0  0  0  0  0  0  0  0  0
   -4.3430   19.4759  -32.3087 H   0  0  0  0  0  0  0  0  0  0  0  0
   -5.8335   19.4465  -31.3004 H   0  0  0  0  0  0  0  0  0  0  0  0
   -6.1900   19.4210  -33.4300 C   0  0  0  0  0  0  0  0  0  0  0  0
   -5.6634   19.7489  -34.3384 H   0  0  0  0  0  0  0  0  0  0  0  0
   -6.2914   18.3268  -33.3799 H   0  0  0  0  0  0  0  0  0  0  0  0
   -7.6120   20.0080  -33.4520 C   0  0  0  0  0  0  0  0  0  0  0  0
   -7.5501   21.0727  -33.7214 H   0  0  0  0  0  0  0  0  0  0  0  0
   -8.1977   19.4381  -34.1883 H   0  0  0  0  0  0  0  0  0  0  0  0
   -8.2950   19.8880  -32.1430 N   0  0  0  0  0  0  0  0  0  0  0  0
   -9.4420   20.8110  -32.0550 C   0  0  0  0  0  0  0  0  0  0  0  0
   -9.6789   21.0017  -30.9979 H   0  0  0  0  0  0  0  0  0  0  0  0
   -9.1882   21.7596  -32.5507 H   0  0  0  0  0  0  0  0  0  0  0  0
  -10.3143   20.3601  -32.5507 H   0  0  0  0  0  0  0  0  0  0  0  0
   -8.7690   18.5070  -31.9600 C   0  0  0  0  0  0  0  0  0  0  0  0
   -8.8452   18.2849  -30.8854 H   0  0  0  0  0  0  0  0  0  0  0  0
   -9.7575   18.3935  -32.4289 H   0  0  0  0  0  0  0  0  0  0  0  0
   -8.0585   17.8103  -32.4289 H   0  0  0  0  0  0  0  0  0  0  0  0
  1  2  1  0
  2  3  1  0
  2  4  1  0
  4  5  2  0
  5  6  1  0
  6  7  1  0
  6  8  1  0
  6  9  1  0
  9 10  1  0
  9 11  1  0
  9 12  1  0
 12 13  1  0
 12 14  1  0
 12 15  1  0
 15 16  2  0
 15 17  1  0
 17 18  1  0
 18 19  1  0
 18 20  1  0
 18 21  1  0
 21 22  1  0
 21 23  1  0
 21 24  1  0
  4 25  1  0
 25 26  2  0
 26 27  1  0
 27 28  1  0
 27 29  1  0
 26 30  1  0
 30 31  1  0
 30 32  1  0
 32 33  1  0
 33 34  1  0
 33 35  1  0
 33 36  1  0
 36 37  1  0
 36 38  1  0
 36 39  1  0
 39 40  1  0
 39 41  1  0
 39 42  1  0
 42 43  1  0
 43 44  1  0
 43 45  1  0
 43 46  1  0
 42 47  1  0
 47 48  1  0
 47 49  1  0
 47 50  1  0
M  END
>  <UniqueID>  (2) 
2

>  <SMILES>  (2) 
CCOC(=O)CCCN=C(N)/N=C(/N)NOCCCN(C)C

>  <Energy>  (2) 
32.348170881432644

>  <Genealogy>  (2) 
CCOC(=O)CCCN=C(N)/N=C(/N)NOCCCN(C)C (cis-trans isomerization)
CCOC(=O)CCCN=C(N)/N=C(/N)NOCCCN(C)C (3D coordinates assigned)
CCOC(=O)CCCN=C(N)/N=C(/N)NOCCCN(C)C (optimized conformer: 32.348170881432644 kcal/mol)

>  <smiles>  (2) 
CCOC(=O)CCCN=C(N)N=C(N)NOCCCN(C)C

>  <score_type>  (2) 
oracle

>  <origin>  (2) 
adg

>  <m_score__min__energy>  (2) 
-5.8499999999999996

>  <m_primary>  (2) 
energy

$$$$
2:0
     RDKit          3D

 56 58  0  0  0  0  0  0  0  0999 V2000
   -7.0330   17.7900  -31.5180 C   0  0  0  0  0  0  0  0  0  0  0  0
   -7.9340   18.3300  -32.6300 C   0  0  0  0  0  0  0  0  0  0  0  0
   -8.1460   19.8300  -32.4840 C   0  0  0  0  0  0  0  0  0  0  0  0
   -9.4810   20.2310  -32.3420 C   0  0  0  0  0  0  0  0  0  0  0  0
   -9.7960   21.5140  -31.9550 C   0  0  0  0  0  0  0  0  0  0  0  0
   -8.7820   22.3810  -31.5930 C   0  0  0  0  0  0  0  0  0  0  0  0
   -7.4580   22.0110  -31.6590 N   0  0  0  0  0  0  0  0  0  0  0  0
   -7.1090   20.8140  -32.2760 C   0  0  0  0  0  0  0  0  0  0  0  0
   -5.7530   20.6510  -32.7260 C   0  0  0  0  0  0  0  0  0  0  0  0
   -5.3090   19.4970  -33.6020 C   0  0  0  0  0  0  0  0  0  0  0  0
   -4.8070   21.6560  -32.4190 C   0  0  0  0  0  0  0  0  0  0  0  0
   -3.5030   21.6550  -33.0290 N   0  0  0  0  0  0  0  0  0  0  0  0
   -2.3580   20.9920  -32.3970 C   0  0  0  0  0  0  0  0  0  0  0  0
   -1.0140   21.4960  -32.9800 C   0  0  0  0  0  0  0  0  0  0  0  0
   -0.7180   20.8960  -34.3090 N   0  0  0  0  0  0  0  0  0  0  0  0
   -0.6030   19.4170  -34.1980 C   0  0  0  0  0  0  0  0  0  0  0  0
   -1.9410   18.7010  -34.4320 C   0  0  0  0  0  0  0  0  0  0  0  0
    0.5460   21.4700  -34.8490 C   0  0  0  0  0  0  0  0  0  0  0  0
    0.2980   22.7000  -35.7310 C   0  0  0  0  0  0  0  0  0  0  0  0
   -5.1370   22.6730  -31.5180 C   0  0  0  0  0  0  0  0  0  0  0  0
   -4.1450   23.5420  -31.0100 C   0  0  0  0  0  0  0  0  0  0  0  0
   -4.4770   24.5510  -30.1100 C   0  0  0  0  0  0  0  0  0  0  0  0
   -5.7910   24.6970  -29.6860 C   0  0  0  0  0  0  0  0  0  0  0  0
   -6.7850   23.8510  -30.1760 C   0  0  0  0  0  0  0  0  0  0  0  0
   -6.4860   22.8410  -31.1330 C   0  0  0  0  0  0  0  0  0  0  0  0
   -7.4637   18.0481  -30.5393 H   0  0  0  0  0  0  0  0  0  0  0  0
   -6.9554   16.6964  -31.6075 H   0  0  0  0  0  0  0  0  0  0  0  0
   -6.0320   18.2372  -31.6075 H   0  0  0  0  0  0  0  0  0  0  0  0
   -7.4641   18.1267  -33.6036 H   0  0  0  0  0  0  0  0  0  0  0  0
   -8.9117   17.8307  -32.5607 H   0  0  0  0  0  0  0  0  0  0  0  0
  -10.2881   19.5110  -32.5424 H   0  0  0  0  0  0  0  0  0  0  0  0
  -10.8445   21.8461  -31.9340 H   0  0  0  0  0  0  0  0  0  0  0  0
   -9.0397   23.3917  -31.2435 H   0  0  0  0  0  0  0  0  0  0  0  0
   -4.9863   18.6582  -32.9677 H   0  0  0  0  0  0  0  0  0  0  0  0
   -6.1474   19.1750  -34.2371 H   0  0  0  0  0  0  0  0  0  0  0  0
   -4.4710   19.8200  -34.2371 H   0  0  0  0  0  0  0  0  0  0  0  0
   -3.3680   22.1560  -33.9360 H   0  0  0  0  0  0  0  0  0  0  0  0
   -2.3780   21.1978  -31.3166 H   0  0  0  0  0  0  0  0  0  0  0  0
   -2.4346   19.9123  -32.5927 H   0  0  0  0  0  0  0  0  0  0  0  0
   -1.0625   22.5896  -33.0879 H   0  0  0  0  0  0  0  0  0  0  0  0
   -0.2125   21.1972  -32.2884 H   0  0  0  0  0  0  0  0  0  0  0  0
   -1.5050   21.1250  -34.9650 H   0  0  0  0  0  0  0  0  0  0  0  0
    0.1215   19.0629  -34.9462 H   0  0  0  0  0  0  0  0  0  0  0  0
   -0.2756   19.1844  -33.1739 H   0  0  0  0  0  0  0  0  0  0  0  0
   -2.3999   18.4555  -33.4629 H   0  0  0  0  0  0  0  0  0  0  0  0
   -2.6146   19.3592  -35.0004 H   0  0  0  0  0  0  0  0  0  0  0  0
   -1.7671   17.7754  -35.0004 H   0  0  0  0  0  0  0  0  0  0  0  0
    1.1895   21.7632  -34.0064 H   0  0  0  0  0  0  0  0  0  0  0  0
    1.0250   20.7006  -35.4724 H   0  0  0  0  0  0  0  0  0  0  0  0
    0.1208   23.5787  -35.0934 H   0  0  0  0  0  0  0  0  0  0  0  0
    1.1781   22.8793  -36.3661 H   0  0  0  0  0  0  0  0  0  0  0  0
   -0.5828   22.5242  -36.3661 H   0  0  0  0  0  0  0  0  0  0  0  0
   -3.0994   23.4199  -31.3291 H   0  0  0  0  0  0  0  0  0  0  0  0
   -3.6988   25.2321  -29.7351 H   0  0  0  0  0  0  0  0  0  0  0  0
   -6.0487   25.4830  -28.9609 H   0  0  0  0  0  0  0  0  0  0  0  0
   -7.8183   23.9662  -29.8167 H   0  0  0  0  0  0  0  0  0  0  0  0
  1  2  1  0
  2  3  1  0
  3  4  2  0
  4  5  1  0
  5  6  2  0
  6  7  1  0
  7  8  2  0
  8  9  1  0
  9 10  1  0
  9 11  2  0
 11 12  1  0
 12 13  1  0
 13 14  1  0
 14 15  1  0
 15 16  1  0
 16 17  1  0
 15 18  1  0
 18 19  1  0
 11 20  1  0
 20 21  2  0
 21 22  1  0
 22 23  2  0
 23 24  1  0
 24 25  2  0
  8  3  1  0
 25 20  1  0
 25  7  1  0
  1 26  1  0
  1 27  1  0
  1 28  1  0
  2 29  1  0
  2 30  1  0
  4 31  1  0
  5 32  1  0
  6 33  1  0
 10 34  1  0
 10 35  1  0
 10 36  1  0
 12 37  1  0
 13 38  1  0
 13 39  1  0
 14 40  1  0
 14 41  1  0
 15 42  1  0
 16 43  1  0
 16 44  1  0
 17 45  1  0
 17 46  1  0
 17 47  1  0
 18 48  1  0
 18 49  1  0
 19 50  1  0
 19 51  1  0
 19 52  1  0
 21 53  1  0
 22 54  1  0
 23 55  1  0
 24 56  1  0
M  CHG  2   7   1  15   1
M  END
>  <UniqueID>  (3) 
3

>  <SMILES>  (3) 
CCc1ccc[n+]2c1c(C)c(NCC[NH+](CC)CC)c1ccccc12

>  <Energy>  (3) 
101.40146351522733

>  <Genealogy>  (3) 
CCc1ccc[n+]2c1c(C)c(NCC[NH+](CC)CC)c1ccccc12 (protonated)
CCc1ccc[n+]2c1c(C)c(NCC[NH+](CC)CC)c1ccccc12 (3D coordinates assigned)
CCc1ccc[n+]2c1c(C)c(NCC[NH+](CC)CC)c1ccccc12 (optimized conformer: 101.40146351522733 kcal/mol)

>  <smiles>  (3) 
CCc1ccc[n+]2c1c(C)c(NCCN(CC)CC)c1ccccc12

>  <score_type>  (3) 
oracle

>  <origin>  (3) 
adg

>  <m_score__min__energy>  (3) 
-7.6799999999999997

>  <m_primary>  (3) 
energy

$$$$
3:0
     RDKit          3D

 49 51  0  0  0  0  0  0  0  0999 V2000
   -6.0170   24.9910  -29.7050 C   0  0  0  0  0  0  0  0  0  0  0  0
   -4.9490   25.0660  -30.7910 C   0  0  0  0  0  0  0  0  0  0  0  0
   -3.8770   24.0780  -30.5310 N   0  0  0  0  0  0  0  0  0  0  0  0
   -3.0690   24.5110  -29.3750 C   0  0  0  0  0  0  0  0  0  0  0  0
   -4.4470   22.7290  -30.2950 C   0  0  0  0  0  0  0  0  0  0  0  0
   -3.5730   21.6210  -30.9060 C   0  0  0  0  0  0  0  0  0  0  0  0
   -3.2690   21.8340  -32.3970 C   0  0  0  0  0  0  0  0  0  0  0  0
   -4.4920   21.8520  -33.2030 N   0  0  0  0  0  0  0  0  0  0  0  0
   -5.5880   20.9900  -32.8690 C   0  0  0  0  0  0  0  0  0  0  0  0
   -6.8600   21.4800  -32.4840 C   0  0  0  0  0  0  0  0  0  0  0  0
   -7.0890   22.8590  -32.3340 C   0  0  0  0  0  0  0  0  0  0  0  0
   -8.3440   23.3350  -31.9580 C   0  0  0  0  0  0  0  0  0  0  0  0
   -9.3880   22.4460  -31.7170 C   0  0  0  0  0  0  0  0  0  0  0  0
   -9.1860   21.0700  -31.8370 C   0  0  0  0  0  0  0  0  0  0  0  0
   -7.9250   20.5520  -32.2120 C   0  0  0  0  0  0  0  0  0  0  0  0
   -7.7030   19.1870  -32.3110 N   0  0  0  0  0  0  0  0  0  0  0  0
   -8.7640   18.2010  -32.0450 C   0  0  0  0  0  0  0  0  0  0  0  0
   -6.4570   18.7570  -32.6600 C   0  0  0  0  0  0  0  0  0  0  0  0
   -6.0680   17.5110  -32.8010 O   0  0  0  0  0  0  0  0  0  0  0  0
   -4.7970   17.5330  -33.1570 C   0  0  0  0  0  0  0  0  0  0  0  0
   -3.9900   16.3110  -33.4350 C   0  0  0  0  0  0  0  0  0  0  0  0
   -4.3360   18.8410  -33.2590 C   0  0  0  0  0  0  0  0  0  0  0  0
   -5.4280   19.6130  -32.9270 C   0  0  0  0  0  0  0  0  0  0  0  0
   -5.5371   25.0247  -28.7158 H   0  0  0  0  0  0  0  0  0  0  0  0
   -6.7051   25.8430  -29.8079 H   0  0  0  0  0  0  0  0  0  0  0  0
   -6.5792   24.0512  -29.8079 H   0  0  0  0  0  0  0  0  0  0  0  0
   -5.4092   24.8528  -31.7671 H   0  0  0  0  0  0  0  0  0  0  0  0
   -4.5113   26.0751  -30.7914 H   0  0  0  0  0  0  0  0  0  0  0  0
   -3.5844   24.2348  -28.4433 H   0  0  0  0  0  0  0  0  0  0  0  0
   -2.0858   24.0189  -29.4099 H   0  0  0  0  0  0  0  0  0  0  0  0
   -2.9343   25.6022  -29.4099 H   0  0  0  0  0  0  0  0  0  0  0  0
   -4.5267   22.5615  -29.2107 H   0  0  0  0  0  0  0  0  0  0  0  0
   -5.4350   22.6878  -30.7769 H   0  0  0  0  0  0  0  0  0  0  0  0
   -2.6201   21.5867  -30.3576 H   0  0  0  0  0  0  0  0  0  0  0  0
   -4.1365   20.6801  -30.8213 H   0  0  0  0  0  0  0  0  0  0  0  0
   -2.7467   22.7942  -32.5205 H   0  0  0  0  0  0  0  0  0  0  0  0
   -2.6437   20.9973  -32.7420 H   0  0  0  0  0  0  0  0  0  0  0  0
   -4.7100   22.6900  -33.7890 H   0  0  0  0  0  0  0  0  0  0  0  0
   -6.2692   23.5697  -32.5152 H   0  0  0  0  0  0  0  0  0  0  0  0
   -8.5102   24.4171  -31.8513 H   0  0  0  0  0  0  0  0  0  0  0  0
  -10.3780   22.8302  -31.4303 H   0  0  0  0  0  0  0  0  0  0  0  0
  -10.0188   20.3797  -31.6372 H   0  0  0  0  0  0  0  0  0  0  0  0
   -8.8909   18.0830  -30.9587 H   0  0  0  0  0  0  0  0  0  0  0  0
   -9.7082   18.5496  -32.4888 H   0  0  0  0  0  0  0  0  0  0  0  0
   -8.4854   17.2338  -32.4888 H   0  0  0  0  0  0  0  0  0  0  0  0
   -3.6849   15.8490  -32.4845 H   0  0  0  0  0  0  0  0  0  0  0  0
   -4.5942   15.5962  -34.0128 H   0  0  0  0  0  0  0  0  0  0  0  0
   -3.0953   16.5860  -34.0128 H   0  0  0  0  0  0  0  0  0  0  0  0
   -3.3288   19.1818  -33.5406 H   0  0  0  0  0  0  0  0  0  0  0  0
  1  2  1  0
  2  3  1  0
  3  4  1  0
  3  5  1  0
  5  6  1  0
  6  7  1  0
  7  8  1  0
  8  9  1  0
  9 10  2  0
 10 11  1  0
 11 12  2  0
 12 13  1  0
 13 14  2  0
 14 15  1  0
 15 16  2  0
 16 17  1  0
 16 18  1  0
 18 19  1  0
 19 20  1  0
 20 21  1  0
 20 22  2  0
 22 23  1  0
 23  9  1  0
 15 10  1  0
 23 18  2  0
  1 24  1  0
  1 25  1  0
  1 26  1  0
  2 27  1  0
  2 28  1  0
  4 29  1  0
  4 30  1  0
  4 31  1  0
  5 32  1  0
  5 33  1  0
  6 34  1  0
  6 35  1  0
  7 36  1  0
  7 37  1  0
  8 38  1  0
 11 39  1  0
 12 40  1  0
 13 41  1  0
 14 42  1  0
 17 43  1  0
 17 44  1  0
 17 45  1  0
 21 46  1  0
 21 47  1  0
 21 48  1  0
 22 49  1  0
M  CHG  1  16   1
M  END
>  <UniqueID>  (4) 
4

>  <SMILES>  (4) 
CCN(C)CCCNc1c2ccccc2[n+](C)c2oc(C)cc12

>  <Energy>  (4) 
91.7046546209494

>  <Genealogy>  (4) 
CCN(C)CCCNc1c2ccccc2[n+](C)c2oc(C)cc12 (3D coordinates assigned)
CCN(C)CCCNc1c2ccccc2[n+](C)c2oc(C)cc12 (optimized conformer: 91.7046546209494 kcal/mol)

>  <smiles>  (4) 
CCN(C)CCCNc1c2ccccc2[n+](C)c2oc(C)cc12

>  <score_type>  (4) 
oracle

>  <origin>  (4) 
adg

>  <m_score__min__energy>  (4) 
-8.0399999999999991

>  <m_primary>  (4) 
energy

$$$$
4:0
     RDKit          3D

 47 49  0  0  0  0  0  0  0  0999 V2000
   -6.1610   14.9570  -34.1830 C   0  0  0  0  0  0  0  0  0  0  0  0
   -5.9630   16.3970  -33.8070 C   0  0  0  0  0  0  0  0  0  0  0  0
   -4.7340   17.0170  -34.0310 C   0  0  0  0  0  0  0  0  0  0  0  0
   -4.5690   18.3700  -33.7540 C   0  0  0  0  0  0  0  0  0  0  0  0
   -5.6340   19.1410  -33.2460 C   0  0  0  0  0  0  0  0  0  0  0  0
   -5.4890   20.5260  -33.0440 C   0  0  0  0  0  0  0  0  0  0  0  0
   -4.2530   21.1810  -33.3830 N   0  0  0  0  0  0  0  0  0  0  0  0
   -3.0640   21.0580  -32.5360 C   0  0  0  0  0  0  0  0  0  0  0  0
   -1.7970   21.5340  -33.2720 C   0  0  0  0  0  0  0  0  0  0  0  0
   -1.4410   20.6840  -34.4350 N   0  0  0  0  0  0  0  0  0  0  0  0
   -1.4530   19.2510  -34.0830 C   0  0  0  0  0  0  0  0  0  0  0  0
   -0.1040   21.0520  -34.9360 C   0  0  0  0  0  0  0  0  0  0  0  0
   -6.5830   21.2740  -32.5700 C   0  0  0  0  0  0  0  0  0  0  0  0
   -6.4680   22.6640  -32.3450 C   0  0  0  0  0  0  0  0  0  0  0  0
   -7.5710   23.4140  -31.9450 C   0  0  0  0  0  0  0  0  0  0  0  0
   -8.8030   22.7980  -31.7640 C   0  0  0  0  0  0  0  0  0  0  0  0
   -8.9300   21.4210  -31.9390 C   0  0  0  0  0  0  0  0  0  0  0  0
   -7.8150   20.6200  -32.2970 C   0  0  0  0  0  0  0  0  0  0  0  0
   -7.9060   19.2430  -32.3900 N   0  0  0  0  0  0  0  0  0  0  0  0
   -9.0870   18.5430  -31.8350 C   0  0  0  0  0  0  0  0  0  0  0  0
   -6.8780   18.5160  -32.9610 C   0  0  0  0  0  0  0  0  0  0  0  0
   -7.0310   17.1460  -33.3000 C   0  0  0  0  0  0  0  0  0  0  0  0
   -6.2447   14.3480  -33.2708 H   0  0  0  0  0  0  0  0  0  0  0  0
   -7.0814   14.8563  -34.7768 H   0  0  0  0  0  0  0  0  0  0  0  0
   -5.3019   14.6116  -34.7768 H   0  0  0  0  0  0  0  0  0  0  0  0
   -3.8909   16.4330  -34.4287 H   0  0  0  0  0  0  0  0  0  0  0  0
   -3.5934   18.8452  -33.9340 H   0  0  0  0  0  0  0  0  0  0  0  0
   -4.2660   21.9120  -34.1300 H   0  0  0  0  0  0  0  0  0  0  0  0
   -3.2037   21.6693  -31.6323 H   0  0  0  0  0  0  0  0  0  0  0  0
   -2.9341   19.9976  -32.2741 H   0  0  0  0  0  0  0  0  0  0  0  0
   -1.9650   22.5610  -33.6283 H   0  0  0  0  0  0  0  0  0  0  0  0
   -0.9629   21.4751  -32.5573 H   0  0  0  0  0  0  0  0  0  0  0  0
   -2.1200   20.8340  -35.2170 H   0  0  0  0  0  0  0  0  0  0  0  0
   -1.4539   19.1423  -32.9884 H   0  0  0  0  0  0  0  0  0  0  0  0
   -2.3551   18.7788  -34.4991 H   0  0  0  0  0  0  0  0  0  0  0  0
   -0.5589   18.7637  -34.4991 H   0  0  0  0  0  0  0  0  0  0  0  0
    0.5682   21.2370  -34.0852 H   0  0  0  0  0  0  0  0  0  0  0  0
    0.2970   20.2308  -35.5483 H   0  0  0  0  0  0  0  0  0  0  0  0
   -0.1797   21.9627  -35.5483 H   0  0  0  0  0  0  0  0  0  0  0  0
   -5.4962   23.1594  -32.4874 H   0  0  0  0  0  0  0  0  0  0  0  0
   -7.4667   24.4953  -31.7722 H   0  0  0  0  0  0  0  0  0  0  0  0
   -9.6804   23.3984  -31.4819 H   0  0  0  0  0  0  0  0  0  0  0  0
   -9.9123   20.9468  -31.7970 H   0  0  0  0  0  0  0  0  0  0  0  0
   -9.0451   18.5679  -30.7361 H   0  0  0  0  0  0  0  0  0  0  0  0
  -10.0046   19.0432  -32.1783 H   0  0  0  0  0  0  0  0  0  0  0  0
   -9.0887   17.4980  -32.1783 H   0  0  0  0  0  0  0  0  0  0  0  0
   -8.0095   16.6630  -33.1613 H   0  0  0  0  0  0  0  0  0  0  0  0
  1  2  1  0
  2  3  2  0
  3  4  1  0
  4  5  2  0
  5  6  1  0
  6  7  1  0
  7  8  1  0
  8  9  1  0
  9 10  1  0
 10 11  1  0
 10 12  1  0
  6 13  2  0
 13 14  1  0
 14 15  2  0
 15 16  1  0
 16 17  2  0
 17 18  1  0
 18 19  2  0
 19 20  1  0
 19 21  1  0
 21 22  2  0
 22  2  1  0
 21  5  1  0
 18 13  1  0
  1 23  1  0
  1 24  1  0
  1 25  1  0
  3 26  1  0
  4 27  1  0
  7 28  1  0
  8 29  1  0
  8 30  1  0
  9 31  1  0
  9 32  1  0
 10 33  1  0
 11 34  1  0
 11 35  1  0
 11 36  1  0
 12 37  1  0
 12 38  1  0
 12 39  1  0
 14 40  1  0
 15 41  1  0
 16 42  1  0
 17 43  1  0
 20 44  1  0
 20 45  1  0
 20 46  1  0
 22 47  1  0
M  CHG  2  10   1  19   1
M  END
>  <UniqueID>  (5) 
5

>  <SMILES>  (5) 
Cc1ccc2c(NCC[NH+](C)C)c3ccccc3[n+](C)c2c1

>  <Energy>  (5) 
73.92147679571944

>  <Genealogy>  (5) 
Cc1ccc2c(NCC[NH+](C)C)c3ccccc3[n+](C)c2c1 (protonated)
Cc1ccc2c(NCC[NH+](C)C)c3ccccc3[n+](C)c2c1 (3D coordinates assigned)
Cc1ccc2c(NCC[NH+](C)C)c3ccccc3[n+](C)c2c1 (optimized conformer: 73.92147679571944 kcal/mol)

>  <smiles>  (5) 
Cc1ccc2c(NCCN(C)C)c3ccccc3[n+](C)c2c1

>  <score_type>  (5) 
oracle

>  <origin>  (5) 
adg

>  <m_score__min__energy>  (5) 
-7.2599999999999998

>  <m_primary>  (5) 
energy

$$$$
5:0
     RDKit          3D

 54 57  0  0  0  0  0  0  0  0999 V2000
   -9.1290   18.1800  -31.7180 C   0  0  0  0  0  0  0  0  0  0  0  0
   -8.0350   19.1390  -31.8870 N   0  0  0  0  0  0  0  0  0  0  0  0
   -6.6970   18.8890  -31.9070 C   0  0  0  0  0  0  0  0  0  0  0  0
   -6.0680   17.5210  -31.7880 C   0  0  0  0  0  0  0  0  0  0  0  0
   -6.3470   16.6910  -32.9880 N   0  0  0  0  0  0  0  0  0  0  0  0
   -6.3680   17.5090  -34.2200 C   0  0  0  0  0  0  0  0  0  0  0  0
   -4.9720   18.0580  -34.5890 C   0  0  0  0  0  0  0  0  0  0  0  0
   -3.8630   17.2090  -34.0930 N   0  0  0  0  0  0  0  0  0  0  0  0
   -2.6320   17.4250  -34.8930 C   0  0  0  0  0  0  0  0  0  0  0  0
   -1.5160   18.0560  -34.0570 C   0  0  0  0  0  0  0  0  0  0  0  0
   -1.9980   18.5090  -32.7900 O   0  0  0  0  0  0  0  0  0  0  0  0
   -2.5110   19.7870  -32.5060 C   0  0  0  0  0  0  0  0  0  0  0  0
   -3.0990   20.6170  -33.4830 C   0  0  0  0  0  0  0  0  0  0  0  0
   -3.5470   21.8980  -33.1410 C   0  0  0  0  0  0  0  0  0  0  0  0
   -3.4330   22.3530  -31.8250 C   0  0  0  0  0  0  0  0  0  0  0  0
   -2.8760   21.5270  -30.8470 C   0  0  0  0  0  0  0  0  0  0  0  0
   -2.4180   20.2500  -31.1870 C   0  0  0  0  0  0  0  0  0  0  0  0
   -4.2550   15.7870  -34.1020 C   0  0  0  0  0  0  0  0  0  0  0  0
   -5.4090   15.5400  -33.1080 C   0  0  0  0  0  0  0  0  0  0  0  0
   -5.9770   20.0790  -31.9710 C   0  0  0  0  0  0  0  0  0  0  0  0
   -6.9250   21.0770  -31.9930 C   0  0  0  0  0  0  0  0  0  0  0  0
   -6.7720   22.4610  -32.0290 C   0  0  0  0  0  0  0  0  0  0  0  0
   -7.9360   23.2500  -32.0070 C   0  0  0  0  0  0  0  0  0  0  0  0
   -9.2090   22.6440  -31.9410 C   0  0  0  0  0  0  0  0  0  0  0  0
   -9.3320   21.2430  -31.8990 C   0  0  0  0  0  0  0  0  0  0  0  0
   -8.1580   20.4810  -31.9330 C   0  0  0  0  0  0  0  0  0  0  0  0
   -9.3129   18.0188  -30.6455 H   0  0  0  0  0  0  0  0  0  0  0  0
  -10.0399   18.5759  -32.1908 H   0  0  0  0  0  0  0  0  0  0  0  0
   -8.8558   17.2251  -32.1908 H   0  0  0  0  0  0  0  0  0  0  0  0
   -4.9796   17.6357  -31.6771 H   0  0  0  0  0  0  0  0  0  0  0  0
   -6.4983   17.0168  -30.9101 H   0  0  0  0  0  0  0  0  0  0  0  0
   -7.3150   16.2970  -32.8940 H   0  0  0  0  0  0  0  0  0  0  0  0
   -6.7333   16.8869  -35.0504 H   0  0  0  0  0  0  0  0  0  0  0  0
   -7.0286   18.3697  -34.0387 H   0  0  0  0  0  0  0  0  0  0  0  0
   -4.8999   18.1230  -35.6847 H   0  0  0  0  0  0  0  0  0  0  0  0
   -4.8701   19.0430  -34.1101 H   0  0  0  0  0  0  0  0  0  0  0  0
   -2.2834   16.4558  -35.2792 H   0  0  0  0  0  0  0  0  0  0  0  0
   -2.8747   18.1135  -35.7159 H   0  0  0  0  0  0  0  0  0  0  0  0
   -0.7273   17.3073  -33.8917 H   0  0  0  0  0  0  0  0  0  0  0  0
   -1.1248   18.9250  -34.6063 H   0  0  0  0  0  0  0  0  0  0  0  0
   -3.2058   20.2565  -34.5167 H   0  0  0  0  0  0  0  0  0  0  0  0
   -3.9898   22.5480  -33.9100 H   0  0  0  0  0  0  0  0  0  0  0  0
   -3.7820   23.3618  -31.5595 H   0  0  0  0  0  0  0  0  0  0  0  0
   -2.7973   21.8807  -29.8084 H   0  0  0  0  0  0  0  0  0  0  0  0
   -1.9809   19.6034  -30.4119 H   0  0  0  0  0  0  0  0  0  0  0  0
   -4.5828   15.5080  -35.1143 H   0  0  0  0  0  0  0  0  0  0  0  0
   -3.3900   15.1769  -33.8027 H   0  0  0  0  0  0  0  0  0  0  0  0
   -5.9777   14.6613  -33.4463 H   0  0  0  0  0  0  0  0  0  0  0  0
   -4.9556   15.3877  -32.1174 H   0  0  0  0  0  0  0  0  0  0  0  0
   -4.8836   20.1966  -31.9982 H   0  0  0  0  0  0  0  0  0  0  0  0
   -5.7740   22.9215  -32.0732 H   0  0  0  0  0  0  0  0  0  0  0  0
   -7.8538   24.3464  -32.0414 H   0  0  0  0  0  0  0  0  0  0  0  0
  -10.1120   23.2719  -31.9223 H   0  0  0  0  0  0  0  0  0  0  0  0
  -10.3194   20.7616  -31.8413 H   0  0  0  0  0  0  0  0  0  0  0  0
  1  2  1  0
  2  3  1  0
  3  4  1  0
  4  5  1  0
  5  6  1  0
  6  7  1  0
  7  8  1  0
  8  9  1  0
  9 10  1  0
 10 11  1  0
 11 12  1  0
 12 13  2  0
 13 14  1  0
 14 15  2  0
 15 16  1  0
 16 17  2  0
  8 18  1  0
 18 19  1  0
  3 20  2  0
 20 21  1  0
 21 22  2  0
 22 23  1  0
 23 24  2  0
 24 25  1  0
 25 26  2  0
 26  2  1  0
 19  5  1  0
 26 21  1  0
 17 12  1  0
  1 27  1  0
  1 28  1  0
  1 29  1  0
  4 30  1  0
  4 31  1  0
  5 32  1  0
  6 33  1  0
  6 34  1  0
  7 35  1  0
  7 36  1  0
  9 37  1  0
  9 38  1  0
 10 39  1  0
 10 40  1  0
 13 41  1  0
 14 42  1  0
 15 43  1  0
 16 44  1  0
 17 45  1  0
 18 46  1  0
 18 47  1  0
 19 48  1  0
 19 49  1  0
 20 50  1  0
 22 51  1  0
 23 52  1  0
 24 53  1  0
 25 54  1  0
M  CHG  1   5   1
M  END
>  <UniqueID>  (6) 
6

>  <SMILES>  (6) 
Cn1c(C[NH+]2CCN(CCOc3ccccc3)CC2)cc2ccccc21

>  <Energy>  (6) 
102.44405121752644

>  <Genealogy>  (6) 
Cn1c(C[NH+]2CCN(CCOc3ccccc3)CC2)cc2ccccc21 (protonated)
Cn1c(C[NH+]2CCN(CCOc3ccccc3)CC2)cc2ccccc21 (3D coordinates assigned)
Cn1c(C[NH+]2CCN(CCOc3ccccc3)CC2)cc2ccccc21 (nonaromatic ring conformer: 102.44405121752644 kcal/mol)

>  <smiles>  (6) 
Cn1c(CN2CCN(CCOc3ccccc3)CC2)cc2ccccc21

>  <score_type>  (6) 
oracle

>  <origin>  (6) 
adg

>  <m_score__min__energy>  (6) 
-8.2200000000000006

>  <m_primary>  (6) 
energy

$$$$
6:0
     RDKit          3D

 62 64  0  0  0  0  0  0  0  0999 V2000
   -5.0010   17.7580  -35.0710 C   0  0  0  0  0  0  0  0  0  0  0  0
   -4.1830   17.0790  -33.9760 C   0  0  0  0  0  0  0  0  0  0  0  0
   -3.2980   18.0520  -33.3210 N   0  0  0  0  0  0  0  0  0  0  0  0
   -1.8780   17.6960  -33.4870 C   0  0  0  0  0  0  0  0  0  0  0  0
   -1.0490   18.1820  -32.2980 C   0  0  0  0  0  0  0  0  0  0  0  0
   -1.7800   19.1450  -31.5700 O   0  0  0  0  0  0  0  0  0  0  0  0
   -0.9080   20.0610  -30.9330 C   0  0  0  0  0  0  0  0  0  0  0  0
   -0.4050   21.1410  -31.9060 C   0  0  0  0  0  0  0  0  0  0  0  0
   -1.4660   21.8680  -32.4940 O   0  0  0  0  0  0  0  0  0  0  0  0
   -1.9740   21.1900  -33.6250 C   0  0  0  0  0  0  0  0  0  0  0  0
   -3.4910   21.0510  -33.4840 C   0  0  0  0  0  0  0  0  0  0  0  0
   -3.8730   20.6740  -32.1090 N   0  0  0  0  0  0  0  0  0  0  0  0
   -5.2110   21.1490  -31.7900 C   0  0  0  0  0  0  0  0  0  0  0  0
   -6.3250   20.2800  -31.9810 C   0  0  0  0  0  0  0  0  0  0  0  0
   -6.1620   18.9010  -32.2790 C   0  0  0  0  0  0  0  0  0  0  0  0
   -7.2610   18.0590  -32.4260 C   0  0  0  0  0  0  0  0  0  0  0  0
   -8.5450   18.5560  -32.2730 C   0  0  0  0  0  0  0  0  0  0  0  0
   -8.7390   19.9050  -31.9940 C   0  0  0  0  0  0  0  0  0  0  0  0
   -7.6420   20.7970  -31.8730 C   0  0  0  0  0  0  0  0  0  0  0  0
   -7.8390   22.1400  -31.6540 N   0  0  0  0  0  0  0  0  0  0  0  0
   -9.1670   22.7400  -31.9210 C   0  0  0  0  0  0  0  0  0  0  0  0
   -6.8020   22.9270  -31.2010 C   0  0  0  0  0  0  0  0  0  0  0  0
   -7.0700   24.1970  -30.6380 C   0  0  0  0  0  0  0  0  0  0  0  0
   -6.0500   25.0330  -30.2250 C   0  0  0  0  0  0  0  0  0  0  0  0
   -4.7350   24.6280  -30.3320 C   0  0  0  0  0  0  0  0  0  0  0  0
   -4.4040   23.3560  -30.8320 C   0  0  0  0  0  0  0  0  0  0  0  0
   -3.0520   22.9710  -30.8600 O   0  0  0  0  0  0  0  0  0  0  0  0
   -2.1410   23.0740  -29.7670 C   0  0  0  0  0  0  0  0  0  0  0  0
   -5.4470   22.4690  -31.2760 C   0  0  0  0  0  0  0  0  0  0  0  0
   -5.7701   18.3964  -34.6117 H   0  0  0  0  0  0  0  0  0  0  0  0
   -4.3376   18.3746  -35.6953 H   0  0  0  0  0  0  0  0  0  0  0  0
   -5.4849   16.9924  -35.6953 H   0  0  0  0  0  0  0  0  0  0  0  0
   -4.8651   16.6484  -33.2281 H   0  0  0  0  0  0  0  0  0  0  0  0
   -3.5694   16.2860  -34.4283 H   0  0  0  0  0  0  0  0  0  0  0  0
   -3.5100   18.0310  -32.2950 H   0  0  0  0  0  0  0  0  0  0  0  0
   -1.7880   16.6025  -33.5653 H   0  0  0  0  0  0  0  0  0  0  0  0
   -1.4996   18.1800  -34.3994 H   0  0  0  0  0  0  0  0  0  0  0  0
   -0.8140   17.3298  -31.6434 H   0  0  0  0  0  0  0  0  0  0  0  0
   -0.1159   18.6342  -32.6652 H   0  0  0  0  0  0  0  0  0  0  0  0
   -1.4457   20.5487  -30.1065 H   0  0  0  0  0  0  0  0  0  0  0  0
   -0.0363   19.5020  -30.5619 H   0  0  0  0  0  0  0  0  0  0  0  0
    0.2410   21.8406  -31.3552 H   0  0  0  0  0  0  0  0  0  0  0  0
    0.1464   20.6369  -32.7134 H   0  0  0  0  0  0  0  0  0  0  0  0
   -1.7393   21.7628  -34.5343 H   0  0  0  0  0  0  0  0  0  0  0  0
   -1.5150   20.1929  -33.6972 H   0  0  0  0  0  0  0  0  0  0  0  0
   -3.9631   22.0121  -33.7356 H   0  0  0  0  0  0  0  0  0  0  0  0
   -3.8304   20.2581  -34.1667 H   0  0  0  0  0  0  0  0  0  0  0  0
   -3.1800   21.0630  -31.4320 H   0  0  0  0  0  0  0  0  0  0  0  0
   -3.7820   19.6510  -31.9380 H   0  0  0  0  0  0  0  0  0  0  0  0
   -5.1482   18.4904  -32.3959 H   0  0  0  0  0  0  0  0  0  0  0  0
   -7.1093   16.9959  -32.6643 H   0  0  0  0  0  0  0  0  0  0  0  0
   -9.4106   17.8844  -32.3720 H   0  0  0  0  0  0  0  0  0  0  0  0
   -9.7622   20.2875  -31.8647 H   0  0  0  0  0  0  0  0  0  0  0  0
   -9.6660   22.9655  -30.9670 H   0  0  0  0  0  0  0  0  0  0  0  0
   -9.0407   23.6685  -32.4971 H   0  0  0  0  0  0  0  0  0  0  0  0
   -9.7803   22.0315  -32.4971 H   0  0  0  0  0  0  0  0  0  0  0  0
   -8.1136   24.5264  -30.5265 H   0  0  0  0  0  0  0  0  0  0  0  0
   -6.2868   26.0238  -29.8099 H   0  0  0  0  0  0  0  0  0  0  0  0
   -3.9318   25.3121  -30.0207 H   0  0  0  0  0  0  0  0  0  0  0  0
   -2.6964   23.0112  -28.8196 H   0  0  0  0  0  0  0  0  0  0  0  0
   -1.4112   22.2526  -29.8193 H   0  0  0  0  0  0  0  0  0  0  0  0
   -1.6130   24.0376  -29.8193 H   0  0  0  0  0  0  0  0  0  0  0  0
  1  2  1  0
  2  3  1  0
  3  4  1  0
  4  5  1  0
  5  6  1  0
  6  7  1  0
  7  8  1  0
  8  9  1  0
  9 10  1  0
 10 11  1  0
 11 12  1  0
 12 13  1  0
 13 14  2  0
 14 15  1  0
 15 16  2  0
 16 17  1  0
 17 18  2  0
 18 19  1  0
 19 20  2  0
 20 21  1  0
 20 22  1  0
 22 23  2  0
 23 24  1  0
 24 25  2  0
 25 26  1  0
 26 27  1  0
 27 28  1  0
 26 29  2  0
 29 13  1  0
 19 14  1  0
 29 22  1  0
  1 30  1  0
  1 31  1  0
  1 32  1  0
  2 33  1  0
  2 34  1  0
  3 35  1  0
  4 36  1  0
  4 37  1  0
  5 38  1  0
  5 39  1  0
  7 40  1  0
  7 41  1  0
  8 42  1  0
  8 43  1  0
 10 44  1  0
 10 45  1  0
 11 46  1  0
 11 47  1  0
 12 48  1  0
 12 49  1  0
 15 50  1  0
 16 51  1  0
 17 52  1  0
 18 53  1  0
 21 54  1  0
 21 55  1  0
 21 56  1  0
 23 57  1  0
 24 58  1  0
 25 59  1  0
 28 60  1  0
 28 61  1  0
 28 62  1  0
M  CHG  2  12   1  20   1
M  END
>  <UniqueID>  (7) 
7

>  <SMILES>  (7) 
CCNCCOCCOCC[NH2+]c1c2ccccc2[n+](C)c2cccc(OC)c12

>  <Energy>  (7) 
90.37043660289703

>  <Genealogy>  (7) 
CCNCCOCCOCC[NH2+]c1c2ccccc2[n+](C)c2cccc(OC)c12 (protonated)
CCNCCOCCOCC[NH2+]c1c2ccccc2[n+](C)c2cccc(OC)c12 (3D coordinates assigned)
CCNCCOCCOCC[NH2+]c1c2ccccc2[n+](C)c2cccc(OC)c12 (optimized conformer: 90.37043660289703 kcal/mol)

>  <smiles>  (7) 
CCNCCOCCOCCNc1c2ccccc2[n+](C)c2cccc(OC)c12

>  <score_type>  (7) 
oracle

>  <origin>  (7) 
adg

>  <m_score__min__energy>  (7) 
-7.8499999999999996

>  <m_primary>  (7) 
energy

$$$$
7:0
     RDKit          3D

 58 60  0  0  0  0  0  0  0  0999 V2000
   -3.7770   19.3220  -32.7260 C   0  0  0  0  0  0  0  0  0  0  0  0
   -4.7280   18.1420  -32.5500 C   0  0  0  0  0  0  0  0  0  0  0  0
   -5.9440   18.3470  -33.3690 N   0  0  0  0  0  0  0  0  0  0  0  0
   -5.6520   18.2720  -34.8200 C   0  0  0  0  0  0  0  0  0  0  0  0
   -4.5590   17.2490  -35.1370 C   0  0  0  0  0  0  0  0  0  0  0  0
   -7.1050   17.5380  -32.9120 C   0  0  0  0  0  0  0  0  0  0  0  0
   -8.2840   18.3440  -32.3250 C   0  0  0  0  0  0  0  0  0  0  0  0
   -8.3520   19.6910  -32.8940 N   0  0  0  0  0  0  0  0  0  0  0  0
   -7.8260   20.8810  -32.2760 C   0  0  0  0  0  0  0  0  0  0  0  0
   -8.6610   21.9250  -31.7990 C   0  0  0  0  0  0  0  0  0  0  0  0
   -8.1080   23.0570  -31.1810 C   0  0  0  0  0  0  0  0  0  0  0  0
   -6.7220   23.1260  -31.0710 C   0  0  0  0  0  0  0  0  0  0  0  0
   -6.0230   24.1340  -30.5140 N   0  0  0  0  0  0  0  0  0  0  0  0
   -4.7370   23.7330  -30.6620 C   0  0  0  0  0  0  0  0  0  0  0  0
   -3.5570   24.5490  -30.2280 C   0  0  0  0  0  0  0  0  0  0  0  0
   -3.4570   24.5930  -28.7550 N   0  0  0  0  0  0  0  0  0  0  0  0
   -4.1660   23.5110  -28.0430 C   0  0  0  0  0  0  0  0  0  0  0  0
   -3.4680   22.1350  -28.0830 C   0  0  0  0  0  0  0  0  0  0  0  0
   -2.2700   21.9840  -29.0420 C   0  0  0  0  0  0  0  0  0  0  0  0
   -0.9670   22.6510  -28.5780 C   0  0  0  0  0  0  0  0  0  0  0  0
   -0.9580   24.1600  -28.8590 C   0  0  0  0  0  0  0  0  0  0  0  0
   -2.1220   24.9160  -28.2030 C   0  0  0  0  0  0  0  0  0  0  0  0
   -4.6810   22.5110  -31.3150 C   0  0  0  0  0  0  0  0  0  0  0  0
   -5.9450   22.1450  -31.5570 N   0  0  0  0  0  0  0  0  0  0  0  0
   -6.4310   21.0300  -32.1570 C   0  0  0  0  0  0  0  0  0  0  0  0
   -3.4734   19.6987  -31.7381 H   0  0  0  0  0  0  0  0  0  0  0  0
   -2.8867   18.9954  -33.2834 H   0  0  0  0  0  0  0  0  0  0  0  0
   -4.2853   20.1226  -33.2834 H   0  0  0  0  0  0  0  0  0  0  0  0
   -4.2248   17.2175  -32.8696 H   0  0  0  0  0  0  0  0  0  0  0  0
   -5.0143   18.0631  -31.4909 H   0  0  0  0  0  0  0  0  0  0  0  0
   -6.5710   17.9850  -35.3520 H   0  0  0  0  0  0  0  0  0  0  0  0
   -5.2941   19.2603  -35.1442 H   0  0  0  0  0  0  0  0  0  0  0  0
   -4.1403   16.8571  -34.1984 H   0  0  0  0  0  0  0  0  0  0  0  0
   -4.9893   16.4215  -35.7203 H   0  0  0  0  0  0  0  0  0  0  0  0
   -3.7618   17.7330  -35.7203 H   0  0  0  0  0  0  0  0  0  0  0  0
   -7.4804   16.9663  -33.7735 H   0  0  0  0  0  0  0  0  0  0  0  0
   -6.7309   16.9074  -32.0920 H   0  0  0  0  0  0  0  0  0  0  0  0
   -9.2230   17.8153  -32.5459 H   0  0  0  0  0  0  0  0  0  0  0  0
   -8.1312   18.4363  -31.2396 H   0  0  0  0  0  0  0  0  0  0  0  0
   -8.7140   19.7680  -33.8710 H   0  0  0  0  0  0  0  0  0  0  0  0
   -9.7520   21.8460  -31.9149 H   0  0  0  0  0  0  0  0  0  0  0  0
   -8.7490   23.8638  -30.7959 H   0  0  0  0  0  0  0  0  0  0  0  0
   -2.6396   24.1011  -30.6376 H   0  0  0  0  0  0  0  0  0  0  0  0
   -3.6844   25.5758  -30.6015 H   0  0  0  0  0  0  0  0  0  0  0  0
   -4.2725   23.8088  -26.9894 H   0  0  0  0  0  0  0  0  0  0  0  0
   -5.1280   23.3821  -28.5607 H   0  0  0  0  0  0  0  0  0  0  0  0
   -3.1089   21.9157  -27.0667 H   0  0  0  0  0  0  0  0  0  0  0  0
   -4.2296   21.4401  -28.4665 H   0  0  0  0  0  0  0  0  0  0  0  0
   -2.0734   20.9097  -29.1730 H   0  0  0  0  0  0  0  0  0  0  0  0
   -2.5590   22.4969  -29.9712 H   0  0  0  0  0  0  0  0  0  0  0  0
   -0.8528   22.4912  -27.4957 H   0  0  0  0  0  0  0  0  0  0  0  0
   -0.1364   22.1974  -29.1386 H   0  0  0  0  0  0  0  0  0  0  0  0
   -0.0141   24.5784  -28.4795 H   0  0  0  0  0  0  0  0  0  0  0  0
   -1.0650   24.2855  -29.9466 H   0  0  0  0  0  0  0  0  0  0  0  0
   -2.1268   24.6738  -27.1300 H   0  0  0  0  0  0  0  0  0  0  0  0
   -1.9521   25.9840  -28.4041 H   0  0  0  0  0  0  0  0  0  0  0  0
   -3.7729   21.9508  -31.5824 H   0  0  0  0  0  0  0  0  0  0  0  0
   -5.7492   20.2578  -32.5428 H   0  0  0  0  0  0  0  0  0  0  0  0
  1  2  1  0
  2  3  1  0
  3  4  1  0
  4  5  1  0
  3  6  1  0
  6  7  1  0
  7  8  1  0
  8  9  1  0
  9 10  1  0
 10 11  2  0
 11 12  1  0
 12 13  2  0
 13 14  1  0
 14 15  1  0
 15 16  1  0
 16 17  1  0
 17 18  1  0
 18 19  1  0
 19 20  1  0
 20 21  1  0
 21 22  1  0
 14 23  2  0
 23 24  1  0
 24 25  1  0
 25  9  2  0
 24 12  1  0
 22 16  1  0
  1 26  1  0
  1 27  1  0
  1 28  1  0
  2 29  1  0
  2 30  1  0
  4 31  1  0
  4 32  1  0
  5 33  1  0
  5 34  1  0
  5 35  1  0
  6 36  1  0
  6 37  1  0
  7 38  1  0
  7 39  1  0
  8 40  1  0
 10 41  1  0
 11 42  1  0
 15 43  1  0
 15 44  1  0
 17 45  1  0
 17 46  1  0
 18 47  1  0
 18 48  1  0
 19 49  1  0
 19 50  1  0
 20 51  1  0
 20 52  1  0
 21 53  1  0
 21 54  1  0
 22 55  1  0
 22 56  1  0
 23 57  1  0
 25 58  1  0
M  END
>  <UniqueID>  (8) 
8

>  <SMILES>  (8) 
CCN(CC)CCNc1ccc2nc(CN3CCCCCC3)cn2c1

>  <Energy>  (8) 
104.18028199697115

>  <Genealogy>  (8) 
CCN(CC)CCNc1ccc2nc(CN3CCCCCC3)cn2c1 (3D coordinates assigned)
CCN(CC)CCNc1ccc2nc(CN3CCCCCC3)cn2c1 (nonaromatic ring conformer: 104.18028199697115 kcal/mol)

>  <smiles>  (8) 
CCN(CC)CCNc1ccc2nc(CN3CCCCCC3)cn2c1

>  <score_type>  (8) 
oracle

>  <origin>  (8) 
adg

>  <m_score__min__energy>  (8) 
-6.0300000000000002

>  <m_primary>  (8) 
energy

$$$$
8:0
     RDKit          3D

 44 46  0  0  0  0  0  0  0  0999 V2000
   -3.8450   24.2120  -27.2850 C   0  0  0  0  0  0  0  0  0  0  0  0
   -4.2260   23.9680  -28.7470 C   0  0  0  0  0  0  0  0  0  0  0  0
   -5.3960   24.7580  -29.1780 N   0  0  0  0  0  0  0  0  0  0  0  0
   -5.9140   24.4210  -30.5180 C   0  0  0  0  0  0  0  0  0  0  0  0
   -4.9930   23.4630  -31.2900 C   0  0  0  0  0  0  0  0  0  0  0  0
   -5.7370   22.7710  -32.3420 N   0  0  0  0  0  0  0  0  0  0  0  0
   -5.5840   21.3590  -32.5550 C   0  0  0  0  0  0  0  0  0  0  0  0
   -4.3340   20.8650  -32.9660 C   0  0  0  0  0  0  0  0  0  0  0  0
   -3.1820   21.6800  -32.9210 C   0  0  0  0  0  0  0  0  0  0  0  0
   -1.9380   21.1740  -33.2930 C   0  0  0  0  0  0  0  0  0  0  0  0
   -1.8210   19.8530  -33.7080 C   0  0  0  0  0  0  0  0  0  0  0  0
   -2.9490   19.0370  -33.7790 C   0  0  0  0  0  0  0  0  0  0  0  0
   -4.2340   19.5360  -33.4450 C   0  0  0  0  0  0  0  0  0  0  0  0
   -5.3720   18.7670  -33.5840 N   0  0  0  0  0  0  0  0  0  0  0  0
   -5.3310   17.5310  -34.3980 C   0  0  0  0  0  0  0  0  0  0  0  0
   -6.5500   19.1590  -32.9760 C   0  0  0  0  0  0  0  0  0  0  0  0
   -7.6440   18.2670  -32.8560 C   0  0  0  0  0  0  0  0  0  0  0  0
   -8.8340   18.6600  -32.2550 C   0  0  0  0  0  0  0  0  0  0  0  0
   -8.9550   19.9300  -31.7140 C   0  0  0  0  0  0  0  0  0  0  0  0
   -7.8920   20.8320  -31.7680 C   0  0  0  0  0  0  0  0  0  0  0  0
   -8.1210   22.3160  -30.8400 Cl  0  0  0  0  0  0  0  0  0  0  0  0
   -6.6800   20.4740  -32.4320 C   0  0  0  0  0  0  0  0  0  0  0  0
   -4.5880   23.7362  -26.6281 H   0  0  0  0  0  0  0  0  0  0  0  0
   -2.8522   23.7813  -27.0880 H   0  0  0  0  0  0  0  0  0  0  0  0
   -3.8209   25.2940  -27.0880 H   0  0  0  0  0  0  0  0  0  0  0  0
   -3.3688   24.2363  -29.3820 H   0  0  0  0  0  0  0  0  0  0  0  0
   -4.4928   22.9053  -28.8444 H   0  0  0  0  0  0  0  0  0  0  0  0
   -5.1350   25.7730  -29.1600 H   0  0  0  0  0  0  0  0  0  0  0  0
   -6.1670   24.6250  -28.4820 H   0  0  0  0  0  0  0  0  0  0  0  0
   -6.8994   23.9456  -30.4043 H   0  0  0  0  0  0  0  0  0  0  0  0
   -5.9756   25.3563  -31.0937 H   0  0  0  0  0  0  0  0  0  0  0  0
   -4.1731   24.0379  -31.7452 H   0  0  0  0  0  0  0  0  0  0  0  0
   -4.5905   22.7162  -30.5898 H   0  0  0  0  0  0  0  0  0  0  0  0
   -6.4470   23.2980  -32.9000 H   0  0  0  0  0  0  0  0  0  0  0  0
   -3.2673   22.7252  -32.5889 H   0  0  0  0  0  0  0  0  0  0  0  0
   -1.0486   21.8203  -33.2581 H   0  0  0  0  0  0  0  0  0  0  0  0
   -0.8348   19.4498  -33.9815 H   0  0  0  0  0  0  0  0  0  0  0  0
   -2.8409   17.9901  -34.0989 H   0  0  0  0  0  0  0  0  0  0  0  0
   -5.3019   16.6550  -33.7333 H   0  0  0  0  0  0  0  0  0  0  0  0
   -6.2279   17.4801  -35.0327 H   0  0  0  0  0  0  0  0  0  0  0  0
   -4.4326   17.5396  -35.0327 H   0  0  0  0  0  0  0  0  0  0  0  0
   -7.5498   17.2429  -33.2463 H   0  0  0  0  0  0  0  0  0  0  0  0
   -9.6821   17.9610  -32.2087 H   0  0  0  0  0  0  0  0  0  0  0  0
   -9.8995   20.2303  -31.2367 H   0  0  0  0  0  0  0  0  0  0  0  0
  1  2  1  0
  2  3  1  0
  3  4  1  0
  4  5  1  0
  5  6  1  0
  6  7  1  0
  7  8  2  0
  8  9  1  0
  9 10  2  0
 10 11  1  0
 11 12  2  0
 12 13  1  0
 13 14  2  0
 14 15  1  0
 14 16  1  0
 16 17  2  0
 17 18  1  0
 18 19  2  0
 19 20  1  0
 20 21  1  0
 20 22  2  0
 22  7  1  0
 13  8  1  0
 22 16  1  0
  1 23  1  0
  1 24  1  0
  1 25  1  0
  2 26  1  0
  2 27  1  0
  3 28  1  0
  3 29  1  0
  4 30  1  0
  4 31  1  0
  5 32  1  0
  5 33  1  0
  6 34  1  0
  9 35  1  0
 10 36  1  0
 11 37  1  0
 12 38  1  0
 15 39  1  0
 15 40  1  0
 15 41  1  0
 17 42  1  0
 18 43  1  0
 19 44  1  0
M  CHG  2   3   1  14   1
M  END
>  <UniqueID>  (9) 
9

>  <SMILES>  (9) 
CC[NH2+]CCNc1c2ccccc2[n+](C)c2cccc(Cl)c12

>  <Energy>  (9) 
76.19511728193982

>  <Genealogy>  (9) 
CC[NH2+]CCNc1c2ccccc2[n+](C)c2cccc(Cl)c12 (protonated)
CC[NH2+]CCNc1c2ccccc2[n+](C)c2cccc(Cl)c12 (3D coordinates assigned)
CC[NH2+]CCNc1c2ccccc2[n+](C)c2cccc(Cl)c12 (optimized conformer: 76.19511728193982 kcal/mol)

>  <smiles>  (9) 
CCNCCNc1c2ccccc2[n+](C)c2cccc(Cl)c12

>  <score_type>  (9) 
oracle

>  <origin>  (9) 
adg

>  <m_score__min__energy>  (9) 
-7.4800000000000004

>  <m_primary>  (9) 
energy

$$$$
9:0
     RDKit          3D

 46 48  0  0  0  0  0  0  0  0999 V2000
   -9.1120   18.1840  -31.5630 C   0  0  0  0  0  0  0  0  0  0  0  0
   -8.0430   18.9090  -32.2450 N   0  0  0  0  0  0  0  0  0  0  0  0
   -6.8510   18.3940  -32.6040 C   0  0  0  0  0  0  0  0  0  0  0  0
   -6.0640   19.3790  -33.1670 C   0  0  0  0  0  0  0  0  0  0  0  0
   -6.8050   20.5440  -33.1420 C   0  0  0  0  0  0  0  0  0  0  0  0
   -8.0170   20.2240  -32.5580 C   0  0  0  0  0  0  0  0  0  0  0  0
   -9.1530   21.1910  -32.3430 C   0  0  0  0  0  0  0  0  0  0  0  0
   -8.8940   22.1080  -31.2220 N   0  0  0  0  0  0  0  0  0  0  0  0
   -8.0410   23.2370  -31.6180 C   0  0  0  0  0  0  0  0  0  0  0  0
   -6.9820   23.5170  -30.5330 C   0  0  0  0  0  0  0  0  0  0  0  0
   -6.3500   24.9120  -30.7490 C   0  0  0  0  0  0  0  0  0  0  0  0
   -4.9440   24.9700  -30.1460 C   0  0  0  0  0  0  0  0  0  0  0  0
   -4.0180   24.0340  -30.8300 N   0  0  0  0  0  0  0  0  0  0  0  0
   -2.8190   23.7860  -30.0040 C   0  0  0  0  0  0  0  0  0  0  0  0
   -3.1120   24.1300  -28.5340 C   0  0  0  0  0  0  0  0  0  0  0  0
   -2.3180   23.3390  -27.5060 C   0  0  0  0  0  0  0  0  0  0  0  0
   -3.7900   23.0270  -27.7370 C   0  0  0  0  0  0  0  0  0  0  0  0
   -4.6590   22.7710  -31.2890 C   0  0  0  0  0  0  0  0  0  0  0  0
   -5.9070   22.4020  -30.4720 C   0  0  0  0  0  0  0  0  0  0  0  0
   -8.9796   18.2738  -30.4747 H   0  0  0  0  0  0  0  0  0  0  0  0
  -10.0849   18.6094  -31.8503 H   0  0  0  0  0  0  0  0  0  0  0  0
   -9.0766   17.1228  -31.8503 H   0  0  0  0  0  0  0  0  0  0  0  0
   -6.5495   17.3448  -32.4687 H   0  0  0  0  0  0  0  0  0  0  0  0
   -5.0435   19.2589  -33.5597 H   0  0  0  0  0  0  0  0  0  0  0  0
   -6.4929   21.5313  -33.5132 H   0  0  0  0  0  0  0  0  0  0  0  0
   -9.2939   21.7823  -33.2598 H   0  0  0  0  0  0  0  0  0  0  0  0
  -10.0539   20.6075  -32.1023 H   0  0  0  0  0  0  0  0  0  0  0  0
   -9.8050   22.4810  -30.8630 H   0  0  0  0  0  0  0  0  0  0  0  0
   -7.5351   22.9946  -32.5642 H   0  0  0  0  0  0  0  0  0  0  0  0
   -8.6686   24.1316  -31.7433 H   0  0  0  0  0  0  0  0  0  0  0  0
   -7.4868   23.5158  -29.5557 H   0  0  0  0  0  0  0  0  0  0  0  0
   -6.2886   25.1172  -31.8280 H   0  0  0  0  0  0  0  0  0  0  0  0
   -6.9787   25.6652  -30.2517 H   0  0  0  0  0  0  0  0  0  0  0  0
   -4.5547   25.9940  -30.2456 H   0  0  0  0  0  0  0  0  0  0  0  0
   -5.0107   24.6766  -29.0880 H   0  0  0  0  0  0  0  0  0  0  0  0
   -2.5370   22.7255  -30.0806 H   0  0  0  0  0  0  0  0  0  0  0  0
   -1.9948   24.4186  -30.3653 H   0  0  0  0  0  0  0  0  0  0  0  0
   -3.3059   25.1981  -28.7116 H   0  0  0  0  0  0  0  0  0  0  0  0
   -1.5465   22.6275  -27.8355 H   0  0  0  0  0  0  0  0  0  0  0  0
   -1.7055   23.5969  -26.6295 H   0  0  0  0  0  0  0  0  0  0  0  0
   -4.0824   22.0899  -28.2333 H   0  0  0  0  0  0  0  0  0  0  0  0
   -4.6821   22.9659  -27.0964 H   0  0  0  0  0  0  0  0  0  0  0  0
   -4.9517   22.8889  -32.3428 H   0  0  0  0  0  0  0  0  0  0  0  0
   -3.9261   21.9616  -31.1555 H   0  0  0  0  0  0  0  0  0  0  0  0
   -6.3347   21.4720  -30.8747 H   0  0  0  0  0  0  0  0  0  0  0  0
   -5.6044   22.2743  -29.4222 H   0  0  0  0  0  0  0  0  0  0  0  0
  1  2  1  0
  2  3  1  0
  3  4  2  0
  4  5  1  0
  5  6  2  0
  6  7  1  0
  7  8  1  0
  8  9  1  0
  9 10  1  0
 10 11  1  0
 11 12  1  0
 12 13  1  0
 13 14  1  0
 14 15  1  0
 15 16  1  0
 16 17  1  0
 13 18  1  0
 18 19  1  0
  6  2  1  0
 19 10  1  0
 17 15  1  0
  1 20  1  0
  1 21  1  0
  1 22  1  0
  3 23  1  0
  4 24  1  0
  5 25  1  0
  7 26  1  0
  7 27  1  0
  8 28  1  0
  9 29  1  0
  9 30  1  0
 10 31  1  0
 11 32  1  0
 11 33  1  0
 12 34  1  0
 12 35  1  0
 14 36  1  0
 14 37  1  0
 15 38  1  0
 16 39  1  0
 16 40  1  0
 17 41  1  0
 17 42  1  0
 18 43  1  0
 18 44  1  0
 19 45  1  0
 19 46  1  0
M  END
>  <UniqueID>  (10) 
10

>  <SMILES>  (10) 
Cn1cccc1CNCC1CCN(CC2CC2)CC1

>  <Energy>  (10) 
339.86716838465355

>  <Genealogy>  (10) 
Cn1cccc1CNCC1CCN(CC2CC2)CC1 (3D coordinates assigned)
Cn1cccc1CNCC1CCN(CC2CC2)CC1 (nonaromatic ring conformer: 339.86716838465355 kcal/mol)

>  <smiles>  (10) 
Cn1cccc1CNCC1CCN(CC2CC2)CC1

>  <score_type>  (10) 
oracle

>  <origin>  (10) 
adg

>  <m_score__min__energy>  (10) 
-7.9699999999999998

>  <m_primary>  (10) 
energy

$$$$
10:0
     RDKit          3D

 54 56  0  0  0  0  0  0  0  0999 V2000
   -6.1190   24.9960  -29.6960 C   0  0  0  0  0  0  0  0  0  0  0  0
   -5.1200   25.2290  -30.8320 C   0  0  0  0  0  0  0  0  0  0  0  0
   -3.9580   24.3120  -30.7260 N   0  0  0  0  0  0  0  0  0  0  0  0
   -3.1980   24.5100  -29.4720 C   0  0  0  0  0  0  0  0  0  0  0  0
   -3.4170   23.3350  -28.5230 C   0  0  0  0  0  0  0  0  0  0  0  0
   -4.2810   22.8860  -30.9800 C   0  0  0  0  0  0  0  0  0  0  0  0
   -3.6210   22.2930  -32.2620 C   0  0  0  0  0  0  0  0  0  0  0  0
   -4.5650   21.8730  -33.3350 N   0  0  0  0  0  0  0  0  0  0  0  0
   -5.5910   20.9140  -32.9550 C   0  0  0  0  0  0  0  0  0  0  0  0
   -6.8490   21.4050  -32.5030 C   0  0  0  0  0  0  0  0  0  0  0  0
   -7.0540   22.7840  -32.2340 C   0  0  0  0  0  0  0  0  0  0  0  0
   -8.3020   23.2700  -31.8560 C   0  0  0  0  0  0  0  0  0  0  0  0
   -9.3790   22.4070  -31.7460 C   0  0  0  0  0  0  0  0  0  0  0  0
   -9.2040   21.0440  -31.9700 C   0  0  0  0  0  0  0  0  0  0  0  0
   -7.9310   20.5100  -32.3070 C   0  0  0  0  0  0  0  0  0  0  0  0
   -7.7460   19.1560  -32.4620 N   0  0  0  0  0  0  0  0  0  0  0  0
   -8.7780   18.2130  -31.9640 C   0  0  0  0  0  0  0  0  0  0  0  0
   -6.5830   18.6670  -33.0210 C   0  0  0  0  0  0  0  0  0  0  0  0
   -6.5220   17.3250  -33.4700 C   0  0  0  0  0  0  0  0  0  0  0  0
   -5.3310   16.7560  -33.8800 C   0  0  0  0  0  0  0  0  0  0  0  0
   -4.1660   17.4950  -33.8430 C   0  0  0  0  0  0  0  0  0  0  0  0
   -4.1800   18.8520  -33.5040 C   0  0  0  0  0  0  0  0  0  0  0  0
   -2.5280   19.5690  -33.3460 S   0  0  0  0  0  0  0  0  0  0  0  0
   -1.6660   18.1740  -34.1460 C   0  0  0  0  0  0  0  0  0  0  0  0
   -5.4260   19.5020  -33.1650 C   0  0  0  0  0  0  0  0  0  0  0  0
   -5.6087   25.1150  -28.7288 H   0  0  0  0  0  0  0  0  0  0  0  0
   -6.9371   25.7274  -29.7714 H   0  0  0  0  0  0  0  0  0  0  0  0
   -6.5291   23.9781  -29.7714 H   0  0  0  0  0  0  0  0  0  0  0  0
   -5.6251   25.0573  -31.7940 H   0  0  0  0  0  0  0  0  0  0  0  0
   -4.7526   26.2636  -30.7640 H   0  0  0  0  0  0  0  0  0  0  0  0
   -2.1264   24.5906  -29.7070 H   0  0  0  0  0  0  0  0  0  0  0  0
   -3.5497   25.4313  -28.9846 H   0  0  0  0  0  0  0  0  0  0  0  0
   -3.3515   23.6867  -27.4828 H   0  0  0  0  0  0  0  0  0  0  0  0
   -4.4116   22.9003  -28.7011 H   0  0  0  0  0  0  0  0  0  0  0  0
   -2.6458   22.5712  -28.7011 H   0  0  0  0  0  0  0  0  0  0  0  0
   -3.9417   22.2973  -30.1150 H   0  0  0  0  0  0  0  0  0  0  0  0
   -5.3688   22.8340  -31.1350 H   0  0  0  0  0  0  0  0  0  0  0  0
   -2.9496   23.0567  -32.6815 H   0  0  0  0  0  0  0  0  0  0  0  0
   -3.1048   21.3769  -31.9391 H   0  0  0  0  0  0  0  0  0  0  0  0
   -5.0230   22.7250  -33.7320 H   0  0  0  0  0  0  0  0  0  0  0  0
   -4.0520   21.5530  -34.1790 H   0  0  0  0  0  0  0  0  0  0  0  0
   -6.2092   23.4824  -32.3263 H   0  0  0  0  0  0  0  0  0  0  0  0
   -8.4330   24.3415  -31.6443 H   0  0  0  0  0  0  0  0  0  0  0  0
  -10.3726   22.7980  -31.4817 H   0  0  0  0  0  0  0  0  0  0  0  0
  -10.0674   20.3678  -31.8845 H   0  0  0  0  0  0  0  0  0  0  0  0
   -8.7761   18.2148  -30.8640 H   0  0  0  0  0  0  0  0  0  0  0  0
   -9.7673   18.5257  -32.3294 H   0  0  0  0  0  0  0  0  0  0  0  0
   -8.5556   17.1996  -32.3294 H   0  0  0  0  0  0  0  0  0  0  0  0
   -7.4422   16.7228  -33.4929 H   0  0  0  0  0  0  0  0  0  0  0  0
   -5.3117   15.7152  -34.2354 H   0  0  0  0  0  0  0  0  0  0  0  0
   -3.2095   17.0083  -34.0844 H   0  0  0  0  0  0  0  0  0  0  0  0
   -1.2537   17.5068  -33.3747 H   0  0  0  0  0  0  0  0  0  0  0  0
   -2.3763   17.6150  -34.7728 H   0  0  0  0  0  0  0  0  0  0  0  0
   -0.8482   18.5592  -34.7728 H   0  0  0  0  0  0  0  0  0  0  0  0
  1  2  1  0
  2  3  1  0
  3  4  1  0
  4  5  1  0
  3  6  1  0
  6  7  1  0
  7  8  1  0
  8  9  1  0
  9 10  2  0
 10 11  1  0
 11 12  2  0
 12 13  1  0
 13 14  2  0
 14 15  1  0
 15 16  2  0
 16 17  1  0
 16 18  1  0
 18 19  2  0
 19 20  1  0
 20 21  2  0
 21 22  1  0
 22 23  1  0
 23 24  1  0
 22 25  2  0
 25  9  1  0
 15 10  1  0
 25 18  1  0
  1 26  1  0
  1 27  1  0
  1 28  1  0
  2 29  1  0
  2 30  1  0
  4 31  1  0
  4 32  1  0
  5 33  1  0
  5 34  1  0
  5 35  1  0
  6 36  1  0
  6 37  1  0
  7 38  1  0
  7 39  1  0
  8 40  1  0
  8 41  1  0
 11 42  1  0
 12 43  1  0
 13 44  1  0
 14 45  1  0
 17 46  1  0
 17 47  1  0
 17 48  1  0
 19 49  1  0
 20 50  1  0
 21 51  1  0
 24 52  1  0
 24 53  1  0
 24 54  1  0
M  CHG  2   8   1  16   1
M  END
>  <UniqueID>  (11) 
11

>  <SMILES>  (11) 
CCN(CC)CC[NH2+]c1c2ccccc2[n+](C)c2cccc(SC)c12

>  <Energy>  (11) 
100.60927302754057

>  <Genealogy>  (11) 
CCN(CC)CC[NH2+]c1c2ccccc2[n+](C)c2cccc(SC)c12 (protonated)
CCN(CC)CC[NH2+]c1c2ccccc2[n+](C)c2cccc(SC)c12 (3D coordinates assigned)
CCN(CC)CC[NH2+]c1c2ccccc2[n+](C)c2cccc(SC)c12 (optimized conformer: 100.60927302754057 kcal/mol)

>  <smiles>  (11) 
CCN(CC)CCNc1c2ccccc2[n+](C)c2cccc(SC)c12

>  <score_type>  (11) 
oracle

>  <origin>  (11) 
adg

>  <m_score__min__energy>  (11) 
-8.3699999999999992

>  <m_primary>  (11) 
energy

$$$$
11:0
     RDKit          3D

 49 51  0  0  0  0  0  0  0  0999 V2000
   -0.5160   26.6430  -24.1180 C   0  0  0  0  0  0  0  0  0  0  0  0
    0.0670   25.3630  -23.7140 N   0  0  0  0  0  0  0  0  0  0  0  0
    0.1030   24.4580  -24.8340 C   0  0  0  0  0  0  0  0  0  0  0  0
   -0.4200   23.1590  -24.7180 C   0  0  0  0  0  0  0  0  0  0  0  0
   -0.4120   22.2920  -25.8140 C   0  0  0  0  0  0  0  0  0  0  0  0
    0.1010   22.7130  -27.0510 C   0  0  0  0  0  0  0  0  0  0  0  0
    0.1080   21.7710  -28.2390 C   0  0  0  0  0  0  0  0  0  0  0  0
   -1.1210   21.8310  -29.0630 N   0  0  0  0  0  0  0  0  0  0  0  0
   -0.8730   22.2640  -30.4560 C   0  0  0  0  0  0  0  0  0  0  0  0
   -2.0800   22.0140  -31.3880 C   0  0  0  0  0  0  0  0  0  0  0  0
   -3.3250   21.8360  -30.6300 N   0  0  0  0  0  0  0  0  0  0  0  0
   -4.5610   22.3680  -31.1380 C   0  0  0  0  0  0  0  0  0  0  0  0
   -5.4930   21.5030  -31.7330 C   0  0  0  0  0  0  0  0  0  0  0  0
   -6.7030   21.9960  -32.2230 C   0  0  0  0  0  0  0  0  0  0  0  0
   -6.9950   23.3570  -32.1230 C   0  0  0  0  0  0  0  0  0  0  0  0
   -6.0750   24.2300  -31.5370 C   0  0  0  0  0  0  0  0  0  0  0  0
   -4.8470   23.7460  -31.0420 C   0  0  0  0  0  0  0  0  0  0  0  0
   -3.8910   24.5990  -30.4690 O   0  0  0  0  0  0  0  0  0  0  0  0
   -3.4360   24.5150  -29.1220 C   0  0  0  0  0  0  0  0  0  0  0  0
   -3.3580   20.9570  -29.4540 C   0  0  0  0  0  0  0  0  0  0  0  0
   -1.9430   20.6140  -28.9880 C   0  0  0  0  0  0  0  0  0  0  0  0
    0.6310   24.0090  -27.1670 C   0  0  0  0  0  0  0  0  0  0  0  0
    0.6230   24.8770  -26.0710 C   0  0  0  0  0  0  0  0  0  0  0  0
   -0.7808   27.2243  -23.2224 H   0  0  0  0  0  0  0  0  0  0  0  0
    0.2146   27.2057  -24.7176 H   0  0  0  0  0  0  0  0  0  0  0  0
   -1.4201   26.4612  -24.7176 H   0  0  0  0  0  0  0  0  0  0  0  0
    1.0350   25.5250  -23.3490 H   0  0  0  0  0  0  0  0  0  0  0  0
   -0.5050   24.9540  -22.9380 H   0  0  0  0  0  0  0  0  0  0  0  0
   -0.8385   22.8223  -23.7581 H   0  0  0  0  0  0  0  0  0  0  0  0
   -0.8105   21.2724  -25.7066 H   0  0  0  0  0  0  0  0  0  0  0  0
    0.9658   22.0270  -28.8783 H   0  0  0  0  0  0  0  0  0  0  0  0
    0.1705   20.7498  -27.8349 H   0  0  0  0  0  0  0  0  0  0  0  0
   -0.6484   23.3408  -30.4540 H   0  0  0  0  0  0  0  0  0  0  0  0
   -0.0306   21.6705  -30.8409 H   0  0  0  0  0  0  0  0  0  0  0  0
   -2.1937   22.8754  -32.0626 H   0  0  0  0  0  0  0  0  0  0  0  0
   -1.8894   21.0909  -31.9551 H   0  0  0  0  0  0  0  0  0  0  0  0
   -5.2679   20.4293  -31.8135 H   0  0  0  0  0  0  0  0  0  0  0  0
   -7.4273   21.3113  -32.6885 H   0  0  0  0  0  0  0  0  0  0  0  0
   -7.9511   23.7431  -32.5062 H   0  0  0  0  0  0  0  0  0  0  0  0
   -6.3104   25.3019  -31.4614 H   0  0  0  0  0  0  0  0  0  0  0  0
   -4.2834   24.6714  -28.4383 H   0  0  0  0  0  0  0  0  0  0  0  0
   -2.9997   23.5211  -28.9437 H   0  0  0  0  0  0  0  0  0  0  0  0
   -2.6735   25.2876  -28.9437 H   0  0  0  0  0  0  0  0  0  0  0  0
   -3.8919   21.4668  -28.6385 H   0  0  0  0  0  0  0  0  0  0  0  0
   -3.8732   20.0244  -29.7273 H   0  0  0  0  0  0  0  0  0  0  0  0
   -1.9719   20.2487  -27.9508 H   0  0  0  0  0  0  0  0  0  0  0  0
   -1.5145   19.8289  -29.6283 H   0  0  0  0  0  0  0  0  0  0  0  0
    1.0547   24.3427  -28.1257 H   0  0  0  0  0  0  0  0  0  0  0  0
    1.0264   25.8948  -26.1774 H   0  0  0  0  0  0  0  0  0  0  0  0
  1  2  1  0
  2  3  1  0
  3  4  2  0
  4  5  1  0
  5  6  2  0
  6  7  1  0
  7  8  1  0
  8  9  1  0
  9 10  1  0
 10 11  1  0
 11 12  1  0
 12 13  2  0
 13 14  1  0
 14 15  2  0
 15 16  1  0
 16 17  2  0
 17 18  1  0
 18 19  1  0
 11 20  1  0
 20 21  1  0
  6 22  1  0
 22 23  2  0
 23  3  1  0
 21  8  1  0
 17 12  1  0
  1 24  1  0
  1 25  1  0
  1 26  1  0
  2 27  1  0
  2 28  1  0
  4 29  1  0
  5 30  1  0
  7 31  1  0
  7 32  1  0
  9 33  1  0
  9 34  1  0
 10 35  1  0
 10 36  1  0
 13 37  1  0
 14 38  1  0
 15 39  1  0
 16 40  1  0
 19 41  1  0
 19 42  1  0
 19 43  1  0
 20 44  1  0
 20 45  1  0
 21 46  1  0
 21 47  1  0
 22 48  1  0
 23 49  1  0
M  CHG  1   2   1
M  END
>  <UniqueID>  (12) 
12

>  <SMILES>  (12) 
C[NH2+]c1ccc(CN2CCN(c3ccccc3OC)CC2)cc1

>  <Energy>  (12) 
62.26229102592666

>  <Genealogy>  (12) 
C[NH2+]c1ccc(CN2CCN(c3ccccc3OC)CC2)cc1 (protonated)
C[NH2+]c1ccc(CN2CCN(c3ccccc3OC)CC2)cc1 (3D coordinates assigned)
C[NH2+]c1ccc(CN2CCN(c3ccccc3OC)CC2)cc1 (nonaromatic ring conformer: 62.26229102592666 kcal/mol)

>  <smiles>  (12) 
CNc1ccc(CN2CCN(c3ccccc3OC)CC2)cc1

>  <score_type>  (12) 
oracle

>  <origin>  (12) 
adg

>  <m_score__min__energy>  (12) 
-7.3399999999999999

>  <m_primary>  (12) 
energy

$$$$
12:0
     RDKit          3D

 38 41  0  0  0  0  0  0  0  0999 V2000
   -6.3150   20.2700  -33.4740 C   0  0  0  0  0  0  0  0  0  0  0  0
   -7.3520   19.7100  -32.6060 N   0  0  0  0  0  0  0  0  0  0  0  0
   -8.3370   20.3750  -31.9610 C   0  0  0  0  0  0  0  0  0  0  0  0
   -8.5580   22.1580  -31.9720 S   0  0  0  0  0  0  0  0  0  0  0  0
   -7.7280   22.4250  -30.3630 C   0  0  0  0  0  0  0  0  0  0  0  0
   -6.4490   23.2160  -30.5240 C   0  0  0  0  0  0  0  0  0  0  0  0
   -6.5010   24.6120  -30.3960 C   0  0  0  0  0  0  0  0  0  0  0  0
   -5.3250   25.3580  -30.4920 C   0  0  0  0  0  0  0  0  0  0  0  0
   -5.3640   26.6100  -30.3710 O   0  0  0  0  0  0  0  0  0  0  0  0
   -4.1620   24.7560  -30.7070 O   0  0  0  0  0  0  0  0  0  0  0  0
   -4.0490   23.4380  -30.8360 C   0  0  0  0  0  0  0  0  0  0  0  0
   -2.7850   22.8780  -31.0530 C   0  0  0  0  0  0  0  0  0  0  0  0
   -2.6410   21.4950  -31.1780 C   0  0  0  0  0  0  0  0  0  0  0  0
   -3.7590   20.6640  -31.0870 C   0  0  0  0  0  0  0  0  0  0  0  0
   -5.0280   21.2100  -30.8740 C   0  0  0  0  0  0  0  0  0  0  0  0
   -5.1920   22.6050  -30.7490 C   0  0  0  0  0  0  0  0  0  0  0  0
   -9.1140   19.5450  -31.2410 N   0  0  0  0  0  0  0  0  0  0  0  0
   -8.6210   18.3310  -31.4240 N   0  0  0  0  0  0  0  0  0  0  0  0
   -7.5620   18.4220  -32.2520 C   0  0  0  0  0  0  0  0  0  0  0  0
   -6.7420   17.2540  -32.6400 C   0  0  0  0  0  0  0  0  0  0  0  0
   -5.7300   16.6380  -31.9080 C   0  0  0  0  0  0  0  0  0  0  0  0
   -5.1280   15.5670  -32.5810 C   0  0  0  0  0  0  0  0  0  0  0  0
   -5.6490   15.3370  -33.8460 C   0  0  0  0  0  0  0  0  0  0  0  0
   -6.8570   16.4700  -34.1250 S   0  0  0  0  0  0  0  0  0  0  0  0
   -5.5141   20.7025  -32.8564 H   0  0  0  0  0  0  0  0  0  0  0  0
   -5.8990   19.4739  -34.1090 H   0  0  0  0  0  0  0  0  0  0  0  0
   -6.7526   21.0544  -34.1090 H   0  0  0  0  0  0  0  0  0  0  0  0
   -8.4080   22.9765  -29.6971 H   0  0  0  0  0  0  0  0  0  0  0  0
   -7.4752   21.4426  -29.9377 H   0  0  0  0  0  0  0  0  0  0  0  0
   -7.4630   25.1159  -30.2210 H   0  0  0  0  0  0  0  0  0  0  0  0
   -1.9018   23.5298  -31.1253 H   0  0  0  0  0  0  0  0  0  0  0  0
   -1.6453   21.0596  -31.3484 H   0  0  0  0  0  0  0  0  0  0  0  0
   -3.6408   19.5746  -31.1833 H   0  0  0  0  0  0  0  0  0  0  0  0
   -5.9035   20.5478  -30.8035 H   0  0  0  0  0  0  0  0  0  0  0  0
   -9.0100   17.4660  -30.9890 H   0  0  0  0  0  0  0  0  0  0  0  0
   -5.4323   16.9610  -30.8995 H   0  0  0  0  0  0  0  0  0  0  0  0
   -4.3170   14.9640  -32.1465 H   0  0  0  0  0  0  0  0  0  0  0  0
   -5.3272   14.5502  -34.5442 H   0  0  0  0  0  0  0  0  0  0  0  0
  1  2  1  0
  2  3  1  0
  3  4  1  0
  4  5  1  0
  5  6  1  0
  6  7  2  0
  7  8  1  0
  8  9  2  0
  8 10  1  0
 10 11  1  0
 11 12  2  0
 12 13  1  0
 13 14  2  0
 14 15  1  0
 15 16  2  0
  3 17  2  0
 17 18  1  0
 18 19  2  0
 19 20  1  0
 20 21  2  0
 21 22  1  0
 22 23  2  0
 23 24  1  0
 19  2  1  0
 24 20  1  0
 16  6  1  0
 16 11  1  0
  1 25  1  0
  1 26  1  0
  1 27  1  0
  5 28  1  0
  5 29  1  0
  7 30  1  0
 12 31  1  0
 13 32  1  0
 14 33  1  0
 15 34  1  0
 18 35  1  0
 21 36  1  0
 22 37  1  0
 23 38  1  0
M  CHG  1  18   1
M  END
>  <UniqueID>  (13) 
13

>  <SMILES>  (13) 
Cn1c(SCc2cc(=O)oc3ccccc23)n[nH+]c1-c1cccs1

>  <Energy>  (13) 
106.25963635962357

>  <Genealogy>  (13) 
Cn1c(SCc2cc(=O)oc3ccccc23)n[nH+]c1-c1cccs1 (protonated)
Cn1c(SCc2cc(=O)oc3ccccc23)n[nH+]c1-c1cccs1 (3D coordinates assigned)
Cn1c(SCc2cc(=O)oc3ccccc23)n[nH+]c1-c1cccs1 (optimized conformer: 106.25963635962357 kcal/mol)

>  <smiles>  (13) 
Cn1c(SCc2cc(=O)oc3ccccc23)nnc1-c1cccs1

>  <score_type>  (13) 
oracle

>  <origin>  (13) 
adg

>  <m_score__min__energy>  (13) 
-8.6400000000000006

>  <m_primary>  (13) 
energy

$$$$
13:0
     RDKit          3D

 78 81  0  0  0  0  0  0  0  0999 V2000
   -3.8390   24.4880  -27.0660 C   0  0  0  0  0  0  0  0  0  0  0  0
   -2.7290   24.5410  -28.1090 C   0  0  0  0  0  0  0  0  0  0  0  0
   -3.3170   24.4400  -29.4710 N   0  0  0  0  0  0  0  0  0  0  0  0
   -2.8830   23.2060  -30.1650 C   0  0  0  0  0  0  0  0  0  0  0  0
   -3.5460   21.9690  -29.5580 C   0  0  0  0  0  0  0  0  0  0  0  0
   -4.7960   24.5200  -29.4350 C   0  0  0  0  0  0  0  0  0  0  0  0
   -5.3580   24.8830  -30.8190 C   0  0  0  0  0  0  0  0  0  0  0  0
   -6.4490   23.9060  -31.2730 C   0  0  0  0  0  0  0  0  0  0  0  0
   -6.0690   23.2040  -32.4990 N   0  0  0  0  0  0  0  0  0  0  0  0
   -5.9720   21.7710  -32.4920 C   0  0  0  0  0  0  0  0  0  0  0  0
   -7.1280   20.9870  -32.3480 C   0  0  0  0  0  0  0  0  0  0  0  0
   -8.3890   21.5890  -32.1580 C   0  0  0  0  0  0  0  0  0  0  0  0
   -9.5430   20.8150  -32.0720 C   0  0  0  0  0  0  0  0  0  0  0  0
   -9.4610   19.4320  -32.1820 C   0  0  0  0  0  0  0  0  0  0  0  0
   -8.2240   18.8120  -32.3470 C   0  0  0  0  0  0  0  0  0  0  0  0
   -7.0250   19.5710  -32.3920 C   0  0  0  0  0  0  0  0  0  0  0  0
   -5.7850   18.9690  -32.4980 N   0  0  0  0  0  0  0  0  0  0  0  0
   -5.6460   17.5120  -32.2640 C   0  0  0  0  0  0  0  0  0  0  0  0
   -4.6680   19.7300  -32.7940 C   0  0  0  0  0  0  0  0  0  0  0  0
   -3.4430   19.1340  -33.1910 C   0  0  0  0  0  0  0  0  0  0  0  0
   -2.3010   19.9130  -33.4440 C   0  0  0  0  0  0  0  0  0  0  0  0
   -1.0860   19.3550  -33.8660 O   0  0  0  0  0  0  0  0  0  0  0  0
    0.1960   19.9200  -33.6080 C   0  0  0  0  0  0  0  0  0  0  0  0
    0.9340   19.1280  -32.5100 C   0  0  0  0  0  0  0  0  0  0  0  0
    0.1110   18.8240  -31.2980 N   0  0  0  0  0  0  0  0  0  0  0  0
   -0.8580   17.9130  -31.6280 O   0  0  0  0  0  0  0  0  0  0  0  0
   -0.5900   20.0520  -30.8170 C   0  0  0  0  0  0  0  0  0  0  0  0
   -0.9320   19.9740  -29.3200 C   0  0  0  0  0  0  0  0  0  0  0  0
    0.2820   19.8380  -28.4750 N   0  0  0  0  0  0  0  0  0  0  0  0
    0.6530   21.1220  -27.8560 C   0  0  0  0  0  0  0  0  0  0  0  0
    1.4390   19.2610  -29.1970 C   0  0  0  0  0  0  0  0  0  0  0  0
    0.9750   18.2220  -30.2300 C   0  0  0  0  0  0  0  0  0  0  0  0
   -2.3710   21.2950  -33.2910 C   0  0  0  0  0  0  0  0  0  0  0  0
   -3.5730   21.9090  -32.9540 C   0  0  0  0  0  0  0  0  0  0  0  0
   -4.7360   21.1450  -32.7350 C   0  0  0  0  0  0  0  0  0  0  0  0
   -3.3971   24.5091  -26.0589 H   0  0  0  0  0  0  0  0  0  0  0  0
   -4.5034   25.3554  -27.1932 H   0  0  0  0  0  0  0  0  0  0  0  0
   -4.4177   23.5612  -27.1932 H   0  0  0  0  0  0  0  0  0  0  0  0
   -2.1842   25.4920  -28.0154 H   0  0  0  0  0  0  0  0  0  0  0  0
   -2.0366   23.7016  -27.9476 H   0  0  0  0  0  0  0  0  0  0  0  0
   -3.1585   23.2760  -31.2276 H   0  0  0  0  0  0  0  0  0  0  0  0
   -1.7931   23.1079  -30.0530 H   0  0  0  0  0  0  0  0  0  0  0  0
   -3.5105   22.0352  -28.4606 H   0  0  0  0  0  0  0  0  0  0  0  0
   -4.5938   21.9152  -29.8884 H   0  0  0  0  0  0  0  0  0  0  0  0
   -3.0106   21.0667  -29.8884 H   0  0  0  0  0  0  0  0  0  0  0  0
   -5.2022   23.5458  -29.1252 H   0  0  0  0  0  0  0  0  0  0  0  0
   -5.0890   25.3026  -28.7197 H   0  0  0  0  0  0  0  0  0  0  0  0
   -5.7852   25.8957  -30.7739 H   0  0  0  0  0  0  0  0  0  0  0  0
   -4.5327   24.8299  -31.5443 H   0  0  0  0  0  0  0  0  0  0  0  0
   -6.6194   23.1665  -30.4767 H   0  0  0  0  0  0  0  0  0  0  0  0
   -7.3633   24.4827  -31.4768 H   0  0  0  0  0  0  0  0  0  0  0  0
   -6.2380   23.6730  -33.4190 H   0  0  0  0  0  0  0  0  0  0  0  0
   -8.4617   22.6836  -32.0767 H   0  0  0  0  0  0  0  0  0  0  0  0
  -10.5192   21.2978  -31.9171 H   0  0  0  0  0  0  0  0  0  0  0  0
  -10.3767   18.8240  -32.1386 H   0  0  0  0  0  0  0  0  0  0  0  0
   -8.1757   17.7173  -32.4439 H   0  0  0  0  0  0  0  0  0  0  0  0
   -5.6272   17.3146  -31.1820 H   0  0  0  0  0  0  0  0  0  0  0  0
   -6.4979   16.9848  -32.7182 H   0  0  0  0  0  0  0  0  0  0  0  0
   -4.7098   17.1554  -32.7182 H   0  0  0  0  0  0  0  0  0  0  0  0
   -3.3861   18.0412  -33.3029 H   0  0  0  0  0  0  0  0  0  0  0  0
    0.7926   19.8968  -34.5319 H   0  0  0  0  0  0  0  0  0  0  0  0
    0.0613   20.9562  -33.2644 H   0  0  0  0  0  0  0  0  0  0  0  0
    1.2712   18.1747  -32.9431 H   0  0  0  0  0  0  0  0  0  0  0  0
    1.7629   19.7664  -32.1705 H   0  0  0  0  0  0  0  0  0  0  0  0
   -1.0640   18.0120  -32.5960 H   0  0  0  0  0  0  0  0  0  0  0  0
    0.0614   20.9219  -30.9871 H   0  0  0  0  0  0  0  0  0  0  0  0
   -1.5332   20.1443  -31.3755 H   0  0  0  0  0  0  0  0  0  0  0  0
   -1.4650   20.8915  -29.0298 H   0  0  0  0  0  0  0  0  0  0  0  0
   -1.5562   19.0822  -29.1615 H   0  0  0  0  0  0  0  0  0  0  0  0
    0.6244   21.0229  -26.7608 H   0  0  0  0  0  0  0  0  0  0  0  0
    1.6687   21.4017  -28.1724 H   0  0  0  0  0  0  0  0  0  0  0  0
   -0.0570   21.9003  -28.1724 H   0  0  0  0  0  0  0  0  0  0  0  0
    1.9798   20.0672  -29.7143 H   0  0  0  0  0  0  0  0  0  0  0  0
    2.0970   18.7644  -28.4687 H   0  0  0  0  0  0  0  0  0  0  0  0
    1.8613   17.7742  -30.7033 H   0  0  0  0  0  0  0  0  0  0  0  0
    0.3760   17.4666  -29.7002 H   0  0  0  0  0  0  0  0  0  0  0  0
   -1.4685   21.9065  -33.4378 H   0  0  0  0  0  0  0  0  0  0  0  0
   -3.6157   23.0039  -32.8574 H   0  0  0  0  0  0  0  0  0  0  0  0
  1  2  1  0
  2  3  1  0
  3  4  1  0
  4  5  1  0
  3  6  1  0
  6  7  1  0
  7  8  1  0
  8  9  1  0
  9 10  1  0
 10 11  2  0
 11 12  1  0
 12 13  2  0
 13 14  1  0
 14 15  2  0
 15 16  1  0
 16 17  2  0
 17 18  1  0
 17 19  1  0
 19 20  2  0
 20 21  1  0
 21 22  1  0
 22 23  1  0
 23 24  1  0
 24 25  1  0
 25 26  1  0
 25 27  1  0
 27 28  1  0
 28 29  1  0
 29 30  1  0
 29 31  1  0
 31 32  1  0
 21 33  2  0
 33 34  1  0
 34 35  2  0
 35 10  1  0
 16 11  1  0
 35 19  1  0
 32 25  1  0
  1 36  1  0
  1 37  1  0
  1 38  1  0
  2 39  1  0
  2 40  1  0
  4 41  1  0
  4 42  1  0
  5 43  1  0
  5 44  1  0
  5 45  1  0
  6 46  1  0
  6 47  1  0
  7 48  1  0
  7 49  1  0
  8 50  1  0
  8 51  1  0
  9 52  1  0
 12 53  1  0
 13 54  1  0
 14 55  1  0
 15 56  1  0
 18 57  1  0
 18 58  1  0
 18 59  1  0
 20 60  1  0
 23 61  1  0
 23 62  1  0
 24 63  1  0
 24 64  1  0
 26 65  1  0
 27 66  1  0
 27 67  1  0
 28 68  1  0
 28 69  1  0
 30 70  1  0
 30 71  1  0
 30 72  1  0
 31 73  1  0
 31 74  1  0
 32 75  1  0
 32 76  1  0
 33 77  1  0
 34 78  1  0
M  CHG  2  17   1  25   1
M  END
>  <UniqueID>  (14) 
14

>  <SMILES>  (14) 
CCN(CC)CCCNc1c2ccccc2[n+](C)c2cc(OCC[N+]3(O)CCN(C)CC3)ccc12

>  <Energy>  (14) 
120.47511248514914

>  <Genealogy>  (14) 
CCN(CC)CCCNc1c2ccccc2[n+](C)c2cc(OCC[N+]3(O)CCN(C)CC3)ccc12 (protonated)
CCN(CC)CCCNc1c2ccccc2[n+](C)c2cc(OCC[N+]3(O)CCN(C)CC3)ccc12 (3D coordinates assigned)
CCN(CC)CCCNc1c2ccccc2[n+](C)c2cc(OCC[N+]3(O)CCN(C)CC3)ccc12 (nonaromatic ring conformer: 120.47511248514914 kcal/mol)

>  <smiles>  (14) 
CCN(CC)CCCNc1c2ccccc2[n+](C)c2cc(OCC[N+]3([O-])CCN(C)CC3)ccc12

>  <score_type>  (14) 
oracle

>  <origin>  (14) 
adg

>  <m_score__min__energy>  (14) 
-8.3300000000000001

>  <m_primary>  (14) 
energy

$$$$
14:0
     RDKit          3D

 57 60  0  0  0  0  0  0  0  0999 V2000
    0.2650   21.0210  -36.0720 C   0  0  0  0  0  0  0  0  0  0  0  0
    0.3200   21.5530  -34.6440 C   0  0  0  0  0  0  0  0  0  0  0  0
   -0.2300   20.5440  -33.7070 N   0  0  0  0  0  0  0  0  0  0  0  0
    0.7580   19.4810  -33.4500 C   0  0  0  0  0  0  0  0  0  0  0  0
   -0.6580   21.1620  -32.4310 C   0  0  0  0  0  0  0  0  0  0  0  0
   -2.1580   21.4970  -32.4850 C   0  0  0  0  0  0  0  0  0  0  0  0
   -2.7730   21.1690  -33.7870 N   0  0  0  0  0  0  0  0  0  0  0  0
   -3.7800   20.1310  -33.6660 C   0  0  0  0  0  0  0  0  0  0  0  0
   -3.4780   18.7790  -34.0190 C   0  0  0  0  0  0  0  0  0  0  0  0
   -2.1990   18.4030  -34.5050 C   0  0  0  0  0  0  0  0  0  0  0  0
   -1.9030   17.0780  -34.8150 C   0  0  0  0  0  0  0  0  0  0  0  0
   -2.8610   16.0900  -34.6420 C   0  0  0  0  0  0  0  0  0  0  0  0
   -4.1320   16.4230  -34.1790 C   0  0  0  0  0  0  0  0  0  0  0  0
   -4.4810   17.7660  -33.8850 C   0  0  0  0  0  0  0  0  0  0  0  0
   -5.7590   18.0910  -33.4720 N   0  0  0  0  0  0  0  0  0  0  0  0
   -6.8640   17.1540  -33.7400 C   0  0  0  0  0  0  0  0  0  0  0  0
   -5.9890   19.3490  -32.9640 C   0  0  0  0  0  0  0  0  0  0  0  0
   -5.0680   20.3830  -33.1260 C   0  0  0  0  0  0  0  0  0  0  0  0
   -5.6860   21.5210  -32.5840 C   0  0  0  0  0  0  0  0  0  0  0  0
   -5.3240   22.8800  -32.5030 C   0  0  0  0  0  0  0  0  0  0  0  0
   -6.1730   23.7690  -31.8270 C   0  0  0  0  0  0  0  0  0  0  0  0
   -7.3630   23.3130  -31.2400 C   0  0  0  0  0  0  0  0  0  0  0  0
   -7.7300   21.9670  -31.3460 C   0  0  0  0  0  0  0  0  0  0  0  0
   -6.8890   21.0920  -32.0520 C   0  0  0  0  0  0  0  0  0  0  0  0
   -7.0910   19.7700  -32.2650 N   0  0  0  0  0  0  0  0  0  0  0  0
   -8.1420   18.9820  -31.5980 C   0  0  0  0  0  0  0  0  0  0  0  0
   -9.4700   19.0570  -32.3590 C   0  0  0  0  0  0  0  0  0  0  0  0
    0.1519   19.9270  -36.0516 H   0  0  0  0  0  0  0  0  0  0  0  0
   -0.5917   21.4685  -36.5972 H   0  0  0  0  0  0  0  0  0  0  0  0
    1.1951   21.2837  -36.5972 H   0  0  0  0  0  0  0  0  0  0  0  0
    1.3646   21.7688  -34.3753 H   0  0  0  0  0  0  0  0  0  0  0  0
   -0.2792   22.4730  -34.5774 H   0  0  0  0  0  0  0  0  0  0  0  0
    0.8807   19.3490  -32.3649 H   0  0  0  0  0  0  0  0  0  0  0  0
    0.4075   18.5389  -33.8967 H   0  0  0  0  0  0  0  0  0  0  0  0
    1.7232   19.7618  -33.8967 H   0  0  0  0  0  0  0  0  0  0  0  0
   -0.4713   20.4594  -31.6055 H   0  0  0  0  0  0  0  0  0  0  0  0
   -0.0871   22.0883  -32.2694 H   0  0  0  0  0  0  0  0  0  0  0  0
   -2.6738   20.9257  -31.6992 H   0  0  0  0  0  0  0  0  0  0  0  0
   -2.2598   22.5820  -32.3356 H   0  0  0  0  0  0  0  0  0  0  0  0
   -2.0560   20.9470  -34.4980 H   0  0  0  0  0  0  0  0  0  0  0  0
   -3.2090   22.0310  -34.1840 H   0  0  0  0  0  0  0  0  0  0  0  0
   -1.4257   19.1737  -34.6396 H   0  0  0  0  0  0  0  0  0  0  0  0
   -0.9063   16.8141  -35.1983 H   0  0  0  0  0  0  0  0  0  0  0  0
   -2.6168   15.0421  -34.8707 H   0  0  0  0  0  0  0  0  0  0  0  0
   -4.8798   15.6286  -34.0386 H   0  0  0  0  0  0  0  0  0  0  0  0
   -7.2829   16.7988  -32.7869 H   0  0  0  0  0  0  0  0  0  0  0  0
   -7.6479   17.6668  -34.3166 H   0  0  0  0  0  0  0  0  0  0  0  0
   -6.4862   16.2968  -34.3166 H   0  0  0  0  0  0  0  0  0  0  0  0
   -4.3909   23.2383  -32.9623 H   0  0  0  0  0  0  0  0  0  0  0  0
   -5.9033   24.8331  -31.7565 H   0  0  0  0  0  0  0  0  0  0  0  0
   -8.0096   24.0161  -30.6946 H   0  0  0  0  0  0  0  0  0  0  0  0
   -8.6595   21.6014  -30.8851 H   0  0  0  0  0  0  0  0  0  0  0  0
   -7.8204   17.9315  -31.5434 H   0  0  0  0  0  0  0  0  0  0  0  0
   -8.2977   19.3973  -30.5914 H   0  0  0  0  0  0  0  0  0  0  0  0
  -10.3019   19.1040  -31.6409 H   0  0  0  0  0  0  0  0  0  0  0  0
   -9.4800   19.9571  -32.9912 H   0  0  0  0  0  0  0  0  0  0  0  0
   -9.5813   18.1637  -32.9912 H   0  0  0  0  0  0  0  0  0  0  0  0
  1  2  1  0
  2  3  1  0
  3  4  1  0
  3  5  1  0
  5  6  1  0
  6  7  1  0
  7  8  1  0
  8  9  2  0
  9 10  1  0
 10 11  2  0
 11 12  1  0
 12 13  2  0
 13 14  1  0
 14 15  2  0
 15 16  1  0
 15 17  1  0
 17 18  2  0
 18 19  1  0
 19 20  2  0
 20 21  1  0
 21 22  2  0
 22 23  1  0
 23 24  2  0
 24 25  1  0
 25 26  1  0
 26 27  1  0
 18  8  1  0
 24 19  1  0
 14  9  1  0
 25 17  1  0
  1 28  1  0
  1 29  1  0
  1 30  1  0
  2 31  1  0
  2 32  1  0
  4 33  1  0
  4 34  1  0
  4 35  1  0
  5 36  1  0
  5 37  1  0
  6 38  1  0
  6 39  1  0
  7 40  1  0
  7 41  1  0
 10 42  1  0
 11 43  1  0
 12 44  1  0
 13 45  1  0
 16 46  1  0
 16 47  1  0
 16 48  1  0
 20 49  1  0
 21 50  1  0
 22 51  1  0
 23 52  1  0
 26 53  1  0
 26 54  1  0
 27 55  1  0
 27 56  1  0
 27 57  1  0
M  CHG  2   7   1  15   1
M  END
>  <UniqueID>  (15) 
15

>  <SMILES>  (15) 
CCN(C)CC[NH2+]c1c2ccccc2[n+](C)c2c1c1ccccc1n2CC

>  <Energy>  (15) 
129.92336378920393

>  <Genealogy>  (15) 
CCN(C)CC[NH2+]c1c2ccccc2[n+](C)c2c1c1ccccc1n2CC (protonated)
CCN(C)CC[NH2+]c1c2ccccc2[n+](C)c2c1c1ccccc1n2CC (3D coordinates assigned)
CCN(C)CC[NH2+]c1c2ccccc2[n+](C)c2c1c1ccccc1n2CC (optimized conformer: 129.92336378920393 kcal/mol)

>  <smiles>  (15) 
CCN(C)CCNc1c2ccccc2[n+](C)c2c1c1ccccc1n2CC

>  <score_type>  (15) 
oracle

>  <origin>  (15) 
adg

>  <m_score__min__energy>  (15) 
-8.4499999999999993

>  <m_primary>  (15) 
energy

$$$$
15:0
     RDKit          3D

 37 37  0  0  0  0  0  0  0  0999 V2000
   -6.5310   18.4790  -32.2380 C   0  0  0  0  0  0  0  0  0  0  0  0
   -6.4520   19.3940  -33.4560 C   0  0  0  0  0  0  0  0  0  0  0  0
   -7.0800   20.6330  -33.1840 O   0  0  0  0  0  0  0  0  0  0  0  0
   -8.3790   20.4310  -32.6670 C   0  0  0  0  0  0  0  0  0  0  0  0
   -8.5910   21.3190  -31.4370 C   0  0  0  0  0  0  0  0  0  0  0  0
   -8.8140   22.7920  -31.8060 C   0  0  0  0  0  0  0  0  0  0  0  0
   -7.6180   23.3460  -32.4540 N   0  0  0  0  0  0  0  0  0  0  0  0
   -6.8050   24.1190  -31.5080 C   0  0  0  0  0  0  0  0  0  0  0  0
   -5.3800   23.6480  -31.5340 C   0  0  0  0  0  0  0  0  0  0  0  0
   -4.5030   24.3030  -30.9080 O   0  0  0  0  0  0  0  0  0  0  0  0
   -5.0200   22.4930  -32.3090 N   0  0  0  0  0  0  0  0  0  0  0  0
   -3.7080   21.9060  -32.3140 C   0  0  0  0  0  0  0  0  0  0  0  0
   -2.8890   22.0410  -31.1820 C   0  0  0  0  0  0  0  0  0  0  0  0
   -1.6010   21.4950  -31.1710 C   0  0  0  0  0  0  0  0  0  0  0  0
   -1.1150   20.8240  -32.2970 C   0  0  0  0  0  0  0  0  0  0  0  0
    0.6440   20.0810  -32.2810 Br  0  0  0  0  0  0  0  0  0  0  0  0
   -1.9160   20.7040  -33.4370 C   0  0  0  0  0  0  0  0  0  0  0  0
   -3.2030   21.2480  -33.4500 C   0  0  0  0  0  0  0  0  0  0  0  0
   -6.4788   19.0841  -31.3208 H   0  0  0  0  0  0  0  0  0  0  0  0
   -7.4804   17.9238  -32.2574 H   0  0  0  0  0  0  0  0  0  0  0  0
   -5.6908   17.7693  -32.2574 H   0  0  0  0  0  0  0  0  0  0  0  0
   -5.3961   19.5706  -33.7087 H   0  0  0  0  0  0  0  0  0  0  0  0
   -6.9668   18.9106  -34.2994 H   0  0  0  0  0  0  0  0  0  0  0  0
   -9.1223   20.6884  -33.4359 H   0  0  0  0  0  0  0  0  0  0  0  0
   -8.4953   19.3760  -32.3781 H   0  0  0  0  0  0  0  0  0  0  0  0
   -9.4720   20.9558  -30.8875 H   0  0  0  0  0  0  0  0  0  0  0  0
   -7.6797   21.2627  -30.8235 H   0  0  0  0  0  0  0  0  0  0  0  0
   -9.6674   22.8673  -32.4960 H   0  0  0  0  0  0  0  0  0  0  0  0
   -9.0178   23.3622  -30.8877 H   0  0  0  0  0  0  0  0  0  0  0  0
   -7.0370   22.5430  -32.7920 H   0  0  0  0  0  0  0  0  0  0  0  0
   -6.8400   25.1829  -31.7854 H   0  0  0  0  0  0  0  0  0  0  0  0
   -7.2081   23.9786  -30.4942 H   0  0  0  0  0  0  0  0  0  0  0  0
   -5.7230   22.1260  -32.9890 H   0  0  0  0  0  0  0  0  0  0  0  0
   -3.2622   22.5793  -30.2983 H   0  0  0  0  0  0  0  0  0  0  0  0
   -0.9700   21.5938  -30.2754 H   0  0  0  0  0  0  0  0  0  0  0  0
   -1.5322   20.1804  -34.3250 H   0  0  0  0  0  0  0  0  0  0  0  0
   -3.8245   21.1612  -34.3534 H   0  0  0  0  0  0  0  0  0  0  0  0
  1  2  1  0
  2  3  1  0
  3  4  1  0
  4  5  1  0
  5  6  1  0
  6  7  1  0
  7  8  1  0
  8  9  1  0
  9 10  2  0
  9 11  1  0
 11 12  1  0
 12 13  2  0
 13 14  1  0
 14 15  2  0
 15 16  1  0
 15 17  1  0
 17 18  2  0
 18 12  1  0
  1 19  1  0
  1 20  1  0
  1 21  1  0
  2 22  1  0
  2 23  1  0
  4 24  1  0
  4 25  1  0
  5 26  1  0
  5 27  1  0
  6 28  1  0
  6 29  1  0
  7 30  1  0
  8 31  1  0
  8 32  1  0
 11 33  1  0
 13 34  1  0
 14 35  1  0
 17 36  1  0
 18 37  1  0
M  END
>  <UniqueID>  (16) 
16

>  <SMILES>  (16) 
CCOCCCNCC(=O)Nc1ccc(Br)cc1

>  <Energy>  (16) 
30.287433288633167

>  <Genealogy>  (16) 
CCOCCCNCC(=O)Nc1ccc(Br)cc1 (3D coordinates assigned)
CCOCCCNCC(=O)Nc1ccc(Br)cc1 (optimized conformer: 30.287433288633167 kcal/mol)

>  <smiles>  (16) 
CCOCCCNCC(=O)Nc1ccc(Br)cc1

>  <score_type>  (16) 
oracle

>  <origin>  (16) 
adg

>  <m_score__min__energy>  (16) 
-6.8700000000000001

>  <m_primary>  (16) 
energy

$$$$
16:0
     RDKit          3D

 27 28  0  0  0  0  0  0  0  0999 V2000
   -3.4150   24.2930  -27.2810 C   0  0  0  0  0  0  0  0  0  0  0  0
   -2.1870   24.9030  -27.9400 C   0  0  0  0  0  0  0  0  0  0  0  0
   -1.6220   23.8390  -29.3080 S   0  0  0  0  0  0  0  0  0  0  0  0
   -3.2320   23.8150  -30.1000 C   0  0  0  0  0  0  0  0  0  0  0  0
   -3.8590   24.9240  -30.5310 N   0  0  0  0  0  0  0  0  0  0  0  0
   -5.0100   24.5330  -31.0600 N   0  0  0  0  0  0  0  0  0  0  0  0
   -5.0630   23.1900  -30.9530 C   0  0  0  0  0  0  0  0  0  0  0  0
   -6.2110   22.4020  -31.4410 C   0  0  0  0  0  0  0  0  0  0  0  0
   -7.5330   22.7280  -31.0960 C   0  0  0  0  0  0  0  0  0  0  0  0
   -8.5800   21.9310  -31.5630 C   0  0  0  0  0  0  0  0  0  0  0  0
   -8.3060   20.8140  -32.3530 C   0  0  0  0  0  0  0  0  0  0  0  0
   -6.9790   20.5030  -32.6570 C   0  0  0  0  0  0  0  0  0  0  0  0
   -5.9730   21.2930  -32.1940 N   0  0  0  0  0  0  0  0  0  0  0  0
   -3.9640   22.7070  -30.3310 N   0  0  0  0  0  0  0  0  0  0  0  0
   -3.6320   21.3310  -29.9630 C   0  0  0  0  0  0  0  0  0  0  0  0
   -3.3086   24.3458  -26.1874 H   0  0  0  0  0  0  0  0  0  0  0  0
   -4.3117   24.8504  -27.5895 H   0  0  0  0  0  0  0  0  0  0  0  0
   -3.5126   23.2417  -27.5895 H   0  0  0  0  0  0  0  0  0  0  0  0
   -2.4410   25.8984  -28.3334 H   0  0  0  0  0  0  0  0  0  0  0  0
   -1.3828   24.9911  -27.1946 H   0  0  0  0  0  0  0  0  0  0  0  0
   -7.7416   23.6035  -30.4635 H   0  0  0  0  0  0  0  0  0  0  0  0
   -9.6199   22.1835  -31.3083 H   0  0  0  0  0  0  0  0  0  0  0  0
   -9.1256   20.1858  -32.7319 H   0  0  0  0  0  0  0  0  0  0  0  0
   -6.7473   19.6198  -33.2704 H   0  0  0  0  0  0  0  0  0  0  0  0
   -3.6100   21.2397  -28.8670 H   0  0  0  0  0  0  0  0  0  0  0  0
   -4.3913   20.6485  -30.3726 H   0  0  0  0  0  0  0  0  0  0  0  0
   -2.6451   21.0699  -30.3726 H   0  0  0  0  0  0  0  0  0  0  0  0
  1  2  1  0
  2  3  1  0
  3  4  1  0
  4  5  2  0
  5  6  1  0
  6  7  2  0
  7  8  1  0
  8  9  2  0
  9 10  1  0
 10 11  2  0
 11 12  1  0
 12 13  2  0
  7 14  1  0
 14 15  1  0
 14  4  1  0
 13  8  1  0
  1 16  1  0
  1 17  1  0
  1 18  1  0
  2 19  1  0
  2 20  1  0
  9 21  1  0
 10 22  1  0
 11 23  1  0
 12 24  1  0
 15 25  1  0
 15 26  1  0
 15 27  1  0
M  END
>  <UniqueID>  (17) 
17

>  <SMILES>  (17) 
CCSc1nnc(-c2ccccn2)n1C

>  <Energy>  (17) 
59.66603735045696

>  <Genealogy>  (17) 
CCSc1nnc(-c2ccccn2)n1C (3D coordinates assigned)
CCSc1nnc(-c2ccccn2)n1C (optimized conformer: 59.66603735045696 kcal/mol)

>  <smiles>  (17) 
CCSc1nnc(-c2ccccn2)n1C

>  <score_type>  (17) 
oracle

>  <origin>  (17) 
adg

>  <m_score__min__energy>  (17) 
-6.1100000000000003

>  <m_primary>  (17) 
energy

$$$$
17:0
     RDKit          3D

 32 33  0  0  1  0  0  0  0  0999 V2000
   -8.6810   19.2520  -31.8990 C   0  0  0  0  0  0  0  0  0  0  0  0
   -9.0560   20.4400  -32.3450 C   0  0  0  0  0  0  0  0  0  0  0  0
   -9.4810   21.5520  -31.4480 C   0  0  0  0  0  0  0  0  0  0  0  0
   -8.7980   22.7400  -31.9610 N   0  0  0  0  0  0  0  0  0  0  0  0
   -7.6060   23.0450  -31.6020 C   0  0  0  0  0  0  0  0  0  0  0  0
   -6.5890   22.2600  -31.9740 N   0  0  0  0  0  0  0  0  0  0  0  0
   -5.2910   22.5320  -31.6260 C   0  0  0  0  0  0  0  0  0  0  0  0
   -4.2770   21.6660  -32.0540 N   0  0  0  0  0  0  0  0  0  0  0  0
   -4.2540   20.8600  -33.2480 C   0  0  0  0  0  0  0  0  0  0  0  0
   -3.9280   19.3980  -33.1310 C   0  0  0  0  0  0  0  0  0  0  0  0
   -5.3290   19.7720  -33.3730 C   0  0  0  0  0  0  0  0  0  0  0  0
   -5.1140   23.6640  -30.8710 C   0  0  0  0  0  0  0  0  0  0  0  0
   -3.8350   24.0960  -30.4390 N   0  0  0  0  0  0  0  0  0  0  0  0
   -3.4910   25.2930  -30.4730 O   0  0  0  0  0  0  0  0  0  0  0  0
   -2.9940   23.0930  -29.9520 O   0  0  0  0  0  0  0  0  0  0  0  0
   -6.1880   24.4810  -30.4850 C   0  0  0  0  0  0  0  0  0  0  0  0
   -6.0020   25.5300  -29.7800 N   0  0  0  0  0  0  0  0  0  0  0  0
   -7.4360   24.1530  -30.8630 N   0  0  0  0  0  0  0  0  0  0  0  0
   -8.3772   18.4687  -32.6091 H   0  0  0  0  0  0  0  0  0  0  0  0
   -8.6730   19.0477  -30.8182 H   0  0  0  0  0  0  0  0  0  0  0  0
   -9.0540   20.6156  -33.4309 H   0  0  0  0  0  0  0  0  0  0  0  0
  -10.5720   21.6859  -31.4897 H   0  0  0  0  0  0  0  0  0  0  0  0
   -9.2263   21.3528  -30.3966 H   0  0  0  0  0  0  0  0  0  0  0  0
   -6.8130   21.4210  -32.5470 H   0  0  0  0  0  0  0  0  0  0  0  0
   -3.4220   21.5880  -31.4370 H   0  0  0  0  0  0  0  0  0  0  0  0
   -3.8828   21.6943  -33.8613 H   0  0  0  0  0  0  0  0  0  0  0  0
   -3.3516   18.9038  -33.9270 H   0  0  0  0  0  0  0  0  0  0  0  0
   -3.4199   18.7860  -32.3712 H   0  0  0  0  0  0  0  0  0  0  0  0
   -5.7926   19.5663  -34.3491 H   0  0  0  0  0  0  0  0  0  0  0  0
   -6.2871   19.5639  -32.8743 H   0  0  0  0  0  0  0  0  0  0  0  0
   -5.1220   25.7350  -29.2630 H   0  0  0  0  0  0  0  0  0  0  0  0
   -8.2210   24.7670  -30.5700 H   0  0  0  0  0  0  0  0  0  0  0  0
  1  2  2  0
  2  3  1  0
  3  4  1  0
  4  5  2  0
  5  6  1  0
  6  7  1  0
  7  8  1  0
  8  9  1  0
  9 10  1  0
 10 11  1  0
  7 12  2  0
 12 13  1  0
 13 14  2  0
 13 15  1  0
 12 16  1  0
 16 17  2  3
 16 18  1  0
 18  5  1  0
 11  9  1  0
  1 19  1  0
  1 20  1  0
  2 21  1  0
  3 22  1  0
  3 23  1  0
  6 24  1  0
  8 25  1  0
  9 26  1  0
 10 27  1  0
 10 28  1  0
 11 29  1  0
 11 30  1  0
 17 31  1  0
 18 32  1  0
M  CHG  2  13   1  15  -1
M  END
>  <smiles>  (18) 
C=CCN=c1[nH]c(NC2CC2)c([N+](=O)[O-])c(=N)[nH]1

>  <score_type>  (18) 
oracle

>  <origin>  (18) 
adg

>  <m_score__min__energy>  (18) 
-6.1699999999999999

>  <m_primary>  (18) 
energy

$$$$
18:0
     RDKit          3D

 71 73  0  0  0  0  0  0  0  0999 V2000
   -6.4870   25.6640  -29.3460 C   0  0  0  0  0  0  0  0  0  0  0  0
   -5.3780   24.6260  -29.1770 C   0  0  0  0  0  0  0  0  0  0  0  0
   -4.2840   24.7310  -30.2560 C   0  0  0  0  0  0  0  0  0  0  0  0
   -3.1300   23.7210  -30.1130 C   0  0  0  0  0  0  0  0  0  0  0  0
   -3.5990   22.2600  -30.1610 C   0  0  0  0  0  0  0  0  0  0  0  0
   -2.4760   21.3780  -30.5550 N   0  0  0  0  0  0  0  0  0  0  0  0
   -1.8450   20.7340  -29.3760 C   0  0  0  0  0  0  0  0  0  0  0  0
   -2.6650   20.9080  -28.0830 C   0  0  0  0  0  0  0  0  0  0  0  0
   -1.9970   20.3150  -26.8260 C   0  0  0  0  0  0  0  0  0  0  0  0
   -2.2780   18.8210  -26.5910 C   0  0  0  0  0  0  0  0  0  0  0  0
   -3.7240   18.5410  -26.1830 C   0  0  0  0  0  0  0  0  0  0  0  0
   -2.8570   20.4330  -31.6350 C   0  0  0  0  0  0  0  0  0  0  0  0
   -2.7710   21.0270  -33.0550 C   0  0  0  0  0  0  0  0  0  0  0  0
   -4.1040   21.3860  -33.5400 N   0  0  0  0  0  0  0  0  0  0  0  0
   -5.2810   20.6780  -33.1160 C   0  0  0  0  0  0  0  0  0  0  0  0
   -5.3670   19.2910  -33.3070 C   0  0  0  0  0  0  0  0  0  0  0  0
   -6.4700   18.5830  -32.7970 C   0  0  0  0  0  0  0  0  0  0  0  0
   -7.5370   19.2520  -32.2370 N   0  0  0  0  0  0  0  0  0  0  0  0
   -8.7940   18.5210  -31.9660 C   0  0  0  0  0  0  0  0  0  0  0  0
   -7.4380   20.6070  -31.9690 C   0  0  0  0  0  0  0  0  0  0  0  0
   -8.4120   21.2910  -31.1970 C   0  0  0  0  0  0  0  0  0  0  0  0
   -8.3330   22.6700  -31.0000 C   0  0  0  0  0  0  0  0  0  0  0  0
   -7.2880   23.3980  -31.5550 C   0  0  0  0  0  0  0  0  0  0  0  0
   -6.2900   22.7480  -32.2750 C   0  0  0  0  0  0  0  0  0  0  0  0
   -6.3250   21.3490  -32.4530 C   0  0  0  0  0  0  0  0  0  0  0  0
   -6.3520   17.0660  -32.8150 C   0  0  0  0  0  0  0  0  0  0  0  0
   -5.9590   16.5630  -34.2130 C   0  0  0  0  0  0  0  0  0  0  0  0
   -4.8770   17.4260  -34.9080 C   0  0  0  0  0  0  0  0  0  0  0  0
   -4.2710   18.5080  -33.9990 C   0  0  0  0  0  0  0  0  0  0  0  0
   -6.8368   25.9914  -28.3558 H   0  0  0  0  0  0  0  0  0  0  0  0
   -6.0975   26.5296  -29.9019 H   0  0  0  0  0  0  0  0  0  0  0  0
   -7.3249   25.2181  -29.9019 H   0  0  0  0  0  0  0  0  0  0  0  0
   -4.9121   24.7686  -28.1908 H   0  0  0  0  0  0  0  0  0  0  0  0
   -5.8404   23.6326  -29.2737 H   0  0  0  0  0  0  0  0  0  0  0  0
   -4.7560   24.5733  -31.2370 H   0  0  0  0  0  0  0  0  0  0  0  0
   -3.8351   25.7289  -30.1428 H   0  0  0  0  0  0  0  0  0  0  0  0
   -2.4161   23.8866  -30.9333 H   0  0  0  0  0  0  0  0  0  0  0  0
   -2.6702   23.8857  -29.1274 H   0  0  0  0  0  0  0  0  0  0  0  0
   -3.9642   21.9622  -29.1670 H   0  0  0  0  0  0  0  0  0  0  0  0
   -4.4078   22.1654  -30.9005 H   0  0  0  0  0  0  0  0  0  0  0  0
   -1.7369   19.6586  -29.5802 H   0  0  0  0  0  0  0  0  0  0  0  0
   -0.8722   21.2220  -29.2164 H   0  0  0  0  0  0  0  0  0  0  0  0
   -2.8210   21.9839  -27.9157 H   0  0  0  0  0  0  0  0  0  0  0  0
   -3.6065   20.3584  -28.2296 H   0  0  0  0  0  0  0  0  0  0  0  0
   -0.9092   20.4479  -26.9214 H   0  0  0  0  0  0  0  0  0  0  0  0
   -2.4254   20.8501  -25.9657 H   0  0  0  0  0  0  0  0  0  0  0  0
   -2.0642   18.2738  -27.5210 H   0  0  0  0  0  0  0  0  0  0  0  0
   -1.6334   18.4918  -25.7627 H   0  0  0  0  0  0  0  0  0  0  0  0
   -3.7991   18.5265  -25.0857 H   0  0  0  0  0  0  0  0  0  0  0  0
   -4.3776   19.3293  -26.5848 H   0  0  0  0  0  0  0  0  0  0  0  0
   -4.0361   17.5657  -26.5848 H   0  0  0  0  0  0  0  0  0  0  0  0
   -2.1863   19.5626  -31.5841 H   0  0  0  0  0  0  0  0  0  0  0  0
   -3.9115   20.1694  -31.4664 H   0  0  0  0  0  0  0  0  0  0  0  0
   -2.1387   21.9269  -33.0336 H   0  0  0  0  0  0  0  0  0  0  0  0
   -2.3364   20.2752  -33.7302 H   0  0  0  0  0  0  0  0  0  0  0  0
   -4.2040   22.1590  -34.2360 H   0  0  0  0  0  0  0  0  0  0  0  0
   -8.9413   18.4353  -30.8793 H   0  0  0  0  0  0  0  0  0  0  0  0
   -9.6392   19.0684  -32.4086 H   0  0  0  0  0  0  0  0  0  0  0  0
   -8.7362   17.5156  -32.4086 H   0  0  0  0  0  0  0  0  0  0  0  0
   -9.2416   20.7259  -30.7471 H   0  0  0  0  0  0  0  0  0  0  0  0
   -9.1013   23.1829  -30.4028 H   0  0  0  0  0  0  0  0  0  0  0  0
   -7.2493   24.4896  -31.4252 H   0  0  0  0  0  0  0  0  0  0  0  0
   -5.4651   23.3314  -32.7099 H   0  0  0  0  0  0  0  0  0  0  0  0
   -5.5836   16.7559  -32.0915 H   0  0  0  0  0  0  0  0  0  0  0  0
   -7.3279   16.6344  -32.5477 H   0  0  0  0  0  0  0  0  0  0  0  0
   -5.5747   15.5368  -34.1167 H   0  0  0  0  0  0  0  0  0  0  0  0
   -6.8623   16.6181  -34.8383 H   0  0  0  0  0  0  0  0  0  0  0  0
   -4.0672   16.7623  -35.2452 H   0  0  0  0  0  0  0  0  0  0  0  0
   -5.3686   17.9464  -35.7432 H   0  0  0  0  0  0  0  0  0  0  0  0
   -3.6337   18.0292  -33.2410 H   0  0  0  0  0  0  0  0  0  0  0  0
   -3.6740   19.1974  -34.6142 H   0  0  0  0  0  0  0  0  0  0  0  0
  1  2  1  0
  2  3  1  0
  3  4  1  0
  4  5  1  0
  5  6  1  0
  6  7  1  0
  7  8  1  0
  8  9  1  0
  9 10  1  0
 10 11  1  0
  6 12  1  0
 12 13  1  0
 13 14  1  0
 14 15  1  0
 15 16  2  0
 16 17  1  0
 17 18  2  0
 18 19  1  0
 18 20  1  0
 20 21  2  0
 21 22  1  0
 22 23  2  0
 23 24  1  0
 24 25  2  0
 17 26  1  0
 26 27  1  0
 27 28  1  0
 28 29  1  0
 25 15  1  0
 29 16  1  0
 25 20  1  0
  1 30  1  0
  1 31  1  0
  1 32  1  0
  2 33  1  0
  2 34  1  0
  3 35  1  0
  3 36  1  0
  4 37  1  0
  4 38  1  0
  5 39  1  0
  5 40  1  0
  7 41  1  0
  7 42  1  0
  8 43  1  0
  8 44  1  0
  9 45  1  0
  9 46  1  0
 10 47  1  0
 10 48  1  0
 11 49  1  0
 11 50  1  0
 11 51  1  0
 12 52  1  0
 12 53  1  0
 13 54  1  0
 13 55  1  0
 14 56  1  0
 19 57  1  0
 19 58  1  0
 19 59  1  0
 21 60  1  0
 22 61  1  0
 23 62  1  0
 24 63  1  0
 26 64  1  0
 26 65  1  0
 27 66  1  0
 27 67  1  0
 28 68  1  0
 28 69  1  0
 29 70  1  0
 29 71  1  0
M  CHG  1  18   1
M  END
>  <UniqueID>  (19) 
18

>  <SMILES>  (19) 
CCCCCN(CCCCC)CCNc1c2c([n+](C)c3ccccc13)CCCC2

>  <Energy>  (19) 
88.06879800707016

>  <Genealogy>  (19) 
CCCCCN(CCCCC)CCNc1c2c([n+](C)c3ccccc13)CCCC2 (3D coordinates assigned)
CCCCCN(CCCCC)CCNc1c2c([n+](C)c3ccccc13)CCCC2 (nonaromatic ring conformer: 88.06879800707016 kcal/mol)

>  <smiles>  (19) 
CCCCCN(CCCCC)CCNc1c2c([n+](C)c3ccccc13)CCCC2

>  <score_type>  (19) 
oracle

>  <origin>  (19) 
adg

>  <m_score__min__energy>  (19) 
-9.2200000000000006

>  <m_primary>  (19) 
energy

$$$$
19:0
     RDKit          3D

 69 71  0  0  0  0  0  0  0  0999 V2000
   -6.1570   25.6570  -29.5870 C   0  0  0  0  0  0  0  0  0  0  0  0
   -5.2890   25.4790  -30.8410 C   0  0  0  0  0  0  0  0  0  0  0  0
   -5.4540   24.1730  -31.5300 N   0  0  0  0  0  0  0  0  0  0  0  0
   -6.8750   23.8230  -31.7030 C   0  0  0  0  0  0  0  0  0  0  0  0
   -4.7140   23.0480  -30.9160 C   0  0  0  0  0  0  0  0  0  0  0  0
   -3.9920   22.1910  -31.9680 C   0  0  0  0  0  0  0  0  0  0  0  0
   -4.8830   21.8990  -33.1040 N   0  0  0  0  0  0  0  0  0  0  0  0
   -5.2100   20.4820  -33.1550 C   0  0  0  0  0  0  0  0  0  0  0  0
   -6.4840   20.0180  -32.7310 C   0  0  0  0  0  0  0  0  0  0  0  0
   -7.4120   20.8720  -32.0860 C   0  0  0  0  0  0  0  0  0  0  0  0
   -8.6430   20.3940  -31.6440 C   0  0  0  0  0  0  0  0  0  0  0  0
   -8.9720   19.0570  -31.8140 C   0  0  0  0  0  0  0  0  0  0  0  0
   -8.0820   18.1930  -32.4450 C   0  0  0  0  0  0  0  0  0  0  0  0
   -6.8360   18.6560  -32.9410 C   0  0  0  0  0  0  0  0  0  0  0  0
   -5.9700   17.8090  -33.6020 N   0  0  0  0  0  0  0  0  0  0  0  0
   -6.4550   16.5100  -34.1200 C   0  0  0  0  0  0  0  0  0  0  0  0
   -4.6530   18.1790  -33.7890 C   0  0  0  0  0  0  0  0  0  0  0  0
   -3.6710   17.2290  -34.1620 C   0  0  0  0  0  0  0  0  0  0  0  0
   -2.3490   17.6020  -34.3820 C   0  0  0  0  0  0  0  0  0  0  0  0
   -1.9550   18.9350  -34.2220 C   0  0  0  0  0  0  0  0  0  0  0  0
   -0.6340   19.3660  -34.4300 O   0  0  0  0  0  0  0  0  0  0  0  0
   -0.1530   20.6980  -34.2480 C   0  0  0  0  0  0  0  0  0  0  0  0
    0.2680   20.9260  -32.7890 C   0  0  0  0  0  0  0  0  0  0  0  0
    0.9960   19.6940  -32.1820 C   0  0  0  0  0  0  0  0  0  0  0  0
    0.3240   19.0520  -31.0110 N   0  0  0  0  0  0  0  0  0  0  0  0
    1.2790   19.0540  -29.8750 C   0  0  0  0  0  0  0  0  0  0  0  0
   -0.0460   17.6460  -31.3010 C   0  0  0  0  0  0  0  0  0  0  0  0
   -0.8800   19.8140  -30.5970 C   0  0  0  0  0  0  0  0  0  0  0  0
   -2.8990   19.8800  -33.8180 C   0  0  0  0  0  0  0  0  0  0  0  0
   -4.2520   19.5270  -33.5890 C   0  0  0  0  0  0  0  0  0  0  0  0
   -5.5346   25.5294  -28.6891 H   0  0  0  0  0  0  0  0  0  0  0  0
   -6.5987   26.6644  -29.5868 H   0  0  0  0  0  0  0  0  0  0  0  0
   -6.9596   24.9047  -29.5868 H   0  0  0  0  0  0  0  0  0  0  0  0
   -5.5474   26.2769  -31.5527 H   0  0  0  0  0  0  0  0  0  0  0  0
   -4.2429   25.5222  -30.5035 H   0  0  0  0  0  0  0  0  0  0  0  0
   -7.3468   23.7068  -30.7161 H   0  0  0  0  0  0  0  0  0  0  0  0
   -7.3843   24.6226  -32.2610 H   0  0  0  0  0  0  0  0  0  0  0  0
   -6.9547   22.8784  -32.2610 H   0  0  0  0  0  0  0  0  0  0  0  0
   -3.9687   23.4533  -30.2158 H   0  0  0  0  0  0  0  0  0  0  0  0
   -5.4410   22.4067  -30.3962 H   0  0  0  0  0  0  0  0  0  0  0  0
   -3.1088   22.7358  -32.3329 H   0  0  0  0  0  0  0  0  0  0  0  0
   -3.6900   21.2411  -31.5028 H   0  0  0  0  0  0  0  0  0  0  0  0
   -4.4480   22.2140  -34.0000 H   0  0  0  0  0  0  0  0  0  0  0  0
   -5.7550   22.4720  -33.0430 H   0  0  0  0  0  0  0  0  0  0  0  0
   -7.1559   21.9306  -31.9317 H   0  0  0  0  0  0  0  0  0  0  0  0
   -9.3556   21.0776  -31.1593 H   0  0  0  0  0  0  0  0  0  0  0  0
   -9.9385   18.6790  -31.4492 H   0  0  0  0  0  0  0  0  0  0  0  0
   -8.3493   17.1323  -32.5613 H   0  0  0  0  0  0  0  0  0  0  0  0
   -6.7021   15.8482  -33.2768 H   0  0  0  0  0  0  0  0  0  0  0  0
   -7.3531   16.6724  -34.7341 H   0  0  0  0  0  0  0  0  0  0  0  0
   -5.6703   16.0441  -34.7341 H   0  0  0  0  0  0  0  0  0  0  0  0
   -3.9597   16.1742  -34.2802 H   0  0  0  0  0  0  0  0  0  0  0  0
   -1.6097   16.8452  -34.6832 H   0  0  0  0  0  0  0  0  0  0  0  0
    0.7143   20.8620  -34.9044 H   0  0  0  0  0  0  0  0  0  0  0  0
   -0.9589   21.4034  -34.4989 H   0  0  0  0  0  0  0  0  0  0  0  0
    0.9452   21.7918  -32.7481 H   0  0  0  0  0  0  0  0  0  0  0  0
   -0.6448   21.0995  -32.2001 H   0  0  0  0  0  0  0  0  0  0  0  0
    1.0926   18.9357  -32.9730 H   0  0  0  0  0  0  0  0  0  0  0  0
    1.9574   20.0719  -31.8040 H   0  0  0  0  0  0  0  0  0  0  0  0
    0.7211   19.0528  -28.9270 H   0  0  0  0  0  0  0  0  0  0  0  0
    1.9138   18.1572  -29.9280 H   0  0  0  0  0  0  0  0  0  0  0  0
    1.9100   19.9535  -29.9280 H   0  0  0  0  0  0  0  0  0  0  0  0
   -0.1891   17.1021  -30.3557 H   0  0  0  0  0  0  0  0  0  0  0  0
   -0.9803   17.6249  -31.8813 H   0  0  0  0  0  0  0  0  0  0  0  0
    0.7569   17.1678  -31.8813 H   0  0  0  0  0  0  0  0  0  0  0  0
   -0.9330   19.8476  -29.4988 H   0  0  0  0  0  0  0  0  0  0  0  0
   -0.8195   20.8386  -30.9926 H   0  0  0  0  0  0  0  0  0  0  0  0
   -1.7801   19.3208  -30.9926 H   0  0  0  0  0  0  0  0  0  0  0  0
   -2.5851   20.9244  -33.6738 H   0  0  0  0  0  0  0  0  0  0  0  0
  1  2  1  0
  2  3  1  0
  3  4  1  0
  3  5  1  0
  5  6  1  0
  6  7  1  0
  7  8  1  0
  8  9  2  0
  9 10  1  0
 10 11  2  0
 11 12  1  0
 12 13  2  0
 13 14  1  0
 14 15  2  0
 15 16  1  0
 15 17  1  0
 17 18  2  0
 18 19  1  0
 19 20  2  0
 20 21  1  0
 21 22  1  0
 22 23  1  0
 23 24  1  0
 24 25  1  0
 25 26  1  0
 25 27  1  0
 25 28  1  0
 20 29  1  0
 29 30  2  0
 30  8  1  0
 14  9  1  0
 30 17  1  0
  1 31  1  0
  1 32  1  0
  1 33  1  0
  2 34  1  0
  2 35  1  0
  4 36  1  0
  4 37  1  0
  4 38  1  0
  5 39  1  0
  5 40  1  0
  6 41  1  0
  6 42  1  0
  7 43  1  0
  7 44  1  0
 10 45  1  0
 11 46  1  0
 12 47  1  0
 13 48  1  0
 16 49  1  0
 16 50  1  0
 16 51  1  0
 18 52  1  0
 19 53  1  0
 22 54  1  0
 22 55  1  0
 23 56  1  0
 23 57  1  0
 24 58  1  0
 24 59  1  0
 26 60  1  0
 26 61  1  0
 26 62  1  0
 27 63  1  0
 27 64  1  0
 27 65  1  0
 28 66  1  0
 28 67  1  0
 28 68  1  0
 29 69  1  0
M  CHG  3   7   1  15   1  25   1
M  END
>  <UniqueID>  (20) 
19

>  <SMILES>  (20) 
CCN(C)CC[NH2+]c1c2ccccc2[n+](C)c2ccc(OCCC[N+](C)(C)C)cc12

>  <Energy>  (20) 
105.0715474388699

>  <Genealogy>  (20) 
CCN(C)CC[NH2+]c1c2ccccc2[n+](C)c2ccc(OCCC[N+](C)(C)C)cc12 (protonated)
CCN(C)CC[NH2+]c1c2ccccc2[n+](C)c2ccc(OCCC[N+](C)(C)C)cc12 (3D coordinates assigned)
CCN(C)CC[NH2+]c1c2ccccc2[n+](C)c2ccc(OCCC[N+](C)(C)C)cc12 (optimized conformer: 105.0715474388699 kcal/mol)

>  <smiles>  (20) 
CCN(C)CCNc1c2ccccc2[n+](C)c2ccc(OCCC[N+](C)(C)C)cc12

>  <score_type>  (20) 
oracle

>  <origin>  (20) 
adg

>  <m_score__min__energy>  (20) 
-7.0499999999999998

>  <m_primary>  (20) 
energy

$$$$
20:0
     RDKit          3D

 33 33  0  0  0  0  0  0  0  0999 V2000
   -8.4660   20.7310  -32.3210 C   0  0  0  0  0  0  0  0  0  0  0  0
   -8.9600   21.8710  -31.4380 C   0  0  0  0  0  0  0  0  0  0  0  0
   -8.1690   23.1290  -31.6980 C   0  0  0  0  0  0  0  0  0  0  0  0
   -8.4190   23.7820  -32.7030 O   0  0  0  0  0  0  0  0  0  0  0  0
   -7.1260   23.5620  -30.7810 N   0  0  1  0  0  0  0  0  0  0  0  0
   -6.5910   22.4190  -30.0200 C   0  0  0  0  0  0  0  0  0  0  0  0
   -5.1500   21.7090  -30.8770 S   0  0  0  0  0  0  0  0  0  0  0  0
   -5.0440   23.1270  -32.0000 C   0  0  0  0  0  0  0  0  0  0  0  0
   -6.0140   24.2070  -31.5100 C   0  0  2  0  0  0  0  0  0  0  0  0
   -5.3040   25.2150  -30.6340 C   0  0  0  0  0  0  0  0  0  0  0  0
   -5.9620   26.1100  -30.0370 O   0  0  0  0  0  0  0  0  0  0  0  0
   -3.8750   25.1650  -30.5260 N   0  0  0  0  0  0  0  0  0  0  0  0
   -3.1120   24.5830  -29.4190 C   0  0  0  0  0  0  0  0  0  0  0  0
   -2.2440   23.4170  -29.9000 C   0  0  0  0  0  0  0  0  0  0  0  0
   -4.0360   24.1690  -28.2700 C   0  0  0  0  0  0  0  0  0  0  0  0
   -8.1083   19.9055  -31.6881 H   0  0  0  0  0  0  0  0  0  0  0  0
   -9.2907   20.3753  -32.9561 H   0  0  0  0  0  0  0  0  0  0  0  0
   -7.6425   21.0895  -32.9561 H   0  0  0  0  0  0  0  0  0  0  0  0
  -10.0217   22.0610  -31.6542 H   0  0  0  0  0  0  0  0  0  0  0  0
   -8.8303   21.5835  -30.3842 H   0  0  0  0  0  0  0  0  0  0  0  0
   -7.5410   24.2420  -30.1010 H   0  0  0  0  0  0  0  0  0  0  0  0
   -6.2866   22.7597  -29.0194 H   0  0  0  0  0  0  0  0  0  0  0  0
   -7.3718   21.6490  -29.9343 H   0  0  0  0  0  0  0  0  0  0  0  0
   -4.0178   23.5230  -32.0022 H   0  0  0  0  0  0  0  0  0  0  0  0
   -5.3072   22.8191  -33.0227 H   0  0  0  0  0  0  0  0  0  0  0  0
   -6.4167   24.7532  -32.3757 H   0  0  0  0  0  0  0  0  0  0  0  0
   -2.4331   25.3561  -29.0298 H   0  0  0  0  0  0  0  0  0  0  0  0
   -1.8416   22.8764  -29.0306 H   0  0  0  0  0  0  0  0  0  0  0  0
   -2.8538   22.7321  -30.5075 H   0  0  0  0  0  0  0  0  0  0  0  0
   -1.4130   23.8048  -30.5075 H   0  0  0  0  0  0  0  0  0  0  0  0
   -3.5471   24.3880  -27.3092 H   0  0  0  0  0  0  0  0  0  0  0  0
   -4.9795   24.7304  -28.3377 H   0  0  0  0  0  0  0  0  0  0  0  0
   -4.2450   23.0912  -28.3377 H   0  0  0  0  0  0  0  0  0  0  0  0
  1  2  1  0
  2  3  1  0
  3  4  2  0
  3  5  1  0
  5  6  1  0
  6  7  1  0
  7  8  1  0
  8  9  1  0
  9 10  1  0
 10 11  2  0
 10 12  1  0
 12 13  1  0
 13 14  1  0
 13 15  1  0
  9  5  1  0
  1 16  1  0
  1 17  1  0
  1 18  1  0
  2 19  1  0
  2 20  1  0
  5 21  1  1
  6 22  1  0
  6 23  1  0
  8 24  1  0
  8 25  1  0
  9 26  1  6
 13 27  1  0
 14 28  1  0
 14 29  1  0
 14 30  1  0
 15 31  1  0
 15 32  1  0
 15 33  1  0
M  CHG  2   5   1  12  -1
M  END
>  <UniqueID>  (21) 
20

>  <SMILES>  (21) 
CCC(=O)[N@H+]1CSC[C@@H]1C(=O)[N-]C(C)C

>  <Energy>  (21) 
22.309573507315672

>  <Genealogy>  (21) 
CCC(=O)[NH+]1CSCC1C(=O)[N-]C(C)C (protonated)
CCC(=O)[N@H+]1CSC[C@@H]1C(=O)[N-]C(C)C (chirality)
CCC(=O)[N@H+]1CSC[C@@H]1C(=O)[N-]C(C)C (3D coordinates assigned)
CCC(=O)[N@H+]1CSC[C@@H]1C(=O)[N-]C(C)C (nonaromatic ring conformer: 22.309573507315672 kcal/mol)

>  <smiles>  (21) 
CCC(=O)N1CSCC1C(=O)NC(C)C

>  <score_type>  (21) 
oracle

>  <origin>  (21) 
adg

>  <m_score__min__energy>  (21) 
-6.75

>  <m_primary>  (21) 
energy

$$$$
21:0
     RDKit          3D

 33 34  0  0  0  0  0  0  0  0999 V2000
   -2.1020   25.1910  -26.7470 C   0  0  0  0  0  0  0  0  0  0  0  0
   -3.5580   24.9440  -26.3420 C   0  0  0  0  0  0  0  0  0  0  0  0
   -4.3860   24.5120  -27.4830 N   0  0  0  0  0  0  0  0  0  0  0  0
   -3.9010   23.3170  -28.1390 C   0  0  0  0  0  0  0  0  0  0  0  0
   -3.5200   22.2040  -27.4440 N   0  0  0  0  0  0  0  0  0  0  0  0
   -3.1380   21.1910  -28.2500 C   0  0  0  0  0  0  0  0  0  0  0  0
   -3.2820   21.6210  -29.8640 S   0  0  0  0  0  0  0  0  0  0  0  0
   -3.8540   23.1690  -29.5340 C   0  0  0  0  0  0  0  0  0  0  0  0
   -4.2650   24.1340  -30.5700 C   0  0  0  0  0  0  0  0  0  0  0  0
   -3.9940   25.3590  -30.4500 O   0  0  0  0  0  0  0  0  0  0  0  0
   -4.9930   23.6710  -31.7130 N   0  0  0  0  0  0  0  0  0  0  0  0
   -6.4310   23.8460  -31.8800 C   0  0  0  0  0  0  0  0  0  0  0  0
   -7.1140   22.5080  -31.9580 C   0  0  0  0  0  0  0  0  0  0  0  0
   -6.3940   21.3750  -32.3700 C   0  0  0  0  0  0  0  0  0  0  0  0
   -7.0180   20.1240  -32.4230 C   0  0  0  0  0  0  0  0  0  0  0  0
   -8.3620   19.9960  -32.0600 C   0  0  0  0  0  0  0  0  0  0  0  0
   -8.9640   18.7830  -32.1100 F   0  0  0  0  0  0  0  0  0  0  0  0
   -9.0830   21.1180  -31.6430 C   0  0  0  0  0  0  0  0  0  0  0  0
   -8.4630   22.3700  -31.5900 C   0  0  0  0  0  0  0  0  0  0  0  0
   -1.4830   25.2960  -25.8438 H   0  0  0  0  0  0  0  0  0  0  0  0
   -1.7384   24.3417  -27.3441 H   0  0  0  0  0  0  0  0  0  0  0  0
   -2.0388   26.1127  -27.3441 H   0  0  0  0  0  0  0  0  0  0  0  0
   -3.5832   24.1616  -25.5692 H   0  0  0  0  0  0  0  0  0  0  0  0
   -3.9698   25.8916  -25.9645 H   0  0  0  0  0  0  0  0  0  0  0  0
   -5.3520   24.3160  -27.1330 H   0  0  0  0  0  0  0  0  0  0  0  0
   -4.4330   25.2950  -28.1740 H   0  0  0  0  0  0  0  0  0  0  0  0
   -2.7798   20.2134  -27.8951 H   0  0  0  0  0  0  0  0  0  0  0  0
   -6.8302   24.4078  -31.0227 H   0  0  0  0  0  0  0  0  0  0  0  0
   -6.6184   24.3984  -32.8126 H   0  0  0  0  0  0  0  0  0  0  0  0
   -5.3352   21.4715  -32.6522 H   0  0  0  0  0  0  0  0  0  0  0  0
   -6.4507   19.2403  -32.7506 H   0  0  0  0  0  0  0  0  0  0  0  0
  -10.1400   21.0160  -31.3560 H   0  0  0  0  0  0  0  0  0  0  0  0
   -9.0334   23.2503  -31.2590 H   0  0  0  0  0  0  0  0  0  0  0  0
  1  2  1  0
  2  3  1  0
  3  4  1  0
  4  5  1  0
  5  6  2  0
  6  7  1  0
  7  8  1  0
  8  9  1  0
  9 10  2  0
  9 11  1  0
 11 12  1  0
 12 13  1  0
 13 14  2  0
 14 15  1  0
 15 16  2  0
 16 17  1  0
 16 18  1  0
 18 19  2  0
  8  4  2  0
 19 13  1  0
  1 20  1  0
  1 21  1  0
  1 22  1  0
  2 23  1  0
  2 24  1  0
  3 25  1  0
  3 26  1  0
  6 27  1  0
 12 28  1  0
 12 29  1  0
 14 30  1  0
 15 31  1  0
 18 32  1  0
 19 33  1  0
M  CHG  2   3   1  11  -1
M  END
>  <UniqueID>  (22) 
21

>  <SMILES>  (22) 
CC[NH2+]c1ncsc1C(=O)[N-]Cc1ccc(F)cc1

>  <Energy>  (22) 
61.83573571864574

>  <Genealogy>  (22) 
CC[NH2+]c1ncsc1C(=O)[N-]Cc1ccc(F)cc1 (protonated)
CC[NH2+]c1ncsc1C(=O)[N-]Cc1ccc(F)cc1 (3D coordinates assigned)
CC[NH2+]c1ncsc1C(=O)[N-]Cc1ccc(F)cc1 (optimized conformer: 61.83573571864574 kcal/mol)

>  <smiles>  (22) 
CCNc1ncsc1C(=O)NCc1ccc(F)cc1

>  <score_type>  (22) 
oracle

>  <origin>  (22) 
adg

>  <m_score__min__energy>  (22) 
-7.5700000000000003

>  <m_primary>  (22) 
energy

$$$$
22:0
     RDKit          3D

 52 54  0  0  0  0  0  0  0  0999 V2000
   -5.6220   25.5820  -30.4630 C   0  0  0  0  0  0  0  0  0  0  0  0
   -5.1000   24.3920  -29.6530 C   0  0  0  0  0  0  0  0  0  0  0  0
   -3.6970   24.0220  -29.9500 N   0  0  0  0  0  0  0  0  0  0  0  0
   -2.7220   24.5510  -28.9800 C   0  0  0  0  0  0  0  0  0  0  0  0
   -3.4820   22.6180  -30.3820 C   0  0  0  0  0  0  0  0  0  0  0  0
   -2.0080   22.1800  -30.4570 C   0  0  0  0  0  0  0  0  0  0  0  0
   -1.8000   21.4790  -31.6690 O   0  0  0  0  0  0  0  0  0  0  0  0
   -0.4190   21.4100  -31.9760 C   0  0  0  0  0  0  0  0  0  0  0  0
   -0.2200   21.1470  -33.4750 C   0  0  0  0  0  0  0  0  0  0  0  0
   -1.5120   21.0690  -34.1730 N   0  0  0  0  0  0  0  0  0  0  0  0
   -1.9960   19.6810  -34.2210 C   0  0  0  0  0  0  0  0  0  0  0  0
   -3.4270   19.6170  -33.7500 C   0  0  0  0  0  0  0  0  0  0  0  0
   -4.1420   18.4180  -33.8170 C   0  0  0  0  0  0  0  0  0  0  0  0
   -5.4860   18.3890  -33.4580 C   0  0  0  0  0  0  0  0  0  0  0  0
   -6.1220   19.5660  -33.0430 C   0  0  0  0  0  0  0  0  0  0  0  0
   -7.4860   19.5270  -32.7070 C   0  0  0  0  0  0  0  0  0  0  0  0
   -8.0750   20.7150  -32.3080 C   0  0  0  0  0  0  0  0  0  0  0  0
   -9.3820   20.9360  -31.9330 C   0  0  0  0  0  0  0  0  0  0  0  0
   -9.4590   22.2870  -31.6180 C   0  0  0  0  0  0  0  0  0  0  0  0
   -8.1970   22.8240  -31.8200 C   0  0  0  0  0  0  0  0  0  0  0  0
   -7.3670   21.8490  -32.2410 N   0  0  0  0  0  0  0  0  0  0  0  0
   -6.0490   21.9080  -32.5650 C   0  0  0  0  0  0  0  0  0  0  0  0
   -5.4310   23.0070  -32.4920 O   0  0  0  0  0  0  0  0  0  0  0  0
   -5.4110   20.7570  -32.9740 N   0  0  0  0  0  0  0  0  0  0  0  0
   -4.0850   20.7810  -33.3230 C   0  0  0  0  0  0  0  0  0  0  0  0
   -5.9674   26.3693  -29.7768 H   0  0  0  0  0  0  0  0  0  0  0  0
   -4.8143   25.9766  -31.0970 H   0  0  0  0  0  0  0  0  0  0  0  0
   -6.4593   25.2550  -31.0970 H   0  0  0  0  0  0  0  0  0  0  0  0
   -5.1711   24.6445  -28.5847 H   0  0  0  0  0  0  0  0  0  0  0  0
   -5.7197   23.5262  -29.9294 H   0  0  0  0  0  0  0  0  0  0  0  0
   -3.0794   24.3571  -27.9579 H   0  0  0  0  0  0  0  0  0  0  0  0
   -1.7510   24.0560  -29.1290 H   0  0  0  0  0  0  0  0  0  0  0  0
   -2.6077   25.6349  -29.1290 H   0  0  0  0  0  0  0  0  0  0  0  0
   -3.9983   21.9585  -29.6689 H   0  0  0  0  0  0  0  0  0  0  0  0
   -3.8768   22.5471  -31.4063 H   0  0  0  0  0  0  0  0  0  0  0  0
   -1.3572   23.0663  -30.4265 H   0  0  0  0  0  0  0  0  0  0  0  0
   -1.7684   21.5287  -29.6035 H   0  0  0  0  0  0  0  0  0  0  0  0
    0.0606   22.3629  -31.7078 H   0  0  0  0  0  0  0  0  0  0  0  0
    0.0343   20.5866  -31.4046 H   0  0  0  0  0  0  0  0  0  0  0  0
    0.3738   21.9655  -33.9080 H   0  0  0  0  0  0  0  0  0  0  0  0
    0.3018   20.1862  -33.5957 H   0  0  0  0  0  0  0  0  0  0  0  0
   -1.3890   21.4260  -35.1510 H   0  0  0  0  0  0  0  0  0  0  0  0
   -2.2190   21.6560  -33.6720 H   0  0  0  0  0  0  0  0  0  0  0  0
   -1.9358   19.3098  -35.2547 H   0  0  0  0  0  0  0  0  0  0  0  0
   -1.3715   19.0580  -33.5639 H   0  0  0  0  0  0  0  0  0  0  0  0
   -3.6424   17.4976  -34.1534 H   0  0  0  0  0  0  0  0  0  0  0  0
   -6.0477   17.4441  -33.5000 H   0  0  0  0  0  0  0  0  0  0  0  0
   -8.0620   18.5913  -32.7588 H   0  0  0  0  0  0  0  0  0  0  0  0
  -10.1954   20.1967  -31.8916 H   0  0  0  0  0  0  0  0  0  0  0  0
  -10.3525   22.8282  -31.2734 H   0  0  0  0  0  0  0  0  0  0  0  0
   -7.9180   23.8762  -31.6621 H   0  0  0  0  0  0  0  0  0  0  0  0
   -3.5280   21.7279  -33.2674 H   0  0  0  0  0  0  0  0  0  0  0  0
  1  2  1  0
  2  3  1  0
  3  4  1  0
  3  5  1  0
  5  6  1  0
  6  7  1  0
  7  8  1  0
  8  9  1  0
  9 10  1  0
 10 11  1  0
 11 12  1  0
 12 13  1  0
 13 14  2  0
 14 15  1  0
 15 16  2  0
 16 17  1  0
 17 18  2  0
 18 19  1  0
 19 20  2  0
 20 21  1  0
 21 22  1  0
 22 23  2  0
 22 24  1  0
 24 25  1  0
 25 12  2  0
 24 15  1  0
 21 17  1  0
  1 26  1  0
  1 27  1  0
  1 28  1  0
  2 29  1  0
  2 30  1  0
  4 31  1  0
  4 32  1  0
  4 33  1  0
  5 34  1  0
  5 35  1  0
  6 36  1  0
  6 37  1  0
  8 38  1  0
  8 39  1  0
  9 40  1  0
  9 41  1  0
 10 42  1  0
 10 43  1  0
 11 44  1  0
 11 45  1  0
 13 46  1  0
 14 47  1  0
 16 48  1  0
 18 49  1  0
 19 50  1  0
 20 51  1  0
 25 52  1  0
M  CHG  1  10   1
M  END
>  <UniqueID>  (23) 
22

>  <SMILES>  (23) 
CCN(C)CCOCC[NH2+]Cc1ccc2cc3cccn3c(=O)n2c1

>  <Energy>  (23) 
94.6672441466226

>  <Genealogy>  (23) 
CCN(C)CCOCC[NH2+]Cc1ccc2cc3cccn3c(=O)n2c1 (protonated)
CCN(C)CCOCC[NH2+]Cc1ccc2cc3cccn3c(=O)n2c1 (3D coordinates assigned)
CCN(C)CCOCC[NH2+]Cc1ccc2cc3cccn3c(=O)n2c1 (optimized conformer: 94.6672441466226 kcal/mol)

>  <smiles>  (23) 
CCN(C)CCOCCNCc1ccc2cc3cccn3c(=O)n2c1

>  <score_type>  (23) 
oracle

>  <origin>  (23) 
adg

>  <m_score__min__energy>  (23) 
-7.1299999999999999

>  <m_primary>  (23) 
energy

$$$$
