0:0
     RDKit          3D

 44 46  0  0  0  0  0  0  0  0999 V2000
   -7.0890   23.8140  -31.5850 C   0  0  0  0  0  0  0  0  0  0  0  0
   -5.7760   24.0160  -30.9100 C   0  0  0  0  0  0  0  0  0  0  0  0
   -5.3000   23.2150  -29.9380 N   0  0  0  0  0  0  0  0  0  0  0  0
   -4.1030   23.7900  -29.6930 C   0  0  0  0  0  0  0  0  0  0  0  0
   -3.1520   23.3050  -28.6410 C   0  0  0  0  0  0  0  0  0  0  0  0
   -2.2540   22.2630  -29.1820 N   0  0  0  0  0  0  0  0  0  0  0  0
   -1.6460   22.6860  -30.4690 C   0  0  0  0  0  0  0  0  0  0  0  0
   -1.2020   21.4800  -31.3090 C   0  0  0  0  0  0  0  0  0  0  0  0
   -2.3430   20.6010  -31.6710 N   0  0  0  0  0  0  0  0  0  0  0  0
   -2.8240   20.8790  -33.0420 C   0  0  0  0  0  0  0  0  0  0  0  0
   -4.2900   21.3390  -33.0400 C   0  0  0  0  0  0  0  0  0  0  0  0
   -5.1410   20.3210  -33.5690 O   0  0  0  0  0  0  0  0  0  0  0  0
   -6.3210   19.8510  -32.9700 C   0  0  0  0  0  0  0  0  0  0  0  0
   -7.3420   20.7740  -32.7080 C   0  0  0  0  0  0  0  0  0  0  0  0
   -8.5370   20.3620  -32.1110 C   0  0  0  0  0  0  0  0  0  0  0  0
   -8.7220   19.0210  -31.7700 C   0  0  0  0  0  0  0  0  0  0  0  0
   -7.7110   18.0900  -32.0230 C   0  0  0  0  0  0  0  0  0  0  0  0
   -6.5130   18.4980  -32.6180 C   0  0  0  0  0  0  0  0  0  0  0  0
   -3.4510   20.6500  -30.6830 C   0  0  0  0  0  0  0  0  0  0  0  0
   -2.9390   20.9480  -29.2650 C   0  0  0  0  0  0  0  0  0  0  0  0
   -3.8740   24.8700  -30.4650 N   0  0  0  0  0  0  0  0  0  0  0  0
   -4.9320   24.9720  -31.2100 O   0  0  0  0  0  0  0  0  0  0  0  0
   -7.8764   23.6929  -30.8265 H   0  0  0  0  0  0  0  0  0  0  0  0
   -7.3165   24.6877  -32.2134 H   0  0  0  0  0  0  0  0  0  0  0  0
   -7.0434   22.9123  -32.2134 H   0  0  0  0  0  0  0  0  0  0  0  0
   -2.5473   24.1518  -28.2841 H   0  0  0  0  0  0  0  0  0  0  0  0
   -3.7338   22.8727  -27.8136 H   0  0  0  0  0  0  0  0  0  0  0  0
   -2.3865   23.2653  -31.0400 H   0  0  0  0  0  0  0  0  0  0  0  0
   -0.7575   23.2949  -30.2456 H   0  0  0  0  0  0  0  0  0  0  0  0
   -0.7291   21.8457  -32.2324 H   0  0  0  0  0  0  0  0  0  0  0  0
   -0.4967   20.8887  -30.7065 H   0  0  0  0  0  0  0  0  0  0  0  0
   -2.2015   21.6698  -33.4861 H   0  0  0  0  0  0  0  0  0  0  0  0
   -2.7535   19.9509  -33.6282 H   0  0  0  0  0  0  0  0  0  0  0  0
   -4.5959   21.5646  -32.0078 H   0  0  0  0  0  0  0  0  0  0  0  0
   -4.3792   22.2362  -33.6701 H   0  0  0  0  0  0  0  0  0  0  0  0
   -7.2021   21.8320  -32.9744 H   0  0  0  0  0  0  0  0  0  0  0  0
   -9.3321   21.0950  -31.9098 H   0  0  0  0  0  0  0  0  0  0  0  0
   -9.6635   18.6972  -31.3022 H   0  0  0  0  0  0  0  0  0  0  0  0
   -7.8579   17.0337  -31.7535 H   0  0  0  0  0  0  0  0  0  0  0  0
   -5.7184   17.7625  -32.8121 H   0  0  0  0  0  0  0  0  0  0  0  0
   -4.1577   21.4391  -30.9795 H   0  0  0  0  0  0  0  0  0  0  0  0
   -3.9407   19.6651  -30.6696 H   0  0  0  0  0  0  0  0  0  0  0  0
   -3.7937   20.9492  -28.5725 H   0  0  0  0  0  0  0  0  0  0  0  0
   -2.2094   20.1692  -28.9982 H   0  0  0  0  0  0  0  0  0  0  0  0
  1  2  1  0
  2  3  2  0
  3  4  1  0
  4  5  1  0
  5  6  1  0
  6  7  1  0
  7  8  1  0
  8  9  1  0
  9 10  1  0
 10 11  1  0
 11 12  1  0
 12 13  1  0
 13 14  2  0
 14 15  1  0
 15 16  2  0
 16 17  1  0
 17 18  2  0
  9 19  1  0
 19 20  1  0
  4 21  2  0
 21 22  1  0
 22  2  1  0
 20  6  1  0
 18 13  1  0
  1 23  1  0
  1 24  1  0
  1 25  1  0
  5 26  1  0
  5 27  1  0
  7 28  1  0
  7 29  1  0
  8 30  1  0
  8 31  1  0
 10 32  1  0
 10 33  1  0
 11 34  1  0
 11 35  1  0
 14 36  1  0
 15 37  1  0
 16 38  1  0
 17 39  1  0
 18 40  1  0
 19 41  1  0
 19 42  1  0
 20 43  1  0
 20 44  1  0
M  END
>  <UniqueID>  (1) 
1

>  <SMILES>  (1) 
Cc1nc(CN2CCN(CCOc3ccccc3)CC2)no1

>  <Energy>  (1) 
88.77201085025331

>  <Genealogy>  (1) 
Cc1nc(CN2CCN(CCOc3ccccc3)CC2)no1 (3D coordinates assigned)
Cc1nc(CN2CCN(CCOc3ccccc3)CC2)no1 (nonaromatic ring conformer: 88.77201085025331 kcal/mol)

>  <smiles>  (1) 
Cc1nc(CN2CCN(CCOc3ccccc3)CC2)no1

>  <score_type>  (1) 
oracle

>  <origin>  (1) 
adg

>  <m_score__min__energy>  (1) 
-8.1699999999999999

>  <m_primary>  (1) 
energy

$$$$
1:0
     RDKit          3D

 50 52  0  0  0  0  0  0  0  0999 V2000
   -2.9830   21.0310  -29.7820 C   0  0  0  0  0  0  0  0  0  0  0  0
   -1.8810   21.9090  -30.3650 C   0  0  0  0  0  0  0  0  0  0  0  0
   -2.3550   23.2310  -30.5440 O   0  0  0  0  0  0  0  0  0  0  0  0
   -2.5610   23.8570  -29.2950 C   0  0  0  0  0  0  0  0  0  0  0  0
   -3.9350   24.5320  -29.2760 C   0  0  0  0  0  0  0  0  0  0  0  0
   -4.2170   25.2320  -30.5400 N   0  0  0  0  0  0  0  0  0  0  0  0
   -5.5280   24.8780  -31.1110 C   0  0  0  0  0  0  0  0  0  0  0  0
   -5.6820   23.3560  -31.1240 C   0  0  0  0  0  0  0  0  0  0  0  0
   -5.6050   22.8360  -32.4870 N   0  0  0  0  0  0  0  0  0  0  0  0
   -5.7070   21.4240  -32.7270 C   0  0  0  0  0  0  0  0  0  0  0  0
   -6.9270   20.7580  -32.5220 C   0  0  0  0  0  0  0  0  0  0  0  0
   -8.0410   21.4400  -31.9890 C   0  0  0  0  0  0  0  0  0  0  0  0
   -9.2420   20.7710  -31.7600 C   0  0  0  0  0  0  0  0  0  0  0  0
   -9.3420   19.4120  -32.0300 C   0  0  0  0  0  0  0  0  0  0  0  0
   -8.2500   18.7140  -32.5480 C   0  0  0  0  0  0  0  0  0  0  0  0
   -7.0280   19.3740  -32.8330 C   0  0  0  0  0  0  0  0  0  0  0  0
   -5.9490   18.7050  -33.3780 N   0  0  0  0  0  0  0  0  0  0  0  0
   -6.1330   17.3570  -33.9600 C   0  0  0  0  0  0  0  0  0  0  0  0
   -4.7020   19.3060  -33.4040 C   0  0  0  0  0  0  0  0  0  0  0  0
   -3.5250   18.5740  -33.7020 C   0  0  0  0  0  0  0  0  0  0  0  0
   -2.2860   19.2080  -33.7880 C   0  0  0  0  0  0  0  0  0  0  0  0
   -2.1810   20.5780  -33.5700 C   0  0  0  0  0  0  0  0  0  0  0  0
   -0.6210   21.3700  -33.6970 Cl  0  0  0  0  0  0  0  0  0  0  0  0
   -3.3130   21.3170  -33.2320 C   0  0  0  0  0  0  0  0  0  0  0  0
   -4.5740   20.6910  -33.1170 C   0  0  0  0  0  0  0  0  0  0  0  0
   -2.9379   21.0670  -28.6835 H   0  0  0  0  0  0  0  0  0  0  0  0
   -3.9627   21.3988  -30.1210 H   0  0  0  0  0  0  0  0  0  0  0  0
   -2.8434   19.9939  -30.1210 H   0  0  0  0  0  0  0  0  0  0  0  0
   -1.0228   21.9204  -29.6770 H   0  0  0  0  0  0  0  0  0  0  0  0
   -1.5743   21.5017  -31.3397 H   0  0  0  0  0  0  0  0  0  0  0  0
   -2.5132   23.1027  -28.4957 H   0  0  0  0  0  0  0  0  0  0  0  0
   -1.7805   24.6154  -29.1347 H   0  0  0  0  0  0  0  0  0  0  0  0
   -4.7065   23.7649  -29.1139 H   0  0  0  0  0  0  0  0  0  0  0  0
   -3.9401   25.2750  -28.4648 H   0  0  0  0  0  0  0  0  0  0  0  0
   -3.4750   24.9500  -31.2240 H   0  0  0  0  0  0  0  0  0  0  0  0
   -6.3269   25.3225  -30.4993 H   0  0  0  0  0  0  0  0  0  0  0  0
   -5.5973   25.2632  -32.1390 H   0  0  0  0  0  0  0  0  0  0  0  0
   -4.8784   22.9075  -30.5215 H   0  0  0  0  0  0  0  0  0  0  0  0
   -6.6658   23.0987  -30.7047 H   0  0  0  0  0  0  0  0  0  0  0  0
   -5.6370   23.4870  -33.3050 H   0  0  0  0  0  0  0  0  0  0  0  0
   -7.9609   22.5111  -31.7516 H   0  0  0  0  0  0  0  0  0  0  0  0
  -10.1105   21.3189  -31.3656 H   0  0  0  0  0  0  0  0  0  0  0  0
  -10.2866   18.8833  -31.8346 H   0  0  0  0  0  0  0  0  0  0  0  0
   -8.3389   17.6342  -32.7382 H   0  0  0  0  0  0  0  0  0  0  0  0
   -6.2338   16.6188  -33.1507 H   0  0  0  0  0  0  0  0  0  0  0  0
   -7.0409   17.3465  -34.5810 H   0  0  0  0  0  0  0  0  0  0  0  0
   -5.2611   17.1036  -34.5810 H   0  0  0  0  0  0  0  0  0  0  0  0
   -3.5902   17.4886  -33.8680 H   0  0  0  0  0  0  0  0  0  0  0  0
   -1.3870   18.6219  -34.0294 H   0  0  0  0  0  0  0  0  0  0  0  0
   -3.2237   22.3986  -33.0530 H   0  0  0  0  0  0  0  0  0  0  0  0
  1  2  1  0
  2  3  1  0
  3  4  1  0
  4  5  1  0
  5  6  1  0
  6  7  1  0
  7  8  1  0
  8  9  1  0
  9 10  1  0
 10 11  2  0
 11 12  1  0
 12 13  2  0
 13 14  1  0
 14 15  2  0
 15 16  1  0
 16 17  2  0
 17 18  1  0
 17 19  1  0
 19 20  2  0
 20 21  1  0
 21 22  2  0
 22 23  1  0
 22 24  1  0
 24 25  2  0
 25 10  1  0
 16 11  1  0
 25 19  1  0
  1 26  1  0
  1 27  1  0
  1 28  1  0
  2 29  1  0
  2 30  1  0
  4 31  1  0
  4 32  1  0
  5 33  1  0
  5 34  1  0
  6 35  1  0
  7 36  1  0
  7 37  1  0
  8 38  1  0
  8 39  1  0
  9 40  1  0
 12 41  1  0
 13 42  1  0
 14 43  1  0
 15 44  1  0
 18 45  1  0
 18 46  1  0
 18 47  1  0
 20 48  1  0
 21 49  1  0
 24 50  1  0
M  CHG  1  17   1
M  END
>  <UniqueID>  (2) 
2

>  <SMILES>  (2) 
CCOCCNCCNc1c2ccccc2[n+](C)c2ccc(Cl)cc12

>  <Energy>  (2) 
73.27809085146673

>  <Genealogy>  (2) 
CCOCCNCCNc1c2ccccc2[n+](C)c2ccc(Cl)cc12 (3D coordinates assigned)
CCOCCNCCNc1c2ccccc2[n+](C)c2ccc(Cl)cc12 (optimized conformer: 73.27809085146673 kcal/mol)

>  <smiles>  (2) 
CCOCCNCCNc1c2ccccc2[n+](C)c2ccc(Cl)cc12

>  <score_type>  (2) 
oracle

>  <origin>  (2) 
adg

>  <m_score__min__energy>  (2) 
-9.2699999999999996

>  <m_primary>  (2) 
energy

$$$$
2:0
     RDKit          3D

 35 37  0  0  0  0  0  0  0  0999 V2000
   -2.7210   21.0500  -32.5570 C   0  0  0  0  0  0  0  0  0  0  0  0
   -3.1560   22.1630  -31.6110 C   0  0  0  0  0  0  0  0  0  0  0  0
   -4.3110   22.8300  -32.1160 O   0  0  0  0  0  0  0  0  0  0  0  0
   -5.1310   23.6640  -31.3450 C   0  0  0  0  0  0  0  0  0  0  0  0
   -4.6520   24.8510  -30.8760 N   0  0  0  0  0  0  0  0  0  0  0  0
   -5.3990   25.6750  -30.0960 C   0  0  0  0  0  0  0  0  0  0  0  0
   -6.6980   25.3130  -29.7440 C   0  0  0  0  0  0  0  0  0  0  0  0
   -7.2210   24.1070  -30.2100 C   0  0  0  0  0  0  0  0  0  0  0  0
   -6.4490   23.2700  -31.0320 C   0  0  0  0  0  0  0  0  0  0  0  0
   -7.0210   21.9990  -31.5320 C   0  0  0  0  0  0  0  0  0  0  0  0
   -6.2920   20.9240  -31.9110 N   0  0  0  0  0  0  0  0  0  0  0  0
   -7.0620   19.8860  -32.3490 C   0  0  0  0  0  0  0  0  0  0  0  0
   -6.4770   18.6010  -32.8100 C   0  0  0  0  0  0  0  0  0  0  0  0
   -6.1060   18.4220  -34.1560 C   0  0  0  0  0  0  0  0  0  0  0  0
   -5.5560   17.2090  -34.5830 C   0  0  0  0  0  0  0  0  0  0  0  0
   -5.3730   16.1630  -33.6760 C   0  0  0  0  0  0  0  0  0  0  0  0
   -4.6220   14.5080  -34.2640 Br  0  0  0  0  0  0  0  0  0  0  0  0
   -5.7400   16.3290  -32.3380 C   0  0  0  0  0  0  0  0  0  0  0  0
   -6.2890   17.5400  -31.9060 C   0  0  0  0  0  0  0  0  0  0  0  0
   -8.4340   20.1420  -32.3300 C   0  0  0  0  0  0  0  0  0  0  0  0
   -8.6630   21.7020  -31.7480 S   0  0  0  0  0  0  0  0  0  0  0  0
   -2.3820   20.1827  -31.9714 H   0  0  0  0  0  0  0  0  0  0  0  0
   -3.5700   20.7551  -33.1912 H   0  0  0  0  0  0  0  0  0  0  0  0
   -1.8970   21.4090  -33.1912 H   0  0  0  0  0  0  0  0  0  0  0  0
   -3.3901   21.7301  -30.6273 H   0  0  0  0  0  0  0  0  0  0  0  0
   -2.3370   22.8919  -31.5216 H   0  0  0  0  0  0  0  0  0  0  0  0
   -4.9786   26.6280  -29.7422 H   0  0  0  0  0  0  0  0  0  0  0  0
   -7.3046   25.9717  -29.1052 H   0  0  0  0  0  0  0  0  0  0  0  0
   -8.2431   23.8100  -29.9324 H   0  0  0  0  0  0  0  0  0  0  0  0
   -5.2480   20.9140  -31.9260 H   0  0  0  0  0  0  0  0  0  0  0  0
   -6.2495   19.2409  -34.8763 H   0  0  0  0  0  0  0  0  0  0  0  0
   -5.2668   17.0785  -35.6362 H   0  0  0  0  0  0  0  0  0  0  0  0
   -5.5967   15.5053  -31.6232 H   0  0  0  0  0  0  0  0  0  0  0  0
   -6.5760   17.6640  -30.8514 H   0  0  0  0  0  0  0  0  0  0  0  0
   -9.2262   19.4452  -32.6413 H   0  0  0  0  0  0  0  0  0  0  0  0
  1  2  1  0
  2  3  1  0
  3  4  1  0
  4  5  2  0
  5  6  1  0
  6  7  2  0
  7  8  1  0
  8  9  2  0
  9 10  1  0
 10 11  2  0
 11 12  1  0
 12 13  1  0
 13 14  2  0
 14 15  1  0
 15 16  2  0
 16 17  1  0
 16 18  1  0
 18 19  2  0
 12 20  2  0
 20 21  1  0
  9  4  1  0
 21 10  1  0
 19 13  1  0
  1 22  1  0
  1 23  1  0
  1 24  1  0
  2 25  1  0
  2 26  1  0
  6 27  1  0
  7 28  1  0
  8 29  1  0
 11 30  1  0
 14 31  1  0
 15 32  1  0
 18 33  1  0
 19 34  1  0
 20 35  1  0
M  CHG  1  11   1
M  END
>  <UniqueID>  (3) 
3

>  <SMILES>  (3) 
CCOc1ncccc1-c1[nH+]c(-c2ccc(Br)cc2)cs1

>  <Energy>  (3) 
70.50056749359

>  <Genealogy>  (3) 
CCOc1ncccc1-c1[nH+]c(-c2ccc(Br)cc2)cs1 (protonated)
CCOc1ncccc1-c1[nH+]c(-c2ccc(Br)cc2)cs1 (3D coordinates assigned)
CCOc1ncccc1-c1[nH+]c(-c2ccc(Br)cc2)cs1 (optimized conformer: 70.50056749359 kcal/mol)

>  <smiles>  (3) 
CCOc1ncccc1-c1nc(-c2ccc(Br)cc2)cs1

>  <score_type>  (3) 
oracle

>  <origin>  (3) 
adg

>  <m_score__min__energy>  (3) 
-7.5800000000000001

>  <m_primary>  (3) 
energy

$$$$
3:0
     RDKit          3D

 68 71  0  0  0  0  0  0  0  0999 V2000
   -3.3970   20.4700  -33.4440 C   0  0  0  0  0  0  0  0  0  0  0  0
   -2.6050   19.1920  -33.7620 C   0  0  0  0  0  0  0  0  0  0  0  0
   -1.3380   19.0820  -32.8950 C   0  0  0  0  0  0  0  0  0  0  0  0
   -3.4310   17.9540  -33.7480 N   0  0  0  0  0  0  0  0  0  0  0  0
   -4.2860   17.6860  -34.9250 C   0  0  0  0  0  0  0  0  0  0  0  0
   -5.7800   17.6630  -34.5980 C   0  0  0  0  0  0  0  0  0  0  0  0
   -5.9800   17.9670  -33.2190 O   0  0  0  0  0  0  0  0  0  0  0  0
   -6.8820   18.9370  -32.7580 C   0  0  0  0  0  0  0  0  0  0  0  0
   -8.1590   18.5180  -32.3130 C   0  0  0  0  0  0  0  0  0  0  0  0
   -9.1120   19.4550  -31.8720 C   0  0  0  0  0  0  0  0  0  0  0  0
   -8.7570   20.8000  -31.8840 C   0  0  0  0  0  0  0  0  0  0  0  0
   -9.4840   21.9250  -31.5470 C   0  0  0  0  0  0  0  0  0  0  0  0
   -8.6320   22.9990  -31.7810 C   0  0  0  0  0  0  0  0  0  0  0  0
   -7.4320   22.5620  -32.2320 N   0  0  0  0  0  0  0  0  0  0  0  0
   -6.2900   23.3930  -32.6190 C   0  0  0  0  0  0  0  0  0  0  0  0
   -6.0720   24.5240  -31.6020 C   0  0  0  0  0  0  0  0  0  0  0  0
   -4.8540   24.2790  -30.8000 N   0  0  0  0  0  0  0  0  0  0  0  0
   -5.1900   24.1820  -29.3660 C   0  0  0  0  0  0  0  0  0  0  0  0
   -3.9070   24.1990  -28.5320 C   0  0  0  0  0  0  0  0  0  0  0  0
   -2.8720   23.2450  -29.0680 C   0  0  0  0  0  0  0  0  0  0  0  0
   -1.7580   22.9230  -28.2780 C   0  0  0  0  0  0  0  0  0  0  0  0
   -0.7390   22.0810  -28.7660 C   0  0  0  0  0  0  0  0  0  0  0  0
    0.4100   21.7500  -27.9440 N   0  0  0  0  0  0  0  0  0  0  0  0
    0.9660   20.3910  -27.9540 C   0  0  0  0  0  0  0  0  0  0  0  0
    1.0270   22.7660  -27.0830 C   0  0  0  0  0  0  0  0  0  0  0  0
   -0.8620   21.5690  -30.0730 C   0  0  0  0  0  0  0  0  0  0  0  0
   -1.9620   21.8940  -30.8670 C   0  0  0  0  0  0  0  0  0  0  0  0
   -2.9610   22.7480  -30.3840 C   0  0  0  0  0  0  0  0  0  0  0  0
   -4.1700   23.0430  -31.2370 C   0  0  0  0  0  0  0  0  0  0  0  0
   -7.5210   21.2180  -32.2960 C   0  0  0  0  0  0  0  0  0  0  0  0
   -6.5540   20.3140  -32.7390 C   0  0  0  0  0  0  0  0  0  0  0  0
   -3.4729   20.5925  -32.3535 H   0  0  0  0  0  0  0  0  0  0  0  0
   -2.8791   21.3392  -33.8754 H   0  0  0  0  0  0  0  0  0  0  0  0
   -4.4059   20.3930  -33.8754 H   0  0  0  0  0  0  0  0  0  0  0  0
   -2.2738   19.2880  -34.8066 H   0  0  0  0  0  0  0  0  0  0  0  0
   -1.6182   19.1063  -31.8316 H   0  0  0  0  0  0  0  0  0  0  0  0
   -0.8229   18.1358  -33.1169 H   0  0  0  0  0  0  0  0  0  0  0  0
   -0.6675   19.9253  -33.1169 H   0  0  0  0  0  0  0  0  0  0  0  0
   -4.0200   17.9260  -32.8840 H   0  0  0  0  0  0  0  0  0  0  0  0
   -2.7720   17.1430  -33.6700 H   0  0  0  0  0  0  0  0  0  0  0  0
   -4.1050   18.4714  -35.6735 H   0  0  0  0  0  0  0  0  0  0  0  0
   -4.0200   16.6862  -35.2987 H   0  0  0  0  0  0  0  0  0  0  0  0
   -6.3000   18.4103  -35.2153 H   0  0  0  0  0  0  0  0  0  0  0  0
   -6.1816   16.6611  -34.8098 H   0  0  0  0  0  0  0  0  0  0  0  0
   -8.4094   17.4469  -32.3119 H   0  0  0  0  0  0  0  0  0  0  0  0
  -10.1065   19.1339  -31.5286 H   0  0  0  0  0  0  0  0  0  0  0  0
  -10.5177   21.9633  -31.1729 H   0  0  0  0  0  0  0  0  0  0  0  0
   -8.8957   24.0550  -31.6221 H   0  0  0  0  0  0  0  0  0  0  0  0
   -5.3863   22.7673  -32.6624 H   0  0  0  0  0  0  0  0  0  0  0  0
   -6.4939   23.8377  -33.6042 H   0  0  0  0  0  0  0  0  0  0  0  0
   -5.9642   25.4774  -32.1400 H   0  0  0  0  0  0  0  0  0  0  0  0
   -6.9386   24.5629  -30.9256 H   0  0  0  0  0  0  0  0  0  0  0  0
   -5.8228   25.0352  -29.0804 H   0  0  0  0  0  0  0  0  0  0  0  0
   -5.7311   23.2421  -29.1819 H   0  0  0  0  0  0  0  0  0  0  0  0
   -3.4905   25.2170  -28.5421 H   0  0  0  0  0  0  0  0  0  0  0  0
   -4.1625   23.8833  -27.5097 H   0  0  0  0  0  0  0  0  0  0  0  0
   -1.6789   23.3346  -27.2610 H   0  0  0  0  0  0  0  0  0  0  0  0
    1.1075   20.0451  -26.9194 H   0  0  0  0  0  0  0  0  0  0  0  0
    0.2722   19.7148  -28.4750 H   0  0  0  0  0  0  0  0  0  0  0  0
    1.9348   20.3950  -28.4750 H   0  0  0  0  0  0  0  0  0  0  0  0
    0.8653   22.4998  -26.0280 H   0  0  0  0  0  0  0  0  0  0  0  0
    2.1067   22.8136  -27.2879 H   0  0  0  0  0  0  0  0  0  0  0  0
    0.5714   23.7460  -27.2879 H   0  0  0  0  0  0  0  0  0  0  0  0
   -0.0811   20.9049  -30.4721 H   0  0  0  0  0  0  0  0  0  0  0  0
   -2.0453   21.4759  -31.8810 H   0  0  0  0  0  0  0  0  0  0  0  0
   -3.8491   23.1627  -32.2823 H   0  0  0  0  0  0  0  0  0  0  0  0
   -4.8753   22.2048  -31.1370 H   0  0  0  0  0  0  0  0  0  0  0  0
   -5.5629   20.6625  -33.0649 H   0  0  0  0  0  0  0  0  0  0  0  0
  1  2  1  0
  2  3  1  0
  2  4  1  0
  4  5  1  0
  5  6  1  0
  6  7  1  0
  7  8  1  0
  8  9  2  0
  9 10  1  0
 10 11  2  0
 11 12  1  0
 12 13  2  0
 13 14  1  0
 14 15  1  0
 15 16  1  0
 16 17  1  0
 17 18  1  0
 18 19  1  0
 19 20  1  0
 20 21  2  0
 21 22  1  0
 22 23  1  0
 23 24  1  0
 23 25  1  0
 22 26  2  0
 26 27  1  0
 27 28  2  0
 28 29  1  0
 14 30  1  0
 30 31  2  0
 31  8  1  0
 30 11  1  0
 29 17  1  0
 28 20  1  0
  1 32  1  0
  1 33  1  0
  1 34  1  0
  2 35  1  0
  3 36  1  0
  3 37  1  0
  3 38  1  0
  4 39  1  0
  4 40  1  0
  5 41  1  0
  5 42  1  0
  6 43  1  0
  6 44  1  0
  9 45  1  0
 10 46  1  0
 12 47  1  0
 13 48  1  0
 15 49  1  0
 15 50  1  0
 16 51  1  0
 16 52  1  0
 18 53  1  0
 18 54  1  0
 19 55  1  0
 19 56  1  0
 21 57  1  0
 24 58  1  0
 24 59  1  0
 24 60  1  0
 25 61  1  0
 25 62  1  0
 25 63  1  0
 26 64  1  0
 27 65  1  0
 29 66  1  0
 29 67  1  0
 31 68  1  0
M  CHG  1   4   1
M  END
>  <UniqueID>  (4) 
4

>  <SMILES>  (4) 
CC(C)[NH2+]CCOc1ccc2ccn(CCN3CCc4cc(N(C)C)ccc4C3)c2c1

>  <Energy>  (4) 
107.39512961200573

>  <Genealogy>  (4) 
CC(C)[NH2+]CCOc1ccc2ccn(CCN3CCc4cc(N(C)C)ccc4C3)c2c1 (protonated)
CC(C)[NH2+]CCOc1ccc2ccn(CCN3CCc4cc(N(C)C)ccc4C3)c2c1 (3D coordinates assigned)
CC(C)[NH2+]CCOc1ccc2ccn(CCN3CCc4cc(N(C)C)ccc4C3)c2c1 (nonaromatic ring conformer: 107.39512961200573 kcal/mol)

>  <smiles>  (4) 
CC(C)NCCOc1ccc2ccn(CCN3CCc4cc(N(C)C)ccc4C3)c2c1

>  <score_type>  (4) 
oracle

>  <origin>  (4) 
adg

>  <m_score__min__energy>  (4) 
-8.9000000000000004

>  <m_primary>  (4) 
energy

$$$$
4:0
     RDKit          3D

 62 65  0  0  0  0  0  0  0  0999 V2000
   -6.4640   25.3220  -29.6940 C   0  0  0  0  0  0  0  0  0  0  0  0
   -5.3470   25.6660  -30.6640 C   0  0  0  0  0  0  0  0  0  0  0  0
   -4.2980   24.7370  -30.5090 O   0  0  0  0  0  0  0  0  0  0  0  0
   -4.6440   23.7590  -29.5450 C   0  0  0  0  0  0  0  0  0  0  0  0
   -3.6120   23.7450  -28.4170 C   0  0  0  0  0  0  0  0  0  0  0  0
   -3.1780   22.4310  -28.1440 O   0  0  0  0  0  0  0  0  0  0  0  0
   -3.4250   21.5810  -29.2450 C   0  0  0  0  0  0  0  0  0  0  0  0
   -2.1190   20.9110  -29.6670 C   0  0  0  0  0  0  0  0  0  0  0  0
   -1.5400   21.5840  -30.7750 O   0  0  0  0  0  0  0  0  0  0  0  0
   -2.2120   21.2560  -31.9730 C   0  0  0  0  0  0  0  0  0  0  0  0
   -3.3660   22.2390  -32.2210 C   0  0  0  0  0  0  0  0  0  0  0  0
   -4.2240   21.9380  -33.3890 N   0  0  0  0  0  0  0  0  0  0  0  0
   -5.3410   21.0440  -33.1210 C   0  0  0  0  0  0  0  0  0  0  0  0
   -5.2130   19.6740  -33.3820 C   0  0  0  0  0  0  0  0  0  0  0  0
   -6.2320   18.7890  -33.0880 C   0  0  0  0  0  0  0  0  0  0  0  0
   -7.3570   19.1780  -32.4010 N   0  0  0  0  0  0  0  0  0  0  0  0
   -8.2290   18.1710  -31.7690 C   0  0  0  0  0  0  0  0  0  0  0  0
   -7.5970   20.5300  -32.2430 C   0  0  0  0  0  0  0  0  0  0  0  0
   -8.8400   20.9970  -31.7570 C   0  0  0  0  0  0  0  0  0  0  0  0
   -9.0620   22.3480  -31.5140 C   0  0  0  0  0  0  0  0  0  0  0  0
   -8.0670   23.2730  -31.7850 C   0  0  0  0  0  0  0  0  0  0  0  0
   -6.8520   22.8620  -32.3410 C   0  0  0  0  0  0  0  0  0  0  0  0
   -6.5850   21.4930  -32.5800 C   0  0  0  0  0  0  0  0  0  0  0  0
   -5.7950   17.4450  -33.4840 C   0  0  0  0  0  0  0  0  0  0  0  0
   -6.4910   16.2310  -33.5850 C   0  0  0  0  0  0  0  0  0  0  0  0
   -5.8010   15.0930  -34.0280 C   0  0  0  0  0  0  0  0  0  0  0  0
   -4.4530   15.1830  -34.4110 C   0  0  0  0  0  0  0  0  0  0  0  0
   -3.7970   16.4210  -34.3800 C   0  0  0  0  0  0  0  0  0  0  0  0
   -4.4900   17.5400  -33.9230 C   0  0  0  0  0  0  0  0  0  0  0  0
   -4.0060   18.9530  -33.9190 C   0  0  0  0  0  0  0  0  0  0  0  0
   -6.1007   25.4339  -28.6618 H   0  0  0  0  0  0  0  0  0  0  0  0
   -7.3145   25.9998  -29.8589 H   0  0  0  0  0  0  0  0  0  0  0  0
   -6.7858   24.2831  -29.8589 H   0  0  0  0  0  0  0  0  0  0  0  0
   -5.7282   25.6224  -31.6949 H   0  0  0  0  0  0  0  0  0  0  0  0
   -4.9764   26.6808  -30.4571 H   0  0  0  0  0  0  0  0  0  0  0  0
   -5.6349   23.9931  -29.1287 H   0  0  0  0  0  0  0  0  0  0  0  0
   -4.6645   22.7702  -30.0266 H   0  0  0  0  0  0  0  0  0  0  0  0
   -2.7463   24.3551  -28.7141 H   0  0  0  0  0  0  0  0  0  0  0  0
   -4.0797   24.1548  -27.5096 H   0  0  0  0  0  0  0  0  0  0  0  0
   -4.1571   20.8116  -28.9585 H   0  0  0  0  0  0  0  0  0  0  0  0
   -3.8252   22.1701  -30.0834 H   0  0  0  0  0  0  0  0  0  0  0  0
   -1.4136   20.9333  -28.8232 H   0  0  0  0  0  0  0  0  0  0  0  0
   -2.3348   19.8728  -29.9596 H   0  0  0  0  0  0  0  0  0  0  0  0
   -1.5035   21.3082  -32.8129 H   0  0  0  0  0  0  0  0  0  0  0  0
   -2.6200   20.2380  -31.8882 H   0  0  0  0  0  0  0  0  0  0  0  0
   -4.0041   22.2445  -31.3250 H   0  0  0  0  0  0  0  0  0  0  0  0
   -2.8936   23.2086  -32.4372 H   0  0  0  0  0  0  0  0  0  0  0  0
   -4.6130   22.8390  -33.7500 H   0  0  0  0  0  0  0  0  0  0  0  0
   -3.6190   21.6010  -34.1690 H   0  0  0  0  0  0  0  0  0  0  0  0
   -8.1548   18.2566  -30.6748 H   0  0  0  0  0  0  0  0  0  0  0  0
   -9.2703   18.3405  -32.0803 H   0  0  0  0  0  0  0  0  0  0  0  0
   -7.9124   17.1646  -32.0803 H   0  0  0  0  0  0  0  0  0  0  0  0
   -9.6488   20.2760  -31.5671 H   0  0  0  0  0  0  0  0  0  0  0  0
  -10.0276   22.6822  -31.1066 H   0  0  0  0  0  0  0  0  0  0  0  0
   -8.2339   24.3370  -31.5614 H   0  0  0  0  0  0  0  0  0  0  0  0
   -6.0916   23.6146  -32.5967 H   0  0  0  0  0  0  0  0  0  0  0  0
   -7.5575   16.1728  -33.3218 H   0  0  0  0  0  0  0  0  0  0  0  0
   -6.3191   14.1238  -34.0757 H   0  0  0  0  0  0  0  0  0  0  0  0
   -3.9120   14.2818  -34.7353 H   0  0  0  0  0  0  0  0  0  0  0  0
   -2.7516   16.5079  -34.7112 H   0  0  0  0  0  0  0  0  0  0  0  0
   -3.1348   19.0788  -33.2594 H   0  0  0  0  0  0  0  0  0  0  0  0
   -3.6627   19.3154  -34.8992 H   0  0  0  0  0  0  0  0  0  0  0  0
  1  2  1  0
  2  3  1  0
  3  4  1  0
  4  5  1  0
  5  6  1  0
  6  7  1  0
  7  8  1  0
  8  9  1  0
  9 10  1  0
 10 11  1  0
 11 12  1  0
 12 13  1  0
 13 14  2  0
 14 15  1  0
 15 16  2  0
 16 17  1  0
 16 18  1  0
 18 19  2  0
 19 20  1  0
 20 21  2  0
 21 22  1  0
 22 23  2  0
 15 24  1  0
 24 25  2  0
 25 26  1  0
 26 27  2  0
 27 28  1  0
 28 29  2  0
 29 30  1  0
 23 13  1  0
 29 24  1  0
 30 14  1  0
 23 18  1  0
  1 31  1  0
  1 32  1  0
  1 33  1  0
  2 34  1  0
  2 35  1  0
  4 36  1  0
  4 37  1  0
  5 38  1  0
  5 39  1  0
  7 40  1  0
  7 41  1  0
  8 42  1  0
  8 43  1  0
 10 44  1  0
 10 45  1  0
 11 46  1  0
 11 47  1  0
 12 48  1  0
 12 49  1  0
 17 50  1  0
 17 51  1  0
 17 52  1  0
 19 53  1  0
 20 54  1  0
 21 55  1  0
 22 56  1  0
 25 57  1  0
 26 58  1  0
 27 59  1  0
 28 60  1  0
 30 61  1  0
 30 62  1  0
M  CHG  2  12   1  16   1
M  END
>  <UniqueID>  (5) 
5

>  <SMILES>  (5) 
CCOCCOCCOCC[NH2+]c1c2c([n+](C)c3ccccc13)-c1ccccc1C2

>  <Energy>  (5) 
106.68902528213883

>  <Genealogy>  (5) 
CCOCCOCCOCC[NH2+]c1c2c([n+](C)c3ccccc13)-c1ccccc1C2 (protonated)
CCOCCOCCOCC[NH2+]c1c2c([n+](C)c3ccccc13)-c1ccccc1C2 (3D coordinates assigned)
CCOCCOCCOCC[NH2+]c1c2c([n+](C)c3ccccc13)-c1ccccc1C2 (nonaromatic ring conformer: 106.68902528213883 kcal/mol)

>  <smiles>  (5) 
CCOCCOCCOCCNc1c2c([n+](C)c3ccccc13)-c1ccccc1C2

>  <score_type>  (5) 
oracle

>  <origin>  (5) 
adg

>  <m_score__min__energy>  (5) 
-8.5600000000000005

>  <m_primary>  (5) 
energy

$$$$
5:0
     RDKit          3D

 52 54  0  0  0  0  0  0  0  0999 V2000
   -6.0521   22.9991  -28.5839 H   0  0  0  0  0  0  0  0  0  0  0  0
   -5.4160   23.6230  -29.2290 C   0  0  0  0  0  0  0  0  0  0  0  0
   -5.9120   24.1290  -30.4340 C   0  0  0  0  0  0  0  0  0  0  0  0
   -7.3220   23.8540  -30.8640 C   0  0  0  0  0  0  0  0  0  0  0  0
   -7.8388   24.8085  -31.0424 H   0  0  0  0  0  0  0  0  0  0  0  0
   -7.8324   23.2892  -30.0700 H   0  0  0  0  0  0  0  0  0  0  0  0
   -7.3380   23.0220  -32.1540 C   0  0  0  0  0  0  0  0  0  0  0  0
   -6.6947   23.5127  -32.8992 H   0  0  0  0  0  0  0  0  0  0  0  0
   -8.3800   22.9597  -32.5009 H   0  0  0  0  0  0  0  0  0  0  0  0
   -6.8310   21.5890  -31.9310 C   0  0  0  0  0  0  0  0  0  0  0  0
   -7.6869   20.8997  -31.9798 H   0  0  0  0  0  0  0  0  0  0  0  0
   -6.3424   21.5553  -30.9461 H   0  0  0  0  0  0  0  0  0  0  0  0
   -5.7960   21.1650  -32.9820 C   0  0  0  0  0  0  0  0  0  0  0  0
   -5.9247   21.7787  -33.8858 H   0  0  0  0  0  0  0  0  0  0  0  0
   -5.9462   20.1022  -33.2226 H   0  0  0  0  0  0  0  0  0  0  0  0
   -4.4000   21.3530  -32.4490 C   0  0  0  0  0  0  0  0  0  0  0  0
   -3.4730   20.3800  -32.2940 N   0  0  0  0  0  0  0  0  0  0  0  0
   -3.5400   18.9760  -32.7210 C   0  0  0  0  0  0  0  0  0  0  0  0
   -2.7127   18.4201  -32.2557 H   0  0  0  0  0  0  0  0  0  0  0  0
   -4.5106   18.5638  -32.4078 H   0  0  0  0  0  0  0  0  0  0  0  0
   -3.4310   18.8520  -34.2380 C   0  0  0  0  0  0  0  0  0  0  0  0
   -2.7241   18.0478  -34.4903 H   0  0  0  0  0  0  0  0  0  0  0  0
   -4.4197   18.6164  -34.6586 H   0  0  0  0  0  0  0  0  0  0  0  0
   -3.0706   19.8024  -34.6586 H   0  0  0  0  0  0  0  0  0  0  0  0
   -2.4090   21.0500  -31.7940 C   0  0  0  0  0  0  0  0  0  0  0  0
   -0.8130   20.3170  -31.4180 S   0  0  0  0  0  0  0  0  0  0  0  0
    0.0820   21.1340  -32.7880 C   0  0  0  0  0  0  0  0  0  0  0  0
    1.0165   20.5861  -32.9792 H   0  0  0  0  0  0  0  0  0  0  0  0
    0.2857   22.1733  -32.4906 H   0  0  0  0  0  0  0  0  0  0  0  0
   -0.7440   21.1620  -34.0690 C   0  0  0  0  0  0  0  0  0  0  0  0
   -1.8136   21.1983  -33.8149 H   0  0  0  0  0  0  0  0  0  0  0  0
   -0.4768   22.0516  -34.6582 H   0  0  0  0  0  0  0  0  0  0  0  0
   -0.5376   20.2563  -34.6582 H   0  0  0  0  0  0  0  0  0  0  0  0
   -2.6630   22.3670  -31.6560 N   0  0  0  0  0  0  0  0  0  0  0  0
   -3.9110   22.5440  -32.0580 N   0  0  0  0  0  0  0  0  0  0  0  0
   -4.4050   23.4660  -32.0730 H   0  0  0  0  0  0  0  0  0  0  0  0
   -5.1120   24.9180  -31.1980 N   0  0  0  0  0  0  0  0  0  0  0  0
   -3.8610   25.2060  -30.8350 N   0  0  0  0  0  0  0  0  0  0  0  0
   -3.3250   24.7320  -29.6760 C   0  0  0  0  0  0  0  0  0  0  0  0
   -2.0980   25.0000  -29.3300 N   0  0  0  0  0  0  0  0  0  0  0  0
   -1.0640   24.0710  -28.9650 C   0  0  0  0  0  0  0  0  0  0  0  0
    0.0830   24.5190  -28.7010 O   0  0  0  0  0  0  0  0  0  0  0  0
   -1.2900   22.5850  -28.9070 C   0  0  0  0  0  0  0  0  0  0  0  0
   -1.7650   22.4985  -29.8954 H   0  0  0  0  0  0  0  0  0  0  0  0
   -1.5800   22.0430  -27.5130 C   0  0  0  0  0  0  0  0  0  0  0  0
   -1.6748   22.7347  -26.6629 H   0  0  0  0  0  0  0  0  0  0  0  0
   -2.3567   21.3985  -27.0756 H   0  0  0  0  0  0  0  0  0  0  0  0
   -0.2240   21.8060  -28.1500 C   0  0  0  0  0  0  0  0  0  0  0  0
    0.6641   22.3256  -27.7612 H   0  0  0  0  0  0  0  0  0  0  0  0
    0.3887   20.9181  -28.3649 H   0  0  0  0  0  0  0  0  0  0  0  0
   -4.1060   23.9180  -28.8540 C   0  0  0  0  0  0  0  0  0  0  0  0
   -3.6917   23.5130  -27.9189 H   0  0  0  0  0  0  0  0  0  0  0  0
  1  2  1  0
  2  3  1  0
  3  4  1  0
  4  5  1  0
  4  6  1  0
  4  7  1  0
  7  8  1  0
  7  9  1  0
  7 10  1  0
 10 11  1  0
 10 12  1  0
 10 13  1  0
 13 14  1  0
 13 15  1  0
 13 16  1  0
 16 17  1  0
 17 18  1  0
 18 19  1  0
 18 20  1  0
 18 21  1  0
 21 22  1  0
 21 23  1  0
 21 24  1  0
 17 25  1  0
 25 26  1  0
 26 27  1  0
 27 28  1  0
 27 29  1  0
 27 30  1  0
 30 31  1  0
 30 32  1  0
 30 33  1  0
 25 34  2  0
 34 35  1  0
 35 36  1  0
  3 37  2  0
 37 38  1  0
 38 39  1  0
 39 40  2  0
 40 41  1  0
 41 42  2  0
 41 43  1  0
 43 44  1  0
 43 45  1  0
 45 46  1  0
 45 47  1  0
 45 48  1  0
 48 49  1  0
 48 50  1  0
 39 51  1  0
 51 52  1  0
 51  2  2  0
 35 16  2  0
 48 43  1  0
M  CHG  2  35   1  38  -1
M  END
>  <UniqueID>  (6) 
6

>  <SMILES>  (6) 
CCSc1n[nH+]c(CCCCc2cc/c(=N/C(=O)C3CC3)[n-]n2)n1CC

>  <Energy>  (6) 
340.7265910832289

>  <Genealogy>  (6) 
CCSc1n[nH+]c(CCCCc2ccc(=NC(=O)C3CC3)[n-]n2)n1CC (protonated)
CCSc1n[nH+]c(CCCCc2cc/c(=N/C(=O)C3CC3)[n-]n2)n1CC (cis-trans isomerization)
CCSc1n[nH+]c(CCCCc2cc/c(=N/C(=O)C3CC3)[n-]n2)n1CC (3D coordinates assigned)
CCSc1n[nH+]c(CCCCc2cc/c(=N/C(=O)C3CC3)[n-]n2)n1CC (nonaromatic ring conformer: 340.7265910832289 kcal/mol)

>  <smiles>  (6) 
CCSc1nnc(CCCCc2ccc(=NC(=O)C3CC3)[nH]n2)n1CC

>  <score_type>  (6) 
oracle

>  <origin>  (6) 
adg

>  <m_score__min__energy>  (6) 
-9.3100000000000005

>  <m_primary>  (6) 
energy

$$$$
6:0
     RDKit          3D

 69 71  0  0  0  0  0  0  0  0999 V2000
   -4.1670   23.1340  -28.3490 C   0  0  0  0  0  0  0  0  0  0  0  0
   -4.3230   24.5430  -28.9230 C   0  0  0  0  0  0  0  0  0  0  0  0
   -4.1610   24.5680  -30.3930 N   0  0  0  0  0  0  0  0  0  0  0  0
   -3.3150   23.4500  -30.8400 C   0  0  0  0  0  0  0  0  0  0  0  0
   -5.4280   24.6490  -31.1620 C   0  0  0  0  0  0  0  0  0  0  0  0
   -6.1550   23.3030  -31.3430 C   0  0  0  0  0  0  0  0  0  0  0  0
   -5.8050   22.7050  -32.6300 N   0  0  0  0  0  0  0  0  0  0  0  0
   -5.7240   21.2810  -32.7750 C   0  0  0  0  0  0  0  0  0  0  0  0
   -6.8590   20.4880  -32.5480 C   0  0  0  0  0  0  0  0  0  0  0  0
   -8.0820   21.0740  -32.1610 C   0  0  0  0  0  0  0  0  0  0  0  0
   -9.1970   20.2830  -31.8960 C   0  0  0  0  0  0  0  0  0  0  0  0
   -9.1080   18.8990  -31.9970 C   0  0  0  0  0  0  0  0  0  0  0  0
   -7.9110   18.2990  -32.3890 C   0  0  0  0  0  0  0  0  0  0  0  0
   -6.7700   19.0800  -32.7070 C   0  0  0  0  0  0  0  0  0  0  0  0
   -5.5910   18.5050  -33.1450 N   0  0  0  0  0  0  0  0  0  0  0  0
   -5.5790   17.0930  -33.5870 C   0  0  0  0  0  0  0  0  0  0  0  0
   -4.4320   19.2590  -33.2020 C   0  0  0  0  0  0  0  0  0  0  0  0
   -3.1610   18.6610  -33.3830 C   0  0  0  0  0  0  0  0  0  0  0  0
   -1.9960   19.4330  -33.5360 C   0  0  0  0  0  0  0  0  0  0  0  0
   -0.7120   18.8150  -33.7590 N   0  0  0  0  0  0  0  0  0  0  0  0
    0.3420   18.6570  -32.7520 C   0  0  0  0  0  0  0  0  0  0  0  0
   -0.1690   18.9800  -31.3380 C   0  0  0  0  0  0  0  0  0  0  0  0
    0.2440   20.3910  -30.8640 C   0  0  0  0  0  0  0  0  0  0  0  0
   -0.8900   21.2500  -30.4530 N   0  0  0  0  0  0  0  0  0  0  0  0
   -0.4960   22.3260  -29.5290 C   0  0  0  0  0  0  0  0  0  0  0  0
   -2.0270   20.4830  -29.9230 C   0  0  0  0  0  0  0  0  0  0  0  0
   -2.0800   20.8310  -33.4440 C   0  0  0  0  0  0  0  0  0  0  0  0
   -0.9090   21.5910  -33.6110 O   0  0  0  0  0  0  0  0  0  0  0  0
   -0.0830   21.5690  -34.7720 C   0  0  0  0  0  0  0  0  0  0  0  0
   -3.3200   21.4360  -33.1890 C   0  0  0  0  0  0  0  0  0  0  0  0
   -4.4930   20.6670  -33.0600 C   0  0  0  0  0  0  0  0  0  0  0  0
   -4.1724   23.1831  -27.2501 H   0  0  0  0  0  0  0  0  0  0  0  0
   -5.0009   22.5039  -28.6920 H   0  0  0  0  0  0  0  0  0  0  0  0
   -3.2155   22.7016  -28.6920 H   0  0  0  0  0  0  0  0  0  0  0  0
   -5.3252   24.9195  -28.6705 H   0  0  0  0  0  0  0  0  0  0  0  0
   -3.5362   25.1751  -28.4855 H   0  0  0  0  0  0  0  0  0  0  0  0
   -2.9141   22.9202  -29.9633 H   0  0  0  0  0  0  0  0  0  0  0  0
   -3.9155   22.7551  -31.4454 H   0  0  0  0  0  0  0  0  0  0  0  0
   -2.4830   23.8390  -31.4454 H   0  0  0  0  0  0  0  0  0  0  0  0
   -6.1057   25.3370  -30.6353 H   0  0  0  0  0  0  0  0  0  0  0  0
   -5.1591   24.9964  -32.1705 H   0  0  0  0  0  0  0  0  0  0  0  0
   -5.8596   22.6196  -30.5333 H   0  0  0  0  0  0  0  0  0  0  0  0
   -7.2408   23.4766  -31.3132 H   0  0  0  0  0  0  0  0  0  0  0  0
   -5.6120   23.3020  -33.4670 H   0  0  0  0  0  0  0  0  0  0  0  0
   -8.1559   22.1675  -32.0675 H   0  0  0  0  0  0  0  0  0  0  0  0
  -10.1485   20.7531  -31.6067 H   0  0  0  0  0  0  0  0  0  0  0  0
   -9.9843   18.2751  -31.7671 H   0  0  0  0  0  0  0  0  0  0  0  0
   -7.8509   17.2025  -32.4526 H   0  0  0  0  0  0  0  0  0  0  0  0
   -5.5734   16.4333  -32.7068 H   0  0  0  0  0  0  0  0  0  0  0  0
   -6.4755   16.8904  -34.1914 H   0  0  0  0  0  0  0  0  0  0  0  0
   -4.6792   16.9056  -34.1914 H   0  0  0  0  0  0  0  0  0  0  0  0
   -3.0833   17.5640  -33.4044 H   0  0  0  0  0  0  0  0  0  0  0  0
   -0.5220   18.3920  -34.6950 H   0  0  0  0  0  0  0  0  0  0  0  0
    0.7015   17.6176  -32.7723 H   0  0  0  0  0  0  0  0  0  0  0  0
    1.1536   19.3596  -32.9920 H   0  0  0  0  0  0  0  0  0  0  0  0
   -1.2671   18.9156  -31.3372 H   0  0  0  0  0  0  0  0  0  0  0  0
    0.2811   18.2519  -30.6471 H   0  0  0  0  0  0  0  0  0  0  0  0
    0.9226   20.2814  -30.0052 H   0  0  0  0  0  0  0  0  0  0  0  0
    0.7200   20.8861  -31.7232 H   0  0  0  0  0  0  0  0  0  0  0  0
   -0.6217   21.9827  -28.4915 H   0  0  0  0  0  0  0  0  0  0  0  0
    0.5574   22.5909  -29.7025 H   0  0  0  0  0  0  0  0  0  0  0  0
   -1.1293   23.2085  -29.7025 H   0  0  0  0  0  0  0  0  0  0  0  0
   -2.0006   20.5008  -28.8235 H   0  0  0  0  0  0  0  0  0  0  0  0
   -2.9678   20.9318  -30.2745 H   0  0  0  0  0  0  0  0  0  0  0  0
   -1.9632   19.4426  -30.2745 H   0  0  0  0  0  0  0  0  0  0  0  0
    0.9742   21.5408  -34.4694 H   0  0  0  0  0  0  0  0  0  0  0  0
   -0.3167   20.6768  -35.3714 H   0  0  0  0  0  0  0  0  0  0  0  0
   -0.2689   22.4724  -35.3714 H   0  0  0  0  0  0  0  0  0  0  0  0
   -3.3771   22.5299  -33.0881 H   0  0  0  0  0  0  0  0  0  0  0  0
  1  2  1  0
  2  3  1  0
  3  4  1  0
  3  5  1  0
  5  6  1  0
  6  7  1  0
  7  8  1  0
  8  9  2  0
  9 10  1  0
 10 11  2  0
 11 12  1  0
 12 13  2  0
 13 14  1  0
 14 15  2  0
 15 16  1  0
 15 17  1  0
 17 18  2  0
 18 19  1  0
 19 20  1  0
 20 21  1  0
 21 22  1  0
 22 23  1  0
 23 24  1  0
 24 25  1  0
 24 26  1  0
 19 27  2  0
 27 28  1  0
 28 29  1  0
 27 30  1  0
 30 31  2  0
 31  8  1  0
 14  9  1  0
 31 17  1  0
  1 32  1  0
  1 33  1  0
  1 34  1  0
  2 35  1  0
  2 36  1  0
  4 37  1  0
  4 38  1  0
  4 39  1  0
  5 40  1  0
  5 41  1  0
  6 42  1  0
  6 43  1  0
  7 44  1  0
 10 45  1  0
 11 46  1  0
 12 47  1  0
 13 48  1  0
 16 49  1  0
 16 50  1  0
 16 51  1  0
 18 52  1  0
 20 53  1  0
 21 54  1  0
 21 55  1  0
 22 56  1  0
 22 57  1  0
 23 58  1  0
 23 59  1  0
 25 60  1  0
 25 61  1  0
 25 62  1  0
 26 63  1  0
 26 64  1  0
 26 65  1  0
 29 66  1  0
 29 67  1  0
 29 68  1  0
 30 69  1  0
M  CHG  1  15   1
M  END
>  <UniqueID>  (7) 
7

>  <SMILES>  (7) 
CCN(C)CCNc1c2ccccc2[n+](C)c2cc(NCCCN(C)C)c(OC)cc12

>  <Energy>  (7) 
97.2376872087511

>  <Genealogy>  (7) 
CCN(C)CCNc1c2ccccc2[n+](C)c2cc(NCCCN(C)C)c(OC)cc12 (3D coordinates assigned)
CCN(C)CCNc1c2ccccc2[n+](C)c2cc(NCCCN(C)C)c(OC)cc12 (optimized conformer: 97.2376872087511 kcal/mol)

>  <smiles>  (7) 
CCN(C)CCNc1c2ccccc2[n+](C)c2cc(NCCCN(C)C)c(OC)cc12

>  <score_type>  (7) 
oracle

>  <origin>  (7) 
adg

>  <m_score__min__energy>  (7) 
-7.46

>  <m_primary>  (7) 
energy

$$$$
7:0
     RDKit          3D

 38 40  0  0  0  0  0  0  0  0999 V2000
   -8.9730   21.5910  -30.6870 C   0  0  0  0  0  0  0  0  0  0  0  0
   -9.5110   21.1170  -32.0320 C   0  0  0  0  0  0  0  0  0  0  0  0
   -8.5250   20.3580  -32.7270 O   0  0  0  0  0  0  0  0  0  0  0  0
   -7.8580   19.2630  -32.1690 C   0  0  0  0  0  0  0  0  0  0  0  0
   -8.3940   18.5950  -31.2430 O   0  0  0  0  0  0  0  0  0  0  0  0
   -6.5140   18.8970  -32.6570 C   0  0  0  0  0  0  0  0  0  0  0  0
   -5.3660   19.7000  -32.7300 C   0  0  0  0  0  0  0  0  0  0  0  0
   -5.1870   21.0680  -32.2040 C   0  0  0  0  0  0  0  0  0  0  0  0
   -4.0110   21.4410  -31.5350 C   0  0  0  0  0  0  0  0  0  0  0  0
   -3.8460   22.7490  -31.0700 C   0  0  0  0  0  0  0  0  0  0  0  0
   -4.8520   23.7100  -31.2840 C   0  0  0  0  0  0  0  0  0  0  0  0
   -4.7350   25.0350  -30.8360 O   0  0  0  0  0  0  0  0  0  0  0  0
   -5.7330   25.7190  -30.0840 C   0  0  0  0  0  0  0  0  0  0  0  0
   -6.0120   23.3410  -31.9740 C   0  0  0  0  0  0  0  0  0  0  0  0
   -6.1770   22.0340  -32.4400 C   0  0  0  0  0  0  0  0  0  0  0  0
   -4.3950   19.0480  -33.3440 O   0  0  0  0  0  0  0  0  0  0  0  0
   -4.8450   17.8600  -33.6630 C   0  0  0  0  0  0  0  0  0  0  0  0
   -4.1570   16.8490  -34.3300 C   0  0  0  0  0  0  0  0  0  0  0  0
   -4.8440   15.6500  -34.5950 C   0  0  0  0  0  0  0  0  0  0  0  0
   -6.1890   15.4950  -34.1960 C   0  0  0  0  0  0  0  0  0  0  0  0
   -6.8590   16.5350  -33.5260 C   0  0  0  0  0  0  0  0  0  0  0  0
   -6.1470   17.7070  -33.2600 C   0  0  0  0  0  0  0  0  0  0  0  0
   -9.5303   21.1000  -29.8756 H   0  0  0  0  0  0  0  0  0  0  0  0
   -7.9065   21.3336  -30.6074 H   0  0  0  0  0  0  0  0  0  0  0  0
   -9.0940   22.6814  -30.6074 H   0  0  0  0  0  0  0  0  0  0  0  0
  -10.3991   20.4897  -31.8654 H   0  0  0  0  0  0  0  0  0  0  0  0
   -9.7746   21.9961  -32.6384 H   0  0  0  0  0  0  0  0  0  0  0  0
   -3.2142   20.6996  -31.3756 H   0  0  0  0  0  0  0  0  0  0  0  0
   -2.9265   23.0283  -30.5348 H   0  0  0  0  0  0  0  0  0  0  0  0
   -5.5383   25.5856  -29.0096 H   0  0  0  0  0  0  0  0  0  0  0  0
   -5.7079   26.7907  -30.3309 H   0  0  0  0  0  0  0  0  0  0  0  0
   -6.7234   25.3090  -30.3309 H   0  0  0  0  0  0  0  0  0  0  0  0
   -6.8012   24.0865  -32.1512 H   0  0  0  0  0  0  0  0  0  0  0  0
   -7.0871   21.7612  -32.9943 H   0  0  0  0  0  0  0  0  0  0  0  0
   -3.1101   16.9837  -34.6396 H   0  0  0  0  0  0  0  0  0  0  0  0
   -4.3300   14.8288  -35.1160 H   0  0  0  0  0  0  0  0  0  0  0  0
   -6.7172   14.5542  -34.4104 H   0  0  0  0  0  0  0  0  0  0  0  0
   -7.9105   16.4286  -33.2212 H   0  0  0  0  0  0  0  0  0  0  0  0
  1  2  1  0
  2  3  1  0
  3  4  1  0
  4  5  2  0
  4  6  1  0
  6  7  2  0
  7  8  1  0
  8  9  2  0
  9 10  1  0
 10 11  2  0
 11 12  1  0
 12 13  1  0
 11 14  1  0
 14 15  2  0
  7 16  1  0
 16 17  1  0
 17 18  2  0
 18 19  1  0
 19 20  2  0
 20 21  1  0
 21 22  2  0
 22  6  1  0
 15  8  1  0
 22 17  1  0
  1 23  1  0
  1 24  1  0
  1 25  1  0
  2 26  1  0
  2 27  1  0
  9 28  1  0
 10 29  1  0
 13 30  1  0
 13 31  1  0
 13 32  1  0
 14 33  1  0
 15 34  1  0
 18 35  1  0
 19 36  1  0
 20 37  1  0
 21 38  1  0
M  END
>  <UniqueID>  (8) 
8

>  <SMILES>  (8) 
CCOC(=O)c1c(-c2ccc(OC)cc2)oc2ccccc12

>  <Energy>  (8) 
76.07813275845992

>  <Genealogy>  (8) 
CCOC(=O)c1c(-c2ccc(OC)cc2)oc2ccccc12 (3D coordinates assigned)
CCOC(=O)c1c(-c2ccc(OC)cc2)oc2ccccc12 (optimized conformer: 76.07813275845992 kcal/mol)

>  <smiles>  (8) 
CCOC(=O)c1c(-c2ccc(OC)cc2)oc2ccccc12

>  <score_type>  (8) 
oracle

>  <origin>  (8) 
adg

>  <m_score__min__energy>  (8) 
-7.4199999999999999

>  <m_primary>  (8) 
energy

$$$$
8:0
     RDKit          3D

 37 39  0  0  1  0  0  0  0  0999 V2000
   -0.8710   20.7540  -27.0480 C   0  0  0  0  0  0  0  0  0  0  0  0
   -1.8960   20.0890  -27.9240 C   0  0  0  0  0  0  0  0  0  0  0  0
   -3.1030   19.6560  -27.1220 C   0  0  0  0  0  0  0  0  0  0  0  0
   -2.4050   21.0310  -28.9190 N   0  0  0  0  0  0  0  0  0  0  0  0
   -2.3500   20.9570  -30.2570 C   0  0  0  0  0  0  0  0  0  0  0  0
   -2.9440   22.0450  -30.8050 N   0  0  0  0  0  0  0  0  0  0  0  0
   -3.3870   22.8270  -29.7870 C   0  0  0  0  0  0  0  0  0  0  0  0
   -4.0610   24.0480  -29.7410 C   0  0  0  0  0  0  0  0  0  0  0  0
   -4.3740   24.6370  -30.8460 N   0  0  0  0  0  0  0  0  0  0  0  0
   -5.7780   24.7290  -31.1580 C   0  0  0  0  0  0  0  0  0  0  0  0
   -6.3960   23.4080  -31.4290 C   0  0  0  0  0  0  0  0  0  0  0  0
   -5.7960   22.4860  -32.2880 C   0  0  0  0  0  0  0  0  0  0  0  0
   -6.3950   21.2620  -32.5220 C   0  0  0  0  0  0  0  0  0  0  0  0
   -7.5970   20.8980  -31.9270 C   0  0  0  0  0  0  0  0  0  0  0  0
   -8.4010   19.2060  -32.2660 Br  0  0  0  0  0  0  0  0  0  0  0  0
   -8.1870   21.8260  -31.0730 C   0  0  0  0  0  0  0  0  0  0  0  0
   -7.6070   23.0340  -30.8340 C   0  0  0  0  0  0  0  0  0  0  0  0
   -4.3500   24.5470  -28.5250 N   0  0  0  0  0  0  0  0  0  0  0  0
   -4.0200   23.9280  -27.3750 C   0  0  0  0  0  0  0  0  0  0  0  0
   -3.3640   22.7390  -27.4270 N   0  0  0  0  0  0  0  0  0  0  0  0
   -3.0420   22.1780  -28.6200 C   0  0  0  0  0  0  0  0  0  0  0  0
   -1.1280   20.5873  -25.9915 H   0  0  0  0  0  0  0  0  0  0  0  0
    0.1213   20.3272  -27.2558 H   0  0  0  0  0  0  0  0  0  0  0  0
   -0.8564   21.8341  -27.2558 H   0  0  0  0  0  0  0  0  0  0  0  0
   -1.3958   19.2269  -28.3894 H   0  0  0  0  0  0  0  0  0  0  0  0
   -2.8780   19.7367  -26.0483 H   0  0  0  0  0  0  0  0  0  0  0  0
   -3.9577   20.3036  -27.3672 H   0  0  0  0  0  0  0  0  0  0  0  0
   -3.3512   18.6128  -27.3672 H   0  0  0  0  0  0  0  0  0  0  0  0
   -1.8907   20.1349  -30.8255 H   0  0  0  0  0  0  0  0  0  0  0  0
   -6.2975   25.1915  -30.3058 H   0  0  0  0  0  0  0  0  0  0  0  0
   -5.8745   25.3328  -32.0724 H   0  0  0  0  0  0  0  0  0  0  0  0
   -4.8440   22.7338  -32.7802 H   0  0  0  0  0  0  0  0  0  0  0  0
   -5.9031   20.5517  -33.2028 H   0  0  0  0  0  0  0  0  0  0  0  0
   -9.1398   21.5783  -30.5822 H   0  0  0  0  0  0  0  0  0  0  0  0
   -8.1054   23.7386  -30.1519 H   0  0  0  0  0  0  0  0  0  0  0  0
   -4.8480   25.4490  -28.4430 H   0  0  0  0  0  0  0  0  0  0  0  0
   -4.2783   24.3794  -26.4057 H   0  0  0  0  0  0  0  0  0  0  0  0
  1  2  1  0
  2  3  1  0
  2  4  1  0
  4  5  1  0
  5  6  2  0
  6  7  1  0
  7  8  1  0
  8  9  2  0
  9 10  1  0
 10 11  1  0
 11 12  2  0
 12 13  1  0
 13 14  2  0
 14 15  1  0
 14 16  1  0
 16 17  2  0
  8 18  1  0
 18 19  1  0
 19 20  2  0
 20 21  1  0
 21  4  1  0
 21  7  2  0
 17 11  1  0
  1 22  1  0
  1 23  1  0
  1 24  1  0
  2 25  1  0
  3 26  1  0
  3 27  1  0
  3 28  1  0
  5 29  1  0
 10 30  1  0
 10 31  1  0
 12 32  1  0
 13 33  1  0
 16 34  1  0
 17 35  1  0
 18 36  1  0
 19 37  1  0
M  END
>  <smiles>  (9) 
CC(C)n1cnc2c(=NCc3ccc(Br)cc3)[nH]cnc21

>  <score_type>  (9) 
oracle

>  <origin>  (9) 
adg

>  <m_score__min__energy>  (9) 
-8

>  <m_primary>  (9) 
energy

$$$$
9:0
     RDKit          3D

 25 25  0  0  0  0  0  0  0  0999 V2000
   -2.8843   22.3649  -31.9897 H   0  0  0  0  0  0  0  0  0  0  0  0
   -3.9340   22.6510  -31.8280 C   0  0  0  0  0  0  0  0  0  0  0  0
   -4.9250   22.2510  -32.7870 N   0  0  0  0  0  0  0  0  0  0  0  0
   -4.6120   22.1460  -33.7790 H   0  0  0  0  0  0  0  0  0  0  0  0
   -6.2960   21.9550  -32.4720 C   0  0  0  0  0  0  0  0  0  0  0  0
   -6.7750   20.6320  -32.4550 C   0  0  0  0  0  0  0  0  0  0  0  0
   -6.0886   19.7982  -32.6636 H   0  0  0  0  0  0  0  0  0  0  0  0
   -8.1200   20.3730  -32.1740 C   0  0  0  0  0  0  0  0  0  0  0  0
   -8.4868   19.3362  -32.1520 H   0  0  0  0  0  0  0  0  0  0  0  0
   -8.9990   21.4300  -31.9210 C   0  0  0  0  0  0  0  0  0  0  0  0
  -10.3040   21.1760  -31.6510 F   0  0  0  0  0  0  0  0  0  0  0  0
   -8.5370   22.7470  -31.9590 C   0  0  0  0  0  0  0  0  0  0  0  0
   -9.2315   23.5783  -31.7677 H   0  0  0  0  0  0  0  0  0  0  0  0
   -7.1920   23.0110  -32.2400 C   0  0  0  0  0  0  0  0  0  0  0  0
   -6.8348   24.0506  -32.2794 H   0  0  0  0  0  0  0  0  0  0  0  0
   -4.2470   23.3420  -30.7750 N   0  0  0  0  0  0  0  0  0  0  0  0
   -4.4980   22.8680  -29.8790 H   0  0  0  0  0  0  0  0  0  0  0  0
   -4.2830   24.7190  -30.8490 O   0  0  0  0  0  0  0  0  0  0  0  0
   -5.5180   25.4220  -30.8100 C   0  0  0  0  0  0  0  0  0  0  0  0
   -6.2053   24.9950  -31.5552 H   0  0  0  0  0  0  0  0  0  0  0  0
   -5.3398   26.4835  -31.0367 H   0  0  0  0  0  0  0  0  0  0  0  0
   -6.1340   25.3000  -29.4270 C   0  0  0  0  0  0  0  0  0  0  0  0
   -5.3564   25.4540  -28.6644 H   0  0  0  0  0  0  0  0  0  0  0  0
   -6.9204   26.0598  -29.3075 H   0  0  0  0  0  0  0  0  0  0  0  0
   -6.5714   24.2978  -29.3075 H   0  0  0  0  0  0  0  0  0  0  0  0
  1  2  1  0
  2  3  1  0
  3  4  1  0
  3  5  1  0
  5  6  2  0
  6  7  1  0
  6  8  1  0
  8  9  1  0
  8 10  2  0
 10 11  1  0
 10 12  1  0
 12 13  1  0
 12 14  2  0
 14 15  1  0
  2 16  2  0
 16 17  1  0
 16 18  1  0
 18 19  1  0
 19 20  1  0
 19 21  1  0
 19 22  1  0
 22 23  1  0
 22 24  1  0
 22 25  1  0
 14  5  1  0
M  CHG  1  16   1
M  END
>  <UniqueID>  (10) 
9

>  <SMILES>  (10) 
CCO/[NH+]=C/Nc1ccc(F)cc1

>  <Energy>  (10) 
20.330844971623623

>  <Genealogy>  (10) 
CCO[NH+]=CNc1ccc(F)cc1 (protonated)
CCO/[NH+]=C/Nc1ccc(F)cc1 (cis-trans isomerization)
CCO/[NH+]=C/Nc1ccc(F)cc1 (3D coordinates assigned)
CCO/[NH+]=C/Nc1ccc(F)cc1 (optimized conformer: 20.330844971623623 kcal/mol)

>  <smiles>  (10) 
CCON=CNc1ccc(F)cc1

>  <score_type>  (10) 
oracle

>  <origin>  (10) 
adg

>  <m_score__min__energy>  (10) 
-4.54

>  <m_primary>  (10) 
energy

$$$$
10:0
     RDKit          3D

 37 39  0  0  0  0  0  0  0  0999 V2000
   -7.8700   20.5840  -32.3250 C   0  0  0  0  0  0  0  0  0  0  0  0
   -7.2170   21.8570  -31.8710 C   0  0  0  0  0  0  0  0  0  0  0  0
   -5.9440   22.2060  -32.3470 C   0  0  0  0  0  0  0  0  0  0  0  0
   -5.3190   23.3740  -31.8980 C   0  0  0  0  0  0  0  0  0  0  0  0
   -5.9570   24.2040  -30.9630 C   0  0  0  0  0  0  0  0  0  0  0  0
   -5.2850   25.4580  -30.4680 C   0  0  0  0  0  0  0  0  0  0  0  0
   -3.8650   25.3070  -30.4670 O   0  0  0  0  0  0  0  0  0  0  0  0
   -3.1290   24.5530  -29.5380 C   0  0  0  0  0  0  0  0  0  0  0  0
   -3.6830   23.4720  -28.8290 C   0  0  0  0  0  0  0  0  0  0  0  0
   -2.9070   22.7480  -27.9200 C   0  0  0  0  0  0  0  0  0  0  0  0
   -1.5600   23.0950  -27.6970 C   0  0  0  0  0  0  0  0  0  0  0  0
   -0.7300   22.3970  -26.7910 C   0  0  0  0  0  0  0  0  0  0  0  0
   -1.2290   21.2230  -25.9910 C   0  0  0  0  0  0  0  0  0  0  0  0
    0.5980   22.8180  -26.6360 C   0  0  0  0  0  0  0  0  0  0  0  0
    1.0640   23.9070  -27.3760 C   0  0  0  0  0  0  0  0  0  0  0  0
    2.2550   24.2920  -27.2440 O   0  0  0  0  0  0  0  0  0  0  0  0
    0.2600   24.5410  -28.2210 O   0  0  0  0  0  0  0  0  0  0  0  0
   -1.0080   24.1870  -28.4080 C   0  0  0  0  0  0  0  0  0  0  0  0
   -1.7940   24.9040  -29.3160 C   0  0  0  0  0  0  0  0  0  0  0  0
   -7.2170   23.8370  -30.4640 C   0  0  0  0  0  0  0  0  0  0  0  0
   -7.8410   22.6700  -30.9140 C   0  0  0  0  0  0  0  0  0  0  0  0
   -8.1727   19.9939  -31.4474 H   0  0  0  0  0  0  0  0  0  0  0  0
   -8.7571   20.8225  -32.9302 H   0  0  0  0  0  0  0  0  0  0  0  0
   -7.1588   20.0027  -32.9302 H   0  0  0  0  0  0  0  0  0  0  0  0
   -5.4354   21.5583  -33.0763 H   0  0  0  0  0  0  0  0  0  0  0  0
   -4.3230   23.6433  -32.2794 H   0  0  0  0  0  0  0  0  0  0  0  0
   -5.5578   26.2967  -31.1254 H   0  0  0  0  0  0  0  0  0  0  0  0
   -5.6190   25.6536  -29.4384 H   0  0  0  0  0  0  0  0  0  0  0  0
   -4.7350   23.1944  -28.9913 H   0  0  0  0  0  0  0  0  0  0  0  0
   -3.3508   21.9017  -27.3751 H   0  0  0  0  0  0  0  0  0  0  0  0
   -1.1350   21.4442  -24.9176 H   0  0  0  0  0  0  0  0  0  0  0  0
   -2.2849   21.0349  -26.2355 H   0  0  0  0  0  0  0  0  0  0  0  0
   -0.6317   20.3322  -26.2355 H   0  0  0  0  0  0  0  0  0  0  0  0
    1.2676   22.2950  -25.9373 H   0  0  0  0  0  0  0  0  0  0  0  0
   -1.3570   25.7534  -29.8614 H   0  0  0  0  0  0  0  0  0  0  0  0
   -7.7153   24.4707  -29.7156 H   0  0  0  0  0  0  0  0  0  0  0  0
   -8.8267   22.3879  -30.5153 H   0  0  0  0  0  0  0  0  0  0  0  0
  1  2  1  0
  2  3  2  0
  3  4  1  0
  4  5  2  0
  5  6  1  0
  6  7  1  0
  7  8  1  0
  8  9  2  0
  9 10  1  0
 10 11  2  0
 11 12  1  0
 12 13  1  0
 12 14  2  0
 14 15  1  0
 15 16  2  0
 15 17  1  0
 17 18  1  0
 18 19  2  0
  5 20  1  0
 20 21  2  0
 21  2  1  0
 19  8  1  0
 18 11  1  0
  1 22  1  0
  1 23  1  0
  1 24  1  0
  3 25  1  0
  4 26  1  0
  6 27  1  0
  6 28  1  0
  9 29  1  0
 10 30  1  0
 13 31  1  0
 13 32  1  0
 13 33  1  0
 14 34  1  0
 19 35  1  0
 20 36  1  0
 21 37  1  0
M  END
>  <UniqueID>  (11) 
10

>  <SMILES>  (11) 
Cc1ccc(COc2ccc3c(C)cc(=O)oc3c2)cc1

>  <Energy>  (11) 
43.68647086614509

>  <Genealogy>  (11) 
Cc1ccc(COc2ccc3c(C)cc(=O)oc3c2)cc1 (3D coordinates assigned)
Cc1ccc(COc2ccc3c(C)cc(=O)oc3c2)cc1 (optimized conformer: 43.68647086614509 kcal/mol)

>  <smiles>  (11) 
Cc1ccc(COc2ccc3c(C)cc(=O)oc3c2)cc1

>  <score_type>  (11) 
oracle

>  <origin>  (11) 
adg

>  <m_score__min__energy>  (11) 
-7.9800000000000004

>  <m_primary>  (11) 
energy

$$$$
11:0
     RDKit          3D

 28 28  0  0  0  0  0  0  0  0999 V2000
   -2.6580   23.1500  -30.0850 C   0  0  0  0  0  0  0  0  0  0  0  0
   -2.9900   24.5340  -29.5410 C   0  0  0  0  0  0  0  0  0  0  0  0
   -3.8620   25.2500  -30.4730 N   0  0  0  0  0  0  0  0  0  0  0  0
   -5.4560   24.5530  -30.5010 S   0  0  0  0  0  0  0  0  0  0  0  0
   -6.4910   25.6200  -30.2810 O   0  0  0  0  0  0  0  0  0  0  0  0
   -5.5760   23.5110  -29.4250 O   0  0  0  0  0  0  0  0  0  0  0  0
   -5.7370   23.7970  -32.0920 C   0  0  0  0  0  0  0  0  0  0  0  0
   -6.8050   22.7420  -31.9880 C   0  0  0  0  0  0  0  0  0  0  0  0
   -8.1080   23.0920  -31.6010 C   0  0  0  0  0  0  0  0  0  0  0  0
   -9.1100   22.1190  -31.5460 C   0  0  0  0  0  0  0  0  0  0  0  0
   -8.8210   20.7940  -31.8780 C   0  0  0  0  0  0  0  0  0  0  0  0
   -7.5210   20.4290  -32.2600 C   0  0  0  0  0  0  0  0  0  0  0  0
   -7.2210   19.0150  -32.6620 C   0  0  0  0  0  0  0  0  0  0  0  0
   -6.5200   21.4110  -32.3310 C   0  0  0  0  0  0  0  0  0  0  0  0
   -2.4917   22.4569  -29.2472 H   0  0  0  0  0  0  0  0  0  0  0  0
   -3.4947   22.7875  -30.7003 H   0  0  0  0  0  0  0  0  0  0  0  0
   -1.7479   23.2065  -30.7003 H   0  0  0  0  0  0  0  0  0  0  0  0
   -3.5012   24.4303  -28.5725 H   0  0  0  0  0  0  0  0  0  0  0  0
   -2.0567   25.1026  -29.4153 H   0  0  0  0  0  0  0  0  0  0  0  0
   -6.0570   24.5678  -32.8085 H   0  0  0  0  0  0  0  0  0  0  0  0
   -4.8031   23.3279  -32.4350 H   0  0  0  0  0  0  0  0  0  0  0  0
   -8.3413   24.1349  -31.3403 H   0  0  0  0  0  0  0  0  0  0  0  0
  -10.1292   22.3980  -31.2403 H   0  0  0  0  0  0  0  0  0  0  0  0
   -9.6150   20.0337  -31.8400 H   0  0  0  0  0  0  0  0  0  0  0  0
   -7.0900   18.3976  -31.7611 H   0  0  0  0  0  0  0  0  0  0  0  0
   -8.0551   18.6189  -33.2598 H   0  0  0  0  0  0  0  0  0  0  0  0
   -6.2979   18.9917  -33.2598 H   0  0  0  0  0  0  0  0  0  0  0  0
   -5.5063   21.1357  -32.6574 H   0  0  0  0  0  0  0  0  0  0  0  0
  1  2  1  0
  2  3  1  0
  3  4  1  0
  4  5  2  0
  4  6  2  0
  4  7  1  0
  7  8  1  0
  8  9  2  0
  9 10  1  0
 10 11  2  0
 11 12  1  0
 12 13  1  0
 12 14  2  0
 14  8  1  0
  1 15  1  0
  1 16  1  0
  1 17  1  0
  2 18  1  0
  2 19  1  0
  7 20  1  0
  7 21  1  0
  9 22  1  0
 10 23  1  0
 11 24  1  0
 13 25  1  0
 13 26  1  0
 13 27  1  0
 14 28  1  0
M  CHG  1   3  -1
M  END
>  <UniqueID>  (12) 
11

>  <SMILES>  (12) 
CC[N-]S(=O)(=O)Cc1cccc(C)c1

>  <Energy>  (12) 
16.773251765973328

>  <Genealogy>  (12) 
CC[N-]S(=O)(=O)Cc1cccc(C)c1 (protonated)
CC[N-]S(=O)(=O)Cc1cccc(C)c1 (3D coordinates assigned)
CC[N-]S(=O)(=O)Cc1cccc(C)c1 (optimized conformer: 16.773251765973328 kcal/mol)

>  <smiles>  (12) 
CCNS(=O)(=O)Cc1cccc(C)c1

>  <score_type>  (12) 
oracle

>  <origin>  (12) 
adg

>  <m_score__min__energy>  (12) 
-7.7300000000000004

>  <m_primary>  (12) 
energy

$$$$
12:0
     RDKit          3D

 47 47  0  0  0  0  0  0  0  0999 V2000
   -6.0880   25.3120  -30.5180 C   0  0  0  0  0  0  0  0  0  0  0  0
   -5.7780   24.3600  -29.3600 C   0  0  0  0  0  0  0  0  0  0  0  0
   -4.4000   24.5150  -28.8610 N   0  0  0  0  0  0  0  0  0  0  0  0
   -4.2200   24.0240  -27.4740 C   0  0  0  0  0  0  0  0  0  0  0  0
   -3.2840   24.9240  -26.6480 C   0  0  0  0  0  0  0  0  0  0  0  0
   -1.9060   25.0890  -27.3090 C   0  0  0  0  0  0  0  0  0  0  0  0
   -2.0440   25.1340  -28.7160 O   0  0  0  0  0  0  0  0  0  0  0  0
   -1.1970   24.1790  -29.3280 C   0  0  0  0  0  0  0  0  0  0  0  0
   -1.7340   22.7750  -29.0400 C   0  0  0  0  0  0  0  0  0  0  0  0
   -2.2350   22.0720  -30.3180 C   0  0  0  0  0  0  0  0  0  0  0  0
   -3.4800   22.5960  -30.7450 O   0  0  0  0  0  0  0  0  0  0  0  0
   -4.2960   21.5730  -31.2780 C   0  0  0  0  0  0  0  0  0  0  0  0
   -5.1890   22.1650  -32.3650 C   0  0  0  0  0  0  0  0  0  0  0  0
   -6.6000   21.6400  -32.2490 C   0  0  0  0  0  0  0  0  0  0  0  0
   -7.5500   22.3800  -31.5250 C   0  0  0  0  0  0  0  0  0  0  0  0
   -8.8580   21.9110  -31.3830 C   0  0  0  0  0  0  0  0  0  0  0  0
   -9.2300   20.6950  -31.9580 C   0  0  0  0  0  0  0  0  0  0  0  0
   -8.2930   19.9410  -32.6680 C   0  0  0  0  0  0  0  0  0  0  0  0
   -6.9770   20.3970  -32.8080 C   0  0  0  0  0  0  0  0  0  0  0  0
   -5.8320   19.3800  -33.6770 Cl  0  0  0  0  0  0  0  0  0  0  0  0
   -6.4052   26.2860  -30.1171 H   0  0  0  0  0  0  0  0  0  0  0  0
   -5.1868   25.4451  -31.1345 H   0  0  0  0  0  0  0  0  0  0  0  0
   -6.8948   24.8890  -31.1345 H   0  0  0  0  0  0  0  0  0  0  0  0
   -6.4775   24.5655  -28.5363 H   0  0  0  0  0  0  0  0  0  0  0  0
   -5.8868   23.3308  -29.7327 H   0  0  0  0  0  0  0  0  0  0  0  0
   -4.1770   25.5380  -28.8770 H   0  0  0  0  0  0  0  0  0  0  0  0
   -3.7400   24.0550  -29.5300 H   0  0  0  0  0  0  0  0  0  0  0  0
   -5.2028   23.9904  -26.9812 H   0  0  0  0  0  0  0  0  0  0  0  0
   -3.7614   23.0257  -27.5293 H   0  0  0  0  0  0  0  0  0  0  0  0
   -3.7477   25.9159  -26.5430 H   0  0  0  0  0  0  0  0  0  0  0  0
   -3.1340   24.4469  -25.6683 H   0  0  0  0  0  0  0  0  0  0  0  0
   -1.4440   26.0238  -26.9587 H   0  0  0  0  0  0  0  0  0  0  0  0
   -1.2713   24.2328  -27.0367 H   0  0  0  0  0  0  0  0  0  0  0  0
   -1.1748   24.3491  -30.4145 H   0  0  0  0  0  0  0  0  0  0  0  0
   -0.1780   24.2756  -28.9252 H   0  0  0  0  0  0  0  0  0  0  0  0
   -0.9288   22.1715  -28.5957 H   0  0  0  0  0  0  0  0  0  0  0  0
   -2.5860   22.8729  -28.3511 H   0  0  0  0  0  0  0  0  0  0  0  0
   -1.4939   22.2146  -31.1182 H   0  0  0  0  0  0  0  0  0  0  0  0
   -2.3690   21.0034  -30.0940 H   0  0  0  0  0  0  0  0  0  0  0  0
   -3.6630   20.7839  -31.7100 H   0  0  0  0  0  0  0  0  0  0  0  0
   -4.9183   21.1407  -30.4806 H   0  0  0  0  0  0  0  0  0  0  0  0
   -5.2028   23.2602  -32.2628 H   0  0  0  0  0  0  0  0  0  0  0  0
   -4.7861   21.8755  -33.3468 H   0  0  0  0  0  0  0  0  0  0  0  0
   -7.2611   23.3370  -31.0660 H   0  0  0  0  0  0  0  0  0  0  0  0
   -9.5951   22.5003  -30.8178 H   0  0  0  0  0  0  0  0  0  0  0  0
  -10.2623   20.3300  -31.8519 H   0  0  0  0  0  0  0  0  0  0  0  0
   -8.5909   18.9833  -33.1198 H   0  0  0  0  0  0  0  0  0  0  0  0
  1  2  1  0
  2  3  1  0
  3  4  1  0
  4  5  1  0
  5  6  1  0
  6  7  1  0
  7  8  1  0
  8  9  1  0
  9 10  1  0
 10 11  1  0
 11 12  1  0
 12 13  1  0
 13 14  1  0
 14 15  2  0
 15 16  1  0
 16 17  2  0
 17 18  1  0
 18 19  2  0
 19 20  1  0
 19 14  1  0
  1 21  1  0
  1 22  1  0
  1 23  1  0
  2 24  1  0
  2 25  1  0
  3 26  1  0
  3 27  1  0
  4 28  1  0
  4 29  1  0
  5 30  1  0
  5 31  1  0
  6 32  1  0
  6 33  1  0
  8 34  1  0
  8 35  1  0
  9 36  1  0
  9 37  1  0
 10 38  1  0
 10 39  1  0
 12 40  1  0
 12 41  1  0
 13 42  1  0
 13 43  1  0
 15 44  1  0
 16 45  1  0
 17 46  1  0
 18 47  1  0
M  CHG  1   3   1
M  END
>  <UniqueID>  (13) 
12

>  <SMILES>  (13) 
CC[NH2+]CCCOCCCOCCc1ccccc1Cl

>  <Energy>  (13) 
40.7116279498096

>  <Genealogy>  (13) 
CC[NH2+]CCCOCCCOCCc1ccccc1Cl (protonated)
CC[NH2+]CCCOCCCOCCc1ccccc1Cl (3D coordinates assigned)
CC[NH2+]CCCOCCCOCCc1ccccc1Cl (optimized conformer: 40.7116279498096 kcal/mol)

>  <smiles>  (13) 
CCNCCCOCCCOCCc1ccccc1Cl

>  <score_type>  (13) 
oracle

>  <origin>  (13) 
adg

>  <m_score__min__energy>  (13) 
-7.2800000000000002

>  <m_primary>  (13) 
energy

$$$$
13:0
     RDKit          3D

 42 44  0  0  0  0  0  0  0  0999 V2000
   -0.6060   25.8400  -25.9910 C   0  0  0  0  0  0  0  0  0  0  0  0
   -1.6840   25.2680  -26.8620 C   0  0  0  0  0  0  0  0  0  0  0  0
   -2.9620   25.0210  -26.3360 C   0  0  0  0  0  0  0  0  0  0  0  0
   -3.9770   24.5210  -27.1560 C   0  0  0  0  0  0  0  0  0  0  0  0
   -3.7330   24.2750  -28.5160 C   0  0  0  0  0  0  0  0  0  0  0  0
   -4.8180   23.7190  -29.4020 C   0  0  0  0  0  0  0  0  0  0  0  0
   -4.5940   24.0770  -30.8230 N   0  0  0  0  0  0  0  0  0  0  0  0
   -5.8520   24.4930  -31.4920 C   0  0  0  0  0  0  0  0  0  0  0  0
   -6.5250   23.3860  -32.3340 C   0  0  0  0  0  0  0  0  0  0  0  0
   -6.1270   22.0460  -31.8870 N   0  0  0  0  0  0  0  0  0  0  0  0
   -7.0780   20.9650  -31.9030 C   0  0  0  0  0  0  0  0  0  0  0  0
   -8.4560   21.2310  -31.9800 C   0  0  0  0  0  0  0  0  0  0  0  0
   -9.3790   20.1810  -31.9940 C   0  0  0  0  0  0  0  0  0  0  0  0
   -8.9370   18.8570  -31.9350 C   0  0  0  0  0  0  0  0  0  0  0  0
   -9.8330   17.8410  -31.9500 F   0  0  0  0  0  0  0  0  0  0  0  0
   -7.5690   18.5810  -31.8600 C   0  0  0  0  0  0  0  0  0  0  0  0
   -6.6420   19.6280  -31.8460 C   0  0  0  0  0  0  0  0  0  0  0  0
   -4.7030   21.7440  -31.6980 C   0  0  0  0  0  0  0  0  0  0  0  0
   -3.8790   23.0330  -31.5910 C   0  0  0  0  0  0  0  0  0  0  0  0
   -2.4600   24.5390  -29.0450 C   0  0  0  0  0  0  0  0  0  0  0  0
   -1.4440   25.0390  -28.2250 C   0  0  0  0  0  0  0  0  0  0  0  0
   -0.8746   25.6975  -24.9339 H   0  0  0  0  0  0  0  0  0  0  0  0
    0.3447   25.3277  -26.2001 H   0  0  0  0  0  0  0  0  0  0  0  0
   -0.4972   26.9145  -26.2001 H   0  0  0  0  0  0  0  0  0  0  0  0
   -3.1652   25.2219  -25.2738 H   0  0  0  0  0  0  0  0  0  0  0  0
   -4.9723   24.3192  -26.7334 H   0  0  0  0  0  0  0  0  0  0  0  0
   -4.8309   22.6232  -29.3070 H   0  0  0  0  0  0  0  0  0  0  0  0
   -5.7787   24.1503  -29.0842 H   0  0  0  0  0  0  0  0  0  0  0  0
   -6.5630   24.8157  -30.7172 H   0  0  0  0  0  0  0  0  0  0  0  0
   -5.5835   25.2988  -32.1910 H   0  0  0  0  0  0  0  0  0  0  0  0
   -7.6169   23.4826  -32.2423 H   0  0  0  0  0  0  0  0  0  0  0  0
   -6.2047   23.5079  -33.3792 H   0  0  0  0  0  0  0  0  0  0  0  0
   -8.8102   22.2712  -32.0295 H   0  0  0  0  0  0  0  0  0  0  0  0
  -10.4559   20.3979  -32.0516 H   0  0  0  0  0  0  0  0  0  0  0  0
   -7.2209   17.5386  -31.8119 H   0  0  0  0  0  0  0  0  0  0  0  0
   -5.5662   19.4054  -31.7901 H   0  0  0  0  0  0  0  0  0  0  0  0
   -4.5784   21.1594  -30.7746 H   0  0  0  0  0  0  0  0  0  0  0  0
   -4.3472   21.1709  -32.5669 H   0  0  0  0  0  0  0  0  0  0  0  0
   -2.9280   22.8074  -31.0863 H   0  0  0  0  0  0  0  0  0  0  0  0
   -3.7045   23.4141  -32.6080 H   0  0  0  0  0  0  0  0  0  0  0  0
   -2.2607   24.3515  -30.1104 H   0  0  0  0  0  0  0  0  0  0  0  0
   -0.4525   25.2537  -28.6503 H   0  0  0  0  0  0  0  0  0  0  0  0
  1  2  1  0
  2  3  2  0
  3  4  1  0
  4  5  2  0
  5  6  1  0
  6  7  1  0
  7  8  1  0
  8  9  1  0
  9 10  1  0
 10 11  1  0
 11 12  2  0
 12 13  1  0
 13 14  2  0
 14 15  1  0
 14 16  1  0
 16 17  2  0
 10 18  1  0
 18 19  1  0
  5 20  1  0
 20 21  2  0
 21  2  1  0
 19  7  1  0
 17 11  1  0
  1 22  1  0
  1 23  1  0
  1 24  1  0
  3 25  1  0
  4 26  1  0
  6 27  1  0
  6 28  1  0
  8 29  1  0
  8 30  1  0
  9 31  1  0
  9 32  1  0
 12 33  1  0
 13 34  1  0
 16 35  1  0
 17 36  1  0
 18 37  1  0
 18 38  1  0
 19 39  1  0
 19 40  1  0
 20 41  1  0
 21 42  1  0
M  END
>  <UniqueID>  (14) 
13

>  <SMILES>  (14) 
Cc1ccc(CN2CCN(c3ccc(F)cc3)CC2)cc1

>  <Energy>  (14) 
55.003757431474156

>  <Genealogy>  (14) 
Cc1ccc(CN2CCN(c3ccc(F)cc3)CC2)cc1 (3D coordinates assigned)
Cc1ccc(CN2CCN(c3ccc(F)cc3)CC2)cc1 (nonaromatic ring conformer: 55.003757431474156 kcal/mol)

>  <smiles>  (14) 
Cc1ccc(CN2CCN(c3ccc(F)cc3)CC2)cc1

>  <score_type>  (14) 
oracle

>  <origin>  (14) 
adg

>  <m_score__min__energy>  (14) 
-7.71

>  <m_primary>  (14) 
energy

$$$$
14:0
     RDKit          3D

 23 22  0  0  0  0  0  0  0  0999 V2000
   -9.1020   18.5490  -31.5880 C   0  0  0  0  0  0  0  0  0  0  0  0
   -8.9170   19.6420  -32.6520 C   0  0  0  0  0  0  0  0  0  0  0  0
   -7.5350   19.7440  -33.1970 N   0  0  0  0  0  0  0  0  0  0  0  0
   -6.7990   20.9460  -32.7210 C   0  0  0  0  0  0  0  0  0  0  0  0
   -7.6860   21.9210  -31.9360 C   0  0  0  0  0  0  0  0  0  0  0  0
   -6.7610   18.5030  -32.9220 C   0  0  0  0  0  0  0  0  0  0  0  0
   -6.0210   17.9830  -34.1620 C   0  0  0  0  0  0  0  0  0  0  0  0
   -6.1100   18.9180  -35.1780 F   0  0  0  0  0  0  0  0  0  0  0  0
   -9.0263   18.9963  -30.5859 H   0  0  0  0  0  0  0  0  0  0  0  0
  -10.0916   18.0840  -31.7082 H   0  0  0  0  0  0  0  0  0  0  0  0
   -8.3205   17.7842  -31.7082 H   0  0  0  0  0  0  0  0  0  0  0  0
   -9.6009   19.4285  -33.4867 H   0  0  0  0  0  0  0  0  0  0  0  0
   -9.1301   20.6008  -32.1567 H   0  0  0  0  0  0  0  0  0  0  0  0
   -7.6430   19.8320  -34.2360 H   0  0  0  0  0  0  0  0  0  0  0  0
   -5.9765   20.6177  -32.0686 H   0  0  0  0  0  0  0  0  0  0  0  0
   -6.4308   21.4793  -33.6098 H   0  0  0  0  0  0  0  0  0  0  0  0
   -7.5409   21.7615  -30.8573 H   0  0  0  0  0  0  0  0  0  0  0  0
   -7.4122   22.9547  -32.1939 H   0  0  0  0  0  0  0  0  0  0  0  0
   -8.7409   21.7459  -32.1939 H   0  0  0  0  0  0  0  0  0  0  0  0
   -6.0231   18.7151  -32.1343 H   0  0  0  0  0  0  0  0  0  0  0  0
   -7.4752   17.7268  -32.6099 H   0  0  0  0  0  0  0  0  0  0  0  0
   -4.9634   17.8118  -33.9129 H   0  0  0  0  0  0  0  0  0  0  0  0
   -6.4775   17.0382  -34.4921 H   0  0  0  0  0  0  0  0  0  0  0  0
  1  2  1  0
  2  3  1  0
  3  4  1  0
  4  5  1  0
  3  6  1  0
  6  7  1  0
  7  8  1  0
  1  9  1  0
  1 10  1  0
  1 11  1  0
  2 12  1  0
  2 13  1  0
  3 14  1  0
  4 15  1  0
  4 16  1  0
  5 17  1  0
  5 18  1  0
  5 19  1  0
  6 20  1  0
  6 21  1  0
  7 22  1  0
  7 23  1  0
M  CHG  1   3   1
M  END
>  <UniqueID>  (15) 
14

>  <SMILES>  (15) 
CC[NH+](CC)CCF

>  <Energy>  (15) 
19.513064658563408

>  <Genealogy>  (15) 
CC[NH+](CC)CCF (protonated)
CC[NH+](CC)CCF (3D coordinates assigned)
CC[NH+](CC)CCF (optimized conformer: 19.513064658563408 kcal/mol)

>  <smiles>  (15) 
CCN(CC)CCF

>  <score_type>  (15) 
oracle

>  <origin>  (15) 
adg

>  <m_score__min__energy>  (15) 
-2.7000000000000002

>  <m_primary>  (15) 
energy

$$$$
15:0
     RDKit          3D

 39 40  0  0  0  0  0  0  0  0999 V2000
  -10.1093   19.4021  -32.7760 H   0  0  0  0  0  0  0  0  0  0  0  0
   -9.2560   20.0400  -32.5020 C   0  0  0  0  0  0  0  0  0  0  0  0
   -9.4790   21.3020  -31.9420 C   0  0  0  0  0  0  0  0  0  0  0  0
  -10.5075   21.6529  -31.7717 H   0  0  0  0  0  0  0  0  0  0  0  0
   -8.3970   22.1190  -31.5980 C   0  0  0  0  0  0  0  0  0  0  0  0
   -8.5753   23.1116  -31.1587 H   0  0  0  0  0  0  0  0  0  0  0  0
   -7.0850   21.6730  -31.8130 C   0  0  0  0  0  0  0  0  0  0  0  0
   -6.8620   20.3970  -32.3600 C   0  0  0  0  0  0  0  0  0  0  0  0
   -7.9500   19.5880  -32.7140 C   0  0  0  0  0  0  0  0  0  0  0  0
   -7.7765   18.5970  -33.1588 H   0  0  0  0  0  0  0  0  0  0  0  0
   -5.5160   19.9450  -32.5510 N   0  0  0  0  0  0  0  0  0  0  0  0
   -5.3260   19.0680  -33.0870 H   0  0  0  0  0  0  0  0  0  0  0  0
   -4.4050   20.6390  -31.9020 C   0  0  0  0  0  0  0  0  0  0  0  0
   -3.4661   20.3793  -32.4129 H   0  0  0  0  0  0  0  0  0  0  0  0
   -4.3561   20.3307  -30.8472 H   0  0  0  0  0  0  0  0  0  0  0  0
   -4.6170   22.1620  -31.9710 C   0  0  2  0  0  0  0  0  0  0  0  0
   -4.5165   22.4785  -33.0197 H   0  0  0  0  0  0  0  0  0  0  0  0
   -3.5720   22.8850  -31.1560 C   0  0  0  0  0  0  0  0  0  0  0  0
   -3.8880   24.0060  -30.5770 N   0  0  0  0  0  0  0  0  0  0  0  0
   -4.6180   24.9840  -31.2150 O   0  0  0  0  0  0  0  0  0  0  0  0
   -5.3710   25.9220  -30.4650 C   0  0  0  0  0  0  0  0  0  0  0  0
   -4.7159   26.4143  -29.7312 H   0  0  0  0  0  0  0  0  0  0  0  0
   -5.7955   26.6762  -31.1440 H   0  0  0  0  0  0  0  0  0  0  0  0
   -6.4970   25.2070  -29.7380 C   0  0  0  0  0  0  0  0  0  0  0  0
   -6.3498   25.3005  -28.6519 H   0  0  0  0  0  0  0  0  0  0  0  0
   -7.4597   25.6596  -30.0178 H   0  0  0  0  0  0  0  0  0  0  0  0
   -6.4968   24.1432  -30.0178 H   0  0  0  0  0  0  0  0  0  0  0  0
   -2.1640   22.3370  -31.0930 C   0  0  0  0  0  0  0  0  0  0  0  0
   -1.5191   22.9363  -31.7525 H   0  0  0  0  0  0  0  0  0  0  0  0
   -2.1923   21.2856  -31.4153 H   0  0  0  0  0  0  0  0  0  0  0  0
   -1.5960   22.3830  -29.6680 C   0  0  0  0  0  0  0  0  0  0  0  0
   -0.7756   21.6542  -29.5917 H   0  0  0  0  0  0  0  0  0  0  0  0
   -2.4154   22.1442  -28.9741 H   0  0  0  0  0  0  0  0  0  0  0  0
   -1.0600   23.7650  -29.2950 C   0  0  0  0  0  0  0  0  0  0  0  0
   -1.0229   23.8606  -28.1998 H   0  0  0  0  0  0  0  0  0  0  0  0
   -0.0483   23.8897  -29.7084 H   0  0  0  0  0  0  0  0  0  0  0  0
   -1.7230   24.5393  -29.7084 H   0  0  0  0  0  0  0  0  0  0  0  0
   -5.9630   22.5100  -31.4990 N   0  0  0  0  0  0  0  0  0  0  0  0
   -6.1350   23.4620  -31.1000 H   0  0  0  0  0  0  0  0  0  0  0  0
  1  2  1  0
  2  3  2  0
  3  4  1  0
  3  5  1  0
  5  6  1  0
  5  7  2  0
  7  8  1  0
  8  9  2  0
  9 10  1  0
  8 11  1  0
 11 12  1  0
 11 13  1  0
 13 14  1  0
 13 15  1  0
 13 16  1  0
 16 17  1  6
 16 18  1  0
 18 19  2  0
 19 20  1  0
 20 21  1  0
 21 22  1  0
 21 23  1  0
 21 24  1  0
 24 25  1  0
 24 26  1  0
 24 27  1  0
 18 28  1  0
 28 29  1  0
 28 30  1  0
 28 31  1  0
 31 32  1  0
 31 33  1  0
 31 34  1  0
 34 35  1  0
 34 36  1  0
 34 37  1  0
 16 38  1  0
 38 39  1  0
  9  2  1  0
 38  7  1  0
M  END
>  <UniqueID>  (16) 
15

>  <SMILES>  (16) 
CCC/C(=N\OCC)[C@H]1CNc2ccccc2N1

>  <Energy>  (16) 
24.585737561123377

>  <Genealogy>  (16) 
CCCC(=NOCC)[C@H]1CNc2ccccc2N1 (chirality)
CCC/C(=N\OCC)[C@H]1CNc2ccccc2N1 (cis-trans isomerization)
CCC/C(=N\OCC)[C@H]1CNc2ccccc2N1 (3D coordinates assigned)
CCC/C(=N\OCC)[C@H]1CNc2ccccc2N1 (nonaromatic ring conformer: 24.585737561123377 kcal/mol)

>  <smiles>  (16) 
CCCC(=NOCC)C1CNc2ccccc2N1

>  <score_type>  (16) 
oracle

>  <origin>  (16) 
adg

>  <m_score__min__energy>  (16) 
-6.5499999999999998

>  <m_primary>  (16) 
energy

$$$$
16:0
     RDKit          3D

 65 69  0  0  0  0  0  0  0  0999 V2000
   -4.4110   21.6580  -31.7680 C   0  0  0  0  0  0  0  0  0  0  0  0
   -5.8090   22.0670  -31.8930 N   0  0  0  0  0  0  0  0  0  0  0  0
   -6.8840   21.3340  -32.2760 C   0  0  0  0  0  0  0  0  0  0  0  0
   -6.8630   19.9140  -32.6790 C   0  0  0  0  0  0  0  0  0  0  0  0
   -7.6840   18.9920  -32.0100 C   0  0  0  0  0  0  0  0  0  0  0  0
   -7.6980   17.6480  -32.3980 C   0  0  0  0  0  0  0  0  0  0  0  0
   -6.9060   17.2220  -33.4680 C   0  0  0  0  0  0  0  0  0  0  0  0
   -6.1020   18.1360  -34.1540 C   0  0  0  0  0  0  0  0  0  0  0  0
   -6.0810   19.4790  -33.7650 C   0  0  0  0  0  0  0  0  0  0  0  0
   -8.0160   22.0710  -32.2530 N   0  0  0  0  0  0  0  0  0  0  0  0
   -7.6570   23.2890  -31.8820 N   0  0  0  0  0  0  0  0  0  0  0  0
   -6.3300   23.2910  -31.6770 C   0  0  0  0  0  0  0  0  0  0  0  0
   -5.4090   24.7460  -31.1620 S   0  0  0  0  0  0  0  0  0  0  0  0
   -5.8000   24.6210  -29.3740 C   0  0  0  0  0  0  0  0  0  0  0  0
   -4.9670   23.5820  -28.6090 C   0  0  0  0  0  0  0  0  0  0  0  0
   -4.0160   24.2100  -27.5860 C   0  0  0  0  0  0  0  0  0  0  0  0
   -2.7200   24.4930  -28.2430 N   0  0  0  0  0  0  0  0  0  0  0  0
   -1.8890   23.3080  -28.5510 C   0  0  0  0  0  0  0  0  0  0  0  0
   -0.8620   22.9450  -27.4400 C   0  0  1  0  0  0  0  0  0  0  0  0
    0.5990   23.2380  -27.8600 C   0  0  0  0  0  0  0  0  0  0  0  0
    0.8870   24.6270  -27.9040 O   0  0  0  0  0  0  0  0  0  0  0  0
    1.2520   25.1310  -26.6290 C   0  0  0  0  0  0  0  0  0  0  0  0
    0.0650   25.8640  -25.9310 C   0  0  0  0  0  0  0  0  0  0  0  0
    0.3000   25.9180  -24.4030 C   0  0  0  0  0  0  0  0  0  0  0  0
   -0.3710   27.1950  -23.8940 C   0  0  0  0  0  0  0  0  0  0  0  0
   -0.6550   28.0570  -25.1180 C   0  0  0  0  0  0  0  0  0  0  0  0
    0.0480   27.3740  -26.2790 C   0  0  0  0  0  0  0  0  0  0  0  0
   -1.3150   25.1530  -26.2330 C   0  0  2  0  0  0  0  0  0  0  0  0
   -1.2130   23.6080  -26.1020 C   0  0  0  0  0  0  0  0  0  0  0  0
   -1.9510   25.5700  -27.5980 C   0  0  0  0  0  0  0  0  0  0  0  0
   -4.1455   21.5803  -30.7034 H   0  0  0  0  0  0  0  0  0  0  0  0
   -4.2700   20.6810  -32.2533 H   0  0  0  0  0  0  0  0  0  0  0  0
   -3.7656   22.4050  -32.2533 H   0  0  0  0  0  0  0  0  0  0  0  0
   -8.3190   19.3280  -31.1770 H   0  0  0  0  0  0  0  0  0  0  0  0
   -8.3320   16.9269  -31.8613 H   0  0  0  0  0  0  0  0  0  0  0  0
   -6.9157   16.1645  -33.7708 H   0  0  0  0  0  0  0  0  0  0  0  0
   -5.4854   17.7990  -35.0003 H   0  0  0  0  0  0  0  0  0  0  0  0
   -5.4511   20.1977  -34.3097 H   0  0  0  0  0  0  0  0  0  0  0  0
   -8.3100   24.0950  -31.7690 H   0  0  0  0  0  0  0  0  0  0  0  0
   -5.6263   25.6055  -28.9151 H   0  0  0  0  0  0  0  0  0  0  0  0
   -6.8475   24.2923  -29.3060 H   0  0  0  0  0  0  0  0  0  0  0  0
   -5.6529   22.9044  -28.0795 H   0  0  0  0  0  0  0  0  0  0  0  0
   -4.3495   23.0488  -29.3469 H   0  0  0  0  0  0  0  0  0  0  0  0
   -4.4494   25.1470  -27.2063 H   0  0  0  0  0  0  0  0  0  0  0  0
   -3.8632   23.5164  -26.7460 H   0  0  0  0  0  0  0  0  0  0  0  0
   -2.5571   22.4466  -28.6984 H   0  0  0  0  0  0  0  0  0  0  0  0
   -1.3075   23.5543  -29.4517 H   0  0  0  0  0  0  0  0  0  0  0  0
   -0.9318   21.8567  -27.2960 H   0  0  0  0  0  0  0  0  0  0  0  0
    1.2759   22.7608  -27.1361 H   0  0  0  0  0  0  0  0  0  0  0  0
    0.7406   22.8365  -28.8743 H   0  0  0  0  0  0  0  0  0  0  0  0
    1.5746   24.2925  -25.9943 H   0  0  0  0  0  0  0  0  0  0  0  0
    2.0655   25.8578  -26.7701 H   0  0  0  0  0  0  0  0  0  0  0  0
   -0.1482   25.0371  -23.9202 H   0  0  0  0  0  0  0  0  0  0  0  0
    1.3751   25.9190  -24.1702 H   0  0  0  0  0  0  0  0  0  0  0  0
   -1.3103   26.9496  -23.3767 H   0  0  0  0  0  0  0  0  0  0  0  0
    0.2756   27.7240  -23.1784 H   0  0  0  0  0  0  0  0  0  0  0  0
   -1.7376   28.1118  -25.3048 H   0  0  0  0  0  0  0  0  0  0  0  0
   -0.2971   29.0878  -24.9785 H   0  0  0  0  0  0  0  0  0  0  0  0
   -0.5033   27.5454  -27.2153 H   0  0  0  0  0  0  0  0  0  0  0  0
    1.0646   27.7677  -26.4257 H   0  0  0  0  0  0  0  0  0  0  0  0
   -2.0049   25.5138  -25.4559 H   0  0  0  0  0  0  0  0  0  0  0  0
   -0.4313   23.3637  -25.3676 H   0  0  0  0  0  0  0  0  0  0  0  0
   -2.1927   23.2268  -25.7780 H   0  0  0  0  0  0  0  0  0  0  0  0
   -2.6250   26.4213  -27.4220 H   0  0  0  0  0  0  0  0  0  0  0  0
   -1.1227   25.8254  -28.2753 H   0  0  0  0  0  0  0  0  0  0  0  0
  1  2  1  0
  2  3  1  0
  3  4  1  0
  4  5  2  0
  5  6  1  0
  6  7  2  0
  7  8  1  0
  8  9  2  0
  3 10  2  0
 10 11  1  0
 11 12  2  0
 12 13  1  0
 13 14  1  0
 14 15  1  0
 15 16  1  0
 16 17  1  0
 17 18  1  0
 18 19  1  0
 19 20  1  0
 20 21  1  0
 21 22  1  0
 22 23  1  0
 23 24  1  0
 24 25  1  0
 25 26  1  0
 26 27  1  0
 23 28  1  0
 28 29  1  0
 28 30  1  0
 12  2  1  0
 30 17  1  0
  9  4  1  0
 29 19  1  0
 27 23  1  0
  1 31  1  0
  1 32  1  0
  1 33  1  0
  5 34  1  0
  6 35  1  0
  7 36  1  0
  8 37  1  0
  9 38  1  0
 11 39  1  0
 14 40  1  0
 14 41  1  0
 15 42  1  0
 15 43  1  0
 16 44  1  0
 16 45  1  0
 18 46  1  0
 18 47  1  0
 19 48  1  1
 20 49  1  0
 20 50  1  0
 22 51  1  0
 22 52  1  0
 24 53  1  0
 24 54  1  0
 25 55  1  0
 25 56  1  0
 26 57  1  0
 26 58  1  0
 27 59  1  0
 27 60  1  0
 28 61  1  1
 29 62  1  0
 29 63  1  0
 30 64  1  0
 30 65  1  0
M  CHG  1  11   1
M  END
>  <UniqueID>  (17) 
16

>  <SMILES>  (17) 
Cn1c(-c2ccccc2)n[nH+]c1SCCCN1C[C@H]2COCC3(CCCC3)[C@H](C2)C1

>  <Energy>  (17) 
131.46882338063617

>  <Genealogy>  (17) 
Cn1c(-c2ccccc2)n[nH+]c1SCCCN1CC2COCC3(CCCC3)C(C2)C1 (protonated)
Cn1c(-c2ccccc2)n[nH+]c1SCCCN1C[C@H]2COCC3(CCCC3)[C@H](C2)C1 (chirality)
Cn1c(-c2ccccc2)n[nH+]c1SCCCN1C[C@H]2COCC3(CCCC3)[C@H](C2)C1 (3D coordinates assigned)
Cn1c(-c2ccccc2)n[nH+]c1SCCCN1C[C@H]2COCC3(CCCC3)[C@H](C2)C1 (nonaromatic ring conformer: 131.46882338063617 kcal/mol)

>  <smiles>  (17) 
Cn1c(SCCCN2CC3COCC4(CCCC4)C(C3)C2)nnc1-c1ccccc1

>  <score_type>  (17) 
oracle

>  <origin>  (17) 
adg

>  <m_score__min__energy>  (17) 
-8.9800000000000004

>  <m_primary>  (17) 
energy

$$$$
17:0
     RDKit          3D

 44 45  0  0  0  0  0  0  0  0999 V2000
    1.2000   29.2620  -24.1100 C   0  0  0  0  0  0  0  0  0  0  0  0
    0.2110   29.7440  -25.1720 C   0  0  0  0  0  0  0  0  0  0  0  0
   -0.9030   28.7210  -25.4440 C   0  0  0  0  0  0  0  0  0  0  0  0
   -0.4540   27.5480  -26.3310 C   0  0  0  0  0  0  0  0  0  0  0  0
   -0.3340   26.3010  -25.5680 N   0  0  0  0  0  0  0  0  0  0  0  0
    0.6660   25.9450  -24.7410 C   0  0  0  0  0  0  0  0  0  0  0  0
    0.3600   24.8080  -24.0950 N   0  0  0  0  0  0  0  0  0  0  0  0
   -0.8460   24.4220  -24.4780 N   0  0  0  0  0  0  0  0  0  0  0  0
   -1.2620   25.3380  -25.3730 C   0  0  0  0  0  0  0  0  0  0  0  0
   -2.8940   25.3040  -26.1230 S   0  0  0  0  0  0  0  0  0  0  0  0
   -2.4610   24.0430  -27.3690 C   0  0  0  0  0  0  0  0  0  0  0  0
   -2.0280   24.6810  -28.6590 C   0  0  0  0  0  0  0  0  0  0  0  0
   -0.8260   25.0280  -28.7940 O   0  0  0  0  0  0  0  0  0  0  0  0
   -2.9420   24.9250  -29.7380 N   0  0  0  0  0  0  0  0  0  0  0  0
   -3.8480   23.9650  -30.3050 C   0  0  0  0  0  0  0  0  0  0  0  0
   -5.2120   24.3060  -30.4540 C   0  0  0  0  0  0  0  0  0  0  0  0
   -5.7270   25.6740  -30.1000 C   0  0  0  0  0  0  0  0  0  0  0  0
   -6.1040   23.3730  -31.0030 C   0  0  0  0  0  0  0  0  0  0  0  0
   -5.6580   22.1150  -31.3990 C   0  0  0  0  0  0  0  0  0  0  0  0
   -4.3090   21.7840  -31.2890 C   0  0  0  0  0  0  0  0  0  0  0  0
   -3.3870   22.7070  -30.7730 C   0  0  0  0  0  0  0  0  0  0  0  0
   -1.9330   22.3200  -30.7340 C   0  0  0  0  0  0  0  0  0  0  0  0
    0.7897   29.4620  -23.1092 H   0  0  0  0  0  0  0  0  0  0  0  0
    1.3674   28.1813  -24.2284 H   0  0  0  0  0  0  0  0  0  0  0  0
    2.1544   29.7960  -24.2284 H   0  0  0  0  0  0  0  0  0  0  0  0
   -0.2479   30.6823  -24.8271 H   0  0  0  0  0  0  0  0  0  0  0  0
    0.7693   29.8881  -26.1087 H   0  0  0  0  0  0  0  0  0  0  0  0
   -1.2479   28.3172  -24.4807 H   0  0  0  0  0  0  0  0  0  0  0  0
   -1.7024   29.2487  -25.9848 H   0  0  0  0  0  0  0  0  0  0  0  0
   -1.1935   27.4048  -27.1327 H   0  0  0  0  0  0  0  0  0  0  0  0
    0.5359   27.7919  -26.7441 H   0  0  0  0  0  0  0  0  0  0  0  0
    1.6030   26.5066  -24.6121 H   0  0  0  0  0  0  0  0  0  0  0  0
    0.9490   24.3100  -23.3930 H   0  0  0  0  0  0  0  0  0  0  0  0
   -1.6391   23.4230  -26.9816 H   0  0  0  0  0  0  0  0  0  0  0  0
   -3.3511   23.4274  -27.5660 H   0  0  0  0  0  0  0  0  0  0  0  0
   -5.7666   25.7791  -29.0057 H   0  0  0  0  0  0  0  0  0  0  0  0
   -5.0550   26.4382  -30.5177 H   0  0  0  0  0  0  0  0  0  0  0  0
   -6.7361   25.8053  -30.5177 H   0  0  0  0  0  0  0  0  0  0  0  0
   -7.1651   23.6376  -31.1217 H   0  0  0  0  0  0  0  0  0  0  0  0
   -6.3723   21.3806  -31.7997 H   0  0  0  0  0  0  0  0  0  0  0  0
   -3.9638   20.7900  -31.6096 H   0  0  0  0  0  0  0  0  0  0  0  0
   -1.6048   22.2326  -29.6878 H   0  0  0  0  0  0  0  0  0  0  0  0
   -1.7968   21.3543  -31.2429 H   0  0  0  0  0  0  0  0  0  0  0  0
   -1.3348   23.0902  -31.2429 H   0  0  0  0  0  0  0  0  0  0  0  0
  1  2  1  0
  2  3  1  0
  3  4  1  0
  4  5  1  0
  5  6  1  0
  6  7  2  0
  7  8  1  0
  8  9  2  0
  9 10  1  0
 10 11  1  0
 11 12  1  0
 12 13  2  0
 12 14  1  0
 14 15  1  0
 15 16  2  0
 16 17  1  0
 16 18  1  0
 18 19  2  0
 19 20  1  0
 20 21  2  0
 21 22  1  0
  9  5  1  0
 21 15  1  0
  1 23  1  0
  1 24  1  0
  1 25  1  0
  2 26  1  0
  2 27  1  0
  3 28  1  0
  3 29  1  0
  4 30  1  0
  4 31  1  0
  6 32  1  0
  7 33  1  0
 11 34  1  0
 11 35  1  0
 17 36  1  0
 17 37  1  0
 17 38  1  0
 18 39  1  0
 19 40  1  0
 20 41  1  0
 22 42  1  0
 22 43  1  0
 22 44  1  0
M  CHG  2   7   1  14  -1
M  END
>  <UniqueID>  (18) 
17

>  <SMILES>  (18) 
CCCCn1c[nH+]nc1SCC(=O)[N-]c1c(C)cccc1C

>  <Energy>  (18) 
70.68707446680779

>  <Genealogy>  (18) 
CCCCn1c[nH+]nc1SCC(=O)[N-]c1c(C)cccc1C (protonated)
CCCCn1c[nH+]nc1SCC(=O)[N-]c1c(C)cccc1C (3D coordinates assigned)
CCCCn1c[nH+]nc1SCC(=O)[N-]c1c(C)cccc1C (optimized conformer: 70.68707446680779 kcal/mol)

>  <smiles>  (18) 
CCCCn1cnnc1SCC(=O)Nc1c(C)cccc1C

>  <score_type>  (18) 
oracle

>  <origin>  (18) 
adg

>  <m_score__min__energy>  (18) 
-9.0999999999999996

>  <m_primary>  (18) 
energy

$$$$
18:0
     RDKit          3D

 57 59  0  0  0  0  0  0  0  0999 V2000
   -5.3830   17.5710  -33.8710 C   0  0  0  0  0  0  0  0  0  0  0  0
   -5.5140   18.9020  -33.2380 N   0  0  0  0  0  0  0  0  0  0  0  0
   -4.4050   19.7150  -33.0980 C   0  0  0  0  0  0  0  0  0  0  0  0
   -3.0880   19.2150  -33.2600 C   0  0  0  0  0  0  0  0  0  0  0  0
   -1.9790   20.0510  -33.1330 C   0  0  0  0  0  0  0  0  0  0  0  0
   -2.1490   21.3960  -32.8230 C   0  0  0  0  0  0  0  0  0  0  0  0
   -3.4270   21.9100  -32.6250 C   0  0  0  0  0  0  0  0  0  0  0  0
   -4.5650   21.0860  -32.7610 C   0  0  0  0  0  0  0  0  0  0  0  0
   -5.8550   21.5940  -32.5270 C   0  0  0  0  0  0  0  0  0  0  0  0
   -6.0580   23.0040  -32.3220 N   0  0  0  0  0  0  0  0  0  0  0  0
   -6.2310   23.5690  -30.9820 C   0  0  0  0  0  0  0  0  0  0  0  0
   -4.9000   23.5930  -30.2130 C   0  0  0  0  0  0  0  0  0  0  0  0
   -5.0920   23.4830  -28.7540 N   0  0  0  0  0  0  0  0  0  0  0  0
   -4.0220   24.1660  -28.0060 C   0  0  0  0  0  0  0  0  0  0  0  0
   -2.9750   23.1650  -27.5120 C   0  0  0  0  0  0  0  0  0  0  0  0
   -3.4330   21.8460  -27.7540 O   0  0  0  0  0  0  0  0  0  0  0  0
   -2.4150   20.8490  -27.7060 C   0  0  0  0  0  0  0  0  0  0  0  0
   -1.9440   20.4700  -29.1290 C   0  0  0  0  0  0  0  0  0  0  0  0
   -3.0640   19.6050  -27.0760 C   0  0  0  0  0  0  0  0  0  0  0  0
   -1.2120   21.2580  -26.8200 C   0  0  0  0  0  0  0  0  0  0  0  0
   -6.9420   20.7050  -32.4560 C   0  0  0  0  0  0  0  0  0  0  0  0
   -8.2180   21.1520  -32.0530 C   0  0  0  0  0  0  0  0  0  0  0  0
   -9.2870   20.2650  -31.9640 C   0  0  0  0  0  0  0  0  0  0  0  0
   -9.1020   18.9200  -32.2560 C   0  0  0  0  0  0  0  0  0  0  0  0
   -7.8500   18.4550  -32.6590 C   0  0  0  0  0  0  0  0  0  0  0  0
   -6.7500   19.3400  -32.7980 C   0  0  0  0  0  0  0  0  0  0  0  0
   -5.3071   16.7996  -33.0905 H   0  0  0  0  0  0  0  0  0  0  0  0
   -6.2661   17.3740  -34.4966 H   0  0  0  0  0  0  0  0  0  0  0  0
   -4.4784   17.5499  -34.4966 H   0  0  0  0  0  0  0  0  0  0  0  0
   -2.9386   18.1497  -33.4897 H   0  0  0  0  0  0  0  0  0  0  0  0
   -0.9669   19.6454  -33.2784 H   0  0  0  0  0  0  0  0  0  0  0  0
   -1.2723   22.0544  -32.7342 H   0  0  0  0  0  0  0  0  0  0  0  0
   -3.5517   22.9702  -32.3596 H   0  0  0  0  0  0  0  0  0  0  0  0
   -6.0560   23.6430  -33.1490 H   0  0  0  0  0  0  0  0  0  0  0  0
   -6.6118   24.5970  -31.0724 H   0  0  0  0  0  0  0  0  0  0  0  0
   -6.9425   22.9394  -30.4276 H   0  0  0  0  0  0  0  0  0  0  0  0
   -4.2805   22.7498  -30.5525 H   0  0  0  0  0  0  0  0  0  0  0  0
   -4.4126   24.5581  -30.4156 H   0  0  0  0  0  0  0  0  0  0  0  0
   -6.0080   23.9290  -28.5110 H   0  0  0  0  0  0  0  0  0  0  0  0
   -5.1340   22.4800  -28.4650 H   0  0  0  0  0  0  0  0  0  0  0  0
   -3.5352   24.9007  -28.6642 H   0  0  0  0  0  0  0  0  0  0  0  0
   -4.4679   24.6667  -27.1339 H   0  0  0  0  0  0  0  0  0  0  0  0
   -2.0288   23.3290  -28.0484 H   0  0  0  0  0  0  0  0  0  0  0  0
   -2.8132   23.3053  -26.4330 H   0  0  0  0  0  0  0  0  0  0  0  0
   -1.0886   19.7817  -29.0609 H   0  0  0  0  0  0  0  0  0  0  0  0
   -2.7672   19.9796  -29.6692 H   0  0  0  0  0  0  0  0  0  0  0  0
   -1.6411   21.3791  -29.6692 H   0  0  0  0  0  0  0  0  0  0  0  0
   -3.0222   19.6851  -25.9797 H   0  0  0  0  0  0  0  0  0  0  0  0
   -4.1133   19.5356  -27.3989 H   0  0  0  0  0  0  0  0  0  0  0  0
   -2.5207   18.7047  -27.3989 H   0  0  0  0  0  0  0  0  0  0  0  0
   -1.4889   21.1639  -25.7596 H   0  0  0  0  0  0  0  0  0  0  0  0
   -0.3573   20.5999  -27.0356 H   0  0  0  0  0  0  0  0  0  0  0  0
   -0.9355   22.3006  -27.0356 H   0  0  0  0  0  0  0  0  0  0  0  0
   -8.3698   22.2132  -31.8064 H   0  0  0  0  0  0  0  0  0  0  0  0
  -10.2798   20.6299  -31.6619 H   0  0  0  0  0  0  0  0  0  0  0  0
   -9.9453   18.2191  -32.1693 H   0  0  0  0  0  0  0  0  0  0  0  0
   -7.7135   17.3846  -32.8725 H   0  0  0  0  0  0  0  0  0  0  0  0
  1  2  1  0
  2  3  2  0
  3  4  1  0
  4  5  2  0
  5  6  1  0
  6  7  2  0
  7  8  1  0
  8  9  2  0
  9 10  1  0
 10 11  1  0
 11 12  1  0
 12 13  1  0
 13 14  1  0
 14 15  1  0
 15 16  1  0
 16 17  1  0
 17 18  1  0
 17 19  1  0
 17 20  1  0
  9 21  1  0
 21 22  2  0
 22 23  1  0
 23 24  2  0
 24 25  1  0
 25 26  2  0
 26  2  1  0
  8  3  1  0
 26 21  1  0
  1 27  1  0
  1 28  1  0
  1 29  1  0
  4 30  1  0
  5 31  1  0
  6 32  1  0
  7 33  1  0
 10 34  1  0
 11 35  1  0
 11 36  1  0
 12 37  1  0
 12 38  1  0
 13 39  1  0
 13 40  1  0
 14 41  1  0
 14 42  1  0
 15 43  1  0
 15 44  1  0
 18 45  1  0
 18 46  1  0
 18 47  1  0
 19 48  1  0
 19 49  1  0
 19 50  1  0
 20 51  1  0
 20 52  1  0
 20 53  1  0
 22 54  1  0
 23 55  1  0
 24 56  1  0
 25 57  1  0
M  CHG  2   2   1  13   1
M  END
>  <UniqueID>  (19) 
18

>  <SMILES>  (19) 
C[n+]1c2ccccc2c(NCC[NH2+]CCOC(C)(C)C)c2ccccc21

>  <Energy>  (19) 
84.01957647517997

>  <Genealogy>  (19) 
C[n+]1c2ccccc2c(NCC[NH2+]CCOC(C)(C)C)c2ccccc21 (protonated)
C[n+]1c2ccccc2c(NCC[NH2+]CCOC(C)(C)C)c2ccccc21 (3D coordinates assigned)
C[n+]1c2ccccc2c(NCC[NH2+]CCOC(C)(C)C)c2ccccc21 (optimized conformer: 84.01957647517997 kcal/mol)

>  <smiles>  (19) 
C[n+]1c2ccccc2c(NCCNCCOC(C)(C)C)c2ccccc21

>  <score_type>  (19) 
oracle

>  <origin>  (19) 
adg

>  <m_score__min__energy>  (19) 
-8.1099999999999994

>  <m_primary>  (19) 
energy

$$$$
19:0
     RDKit          3D

 63 65  0  0  0  0  0  0  0  0999 V2000
   -1.9090   25.6020  -26.5260 C   0  0  0  0  0  0  0  0  0  0  0  0
   -1.2420   25.7340  -27.8930 C   0  0  0  0  0  0  0  0  0  0  0  0
   -2.1490   25.2630  -28.9530 N   0  0  0  0  0  0  0  0  0  0  0  0
   -1.9720   23.8320  -29.2240 C   0  0  0  0  0  0  0  0  0  0  0  0
   -3.2200   23.0680  -28.7770 C   0  0  0  0  0  0  0  0  0  0  0  0
   -4.2400   22.9390  -29.9150 C   0  0  0  0  0  0  0  0  0  0  0  0
   -4.2960   24.1910  -30.8090 C   0  0  0  0  0  0  0  0  0  0  0  0
   -5.7210   24.7350  -31.0420 C   0  0  0  0  0  0  0  0  0  0  0  0
   -6.7130   23.6270  -31.4330 C   0  0  0  0  0  0  0  0  0  0  0  0
   -6.3620   22.9830  -32.7160 N   0  0  0  0  0  0  0  0  0  0  0  0
   -6.1670   21.5440  -32.5760 C   0  0  0  0  0  0  0  0  0  0  0  0
   -7.2250   20.6930  -32.1610 C   0  0  0  0  0  0  0  0  0  0  0  0
   -7.0250   19.2950  -32.1110 C   0  0  0  0  0  0  0  0  0  0  0  0
   -5.7650   18.7520  -32.2780 N   0  0  0  0  0  0  0  0  0  0  0  0
   -5.5280   17.3280  -31.9310 C   0  0  0  0  0  0  0  0  0  0  0  0
   -5.7520   16.4130  -33.1380 C   0  0  0  0  0  0  0  0  0  0  0  0
   -4.7240   19.5470  -32.7300 C   0  0  0  0  0  0  0  0  0  0  0  0
   -3.4560   18.9960  -33.0610 C   0  0  0  0  0  0  0  0  0  0  0  0
   -2.4100   19.7970  -33.5060 C   0  0  0  0  0  0  0  0  0  0  0  0
   -2.5860   21.1640  -33.6330 C   0  0  0  0  0  0  0  0  0  0  0  0
   -3.8140   21.7400  -33.3280 C   0  0  0  0  0  0  0  0  0  0  0  0
   -4.9080   20.9540  -32.8840 C   0  0  0  0  0  0  0  0  0  0  0  0
   -8.2510   18.4380  -31.7970 C   0  0  0  0  0  0  0  0  0  0  0  0
   -9.4880   18.9410  -32.5590 C   0  0  0  0  0  0  0  0  0  0  0  0
   -9.7110   20.4640  -32.4500 C   0  0  0  0  0  0  0  0  0  0  0  0
   -8.5900   21.1860  -31.6960 C   0  0  0  0  0  0  0  0  0  0  0  0
   -1.1583   25.7506  -25.7358 H   0  0  0  0  0  0  0  0  0  0  0  0
   -2.6990   26.3612  -26.4286 H   0  0  0  0  0  0  0  0  0  0  0  0
   -2.3503   24.5991  -26.4286 H   0  0  0  0  0  0  0  0  0  0  0  0
   -0.9905   26.7896  -28.0734 H   0  0  0  0  0  0  0  0  0  0  0  0
   -0.3287   25.1210  -27.9057 H   0  0  0  0  0  0  0  0  0  0  0  0
   -3.1340   25.4010  -28.6200 H   0  0  0  0  0  0  0  0  0  0  0  0
   -1.8160   23.6799  -30.3022 H   0  0  0  0  0  0  0  0  0  0  0  0
   -1.0975   23.4602  -28.6700 H   0  0  0  0  0  0  0  0  0  0  0  0
   -2.9235   22.0613  -28.4474 H   0  0  0  0  0  0  0  0  0  0  0  0
   -3.6902   23.6275  -27.9549 H   0  0  0  0  0  0  0  0  0  0  0  0
   -3.9652   22.0745  -30.5373 H   0  0  0  0  0  0  0  0  0  0  0  0
   -5.2326   22.8130  -29.4581 H   0  0  0  0  0  0  0  0  0  0  0  0
   -3.6976   24.9821  -30.3335 H   0  0  0  0  0  0  0  0  0  0  0  0
   -3.9041   23.8958  -31.7935 H   0  0  0  0  0  0  0  0  0  0  0  0
   -6.0725   25.2137  -30.1161 H   0  0  0  0  0  0  0  0  0  0  0  0
   -5.6747   25.4535  -31.8737 H   0  0  0  0  0  0  0  0  0  0  0  0
   -6.7169   22.8615  -30.6430 H   0  0  0  0  0  0  0  0  0  0  0  0
   -7.7037   24.0903  -31.5505 H   0  0  0  0  0  0  0  0  0  0  0  0
   -5.4880   23.4160  -33.0920 H   0  0  0  0  0  0  0  0  0  0  0  0
   -7.0520   23.2370  -33.4510 H   0  0  0  0  0  0  0  0  0  0  0  0
   -4.4912   17.2126  -31.5822 H   0  0  0  0  0  0  0  0  0  0  0  0
   -6.2397   17.0411  -31.1429 H   0  0  0  0  0  0  0  0  0  0  0  0
   -6.0000   15.3998  -32.7890 H   0  0  0  0  0  0  0  0  0  0  0  0
   -6.5808   16.8045  -33.7461 H   0  0  0  0  0  0  0  0  0  0  0  0
   -4.8361   16.3774  -33.7461 H   0  0  0  0  0  0  0  0  0  0  0  0
   -3.2988   17.9117  -32.9629 H   0  0  0  0  0  0  0  0  0  0  0  0
   -1.4402   19.3430  -33.7577 H   0  0  0  0  0  0  0  0  0  0  0  0
   -1.7531   21.7955  -33.9757 H   0  0  0  0  0  0  0  0  0  0  0  0
   -3.9398   22.8277  -33.4332 H   0  0  0  0  0  0  0  0  0  0  0  0
   -8.0468   17.3977  -32.0904 H   0  0  0  0  0  0  0  0  0  0  0  0
   -8.4552   18.5025  -30.7181 H   0  0  0  0  0  0  0  0  0  0  0  0
   -9.3690   18.6833  -33.6217 H   0  0  0  0  0  0  0  0  0  0  0  0
  -10.3637   18.4559  -32.1032 H   0  0  0  0  0  0  0  0  0  0  0  0
   -9.7744   20.8815  -33.4657 H   0  0  0  0  0  0  0  0  0  0  0  0
  -10.6396   20.6183  -31.8809 H   0  0  0  0  0  0  0  0  0  0  0  0
   -8.6667   22.2672  -31.8834 H   0  0  0  0  0  0  0  0  0  0  0  0
   -8.6946   20.9771  -30.6211 H   0  0  0  0  0  0  0  0  0  0  0  0
  1  2  1  0
  2  3  1  0
  3  4  1  0
  4  5  1  0
  5  6  1  0
  6  7  1  0
  7  8  1  0
  8  9  1  0
  9 10  1  0
 10 11  1  0
 11 12  2  0
 12 13  1  0
 13 14  2  0
 14 15  1  0
 15 16  1  0
 14 17  1  0
 17 18  2  0
 18 19  1  0
 19 20  2  0
 20 21  1  0
 21 22  2  0
 13 23  1  0
 23 24  1  0
 24 25  1  0
 25 26  1  0
 22 11  1  0
 26 12  1  0
 22 17  1  0
  1 27  1  0
  1 28  1  0
  1 29  1  0
  2 30  1  0
  2 31  1  0
  3 32  1  0
  4 33  1  0
  4 34  1  0
  5 35  1  0
  5 36  1  0
  6 37  1  0
  6 38  1  0
  7 39  1  0
  7 40  1  0
  8 41  1  0
  8 42  1  0
  9 43  1  0
  9 44  1  0
 10 45  1  0
 10 46  1  0
 15 47  1  0
 15 48  1  0
 16 49  1  0
 16 50  1  0
 16 51  1  0
 18 52  1  0
 19 53  1  0
 20 54  1  0
 21 55  1  0
 23 56  1  0
 23 57  1  0
 24 58  1  0
 24 59  1  0
 25 60  1  0
 25 61  1  0
 26 62  1  0
 26 63  1  0
M  CHG  2  10   1  14   1
M  END
>  <UniqueID>  (20) 
19

>  <SMILES>  (20) 
CCNCCCCCC[NH2+]c1c2c([n+](CC)c3ccccc13)CCCC2

>  <Energy>  (20) 
82.32183359527725

>  <Genealogy>  (20) 
CCNCCCCCC[NH2+]c1c2c([n+](CC)c3ccccc13)CCCC2 (protonated)
CCNCCCCCC[NH2+]c1c2c([n+](CC)c3ccccc13)CCCC2 (3D coordinates assigned)
CCNCCCCCC[NH2+]c1c2c([n+](CC)c3ccccc13)CCCC2 (nonaromatic ring conformer: 82.32183359527725 kcal/mol)

>  <smiles>  (20) 
CCNCCCCCCNc1c2c([n+](CC)c3ccccc13)CCCC2

>  <score_type>  (20) 
oracle

>  <origin>  (20) 
adg

>  <m_score__min__energy>  (20) 
-8.8499999999999996

>  <m_primary>  (20) 
energy

$$$$
20:0
     RDKit          3D

 84 88  0  0  0  0  0  0  0  0999 V2000
   -4.1350   23.4210  -29.0710 C   0  0  0  0  0  0  0  0  0  0  0  0
   -3.5640   24.1070  -30.3160 C   0  0  0  0  0  0  0  0  0  0  0  0
   -4.2590   25.3640  -30.6350 N   0  0  0  0  0  0  0  0  0  0  0  0
   -5.7230   25.2400  -30.5360 C   0  0  0  0  0  0  0  0  0  0  0  0
   -6.2480   24.2510  -31.5800 C   0  0  0  0  0  0  0  0  0  0  0  0
   -7.6360   23.7080  -31.2270 C   0  0  0  0  0  0  0  0  0  0  0  0
   -7.5380   22.3560  -30.7800 O   0  0  0  0  0  0  0  0  0  0  0  0
   -7.2320   21.2480  -31.5900 C   0  0  0  0  0  0  0  0  0  0  0  0
   -8.1810   20.2710  -31.9320 C   0  0  0  0  0  0  0  0  0  0  0  0
   -7.8170   19.1830  -32.7260 C   0  0  0  0  0  0  0  0  0  0  0  0
   -6.4970   19.0430  -33.1790 C   0  0  0  0  0  0  0  0  0  0  0  0
   -5.5400   20.0340  -32.8760 C   0  0  0  0  0  0  0  0  0  0  0  0
   -5.9230   21.1250  -32.0690 C   0  0  0  0  0  0  0  0  0  0  0  0
   -4.1380   19.8560  -33.3660 C   0  0  0  0  0  0  0  0  0  0  0  0
   -3.2230   20.9230  -33.4220 C   0  0  0  0  0  0  0  0  0  0  0  0
   -1.9120   20.7120  -33.8510 C   0  0  0  0  0  0  0  0  0  0  0  0
   -1.4860   19.4410  -34.2520 C   0  0  0  0  0  0  0  0  0  0  0  0
   -0.1170   19.2560  -34.6560 N   0  0  0  0  0  0  0  0  0  0  0  0
    0.7770   20.3330  -34.9810 C   0  0  0  0  0  0  0  0  0  0  0  0
    0.3130   21.3690  -35.8040 C   0  0  0  0  0  0  0  0  0  0  0  0
    1.1470   22.4330  -36.1430 C   0  0  0  0  0  0  0  0  0  0  0  0
    2.4660   22.4580  -35.6890 C   0  0  0  0  0  0  0  0  0  0  0  0
    2.9550   21.4160  -34.8960 C   0  0  0  0  0  0  0  0  0  0  0  0
    2.1170   20.3470  -34.5190 C   0  0  0  0  0  0  0  0  0  0  0  0
    2.6350   19.2400  -33.7570 N   0  0  0  0  0  0  0  0  0  0  0  0
    2.4710   19.1090  -32.3040 C   0  0  0  0  0  0  0  0  0  0  0  0
    1.0920   18.5390  -31.9570 C   0  0  0  0  0  0  0  0  0  0  0  0
    0.7510   18.6740  -30.4660 C   0  0  0  0  0  0  0  0  0  0  0  0
   -0.4560   19.5080  -30.2800 N   0  0  0  0  0  0  0  0  0  0  0  0
   -0.8100   19.6940  -28.8480 C   0  0  0  0  0  0  0  0  0  0  0  0
   -0.4170   21.0850  -28.3310 C   0  0  0  0  0  0  0  0  0  0  0  0
   -1.1010   22.1610  -29.0890 N   0  0  0  0  0  0  0  0  0  0  0  0
   -0.3640   23.4310  -28.9600 C   0  0  0  0  0  0  0  0  0  0  0  0
   -1.3480   21.8190  -30.5110 C   0  0  0  0  0  0  0  0  0  0  0  0
   -0.3540   20.7780  -31.0370 C   0  0  0  0  0  0  0  0  0  0  0  0
   -2.4010   18.3750  -34.2290 C   0  0  0  0  0  0  0  0  0  0  0  0
   -3.7250   18.5810  -33.8110 C   0  0  0  0  0  0  0  0  0  0  0  0
   -4.6810   17.4170  -33.7550 C   0  0  0  0  0  0  0  0  0  0  0  0
   -6.1150   17.8700  -34.0490 C   0  0  0  0  0  0  0  0  0  0  0  0
   -3.7325   23.9046  -28.1687 H   0  0  0  0  0  0  0  0  0  0  0  0
   -5.2316   23.5075  -29.0751 H   0  0  0  0  0  0  0  0  0  0  0  0
   -3.8510   22.3583  -29.0751 H   0  0  0  0  0  0  0  0  0  0  0  0
   -2.5003   24.3264  -30.1414 H   0  0  0  0  0  0  0  0  0  0  0  0
   -3.7014   23.4237  -31.1670 H   0  0  0  0  0  0  0  0  0  0  0  0
   -4.0080   25.6540  -31.6080 H   0  0  0  0  0  0  0  0  0  0  0  0
   -5.9889   24.8808  -29.5309 H   0  0  0  0  0  0  0  0  0  0  0  0
   -6.1771   26.2251  -30.7185 H   0  0  0  0  0  0  0  0  0  0  0  0
   -6.3058   24.7620  -32.5524 H   0  0  0  0  0  0  0  0  0  0  0  0
   -5.5536   23.3985  -31.6120 H   0  0  0  0  0  0  0  0  0  0  0  0
   -8.0746   24.3239  -30.4280 H   0  0  0  0  0  0  0  0  0  0  0  0
   -8.2737   23.7443  -32.1225 H   0  0  0  0  0  0  0  0  0  0  0  0
   -9.2163   20.3639  -31.5722 H   0  0  0  0  0  0  0  0  0  0  0  0
   -8.5707   18.4296  -32.9987 H   0  0  0  0  0  0  0  0  0  0  0  0
   -5.1792   21.8934  -31.8113 H   0  0  0  0  0  0  0  0  0  0  0  0
   -3.5437   21.9324  -33.1250 H   0  0  0  0  0  0  0  0  0  0  0  0
   -1.2053   21.5546  -33.8742 H   0  0  0  0  0  0  0  0  0  0  0  0
    0.2210   18.2820  -34.8360 H   0  0  0  0  0  0  0  0  0  0  0  0
   -0.7184   21.3418  -36.1855 H   0  0  0  0  0  0  0  0  0  0  0  0
    0.7652   23.2532  -36.7687 H   0  0  0  0  0  0  0  0  0  0  0  0
    3.1224   23.2994  -35.9557 H   0  0  0  0  0  0  0  0  0  0  0  0
    4.0033   21.4303  -34.5631 H   0  0  0  0  0  0  0  0  0  0  0  0
    2.9340   18.3810  -34.2710 H   0  0  0  0  0  0  0  0  0  0  0  0
    3.2476   18.4349  -31.9135 H   0  0  0  0  0  0  0  0  0  0  0  0
    2.5628   20.1064  -31.8493 H   0  0  0  0  0  0  0  0  0  0  0  0
    0.3317   19.0776  -32.5417 H   0  0  0  0  0  0  0  0  0  0  0  0
    1.1068   17.4658  -32.1977 H   0  0  0  0  0  0  0  0  0  0  0  0
    0.5676   17.6743  -30.0454 H   0  0  0  0  0  0  0  0  0  0  0  0
    1.5962   19.1548  -29.9517 H   0  0  0  0  0  0  0  0  0  0  0  0
   -1.8964   19.5665  -28.7319 H   0  0  0  0  0  0  0  0  0  0  0  0
   -0.2551   18.9462  -28.2624 H   0  0  0  0  0  0  0  0  0  0  0  0
   -0.6952   21.1634  -27.2696 H   0  0  0  0  0  0  0  0  0  0  0  0
    0.6683   21.2075  -28.4620 H   0  0  0  0  0  0  0  0  0  0  0  0
   -0.2262   23.6684  -27.8948 H   0  0  0  0  0  0  0  0  0  0  0  0
    0.6189   23.3354  -29.4445 H   0  0  0  0  0  0  0  0  0  0  0  0
   -0.9347   24.2370  -29.4445 H   0  0  0  0  0  0  0  0  0  0  0  0
   -2.3670   21.4158  -30.6066 H   0  0  0  0  0  0  0  0  0  0  0  0
   -1.2229   22.7360  -31.1055 H   0  0  0  0  0  0  0  0  0  0  0  0
   -0.5683   20.5814  -32.0979 H   0  0  0  0  0  0  0  0  0  0  0  0
    0.6642   21.1757  -30.9138 H   0  0  0  0  0  0  0  0  0  0  0  0
   -2.0772   17.3711  -34.5410 H   0  0  0  0  0  0  0  0  0  0  0  0
   -4.3800   16.6679  -34.5022 H   0  0  0  0  0  0  0  0  0  0  0  0
   -4.6499   16.9861  -32.7434 H   0  0  0  0  0  0  0  0  0  0  0  0
   -6.1900   18.1656  -35.1059 H   0  0  0  0  0  0  0  0  0  0  0  0
   -6.7987   17.0354  -33.8347 H   0  0  0  0  0  0  0  0  0  0  0  0
  1  2  1  0
  2  3  1  0
  3  4  1  0
  4  5  1  0
  5  6  1  0
  6  7  1  0
  7  8  1  0
  8  9  2  0
  9 10  1  0
 10 11  2  0
 11 12  1  0
 12 13  2  0
 12 14  1  0
 14 15  2  0
 15 16  1  0
 16 17  2  0
 17 18  1  0
 18 19  1  0
 19 20  2  0
 20 21  1  0
 21 22  2  0
 22 23  1  0
 23 24  2  0
 24 25  1  0
 25 26  1  0
 26 27  1  0
 27 28  1  0
 28 29  1  0
 29 30  1  0
 30 31  1  0
 31 32  1  0
 32 33  1  0
 32 34  1  0
 34 35  1  0
 17 36  1  0
 36 37  2  0
 37 38  1  0
 38 39  1  0
 13  8  1  0
 37 14  1  0
 39 11  1  0
 24 19  1  0
 35 29  1  0
  1 40  1  0
  1 41  1  0
  1 42  1  0
  2 43  1  0
  2 44  1  0
  3 45  1  0
  4 46  1  0
  4 47  1  0
  5 48  1  0
  5 49  1  0
  6 50  1  0
  6 51  1  0
  9 52  1  0
 10 53  1  0
 13 54  1  0
 15 55  1  0
 16 56  1  0
 18 57  1  0
 20 58  1  0
 21 59  1  0
 22 60  1  0
 23 61  1  0
 25 62  1  0
 26 63  1  0
 26 64  1  0
 27 65  1  0
 27 66  1  0
 28 67  1  0
 28 68  1  0
 30 69  1  0
 30 70  1  0
 31 71  1  0
 31 72  1  0
 33 73  1  0
 33 74  1  0
 33 75  1  0
 34 76  1  0
 34 77  1  0
 35 78  1  0
 35 79  1  0
 36 80  1  0
 38 81  1  0
 38 82  1  0
 39 83  1  0
 39 84  1  0
M  END
>  <UniqueID>  (21) 
20

>  <SMILES>  (21) 
CCNCCCOc1ccc2c(c1)-c1ccc(Nc3ccccc3NCCCN3CCN(C)CC3)cc1CC2

>  <Energy>  (21) 
105.32459487454655

>  <Genealogy>  (21) 
CCNCCCOc1ccc2c(c1)-c1ccc(Nc3ccccc3NCCCN3CCN(C)CC3)cc1CC2 (3D coordinates assigned)
CCNCCCOc1ccc2c(c1)-c1ccc(Nc3ccccc3NCCCN3CCN(C)CC3)cc1CC2 (nonaromatic ring conformer: 105.32459487454655 kcal/mol)

>  <smiles>  (21) 
CCNCCCOc1ccc2c(c1)-c1ccc(Nc3ccccc3NCCCN3CCN(C)CC3)cc1CC2

>  <score_type>  (21) 
oracle

>  <origin>  (21) 
adg

>  <m_score__min__energy>  (21) 
-10.51

>  <m_primary>  (21) 
energy

$$$$
21:0
     RDKit          3D

 65 68  0  0  0  0  0  0  0  0999 V2000
   -1.2080   19.1120  -27.2880 C   0  0  0  0  0  0  0  0  0  0  0  0
   -0.5930   20.4950  -27.4580 C   0  0  0  0  0  0  0  0  0  0  0  0
   -1.4570   21.5180  -26.8510 N   0  0  0  0  0  0  0  0  0  0  0  0
   -0.7930   22.8280  -26.7310 C   0  0  0  0  0  0  0  0  0  0  0  0
   -1.7770   24.0080  -26.8440 C   0  0  0  0  0  0  0  0  0  0  0  0
   -3.1180   23.5530  -26.8730 O   0  0  0  0  0  0  0  0  0  0  0  0
   -3.8630   24.1960  -27.8900 C   0  0  0  0  0  0  0  0  0  0  0  0
   -4.0340   23.2600  -29.0990 C   0  0  0  0  0  0  0  0  0  0  0  0
   -2.8200   22.4840  -29.3920 N   0  0  0  0  0  0  0  0  0  0  0  0
   -3.1190   21.1000  -29.7810 C   0  0  0  0  0  0  0  0  0  0  0  0
   -2.3840   20.7400  -31.0770 C   0  0  0  0  0  0  0  0  0  0  0  0
   -2.2770   21.9390  -32.0240 C   0  0  0  0  0  0  0  0  0  0  0  0
   -3.1770   21.7640  -33.1610 N   0  0  0  0  0  0  0  0  0  0  0  0
   -4.4920   21.2170  -32.9880 C   0  0  0  0  0  0  0  0  0  0  0  0
   -4.7590   19.8960  -33.3350 C   0  0  0  0  0  0  0  0  0  0  0  0
   -6.0130   19.3410  -33.1550 C   0  0  0  0  0  0  0  0  0  0  0  0
   -7.0820   20.0960  -32.7430 N   0  0  0  0  0  0  0  0  0  0  0  0
   -8.4490   19.5640  -32.8690 C   0  0  0  0  0  0  0  0  0  0  0  0
   -6.8450   21.3830  -32.2820 C   0  0  0  0  0  0  0  0  0  0  0  0
   -7.8540   22.1390  -31.6360 C   0  0  0  0  0  0  0  0  0  0  0  0
   -7.6090   23.4420  -31.2030 C   0  0  0  0  0  0  0  0  0  0  0  0
   -6.3570   24.0220  -31.3890 C   0  0  0  0  0  0  0  0  0  0  0  0
   -5.3320   23.2970  -31.9890 C   0  0  0  0  0  0  0  0  0  0  0  0
   -5.5470   21.9750  -32.4280 C   0  0  0  0  0  0  0  0  0  0  0  0
   -5.9490   17.9170  -33.5710 C   0  0  0  0  0  0  0  0  0  0  0  0
   -6.8470   16.8540  -33.4000 C   0  0  0  0  0  0  0  0  0  0  0  0
   -6.4650   15.5730  -33.8330 C   0  0  0  0  0  0  0  0  0  0  0  0
   -5.1900   15.3550  -34.3870 C   0  0  0  0  0  0  0  0  0  0  0  0
   -4.2730   16.4110  -34.4920 C   0  0  0  0  0  0  0  0  0  0  0  0
   -4.6760   17.6770  -34.0680 C   0  0  0  0  0  0  0  0  0  0  0  0
   -3.8910   18.8950  -33.9520 C   0  0  0  0  0  0  0  0  0  0  0  0
   -2.7000   19.0520  -34.3320 O   0  0  0  0  0  0  0  0  0  0  0  0
   -1.3090   18.8848  -26.2165 H   0  0  0  0  0  0  0  0  0  0  0  0
   -2.2002   19.0911  -27.7624 H   0  0  0  0  0  0  0  0  0  0  0  0
   -0.5589   18.3612  -27.7624 H   0  0  0  0  0  0  0  0  0  0  0  0
    0.3922   20.5162  -26.9693 H   0  0  0  0  0  0  0  0  0  0  0  0
   -0.4868   20.7089  -28.5318 H   0  0  0  0  0  0  0  0  0  0  0  0
   -2.3300   21.6090  -27.4180 H   0  0  0  0  0  0  0  0  0  0  0  0
   -0.2924   22.8801  -25.7529 H   0  0  0  0  0  0  0  0  0  0  0  0
   -0.0762   22.9135  -27.5610 H   0  0  0  0  0  0  0  0  0  0  0  0
   -1.6418   24.6726  -25.9780 H   0  0  0  0  0  0  0  0  0  0  0  0
   -1.5705   24.5465  -27.7807 H   0  0  0  0  0  0  0  0  0  0  0  0
   -4.8543   24.4669  -27.4976 H   0  0  0  0  0  0  0  0  0  0  0  0
   -3.3249   25.1002  -28.2106 H   0  0  0  0  0  0  0  0  0  0  0  0
   -4.8566   22.5606  -28.8890 H   0  0  0  0  0  0  0  0  0  0  0  0
   -4.2475   23.8871  -29.9771 H   0  0  0  0  0  0  0  0  0  0  0  0
   -2.2000   22.4770  -28.5480 H   0  0  0  0  0  0  0  0  0  0  0  0
   -2.7951   20.4199  -28.9794 H   0  0  0  0  0  0  0  0  0  0  0  0
   -4.2022   21.0010  -29.9451 H   0  0  0  0  0  0  0  0  0  0  0  0
   -1.3707   20.3929  -30.8266 H   0  0  0  0  0  0  0  0  0  0  0  0
   -2.9579   19.9524  -31.5872 H   0  0  0  0  0  0  0  0  0  0  0  0
   -2.5504   22.8562  -31.4817 H   0  0  0  0  0  0  0  0  0  0  0  0
   -1.2432   22.0152  -32.3922 H   0  0  0  0  0  0  0  0  0  0  0  0
   -2.9710   22.3000  -34.0340 H   0  0  0  0  0  0  0  0  0  0  0  0
   -8.8722   19.3993  -31.8671 H   0  0  0  0  0  0  0  0  0  0  0  0
   -9.0738   20.2846  -33.4170 H   0  0  0  0  0  0  0  0  0  0  0  0
   -8.4224   18.6106  -33.4170 H   0  0  0  0  0  0  0  0  0  0  0  0
   -8.8457   21.6916  -31.4734 H   0  0  0  0  0  0  0  0  0  0  0  0
   -8.4095   24.0147  -30.7118 H   0  0  0  0  0  0  0  0  0  0  0  0
   -6.1776   25.0564  -31.0607 H   0  0  0  0  0  0  0  0  0  0  0  0
   -4.3434   23.7606  -32.1221 H   0  0  0  0  0  0  0  0  0  0  0  0
   -7.8307   17.0195  -32.9363 H   0  0  0  0  0  0  0  0  0  0  0  0
   -7.1689   14.7331  -33.7380 H   0  0  0  0  0  0  0  0  0  0  0  0
   -4.9110   14.3511  -34.7396 H   0  0  0  0  0  0  0  0  0  0  0  0
   -3.2640   16.2453  -34.8975 H   0  0  0  0  0  0  0  0  0  0  0  0
  1  2  1  0
  2  3  1  0
  3  4  1  0
  4  5  1  0
  5  6  1  0
  6  7  1  0
  7  8  1  0
  8  9  1  0
  9 10  1  0
 10 11  1  0
 11 12  1  0
 12 13  1  0
 13 14  1  0
 14 15  2  0
 15 16  1  0
 16 17  2  0
 17 18  1  0
 17 19  1  0
 19 20  2  0
 20 21  1  0
 21 22  2  0
 22 23  1  0
 23 24  2  0
 16 25  1  0
 25 26  2  0
 26 27  1  0
 27 28  2  0
 28 29  1  0
 29 30  2  0
 30 31  1  0
 31 32  2  0
 24 14  1  0
 30 25  1  0
 31 15  1  0
 24 19  1  0
  1 33  1  0
  1 34  1  0
  1 35  1  0
  2 36  1  0
  2 37  1  0
  3 38  1  0
  4 39  1  0
  4 40  1  0
  5 41  1  0
  5 42  1  0
  7 43  1  0
  7 44  1  0
  8 45  1  0
  8 46  1  0
  9 47  1  0
 10 48  1  0
 10 49  1  0
 11 50  1  0
 11 51  1  0
 12 52  1  0
 12 53  1  0
 13 54  1  0
 18 55  1  0
 18 56  1  0
 18 57  1  0
 20 58  1  0
 21 59  1  0
 22 60  1  0
 23 61  1  0
 26 62  1  0
 27 63  1  0
 28 64  1  0
 29 65  1  0
M  CHG  1  17   1
M  END
>  <UniqueID>  (22) 
21

>  <SMILES>  (22) 
CCNCCOCCNCCCNc1c2c([n+](C)c3ccccc13)-c1ccccc1C2=O

>  <Energy>  (22) 
117.3887061410814

>  <Genealogy>  (22) 
CCNCCOCCNCCCNc1c2c([n+](C)c3ccccc13)-c1ccccc1C2=O (3D coordinates assigned)
CCNCCOCCNCCCNc1c2c([n+](C)c3ccccc13)-c1ccccc1C2=O (nonaromatic ring conformer: 117.3887061410814 kcal/mol)

>  <smiles>  (22) 
CCNCCOCCNCCCNc1c2c([n+](C)c3ccccc13)-c1ccccc1C2=O

>  <score_type>  (22) 
oracle

>  <origin>  (22) 
adg

>  <m_score__min__energy>  (22) 
-10.460000000000001

>  <m_primary>  (22) 
energy

$$$$
22:0
     RDKit          3D

 56 58  0  0  0  0  0  0  0  0999 V2000
   -0.2660   18.0750  -32.1290 C   0  0  0  0  0  0  0  0  0  0  0  0
   -1.3690   17.3110  -32.8690 C   0  0  0  0  0  0  0  0  0  0  0  0
   -1.1490   17.2970  -34.3880 C   0  0  0  0  0  0  0  0  0  0  0  0
   -0.8940   18.6470  -34.8900 N   0  0  0  0  0  0  0  0  0  0  0  0
    0.2940   18.9980  -35.6220 C   0  0  0  0  0  0  0  0  0  0  0  0
    1.1820   18.1310  -35.8520 O   0  0  0  0  0  0  0  0  0  0  0  0
    0.5100   20.4170  -36.0690 C   0  0  0  0  0  0  0  0  0  0  0  0
    0.4160   21.4140  -34.9040 C   0  0  0  0  0  0  0  0  0  0  0  0
   -0.9320   21.4110  -34.3120 N   0  0  0  0  0  0  0  0  0  0  0  0
   -0.9110   21.3070  -32.8430 C   0  0  0  0  0  0  0  0  0  0  0  0
   -2.3210   21.1320  -32.2530 C   0  0  0  0  0  0  0  0  0  0  0  0
   -3.3380   21.3140  -33.2900 N   0  0  0  0  0  0  0  0  0  0  0  0
   -4.6980   20.9260  -33.0440 C   0  0  0  0  0  0  0  0  0  0  0  0
   -5.1410   19.6460  -33.4160 C   0  0  0  0  0  0  0  0  0  0  0  0
   -4.2560   18.7230  -34.0170 C   0  0  0  0  0  0  0  0  0  0  0  0
   -4.6780   17.4310  -34.3290 C   0  0  0  0  0  0  0  0  0  0  0  0
   -5.9790   17.0380  -34.0390 C   0  0  0  0  0  0  0  0  0  0  0  0
   -6.8750   17.9370  -33.4600 C   0  0  0  0  0  0  0  0  0  0  0  0
   -6.4880   19.2720  -33.1690 C   0  0  0  0  0  0  0  0  0  0  0  0
   -7.3790   20.1900  -32.6420 N   0  0  0  0  0  0  0  0  0  0  0  0
   -8.8290   19.8950  -32.6490 C   0  0  0  0  0  0  0  0  0  0  0  0
   -6.9170   21.3960  -32.1440 C   0  0  0  0  0  0  0  0  0  0  0  0
   -7.7470   22.2590  -31.3800 C   0  0  0  0  0  0  0  0  0  0  0  0
   -7.2830   23.4970  -30.9370 C   0  0  0  0  0  0  0  0  0  0  0  0
   -5.9880   23.9060  -31.2320 C   0  0  0  0  0  0  0  0  0  0  0  0
   -5.1350   23.0660  -31.9410 C   0  0  0  0  0  0  0  0  0  0  0  0
   -5.5750   21.7990  -32.3790 C   0  0  0  0  0  0  0  0  0  0  0  0
   -0.4138   17.9726  -31.0438 H   0  0  0  0  0  0  0  0  0  0  0  0
    0.7152   17.6621  -32.4060 H   0  0  0  0  0  0  0  0  0  0  0  0
   -0.3076   19.1387  -32.4060 H   0  0  0  0  0  0  0  0  0  0  0  0
   -1.3863   16.2733  -32.5044 H   0  0  0  0  0  0  0  0  0  0  0  0
   -2.3230   17.8219  -32.6717 H   0  0  0  0  0  0  0  0  0  0  0  0
   -0.2854   16.6568  -34.6211 H   0  0  0  0  0  0  0  0  0  0  0  0
   -2.0570   16.9075  -34.8715 H   0  0  0  0  0  0  0  0  0  0  0  0
   -1.5600   19.4050  -34.6140 H   0  0  0  0  0  0  0  0  0  0  0  0
    1.5084   20.4969  -36.5237 H   0  0  0  0  0  0  0  0  0  0  0  0
   -0.2807   20.6671  -36.7916 H   0  0  0  0  0  0  0  0  0  0  0  0
    1.1481   21.1347  -34.1320 H   0  0  0  0  0  0  0  0  0  0  0  0
    0.6265   22.4226  -35.2892 H   0  0  0  0  0  0  0  0  0  0  0  0
   -1.4350   22.2860  -34.5980 H   0  0  0  0  0  0  0  0  0  0  0  0
   -0.2975   20.4396  -32.5579 H   0  0  0  0  0  0  0  0  0  0  0  0
   -0.4915   22.2423  -32.4440 H   0  0  0  0  0  0  0  0  0  0  0  0
   -2.4130   20.1210  -31.8295 H   0  0  0  0  0  0  0  0  0  0  0  0
   -2.4742   21.8877  -31.4685 H   0  0  0  0  0  0  0  0  0  0  0  0
   -3.0650   21.5570  -34.2690 H   0  0  0  0  0  0  0  0  0  0  0  0
   -3.2229   19.0269  -34.2412 H   0  0  0  0  0  0  0  0  0  0  0  0
   -3.9820   16.7239  -34.8040 H   0  0  0  0  0  0  0  0  0  0  0  0
   -6.3042   16.0123  -34.2673 H   0  0  0  0  0  0  0  0  0  0  0  0
   -7.8975   17.6065  -33.2251 H   0  0  0  0  0  0  0  0  0  0  0  0
   -9.1931   19.8209  -31.6137 H   0  0  0  0  0  0  0  0  0  0  0  0
   -9.3650   20.7025  -33.1693 H   0  0  0  0  0  0  0  0  0  0  0  0
   -9.0068   18.9423  -33.1693 H   0  0  0  0  0  0  0  0  0  0  0  0
   -8.7723   21.9457  -31.1338 H   0  0  0  0  0  0  0  0  0  0  0  0
   -7.9446   24.1525  -30.3517 H   0  0  0  0  0  0  0  0  0  0  0  0
   -5.6367   24.8956  -30.9044 H   0  0  0  0  0  0  0  0  0  0  0  0
   -4.1082   23.3927  -32.1621 H   0  0  0  0  0  0  0  0  0  0  0  0
  1  2  1  0
  2  3  1  0
  3  4  1  0
  4  5  1  0
  5  6  2  0
  5  7  1  0
  7  8  1  0
  8  9  1  0
  9 10  1  0
 10 11  1  0
 11 12  1  0
 12 13  1  0
 13 14  2  0
 14 15  1  0
 15 16  2  0
 16 17  1  0
 17 18  2  0
 18 19  1  0
 19 20  2  0
 20 21  1  0
 20 22  1  0
 22 23  2  0
 23 24  1  0
 24 25  2  0
 25 26  1  0
 26 27  2  0
 27 13  1  0
 19 14  1  0
 27 22  1  0
  1 28  1  0
  1 29  1  0
  1 30  1  0
  2 31  1  0
  2 32  1  0
  3 33  1  0
  3 34  1  0
  4 35  1  0
  7 36  1  0
  7 37  1  0
  8 38  1  0
  8 39  1  0
  9 40  1  0
 10 41  1  0
 10 42  1  0
 11 43  1  0
 11 44  1  0
 12 45  1  0
 15 46  1  0
 16 47  1  0
 17 48  1  0
 18 49  1  0
 21 50  1  0
 21 51  1  0
 21 52  1  0
 23 53  1  0
 24 54  1  0
 25 55  1  0
 26 56  1  0
M  CHG  1  20   1
M  END
>  <UniqueID>  (23) 
22

>  <SMILES>  (23) 
CCCNC(=O)CCNCCNc1c2ccccc2[n+](C)c2ccccc12

>  <Energy>  (23) 
75.10311559140098

>  <Genealogy>  (23) 
CCCNC(=O)CCNCCNc1c2ccccc2[n+](C)c2ccccc12 (3D coordinates assigned)
CCCNC(=O)CCNCCNc1c2ccccc2[n+](C)c2ccccc12 (optimized conformer: 75.10311559140098 kcal/mol)

>  <smiles>  (23) 
CCCNC(=O)CCNCCNc1c2ccccc2[n+](C)c2ccccc12

>  <score_type>  (23) 
oracle

>  <origin>  (23) 
adg

>  <m_score__min__energy>  (23) 
-9.5999999999999996

>  <m_primary>  (23) 
energy

$$$$
23:0
     RDKit          3D

 36 37  0  0  0  0  0  0  0  0999 V2000
   -0.8610   26.2720  -23.9270 C   0  0  0  0  0  0  0  0  0  0  0  0
   -1.6150   26.7190  -25.1780 C   0  0  0  0  0  0  0  0  0  0  0  0
   -2.2250   25.5350  -25.9370 C   0  0  0  0  0  0  0  0  0  0  0  0
   -2.0190   25.6920  -27.3890 N   0  0  0  0  0  0  0  0  0  0  0  0
   -1.1140   24.6790  -27.9540 C   0  0  0  0  0  0  0  0  0  0  0  0
   -1.6090   24.1870  -29.3140 C   0  0  0  0  0  0  0  0  0  0  0  0
   -2.7740   24.9140  -29.6950 O   0  0  0  0  0  0  0  0  0  0  0  0
   -3.9960   24.3260  -30.0540 C   0  0  0  0  0  0  0  0  0  0  0  0
   -5.2360   24.9230  -29.7590 C   0  0  0  0  0  0  0  0  0  0  0  0
   -6.4290   24.2970  -30.1320 C   0  0  0  0  0  0  0  0  0  0  0  0
   -6.4020   23.0670  -30.8040 C   0  0  0  0  0  0  0  0  0  0  0  0
   -7.5930   22.4300  -31.1820 C   0  0  0  0  0  0  0  0  0  0  0  0
   -7.5530   21.2030  -31.8520 C   0  0  0  0  0  0  0  0  0  0  0  0
   -9.1790   20.3420  -32.3640 Br  0  0  0  0  0  0  0  0  0  0  0  0
   -6.3230   20.6060  -32.1480 C   0  0  0  0  0  0  0  0  0  0  0  0
   -5.1300   21.2310  -31.7770 C   0  0  0  0  0  0  0  0  0  0  0  0
   -5.1570   22.4620  -31.1040 C   0  0  0  0  0  0  0  0  0  0  0  0
   -3.9650   23.0990  -30.7270 C   0  0  0  0  0  0  0  0  0  0  0  0
   -1.4106   26.5978  -23.0316 H   0  0  0  0  0  0  0  0  0  0  0  0
   -0.7727   25.1756  -23.9243 H   0  0  0  0  0  0  0  0  0  0  0  0
    0.1433   26.7207  -23.9243 H   0  0  0  0  0  0  0  0  0  0  0  0
   -2.4229   27.4034  -24.8797 H   0  0  0  0  0  0  0  0  0  0  0  0
   -0.8972   27.2166  -25.8467 H   0  0  0  0  0  0  0  0  0  0  0  0
   -1.7449   24.6038  -25.6017 H   0  0  0  0  0  0  0  0  0  0  0  0
   -3.3052   25.4992  -25.7324 H   0  0  0  0  0  0  0  0  0  0  0  0
   -2.9460   25.5810  -27.8650 H   0  0  0  0  0  0  0  0  0  0  0  0
   -0.1137   25.1202  -28.0752 H   0  0  0  0  0  0  0  0  0  0  0  0
   -1.0810   23.8213  -27.2661 H   0  0  0  0  0  0  0  0  0  0  0  0
   -0.8211   24.3392  -30.0664 H   0  0  0  0  0  0  0  0  0  0  0  0
   -1.8545   23.1169  -29.2460 H   0  0  0  0  0  0  0  0  0  0  0  0
   -5.2665   25.8879  -29.2318 H   0  0  0  0  0  0  0  0  0  0  0  0
   -7.3931   24.7716  -29.8972 H   0  0  0  0  0  0  0  0  0  0  0  0
   -8.5617   22.8970  -30.9507 H   0  0  0  0  0  0  0  0  0  0  0  0
   -6.2951   19.6408  -32.6749 H   0  0  0  0  0  0  0  0  0  0  0  0
   -4.1661   20.7565  -32.0133 H   0  0  0  0  0  0  0  0  0  0  0  0
   -2.9981   22.6303  -30.9623 H   0  0  0  0  0  0  0  0  0  0  0  0
  1  2  1  0
  2  3  1  0
  3  4  1  0
  4  5  1  0
  5  6  1  0
  6  7  1  0
  7  8  1  0
  8  9  2  0
  9 10  1  0
 10 11  2  0
 11 12  1  0
 12 13  2  0
 13 14  1  0
 13 15  1  0
 15 16  2  0
 16 17  1  0
 17 18  2  0
 18  8  1  0
 17 11  1  0
  1 19  1  0
  1 20  1  0
  1 21  1  0
  2 22  1  0
  2 23  1  0
  3 24  1  0
  3 25  1  0
  4 26  1  0
  5 27  1  0
  5 28  1  0
  6 29  1  0
  6 30  1  0
  9 31  1  0
 10 32  1  0
 12 33  1  0
 15 34  1  0
 16 35  1  0
 18 36  1  0
M  END
>  <UniqueID>  (24) 
23

>  <SMILES>  (24) 
CCCNCCOc1ccc2cc(Br)ccc2c1

>  <Energy>  (24) 
32.477029145721005

>  <Genealogy>  (24) 
CCCNCCOc1ccc2cc(Br)ccc2c1 (3D coordinates assigned)
CCCNCCOc1ccc2cc(Br)ccc2c1 (optimized conformer: 32.477029145721005 kcal/mol)

>  <smiles>  (24) 
CCCNCCOc1ccc2cc(Br)ccc2c1

>  <score_type>  (24) 
oracle

>  <origin>  (24) 
adg

>  <m_score__min__energy>  (24) 
-7.9299999999999997

>  <m_primary>  (24) 
energy

$$$$
24:0
     RDKit          3D

 45 47  0  0  0  0  0  0  0  0999 V2000
   -2.7530   23.9090  -27.3570 C   0  0  0  0  0  0  0  0  0  0  0  0
   -2.0040   25.0700  -28.0020 C   0  0  0  0  0  0  0  0  0  0  0  0
   -2.4700   25.2970  -29.3340 O   0  0  0  0  0  0  0  0  0  0  0  0
   -3.3610   24.4720  -30.0390 C   0  0  0  0  0  0  0  0  0  0  0  0
   -2.9530   23.3040  -30.7090 C   0  0  0  0  0  0  0  0  0  0  0  0
   -3.8870   22.5230  -31.3960 C   0  0  0  0  0  0  0  0  0  0  0  0
   -5.2410   22.8880  -31.4330 C   0  0  0  0  0  0  0  0  0  0  0  0
   -6.1740   22.0550  -32.1530 N   0  0  0  0  0  0  0  0  0  0  0  0
   -7.2580   21.2840  -31.5230 C   0  0  1  0  0  0  0  0  0  0  0  0
   -8.5770   21.4310  -32.3320 C   0  0  0  0  0  0  0  0  0  0  0  0
   -9.4850   20.2100  -32.1580 C   0  0  0  0  0  0  0  0  0  0  0  0
   -8.7940   18.9520  -32.7120 C   0  0  0  0  0  0  0  0  0  0  0  0
   -7.3420   18.9870  -32.4670 N   0  0  0  0  0  0  0  0  0  0  0  0
   -6.4240   18.4850  -33.4570 C   0  0  0  0  0  0  0  0  0  0  0  0
   -6.7890   17.5610  -34.2330 O   0  0  0  0  0  0  0  0  0  0  0  0
   -5.0550   19.0130  -33.5900 C   0  0  0  0  0  0  0  0  0  0  0  0
   -3.8940   18.2760  -33.7430 C   0  0  0  0  0  0  0  0  0  0  0  0
   -2.8720   19.1990  -33.8000 C   0  0  0  0  0  0  0  0  0  0  0  0
   -3.4670   20.4380  -33.6730 C   0  0  0  0  0  0  0  0  0  0  0  0
   -4.7660   20.2930  -33.5460 O   0  0  0  0  0  0  0  0  0  0  0  0
   -6.8400   19.8020  -31.3540 C   0  0  0  0  0  0  0  0  0  0  0  0
   -5.6440   24.0630  -30.7670 C   0  0  0  0  0  0  0  0  0  0  0  0
   -4.7090   24.8420  -30.0800 C   0  0  0  0  0  0  0  0  0  0  0  0
   -2.6953   23.9985  -26.2622 H   0  0  0  0  0  0  0  0  0  0  0  0
   -3.8067   23.9324  -27.6718 H   0  0  0  0  0  0  0  0  0  0  0  0
   -2.2973   22.9586  -27.6718 H   0  0  0  0  0  0  0  0  0  0  0  0
   -2.1642   25.9792  -27.4040 H   0  0  0  0  0  0  0  0  0  0  0  0
   -0.9333   24.8209  -28.0406 H   0  0  0  0  0  0  0  0  0  0  0  0
   -1.8948   23.0042  -30.6922 H   0  0  0  0  0  0  0  0  0  0  0  0
   -3.5561   21.6108  -31.9141 H   0  0  0  0  0  0  0  0  0  0  0  0
   -6.0690   22.0120  -33.1920 H   0  0  0  0  0  0  0  0  0  0  0  0
   -7.4468   21.6891  -30.5179 H   0  0  0  0  0  0  0  0  0  0  0  0
   -9.1121   22.3263  -31.9825 H   0  0  0  0  0  0  0  0  0  0  0  0
   -8.3187   21.5182  -33.3977 H   0  0  0  0  0  0  0  0  0  0  0  0
   -9.6995   20.0659  -31.0888 H   0  0  0  0  0  0  0  0  0  0  0  0
  -10.4220   20.3775  -32.7093 H   0  0  0  0  0  0  0  0  0  0  0  0
   -9.2189   18.0641  -32.2209 H   0  0  0  0  0  0  0  0  0  0  0  0
   -8.9619   18.9137  -33.7984 H   0  0  0  0  0  0  0  0  0  0  0  0
   -3.8052   17.1814  -33.8060 H   0  0  0  0  0  0  0  0  0  0  0  0
   -1.7989   18.9904  -33.9221 H   0  0  0  0  0  0  0  0  0  0  0  0
   -2.9342   21.4003  -33.6775 H   0  0  0  0  0  0  0  0  0  0  0  0
   -7.2530   19.4165  -30.4102 H   0  0  0  0  0  0  0  0  0  0  0  0
   -5.7415   19.7452  -31.3437 H   0  0  0  0  0  0  0  0  0  0  0  0
   -6.7005   24.3686  -30.7881 H   0  0  0  0  0  0  0  0  0  0  0  0
   -5.0373   25.7571  -29.5654 H   0  0  0  0  0  0  0  0  0  0  0  0
  1  2  1  0
  2  3  1  0
  3  4  1  0
  4  5  2  0
  5  6  1  0
  6  7  2  0
  7  8  1  0
  8  9  1  0
  9 10  1  0
 10 11  1  0
 11 12  1  0
 12 13  1  0
 13 14  1  0
 14 15  2  0
 14 16  1  0
 16 17  2  0
 17 18  1  0
 18 19  2  0
 19 20  1  0
 13 21  1  0
  7 22  1  0
 22 23  2  0
 23  4  1  0
 21  9  1  0
 20 16  1  0
  1 24  1  0
  1 25  1  0
  1 26  1  0
  2 27  1  0
  2 28  1  0
  5 29  1  0
  6 30  1  0
  8 31  1  0
  9 32  1  1
 10 33  1  0
 10 34  1  0
 11 35  1  0
 11 36  1  0
 12 37  1  0
 12 38  1  0
 17 39  1  0
 18 40  1  0
 19 41  1  0
 21 42  1  0
 21 43  1  0
 22 44  1  0
 23 45  1  0
M  END
>  <UniqueID>  (25) 
24

>  <SMILES>  (25) 
CCOc1ccc(N[C@H]2CCCN(C(=O)c3ccco3)C2)cc1

>  <Energy>  (25) 
76.5753370524053

>  <Genealogy>  (25) 
CCOc1ccc(N[C@H]2CCCN(C(=O)c3ccco3)C2)cc1 (chirality)
CCOc1ccc(N[C@H]2CCCN(C(=O)c3ccco3)C2)cc1 (3D coordinates assigned)
CCOc1ccc(N[C@H]2CCCN(C(=O)c3ccco3)C2)cc1 (nonaromatic ring conformer: 76.5753370524053 kcal/mol)

>  <smiles>  (25) 
CCOc1ccc(NC2CCCN(C(=O)c3ccco3)C2)cc1

>  <score_type>  (25) 
oracle

>  <origin>  (25) 
adg

>  <m_score__min__energy>  (25) 
-7.8300000000000001

>  <m_primary>  (25) 
energy

$$$$
25:0
     RDKit          3D

 64 66  0  0  0  0  0  0  0  0999 V2000
    1.7620   28.6270  -22.6570 C   0  0  0  0  0  0  0  0  0  0  0  0
    1.4810   27.4160  -23.5530 C   0  0  0  0  0  0  0  0  0  0  0  0
    0.4540   26.5200  -22.9930 N   0  0  0  0  0  0  0  0  0  0  0  0
   -0.8190   26.5920  -23.7370 C   0  0  0  0  0  0  0  0  0  0  0  0
   -0.9050   25.5360  -24.8570 C   0  0  0  0  0  0  0  0  0  0  0  0
   -2.0520   25.7480  -25.8640 C   0  0  0  0  0  0  0  0  0  0  0  0
   -1.6560   25.4730  -27.3180 C   0  0  0  0  0  0  0  0  0  0  0  0
   -2.0650   24.1720  -27.6880 O   0  0  0  0  0  0  0  0  0  0  0  0
   -3.3240   24.2090  -28.3360 C   0  0  0  0  0  0  0  0  0  0  0  0
   -3.1390   24.1430  -29.8530 C   0  0  0  0  0  0  0  0  0  0  0  0
   -3.8650   25.1840  -30.4770 O   0  0  0  0  0  0  0  0  0  0  0  0
   -5.1950   25.2520  -29.9900 C   0  0  0  0  0  0  0  0  0  0  0  0
   -5.9780   24.0210  -30.4450 C   0  0  0  0  0  0  0  0  0  0  0  0
   -5.4610   23.5230  -31.7200 N   0  0  0  0  0  0  0  0  0  0  0  0
   -5.7250   22.1800  -32.1660 C   0  0  0  0  0  0  0  0  0  0  0  0
   -7.0420   21.6890  -32.1950 C   0  0  0  0  0  0  0  0  0  0  0  0
   -8.1340   22.5270  -31.8770 C   0  0  0  0  0  0  0  0  0  0  0  0
   -9.4410   22.0510  -31.9420 C   0  0  0  0  0  0  0  0  0  0  0  0
   -9.6860   20.7440  -32.3430 C   0  0  0  0  0  0  0  0  0  0  0  0
   -8.6250   19.9000  -32.6710 C   0  0  0  0  0  0  0  0  0  0  0  0
   -7.2800   20.3440  -32.5880 C   0  0  0  0  0  0  0  0  0  0  0  0
   -6.2210   19.5140  -32.9050 N   0  0  0  0  0  0  0  0  0  0  0  0
   -6.4460   18.0600  -33.0600 C   0  0  0  0  0  0  0  0  0  0  0  0
   -4.9530   20.0430  -33.0670 C   0  0  0  0  0  0  0  0  0  0  0  0
   -3.9020   19.2950  -33.6570 C   0  0  0  0  0  0  0  0  0  0  0  0
   -2.6100   19.8110  -33.7400 C   0  0  0  0  0  0  0  0  0  0  0  0
   -2.3350   21.0870  -33.2640 C   0  0  0  0  0  0  0  0  0  0  0  0
   -3.3580   21.8690  -32.7340 C   0  0  0  0  0  0  0  0  0  0  0  0
   -4.6780   21.3740  -32.6520 C   0  0  0  0  0  0  0  0  0  0  0  0
    1.6922   28.3261  -21.6013 H   0  0  0  0  0  0  0  0  0  0  0  0
    2.7727   29.0091  -22.8633 H   0  0  0  0  0  0  0  0  0  0  0  0
    1.0229   29.4151  -22.8633 H   0  0  0  0  0  0  0  0  0  0  0  0
    1.1368   27.7762  -24.5337 H   0  0  0  0  0  0  0  0  0  0  0  0
    2.4147   26.8403  -23.6357 H   0  0  0  0  0  0  0  0  0  0  0  0
    0.2880   26.8110  -22.0000 H   0  0  0  0  0  0  0  0  0  0  0  0
    0.8190   25.5390  -22.9940 H   0  0  0  0  0  0  0  0  0  0  0  0
   -1.6490   26.4295  -23.0337 H   0  0  0  0  0  0  0  0  0  0  0  0
   -0.8776   27.5850  -24.2067 H   0  0  0  0  0  0  0  0  0  0  0  0
    0.0442   25.5497  -25.4128 H   0  0  0  0  0  0  0  0  0  0  0  0
   -1.1055   24.5755  -24.3597 H   0  0  0  0  0  0  0  0  0  0  0  0
   -2.8782   25.0731  -25.5959 H   0  0  0  0  0  0  0  0  0  0  0  0
   -2.3388   26.8083  -25.8048 H   0  0  0  0  0  0  0  0  0  0  0  0
   -2.1427   26.2093  -27.9745 H   0  0  0  0  0  0  0  0  0  0  0  0
   -0.5634   25.5522  -27.4179 H   0  0  0  0  0  0  0  0  0  0  0  0
   -3.9280   23.3510  -28.0059 H   0  0  0  0  0  0  0  0  0  0  0  0
   -3.8337   25.1487  -28.0769 H   0  0  0  0  0  0  0  0  0  0  0  0
   -2.0710   24.2490  -30.0942 H   0  0  0  0  0  0  0  0  0  0  0  0
   -3.5112   23.1748  -30.2192 H   0  0  0  0  0  0  0  0  0  0  0  0
   -5.1797   25.2890  -28.8907 H   0  0  0  0  0  0  0  0  0  0  0  0
   -5.6800   26.1567  -30.3852 H   0  0  0  0  0  0  0  0  0  0  0  0
   -5.8847   23.2319  -29.6843 H   0  0  0  0  0  0  0  0  0  0  0  0
   -7.0337   24.3011  -30.5759 H   0  0  0  0  0  0  0  0  0  0  0  0
   -4.6870   24.0570  -32.1690 H   0  0  0  0  0  0  0  0  0  0  0  0
   -7.9495   23.5683  -31.5743 H   0  0  0  0  0  0  0  0  0  0  0  0
  -10.2800   22.7106  -31.6756 H   0  0  0  0  0  0  0  0  0  0  0  0
  -10.7200   20.3733  -32.4021 H   0  0  0  0  0  0  0  0  0  0  0  0
   -8.8349   18.8715  -33.0000 H   0  0  0  0  0  0  0  0  0  0  0  0
   -6.5184   17.5923  -32.0670 H   0  0  0  0  0  0  0  0  0  0  0  0
   -7.3810   17.8907  -33.6141 H   0  0  0  0  0  0  0  0  0  0  0  0
   -5.6059   17.6160  -33.6141 H   0  0  0  0  0  0  0  0  0  0  0  0
   -4.1102   18.2911  -34.0556 H   0  0  0  0  0  0  0  0  0  0  0  0
   -1.8055   19.2061  -34.1838 H   0  0  0  0  0  0  0  0  0  0  0  0
   -1.3084   21.4798  -33.3059 H   0  0  0  0  0  0  0  0  0  0  0  0
   -3.1352   22.8846  -32.3749 H   0  0  0  0  0  0  0  0  0  0  0  0
  1  2  1  0
  2  3  1  0
  3  4  1  0
  4  5  1  0
  5  6  1  0
  6  7  1  0
  7  8  1  0
  8  9  1  0
  9 10  1  0
 10 11  1  0
 11 12  1  0
 12 13  1  0
 13 14  1  0
 14 15  1  0
 15 16  2  0
 16 17  1  0
 17 18  2  0
 18 19  1  0
 19 20  2  0
 20 21  1  0
 21 22  2  0
 22 23  1  0
 22 24  1  0
 24 25  2  0
 25 26  1  0
 26 27  2  0
 27 28  1  0
 28 29  2  0
 29 15  1  0
 21 16  1  0
 29 24  1  0
  1 30  1  0
  1 31  1  0
  1 32  1  0
  2 33  1  0
  2 34  1  0
  3 35  1  0
  3 36  1  0
  4 37  1  0
  4 38  1  0
  5 39  1  0
  5 40  1  0
  6 41  1  0
  6 42  1  0
  7 43  1  0
  7 44  1  0
  9 45  1  0
  9 46  1  0
 10 47  1  0
 10 48  1  0
 12 49  1  0
 12 50  1  0
 13 51  1  0
 13 52  1  0
 14 53  1  0
 17 54  1  0
 18 55  1  0
 19 56  1  0
 20 57  1  0
 23 58  1  0
 23 59  1  0
 23 60  1  0
 25 61  1  0
 26 62  1  0
 27 63  1  0
 28 64  1  0
M  CHG  2   3   1  22   1
M  END
>  <UniqueID>  (26) 
25

>  <SMILES>  (26) 
CC[NH2+]CCCCOCCOCCNc1c2ccccc2[n+](C)c2ccccc12

>  <Energy>  (26) 
80.46928178602693

>  <Genealogy>  (26) 
CC[NH2+]CCCCOCCOCCNc1c2ccccc2[n+](C)c2ccccc12 (protonated)
CC[NH2+]CCCCOCCOCCNc1c2ccccc2[n+](C)c2ccccc12 (3D coordinates assigned)
CC[NH2+]CCCCOCCOCCNc1c2ccccc2[n+](C)c2ccccc12 (optimized conformer: 80.46928178602693 kcal/mol)

>  <smiles>  (26) 
CCNCCCCOCCOCCNc1c2ccccc2[n+](C)c2ccccc12

>  <score_type>  (26) 
oracle

>  <origin>  (26) 
adg

>  <m_score__min__energy>  (26) 
-10.44

>  <m_primary>  (26) 
energy

$$$$
