0:0
     RDKit          3D

 34 36  0  0  0  0  0  0  0  0999 V2000
   -3.2200   21.1760  -33.0770 C   0  0  0  0  0  0  0  0  0  0  0  0
   -4.0190   20.6970  -31.8680 C   0  0  0  0  0  0  0  0  0  0  0  0
   -5.3370   21.3770  -31.7990 N   0  0  0  0  0  0  0  0  0  0  0  0
   -6.4530   20.7390  -32.3090 C   0  0  0  0  0  0  0  0  0  0  0  0
   -6.3840   19.4100  -32.9520 C   0  0  0  0  0  0  0  0  0  0  0  0
   -6.9390   18.2900  -32.3150 C   0  0  0  0  0  0  0  0  0  0  0  0
   -6.8820   17.0350  -32.9290 C   0  0  0  0  0  0  0  0  0  0  0  0
   -6.2800   16.8950  -34.1830 C   0  0  0  0  0  0  0  0  0  0  0  0
   -5.7360   18.0120  -34.8270 C   0  0  0  0  0  0  0  0  0  0  0  0
   -5.7910   19.2680  -34.2150 C   0  0  0  0  0  0  0  0  0  0  0  0
   -7.7130   21.3370  -32.2360 C   0  0  0  0  0  0  0  0  0  0  0  0
   -7.8630   22.5890  -31.6620 C   0  0  0  0  0  0  0  0  0  0  0  0
   -9.0140   23.1040  -31.6010 O   0  0  0  0  0  0  0  0  0  0  0  0
   -6.7410   23.2660  -31.1680 C   0  0  0  0  0  0  0  0  0  0  0  0
   -6.8720   24.5480  -30.6000 C   0  0  0  0  0  0  0  0  0  0  0  0
   -5.7550   25.2310  -30.1280 C   0  0  0  0  0  0  0  0  0  0  0  0
   -4.4940   24.6520  -30.2230 C   0  0  0  0  0  0  0  0  0  0  0  0
   -4.3410   23.3820  -30.7800 C   0  0  0  0  0  0  0  0  0  0  0  0
   -5.4590   22.6480  -31.2560 C   0  0  0  0  0  0  0  0  0  0  0  0
   -2.3235   21.7135  -32.7344 H   0  0  0  0  0  0  0  0  0  0  0  0
   -2.9185   20.3096  -33.6839 H   0  0  0  0  0  0  0  0  0  0  0  0
   -3.8422   21.8502  -33.6839 H   0  0  0  0  0  0  0  0  0  0  0  0
   -4.1779   19.6115  -31.9487 H   0  0  0  0  0  0  0  0  0  0  0  0
   -3.4526   20.9364  -30.9559 H   0  0  0  0  0  0  0  0  0  0  0  0
   -7.4195   18.3992  -31.3315 H   0  0  0  0  0  0  0  0  0  0  0  0
   -7.3114   16.1568  -32.4247 H   0  0  0  0  0  0  0  0  0  0  0  0
   -6.2339   15.9066  -34.6636 H   0  0  0  0  0  0  0  0  0  0  0  0
   -5.2650   17.9019  -35.8149 H   0  0  0  0  0  0  0  0  0  0  0  0
   -5.3684   20.1462  -34.7250 H   0  0  0  0  0  0  0  0  0  0  0  0
   -8.5918   20.8106  -32.6368 H   0  0  0  0  0  0  0  0  0  0  0  0
   -7.8660   25.0137  -30.5288 H   0  0  0  0  0  0  0  0  0  0  0  0
   -5.8695   26.2290  -29.6797 H   0  0  0  0  0  0  0  0  0  0  0  0
   -3.6123   25.1985  -29.8569 H   0  0  0  0  0  0  0  0  0  0  0  0
   -3.3357   22.9414  -30.8516 H   0  0  0  0  0  0  0  0  0  0  0  0
  1  2  1  0
  2  3  1  0
  3  4  1  0
  4  5  1  0
  5  6  2  0
  6  7  1  0
  7  8  2  0
  8  9  1  0
  9 10  2  0
  4 11  2  0
 11 12  1  0
 12 13  2  0
 12 14  1  0
 14 15  2  0
 15 16  1  0
 16 17  2  0
 17 18  1  0
 18 19  2  0
 19  3  1  0
 10  5  1  0
 19 14  1  0
  1 20  1  0
  1 21  1  0
  1 22  1  0
  2 23  1  0
  2 24  1  0
  6 25  1  0
  7 26  1  0
  8 27  1  0
  9 28  1  0
 10 29  1  0
 11 30  1  0
 15 31  1  0
 16 32  1  0
 17 33  1  0
 18 34  1  0
M  END
>  <UniqueID>  (1) 
1

>  <SMILES>  (1) 
CCn1c(-c2ccccc2)cc(=O)c2ccccc21

>  <Energy>  (1) 
54.8225036067448

>  <Genealogy>  (1) 
CCn1c(-c2ccccc2)cc(=O)c2ccccc21 (3D coordinates assigned)
CCn1c(-c2ccccc2)cc(=O)c2ccccc21 (optimized conformer: 54.8225036067448 kcal/mol)

>  <smiles>  (1) 
CCn1c(-c2ccccc2)cc(=O)c2ccccc21

>  <score_type>  (1) 
oracle

>  <origin>  (1) 
adg

>  <m_score__min__energy>  (1) 
-7.5899999999999999

>  <m_primary>  (1) 
energy

$$$$
1:0
     RDKit          3D

 45 48  0  0  0  0  0  0  0  0999 V2000
   -2.2660   20.9220  -28.1350 C   0  0  0  0  0  0  0  0  0  0  0  0
   -3.3000   21.9920  -27.8060 C   0  0  0  0  0  0  0  0  0  0  0  0
   -2.7280   23.3280  -27.9880 N   0  0  0  0  0  0  0  0  0  0  0  0
   -2.9090   24.1750  -29.0340 C   0  0  0  0  0  0  0  0  0  0  0  0
   -3.7910   23.9010  -30.1250 N   0  0  0  0  0  0  0  0  0  0  0  0
   -3.3350   23.0570  -31.2320 C   0  0  0  0  0  0  0  0  0  0  0  0
   -4.4460   22.0730  -31.6300 C   0  0  0  0  0  0  0  0  0  0  0  0
   -5.7690   22.7180  -31.6290 N   0  0  0  0  0  0  0  0  0  0  0  0
   -6.9520   21.9040  -31.7360 C   0  0  0  0  0  0  0  0  0  0  0  0
   -8.1760   22.3520  -31.2090 C   0  0  0  0  0  0  0  0  0  0  0  0
   -9.3260   21.5670  -31.3290 C   0  0  0  0  0  0  0  0  0  0  0  0
   -9.2680   20.3320  -31.9780 C   0  0  0  0  0  0  0  0  0  0  0  0
   -8.0580   19.8810  -32.5130 C   0  0  0  0  0  0  0  0  0  0  0  0
   -6.9050   20.6620  -32.3950 C   0  0  0  0  0  0  0  0  0  0  0  0
   -5.8730   24.1710  -31.4290 C   0  0  0  0  0  0  0  0  0  0  0  0
   -5.0950   24.5710  -30.1720 C   0  0  0  0  0  0  0  0  0  0  0  0
   -2.1540   25.3020  -28.9690 N   0  0  0  0  0  0  0  0  0  0  0  0
   -1.4730   25.1330  -27.8200 C   0  0  0  0  0  0  0  0  0  0  0  0
   -0.5280   25.9890  -27.2620 C   0  0  0  0  0  0  0  0  0  0  0  0
    0.0850   25.5950  -26.0570 C   0  0  0  0  0  0  0  0  0  0  0  0
   -0.2570   24.3640  -25.4500 C   0  0  0  0  0  0  0  0  0  0  0  0
   -1.2150   23.5190  -26.0400 C   0  0  0  0  0  0  0  0  0  0  0  0
   -1.8070   23.9450  -27.2300 C   0  0  0  0  0  0  0  0  0  0  0  0
   -1.8616   20.5035  -27.2015 H   0  0  0  0  0  0  0  0  0  0  0  0
   -2.7409   20.1209  -28.7205 H   0  0  0  0  0  0  0  0  0  0  0  0
   -1.4491   21.3692  -28.7205 H   0  0  0  0  0  0  0  0  0  0  0  0
   -4.1672   21.8751  -28.4726 H   0  0  0  0  0  0  0  0  0  0  0  0
   -3.6112   21.8770  -26.7572 H   0  0  0  0  0  0  0  0  0  0  0  0
   -3.0830   23.6913  -32.0947 H   0  0  0  0  0  0  0  0  0  0  0  0
   -2.4464   22.4916  -30.9147 H   0  0  0  0  0  0  0  0  0  0  0  0
   -4.2373   21.6886  -32.6393 H   0  0  0  0  0  0  0  0  0  0  0  0
   -4.4616   21.2563  -30.8932 H   0  0  0  0  0  0  0  0  0  0  0  0
   -8.2288   23.3255  -30.6996 H   0  0  0  0  0  0  0  0  0  0  0  0
  -10.2793   21.9229  -30.9111 H   0  0  0  0  0  0  0  0  0  0  0  0
  -10.1739   19.7145  -32.0682 H   0  0  0  0  0  0  0  0  0  0  0  0
   -8.0132   18.9099  -33.0277 H   0  0  0  0  0  0  0  0  0  0  0  0
   -5.9557   20.3036  -32.8197 H   0  0  0  0  0  0  0  0  0  0  0  0
   -5.4525   24.6921  -32.3017 H   0  0  0  0  0  0  0  0  0  0  0  0
   -6.9304   24.4496  -31.3095 H   0  0  0  0  0  0  0  0  0  0  0  0
   -4.9399   25.6600  -30.1764 H   0  0  0  0  0  0  0  0  0  0  0  0
   -5.6766   24.2679  -29.2889 H   0  0  0  0  0  0  0  0  0  0  0  0
   -0.2685   26.9419  -27.7463 H   0  0  0  0  0  0  0  0  0  0  0  0
    0.8339   26.2481  -25.5852 H   0  0  0  0  0  0  0  0  0  0  0  0
    0.2295   24.0651  -24.5098 H   0  0  0  0  0  0  0  0  0  0  0  0
   -1.4875   22.5576  -25.5801 H   0  0  0  0  0  0  0  0  0  0  0  0
  1  2  1  0
  2  3  1  0
  3  4  1  0
  4  5  1  0
  5  6  1  0
  6  7  1  0
  7  8  1  0
  8  9  1  0
  9 10  2  0
 10 11  1  0
 11 12  2  0
 12 13  1  0
 13 14  2  0
  8 15  1  0
 15 16  1  0
  4 17  2  0
 17 18  1  0
 18 19  2  0
 19 20  1  0
 20 21  2  0
 21 22  1  0
 22 23  2  0
 23  3  1  0
 16  5  1  0
 23 18  1  0
 14  9  1  0
  1 24  1  0
  1 25  1  0
  1 26  1  0
  2 27  1  0
  2 28  1  0
  6 29  1  0
  6 30  1  0
  7 31  1  0
  7 32  1  0
 10 33  1  0
 11 34  1  0
 12 35  1  0
 13 36  1  0
 14 37  1  0
 15 38  1  0
 15 39  1  0
 16 40  1  0
 16 41  1  0
 19 42  1  0
 20 43  1  0
 21 44  1  0
 22 45  1  0
M  END
>  <UniqueID>  (2) 
2

>  <SMILES>  (2) 
CCn1c(N2CCN(c3ccccc3)CC2)nc2ccccc21

>  <Energy>  (2) 
91.61065789870072

>  <Genealogy>  (2) 
CCn1c(N2CCN(c3ccccc3)CC2)nc2ccccc21 (3D coordinates assigned)
CCn1c(N2CCN(c3ccccc3)CC2)nc2ccccc21 (nonaromatic ring conformer: 91.61065789870072 kcal/mol)

>  <smiles>  (2) 
CCn1c(N2CCN(c3ccccc3)CC2)nc2ccccc21

>  <score_type>  (2) 
oracle

>  <origin>  (2) 
adg

>  <m_score__min__energy>  (2) 
-7.6500000000000004

>  <m_primary>  (2) 
energy

$$$$
2:0
     RDKit          3D

 40 40  0  0  0  0  0  0  0  0999 V2000
   -6.5724   25.0644  -29.3031 H   0  0  0  0  0  0  0  0  0  0  0  0
   -6.0190   24.6210  -30.1440 C   0  0  0  0  0  0  0  0  0  0  0  0
   -4.5450   24.5650  -30.0650 C   0  0  0  0  0  0  0  0  0  0  0  0
   -3.8760   25.3020  -30.8390 O   0  0  0  0  0  0  0  0  0  0  0  0
   -3.8640   23.6780  -29.1610 N   0  0  0  0  0  0  0  0  0  0  0  0
   -4.3810   22.8800  -28.7300 H   0  0  0  0  0  0  0  0  0  0  0  0
   -2.4240   23.7580  -28.9260 C   0  0  0  0  0  0  0  0  0  0  0  0
   -2.2399   24.3026  -27.9882 H   0  0  0  0  0  0  0  0  0  0  0  0
   -1.9546   24.2858  -29.7692 H   0  0  0  0  0  0  0  0  0  0  0  0
   -1.8180   22.3520  -28.8210 C   0  0  0  0  0  0  0  0  0  0  0  0
   -1.2394   22.2808  -27.8882 H   0  0  0  0  0  0  0  0  0  0  0  0
   -1.1716   22.1883  -29.6958 H   0  0  0  0  0  0  0  0  0  0  0  0
   -2.8670   21.3090  -28.8170 N   0  0  0  0  0  0  0  0  0  0  0  0
   -2.7420   20.2670  -27.7700 C   0  0  0  0  0  0  0  0  0  0  0  0
   -2.5691   19.3004  -28.2658 H   0  0  0  0  0  0  0  0  0  0  0  0
   -3.6767   20.2911  -27.1905 H   0  0  0  0  0  0  0  0  0  0  0  0
   -1.6040   20.5040  -26.7730 C   0  0  0  0  0  0  0  0  0  0  0  0
   -1.9925   20.4231  -25.7471 H   0  0  0  0  0  0  0  0  0  0  0  0
   -0.8179   19.7503  -26.9279 H   0  0  0  0  0  0  0  0  0  0  0  0
   -1.1841   21.5089  -26.9279 H   0  0  0  0  0  0  0  0  0  0  0  0
   -3.2540   20.7970  -30.1560 C   0  0  0  0  0  0  0  0  0  0  0  0
   -3.0376   19.7189  -30.1869 H   0  0  0  0  0  0  0  0  0  0  0  0
   -4.3226   21.0261  -30.2806 H   0  0  0  0  0  0  0  0  0  0  0  0
   -2.5240   21.4670  -31.3330 C   0  0  0  0  0  0  0  0  0  0  0  0
   -1.7655   22.1631  -30.9456 H   0  0  0  0  0  0  0  0  0  0  0  0
   -2.0350   20.6967  -31.9475 H   0  0  0  0  0  0  0  0  0  0  0  0
   -3.2496   22.0201  -31.9475 H   0  0  0  0  0  0  0  0  0  0  0  0
   -6.7140   24.1570  -31.1920 C   0  0  0  0  0  0  0  0  0  0  0  0
   -7.1773   24.8881  -31.8709 H   0  0  0  0  0  0  0  0  0  0  0  0
   -6.8950   22.7140  -31.4900 C   0  0  0  0  0  0  0  0  0  0  0  0
   -8.0710   22.0800  -31.0530 C   0  0  0  0  0  0  0  0  0  0  0  0
   -8.8267   22.6556  -30.4984 H   0  0  0  0  0  0  0  0  0  0  0  0
   -8.2890   20.7240  -31.3170 C   0  0  0  0  0  0  0  0  0  0  0  0
   -9.2093   20.2369  -30.9622 H   0  0  0  0  0  0  0  0  0  0  0  0
   -7.3410   19.9870  -32.0300 C   0  0  0  0  0  0  0  0  0  0  0  0
   -7.6430   18.1370  -32.3920 Br  0  0  0  0  0  0  0  0  0  0  0  0
   -6.1750   20.6090  -32.4860 C   0  0  0  0  0  0  0  0  0  0  0  0
   -5.4310   20.0302  -33.0530 H   0  0  0  0  0  0  0  0  0  0  0  0
   -5.9510   21.9640  -32.2240 C   0  0  0  0  0  0  0  0  0  0  0  0
   -5.0343   22.4481  -32.5918 H   0  0  0  0  0  0  0  0  0  0  0  0
  1  2  1  0
  2  3  1  0
  3  4  2  0
  3  5  1  0
  5  6  1  0
  5  7  1  0
  7  8  1  0
  7  9  1  0
  7 10  1  0
 10 11  1  0
 10 12  1  0
 10 13  1  0
 13 14  1  0
 14 15  1  0
 14 16  1  0
 14 17  1  0
 17 18  1  0
 17 19  1  0
 17 20  1  0
 13 21  1  0
 21 22  1  0
 21 23  1  0
 21 24  1  0
 24 25  1  0
 24 26  1  0
 24 27  1  0
  2 28  2  0
 28 29  1  0
 28 30  1  0
 30 31  2  0
 31 32  1  0
 31 33  1  0
 33 34  1  0
 33 35  2  0
 35 36  1  0
 35 37  1  0
 37 38  1  0
 37 39  2  0
 39 40  1  0
 39 30  1  0
M  END
>  <UniqueID>  (3) 
3

>  <SMILES>  (3) 
CCN(CC)CCNC(=O)/C=C/c1ccc(Br)cc1

>  <Energy>  (3) 
43.833048821864324

>  <Genealogy>  (3) 
CCN(CC)CCNC(=O)/C=C/c1ccc(Br)cc1 (cis-trans isomerization)
CCN(CC)CCNC(=O)/C=C/c1ccc(Br)cc1 (3D coordinates assigned)
CCN(CC)CCNC(=O)/C=C/c1ccc(Br)cc1 (optimized conformer: 43.833048821864324 kcal/mol)

>  <smiles>  (3) 
CCN(CC)CCNC(=O)C=Cc1ccc(Br)cc1

>  <score_type>  (3) 
oracle

>  <origin>  (3) 
adg

>  <m_score__min__energy>  (3) 
-7.5800000000000001

>  <m_primary>  (3) 
energy

$$$$
3:0
     RDKit          3D

 50 52  0  0  0  0  0  0  0  0999 V2000
   -9.0510   21.4030  -31.0030 C   0  0  0  0  0  0  0  0  0  0  0  0
   -9.3810   20.6860  -32.3210 C   0  0  0  0  0  0  0  0  0  0  0  0
   -8.3140   19.7780  -32.8290 N   0  0  0  0  0  0  0  0  0  0  0  0
   -8.3900   18.4020  -32.2710 C   0  0  0  0  0  0  0  0  0  0  0  0
   -7.0950   17.9600  -31.5800 C   0  0  0  0  0  0  0  0  0  0  0  0
   -6.9400   20.3160  -32.6370 C   0  0  0  0  0  0  0  0  0  0  0  0
   -5.9400   19.9880  -33.7710 C   0  0  0  0  0  0  0  0  0  0  0  0
   -4.4690   20.3080  -33.4620 C   0  0  0  0  0  0  0  0  0  0  0  0
   -4.2600   21.7380  -33.2050 N   0  0  0  0  0  0  0  0  0  0  0  0
   -3.9770   22.2460  -31.8870 C   0  0  0  0  0  0  0  0  0  0  0  0
   -4.8720   23.1110  -31.2080 C   0  0  0  0  0  0  0  0  0  0  0  0
   -6.1880   23.3060  -31.6760 C   0  0  0  0  0  0  0  0  0  0  0  0
   -7.0550   24.1760  -31.0210 C   0  0  0  0  0  0  0  0  0  0  0  0
   -6.6400   24.8500  -29.8780 C   0  0  0  0  0  0  0  0  0  0  0  0
   -5.3590   24.6440  -29.3660 C   0  0  0  0  0  0  0  0  0  0  0  0
   -4.4510   23.7640  -30.0040 C   0  0  0  0  0  0  0  0  0  0  0  0
   -3.1940   23.5210  -29.4810 N   0  0  0  0  0  0  0  0  0  0  0  0
   -2.7210   24.2200  -28.2710 C   0  0  0  0  0  0  0  0  0  0  0  0
   -2.4020   22.5880  -30.0940 C   0  0  0  0  0  0  0  0  0  0  0  0
   -0.8730   22.0510  -29.6240 S   0  0  0  0  0  0  0  0  0  0  0  0
   -0.6630   20.9820  -30.9070 C   0  0  0  0  0  0  0  0  0  0  0  0
   -1.7890   21.0360  -31.7220 C   0  0  0  0  0  0  0  0  0  0  0  0
   -2.7640   21.9410  -31.2630 C   0  0  0  0  0  0  0  0  0  0  0  0
   -9.3442   20.7659  -30.1556 H   0  0  0  0  0  0  0  0  0  0  0  0
   -7.9704   21.6027  -30.9548 H   0  0  0  0  0  0  0  0  0  0  0  0
   -9.6021   22.3538  -30.9548 H   0  0  0  0  0  0  0  0  0  0  0  0
  -10.2917   20.0889  -32.1658 H   0  0  0  0  0  0  0  0  0  0  0  0
   -9.4994   21.4748  -33.0785 H   0  0  0  0  0  0  0  0  0  0  0  0
   -8.4750   19.6760  -33.8560 H   0  0  0  0  0  0  0  0  0  0  0  0
   -9.2081   18.3670  -31.5365 H   0  0  0  0  0  0  0  0  0  0  0  0
   -8.5625   17.7159  -33.1134 H   0  0  0  0  0  0  0  0  0  0  0  0
   -7.2277   18.0053  -30.4890 H   0  0  0  0  0  0  0  0  0  0  0  0
   -6.8541   16.9288  -31.8776 H   0  0  0  0  0  0  0  0  0  0  0  0
   -6.2739   18.6288  -31.8776 H   0  0  0  0  0  0  0  0  0  0  0  0
   -7.0117   21.4104  -32.5525 H   0  0  0  0  0  0  0  0  0  0  0  0
   -6.5456   19.8304  -31.7322 H   0  0  0  0  0  0  0  0  0  0  0  0
   -6.0152   18.9126  -33.9899 H   0  0  0  0  0  0  0  0  0  0  0  0
   -6.2197   20.6308  -34.6187 H   0  0  0  0  0  0  0  0  0  0  0  0
   -4.1608   19.7385  -32.5728 H   0  0  0  0  0  0  0  0  0  0  0  0
   -3.8687   20.0292  -34.3406 H   0  0  0  0  0  0  0  0  0  0  0  0
   -4.5680   22.4060  -33.9460 H   0  0  0  0  0  0  0  0  0  0  0  0
   -6.5333   22.7643  -32.5690 H   0  0  0  0  0  0  0  0  0  0  0  0
   -8.0725   24.3309  -31.4093 H   0  0  0  0  0  0  0  0  0  0  0  0
   -7.3248   25.5487  -29.3753 H   0  0  0  0  0  0  0  0  0  0  0  0
   -5.0492   25.1731  -28.4527 H   0  0  0  0  0  0  0  0  0  0  0  0
   -3.0801   23.6893  -27.3770 H   0  0  0  0  0  0  0  0  0  0  0  0
   -1.6212   24.2426  -28.2669 H   0  0  0  0  0  0  0  0  0  0  0  0
   -3.1089   25.2493  -28.2669 H   0  0  0  0  0  0  0  0  0  0  0  0
    0.2188   20.3459  -31.0735 H   0  0  0  0  0  0  0  0  0  0  0  0
   -1.9056   20.4319  -32.6338 H   0  0  0  0  0  0  0  0  0  0  0  0
  1  2  1  0
  2  3  1  0
  3  4  1  0
  4  5  1  0
  3  6  1  0
  6  7  1  0
  7  8  1  0
  8  9  1  0
  9 10  1  0
 10 11  2  0
 11 12  1  0
 12 13  2  0
 13 14  1  0
 14 15  2  0
 15 16  1  0
 16 17  2  0
 17 18  1  0
 17 19  1  0
 19 20  1  0
 20 21  1  0
 21 22  2  0
 22 23  1  0
 23 10  1  0
 16 11  1  0
 23 19  2  0
  1 24  1  0
  1 25  1  0
  1 26  1  0
  2 27  1  0
  2 28  1  0
  3 29  1  0
  4 30  1  0
  4 31  1  0
  5 32  1  0
  5 33  1  0
  5 34  1  0
  6 35  1  0
  6 36  1  0
  7 37  1  0
  7 38  1  0
  8 39  1  0
  8 40  1  0
  9 41  1  0
 12 42  1  0
 13 43  1  0
 14 44  1  0
 15 45  1  0
 18 46  1  0
 18 47  1  0
 18 48  1  0
 21 49  1  0
 22 50  1  0
M  CHG  2   3   1  17   1
M  END
>  <UniqueID>  (4) 
4

>  <SMILES>  (4) 
CC[NH+](CC)CCCNc1c2ccccc2[n+](C)c2sccc12

>  <Energy>  (4) 
96.50319359446766

>  <Genealogy>  (4) 
CC[NH+](CC)CCCNc1c2ccccc2[n+](C)c2sccc12 (protonated)
CC[NH+](CC)CCCNc1c2ccccc2[n+](C)c2sccc12 (3D coordinates assigned)
CC[NH+](CC)CCCNc1c2ccccc2[n+](C)c2sccc12 (optimized conformer: 96.50319359446766 kcal/mol)

>  <smiles>  (4) 
CCN(CC)CCCNc1c2ccccc2[n+](C)c2sccc12

>  <score_type>  (4) 
oracle

>  <origin>  (4) 
adg

>  <m_score__min__energy>  (4) 
-7.0499999999999998

>  <m_primary>  (4) 
energy

$$$$
4:0
     RDKit          3D

 45 46  0  0  0  0  0  0  0  0999 V2000
   -5.4040   25.3450  -30.0380 C   0  0  0  0  0  0  0  0  0  0  0  0
   -5.0640   23.8640  -30.1860 C   0  0  0  0  0  0  0  0  0  0  0  0
   -5.0400   23.4680  -31.6110 N   0  0  0  0  0  0  0  0  0  0  0  0
   -6.3020   23.7710  -32.3310 C   0  0  0  0  0  0  0  0  0  0  0  0
   -7.4870   23.3180  -31.4900 C   0  0  0  0  0  0  0  0  0  0  0  0
   -4.5820   22.0740  -31.8110 C   0  0  0  0  0  0  0  0  0  0  0  0
   -3.4780   21.9300  -32.8750 C   0  0  0  0  0  0  0  0  0  0  0  0
   -3.7400   20.7430  -33.6960 N   0  0  0  0  0  0  0  0  0  0  0  0
   -3.5670   19.4810  -32.9550 C   0  0  0  0  0  0  0  0  0  0  0  0
   -4.0260   18.2180  -33.7320 C   0  0  1  0  0  0  0  0  0  0  0  0
   -4.3510   17.0420  -32.7550 C   0  0  0  0  0  0  0  0  0  0  0  0
   -5.8480   16.6980  -32.5880 C   0  0  0  0  0  0  0  0  0  0  0  0
   -6.7020   17.9340  -32.5280 C   0  0  0  0  0  0  0  0  0  0  0  0
   -7.5770   18.1750  -31.4580 C   0  0  0  0  0  0  0  0  0  0  0  0
   -8.3020   19.3700  -31.4030 C   0  0  0  0  0  0  0  0  0  0  0  0
   -8.1500   20.3310  -32.4090 C   0  0  0  0  0  0  0  0  0  0  0  0
   -7.2810   20.0930  -33.4780 C   0  0  0  0  0  0  0  0  0  0  0  0
   -6.5770   18.8860  -33.5480 C   0  0  0  0  0  0  0  0  0  0  0  0
   -5.4200   18.5760  -34.8830 S   0  0  0  0  0  0  0  0  0  0  0  0
   -5.4632   25.6027  -28.9702 H   0  0  0  0  0  0  0  0  0  0  0  0
   -4.6215   25.9506  -30.5186 H   0  0  0  0  0  0  0  0  0  0  0  0
   -6.3723   25.5487  -30.5186 H   0  0  0  0  0  0  0  0  0  0  0  0
   -4.0749   23.6755  -29.7431 H   0  0  0  0  0  0  0  0  0  0  0  0
   -5.8349   23.2730  -29.6698 H   0  0  0  0  0  0  0  0  0  0  0  0
   -6.3715   24.8542  -32.5092 H   0  0  0  0  0  0  0  0  0  0  0  0
   -6.3114   23.2397  -33.2942 H   0  0  0  0  0  0  0  0  0  0  0  0
   -7.2372   23.4135  -30.4230 H   0  0  0  0  0  0  0  0  0  0  0  0
   -8.3608   23.9455  -31.7196 H   0  0  0  0  0  0  0  0  0  0  0  0
   -7.7194   22.2676  -31.7196 H   0  0  0  0  0  0  0  0  0  0  0  0
   -4.1930   21.6959  -30.8541 H   0  0  0  0  0  0  0  0  0  0  0  0
   -5.4492   21.4997  -32.1689 H   0  0  0  0  0  0  0  0  0  0  0  0
   -3.4680   22.8239  -33.5160 H   0  0  0  0  0  0  0  0  0  0  0  0
   -2.5024   21.8233  -32.3781 H   0  0  0  0  0  0  0  0  0  0  0  0
   -3.1220   20.7550  -34.5400 H   0  0  0  0  0  0  0  0  0  0  0  0
   -2.5003   19.3674  -32.7117 H   0  0  0  0  0  0  0  0  0  0  0  0
   -4.2036   19.5502  -32.0606 H   0  0  0  0  0  0  0  0  0  0  0  0
   -3.1842   17.8963  -34.3628 H   0  0  0  0  0  0  0  0  0  0  0  0
   -3.8380   16.1430  -33.1272 H   0  0  0  0  0  0  0  0  0  0  0  0
   -4.0096   17.3752  -31.7638 H   0  0  0  0  0  0  0  0  0  0  0  0
   -6.1697   16.0842  -33.4423 H   0  0  0  0  0  0  0  0  0  0  0  0
   -5.9696   16.1522  -31.6407 H   0  0  0  0  0  0  0  0  0  0  0  0
   -7.6929   17.4243  -30.6624 H   0  0  0  0  0  0  0  0  0  0  0  0
   -8.9930   19.5548  -30.5673 H   0  0  0  0  0  0  0  0  0  0  0  0
   -8.7144   21.2738  -32.3586 H   0  0  0  0  0  0  0  0  0  0  0  0
   -7.1511   20.8531  -34.2624 H   0  0  0  0  0  0  0  0  0  0  0  0
  1  2  1  0
  2  3  1  0
  3  4  1  0
  4  5  1  0
  3  6  1  0
  6  7  1  0
  7  8  1  0
  8  9  1  0
  9 10  1  0
 10 11  1  0
 11 12  1  0
 12 13  1  0
 13 14  2  0
 14 15  1  0
 15 16  2  0
 16 17  1  0
 17 18  2  0
 18 19  1  0
 19 10  1  0
 18 13  1  0
  1 20  1  0
  1 21  1  0
  1 22  1  0
  2 23  1  0
  2 24  1  0
  4 25  1  0
  4 26  1  0
  5 27  1  0
  5 28  1  0
  5 29  1  0
  6 30  1  0
  6 31  1  0
  7 32  1  0
  7 33  1  0
  8 34  1  0
  9 35  1  0
  9 36  1  0
 10 37  1  6
 11 38  1  0
 11 39  1  0
 12 40  1  0
 12 41  1  0
 14 42  1  0
 15 43  1  0
 16 44  1  0
 17 45  1  0
M  END
>  <UniqueID>  (5) 
5

>  <SMILES>  (5) 
CCN(CC)CCNC[C@H]1CCc2ccccc2S1

>  <Energy>  (5) 
50.58087968152694

>  <Genealogy>  (5) 
CCN(CC)CCNC[C@H]1CCc2ccccc2S1 (chirality)
CCN(CC)CCNC[C@H]1CCc2ccccc2S1 (3D coordinates assigned)
CCN(CC)CCNC[C@H]1CCc2ccccc2S1 (nonaromatic ring conformer: 50.58087968152694 kcal/mol)

>  <smiles>  (5) 
CCN(CC)CCNCC1CCc2ccccc2S1

>  <score_type>  (5) 
oracle

>  <origin>  (5) 
adg

>  <m_score__min__energy>  (5) 
-6.8700000000000001

>  <m_primary>  (5) 
energy

$$$$
5:0
     RDKit          3D

 36 37  0  0  0  0  0  0  0  0999 V2000
   -3.9320   23.3640  -29.1050 C   0  0  0  0  0  0  0  0  0  0  0  0
   -3.4990   24.0050  -30.4270 C   0  0  0  0  0  0  0  0  0  0  0  0
   -4.1790   25.2830  -30.6850 N   0  0  0  0  0  0  0  0  0  0  0  0
   -5.6410   25.1380  -30.7210 C   0  0  0  0  0  0  0  0  0  0  0  0
   -6.0550   24.1700  -31.8320 C   0  0  0  0  0  0  0  0  0  0  0  0
   -7.3460   23.4180  -31.4860 C   0  0  0  0  0  0  0  0  0  0  0  0
   -7.0640   22.0590  -31.1590 O   0  0  0  0  0  0  0  0  0  0  0  0
   -6.3300   21.1560  -31.9500 C   0  0  0  0  0  0  0  0  0  0  0  0
   -5.0220   21.4370  -32.3870 C   0  0  0  0  0  0  0  0  0  0  0  0
   -4.3220   20.5200  -33.1680 C   0  0  0  0  0  0  0  0  0  0  0  0
   -4.9100   19.3020  -33.5270 C   0  0  0  0  0  0  0  0  0  0  0  0
   -4.1990   18.3820  -34.3140 C   0  0  0  0  0  0  0  0  0  0  0  0
   -4.7800   17.1660  -34.6730 C   0  0  0  0  0  0  0  0  0  0  0  0
   -6.0730   16.8570  -34.2510 C   0  0  0  0  0  0  0  0  0  0  0  0
   -6.7940   17.7610  -33.4670 C   0  0  0  0  0  0  0  0  0  0  0  0
   -6.2260   18.9960  -33.0930 C   0  0  0  0  0  0  0  0  0  0  0  0
   -6.9300   19.9320  -32.3000 C   0  0  0  0  0  0  0  0  0  0  0  0
   -8.7190   19.5910  -31.6750 Br  0  0  0  0  0  0  0  0  0  0  0  0
   -3.5346   23.9523  -28.2648 H   0  0  0  0  0  0  0  0  0  0  0  0
   -5.0304   23.3424  -29.0504 H   0  0  0  0  0  0  0  0  0  0  0  0
   -3.5419   22.3369  -29.0504 H   0  0  0  0  0  0  0  0  0  0  0  0
   -2.4141   24.1837  -30.3933 H   0  0  0  0  0  0  0  0  0  0  0  0
   -3.7711   23.3131  -31.2377 H   0  0  0  0  0  0  0  0  0  0  0  0
   -3.8500   25.6750  -31.5980 H   0  0  0  0  0  0  0  0  0  0  0  0
   -5.9904   24.7494  -29.7531 H   0  0  0  0  0  0  0  0  0  0  0  0
   -6.0919   26.1216  -30.9190 H   0  0  0  0  0  0  0  0  0  0  0  0
   -6.2136   24.7402  -32.7592 H   0  0  0  0  0  0  0  0  0  0  0  0
   -5.2517   23.4285  -31.9539 H   0  0  0  0  0  0  0  0  0  0  0  0
   -7.8278   23.9043  -30.6250 H   0  0  0  0  0  0  0  0  0  0  0  0
   -8.0142   23.4408  -32.3595 H   0  0  0  0  0  0  0  0  0  0  0  0
   -4.5478   22.3899  -32.1092 H   0  0  0  0  0  0  0  0  0  0  0  0
   -3.3013   20.7547  -33.5043 H   0  0  0  0  0  0  0  0  0  0  0  0
   -3.1790   18.6214  -34.6490 H   0  0  0  0  0  0  0  0  0  0  0  0
   -4.2177   16.4496  -35.2899 H   0  0  0  0  0  0  0  0  0  0  0  0
   -6.5272   15.8968  -34.5369 H   0  0  0  0  0  0  0  0  0  0  0  0
   -7.8128   17.5072  -33.1389 H   0  0  0  0  0  0  0  0  0  0  0  0
  1  2  1  0
  2  3  1  0
  3  4  1  0
  4  5  1  0
  5  6  1  0
  6  7  1  0
  7  8  1  0
  8  9  2  0
  9 10  1  0
 10 11  2  0
 11 12  1  0
 12 13  2  0
 13 14  1  0
 14 15  2  0
 15 16  1  0
 16 17  2  0
 17 18  1  0
 17  8  1  0
 16 11  1  0
  1 19  1  0
  1 20  1  0
  1 21  1  0
  2 22  1  0
  2 23  1  0
  3 24  1  0
  4 25  1  0
  4 26  1  0
  5 27  1  0
  5 28  1  0
  6 29  1  0
  6 30  1  0
  9 31  1  0
 10 32  1  0
 12 33  1  0
 13 34  1  0
 14 35  1  0
 15 36  1  0
M  END
>  <UniqueID>  (6) 
6

>  <SMILES>  (6) 
CCNCCCOc1ccc2ccccc2c1Br

>  <Energy>  (6) 
36.20573017194581

>  <Genealogy>  (6) 
CCNCCCOc1ccc2ccccc2c1Br (3D coordinates assigned)
CCNCCCOc1ccc2ccccc2c1Br (optimized conformer: 36.20573017194581 kcal/mol)

>  <smiles>  (6) 
CCNCCCOc1ccc2ccccc2c1Br

>  <score_type>  (6) 
oracle

>  <origin>  (6) 
adg

>  <m_score__min__energy>  (6) 
-7.9199999999999999

>  <m_primary>  (6) 
energy

$$$$
6:0
     RDKit          3D

 52 54  0  0  0  0  0  0  0  0999 V2000
   -6.4430   25.5640  -29.6950 C   0  0  0  0  0  0  0  0  0  0  0  0
   -5.0080   25.2490  -30.1150 C   0  0  0  0  0  0  0  0  0  0  0  0
   -4.9840   24.2760  -31.2300 N   0  0  0  0  0  0  0  0  0  0  0  0
   -6.2950   24.1760  -31.8960 C   0  0  0  0  0  0  0  0  0  0  0  0
   -4.4390   22.9490  -30.8570 C   0  0  0  0  0  0  0  0  0  0  0  0
   -3.6800   22.2170  -31.9950 C   0  0  0  0  0  0  0  0  0  0  0  0
   -4.5970   21.7710  -33.0460 N   0  0  0  0  0  0  0  0  0  0  0  0
   -5.0920   20.4210  -33.0910 C   0  0  0  0  0  0  0  0  0  0  0  0
   -6.4150   20.1430  -32.7080 C   0  0  0  0  0  0  0  0  0  0  0  0
   -7.2270   21.1410  -32.1300 C   0  0  0  0  0  0  0  0  0  0  0  0
   -8.5310   20.8530  -31.7310 C   0  0  0  0  0  0  0  0  0  0  0  0
   -9.0400   19.5700  -31.8890 C   0  0  0  0  0  0  0  0  0  0  0  0
   -8.2600   18.5720  -32.4710 C   0  0  0  0  0  0  0  0  0  0  0  0
   -6.9440   18.8420  -32.9220 C   0  0  0  0  0  0  0  0  0  0  0  0
   -6.1790   17.8810  -33.5560 N   0  0  0  0  0  0  0  0  0  0  0  0
   -6.8160   16.6490  -34.0720 C   0  0  0  0  0  0  0  0  0  0  0  0
   -4.8210   18.0800  -33.7240 C   0  0  0  0  0  0  0  0  0  0  0  0
   -3.9510   17.0240  -34.0970 C   0  0  0  0  0  0  0  0  0  0  0  0
   -2.5770   17.2380  -34.2820 C   0  0  0  0  0  0  0  0  0  0  0  0
   -1.7200   16.1560  -34.7020 N   0  0  0  0  0  0  0  0  0  0  0  0
   -2.3740   15.3750  -35.7530 C   0  0  0  0  0  0  0  0  0  0  0  0
   -2.0520   18.5190  -34.0870 C   0  0  0  0  0  0  0  0  0  0  0  0
   -2.8780   19.5650  -33.6870 C   0  0  0  0  0  0  0  0  0  0  0  0
   -4.2610   19.3660  -33.5070 C   0  0  0  0  0  0  0  0  0  0  0  0
   -6.5089   25.5785  -28.5971 H   0  0  0  0  0  0  0  0  0  0  0  0
   -6.7340   26.5474  -30.0928 H   0  0  0  0  0  0  0  0  0  0  0  0
   -7.1191   24.7929  -30.0928 H   0  0  0  0  0  0  0  0  0  0  0  0
   -4.5152   26.1781  -30.4375 H   0  0  0  0  0  0  0  0  0  0  0  0
   -4.4791   24.8110  -29.2557 H   0  0  0  0  0  0  0  0  0  0  0  0
   -7.0884   24.1155  -31.1365 H   0  0  0  0  0  0  0  0  0  0  0  0
   -6.4558   25.0645  -32.5243 H   0  0  0  0  0  0  0  0  0  0  0  0
   -6.3192   23.2734  -32.5243 H   0  0  0  0  0  0  0  0  0  0  0  0
   -3.7440   23.0881  -30.0158 H   0  0  0  0  0  0  0  0  0  0  0  0
   -5.3037   22.3178  -30.6040 H   0  0  0  0  0  0  0  0  0  0  0  0
   -2.9409   22.9043  -32.4325 H   0  0  0  0  0  0  0  0  0  0  0  0
   -3.1846   21.3323  -31.5685 H   0  0  0  0  0  0  0  0  0  0  0  0
   -4.8650   22.4350  -33.8040 H   0  0  0  0  0  0  0  0  0  0  0  0
   -6.8272   22.1565  -31.9928 H   0  0  0  0  0  0  0  0  0  0  0  0
   -9.1578   21.6424  -31.2905 H   0  0  0  0  0  0  0  0  0  0  0  0
  -10.0623   19.3409  -31.5536 H   0  0  0  0  0  0  0  0  0  0  0  0
   -8.6727   17.5584  -32.5820 H   0  0  0  0  0  0  0  0  0  0  0  0
   -7.1399   16.0225  -33.2278 H   0  0  0  0  0  0  0  0  0  0  0  0
   -7.6886   16.9169  -34.6859 H   0  0  0  0  0  0  0  0  0  0  0  0
   -6.0930   16.0918  -34.6859 H   0  0  0  0  0  0  0  0  0  0  0  0
   -4.3627   16.0147  -34.2445 H   0  0  0  0  0  0  0  0  0  0  0  0
   -1.5040   15.5300  -33.8910 H   0  0  0  0  0  0  0  0  0  0  0  0
   -0.8140   16.5330  -35.0670 H   0  0  0  0  0  0  0  0  0  0  0  0
   -3.0159   14.6084  -35.2945 H   0  0  0  0  0  0  0  0  0  0  0  0
   -2.9874   16.0414  -36.3772 H   0  0  0  0  0  0  0  0  0  0  0  0
   -1.6102   14.8882  -36.3772 H   0  0  0  0  0  0  0  0  0  0  0  0
   -0.9796   18.7011  -34.2507 H   0  0  0  0  0  0  0  0  0  0  0  0
   -2.4453   20.5605  -33.5090 H   0  0  0  0  0  0  0  0  0  0  0  0
  1  2  1  0
  2  3  1  0
  3  4  1  0
  3  5  1  0
  5  6  1  0
  6  7  1  0
  7  8  1  0
  8  9  2  0
  9 10  1  0
 10 11  2  0
 11 12  1  0
 12 13  2  0
 13 14  1  0
 14 15  2  0
 15 16  1  0
 15 17  1  0
 17 18  2  0
 18 19  1  0
 19 20  1  0
 20 21  1  0
 19 22  2  0
 22 23  1  0
 23 24  2  0
 24  8  1  0
 14  9  1  0
 24 17  1  0
  1 25  1  0
  1 26  1  0
  1 27  1  0
  2 28  1  0
  2 29  1  0
  4 30  1  0
  4 31  1  0
  4 32  1  0
  5 33  1  0
  5 34  1  0
  6 35  1  0
  6 36  1  0
  7 37  1  0
 10 38  1  0
 11 39  1  0
 12 40  1  0
 13 41  1  0
 16 42  1  0
 16 43  1  0
 16 44  1  0
 18 45  1  0
 20 46  1  0
 20 47  1  0
 21 48  1  0
 21 49  1  0
 21 50  1  0
 22 51  1  0
 23 52  1  0
M  CHG  2  15   1  20   1
M  END
>  <UniqueID>  (7) 
7

>  <SMILES>  (7) 
CCN(C)CCNc1c2ccccc2[n+](C)c2cc([NH2+]C)ccc12

>  <Energy>  (7) 
80.47980281819034

>  <Genealogy>  (7) 
CCN(C)CCNc1c2ccccc2[n+](C)c2cc([NH2+]C)ccc12 (protonated)
CCN(C)CCNc1c2ccccc2[n+](C)c2cc([NH2+]C)ccc12 (3D coordinates assigned)
CCN(C)CCNc1c2ccccc2[n+](C)c2cc([NH2+]C)ccc12 (optimized conformer: 80.47980281819034 kcal/mol)

>  <smiles>  (7) 
CCN(C)CCNc1c2ccccc2[n+](C)c2cc(NC)ccc12

>  <score_type>  (7) 
oracle

>  <origin>  (7) 
adg

>  <m_score__min__energy>  (7) 
-7.5999999999999996

>  <m_primary>  (7) 
energy

$$$$
7:0
     RDKit          3D

 48 50  0  0  0  0  0  0  0  0999 V2000
   -2.3700   21.2540  -30.2970 C   0  0  0  0  0  0  0  0  0  0  0  0
   -1.5050   21.7200  -31.4790 C   0  0  0  0  0  0  0  0  0  0  0  0
   -1.0570   20.6280  -32.3720 N   0  0  0  0  0  0  0  0  0  0  0  0
   -1.4700   20.7810  -33.7870 C   0  0  0  0  0  0  0  0  0  0  0  0
   -2.4940   19.7170  -34.2050 C   0  0  0  0  0  0  0  0  0  0  0  0
   -1.9600   18.3410  -34.0330 N   0  0  0  0  0  0  0  0  0  0  0  0
   -3.0490   17.3430  -33.9710 C   0  0  0  0  0  0  0  0  0  0  0  0
   -4.3870   18.0060  -34.0850 C   0  0  0  0  0  0  0  0  0  0  0  0
   -5.0600   18.5280  -33.0380 N   0  0  0  0  0  0  0  0  0  0  0  0
   -6.1530   19.0330  -33.6470 C   0  0  0  0  0  0  0  0  0  0  0  0
   -7.2000   19.8340  -32.9430 C   0  0  0  0  0  0  0  0  0  0  0  0
   -6.6300   21.1610  -32.5300 C   0  0  0  0  0  0  0  0  0  0  0  0
   -7.4390   22.1090  -31.8840 C   0  0  0  0  0  0  0  0  0  0  0  0
   -6.8980   23.3250  -31.4560 C   0  0  0  0  0  0  0  0  0  0  0  0
   -5.5420   23.6080  -31.6550 C   0  0  0  0  0  0  0  0  0  0  0  0
   -5.0460   24.8420  -31.2070 O   0  0  0  0  0  0  0  0  0  0  0  0
   -5.6950   25.6670  -30.2450 C   0  0  0  0  0  0  0  0  0  0  0  0
   -4.7260   22.6530  -32.2910 C   0  0  0  0  0  0  0  0  0  0  0  0
   -5.2670   21.4370  -32.7200 C   0  0  0  0  0  0  0  0  0  0  0  0
   -6.1190   18.8390  -34.9770 N   0  0  0  0  0  0  0  0  0  0  0  0
   -5.0180   18.2000  -35.2190 O   0  0  0  0  0  0  0  0  0  0  0  0
   -1.0360   18.2040  -32.8760 C   0  0  0  0  0  0  0  0  0  0  0  0
   -1.2730   19.2790  -31.8080 C   0  0  0  0  0  0  0  0  0  0  0  0
   -1.8742   21.5211  -29.3521 H   0  0  0  0  0  0  0  0  0  0  0  0
   -3.3534   21.7444  -30.3465 H   0  0  0  0  0  0  0  0  0  0  0  0
   -2.5014   20.1630  -30.3465 H   0  0  0  0  0  0  0  0  0  0  0  0
   -2.0919   22.4341  -32.0753 H   0  0  0  0  0  0  0  0  0  0  0  0
   -0.5973   22.1681  -31.0485 H   0  0  0  0  0  0  0  0  0  0  0  0
   -1.9178   21.7768  -33.9206 H   0  0  0  0  0  0  0  0  0  0  0  0
   -0.5766   20.6589  -34.4169 H   0  0  0  0  0  0  0  0  0  0  0  0
   -3.3966   19.8288  -33.5863 H   0  0  0  0  0  0  0  0  0  0  0  0
   -2.7249   19.8639  -35.2704 H   0  0  0  0  0  0  0  0  0  0  0  0
   -2.9297   16.6276  -34.7980 H   0  0  0  0  0  0  0  0  0  0  0  0
   -2.9952   16.8230  -33.0032 H   0  0  0  0  0  0  0  0  0  0  0  0
   -8.0522   19.9967  -33.6193 H   0  0  0  0  0  0  0  0  0  0  0  0
   -7.5365   19.2881  -32.0493 H   0  0  0  0  0  0  0  0  0  0  0  0
   -8.5042   21.8940  -31.7136 H   0  0  0  0  0  0  0  0  0  0  0  0
   -7.5429   24.0648  -30.9592 H   0  0  0  0  0  0  0  0  0  0  0  0
   -5.4289   25.3287  -29.2327 H   0  0  0  0  0  0  0  0  0  0  0  0
   -5.3728   26.7101  -30.3795 H   0  0  0  0  0  0  0  0  0  0  0  0
   -6.7847   25.5995  -30.3795 H   0  0  0  0  0  0  0  0  0  0  0  0
   -3.6584   22.8643  -32.4511 H   0  0  0  0  0  0  0  0  0  0  0  0
   -4.6210   20.6929  -33.2089 H   0  0  0  0  0  0  0  0  0  0  0  0
   -6.8140   19.1520  -35.6920 H   0  0  0  0  0  0  0  0  0  0  0  0
   -1.1852   17.2141  -32.4201 H   0  0  0  0  0  0  0  0  0  0  0  0
   -0.0089   18.3244  -33.2509 H   0  0  0  0  0  0  0  0  0  0  0  0
   -2.3069   19.2019  -31.4405 H   0  0  0  0  0  0  0  0  0  0  0  0
   -0.5634   19.1216  -30.9823 H   0  0  0  0  0  0  0  0  0  0  0  0
  1  2  1  0
  2  3  1  0
  3  4  1  0
  4  5  1  0
  5  6  1  0
  6  7  1  0
  7  8  1  0
  8  9  2  0
  9 10  1  0
 10 11  1  0
 11 12  1  0
 12 13  2  0
 13 14  1  0
 14 15  2  0
 15 16  1  0
 16 17  1  0
 15 18  1  0
 18 19  2  0
 10 20  2  0
 20 21  1  0
  6 22  1  0
 22 23  1  0
 23  3  1  0
 21  8  1  0
 19 12  1  0
  1 24  1  0
  1 25  1  0
  1 26  1  0
  2 27  1  0
  2 28  1  0
  4 29  1  0
  4 30  1  0
  5 31  1  0
  5 32  1  0
  7 33  1  0
  7 34  1  0
 11 35  1  0
 11 36  1  0
 13 37  1  0
 14 38  1  0
 17 39  1  0
 17 40  1  0
 17 41  1  0
 18 42  1  0
 19 43  1  0
 20 44  1  0
 22 45  1  0
 22 46  1  0
 23 47  1  0
 23 48  1  0
M  CHG  1  20   1
M  END
>  <UniqueID>  (8) 
8

>  <SMILES>  (8) 
CCN1CCN(Cc2nc(Cc3ccc(OC)cc3)[nH+]o2)CC1

>  <Energy>  (8) 
92.58972567116226

>  <Genealogy>  (8) 
CCN1CCN(Cc2nc(Cc3ccc(OC)cc3)[nH+]o2)CC1 (protonated)
CCN1CCN(Cc2nc(Cc3ccc(OC)cc3)[nH+]o2)CC1 (3D coordinates assigned)
CCN1CCN(Cc2nc(Cc3ccc(OC)cc3)[nH+]o2)CC1 (nonaromatic ring conformer: 92.58972567116226 kcal/mol)

>  <smiles>  (8) 
CCN1CCN(Cc2nc(Cc3ccc(OC)cc3)no2)CC1

>  <score_type>  (8) 
oracle

>  <origin>  (8) 
adg

>  <m_score__min__energy>  (8) 
-7.9100000000000001

>  <m_primary>  (8) 
energy

$$$$
8:0
     RDKit          3D

 42 44  0  0  0  0  0  0  0  0999 V2000
   -2.0520   24.9220  -28.1570 C   0  0  0  0  0  0  0  0  0  0  0  0
   -2.7250   25.2990  -29.3540 O   0  0  0  0  0  0  0  0  0  0  0  0
   -3.6730   24.5040  -30.0150 C   0  0  0  0  0  0  0  0  0  0  0  0
   -5.0040   24.9350  -30.0320 C   0  0  0  0  0  0  0  0  0  0  0  0
   -5.9840   24.1820  -30.6800 C   0  0  0  0  0  0  0  0  0  0  0  0
   -5.6450   22.9860  -31.3150 C   0  0  0  0  0  0  0  0  0  0  0  0
   -4.3160   22.5290  -31.3060 C   0  0  0  0  0  0  0  0  0  0  0  0
   -3.9300   21.2720  -31.9870 C   0  0  0  0  0  0  0  0  0  0  0  0
   -4.6140   20.1100  -31.9110 N   0  0  0  0  0  0  0  0  0  0  0  0
   -3.9390   19.2610  -32.7050 C   0  0  0  0  0  0  0  0  0  0  0  0
   -4.4220   17.8890  -33.0640 C   0  0  0  0  0  0  0  0  0  0  0  0
   -5.9700   17.9950  -33.9490 S   0  0  0  0  0  0  0  0  0  0  0  0
   -5.7450   18.6450  -35.2860 O   0  0  0  0  0  0  0  0  0  0  0  0
   -6.5150   16.6120  -34.1730 O   0  0  0  0  0  0  0  0  0  0  0  0
   -7.1270   18.9400  -33.0150 C   0  0  0  0  0  0  0  0  0  0  0  0
   -7.2110   20.3300  -33.1910 C   0  0  0  0  0  0  0  0  0  0  0  0
   -8.0680   21.0900  -32.3890 C   0  0  0  0  0  0  0  0  0  0  0  0
   -8.8460   20.4660  -31.4090 C   0  0  0  0  0  0  0  0  0  0  0  0
   -9.6730   21.2050  -30.6280 F   0  0  0  0  0  0  0  0  0  0  0  0
   -8.7660   19.0820  -31.2300 C   0  0  0  0  0  0  0  0  0  0  0  0
   -7.9070   18.3200  -32.0270 C   0  0  0  0  0  0  0  0  0  0  0  0
   -2.8590   19.9370  -33.2370 C   0  0  0  0  0  0  0  0  0  0  0  0
   -1.8450   19.4120  -34.1970 C   0  0  0  0  0  0  0  0  0  0  0  0
   -2.8770   21.1650  -32.7720 O   0  0  0  0  0  0  0  0  0  0  0  0
   -3.3320   23.2980  -30.6590 C   0  0  0  0  0  0  0  0  0  0  0  0
   -2.6393   25.2510  -27.2870 H   0  0  0  0  0  0  0  0  0  0  0  0
   -1.9374   23.8283  -28.1297 H   0  0  0  0  0  0  0  0  0  0  0  0
   -1.0595   25.3955  -28.1297 H   0  0  0  0  0  0  0  0  0  0  0  0
   -5.2800   25.8745  -29.5308 H   0  0  0  0  0  0  0  0  0  0  0  0
   -7.0268   24.5320  -30.6904 H   0  0  0  0  0  0  0  0  0  0  0  0
   -6.4222   22.3981  -31.8252 H   0  0  0  0  0  0  0  0  0  0  0  0
   -5.4910   19.9050  -31.3830 H   0  0  0  0  0  0  0  0  0  0  0  0
   -3.6728   17.3943  -33.6995 H   0  0  0  0  0  0  0  0  0  0  0  0
   -4.5734   17.3081  -32.1423 H   0  0  0  0  0  0  0  0  0  0  0  0
   -6.6008   20.8229  -33.9622 H   0  0  0  0  0  0  0  0  0  0  0  0
   -8.1301   22.1793  -32.5291 H   0  0  0  0  0  0  0  0  0  0  0  0
   -9.3802   18.5916  -30.4604 H   0  0  0  0  0  0  0  0  0  0  0  0
   -7.8423   17.2319  -31.8794 H   0  0  0  0  0  0  0  0  0  0  0  0
   -1.0031   18.9761  -33.6391 H   0  0  0  0  0  0  0  0  0  0  0  0
   -2.3050   18.6388  -34.8299 H   0  0  0  0  0  0  0  0  0  0  0  0
   -1.4792   20.2340  -34.8299 H   0  0  0  0  0  0  0  0  0  0  0  0
   -2.2869   22.9549  -30.6557 H   0  0  0  0  0  0  0  0  0  0  0  0
  1  2  1  0
  2  3  1  0
  3  4  2  0
  4  5  1  0
  5  6  2  0
  6  7  1  0
  7  8  1  0
  8  9  2  0
  9 10  1  0
 10 11  1  0
 11 12  1  0
 12 13  2  0
 12 14  2  0
 12 15  1  0
 15 16  2  0
 16 17  1  0
 17 18  2  0
 18 19  1  0
 18 20  1  0
 20 21  2  0
 10 22  2  0
 22 23  1  0
 22 24  1  0
  7 25  2  0
 25  3  1  0
 24  8  1  0
 21 15  1  0
  1 26  1  0
  1 27  1  0
  1 28  1  0
  4 29  1  0
  5 30  1  0
  6 31  1  0
  9 32  1  0
 11 33  1  0
 11 34  1  0
 16 35  1  0
 17 36  1  0
 20 37  1  0
 21 38  1  0
 23 39  1  0
 23 40  1  0
 23 41  1  0
 25 42  1  0
M  CHG  1   9   1
M  END
>  <UniqueID>  (9) 
9

>  <SMILES>  (9) 
COc1cccc(-c2[nH+]c(CS(=O)(=O)c3ccc(F)cc3)c(C)o2)c1

>  <Energy>  (9) 
68.28852685446921

>  <Genealogy>  (9) 
COc1cccc(-c2[nH+]c(CS(=O)(=O)c3ccc(F)cc3)c(C)o2)c1 (protonated)
COc1cccc(-c2[nH+]c(CS(=O)(=O)c3ccc(F)cc3)c(C)o2)c1 (3D coordinates assigned)
COc1cccc(-c2[nH+]c(CS(=O)(=O)c3ccc(F)cc3)c(C)o2)c1 (optimized conformer: 68.28852685446921 kcal/mol)

>  <smiles>  (9) 
COc1cccc(-c2nc(CS(=O)(=O)c3ccc(F)cc3)c(C)o2)c1

>  <score_type>  (9) 
oracle

>  <origin>  (9) 
adg

>  <m_score__min__energy>  (9) 
-8.2400000000000002

>  <m_primary>  (9) 
energy

$$$$
9:0
     RDKit          3D

 33 34  0  0  0  0  0  0  0  0999 V2000
   -8.5700   20.0970  -32.4630 C   0  0  0  0  0  0  0  0  0  0  0  0
   -7.4560   20.7990  -32.9790 O   0  0  0  0  0  0  0  0  0  0  0  0
   -6.9020   21.9010  -32.3450 C   0  0  0  0  0  0  0  0  0  0  0  0
   -7.7410   22.8190  -31.8060 C   0  0  0  0  0  0  0  0  0  0  0  0
   -7.2220   23.9080  -31.1790 C   0  0  0  0  0  0  0  0  0  0  0  0
   -5.8720   24.1120  -31.0730 C   0  0  0  0  0  0  0  0  0  0  0  0
   -5.3300   25.2470  -30.4190 N   0  0  0  0  0  0  0  0  0  0  0  0
   -4.1710   25.6660  -30.5930 O   0  0  0  0  0  0  0  0  0  0  0  0
   -6.1290   25.9260  -29.5340 O   0  0  0  0  0  0  0  0  0  0  0  0
   -5.0540   23.1560  -31.6350 C   0  0  0  0  0  0  0  0  0  0  0  0
   -5.4700   22.0350  -32.2810 C   0  0  0  0  0  0  0  0  0  0  0  0
   -4.8210   20.9950  -32.8800 N   0  0  0  0  0  0  0  0  0  0  0  0
   -4.1750   19.9610  -33.4770 C   0  0  0  0  0  0  0  0  0  0  0  0
   -4.9700   18.6710  -33.5000 C   0  0  0  0  0  0  0  0  0  0  0  0
   -4.9900   17.8750  -34.6270 C   0  0  0  0  0  0  0  0  0  0  0  0
   -5.7330   16.7160  -34.5960 C   0  0  0  0  0  0  0  0  0  0  0  0
   -6.4630   16.2950  -33.5120 C   0  0  0  0  0  0  0  0  0  0  0  0
   -6.4340   17.1100  -32.3810 C   0  0  0  0  0  0  0  0  0  0  0  0
   -5.7000   18.2760  -32.3770 C   0  0  0  0  0  0  0  0  0  0  0  0
   -8.5387   20.1167  -31.3636 H   0  0  0  0  0  0  0  0  0  0  0  0
   -9.4977   20.5740  -32.8120 H   0  0  0  0  0  0  0  0  0  0  0  0
   -8.5401   19.0543  -32.8120 H   0  0  0  0  0  0  0  0  0  0  0  0
   -8.8305   22.6843  -31.8751 H   0  0  0  0  0  0  0  0  0  0  0  0
   -7.9083   24.6488  -30.7430 H   0  0  0  0  0  0  0  0  0  0  0  0
   -3.9685   23.3142  -31.5536 H   0  0  0  0  0  0  0  0  0  0  0  0
   -5.5650   21.1450  -34.0000 H   0  0  0  0  0  0  0  0  0  0  0  0
   -3.9488   20.2469  -34.5148 H   0  0  0  0  0  0  0  0  0  0  0  0
   -3.2684   19.7667  -32.8851 H   0  0  0  0  0  0  0  0  0  0  0  0
   -4.4264   18.1592  -35.5279 H   0  0  0  0  0  0  0  0  0  0  0  0
   -5.7423   16.0867  -35.4982 H   0  0  0  0  0  0  0  0  0  0  0  0
   -7.0425   15.3603  -33.5347 H   0  0  0  0  0  0  0  0  0  0  0  0
   -7.0017   16.8197  -31.4847 H   0  0  0  0  0  0  0  0  0  0  0  0
   -5.6888   18.9056  -31.4751 H   0  0  0  0  0  0  0  0  0  0  0  0
  1  2  1  0
  2  3  1  0
  3  4  2  0
  4  5  1  0
  5  6  2  0
  6  7  1  0
  7  8  2  0
  7  9  1  0
  6 10  1  0
 10 11  2  0
 11 12  1  0
 12 13  1  0
 13 14  1  0
 14 15  2  0
 15 16  1  0
 16 17  2  0
 17 18  1  0
 18 19  2  0
 11  3  1  0
 19 14  1  0
  1 20  1  0
  1 21  1  0
  1 22  1  0
  4 23  1  0
  5 24  1  0
 10 25  1  0
 12 26  1  0
 13 27  1  0
 13 28  1  0
 15 29  1  0
 16 30  1  0
 17 31  1  0
 18 32  1  0
 19 33  1  0
M  CHG  2   7   1   9  -1
M  END
>  <UniqueID>  (10) 
10

>  <SMILES>  (10) 
COc1ccc([N+](=O)[O-])cc1NCc1ccccc1

>  <Energy>  (10) 
196.74201645050638

>  <Genealogy>  (10) 
COc1ccc([N+](=O)[O-])cc1NCc1ccccc1 (3D coordinates assigned)
COc1ccc([N+](=O)[O-])cc1NCc1ccccc1 (optimized conformer: 196.74201645050638 kcal/mol)

>  <smiles>  (10) 
COc1ccc([N+](=O)[O-])cc1NCc1ccccc1

>  <score_type>  (10) 
oracle

>  <origin>  (10) 
adg

>  <m_score__min__energy>  (10) 
-7.25

>  <m_primary>  (10) 
energy

$$$$
10:0
     RDKit          3D

 59 61  0  0  0  0  0  0  0  0999 V2000
   -7.3070   23.7930  -31.2290 C   0  0  0  0  0  0  0  0  0  0  0  0
   -8.3500   22.8560  -31.4790 O   0  0  0  0  0  0  0  0  0  0  0  0
   -8.1420   21.5030  -31.7880 C   0  0  0  0  0  0  0  0  0  0  0  0
   -9.2010   20.6250  -32.0840 C   0  0  0  0  0  0  0  0  0  0  0  0
   -8.9420   19.2830  -32.3840 C   0  0  0  0  0  0  0  0  0  0  0  0
   -7.6240   18.8010  -32.3980 C   0  0  0  0  0  0  0  0  0  0  0  0
   -7.3360   17.3580  -32.7120 C   0  0  0  0  0  0  0  0  0  0  0  0
   -5.9470   17.2010  -33.1870 N   0  0  0  0  0  0  0  0  0  0  0  0
   -5.5260   15.7890  -33.1660 C   0  0  0  0  0  0  0  0  0  0  0  0
   -4.0200   15.6750  -33.4720 C   0  0  0  0  0  0  0  0  0  0  0  0
   -3.4840   16.8360  -34.2230 N   0  0  0  0  0  0  0  0  0  0  0  0
   -2.9400   17.8990  -33.3460 C   0  0  0  0  0  0  0  0  0  0  0  0
   -2.3360   19.0420  -34.1740 C   0  0  0  0  0  0  0  0  0  0  0  0
   -1.6530   19.9800  -33.3400 O   0  0  0  0  0  0  0  0  0  0  0  0
   -2.2590   20.9890  -32.5730 C   0  0  0  0  0  0  0  0  0  0  0  0
   -3.5260   21.5120  -32.8830 C   0  0  0  0  0  0  0  0  0  0  0  0
   -4.0920   22.5130  -32.0920 C   0  0  0  0  0  0  0  0  0  0  0  0
   -3.4060   23.0200  -30.9750 C   0  0  0  0  0  0  0  0  0  0  0  0
   -4.0260   24.0880  -30.1440 C   0  0  0  0  0  0  0  0  0  0  0  0
   -4.8500   23.7730  -28.9320 C   0  0  0  0  0  0  0  0  0  0  0  0
   -3.8620   25.3000  -30.4580 O   0  0  0  0  0  0  0  0  0  0  0  0
   -2.1340   22.4990  -30.6710 C   0  0  0  0  0  0  0  0  0  0  0  0
   -1.5600   21.4860  -31.4640 C   0  0  0  0  0  0  0  0  0  0  0  0
   -0.2960   20.9420  -31.1770 O   0  0  0  0  0  0  0  0  0  0  0  0
   -0.0780   19.6370  -30.6520 C   0  0  0  0  0  0  0  0  0  0  0  0
   -4.4660   17.3420  -35.2060 C   0  0  0  0  0  0  0  0  0  0  0  0
   -5.8030   17.7540  -34.5510 C   0  0  0  0  0  0  0  0  0  0  0  0
   -6.5690   19.6790  -32.1030 C   0  0  0  0  0  0  0  0  0  0  0  0
   -6.8290   21.0190  -31.8010 C   0  0  0  0  0  0  0  0  0  0  0  0
   -7.1739   23.9126  -30.1436 H   0  0  0  0  0  0  0  0  0  0  0  0
   -6.3705   23.4269  -31.6751 H   0  0  0  0  0  0  0  0  0  0  0  0
   -7.5710   24.7632  -31.6751 H   0  0  0  0  0  0  0  0  0  0  0  0
  -10.2368   20.9952  -32.0795 H   0  0  0  0  0  0  0  0  0  0  0  0
   -9.7759   18.6022  -32.6101 H   0  0  0  0  0  0  0  0  0  0  0  0
   -7.4787   16.7541  -31.8037 H   0  0  0  0  0  0  0  0  0  0  0  0
   -8.0231   17.0212  -33.5022 H   0  0  0  0  0  0  0  0  0  0  0  0
   -5.7272   15.3652  -32.1711 H   0  0  0  0  0  0  0  0  0  0  0  0
   -6.0895   15.2363  -33.9322 H   0  0  0  0  0  0  0  0  0  0  0  0
   -3.4755   15.5938  -32.5197 H   0  0  0  0  0  0  0  0  0  0  0  0
   -3.8828   14.7861  -34.1053 H   0  0  0  0  0  0  0  0  0  0  0  0
   -3.7513   18.2986  -32.7198 H   0  0  0  0  0  0  0  0  0  0  0  0
   -2.1473   17.4640  -32.7196 H   0  0  0  0  0  0  0  0  0  0  0  0
   -1.6237   18.6219  -34.8994 H   0  0  0  0  0  0  0  0  0  0  0  0
   -3.1529   19.5665  -34.6913 H   0  0  0  0  0  0  0  0  0  0  0  0
   -4.0758   21.1296  -33.7556 H   0  0  0  0  0  0  0  0  0  0  0  0
   -5.0862   22.9096  -32.3457 H   0  0  0  0  0  0  0  0  0  0  0  0
   -4.2683   23.9954  -28.0252 H   0  0  0  0  0  0  0  0  0  0  0  0
   -5.7639   24.3852  -28.9407 H   0  0  0  0  0  0  0  0  0  0  0  0
   -5.1225   22.7073  -28.9407 H   0  0  0  0  0  0  0  0  0  0  0  0
   -1.5812   22.8879  -29.8031 H   0  0  0  0  0  0  0  0  0  0  0  0
   -0.0849   19.6781  -29.5528 H   0  0  0  0  0  0  0  0  0  0  0  0
   -0.8762   18.9642  -30.9988 H   0  0  0  0  0  0  0  0  0  0  0  0
    0.8955   19.2602  -30.9988 H   0  0  0  0  0  0  0  0  0  0  0  0
   -4.0371   18.2188  -35.7132 H   0  0  0  0  0  0  0  0  0  0  0  0
   -4.6787   16.5277  -35.9143 H   0  0  0  0  0  0  0  0  0  0  0  0
   -5.8475   18.8517  -34.4954 H   0  0  0  0  0  0  0  0  0  0  0  0
   -6.6206   17.3526  -35.1677 H   0  0  0  0  0  0  0  0  0  0  0  0
   -5.5325   19.3107  -32.1095 H   0  0  0  0  0  0  0  0  0  0  0  0
   -5.9948   21.6984  -31.5718 H   0  0  0  0  0  0  0  0  0  0  0  0
  1  2  1  0
  2  3  1  0
  3  4  2  0
  4  5  1  0
  5  6  2  0
  6  7  1  0
  7  8  1  0
  8  9  1  0
  9 10  1  0
 10 11  1  0
 11 12  1  0
 12 13  1  0
 13 14  1  0
 14 15  1  0
 15 16  2  0
 16 17  1  0
 17 18  2  0
 18 19  1  0
 19 20  1  0
 19 21  2  0
 18 22  1  0
 22 23  2  0
 23 24  1  0
 24 25  1  0
 11 26  1  0
 26 27  1  0
  6 28  1  0
 28 29  2  0
 29  3  1  0
 27  8  1  0
 23 15  1  0
  1 30  1  0
  1 31  1  0
  1 32  1  0
  4 33  1  0
  5 34  1  0
  7 35  1  0
  7 36  1  0
  9 37  1  0
  9 38  1  0
 10 39  1  0
 10 40  1  0
 12 41  1  0
 12 42  1  0
 13 43  1  0
 13 44  1  0
 16 45  1  0
 17 46  1  0
 20 47  1  0
 20 48  1  0
 20 49  1  0
 22 50  1  0
 25 51  1  0
 25 52  1  0
 25 53  1  0
 26 54  1  0
 26 55  1  0
 27 56  1  0
 27 57  1  0
 28 58  1  0
 29 59  1  0
M  END
>  <UniqueID>  (11) 
11

>  <SMILES>  (11) 
COc1ccc(CN2CCN(CCOc3ccc(C(C)=O)cc3OC)CC2)cc1

>  <Energy>  (11) 
70.06476438809699

>  <Genealogy>  (11) 
COc1ccc(CN2CCN(CCOc3ccc(C(C)=O)cc3OC)CC2)cc1 (3D coordinates assigned)
COc1ccc(CN2CCN(CCOc3ccc(C(C)=O)cc3OC)CC2)cc1 (nonaromatic ring conformer: 70.06476438809699 kcal/mol)

>  <smiles>  (11) 
COc1ccc(CN2CCN(CCOc3ccc(C(C)=O)cc3OC)CC2)cc1

>  <score_type>  (11) 
oracle

>  <origin>  (11) 
adg

>  <m_score__min__energy>  (11) 
-9.4399999999999995

>  <m_primary>  (11) 
energy

$$$$
11:0
     RDKit          3D

 62 66  0  0  0  0  0  0  0  0999 V2000
   -2.2470   22.3950  -28.4190 C   0  0  0  0  0  0  0  0  0  0  0  0
   -2.2120   23.6390  -29.3200 C   0  0  0  0  0  0  0  0  0  0  0  0
   -3.6090   24.0700  -29.8880 C   0  0  2  0  0  0  0  0  0  0  0  0
   -3.4840   25.2980  -30.5690 O   0  0  0  0  0  0  0  0  0  0  0  0
   -4.5890   24.3130  -28.7490 C   0  0  0  0  0  0  0  0  0  0  0  0
   -4.1960   24.5900  -27.5830 O   0  0  0  0  0  0  0  0  0  0  0  0
   -5.9610   24.2960  -29.0070 O   0  0  0  0  0  0  0  0  0  0  0  0
   -6.4660   24.1380  -30.3300 C   0  0  0  0  0  0  0  0  0  0  0  0
   -5.6570   23.0960  -31.0620 C   0  0  0  0  0  0  0  0  0  0  0  0
   -4.2590   23.0200  -30.8210 C   0  0  0  0  0  0  0  0  0  0  0  0
   -3.5160   22.0170  -31.4860 C   0  0  0  0  0  0  0  0  0  0  0  0
   -4.1580   21.1900  -32.4130 C   0  0  0  0  0  0  0  0  0  0  0  0
   -5.4970   21.2680  -32.5860 N   0  0  0  0  0  0  0  0  0  0  0  0
   -6.2660   22.1950  -31.9560 C   0  0  0  0  0  0  0  0  0  0  0  0
   -7.5090   22.2340  -32.1700 O   0  0  0  0  0  0  0  0  0  0  0  0
   -5.9770   20.1890  -33.4480 C   0  0  0  0  0  0  0  0  0  0  0  0
   -4.7190   19.4370  -33.7550 C   0  0  0  0  0  0  0  0  0  0  0  0
   -4.5660   18.3000  -34.5400 C   0  0  0  0  0  0  0  0  0  0  0  0
   -5.7150   17.7010  -35.1590 N   0  0  0  0  0  0  0  0  0  0  0  0
   -6.5550   16.7470  -34.4350 C   0  0  0  0  0  0  0  0  0  0  0  0
   -6.0170   16.4990  -33.0190 C   0  0  0  0  0  0  0  0  0  0  0  0
   -6.4120   17.5660  -32.0720 N   0  0  0  0  0  0  0  0  0  0  0  0
   -7.8570   17.8210  -32.1870 C   0  0  0  0  0  0  0  0  0  0  0  0
   -6.0940   17.1920  -30.6820 C   0  0  0  0  0  0  0  0  0  0  0  0
   -3.2700   17.7490  -34.6570 C   0  0  0  0  0  0  0  0  0  0  0  0
   -3.0650   16.5050  -35.2870 C   0  0  0  0  0  0  0  0  0  0  0  0
   -1.7860   15.9590  -35.3790 C   0  0  0  0  0  0  0  0  0  0  0  0
   -0.6970   16.6270  -34.8290 C   0  0  0  0  0  0  0  0  0  0  0  0
   -0.8730   17.8520  -34.1840 C   0  0  0  0  0  0  0  0  0  0  0  0
   -2.1530   18.4490  -34.0930 C   0  0  0  0  0  0  0  0  0  0  0  0
   -2.3450   19.6650  -33.4550 N   0  0  0  0  0  0  0  0  0  0  0  0
   -1.2120   20.5500  -33.1350 C   0  0  0  0  0  0  0  0  0  0  0  0
   -3.6310   20.0610  -33.1880 C   0  0  0  0  0  0  0  0  0  0  0  0
   -2.2382   22.7061  -27.3639 H   0  0  0  0  0  0  0  0  0  0  0  0
   -3.1617   21.8194  -28.6240 H   0  0  0  0  0  0  0  0  0  0  0  0
   -1.3661   21.7689  -28.6240 H   0  0  0  0  0  0  0  0  0  0  0  0
   -1.8062   24.4766  -28.7337 H   0  0  0  0  0  0  0  0  0  0  0  0
   -1.5879   23.3794  -30.1878 H   0  0  0  0  0  0  0  0  0  0  0  0
   -3.4940   26.0320  -29.9000 H   0  0  0  0  0  0  0  0  0  0  0  0
   -7.5177   23.8188  -30.2843 H   0  0  0  0  0  0  0  0  0  0  0  0
   -6.3939   25.0968  -30.8644 H   0  0  0  0  0  0  0  0  0  0  0  0
   -2.4439   21.8887  -31.2761 H   0  0  0  0  0  0  0  0  0  0  0  0
   -6.7026   19.5520  -32.9211 H   0  0  0  0  0  0  0  0  0  0  0  0
   -6.5052   20.5455  -34.3446 H   0  0  0  0  0  0  0  0  0  0  0  0
   -5.7550   17.6820  -36.2030 H   0  0  0  0  0  0  0  0  0  0  0  0
   -7.5767   17.1486  -34.3657 H   0  0  0  0  0  0  0  0  0  0  0  0
   -6.5504   15.7927  -34.9821 H   0  0  0  0  0  0  0  0  0  0  0  0
   -6.4109   15.5389  -32.6542 H   0  0  0  0  0  0  0  0  0  0  0  0
   -4.9184   16.4882  -33.0740 H   0  0  0  0  0  0  0  0  0  0  0  0
   -8.2968   17.8986  -31.1817 H   0  0  0  0  0  0  0  0  0  0  0  0
   -8.0210   18.7620  -32.7326 H   0  0  0  0  0  0  0  0  0  0  0  0
   -8.3332   16.9930  -32.7326 H   0  0  0  0  0  0  0  0  0  0  0  0
   -6.6484   17.8440  -29.9909 H   0  0  0  0  0  0  0  0  0  0  0  0
   -6.3824   16.1447  -30.5089 H   0  0  0  0  0  0  0  0  0  0  0  0
   -5.0139   17.3083  -30.5089 H   0  0  0  0  0  0  0  0  0  0  0  0
   -3.9220   15.9602  -35.7098 H   0  0  0  0  0  0  0  0  0  0  0  0
   -1.6371   14.9957  -35.8888 H   0  0  0  0  0  0  0  0  0  0  0  0
    0.3086   16.1873  -34.9028 H   0  0  0  0  0  0  0  0  0  0  0  0
   -0.0046   18.3607  -33.7401 H   0  0  0  0  0  0  0  0  0  0  0  0
   -1.1075   20.6316  -32.0430 H   0  0  0  0  0  0  0  0  0  0  0  0
   -0.2883   20.1319  -33.5615 H   0  0  0  0  0  0  0  0  0  0  0  0
   -1.3940   21.5475  -33.5615 H   0  0  0  0  0  0  0  0  0  0  0  0
  1  2  1  0
  2  3  1  0
  3  4  1  6
  3  5  1  0
  5  6  2  0
  5  7  1  0
  7  8  1  0
  8  9  1  0
  9 10  2  0
 10 11  1  0
 11 12  2  0
 12 13  1  0
 13 14  1  0
 14 15  2  0
 13 16  1  0
 16 17  1  0
 17 18  2  0
 18 19  1  0
 19 20  1  0
 20 21  1  0
 21 22  1  0
 22 23  1  0
 22 24  1  0
 18 25  1  0
 25 26  2  0
 26 27  1  0
 27 28  2  0
 28 29  1  0
 29 30  2  0
 30 31  1  0
 31 32  1  0
 31 33  2  0
 10  3  1  0
 33 12  1  0
 14  9  1  0
 33 17  1  0
 30 25  1  0
  1 34  1  0
  1 35  1  0
  1 36  1  0
  2 37  1  0
  2 38  1  0
  4 39  1  0
  8 40  1  0
  8 41  1  0
 11 42  1  0
 16 43  1  0
 16 44  1  0
 19 45  1  0
 20 46  1  0
 20 47  1  0
 21 48  1  0
 21 49  1  0
 23 50  1  0
 23 51  1  0
 23 52  1  0
 24 53  1  0
 24 54  1  0
 24 55  1  0
 26 56  1  0
 27 57  1  0
 28 58  1  0
 29 59  1  0
 32 60  1  0
 32 61  1  0
 32 62  1  0
M  CHG  1  31   1
M  END
>  <UniqueID>  (12) 
12

>  <SMILES>  (12) 
CC[C@]1(O)C(=O)OCc2c1cc1n(c2=O)Cc2c(NCCN(C)C)c3ccccc3[n+](C)c2-1

>  <Energy>  (12) 
121.32567706101085

>  <Genealogy>  (12) 
CC[C@]1(O)C(=O)OCc2c1cc1n(c2=O)Cc2c(NCCN(C)C)c3ccccc3[n+](C)c2-1 (chirality)
CC[C@]1(O)C(=O)OCc2c1cc1n(c2=O)Cc2c(NCCN(C)C)c3ccccc3[n+](C)c2-1 (3D coordinates assigned)
CC[C@]1(O)C(=O)OCc2c1cc1n(c2=O)Cc2c(NCCN(C)C)c3ccccc3[n+](C)c2-1 (nonaromatic ring conformer: 121.32567706101085 kcal/mol)

>  <smiles>  (12) 
CCC1(O)C(=O)OCc2c1cc1n(c2=O)Cc2c(NCCN(C)C)c3ccccc3[n+](C)c2-1

>  <score_type>  (12) 
oracle

>  <origin>  (12) 
adg

>  <m_score__min__energy>  (12) 
-8.6600000000000001

>  <m_primary>  (12) 
energy

$$$$
12:0
     RDKit          3D

 45 46  0  0  0  0  0  0  0  0999 V2000
   -7.2680   17.9580  -32.1810 C   0  0  0  0  0  0  0  0  0  0  0  0
   -8.6070   18.6940  -32.3430 C   0  0  0  0  0  0  0  0  0  0  0  0
   -8.4810   20.1610  -32.4970 N   0  0  0  0  0  0  0  0  0  0  0  0
   -7.1220   20.5990  -32.8800 C   0  0  0  0  0  0  0  0  0  0  0  0
   -6.9330   22.0930  -32.6000 C   0  0  0  0  0  0  0  0  0  0  0  0
   -7.0270   22.3830  -31.1460 N   0  0  0  0  0  0  0  0  0  0  0  0
   -7.2370   23.8430  -30.9140 C   0  0  0  0  0  0  0  0  0  0  0  0
   -6.1990   24.4650  -29.9560 C   0  0  0  0  0  0  0  0  0  0  0  0
   -4.4940   24.1730  -30.4280 S   0  0  0  0  0  0  0  0  0  0  0  0
   -3.8640   25.4850  -30.8050 O   0  0  0  0  0  0  0  0  0  0  0  0
   -4.4720   23.2680  -31.6270 O   0  0  0  0  0  0  0  0  0  0  0  0
   -3.5690   23.4040  -29.1370 C   0  0  0  0  0  0  0  0  0  0  0  0
   -2.9110   24.1890  -28.1800 C   0  0  0  0  0  0  0  0  0  0  0  0
   -2.1360   23.5850  -27.1860 C   0  0  0  0  0  0  0  0  0  0  0  0
   -2.0120   22.1890  -27.1350 C   0  0  0  0  0  0  0  0  0  0  0  0
   -1.1990   21.5400  -26.0560 C   0  0  0  0  0  0  0  0  0  0  0  0
   -2.7110   21.4020  -28.0620 C   0  0  0  0  0  0  0  0  0  0  0  0
   -3.4870   22.0060  -29.0580 C   0  0  0  0  0  0  0  0  0  0  0  0
   -8.0560   21.5480  -30.4560 C   0  0  0  0  0  0  0  0  0  0  0  0
   -9.1060   20.9550  -31.4140 C   0  0  0  0  0  0  0  0  0  0  0  0
   -7.0443   17.8350  -31.1110 H   0  0  0  0  0  0  0  0  0  0  0  0
   -7.3332   16.9689  -32.6580 H   0  0  0  0  0  0  0  0  0  0  0  0
   -6.4679   18.5431  -32.6580 H   0  0  0  0  0  0  0  0  0  0  0  0
   -9.1131   18.2962  -33.2350 H   0  0  0  0  0  0  0  0  0  0  0  0
   -9.1751   18.5221  -31.4168 H   0  0  0  0  0  0  0  0  0  0  0  0
   -6.3821   20.0271  -32.3008 H   0  0  0  0  0  0  0  0  0  0  0  0
   -6.9849   20.4220  -33.9570 H   0  0  0  0  0  0  0  0  0  0  0  0
   -5.9429   22.4040  -32.9647 H   0  0  0  0  0  0  0  0  0  0  0  0
   -7.7289   22.6480  -33.1181 H   0  0  0  0  0  0  0  0  0  0  0  0
   -6.0970   22.1110  -30.7470 H   0  0  0  0  0  0  0  0  0  0  0  0
   -7.1745   24.3627  -31.8815 H   0  0  0  0  0  0  0  0  0  0  0  0
   -8.2246   23.9592  -30.4438 H   0  0  0  0  0  0  0  0  0  0  0  0
   -6.3667   25.5517  -29.9243 H   0  0  0  0  0  0  0  0  0  0  0  0
   -6.3429   23.9824  -28.9781 H   0  0  0  0  0  0  0  0  0  0  0  0
   -3.0050   25.2845  -28.2115 H   0  0  0  0  0  0  0  0  0  0  0  0
   -1.6207   24.2078  -26.4399 H   0  0  0  0  0  0  0  0  0  0  0  0
   -1.5836   21.8470  -25.0722 H   0  0  0  0  0  0  0  0  0  0  0  0
   -1.2687   20.4464  -26.1519 H   0  0  0  0  0  0  0  0  0  0  0  0
   -0.1480   21.8503  -26.1519 H   0  0  0  0  0  0  0  0  0  0  0  0
   -2.6490   20.3052  -28.0060 H   0  0  0  0  0  0  0  0  0  0  0  0
   -4.0340   21.3827  -29.7807 H   0  0  0  0  0  0  0  0  0  0  0  0
   -7.5457   20.7199  -29.9423 H   0  0  0  0  0  0  0  0  0  0  0  0
   -8.5909   22.2058  -29.7552 H   0  0  0  0  0  0  0  0  0  0  0  0
   -9.7825   20.3039  -30.8409 H   0  0  0  0  0  0  0  0  0  0  0  0
   -9.6546   21.7889  -31.8763 H   0  0  0  0  0  0  0  0  0  0  0  0
  1  2  1  0
  2  3  1  0
  3  4  1  0
  4  5  1  0
  5  6  1  0
  6  7  1  0
  7  8  1  0
  8  9  1  0
  9 10  2  0
  9 11  2  0
  9 12  1  0
 12 13  2  0
 13 14  1  0
 14 15  2  0
 15 16  1  0
 15 17  1  0
 17 18  2  0
  6 19  1  0
 19 20  1  0
 20  3  1  0
 18 12  1  0
  1 21  1  0
  1 22  1  0
  1 23  1  0
  2 24  1  0
  2 25  1  0
  4 26  1  0
  4 27  1  0
  5 28  1  0
  5 29  1  0
  6 30  1  0
  7 31  1  0
  7 32  1  0
  8 33  1  0
  8 34  1  0
 13 35  1  0
 14 36  1  0
 16 37  1  0
 16 38  1  0
 16 39  1  0
 17 40  1  0
 18 41  1  0
 19 42  1  0
 19 43  1  0
 20 44  1  0
 20 45  1  0
M  CHG  1   6   1
M  END
>  <UniqueID>  (13) 
13

>  <SMILES>  (13) 
CCN1CC[NH+](CCS(=O)(=O)c2ccc(C)cc2)CC1

>  <Energy>  (13) 
56.037800422496495

>  <Genealogy>  (13) 
CCN1CC[NH+](CCS(=O)(=O)c2ccc(C)cc2)CC1 (protonated)
CCN1CC[NH+](CCS(=O)(=O)c2ccc(C)cc2)CC1 (3D coordinates assigned)
CCN1CC[NH+](CCS(=O)(=O)c2ccc(C)cc2)CC1 (nonaromatic ring conformer: 56.037800422496495 kcal/mol)

>  <smiles>  (13) 
CCN1CCN(CCS(=O)(=O)c2ccc(C)cc2)CC1

>  <score_type>  (13) 
oracle

>  <origin>  (13) 
adg

>  <m_score__min__energy>  (13) 
-7.0599999999999996

>  <m_primary>  (13) 
energy

$$$$
13:0
     RDKit          3D

 59 62  0  0  0  0  0  0  0  0999 V2000
    0.3030   23.9130  -27.4540 C   0  0  0  0  0  0  0  0  0  0  0  0
   -0.2440   24.3040  -28.7090 O   0  0  0  0  0  0  0  0  0  0  0  0
   -1.3580   23.7010  -29.3150 C   0  0  0  0  0  0  0  0  0  0  0  0
   -1.2410   22.9050  -30.4680 C   0  0  0  0  0  0  0  0  0  0  0  0
   -2.3770   22.3240  -31.0480 C   0  0  0  0  0  0  0  0  0  0  0  0
   -3.6560   22.5960  -30.5270 C   0  0  0  0  0  0  0  0  0  0  0  0
   -3.7570   23.3180  -29.3260 C   0  0  0  0  0  0  0  0  0  0  0  0
   -2.6170   23.8940  -28.7310 C   0  0  0  0  0  0  0  0  0  0  0  0
   -2.6970   24.6590  -27.5560 O   0  0  0  0  0  0  0  0  0  0  0  0
   -3.8530   24.7530  -26.7300 C   0  0  0  0  0  0  0  0  0  0  0  0
   -4.8520   21.9650  -31.1790 C   0  0  0  0  0  0  0  0  0  0  0  0
   -4.6480   20.7330  -31.8410 C   0  0  0  0  0  0  0  0  0  0  0  0
   -5.7560   19.9780  -32.2550 C   0  0  0  0  0  0  0  0  0  0  0  0
   -5.5610   18.6660  -32.8050 N   0  0  0  0  0  0  0  0  0  0  0  0
   -4.9780   18.4620  -34.1320 C   0  0  0  0  0  0  0  0  0  0  0  0
   -5.2150   17.0280  -34.6140 C   0  0  0  0  0  0  0  0  0  0  0  0
   -5.9250   16.2400  -33.5840 N   0  0  0  0  0  0  0  0  0  0  0  0
   -6.8650   15.3020  -34.2200 C   0  0  0  0  0  0  0  0  0  0  0  0
   -4.9770   15.4850  -32.7460 C   0  0  0  0  0  0  0  0  0  0  0  0
   -7.0500   20.5110  -32.1070 C   0  0  0  0  0  0  0  0  0  0  0  0
   -8.1840   19.7980  -32.5510 C   0  0  0  0  0  0  0  0  0  0  0  0
   -9.4630   20.3250  -32.3890 C   0  0  0  0  0  0  0  0  0  0  0  0
   -9.6340   21.5690  -31.7920 C   0  0  0  0  0  0  0  0  0  0  0  0
   -8.5270   22.3060  -31.3760 C   0  0  0  0  0  0  0  0  0  0  0  0
   -7.2110   21.8070  -31.5460 C   0  0  0  0  0  0  0  0  0  0  0  0
   -6.1030   22.5490  -31.1840 N   0  0  0  0  0  0  0  0  0  0  0  0
   -6.2500   23.9980  -30.9340 C   0  0  0  0  0  0  0  0  0  0  0  0
   -3.2330   20.2190  -32.0430 C   0  0  0  0  0  0  0  0  0  0  0  0
   -2.2460   21.3810  -32.2120 C   0  0  0  0  0  0  0  0  0  0  0  0
   -0.2998   24.3439  -26.6410 H   0  0  0  0  0  0  0  0  0  0  0  0
    0.2934   22.8158  -27.3757 H   0  0  0  0  0  0  0  0  0  0  0  0
    1.3380   24.2772  -27.3757 H   0  0  0  0  0  0  0  0  0  0  0  0
   -0.2513   22.7371  -30.9179 H   0  0  0  0  0  0  0  0  0  0  0  0
   -4.7388   23.4351  -28.8439 H   0  0  0  0  0  0  0  0  0  0  0  0
   -3.5510   24.7284  -25.6725 H   0  0  0  0  0  0  0  0  0  0  0  0
   -4.3777   25.6968  -26.9397 H   0  0  0  0  0  0  0  0  0  0  0  0
   -4.5233   23.9064  -26.9397 H   0  0  0  0  0  0  0  0  0  0  0  0
   -5.8270   17.8350  -32.2310 H   0  0  0  0  0  0  0  0  0  0  0  0
   -5.4422   19.1626  -34.8417 H   0  0  0  0  0  0  0  0  0  0  0  0
   -3.8941   18.6400  -34.0727 H   0  0  0  0  0  0  0  0  0  0  0  0
   -5.8208   17.0513  -35.5319 H   0  0  0  0  0  0  0  0  0  0  0  0
   -4.2411   16.5560  -34.8108 H   0  0  0  0  0  0  0  0  0  0  0  0
   -7.4162   14.7520  -33.4430 H   0  0  0  0  0  0  0  0  0  0  0  0
   -7.5749   15.8624  -34.8461 H   0  0  0  0  0  0  0  0  0  0  0  0
   -6.3061   14.5909  -34.8461 H   0  0  0  0  0  0  0  0  0  0  0  0
   -5.2025   15.6646  -31.6844 H   0  0  0  0  0  0  0  0  0  0  0  0
   -5.0699   14.4108  -32.9640 H   0  0  0  0  0  0  0  0  0  0  0  0
   -3.9509   15.8159  -32.9640 H   0  0  0  0  0  0  0  0  0  0  0  0
   -8.0565   18.8160  -33.0299 H   0  0  0  0  0  0  0  0  0  0  0  0
  -10.3391   19.7562  -32.7339 H   0  0  0  0  0  0  0  0  0  0  0  0
  -10.6469   21.9729  -31.6475 H   0  0  0  0  0  0  0  0  0  0  0  0
   -8.6766   23.2904  -30.9084 H   0  0  0  0  0  0  0  0  0  0  0  0
   -6.2688   24.1830  -29.8498 H   0  0  0  0  0  0  0  0  0  0  0  0
   -5.4018   24.5355  -31.3830 H   0  0  0  0  0  0  0  0  0  0  0  0
   -7.1889   24.3542  -31.3830 H   0  0  0  0  0  0  0  0  0  0  0  0
   -2.9388   19.6213  -31.1677 H   0  0  0  0  0  0  0  0  0  0  0  0
   -3.2100   19.6037  -32.9545 H   0  0  0  0  0  0  0  0  0  0  0  0
   -1.2196   20.9874  -32.2512 H   0  0  0  0  0  0  0  0  0  0  0  0
   -2.4688   21.9182  -33.1457 H   0  0  0  0  0  0  0  0  0  0  0  0
  1  2  1  0
  2  3  1  0
  3  4  2  0
  4  5  1  0
  5  6  2  0
  6  7  1  0
  7  8  2  0
  8  9  1  0
  9 10  1  0
  6 11  1  0
 11 12  2  0
 12 13  1  0
 13 14  1  0
 14 15  1  0
 15 16  1  0
 16 17  1  0
 17 18  1  0
 17 19  1  0
 13 20  2  0
 20 21  1  0
 21 22  2  0
 22 23  1  0
 23 24  2  0
 24 25  1  0
 25 26  2  0
 26 27  1  0
 12 28  1  0
 28 29  1  0
  8  3  1  0
 26 11  1  0
 29  5  1  0
 25 20  1  0
  1 30  1  0
  1 31  1  0
  1 32  1  0
  4 33  1  0
  7 34  1  0
 10 35  1  0
 10 36  1  0
 10 37  1  0
 14 38  1  0
 15 39  1  0
 15 40  1  0
 16 41  1  0
 16 42  1  0
 18 43  1  0
 18 44  1  0
 18 45  1  0
 19 46  1  0
 19 47  1  0
 19 48  1  0
 21 49  1  0
 22 50  1  0
 23 51  1  0
 24 52  1  0
 27 53  1  0
 27 54  1  0
 27 55  1  0
 28 56  1  0
 28 57  1  0
 29 58  1  0
 29 59  1  0
M  CHG  1  26   1
M  END
>  <UniqueID>  (14) 
14

>  <SMILES>  (14) 
COc1cc2c(cc1OC)-c1c(c(NCCN(C)C)c3ccccc3[n+]1C)CC2

>  <Energy>  (14) 
89.24719912088959

>  <Genealogy>  (14) 
COc1cc2c(cc1OC)-c1c(c(NCCN(C)C)c3ccccc3[n+]1C)CC2 (3D coordinates assigned)
COc1cc2c(cc1OC)-c1c(c(NCCN(C)C)c3ccccc3[n+]1C)CC2 (nonaromatic ring conformer: 89.24719912088959 kcal/mol)

>  <smiles>  (14) 
COc1cc2c(cc1OC)-c1c(c(NCCN(C)C)c3ccccc3[n+]1C)CC2

>  <score_type>  (14) 
oracle

>  <origin>  (14) 
adg

>  <m_score__min__energy>  (14) 
-8.3900000000000006

>  <m_primary>  (14) 
energy

$$$$
14:0
     RDKit          3D

 36 37  0  0  0  0  0  0  0  0999 V2000
   -9.2140   19.2740  -32.3530 C   0  0  0  0  0  0  0  0  0  0  0  0
   -8.1450   18.3900  -31.7130 C   0  0  0  0  0  0  0  0  0  0  0  0
   -6.9330   18.2860  -32.5600 N   0  0  0  0  0  0  0  0  0  0  0  0
   -6.8660   16.9870  -33.2650 C   0  0  0  0  0  0  0  0  0  0  0  0
   -6.0790   17.1340  -34.5640 C   0  0  0  0  0  0  0  0  0  0  0  0
   -5.6640   18.6370  -31.8700 C   0  0  0  0  0  0  0  0  0  0  0  0
   -4.6860   19.4900  -32.6980 C   0  0  0  0  0  0  0  0  0  0  0  0
   -5.3410   20.6380  -33.2290 O   0  0  0  0  0  0  0  0  0  0  0  0
   -5.8160   21.7090  -32.4590 C   0  0  0  0  0  0  0  0  0  0  0  0
   -7.1760   21.8090  -32.0500 C   0  0  0  0  0  0  0  0  0  0  0  0
   -7.6100   22.9000  -31.2770 C   0  0  0  0  0  0  0  0  0  0  0  0
   -6.6710   23.8660  -30.9310 C   0  0  0  0  0  0  0  0  0  0  0  0
   -5.3730   23.7770  -31.3180 C   0  0  0  0  0  0  0  0  0  0  0  0
   -4.9030   22.7140  -32.0840 C   0  0  0  0  0  0  0  0  0  0  0  0
   -4.6730   24.8650  -30.8360 O   0  0  0  0  0  0  0  0  0  0  0  0
   -5.5880   25.6910  -30.1000 C   0  0  0  0  0  0  0  0  0  0  0  0
   -6.8510   25.0150  -30.1860 O   0  0  0  0  0  0  0  0  0  0  0  0
   -9.8054   19.7631  -31.5649 H   0  0  0  0  0  0  0  0  0  0  0  0
   -8.7308   20.0399  -32.9775 H   0  0  0  0  0  0  0  0  0  0  0  0
   -9.8755   18.6556  -32.9775 H   0  0  0  0  0  0  0  0  0  0  0  0
   -7.8633   18.8203  -30.7406 H   0  0  0  0  0  0  0  0  0  0  0  0
   -8.5647   17.3803  -31.5936 H   0  0  0  0  0  0  0  0  0  0  0  0
   -6.3680   16.2484  -32.6197 H   0  0  0  0  0  0  0  0  0  0  0  0
   -7.8872   16.6520  -33.4993 H   0  0  0  0  0  0  0  0  0  0  0  0
   -5.0220   17.3314  -34.3320 H   0  0  0  0  0  0  0  0  0  0  0  0
   -6.1589   16.2054  -35.1482 H   0  0  0  0  0  0  0  0  0  0  0  0
   -6.4887   17.9711  -35.1482 H   0  0  0  0  0  0  0  0  0  0  0  0
   -5.9158   19.1966  -30.9570 H   0  0  0  0  0  0  0  0  0  0  0  0
   -5.1491   17.6853  -31.6719 H   0  0  0  0  0  0  0  0  0  0  0  0
   -3.8556   19.8143  -32.0536 H   0  0  0  0  0  0  0  0  0  0  0  0
   -4.3076   18.8821  -33.5330 H   0  0  0  0  0  0  0  0  0  0  0  0
   -7.8925   21.0268  -32.3410 H   0  0  0  0  0  0  0  0  0  0  0  0
   -8.6585   22.9869  -30.9561 H   0  0  0  0  0  0  0  0  0  0  0  0
   -3.8473   22.6602  -32.3882 H   0  0  0  0  0  0  0  0  0  0  0  0
   -5.2689   25.7819  -29.0512 H   0  0  0  0  0  0  0  0  0  0  0  0
   -5.6382   26.7130  -30.5038 H   0  0  0  0  0  0  0  0  0  0  0  0
  1  2  1  0
  2  3  1  0
  3  4  1  0
  4  5  1  0
  3  6  1  0
  6  7  1  0
  7  8  1  0
  8  9  1  0
  9 10  2  0
 10 11  1  0
 11 12  2  0
 12 13  1  0
 13 14  2  0
 13 15  1  0
 15 16  1  0
 16 17  1  0
 14  9  1  0
 17 12  1  0
  1 18  1  0
  1 19  1  0
  1 20  1  0
  2 21  1  0
  2 22  1  0
  4 23  1  0
  4 24  1  0
  5 25  1  0
  5 26  1  0
  5 27  1  0
  6 28  1  0
  6 29  1  0
  7 30  1  0
  7 31  1  0
 10 32  1  0
 11 33  1  0
 14 34  1  0
 16 35  1  0
 16 36  1  0
M  END
>  <UniqueID>  (15) 
15

>  <SMILES>  (15) 
CCN(CC)CCOc1ccc2c(c1)OCO2

>  <Energy>  (15) 
63.17501236435184

>  <Genealogy>  (15) 
CCN(CC)CCOc1ccc2c(c1)OCO2 (3D coordinates assigned)
CCN(CC)CCOc1ccc2c(c1)OCO2 (nonaromatic ring conformer: 63.17501236435184 kcal/mol)

>  <smiles>  (15) 
CCN(CC)CCOc1ccc2c(c1)OCO2

>  <score_type>  (15) 
oracle

>  <origin>  (15) 
adg

>  <m_score__min__energy>  (15) 
-5.5899999999999999

>  <m_primary>  (15) 
energy

$$$$
15:0
     RDKit          3D

 68 70  0  0  0  0  0  0  0  0999 V2000
   -1.7170   26.1320  -24.9300 C   0  0  0  0  0  0  0  0  0  0  0  0
   -2.3000   25.7030  -26.2850 C   0  0  0  0  0  0  0  0  0  0  0  0
   -1.5400   26.2050  -27.4530 N   0  0  0  0  0  0  0  0  0  0  0  0
   -0.7860   27.4330  -27.1380 C   0  0  0  0  0  0  0  0  0  0  0  0
   -0.6910   25.1600  -28.0690 C   0  0  0  0  0  0  0  0  0  0  0  0
   -1.4620   24.3730  -29.1410 C   0  0  0  0  0  0  0  0  0  0  0  0
   -2.7480   25.0000  -29.4640 N   0  0  0  0  0  0  0  0  0  0  0  0
   -3.8520   24.2780  -30.0450 C   0  0  0  0  0  0  0  0  0  0  0  0
   -5.1750   24.7020  -29.8850 C   0  0  0  0  0  0  0  0  0  0  0  0
   -6.2210   23.9760  -30.4500 C   0  0  0  0  0  0  0  0  0  0  0  0
   -5.9890   22.8040  -31.1990 C   0  0  0  0  0  0  0  0  0  0  0  0
   -4.6360   22.3830  -31.3920 C   0  0  0  0  0  0  0  0  0  0  0  0
   -3.5990   23.1190  -30.7850 C   0  0  0  0  0  0  0  0  0  0  0  0
   -4.2100   21.1540  -32.1710 C   0  0  0  0  0  0  0  0  0  0  0  0
   -5.1020   20.8290  -33.3640 C   0  0  0  0  0  0  0  0  0  0  0  0
   -6.2890   20.0490  -32.8890 C   0  0  0  0  0  0  0  0  0  0  0  0
   -6.4100   18.6870  -33.2130 C   0  0  0  0  0  0  0  0  0  0  0  0
   -7.4930   17.9330  -32.7540 C   0  0  0  0  0  0  0  0  0  0  0  0
   -7.5610   16.5800  -33.1150 O   0  0  0  0  0  0  0  0  0  0  0  0
   -6.8950   16.0050  -34.2370 C   0  0  0  0  0  0  0  0  0  0  0  0
   -5.8190   15.0150  -33.7600 C   0  0  0  0  0  0  0  0  0  0  0  0
   -4.5740   15.6530  -33.2620 N   0  0  0  0  0  0  0  0  0  0  0  0
   -3.7250   14.7080  -32.5010 C   0  0  0  0  0  0  0  0  0  0  0  0
   -4.5920   13.8050  -31.6310 C   0  0  0  0  0  0  0  0  0  0  0  0
   -3.7980   16.3700  -34.3000 C   0  0  0  0  0  0  0  0  0  0  0  0
   -3.2760   17.7140  -33.7960 C   0  0  0  0  0  0  0  0  0  0  0  0
   -8.4690   18.5520  -31.9540 C   0  0  0  0  0  0  0  0  0  0  0  0
   -8.3500   19.9020  -31.6210 C   0  0  0  0  0  0  0  0  0  0  0  0
   -7.2530   20.6590  -32.0670 C   0  0  0  0  0  0  0  0  0  0  0  0
   -7.1990   22.1000  -31.7360 C   0  0  0  0  0  0  0  0  0  0  0  0
   -8.2690   22.7570  -31.8650 O   0  0  0  0  0  0  0  0  0  0  0  0
   -2.3146   25.6922  -24.1179 H   0  0  0  0  0  0  0  0  0  0  0  0
   -0.6771   25.7821  -24.8509 H   0  0  0  0  0  0  0  0  0  0  0  0
   -1.7418   27.2289  -24.8509 H   0  0  0  0  0  0  0  0  0  0  0  0
   -2.3099   24.6038  -26.3251 H   0  0  0  0  0  0  0  0  0  0  0  0
   -3.3083   26.1379  -26.3501 H   0  0  0  0  0  0  0  0  0  0  0  0
   -0.7145   27.5495  -26.0465 H   0  0  0  0  0  0  0  0  0  0  0  0
    0.2248   27.3627  -27.5663 H   0  0  0  0  0  0  0  0  0  0  0  0
   -1.3060   28.3026  -27.5663 H   0  0  0  0  0  0  0  0  0  0  0  0
    0.1835   25.6377  -28.5350 H   0  0  0  0  0  0  0  0  0  0  0  0
   -0.3782   24.4585  -27.2816 H   0  0  0  0  0  0  0  0  0  0  0  0
   -0.8510   24.3248  -30.0544 H   0  0  0  0  0  0  0  0  0  0  0  0
   -1.6644   23.3672  -28.7443 H   0  0  0  0  0  0  0  0  0  0  0  0
   -2.8830   26.0160  -29.2590 H   0  0  0  0  0  0  0  0  0  0  0  0
   -5.3909   25.6143  -29.3095 H   0  0  0  0  0  0  0  0  0  0  0  0
   -7.2542   24.3258  -30.3083 H   0  0  0  0  0  0  0  0  0  0  0  0
   -2.5612   22.7719  -30.8965 H   0  0  0  0  0  0  0  0  0  0  0  0
   -3.1866   21.3172  -32.5399 H   0  0  0  0  0  0  0  0  0  0  0  0
   -4.2835   20.3011  -31.4802 H   0  0  0  0  0  0  0  0  0  0  0  0
   -5.4399   21.7630  -33.8367 H   0  0  0  0  0  0  0  0  0  0  0  0
   -4.5377   20.2355  -34.0984 H   0  0  0  0  0  0  0  0  0  0  0  0
   -5.6412   18.2077  -33.8368 H   0  0  0  0  0  0  0  0  0  0  0  0
   -7.6275   15.4734  -34.8622 H   0  0  0  0  0  0  0  0  0  0  0  0
   -6.4161   16.8046  -34.8212 H   0  0  0  0  0  0  0  0  0  0  0  0
   -6.2449   14.4104  -32.9457 H   0  0  0  0  0  0  0  0  0  0  0  0
   -5.5344   14.4150  -34.6370 H   0  0  0  0  0  0  0  0  0  0  0  0
   -3.1484   14.0898  -33.2048 H   0  0  0  0  0  0  0  0  0  0  0  0
   -3.0413   15.2792  -31.8558 H   0  0  0  0  0  0  0  0  0  0  0  0
   -4.3906   14.0147  -30.5701 H   0  0  0  0  0  0  0  0  0  0  0  0
   -5.6534   13.9964  -31.8476 H   0  0  0  0  0  0  0  0  0  0  0  0
   -4.3576   12.7523  -31.8476 H   0  0  0  0  0  0  0  0  0  0  0  0
   -2.9428   15.7460  -34.5987 H   0  0  0  0  0  0  0  0  0  0  0  0
   -4.4663   16.5624  -35.1523 H   0  0  0  0  0  0  0  0  0  0  0  0
   -3.2746   17.7176  -32.6960 H   0  0  0  0  0  0  0  0  0  0  0  0
   -2.2515   17.8710  -34.1645 H   0  0  0  0  0  0  0  0  0  0  0  0
   -3.9260   18.5213  -34.1645 H   0  0  0  0  0  0  0  0  0  0  0  0
   -9.3288   17.9708  -31.5895 H   0  0  0  0  0  0  0  0  0  0  0  0
   -9.1240   20.3793  -31.0021 H   0  0  0  0  0  0  0  0  0  0  0  0
  1  2  1  0
  2  3  1  0
  3  4  1  0
  3  5  1  0
  5  6  1  0
  6  7  1  0
  7  8  1  0
  8  9  2  0
  9 10  1  0
 10 11  2  0
 11 12  1  0
 12 13  2  0
 12 14  1  0
 14 15  1  0
 15 16  1  0
 16 17  2  0
 17 18  1  0
 18 19  1  0
 19 20  1  0
 20 21  1  0
 21 22  1  0
 22 23  1  0
 23 24  1  0
 22 25  1  0
 25 26  1  0
 18 27  2  0
 27 28  1  0
 28 29  2  0
 29 30  1  0
 30 31  2  0
 13  8  1  0
 29 16  1  0
 30 11  1  0
  1 32  1  0
  1 33  1  0
  1 34  1  0
  2 35  1  0
  2 36  1  0
  4 37  1  0
  4 38  1  0
  4 39  1  0
  5 40  1  0
  5 41  1  0
  6 42  1  0
  6 43  1  0
  7 44  1  0
  9 45  1  0
 10 46  1  0
 13 47  1  0
 14 48  1  0
 14 49  1  0
 15 50  1  0
 15 51  1  0
 17 52  1  0
 20 53  1  0
 20 54  1  0
 21 55  1  0
 21 56  1  0
 23 57  1  0
 23 58  1  0
 24 59  1  0
 24 60  1  0
 24 61  1  0
 25 62  1  0
 25 63  1  0
 26 64  1  0
 26 65  1  0
 26 66  1  0
 27 67  1  0
 28 68  1  0
M  END
>  <UniqueID>  (16) 
16

>  <SMILES>  (16) 
CCN(C)CCNc1ccc2c(c1)CCc1cc(OCCN(CC)CC)ccc1C2=O

>  <Energy>  (16) 
86.14443039538662

>  <Genealogy>  (16) 
CCN(C)CCNc1ccc2c(c1)CCc1cc(OCCN(CC)CC)ccc1C2=O (3D coordinates assigned)
CCN(C)CCNc1ccc2c(c1)CCc1cc(OCCN(CC)CC)ccc1C2=O (nonaromatic ring conformer: 86.14443039538662 kcal/mol)

>  <smiles>  (16) 
CCN(C)CCNc1ccc2c(c1)CCc1cc(OCCN(CC)CC)ccc1C2=O

>  <score_type>  (16) 
oracle

>  <origin>  (16) 
adg

>  <m_score__min__energy>  (16) 
-7.54

>  <m_primary>  (16) 
energy

$$$$
16:0
     RDKit          3D

 47 49  0  0  0  0  0  0  0  0999 V2000
   -5.3360   20.7370  -33.0690 C   0  0  0  0  0  0  0  0  0  0  0  0
   -6.7720   20.9450  -32.6650 C   0  0  0  0  0  0  0  0  0  0  0  0
   -7.7050   19.9240  -32.9250 C   0  0  0  0  0  0  0  0  0  0  0  0
   -9.0420   20.0680  -32.5540 C   0  0  0  0  0  0  0  0  0  0  0  0
   -9.4670   21.2310  -31.9140 C   0  0  0  0  0  0  0  0  0  0  0  0
   -8.5590   22.2550  -31.6470 C   0  0  0  0  0  0  0  0  0  0  0  0
   -7.2080   22.1340  -32.0200 C   0  0  0  0  0  0  0  0  0  0  0  0
   -6.2780   23.2890  -31.7080 C   0  0  0  0  0  0  0  0  0  0  0  0
   -5.7740   23.2040  -30.3200 N   0  0  0  0  0  0  0  0  0  0  0  0
   -5.5900   24.5560  -29.7290 C   0  0  0  0  0  0  0  0  0  0  0  0
   -4.6210   24.5330  -28.5420 C   0  0  0  0  0  0  0  0  0  0  0  0
   -3.2090   24.0970  -28.9860 C   0  0  0  0  0  0  0  0  0  0  0  0
   -2.4650   25.2540  -29.3410 O   0  0  0  0  0  0  0  0  0  0  0  0
   -1.1660   25.2420  -28.7760 C   0  0  0  0  0  0  0  0  0  0  0  0
   -1.1480   25.9450  -27.4430 C   0  0  0  0  0  0  0  0  0  0  0  0
   -1.8320   25.3910  -26.3490 C   0  0  0  0  0  0  0  0  0  0  0  0
   -1.8480   26.0560  -25.1190 C   0  0  0  0  0  0  0  0  0  0  0  0
   -1.1840   27.2770  -24.9740 C   0  0  0  0  0  0  0  0  0  0  0  0
   -0.5030   27.8350  -26.0610 C   0  0  0  0  0  0  0  0  0  0  0  0
   -0.4860   27.1740  -27.2920 C   0  0  0  0  0  0  0  0  0  0  0  0
   -3.2620   23.1440  -30.2030 C   0  0  0  0  0  0  0  0  0  0  0  0
   -4.5690   22.3370  -30.2280 C   0  0  0  0  0  0  0  0  0  0  0  0
   -4.7111   20.6465  -32.1683 H   0  0  0  0  0  0  0  0  0  0  0  0
   -5.2528   19.8174  -33.6669 H   0  0  0  0  0  0  0  0  0  0  0  0
   -4.9953   21.5952  -33.6669 H   0  0  0  0  0  0  0  0  0  0  0  0
   -7.3762   19.0018  -33.4265 H   0  0  0  0  0  0  0  0  0  0  0  0
   -9.7612   19.2633  -32.7666 H   0  0  0  0  0  0  0  0  0  0  0  0
  -10.5209   21.3413  -31.6189 H   0  0  0  0  0  0  0  0  0  0  0  0
   -8.9031   23.1679  -31.1389 H   0  0  0  0  0  0  0  0  0  0  0  0
   -5.4254   23.2620  -32.4025 H   0  0  0  0  0  0  0  0  0  0  0  0
   -6.8373   24.2295  -31.8206 H   0  0  0  0  0  0  0  0  0  0  0  0
   -5.1910   25.2304  -30.5010 H   0  0  0  0  0  0  0  0  0  0  0  0
   -6.5675   24.9051  -29.3648 H   0  0  0  0  0  0  0  0  0  0  0  0
   -4.5649   25.5407  -28.1045 H   0  0  0  0  0  0  0  0  0  0  0  0
   -4.9931   23.8100  -27.8012 H   0  0  0  0  0  0  0  0  0  0  0  0
   -2.7344   23.5609  -28.1509 H   0  0  0  0  0  0  0  0  0  0  0  0
   -0.8444   24.1993  -28.6367 H   0  0  0  0  0  0  0  0  0  0  0  0
   -0.4831   25.7692  -29.4584 H   0  0  0  0  0  0  0  0  0  0  0  0
   -2.3570   24.4307  -26.4599 H   0  0  0  0  0  0  0  0  0  0  0  0
   -2.3840   25.6174  -24.2644 H   0  0  0  0  0  0  0  0  0  0  0  0
   -1.1968   27.7989  -24.0058 H   0  0  0  0  0  0  0  0  0  0  0  0
    0.0201   28.7959  -25.9465 H   0  0  0  0  0  0  0  0  0  0  0  0
    0.0476   27.6178  -28.1454 H   0  0  0  0  0  0  0  0  0  0  0  0
   -3.1908   23.7382  -31.1260 H   0  0  0  0  0  0  0  0  0  0  0  0
   -2.4215   22.4385  -30.1265 H   0  0  0  0  0  0  0  0  0  0  0  0
   -4.5514   21.6645  -31.0983 H   0  0  0  0  0  0  0  0  0  0  0  0
   -4.6329   21.7763  -29.2838 H   0  0  0  0  0  0  0  0  0  0  0  0
  1  2  1  0
  2  3  2  0
  3  4  1  0
  4  5  2  0
  5  6  1  0
  6  7  2  0
  7  8  1  0
  8  9  1  0
  9 10  1  0
 10 11  1  0
 11 12  1  0
 12 13  1  0
 13 14  1  0
 14 15  1  0
 15 16  2  0
 16 17  1  0
 17 18  2  0
 18 19  1  0
 19 20  2  0
 12 21  1  0
 21 22  1  0
  7  2  1  0
 22  9  1  0
 20 15  1  0
  1 23  1  0
  1 24  1  0
  1 25  1  0
  3 26  1  0
  4 27  1  0
  5 28  1  0
  6 29  1  0
  8 30  1  0
  8 31  1  0
 10 32  1  0
 10 33  1  0
 11 34  1  0
 11 35  1  0
 12 36  1  0
 14 37  1  0
 14 38  1  0
 16 39  1  0
 17 40  1  0
 18 41  1  0
 19 42  1  0
 20 43  1  0
 21 44  1  0
 21 45  1  0
 22 46  1  0
 22 47  1  0
M  END
>  <UniqueID>  (17) 
17

>  <SMILES>  (17) 
Cc1ccccc1CN1CCC(OCc2ccccc2)CC1

>  <Energy>  (17) 
60.531677176079135

>  <Genealogy>  (17) 
Cc1ccccc1CN1CCC(OCc2ccccc2)CC1 (3D coordinates assigned)
Cc1ccccc1CN1CCC(OCc2ccccc2)CC1 (nonaromatic ring conformer: 60.531677176079135 kcal/mol)

>  <smiles>  (17) 
Cc1ccccc1CN1CCC(OCc2ccccc2)CC1

>  <score_type>  (17) 
oracle

>  <origin>  (17) 
adg

>  <m_score__min__energy>  (17) 
-8.8399999999999999

>  <m_primary>  (17) 
energy

$$$$
17:0
     RDKit          3D

 40 42  0  0  0  0  0  0  0  0999 V2000
   -9.4870   21.9120  -31.6110 C   0  0  0  0  0  0  0  0  0  0  0  0
   -8.6360   20.7380  -31.1050 C   0  0  0  0  0  0  0  0  0  0  0  0
   -8.2740   19.7480  -32.1510 N   0  0  2  0  0  0  0  0  0  0  0  0
   -9.4680   19.0800  -32.7050 C   0  0  0  0  0  0  0  0  0  0  0  0
   -7.2710   18.7630  -31.6670 C   0  0  0  0  0  0  0  0  0  0  0  0
   -6.3800   18.2140  -32.8060 C   0  0  0  0  0  0  0  0  0  0  0  0
   -6.1300   19.4330  -34.1510 S   0  0  0  0  0  0  0  0  0  0  0  0
   -5.4510   20.7080  -33.0840 C   0  0  0  0  0  0  0  0  0  0  0  0
   -6.2670   21.6910  -32.6110 N   0  0  0  0  0  0  0  0  0  0  0  0
   -5.7820   22.7000  -31.8300 C   0  0  0  0  0  0  0  0  0  0  0  0
   -6.6410   23.7040  -31.3720 C   0  0  0  0  0  0  0  0  0  0  0  0
   -6.1430   24.7440  -30.5790 C   0  0  0  0  0  0  0  0  0  0  0  0
   -4.7860   24.7860  -30.2420 C   0  0  0  0  0  0  0  0  0  0  0  0
   -3.9150   23.7890  -30.6930 C   0  0  0  0  0  0  0  0  0  0  0  0
   -4.4060   22.7410  -31.4900 C   0  0  0  0  0  0  0  0  0  0  0  0
   -3.6030   21.7080  -31.9870 C   0  0  0  0  0  0  0  0  0  0  0  0
   -2.2440   21.4950  -31.8240 C   0  0  0  0  0  0  0  0  0  0  0  0
   -1.9550   20.3370  -32.5310 C   0  0  0  0  0  0  0  0  0  0  0  0
   -3.1410   19.8930  -33.0940 C   0  0  0  0  0  0  0  0  0  0  0  0
   -4.1320   20.7370  -32.7520 N   0  0  0  0  0  0  0  0  0  0  0  0
   -9.8907   22.4690  -30.7526 H   0  0  0  0  0  0  0  0  0  0  0  0
   -8.8627   22.5811  -32.2214 H   0  0  0  0  0  0  0  0  0  0  0  0
  -10.3171   21.5268  -32.2214 H   0  0  0  0  0  0  0  0  0  0  0  0
   -7.7066   21.1447  -30.6797 H   0  0  0  0  0  0  0  0  0  0  0  0
   -9.2479   20.2027  -30.3640 H   0  0  0  0  0  0  0  0  0  0  0  0
   -7.8520   20.3040  -32.9320 H   0  0  0  0  0  0  0  0  0  0  0  0
  -10.1043   18.7240  -31.8813 H   0  0  0  0  0  0  0  0  0  0  0  0
  -10.0333   19.7929  -33.3233 H   0  0  0  0  0  0  0  0  0  0  0  0
   -9.1562   18.2253  -33.3233 H   0  0  0  0  0  0  0  0  0  0  0  0
   -6.6277   19.2526  -30.9211 H   0  0  0  0  0  0  0  0  0  0  0  0
   -7.8197   17.9137  -31.2339 H   0  0  0  0  0  0  0  0  0  0  0  0
   -5.3991   17.9442  -32.3877 H   0  0  0  0  0  0  0  0  0  0  0  0
   -6.8899   17.3401  -33.2375 H   0  0  0  0  0  0  0  0  0  0  0  0
   -7.7087   23.6763  -31.6352 H   0  0  0  0  0  0  0  0  0  0  0  0
   -6.8214   25.5316  -30.2192 H   0  0  0  0  0  0  0  0  0  0  0  0
   -4.4020   25.6073  -29.6191 H   0  0  0  0  0  0  0  0  0  0  0  0
   -2.8488   23.8251  -30.4246 H   0  0  0  0  0  0  0  0  0  0  0  0
   -1.5392   22.1161  -31.2518 H   0  0  0  0  0  0  0  0  0  0  0  0
   -0.9684   19.8601  -32.6269 H   0  0  0  0  0  0  0  0  0  0  0  0
   -3.2542   18.9953  -33.7196 H   0  0  0  0  0  0  0  0  0  0  0  0
  1  2  1  0
  2  3  1  0
  3  4  1  0
  3  5  1  0
  5  6  1  0
  6  7  1  0
  7  8  1  0
  8  9  2  0
  9 10  1  0
 10 11  2  0
 11 12  1  0
 12 13  2  0
 13 14  1  0
 14 15  2  0
 15 16  1  0
 16 17  2  0
 17 18  1  0
 18 19  2  0
 19 20  1  0
 20  8  1  0
 15 10  1  0
 20 16  1  0
  1 21  1  0
  1 22  1  0
  1 23  1  0
  2 24  1  0
  2 25  1  0
  3 26  1  6
  4 27  1  0
  4 28  1  0
  4 29  1  0
  5 30  1  0
  5 31  1  0
  6 32  1  0
  6 33  1  0
 11 34  1  0
 12 35  1  0
 13 36  1  0
 14 37  1  0
 17 38  1  0
 18 39  1  0
 19 40  1  0
M  CHG  1   3   1
M  END
>  <UniqueID>  (18) 
18

>  <SMILES>  (18) 
CC[N@H+](C)CCSc1nc2ccccc2c2cccn12

>  <Energy>  (18) 
75.25648317387301

>  <Genealogy>  (18) 
CC[NH+](C)CCSc1nc2ccccc2c2cccn12 (protonated)
CC[N@H+](C)CCSc1nc2ccccc2c2cccn12 (chirality)
CC[N@H+](C)CCSc1nc2ccccc2c2cccn12 (3D coordinates assigned)
CC[N@H+](C)CCSc1nc2ccccc2c2cccn12 (optimized conformer: 75.25648317387301 kcal/mol)

>  <smiles>  (18) 
CCN(C)CCSc1nc2ccccc2c2cccn12

>  <score_type>  (18) 
oracle

>  <origin>  (18) 
adg

>  <m_score__min__energy>  (18) 
-6.1500000000000004

>  <m_primary>  (18) 
energy

$$$$
18:0
     RDKit          3D

 31 32  0  0  0  0  0  0  0  0999 V2000
   -1.2040   22.4130  -29.8470 C   0  0  0  0  0  0  0  0  0  0  0  0
   -1.8020   23.7360  -29.7000 N   0  0  0  0  0  0  0  0  0  0  0  0
   -1.9140   24.4210  -28.4360 C   0  0  0  0  0  0  0  0  0  0  0  0
   -0.7670   24.9250  -27.7880 C   0  0  0  0  0  0  0  0  0  0  0  0
   -0.8620   25.5100  -26.5240 C   0  0  0  0  0  0  0  0  0  0  0  0
   -2.0980   25.5970  -25.8840 C   0  0  0  0  0  0  0  0  0  0  0  0
   -3.2460   25.1150  -26.5140 C   0  0  0  0  0  0  0  0  0  0  0  0
   -3.1720   24.5490  -27.7960 C   0  0  0  0  0  0  0  0  0  0  0  0
   -4.3860   24.1120  -28.4250 N   0  0  0  0  0  0  0  0  0  0  0  0
   -4.6750   24.3870  -29.8060 C   0  0  0  0  0  0  0  0  0  0  0  0
   -3.9400   25.1870  -30.4480 O   0  0  0  0  0  0  0  0  0  0  0  0
   -5.8360   23.7610  -30.4810 C   0  0  0  0  0  0  0  0  0  0  0  0
   -6.7040   22.9180  -29.7610 C   0  0  0  0  0  0  0  0  0  0  0  0
   -7.8060   22.3300  -30.3900 C   0  0  0  0  0  0  0  0  0  0  0  0
   -8.0580   22.5800  -31.7410 C   0  0  0  0  0  0  0  0  0  0  0  0
   -9.1270   22.0100  -32.3490 F   0  0  0  0  0  0  0  0  0  0  0  0
   -7.2100   23.4240  -32.4630 C   0  0  0  0  0  0  0  0  0  0  0  0
   -6.1070   24.0140  -31.8400 C   0  0  0  0  0  0  0  0  0  0  0  0
   -1.0107   21.9854  -28.8521 H   0  0  0  0  0  0  0  0  0  0  0  0
   -1.8937   21.7582  -30.3998 H   0  0  0  0  0  0  0  0  0  0  0  0
   -0.2568   22.4981  -30.3998 H   0  0  0  0  0  0  0  0  0  0  0  0
   -2.1550   24.1940  -30.5700 H   0  0  0  0  0  0  0  0  0  0  0  0
    0.2125   24.8564  -28.2838 H   0  0  0  0  0  0  0  0  0  0  0  0
    0.0398   25.9031  -26.0319 H   0  0  0  0  0  0  0  0  0  0  0  0
   -2.1680   26.0458  -24.8821 H   0  0  0  0  0  0  0  0  0  0  0  0
   -4.2172   25.1792  -26.0014 H   0  0  0  0  0  0  0  0  0  0  0  0
   -5.1690   23.8080  -27.8050 H   0  0  0  0  0  0  0  0  0  0  0  0
   -6.5139   22.7204  -28.6957 H   0  0  0  0  0  0  0  0  0  0  0  0
   -8.4756   21.6694  -29.8198 H   0  0  0  0  0  0  0  0  0  0  0  0
   -7.4114   23.6247  -33.5256 H   0  0  0  0  0  0  0  0  0  0  0  0
   -5.4463   24.6801  -32.4143 H   0  0  0  0  0  0  0  0  0  0  0  0
  1  2  1  0
  2  3  1  0
  3  4  2  0
  4  5  1  0
  5  6  2  0
  6  7  1  0
  7  8  2  0
  8  9  1  0
  9 10  1  0
 10 11  2  0
 10 12  1  0
 12 13  2  0
 13 14  1  0
 14 15  2  0
 15 16  1  0
 15 17  1  0
 17 18  2  0
  8  3  1  0
 18 12  1  0
  1 19  1  0
  1 20  1  0
  1 21  1  0
  2 22  1  0
  4 23  1  0
  5 24  1  0
  6 25  1  0
  7 26  1  0
  9 27  1  0
 13 28  1  0
 14 29  1  0
 17 30  1  0
 18 31  1  0
M  END
>  <UniqueID>  (19) 
19

>  <SMILES>  (19) 
CNc1ccccc1NC(=O)c1ccc(F)cc1

>  <Energy>  (19) 
38.93306155015572

>  <Genealogy>  (19) 
CNc1ccccc1NC(=O)c1ccc(F)cc1 (3D coordinates assigned)
CNc1ccccc1NC(=O)c1ccc(F)cc1 (optimized conformer: 38.93306155015572 kcal/mol)

>  <smiles>  (19) 
CNc1ccccc1NC(=O)c1ccc(F)cc1

>  <score_type>  (19) 
oracle

>  <origin>  (19) 
adg

>  <m_score__min__energy>  (19) 
-6.7199999999999998

>  <m_primary>  (19) 
energy

$$$$
19:0
     RDKit          3D

 46 48  0  0  0  0  0  0  0  0999 V2000
   -6.0960   25.6260  -29.7360 C   0  0  0  0  0  0  0  0  0  0  0  0
   -5.0740   25.2950  -30.8210 C   0  0  0  0  0  0  0  0  0  0  0  0
   -5.3390   23.9500  -31.3890 N   0  0  0  0  0  0  0  0  0  0  0  0
   -6.6640   23.4590  -30.9300 C   0  0  0  0  0  0  0  0  0  0  0  0
   -7.7240   23.6220  -32.0160 C   0  0  0  0  0  0  0  0  0  0  0  0
   -4.2840   22.9850  -30.9890 C   0  0  0  0  0  0  0  0  0  0  0  0
   -3.8880   21.9960  -32.1090 C   0  0  0  0  0  0  0  0  0  0  0  0
   -4.9540   21.7220  -33.0960 N   0  0  0  0  0  0  0  0  0  0  0  0
   -5.3370   20.3180  -33.1670 C   0  0  0  0  0  0  0  0  0  0  0  0
   -4.4470   19.2720  -33.5770 C   0  0  0  0  0  0  0  0  0  0  0  0
   -3.0710   19.5010  -33.8370 C   0  0  0  0  0  0  0  0  0  0  0  0
   -2.2300   18.4660  -34.2380 C   0  0  0  0  0  0  0  0  0  0  0  0
   -2.7220   17.1790  -34.3880 C   0  0  0  0  0  0  0  0  0  0  0  0
   -4.0600   16.9060  -34.1240 C   0  0  0  0  0  0  0  0  0  0  0  0
   -4.9500   17.9280  -33.7070 C   0  0  0  0  0  0  0  0  0  0  0  0
   -6.2710   17.6390  -33.4130 N   0  0  0  0  0  0  0  0  0  0  0  0
   -6.8160   16.2780  -33.5790 C   0  0  0  0  0  0  0  0  0  0  0  0
   -7.0610   18.6370  -32.9210 C   0  0  0  0  0  0  0  0  0  0  0  0
   -8.6520   18.5350  -32.3680 S   0  0  0  0  0  0  0  0  0  0  0  0
   -8.7170   20.1700  -31.9670 C   0  0  0  0  0  0  0  0  0  0  0  0
   -7.5480   20.7920  -32.2450 N   0  0  0  0  0  0  0  0  0  0  0  0
   -6.6300   19.9420  -32.7810 C   0  0  0  0  0  0  0  0  0  0  0  0
   -5.6403   25.4784  -28.7458 H   0  0  0  0  0  0  0  0  0  0  0  0
   -6.4153   26.6735  -29.8403 H   0  0  0  0  0  0  0  0  0  0  0  0
   -6.9687   24.9646  -29.8403 H   0  0  0  0  0  0  0  0  0  0  0  0
   -5.1398   26.0460  -31.6220 H   0  0  0  0  0  0  0  0  0  0  0  0
   -4.0676   25.3026  -30.3771 H   0  0  0  0  0  0  0  0  0  0  0  0
   -6.5802   22.3938  -30.6685 H   0  0  0  0  0  0  0  0  0  0  0  0
   -6.9696   24.0523  -30.0556 H   0  0  0  0  0  0  0  0  0  0  0  0
   -8.7080   23.7733  -31.5482 H   0  0  0  0  0  0  0  0  0  0  0  0
   -7.4775   24.4928  -32.6413 H   0  0  0  0  0  0  0  0  0  0  0  0
   -7.7505   22.7174  -32.6413 H   0  0  0  0  0  0  0  0  0  0  0  0
   -3.3887   23.5520  -30.6942 H   0  0  0  0  0  0  0  0  0  0  0  0
   -4.6935   22.3862  -30.1621 H   0  0  0  0  0  0  0  0  0  0  0  0
   -3.0235   22.4141  -32.6455 H   0  0  0  0  0  0  0  0  0  0  0  0
   -3.6684   21.0382  -31.6146 H   0  0  0  0  0  0  0  0  0  0  0  0
   -5.7390   22.3680  -32.8940 H   0  0  0  0  0  0  0  0  0  0  0  0
   -4.6000   22.0040  -34.0390 H   0  0  0  0  0  0  0  0  0  0  0  0
   -2.6610   20.5149  -33.7196 H   0  0  0  0  0  0  0  0  0  0  0  0
   -1.1678   18.6713  -34.4371 H   0  0  0  0  0  0  0  0  0  0  0  0
   -2.0521   16.3709  -34.7169 H   0  0  0  0  0  0  0  0  0  0  0  0
   -4.4346   15.8784  -34.2409 H   0  0  0  0  0  0  0  0  0  0  0  0
   -6.9948   15.8315  -32.5897 H   0  0  0  0  0  0  0  0  0  0  0  0
   -7.7635   16.3278  -34.1355 H   0  0  0  0  0  0  0  0  0  0  0  0
   -6.0960   15.6601  -34.1355 H   0  0  0  0  0  0  0  0  0  0  0  0
   -9.5972   20.6681  -31.5345 H   0  0  0  0  0  0  0  0  0  0  0  0
  1  2  1  0
  2  3  1  0
  3  4  1  0
  4  5  1  0
  3  6  1  0
  6  7  1  0
  7  8  1  0
  8  9  1  0
  9 10  2  0
 10 11  1  0
 11 12  2  0
 12 13  1  0
 13 14  2  0
 14 15  1  0
 15 16  2  0
 16 17  1  0
 16 18  1  0
 18 19  1  0
 19 20  1  0
 20 21  2  0
 21 22  1  0
 22  9  1  0
 15 10  1  0
 22 18  2  0
  1 23  1  0
  1 24  1  0
  1 25  1  0
  2 26  1  0
  2 27  1  0
  4 28  1  0
  4 29  1  0
  5 30  1  0
  5 31  1  0
  5 32  1  0
  6 33  1  0
  6 34  1  0
  7 35  1  0
  7 36  1  0
  8 37  1  0
  8 38  1  0
 11 39  1  0
 12 40  1  0
 13 41  1  0
 14 42  1  0
 17 43  1  0
 17 44  1  0
 17 45  1  0
 20 46  1  0
M  CHG  2   8   1  16   1
M  END
>  <UniqueID>  (20) 
20

>  <SMILES>  (20) 
CCN(CC)CC[NH2+]c1c2ccccc2[n+](C)c2scnc12

>  <Energy>  (20) 
96.83373773953767

>  <Genealogy>  (20) 
CCN(CC)CC[NH2+]c1c2ccccc2[n+](C)c2scnc12 (protonated)
CCN(CC)CC[NH2+]c1c2ccccc2[n+](C)c2scnc12 (3D coordinates assigned)
CCN(CC)CC[NH2+]c1c2ccccc2[n+](C)c2scnc12 (optimized conformer: 96.83373773953767 kcal/mol)

>  <smiles>  (20) 
CCN(CC)CCNc1c2ccccc2[n+](C)c2scnc12

>  <score_type>  (20) 
oracle

>  <origin>  (20) 
adg

>  <m_score__min__energy>  (20) 
-7.5

>  <m_primary>  (20) 
energy

$$$$
20:0
     RDKit          3D

 44 45  0  0  0  0  0  0  0  0999 V2000
   -9.1030   18.3630  -31.6050 C   0  0  0  0  0  0  0  0  0  0  0  0
   -8.9810   19.5550  -32.5410 C   0  0  0  0  0  0  0  0  0  0  0  0
   -8.2680   20.6000  -31.8890 O   0  0  0  0  0  0  0  0  0  0  0  0
   -8.8440   21.8430  -31.6090 C   0  0  0  0  0  0  0  0  0  0  0  0
   -9.9590   21.9200  -31.0250 O   0  0  0  0  0  0  0  0  0  0  0  0
   -8.1050   23.0970  -31.9730 C   0  0  0  0  0  0  0  0  0  0  0  0
   -6.7220   22.8110  -32.3910 N   0  0  0  0  0  0  0  0  0  0  0  0
   -5.7660   23.7890  -31.8420 C   0  0  0  0  0  0  0  0  0  0  0  0
   -4.6770   23.0880  -31.0560 C   0  0  0  0  0  0  0  0  0  0  0  0
   -4.5070   23.4410  -29.7050 C   0  0  0  0  0  0  0  0  0  0  0  0
   -3.5390   22.8120  -28.9200 C   0  0  0  0  0  0  0  0  0  0  0  0
   -2.7320   21.8210  -29.4710 C   0  0  0  0  0  0  0  0  0  0  0  0
   -2.8720   21.4690  -30.8140 C   0  0  0  0  0  0  0  0  0  0  0  0
   -3.8150   22.1190  -31.6370 C   0  0  0  0  0  0  0  0  0  0  0  0
   -3.9440   21.7110  -33.0930 C   0  0  0  0  0  0  0  0  0  0  0  0
   -5.2180   21.1300  -33.3840 O   0  0  0  0  0  0  0  0  0  0  0  0
   -5.5270   19.7630  -33.2830 C   0  0  0  0  0  0  0  0  0  0  0  0
   -5.5280   19.1770  -32.0110 C   0  0  0  0  0  0  0  0  0  0  0  0
   -5.8250   17.8200  -31.8540 C   0  0  0  0  0  0  0  0  0  0  0  0
   -6.1240   17.0360  -32.9710 C   0  0  0  0  0  0  0  0  0  0  0  0
   -6.1250   17.6100  -34.2450 C   0  0  0  0  0  0  0  0  0  0  0  0
   -5.8290   18.9670  -34.4060 C   0  0  0  0  0  0  0  0  0  0  0  0
   -9.0674   18.7107  -30.5620 H   0  0  0  0  0  0  0  0  0  0  0  0
  -10.0584   17.8494  -31.7879 H   0  0  0  0  0  0  0  0  0  0  0  0
   -8.2714   17.6665  -31.7879 H   0  0  0  0  0  0  0  0  0  0  0  0
   -8.4396   19.2535  -33.4498 H   0  0  0  0  0  0  0  0  0  0  0  0
   -9.9854   19.9113  -32.8133 H   0  0  0  0  0  0  0  0  0  0  0  0
   -8.6322   23.5942  -32.8006 H   0  0  0  0  0  0  0  0  0  0  0  0
   -8.0683   23.7442  -31.0843 H   0  0  0  0  0  0  0  0  0  0  0  0
   -6.6630   22.8040  -33.4370 H   0  0  0  0  0  0  0  0  0  0  0  0
   -6.4730   21.8560  -32.0450 H   0  0  0  0  0  0  0  0  0  0  0  0
   -5.3092   24.3516  -32.6696 H   0  0  0  0  0  0  0  0  0  0  0  0
   -6.3050   24.4719  -31.1689 H   0  0  0  0  0  0  0  0  0  0  0  0
   -5.1437   24.2211  -29.2623 H   0  0  0  0  0  0  0  0  0  0  0  0
   -3.4141   23.0997  -27.8657 H   0  0  0  0  0  0  0  0  0  0  0  0
   -1.9819   21.3140  -28.8463 H   0  0  0  0  0  0  0  0  0  0  0  0
   -2.2389   20.6746  -31.2361 H   0  0  0  0  0  0  0  0  0  0  0  0
   -3.8097   22.6025  -33.7232 H   0  0  0  0  0  0  0  0  0  0  0  0
   -3.1740   20.9530  -33.2991 H   0  0  0  0  0  0  0  0  0  0  0  0
   -5.2931   19.7896  -31.1281 H   0  0  0  0  0  0  0  0  0  0  0  0
   -5.8233   17.3693  -30.8506 H   0  0  0  0  0  0  0  0  0  0  0  0
   -6.3583   15.9683  -32.8478 H   0  0  0  0  0  0  0  0  0  0  0  0
   -6.3595   16.9921  -35.1243 H   0  0  0  0  0  0  0  0  0  0  0  0
   -5.8319   19.4141  -35.4111 H   0  0  0  0  0  0  0  0  0  0  0  0
  1  2  1  0
  2  3  1  0
  3  4  1  0
  4  5  2  0
  4  6  1  0
  6  7  1  0
  7  8  1  0
  8  9  1  0
  9 10  2  0
 10 11  1  0
 11 12  2  0
 12 13  1  0
 13 14  2  0
 14 15  1  0
 15 16  1  0
 16 17  1  0
 17 18  2  0
 18 19  1  0
 19 20  2  0
 20 21  1  0
 21 22  2  0
 14  9  1  0
 22 17  1  0
  1 23  1  0
  1 24  1  0
  1 25  1  0
  2 26  1  0
  2 27  1  0
  6 28  1  0
  6 29  1  0
  7 30  1  0
  7 31  1  0
  8 32  1  0
  8 33  1  0
 10 34  1  0
 11 35  1  0
 12 36  1  0
 13 37  1  0
 15 38  1  0
 15 39  1  0
 18 40  1  0
 19 41  1  0
 20 42  1  0
 21 43  1  0
 22 44  1  0
M  CHG  1   7   1
M  END
>  <UniqueID>  (21) 
21

>  <SMILES>  (21) 
CCOC(=O)C[NH2+]Cc1ccccc1COc1ccccc1

>  <Energy>  (21) 
39.647073077982

>  <Genealogy>  (21) 
CCOC(=O)C[NH2+]Cc1ccccc1COc1ccccc1 (protonated)
CCOC(=O)C[NH2+]Cc1ccccc1COc1ccccc1 (3D coordinates assigned)
CCOC(=O)C[NH2+]Cc1ccccc1COc1ccccc1 (optimized conformer: 39.647073077982 kcal/mol)

>  <smiles>  (21) 
CCOC(=O)CNCc1ccccc1COc1ccccc1

>  <score_type>  (21) 
oracle

>  <origin>  (21) 
adg

>  <m_score__min__energy>  (21) 
-5.9199999999999999

>  <m_primary>  (21) 
energy

$$$$
21:0
     RDKit          3D

 38 40  0  0  1  0  0  0  0  0999 V2000
   -3.5450   24.3030  -29.5910 C   0  0  0  0  0  0  0  0  0  0  0  0
   -4.2320   24.5510  -30.8110 O   0  0  0  0  0  0  0  0  0  0  0  0
   -5.4830   23.9390  -30.9450 C   0  0  0  0  0  0  0  0  0  0  0  0
   -6.0630   23.3070  -29.8650 C   0  0  0  0  0  0  0  0  0  0  0  0
   -7.3130   22.6970  -30.0030 C   0  0  0  0  0  0  0  0  0  0  0  0
   -7.9790   22.7170  -31.2130 C   0  0  0  0  0  0  0  0  0  0  0  0
   -9.3250   22.0540  -31.3420 C   0  0  0  0  0  0  0  0  0  0  0  0
   -9.1680   21.0740  -32.3840 N   0  0  0  0  0  0  0  0  0  0  0  0
   -8.3460   20.0880  -32.3570 C   0  0  0  0  0  0  0  0  0  0  0  0
   -7.0590   20.3350  -32.6380 N   0  0  0  0  0  0  0  0  0  0  0  0
   -6.2030   19.2980  -32.6080 C   0  0  0  0  0  0  0  0  0  0  0  0
   -4.7970   19.5320  -32.9070 C   0  0  0  0  0  0  0  0  0  0  0  0
   -4.1320   18.9710  -33.9670 C   0  0  0  0  0  0  0  0  0  0  0  0
   -2.8210   19.2190  -34.2070 N   0  0  0  0  0  0  0  0  0  0  0  0
   -2.0700   20.0160  -33.4470 C   0  0  0  0  0  0  0  0  0  0  0  0
   -2.7020   20.6130  -32.3530 C   0  0  0  0  0  0  0  0  0  0  0  0
   -1.7230   21.7730  -31.1990 Br  0  0  0  0  0  0  0  0  0  0  0  0
   -4.0470   20.3740  -32.0870 C   0  0  0  0  0  0  0  0  0  0  0  0
   -6.6840   18.0470  -32.2940 C   0  0  0  0  0  0  0  0  0  0  0  0
   -8.0230   17.8070  -32.0050 C   0  0  0  0  0  0  0  0  0  0  0  0
   -8.8360   18.8770  -32.0480 N   0  0  0  0  0  0  0  0  0  0  0  0
   -7.3840   23.3510  -32.2770 C   0  0  0  0  0  0  0  0  0  0  0  0
   -6.1410   23.9610  -32.1460 C   0  0  0  0  0  0  0  0  0  0  0  0
   -4.2048   24.5412  -28.7437 H   0  0  0  0  0  0  0  0  0  0  0  0
   -3.2543   23.2432  -29.5428 H   0  0  0  0  0  0  0  0  0  0  0  0
   -2.6444   24.9328  -29.5428 H   0  0  0  0  0  0  0  0  0  0  0  0
   -5.5425   23.2830  -28.8962 H   0  0  0  0  0  0  0  0  0  0  0  0
   -7.7716   22.1953  -29.1382 H   0  0  0  0  0  0  0  0  0  0  0  0
   -9.6075   21.5687  -30.3962 H   0  0  0  0  0  0  0  0  0  0  0  0
  -10.1181   22.7790  -31.5774 H   0  0  0  0  0  0  0  0  0  0  0  0
   -4.6796   18.2986  -34.6438 H   0  0  0  0  0  0  0  0  0  0  0  0
   -1.0076   20.1945  -33.6695 H   0  0  0  0  0  0  0  0  0  0  0  0
   -4.5237   20.8548  -31.2201 H   0  0  0  0  0  0  0  0  0  0  0  0
   -5.9800   17.2021  -32.2707 H   0  0  0  0  0  0  0  0  0  0  0  0
   -8.3947   16.8020  -31.7562 H   0  0  0  0  0  0  0  0  0  0  0  0
   -9.8480   18.7650  -31.8430 H   0  0  0  0  0  0  0  0  0  0  0  0
   -7.8993   23.3765  -33.2485 H   0  0  0  0  0  0  0  0  0  0  0  0
   -5.6841   24.4636  -33.0112 H   0  0  0  0  0  0  0  0  0  0  0  0
  1  2  1  0
  2  3  1  0
  3  4  2  0
  4  5  1  0
  5  6  2  0
  6  7  1  0
  7  8  1  0
  8  9  2  0
  9 10  1  0
 10 11  2  0
 11 12  1  0
 12 13  2  0
 13 14  1  0
 14 15  2  0
 15 16  1  0
 16 17  1  0
 16 18  2  0
 11 19  1  0
 19 20  2  0
 20 21  1  0
  6 22  1  0
 22 23  2  0
 23  3  1  0
 21  9  1  0
 18 12  1  0
  1 24  1  0
  1 25  1  0
  1 26  1  0
  4 27  1  0
  5 28  1  0
  7 29  1  0
  7 30  1  0
 13 31  1  0
 15 32  1  0
 18 33  1  0
 19 34  1  0
 20 35  1  0
 21 36  1  0
 22 37  1  0
 23 38  1  0
M  END
>  <smiles>  (22) 
COc1ccc(CN=c2nc(-c3cncc(Br)c3)cc[nH]2)cc1

>  <score_type>  (22) 
oracle

>  <origin>  (22) 
adg

>  <m_score__min__energy>  (22) 
-8.6199999999999992

>  <m_primary>  (22) 
energy

$$$$
22:0
     RDKit          3D

 43 43  0  0  0  0  0  0  0  0999 V2000
   -5.5558   23.1944  -28.0027 H   0  0  0  0  0  0  0  0  0  0  0  0
   -4.8920   23.2760  -28.8760 C   0  0  0  0  0  0  0  0  0  0  0  0
   -5.3720   23.0450  -30.0570 N   0  0  0  0  0  0  0  0  0  0  0  0
   -6.3120   23.9510  -30.7070 C   0  0  0  0  0  0  0  0  0  0  0  0
   -5.7512   24.6655  -31.3275 H   0  0  0  0  0  0  0  0  0  0  0  0
   -6.8828   24.4786  -29.9287 H   0  0  0  0  0  0  0  0  0  0  0  0
   -7.3000   23.1800  -31.5980 C   0  0  0  0  0  0  0  0  0  0  0  0
   -7.1394   23.5043  -32.6368 H   0  0  0  0  0  0  0  0  0  0  0  0
   -8.2993   23.4131  -31.2018 H   0  0  0  0  0  0  0  0  0  0  0  0
   -7.1920   21.6950  -31.5630 N   0  0  0  0  0  0  0  0  0  0  0  0
   -6.6040   21.5230  -30.7110 H   0  0  0  0  0  0  0  0  0  0  0  0
   -6.4000   21.1260  -32.6940 C   0  0  0  0  0  0  0  0  0  0  0  0
   -6.8642   21.4619  -33.6330 H   0  0  0  0  0  0  0  0  0  0  0  0
   -6.4166   20.0356  -32.5500 H   0  0  0  0  0  0  0  0  0  0  0  0
   -4.9110   21.5180  -32.7370 C   0  0  0  0  0  0  0  0  0  0  0  0
   -4.5286   21.6187  -31.7105 H   0  0  0  0  0  0  0  0  0  0  0  0
   -4.3419   20.7391  -33.2656 H   0  0  0  0  0  0  0  0  0  0  0  0
   -4.7992   22.4762  -33.2656 H   0  0  0  0  0  0  0  0  0  0  0  0
   -8.4900   21.0240  -31.2870 C   0  0  0  0  0  0  0  0  0  0  0  0
   -8.5200   20.7330  -30.2266 H   0  0  0  0  0  0  0  0  0  0  0  0
   -9.2952   21.7328  -31.5304 H   0  0  0  0  0  0  0  0  0  0  0  0
   -8.6890   19.7710  -32.1490 C   0  0  0  0  0  0  0  0  0  0  0  0
   -8.8280   18.8959  -31.4972 H   0  0  0  0  0  0  0  0  0  0  0  0
   -9.5779   19.9002  -32.7840 H   0  0  0  0  0  0  0  0  0  0  0  0
   -7.8038   19.6184  -32.7840 H   0  0  0  0  0  0  0  0  0  0  0  0
   -3.4730   23.6470  -28.6710 C   0  0  0  0  0  0  0  0  0  0  0  0
   -2.7580   23.0050  -27.6480 C   0  0  0  0  0  0  0  0  0  0  0  0
   -3.2629   22.2528  -27.0241 H   0  0  0  0  0  0  0  0  0  0  0  0
   -1.4090   23.3080  -27.4090 C   0  0  0  0  0  0  0  0  0  0  0  0
   -0.6610   22.6010  -26.3120 C   0  0  0  0  0  0  0  0  0  0  0  0
   -1.0283   22.9482  -25.3350 H   0  0  0  0  0  0  0  0  0  0  0  0
   -0.8208   21.5162  -26.3994 H   0  0  0  0  0  0  0  0  0  0  0  0
    0.4131   22.8216  -26.3994 H   0  0  0  0  0  0  0  0  0  0  0  0
   -0.7550   24.2680  -28.2020 C   0  0  0  0  0  0  0  0  0  0  0  0
    0.5980   24.5510  -27.9480 O   0  0  0  0  0  0  0  0  0  0  0  0
    1.0600   25.5720  -27.0680 C   0  0  0  0  0  0  0  0  0  0  0  0
    0.9148   25.2512  -26.0259 H   0  0  0  0  0  0  0  0  0  0  0  0
    2.1292   25.7562  -27.2494 H   0  0  0  0  0  0  0  0  0  0  0  0
    0.4926   26.4968  -27.2494 H   0  0  0  0  0  0  0  0  0  0  0  0
   -1.4710   24.9190  -29.2240 C   0  0  0  0  0  0  0  0  0  0  0  0
   -0.9665   25.6733  -29.8457 H   0  0  0  0  0  0  0  0  0  0  0  0
   -2.8160   24.6180  -29.4580 C   0  0  0  0  0  0  0  0  0  0  0  0
   -3.4830   25.2990  -30.4690 O   0  0  0  0  0  0  0  0  0  0  0  0
  1  2  1  0
  2  3  2  0
  3  4  1  0
  4  5  1  0
  4  6  1  0
  4  7  1  0
  7  8  1  0
  7  9  1  0
  7 10  1  0
 10 11  1  0
 10 12  1  0
 12 13  1  0
 12 14  1  0
 12 15  1  0
 15 16  1  0
 15 17  1  0
 15 18  1  0
 10 19  1  0
 19 20  1  0
 19 21  1  0
 19 22  1  0
 22 23  1  0
 22 24  1  0
 22 25  1  0
  2 26  1  0
 26 27  2  0
 27 28  1  0
 27 29  1  0
 29 30  1  0
 30 31  1  0
 30 32  1  0
 30 33  1  0
 29 34  2  0
 34 35  1  0
 35 36  1  0
 36 37  1  0
 36 38  1  0
 36 39  1  0
 34 40  1  0
 40 41  1  0
 40 42  2  0
 42 43  1  0
 42 26  1  0
M  CHG  2  10   1  43  -1
M  END
>  <UniqueID>  (23) 
22

>  <SMILES>  (23) 
CC[NH+](CC)CC/N=C/c1cc(C)c(OC)cc1[O-]

>  <Energy>  (23) 
46.379949062110555

>  <Genealogy>  (23) 
CC[NH+](CC)CCN=Cc1cc(C)c(OC)cc1[O-] (protonated)
CC[NH+](CC)CC/N=C/c1cc(C)c(OC)cc1[O-] (cis-trans isomerization)
CC[NH+](CC)CC/N=C/c1cc(C)c(OC)cc1[O-] (3D coordinates assigned)
CC[NH+](CC)CC/N=C/c1cc(C)c(OC)cc1[O-] (optimized conformer: 46.379949062110555 kcal/mol)

>  <smiles>  (23) 
CCN(CC)CCN=Cc1cc(C)c(OC)cc1O

>  <score_type>  (23) 
oracle

>  <origin>  (23) 
adg

>  <m_score__min__energy>  (23) 
-7.6500000000000004

>  <m_primary>  (23) 
energy

$$$$
23:0
     RDKit          3D

 49 51  0  0  0  0  0  0  0  0999 V2000
   -2.5890   19.3340  -26.7690 C   0  0  0  0  0  0  0  0  0  0  0  0
   -2.7380   20.4380  -27.8150 C   0  0  0  0  0  0  0  0  0  0  0  0
   -1.4210   20.9430  -28.2610 N   0  0  0  0  0  0  0  0  0  0  0  0
   -0.3440   20.0260  -27.8490 C   0  0  0  0  0  0  0  0  0  0  0  0
   -1.3550   21.2580  -29.7090 C   0  0  0  0  0  0  0  0  0  0  0  0
   -2.5570   22.0110  -30.2260 C   0  0  0  0  0  0  0  0  0  0  0  0
   -2.6710   23.3850  -30.0670 C   0  0  0  0  0  0  0  0  0  0  0  0
   -3.7990   24.0320  -30.5660 C   0  0  0  0  0  0  0  0  0  0  0  0
   -3.8700   25.2860  -30.4350 O   0  0  0  0  0  0  0  0  0  0  0  0
   -4.8080   23.3270  -31.1900 N   0  0  0  0  0  0  0  0  0  0  0  0
   -4.6430   21.9620  -31.3710 C   0  0  0  0  0  0  0  0  0  0  0  0
   -3.5380   21.3430  -30.8740 N   0  0  0  0  0  0  0  0  0  0  0  0
   -5.6460   21.0540  -32.0530 C   0  0  0  0  0  0  0  0  0  0  0  0
   -7.0200   21.1520  -31.5240 N   0  0  0  0  0  0  0  0  0  0  0  0
   -7.8040   19.8970  -31.5730 C   0  0  0  0  0  0  0  0  0  0  0  0
   -6.9910   18.7780  -32.1630 C   0  0  0  0  0  0  0  0  0  0  0  0
   -6.4600   17.7670  -31.3480 C   0  0  0  0  0  0  0  0  0  0  0  0
   -5.7430   16.7220  -31.9340 C   0  0  0  0  0  0  0  0  0  0  0  0
   -5.5610   16.6940  -33.3170 C   0  0  0  0  0  0  0  0  0  0  0  0
   -6.1060   17.7160  -34.0990 C   0  0  0  0  0  0  0  0  0  0  0  0
   -6.8060   18.7230  -33.5110 N   0  0  0  0  0  0  0  0  0  0  0  0
   -7.7560   22.3480  -31.9860 C   0  0  0  0  0  0  0  0  0  0  0  0
   -7.3290   23.6580  -31.3050 C   0  0  0  0  0  0  0  0  0  0  0  0
   -5.9400   24.1170  -31.7410 C   0  0  0  0  0  0  0  0  0  0  0  0
   -2.6482   19.7726  -25.7620 H   0  0  0  0  0  0  0  0  0  0  0  0
   -3.3958   18.5972  -26.8960 H   0  0  0  0  0  0  0  0  0  0  0  0
   -1.6157   18.8375  -26.8960 H   0  0  0  0  0  0  0  0  0  0  0  0
   -3.2799   20.0364  -28.6840 H   0  0  0  0  0  0  0  0  0  0  0  0
   -3.2917   21.2724  -27.3599 H   0  0  0  0  0  0  0  0  0  0  0  0
   -0.2968   19.9858  -26.7508 H   0  0  0  0  0  0  0  0  0  0  0  0
   -0.5478   19.0199  -28.2443 H   0  0  0  0  0  0  0  0  0  0  0  0
    0.6167   20.3876  -28.2443 H   0  0  0  0  0  0  0  0  0  0  0  0
   -0.4588   21.8697  -29.8900 H   0  0  0  0  0  0  0  0  0  0  0  0
   -1.3254   20.2973  -30.2440 H   0  0  0  0  0  0  0  0  0  0  0  0
   -1.8820   23.9548  -29.5543 H   0  0  0  0  0  0  0  0  0  0  0  0
   -5.6705   21.3112  -33.1222 H   0  0  0  0  0  0  0  0  0  0  0  0
   -5.3119   20.0228  -31.8657 H   0  0  0  0  0  0  0  0  0  0  0  0
   -8.1074   19.6220  -30.5521 H   0  0  0  0  0  0  0  0  0  0  0  0
   -8.6884   20.0601  -32.2064 H   0  0  0  0  0  0  0  0  0  0  0  0
   -6.6071   17.7973  -30.2583 H   0  0  0  0  0  0  0  0  0  0  0  0
   -5.3224   15.9224  -31.3065 H   0  0  0  0  0  0  0  0  0  0  0  0
   -4.9947   15.8763  -33.7868 H   0  0  0  0  0  0  0  0  0  0  0  0
   -5.9688   17.7060  -35.1904 H   0  0  0  0  0  0  0  0  0  0  0  0
   -7.5944   22.4545  -33.0688 H   0  0  0  0  0  0  0  0  0  0  0  0
   -8.8122   22.1875  -31.7240 H   0  0  0  0  0  0  0  0  0  0  0  0
   -8.0564   24.4423  -31.5613 H   0  0  0  0  0  0  0  0  0  0  0  0
   -7.2961   23.4760  -30.2207 H   0  0  0  0  0  0  0  0  0  0  0  0
   -5.8921   24.0596  -32.8385 H   0  0  0  0  0  0  0  0  0  0  0  0
   -5.8192   25.1370  -31.3473 H   0  0  0  0  0  0  0  0  0  0  0  0
  1  2  1  0
  2  3  1  0
  3  4  1  0
  3  5  1  0
  5  6  1  0
  6  7  2  0
  7  8  1  0
  8  9  2  0
  8 10  1  0
 10 11  1  0
 11 12  2  0
 11 13  1  0
 13 14  1  0
 14 15  1  0
 15 16  1  0
 16 17  2  0
 17 18  1  0
 18 19  2  0
 19 20  1  0
 20 21  2  0
 14 22  1  0
 22 23  1  0
 23 24  1  0
 12  6  1  0
 21 16  1  0
 24 10  1  0
  1 25  1  0
  1 26  1  0
  1 27  1  0
  2 28  1  0
  2 29  1  0
  4 30  1  0
  4 31  1  0
  4 32  1  0
  5 33  1  0
  5 34  1  0
  7 35  1  0
 13 36  1  0
 13 37  1  0
 15 38  1  0
 15 39  1  0
 17 40  1  0
 18 41  1  0
 19 42  1  0
 20 43  1  0
 22 44  1  0
 22 45  1  0
 23 46  1  0
 23 47  1  0
 24 48  1  0
 24 49  1  0
M  END
>  <UniqueID>  (24) 
23

>  <SMILES>  (24) 
CCN(C)Cc1cc(=O)n2c(n1)CN(Cc1ccccn1)CCC2

>  <Energy>  (24) 
71.7604841426355

>  <Genealogy>  (24) 
CCN(C)Cc1cc(=O)n2c(n1)CN(Cc1ccccn1)CCC2 (3D coordinates assigned)
CCN(C)Cc1cc(=O)n2c(n1)CN(Cc1ccccn1)CCC2 (nonaromatic ring conformer: 71.7604841426355 kcal/mol)

>  <smiles>  (24) 
CCN(C)Cc1cc(=O)n2c(n1)CN(Cc1ccccn1)CCC2

>  <score_type>  (24) 
oracle

>  <origin>  (24) 
adg

>  <m_score__min__energy>  (24) 
-6.21

>  <m_primary>  (24) 
energy

$$$$
24:0
     RDKit          3D

 65 66  0  0  0  0  0  0  0  0999 V2000
   -1.6130   25.6690  -27.6020 C   0  0  0  0  0  0  0  0  0  0  0  0
   -2.0840   25.5320  -28.9390 O   0  0  0  0  0  0  0  0  0  0  0  0
   -2.3890   24.3060  -29.5520 C   0  0  0  0  0  0  0  0  0  0  0  0
   -1.6400   23.1410  -29.3040 C   0  0  0  0  0  0  0  0  0  0  0  0
   -1.9730   21.9410  -29.9310 C   0  0  0  0  0  0  0  0  0  0  0  0
   -3.0650   21.8760  -30.8060 C   0  0  0  0  0  0  0  0  0  0  0  0
   -3.3920   20.5850  -31.5170 C   0  0  0  0  0  0  0  0  0  0  0  0
   -2.3800   20.2620  -32.6250 C   0  0  0  0  0  0  0  0  0  0  0  0
   -3.0740   20.0450  -33.9080 N   0  0  0  0  0  0  0  0  0  0  0  0
   -2.8220   18.7050  -34.4550 C   0  0  0  0  0  0  0  0  0  0  0  0
   -2.9480   17.6640  -33.3430 C   0  0  0  0  0  0  0  0  0  0  0  0
   -2.3240   16.3280  -33.7730 C   0  0  0  0  0  0  0  0  0  0  0  0
   -2.6030   15.1910  -32.7740 C   0  0  0  0  0  0  0  0  0  0  0  0
   -4.0480   14.6520  -32.7930 C   0  0  0  0  0  0  0  0  0  0  0  0
   -4.6810   14.4870  -34.1930 C   0  0  0  0  0  0  0  0  0  0  0  0
   -6.1440   14.2980  -34.1800 N   0  0  0  0  0  0  0  0  0  0  0  0
   -6.8790   15.5750  -34.1990 C   0  0  0  0  0  0  0  0  0  0  0  0
   -5.9230   16.7770  -34.2480 C   0  0  0  0  0  0  0  0  0  0  0  0
   -6.5030   17.9790  -33.5480 C   0  0  0  0  0  0  0  0  0  0  0  0
   -7.4080   17.8110  -32.4870 C   0  0  0  0  0  0  0  0  0  0  0  0
   -7.9160   18.9240  -31.8110 C   0  0  0  0  0  0  0  0  0  0  0  0
   -7.5210   20.2120  -32.1840 C   0  0  0  0  0  0  0  0  0  0  0  0
   -8.2130   21.7310  -31.2560 Br  0  0  0  0  0  0  0  0  0  0  0  0
   -6.6150   20.3870  -33.2350 C   0  0  0  0  0  0  0  0  0  0  0  0
   -6.1060   19.2760  -33.9150 C   0  0  0  0  0  0  0  0  0  0  0  0
   -3.8130   23.0350  -31.0600 C   0  0  0  0  0  0  0  0  0  0  0  0
   -3.4730   24.2570  -30.4440 C   0  0  0  0  0  0  0  0  0  0  0  0
   -4.1830   25.4410  -30.6950 O   0  0  0  0  0  0  0  0  0  0  0  0
   -5.5770   25.6100  -30.4610 C   0  0  0  0  0  0  0  0  0  0  0  0
   -2.4266   25.4323  -26.9006 H   0  0  0  0  0  0  0  0  0  0  0  0
   -0.7734   24.9778  -27.4364 H   0  0  0  0  0  0  0  0  0  0  0  0
   -1.2751   26.7026  -27.4364 H   0  0  0  0  0  0  0  0  0  0  0  0
   -0.7864   23.1772  -28.6111 H   0  0  0  0  0  0  0  0  0  0  0  0
   -1.3740   21.0390  -29.7372 H   0  0  0  0  0  0  0  0  0  0  0  0
   -3.3879   19.7654  -30.7833 H   0  0  0  0  0  0  0  0  0  0  0  0
   -4.3811   20.6978  -31.9849 H   0  0  0  0  0  0  0  0  0  0  0  0
   -1.6776   21.1020  -32.7304 H   0  0  0  0  0  0  0  0  0  0  0  0
   -1.8353   19.3454  -32.3545 H   0  0  0  0  0  0  0  0  0  0  0  0
   -2.7340   20.7510  -34.6030 H   0  0  0  0  0  0  0  0  0  0  0  0
   -3.5567   18.4879  -35.2444 H   0  0  0  0  0  0  0  0  0  0  0  0
   -1.8065   18.6679  -34.8761 H   0  0  0  0  0  0  0  0  0  0  0  0
   -2.4301   18.0314  -32.4448 H   0  0  0  0  0  0  0  0  0  0  0  0
   -4.0152   17.5025  -33.1306 H   0  0  0  0  0  0  0  0  0  0  0  0
   -2.7384   16.0454  -34.7520 H   0  0  0  0  0  0  0  0  0  0  0  0
   -1.2341   16.4703  -33.8172 H   0  0  0  0  0  0  0  0  0  0  0  0
   -1.9239   14.3574  -33.0063 H   0  0  0  0  0  0  0  0  0  0  0  0
   -2.4441   15.6145  -31.7713 H   0  0  0  0  0  0  0  0  0  0  0  0
   -4.0482   13.6670  -32.3033 H   0  0  0  0  0  0  0  0  0  0  0  0
   -4.6574   15.4068  -32.2744 H   0  0  0  0  0  0  0  0  0  0  0  0
   -4.4555   15.3886  -34.7814 H   0  0  0  0  0  0  0  0  0  0  0  0
   -4.2495   13.5734  -34.6278 H   0  0  0  0  0  0  0  0  0  0  0  0
   -6.4340   13.6950  -34.9810 H   0  0  0  0  0  0  0  0  0  0  0  0
   -6.3840   13.7860  -33.2980 H   0  0  0  0  0  0  0  0  0  0  0  0
   -7.5292   15.5995  -35.0860 H   0  0  0  0  0  0  0  0  0  0  0  0
   -7.4721   15.6445  -33.2752 H   0  0  0  0  0  0  0  0  0  0  0  0
   -4.9776   16.5009  -33.7581 H   0  0  0  0  0  0  0  0  0  0  0  0
   -5.7577   17.0410  -35.3030 H   0  0  0  0  0  0  0  0  0  0  0  0
   -7.7183   16.7993  -32.1868 H   0  0  0  0  0  0  0  0  0  0  0  0
   -8.6280   18.7861  -30.9839 H   0  0  0  0  0  0  0  0  0  0  0  0
   -6.3022   21.4003  -33.5273 H   0  0  0  0  0  0  0  0  0  0  0  0
   -5.3924   19.4179  -34.7400 H   0  0  0  0  0  0  0  0  0  0  0  0
   -4.6721   22.9903  -31.7455 H   0  0  0  0  0  0  0  0  0  0  0  0
   -5.7668   25.6330  -29.3777 H   0  0  0  0  0  0  0  0  0  0  0  0
   -5.9126   26.5554  -30.9122 H   0  0  0  0  0  0  0  0  0  0  0  0
   -6.1288   24.7722  -30.9122 H   0  0  0  0  0  0  0  0  0  0  0  0
  1  2  1  0
  2  3  1  0
  3  4  2  0
  4  5  1  0
  5  6  2  0
  6  7  1  0
  7  8  1  0
  8  9  1  0
  9 10  1  0
 10 11  1  0
 11 12  1  0
 12 13  1  0
 13 14  1  0
 14 15  1  0
 15 16  1  0
 16 17  1  0
 17 18  1  0
 18 19  1  0
 19 20  2  0
 20 21  1  0
 21 22  2  0
 22 23  1  0
 22 24  1  0
 24 25  2  0
  6 26  1  0
 26 27  2  0
 27 28  1  0
 28 29  1  0
 27  3  1  0
 25 19  1  0
  1 30  1  0
  1 31  1  0
  1 32  1  0
  4 33  1  0
  5 34  1  0
  7 35  1  0
  7 36  1  0
  8 37  1  0
  8 38  1  0
  9 39  1  0
 10 40  1  0
 10 41  1  0
 11 42  1  0
 11 43  1  0
 12 44  1  0
 12 45  1  0
 13 46  1  0
 13 47  1  0
 14 48  1  0
 14 49  1  0
 15 50  1  0
 15 51  1  0
 16 52  1  0
 16 53  1  0
 17 54  1  0
 17 55  1  0
 18 56  1  0
 18 57  1  0
 20 58  1  0
 21 59  1  0
 24 60  1  0
 25 61  1  0
 26 62  1  0
 29 63  1  0
 29 64  1  0
 29 65  1  0
M  CHG  1  16   1
M  END
>  <UniqueID>  (25) 
24

>  <SMILES>  (25) 
COc1ccc(CCNCCCCCC[NH2+]CCc2ccc(Br)cc2)cc1OC

>  <Energy>  (25) 
48.36784946950733

>  <Genealogy>  (25) 
COc1ccc(CCNCCCCCC[NH2+]CCc2ccc(Br)cc2)cc1OC (protonated)
COc1ccc(CCNCCCCCC[NH2+]CCc2ccc(Br)cc2)cc1OC (3D coordinates assigned)
COc1ccc(CCNCCCCCC[NH2+]CCc2ccc(Br)cc2)cc1OC (optimized conformer: 48.36784946950733 kcal/mol)

>  <smiles>  (25) 
COc1ccc(CCNCCCCCCNCCc2ccc(Br)cc2)cc1OC

>  <score_type>  (25) 
oracle

>  <origin>  (25) 
adg

>  <m_score__min__energy>  (25) 
-8.2300000000000004

>  <m_primary>  (25) 
energy

$$$$
25:0
     RDKit          3D

 55 56  0  0  0  0  0  0  0  0999 V2000
   -8.3420   18.2710  -31.7990 C   0  0  0  0  0  0  0  0  0  0  0  0
   -6.8540   18.0150  -31.9990 C   0  0  0  0  0  0  0  0  0  0  0  0
   -6.5720   17.7910  -33.4360 N   0  0  0  0  0  0  0  0  0  0  0  0
   -6.1140   19.0270  -34.1210 C   0  0  0  0  0  0  0  0  0  0  0  0
   -6.5770   20.3310  -33.4530 C   0  0  0  0  0  0  0  0  0  0  0  0
   -5.7130   16.6060  -33.6590 C   0  0  0  0  0  0  0  0  0  0  0  0
   -4.2290   16.9160  -33.4010 C   0  0  0  0  0  0  0  0  0  0  0  0
   -3.6300   17.4390  -34.5700 O   0  0  0  0  0  0  0  0  0  0  0  0
   -2.6620   18.4160  -34.2430 C   0  0  0  0  0  0  0  0  0  0  0  0
   -2.6580   18.6390  -32.7320 C   0  0  0  0  0  0  0  0  0  0  0  0
   -3.4080   19.8530  -32.3870 N   0  0  0  0  0  0  0  0  0  0  0  0
   -4.2660   19.9000  -31.2020 C   0  0  0  0  0  0  0  0  0  0  0  0
   -3.8730   21.1070  -30.3390 C   0  0  0  0  0  0  0  0  0  0  0  0
   -3.8080   22.3930  -31.0870 N   0  0  0  0  0  0  0  0  0  0  0  0
   -4.9630   23.5530  -30.4710 S   0  0  0  0  0  0  0  0  0  0  0  0
   -4.8610   23.6070  -28.9710 O   0  0  0  0  0  0  0  0  0  0  0  0
   -4.6430   24.9200  -31.0090 O   0  0  0  0  0  0  0  0  0  0  0  0
   -6.6130   23.1200  -30.9290 C   0  0  0  0  0  0  0  0  0  0  0  0
   -7.2380   23.7570  -32.0120 C   0  0  0  0  0  0  0  0  0  0  0  0
   -8.5490   23.4210  -32.3640 C   0  0  0  0  0  0  0  0  0  0  0  0
   -9.2380   22.4440  -31.6440 C   0  0  0  0  0  0  0  0  0  0  0  0
   -8.6170   21.7990  -30.5700 C   0  0  0  0  0  0  0  0  0  0  0  0
   -7.3070   22.1320  -30.2170 C   0  0  0  0  0  0  0  0  0  0  0  0
   -3.9110   22.3070  -32.5620 C   0  0  0  0  0  0  0  0  0  0  0  0
   -3.2140   21.0890  -33.0820 C   0  0  0  0  0  0  0  0  0  0  0  0
   -2.5060   21.1480  -34.1240 O   0  0  0  0  0  0  0  0  0  0  0  0
   -8.5660   18.3095  -30.7227 H   0  0  0  0  0  0  0  0  0  0  0  0
   -8.6151   19.2293  -32.2649 H   0  0  0  0  0  0  0  0  0  0  0  0
   -8.9196   17.4590  -32.2649 H   0  0  0  0  0  0  0  0  0  0  0  0
   -6.2829   18.8865  -31.6463 H   0  0  0  0  0  0  0  0  0  0  0  0
   -6.5590   17.1225  -31.4276 H   0  0  0  0  0  0  0  0  0  0  0  0
   -5.0142   19.0221  -34.1408 H   0  0  0  0  0  0  0  0  0  0  0  0
   -6.5607   19.0131  -35.1261 H   0  0  0  0  0  0  0  0  0  0  0  0
   -6.5366   20.2173  -32.3596 H   0  0  0  0  0  0  0  0  0  0  0  0
   -5.9165   21.1551  -33.7606 H   0  0  0  0  0  0  0  0  0  0  0  0
   -7.6093   20.5541  -33.7606 H   0  0  0  0  0  0  0  0  0  0  0  0
   -6.0319   15.8026  -32.9786 H   0  0  0  0  0  0  0  0  0  0  0  0
   -5.8195   16.3011  -34.7105 H   0  0  0  0  0  0  0  0  0  0  0  0
   -4.1476   17.6540  -32.5894 H   0  0  0  0  0  0  0  0  0  0  0  0
   -3.7121   15.9875  -33.1169 H   0  0  0  0  0  0  0  0  0  0  0  0
   -1.6686   18.0711  -34.5659 H   0  0  0  0  0  0  0  0  0  0  0  0
   -2.9048   19.3597  -34.7534 H   0  0  0  0  0  0  0  0  0  0  0  0
   -3.1236   17.7737  -32.2376 H   0  0  0  0  0  0  0  0  0  0  0  0
   -1.6180   18.7564  -32.3935 H   0  0  0  0  0  0  0  0  0  0  0  0
   -5.3167   19.9969  -31.5127 H   0  0  0  0  0  0  0  0  0  0  0  0
   -4.1419   18.9748  -30.6201 H   0  0  0  0  0  0  0  0  0  0  0  0
   -4.6152   21.2126  -29.5340 H   0  0  0  0  0  0  0  0  0  0  0  0
   -2.8599   20.9092  -29.9590 H   0  0  0  0  0  0  0  0  0  0  0  0
   -6.6952   24.5227  -32.5856 H   0  0  0  0  0  0  0  0  0  0  0  0
   -9.0378   23.9274  -33.2094 H   0  0  0  0  0  0  0  0  0  0  0  0
  -10.2695   22.1814  -31.9214 H   0  0  0  0  0  0  0  0  0  0  0  0
   -9.1603   21.0289  -30.0027 H   0  0  0  0  0  0  0  0  0  0  0  0
   -6.8182   21.6168  -29.3770 H   0  0  0  0  0  0  0  0  0  0  0  0
   -4.9728   22.2616  -32.8457 H   0  0  0  0  0  0  0  0  0  0  0  0
   -3.4314   23.1960  -32.9976 H   0  0  0  0  0  0  0  0  0  0  0  0
  1  2  1  0
  2  3  1  0
  3  4  1  0
  4  5  1  0
  3  6  1  0
  6  7  1  0
  7  8  1  0
  8  9  1  0
  9 10  1  0
 10 11  1  0
 11 12  1  0
 12 13  1  0
 13 14  1  0
 14 15  1  0
 15 16  2  0
 15 17  2  0
 15 18  1  0
 18 19  2  0
 19 20  1  0
 20 21  2  0
 21 22  1  0
 22 23  2  0
 14 24  1  0
 24 25  1  0
 25 26  2  0
 25 11  1  0
 23 18  1  0
  1 27  1  0
  1 28  1  0
  1 29  1  0
  2 30  1  0
  2 31  1  0
  4 32  1  0
  4 33  1  0
  5 34  1  0
  5 35  1  0
  5 36  1  0
  6 37  1  0
  6 38  1  0
  7 39  1  0
  7 40  1  0
  9 41  1  0
  9 42  1  0
 10 43  1  0
 10 44  1  0
 12 45  1  0
 12 46  1  0
 13 47  1  0
 13 48  1  0
 19 49  1  0
 20 50  1  0
 21 51  1  0
 22 52  1  0
 23 53  1  0
 24 54  1  0
 24 55  1  0
M  END
>  <UniqueID>  (26) 
25

>  <SMILES>  (26) 
CCN(CC)CCOCCN1CCN(S(=O)(=O)c2ccccc2)CC1=O

>  <Energy>  (26) 
58.55260776378313

>  <Genealogy>  (26) 
CCN(CC)CCOCCN1CCN(S(=O)(=O)c2ccccc2)CC1=O (3D coordinates assigned)
CCN(CC)CCOCCN1CCN(S(=O)(=O)c2ccccc2)CC1=O (nonaromatic ring conformer: 58.55260776378313 kcal/mol)

>  <smiles>  (26) 
CCN(CC)CCOCCN1CCN(S(=O)(=O)c2ccccc2)CC1=O

>  <score_type>  (26) 
oracle

>  <origin>  (26) 
adg

>  <m_score__min__energy>  (26) 
-8.0500000000000007

>  <m_primary>  (26) 
energy

$$$$
26:0
     RDKit          3D

 36 37  0  0  0  0  0  0  0  0999 V2000
   -9.0230   18.4190  -31.9110 C   0  0  0  0  0  0  0  0  0  0  0  0
   -7.7440   17.9010  -32.5810 C   0  0  0  0  0  0  0  0  0  0  0  0
   -6.6570   18.9180  -32.5900 N   0  0  1  0  0  0  0  0  0  0  0  0
   -5.4240   18.3990  -33.2470 C   0  0  0  0  0  0  0  0  0  0  0  0
   -4.1510   19.1950  -32.8920 C   0  0  0  0  0  0  0  0  0  0  0  0
   -4.1620   20.6820  -33.3580 C   0  0  2  0  0  0  0  0  0  0  0  0
   -2.8440   21.1780  -33.3270 O   0  0  0  0  0  0  0  0  0  0  0  0
   -5.1220   21.6300  -32.6240 C   0  0  0  0  0  0  0  0  0  0  0  0
   -4.6160   22.8260  -32.0690 C   0  0  0  0  0  0  0  0  0  0  0  0
   -5.4440   23.7270  -31.3930 C   0  0  0  0  0  0  0  0  0  0  0  0
   -4.8650   24.8850  -30.8510 O   0  0  0  0  0  0  0  0  0  0  0  0
   -5.5750   25.8620  -30.0980 C   0  0  0  0  0  0  0  0  0  0  0  0
   -6.8130   23.4480  -31.2800 C   0  0  0  0  0  0  0  0  0  0  0  0
   -7.3440   22.2970  -31.8570 C   0  0  0  0  0  0  0  0  0  0  0  0
   -6.5200   21.3960  -32.5550 C   0  0  0  0  0  0  0  0  0  0  0  0
   -7.1520   20.1800  -33.1910 C   0  0  0  0  0  0  0  0  0  0  0  0
   -8.9089   18.3728  -30.8179 H   0  0  0  0  0  0  0  0  0  0  0  0
   -9.2015   19.4603  -32.2173 H   0  0  0  0  0  0  0  0  0  0  0  0
   -9.8758   17.7954  -32.2173 H   0  0  0  0  0  0  0  0  0  0  0  0
   -7.3931   17.0135  -32.0340 H   0  0  0  0  0  0  0  0  0  0  0  0
   -7.9867   17.6598  -33.6264 H   0  0  0  0  0  0  0  0  0  0  0  0
   -6.4110   19.1410  -31.5950 H   0  0  0  0  0  0  0  0  0  0  0  0
   -5.2783   17.3540  -32.9361 H   0  0  0  0  0  0  0  0  0  0  0  0
   -5.5723   18.4967  -34.3326 H   0  0  0  0  0  0  0  0  0  0  0  0
   -4.0308   19.1794  -31.7987 H   0  0  0  0  0  0  0  0  0  0  0  0
   -3.3212   18.7083  -33.4254 H   0  0  0  0  0  0  0  0  0  0  0  0
   -4.5684   20.6626  -34.3800 H   0  0  0  0  0  0  0  0  0  0  0  0
   -2.6690   21.6000  -34.2100 H   0  0  0  0  0  0  0  0  0  0  0  0
   -3.5448   23.0541  -32.1711 H   0  0  0  0  0  0  0  0  0  0  0  0
   -5.4353   25.6698  -29.0240 H   0  0  0  0  0  0  0  0  0  0  0  0
   -5.1926   26.8636  -30.3440 H   0  0  0  0  0  0  0  0  0  0  0  0
   -6.6458   25.8076  -30.3440 H   0  0  0  0  0  0  0  0  0  0  0  0
   -7.4702   24.1405  -30.7337 H   0  0  0  0  0  0  0  0  0  0  0  0
   -8.4205   22.0902  -31.7657 H   0  0  0  0  0  0  0  0  0  0  0  0
   -8.2422   20.2343  -33.0551 H   0  0  0  0  0  0  0  0  0  0  0  0
   -6.8836   20.1764  -34.2577 H   0  0  0  0  0  0  0  0  0  0  0  0
  1  2  1  0
  2  3  1  0
  3  4  1  0
  4  5  1  0
  5  6  1  0
  6  7  1  0
  6  8  1  0
  8  9  2  0
  9 10  1  0
 10 11  1  0
 11 12  1  0
 10 13  2  0
 13 14  1  0
 14 15  2  0
 15 16  1  0
 16  3  1  0
 15  8  1  0
  1 17  1  0
  1 18  1  0
  1 19  1  0
  2 20  1  0
  2 21  1  0
  3 22  1  1
  4 23  1  0
  4 24  1  0
  5 25  1  0
  5 26  1  0
  6 27  1  6
  7 28  1  0
  9 29  1  0
 12 30  1  0
 12 31  1  0
 12 32  1  0
 13 33  1  0
 14 34  1  0
 16 35  1  0
 16 36  1  0
M  CHG  1   3   1
M  END
>  <UniqueID>  (27) 
26

>  <SMILES>  (27) 
CC[N@H+]1CC[C@H](O)c2cc(OC)ccc2C1

>  <Energy>  (27) 
52.820084792595246

>  <Genealogy>  (27) 
CC[NH+]1CCC(O)c2cc(OC)ccc2C1 (protonated)
CC[N@H+]1CC[C@H](O)c2cc(OC)ccc2C1 (chirality)
CC[N@H+]1CC[C@H](O)c2cc(OC)ccc2C1 (3D coordinates assigned)
CC[N@H+]1CC[C@H](O)c2cc(OC)ccc2C1 (nonaromatic ring conformer: 52.820084792595246 kcal/mol)

>  <smiles>  (27) 
CCN1CCC(O)c2cc(OC)ccc2C1

>  <score_type>  (27) 
oracle

>  <origin>  (27) 
adg

>  <m_score__min__energy>  (27) 
-4.4900000000000002

>  <m_primary>  (27) 
energy

$$$$
27:0
     RDKit          3D

 31 32  0  0  0  0  0  0  0  0999 V2000
   -5.7830   17.7400  -34.5830 C   0  0  0  0  0  0  0  0  0  0  0  0
   -6.8790   17.7680  -33.5070 C   0  0  0  0  0  0  0  0  0  0  0  0
   -7.0100   19.0660  -32.8080 N   0  0  0  0  0  0  0  0  0  0  0  0
   -5.9830   19.2900  -31.7740 C   0  0  0  0  0  0  0  0  0  0  0  0
   -5.9480   20.7810  -31.4180 C   0  0  0  0  0  0  0  0  0  0  0  0
   -7.3100   21.3340  -31.3560 N   0  0  0  0  0  0  0  0  0  0  0  0
   -7.5350   22.7290  -31.6370 C   0  0  0  0  0  0  0  0  0  0  0  0
   -8.5330   23.0710  -32.3300 O   0  0  0  0  0  0  0  0  0  0  0  0
   -6.6310   23.7370  -31.1630 N   0  0  0  0  0  0  0  0  0  0  0  0
   -6.8660   24.6250  -30.1840 C   0  0  0  0  0  0  0  0  0  0  0  0
   -5.7220   25.3680  -30.0010 C   0  0  0  0  0  0  0  0  0  0  0  0
   -4.7650   24.9380  -30.8470 N   0  0  0  0  0  0  0  0  0  0  0  0
   -5.3530   23.9410  -31.5390 C   0  0  0  0  0  0  0  0  0  0  0  0
   -8.4430   20.4090  -31.2330 C   0  0  0  0  0  0  0  0  0  0  0  0
   -8.3900   19.3390  -32.3400 C   0  0  0  0  0  0  0  0  0  0  0  0
   -4.7952   17.7148  -34.0997 H   0  0  0  0  0  0  0  0  0  0  0  0
   -5.9074   16.8447  -35.2099 H   0  0  0  0  0  0  0  0  0  0  0  0
   -5.8616   18.6404  -35.2099 H   0  0  0  0  0  0  0  0  0  0  0  0
   -7.8408   17.5367  -33.9881 H   0  0  0  0  0  0  0  0  0  0  0  0
   -6.5939   17.0266  -32.7461 H   0  0  0  0  0  0  0  0  0  0  0  0
   -6.2288   18.7026  -30.8770 H   0  0  0  0  0  0  0  0  0  0  0  0
   -4.9995   18.9760  -32.1536 H   0  0  0  0  0  0  0  0  0  0  0  0
   -5.4624   20.9070  -30.4391 H   0  0  0  0  0  0  0  0  0  0  0  0
   -5.3843   21.3168  -32.1960 H   0  0  0  0  0  0  0  0  0  0  0  0
   -7.8072   24.7388  -29.6262 H   0  0  0  0  0  0  0  0  0  0  0  0
   -5.6065   26.1869  -29.2757 H   0  0  0  0  0  0  0  0  0  0  0  0
   -4.8461   23.3592  -32.3229 H   0  0  0  0  0  0  0  0  0  0  0  0
   -8.4023   19.9156  -30.2507 H   0  0  0  0  0  0  0  0  0  0  0  0
   -9.3789   20.9782  -31.3336 H   0  0  0  0  0  0  0  0  0  0  0  0
   -8.8194   18.4054  -31.9475 H   0  0  0  0  0  0  0  0  0  0  0  0
   -8.9618   19.7213  -33.1984 H   0  0  0  0  0  0  0  0  0  0  0  0
  1  2  1  0
  2  3  1  0
  3  4  1  0
  4  5  1  0
  5  6  1  0
  6  7  1  0
  7  8  2  0
  7  9  1  0
  9 10  1  0
 10 11  2  0
 11 12  1  0
 12 13  2  0
  6 14  1  0
 14 15  1  0
 15  3  1  0
 13  9  1  0
  1 16  1  0
  1 17  1  0
  1 18  1  0
  2 19  1  0
  2 20  1  0
  4 21  1  0
  4 22  1  0
  5 23  1  0
  5 24  1  0
 10 25  1  0
 11 26  1  0
 13 27  1  0
 14 28  1  0
 14 29  1  0
 15 30  1  0
 15 31  1  0
M  END
>  <UniqueID>  (28) 
27

>  <SMILES>  (28) 
CCN1CCN(C(=O)n2ccnc2)CC1

>  <Energy>  (28) 
70.23728589198934

>  <Genealogy>  (28) 
CCN1CCN(C(=O)n2ccnc2)CC1 (3D coordinates assigned)
CCN1CCN(C(=O)n2ccnc2)CC1 (nonaromatic ring conformer: 70.23728589198934 kcal/mol)

>  <smiles>  (28) 
CCN1CCN(C(=O)n2ccnc2)CC1

>  <score_type>  (28) 
oracle

>  <origin>  (28) 
adg

>  <m_score__min__energy>  (28) 
-5.9199999999999999

>  <m_primary>  (28) 
energy

$$$$
28:0
     RDKit          3D

 28 29  0  0  0  0  0  0  0  0999 V2000
   -6.4690   25.4770  -29.3760 C   0  0  0  0  0  0  0  0  0  0  0  0
   -5.5060   25.9880  -30.4420 C   0  0  0  0  0  0  0  0  0  0  0  0
   -4.6110   24.9550  -30.8540 O   0  0  0  0  0  0  0  0  0  0  0  0
   -4.9870   23.6770  -31.3020 C   0  0  0  0  0  0  0  0  0  0  0  0
   -6.1460   23.4470  -32.0530 C   0  0  0  0  0  0  0  0  0  0  0  0
   -6.4520   22.1850  -32.4510 N   0  0  0  0  0  0  0  0  0  0  0  0
   -5.6830   21.1340  -32.1530 N   0  0  0  0  0  0  0  0  0  0  0  0
   -6.0990   19.8370  -32.6200 C   0  0  0  0  0  0  0  0  0  0  0  0
   -7.0710   19.1140  -31.9060 C   0  0  0  0  0  0  0  0  0  0  0  0
   -7.4660   17.8440  -32.3390 C   0  0  0  0  0  0  0  0  0  0  0  0
   -6.8860   17.2800  -33.4790 C   0  0  0  0  0  0  0  0  0  0  0  0
   -5.9070   17.9840  -34.1860 C   0  0  0  0  0  0  0  0  0  0  0  0
   -5.5090   19.2540  -33.7570 C   0  0  0  0  0  0  0  0  0  0  0  0
   -4.5230   21.3080  -31.4420 C   0  0  0  0  0  0  0  0  0  0  0  0
   -3.7630   20.3300  -31.1990 O   0  0  0  0  0  0  0  0  0  0  0  0
   -4.1650   22.5860  -30.9990 C   0  0  0  0  0  0  0  0  0  0  0  0
   -2.5530   22.8490  -29.9920 Br  0  0  0  0  0  0  0  0  0  0  0  0
   -6.0601   25.6940  -28.3781 H   0  0  0  0  0  0  0  0  0  0  0  0
   -7.4418   25.9776  -29.4904 H   0  0  0  0  0  0  0  0  0  0  0  0
   -6.5998   24.3908  -29.4904 H   0  0  0  0  0  0  0  0  0  0  0  0
   -6.0824   26.3341  -31.3126 H   0  0  0  0  0  0  0  0  0  0  0  0
   -4.9181   26.8156  -30.0184 H   0  0  0  0  0  0  0  0  0  0  0  0
   -6.8064   24.2853  -32.3197 H   0  0  0  0  0  0  0  0  0  0  0  0
   -7.5229   19.5493  -31.0025 H   0  0  0  0  0  0  0  0  0  0  0  0
   -8.2343   17.2881  -31.7816 H   0  0  0  0  0  0  0  0  0  0  0  0
   -7.2000   16.2823  -33.8197 H   0  0  0  0  0  0  0  0  0  0  0  0
   -5.4489   17.5383  -35.0813 H   0  0  0  0  0  0  0  0  0  0  0  0
   -4.7311   19.8000  -34.3108 H   0  0  0  0  0  0  0  0  0  0  0  0
  1  2  1  0
  2  3  1  0
  3  4  1  0
  4  5  1  0
  5  6  2  0
  6  7  1  0
  7  8  1  0
  8  9  2  0
  9 10  1  0
 10 11  2  0
 11 12  1  0
 12 13  2  0
  7 14  1  0
 14 15  2  0
 14 16  1  0
 16 17  1  0
 16  4  2  0
 13  8  1  0
  1 18  1  0
  1 19  1  0
  1 20  1  0
  2 21  1  0
  2 22  1  0
  5 23  1  0
  9 24  1  0
 10 25  1  0
 11 26  1  0
 12 27  1  0
 13 28  1  0
M  END
>  <UniqueID>  (29) 
28

>  <SMILES>  (29) 
CCOc1cnn(-c2ccccc2)c(=O)c1Br

>  <Energy>  (29) 
35.39047480389548

>  <Genealogy>  (29) 
CCOc1cnn(-c2ccccc2)c(=O)c1Br (3D coordinates assigned)
CCOc1cnn(-c2ccccc2)c(=O)c1Br (optimized conformer: 35.39047480389548 kcal/mol)

>  <smiles>  (29) 
CCOc1cnn(-c2ccccc2)c(=O)c1Br

>  <score_type>  (29) 
oracle

>  <origin>  (29) 
adg

>  <m_score__min__energy>  (29) 
-6.8799999999999999

>  <m_primary>  (29) 
energy

$$$$
29:0
     RDKit          3D

 78 82  0  0  0  0  0  0  0  0999 V2000
    0.2810   20.3700  -35.5720 C   0  0  0  0  0  0  0  0  0  0  0  0
    0.1080   21.4430  -34.6480 O   0  0  0  0  0  0  0  0  0  0  0  0
   -0.7970   21.4300  -33.5750 C   0  0  0  0  0  0  0  0  0  0  0  0
   -0.2940   21.5830  -32.2800 C   0  0  0  0  0  0  0  0  0  0  0  0
   -1.1460   21.5190  -31.1730 C   0  0  0  0  0  0  0  0  0  0  0  0
   -2.5250   21.3170  -31.3520 C   0  0  0  0  0  0  0  0  0  0  0  0
   -3.4460   21.2520  -30.1570 C   0  0  0  0  0  0  0  0  0  0  0  0
   -2.8490   21.9300  -28.9970 N   0  0  0  0  0  0  0  0  0  0  0  0
   -1.9130   21.1520  -28.2270 C   0  0  0  0  0  0  0  0  0  0  0  0
   -2.2890   20.0480  -27.7350 O   0  0  0  0  0  0  0  0  0  0  0  0
   -0.5200   21.5310  -28.1230 N   0  0  2  0  0  0  0  0  0  0  0  0
    0.2930   20.4870  -27.4250 C   0  0  0  0  0  0  0  0  0  0  0  0
    0.5200   19.2740  -28.3010 C   0  0  0  0  0  0  0  0  0  0  0  0
    0.5210   17.9890  -27.7360 C   0  0  0  0  0  0  0  0  0  0  0  0
    0.6480   16.8640  -28.5550 C   0  0  0  0  0  0  0  0  0  0  0  0
    0.7520   17.0110  -29.9380 C   0  0  0  0  0  0  0  0  0  0  0  0
    0.7570   18.2860  -30.5110 C   0  0  0  0  0  0  0  0  0  0  0  0
    0.8490   18.4350  -31.9360 C   0  0  0  0  0  0  0  0  0  0  0  0
    0.9260   18.5490  -33.0860 N   0  0  0  0  0  0  0  0  0  0  0  0
    0.6390   19.4160  -29.6930 C   0  0  0  0  0  0  0  0  0  0  0  0
   -0.3530   22.9180  -27.5920 C   0  0  2  0  0  0  0  0  0  0  0  0
   -0.9370   23.0270  -26.1520 C   0  0  0  0  0  0  0  0  0  0  0  0
   -0.7330   24.3910  -25.5410 C   0  0  0  0  0  0  0  0  0  0  0  0
    0.4830   24.7210  -24.9200 C   0  0  0  0  0  0  0  0  0  0  0  0
    0.6610   25.9900  -24.3590 C   0  0  0  0  0  0  0  0  0  0  0  0
   -0.3660   26.9350  -24.4260 C   0  0  0  0  0  0  0  0  0  0  0  0
   -1.5800   26.6080  -25.0360 C   0  0  0  0  0  0  0  0  0  0  0  0
   -1.7670   25.3380  -25.5840 C   0  0  0  0  0  0  0  0  0  0  0  0
   -0.8910   24.0730  -28.5130 C   0  0  1  0  0  0  0  0  0  0  0  0
   -0.4610   23.8300  -29.8300 O   0  0  0  0  0  0  0  0  0  0  0  0
   -2.4280   24.3830  -28.5150 C   0  0  1  0  0  0  0  0  0  0  0  0
   -2.8010   25.1690  -29.6280 O   0  0  0  0  0  0  0  0  0  0  0  0
   -3.3920   23.1560  -28.3570 C   0  0  1  0  0  0  0  0  0  0  0  0
   -4.9330   23.4360  -28.5270 C   0  0  0  0  0  0  0  0  0  0  0  0
   -5.5910   23.2730  -29.8880 C   0  0  0  0  0  0  0  0  0  0  0  0
   -6.8740   22.6920  -29.9850 C   0  0  0  0  0  0  0  0  0  0  0  0
   -7.5270   22.6000  -31.2190 C   0  0  0  0  0  0  0  0  0  0  0  0
   -6.9320   23.1280  -32.3630 C   0  0  0  0  0  0  0  0  0  0  0  0
   -5.7020   23.7760  -32.2700 C   0  0  0  0  0  0  0  0  0  0  0  0
   -5.0490   23.8730  -31.0370 C   0  0  0  0  0  0  0  0  0  0  0  0
   -3.0420   21.2250  -32.6530 C   0  0  0  0  0  0  0  0  0  0  0  0
   -2.1830   21.2680  -33.7570 C   0  0  0  0  0  0  0  0  0  0  0  0
    0.4324   19.4310  -35.0194 H   0  0  0  0  0  0  0  0  0  0  0  0
   -0.6147   20.2828  -36.2046 H   0  0  0  0  0  0  0  0  0  0  0  0
    1.1587   20.5688  -36.2046 H   0  0  0  0  0  0  0  0  0  0  0  0
    0.7820   21.7554  -32.1302 H   0  0  0  0  0  0  0  0  0  0  0  0
   -0.7352   21.6272  -30.1583 H   0  0  0  0  0  0  0  0  0  0  0  0
   -4.3984   21.7412  -30.4093 H   0  0  0  0  0  0  0  0  0  0  0  0
   -3.6131   20.1958  -29.8991 H   0  0  0  0  0  0  0  0  0  0  0  0
   -0.2110   21.5840  -29.1240 H   0  0  0  0  0  0  0  0  0  0  0  0
    1.2680   20.9176  -27.1532 H   0  0  0  0  0  0  0  0  0  0  0  0
   -0.2595   20.1645  -26.5302 H   0  0  0  0  0  0  0  0  0  0  0  0
    0.4217   17.8675  -26.6472 H   0  0  0  0  0  0  0  0  0  0  0  0
    0.6660   15.8593  -28.1075 H   0  0  0  0  0  0  0  0  0  0  0  0
    0.8303   16.1210  -30.5797 H   0  0  0  0  0  0  0  0  0  0  0  0
    0.6395   20.4198  -30.1428 H   0  0  0  0  0  0  0  0  0  0  0  0
    0.7348   23.0800  -27.5701 H   0  0  0  0  0  0  0  0  0  0  0  0
   -2.0162   22.8182  -26.1935 H   0  0  0  0  0  0  0  0  0  0  0  0
   -0.4048   22.2987  -25.5224 H   0  0  0  0  0  0  0  0  0  0  0  0
    1.2957   23.9811  -24.8748 H   0  0  0  0  0  0  0  0  0  0  0  0
    1.6103   26.2441  -23.8647 H   0  0  0  0  0  0  0  0  0  0  0  0
   -0.2187   27.9376  -23.9981 H   0  0  0  0  0  0  0  0  0  0  0  0
   -2.3888   27.3520  -25.0843 H   0  0  0  0  0  0  0  0  0  0  0  0
   -2.7285   25.0788  -26.0512 H   0  0  0  0  0  0  0  0  0  0  0  0
   -0.4654   24.9818  -28.0625 H   0  0  0  0  0  0  0  0  0  0  0  0
   -0.8920   24.5010  -30.4180 H   0  0  0  0  0  0  0  0  0  0  0  0
   -2.5655   24.9566  -27.5865 H   0  0  0  0  0  0  0  0  0  0  0  0
   -1.9920   25.6760  -29.9380 H   0  0  0  0  0  0  0  0  0  0  0  0
   -3.3953   22.9289  -27.2807 H   0  0  0  0  0  0  0  0  0  0  0  0
   -5.4567   22.7570  -27.8380 H   0  0  0  0  0  0  0  0  0  0  0  0
   -5.0159   24.5158  -28.3345 H   0  0  0  0  0  0  0  0  0  0  0  0
   -7.3661   22.3071  -29.0797 H   0  0  0  0  0  0  0  0  0  0  0  0
   -8.5100   22.1109  -31.2860 H   0  0  0  0  0  0  0  0  0  0  0  0
   -7.4325   23.0334  -33.3380 H   0  0  0  0  0  0  0  0  0  0  0  0
   -5.2431   24.2127  -33.1693 H   0  0  0  0  0  0  0  0  0  0  0  0
   -4.1003   24.4253  -30.9660 H   0  0  0  0  0  0  0  0  0  0  0  0
   -4.1261   21.1187  -32.8058 H   0  0  0  0  0  0  0  0  0  0  0  0
   -2.5937   21.1746  -34.7732 H   0  0  0  0  0  0  0  0  0  0  0  0
  1  2  1  0
  2  3  1  0
  3  4  2  0
  4  5  1  0
  5  6  2  0
  6  7  1  0
  7  8  1  0
  8  9  1  0
  9 10  2  0
  9 11  1  0
 11 12  1  0
 12 13  1  0
 13 14  2  0
 14 15  1  0
 15 16  2  0
 16 17  1  0
 17 18  1  0
 18 19  3  0
 17 20  2  0
 11 21  1  0
 21 22  1  0
 22 23  1  0
 23 24  2  0
 24 25  1  0
 25 26  2  0
 26 27  1  0
 27 28  2  0
 21 29  1  0
 29 30  1  0
 29 31  1  0
 31 32  1  0
 31 33  1  0
 33 34  1  0
 34 35  1  0
 35 36  2  0
 36 37  1  0
 37 38  2  0
 38 39  1  0
 39 40  2  0
  6 41  1  0
 41 42  2  0
 42  3  1  0
 33  8  1  0
 40 35  1  0
 20 13  1  0
 28 23  1  0
  1 43  1  0
  1 44  1  0
  1 45  1  0
  4 46  1  0
  5 47  1  0
  7 48  1  0
  7 49  1  0
 11 50  1  6
 12 51  1  0
 12 52  1  0
 14 53  1  0
 15 54  1  0
 16 55  1  0
 20 56  1  0
 21 57  1  1
 22 58  1  0
 22 59  1  0
 24 60  1  0
 25 61  1  0
 26 62  1  0
 27 63  1  0
 28 64  1  0
 29 65  1  1
 30 66  1  0
 31 67  1  1
 32 68  1  0
 33 69  1  1
 34 70  1  0
 34 71  1  0
 36 72  1  0
 37 73  1  0
 38 74  1  0
 39 75  1  0
 40 76  1  0
 41 77  1  0
 42 78  1  0
M  CHG  1  11   1
M  END
>  <UniqueID>  (30) 
29

>  <SMILES>  (30) 
COc1ccc(CN2C(=O)[N@H+](Cc3cccc(C#N)c3)[C@H](Cc3ccccc3)C(O)C(O)C2Cc2ccccc2)cc1

>  <Energy>  (30) 
123.46814471034357

>  <Genealogy>  (30) 
COc1ccc(CN2C(=O)[NH+](Cc3cccc(C#N)c3)C(Cc3ccccc3)C(O)C(O)C2Cc2ccccc2)cc1 (protonated)
COc1ccc(CN2C(=O)[N@H+](Cc3cccc(C#N)c3)[C@H](Cc3ccccc3)C(O)C(O)C2Cc2ccccc2)cc1 (chirality)
COc1ccc(CN2C(=O)[N@H+](Cc3cccc(C#N)c3)[C@H](Cc3ccccc3)C(O)C(O)C2Cc2ccccc2)cc1 (3D coordinates assigned)
COc1ccc(CN2C(=O)[N@H+](Cc3cccc(C#N)c3)[C@H](Cc3ccccc3)C(O)C(O)C2Cc2ccccc2)cc1 (nonaromatic ring conformer: 123.46814471034357 kcal/mol)

>  <smiles>  (30) 
COc1ccc(CN2C(=O)N(Cc3cccc(C#N)c3)C(Cc3ccccc3)C(O)C(O)C2Cc2ccccc2)cc1

>  <score_type>  (30) 
oracle

>  <origin>  (30) 
adg

>  <m_score__min__energy>  (30) 
-9.3100000000000005

>  <m_primary>  (30) 
energy

$$$$
30:0
     RDKit          3D

 60 63  0  0  0  0  0  0  0  0999 V2000
   -5.7140   25.6440  -30.1200 C   0  0  0  0  0  0  0  0  0  0  0  0
   -5.0470   24.9410  -31.1640 O   0  0  0  0  0  0  0  0  0  0  0  0
   -5.2960   23.6020  -31.5040 C   0  0  0  0  0  0  0  0  0  0  0  0
   -4.2010   22.7710  -31.7560 C   0  0  0  0  0  0  0  0  0  0  0  0
   -4.3740   21.4190  -32.1090 C   0  0  0  0  0  0  0  0  0  0  0  0
   -3.2170   20.5980  -32.3940 N   0  0  0  0  0  0  0  0  0  0  0  0
   -3.0150   20.3650  -33.8390 C   0  0  0  0  0  0  0  0  0  0  0  0
   -1.5330   20.2490  -34.2520 C   0  0  0  0  0  0  0  0  0  0  0  0
   -0.6300   20.4480  -33.1000 N   0  0  0  0  0  0  0  0  0  0  0  0
    0.6100   21.1200  -33.5310 C   0  0  0  0  0  0  0  0  0  0  0  0
   -0.3280   19.1860  -32.3800 C   0  0  0  0  0  0  0  0  0  0  0  0
   -0.3750   19.4320  -30.8750 C   0  0  0  0  0  0  0  0  0  0  0  0
   -1.6080   20.0610  -30.5290 O   0  0  0  0  0  0  0  0  0  0  0  0
   -1.7620   21.2020  -29.7190 C   0  0  0  0  0  0  0  0  0  0  0  0
   -3.0080   21.3120  -29.1320 C   0  0  0  0  0  0  0  0  0  0  0  0
   -3.5010   22.2700  -28.2640 C   0  0  0  0  0  0  0  0  0  0  0  0
   -2.8920   23.4140  -27.7250 C   0  0  0  0  0  0  0  0  0  0  0  0
   -3.7180   24.1480  -26.8370 C   0  0  0  0  0  0  0  0  0  0  0  0
   -3.2850   25.3140  -26.2220 C   0  0  0  0  0  0  0  0  0  0  0  0
   -2.0110   25.7880  -26.4720 C   0  0  0  0  0  0  0  0  0  0  0  0
   -1.1680   25.0940  -27.3340 C   0  0  0  0  0  0  0  0  0  0  0  0
   -1.5660   23.8900  -27.9860 C   0  0  0  0  0  0  0  0  0  0  0  0
   -0.5970   23.2830  -28.8330 C   0  0  0  0  0  0  0  0  0  0  0  0
    0.5240   23.8560  -28.9480 O   0  0  0  0  0  0  0  0  0  0  0  0
   -0.7070   22.1040  -29.5760 C   0  0  0  0  0  0  0  0  0  0  0  0
   -5.6820   20.8950  -32.1840 C   0  0  0  0  0  0  0  0  0  0  0  0
   -5.8870   19.5860  -32.4980 N   0  0  0  0  0  0  0  0  0  0  0  0
   -7.1360   19.0520  -32.5850 C   0  0  0  0  0  0  0  0  0  0  0  0
   -8.2570   19.8480  -32.3510 C   0  0  0  0  0  0  0  0  0  0  0  0
   -8.0850   21.1940  -32.0200 C   0  0  0  0  0  0  0  0  0  0  0  0
   -6.7940   21.7320  -31.9310 C   0  0  0  0  0  0  0  0  0  0  0  0
   -6.5980   23.0780  -31.5960 C   0  0  0  0  0  0  0  0  0  0  0  0
   -5.3625   25.2735  -29.1457 H   0  0  0  0  0  0  0  0  0  0  0  0
   -5.4957   26.7188  -30.2040 H   0  0  0  0  0  0  0  0  0  0  0  0
   -6.7988   25.4825  -30.2040 H   0  0  0  0  0  0  0  0  0  0  0  0
   -3.1835   23.1814  -31.6770 H   0  0  0  0  0  0  0  0  0  0  0  0
   -3.3350   19.6720  -31.9210 H   0  0  0  0  0  0  0  0  0  0  0  0
   -2.3560   21.0270  -31.9880 H   0  0  0  0  0  0  0  0  0  0  0  0
   -3.5254   19.4301  -34.1138 H   0  0  0  0  0  0  0  0  0  0  0  0
   -3.4254   21.2401  -34.3641 H   0  0  0  0  0  0  0  0  0  0  0  0
   -1.3575   19.2486  -34.6745 H   0  0  0  0  0  0  0  0  0  0  0  0
   -1.3206   21.0321  -34.9947 H   0  0  0  0  0  0  0  0  0  0  0  0
    1.1848   21.4315  -32.6463 H   0  0  0  0  0  0  0  0  0  0  0  0
    1.2130   20.4252  -34.1341 H   0  0  0  0  0  0  0  0  0  0  0  0
    0.3571   22.0045  -34.1341 H   0  0  0  0  0  0  0  0  0  0  0  0
   -1.0732   18.4232  -32.6498 H   0  0  0  0  0  0  0  0  0  0  0  0
    0.6759   18.8357  -32.6619 H   0  0  0  0  0  0  0  0  0  0  0  0
   -0.2929   18.4717  -30.3448 H   0  0  0  0  0  0  0  0  0  0  0  0
    0.4612   20.0859  -30.5864 H   0  0  0  0  0  0  0  0  0  0  0  0
   -3.7180   20.5143  -29.3957 H   0  0  0  0  0  0  0  0  0  0  0  0
   -4.5409   22.1086  -27.9437 H   0  0  0  0  0  0  0  0  0  0  0  0
   -4.7341   23.7817  -26.6290 H   0  0  0  0  0  0  0  0  0  0  0  0
   -3.9528   25.8588  -25.5384 H   0  0  0  0  0  0  0  0  0  0  0  0
   -1.6638   26.7136  -25.9896 H   0  0  0  0  0  0  0  0  0  0  0  0
   -0.1580   25.4883  -27.5193 H   0  0  0  0  0  0  0  0  0  0  0  0
    0.1955   21.8416  -30.1476 H   0  0  0  0  0  0  0  0  0  0  0  0
   -7.2616   17.9895  -32.8406 H   0  0  0  0  0  0  0  0  0  0  0  0
   -9.2674   19.4197  -32.4264 H   0  0  0  0  0  0  0  0  0  0  0  0
   -8.9615   21.8308  -31.8295 H   0  0  0  0  0  0  0  0  0  0  0  0
   -7.4651   23.7272  -31.4043 H   0  0  0  0  0  0  0  0  0  0  0  0
  1  2  1  0
  2  3  1  0
  3  4  2  0
  4  5  1  0
  5  6  1  0
  6  7  1  0
  7  8  1  0
  8  9  1  0
  9 10  1  0
  9 11  1  0
 11 12  1  0
 12 13  1  0
 13 14  1  0
 14 15  1  0
 15 16  2  0
 16 17  1  0
 17 18  2  0
 18 19  1  0
 19 20  2  0
 20 21  1  0
 21 22  2  0
 22 23  1  0
 23 24  2  0
 23 25  1  0
  5 26  2  0
 26 27  1  0
 27 28  2  0
 28 29  1  0
 29 30  2  0
 30 31  1  0
 31 32  2  0
 32  3  1  0
 25 14  2  0
 31 26  1  0
 22 17  1  0
  1 33  1  0
  1 34  1  0
  1 35  1  0
  4 36  1  0
  6 37  1  0
  6 38  1  0
  7 39  1  0
  7 40  1  0
  8 41  1  0
  8 42  1  0
 10 43  1  0
 10 44  1  0
 10 45  1  0
 11 46  1  0
 11 47  1  0
 12 48  1  0
 12 49  1  0
 15 50  1  0
 16 51  1  0
 18 52  1  0
 19 53  1  0
 20 54  1  0
 21 55  1  0
 25 56  1  0
 28 57  1  0
 29 58  1  0
 30 59  1  0
 32 60  1  0
M  CHG  1   6   1
M  END
>  <UniqueID>  (31) 
30

>  <SMILES>  (31) 
COc1cc([NH2+]CCN(C)CCOc2ccc3ccccc3c(=O)c2)c2ncccc2c1

>  <Energy>  (31) 
100.08920077545494

>  <Genealogy>  (31) 
COc1cc([NH2+]CCN(C)CCOc2ccc3ccccc3c(=O)c2)c2ncccc2c1 (protonated)
COc1cc([NH2+]CCN(C)CCOc2ccc3ccccc3c(=O)c2)c2ncccc2c1 (3D coordinates assigned)
COc1cc([NH2+]CCN(C)CCOc2ccc3ccccc3c(=O)c2)c2ncccc2c1 (optimized conformer: 100.08920077545494 kcal/mol)

>  <smiles>  (31) 
COc1cc(NCCN(C)CCOc2ccc3ccccc3c(=O)c2)c2ncccc2c1

>  <score_type>  (31) 
oracle

>  <origin>  (31) 
adg

>  <m_score__min__energy>  (31) 
-8.5399999999999991

>  <m_primary>  (31) 
energy

$$$$
31:0
     RDKit          3D

 49 52  0  0  0  0  0  0  0  0999 V2000
   -3.5220   22.2290  -29.8830 C   0  0  0  0  0  0  0  0  0  0  0  0
   -3.4950   23.4240  -30.8460 C   0  0  0  0  0  0  0  0  0  0  0  0
   -4.2720   24.6030  -30.3920 N   0  0  0  0  0  0  0  0  0  0  0  0
   -4.5800   24.5500  -28.9550 C   0  0  0  0  0  0  0  0  0  0  0  0
   -5.4890   24.8910  -31.1860 C   0  0  0  0  0  0  0  0  0  0  0  0
   -6.4100   23.6680  -31.3010 C   0  0  0  0  0  0  0  0  0  0  0  0
   -6.2350   23.0070  -32.5940 N   0  0  0  0  0  0  0  0  0  0  0  0
   -6.0580   21.5860  -32.6750 C   0  0  0  0  0  0  0  0  0  0  0  0
   -7.1160   20.6690  -32.4730 C   0  0  0  0  0  0  0  0  0  0  0  0
   -8.4390   21.1210  -32.3160 C   0  0  0  0  0  0  0  0  0  0  0  0
   -9.4850   20.2150  -32.1560 C   0  0  0  0  0  0  0  0  0  0  0  0
   -9.2350   18.8460  -32.1750 C   0  0  0  0  0  0  0  0  0  0  0  0
   -7.9350   18.3680  -32.3410 C   0  0  0  0  0  0  0  0  0  0  0  0
   -6.8410   19.2570  -32.4700 C   0  0  0  0  0  0  0  0  0  0  0  0
   -5.5390   18.7970  -32.6190 N   0  0  0  0  0  0  0  0  0  0  0  0
   -5.1730   17.3970  -32.3560 C   0  0  0  0  0  0  0  0  0  0  0  0
   -4.5740   19.7090  -32.9620 C   0  0  0  0  0  0  0  0  0  0  0  0
   -4.8060   21.0650  -32.9640 C   0  0  0  0  0  0  0  0  0  0  0  0
   -3.7140   21.7430  -33.2450 O   0  0  0  0  0  0  0  0  0  0  0  0
   -2.7640   20.8590  -33.4540 C   0  0  0  0  0  0  0  0  0  0  0  0
   -1.4420   21.1260  -33.8020 C   0  0  0  0  0  0  0  0  0  0  0  0
   -0.5870   20.0360  -34.0340 C   0  0  0  0  0  0  0  0  0  0  0  0
   -1.0700   18.7150  -33.9290 C   0  0  0  0  0  0  0  0  0  0  0  0
   -2.4080   18.4670  -33.5730 C   0  0  0  0  0  0  0  0  0  0  0  0
   -3.2320   19.5670  -33.3070 C   0  0  0  0  0  0  0  0  0  0  0  0
   -3.5138   22.5940  -28.8454 H   0  0  0  0  0  0  0  0  0  0  0  0
   -4.4337   21.6386  -30.0568 H   0  0  0  0  0  0  0  0  0  0  0  0
   -2.6379   21.5980  -30.0568 H   0  0  0  0  0  0  0  0  0  0  0  0
   -2.4479   23.7339  -30.9783 H   0  0  0  0  0  0  0  0  0  0  0  0
   -3.9661   23.0818  -31.7793 H   0  0  0  0  0  0  0  0  0  0  0  0
   -3.6581   24.7086  -28.3763 H   0  0  0  0  0  0  0  0  0  0  0  0
   -5.3085   25.3360  -28.7069 H   0  0  0  0  0  0  0  0  0  0  0  0
   -5.0038   23.5657  -28.7069 H   0  0  0  0  0  0  0  0  0  0  0  0
   -6.0436   25.7076  -30.7005 H   0  0  0  0  0  0  0  0  0  0  0  0
   -5.1712   25.1708  -32.2012 H   0  0  0  0  0  0  0  0  0  0  0  0
   -6.1683   22.9574  -30.4969 H   0  0  0  0  0  0  0  0  0  0  0  0
   -7.4542   24.0030  -31.2142 H   0  0  0  0  0  0  0  0  0  0  0  0
   -5.8540   23.5880  -33.3750 H   0  0  0  0  0  0  0  0  0  0  0  0
   -8.6496   22.2007  -32.3196 H   0  0  0  0  0  0  0  0  0  0  0  0
  -10.5119   20.5828  -32.0142 H   0  0  0  0  0  0  0  0  0  0  0  0
  -10.0676   18.1366  -32.0584 H   0  0  0  0  0  0  0  0  0  0  0  0
   -7.7572   17.2829  -32.3721 H   0  0  0  0  0  0  0  0  0  0  0  0
   -5.1287   17.2274  -31.2701 H   0  0  0  0  0  0  0  0  0  0  0  0
   -5.9272   16.7311  -32.8006 H   0  0  0  0  0  0  0  0  0  0  0  0
   -4.1894   17.1854  -32.8006 H   0  0  0  0  0  0  0  0  0  0  0  0
   -1.0782   22.1602  -33.8925 H   0  0  0  0  0  0  0  0  0  0  0  0
    0.4657   20.2137  -34.2992 H   0  0  0  0  0  0  0  0  0  0  0  0
   -0.3937   17.8705  -34.1275 H   0  0  0  0  0  0  0  0  0  0  0  0
   -2.7952   17.4396  -33.5056 H   0  0  0  0  0  0  0  0  0  0  0  0
  1  2  1  0
  2  3  1  0
  3  4  1  0
  3  5  1  0
  5  6  1  0
  6  7  1  0
  7  8  1  0
  8  9  2  0
  9 10  1  0
 10 11  2  0
 11 12  1  0
 12 13  2  0
 13 14  1  0
 14 15  2  0
 15 16  1  0
 15 17  1  0
 17 18  2  0
 18 19  1  0
 19 20  1  0
 20 21  2  0
 21 22  1  0
 22 23  2  0
 23 24  1  0
 24 25  2  0
 18  8  1  0
 25 20  1  0
 14  9  1  0
 25 17  1  0
  1 26  1  0
  1 27  1  0
  1 28  1  0
  2 29  1  0
  2 30  1  0
  4 31  1  0
  4 32  1  0
  4 33  1  0
  5 34  1  0
  5 35  1  0
  6 36  1  0
  6 37  1  0
  7 38  1  0
 10 39  1  0
 11 40  1  0
 12 41  1  0
 13 42  1  0
 16 43  1  0
 16 44  1  0
 16 45  1  0
 21 46  1  0
 22 47  1  0
 23 48  1  0
 24 49  1  0
M  CHG  1  15   1
M  END
>  <UniqueID>  (32) 
31

>  <SMILES>  (32) 
CCN(C)CCNc1c2ccccc2[n+](C)c2c1oc1ccccc12

>  <Energy>  (32) 
112.77204742184317

>  <Genealogy>  (32) 
CCN(C)CCNc1c2ccccc2[n+](C)c2c1oc1ccccc12 (3D coordinates assigned)
CCN(C)CCNc1c2ccccc2[n+](C)c2c1oc1ccccc12 (optimized conformer: 112.77204742184317 kcal/mol)

>  <smiles>  (32) 
CCN(C)CCNc1c2ccccc2[n+](C)c2c1oc1ccccc12

>  <score_type>  (32) 
oracle

>  <origin>  (32) 
adg

>  <m_score__min__energy>  (32) 
-8.2599999999999998

>  <m_primary>  (32) 
energy

$$$$
32:0
     RDKit          3D

 44 45  0  0  0  0  0  0  0  0999 V2000
   -4.0910   24.1150  -28.2080 C   0  0  0  0  0  0  0  0  0  0  0  0
   -3.1710   24.1090  -29.4230 C   0  0  0  0  0  0  0  0  0  0  0  0
   -3.7170   24.9060  -30.4720 O   0  0  0  0  0  0  0  0  0  0  0  0
   -5.0920   25.0800  -30.6760 C   0  0  0  0  0  0  0  0  0  0  0  0
   -5.6290   26.1980  -30.4480 O   0  0  0  0  0  0  0  0  0  0  0  0
   -5.9100   23.9500  -31.1700 C   0  0  0  0  0  0  0  0  0  0  0  0
   -5.3760   23.0180  -32.0780 C   0  0  0  0  0  0  0  0  0  0  0  0
   -6.1530   21.9530  -32.5400 C   0  0  0  0  0  0  0  0  0  0  0  0
   -7.4800   21.7970  -32.1050 C   0  0  0  0  0  0  0  0  0  0  0  0
   -8.2760   20.6860  -32.5730 N   0  0  0  0  0  0  0  0  0  0  0  0
   -8.5960   19.7470  -31.4840 C   0  0  0  0  0  0  0  0  0  0  0  0
   -7.7760   18.4370  -31.5920 C   0  0  0  0  0  0  0  0  0  0  0  0
   -6.9740   18.3170  -32.8290 N   0  0  0  0  0  0  0  0  0  0  0  0
   -7.0170   16.9630  -33.4220 C   0  0  0  0  0  0  0  0  0  0  0  0
   -5.9910   16.8130  -34.5650 C   0  0  0  0  0  0  0  0  0  0  0  0
   -5.6130   18.1210  -35.1200 N   0  0  0  0  0  0  0  0  0  0  0  0
   -4.9660   18.9710  -34.1050 C   0  0  0  0  0  0  0  0  0  0  0  0
   -5.5960   18.8190  -32.7050 C   0  0  0  0  0  0  0  0  0  0  0  0
   -8.0160   22.7300  -31.2010 C   0  0  0  0  0  0  0  0  0  0  0  0
   -7.2390   23.7950  -30.7370 C   0  0  0  0  0  0  0  0  0  0  0  0
   -3.4856   24.1111  -27.2896 H   0  0  0  0  0  0  0  0  0  0  0  0
   -4.7199   25.0173  -28.2287 H   0  0  0  0  0  0  0  0  0  0  0  0
   -4.7316   23.2210  -28.2287 H   0  0  0  0  0  0  0  0  0  0  0  0
   -2.1897   24.5140  -29.1350 H   0  0  0  0  0  0  0  0  0  0  0  0
   -3.0661   23.0747  -29.7824 H   0  0  0  0  0  0  0  0  0  0  0  0
   -4.3387   23.1286  -32.4270 H   0  0  0  0  0  0  0  0  0  0  0  0
   -5.7228   21.2310  -33.2497 H   0  0  0  0  0  0  0  0  0  0  0  0
   -7.7330   20.1750  -33.3090 H   0  0  0  0  0  0  0  0  0  0  0  0
   -9.1590   21.0240  -33.0250 H   0  0  0  0  0  0  0  0  0  0  0  0
   -8.3712   20.2290  -30.5211 H   0  0  0  0  0  0  0  0  0  0  0  0
   -9.6627   19.4889  -31.5585 H   0  0  0  0  0  0  0  0  0  0  0  0
   -7.0915   18.3880  -30.7323 H   0  0  0  0  0  0  0  0  0  0  0  0
   -8.5037   17.6123  -31.6091 H   0  0  0  0  0  0  0  0  0  0  0  0
   -6.7915   16.2230  -32.6400 H   0  0  0  0  0  0  0  0  0  0  0  0
   -8.0225   16.8000  -33.8373 H   0  0  0  0  0  0  0  0  0  0  0  0
   -5.0906   16.3157  -34.1751 H   0  0  0  0  0  0  0  0  0  0  0  0
   -6.4499   16.2157  -35.3667 H   0  0  0  0  0  0  0  0  0  0  0  0
   -6.4810   18.6000  -35.4620 H   0  0  0  0  0  0  0  0  0  0  0  0
   -3.9027   18.6963  -34.0431 H   0  0  0  0  0  0  0  0  0  0  0  0
   -5.1009   20.0175  -34.4160 H   0  0  0  0  0  0  0  0  0  0  0  0
   -5.0008   18.1089  -32.1121 H   0  0  0  0  0  0  0  0  0  0  0  0
   -5.6105   19.7989  -32.2055 H   0  0  0  0  0  0  0  0  0  0  0  0
   -9.0548   22.6212  -30.8560 H   0  0  0  0  0  0  0  0  0  0  0  0
   -7.6701   24.5172  -30.0280 H   0  0  0  0  0  0  0  0  0  0  0  0
  1  2  1  0
  2  3  1  0
  3  4  1  0
  4  5  2  0
  4  6  1  0
  6  7  2  0
  7  8  1  0
  8  9  2  0
  9 10  1  0
 10 11  1  0
 11 12  1  0
 12 13  1  0
 13 14  1  0
 14 15  1  0
 15 16  1  0
 16 17  1  0
 17 18  1  0
  9 19  1  0
 19 20  2  0
 20  6  1  0
 18 13  1  0
  1 21  1  0
  1 22  1  0
  1 23  1  0
  2 24  1  0
  2 25  1  0
  7 26  1  0
  8 27  1  0
 10 28  1  0
 10 29  1  0
 11 30  1  0
 11 31  1  0
 12 32  1  0
 12 33  1  0
 14 34  1  0
 14 35  1  0
 15 36  1  0
 15 37  1  0
 16 38  1  0
 17 39  1  0
 17 40  1  0
 18 41  1  0
 18 42  1  0
 19 43  1  0
 20 44  1  0
M  CHG  1  10   1
M  END
>  <UniqueID>  (33) 
32

>  <SMILES>  (33) 
CCOC(=O)c1ccc([NH2+]CCN2CCNCC2)cc1

>  <Energy>  (33) 
49.98092170422236

>  <Genealogy>  (33) 
CCOC(=O)c1ccc([NH2+]CCN2CCNCC2)cc1 (protonated)
CCOC(=O)c1ccc([NH2+]CCN2CCNCC2)cc1 (3D coordinates assigned)
CCOC(=O)c1ccc([NH2+]CCN2CCNCC2)cc1 (nonaromatic ring conformer: 49.98092170422236 kcal/mol)

>  <smiles>  (33) 
CCOC(=O)c1ccc(NCCN2CCNCC2)cc1

>  <score_type>  (33) 
oracle

>  <origin>  (33) 
adg

>  <m_score__min__energy>  (33) 
-6.96

>  <m_primary>  (33) 
energy

$$$$
33:0
     RDKit          3D

 49 52  0  0  0  0  0  0  0  0999 V2000
   -9.5170   20.0060  -32.3730 C   0  0  0  0  0  0  0  0  0  0  0  0
   -8.4230   19.0650  -31.8870 C   0  0  0  0  0  0  0  0  0  0  0  0
   -7.2350   19.1800  -32.7400 N   0  0  0  0  0  0  0  0  0  0  0  0
   -6.5220   20.2980  -33.0620 C   0  0  0  0  0  0  0  0  0  0  0  0
   -6.9000   21.7080  -32.6620 C   0  0  0  0  0  0  0  0  0  0  0  0
   -5.7410   22.5440  -32.2620 N   0  0  0  0  0  0  0  0  0  0  0  0
   -6.1490   23.8060  -31.5750 C   0  0  0  0  0  0  0  0  0  0  0  0
   -5.7680   23.8440  -30.0880 C   0  0  0  0  0  0  0  0  0  0  0  0
   -4.3310   23.5780  -29.9310 N   0  0  0  0  0  0  0  0  0  0  0  0
   -3.5890   24.1540  -28.8330 C   0  0  0  0  0  0  0  0  0  0  0  0
   -2.2410   24.5270  -28.9970 C   0  0  0  0  0  0  0  0  0  0  0  0
   -1.5230   25.0820  -27.9340 C   0  0  0  0  0  0  0  0  0  0  0  0
   -2.1390   25.2690  -26.6950 C   0  0  0  0  0  0  0  0  0  0  0  0
   -3.4740   24.9010  -26.5160 C   0  0  0  0  0  0  0  0  0  0  0  0
   -4.1970   24.3470  -27.5770 C   0  0  0  0  0  0  0  0  0  0  0  0
   -3.6750   22.6520  -30.8630 C   0  0  0  0  0  0  0  0  0  0  0  0
   -4.7160   21.7510  -31.5350 C   0  0  0  0  0  0  0  0  0  0  0  0
   -5.4080   20.0310  -33.7930 N   0  0  0  0  0  0  0  0  0  0  0  0
   -5.4370   18.6930  -33.9210 C   0  0  0  0  0  0  0  0  0  0  0  0
   -4.5100   17.8850  -34.5740 C   0  0  0  0  0  0  0  0  0  0  0  0
   -4.7280   16.4950  -34.5590 C   0  0  0  0  0  0  0  0  0  0  0  0
   -5.8510   15.9540  -33.8920 C   0  0  0  0  0  0  0  0  0  0  0  0
   -6.7670   16.7990  -33.2400 C   0  0  0  0  0  0  0  0  0  0  0  0
   -6.5260   18.1750  -33.2830 C   0  0  0  0  0  0  0  0  0  0  0  0
  -10.0314   20.4485  -31.5072 H   0  0  0  0  0  0  0  0  0  0  0  0
   -9.0693   20.8056  -32.9815 H   0  0  0  0  0  0  0  0  0  0  0  0
  -10.2406   19.4438  -32.9815 H   0  0  0  0  0  0  0  0  0  0  0  0
   -8.1535   19.3256  -30.8528 H   0  0  0  0  0  0  0  0  0  0  0  0
   -8.7956   18.0310  -31.9308 H   0  0  0  0  0  0  0  0  0  0  0  0
   -7.3979   22.1900  -33.5163 H   0  0  0  0  0  0  0  0  0  0  0  0
   -7.5580   21.6284  -31.7841 H   0  0  0  0  0  0  0  0  0  0  0  0
   -5.2880   22.8340  -33.1630 H   0  0  0  0  0  0  0  0  0  0  0  0
   -5.6607   24.6517  -32.0813 H   0  0  0  0  0  0  0  0  0  0  0  0
   -7.2461   23.8643  -31.6297 H   0  0  0  0  0  0  0  0  0  0  0  0
   -6.0017   24.8373  -29.6772 H   0  0  0  0  0  0  0  0  0  0  0  0
   -6.3391   23.0738  -29.5488 H   0  0  0  0  0  0  0  0  0  0  0  0
   -1.7490   24.3803  -29.9698 H   0  0  0  0  0  0  0  0  0  0  0  0
   -0.4711   25.3719  -28.0737 H   0  0  0  0  0  0  0  0  0  0  0  0
   -1.5724   25.7063  -25.8597 H   0  0  0  0  0  0  0  0  0  0  0  0
   -3.9577   25.0471  -25.5389 H   0  0  0  0  0  0  0  0  0  0  0  0
   -5.2486   24.0597  -27.4297 H   0  0  0  0  0  0  0  0  0  0  0  0
   -3.1423   23.2288  -31.6334 H   0  0  0  0  0  0  0  0  0  0  0  0
   -2.9645   22.0247  -30.3048 H   0  0  0  0  0  0  0  0  0  0  0  0
   -4.2058   21.0877  -32.2490 H   0  0  0  0  0  0  0  0  0  0  0  0
   -5.2240   21.1699  -30.7513 H   0  0  0  0  0  0  0  0  0  0  0  0
   -3.6371   18.3184  -35.0841 H   0  0  0  0  0  0  0  0  0  0  0  0
   -4.0203   15.8252  -35.0694 H   0  0  0  0  0  0  0  0  0  0  0  0
   -6.0093   14.8655  -33.8829 H   0  0  0  0  0  0  0  0  0  0  0  0
   -7.6429   16.3909  -32.7144 H   0  0  0  0  0  0  0  0  0  0  0  0
  1  2  1  0
  2  3  1  0
  3  4  1  0
  4  5  1  0
  5  6  1  0
  6  7  1  0
  7  8  1  0
  8  9  1  0
  9 10  1  0
 10 11  2  0
 11 12  1  0
 12 13  2  0
 13 14  1  0
 14 15  2  0
  9 16  1  0
 16 17  1  0
  4 18  2  0
 18 19  1  0
 19 20  2  0
 20 21  1  0
 21 22  2  0
 22 23  1  0
 23 24  2  0
 24  3  1  0
 17  6  1  0
 24 19  1  0
 15 10  1  0
  1 25  1  0
  1 26  1  0
  1 27  1  0
  2 28  1  0
  2 29  1  0
  5 30  1  0
  5 31  1  0
  6 32  1  0
  7 33  1  0
  7 34  1  0
  8 35  1  0
  8 36  1  0
 11 37  1  0
 12 38  1  0
 13 39  1  0
 14 40  1  0
 15 41  1  0
 16 42  1  0
 16 43  1  0
 17 44  1  0
 17 45  1  0
 20 46  1  0
 21 47  1  0
 22 48  1  0
 23 49  1  0
M  CHG  1   6   1
M  END
>  <UniqueID>  (34) 
33

>  <SMILES>  (34) 
CCn1c(C[NH+]2CCN(c3ccccc3)CC2)nc2ccccc21

>  <Energy>  (34) 
98.1732949362787

>  <Genealogy>  (34) 
CCn1c(C[NH+]2CCN(c3ccccc3)CC2)nc2ccccc21 (protonated)
CCn1c(C[NH+]2CCN(c3ccccc3)CC2)nc2ccccc21 (3D coordinates assigned)
CCn1c(C[NH+]2CCN(c3ccccc3)CC2)nc2ccccc21 (nonaromatic ring conformer: 98.1732949362787 kcal/mol)

>  <smiles>  (34) 
CCn1c(CN2CCN(c3ccccc3)CC2)nc2ccccc21

>  <score_type>  (34) 
oracle

>  <origin>  (34) 
adg

>  <m_score__min__energy>  (34) 
-7.7000000000000002

>  <m_primary>  (34) 
energy

$$$$
34:0
     RDKit          3D

 56 58  0  0  0  0  0  0  0  0999 V2000
   -6.7130   24.4050  -30.4680 C   0  0  0  0  0  0  0  0  0  0  0  0
   -5.3900   25.1700  -30.4080 C   0  0  0  0  0  0  0  0  0  0  0  0
   -4.2570   24.3210  -30.8410 N   0  0  0  0  0  0  0  0  0  0  0  0
   -3.3290   24.0790  -29.7130 C   0  0  0  0  0  0  0  0  0  0  0  0
   -4.0720   24.1200  -28.3780 C   0  0  0  0  0  0  0  0  0  0  0  0
   -4.7210   23.0490  -31.4550 C   0  0  0  0  0  0  0  0  0  0  0  0
   -3.5240   22.3250  -32.0850 C   0  0  0  0  0  0  0  0  0  0  0  0
   -3.8440   21.7400  -33.4010 N   0  0  0  0  0  0  0  0  0  0  0  0
   -4.1500   20.3160  -33.3060 C   0  0  0  0  0  0  0  0  0  0  0  0
   -3.1860   19.3260  -33.6590 C   0  0  0  0  0  0  0  0  0  0  0  0
   -1.8800   19.6600  -34.1090 C   0  0  0  0  0  0  0  0  0  0  0  0
   -0.9840   18.6780  -34.5220 C   0  0  0  0  0  0  0  0  0  0  0  0
   -1.3550   17.3440  -34.5050 C   0  0  0  0  0  0  0  0  0  0  0  0
   -2.6110   16.9780  -34.0310 C   0  0  0  0  0  0  0  0  0  0  0  0
   -3.5300   17.9470  -33.5530 C   0  0  0  0  0  0  0  0  0  0  0  0
   -4.7360   17.5690  -33.0050 N   0  0  0  0  0  0  0  0  0  0  0  0
   -4.9440   16.1650  -32.5770 C   0  0  0  0  0  0  0  0  0  0  0  0
   -5.7350   18.5010  -32.8090 C   0  0  0  0  0  0  0  0  0  0  0  0
   -7.0650   18.0980  -32.5340 C   0  0  0  0  0  0  0  0  0  0  0  0
   -8.0750   19.0260  -32.2570 C   0  0  0  0  0  0  0  0  0  0  0  0
   -9.4680   18.5340  -31.9530 C   0  0  0  0  0  0  0  0  0  0  0  0
   -7.7630   20.3950  -32.2320 C   0  0  0  0  0  0  0  0  0  0  0  0
   -8.8120   21.4300  -31.9060 C   0  0  0  0  0  0  0  0  0  0  0  0
   -6.4710   20.8120  -32.5730 C   0  0  0  0  0  0  0  0  0  0  0  0
   -5.4480   19.8880  -32.8980 C   0  0  0  0  0  0  0  0  0  0  0  0
   -7.0654   24.2012  -29.4461 H   0  0  0  0  0  0  0  0  0  0  0  0
   -7.4622   25.0093  -31.0005 H   0  0  0  0  0  0  0  0  0  0  0  0
   -6.5630   23.4543  -31.0005 H   0  0  0  0  0  0  0  0  0  0  0  0
   -5.4532   26.0473  -31.0686 H   0  0  0  0  0  0  0  0  0  0  0  0
   -5.2144   25.4784  -29.3668 H   0  0  0  0  0  0  0  0  0  0  0  0
   -2.8629   23.0902  -29.8357 H   0  0  0  0  0  0  0  0  0  0  0  0
   -2.5621   24.8676  -29.7131 H   0  0  0  0  0  0  0  0  0  0  0  0
   -3.3458   24.0799  -27.5528 H   0  0  0  0  0  0  0  0  0  0  0  0
   -4.6530   25.0516  -28.3102 H   0  0  0  0  0  0  0  0  0  0  0  0
   -4.7520   23.2580  -28.3102 H   0  0  0  0  0  0  0  0  0  0  0  0
   -5.1714   22.4100  -30.6811 H   0  0  0  0  0  0  0  0  0  0  0  0
   -5.4709   23.2655  -32.2301 H   0  0  0  0  0  0  0  0  0  0  0  0
   -2.7023   23.0455  -32.2100 H   0  0  0  0  0  0  0  0  0  0  0  0
   -3.2418   21.5008  -31.4135 H   0  0  0  0  0  0  0  0  0  0  0  0
   -4.6560   22.2480  -33.8170 H   0  0  0  0  0  0  0  0  0  0  0  0
   -3.0910   21.9620  -34.0830 H   0  0  0  0  0  0  0  0  0  0  0  0
   -1.5710   20.7155  -34.1314 H   0  0  0  0  0  0  0  0  0  0  0  0
    0.0223   18.9627  -34.8631 H   0  0  0  0  0  0  0  0  0  0  0  0
   -0.6572   16.5741  -34.8660 H   0  0  0  0  0  0  0  0  0  0  0  0
   -2.8970   15.9158  -34.0269 H   0  0  0  0  0  0  0  0  0  0  0  0
   -4.9516   16.1139  -31.4782 H   0  0  0  0  0  0  0  0  0  0  0  0
   -5.9058   15.8013  -32.9676 H   0  0  0  0  0  0  0  0  0  0  0  0
   -4.1289   15.5380  -32.9676 H   0  0  0  0  0  0  0  0  0  0  0  0
   -7.3106   17.0258  -32.5383 H   0  0  0  0  0  0  0  0  0  0  0  0
   -9.6095   18.4840  -30.8633 H   0  0  0  0  0  0  0  0  0  0  0  0
  -10.2043   19.2265  -32.3870 H   0  0  0  0  0  0  0  0  0  0  0  0
   -9.6061   17.5327  -32.3870 H   0  0  0  0  0  0  0  0  0  0  0  0
   -8.9074   21.5241  -30.8142 H   0  0  0  0  0  0  0  0  0  0  0  0
   -8.5158   22.3994  -32.3331 H   0  0  0  0  0  0  0  0  0  0  0  0
   -9.7774   21.1208  -32.3331 H   0  0  0  0  0  0  0  0  0  0  0  0
   -6.2437   21.8881  -32.5890 H   0  0  0  0  0  0  0  0  0  0  0  0
  1  2  1  0
  2  3  1  0
  3  4  1  0
  4  5  1  0
  3  6  1  0
  6  7  1  0
  7  8  1  0
  8  9  1  0
  9 10  2  0
 10 11  1  0
 11 12  2  0
 12 13  1  0
 13 14  2  0
 14 15  1  0
 15 16  2  0
 16 17  1  0
 16 18  1  0
 18 19  2  0
 19 20  1  0
 20 21  1  0
 20 22  2  0
 22 23  1  0
 22 24  1  0
 24 25  2  0
 25  9  1  0
 15 10  1  0
 25 18  1  0
  1 26  1  0
  1 27  1  0
  1 28  1  0
  2 29  1  0
  2 30  1  0
  4 31  1  0
  4 32  1  0
  5 33  1  0
  5 34  1  0
  5 35  1  0
  6 36  1  0
  6 37  1  0
  7 38  1  0
  7 39  1  0
  8 40  1  0
  8 41  1  0
 11 42  1  0
 12 43  1  0
 13 44  1  0
 14 45  1  0
 17 46  1  0
 17 47  1  0
 17 48  1  0
 19 49  1  0
 21 50  1  0
 21 51  1  0
 21 52  1  0
 23 53  1  0
 23 54  1  0
 23 55  1  0
 24 56  1  0
M  CHG  2   8   1  16   1
M  END
>  <UniqueID>  (35) 
34

>  <SMILES>  (35) 
CCN(CC)CC[NH2+]c1c2ccccc2[n+](C)c2cc(C)c(C)cc12

>  <Energy>  (35) 
85.70832335006338

>  <Genealogy>  (35) 
CCN(CC)CC[NH2+]c1c2ccccc2[n+](C)c2cc(C)c(C)cc12 (protonated)
CCN(CC)CC[NH2+]c1c2ccccc2[n+](C)c2cc(C)c(C)cc12 (3D coordinates assigned)
CCN(CC)CC[NH2+]c1c2ccccc2[n+](C)c2cc(C)c(C)cc12 (optimized conformer: 85.70832335006338 kcal/mol)

>  <smiles>  (35) 
CCN(CC)CCNc1c2ccccc2[n+](C)c2cc(C)c(C)cc12

>  <score_type>  (35) 
oracle

>  <origin>  (35) 
adg

>  <m_score__min__energy>  (35) 
-8.3599999999999994

>  <m_primary>  (35) 
energy

$$$$
35:0
     RDKit          3D

 54 55  0  0  0  0  0  0  0  0999 V2000
   -1.2840   24.5370  -28.9650 C   0  0  0  0  0  0  0  0  0  0  0  0
   -1.4540   23.0420  -29.2330 C   0  0  0  0  0  0  0  0  0  0  0  0
   -2.8350   22.7100  -29.6600 N   0  0  0  0  0  0  0  0  0  0  0  0
   -2.8730   21.4920  -30.5000 C   0  0  0  0  0  0  0  0  0  0  0  0
   -2.4110   21.8060  -31.9200 C   0  0  0  0  0  0  0  0  0  0  0  0
   -3.8360   22.6850  -28.5580 C   0  0  0  0  0  0  0  0  0  0  0  0
   -4.4680   24.0500  -28.2100 C   0  0  0  0  0  0  0  0  0  0  0  0
   -5.5280   24.3850  -29.1030 O   0  0  0  0  0  0  0  0  0  0  0  0
   -5.4610   24.1890  -30.4880 C   0  0  0  0  0  0  0  0  0  0  0  0
   -4.7260   24.9310  -31.1990 O   0  0  0  0  0  0  0  0  0  0  0  0
   -6.2370   23.0950  -31.1130 C   0  0  0  0  0  0  0  0  0  0  0  0
   -5.7190   22.4000  -32.2180 C   0  0  0  0  0  0  0  0  0  0  0  0
   -6.4610   21.3870  -32.8310 C   0  0  0  0  0  0  0  0  0  0  0  0
   -7.7410   21.0550  -32.3560 C   0  0  0  0  0  0  0  0  0  0  0  0
   -8.5230   20.0280  -33.0070 N   0  0  0  0  0  0  0  0  0  0  0  0
   -8.7860   18.8880  -32.1090 C   0  0  0  0  0  0  0  0  0  0  0  0
   -7.5000   18.2380  -31.5620 C   0  0  0  0  0  0  0  0  0  0  0  0
   -6.4290   18.1120  -32.6170 C   0  0  0  0  0  0  0  0  0  0  0  0
   -6.7040   17.4880  -33.8460 C   0  0  0  0  0  0  0  0  0  0  0  0
   -5.7070   17.3810  -34.8220 C   0  0  0  0  0  0  0  0  0  0  0  0
   -4.4270   17.8880  -34.5740 C   0  0  0  0  0  0  0  0  0  0  0  0
   -4.1420   18.5020  -33.3510 C   0  0  0  0  0  0  0  0  0  0  0  0
   -5.1360   18.6130  -32.3740 C   0  0  0  0  0  0  0  0  0  0  0  0
   -8.2500   21.7350  -31.2370 C   0  0  0  0  0  0  0  0  0  0  0  0
   -7.5090   22.7480  -30.6230 C   0  0  0  0  0  0  0  0  0  0  0  0
   -1.2638   24.7150  -27.8797 H   0  0  0  0  0  0  0  0  0  0  0  0
   -0.3405   24.8845  -29.4112 H   0  0  0  0  0  0  0  0  0  0  0  0
   -2.1253   25.0875  -29.4112 H   0  0  0  0  0  0  0  0  0  0  0  0
   -0.7544   22.7412  -30.0268 H   0  0  0  0  0  0  0  0  0  0  0  0
   -1.2477   22.5023  -28.2970 H   0  0  0  0  0  0  0  0  0  0  0  0
   -2.2095   20.7308  -30.0637 H   0  0  0  0  0  0  0  0  0  0  0  0
   -3.9069   21.1183  -30.5373 H   0  0  0  0  0  0  0  0  0  0  0  0
   -1.5018   22.4239  -31.8816 H   0  0  0  0  0  0  0  0  0  0  0  0
   -2.1942   20.8674  -32.4510 H   0  0  0  0  0  0  0  0  0  0  0  0
   -3.2039   22.3530  -32.4510 H   0  0  0  0  0  0  0  0  0  0  0  0
   -4.6457   22.0000  -28.8498 H   0  0  0  0  0  0  0  0  0  0  0  0
   -3.2903   22.3641  -27.6584 H   0  0  0  0  0  0  0  0  0  0  0  0
   -4.8656   24.0076  -27.1852 H   0  0  0  0  0  0  0  0  0  0  0  0
   -3.6885   24.8209  -28.2996 H   0  0  0  0  0  0  0  0  0  0  0  0
   -4.7211   22.6552  -32.6040 H   0  0  0  0  0  0  0  0  0  0  0  0
   -6.0402   20.8458  -33.6912 H   0  0  0  0  0  0  0  0  0  0  0  0
   -9.4240   20.4150  -33.3700 H   0  0  0  0  0  0  0  0  0  0  0  0
   -7.9850   19.6810  -33.8350 H   0  0  0  0  0  0  0  0  0  0  0  0
   -9.3870   19.2436  -31.2591 H   0  0  0  0  0  0  0  0  0  0  0  0
   -9.3147   18.1233  -32.6970 H   0  0  0  0  0  0  0  0  0  0  0  0
   -7.1140   18.8562  -30.7381 H   0  0  0  0  0  0  0  0  0  0  0  0
   -7.7549   17.2246  -31.2184 H   0  0  0  0  0  0  0  0  0  0  0  0
   -7.7074   17.0819  -34.0415 H   0  0  0  0  0  0  0  0  0  0  0  0
   -5.9299   16.8979  -35.7848 H   0  0  0  0  0  0  0  0  0  0  0  0
   -3.6441   17.8034  -35.3421 H   0  0  0  0  0  0  0  0  0  0  0  0
   -3.1344   18.8984  -33.1570 H   0  0  0  0  0  0  0  0  0  0  0  0
   -4.9068   19.0938  -31.4115 H   0  0  0  0  0  0  0  0  0  0  0  0
   -9.2407   21.4676  -30.8407 H   0  0  0  0  0  0  0  0  0  0  0  0
   -7.9226   23.2770  -29.7517 H   0  0  0  0  0  0  0  0  0  0  0  0
  1  2  1  0
  2  3  1  0
  3  4  1  0
  4  5  1  0
  3  6  1  0
  6  7  1  0
  7  8  1  0
  8  9  1  0
  9 10  2  0
  9 11  1  0
 11 12  2  0
 12 13  1  0
 13 14  2  0
 14 15  1  0
 15 16  1  0
 16 17  1  0
 17 18  1  0
 18 19  2  0
 19 20  1  0
 20 21  2  0
 21 22  1  0
 22 23  2  0
 14 24  1  0
 24 25  2  0
 25 11  1  0
 23 18  1  0
  1 26  1  0
  1 27  1  0
  1 28  1  0
  2 29  1  0
  2 30  1  0
  4 31  1  0
  4 32  1  0
  5 33  1  0
  5 34  1  0
  5 35  1  0
  6 36  1  0
  6 37  1  0
  7 38  1  0
  7 39  1  0
 12 40  1  0
 13 41  1  0
 15 42  1  0
 15 43  1  0
 16 44  1  0
 16 45  1  0
 17 46  1  0
 17 47  1  0
 19 48  1  0
 20 49  1  0
 21 50  1  0
 22 51  1  0
 23 52  1  0
 24 53  1  0
 25 54  1  0
M  CHG  1  15   1
M  END
>  <UniqueID>  (36) 
35

>  <SMILES>  (36) 
CCN(CC)CCOC(=O)c1ccc([NH2+]CCc2ccccc2)cc1

>  <Energy>  (36) 
52.67011214449536

>  <Genealogy>  (36) 
CCN(CC)CCOC(=O)c1ccc([NH2+]CCc2ccccc2)cc1 (protonated)
CCN(CC)CCOC(=O)c1ccc([NH2+]CCc2ccccc2)cc1 (3D coordinates assigned)
CCN(CC)CCOC(=O)c1ccc([NH2+]CCc2ccccc2)cc1 (optimized conformer: 52.67011214449536 kcal/mol)

>  <smiles>  (36) 
CCN(CC)CCOC(=O)c1ccc(NCCc2ccccc2)cc1

>  <score_type>  (36) 
oracle

>  <origin>  (36) 
adg

>  <m_score__min__energy>  (36) 
-7.4199999999999999

>  <m_primary>  (36) 
energy

$$$$
36:0
     RDKit          3D

 57 61  0  0  0  0  0  0  0  0999 V2000
   -6.0049   19.5409  -35.2214 H   0  0  0  0  0  0  0  0  0  0  0  0
   -6.1120   18.9420  -34.3050 C   0  0  0  0  0  0  0  0  0  0  0  0
   -5.8110   17.6170  -34.3200 N   0  0  0  0  0  0  0  0  0  0  0  0
   -5.9370   16.8230  -33.2170 C   0  0  0  0  0  0  0  0  0  0  0  0
   -5.5910   15.4190  -33.2990 N   0  0  0  0  0  0  0  0  0  0  0  0
   -6.3140   14.5210  -34.2130 C   0  0  0  0  0  0  0  0  0  0  0  0
   -7.3430   14.3889  -33.8474 H   0  0  0  0  0  0  0  0  0  0  0  0
   -6.3148   14.9712  -35.2167 H   0  0  0  0  0  0  0  0  0  0  0  0
   -5.6330   13.1520  -34.2950 C   0  0  0  0  0  0  0  0  0  0  0  0
   -6.2753   12.4619  -34.8618 H   0  0  0  0  0  0  0  0  0  0  0  0
   -4.6621   13.2681  -34.7989 H   0  0  0  0  0  0  0  0  0  0  0  0
   -5.4070   12.6070  -32.9510 N   0  0  0  0  0  0  0  0  0  0  0  0
   -6.3420   12.4330  -32.5090 H   0  0  0  0  0  0  0  0  0  0  0  0
   -4.6210   13.4970  -32.0670 C   0  0  0  0  0  0  0  0  0  0  0  0
   -5.1566   13.5899  -31.1107 H   0  0  0  0  0  0  0  0  0  0  0  0
   -3.6282   13.0346  -31.9641 H   0  0  0  0  0  0  0  0  0  0  0  0
   -4.3850   14.9150  -32.6250 C   0  0  0  0  0  0  0  0  0  0  0  0
   -4.1265   15.5902  -31.7960 H   0  0  0  0  0  0  0  0  0  0  0  0
   -3.5640   14.8739  -33.3560 H   0  0  0  0  0  0  0  0  0  0  0  0
   -6.4120   17.3970  -32.0210 C   0  0  0  0  0  0  0  0  0  0  0  0
   -6.5302   16.7775  -31.1197 H   0  0  0  0  0  0  0  0  0  0  0  0
   -6.7320   18.7560  -31.9850 C   0  0  0  0  0  0  0  0  0  0  0  0
   -7.1210   19.2053  -31.0594 H   0  0  0  0  0  0  0  0  0  0  0  0
   -6.5580   19.5440  -33.1240 C   0  0  0  0  0  0  0  0  0  0  0  0
   -6.9170   20.9300  -33.1030 N   0  0  0  0  0  0  0  0  0  0  0  0
   -6.3190   21.9140  -32.4800 C   0  0  0  0  0  0  0  0  0  0  0  0
   -6.9690   23.0830  -31.9710 C   0  0  0  0  0  0  0  0  0  0  0  0
   -8.3690   23.3740  -32.1720 C   0  0  0  0  0  0  0  0  0  0  0  0
   -9.4920   23.5990  -32.3400 N   0  0  0  0  0  0  0  0  0  0  0  0
   -6.2010   24.0620  -31.2980 C   0  0  0  0  0  0  0  0  0  0  0  0
   -6.6973   24.9569  -30.8946 H   0  0  0  0  0  0  0  0  0  0  0  0
   -4.8560   23.9130  -31.1420 N   0  0  0  0  0  0  0  0  0  0  0  0
   -4.2280   22.8190  -31.6390 C   0  0  0  0  0  0  0  0  0  0  0  0
   -2.8570   22.5730  -31.5300 C   0  0  0  0  0  0  0  0  0  0  0  0
   -2.1512   23.2544  -31.0324 H   0  0  0  0  0  0  0  0  0  0  0  0
   -2.4810   21.3600  -32.1260 C   0  0  0  0  0  0  0  0  0  0  0  0
   -1.1080   20.7990  -32.1850 C   0  0  0  0  0  0  0  0  0  0  0  0
   -0.3070   20.9710  -33.3300 C   0  0  0  0  0  0  0  0  0  0  0  0
   -0.7031   21.5277  -34.1921 H   0  0  0  0  0  0  0  0  0  0  0  0
    0.9940   20.4390  -33.3840 C   0  0  0  0  0  0  0  0  0  0  0  0
    1.8250   20.5900  -34.5050 O   0  0  0  0  0  0  0  0  0  0  0  0
    1.4260   21.2020  -35.7280 C   0  0  0  0  0  0  0  0  0  0  0  0
    0.8371   22.1053  -35.5109 H   0  0  0  0  0  0  0  0  0  0  0  0
    2.3188   21.4771  -36.3087 H   0  0  0  0  0  0  0  0  0  0  0  0
    0.8141   20.4961  -36.3087 H   0  0  0  0  0  0  0  0  0  0  0  0
    1.4910   19.7320  -32.2850 C   0  0  0  0  0  0  0  0  0  0  0  0
    2.5090   19.3169  -32.3227 H   0  0  0  0  0  0  0  0  0  0  0  0
    0.7120   19.5450  -31.1380 C   0  0  0  0  0  0  0  0  0  0  0  0
    1.2690   18.8270  -30.0680 O   0  0  0  0  0  0  0  0  0  0  0  0
    0.5530   18.4350  -28.9020 C   0  0  0  0  0  0  0  0  0  0  0  0
    1.1138   18.7420  -28.0069 H   0  0  0  0  0  0  0  0  0  0  0  0
   -0.4354   18.9178  -28.8990 H   0  0  0  0  0  0  0  0  0  0  0  0
    0.4273   17.3422  -28.8990 H   0  0  0  0  0  0  0  0  0  0  0  0
   -0.5890   20.0790  -31.0940 C   0  0  0  0  0  0  0  0  0  0  0  0
   -1.2072   19.9317  -30.1961 H   0  0  0  0  0  0  0  0  0  0  0  0
   -3.8690   20.6240  -32.7690 S   0  0  0  0  0  0  0  0  0  0  0  0
   -4.9370   21.8370  -32.3030 C   0  0  0  0  0  0  0  0  0  0  0  0
  1  2  1  0
  2  3  2  0
  3  4  1  0
  4  5  1  0
  5  6  1  0
  6  7  1  0
  6  8  1  0
  6  9  1  0
  9 10  1  0
  9 11  1  0
  9 12  1  0
 12 13  1  0
 12 14  1  0
 14 15  1  0
 14 16  1  0
 14 17  1  0
 17 18  1  0
 17 19  1  0
  4 20  2  0
 20 21  1  0
 20 22  1  0
 22 23  1  0
 22 24  2  0
 24 25  1  0
 25 26  2  0
 26 27  1  0
 27 28  1  0
 28 29  3  0
 27 30  2  0
 30 31  1  0
 30 32  1  0
 32 33  1  0
 33 34  1  0
 34 35  1  0
 34 36  2  0
 36 37  1  0
 37 38  2  0
 38 39  1  0
 38 40  1  0
 40 41  1  0
 41 42  1  0
 42 43  1  0
 42 44  1  0
 42 45  1  0
 40 46  2  0
 46 47  1  0
 46 48  1  0
 48 49  1  0
 49 50  1  0
 50 51  1  0
 50 52  1  0
 50 53  1  0
 48 54  2  0
 54 55  1  0
 36 56  1  0
 56 57  1  0
 24  2  1  0
 57 26  1  0
 17  5  1  0
 57 33  2  0
 54 37  1  0
M  CHG  1  32  -1
M  END
>  <UniqueID>  (37) 
36

>  <SMILES>  (37) 
COc1cc(OC)cc(-c2cc3[n-]cc(C#N)/c(=N\c4ccc(N5CCNCC5)nc4)c3s2)c1

>  <Energy>  (37) 
117.67801350481963

>  <Genealogy>  (37) 
COc1cc(OC)cc(-c2cc3[n-]cc(C#N)c(=Nc4ccc(N5CCNCC5)nc4)c3s2)c1 (protonated)
COc1cc(OC)cc(-c2cc3[n-]cc(C#N)/c(=N\c4ccc(N5CCNCC5)nc4)c3s2)c1 (cis-trans isomerization)
COc1cc(OC)cc(-c2cc3[n-]cc(C#N)/c(=N\c4ccc(N5CCNCC5)nc4)c3s2)c1 (3D coordinates assigned)
COc1cc(OC)cc(-c2cc3[n-]cc(C#N)/c(=N\c4ccc(N5CCNCC5)nc4)c3s2)c1 (nonaromatic ring conformer: 117.67801350481963 kcal/mol)

>  <smiles>  (37) 
COc1cc(OC)cc(-c2cc3[nH]cc(C#N)c(=Nc4ccc(N5CCNCC5)nc4)c3s2)c1

>  <score_type>  (37) 
oracle

>  <origin>  (37) 
adg

>  <m_score__min__energy>  (37) 
-9.5500000000000007

>  <m_primary>  (37) 
energy

$$$$
37:0
     RDKit          3D

 69 71  0  0  0  0  0  0  0  0999 V2000
   -9.0730   21.4410  -31.8600 C   0  0  0  0  0  0  0  0  0  0  0  0
   -9.1290   19.9170  -31.7050 C   0  0  0  0  0  0  0  0  0  0  0  0
   -8.3010   19.2170  -32.7320 N   0  0  1  0  0  0  0  0  0  0  0  0
   -7.4260   20.1860  -33.4220 C   0  0  0  0  0  0  0  0  0  0  0  0
   -7.4640   18.1400  -32.1460 C   0  0  0  0  0  0  0  0  0  0  0  0
   -7.2070   16.9870  -33.1340 C   0  0  0  0  0  0  0  0  0  0  0  0
   -5.7740   16.4570  -33.0120 C   0  0  0  0  0  0  0  0  0  0  0  0
   -5.0580   16.4970  -34.3650 C   0  0  0  0  0  0  0  0  0  0  0  0
   -4.0160   17.5280  -34.3600 N   0  0  0  0  0  0  0  0  0  0  0  0
   -4.3440   18.9460  -34.1880 C   0  0  0  0  0  0  0  0  0  0  0  0
   -3.4910   19.5990  -33.0450 C   0  0  0  0  0  0  0  0  0  0  0  0
   -2.0750   18.9190  -32.9170 C   0  0  0  0  0  0  0  0  0  0  0  0
   -1.6070   18.2190  -34.2000 C   0  0  0  0  0  0  0  0  0  0  0  0
   -2.6360   17.2010  -34.5710 C   0  0  0  0  0  0  0  0  0  0  0  0
   -2.2950   16.0820  -35.0390 O   0  0  0  0  0  0  0  0  0  0  0  0
   -4.2450   19.4360  -31.6850 C   0  0  0  0  0  0  0  0  0  0  0  0
   -5.1900   20.6140  -31.4070 C   0  0  0  0  0  0  0  0  0  0  0  0
   -4.4680   21.9120  -31.3120 N   0  0  0  0  0  0  0  0  0  0  0  0
   -4.2380   22.3280  -29.9100 C   0  0  0  0  0  0  0  0  0  0  0  0
   -5.4670   23.0880  -29.3520 C   0  0  0  0  0  0  0  0  0  0  0  0
   -6.6460   23.0780  -30.3460 C   0  0  0  0  0  0  0  0  0  0  0  0
   -6.3970   24.0140  -31.5530 C   0  0  0  0  0  0  0  0  0  0  0  0
   -5.3260   24.9250  -31.3560 O   0  0  0  0  0  0  0  0  0  0  0  0
   -5.4350   25.5430  -30.0900 C   0  0  0  0  0  0  0  0  0  0  0  0
   -5.1050   24.5440  -28.9680 C   0  0  0  0  0  0  0  0  0  0  0  0
   -3.2080   21.9580  -32.0940 C   0  0  0  0  0  0  0  0  0  0  0  0
   -3.3090   21.1160  -33.3730 C   0  0  0  0  0  0  0  0  0  0  0  0
   -9.0558   21.9103  -30.8653 H   0  0  0  0  0  0  0  0  0  0  0  0
   -8.1640   21.7202  -32.4130 H   0  0  0  0  0  0  0  0  0  0  0  0
   -9.9591   21.7861  -32.4130 H   0  0  0  0  0  0  0  0  0  0  0  0
   -8.7563   19.6482  -30.7056 H   0  0  0  0  0  0  0  0  0  0  0  0
  -10.1740   19.6010  -31.8396 H   0  0  0  0  0  0  0  0  0  0  0  0
   -8.9100   18.7930  -33.4730 H   0  0  0  0  0  0  0  0  0  0  0  0
   -6.8840   20.7863  -32.6764 H   0  0  0  0  0  0  0  0  0  0  0  0
   -6.7045   19.6448  -34.0518 H   0  0  0  0  0  0  0  0  0  0  0  0
   -8.0377   20.8487  -34.0518 H   0  0  0  0  0  0  0  0  0  0  0  0
   -6.4967   18.5692  -31.8459 H   0  0  0  0  0  0  0  0  0  0  0  0
   -8.0084   17.7259  -31.2845 H   0  0  0  0  0  0  0  0  0  0  0  0
   -7.9108   16.1690  -32.9207 H   0  0  0  0  0  0  0  0  0  0  0  0
   -7.3502   17.3676  -34.1561 H   0  0  0  0  0  0  0  0  0  0  0  0
   -5.2202   17.0789  -32.2933 H   0  0  0  0  0  0  0  0  0  0  0  0
   -5.8142   15.4133  -32.6670 H   0  0  0  0  0  0  0  0  0  0  0  0
   -4.5979   15.5173  -34.5610 H   0  0  0  0  0  0  0  0  0  0  0  0
   -5.7910   16.7335  -35.1504 H   0  0  0  0  0  0  0  0  0  0  0  0
   -4.1437   19.4761  -35.1308 H   0  0  0  0  0  0  0  0  0  0  0  0
   -5.4063   19.0236  -33.9131 H   0  0  0  0  0  0  0  0  0  0  0  0
   -1.3397   19.6948  -32.6570 H   0  0  0  0  0  0  0  0  0  0  0  0
   -2.1603   18.1437  -32.1414 H   0  0  0  0  0  0  0  0  0  0  0  0
   -1.5013   18.9556  -35.0101 H   0  0  0  0  0  0  0  0  0  0  0  0
   -0.6320   17.7361  -34.0385 H   0  0  0  0  0  0  0  0  0  0  0  0
   -4.8340   18.5074  -31.7144 H   0  0  0  0  0  0  0  0  0  0  0  0
   -3.4943   19.4054  -30.8816 H   0  0  0  0  0  0  0  0  0  0  0  0
   -5.9246   20.6776  -32.2233 H   0  0  0  0  0  0  0  0  0  0  0  0
   -5.6778   20.4305  -30.4383 H   0  0  0  0  0  0  0  0  0  0  0  0
   -4.0564   21.4348  -29.2942 H   0  0  0  0  0  0  0  0  0  0  0  0
   -3.3662   22.9981  -29.8800 H   0  0  0  0  0  0  0  0  0  0  0  0
   -5.7826   22.5557  -28.4426 H   0  0  0  0  0  0  0  0  0  0  0  0
   -6.7893   22.0521  -30.7162 H   0  0  0  0  0  0  0  0  0  0  0  0
   -7.5395   23.4391  -29.8157 H   0  0  0  0  0  0  0  0  0  0  0  0
   -6.1684   23.3938  -32.4323 H   0  0  0  0  0  0  0  0  0  0  0  0
   -7.3090   24.6138  -31.6888 H   0  0  0  0  0  0  0  0  0  0  0  0
   -4.7330   26.3883  -30.0390 H   0  0  0  0  0  0  0  0  0  0  0  0
   -6.4680   25.8967  -29.9565 H   0  0  0  0  0  0  0  0  0  0  0  0
   -4.0273   24.5958  -28.7539 H   0  0  0  0  0  0  0  0  0  0  0  0
   -5.7034   24.8182  -28.0866 H   0  0  0  0  0  0  0  0  0  0  0  0
   -2.9958   23.0017  -32.3690 H   0  0  0  0  0  0  0  0  0  0  0  0
   -2.4003   21.5451  -31.4718 H   0  0  0  0  0  0  0  0  0  0  0  0
   -4.1722   21.4609  -33.9612 H   0  0  0  0  0  0  0  0  0  0  0  0
   -2.3752   21.2373  -33.9416 H   0  0  0  0  0  0  0  0  0  0  0  0
  1  2  1  0
  2  3  1  0
  3  4  1  0
  3  5  1  0
  5  6  1  0
  6  7  1  0
  7  8  1  0
  8  9  1  0
  9 10  1  0
 10 11  1  0
 11 12  1  0
 12 13  1  0
 13 14  1  0
 14 15  2  0
 11 16  1  0
 16 17  1  0
 17 18  1  0
 18 19  1  0
 19 20  1  0
 20 21  1  0
 21 22  1  0
 22 23  1  0
 23 24  1  0
 24 25  1  0
 18 26  1  0
 26 27  1  0
 14  9  1  0
 25 20  1  0
 27 11  1  0
  1 28  1  0
  1 29  1  0
  1 30  1  0
  2 31  1  0
  2 32  1  0
  3 33  1  6
  4 34  1  0
  4 35  1  0
  4 36  1  0
  5 37  1  0
  5 38  1  0
  6 39  1  0
  6 40  1  0
  7 41  1  0
  7 42  1  0
  8 43  1  0
  8 44  1  0
 10 45  1  0
 10 46  1  0
 12 47  1  0
 12 48  1  0
 13 49  1  0
 13 50  1  0
 16 51  1  0
 16 52  1  0
 17 53  1  0
 17 54  1  0
 19 55  1  0
 19 56  1  0
 20 57  1  0
 21 58  1  0
 21 59  1  0
 22 60  1  0
 22 61  1  0
 24 62  1  0
 24 63  1  0
 25 64  1  0
 25 65  1  0
 26 66  1  0
 26 67  1  0
 27 68  1  0
 27 69  1  0
M  CHG  1   3   1
M  END
>  <UniqueID>  (38) 
37

>  <SMILES>  (38) 
CC[N@@H+](C)CCCCN1CC2(CCC1=O)CCN(CC1CCOCC1)CC2

>  <Energy>  (38) 
85.75774406051785

>  <Genealogy>  (38) 
CC[NH+](C)CCCCN1CC2(CCC1=O)CCN(CC1CCOCC1)CC2 (protonated)
CC[N@@H+](C)CCCCN1CC2(CCC1=O)CCN(CC1CCOCC1)CC2 (chirality)
CC[N@@H+](C)CCCCN1CC2(CCC1=O)CCN(CC1CCOCC1)CC2 (3D coordinates assigned)
CC[N@@H+](C)CCCCN1CC2(CCC1=O)CCN(CC1CCOCC1)CC2 (nonaromatic ring conformer: 85.75774406051785 kcal/mol)

>  <smiles>  (38) 
CCN(C)CCCCN1CC2(CCC1=O)CCN(CC1CCOCC1)CC2

>  <score_type>  (38) 
oracle

>  <origin>  (38) 
adg

>  <m_score__min__energy>  (38) 
-7.9199999999999999

>  <m_primary>  (38) 
energy

$$$$
38:0
     RDKit          3D

 49 52  0  0  0  0  0  0  0  0999 V2000
   -6.5770   25.3420  -29.6130 C   0  0  0  0  0  0  0  0  0  0  0  0
   -5.1590   25.3770  -30.1770 C   0  0  0  0  0  0  0  0  0  0  0  0
   -4.9910   24.3410  -31.2190 N   0  0  0  0  0  0  0  0  0  0  0  0
   -6.2740   24.1030  -31.9050 C   0  0  0  0  0  0  0  0  0  0  0  0
   -4.4660   23.0780  -30.6480 C   0  0  0  0  0  0  0  0  0  0  0  0
   -3.5490   22.3840  -31.6580 C   0  0  0  0  0  0  0  0  0  0  0  0
   -4.3240   21.8930  -32.7960 N   0  0  0  0  0  0  0  0  0  0  0  0
   -4.3100   20.5010  -33.1440 C   0  0  0  0  0  0  0  0  0  0  0  0
   -3.1370   19.8610  -33.6150 C   0  0  0  0  0  0  0  0  0  0  0  0
   -1.9460   20.5870  -33.8150 C   0  0  0  0  0  0  0  0  0  0  0  0
   -0.7920   19.9510  -34.2680 C   0  0  0  0  0  0  0  0  0  0  0  0
   -0.8010   18.5840  -34.5270 C   0  0  0  0  0  0  0  0  0  0  0  0
   -1.9620   17.8360  -34.3350 C   0  0  0  0  0  0  0  0  0  0  0  0
   -3.1520   18.4470  -33.8750 C   0  0  0  0  0  0  0  0  0  0  0  0
   -4.3070   17.7100  -33.6710 N   0  0  0  0  0  0  0  0  0  0  0  0
   -4.3620   16.2600  -33.9170 C   0  0  0  0  0  0  0  0  0  0  0  0
   -5.4270   18.3610  -33.2440 C   0  0  0  0  0  0  0  0  0  0  0  0
   -6.6100   17.8140  -33.0320 O   0  0  0  0  0  0  0  0  0  0  0  0
   -7.4150   18.7860  -32.6600 C   0  0  0  0  0  0  0  0  0  0  0  0
   -8.7680   18.6830  -32.3460 C   0  0  0  0  0  0  0  0  0  0  0  0
   -9.4560   19.8610  -32.0030 C   0  0  0  0  0  0  0  0  0  0  0  0
   -8.7870   21.1030  -31.9890 C   0  0  0  0  0  0  0  0  0  0  0  0
   -7.4180   21.1820  -32.3090 C   0  0  0  0  0  0  0  0  0  0  0  0
   -6.7530   19.9950  -32.6240 C   0  0  0  0  0  0  0  0  0  0  0  0
   -5.4490   19.7150  -32.9910 C   0  0  0  0  0  0  0  0  0  0  0  0
   -6.5345   25.3430  -28.5138 H   0  0  0  0  0  0  0  0  0  0  0  0
   -7.1313   26.2267  -29.9594 H   0  0  0  0  0  0  0  0  0  0  0  0
   -7.0870   24.4310  -29.9594 H   0  0  0  0  0  0  0  0  0  0  0  0
   -4.9685   26.3671  -30.6168 H   0  0  0  0  0  0  0  0  0  0  0  0
   -4.4467   25.1810  -29.3620 H   0  0  0  0  0  0  0  0  0  0  0  0
   -7.0676   23.9558  -31.1577 H   0  0  0  0  0  0  0  0  0  0  0  0
   -6.5197   24.9709  -32.5346 H   0  0  0  0  0  0  0  0  0  0  0  0
   -6.1920   23.2047  -32.5346 H   0  0  0  0  0  0  0  0  0  0  0  0
   -3.8968   23.3013  -29.7336 H   0  0  0  0  0  0  0  0  0  0  0  0
   -5.3093   22.4125  -30.4115 H   0  0  0  0  0  0  0  0  0  0  0  0
   -2.7949   23.1008  -32.0152 H   0  0  0  0  0  0  0  0  0  0  0  0
   -3.0572   21.5315  -31.1666 H   0  0  0  0  0  0  0  0  0  0  0  0
   -4.6160   22.5850  -33.5230 H   0  0  0  0  0  0  0  0  0  0  0  0
   -1.9271   21.6678  -33.6112 H   0  0  0  0  0  0  0  0  0  0  0  0
    0.1295   20.5318  -34.4214 H   0  0  0  0  0  0  0  0  0  0  0  0
    0.1140   18.0900  -34.8857 H   0  0  0  0  0  0  0  0  0  0  0  0
   -1.9524   16.7561  -34.5441 H   0  0  0  0  0  0  0  0  0  0  0  0
   -4.3823   15.7255  -32.9558 H   0  0  0  0  0  0  0  0  0  0  0  0
   -5.2699   16.0194  -34.4895 H   0  0  0  0  0  0  0  0  0  0  0  0
   -3.4749   15.9513  -34.4895 H   0  0  0  0  0  0  0  0  0  0  0  0
   -9.2825   17.7109  -32.3656 H   0  0  0  0  0  0  0  0  0  0  0  0
  -10.5239   19.8134  -31.7437 H   0  0  0  0  0  0  0  0  0  0  0  0
   -9.3393   22.0172  -31.7260 H   0  0  0  0  0  0  0  0  0  0  0  0
   -6.8897   22.1469  -32.3108 H   0  0  0  0  0  0  0  0  0  0  0  0
  1  2  1  0
  2  3  1  0
  3  4  1  0
  3  5  1  0
  5  6  1  0
  6  7  1  0
  7  8  1  0
  8  9  2  0
  9 10  1  0
 10 11  2  0
 11 12  1  0
 12 13  2  0
 13 14  1  0
 14 15  2  0
 15 16  1  0
 15 17  1  0
 17 18  1  0
 18 19  1  0
 19 20  2  0
 20 21  1  0
 21 22  2  0
 22 23  1  0
 23 24  2  0
 24 25  1  0
 25  8  1  0
 14  9  1  0
 25 17  2  0
 24 19  1  0
  1 26  1  0
  1 27  1  0
  1 28  1  0
  2 29  1  0
  2 30  1  0
  4 31  1  0
  4 32  1  0
  4 33  1  0
  5 34  1  0
  5 35  1  0
  6 36  1  0
  6 37  1  0
  7 38  1  0
 10 39  1  0
 11 40  1  0
 12 41  1  0
 13 42  1  0
 16 43  1  0
 16 44  1  0
 16 45  1  0
 20 46  1  0
 21 47  1  0
 22 48  1  0
 23 49  1  0
M  CHG  1  15   1
M  END
>  <UniqueID>  (39) 
38

>  <SMILES>  (39) 
CCN(C)CCNc1c2ccccc2[n+](C)c2oc3ccccc3c12

>  <Energy>  (39) 
105.66830870413958

>  <Genealogy>  (39) 
CCN(C)CCNc1c2ccccc2[n+](C)c2oc3ccccc3c12 (3D coordinates assigned)
CCN(C)CCNc1c2ccccc2[n+](C)c2oc3ccccc3c12 (optimized conformer: 105.66830870413958 kcal/mol)

>  <smiles>  (39) 
CCN(C)CCNc1c2ccccc2[n+](C)c2oc3ccccc3c12

>  <score_type>  (39) 
oracle

>  <origin>  (39) 
adg

>  <m_score__min__energy>  (39) 
-8.5

>  <m_primary>  (39) 
energy

$$$$
39:0
     RDKit          3D

 52 55  0  0  0  0  0  0  0  0999 V2000
   -2.9710   21.6400  -29.8630 C   0  0  0  0  0  0  0  0  0  0  0  0
   -2.8810   23.1560  -29.7090 C   0  0  0  0  0  0  0  0  0  0  0  0
   -4.2220   23.7670  -29.8490 N   0  0  0  0  0  0  0  0  0  0  0  0
   -4.6070   24.5470  -28.6460 C   0  0  0  0  0  0  0  0  0  0  0  0
   -3.8500   24.1510  -27.3700 C   0  0  0  0  0  0  0  0  0  0  0  0
   -5.2320   22.7660  -30.2680 C   0  0  0  0  0  0  0  0  0  0  0  0
   -6.3420   23.3910  -31.1210 C   0  0  0  0  0  0  0  0  0  0  0  0
   -6.3060   22.8440  -32.4770 N   0  0  0  0  0  0  0  0  0  0  0  0
   -6.0870   21.4430  -32.6970 C   0  0  0  0  0  0  0  0  0  0  0  0
   -7.1030   20.4860  -32.5060 C   0  0  0  0  0  0  0  0  0  0  0  0
   -8.4080   20.8780  -32.1470 C   0  0  0  0  0  0  0  0  0  0  0  0
   -9.3990   19.9240  -31.9210 C   0  0  0  0  0  0  0  0  0  0  0  0
   -9.1090   18.5700  -32.0490 C   0  0  0  0  0  0  0  0  0  0  0  0
   -7.8350   18.1570  -32.4390 C   0  0  0  0  0  0  0  0  0  0  0  0
   -6.8130   19.1000  -32.7110 C   0  0  0  0  0  0  0  0  0  0  0  0
   -5.5630   18.7040  -33.1650 N   0  0  0  0  0  0  0  0  0  0  0  0
   -5.3870   17.3640  -33.7530 C   0  0  0  0  0  0  0  0  0  0  0  0
   -4.5400   19.6290  -33.1960 C   0  0  0  0  0  0  0  0  0  0  0  0
   -4.8210   20.9860  -33.0400 C   0  0  0  0  0  0  0  0  0  0  0  0
   -3.4330   21.9190  -33.2540 S   0  0  0  0  0  0  0  0  0  0  0  0
   -2.4280   20.5990  -33.4950 C   0  0  0  0  0  0  0  0  0  0  0  0
   -1.0480   20.6330  -33.6810 C   0  0  0  0  0  0  0  0  0  0  0  0
   -0.3530   19.4200  -33.7440 C   0  0  0  0  0  0  0  0  0  0  0  0
   -1.0390   18.2050  -33.5850 C   0  0  0  0  0  0  0  0  0  0  0  0
   -2.4310   18.1900  -33.3910 C   0  0  0  0  0  0  0  0  0  0  0  0
   -3.1460   19.4040  -33.3990 C   0  0  0  0  0  0  0  0  0  0  0  0
   -2.9988   21.1714  -28.8682 H   0  0  0  0  0  0  0  0  0  0  0  0
   -3.8861   21.3813  -30.4159 H   0  0  0  0  0  0  0  0  0  0  0  0
   -2.0930   21.2748  -30.4159 H   0  0  0  0  0  0  0  0  0  0  0  0
   -2.4746   23.3963  -28.7155 H   0  0  0  0  0  0  0  0  0  0  0  0
   -2.2215   23.5568  -30.4929 H   0  0  0  0  0  0  0  0  0  0  0  0
   -4.4111   25.6106  -28.8472 H   0  0  0  0  0  0  0  0  0  0  0  0
   -5.6707   24.3371  -28.4604 H   0  0  0  0  0  0  0  0  0  0  0  0
   -4.4328   24.4559  -26.4883 H   0  0  0  0  0  0  0  0  0  0  0  0
   -3.7038   23.0609  -27.3538 H   0  0  0  0  0  0  0  0  0  0  0  0
   -2.8711   24.6525  -27.3538 H   0  0  0  0  0  0  0  0  0  0  0  0
   -4.7320   21.9817  -30.8553 H   0  0  0  0  0  0  0  0  0  0  0  0
   -5.6946   22.3504  -29.3606 H   0  0  0  0  0  0  0  0  0  0  0  0
   -7.3185   23.1693  -30.6657 H   0  0  0  0  0  0  0  0  0  0  0  0
   -6.1881   24.4791  -31.1689 H   0  0  0  0  0  0  0  0  0  0  0  0
   -6.0520   23.5010  -33.2480 H   0  0  0  0  0  0  0  0  0  0  0  0
   -8.6470   21.9468  -32.0441 H   0  0  0  0  0  0  0  0  0  0  0  0
  -10.4136   20.2433  -31.6405 H   0  0  0  0  0  0  0  0  0  0  0  0
   -9.8878   17.8213  -31.8418 H   0  0  0  0  0  0  0  0  0  0  0  0
   -7.6204   17.0826  -32.5369 H   0  0  0  0  0  0  0  0  0  0  0  0
   -5.2893   16.6204  -32.9483 H   0  0  0  0  0  0  0  0  0  0  0  0
   -6.2607   17.1188  -34.3748 H   0  0  0  0  0  0  0  0  0  0  0  0
   -4.4797   17.3527  -34.3748 H   0  0  0  0  0  0  0  0  0  0  0  0
   -0.5166   21.5914  -33.7762 H   0  0  0  0  0  0  0  0  0  0  0  0
    0.7331   19.4182  -33.9185 H   0  0  0  0  0  0  0  0  0  0  0  0
   -0.4821   17.2568  -33.6125 H   0  0  0  0  0  0  0  0  0  0  0  0
   -2.9583   17.2375  -33.2341 H   0  0  0  0  0  0  0  0  0  0  0  0
  1  2  1  0
  2  3  1  0
  3  4  1  0
  4  5  1  0
  3  6  1  0
  6  7  1  0
  7  8  1  0
  8  9  1  0
  9 10  2  0
 10 11  1  0
 11 12  2  0
 12 13  1  0
 13 14  2  0
 14 15  1  0
 15 16  2  0
 16 17  1  0
 16 18  1  0
 18 19  2  0
 19 20  1  0
 20 21  1  0
 21 22  2  0
 22 23  1  0
 23 24  2  0
 24 25  1  0
 25 26  2  0
 19  9  1  0
 26 21  1  0
 15 10  1  0
 26 18  1  0
  1 27  1  0
  1 28  1  0
  1 29  1  0
  2 30  1  0
  2 31  1  0
  4 32  1  0
  4 33  1  0
  5 34  1  0
  5 35  1  0
  5 36  1  0
  6 37  1  0
  6 38  1  0
  7 39  1  0
  7 40  1  0
  8 41  1  0
 11 42  1  0
 12 43  1  0
 13 44  1  0
 14 45  1  0
 17 46  1  0
 17 47  1  0
 17 48  1  0
 22 49  1  0
 23 50  1  0
 24 51  1  0
 25 52  1  0
M  CHG  1  16   1
M  END
>  <UniqueID>  (40) 
39

>  <SMILES>  (40) 
CCN(CC)CCNc1c2ccccc2[n+](C)c2c1sc1ccccc12

>  <Energy>  (40) 
115.63090701028469

>  <Genealogy>  (40) 
CCN(CC)CCNc1c2ccccc2[n+](C)c2c1sc1ccccc12 (3D coordinates assigned)
CCN(CC)CCNc1c2ccccc2[n+](C)c2c1sc1ccccc12 (optimized conformer: 115.63090701028469 kcal/mol)

>  <smiles>  (40) 
CCN(CC)CCNc1c2ccccc2[n+](C)c2c1sc1ccccc12

>  <score_type>  (40) 
oracle

>  <origin>  (40) 
adg

>  <m_score__min__energy>  (40) 
-8.6799999999999997

>  <m_primary>  (40) 
energy

$$$$
40:0
     RDKit          3D

 53 56  0  0  0  0  0  0  0  0999 V2000
   -2.9260   21.4300  -28.6370 C   0  0  0  0  0  0  0  0  0  0  0  0
   -3.8510   22.3400  -27.8190 C   0  0  0  0  0  0  0  0  0  0  0  0
   -4.8180   23.0830  -28.6660 N   0  0  1  0  0  0  0  0  0  0  0  0
   -4.6120   24.5400  -28.5420 C   0  0  0  0  0  0  0  0  0  0  0  0
   -4.6850   22.6920  -30.0930 C   0  0  0  0  0  0  0  0  0  0  0  0
   -5.5880   23.5210  -31.0360 C   0  0  0  0  0  0  0  0  0  0  0  0
   -5.5300   23.0280  -32.4150 N   0  0  0  0  0  0  0  0  0  0  0  0
   -5.4700   21.6210  -32.7140 C   0  0  0  0  0  0  0  0  0  0  0  0
   -4.2440   21.0300  -33.0520 C   0  0  0  0  0  0  0  0  0  0  0  0
   -3.0320   21.7570  -32.9540 C   0  0  0  0  0  0  0  0  0  0  0  0
   -1.8550   21.1300  -33.3340 C   0  0  0  0  0  0  0  0  0  0  0  0
   -1.8330   19.8580  -33.7880 C   0  0  0  0  0  0  0  0  0  0  0  0
   -2.9900   19.0980  -33.9050 C   0  0  0  0  0  0  0  0  0  0  0  0
   -4.2330   19.6840  -33.5370 C   0  0  0  0  0  0  0  0  0  0  0  0
   -5.4170   18.9900  -33.6570 N   0  0  0  0  0  0  0  0  0  0  0  0
   -5.4920   17.8790  -34.6280 C   0  0  0  0  0  0  0  0  0  0  0  0
   -6.5540   19.4470  -33.0130 C   0  0  0  0  0  0  0  0  0  0  0  0
   -7.6690   18.6010  -32.7000 C   0  0  0  0  0  0  0  0  0  0  0  0
   -7.5930   17.0930  -32.6850 C   0  0  0  0  0  0  0  0  0  0  0  0
   -8.8660   19.1740  -32.2390 C   0  0  0  0  0  0  0  0  0  0  0  0
   -8.9420   20.5310  -31.9590 C   0  0  0  0  0  0  0  0  0  0  0  0
   -7.8220   21.3380  -32.1040 C   0  0  0  0  0  0  0  0  0  0  0  0
   -6.6210   20.8150  -32.6200 C   0  0  0  0  0  0  0  0  0  0  0  0
   -0.5330   19.4940  -34.0820 O   0  0  0  0  0  0  0  0  0  0  0  0
    0.3150   20.6130  -33.7960 C   0  0  0  0  0  0  0  0  0  0  0  0
   -0.5690   21.6380  -33.3200 O   0  0  0  0  0  0  0  0  0  0  0  0
   -2.3106   20.8246  -27.9552 H   0  0  0  0  0  0  0  0  0  0  0  0
   -3.5319   20.7661  -29.2712 H   0  0  0  0  0  0  0  0  0  0  0  0
   -2.2721   22.0467  -29.2712 H   0  0  0  0  0  0  0  0  0  0  0  0
   -4.4125   21.7203  -27.1044 H   0  0  0  0  0  0  0  0  0  0  0  0
   -3.2201   23.0810  -27.3062 H   0  0  0  0  0  0  0  0  0  0  0  0
   -5.7950   22.8730  -28.3520 H   0  0  0  0  0  0  0  0  0  0  0  0
   -4.5730   24.8155  -27.4778 H   0  0  0  0  0  0  0  0  0  0  0  0
   -3.6655   24.8192  -29.0279 H   0  0  0  0  0  0  0  0  0  0  0  0
   -5.4441   25.0706  -29.0279 H   0  0  0  0  0  0  0  0  0  0  0  0
   -3.6376   22.8325  -30.3983 H   0  0  0  0  0  0  0  0  0  0  0  0
   -5.0009   21.6416  -30.1760 H   0  0  0  0  0  0  0  0  0  0  0  0
   -6.6268   23.4602  -30.6792 H   0  0  0  0  0  0  0  0  0  0  0  0
   -5.2284   24.5605  -31.0284 H   0  0  0  0  0  0  0  0  0  0  0  0
   -5.4960   23.7110  -33.2040 H   0  0  0  0  0  0  0  0  0  0  0  0
   -3.0248   22.7934  -32.5855 H   0  0  0  0  0  0  0  0  0  0  0  0
   -2.9459   18.0631  -34.2751 H   0  0  0  0  0  0  0  0  0  0  0  0
   -5.5565   16.9232  -34.0873 H   0  0  0  0  0  0  0  0  0  0  0  0
   -6.3838   18.0038  -35.2598 H   0  0  0  0  0  0  0  0  0  0  0  0
   -4.5916   17.8828  -35.2598 H   0  0  0  0  0  0  0  0  0  0  0  0
   -7.5751   16.7371  -31.6443 H   0  0  0  0  0  0  0  0  0  0  0  0
   -8.4713   16.6765  -33.1999 H   0  0  0  0  0  0  0  0  0  0  0  0
   -6.6773   16.7669  -33.1999 H   0  0  0  0  0  0  0  0  0  0  0  0
   -9.7535   18.5395  -32.0983 H   0  0  0  0  0  0  0  0  0  0  0  0
   -9.8929   20.9686  -31.6210 H   0  0  0  0  0  0  0  0  0  0  0  0
   -7.8733   22.3975  -31.8126 H   0  0  0  0  0  0  0  0  0  0  0  0
    1.0537   20.3508  -33.0243 H   0  0  0  0  0  0  0  0  0  0  0  0
    0.8839   20.9364  -34.6802 H   0  0  0  0  0  0  0  0  0  0  0  0
  1  2  1  0
  2  3  1  0
  3  4  1  0
  3  5  1  0
  5  6  1  0
  6  7  1  0
  7  8  1  0
  8  9  2  0
  9 10  1  0
 10 11  2  0
 11 12  1  0
 12 13  2  0
 13 14  1  0
 14 15  2  0
 15 16  1  0
 15 17  1  0
 17 18  2  0
 18 19  1  0
 18 20  1  0
 20 21  2  0
 21 22  1  0
 22 23  2  0
 12 24  1  0
 24 25  1  0
 25 26  1  0
 23  8  1  0
 14  9  1  0
 23 17  1  0
 26 11  1  0
  1 27  1  0
  1 28  1  0
  1 29  1  0
  2 30  1  0
  2 31  1  0
  3 32  1  1
  4 33  1  0
  4 34  1  0
  4 35  1  0
  5 36  1  0
  5 37  1  0
  6 38  1  0
  6 39  1  0
  7 40  1  0
 10 41  1  0
 13 42  1  0
 16 43  1  0
 16 44  1  0
 16 45  1  0
 19 46  1  0
 19 47  1  0
 19 48  1  0
 20 49  1  0
 21 50  1  0
 22 51  1  0
 25 52  1  0
 25 53  1  0
M  CHG  2   3   1  15   1
M  END
>  <UniqueID>  (41) 
40

>  <SMILES>  (41) 
CC[N@@H+](C)CCNc1c2cc3c(cc2[n+](C)c2c(C)cccc12)OCO3

>  <Energy>  (41) 
120.70016008884366

>  <Genealogy>  (41) 
CC[NH+](C)CCNc1c2cc3c(cc2[n+](C)c2c(C)cccc12)OCO3 (protonated)
CC[N@@H+](C)CCNc1c2cc3c(cc2[n+](C)c2c(C)cccc12)OCO3 (chirality)
CC[N@@H+](C)CCNc1c2cc3c(cc2[n+](C)c2c(C)cccc12)OCO3 (3D coordinates assigned)
CC[N@@H+](C)CCNc1c2cc3c(cc2[n+](C)c2c(C)cccc12)OCO3 (nonaromatic ring conformer: 120.70016008884366 kcal/mol)

>  <smiles>  (41) 
CCN(C)CCNc1c2cc3c(cc2[n+](C)c2c(C)cccc12)OCO3

>  <score_type>  (41) 
oracle

>  <origin>  (41) 
adg

>  <m_score__min__energy>  (41) 
-7.1500000000000004

>  <m_primary>  (41) 
energy

$$$$
