0:0
     RDKit          3D

 60 62  0  0  0  0  0  0  0  0999 V2000
   -5.3730   25.5090  -30.4550 C   0  0  0  0  0  0  0  0  0  0  0  0
   -3.9540   25.3380  -30.4700 O   0  0  0  0  0  0  0  0  0  0  0  0
   -3.2830   24.1900  -30.0070 C   0  0  0  0  0  0  0  0  0  0  0  0
   -3.7770   22.8910  -30.2380 C   0  0  0  0  0  0  0  0  0  0  0  0
   -3.0870   21.7750  -29.7550 C   0  0  0  0  0  0  0  0  0  0  0  0
   -1.9070   21.9350  -29.0220 C   0  0  0  0  0  0  0  0  0  0  0  0
   -1.1740   20.7250  -28.5010 C   0  0  0  0  0  0  0  0  0  0  0  0
   -1.1120   19.6740  -29.5370 N   0  0  0  0  0  0  0  0  0  0  0  0
   -0.1180   18.6550  -29.2030 C   0  0  0  0  0  0  0  0  0  0  0  0
    0.2800   18.0080  -30.5040 C   0  0  0  0  0  0  0  0  0  0  0  0
    0.1210   19.1100  -31.5500 C   0  0  1  0  0  0  0  0  0  0  0  0
   -0.5280   18.6300  -32.7890 N   0  0  0  0  0  0  0  0  0  0  0  0
   -1.9860   18.4510  -32.6580 C   0  0  0  0  0  0  0  0  0  0  0  0
   -2.7610   19.3880  -33.5450 C   0  0  0  0  0  0  0  0  0  0  0  0
   -2.1650   20.0650  -34.4250 O   0  0  0  0  0  0  0  0  0  0  0  0
   -4.1810   19.4990  -33.4080 N   0  0  0  0  0  0  0  0  0  0  0  0
   -5.0350   18.6540  -34.2480 C   0  0  0  0  0  0  0  0  0  0  0  0
   -6.3520   18.2840  -33.5290 C   0  0  0  0  0  0  0  0  0  0  0  0
   -6.6760   19.1860  -32.3940 N   0  0  0  0  0  0  0  0  0  0  0  0
   -8.1110   19.1160  -32.0720 C   0  0  0  0  0  0  0  0  0  0  0  0
   -6.2720   20.5740  -32.6760 C   0  0  0  0  0  0  0  0  0  0  0  0
   -4.7430   20.6440  -32.6920 C   0  0  0  0  0  0  0  0  0  0  0  0
   -0.7230   20.1920  -30.8560 C   0  0  0  0  0  0  0  0  0  0  0  0
   -1.4040   23.2270  -28.8010 C   0  0  0  0  0  0  0  0  0  0  0  0
   -2.0860   24.3580  -29.2920 C   0  0  0  0  0  0  0  0  0  0  0  0
   -1.6080   25.6650  -29.0870 O   0  0  0  0  0  0  0  0  0  0  0  0
   -0.9960   26.1190  -27.8850 C   0  0  0  0  0  0  0  0  0  0  0  0
   -5.7262   25.5516  -29.4141 H   0  0  0  0  0  0  0  0  0  0  0  0
   -5.6350   26.4452  -30.9697 H   0  0  0  0  0  0  0  0  0  0  0  0
   -5.8499   24.6618  -30.9697 H   0  0  0  0  0  0  0  0  0  0  0  0
   -4.7115   22.7539  -30.8019 H   0  0  0  0  0  0  0  0  0  0  0  0
   -3.4748   20.7648  -29.9529 H   0  0  0  0  0  0  0  0  0  0  0  0
   -0.1515   21.0151  -28.2175 H   0  0  0  0  0  0  0  0  0  0  0  0
   -1.7121   20.3317  -27.6259 H   0  0  0  0  0  0  0  0  0  0  0  0
    0.7574   19.1193  -28.7254 H   0  0  0  0  0  0  0  0  0  0  0  0
   -0.5256   17.9157  -28.4978 H   0  0  0  0  0  0  0  0  0  0  0  0
    1.3230   17.6611  -30.4615 H   0  0  0  0  0  0  0  0  0  0  0  0
   -0.3334   17.1243  -30.7340 H   0  0  0  0  0  0  0  0  0  0  0  0
    1.0994   19.4891  -31.8801 H   0  0  0  0  0  0  0  0  0  0  0  0
   -0.1030   17.7210  -33.0770 H   0  0  0  0  0  0  0  0  0  0  0  0
   -0.3510   19.3110  -33.5600 H   0  0  0  0  0  0  0  0  0  0  0  0
   -2.2407   17.4159  -32.9295 H   0  0  0  0  0  0  0  0  0  0  0  0
   -2.2589   18.6731  -31.6158 H   0  0  0  0  0  0  0  0  0  0  0  0
   -5.2742   19.1971  -35.1742 H   0  0  0  0  0  0  0  0  0  0  0  0
   -4.4898   17.7242  -34.4677 H   0  0  0  0  0  0  0  0  0  0  0  0
   -7.1736   18.3324  -34.2588 H   0  0  0  0  0  0  0  0  0  0  0  0
   -6.2239   17.2730  -33.1150 H   0  0  0  0  0  0  0  0  0  0  0  0
   -8.2418   19.1096  -30.9798 H   0  0  0  0  0  0  0  0  0  0  0  0
   -8.6254   19.9901  -32.4978 H   0  0  0  0  0  0  0  0  0  0  0  0
   -8.5379   18.1960  -32.4978 H   0  0  0  0  0  0  0  0  0  0  0  0
   -6.6674   20.8834  -33.6547 H   0  0  0  0  0  0  0  0  0  0  0  0
   -6.6708   21.2461  -31.9019 H   0  0  0  0  0  0  0  0  0  0  0  0
   -4.4291   21.5721  -33.1920 H   0  0  0  0  0  0  0  0  0  0  0  0
   -4.3771   20.6271  -31.6548 H   0  0  0  0  0  0  0  0  0  0  0  0
   -0.1308   21.1114  -30.7381 H   0  0  0  0  0  0  0  0  0  0  0  0
   -1.6139   20.4306  -31.4555 H   0  0  0  0  0  0  0  0  0  0  0  0
   -0.4677   23.3577  -28.2387 H   0  0  0  0  0  0  0  0  0  0  0  0
   -1.5418   25.7141  -27.0200 H   0  0  0  0  0  0  0  0  0  0  0  0
    0.0485   25.7756  -27.8530 H   0  0  0  0  0  0  0  0  0  0  0  0
   -1.0217   27.2182  -27.8530 H   0  0  0  0  0  0  0  0  0  0  0  0
  1  2  1  0
  2  3  1  0
  3  4  2  0
  4  5  1  0
  5  6  2  0
  6  7  1  0
  7  8  1  0
  8  9  1  0
  9 10  1  0
 10 11  1  0
 11 12  1  0
 12 13  1  0
 13 14  1  0
 14 15  2  0
 14 16  1  0
 16 17  1  0
 17 18  1  0
 18 19  1  0
 19 20  1  0
 19 21  1  0
 21 22  1  0
 11 23  1  0
  6 24  1  0
 24 25  2  0
 25 26  1  0
 26 27  1  0
 25  3  1  0
 23  8  1  0
 22 16  1  0
  1 28  1  0
  1 29  1  0
  1 30  1  0
  4 31  1  0
  5 32  1  0
  7 33  1  0
  7 34  1  0
  9 35  1  0
  9 36  1  0
 10 37  1  0
 10 38  1  0
 11 39  1  6
 12 40  1  0
 12 41  1  0
 13 42  1  0
 13 43  1  0
 17 44  1  0
 17 45  1  0
 18 46  1  0
 18 47  1  0
 20 48  1  0
 20 49  1  0
 20 50  1  0
 21 51  1  0
 21 52  1  0
 22 53  1  0
 22 54  1  0
 23 55  1  0
 23 56  1  0
 24 57  1  0
 27 58  1  0
 27 59  1  0
 27 60  1  0
M  CHG  1  12   1
M  END
>  <UniqueID>  (1) 
1

>  <SMILES>  (1) 
COc1ccc(CN2CC[C@@H]([NH2+]CC(=O)N3CCN(C)CC3)C2)cc1OC

>  <Energy>  (1) 
72.43735471796622

>  <Genealogy>  (1) 
COc1ccc(CN2CCC([NH2+]CC(=O)N3CCN(C)CC3)C2)cc1OC (protonated)
COc1ccc(CN2CC[C@@H]([NH2+]CC(=O)N3CCN(C)CC3)C2)cc1OC (chirality)
COc1ccc(CN2CC[C@@H]([NH2+]CC(=O)N3CCN(C)CC3)C2)cc1OC (3D coordinates assigned)
COc1ccc(CN2CC[C@@H]([NH2+]CC(=O)N3CCN(C)CC3)C2)cc1OC (nonaromatic ring conformer: 72.43735471796622 kcal/mol)

>  <smiles>  (1) 
COc1ccc(CN2CCC(NCC(=O)N3CCN(C)CC3)C2)cc1OC

>  <score_type>  (1) 
oracle

>  <origin>  (1) 
adg

>  <m_score__min__energy>  (1) 
-7.5599999999999996

>  <m_primary>  (1) 
energy

$$$$
1:0
     RDKit          3D

 34 37  0  0  0  0  0  0  0  0999 V2000
    1.7520   25.0110  -26.1060 C   0  0  0  0  0  0  0  0  0  0  0  0
    1.6960   24.4650  -27.4180 O   0  0  0  0  0  0  0  0  0  0  0  0
    0.4920   24.1910  -28.0740 C   0  0  0  0  0  0  0  0  0  0  0  0
    0.2440   22.9000  -28.5440 C   0  0  0  0  0  0  0  0  0  0  0  0
   -0.9580   22.6240  -29.1980 C   0  0  0  0  0  0  0  0  0  0  0  0
   -1.9120   23.6380  -29.3770 C   0  0  0  0  0  0  0  0  0  0  0  0
   -3.1550   23.3770  -30.0550 N   0  0  0  0  0  0  0  0  0  0  0  0
   -3.6560   22.1500  -30.3480 C   0  0  0  0  0  0  0  0  0  0  0  0
   -4.8670   22.2990  -31.0070 C   0  0  0  0  0  0  0  0  0  0  0  0
   -5.1010   23.6430  -31.1190 C   0  0  0  0  0  0  0  0  0  0  0  0
   -6.2430   24.1290  -31.7460 C   0  0  0  0  0  0  0  0  0  0  0  0
   -7.1380   23.2270  -32.2470 N   0  0  0  0  0  0  0  0  0  0  0  0
   -6.9390   21.8740  -32.1510 C   0  0  0  0  0  0  0  0  0  0  0  0
   -7.8830   20.9870  -32.6800 C   0  0  0  0  0  0  0  0  0  0  0  0
   -7.6790   19.6070  -32.5820 C   0  0  0  0  0  0  0  0  0  0  0  0
   -6.5330   19.1040  -31.9570 C   0  0  0  0  0  0  0  0  0  0  0  0
   -5.5780   19.9760  -31.4230 C   0  0  0  0  0  0  0  0  0  0  0  0
   -5.7740   21.3630  -31.5150 C   0  0  0  0  0  0  0  0  0  0  0  0
   -4.0380   24.2870  -30.5330 C   0  0  0  0  0  0  0  0  0  0  0  0
   -3.8690   25.6660  -30.4700 O   0  0  0  0  0  0  0  0  0  0  0  0
   -1.6170   24.9240  -28.8950 C   0  0  0  0  0  0  0  0  0  0  0  0
   -0.4400   25.1660  -28.2590 N   0  0  0  0  0  0  0  0  0  0  0  0
    1.6688   24.2000  -25.3675 H   0  0  0  0  0  0  0  0  0  0  0  0
    2.7087   25.5360  -25.9679 H   0  0  0  0  0  0  0  0  0  0  0  0
    0.9218   25.7193  -25.9679 H   0  0  0  0  0  0  0  0  0  0  0  0
    0.9909   22.1054  -28.3999 H   0  0  0  0  0  0  0  0  0  0  0  0
   -1.1580   21.6097  -29.5739 H   0  0  0  0  0  0  0  0  0  0  0  0
   -3.1777   21.1905  -30.1019 H   0  0  0  0  0  0  0  0  0  0  0  0
   -6.4209   25.2108  -31.8361 H   0  0  0  0  0  0  0  0  0  0  0  0
   -8.7862   21.3754  -33.1733 H   0  0  0  0  0  0  0  0  0  0  0  0
   -8.4239   18.9131  -32.9987 H   0  0  0  0  0  0  0  0  0  0  0  0
   -6.3818   18.0168  -31.8850 H   0  0  0  0  0  0  0  0  0  0  0  0
   -4.6777   19.5765  -30.9333 H   0  0  0  0  0  0  0  0  0  0  0  0
   -2.3421   25.7396  -29.0329 H   0  0  0  0  0  0  0  0  0  0  0  0
  1  2  1  0
  2  3  1  0
  3  4  2  0
  4  5  1  0
  5  6  2  0
  6  7  1  0
  7  8  1  0
  8  9  2  0
  9 10  1  0
 10 11  1  0
 11 12  2  0
 12 13  1  0
 13 14  2  0
 14 15  1  0
 15 16  2  0
 16 17  1  0
 17 18  2  0
 10 19  2  0
 19 20  1  0
  6 21  1  0
 21 22  2  0
 22  3  1  0
 19  7  1  0
 18  9  1  0
 18 13  1  0
  1 23  1  0
  1 24  1  0
  1 25  1  0
  4 26  1  0
  5 27  1  0
  8 28  1  0
 11 29  1  0
 14 30  1  0
 15 31  1  0
 16 32  1  0
 17 33  1  0
 21 34  1  0
M  CHG  1  20  -1
M  END
>  <UniqueID>  (2) 
2

>  <SMILES>  (2) 
COc1ccc(-n2cc3c(cnc4ccccc43)c2[O-])cn1

>  <Energy>  (2) 
81.91005011368537

>  <Genealogy>  (2) 
COc1ccc(-n2cc3c(cnc4ccccc43)c2[O-])cn1 (protonated)
COc1ccc(-n2cc3c(cnc4ccccc43)c2[O-])cn1 (3D coordinates assigned)
COc1ccc(-n2cc3c(cnc4ccccc43)c2[O-])cn1 (optimized conformer: 81.91005011368537 kcal/mol)

>  <smiles>  (2) 
COc1ccc(-n2cc3c(cnc4ccccc43)c2O)cn1

>  <score_type>  (2) 
oracle

>  <origin>  (2) 
adg

>  <m_score__min__energy>  (2) 
-10.210000000000001

>  <m_primary>  (2) 
energy

$$$$
2:0
     RDKit          3D

 40 41  0  0  0  0  0  0  0  0999 V2000
   -9.0900   21.0940  -31.9700 C   0  0  0  0  0  0  0  0  0  0  0  0
   -8.0700   19.9680  -31.7400 C   0  0  0  0  0  0  0  0  0  0  0  0
   -7.6240   19.2570  -32.9750 N   0  0  0  0  0  0  0  0  0  0  0  0
   -7.3280   17.8220  -32.7020 C   0  0  0  0  0  0  0  0  0  0  0  0
   -6.4910   17.1750  -33.8130 C   0  0  0  0  0  0  0  0  0  0  0  0
   -6.4710   19.8990  -33.6690 C   0  0  0  0  0  0  0  0  0  0  0  0
   -5.2730   20.2180  -32.7400 C   0  0  0  0  0  0  0  0  0  0  0  0
   -4.6230   21.5870  -33.0110 C   0  0  0  0  0  0  0  0  0  0  0  0
   -5.0910   22.6150  -32.0770 N   0  0  0  0  0  0  0  0  0  0  0  0
   -6.2140   23.3510  -32.2670 C   0  0  0  0  0  0  0  0  0  0  0  0
   -6.4630   24.1660  -31.1750 C   0  0  0  0  0  0  0  0  0  0  0  0
   -5.4400   23.9090  -30.2910 C   0  0  0  0  0  0  0  0  0  0  0  0
   -5.2160   24.4440  -29.0270 C   0  0  0  0  0  0  0  0  0  0  0  0
   -4.0880   24.0050  -28.3170 C   0  0  0  0  0  0  0  0  0  0  0  0
   -3.7590   24.6480  -26.7190 Cl  0  0  0  0  0  0  0  0  0  0  0  0
   -3.2150   23.0560  -28.8860 C   0  0  0  0  0  0  0  0  0  0  0  0
   -3.4580   22.5250  -30.1690 C   0  0  0  0  0  0  0  0  0  0  0  0
   -2.2790   21.3970  -30.8230 Cl  0  0  0  0  0  0  0  0  0  0  0  0
   -4.6080   22.9680  -30.8580 C   0  0  0  0  0  0  0  0  0  0  0  0
   -9.4376   21.4777  -30.9995 H   0  0  0  0  0  0  0  0  0  0  0  0
   -8.6156   21.9081  -32.5376 H   0  0  0  0  0  0  0  0  0  0  0  0
   -9.9469   20.7022  -32.5376 H   0  0  0  0  0  0  0  0  0  0  0  0
   -7.1826   20.4048  -31.2587 H   0  0  0  0  0  0  0  0  0  0  0  0
   -8.5784   19.2155  -31.1193 H   0  0  0  0  0  0  0  0  0  0  0  0
   -8.4300   19.2860  -33.6370 H   0  0  0  0  0  0  0  0  0  0  0  0
   -6.7735   17.7498  -31.7547 H   0  0  0  0  0  0  0  0  0  0  0  0
   -8.2872   17.2861  -32.6499 H   0  0  0  0  0  0  0  0  0  0  0  0
   -5.6967   16.5610  -33.3634 H   0  0  0  0  0  0  0  0  0  0  0  0
   -7.1374   16.5394  -34.4361 H   0  0  0  0  0  0  0  0  0  0  0  0
   -6.0388   17.9606  -34.4361 H   0  0  0  0  0  0  0  0  0  0  0  0
   -6.1228   19.2200  -34.4613 H   0  0  0  0  0  0  0  0  0  0  0  0
   -6.8325   20.8604  -34.0628 H   0  0  0  0  0  0  0  0  0  0  0  0
   -5.6279   20.2027  -31.6989 H   0  0  0  0  0  0  0  0  0  0  0  0
   -4.5050   19.4549  -32.9346 H   0  0  0  0  0  0  0  0  0  0  0  0
   -3.5321   21.4875  -32.9112 H   0  0  0  0  0  0  0  0  0  0  0  0
   -4.9043   21.8999  -34.0273 H   0  0  0  0  0  0  0  0  0  0  0  0
   -6.8433   23.3067  -33.1681 H   0  0  0  0  0  0  0  0  0  0  0  0
   -7.2993   24.8682  -31.0427 H   0  0  0  0  0  0  0  0  0  0  0  0
   -5.9021   25.1885  -28.5969 H   0  0  0  0  0  0  0  0  0  0  0  0
   -2.3313   22.7249  -28.3208 H   0  0  0  0  0  0  0  0  0  0  0  0
  1  2  1  0
  2  3  1  0
  3  4  1  0
  4  5  1  0
  3  6  1  0
  6  7  1  0
  7  8  1  0
  8  9  1  0
  9 10  1  0
 10 11  2  0
 11 12  1  0
 12 13  2  0
 13 14  1  0
 14 15  1  0
 14 16  2  0
 16 17  1  0
 17 18  1  0
 17 19  2  0
 19  9  1  0
 19 12  1  0
  1 20  1  0
  1 21  1  0
  1 22  1  0
  2 23  1  0
  2 24  1  0
  3 25  1  0
  4 26  1  0
  4 27  1  0
  5 28  1  0
  5 29  1  0
  5 30  1  0
  6 31  1  0
  6 32  1  0
  7 33  1  0
  7 34  1  0
  8 35  1  0
  8 36  1  0
 10 37  1  0
 11 38  1  0
 13 39  1  0
 16 40  1  0
M  CHG  1   3   1
M  END
>  <UniqueID>  (3) 
3

>  <SMILES>  (3) 
CC[NH+](CC)CCCn1ccc2cc(Cl)cc(Cl)c21

>  <Energy>  (3) 
78.55281559343986

>  <Genealogy>  (3) 
CC[NH+](CC)CCCn1ccc2cc(Cl)cc(Cl)c21 (protonated)
CC[NH+](CC)CCCn1ccc2cc(Cl)cc(Cl)c21 (3D coordinates assigned)
CC[NH+](CC)CCCn1ccc2cc(Cl)cc(Cl)c21 (optimized conformer: 78.55281559343986 kcal/mol)

>  <smiles>  (3) 
CCN(CC)CCCn1ccc2cc(Cl)cc(Cl)c21

>  <score_type>  (3) 
oracle

>  <origin>  (3) 
adg

>  <m_score__min__energy>  (3) 
-6.5199999999999996

>  <m_primary>  (3) 
energy

$$$$
3:0
     RDKit          3D

 44 45  0  0  0  0  0  0  0  0999 V2000
   -5.1110   24.6130  -29.8620 C   0  0  0  0  0  0  0  0  0  0  0  0
   -4.9840   24.0910  -31.2320 N   0  0  0  0  0  0  0  0  0  0  0  0
   -6.3240   23.9920  -31.8410 C   0  0  0  0  0  0  0  0  0  0  0  0
   -4.3130   22.7730  -31.2200 C   0  0  0  0  0  0  0  0  0  0  0  0
   -4.0420   22.2940  -32.6510 C   0  0  0  0  0  0  0  0  0  0  0  0
   -4.6260   20.9450  -32.8510 N   0  0  0  0  0  0  0  0  0  0  0  0
   -5.2910   20.4120  -31.6380 C   0  0  0  0  0  0  0  0  0  0  0  0
   -6.7190   19.9560  -31.8750 C   0  0  0  0  0  0  0  0  0  0  0  0
   -7.0800   18.6080  -31.6940 C   0  0  0  0  0  0  0  0  0  0  0  0
   -8.3970   18.1940  -31.9180 C   0  0  0  0  0  0  0  0  0  0  0  0
   -9.3660   19.1190  -32.3120 C   0  0  0  0  0  0  0  0  0  0  0  0
   -9.0230   20.4630  -32.4730 C   0  0  0  0  0  0  0  0  0  0  0  0
   -7.7090   20.8830  -32.2510 C   0  0  0  0  0  0  0  0  0  0  0  0
   -3.6710   19.9800  -33.4410 C   0  0  0  0  0  0  0  0  0  0  0  0
   -4.3400   18.6580  -33.7140 C   0  0  0  0  0  0  0  0  0  0  0  0
   -5.4600   18.5860  -34.5590 C   0  0  0  0  0  0  0  0  0  0  0  0
   -6.1080   17.3650  -34.7650 C   0  0  0  0  0  0  0  0  0  0  0  0
   -5.6440   16.2090  -34.1310 C   0  0  0  0  0  0  0  0  0  0  0  0
   -4.5310   16.2750  -33.2880 C   0  0  0  0  0  0  0  0  0  0  0  0
   -3.8810   17.4940  -33.0760 C   0  0  0  0  0  0  0  0  0  0  0  0
   -4.9144   23.8049  -29.1420 H   0  0  0  0  0  0  0  0  0  0  0  0
   -4.3841   25.4245  -29.7099 H   0  0  0  0  0  0  0  0  0  0  0  0
   -6.1295   24.9998  -29.7099 H   0  0  0  0  0  0  0  0  0  0  0  0
   -7.0840   23.9359  -31.0478 H   0  0  0  0  0  0  0  0  0  0  0  0
   -6.5097   24.8789  -32.4647 H   0  0  0  0  0  0  0  0  0  0  0  0
   -6.3774   23.0875  -32.4647 H   0  0  0  0  0  0  0  0  0  0  0  0
   -3.3584   22.8579  -30.6800 H   0  0  0  0  0  0  0  0  0  0  0  0
   -4.9688   22.0451  -30.7199 H   0  0  0  0  0  0  0  0  0  0  0  0
   -4.4970   22.9977  -33.3635 H   0  0  0  0  0  0  0  0  0  0  0  0
   -2.9557   22.2467  -32.8175 H   0  0  0  0  0  0  0  0  0  0  0  0
   -4.7087   19.5537  -31.2716 H   0  0  0  0  0  0  0  0  0  0  0  0
   -5.3331   21.2334  -30.9076 H   0  0  0  0  0  0  0  0  0  0  0  0
   -6.3229   17.8766  -31.3749 H   0  0  0  0  0  0  0  0  0  0  0  0
   -8.6702   17.1370  -31.7835 H   0  0  0  0  0  0  0  0  0  0  0  0
  -10.3992   18.7891  -32.4955 H   0  0  0  0  0  0  0  0  0  0  0  0
   -9.7888   21.1925  -32.7752 H   0  0  0  0  0  0  0  0  0  0  0  0
   -7.4467   21.9445  -32.3708 H   0  0  0  0  0  0  0  0  0  0  0  0
   -3.2834   20.3891  -34.3857 H   0  0  0  0  0  0  0  0  0  0  0  0
   -2.8505   19.8171  -32.7267 H   0  0  0  0  0  0  0  0  0  0  0  0
   -5.8281   19.4935  -35.0600 H   0  0  0  0  0  0  0  0  0  0  0  0
   -6.9848   17.3137  -35.4273 H   0  0  0  0  0  0  0  0  0  0  0  0
   -6.1541   15.2484  -34.2953 H   0  0  0  0  0  0  0  0  0  0  0  0
   -4.1656   15.3648  -32.7899 H   0  0  0  0  0  0  0  0  0  0  0  0
   -3.0082   17.5419  -32.4082 H   0  0  0  0  0  0  0  0  0  0  0  0
  1  2  1  0
  2  3  1  0
  2  4  1  0
  4  5  1  0
  5  6  1  0
  6  7  1  0
  7  8  1  0
  8  9  2  0
  9 10  1  0
 10 11  2  0
 11 12  1  0
 12 13  2  0
  6 14  1  0
 14 15  1  0
 15 16  2  0
 16 17  1  0
 17 18  2  0
 18 19  1  0
 19 20  2  0
 13  8  1  0
 20 15  1  0
  1 21  1  0
  1 22  1  0
  1 23  1  0
  3 24  1  0
  3 25  1  0
  3 26  1  0
  4 27  1  0
  4 28  1  0
  5 29  1  0
  5 30  1  0
  7 31  1  0
  7 32  1  0
  9 33  1  0
 10 34  1  0
 11 35  1  0
 12 36  1  0
 13 37  1  0
 14 38  1  0
 14 39  1  0
 16 40  1  0
 17 41  1  0
 18 42  1  0
 19 43  1  0
 20 44  1  0
M  END
>  <UniqueID>  (4) 
4

>  <SMILES>  (4) 
CN(C)CCN(Cc1ccccc1)Cc1ccccc1

>  <Energy>  (4) 
46.9321587178097

>  <Genealogy>  (4) 
CN(C)CCN(Cc1ccccc1)Cc1ccccc1 (3D coordinates assigned)
CN(C)CCN(Cc1ccccc1)Cc1ccccc1 (optimized conformer: 46.9321587178097 kcal/mol)

>  <smiles>  (4) 
CN(C)CCN(Cc1ccccc1)Cc1ccccc1

>  <score_type>  (4) 
oracle

>  <origin>  (4) 
adg

>  <m_score__min__energy>  (4) 
-6.9900000000000002

>  <m_primary>  (4) 
energy

$$$$
4:0
     RDKit          3D

 43 46  0  0  0  0  0  0  0  0999 V2000
    3.6010   19.7050  -34.3250 C   0  0  0  0  0  0  0  0  0  0  0  0
    2.5460   20.4930  -34.8660 O   0  0  0  0  0  0  0  0  0  0  0  0
    1.1840   20.2810  -34.6060 C   0  0  0  0  0  0  0  0  0  0  0  0
    0.4280   21.3510  -34.1130 C   0  0  0  0  0  0  0  0  0  0  0  0
   -0.9330   21.1980  -33.8390 C   0  0  0  0  0  0  0  0  0  0  0  0
   -1.5610   19.9630  -34.0540 C   0  0  0  0  0  0  0  0  0  0  0  0
   -2.9280   19.8000  -33.7820 C   0  0  0  0  0  0  0  0  0  0  0  0
   -3.5490   18.5640  -34.0080 C   0  0  0  0  0  0  0  0  0  0  0  0
   -5.2710   18.3770  -33.6910 S   0  0  0  0  0  0  0  0  0  0  0  0
   -6.0830   18.9190  -34.8350 O   0  0  0  0  0  0  0  0  0  0  0  0
   -5.5790   16.9170  -33.5180 O   0  0  0  0  0  0  0  0  0  0  0  0
   -5.7040   19.2250  -32.2420 N   0  0  0  0  0  0  0  0  0  0  0  0
   -6.8340   20.0970  -32.1070 C   0  0  0  0  0  0  0  0  0  0  0  0
   -8.1430   19.7100  -32.4700 C   0  0  0  0  0  0  0  0  0  0  0  0
   -9.2180   20.6070  -32.3280 C   0  0  0  0  0  0  0  0  0  0  0  0
   -9.0070   21.9000  -31.8210 C   0  0  0  0  0  0  0  0  0  0  0  0
   -7.7130   22.2780  -31.4610 C   0  0  0  0  0  0  0  0  0  0  0  0
   -7.3340   23.5220  -30.9470 C   0  0  0  0  0  0  0  0  0  0  0  0
   -5.9670   23.5890  -30.6920 C   0  0  0  0  0  0  0  0  0  0  0  0
   -5.1190   24.9800  -30.0450 S   0  0  0  0  0  0  0  0  0  0  0  0
   -3.5550   25.0950  -30.7700 N   0  0  0  0  0  0  0  0  0  0  0  0
   -5.8930   26.2330  -30.3490 O   0  0  0  0  0  0  0  0  0  0  0  0
   -4.9760   24.8330  -28.5560 O   0  0  0  0  0  0  0  0  0  0  0  0
   -5.2310   22.1240  -31.0970 S   0  0  0  0  0  0  0  0  0  0  0  0
   -6.6560   21.3870  -31.6030 C   0  0  0  0  0  0  0  0  0  0  0  0
   -2.8000   17.4850  -34.4930 C   0  0  0  0  0  0  0  0  0  0  0  0
   -1.4380   17.6360  -34.7640 C   0  0  0  0  0  0  0  0  0  0  0  0
   -0.8090   18.8720  -34.5500 C   0  0  0  0  0  0  0  0  0  0  0  0
    0.5580   19.0360  -34.8240 C   0  0  0  0  0  0  0  0  0  0  0  0
    3.5570   19.7379  -33.2264 H   0  0  0  0  0  0  0  0  0  0  0  0
    3.4931   18.6645  -34.6653 H   0  0  0  0  0  0  0  0  0  0  0  0
    4.5681   20.1037  -34.6653 H   0  0  0  0  0  0  0  0  0  0  0  0
    0.9114   22.3237  -33.9394 H   0  0  0  0  0  0  0  0  0  0  0  0
   -1.5138   22.0489  -33.4534 H   0  0  0  0  0  0  0  0  0  0  0  0
   -3.5138   20.6446  -33.3903 H   0  0  0  0  0  0  0  0  0  0  0  0
   -8.3235   18.7000  -32.8666 H   0  0  0  0  0  0  0  0  0  0  0  0
  -10.2320   20.2930  -32.6164 H   0  0  0  0  0  0  0  0  0  0  0  0
   -9.8467   22.6018  -31.7098 H   0  0  0  0  0  0  0  0  0  0  0  0
   -8.0341   24.3508  -30.7654 H   0  0  0  0  0  0  0  0  0  0  0  0
   -3.4950   26.0370  -31.2190 H   0  0  0  0  0  0  0  0  0  0  0  0
   -3.2868   16.5131  -34.6615 H   0  0  0  0  0  0  0  0  0  0  0  0
   -0.8570   16.7837  -35.1462 H   0  0  0  0  0  0  0  0  0  0  0  0
    1.1440   18.1892  -35.2107 H   0  0  0  0  0  0  0  0  0  0  0  0
  1  2  1  0
  2  3  1  0
  3  4  2  0
  4  5  1  0
  5  6  2  0
  6  7  1  0
  7  8  2  0
  8  9  1  0
  9 10  2  0
  9 11  2  0
  9 12  1  0
 12 13  1  0
 13 14  2  0
 14 15  1  0
 15 16  2  0
 16 17  1  0
 17 18  1  0
 18 19  2  0
 19 20  1  0
 20 21  1  0
 20 22  2  0
 20 23  2  0
 19 24  1  0
 24 25  1  0
  8 26  1  0
 26 27  2  0
 27 28  1  0
 28 29  2  0
 29  3  1  0
 28  6  1  0
 25 13  1  0
 25 17  2  0
  1 30  1  0
  1 31  1  0
  1 32  1  0
  4 33  1  0
  5 34  1  0
  7 35  1  0
 14 36  1  0
 15 37  1  0
 16 38  1  0
 18 39  1  0
 21 40  1  0
 26 41  1  0
 27 42  1  0
 29 43  1  0
M  CHG  2  12  -1  21  -1
M  END
>  <UniqueID>  (5) 
5

>  <SMILES>  (5) 
COc1ccc2cc(S(=O)(=O)[N-]c3cccc4cc(S([NH-])(=O)=O)sc34)ccc2c1

>  <Energy>  (5) 
82.98308760561656

>  <Genealogy>  (5) 
COc1ccc2cc(S(=O)(=O)[N-]c3cccc4cc(S([NH-])(=O)=O)sc34)ccc2c1 (protonated)
COc1ccc2cc(S(=O)(=O)[N-]c3cccc4cc(S([NH-])(=O)=O)sc34)ccc2c1 (3D coordinates assigned)
COc1ccc2cc(S(=O)(=O)[N-]c3cccc4cc(S([NH-])(=O)=O)sc34)ccc2c1 (optimized conformer: 82.98308760561656 kcal/mol)

>  <smiles>  (5) 
COc1ccc2cc(S(=O)(=O)Nc3cccc4cc(S(N)(=O)=O)sc34)ccc2c1

>  <score_type>  (5) 
oracle

>  <origin>  (5) 
adg

>  <m_score__min__energy>  (5) 
-11.539999999999999

>  <m_primary>  (5) 
energy

$$$$
5:0
     RDKit          3D

 47 49  0  0  0  0  0  0  0  0999 V2000
   -9.0040   18.2440  -31.6160 C   0  0  0  0  0  0  0  0  0  0  0  0
   -7.8410   18.8720  -32.3210 C   0  0  0  0  0  0  0  0  0  0  0  0
   -7.9140   20.0070  -33.1080 C   0  0  0  0  0  0  0  0  0  0  0  0
   -6.6310   20.2580  -33.5500 C   0  0  0  0  0  0  0  0  0  0  0  0
   -5.8280   19.2670  -33.0180 C   0  0  0  0  0  0  0  0  0  0  0  0
   -4.3420   19.1510  -33.2570 C   0  0  0  0  0  0  0  0  0  0  0  0
   -3.6410   20.4190  -33.0040 N   0  0  0  0  0  0  0  0  0  0  0  0
   -2.5460   20.2580  -32.0400 C   0  0  0  0  0  0  0  0  0  0  0  0
   -2.6190   21.3490  -31.0080 C   0  0  0  0  0  0  0  0  0  0  0  0
   -2.0930   21.1420  -29.7230 C   0  0  0  0  0  0  0  0  0  0  0  0
   -2.1330   22.1670  -28.7740 C   0  0  0  0  0  0  0  0  0  0  0  0
   -2.6800   23.4090  -29.1060 C   0  0  0  0  0  0  0  0  0  0  0  0
   -3.1740   23.6410  -30.4020 C   0  0  0  0  0  0  0  0  0  0  0  0
   -3.7440   24.9040  -30.7750 N   0  0  0  0  0  0  0  0  0  0  0  0
   -5.1300   25.2630  -30.6950 C   0  0  0  0  0  0  0  0  0  0  0  0
   -5.4280   26.4640  -30.4630 O   0  0  0  0  0  0  0  0  0  0  0  0
   -6.2120   24.2560  -30.8210 C   0  0  0  0  0  0  0  0  0  0  0  0
   -6.8560   24.0390  -32.0530 C   0  0  0  0  0  0  0  0  0  0  0  0
   -7.8710   23.0860  -32.1610 C   0  0  0  0  0  0  0  0  0  0  0  0
   -8.2470   22.3310  -31.0460 C   0  0  0  0  0  0  0  0  0  0  0  0
   -9.2320   21.4060  -31.1530 F   0  0  0  0  0  0  0  0  0  0  0  0
   -7.6020   22.5270  -29.8220 C   0  0  0  0  0  0  0  0  0  0  0  0
   -6.5860   23.4810  -29.7100 C   0  0  0  0  0  0  0  0  0  0  0  0
   -3.1530   22.6030  -31.3420 C   0  0  0  0  0  0  0  0  0  0  0  0
   -6.5720   18.4050  -32.2860 N   0  0  0  0  0  0  0  0  0  0  0  0
   -6.0840   17.2770  -31.4910 C   0  0  0  0  0  0  0  0  0  0  0  0
   -8.8592   18.3222  -30.5284 H   0  0  0  0  0  0  0  0  0  0  0  0
   -9.9302   18.7646  -31.9010 H   0  0  0  0  0  0  0  0  0  0  0  0
   -9.0767   17.1840  -31.9010 H   0  0  0  0  0  0  0  0  0  0  0  0
   -8.8161   20.5935  -33.3364 H   0  0  0  0  0  0  0  0  0  0  0  0
   -6.3100   21.0858  -34.1994 H   0  0  0  0  0  0  0  0  0  0  0  0
   -3.9339   18.3801  -32.5868 H   0  0  0  0  0  0  0  0  0  0  0  0
   -4.1883   18.8834  -34.3128 H   0  0  0  0  0  0  0  0  0  0  0  0
   -4.3200   21.1220  -32.6280 H   0  0  0  0  0  0  0  0  0  0  0  0
   -2.6345   19.2795  -31.5453 H   0  0  0  0  0  0  0  0  0  0  0  0
   -1.5827   20.3177  -32.5676 H   0  0  0  0  0  0  0  0  0  0  0  0
   -1.6481   20.1703  -29.4624 H   0  0  0  0  0  0  0  0  0  0  0  0
   -1.7331   21.9957  -27.7637 H   0  0  0  0  0  0  0  0  0  0  0  0
   -2.7244   24.2079  -28.3512 H   0  0  0  0  0  0  0  0  0  0  0  0
   -6.5583   24.6233  -32.9361 H   0  0  0  0  0  0  0  0  0  0  0  0
   -8.3759   22.9290  -33.1256 H   0  0  0  0  0  0  0  0  0  0  0  0
   -7.8940   21.9300  -28.9455 H   0  0  0  0  0  0  0  0  0  0  0  0
   -6.0762   23.6258  -28.7461 H   0  0  0  0  0  0  0  0  0  0  0  0
   -3.5585   22.7721  -32.3505 H   0  0  0  0  0  0  0  0  0  0  0  0
   -6.1854   17.5114  -30.4211 H   0  0  0  0  0  0  0  0  0  0  0  0
   -6.6742   16.3793  -31.7272 H   0  0  0  0  0  0  0  0  0  0  0  0
   -5.0256   17.0926  -31.7272 H   0  0  0  0  0  0  0  0  0  0  0  0
  1  2  1  0
  2  3  2  0
  3  4  1  0
  4  5  2  0
  5  6  1  0
  6  7  1  0
  7  8  1  0
  8  9  1  0
  9 10  2  0
 10 11  1  0
 11 12  2  0
 12 13  1  0
 13 14  1  0
 14 15  1  0
 15 16  2  0
 15 17  1  0
 17 18  2  0
 18 19  1  0
 19 20  2  0
 20 21  1  0
 20 22  1  0
 22 23  2  0
 13 24  2  0
  5 25  1  0
 25 26  1  0
 25  2  1  0
 24  9  1  0
 23 17  1  0
  1 27  1  0
  1 28  1  0
  1 29  1  0
  3 30  1  0
  4 31  1  0
  6 32  1  0
  6 33  1  0
  7 34  1  0
  8 35  1  0
  8 36  1  0
 10 37  1  0
 11 38  1  0
 12 39  1  0
 18 40  1  0
 19 41  1  0
 22 42  1  0
 23 43  1  0
 24 44  1  0
 26 45  1  0
 26 46  1  0
 26 47  1  0
M  CHG  1  14  -1
M  END
>  <UniqueID>  (6) 
6

>  <SMILES>  (6) 
Cc1ccc(CNCc2cccc([N-]C(=O)c3ccc(F)cc3)c2)n1C

>  <Energy>  (6) 
79.34133501625283

>  <Genealogy>  (6) 
Cc1ccc(CNCc2cccc([N-]C(=O)c3ccc(F)cc3)c2)n1C (protonated)
Cc1ccc(CNCc2cccc([N-]C(=O)c3ccc(F)cc3)c2)n1C (3D coordinates assigned)
Cc1ccc(CNCc2cccc([N-]C(=O)c3ccc(F)cc3)c2)n1C (optimized conformer: 79.34133501625283 kcal/mol)

>  <smiles>  (6) 
Cc1ccc(CNCc2cccc(NC(=O)c3ccc(F)cc3)c2)n1C

>  <score_type>  (6) 
oracle

>  <origin>  (6) 
adg

>  <m_score__min__energy>  (6) 
-10.68

>  <m_primary>  (6) 
energy

$$$$
6:0
     RDKit          3D

 55 57  0  0  0  0  0  0  0  0999 V2000
   -0.6070   20.9660  -31.9480 C   0  0  0  0  0  0  0  0  0  0  0  0
   -1.7620   21.8380  -32.2140 N   0  0  0  0  0  0  0  0  0  0  0  0
   -2.7300   21.1360  -33.0770 C   0  0  0  0  0  0  0  0  0  0  0  0
   -2.3920   22.2730  -30.9490 C   0  0  0  0  0  0  0  0  0  0  0  0
   -3.8580   21.8300  -30.8780 C   0  0  0  0  0  0  0  0  0  0  0  0
   -4.7710   22.9630  -31.0940 N   0  0  0  0  0  0  0  0  0  0  0  0
   -5.5480   23.0560  -32.3340 C   0  0  0  0  0  0  0  0  0  0  0  0
   -6.8720   22.3310  -32.2020 C   0  0  0  0  0  0  0  0  0  0  0  0
   -7.9970   23.1180  -31.8990 C   0  0  0  0  0  0  0  0  0  0  0  0
   -9.2620   22.5490  -31.7840 C   0  0  0  0  0  0  0  0  0  0  0  0
   -9.4340   21.1810  -31.9650 C   0  0  0  0  0  0  0  0  0  0  0  0
   -8.3340   20.3610  -32.2460 C   0  0  0  0  0  0  0  0  0  0  0  0
   -8.5260   18.9810  -32.4210 C   0  0  0  0  0  0  0  0  0  0  0  0
   -7.4420   18.1490  -32.6970 C   0  0  0  0  0  0  0  0  0  0  0  0
   -6.1590   18.6810  -32.7950 C   0  0  0  0  0  0  0  0  0  0  0  0
   -5.9500   20.0510  -32.6240 C   0  0  0  0  0  0  0  0  0  0  0  0
   -7.0320   20.9230  -32.3600 C   0  0  0  0  0  0  0  0  0  0  0  0
   -4.5630   24.1650  -30.3350 C   0  0  0  0  0  0  0  0  0  0  0  0
   -3.9010   25.1110  -30.8420 O   0  0  0  0  0  0  0  0  0  0  0  0
   -5.0930   24.2890  -28.9320 C   0  0  0  0  0  0  0  0  0  0  0  0
   -4.1750   23.6200  -27.8990 C   0  0  0  0  0  0  0  0  0  0  0  0
   -3.0230   24.5150  -27.5260 C   0  0  0  0  0  0  0  0  0  0  0  0
   -3.0230   25.2050  -26.3010 C   0  0  0  0  0  0  0  0  0  0  0  0
   -1.9240   25.9910  -25.9370 C   0  0  0  0  0  0  0  0  0  0  0  0
   -0.8270   26.1020  -26.7980 C   0  0  0  0  0  0  0  0  0  0  0  0
   -0.8260   25.4290  -28.0260 C   0  0  0  0  0  0  0  0  0  0  0  0
   -1.9170   24.6350  -28.3880 C   0  0  0  0  0  0  0  0  0  0  0  0
   -0.4688   20.8617  -30.8617 H   0  0  0  0  0  0  0  0  0  0  0  0
   -0.7855   19.9754  -32.3917 H   0  0  0  0  0  0  0  0  0  0  0  0
    0.2968   21.4090  -32.3917 H   0  0  0  0  0  0  0  0  0  0  0  0
   -3.4620   20.6051  -32.4506 H   0  0  0  0  0  0  0  0  0  0  0  0
   -3.2523   21.8667  -33.7121 H   0  0  0  0  0  0  0  0  0  0  0  0
   -2.1977   20.4125  -33.7121 H   0  0  0  0  0  0  0  0  0  0  0  0
   -1.8426   21.8317  -30.1044 H   0  0  0  0  0  0  0  0  0  0  0  0
   -2.3577   23.3715  -30.9028 H   0  0  0  0  0  0  0  0  0  0  0  0
   -4.0405   21.0704  -31.6524 H   0  0  0  0  0  0  0  0  0  0  0  0
   -4.0476   21.4182  -29.8758 H   0  0  0  0  0  0  0  0  0  0  0  0
   -5.7392   24.1154  -32.5599 H   0  0  0  0  0  0  0  0  0  0  0  0
   -4.9712   22.5866  -33.1445 H   0  0  0  0  0  0  0  0  0  0  0  0
   -7.8754   24.2011  -31.7504 H   0  0  0  0  0  0  0  0  0  0  0  0
  -10.1290   23.1839  -31.5490 H   0  0  0  0  0  0  0  0  0  0  0  0
  -10.4390   20.7407  -31.8871 H   0  0  0  0  0  0  0  0  0  0  0  0
   -9.5367   18.5544  -32.3399 H   0  0  0  0  0  0  0  0  0  0  0  0
   -7.6006   17.0696  -32.8377 H   0  0  0  0  0  0  0  0  0  0  0  0
   -5.3065   18.0193  -33.0080 H   0  0  0  0  0  0  0  0  0  0  0  0
   -4.9304   20.4575  -32.6955 H   0  0  0  0  0  0  0  0  0  0  0  0
   -5.1868   25.3563  -28.6827 H   0  0  0  0  0  0  0  0  0  0  0  0
   -6.0673   23.7797  -28.8950 H   0  0  0  0  0  0  0  0  0  0  0  0
   -4.7592   23.3931  -26.9950 H   0  0  0  0  0  0  0  0  0  0  0  0
   -3.7683   22.6992  -28.3425 H   0  0  0  0  0  0  0  0  0  0  0  0
   -3.8889   25.1268  -25.6272 H   0  0  0  0  0  0  0  0  0  0  0  0
   -1.9227   26.5218  -24.9735 H   0  0  0  0  0  0  0  0  0  0  0  0
    0.0367   26.7193  -26.5098 H   0  0  0  0  0  0  0  0  0  0  0  0
    0.0336   25.5255  -28.7055 H   0  0  0  0  0  0  0  0  0  0  0  0
   -1.9116   24.1018  -29.3501 H   0  0  0  0  0  0  0  0  0  0  0  0
  1  2  1  0
  2  3  1  0
  2  4  1  0
  4  5  1  0
  5  6  1  0
  6  7  1  0
  7  8  1  0
  8  9  2  0
  9 10  1  0
 10 11  2  0
 11 12  1  0
 12 13  2  0
 13 14  1  0
 14 15  2  0
 15 16  1  0
 16 17  2  0
  6 18  1  0
 18 19  2  0
 18 20  1  0
 20 21  1  0
 21 22  1  0
 22 23  2  0
 23 24  1  0
 24 25  2  0
 25 26  1  0
 26 27  2  0
 17  8  1  0
 27 22  1  0
 17 12  1  0
  1 28  1  0
  1 29  1  0
  1 30  1  0
  3 31  1  0
  3 32  1  0
  3 33  1  0
  4 34  1  0
  4 35  1  0
  5 36  1  0
  5 37  1  0
  7 38  1  0
  7 39  1  0
  9 40  1  0
 10 41  1  0
 11 42  1  0
 13 43  1  0
 14 44  1  0
 15 45  1  0
 16 46  1  0
 20 47  1  0
 20 48  1  0
 21 49  1  0
 21 50  1  0
 23 51  1  0
 24 52  1  0
 25 53  1  0
 26 54  1  0
 27 55  1  0
M  END
>  <UniqueID>  (7) 
7

>  <SMILES>  (7) 
CN(C)CCN(Cc1cccc2ccccc12)C(=O)CCc1ccccc1

>  <Energy>  (7) 
60.39116192305497

>  <Genealogy>  (7) 
CN(C)CCN(Cc1cccc2ccccc12)C(=O)CCc1ccccc1 (3D coordinates assigned)
CN(C)CCN(Cc1cccc2ccccc12)C(=O)CCc1ccccc1 (optimized conformer: 60.39116192305497 kcal/mol)

>  <smiles>  (7) 
CN(C)CCN(Cc1cccc2ccccc12)C(=O)CCc1ccccc1

>  <score_type>  (7) 
oracle

>  <origin>  (7) 
adg

>  <m_score__min__energy>  (7) 
-9.5600000000000005

>  <m_primary>  (7) 
energy

$$$$
7:0
     RDKit          3D

 49 52  0  0  0  0  0  0  0  0999 V2000
   -0.5100   21.3020  -27.2480 C   0  0  0  0  0  0  0  0  0  0  0  0
   -0.6110   22.7110  -26.6690 C   0  0  0  0  0  0  0  0  0  0  0  0
   -1.9800   23.2440  -26.8370 N   0  0  0  0  0  0  0  0  0  0  0  0
   -2.8670   22.2420  -27.4780 C   0  0  0  0  0  0  0  0  0  0  0  0
   -4.0500   22.8850  -28.2060 C   0  0  0  0  0  0  0  0  0  0  0  0
   -3.5410   23.7870  -29.2460 N   0  0  0  0  0  0  0  0  0  0  0  0
   -4.2960   24.0420  -30.4490 C   0  0  0  0  0  0  0  0  0  0  0  0
   -4.2400   25.1810  -30.9900 O   0  0  0  0  0  0  0  0  0  0  0  0
   -5.1520   23.0070  -31.0720 C   0  0  0  0  0  0  0  0  0  0  0  0
   -6.5440   23.1670  -31.0110 C   0  0  0  0  0  0  0  0  0  0  0  0
   -7.3940   22.1820  -31.5250 C   0  0  0  0  0  0  0  0  0  0  0  0
   -8.7890   22.3140  -31.4560 C   0  0  0  0  0  0  0  0  0  0  0  0
   -9.6120   21.3070  -31.9700 C   0  0  0  0  0  0  0  0  0  0  0  0
   -9.0480   20.1670  -32.5530 C   0  0  0  0  0  0  0  0  0  0  0  0
   -7.6590   20.0290  -32.6250 C   0  0  0  0  0  0  0  0  0  0  0  0
   -6.8280   21.0330  -32.1130 C   0  0  0  0  0  0  0  0  0  0  0  0
   -5.4780   20.9060  -32.1890 N   0  0  0  0  0  0  0  0  0  0  0  0
   -4.6240   21.8520  -31.7080 C   0  0  0  0  0  0  0  0  0  0  0  0
   -3.1710   21.6280  -31.8910 C   0  0  0  0  0  0  0  0  0  0  0  0
   -2.3430   21.4860  -30.7650 C   0  0  0  0  0  0  0  0  0  0  0  0
   -0.9710   21.2660  -30.9200 C   0  0  0  0  0  0  0  0  0  0  0  0
   -0.4170   21.1720  -32.1990 C   0  0  0  0  0  0  0  0  0  0  0  0
   -1.2370   21.2820  -33.3250 C   0  0  0  0  0  0  0  0  0  0  0  0
   -2.6100   21.4970  -33.1740 C   0  0  0  0  0  0  0  0  0  0  0  0
   -2.2990   24.5290  -28.9900 C   0  0  0  0  0  0  0  0  0  0  0  0
   -1.9890   24.5820  -27.4870 C   0  0  0  0  0  0  0  0  0  0  0  0
   -0.4576   20.5713  -26.4274 H   0  0  0  0  0  0  0  0  0  0  0  0
   -1.3956   21.0955  -27.8669 H   0  0  0  0  0  0  0  0  0  0  0  0
    0.3960   21.2240  -27.8669 H   0  0  0  0  0  0  0  0  0  0  0  0
   -0.3635   22.6805  -25.5976 H   0  0  0  0  0  0  0  0  0  0  0  0
    0.0933   23.3659  -27.2029 H   0  0  0  0  0  0  0  0  0  0  0  0
   -2.2779   21.6636  -28.2049 H   0  0  0  0  0  0  0  0  0  0  0  0
   -3.2737   21.5994  -26.6832 H   0  0  0  0  0  0  0  0  0  0  0  0
   -4.6681   22.1013  -28.6683 H   0  0  0  0  0  0  0  0  0  0  0  0
   -4.6617   23.4530  -27.4896 H   0  0  0  0  0  0  0  0  0  0  0  0
   -6.9703   24.0732  -30.5559 H   0  0  0  0  0  0  0  0  0  0  0  0
   -9.2351   23.2090  -30.9979 H   0  0  0  0  0  0  0  0  0  0  0  0
  -10.7057   21.4114  -31.9158 H   0  0  0  0  0  0  0  0  0  0  0  0
   -9.6994   19.3774  -32.9557 H   0  0  0  0  0  0  0  0  0  0  0  0
   -7.2186   19.1316  -33.0839 H   0  0  0  0  0  0  0  0  0  0  0  0
   -2.7765   21.5482  -29.7559 H   0  0  0  0  0  0  0  0  0  0  0  0
   -0.3270   21.1668  -30.0338 H   0  0  0  0  0  0  0  0  0  0  0  0
    0.6645   21.0114  -32.3196 H   0  0  0  0  0  0  0  0  0  0  0  0
   -0.8015   21.1993  -34.3317 H   0  0  0  0  0  0  0  0  0  0  0  0
   -3.2546   21.5640  -34.0628 H   0  0  0  0  0  0  0  0  0  0  0  0
   -1.4684   24.0306  -29.5112 H   0  0  0  0  0  0  0  0  0  0  0  0
   -2.4234   25.5580  -29.3585 H   0  0  0  0  0  0  0  0  0  0  0  0
   -0.9990   25.0420  -27.3514 H   0  0  0  0  0  0  0  0  0  0  0  0
   -2.7891   25.1682  -27.0114 H   0  0  0  0  0  0  0  0  0  0  0  0
  1  2  1  0
  2  3  1  0
  3  4  1  0
  4  5  1  0
  5  6  1  0
  6  7  1  0
  7  8  2  0
  7  9  1  0
  9 10  2  0
 10 11  1  0
 11 12  2  0
 12 13  1  0
 13 14  2  0
 14 15  1  0
 15 16  2  0
 16 17  1  0
 17 18  2  0
 18 19  1  0
 19 20  2  0
 20 21  1  0
 21 22  2  0
 22 23  1  0
 23 24  2  0
  6 25  1  0
 25 26  1  0
 26  3  1  0
 18  9  1  0
 24 19  1  0
 16 11  1  0
  1 27  1  0
  1 28  1  0
  1 29  1  0
  2 30  1  0
  2 31  1  0
  4 32  1  0
  4 33  1  0
  5 34  1  0
  5 35  1  0
 10 36  1  0
 12 37  1  0
 13 38  1  0
 14 39  1  0
 15 40  1  0
 20 41  1  0
 21 42  1  0
 22 43  1  0
 23 44  1  0
 24 45  1  0
 25 46  1  0
 25 47  1  0
 26 48  1  0
 26 49  1  0
M  END
>  <UniqueID>  (8) 
8

>  <SMILES>  (8) 
CCN1CCN(C(=O)c2cc3ccccc3nc2-c2ccccc2)CC1

>  <Energy>  (8) 
71.7581313270989

>  <Genealogy>  (8) 
CCN1CCN(C(=O)c2cc3ccccc3nc2-c2ccccc2)CC1 (3D coordinates assigned)
CCN1CCN(C(=O)c2cc3ccccc3nc2-c2ccccc2)CC1 (nonaromatic ring conformer: 71.7581313270989 kcal/mol)

>  <smiles>  (8) 
CCN1CCN(C(=O)c2cc3ccccc3nc2-c2ccccc2)CC1

>  <score_type>  (8) 
oracle

>  <origin>  (8) 
adg

>  <m_score__min__energy>  (8) 
-9.2699999999999996

>  <m_primary>  (8) 
energy

$$$$
8:0
     RDKit          3D

 32 33  0  0  0  0  0  0  0  0999 V2000
   -5.5430   15.6920  -33.5940 C   0  0  0  0  0  0  0  0  0  0  0  0
   -6.8660   16.4230  -33.8470 C   0  0  0  0  0  0  0  0  0  0  0  0
   -6.8290   17.8270  -33.4000 N   0  0  0  0  0  0  0  0  0  0  0  0
   -5.4550   18.2840  -33.1160 C   0  0  0  0  0  0  0  0  0  0  0  0
   -5.1340   19.6030  -33.8390 C   0  0  0  0  0  0  0  0  0  0  0  0
   -5.5370   20.8090  -33.0190 C   0  0  0  0  0  0  0  0  0  0  0  0
   -4.5570   21.7510  -32.6700 C   0  0  0  0  0  0  0  0  0  0  0  0
   -4.8830   22.8610  -31.8910 C   0  0  0  0  0  0  0  0  0  0  0  0
   -6.1900   23.0530  -31.4360 C   0  0  0  0  0  0  0  0  0  0  0  0
   -6.5220   24.4790  -30.4530 Cl  0  0  0  0  0  0  0  0  0  0  0  0
   -7.1920   22.1150  -31.7650 C   0  0  0  0  0  0  0  0  0  0  0  0
   -8.5200   22.2570  -31.3250 C   0  0  0  0  0  0  0  0  0  0  0  0
   -9.4780   21.3020  -31.6680 C   0  0  0  0  0  0  0  0  0  0  0  0
   -9.1080   20.2090  -32.4480 C   0  0  0  0  0  0  0  0  0  0  0  0
   -7.8250   20.0780  -32.8720 N   0  0  0  0  0  0  0  0  0  0  0  0
   -6.8590   20.9870  -32.5600 C   0  0  0  0  0  0  0  0  0  0  0  0
   -5.3763   15.5999  -32.5106 H   0  0  0  0  0  0  0  0  0  0  0  0
   -5.5859   14.6896  -34.0449 H   0  0  0  0  0  0  0  0  0  0  0  0
   -4.7172   16.2618  -34.0449 H   0  0  0  0  0  0  0  0  0  0  0  0
   -7.0802   16.4017  -34.9257 H   0  0  0  0  0  0  0  0  0  0  0  0
   -7.6481   15.9086  -33.2693 H   0  0  0  0  0  0  0  0  0  0  0  0
   -7.2300   18.4160  -34.1670 H   0  0  0  0  0  0  0  0  0  0  0  0
   -7.4290   17.9380  -32.5500 H   0  0  0  0  0  0  0  0  0  0  0  0
   -5.3467   18.4360  -32.0320 H   0  0  0  0  0  0  0  0  0  0  0  0
   -4.7561   17.5155  -33.4777 H   0  0  0  0  0  0  0  0  0  0  0  0
   -4.0518   19.6490  -34.0309 H   0  0  0  0  0  0  0  0  0  0  0  0
   -5.7049   19.6239  -34.7790 H   0  0  0  0  0  0  0  0  0  0  0  0
   -3.5215   21.6125  -33.0143 H   0  0  0  0  0  0  0  0  0  0  0  0
   -4.1034   23.5926  -31.6323 H   0  0  0  0  0  0  0  0  0  0  0  0
   -8.8044   23.1229  -30.7090 H   0  0  0  0  0  0  0  0  0  0  0  0
  -10.5174   21.4116  -31.3250 H   0  0  0  0  0  0  0  0  0  0  0  0
   -9.8566   19.4507  -32.7209 H   0  0  0  0  0  0  0  0  0  0  0  0
  1  2  1  0
  2  3  1  0
  3  4  1  0
  4  5  1  0
  5  6  1  0
  6  7  2  0
  7  8  1  0
  8  9  2  0
  9 10  1  0
  9 11  1  0
 11 12  2  0
 12 13  1  0
 13 14  2  0
 14 15  1  0
 15 16  2  0
 16  6  1  0
 16 11  1  0
  1 17  1  0
  1 18  1  0
  1 19  1  0
  2 20  1  0
  2 21  1  0
  3 22  1  0
  3 23  1  0
  4 24  1  0
  4 25  1  0
  5 26  1  0
  5 27  1  0
  7 28  1  0
  8 29  1  0
 12 30  1  0
 13 31  1  0
 14 32  1  0
M  CHG  1   3   1
M  END
>  <UniqueID>  (9) 
9

>  <SMILES>  (9) 
CC[NH2+]CCc1ccc(Cl)c2cccnc12

>  <Energy>  (9) 
33.3714536764947

>  <Genealogy>  (9) 
CC[NH2+]CCc1ccc(Cl)c2cccnc12 (protonated)
CC[NH2+]CCc1ccc(Cl)c2cccnc12 (3D coordinates assigned)
CC[NH2+]CCc1ccc(Cl)c2cccnc12 (optimized conformer: 33.3714536764947 kcal/mol)

>  <smiles>  (9) 
CCNCCc1ccc(Cl)c2cccnc12

>  <score_type>  (9) 
oracle

>  <origin>  (9) 
adg

>  <m_score__min__energy>  (9) 
-6.54

>  <m_primary>  (9) 
energy

$$$$
9:0
     RDKit          3D

 39 41  0  0  0  0  0  0  0  0999 V2000
   -0.8560   26.7750  -28.1890 C   0  0  0  0  0  0  0  0  0  0  0  0
   -1.6390   25.8780  -28.9700 O   0  0  0  0  0  0  0  0  0  0  0  0
   -1.8300   24.5200  -28.6680 C   0  0  0  0  0  0  0  0  0  0  0  0
   -1.0560   23.8540  -27.6970 C   0  0  0  0  0  0  0  0  0  0  0  0
   -1.2740   22.5000  -27.4290 C   0  0  0  0  0  0  0  0  0  0  0  0
   -2.2540   21.7960  -28.1290 C   0  0  0  0  0  0  0  0  0  0  0  0
   -3.0260   22.4460  -29.0950 C   0  0  0  0  0  0  0  0  0  0  0  0
   -2.8330   23.8140  -29.3540 C   0  0  0  0  0  0  0  0  0  0  0  0
   -3.5980   24.4910  -30.3620 N   0  0  0  0  0  0  0  0  0  0  0  0
   -5.0090   24.3650  -30.5820 C   0  0  0  0  0  0  0  0  0  0  0  0
   -5.7820   24.3960  -29.5900 O   0  0  0  0  0  0  0  0  0  0  0  0
   -5.5820   24.1340  -31.9540 C   0  0  0  0  0  0  0  0  0  0  0  0
   -5.8970   22.7140  -32.1430 N   0  0  0  0  0  0  0  0  0  0  0  0
   -5.0170   21.6960  -32.3490 C   0  0  0  0  0  0  0  0  0  0  0  0
   -3.5300   21.8530  -32.4880 C   0  0  0  0  0  0  0  0  0  0  0  0
   -3.1810   21.9000  -33.8240 F   0  0  0  0  0  0  0  0  0  0  0  0
   -2.8880   20.7930  -31.8760 F   0  0  0  0  0  0  0  0  0  0  0  0
   -5.6830   20.4750  -32.4310 C   0  0  0  0  0  0  0  0  0  0  0  0
   -7.0140   20.7780  -32.2500 C   0  0  0  0  0  0  0  0  0  0  0  0
   -8.1290   19.9420  -32.2190 C   0  0  0  0  0  0  0  0  0  0  0  0
   -9.3850   20.5310  -31.9940 C   0  0  0  0  0  0  0  0  0  0  0  0
   -9.4970   21.9250  -31.8060 C   0  0  0  0  0  0  0  0  0  0  0  0
   -8.3540   22.7450  -31.8420 C   0  0  0  0  0  0  0  0  0  0  0  0
   -7.1160   22.1350  -32.0730 C   0  0  0  0  0  0  0  0  0  0  0  0
   -1.0284   26.5775  -27.1207 H   0  0  0  0  0  0  0  0  0  0  0  0
    0.2093   26.6296  -28.4215 H   0  0  0  0  0  0  0  0  0  0  0  0
   -1.1440   27.8109  -28.4215 H   0  0  0  0  0  0  0  0  0  0  0  0
   -0.2767   24.4024  -27.1475 H   0  0  0  0  0  0  0  0  0  0  0  0
   -0.6714   21.9881  -26.6643 H   0  0  0  0  0  0  0  0  0  0  0  0
   -2.4190   20.7287  -27.9203 H   0  0  0  0  0  0  0  0  0  0  0  0
   -3.7882   21.8848  -29.6554 H   0  0  0  0  0  0  0  0  0  0  0  0
   -6.5011   24.7276  -32.0678 H   0  0  0  0  0  0  0  0  0  0  0  0
   -4.8402   24.4387  -32.7069 H   0  0  0  0  0  0  0  0  0  0  0  0
   -3.2237   22.7921  -32.0040 H   0  0  0  0  0  0  0  0  0  0  0  0
   -5.2408   19.4826  -32.6032 H   0  0  0  0  0  0  0  0  0  0  0  0
   -8.0290   18.8564  -32.3659 H   0  0  0  0  0  0  0  0  0  0  0  0
  -10.2865   19.9013  -31.9643 H   0  0  0  0  0  0  0  0  0  0  0  0
  -10.4855   22.3742  -31.6299 H   0  0  0  0  0  0  0  0  0  0  0  0
   -8.4313   23.8321  -31.6931 H   0  0  0  0  0  0  0  0  0  0  0  0
  1  2  1  0
  2  3  1  0
  3  4  2  0
  4  5  1  0
  5  6  2  0
  6  7  1  0
  7  8  2  0
  8  9  1  0
  9 10  1  0
 10 11  2  0
 10 12  1  0
 12 13  1  0
 13 14  1  0
 14 15  1  0
 15 16  1  0
 15 17  1  0
 14 18  2  0
 18 19  1  0
 19 20  2  0
 20 21  1  0
 21 22  2  0
 22 23  1  0
 23 24  2  0
  8  3  1  0
 24 13  1  0
 24 19  1  0
  1 25  1  0
  1 26  1  0
  1 27  1  0
  4 28  1  0
  5 29  1  0
  6 30  1  0
  7 31  1  0
 12 32  1  0
 12 33  1  0
 15 34  1  0
 18 35  1  0
 20 36  1  0
 21 37  1  0
 22 38  1  0
 23 39  1  0
M  CHG  1   9  -1
M  END
>  <UniqueID>  (10) 
10

>  <SMILES>  (10) 
COc1ccccc1[N-]C(=O)Cn1c(C(F)F)cc2ccccc21

>  <Energy>  (10) 
77.33095480998442

>  <Genealogy>  (10) 
COc1ccccc1[N-]C(=O)Cn1c(C(F)F)cc2ccccc21 (protonated)
COc1ccccc1[N-]C(=O)Cn1c(C(F)F)cc2ccccc21 (3D coordinates assigned)
COc1ccccc1[N-]C(=O)Cn1c(C(F)F)cc2ccccc21 (optimized conformer: 77.33095480998442 kcal/mol)

>  <smiles>  (10) 
COc1ccccc1NC(=O)Cn1c(C(F)F)cc2ccccc21

>  <score_type>  (10) 
oracle

>  <origin>  (10) 
adg

>  <m_score__min__energy>  (10) 
-9.6500000000000004

>  <m_primary>  (10) 
energy

$$$$
10:0
     RDKit          3D

 32 34  0  0  0  0  0  0  0  0999 V2000
   -5.7350   25.3950  -30.1440 C   0  0  0  0  0  0  0  0  0  0  0  0
   -4.6690   24.7600  -30.8430 O   0  0  0  0  0  0  0  0  0  0  0  0
   -4.6720   23.4160  -31.2460 C   0  0  0  0  0  0  0  0  0  0  0  0
   -3.4850   22.7000  -31.4760 C   0  0  0  0  0  0  0  0  0  0  0  0
   -3.5370   21.3650  -31.8750 C   0  0  0  0  0  0  0  0  0  0  0  0
   -4.7700   20.7200  -32.0550 C   0  0  0  0  0  0  0  0  0  0  0  0
   -4.8000   19.4140  -32.4460 N   0  0  0  0  0  0  0  0  0  0  0  0
   -5.9720   18.7430  -32.6320 C   0  0  0  0  0  0  0  0  0  0  0  0
   -5.9590   17.3220  -33.0650 C   0  0  0  0  0  0  0  0  0  0  0  0
   -5.0650   16.3630  -32.5530 C   0  0  0  0  0  0  0  0  0  0  0  0
   -5.2300   15.0970  -33.0950 C   0  0  0  0  0  0  0  0  0  0  0  0
   -6.4840   15.1650  -34.2090 S   0  0  0  0  0  0  0  0  0  0  0  0
   -6.8310   16.7980  -34.0190 C   0  0  0  0  0  0  0  0  0  0  0  0
   -7.1880   19.4050  -32.4150 C   0  0  0  0  0  0  0  0  0  0  0  0
   -7.2130   20.7510  -32.0100 C   0  0  0  0  0  0  0  0  0  0  0  0
   -8.5480   21.4410  -31.7860 C   0  0  0  0  0  0  0  0  0  0  0  0
   -9.5600   20.7010  -32.3720 F   0  0  0  0  0  0  0  0  0  0  0  0
   -8.5190   22.7060  -32.3440 F   0  0  0  0  0  0  0  0  0  0  0  0
   -8.8440   21.5760  -30.4400 F   0  0  0  0  0  0  0  0  0  0  0  0
   -5.9780   21.4270  -31.8250 C   0  0  0  0  0  0  0  0  0  0  0  0
   -5.9040   22.7780  -31.4210 C   0  0  0  0  0  0  0  0  0  0  0  0
   -5.5721   25.2980  -29.0605 H   0  0  0  0  0  0  0  0  0  0  0  0
   -5.7685   26.4604  -30.4158 H   0  0  0  0  0  0  0  0  0  0  0  0
   -6.6878   24.9171  -30.4158 H   0  0  0  0  0  0  0  0  0  0  0  0
   -2.5116   23.1943  -31.3408 H   0  0  0  0  0  0  0  0  0  0  0  0
   -2.6023   20.8121  -32.0504 H   0  0  0  0  0  0  0  0  0  0  0  0
   -3.8950   18.9100  -32.5850 H   0  0  0  0  0  0  0  0  0  0  0  0
   -4.3051   16.5962  -31.7927 H   0  0  0  0  0  0  0  0  0  0  0  0
   -4.6414   14.2036  -32.8393 H   0  0  0  0  0  0  0  0  0  0  0  0
   -7.6118   17.3576  -34.5550 H   0  0  0  0  0  0  0  0  0  0  0  0
   -8.1346   18.8647  -32.5634 H   0  0  0  0  0  0  0  0  0  0  0  0
   -6.8328   23.3390  -31.2406 H   0  0  0  0  0  0  0  0  0  0  0  0
  1  2  1  0
  2  3  1  0
  3  4  2  0
  4  5  1  0
  5  6  2  0
  6  7  1  0
  7  8  2  0
  8  9  1  0
  9 10  1  0
 10 11  2  0
 11 12  1  0
 12 13  1  0
  8 14  1  0
 14 15  2  0
 15 16  1  0
 16 17  1  0
 16 18  1  0
 16 19  1  0
 15 20  1  0
 20 21  2  0
 21  3  1  0
 20  6  1  0
 13  9  2  0
  1 22  1  0
  1 23  1  0
  1 24  1  0
  4 25  1  0
  5 26  1  0
  7 27  1  0
 10 28  1  0
 11 29  1  0
 13 30  1  0
 14 31  1  0
 21 32  1  0
M  CHG  1   7   1
M  END
>  <UniqueID>  (11) 
11

>  <SMILES>  (11) 
COc1ccc2[nH+]c(-c3ccsc3)cc(C(F)(F)F)c2c1

>  <Energy>  (11) 
70.28717316906746

>  <Genealogy>  (11) 
COc1ccc2[nH+]c(-c3ccsc3)cc(C(F)(F)F)c2c1 (protonated)
COc1ccc2[nH+]c(-c3ccsc3)cc(C(F)(F)F)c2c1 (3D coordinates assigned)
COc1ccc2[nH+]c(-c3ccsc3)cc(C(F)(F)F)c2c1 (optimized conformer: 70.28717316906746 kcal/mol)

>  <smiles>  (11) 
COc1ccc2nc(-c3ccsc3)cc(C(F)(F)F)c2c1

>  <score_type>  (11) 
oracle

>  <origin>  (11) 
adg

>  <m_score__min__energy>  (11) 
-6.3600000000000003

>  <m_primary>  (11) 
energy

$$$$
11:0
     RDKit          3D

 52 55  0  0  0  0  0  0  0  0999 V2000
   -9.1600   19.5440  -32.6500 C   0  0  0  0  0  0  0  0  0  0  0  0
   -8.7630   19.8610  -31.2080 C   0  0  0  0  0  0  0  0  0  0  0  0
   -9.1010   21.3030  -30.8030 C   0  0  0  0  0  0  0  0  0  0  0  0
   -9.1320   22.2610  -32.0030 C   0  0  0  0  0  0  0  0  0  0  0  0
   -8.0780   23.3720  -31.8900 C   0  0  0  0  0  0  0  0  0  0  0  0
   -6.7650   22.8350  -31.4720 N   0  0  0  0  0  0  0  0  0  0  0  0
   -6.1620   23.3270  -30.3370 C   0  0  0  0  0  0  0  0  0  0  0  0
   -6.7250   24.2090  -29.6290 O   0  0  0  0  0  0  0  0  0  0  0  0
   -4.9150   22.8310  -29.9840 C   0  0  0  0  0  0  0  0  0  0  0  0
   -4.3090   21.8920  -30.7530 C   0  0  0  0  0  0  0  0  0  0  0  0
   -3.0810   21.6250  -30.2610 N   0  0  0  0  0  0  0  0  0  0  0  0
   -2.9820   22.4290  -29.1750 C   0  0  0  0  0  0  0  0  0  0  0  0
   -4.0930   23.1870  -28.9730 N   0  0  0  0  0  0  0  0  0  0  0  0
   -4.2680   24.3050  -28.0320 C   0  0  0  0  0  0  0  0  0  0  0  0
   -3.0280   24.5590  -27.1520 C   0  0  0  0  0  0  0  0  0  0  0  0
   -1.7180   24.3260  -27.9000 C   0  0  0  0  0  0  0  0  0  0  0  0
   -1.5010   22.5420  -28.1740 S   0  0  0  0  0  0  0  0  0  0  0  0
   -4.8820   21.3930  -31.8870 N   0  0  0  0  0  0  0  0  0  0  0  0
   -4.2200   20.3500  -32.6980 C   0  0  0  0  0  0  0  0  0  0  0  0
   -5.1250   19.1520  -32.8520 C   0  0  0  0  0  0  0  0  0  0  0  0
   -5.3410   18.5810  -34.1180 C   0  0  0  0  0  0  0  0  0  0  0  0
   -6.1490   17.4450  -34.2520 C   0  0  0  0  0  0  0  0  0  0  0  0
   -6.7450   16.8700  -33.1240 C   0  0  0  0  0  0  0  0  0  0  0  0
   -6.5320   17.4310  -31.8610 C   0  0  0  0  0  0  0  0  0  0  0  0
   -5.7250   18.5650  -31.7240 C   0  0  0  0  0  0  0  0  0  0  0  0
   -6.1290   21.8700  -32.2370 C   0  0  0  0  0  0  0  0  0  0  0  0
   -6.6910   21.4280  -33.2800 O   0  0  0  0  0  0  0  0  0  0  0  0
  -10.0196   18.8576  -32.6512 H   0  0  0  0  0  0  0  0  0  0  0  0
   -9.4334   20.4750  -33.1681 H   0  0  0  0  0  0  0  0  0  0  0  0
   -8.3126   19.0713  -33.1681 H   0  0  0  0  0  0  0  0  0  0  0  0
   -9.2972   19.1726  -30.5366 H   0  0  0  0  0  0  0  0  0  0  0  0
   -7.6723   19.7413  -31.1300 H   0  0  0  0  0  0  0  0  0  0  0  0
  -10.0893   21.3110  -30.3201 H   0  0  0  0  0  0  0  0  0  0  0  0
   -8.3128   21.6507  -30.1191 H   0  0  0  0  0  0  0  0  0  0  0  0
   -8.9415   21.6848  -32.9205 H   0  0  0  0  0  0  0  0  0  0  0  0
  -10.1227   22.7385  -32.0265 H   0  0  0  0  0  0  0  0  0  0  0  0
   -7.9685   23.8613  -32.8691 H   0  0  0  0  0  0  0  0  0  0  0  0
   -8.4149   24.0902  -31.1279 H   0  0  0  0  0  0  0  0  0  0  0  0
   -2.3460   20.9800  -30.6230 H   0  0  0  0  0  0  0  0  0  0  0  0
   -4.4800   25.2173  -28.6088 H   0  0  0  0  0  0  0  0  0  0  0  0
   -5.0968   24.0390  -27.3594 H   0  0  0  0  0  0  0  0  0  0  0  0
   -3.0526   25.6014  -26.8014 H   0  0  0  0  0  0  0  0  0  0  0  0
   -3.0635   23.8474  -26.3139 H   0  0  0  0  0  0  0  0  0  0  0  0
   -1.7488   24.8467  -28.8685 H   0  0  0  0  0  0  0  0  0  0  0  0
   -0.8774   24.7155  -27.3069 H   0  0  0  0  0  0  0  0  0  0  0  0
   -3.9858   20.7579  -33.6924 H   0  0  0  0  0  0  0  0  0  0  0  0
   -3.2952   20.0366  -32.1915 H   0  0  0  0  0  0  0  0  0  0  0  0
   -4.8733   19.0284  -35.0075 H   0  0  0  0  0  0  0  0  0  0  0  0
   -6.3155   17.0039  -35.2458 H   0  0  0  0  0  0  0  0  0  0  0  0
   -7.3800   15.9782  -33.2307 H   0  0  0  0  0  0  0  0  0  0  0  0
   -7.0000   16.9796  -30.9737 H   0  0  0  0  0  0  0  0  0  0  0  0
   -5.5587   19.0004  -30.7276 H   0  0  0  0  0  0  0  0  0  0  0  0
  1  2  1  0
  2  3  1  0
  3  4  1  0
  4  5  1  0
  5  6  1  0
  6  7  1  0
  7  8  2  0
  7  9  1  0
  9 10  2  0
 10 11  1  0
 11 12  2  0
 12 13  1  0
 13 14  1  0
 14 15  1  0
 15 16  1  0
 16 17  1  0
 10 18  1  0
 18 19  1  0
 19 20  1  0
 20 21  2  0
 21 22  1  0
 22 23  2  0
 23 24  1  0
 24 25  2  0
 18 26  1  0
 26 27  2  0
 26  6  1  0
 13  9  1  0
 25 20  1  0
 17 12  1  0
  1 28  1  0
  1 29  1  0
  1 30  1  0
  2 31  1  0
  2 32  1  0
  3 33  1  0
  3 34  1  0
  4 35  1  0
  4 36  1  0
  5 37  1  0
  5 38  1  0
 11 39  1  0
 14 40  1  0
 14 41  1  0
 15 42  1  0
 15 43  1  0
 16 44  1  0
 16 45  1  0
 19 46  1  0
 19 47  1  0
 21 48  1  0
 22 49  1  0
 23 50  1  0
 24 51  1  0
 25 52  1  0
M  CHG  1  11   1
M  END
>  <UniqueID>  (12) 
12

>  <SMILES>  (12) 
CCCCCn1c(=O)c2c([nH+]c3n2CCCS3)n(Cc2ccccc2)c1=O

>  <Energy>  (12) 
99.24235619201178

>  <Genealogy>  (12) 
CCCCCn1c(=O)c2c([nH+]c3n2CCCS3)n(Cc2ccccc2)c1=O (protonated)
CCCCCn1c(=O)c2c([nH+]c3n2CCCS3)n(Cc2ccccc2)c1=O (3D coordinates assigned)
CCCCCn1c(=O)c2c([nH+]c3n2CCCS3)n(Cc2ccccc2)c1=O (nonaromatic ring conformer: 99.24235619201178 kcal/mol)

>  <smiles>  (12) 
CCCCCn1c(=O)c2c(nc3n2CCCS3)n(Cc2ccccc2)c1=O

>  <score_type>  (12) 
oracle

>  <origin>  (12) 
adg

>  <m_score__min__energy>  (12) 
-7.6900000000000004

>  <m_primary>  (12) 
energy

$$$$
12:0
     RDKit          3D

 45 47  0  0  0  0  0  0  0  0999 V2000
   -1.7910   24.9340  -28.0970 C   0  0  0  0  0  0  0  0  0  0  0  0
   -2.3960   25.2800  -29.3370 O   0  0  0  0  0  0  0  0  0  0  0  0
   -3.5010   24.5950  -29.8530 C   0  0  0  0  0  0  0  0  0  0  0  0
   -3.4810   24.1530  -31.0350 O   0  0  0  0  0  0  0  0  0  0  0  0
   -4.6920   24.3500  -28.9600 C   0  0  0  0  0  0  0  0  0  0  0  0
   -5.8700   25.3130  -29.2590 C   0  0  0  0  0  0  0  0  0  0  0  0
   -6.9330   24.6980  -30.1880 C   0  0  0  0  0  0  0  0  0  0  0  0
   -6.3080   23.7220  -31.0980 N   0  0  0  0  0  0  0  0  0  0  0  0
   -7.1470   23.3890  -32.2700 C   0  0  0  0  0  0  0  0  0  0  0  0
   -7.5380   21.9330  -32.3410 C   0  0  0  0  0  0  0  0  0  0  0  0
   -8.7350   21.4410  -31.8230 C   0  0  0  0  0  0  0  0  0  0  0  0
   -8.7890   19.7840  -32.1140 S   0  0  0  0  0  0  0  0  0  0  0  0
   -7.2890   19.7570  -32.8770 C   0  0  0  0  0  0  0  0  0  0  0  0
   -6.6640   18.5830  -33.4210 N   0  0  0  0  0  0  0  0  0  0  0  0
   -5.7460   18.6150  -34.5450 C   0  0  0  0  0  0  0  0  0  0  0  0
   -5.2010   17.1980  -34.6670 C   0  0  0  0  0  0  0  0  0  0  0  0
   -6.1450   16.3120  -33.8560 C   0  0  0  0  0  0  0  0  0  0  0  0
   -6.8760   17.2450  -32.8990 C   0  0  0  0  0  0  0  0  0  0  0  0
   -6.7400   20.9910  -32.9170 N   0  0  0  0  0  0  0  0  0  0  0  0
   -5.8130   22.5270  -30.3820 C   0  0  0  0  0  0  0  0  0  0  0  0
   -5.1370   22.8780  -29.0370 C   0  0  0  0  0  0  0  0  0  0  0  0
   -2.4198   25.2936  -27.2692 H   0  0  0  0  0  0  0  0  0  0  0  0
   -1.6885   23.8407  -28.0314 H   0  0  0  0  0  0  0  0  0  0  0  0
   -0.7968   25.4000  -28.0314 H   0  0  0  0  0  0  0  0  0  0  0  0
   -4.3719   24.5631  -27.9294 H   0  0  0  0  0  0  0  0  0  0  0  0
   -6.3511   25.5834  -28.3075 H   0  0  0  0  0  0  0  0  0  0  0  0
   -5.4529   26.1909  -29.7742 H   0  0  0  0  0  0  0  0  0  0  0  0
   -7.6974   24.1912  -29.5806 H   0  0  0  0  0  0  0  0  0  0  0  0
   -7.3971   25.4984  -30.7829 H   0  0  0  0  0  0  0  0  0  0  0  0
   -8.0649   23.9934  -32.2232 H   0  0  0  0  0  0  0  0  0  0  0  0
   -6.5478   23.6055  -33.1667 H   0  0  0  0  0  0  0  0  0  0  0  0
   -9.5094   22.0326  -31.3129 H   0  0  0  0  0  0  0  0  0  0  0  0
   -6.2751   18.9038  -35.4652 H   0  0  0  0  0  0  0  0  0  0  0  0
   -4.9414   19.3496  -34.3935 H   0  0  0  0  0  0  0  0  0  0  0  0
   -5.1910   16.8818  -35.7205 H   0  0  0  0  0  0  0  0  0  0  0  0
   -4.1676   17.1307  -34.2962 H   0  0  0  0  0  0  0  0  0  0  0  0
   -6.8618   15.8078  -34.5208 H   0  0  0  0  0  0  0  0  0  0  0  0
   -5.5962   15.5276  -33.3142 H   0  0  0  0  0  0  0  0  0  0  0  0
   -7.9498   17.0073  -32.8761 H   0  0  0  0  0  0  0  0  0  0  0  0
   -6.5029   17.1458  -31.8690 H   0  0  0  0  0  0  0  0  0  0  0  0
   -5.8090   21.2030  -33.3400 H   0  0  0  0  0  0  0  0  0  0  0  0
   -6.6629   21.8571  -30.1850 H   0  0  0  0  0  0  0  0  0  0  0  0
   -5.0567   22.0458  -31.0196 H   0  0  0  0  0  0  0  0  0  0  0  0
   -5.8512   22.6836  -28.2233 H   0  0  0  0  0  0  0  0  0  0  0  0
   -4.2357   22.2540  -28.9462 H   0  0  0  0  0  0  0  0  0  0  0  0
  1  2  1  0
  2  3  1  0
  3  4  2  0
  3  5  1  0
  5  6  1  0
  6  7  1  0
  7  8  1  0
  8  9  1  0
  9 10  1  0
 10 11  2  0
 11 12  1  0
 12 13  1  0
 13 14  1  0
 14 15  1  0
 15 16  1  0
 16 17  1  0
 17 18  1  0
 13 19  2  0
  8 20  1  0
 20 21  1  0
 21  5  1  0
 19 10  1  0
 18 14  1  0
  1 22  1  0
  1 23  1  0
  1 24  1  0
  5 25  1  0
  6 26  1  0
  6 27  1  0
  7 28  1  0
  7 29  1  0
  9 30  1  0
  9 31  1  0
 11 32  1  0
 15 33  1  0
 15 34  1  0
 16 35  1  0
 16 36  1  0
 17 37  1  0
 17 38  1  0
 18 39  1  0
 18 40  1  0
 19 41  1  0
 20 42  1  0
 20 43  1  0
 21 44  1  0
 21 45  1  0
M  CHG  1  19   1
M  END
>  <UniqueID>  (13) 
13

>  <SMILES>  (13) 
COC(=O)C1CCN(Cc2csc(N3CCCC3)[nH+]2)CC1

>  <Energy>  (13) 
78.38890675327437

>  <Genealogy>  (13) 
COC(=O)C1CCN(Cc2csc(N3CCCC3)[nH+]2)CC1 (protonated)
COC(=O)C1CCN(Cc2csc(N3CCCC3)[nH+]2)CC1 (3D coordinates assigned)
COC(=O)C1CCN(Cc2csc(N3CCCC3)[nH+]2)CC1 (nonaromatic ring conformer: 78.38890675327437 kcal/mol)

>  <smiles>  (13) 
COC(=O)C1CCN(Cc2csc(N3CCCC3)n2)CC1

>  <score_type>  (13) 
oracle

>  <origin>  (13) 
adg

>  <m_score__min__energy>  (13) 
-8.1300000000000008

>  <m_primary>  (13) 
energy

$$$$
13:0
     RDKit          3D

 46 48  0  0  0  0  0  0  0  0999 V2000
    0.7210   24.0810  -36.0800 C   0  0  0  0  0  0  0  0  0  0  0  0
    1.3510   22.8950  -35.3600 C   0  0  0  0  0  0  0  0  0  0  0  0
    0.2990   21.9270  -34.9740 N   0  0  0  0  0  0  0  0  0  0  0  0
   -0.0590   21.0080  -36.0850 C   0  0  0  0  0  0  0  0  0  0  0  0
    0.6030   19.6250  -36.0030 C   0  0  0  0  0  0  0  0  0  0  0  0
    0.5920   21.2620  -33.6840 C   0  0  0  0  0  0  0  0  0  0  0  0
   -0.6860   20.9720  -32.8850 C   0  0  0  0  0  0  0  0  0  0  0  0
   -1.8790   21.1710  -33.7120 N   0  0  0  0  0  0  0  0  0  0  0  0
   -3.1130   20.4540  -33.5090 C   0  0  0  0  0  0  0  0  0  0  0  0
   -3.1940   19.0670  -33.6980 C   0  0  0  0  0  0  0  0  0  0  0  0
   -4.3980   18.3990  -33.4940 C   0  0  0  0  0  0  0  0  0  0  0  0
   -5.5500   19.0970  -33.0970 C   0  0  0  0  0  0  0  0  0  0  0  0
   -5.4970   20.5010  -32.8980 C   0  0  0  0  0  0  0  0  0  0  0  0
   -4.2610   21.1570  -33.1120 C   0  0  0  0  0  0  0  0  0  0  0  0
   -6.7380   21.2490  -32.4710 C   0  0  0  0  0  0  0  0  0  0  0  0
   -6.7400   22.6490  -32.2590 C   0  0  0  0  0  0  0  0  0  0  0  0
   -7.9000   23.3170  -31.8650 C   0  0  0  0  0  0  0  0  0  0  0  0
   -9.0840   22.6130  -31.6720 C   0  0  0  0  0  0  0  0  0  0  0  0
   -9.1160   21.2370  -31.8730 C   0  0  0  0  0  0  0  0  0  0  0  0
   -7.9550   20.5440  -32.2700 C   0  0  0  0  0  0  0  0  0  0  0  0
   -8.0150   19.0840  -32.4760 C   0  0  0  0  0  0  0  0  0  0  0  0
   -9.0930   18.4510  -32.3000 O   0  0  0  0  0  0  0  0  0  0  0  0
   -6.8120   18.3610  -32.8890 C   0  0  0  0  0  0  0  0  0  0  0  0
   -6.8670   17.1120  -33.0650 O   0  0  0  0  0  0  0  0  0  0  0  0
    0.3395   24.7992  -35.3392 H   0  0  0  0  0  0  0  0  0  0  0  0
    1.4775   24.5713  -36.7103 H   0  0  0  0  0  0  0  0  0  0  0  0
   -0.1088   23.7287  -36.7103 H   0  0  0  0  0  0  0  0  0  0  0  0
    2.0726   22.4030  -36.0287 H   0  0  0  0  0  0  0  0  0  0  0  0
    1.8669   23.2508  -34.4560 H   0  0  0  0  0  0  0  0  0  0  0  0
   -1.1500   20.8681  -36.0776 H   0  0  0  0  0  0  0  0  0  0  0  0
    0.3072   21.4768  -37.0103 H   0  0  0  0  0  0  0  0  0  0  0  0
    0.7372   19.3447  -34.9478 H   0  0  0  0  0  0  0  0  0  0  0  0
   -0.0371   18.8820  -36.5012 H   0  0  0  0  0  0  0  0  0  0  0  0
    1.5832   19.6575  -36.5012 H   0  0  0  0  0  0  0  0  0  0  0  0
    1.1098   20.3122  -33.8833 H   0  0  0  0  0  0  0  0  0  0  0  0
    1.2204   21.9392  -33.0869 H   0  0  0  0  0  0  0  0  0  0  0  0
   -0.6617   19.9300  -32.5335 H   0  0  0  0  0  0  0  0  0  0  0  0
   -0.7311   21.6655  -32.0323 H   0  0  0  0  0  0  0  0  0  0  0  0
   -1.8410   21.8760  -34.4860 H   0  0  0  0  0  0  0  0  0  0  0  0
   -2.3016   18.5040  -34.0090 H   0  0  0  0  0  0  0  0  0  0  0  0
   -4.4477   17.3106  -33.6457 H   0  0  0  0  0  0  0  0  0  0  0  0
   -4.1987   22.2451  -32.9634 H   0  0  0  0  0  0  0  0  0  0  0  0
   -5.8114   23.2197  -32.4074 H   0  0  0  0  0  0  0  0  0  0  0  0
   -7.8780   24.4053  -31.7063 H   0  0  0  0  0  0  0  0  0  0  0  0
   -9.9952   23.1445  -31.3604 H   0  0  0  0  0  0  0  0  0  0  0  0
  -10.0554   20.6852  -31.7208 H   0  0  0  0  0  0  0  0  0  0  0  0
  1  2  1  0
  2  3  1  0
  3  4  1  0
  4  5  1  0
  3  6  1  0
  6  7  1  0
  7  8  1  0
  8  9  1  0
  9 10  2  0
 10 11  1  0
 11 12  2  0
 12 13  1  0
 13 14  2  0
 13 15  1  0
 15 16  2  0
 16 17  1  0
 17 18  2  0
 18 19  1  0
 19 20  2  0
 20 21  1  0
 21 22  2  0
 21 23  1  0
 23 24  2  0
 14  9  1  0
 20 15  1  0
 23 12  1  0
  1 25  1  0
  1 26  1  0
  1 27  1  0
  2 28  1  0
  2 29  1  0
  4 30  1  0
  4 31  1  0
  5 32  1  0
  5 33  1  0
  5 34  1  0
  6 35  1  0
  6 36  1  0
  7 37  1  0
  7 38  1  0
  8 39  1  0
 10 40  1  0
 11 41  1  0
 14 42  1  0
 16 43  1  0
 17 44  1  0
 18 45  1  0
 19 46  1  0
M  END
>  <UniqueID>  (14) 
14

>  <SMILES>  (14) 
CCN(CC)CCNc1ccc2c(c1)-c1ccccc1C(=O)C2=O

>  <Energy>  (14) 
57.0044581303355

>  <Genealogy>  (14) 
CCN(CC)CCNc1ccc2c(c1)-c1ccccc1C(=O)C2=O (3D coordinates assigned)
CCN(CC)CCNc1ccc2c(c1)-c1ccccc1C(=O)C2=O (nonaromatic ring conformer: 57.0044581303355 kcal/mol)

>  <smiles>  (14) 
CCN(CC)CCNc1ccc2c(c1)-c1ccccc1C(=O)C2=O

>  <score_type>  (14) 
oracle

>  <origin>  (14) 
adg

>  <m_score__min__energy>  (14) 
-8.6699999999999999

>  <m_primary>  (14) 
energy

$$$$
14:0
     RDKit          3D

 48 50  0  0  0  0  0  0  0  0999 V2000
   -7.3735   24.0514  -33.0628 H   0  0  0  0  0  0  0  0  0  0  0  0
   -7.3460   23.4250  -32.1590 C   0  0  0  0  0  0  0  0  0  0  0  0
   -8.3430   22.5470  -31.9670 C   0  0  0  0  0  0  0  0  0  0  0  0
   -9.3395   22.9343  -31.7083 H   0  0  0  0  0  0  0  0  0  0  0  0
   -8.1650   21.0810  -32.0870 C   0  0  0  0  0  0  0  0  0  0  0  0
   -9.1480   20.2380  -31.5480 C   0  0  0  0  0  0  0  0  0  0  0  0
  -10.0302   20.6656  -31.0491 H   0  0  0  0  0  0  0  0  0  0  0  0
   -9.0010   18.8560  -31.6480 C   0  0  0  0  0  0  0  0  0  0  0  0
   -9.7727   18.1890  -31.2361 H   0  0  0  0  0  0  0  0  0  0  0  0
   -7.8760   18.3200  -32.2700 C   0  0  0  0  0  0  0  0  0  0  0  0
   -7.7599   17.2299  -32.3607 H   0  0  0  0  0  0  0  0  0  0  0  0
   -6.8920   19.1800  -32.7800 C   0  0  0  0  0  0  0  0  0  0  0  0
   -5.6860   18.6260  -33.4390 C   0  0  0  0  0  0  0  0  0  0  0  0
   -5.7200   17.3220  -33.9710 C   0  0  0  0  0  0  0  0  0  0  0  0
   -6.8380   16.5610  -33.8620 F   0  0  0  0  0  0  0  0  0  0  0  0
   -4.5910   16.7850  -34.5920 C   0  0  0  0  0  0  0  0  0  0  0  0
   -4.6251   15.7654  -35.0034 H   0  0  0  0  0  0  0  0  0  0  0  0
   -3.4210   17.5350  -34.6930 C   0  0  0  0  0  0  0  0  0  0  0  0
   -2.5337   17.1053  -35.1809 H   0  0  0  0  0  0  0  0  0  0  0  0
   -3.3730   18.8310  -34.1760 C   0  0  0  0  0  0  0  0  0  0  0  0
   -2.4461   19.4176  -34.2578 H   0  0  0  0  0  0  0  0  0  0  0  0
   -4.5040   19.3930  -33.5500 C   0  0  0  0  0  0  0  0  0  0  0  0
   -4.4930   20.7060  -33.0470 O   0  0  0  0  0  0  0  0  0  0  0  0
   -3.3210   21.4990  -32.8820 C   0  0  0  0  0  0  0  0  0  0  0  0
   -3.1188   21.6358  -31.8094 H   0  0  0  0  0  0  0  0  0  0  0  0
   -2.4663   20.9929  -33.3546 H   0  0  0  0  0  0  0  0  0  0  0  0
   -3.4729   22.4806  -33.3546 H   0  0  0  0  0  0  0  0  0  0  0  0
   -7.0570   20.5320  -32.6740 N   0  0  0  0  0  0  0  0  0  0  0  0
   -6.2870   21.1500  -33.0140 H   0  0  0  0  0  0  0  0  0  0  0  0
   -6.2080   23.5990  -31.2210 C   0  0  0  0  0  0  0  0  0  0  0  0
   -5.6200   22.5220  -30.5330 C   0  0  0  0  0  0  0  0  0  0  0  0
   -6.0000   21.5017  -30.6898 H   0  0  0  0  0  0  0  0  0  0  0  0
   -4.5570   22.7380  -29.6520 C   0  0  0  0  0  0  0  0  0  0  0  0
   -4.1050   21.8827  -29.1285 H   0  0  0  0  0  0  0  0  0  0  0  0
   -4.0550   24.0360  -29.4240 C   0  0  0  0  0  0  0  0  0  0  0  0
   -2.9500   24.2600  -28.5110 N   0  0  0  0  0  0  0  0  0  0  0  0
   -1.5630   24.2020  -28.9880 C   0  0  0  0  0  0  0  0  0  0  0  0
   -0.8798   24.1734  -28.1263 H   0  0  0  0  0  0  0  0  0  0  0  0
   -1.4224   23.2972  -29.5976 H   0  0  0  0  0  0  0  0  0  0  0  0
   -1.3474   25.0919  -29.5976 H   0  0  0  0  0  0  0  0  0  0  0  0
   -3.2000   24.5490  -27.0920 C   0  0  0  0  0  0  0  0  0  0  0  0
   -2.6072   23.8637  -26.4683 H   0  0  0  0  0  0  0  0  0  0  0  0
   -2.9107   25.5874  -26.8728 H   0  0  0  0  0  0  0  0  0  0  0  0
   -4.2692   24.4122  -26.8728 H   0  0  0  0  0  0  0  0  0  0  0  0
   -4.6620   25.1110  -30.1050 C   0  0  0  0  0  0  0  0  0  0  0  0
   -4.2939   26.1346  -29.9413 H   0  0  0  0  0  0  0  0  0  0  0  0
   -5.7250   24.8930  -30.9850 C   0  0  0  0  0  0  0  0  0  0  0  0
   -6.1886   25.7479  -31.4990 H   0  0  0  0  0  0  0  0  0  0  0  0
  1  2  1  0
  2  3  2  0
  3  4  1  0
  3  5  1  0
  5  6  2  0
  6  7  1  0
  6  8  1  0
  8  9  1  0
  8 10  2  0
 10 11  1  0
 10 12  1  0
 12 13  1  0
 13 14  2  0
 14 15  1  0
 14 16  1  0
 16 17  1  0
 16 18  2  0
 18 19  1  0
 18 20  1  0
 20 21  1  0
 20 22  2  0
 22 23  1  0
 23 24  1  0
 24 25  1  0
 24 26  1  0
 24 27  1  0
 12 28  2  0
 28 29  1  0
  2 30  1  0
 30 31  2  0
 31 32  1  0
 31 33  1  0
 33 34  1  0
 33 35  2  0
 35 36  1  0
 36 37  1  0
 37 38  1  0
 37 39  1  0
 37 40  1  0
 36 41  1  0
 41 42  1  0
 41 43  1  0
 41 44  1  0
 35 45  1  0
 45 46  1  0
 45 47  2  0
 47 48  1  0
 28  5  1  0
 47 30  1  0
 22 13  1  0
M  CHG  1  28   1
M  END
>  <UniqueID>  (15) 
15

>  <SMILES>  (15) 
COc1cccc(F)c1-c1cccc(/C=C/c2ccc(N(C)C)cc2)[nH+]1

>  <Energy>  (15) 
62.92806169372305

>  <Genealogy>  (15) 
COc1cccc(F)c1-c1cccc(C=Cc2ccc(N(C)C)cc2)[nH+]1 (protonated)
COc1cccc(F)c1-c1cccc(/C=C/c2ccc(N(C)C)cc2)[nH+]1 (cis-trans isomerization)
COc1cccc(F)c1-c1cccc(/C=C/c2ccc(N(C)C)cc2)[nH+]1 (3D coordinates assigned)
COc1cccc(F)c1-c1cccc(/C=C/c2ccc(N(C)C)cc2)[nH+]1 (optimized conformer: 62.92806169372305 kcal/mol)

>  <smiles>  (15) 
COc1cccc(F)c1-c1cccc(C=Cc2ccc(N(C)C)cc2)n1

>  <score_type>  (15) 
oracle

>  <origin>  (15) 
adg

>  <m_score__min__energy>  (15) 
-7.8200000000000003

>  <m_primary>  (15) 
energy

$$$$
15:0
     RDKit          3D

 54 57  0  0  0  0  0  0  0  0999 V2000
    0.7440   25.3300  -37.1100 C   0  0  0  0  0  0  0  0  0  0  0  0
    2.1260   24.8200  -37.1920 N   0  0  0  0  0  0  0  0  0  0  0  0
    3.0680   25.9450  -37.0660 C   0  0  0  0  0  0  0  0  0  0  0  0
    2.3840   23.8140  -36.1400 C   0  0  0  0  0  0  0  0  0  0  0  0
    1.1810   22.8790  -35.9430 C   0  0  0  0  0  0  0  0  0  0  0  0
    1.6230   21.4650  -35.9600 N   0  0  0  0  0  0  0  0  0  0  0  0
    3.0070   21.3570  -36.4530 C   0  0  0  0  0  0  0  0  0  0  0  0
    1.4970   20.8380  -34.6260 C   0  0  0  0  0  0  0  0  0  0  0  0
    0.0690   20.4290  -34.3790 C   0  0  0  0  0  0  0  0  0  0  0  0
   -0.3300   19.1070  -34.6210 C   0  0  0  0  0  0  0  0  0  0  0  0
   -1.6430   18.7050  -34.3590 C   0  0  0  0  0  0  0  0  0  0  0  0
   -2.5790   19.6190  -33.8430 C   0  0  0  0  0  0  0  0  0  0  0  0
   -3.9690   19.1880  -33.5480 C   0  0  0  0  0  0  0  0  0  0  0  0
   -4.3230   17.8340  -33.6420 C   0  0  0  0  0  0  0  0  0  0  0  0
   -5.6220   17.4220  -33.3560 C   0  0  0  0  0  0  0  0  0  0  0  0
   -6.5910   18.3530  -32.9730 C   0  0  0  0  0  0  0  0  0  0  0  0
   -7.8460   17.9270  -32.6910 N   0  0  0  0  0  0  0  0  0  0  0  0
   -8.8070   18.7680  -32.3200 N   0  0  0  0  0  0  0  0  0  0  0  0
   -8.5820   20.1010  -32.2010 C   0  0  0  0  0  0  0  0  0  0  0  0
   -9.6300   20.9410  -31.8090 C   0  0  0  0  0  0  0  0  0  0  0  0
   -9.4220   22.3130  -31.6890 C   0  0  0  0  0  0  0  0  0  0  0  0
   -8.1660   22.8520  -31.9640 C   0  0  0  0  0  0  0  0  0  0  0  0
   -7.1090   22.0250  -32.3560 C   0  0  0  0  0  0  0  0  0  0  0  0
   -7.2950   20.6300  -32.4790 C   0  0  0  0  0  0  0  0  0  0  0  0
   -6.2680   19.7280  -32.8720 C   0  0  0  0  0  0  0  0  0  0  0  0
   -4.9430   20.1280  -33.1610 C   0  0  0  0  0  0  0  0  0  0  0  0
   -2.1750   20.9460  -33.6060 C   0  0  0  0  0  0  0  0  0  0  0  0
   -0.8610   21.3460  -33.8710 C   0  0  0  0  0  0  0  0  0  0  0  0
    0.4546   25.4368  -36.0541 H   0  0  0  0  0  0  0  0  0  0  0  0
    0.6844   26.3093  -37.6074 H   0  0  0  0  0  0  0  0  0  0  0  0
    0.0626   24.6241  -37.6074 H   0  0  0  0  0  0  0  0  0  0  0  0
    3.2456   26.1571  -36.0013 H   0  0  0  0  0  0  0  0  0  0  0  0
    4.0196   25.6825  -37.5513 H   0  0  0  0  0  0  0  0  0  0  0  0
    2.6424   26.8357  -37.5513 H   0  0  0  0  0  0  0  0  0  0  0  0
    3.2594   23.2133  -36.4278 H   0  0  0  0  0  0  0  0  0  0  0  0
    2.5651   24.3450  -35.1938 H   0  0  0  0  0  0  0  0  0  0  0  0
    0.7044   23.0990  -34.9763 H   0  0  0  0  0  0  0  0  0  0  0  0
    0.4636   23.0404  -36.7611 H   0  0  0  0  0  0  0  0  0  0  0  0
    3.6975   21.3031  -35.5984 H   0  0  0  0  0  0  0  0  0  0  0  0
    3.1086   20.4482  -37.0644 H   0  0  0  0  0  0  0  0  0  0  0  0
    3.2483   22.2390  -37.0644 H   0  0  0  0  0  0  0  0  0  0  0  0
    2.1433   19.9491  -34.5793 H   0  0  0  0  0  0  0  0  0  0  0  0
    1.8018   21.5633  -33.8572 H   0  0  0  0  0  0  0  0  0  0  0  0
    0.3946   18.3816  -35.0195 H   0  0  0  0  0  0  0  0  0  0  0  0
   -1.9462   17.6665  -34.5578 H   0  0  0  0  0  0  0  0  0  0  0  0
   -3.5689   17.0922  -33.9439 H   0  0  0  0  0  0  0  0  0  0  0  0
   -5.8870   16.3571  -33.4320 H   0  0  0  0  0  0  0  0  0  0  0  0
  -10.6218   20.5163  -31.5948 H   0  0  0  0  0  0  0  0  0  0  0  0
  -10.2474   22.9702  -31.3778 H   0  0  0  0  0  0  0  0  0  0  0  0
   -8.0054   23.9363  -31.8719 H   0  0  0  0  0  0  0  0  0  0  0  0
   -6.1237   22.4645  -32.5706 H   0  0  0  0  0  0  0  0  0  0  0  0
   -4.6689   21.1904  -33.0822 H   0  0  0  0  0  0  0  0  0  0  0  0
   -2.8978   21.6742  -33.2094 H   0  0  0  0  0  0  0  0  0  0  0  0
   -0.5562   22.3855  -33.6797 H   0  0  0  0  0  0  0  0  0  0  0  0
  1  2  1  0
  2  3  1  0
  2  4  1  0
  4  5  1  0
  5  6  1  0
  6  7  1  0
  6  8  1  0
  8  9  1  0
  9 10  2  0
 10 11  1  0
 11 12  2  0
 12 13  1  0
 13 14  2  0
 14 15  1  0
 15 16  2  0
 16 17  1  0
 17 18  2  0
 18 19  1  0
 19 20  2  0
 20 21  1  0
 21 22  2  0
 22 23  1  0
 23 24  2  0
 24 25  1  0
 25 26  2  0
 12 27  1  0
 27 28  2  0
 28  9  1  0
 26 13  1  0
 25 16  1  0
 24 19  1  0
  1 29  1  0
  1 30  1  0
  1 31  1  0
  3 32  1  0
  3 33  1  0
  3 34  1  0
  4 35  1  0
  4 36  1  0
  5 37  1  0
  5 38  1  0
  7 39  1  0
  7 40  1  0
  7 41  1  0
  8 42  1  0
  8 43  1  0
 10 44  1  0
 11 45  1  0
 14 46  1  0
 15 47  1  0
 20 48  1  0
 21 49  1  0
 22 50  1  0
 23 51  1  0
 26 52  1  0
 27 53  1  0
 28 54  1  0
M  END
>  <UniqueID>  (16) 
16

>  <SMILES>  (16) 
CN(C)CCN(C)Cc1ccc(-c2ccc3nnc4ccccc4c3c2)cc1

>  <Energy>  (16) 
74.7151558164988

>  <Genealogy>  (16) 
CN(C)CCN(C)Cc1ccc(-c2ccc3nnc4ccccc4c3c2)cc1 (3D coordinates assigned)
CN(C)CCN(C)Cc1ccc(-c2ccc3nnc4ccccc4c3c2)cc1 (optimized conformer: 74.7151558164988 kcal/mol)

>  <smiles>  (16) 
CN(C)CCN(C)Cc1ccc(-c2ccc3nnc4ccccc4c3c2)cc1

>  <score_type>  (16) 
oracle

>  <origin>  (16) 
adg

>  <m_score__min__energy>  (16) 
-8.8399999999999999

>  <m_primary>  (16) 
energy

$$$$
16:0
     RDKit          3D

 40 42  0  0  1  0  0  0  0  0999 V2000
   -5.7320   25.6480  -30.0480 C   0  0  0  0  0  0  0  0  0  0  0  0
   -4.9010   24.8040  -30.8850 N   0  0  0  0  0  0  0  0  0  0  0  0
   -4.1320   23.9490  -30.0180 C   0  0  0  0  0  0  0  0  0  0  0  0
   -5.7600   24.0250  -31.7810 C   0  0  0  0  0  0  0  0  0  0  0  0
   -7.1270   23.7800  -31.2010 C   0  0  0  0  0  0  0  0  0  0  0  0
   -7.9850   23.0000  -32.0710 N   0  0  0  0  0  0  0  0  0  0  0  0
   -7.9120   21.7270  -32.0840 C   0  0  0  0  0  0  0  0  0  0  0  0
   -8.8960   20.9060  -31.5750 C   0  0  0  0  0  0  0  0  0  0  0  0
   -8.7290   19.5340  -31.6320 C   0  0  0  0  0  0  0  0  0  0  0  0
   -7.5900   19.0340  -32.1940 N   0  0  0  0  0  0  0  0  0  0  0  0
   -7.2320   17.7740  -32.3500 N   0  0  0  0  0  0  0  0  0  0  0  0
   -6.0240   17.7010  -32.9550 C   0  0  0  0  0  0  0  0  0  0  0  0
   -5.2610   16.5060  -33.3150 C   0  0  0  0  0  0  0  0  0  0  0  0
   -4.7940   16.2680  -34.5890 C   0  0  0  0  0  0  0  0  0  0  0  0
   -4.0730   15.0990  -34.8500 C   0  0  0  0  0  0  0  0  0  0  0  0
   -3.8210   14.1820  -33.8490 C   0  0  0  0  0  0  0  0  0  0  0  0
   -4.2890   14.4130  -32.5560 C   0  0  0  0  0  0  0  0  0  0  0  0
   -4.9900   15.5660  -32.3390 C   0  0  0  0  0  0  0  0  0  0  0  0
   -5.6300   19.0050  -33.1770 C   0  0  0  0  0  0  0  0  0  0  0  0
   -6.6320   19.8340  -32.6890 C   0  0  0  0  0  0  0  0  0  0  0  0
   -6.8140   21.1680  -32.6240 N   0  0  0  0  0  0  0  0  0  0  0  0
   -5.5222   25.4349  -28.9894 H   0  0  0  0  0  0  0  0  0  0  0  0
   -5.5121   26.7048  -30.2599 H   0  0  0  0  0  0  0  0  0  0  0  0
   -6.7920   25.4445  -30.2599 H   0  0  0  0  0  0  0  0  0  0  0  0
   -4.3537   24.1955  -28.9692 H   0  0  0  0  0  0  0  0  0  0  0  0
   -4.3952   22.8986  -30.2113 H   0  0  0  0  0  0  0  0  0  0  0  0
   -3.0597   24.0998  -30.2113 H   0  0  0  0  0  0  0  0  0  0  0  0
   -5.8718   24.5738  -32.7277 H   0  0  0  0  0  0  0  0  0  0  0  0
   -5.2820   23.0462  -31.9345 H   0  0  0  0  0  0  0  0  0  0  0  0
   -7.0114   23.2409  -30.2491 H   0  0  0  0  0  0  0  0  0  0  0  0
   -7.6050   24.7613  -31.0647 H   0  0  0  0  0  0  0  0  0  0  0  0
   -9.8040   21.3374  -31.1284 H   0  0  0  0  0  0  0  0  0  0  0  0
   -9.4996   18.8586  -31.2319 H   0  0  0  0  0  0  0  0  0  0  0  0
   -4.9869   16.9919  -35.3944 H   0  0  0  0  0  0  0  0  0  0  0  0
   -3.7012   14.9070  -35.8673 H   0  0  0  0  0  0  0  0  0  0  0  0
   -3.2505   13.2683  -34.0718 H   0  0  0  0  0  0  0  0  0  0  0  0
   -4.1015   13.6960  -31.7432 H   0  0  0  0  0  0  0  0  0  0  0  0
   -5.3625   15.7581  -31.3220 H   0  0  0  0  0  0  0  0  0  0  0  0
   -4.6930   19.3288  -33.6536 H   0  0  0  0  0  0  0  0  0  0  0  0
   -6.0680   21.7730  -33.0100 H   0  0  0  0  0  0  0  0  0  0  0  0
  1  2  1  0
  2  3  1  0
  2  4  1  0
  4  5  1  0
  5  6  1  0
  6  7  2  0
  7  8  1  0
  8  9  2  0
  9 10  1  0
 10 11  1  0
 11 12  2  0
 12 13  1  0
 13 14  2  0
 14 15  1  0
 15 16  2  0
 16 17  1  0
 17 18  2  0
 12 19  1  0
 19 20  2  0
 20 21  1  0
 21  7  1  0
 20 10  1  0
 18 13  1  0
  1 22  1  0
  1 23  1  0
  1 24  1  0
  3 25  1  0
  3 26  1  0
  3 27  1  0
  4 28  1  0
  4 29  1  0
  5 30  1  0
  5 31  1  0
  8 32  1  0
  9 33  1  0
 14 34  1  0
 15 35  1  0
 16 36  1  0
 17 37  1  0
 18 38  1  0
 19 39  1  0
 21 40  1  0
M  END
>  <smiles>  (17) 
CN(C)CCN=c1ccn2nc(-c3ccccc3)cc2[nH]1

>  <score_type>  (17) 
oracle

>  <origin>  (17) 
adg

>  <m_score__min__energy>  (17) 
-7.2699999999999996

>  <m_primary>  (17) 
energy

$$$$
17:0
     RDKit          3D

 46 48  0  0  0  0  0  0  0  0999 V2000
   -6.4830   16.7170  -33.7260 C   0  0  0  0  0  0  0  0  0  0  0  0
   -7.5880   17.5300  -33.3460 O   0  0  0  0  0  0  0  0  0  0  0  0
   -7.4750   18.7790  -32.7170 C   0  0  0  0  0  0  0  0  0  0  0  0
   -8.5850   19.2740  -32.0230 C   0  0  0  0  0  0  0  0  0  0  0  0
   -8.5290   20.5120  -31.3780 C   0  0  0  0  0  0  0  0  0  0  0  0
   -7.3540   21.2740  -31.4200 C   0  0  0  0  0  0  0  0  0  0  0  0
   -7.2760   22.5140  -30.7790 C   0  0  0  0  0  0  0  0  0  0  0  0
   -6.0870   23.2550  -30.8160 C   0  0  0  0  0  0  0  0  0  0  0  0
   -5.9960   24.5810  -30.1010 C   0  0  0  0  0  0  0  0  0  0  0  0
   -4.7040   24.6890  -29.3970 N   0  0  0  0  0  0  0  0  0  0  0  0
   -4.5740   23.7690  -28.2460 C   0  0  1  0  0  0  0  0  0  0  0  0
   -3.7130   22.5370  -28.5970 C   0  0  0  0  0  0  0  0  0  0  0  0
   -2.2690   22.9300  -28.9550 C   0  0  0  0  0  0  0  0  0  0  0  0
   -1.6530   23.9820  -27.9910 C   0  0  1  0  0  0  0  0  0  0  0  0
   -1.3900   25.3210  -28.6990 C   0  0  0  0  0  0  0  0  0  0  0  0
   -2.5010   24.1780  -26.7180 C   0  0  0  0  0  0  0  0  0  0  0  0
   -3.9750   24.5220  -27.0200 C   0  0  0  0  0  0  0  0  0  0  0  0
   -4.9910   22.7410  -31.5380 C   0  0  0  0  0  0  0  0  0  0  0  0
   -3.9150   23.3950  -31.6120 O   0  0  0  0  0  0  0  0  0  0  0  0
   -5.0840   21.5320  -32.1610 N   0  0  0  0  0  0  0  0  0  0  0  0
   -6.2270   20.7890  -32.1170 C   0  0  0  0  0  0  0  0  0  0  0  0
   -6.2930   19.5420  -32.7630 C   0  0  0  0  0  0  0  0  0  0  0  0
   -5.9754   16.3435  -32.8244 H   0  0  0  0  0  0  0  0  0  0  0  0
   -6.8421   15.8662  -34.3236 H   0  0  0  0  0  0  0  0  0  0  0  0
   -5.7776   17.3131  -34.3236 H   0  0  0  0  0  0  0  0  0  0  0  0
   -9.5113   18.6820  -31.9850 H   0  0  0  0  0  0  0  0  0  0  0  0
   -9.4089   20.8891  -30.8362 H   0  0  0  0  0  0  0  0  0  0  0  0
   -8.1515   22.9097  -30.2434 H   0  0  0  0  0  0  0  0  0  0  0  0
   -6.0801   25.3965  -30.8344 H   0  0  0  0  0  0  0  0  0  0  0  0
   -6.8129   24.6518  -29.3677 H   0  0  0  0  0  0  0  0  0  0  0  0
   -4.6380   25.6700  -29.0360 H   0  0  0  0  0  0  0  0  0  0  0  0
   -5.5804   23.4074  -27.9882 H   0  0  0  0  0  0  0  0  0  0  0  0
   -4.1647   22.0206  -29.4568 H   0  0  0  0  0  0  0  0  0  0  0  0
   -3.6793   21.8816  -27.7142 H   0  0  0  0  0  0  0  0  0  0  0  0
   -2.2642   23.3465  -29.9731 H   0  0  0  0  0  0  0  0  0  0  0  0
   -1.6571   22.0196  -28.8724 H   0  0  0  0  0  0  0  0  0  0  0  0
   -0.6808   23.5791  -27.6708 H   0  0  0  0  0  0  0  0  0  0  0  0
   -1.2352   26.1090  -27.9473 H   0  0  0  0  0  0  0  0  0  0  0  0
   -0.4920   25.2329  -29.3281 H   0  0  0  0  0  0  0  0  0  0  0  0
   -2.2546   25.5791  -29.3281 H   0  0  0  0  0  0  0  0  0  0  0  0
   -2.0638   24.9975  -26.1287 H   0  0  0  0  0  0  0  0  0  0  0  0
   -2.4923   23.2254  -26.1680 H   0  0  0  0  0  0  0  0  0  0  0  0
   -4.0434   25.6028  -27.2131 H   0  0  0  0  0  0  0  0  0  0  0  0
   -4.5573   24.2054  -26.1421 H   0  0  0  0  0  0  0  0  0  0  0  0
   -4.2510   21.1720  -32.6840 H   0  0  0  0  0  0  0  0  0  0  0  0
   -5.4164   19.1606  -33.3072 H   0  0  0  0  0  0  0  0  0  0  0  0
  1  2  1  0
  2  3  1  0
  3  4  2  0
  4  5  1  0
  5  6  2  0
  6  7  1  0
  7  8  2  0
  8  9  1  0
  9 10  1  0
 10 11  1  0
 11 12  1  0
 12 13  1  0
 13 14  1  0
 14 15  1  0
 14 16  1  0
 16 17  1  0
  8 18  1  0
 18 19  2  0
 18 20  1  0
 20 21  1  0
 21 22  2  0
 22  3  1  0
 21  6  1  0
 17 11  1  0
  1 23  1  0
  1 24  1  0
  1 25  1  0
  4 26  1  0
  5 27  1  0
  7 28  1  0
  9 29  1  0
  9 30  1  0
 10 31  1  0
 11 32  1  1
 12 33  1  0
 12 34  1  0
 13 35  1  0
 13 36  1  0
 14 37  1  1
 15 38  1  0
 15 39  1  0
 15 40  1  0
 16 41  1  0
 16 42  1  0
 17 43  1  0
 17 44  1  0
 20 45  1  0
 22 46  1  0
M  END
>  <UniqueID>  (18) 
17

>  <SMILES>  (18) 
COc1ccc2cc(CNC3CCC(C)CC3)c(=O)[nH]c2c1

>  <Energy>  (18) 
54.32053425352714

>  <Genealogy>  (18) 
COc1ccc2cc(CNC3CCC(C)CC3)c(=O)[nH]c2c1 (3D coordinates assigned)
COc1ccc2cc(CNC3CCC(C)CC3)c(=O)[nH]c2c1 (nonaromatic ring conformer: 54.32053425352714 kcal/mol)

>  <smiles>  (18) 
COc1ccc2cc(CNC3CCC(C)CC3)c(=O)[nH]c2c1

>  <score_type>  (18) 
oracle

>  <origin>  (18) 
adg

>  <m_score__min__energy>  (18) 
-8.1999999999999993

>  <m_primary>  (18) 
energy

$$$$
18:0
     RDKit          3D

 35 37  0  0  1  0  0  0  0  0999 V2000
   -3.2980   24.5330  -29.4320 C   0  0  0  0  0  0  0  0  0  0  0  0
   -3.7490   25.2980  -30.4600 O   0  0  0  0  0  0  0  0  0  0  0  0
   -5.0860   25.3830  -30.6820 C   0  0  0  0  0  0  0  0  0  0  0  0
   -5.7120   24.2730  -31.5660 C   0  0  0  0  0  0  0  0  0  0  0  0
   -5.0060   23.2910  -32.0630 N   0  0  0  0  0  0  0  0  0  0  0  0
   -4.3050   22.2280  -31.9300 C   0  0  0  0  0  0  0  0  0  0  0  0
   -3.0060   22.4970  -31.7250 N   0  0  0  0  0  0  0  0  0  0  0  0
   -2.1790   21.5360  -32.2990 C   0  0  0  0  0  0  0  0  0  0  0  0
   -2.6860   20.4850  -32.9690 N   0  0  0  0  0  0  0  0  0  0  0  0
   -4.0140   20.2650  -33.1310 C   0  0  0  0  0  0  0  0  0  0  0  0
   -4.5370   19.2050  -33.8240 C   0  0  0  0  0  0  0  0  0  0  0  0
   -5.9160   19.1330  -33.8780 C   0  0  0  0  0  0  0  0  0  0  0  0
   -6.7750   20.0250  -33.2890 C   0  0  0  0  0  0  0  0  0  0  0  0
   -8.0960   19.9150  -33.1270 N   0  0  0  0  0  0  0  0  0  0  0  0
   -8.4980   20.8870  -32.3090 C   0  0  0  0  0  0  0  0  0  0  0  0
   -9.8830   21.1530  -31.8440 C   0  0  0  0  0  0  0  0  0  0  0  0
   -7.3700   21.6080  -31.9730 C   0  0  0  0  0  0  0  0  0  0  0  0
   -6.2450   21.0990  -32.5950 C   0  0  0  0  0  0  0  0  0  0  0  0
   -4.8910   21.1820  -32.5670 C   0  0  0  0  0  0  0  0  0  0  0  0
   -3.5748   25.0026  -28.4766 H   0  0  0  0  0  0  0  0  0  0  0  0
   -3.7507   23.5324  -29.4935 H   0  0  0  0  0  0  0  0  0  0  0  0
   -2.2033   24.4446  -29.4935 H   0  0  0  0  0  0  0  0  0  0  0  0
   -5.5896   25.3556  -29.7044 H   0  0  0  0  0  0  0  0  0  0  0  0
   -5.2293   26.3181  -31.2434 H   0  0  0  0  0  0  0  0  0  0  0  0
   -6.5002   23.8056  -30.9575 H   0  0  0  0  0  0  0  0  0  0  0  0
   -5.9885   24.8336  -32.4711 H   0  0  0  0  0  0  0  0  0  0  0  0
   -1.0879   21.6378  -32.2029 H   0  0  0  0  0  0  0  0  0  0  0  0
   -2.0210   19.7840  -33.3980 H   0  0  0  0  0  0  0  0  0  0  0  0
   -3.8960   18.4544  -34.3095 H   0  0  0  0  0  0  0  0  0  0  0  0
   -6.3589   18.2953  -34.4367 H   0  0  0  0  0  0  0  0  0  0  0  0
   -8.7620   19.2140  -33.5380 H   0  0  0  0  0  0  0  0  0  0  0  0
   -9.9061   21.1574  -30.7443 H   0  0  0  0  0  0  0  0  0  0  0  0
  -10.2150   22.1313  -32.2217 H   0  0  0  0  0  0  0  0  0  0  0  0
  -10.5538   20.3673  -32.2217 H   0  0  0  0  0  0  0  0  0  0  0  0
   -7.3665   22.4760  -31.2972 H   0  0  0  0  0  0  0  0  0  0  0  0
  1  2  1  0
  2  3  1  0
  3  4  1  0
  4  5  1  0
  5  6  2  0
  6  7  1  0
  7  8  2  0
  8  9  1  0
  9 10  1  0
 10 11  2  0
 11 12  1  0
 12 13  2  0
 13 14  1  0
 14 15  1  0
 15 16  1  0
 15 17  2  0
 17 18  1  0
 18 19  2  0
 19  6  1  0
 19 10  1  0
 18 13  1  0
  1 20  1  0
  1 21  1  0
  1 22  1  0
  3 23  1  0
  3 24  1  0
  4 25  1  0
  4 26  1  0
  8 27  1  0
  9 28  1  0
 11 29  1  0
 12 30  1  0
 14 31  1  0
 16 32  1  0
 16 33  1  0
 16 34  1  0
 17 35  1  0
M  END
>  <smiles>  (19) 
COCCN=c1nc[nH]c2ccc3[nH]c(C)cc3c12

>  <score_type>  (19) 
oracle

>  <origin>  (19) 
adg

>  <m_score__min__energy>  (19) 
-7.5899999999999999

>  <m_primary>  (19) 
energy

$$$$
19:0
     RDKit          3D

 36 38  0  0  0  0  0  0  0  0999 V2000
   -3.8920   24.9430  -30.7580 O   0  0  0  0  0  0  0  0  0  0  0  0
   -4.6170   24.1130  -29.7370 S   0  0  0  0  0  0  0  0  0  0  0  0
   -5.3800   25.0400  -28.8340 O   0  0  0  0  0  0  0  0  0  0  0  0
   -5.7620   23.0390  -30.5400 C   0  0  0  0  0  0  0  0  0  0  0  0
   -7.1310   23.0970  -30.2440 C   0  0  0  0  0  0  0  0  0  0  0  0
   -8.0230   22.2200  -30.8650 C   0  0  0  0  0  0  0  0  0  0  0  0
   -7.5600   21.2820  -31.7930 C   0  0  0  0  0  0  0  0  0  0  0  0
   -8.7090   20.1790  -32.5360 Cl  0  0  0  0  0  0  0  0  0  0  0  0
   -6.1910   21.2310  -32.1070 C   0  0  0  0  0  0  0  0  0  0  0  0
   -5.5660   20.0660  -33.2670 Cl  0  0  0  0  0  0  0  0  0  0  0  0
   -5.3000   22.1130  -31.4860 C   0  0  0  0  0  0  0  0  0  0  0  0
   -3.4550   23.1850  -28.7720 C   0  0  0  0  0  0  0  0  0  0  0  0
   -3.8410   21.9140  -28.3180 C   0  0  0  0  0  0  0  0  0  0  0  0
   -2.9840   21.1440  -27.5970 N   0  0  0  0  0  0  0  0  0  0  0  0
   -1.7320   21.5720  -27.2910 C   0  0  0  0  0  0  0  0  0  0  0  0
   -1.2980   22.8240  -27.7200 C   0  0  0  0  0  0  0  0  0  0  0  0
   -2.1480   23.6400  -28.4750 C   0  0  0  0  0  0  0  0  0  0  0  0
   -1.5180   25.2590  -28.9600 S   0  0  0  0  0  0  0  0  0  0  0  0
   -1.1420   25.7910  -27.2880 C   0  0  0  0  0  0  0  0  0  0  0  0
    0.1110   26.3480  -27.0060 C   0  0  0  0  0  0  0  0  0  0  0  0
    0.4200   26.7660  -25.7080 C   0  0  0  0  0  0  0  0  0  0  0  0
   -0.5280   26.6370  -24.6870 C   0  0  0  0  0  0  0  0  0  0  0  0
   -0.1320   27.1410  -23.0550 Cl  0  0  0  0  0  0  0  0  0  0  0  0
   -1.7940   26.1120  -24.9730 C   0  0  0  0  0  0  0  0  0  0  0  0
   -2.1050   25.7010  -26.2730 C   0  0  0  0  0  0  0  0  0  0  0  0
   -7.5041   23.8361  -29.5198 H   0  0  0  0  0  0  0  0  0  0  0  0
   -9.0950   22.2673  -30.6229 H   0  0  0  0  0  0  0  0  0  0  0  0
   -4.2306   22.0798  -31.7415 H   0  0  0  0  0  0  0  0  0  0  0  0
   -4.8484   21.5370  -28.5484 H   0  0  0  0  0  0  0  0  0  0  0  0
   -3.2940   20.2010  -27.2710 H   0  0  0  0  0  0  0  0  0  0  0  0
   -1.0599   20.9291  -26.7037 H   0  0  0  0  0  0  0  0  0  0  0  0
   -0.2860   23.1718  -27.4651 H   0  0  0  0  0  0  0  0  0  0  0  0
    0.8553   26.4572  -27.8086 H   0  0  0  0  0  0  0  0  0  0  0  0
    1.4085   27.1963  -25.4895 H   0  0  0  0  0  0  0  0  0  0  0  0
   -2.5449   26.0227  -24.1742 H   0  0  0  0  0  0  0  0  0  0  0  0
   -3.1065   25.3066  -26.4995 H   0  0  0  0  0  0  0  0  0  0  0  0
  1  2  2  0
  2  3  2  0
  2  4  1  0
  4  5  2  0
  5  6  1  0
  6  7  2  0
  7  8  1  0
  7  9  1  0
  9 10  1  0
  9 11  2  0
  2 12  1  0
 12 13  2  0
 13 14  1  0
 14 15  2  0
 15 16  1  0
 16 17  2  0
 17 18  1  0
 18 19  1  0
 19 20  2  0
 20 21  1  0
 21 22  2  0
 22 23  1  0
 22 24  1  0
 24 25  2  0
 11  4  1  0
 17 12  1  0
 25 19  1  0
  5 26  1  0
  6 27  1  0
 11 28  1  0
 13 29  1  0
 14 30  1  0
 15 31  1  0
 16 32  1  0
 20 33  1  0
 21 34  1  0
 24 35  1  0
 25 36  1  0
M  CHG  1  14   1
M  END
>  <UniqueID>  (20) 
18

>  <SMILES>  (20) 
O=S(=O)(c1ccc(Cl)c(Cl)c1)c1c[nH+]ccc1Sc1ccc(Cl)cc1

>  <Energy>  (20) 
37.416064963732275

>  <Genealogy>  (20) 
O=S(=O)(c1ccc(Cl)c(Cl)c1)c1c[nH+]ccc1Sc1ccc(Cl)cc1 (protonated)
O=S(=O)(c1ccc(Cl)c(Cl)c1)c1c[nH+]ccc1Sc1ccc(Cl)cc1 (3D coordinates assigned)
O=S(=O)(c1ccc(Cl)c(Cl)c1)c1c[nH+]ccc1Sc1ccc(Cl)cc1 (optimized conformer: 37.416064963732275 kcal/mol)

>  <smiles>  (20) 
O=S(=O)(c1ccc(Cl)c(Cl)c1)c1cnccc1Sc1ccc(Cl)cc1

>  <score_type>  (20) 
oracle

>  <origin>  (20) 
adg

>  <m_score__min__energy>  (20) 
-8.6899999999999995

>  <m_primary>  (20) 
energy

$$$$
20:0
     RDKit          3D

 57 60  0  0  0  0  0  0  0  0999 V2000
   -4.1650   15.7650  -34.6060 C   0  0  0  0  0  0  0  0  0  0  0  0
   -5.0640   15.2210  -33.6650 O   0  0  0  0  0  0  0  0  0  0  0  0
   -6.3190   15.8500  -33.7990 C   0  0  0  0  0  0  0  0  0  0  0  0
   -6.1480   17.1360  -34.6060 C   0  0  0  0  0  0  0  0  0  0  0  0
   -5.9290   18.2880  -33.7090 N   0  0  0  0  0  0  0  0  0  0  0  0
   -6.8530   18.5900  -32.7380 C   0  0  0  0  0  0  0  0  0  0  0  0
   -7.8960   17.8960  -32.6020 O   0  0  0  0  0  0  0  0  0  0  0  0
   -6.6590   19.6460  -31.9070 N   0  0  0  0  0  0  0  0  0  0  0  0
   -5.5580   20.4270  -31.9980 C   0  0  0  0  0  0  0  0  0  0  0  0
   -5.4010   21.5180  -31.1370 C   0  0  0  0  0  0  0  0  0  0  0  0
   -4.2770   22.3520  -31.2480 C   0  0  0  0  0  0  0  0  0  0  0  0
   -4.1300   23.5140  -30.3460 C   0  0  0  0  0  0  0  0  0  0  0  0
   -4.1870   24.6750  -30.8400 O   0  0  0  0  0  0  0  0  0  0  0  0
   -3.8880   23.3420  -28.9320 N   0  0  0  0  0  0  0  0  0  0  0  0
   -4.1420   24.4480  -27.9940 C   0  0  0  0  0  0  0  0  0  0  0  0
   -2.8160   24.9080  -27.3790 C   0  0  0  0  0  0  0  0  0  0  0  0
   -1.9870   23.7580  -26.9870 N   0  0  0  0  0  0  0  0  0  0  0  0
   -0.5900   23.9590  -26.7110 C   0  0  0  0  0  0  0  0  0  0  0  0
   -0.1380   23.9450  -25.3820 C   0  0  0  0  0  0  0  0  0  0  0  0
    1.2190   24.1070  -25.0960 C   0  0  0  0  0  0  0  0  0  0  0  0
    2.1340   24.2880  -26.1330 C   0  0  0  0  0  0  0  0  0  0  0  0
    1.6970   24.3100  -27.4580 C   0  0  0  0  0  0  0  0  0  0  0  0
    0.3300   24.1480  -27.7610 C   0  0  0  0  0  0  0  0  0  0  0  0
   -0.1480   24.1840  -29.0810 O   0  0  0  0  0  0  0  0  0  0  0  0
   -0.5370   23.0370  -29.8310 C   0  0  0  0  0  0  0  0  0  0  0  0
   -2.5330   22.3980  -27.0680 C   0  0  0  0  0  0  0  0  0  0  0  0
   -3.1390   22.1630  -28.4570 C   0  0  0  0  0  0  0  0  0  0  0  0
   -3.2900   22.0560  -32.2000 C   0  0  0  0  0  0  0  0  0  0  0  0
   -3.4370   20.9600  -33.0560 C   0  0  0  0  0  0  0  0  0  0  0  0
   -4.5790   20.1410  -32.9660 C   0  0  0  0  0  0  0  0  0  0  0  0
   -4.7840   19.0400  -33.8180 C   0  0  0  0  0  0  0  0  0  0  0  0
   -3.9130   18.7500  -34.6870 O   0  0  0  0  0  0  0  0  0  0  0  0
   -3.3394   16.2646  -34.0780 H   0  0  0  0  0  0  0  0  0  0  0  0
   -3.7623   14.9589  -35.2369 H   0  0  0  0  0  0  0  0  0  0  0  0
   -4.6922   16.4957  -35.2369 H   0  0  0  0  0  0  0  0  0  0  0  0
   -7.0149   15.1769  -34.3211 H   0  0  0  0  0  0  0  0  0  0  0  0
   -6.7237   16.0870  -32.8040 H   0  0  0  0  0  0  0  0  0  0  0  0
   -5.2820   17.0298  -35.2758 H   0  0  0  0  0  0  0  0  0  0  0  0
   -7.0628   17.3114  -35.1911 H   0  0  0  0  0  0  0  0  0  0  0  0
   -6.1616   21.7236  -30.3694 H   0  0  0  0  0  0  0  0  0  0  0  0
   -4.6073   25.2866  -28.5327 H   0  0  0  0  0  0  0  0  0  0  0  0
   -4.8179   24.1057  -27.1965 H   0  0  0  0  0  0  0  0  0  0  0  0
   -2.2675   25.5111  -28.1175 H   0  0  0  0  0  0  0  0  0  0  0  0
   -3.0355   25.5030  -26.4802 H   0  0  0  0  0  0  0  0  0  0  0  0
   -0.8570   23.8056  -24.5613 H   0  0  0  0  0  0  0  0  0  0  0  0
    1.5666   24.0919  -24.0525 H   0  0  0  0  0  0  0  0  0  0  0  0
    3.2029   24.4137  -25.9057 H   0  0  0  0  0  0  0  0  0  0  0  0
    2.4237   24.4546  -28.2710 H   0  0  0  0  0  0  0  0  0  0  0  0
   -0.8125   22.2247  -29.1423 H   0  0  0  0  0  0  0  0  0  0  0  0
   -1.4000   23.2888  -30.4649 H   0  0  0  0  0  0  0  0  0  0  0  0
    0.3011   22.7118  -30.4649 H   0  0  0  0  0  0  0  0  0  0  0  0
   -1.7271   21.6700  -26.8933 H   0  0  0  0  0  0  0  0  0  0  0  0
   -3.3157   22.2750  -26.3049 H   0  0  0  0  0  0  0  0  0  0  0  0
   -2.3280   21.9458  -29.1677 H   0  0  0  0  0  0  0  0  0  0  0  0
   -3.8389   21.3173  -28.3872 H   0  0  0  0  0  0  0  0  0  0  0  0
   -2.3944   22.6904  -32.2736 H   0  0  0  0  0  0  0  0  0  0  0  0
   -2.6591   20.7372  -33.8011 H   0  0  0  0  0  0  0  0  0  0  0  0
  1  2  1  0
  2  3  1  0
  3  4  1  0
  4  5  1  0
  5  6  1  0
  6  7  2  0
  6  8  1  0
  8  9  1  0
  9 10  2  0
 10 11  1  0
 11 12  1  0
 12 13  2  0
 12 14  1  0
 14 15  1  0
 15 16  1  0
 16 17  1  0
 17 18  1  0
 18 19  2  0
 19 20  1  0
 20 21  2  0
 21 22  1  0
 22 23  2  0
 23 24  1  0
 24 25  1  0
 17 26  1  0
 26 27  1  0
 11 28  2  0
 28 29  1  0
 29 30  2  0
 30 31  1  0
 31 32  2  0
 31  5  1  0
 30  9  1  0
 27 14  1  0
 23 18  1  0
  1 33  1  0
  1 34  1  0
  1 35  1  0
  3 36  1  0
  3 37  1  0
  4 38  1  0
  4 39  1  0
 10 40  1  0
 15 41  1  0
 15 42  1  0
 16 43  1  0
 16 44  1  0
 19 45  1  0
 20 46  1  0
 21 47  1  0
 22 48  1  0
 25 49  1  0
 25 50  1  0
 25 51  1  0
 26 52  1  0
 26 53  1  0
 27 54  1  0
 27 55  1  0
 28 56  1  0
 29 57  1  0
M  CHG  1   8  -1
M  END
>  <UniqueID>  (21) 
19

>  <SMILES>  (21) 
COCCn1c(=O)[n-]c2cc(C(=O)N3CCN(c4ccccc4OC)CC3)ccc2c1=O

>  <Energy>  (21) 
77.83895519211424

>  <Genealogy>  (21) 
COCCn1c(=O)[n-]c2cc(C(=O)N3CCN(c4ccccc4OC)CC3)ccc2c1=O (protonated)
COCCn1c(=O)[n-]c2cc(C(=O)N3CCN(c4ccccc4OC)CC3)ccc2c1=O (3D coordinates assigned)
COCCn1c(=O)[n-]c2cc(C(=O)N3CCN(c4ccccc4OC)CC3)ccc2c1=O (nonaromatic ring conformer: 77.83895519211424 kcal/mol)

>  <smiles>  (21) 
COCCn1c(=O)[nH]c2cc(C(=O)N3CCN(c4ccccc4OC)CC3)ccc2c1=O

>  <score_type>  (21) 
oracle

>  <origin>  (21) 
adg

>  <m_score__min__energy>  (21) 
-8.8599999999999994

>  <m_primary>  (21) 
energy

$$$$
21:0
     RDKit          3D

 47 49  0  0  0  0  0  0  0  0999 V2000
   -5.1580   25.8210  -31.2350 H   0  0  0  0  0  0  0  0  0  0  0  0
   -4.2380   25.6810  -30.7770 N   0  0  0  0  0  0  0  0  0  0  0  0
   -3.8820   24.6530  -30.0700 C   0  0  0  0  0  0  0  0  0  0  0  0
   -2.6860   24.7180  -29.4230 N   0  0  0  0  0  0  0  0  0  0  0  0
   -2.2020   23.7000  -28.6670 C   0  0  0  0  0  0  0  0  0  0  0  0
   -1.2300   23.8029  -28.1624 H   0  0  0  0  0  0  0  0  0  0  0  0
   -2.9360   22.5270  -28.5310 C   0  0  0  0  0  0  0  0  0  0  0  0
   -2.2670   21.0850  -27.4720 Br  0  0  0  0  0  0  0  0  0  0  0  0
   -4.1670   22.4170  -29.1770 C   0  0  0  0  0  0  0  0  0  0  0  0
   -4.7495   21.4890  -29.0794 H   0  0  0  0  0  0  0  0  0  0  0  0
   -4.6740   23.4750  -29.9510 C   0  0  0  0  0  0  0  0  0  0  0  0
   -6.2700   23.2340  -30.7140 S   0  0  0  0  0  0  0  0  0  0  0  0
   -7.1890   22.4380  -29.8330 O   0  0  0  0  0  0  0  0  0  0  0  0
   -6.9060   24.5860  -30.8900 O   0  0  0  0  0  0  0  0  0  0  0  0
   -6.1510   22.4690  -32.2900 N   0  0  0  0  0  0  0  0  0  0  0  0
   -6.2430   23.2470  -32.9850 H   0  0  0  0  0  0  0  0  0  0  0  0
   -7.2810   21.5350  -32.5410 C   0  0  0  0  0  0  0  0  0  0  0  0
   -8.1224   21.8239  -31.8941 H   0  0  0  0  0  0  0  0  0  0  0  0
   -7.5330   21.6098  -33.6091 H   0  0  0  0  0  0  0  0  0  0  0  0
   -6.9320   20.0650  -32.2590 C   0  0  0  0  0  0  0  0  0  0  0  0
   -6.7618   19.9335  -31.1802 H   0  0  0  0  0  0  0  0  0  0  0  0
   -7.7672   19.4304  -32.5903 H   0  0  0  0  0  0  0  0  0  0  0  0
   -5.7210   19.6770  -32.9900 N   0  0  0  0  0  0  0  0  0  0  0  0
   -5.4010   18.2850  -33.1570 C   0  0  0  0  0  0  0  0  0  0  0  0
   -4.0640   17.8590  -33.1360 C   0  0  0  0  0  0  0  0  0  0  0  0
   -3.2572   18.5939  -32.9986 H   0  0  0  0  0  0  0  0  0  0  0  0
   -3.7530   16.5040  -33.2890 C   0  0  0  0  0  0  0  0  0  0  0  0
   -2.7025   16.1782  -33.2695 H   0  0  0  0  0  0  0  0  0  0  0  0
   -4.7780   15.5540  -33.4680 C   0  0  0  0  0  0  0  0  0  0  0  0
   -4.5280   14.1790  -33.6190 O   0  0  0  0  0  0  0  0  0  0  0  0
   -4.6650   13.1910  -32.5960 C   0  0  0  0  0  0  0  0  0  0  0  0
   -5.6396   12.6925  -32.7040 H   0  0  0  0  0  0  0  0  0  0  0  0
   -3.8487   12.4609  -32.6987 H   0  0  0  0  0  0  0  0  0  0  0  0
   -4.5800   13.8290  -31.2140 C   0  0  0  0  0  0  0  0  0  0  0  0
   -4.6837   13.0505  -30.4438 H   0  0  0  0  0  0  0  0  0  0  0  0
   -3.6072   14.3298  -31.1005 H   0  0  0  0  0  0  0  0  0  0  0  0
   -5.3878   14.5670  -31.1005 H   0  0  0  0  0  0  0  0  0  0  0  0
   -6.1100   15.9860  -33.4850 C   0  0  0  0  0  0  0  0  0  0  0  0
   -6.9184   15.2526  -33.6217 H   0  0  0  0  0  0  0  0  0  0  0  0
   -6.4230   17.3400  -33.3300 C   0  0  0  0  0  0  0  0  0  0  0  0
   -7.4738   17.6650  -33.3438 H   0  0  0  0  0  0  0  0  0  0  0  0
   -4.8080   20.7160  -33.4740 C   0  0  0  0  0  0  0  0  0  0  0  0
   -3.7930   20.3022  -33.5659 H   0  0  0  0  0  0  0  0  0  0  0  0
   -5.1404   21.0751  -34.4592 H   0  0  0  0  0  0  0  0  0  0  0  0
   -4.8020   21.8750  -32.4740 C   0  0  0  0  0  0  0  0  0  0  0  0
   -4.4444   21.5022  -31.5029 H   0  0  0  0  0  0  0  0  0  0  0  0
   -4.1410   22.6590  -32.8721 H   0  0  0  0  0  0  0  0  0  0  0  0
  1  2  1  0
  2  3  2  0
  3  4  1  0
  4  5  1  0
  5  6  1  0
  5  7  2  0
  7  8  1  0
  7  9  1  0
  9 10  1  0
  9 11  2  0
 11 12  1  0
 12 13  2  0
 12 14  2  0
 12 15  1  0
 15 16  1  0
 15 17  1  0
 17 18  1  0
 17 19  1  0
 17 20  1  0
 20 21  1  0
 20 22  1  0
 20 23  1  0
 23 24  1  0
 24 25  2  0
 25 26  1  0
 25 27  1  0
 27 28  1  0
 27 29  2  0
 29 30  1  0
 30 31  1  0
 31 32  1  0
 31 33  1  0
 31 34  1  0
 34 35  1  0
 34 36  1  0
 34 37  1  0
 29 38  1  0
 38 39  1  0
 38 40  2  0
 40 41  1  0
 23 42  1  0
 42 43  1  0
 42 44  1  0
 42 45  1  0
 45 46  1  0
 45 47  1  0
 11  3  1  0
 45 15  1  0
 40 24  1  0
M  CHG  2   4  -1  15   1
M  END
>  <UniqueID>  (22) 
20

>  <SMILES>  (22) 
[H]/N=c1/[n-]cc(Br)cc1S(=O)(=O)[NH+]1CCN(c2ccc(OCC)cc2)CC1

>  <Energy>  (22) 
63.36640107397339

>  <Genealogy>  (22) 
CCOc1ccc(N2CC[NH+](S(=O)(=O)c3cc(Br)c[n-]c3=N)CC2)cc1 (protonated)
[H]/N=c1/[n-]cc(Br)cc1S(=O)(=O)[NH+]1CCN(c2ccc(OCC)cc2)CC1 (cis-trans isomerization)
[H]/N=c1/[n-]cc(Br)cc1S(=O)(=O)[NH+]1CCN(c2ccc(OCC)cc2)CC1 (3D coordinates assigned)
[H]/N=c1/[n-]cc(Br)cc1S(=O)(=O)[NH+]1CCN(c2ccc(OCC)cc2)CC1 (nonaromatic ring conformer: 63.36640107397339 kcal/mol)

>  <smiles>  (22) 
CCOc1ccc(N2CCN(S(=O)(=O)c3cc(Br)c[nH]c3=N)CC2)cc1

>  <score_type>  (22) 
oracle

>  <origin>  (22) 
adg

>  <m_score__min__energy>  (22) 
-9.6099999999999994

>  <m_primary>  (22) 
energy

$$$$
22:0
     RDKit          3D

 54 57  0  0  0  0  0  0  0  0999 V2000
   -6.9840   24.3080  -30.3820 C   0  0  0  0  0  0  0  0  0  0  0  0
   -6.0590   25.2880  -30.7420 C   0  0  0  0  0  0  0  0  0  0  0  0
   -4.7010   25.1140  -30.4550 C   0  0  0  0  0  0  0  0  0  0  0  0
   -4.2460   23.9390  -29.8140 C   0  0  0  0  0  0  0  0  0  0  0  0
   -2.7790   23.6840  -29.4560 C   0  0  0  0  0  0  0  0  0  0  0  0
   -2.3500   22.1990  -29.3120 C   0  0  0  0  0  0  0  0  0  0  0  0
   -2.2750   21.4170  -30.6410 C   0  0  0  0  0  0  0  0  0  0  0  0
   -3.5340   20.5710  -30.9130 C   0  0  0  0  0  0  0  0  0  0  0  0
   -3.7520   20.2900  -32.3640 N   0  0  2  0  0  0  0  0  0  0  0  0
   -4.2220   21.4790  -33.1110 C   0  0  0  0  0  0  0  0  0  0  0  0
   -5.6090   21.9600  -32.6480 C   0  0  0  0  0  0  0  0  0  0  0  0
   -6.5700   20.8240  -32.4240 C   0  0  0  0  0  0  0  0  0  0  0  0
   -7.9300   21.1090  -32.2250 C   0  0  0  0  0  0  0  0  0  0  0  0
   -8.8360   20.0790  -31.9640 C   0  0  0  0  0  0  0  0  0  0  0  0
   -8.3910   18.7580  -31.8920 C   0  0  0  0  0  0  0  0  0  0  0  0
   -7.0380   18.4630  -32.0780 C   0  0  0  0  0  0  0  0  0  0  0  0
   -6.1160   19.4930  -32.3260 C   0  0  0  0  0  0  0  0  0  0  0  0
   -4.6690   19.1460  -32.5860 C   0  0  0  0  0  0  0  0  0  0  0  0
   -2.3300   24.5090  -28.2580 C   0  0  0  0  0  0  0  0  0  0  0  0
   -3.1300   24.5510  -27.1020 C   0  0  0  0  0  0  0  0  0  0  0  0
   -2.7480   25.3280  -26.0040 C   0  0  0  0  0  0  0  0  0  0  0  0
   -1.5700   26.0770  -26.0510 C   0  0  0  0  0  0  0  0  0  0  0  0
   -0.7740   26.0560  -27.1990 C   0  0  0  0  0  0  0  0  0  0  0  0
   -1.1520   25.2820  -28.3000 C   0  0  0  0  0  0  0  0  0  0  0  0
   -5.2000   22.9730  -29.4400 C   0  0  0  0  0  0  0  0  0  0  0  0
   -6.5560   23.1530  -29.7290 C   0  0  0  0  0  0  0  0  0  0  0  0
   -8.0505   24.4464  -30.6132 H   0  0  0  0  0  0  0  0  0  0  0  0
   -6.3986   26.2008  -31.2533 H   0  0  0  0  0  0  0  0  0  0  0  0
   -3.9808   25.8984  -30.7305 H   0  0  0  0  0  0  0  0  0  0  0  0
   -2.2424   24.0283  -30.3524 H   0  0  0  0  0  0  0  0  0  0  0  0
   -1.3553   22.1737  -28.8431 H   0  0  0  0  0  0  0  0  0  0  0  0
   -3.1267   21.7087  -28.7067 H   0  0  0  0  0  0  0  0  0  0  0  0
   -2.1510   22.1359  -31.4643 H   0  0  0  0  0  0  0  0  0  0  0  0
   -1.4228   20.7253  -30.5684 H   0  0  0  0  0  0  0  0  0  0  0  0
   -3.4325   19.6126  -30.3827 H   0  0  0  0  0  0  0  0  0  0  0  0
   -4.3996   21.1498  -30.5584 H   0  0  0  0  0  0  0  0  0  0  0  0
   -2.8380   20.0270  -32.8040 H   0  0  0  0  0  0  0  0  0  0  0  0
   -3.4993   22.2952  -32.9646 H   0  0  0  0  0  0  0  0  0  0  0  0
   -4.3049   21.1950  -34.1705 H   0  0  0  0  0  0  0  0  0  0  0  0
   -5.4930   22.5145  -31.7051 H   0  0  0  0  0  0  0  0  0  0  0  0
   -6.0241   22.5957  -33.4439 H   0  0  0  0  0  0  0  0  0  0  0  0
   -8.2839   22.1493  -32.2749 H   0  0  0  0  0  0  0  0  0  0  0  0
   -9.9013   20.3089  -31.8150 H   0  0  0  0  0  0  0  0  0  0  0  0
   -9.1067   17.9478  -31.6885 H   0  0  0  0  0  0  0  0  0  0  0  0
   -6.6934   17.4195  -32.0300 H   0  0  0  0  0  0  0  0  0  0  0  0
   -4.3779   18.3270  -31.9118 H   0  0  0  0  0  0  0  0  0  0  0  0
   -4.5842   18.8556  -33.6436 H   0  0  0  0  0  0  0  0  0  0  0  0
   -4.0624   23.9687  -27.0614 H   0  0  0  0  0  0  0  0  0  0  0  0
   -3.3765   25.3494  -25.1015 H   0  0  0  0  0  0  0  0  0  0  0  0
   -1.2690   26.6835  -25.1841 H   0  0  0  0  0  0  0  0  0  0  0  0
    0.1515   26.6494  -27.2365 H   0  0  0  0  0  0  0  0  0  0  0  0
   -0.5263   25.2761  -29.2047 H   0  0  0  0  0  0  0  0  0  0  0  0
   -4.8738   22.0642  -28.9131 H   0  0  0  0  0  0  0  0  0  0  0  0
   -7.2861   22.3823  -29.4408 H   0  0  0  0  0  0  0  0  0  0  0  0
  1  2  2  0
  2  3  1  0
  3  4  2  0
  4  5  1  0
  5  6  1  0
  6  7  1  0
  7  8  1  0
  8  9  1  0
  9 10  1  0
 10 11  1  0
 11 12  1  0
 12 13  2  0
 13 14  1  0
 14 15  2  0
 15 16  1  0
 16 17  2  0
 17 18  1  0
  5 19  1  0
 19 20  2  0
 20 21  1  0
 21 22  2  0
 22 23  1  0
 23 24  2  0
  4 25  1  0
 25 26  2  0
 26  1  1  0
 18  9  1  0
 24 19  1  0
 17 12  1  0
  1 27  1  0
  2 28  1  0
  3 29  1  0
  5 30  1  0
  6 31  1  0
  6 32  1  0
  7 33  1  0
  7 34  1  0
  8 35  1  0
  8 36  1  0
  9 37  1  6
 10 38  1  0
 10 39  1  0
 11 40  1  0
 11 41  1  0
 13 42  1  0
 14 43  1  0
 15 44  1  0
 16 45  1  0
 18 46  1  0
 18 47  1  0
 20 48  1  0
 21 49  1  0
 22 50  1  0
 23 51  1  0
 24 52  1  0
 25 53  1  0
 26 54  1  0
M  CHG  1   9   1
M  END
>  <UniqueID>  (23) 
21

>  <SMILES>  (23) 
c1ccc(C(CCC[N@@H+]2CCc3ccccc3C2)c2ccccc2)cc1

>  <Energy>  (23) 
69.8158923796931

>  <Genealogy>  (23) 
c1ccc(C(CCC[NH+]2CCc3ccccc3C2)c2ccccc2)cc1 (protonated)
c1ccc(C(CCC[N@@H+]2CCc3ccccc3C2)c2ccccc2)cc1 (chirality)
c1ccc(C(CCC[N@@H+]2CCc3ccccc3C2)c2ccccc2)cc1 (3D coordinates assigned)
c1ccc(C(CCC[N@@H+]2CCc3ccccc3C2)c2ccccc2)cc1 (nonaromatic ring conformer: 69.8158923796931 kcal/mol)

>  <smiles>  (23) 
c1ccc(C(CCCN2CCc3ccccc3C2)c2ccccc2)cc1

>  <score_type>  (23) 
oracle

>  <origin>  (23) 
adg

>  <m_score__min__energy>  (23) 
-8.5899999999999999

>  <m_primary>  (23) 
energy

$$$$
23:0
     RDKit          3D

 49 51  0  0  0  0  0  0  0  0999 V2000
   -0.1970   21.1300  -33.1960 C   0  0  0  0  0  0  0  0  0  0  0  0
   -1.3330   20.7680  -34.1500 C   0  0  0  0  0  0  0  0  0  0  0  0
   -2.6420   20.9730  -33.4910 N   0  0  0  0  0  0  0  0  0  0  0  0
   -3.4070   19.7070  -33.4130 C   0  0  0  0  0  0  0  0  0  0  0  0
   -2.5290   18.5960  -32.8410 C   0  0  0  0  0  0  0  0  0  0  0  0
   -2.4820   21.5890  -32.1530 C   0  0  0  0  0  0  0  0  0  0  0  0
   -3.7020   22.4520  -31.8070 C   0  0  0  0  0  0  0  0  0  0  0  0
   -4.7950   22.2250  -32.7560 N   0  0  0  0  0  0  0  0  0  0  0  0
   -6.1780   22.1990  -32.3660 C   0  0  0  0  0  0  0  0  0  0  0  0
   -6.9110   23.3710  -32.0550 C   0  0  0  0  0  0  0  0  0  0  0  0
   -8.2680   23.2870  -31.6660 C   0  0  0  0  0  0  0  0  0  0  0  0
   -8.9100   22.0370  -31.5800 C   0  0  0  0  0  0  0  0  0  0  0  0
  -10.2090   21.9430  -31.2030 F   0  0  0  0  0  0  0  0  0  0  0  0
   -8.1660   20.9040  -31.8930 C   0  0  0  0  0  0  0  0  0  0  0  0
   -8.5650   19.6200  -31.8700 N   0  0  0  0  0  0  0  0  0  0  0  0
   -7.4350   18.9700  -32.2540 C   0  0  0  0  0  0  0  0  0  0  0  0
   -7.3390   17.4820  -32.3660 C   0  0  0  0  0  0  0  0  0  0  0  0
   -6.2170   17.1130  -33.2960 C   0  0  0  0  0  0  0  0  0  0  0  0
   -6.0350   17.8140  -34.4990 C   0  0  0  0  0  0  0  0  0  0  0  0
   -4.9650   17.4990  -35.3440 C   0  0  0  0  0  0  0  0  0  0  0  0
   -4.0670   16.4880  -34.9890 C   0  0  0  0  0  0  0  0  0  0  0  0
   -3.0300   16.1840  -35.8080 F   0  0  0  0  0  0  0  0  0  0  0  0
   -4.2330   15.7970  -33.7860 C   0  0  0  0  0  0  0  0  0  0  0  0
   -5.3010   16.1100  -32.9380 C   0  0  0  0  0  0  0  0  0  0  0  0
   -6.4160   19.7770  -32.4940 O   0  0  0  0  0  0  0  0  0  0  0  0
   -6.8600   20.9840  -32.2710 C   0  0  0  0  0  0  0  0  0  0  0  0
   -0.5416   21.0202  -32.1571 H   0  0  0  0  0  0  0  0  0  0  0  0
    0.6572   20.4595  -33.3718 H   0  0  0  0  0  0  0  0  0  0  0  0
    0.1118   22.1710  -33.3718 H   0  0  0  0  0  0  0  0  0  0  0  0
   -1.2731   21.4058  -35.0442 H   0  0  0  0  0  0  0  0  0  0  0  0
   -1.2376   19.7098  -34.4348 H   0  0  0  0  0  0  0  0  0  0  0  0
   -4.2820   19.8505  -32.7620 H   0  0  0  0  0  0  0  0  0  0  0  0
   -3.7344   19.4220  -34.4237 H   0  0  0  0  0  0  0  0  0  0  0  0
   -2.5590   18.6340  -31.7421 H   0  0  0  0  0  0  0  0  0  0  0  0
   -2.9024   17.6200  -33.1845 H   0  0  0  0  0  0  0  0  0  0  0  0
   -1.4931   18.7338  -33.1845 H   0  0  0  0  0  0  0  0  0  0  0  0
   -2.3757   20.7946  -31.3996 H   0  0  0  0  0  0  0  0  0  0  0  0
   -1.5865   22.2277  -32.1613 H   0  0  0  0  0  0  0  0  0  0  0  0
   -4.0469   22.1969  -30.7941 H   0  0  0  0  0  0  0  0  0  0  0  0
   -3.4075   23.5105  -31.8600 H   0  0  0  0  0  0  0  0  0  0  0  0
   -4.5660   22.0280  -33.7560 H   0  0  0  0  0  0  0  0  0  0  0  0
   -6.4207   24.3538  -32.1166 H   0  0  0  0  0  0  0  0  0  0  0  0
   -8.8259   24.2049  -31.4289 H   0  0  0  0  0  0  0  0  0  0  0  0
   -7.1456   17.0526  -31.3719 H   0  0  0  0  0  0  0  0  0  0  0  0
   -8.2852   17.0857  -32.7630 H   0  0  0  0  0  0  0  0  0  0  0  0
   -6.7364   18.6140  -34.7783 H   0  0  0  0  0  0  0  0  0  0  0  0
   -4.8304   18.0472  -36.2881 H   0  0  0  0  0  0  0  0  0  0  0  0
   -3.5227   15.0054  -33.5051 H   0  0  0  0  0  0  0  0  0  0  0  0
   -5.4237   15.5690  -31.9881 H   0  0  0  0  0  0  0  0  0  0  0  0
  1  2  1  0
  2  3  1  0
  3  4  1  0
  4  5  1  0
  3  6  1  0
  6  7  1  0
  7  8  1  0
  8  9  1  0
  9 10  2  0
 10 11  1  0
 11 12  2  0
 12 13  1  0
 12 14  1  0
 14 15  1  0
 15 16  2  0
 16 17  1  0
 17 18  1  0
 18 19  2  0
 19 20  1  0
 20 21  2  0
 21 22  1  0
 21 23  1  0
 23 24  2  0
 16 25  1  0
 25 26  1  0
 26  9  1  0
 26 14  2  0
 24 18  1  0
  1 27  1  0
  1 28  1  0
  1 29  1  0
  2 30  1  0
  2 31  1  0
  4 32  1  0
  4 33  1  0
  5 34  1  0
  5 35  1  0
  5 36  1  0
  6 37  1  0
  6 38  1  0
  7 39  1  0
  7 40  1  0
  8 41  1  0
 10 42  1  0
 11 43  1  0
 17 44  1  0
 17 45  1  0
 19 46  1  0
 20 47  1  0
 23 48  1  0
 24 49  1  0
M  END
>  <UniqueID>  (24) 
22

>  <SMILES>  (24) 
CCN(CC)CCNc1ccc(F)c2nc(Cc3ccc(F)cc3)oc12

>  <Energy>  (24) 
81.34982343769728

>  <Genealogy>  (24) 
CCN(CC)CCNc1ccc(F)c2nc(Cc3ccc(F)cc3)oc12 (3D coordinates assigned)
CCN(CC)CCNc1ccc(F)c2nc(Cc3ccc(F)cc3)oc12 (optimized conformer: 81.34982343769728 kcal/mol)

>  <smiles>  (24) 
CCN(CC)CCNc1ccc(F)c2nc(Cc3ccc(F)cc3)oc12

>  <score_type>  (24) 
oracle

>  <origin>  (24) 
adg

>  <m_score__min__energy>  (24) 
-7.9900000000000002

>  <m_primary>  (24) 
energy

$$$$
24:0
     RDKit          3D

 42 43  0  0  0  0  0  0  0  0999 V2000
   -5.7410   21.0770  -34.2200 H   0  0  0  0  0  0  0  0  0  0  0  0
   -6.2580   20.3060  -33.8670 O   0  0  0  0  0  0  0  0  0  0  0  0
   -5.5370   19.8020  -32.7730 C   0  0  1  0  0  0  0  0  0  0  0  0
   -4.6842   19.2111  -33.1384 H   0  0  0  0  0  0  0  0  0  0  0  0
   -5.0120   20.9510  -31.9490 C   0  0  0  0  0  0  0  0  0  0  0  0
   -4.0635   20.8351  -31.4041 H   0  0  0  0  0  0  0  0  0  0  0  0
   -5.6800   22.1120  -31.8680 C   0  0  0  0  0  0  0  0  0  0  0  0
   -6.0176   22.6030  -32.7926 H   0  0  0  0  0  0  0  0  0  0  0  0
   -5.9800   22.7620  -30.5340 C   0  0  2  0  0  0  0  0  0  0  0  0
   -6.4169   21.9363  -29.9531 H   0  0  0  0  0  0  0  0  0  0  0  0
   -6.9060   24.0160  -30.6770 C   0  0  0  0  0  0  0  0  0  0  0  0
   -7.3642   24.0323  -31.6769 H   0  0  0  0  0  0  0  0  0  0  0  0
   -7.7128   23.9887  -29.9298 H   0  0  0  0  0  0  0  0  0  0  0  0
   -6.0190   25.2780  -30.4790 C   0  0  0  0  0  0  0  0  0  0  0  0
   -6.2153   26.0318  -31.2557 H   0  0  0  0  0  0  0  0  0  0  0  0
   -6.1955   25.8029  -29.5286 H   0  0  0  0  0  0  0  0  0  0  0  0
   -4.6310   24.7010  -30.6110 C   0  0  1  0  0  0  0  0  0  0  0  0
   -4.4142   24.7799  -31.6865 H   0  0  0  0  0  0  0  0  0  0  0  0
   -3.5020   25.2930  -30.0060 O   0  0  0  0  0  0  0  0  0  0  0  0
   -2.6470   24.2350  -29.6930 C   0  0  0  0  0  0  0  0  0  0  0  0
   -1.4610   24.3980  -29.3050 O   0  0  0  0  0  0  0  0  0  0  0  0
   -3.3110   22.8950  -29.8620 C   0  0  0  0  0  0  0  0  0  0  0  0
   -3.0179   22.3978  -30.7984 H   0  0  0  0  0  0  0  0  0  0  0  0
   -3.0732   22.1346  -29.1036 H   0  0  0  0  0  0  0  0  0  0  0  0
   -4.7520   23.3880  -29.8940 C   0  0  2  0  0  0  0  0  0  0  0  0
   -5.0146   23.2206  -28.8390 H   0  0  0  0  0  0  0  0  0  0  0  0
   -6.4190   18.8600  -31.9260 C   0  0  0  0  0  0  0  0  0  0  0  0
   -6.8745   19.4441  -31.1128 H   0  0  0  0  0  0  0  0  0  0  0  0
   -5.7699   18.0584  -31.5438 H   0  0  0  0  0  0  0  0  0  0  0  0
   -7.5450   18.1910  -32.7400 C   0  0  0  0  0  0  0  0  0  0  0  0
   -7.9775   17.3742  -32.1434 H   0  0  0  0  0  0  0  0  0  0  0  0
   -7.1087   17.8120  -33.6760 H   0  0  0  0  0  0  0  0  0  0  0  0
   -8.6150   19.1440  -33.0890 N   0  0  0  0  0  0  0  0  0  0  0  0
   -9.4110   18.6400  -33.5490 H   0  0  0  0  0  0  0  0  0  0  0  0
   -8.2290   19.8350  -33.7750 H   0  0  0  0  0  0  0  0  0  0  0  0
   -9.0950   19.8820  -31.9080 C   0  0  0  0  0  0  0  0  0  0  0  0
   -8.4914   19.5950  -31.0343 H   0  0  0  0  0  0  0  0  0  0  0  0
  -10.1533   19.6312  -31.7435 H   0  0  0  0  0  0  0  0  0  0  0  0
   -8.9790   21.3880  -32.1220 C   0  0  0  0  0  0  0  0  0  0  0  0
   -8.9399   21.8950  -31.1466 H   0  0  0  0  0  0  0  0  0  0  0  0
   -8.0612   21.6085  -32.6869 H   0  0  0  0  0  0  0  0  0  0  0  0
   -9.8522   21.7464  -32.6869 H   0  0  0  0  0  0  0  0  0  0  0  0
  1  2  1  0
  2  3  1  0
  3  4  1  6
  3  5  1  0
  5  6  1  0
  5  7  2  0
  7  8  1  0
  7  9  1  0
  9 10  1  1
  9 11  1  0
 11 12  1  0
 11 13  1  0
 11 14  1  0
 14 15  1  0
 14 16  1  0
 14 17  1  0
 17 18  1  6
 17 19  1  0
 19 20  1  0
 20 21  2  0
 20 22  1  0
 22 23  1  0
 22 24  1  0
 22 25  1  0
 25 26  1  1
  3 27  1  0
 27 28  1  0
 27 29  1  0
 27 30  1  0
 30 31  1  0
 30 32  1  0
 30 33  1  0
 33 34  1  0
 33 35  1  0
 33 36  1  0
 36 37  1  0
 36 38  1  0
 36 39  1  0
 39 40  1  0
 39 41  1  0
 39 42  1  0
 25  9  1  0
 25 17  1  0
M  CHG  1  33   1
M  END
>  <UniqueID>  (25) 
23

>  <SMILES>  (25) 
CC[NH2+]CC[C@@H](O)/C=C/[C@@H]1CCC2OC(=O)CC21

>  <Energy>  (25) 
73.61997579113465

>  <Genealogy>  (25) 
CC[NH2+]CCC(O)C=CC1CCC2OC(=O)CC12 (protonated)
CC[NH2+]CC[C@@H](O)C=C[C@@H]1CCC2OC(=O)CC21 (chirality)
CC[NH2+]CC[C@@H](O)/C=C/[C@@H]1CCC2OC(=O)CC21 (cis-trans isomerization)
CC[NH2+]CC[C@@H](O)/C=C/[C@@H]1CCC2OC(=O)CC21 (3D coordinates assigned)
CC[NH2+]CC[C@@H](O)/C=C/[C@@H]1CCC2OC(=O)CC21 (nonaromatic ring conformer: 73.61997579113465 kcal/mol)

>  <smiles>  (25) 
CCNCCC(O)C=CC1CCC2OC(=O)CC12

>  <score_type>  (25) 
oracle

>  <origin>  (25) 
adg

>  <m_score__min__energy>  (25) 
-7.7199999999999998

>  <m_primary>  (25) 
energy

$$$$
25:0
     RDKit          3D

 62 63  0  0  0  0  0  0  0  0999 V2000
   -4.9790   15.6750  -32.3160 C   0  0  0  0  0  0  0  0  0  0  0  0
   -5.2900   16.7100  -33.3910 C   0  0  0  0  0  0  0  0  0  0  0  0
   -5.4400   18.0050  -32.8130 O   0  0  0  0  0  0  0  0  0  0  0  0
   -6.6590   18.6230  -32.4770 C   0  0  0  0  0  0  0  0  0  0  0  0
   -7.7380   17.9030  -31.9250 C   0  0  0  0  0  0  0  0  0  0  0  0
   -8.9300   18.5540  -31.6010 C   0  0  0  0  0  0  0  0  0  0  0  0
   -9.0610   19.9260  -31.8190 C   0  0  0  0  0  0  0  0  0  0  0  0
   -8.0010   20.6510  -32.3620 C   0  0  0  0  0  0  0  0  0  0  0  0
   -6.7960   20.0110  -32.6930 C   0  0  0  0  0  0  0  0  0  0  0  0
   -5.6600   20.8060  -33.3050 C   0  0  0  0  0  0  0  0  0  0  0  0
   -4.4090   20.6940  -32.5050 N   0  0  1  0  0  0  0  0  0  0  0  0
   -3.2790   21.4770  -33.0840 C   0  0  0  0  0  0  0  0  0  0  0  0
   -1.8750   20.8190  -33.0140 C   0  0  0  0  0  0  0  0  0  0  0  0
   -1.8740   19.5930  -32.1860 N   0  0  0  0  0  0  0  0  0  0  0  0
   -1.0220   19.7430  -30.9840 C   0  0  0  0  0  0  0  0  0  0  0  0
   -0.8560   21.2080  -30.5800 C   0  0  0  0  0  0  0  0  0  0  0  0
   -1.5870   18.3750  -32.9840 C   0  0  0  0  0  0  0  0  0  0  0  0
   -2.4850   18.2080  -34.2180 C   0  0  0  0  0  0  0  0  0  0  0  0
   -4.6420   21.0030  -31.0700 C   0  0  0  0  0  0  0  0  0  0  0  0
   -4.7510   22.4930  -30.8200 C   0  0  0  0  0  0  0  0  0  0  0  0
   -5.9080   23.1980  -31.1890 C   0  0  0  0  0  0  0  0  0  0  0  0
   -6.0090   24.5660  -30.9290 C   0  0  0  0  0  0  0  0  0  0  0  0
   -4.9560   25.2430  -30.3110 C   0  0  0  0  0  0  0  0  0  0  0  0
   -3.7900   24.5620  -29.9470 C   0  0  0  0  0  0  0  0  0  0  0  0
   -2.7550   25.2910  -29.3440 O   0  0  0  0  0  0  0  0  0  0  0  0
   -2.0410   24.8710  -28.1850 C   0  0  0  0  0  0  0  0  0  0  0  0
   -3.6940   23.1790  -30.1990 C   0  0  0  0  0  0  0  0  0  0  0  0
   -5.1147   16.1265  -31.3221 H   0  0  0  0  0  0  0  0  0  0  0  0
   -5.6591   14.8174  -32.4251 H   0  0  0  0  0  0  0  0  0  0  0  0
   -3.9388   15.3343  -32.4251 H   0  0  0  0  0  0  0  0  0  0  0  0
   -4.4665   16.7327  -34.1199 H   0  0  0  0  0  0  0  0  0  0  0  0
   -6.2311   16.4327  -33.8884 H   0  0  0  0  0  0  0  0  0  0  0  0
   -7.6403   16.8217  -31.7484 H   0  0  0  0  0  0  0  0  0  0  0  0
   -9.7677   17.9840  -31.1729 H   0  0  0  0  0  0  0  0  0  0  0  0
  -10.0012   20.4360  -31.5623 H   0  0  0  0  0  0  0  0  0  0  0  0
   -8.1096   21.7323  -32.5323 H   0  0  0  0  0  0  0  0  0  0  0  0
   -5.4680   20.4280  -34.3200 H   0  0  0  0  0  0  0  0  0  0  0  0
   -5.9576   21.8648  -33.3255 H   0  0  0  0  0  0  0  0  0  0  0  0
   -4.0960   19.6940  -32.5480 H   0  0  0  0  0  0  0  0  0  0  0  0
   -3.5090   21.6626  -34.1436 H   0  0  0  0  0  0  0  0  0  0  0  0
   -3.2068   22.3849  -32.4672 H   0  0  0  0  0  0  0  0  0  0  0  0
   -1.5545   20.5584  -34.0335 H   0  0  0  0  0  0  0  0  0  0  0  0
   -1.1862   21.5406  -32.5504 H   0  0  0  0  0  0  0  0  0  0  0  0
   -1.4844   19.1947  -30.1500 H   0  0  0  0  0  0  0  0  0  0  0  0
   -0.0260   19.3405  -31.2206 H   0  0  0  0  0  0  0  0  0  0  0  0
   -0.8470   21.2870  -29.4829 H   0  0  0  0  0  0  0  0  0  0  0  0
    0.0917   21.5944  -30.9832 H   0  0  0  0  0  0  0  0  0  0  0  0
   -1.6932   21.7967  -30.9832 H   0  0  0  0  0  0  0  0  0  0  0  0
   -0.5411   18.4217  -33.3217 H   0  0  0  0  0  0  0  0  0  0  0  0
   -1.7840   17.5132  -32.3294 H   0  0  0  0  0  0  0  0  0  0  0  0
   -3.5190   18.0157  -33.8957 H   0  0  0  0  0  0  0  0  0  0  0  0
   -2.4539   19.1273  -34.8212 H   0  0  0  0  0  0  0  0  0  0  0  0
   -2.1255   17.3613  -34.8212 H   0  0  0  0  0  0  0  0  0  0  0  0
   -5.5771   20.5200  -30.7502 H   0  0  0  0  0  0  0  0  0  0  0  0
   -3.7823   20.6248  -30.4974 H   0  0  0  0  0  0  0  0  0  0  0  0
   -6.7369   22.6711  -31.6842 H   0  0  0  0  0  0  0  0  0  0  0  0
   -6.9210   25.1121  -31.2119 H   0  0  0  0  0  0  0  0  0  0  0  0
   -5.0441   26.3207  -30.1088 H   0  0  0  0  0  0  0  0  0  0  0  0
   -2.5845   25.1907  -27.2837 H   0  0  0  0  0  0  0  0  0  0  0  0
   -1.9490   23.7749  -28.1882 H   0  0  0  0  0  0  0  0  0  0  0  0
   -1.0382   25.3231  -28.1882 H   0  0  0  0  0  0  0  0  0  0  0  0
   -2.7849   22.6326  -29.9074 H   0  0  0  0  0  0  0  0  0  0  0  0
  1  2  1  0
  2  3  1  0
  3  4  1  0
  4  5  2  0
  5  6  1  0
  6  7  2  0
  7  8  1  0
  8  9  2  0
  9 10  1  0
 10 11  1  0
 11 12  1  0
 12 13  1  0
 13 14  1  0
 14 15  1  0
 15 16  1  0
 14 17  1  0
 17 18  1  0
 11 19  1  0
 19 20  1  0
 20 21  2  0
 21 22  1  0
 22 23  2  0
 23 24  1  0
 24 25  1  0
 25 26  1  0
 24 27  2  0
  9  4  1  0
 27 20  1  0
  1 28  1  0
  1 29  1  0
  1 30  1  0
  2 31  1  0
  2 32  1  0
  5 33  1  0
  6 34  1  0
  7 35  1  0
  8 36  1  0
 10 37  1  0
 10 38  1  0
 11 39  1  1
 12 40  1  0
 12 41  1  0
 13 42  1  0
 13 43  1  0
 15 44  1  0
 15 45  1  0
 16 46  1  0
 16 47  1  0
 16 48  1  0
 17 49  1  0
 17 50  1  0
 18 51  1  0
 18 52  1  0
 18 53  1  0
 19 54  1  0
 19 55  1  0
 21 56  1  0
 22 57  1  0
 23 58  1  0
 26 59  1  0
 26 60  1  0
 26 61  1  0
 27 62  1  0
M  CHG  1  11   1
M  END
>  <UniqueID>  (26) 
24

>  <SMILES>  (26) 
CCOc1ccccc1C[N@@H+](CCN(CC)CC)Cc1cccc(OC)c1

>  <Energy>  (26) 
63.89653520542019

>  <Genealogy>  (26) 
CCOc1ccccc1C[NH+](CCN(CC)CC)Cc1cccc(OC)c1 (protonated)
CCOc1ccccc1C[N@@H+](CCN(CC)CC)Cc1cccc(OC)c1 (chirality)
CCOc1ccccc1C[N@@H+](CCN(CC)CC)Cc1cccc(OC)c1 (3D coordinates assigned)
CCOc1ccccc1C[N@@H+](CCN(CC)CC)Cc1cccc(OC)c1 (optimized conformer: 63.89653520542019 kcal/mol)

>  <smiles>  (26) 
CCOc1ccccc1CN(CCN(CC)CC)Cc1cccc(OC)c1

>  <score_type>  (26) 
oracle

>  <origin>  (26) 
adg

>  <m_score__min__energy>  (26) 
-7.3499999999999996

>  <m_primary>  (26) 
energy

$$$$
26:0
     RDKit          3D

 56 58  0  0  0  0  0  0  0  0999 V2000
   -2.6080   24.0510  -29.4140 C   0  0  0  0  0  0  0  0  0  0  0  0
   -3.4890   24.3740  -30.4840 O   0  0  0  0  0  0  0  0  0  0  0  0
   -4.8010   23.8910  -30.6090 C   0  0  0  0  0  0  0  0  0  0  0  0
   -5.9180   24.6470  -30.1990 C   0  0  0  0  0  0  0  0  0  0  0  0
   -7.2120   24.1440  -30.3660 C   0  0  0  0  0  0  0  0  0  0  0  0
   -7.4050   22.8890  -30.9420 C   0  0  0  0  0  0  0  0  0  0  0  0
   -6.3070   22.1280  -31.3480 C   0  0  0  0  0  0  0  0  0  0  0  0
   -5.0050   22.6190  -31.1770 C   0  0  0  0  0  0  0  0  0  0  0  0
   -3.8900   21.8220  -31.6020 N   0  0  0  0  0  0  0  0  0  0  0  0
   -3.2490   20.9000  -30.6600 C   0  0  0  0  0  0  0  0  0  0  0  0
   -2.1810   20.0600  -31.3710 C   0  0  0  0  0  0  0  0  0  0  0  0
   -2.7170   19.5090  -32.6370 N   0  0  0  0  0  0  0  0  0  0  0  0
   -1.8240   18.4980  -33.2730 C   0  0  0  0  0  0  0  0  0  0  0  0
   -2.3970   17.0650  -33.4520 C   0  0  2  0  0  0  0  0  0  0  0  0
   -2.7110   16.7180  -34.9120 C   0  0  0  0  0  0  0  0  0  0  0  0
   -3.6020   16.9820  -32.6880 O   0  0  0  0  0  0  0  0  0  0  0  0
   -4.8700   16.7700  -33.2490 C   0  0  0  0  0  0  0  0  0  0  0  0
   -5.1370   15.6770  -33.8210 O   0  0  0  0  0  0  0  0  0  0  0  0
   -5.9000   17.8290  -33.1560 C   0  0  0  0  0  0  0  0  0  0  0  0
   -5.8090   18.9900  -33.9480 C   0  0  0  0  0  0  0  0  0  0  0  0
   -6.7810   19.9880  -33.8520 C   0  0  0  0  0  0  0  0  0  0  0  0
   -7.8560   19.8400  -32.9730 C   0  0  0  0  0  0  0  0  0  0  0  0
   -7.9720   18.6830  -32.1890 C   0  0  0  0  0  0  0  0  0  0  0  0
   -9.1100   18.5360  -31.2240 C   0  0  0  0  0  0  0  0  0  0  0  0
   -6.9840   17.6890  -32.2720 C   0  0  0  0  0  0  0  0  0  0  0  0
   -3.1930   20.5470  -33.6000 C   0  0  0  0  0  0  0  0  0  0  0  0
   -3.3850   21.9400  -32.9730 C   0  0  0  0  0  0  0  0  0  0  0  0
   -3.1131   24.2362  -28.4545 H   0  0  0  0  0  0  0  0  0  0  0  0
   -2.3241   22.9903  -29.4802 H   0  0  0  0  0  0  0  0  0  0  0  0
   -1.7058   24.6768  -29.4802 H   0  0  0  0  0  0  0  0  0  0  0  0
   -5.7708   25.6381  -29.7452 H   0  0  0  0  0  0  0  0  0  0  0  0
   -8.0787   24.7391  -30.0426 H   0  0  0  0  0  0  0  0  0  0  0  0
   -8.4242   22.4977  -31.0768 H   0  0  0  0  0  0  0  0  0  0  0  0
   -6.4642   21.1393  -31.8038 H   0  0  0  0  0  0  0  0  0  0  0  0
   -2.7760   21.4785  -29.8528 H   0  0  0  0  0  0  0  0  0  0  0  0
   -4.0138   20.2261  -30.2466 H   0  0  0  0  0  0  0  0  0  0  0  0
   -1.3091   20.6933  -31.5916 H   0  0  0  0  0  0  0  0  0  0  0  0
   -1.8866   19.2273  -30.7153 H   0  0  0  0  0  0  0  0  0  0  0  0
   -3.5740   18.9700  -32.3610 H   0  0  0  0  0  0  0  0  0  0  0  0
   -1.5539   18.8745  -34.2706 H   0  0  0  0  0  0  0  0  0  0  0  0
   -0.9801   18.3836  -32.5768 H   0  0  0  0  0  0  0  0  0  0  0  0
   -1.6344   16.3487  -33.1123 H   0  0  0  0  0  0  0  0  0  0  0  0
   -3.4487   15.9027  -34.9446 H   0  0  0  0  0  0  0  0  0  0  0  0
   -3.1207   17.6038  -35.4194 H   0  0  0  0  0  0  0  0  0  0  0  0
   -1.7888   16.3985  -35.4194 H   0  0  0  0  0  0  0  0  0  0  0  0
   -4.9676   19.1113  -34.6461 H   0  0  0  0  0  0  0  0  0  0  0  0
   -6.6996   20.8938  -34.4708 H   0  0  0  0  0  0  0  0  0  0  0  0
   -8.6140   20.6333  -32.8953 H   0  0  0  0  0  0  0  0  0  0  0  0
   -8.7263   18.5856  -30.1943 H   0  0  0  0  0  0  0  0  0  0  0  0
   -9.8344   19.3480  -31.3849 H   0  0  0  0  0  0  0  0  0  0  0  0
   -9.6043   17.5665  -31.3849 H   0  0  0  0  0  0  0  0  0  0  0  0
   -7.0588   16.7922  -31.6394 H   0  0  0  0  0  0  0  0  0  0  0  0
   -2.4547   20.6313  -34.4110 H   0  0  0  0  0  0  0  0  0  0  0  0
   -4.1801   20.2201  -33.9589 H   0  0  0  0  0  0  0  0  0  0  0  0
   -2.4193   22.4665  -32.9588 H   0  0  0  0  0  0  0  0  0  0  0  0
   -4.1153   22.5022  -33.5734 H   0  0  0  0  0  0  0  0  0  0  0  0
  1  2  1  0
  2  3  1  0
  3  4  2  0
  4  5  1  0
  5  6  2  0
  6  7  1  0
  7  8  2  0
  8  9  1  0
  9 10  1  0
 10 11  1  0
 11 12  1  0
 12 13  1  0
 13 14  1  0
 14 15  1  0
 14 16  1  0
 16 17  1  0
 17 18  2  0
 17 19  1  0
 19 20  2  0
 20 21  1  0
 21 22  2  0
 22 23  1  0
 23 24  1  0
 23 25  2  0
 12 26  1  0
 26 27  1  0
  8  3  1  0
 27  9  1  0
 25 19  1  0
  1 28  1  0
  1 29  1  0
  1 30  1  0
  4 31  1  0
  5 32  1  0
  6 33  1  0
  7 34  1  0
 10 35  1  0
 10 36  1  0
 11 37  1  0
 11 38  1  0
 12 39  1  0
 13 40  1  0
 13 41  1  0
 14 42  1  1
 15 43  1  0
 15 44  1  0
 15 45  1  0
 20 46  1  0
 21 47  1  0
 22 48  1  0
 24 49  1  0
 24 50  1  0
 24 51  1  0
 25 52  1  0
 26 53  1  0
 26 54  1  0
 27 55  1  0
 27 56  1  0
M  CHG  1  12   1
M  END
>  <UniqueID>  (27) 
25

>  <SMILES>  (27) 
COc1ccccc1N1CC[NH+](C[C@H](C)OC(=O)c2cccc(C)c2)CC1

>  <Energy>  (27) 
70.9086811206955

>  <Genealogy>  (27) 
COc1ccccc1N1CC[NH+](CC(C)OC(=O)c2cccc(C)c2)CC1 (protonated)
COc1ccccc1N1CC[NH+](C[C@H](C)OC(=O)c2cccc(C)c2)CC1 (chirality)
COc1ccccc1N1CC[NH+](C[C@H](C)OC(=O)c2cccc(C)c2)CC1 (3D coordinates assigned)
COc1ccccc1N1CC[NH+](C[C@H](C)OC(=O)c2cccc(C)c2)CC1 (nonaromatic ring conformer: 70.9086811206955 kcal/mol)

>  <smiles>  (27) 
COc1ccccc1N1CCN(CC(C)OC(=O)c2cccc(C)c2)CC1

>  <score_type>  (27) 
oracle

>  <origin>  (27) 
adg

>  <m_score__min__energy>  (27) 
-7.8399999999999999

>  <m_primary>  (27) 
energy

$$$$
27:0
     RDKit          3D

 60 63  0  0  0  0  0  0  0  0999 V2000
   -5.5410   14.8100  -34.2760 C   0  0  0  0  0  0  0  0  0  0  0  0
   -5.7540   16.1580  -33.6580 C   0  0  0  0  0  0  0  0  0  0  0  0
   -5.7420   16.3080  -32.2640 C   0  0  0  0  0  0  0  0  0  0  0  0
   -5.9020   17.5710  -31.6880 C   0  0  0  0  0  0  0  0  0  0  0  0
   -6.0650   18.7080  -32.4990 C   0  0  0  0  0  0  0  0  0  0  0  0
   -6.2230   20.0130  -31.9070 N   0  0  0  0  0  0  0  0  0  0  0  0
   -7.5550   20.4420  -31.4580 C   0  0  0  0  0  0  0  0  0  0  0  0
   -7.4970   21.8290  -30.8210 C   0  0  0  0  0  0  0  0  0  0  0  0
   -6.6950   22.7070  -31.6880 N   0  0  0  0  0  0  0  0  0  0  0  0
   -6.8890   24.1490  -31.4280 C   0  0  0  0  0  0  0  0  0  0  0  0
   -6.1930   24.6600  -30.1490 C   0  0  0  0  0  0  0  0  0  0  0  0
   -5.1140   25.6910  -30.4960 C   0  0  0  0  0  0  0  0  0  0  0  0
   -3.8000   25.0580  -30.5420 N   0  0  0  0  0  0  0  0  0  0  0  0
   -3.1660   24.3530  -29.4670 C   0  0  0  0  0  0  0  0  0  0  0  0
   -2.2030   24.9070  -28.8750 O   0  0  0  0  0  0  0  0  0  0  0  0
   -3.5950   22.9710  -29.0330 C   0  0  0  0  0  0  0  0  0  0  0  0
   -2.5800   21.9610  -29.3880 N   0  0  0  0  0  0  0  0  0  0  0  0
   -1.9050   22.0400  -30.6580 C   0  0  0  0  0  0  0  0  0  0  0  0
   -2.4310   22.6340  -31.6370 O   0  0  0  0  0  0  0  0  0  0  0  0
   -0.5320   21.4590  -30.7970 C   0  0  0  0  0  0  0  0  0  0  0  0
   -0.4080   20.2650  -30.0270 O   0  0  0  0  0  0  0  0  0  0  0  0
   -1.1200   20.0470  -28.8420 C   0  0  0  0  0  0  0  0  0  0  0  0
   -0.7560   18.9760  -28.0170 C   0  0  0  0  0  0  0  0  0  0  0  0
   -1.4690   18.7160  -26.8450 C   0  0  0  0  0  0  0  0  0  0  0  0
   -2.5580   19.5180  -26.5020 C   0  0  0  0  0  0  0  0  0  0  0  0
   -2.9350   20.5840  -27.3230 C   0  0  0  0  0  0  0  0  0  0  0  0
   -2.2090   20.8770  -28.4960 C   0  0  0  0  0  0  0  0  0  0  0  0
   -5.2700   22.3100  -31.7800 C   0  0  0  0  0  0  0  0  0  0  0  0
   -5.0390   20.8030  -31.5390 C   0  0  0  0  0  0  0  0  0  0  0  0
   -6.0600   18.5570  -33.8950 C   0  0  0  0  0  0  0  0  0  0  0  0
   -5.8980   17.2920  -34.4690 C   0  0  0  0  0  0  0  0  0  0  0  0
   -5.4221   14.0575  -33.4825 H   0  0  0  0  0  0  0  0  0  0  0  0
   -6.4094   14.5512  -34.8996 H   0  0  0  0  0  0  0  0  0  0  0  0
   -4.6351   14.8315  -34.8996 H   0  0  0  0  0  0  0  0  0  0  0  0
   -5.6059   15.4265  -31.6202 H   0  0  0  0  0  0  0  0  0  0  0  0
   -5.9004   17.6764  -30.5931 H   0  0  0  0  0  0  0  0  0  0  0  0
   -8.2341   20.4714  -32.3229 H   0  0  0  0  0  0  0  0  0  0  0  0
   -7.9192   19.7260  -30.7065 H   0  0  0  0  0  0  0  0  0  0  0  0
   -8.5146   22.2346  -30.7215 H   0  0  0  0  0  0  0  0  0  0  0  0
   -7.0408   21.7665  -29.8220 H   0  0  0  0  0  0  0  0  0  0  0  0
   -6.4906   24.7109  -32.2856 H   0  0  0  0  0  0  0  0  0  0  0  0
   -7.9687   24.3018  -31.2831 H   0  0  0  0  0  0  0  0  0  0  0  0
   -6.9416   25.1275  -29.4925 H   0  0  0  0  0  0  0  0  0  0  0  0
   -5.7183   23.8083  -29.6398 H   0  0  0  0  0  0  0  0  0  0  0  0
   -5.3378   26.1329  -31.4782 H   0  0  0  0  0  0  0  0  0  0  0  0
   -5.1060   26.4727  -29.7221 H   0  0  0  0  0  0  0  0  0  0  0  0
   -3.7398   22.9662  -27.9426 H   0  0  0  0  0  0  0  0  0  0  0  0
   -4.5327   22.7190  -29.5500 H   0  0  0  0  0  0  0  0  0  0  0  0
   -0.3440   21.2268  -31.8556 H   0  0  0  0  0  0  0  0  0  0  0  0
    0.2007   22.1931  -30.4305 H   0  0  0  0  0  0  0  0  0  0  0  0
    0.0954   18.3366  -28.2933 H   0  0  0  0  0  0  0  0  0  0  0  0
   -1.1728   17.8807  -26.1935 H   0  0  0  0  0  0  0  0  0  0  0  0
   -3.1224   19.3101  -25.5810 H   0  0  0  0  0  0  0  0  0  0  0  0
   -3.8053   21.1998  -27.0521 H   0  0  0  0  0  0  0  0  0  0  0  0
   -4.9012   22.5634  -32.7849 H   0  0  0  0  0  0  0  0  0  0  0  0
   -4.7291   22.8527  -30.9908 H   0  0  0  0  0  0  0  0  0  0  0  0
   -4.1841   20.4704  -32.1461 H   0  0  0  0  0  0  0  0  0  0  0  0
   -4.8403   20.6503  -30.4679 H   0  0  0  0  0  0  0  0  0  0  0  0
   -6.1842   19.4387  -34.5409 H   0  0  0  0  0  0  0  0  0  0  0  0
   -5.8835   17.1864  -35.5638 H   0  0  0  0  0  0  0  0  0  0  0  0
  1  2  1  0
  2  3  2  0
  3  4  1  0
  4  5  2  0
  5  6  1  0
  6  7  1  0
  7  8  1  0
  8  9  1  0
  9 10  1  0
 10 11  1  0
 11 12  1  0
 12 13  1  0
 13 14  1  0
 14 15  2  0
 14 16  1  0
 16 17  1  0
 17 18  1  0
 18 19  2  0
 18 20  1  0
 20 21  1  0
 21 22  1  0
 22 23  2  0
 23 24  1  0
 24 25  2  0
 25 26  1  0
 26 27  2  0
  9 28  1  0
 28 29  1  0
  5 30  1  0
 30 31  2  0
 31  2  1  0
 29  6  1  0
 27 17  1  0
 27 22  1  0
  1 32  1  0
  1 33  1  0
  1 34  1  0
  3 35  1  0
  4 36  1  0
  7 37  1  0
  7 38  1  0
  8 39  1  0
  8 40  1  0
 10 41  1  0
 10 42  1  0
 11 43  1  0
 11 44  1  0
 12 45  1  0
 12 46  1  0
 16 47  1  0
 16 48  1  0
 20 49  1  0
 20 50  1  0
 23 51  1  0
 24 52  1  0
 25 53  1  0
 26 54  1  0
 28 55  1  0
 28 56  1  0
 29 57  1  0
 29 58  1  0
 30 59  1  0
 31 60  1  0
M  CHG  1  13  -1
M  END
>  <UniqueID>  (28) 
26

>  <SMILES>  (28) 
Cc1ccc(N2CCN(CCC[N-]C(=O)CN3C(=O)COc4ccccc43)CC2)cc1

>  <Energy>  (28) 
75.38113020310476

>  <Genealogy>  (28) 
Cc1ccc(N2CCN(CCC[N-]C(=O)CN3C(=O)COc4ccccc43)CC2)cc1 (protonated)
Cc1ccc(N2CCN(CCC[N-]C(=O)CN3C(=O)COc4ccccc43)CC2)cc1 (3D coordinates assigned)
Cc1ccc(N2CCN(CCC[N-]C(=O)CN3C(=O)COc4ccccc43)CC2)cc1 (nonaromatic ring conformer: 75.38113020310476 kcal/mol)

>  <smiles>  (28) 
Cc1ccc(N2CCN(CCCNC(=O)CN3C(=O)COc4ccccc43)CC2)cc1

>  <score_type>  (28) 
oracle

>  <origin>  (28) 
adg

>  <m_score__min__energy>  (28) 
-11.609999999999999

>  <m_primary>  (28) 
energy

$$$$
28:0
     RDKit          3D

 48 49  0  0  0  0  0  0  0  0999 V2000
   -1.6580   25.5920  -26.5780 C   0  0  0  0  0  0  0  0  0  0  0  0
   -0.9030   26.0690  -27.8140 C   0  0  0  0  0  0  0  0  0  0  0  0
   -1.5630   25.5980  -29.0270 N   0  0  0  0  0  0  0  0  0  0  0  0
   -1.8680   24.2330  -29.3380 C   0  0  0  0  0  0  0  0  0  0  0  0
   -0.9380   23.3830  -29.3030 O   0  0  0  0  0  0  0  0  0  0  0  0
   -3.2750   23.7680  -29.6110 C   0  0  0  0  0  0  0  0  0  0  0  0
   -3.8140   24.4250  -30.7560 O   0  0  0  0  0  0  0  0  0  0  0  0
   -5.1850   24.6490  -30.9400 C   0  0  0  0  0  0  0  0  0  0  0  0
   -5.6560   25.8150  -30.8250 O   0  0  0  0  0  0  0  0  0  0  0  0
   -6.0770   23.5160  -31.2720 C   0  0  0  0  0  0  0  0  0  0  0  0
   -7.4620   23.6150  -31.0770 C   0  0  0  0  0  0  0  0  0  0  0  0
   -8.2980   22.5450  -31.3940 C   0  0  0  0  0  0  0  0  0  0  0  0
   -7.7730   21.3590  -31.9190 C   0  0  0  0  0  0  0  0  0  0  0  0
   -9.0330   19.9590  -32.2860 Br  0  0  0  0  0  0  0  0  0  0  0  0
   -6.3780   21.2450  -32.1330 C   0  0  0  0  0  0  0  0  0  0  0  0
   -5.6060   19.7930  -32.8130 S   0  0  0  0  0  0  0  0  0  0  0  0
   -5.9360   19.6380  -34.2710 O   0  0  0  0  0  0  0  0  0  0  0  0
   -6.1580   18.5870  -32.1030 O   0  0  0  0  0  0  0  0  0  0  0  0
   -3.8680   19.8230  -32.6060 N   0  0  0  0  0  0  0  0  0  0  0  0
   -3.2590   18.5210  -32.9360 C   0  0  0  0  0  0  0  0  0  0  0  0
   -2.0930   18.7400  -33.9050 C   0  0  0  0  0  0  0  0  0  0  0  0
   -0.8270   19.2700  -33.2250 C   0  0  0  0  0  0  0  0  0  0  0  0
   -0.7010   20.8020  -33.2710 C   0  0  0  0  0  0  0  0  0  0  0  0
   -1.9820   21.5020  -32.7890 C   0  0  0  0  0  0  0  0  0  0  0  0
   -3.2900   20.9360  -33.3840 C   0  0  0  0  0  0  0  0  0  0  0  0
   -5.5470   22.3260  -31.7950 C   0  0  0  0  0  0  0  0  0  0  0  0
   -1.1289   25.9263  -25.6734 H   0  0  0  0  0  0  0  0  0  0  0  0
   -2.6746   26.0121  -26.5845 H   0  0  0  0  0  0  0  0  0  0  0  0
   -1.7152   24.4935  -26.5845 H   0  0  0  0  0  0  0  0  0  0  0  0
   -0.8757   27.1686  -27.8200 H   0  0  0  0  0  0  0  0  0  0  0  0
    0.1199   25.6654  -27.7849 H   0  0  0  0  0  0  0  0  0  0  0  0
   -3.2676   22.6825  -29.7886 H   0  0  0  0  0  0  0  0  0  0  0  0
   -3.9009   24.0100  -28.7394 H   0  0  0  0  0  0  0  0  0  0  0  0
   -7.8918   24.5427  -30.6713 H   0  0  0  0  0  0  0  0  0  0  0  0
   -9.3820   22.6342  -31.2296 H   0  0  0  0  0  0  0  0  0  0  0  0
   -2.8883   18.0448  -32.0163 H   0  0  0  0  0  0  0  0  0  0  0  0
   -4.0114   17.8700  -33.4051 H   0  0  0  0  0  0  0  0  0  0  0  0
   -1.8544   17.7798  -34.3858 H   0  0  0  0  0  0  0  0  0  0  0  0
   -2.4137   19.5011  -34.6316 H   0  0  0  0  0  0  0  0  0  0  0  0
   -0.8390   18.9532  -32.1717 H   0  0  0  0  0  0  0  0  0  0  0  0
    0.0320   18.8582  -33.7750 H   0  0  0  0  0  0  0  0  0  0  0  0
    0.1352   21.1087  -32.6255 H   0  0  0  0  0  0  0  0  0  0  0  0
   -0.5268   21.0965  -34.3164 H   0  0  0  0  0  0  0  0  0  0  0  0
   -2.0338   21.4059  -31.6944 H   0  0  0  0  0  0  0  0  0  0  0  0
   -1.9123   22.5458  -33.1291 H   0  0  0  0  0  0  0  0  0  0  0  0
   -4.0302   21.7484  -33.4288 H   0  0  0  0  0  0  0  0  0  0  0  0
   -3.0418   20.5358  -34.3781 H   0  0  0  0  0  0  0  0  0  0  0  0
   -4.4605   22.2383  -31.9429 H   0  0  0  0  0  0  0  0  0  0  0  0
  1  2  1  0
  2  3  1  0
  3  4  1  0
  4  5  2  0
  4  6  1  0
  6  7  1  0
  7  8  1  0
  8  9  2  0
  8 10  1  0
 10 11  2  0
 11 12  1  0
 12 13  2  0
 13 14  1  0
 13 15  1  0
 15 16  1  0
 16 17  2  0
 16 18  2  0
 16 19  1  0
 19 20  1  0
 20 21  1  0
 21 22  1  0
 22 23  1  0
 23 24  1  0
 24 25  1  0
 15 26  2  0
 26 10  1  0
 25 19  1  0
  1 27  1  0
  1 28  1  0
  1 29  1  0
  2 30  1  0
  2 31  1  0
  6 32  1  0
  6 33  1  0
 11 34  1  0
 12 35  1  0
 20 36  1  0
 20 37  1  0
 21 38  1  0
 21 39  1  0
 22 40  1  0
 22 41  1  0
 23 42  1  0
 23 43  1  0
 24 44  1  0
 24 45  1  0
 25 46  1  0
 25 47  1  0
 26 48  1  0
M  CHG  1   3  -1
M  END
>  <UniqueID>  (29) 
27

>  <SMILES>  (29) 
CC[N-]C(=O)COC(=O)c1ccc(Br)c(S(=O)(=O)N2CCCCCC2)c1

>  <Energy>  (29) 
47.443760029691646

>  <Genealogy>  (29) 
CC[N-]C(=O)COC(=O)c1ccc(Br)c(S(=O)(=O)N2CCCCCC2)c1 (protonated)
CC[N-]C(=O)COC(=O)c1ccc(Br)c(S(=O)(=O)N2CCCCCC2)c1 (3D coordinates assigned)
CC[N-]C(=O)COC(=O)c1ccc(Br)c(S(=O)(=O)N2CCCCCC2)c1 (nonaromatic ring conformer: 47.443760029691646 kcal/mol)

>  <smiles>  (29) 
CCNC(=O)COC(=O)c1ccc(Br)c(S(=O)(=O)N2CCCCCC2)c1

>  <score_type>  (29) 
oracle

>  <origin>  (29) 
adg

>  <m_score__min__energy>  (29) 
-8.8699999999999992

>  <m_primary>  (29) 
energy

$$$$
29:0
     RDKit          3D

 45 49  0  0  0  0  0  0  0  0999 V2000
   -2.5880   24.5830  -29.3360 C   0  0  0  0  0  0  0  0  0  0  0  0
   -3.4710   24.7300  -30.4440 O   0  0  0  0  0  0  0  0  0  0  0  0
   -4.3540   23.7360  -30.8970 C   0  0  0  0  0  0  0  0  0  0  0  0
   -3.9020   22.4670  -31.3010 C   0  0  0  0  0  0  0  0  0  0  0  0
   -4.8050   21.5000  -31.7470 C   0  0  0  0  0  0  0  0  0  0  0  0
   -4.3360   20.2780  -32.1310 N   0  0  0  0  0  0  0  0  0  0  0  0
   -5.2060   19.3370  -32.5640 C   0  0  0  0  0  0  0  0  0  0  0  0
   -6.5580   19.5520  -32.6370 C   0  0  0  0  0  0  0  0  0  0  0  0
   -7.1050   20.7860  -32.2560 C   0  0  0  0  0  0  0  0  0  0  0  0
   -8.5920   21.0210  -32.3370 C   0  0  0  0  0  0  0  0  0  0  0  0
   -6.2010   21.7900  -31.7980 C   0  0  0  0  0  0  0  0  0  0  0  0
   -6.6400   23.0650  -31.3900 C   0  0  0  0  0  0  0  0  0  0  0  0
   -5.7230   24.0360  -30.9420 C   0  0  0  0  0  0  0  0  0  0  0  0
   -6.1350   25.3140  -30.5300 O   0  0  0  0  0  0  0  0  0  0  0  0
   -6.4390   25.6730  -29.1870 C   0  0  0  0  0  0  0  0  0  0  0  0
   -7.2290   18.3070  -33.1570 C   0  0  0  0  0  0  0  0  0  0  0  0
   -6.0970   17.3940  -33.3560 N   0  0  0  0  0  0  0  0  0  0  0  0
   -4.9380   17.9960  -33.0130 C   0  0  0  0  0  0  0  0  0  0  0  0
   -3.7160   17.3400  -33.1120 C   0  0  0  0  0  0  0  0  0  0  0  0
   -3.7130   16.0160  -33.5850 C   0  0  0  0  0  0  0  0  0  0  0  0
   -2.5080   15.3090  -33.7050 C   0  0  0  0  0  0  0  0  0  0  0  0
   -2.5090   13.9930  -34.1750 C   0  0  0  0  0  0  0  0  0  0  0  0
   -3.7100   13.3730  -34.5290 C   0  0  0  0  0  0  0  0  0  0  0  0
   -4.9200   14.0630  -34.4170 C   0  0  0  0  0  0  0  0  0  0  0  0
   -4.9390   15.3880  -33.9450 C   0  0  0  0  0  0  0  0  0  0  0  0
   -6.1450   16.1140  -33.8190 C   0  0  0  0  0  0  0  0  0  0  0  0
   -7.2530   15.5950  -34.1280 O   0  0  0  0  0  0  0  0  0  0  0  0
   -3.1565   24.6776  -28.3990 H   0  0  0  0  0  0  0  0  0  0  0  0
   -2.1103   23.5930  -29.3767 H   0  0  0  0  0  0  0  0  0  0  0  0
   -1.8153   25.3649  -29.3767 H   0  0  0  0  0  0  0  0  0  0  0  0
   -2.8275   22.2342  -31.2653 H   0  0  0  0  0  0  0  0  0  0  0  0
   -9.0087   21.0869  -31.3211 H   0  0  0  0  0  0  0  0  0  0  0  0
   -8.7859   21.9609  -32.8745 H   0  0  0  0  0  0  0  0  0  0  0  0
   -9.0663   20.1867  -32.8745 H   0  0  0  0  0  0  0  0  0  0  0  0
   -7.7129   23.3055  -31.4217 H   0  0  0  0  0  0  0  0  0  0  0  0
   -5.8848   25.0185  -28.4981 H   0  0  0  0  0  0  0  0  0  0  0  0
   -6.1482   26.7194  -29.0124 H   0  0  0  0  0  0  0  0  0  0  0  0
   -7.5190   25.5586  -29.0124 H   0  0  0  0  0  0  0  0  0  0  0  0
   -7.9409   17.9029  -32.4222 H   0  0  0  0  0  0  0  0  0  0  0  0
   -7.8205   18.4765  -34.0688 H   0  0  0  0  0  0  0  0  0  0  0  0
   -2.7792   17.8421  -32.8286 H   0  0  0  0  0  0  0  0  0  0  0  0
   -1.5591   15.7917  -33.4283 H   0  0  0  0  0  0  0  0  0  0  0  0
   -1.5607   13.4432  -34.2666 H   0  0  0  0  0  0  0  0  0  0  0  0
   -3.7030   12.3366  -34.8977 H   0  0  0  0  0  0  0  0  0  0  0  0
   -5.8611   13.5682  -34.6990 H   0  0  0  0  0  0  0  0  0  0  0  0
  1  2  1  0
  2  3  1  0
  3  4  2  0
  4  5  1  0
  5  6  2  0
  6  7  1  0
  7  8  2  0
  8  9  1  0
  9 10  1  0
  9 11  2  0
 11 12  1  0
 12 13  2  0
 13 14  1  0
 14 15  1  0
  8 16  1  0
 16 17  1  0
 17 18  1  0
 18 19  2  0
 19 20  1  0
 20 21  2  0
 21 22  1  0
 22 23  2  0
 23 24  1  0
 24 25  2  0
 25 26  1  0
 26 27  2  0
 13  3  1  0
 26 17  1  0
 11  5  1  0
 25 20  1  0
 18  7  1  0
  1 28  1  0
  1 29  1  0
  1 30  1  0
  4 31  1  0
 10 32  1  0
 10 33  1  0
 10 34  1  0
 12 35  1  0
 15 36  1  0
 15 37  1  0
 15 38  1  0
 16 39  1  0
 16 40  1  0
 19 41  1  0
 21 42  1  0
 22 43  1  0
 23 44  1  0
 24 45  1  0
M  END
>  <UniqueID>  (30) 
28

>  <SMILES>  (30) 
COc1cc2nc3c(c(C)c2cc1OC)Cn1c-3cc2ccccc2c1=O

>  <Energy>  (30) 
85.36556119912457

>  <Genealogy>  (30) 
COc1cc2nc3c(c(C)c2cc1OC)Cn1c-3cc2ccccc2c1=O (3D coordinates assigned)
COc1cc2nc3c(c(C)c2cc1OC)Cn1c-3cc2ccccc2c1=O (nonaromatic ring conformer: 85.36556119912457 kcal/mol)

>  <smiles>  (30) 
COc1cc2nc3c(c(C)c2cc1OC)Cn1c-3cc2ccccc2c1=O

>  <score_type>  (30) 
oracle

>  <origin>  (30) 
adg

>  <m_score__min__energy>  (30) 
-8.5

>  <m_primary>  (30) 
energy

$$$$
30:0
     RDKit          3D

 50 52  0  0  0  0  0  0  0  0999 V2000
   -2.2170   25.3000  -26.1780 C   0  0  0  0  0  0  0  0  0  0  0  0
   -1.7760   24.2480  -27.1890 C   0  0  0  0  0  0  0  0  0  0  0  0
   -2.8800   23.2780  -27.4140 N   0  0  0  0  0  0  0  0  0  0  0  0
   -3.7230   23.6640  -28.5680 C   0  0  0  0  0  0  0  0  0  0  0  0
   -2.9470   24.5750  -29.5260 C   0  0  0  0  0  0  0  0  0  0  0  0
   -3.8550   25.2120  -30.4720 N   0  0  0  0  0  0  0  0  0  0  0  0
   -5.2440   24.8800  -30.5830 C   0  0  0  0  0  0  0  0  0  0  0  0
   -5.9740   24.8310  -29.5560 O   0  0  0  0  0  0  0  0  0  0  0  0
   -5.8200   24.5410  -31.9210 C   0  0  0  0  0  0  0  0  0  0  0  0
   -6.4670   23.2200  -31.8750 N   0  0  0  0  0  0  0  0  0  0  0  0
   -7.6900   23.1020  -31.2760 C   0  0  0  0  0  0  0  0  0  0  0  0
   -8.3080   21.8970  -31.1920 N   0  0  0  0  0  0  0  0  0  0  0  0
   -7.7320   20.7760  -31.6910 C   0  0  0  0  0  0  0  0  0  0  0  0
   -8.3930   19.5460  -31.5960 C   0  0  0  0  0  0  0  0  0  0  0  0
   -7.7990   18.3890  -32.1070 C   0  0  0  0  0  0  0  0  0  0  0  0
   -6.5420   18.4560  -32.7150 C   0  0  0  0  0  0  0  0  0  0  0  0
   -5.8740   19.6810  -32.8150 C   0  0  0  0  0  0  0  0  0  0  0  0
   -6.4660   20.8520  -32.3050 C   0  0  0  0  0  0  0  0  0  0  0  0
   -5.8400   22.1090  -32.3800 C   0  0  0  0  0  0  0  0  0  0  0  0
   -4.6980   22.2110  -32.9130 O   0  0  0  0  0  0  0  0  0  0  0  0
   -2.3710   21.8990  -27.5820 C   0  0  0  0  0  0  0  0  0  0  0  0
   -2.1810   21.5750  -29.0420 C   0  0  0  0  0  0  0  0  0  0  0  0
   -1.0360   22.0290  -29.7170 C   0  0  0  0  0  0  0  0  0  0  0  0
   -0.8660   21.7590  -31.0790 C   0  0  0  0  0  0  0  0  0  0  0  0
   -1.8400   21.0360  -31.7770 C   0  0  0  0  0  0  0  0  0  0  0  0
   -1.6100   20.6730  -33.6370 Br  0  0  0  0  0  0  0  0  0  0  0  0
   -2.9830   20.5820  -31.1100 C   0  0  0  0  0  0  0  0  0  0  0  0
   -3.1540   20.8490  -29.7490 C   0  0  0  0  0  0  0  0  0  0  0  0
   -2.0571   24.9187  -25.1587 H   0  0  0  0  0  0  0  0  0  0  0  0
   -1.6277   26.2175  -26.3229 H   0  0  0  0  0  0  0  0  0  0  0  0
   -3.2844   25.5230  -26.3229 H   0  0  0  0  0  0  0  0  0  0  0  0
   -1.5204   24.7386  -28.1398 H   0  0  0  0  0  0  0  0  0  0  0  0
   -0.8954   23.7152  -26.8009 H   0  0  0  0  0  0  0  0  0  0  0  0
   -4.0356   22.7570  -29.1061 H   0  0  0  0  0  0  0  0  0  0  0  0
   -4.6027   24.2097  -28.1961 H   0  0  0  0  0  0  0  0  0  0  0  0
   -2.4261   25.3508  -28.9457 H   0  0  0  0  0  0  0  0  0  0  0  0
   -2.2199   23.9672  -30.0846 H   0  0  0  0  0  0  0  0  0  0  0  0
   -6.5649   25.3011  -32.1992 H   0  0  0  0  0  0  0  0  0  0  0  0
   -5.0105   24.5189  -32.6655 H   0  0  0  0  0  0  0  0  0  0  0  0
   -8.1787   23.9941  -30.8573 H   0  0  0  0  0  0  0  0  0  0  0  0
   -9.3822   19.4900  -31.1181 H   0  0  0  0  0  0  0  0  0  0  0  0
   -8.3213   17.4239  -32.0307 H   0  0  0  0  0  0  0  0  0  0  0  0
   -6.0770   17.5432  -33.1158 H   0  0  0  0  0  0  0  0  0  0  0  0
   -4.8844   19.7294  -33.2930 H   0  0  0  0  0  0  0  0  0  0  0  0
   -1.4059   21.8046  -27.0627 H   0  0  0  0  0  0  0  0  0  0  0  0
   -3.1037   21.1974  -27.1566 H   0  0  0  0  0  0  0  0  0  0  0  0
   -0.2694   22.5995  -29.1721 H   0  0  0  0  0  0  0  0  0  0  0  0
    0.0339   22.1152  -31.6018 H   0  0  0  0  0  0  0  0  0  0  0  0
   -3.7488   20.0136  -31.6581 H   0  0  0  0  0  0  0  0  0  0  0  0
   -4.0542   20.4892  -29.2291 H   0  0  0  0  0  0  0  0  0  0  0  0
  1  2  1  0
  2  3  1  0
  3  4  1  0
  4  5  1  0
  5  6  1  0
  6  7  1  0
  7  8  2  0
  7  9  1  0
  9 10  1  0
 10 11  1  0
 11 12  2  0
 12 13  1  0
 13 14  2  0
 14 15  1  0
 15 16  2  0
 16 17  1  0
 17 18  2  0
 18 19  1  0
 19 20  2  0
  3 21  1  0
 21 22  1  0
 22 23  2  0
 23 24  1  0
 24 25  2  0
 25 26  1  0
 25 27  1  0
 27 28  2  0
 19 10  1  0
 28 22  1  0
 18 13  1  0
  1 29  1  0
  1 30  1  0
  1 31  1  0
  2 32  1  0
  2 33  1  0
  4 34  1  0
  4 35  1  0
  5 36  1  0
  5 37  1  0
  9 38  1  0
  9 39  1  0
 11 40  1  0
 14 41  1  0
 15 42  1  0
 16 43  1  0
 17 44  1  0
 21 45  1  0
 21 46  1  0
 23 47  1  0
 24 48  1  0
 27 49  1  0
 28 50  1  0
M  CHG  1   6  -1
M  END
>  <UniqueID>  (31) 
29

>  <SMILES>  (31) 
CCN(CC[N-]C(=O)Cn1cnc2ccccc2c1=O)Cc1ccc(Br)cc1

>  <Energy>  (31) 
54.44021937698153

>  <Genealogy>  (31) 
CCN(CC[N-]C(=O)Cn1cnc2ccccc2c1=O)Cc1ccc(Br)cc1 (protonated)
CCN(CC[N-]C(=O)Cn1cnc2ccccc2c1=O)Cc1ccc(Br)cc1 (3D coordinates assigned)
CCN(CC[N-]C(=O)Cn1cnc2ccccc2c1=O)Cc1ccc(Br)cc1 (optimized conformer: 54.44021937698153 kcal/mol)

>  <smiles>  (31) 
CCN(CCNC(=O)Cn1cnc2ccccc2c1=O)Cc1ccc(Br)cc1

>  <score_type>  (31) 
oracle

>  <origin>  (31) 
adg

>  <m_score__min__energy>  (31) 
-10.359999999999999

>  <m_primary>  (31) 
energy

$$$$
31:0
     RDKit          3D

 44 46  0  0  0  0  0  0  0  0999 V2000
   -0.9160   21.3920  -33.1110 C   0  0  0  0  0  0  0  0  0  0  0  0
   -2.1410   20.7250  -33.5910 N   0  0  0  0  0  0  0  0  0  0  0  0
   -1.7650   19.6100  -34.4820 C   0  0  0  0  0  0  0  0  0  0  0  0
   -2.9790   20.2430  -32.4520 C   0  0  0  0  0  0  0  0  0  0  0  0
   -4.1420   21.2020  -32.0770 C   0  0  1  0  0  0  0  0  0  0  0  0
   -5.3730   20.4390  -31.5100 C   0  0  0  0  0  0  0  0  0  0  0  0
   -6.6710   21.1220  -31.7590 N   0  0  0  0  0  0  0  0  0  0  0  0
   -7.5540   20.3090  -32.6250 C   0  0  0  0  0  0  0  0  0  0  0  0
   -6.8450   19.0750  -33.0960 C   0  0  0  0  0  0  0  0  0  0  0  0
   -6.1040   18.9540  -34.2640 C   0  0  0  0  0  0  0  0  0  0  0  0
   -5.6010   17.6630  -34.4640 C   0  0  0  0  0  0  0  0  0  0  0  0
   -5.9490   16.7670  -33.4620 C   0  0  0  0  0  0  0  0  0  0  0  0
   -6.8870   17.5810  -32.3270 S   0  0  0  0  0  0  0  0  0  0  0  0
   -6.5530   22.5090  -32.2760 C   0  0  0  0  0  0  0  0  0  0  0  0
   -5.9510   23.4380  -31.2660 C   0  0  0  0  0  0  0  0  0  0  0  0
   -6.5960   24.5100  -30.6810 C   0  0  0  0  0  0  0  0  0  0  0  0
   -5.6860   25.0830  -29.8160 C   0  0  0  0  0  0  0  0  0  0  0  0
   -4.5280   24.3370  -29.9060 C   0  0  0  0  0  0  0  0  0  0  0  0
   -4.6960   23.3250  -30.7800 N   0  0  0  0  0  0  0  0  0  0  0  0
   -3.6520   22.3630  -31.1580 C   0  0  0  0  0  0  0  0  0  0  0  0
   -0.9079   21.3964  -32.0110 H   0  0  0  0  0  0  0  0  0  0  0  0
   -0.0338   20.8497  -33.4820 H   0  0  0  0  0  0  0  0  0  0  0  0
   -0.8928   22.4273  -33.4820 H   0  0  0  0  0  0  0  0  0  0  0  0
   -2.6630   21.4230  -34.1720 H   0  0  0  0  0  0  0  0  0  0  0  0
   -1.4715   18.7398  -33.8765 H   0  0  0  0  0  0  0  0  0  0  0  0
   -2.6227   19.3426  -35.1167 H   0  0  0  0  0  0  0  0  0  0  0  0
   -0.9206   19.9166  -35.1167 H   0  0  0  0  0  0  0  0  0  0  0  0
   -3.4085   19.2681  -32.7261 H   0  0  0  0  0  0  0  0  0  0  0  0
   -2.3196   20.1817  -31.5737 H   0  0  0  0  0  0  0  0  0  0  0  0
   -4.4955   21.6755  -33.0048 H   0  0  0  0  0  0  0  0  0  0  0  0
   -5.4096   19.4440  -31.9776 H   0  0  0  0  0  0  0  0  0  0  0  0
   -5.2427   20.3875  -30.4190 H   0  0  0  0  0  0  0  0  0  0  0  0
   -8.4483   20.0163  -32.0553 H   0  0  0  0  0  0  0  0  0  0  0  0
   -7.8391   20.9091  -33.5017 H   0  0  0  0  0  0  0  0  0  0  0  0
   -5.9300   19.7872  -34.9608 H   0  0  0  0  0  0  0  0  0  0  0  0
   -4.9875   17.3845  -35.3335 H   0  0  0  0  0  0  0  0  0  0  0  0
   -5.6607   15.7064  -33.4178 H   0  0  0  0  0  0  0  0  0  0  0  0
   -5.9167   22.5001  -33.1733 H   0  0  0  0  0  0  0  0  0  0  0  0
   -7.5654   22.8712  -32.5081 H   0  0  0  0  0  0  0  0  0  0  0  0
   -7.6284   24.8409  -30.8672 H   0  0  0  0  0  0  0  0  0  0  0  0
   -5.8514   25.9638  -29.1782 H   0  0  0  0  0  0  0  0  0  0  0  0
   -3.6030   24.5391  -29.3460 H   0  0  0  0  0  0  0  0  0  0  0  0
   -2.8580   22.9090  -31.6886 H   0  0  0  0  0  0  0  0  0  0  0  0
   -3.3046   21.8966  -30.2243 H   0  0  0  0  0  0  0  0  0  0  0  0
  1  2  1  0
  2  3  1  0
  2  4  1  0
  4  5  1  0
  5  6  1  0
  6  7  1  0
  7  8  1  0
  8  9  1  0
  9 10  2  0
 10 11  1  0
 11 12  2  0
 12 13  1  0
  7 14  1  0
 14 15  1  0
 15 16  2  0
 16 17  1  0
 17 18  2  0
 18 19  1  0
 19 20  1  0
 20  5  1  0
 13  9  1  0
 19 15  1  0
  1 21  1  0
  1 22  1  0
  1 23  1  0
  2 24  1  0
  3 25  1  0
  3 26  1  0
  3 27  1  0
  4 28  1  0
  4 29  1  0
  5 30  1  6
  6 31  1  0
  6 32  1  0
  8 33  1  0
  8 34  1  0
 10 35  1  0
 11 36  1  0
 12 37  1  0
 14 38  1  0
 14 39  1  0
 16 40  1  0
 17 41  1  0
 18 42  1  0
 20 43  1  0
 20 44  1  0
M  CHG  1   2   1
M  END
>  <UniqueID>  (32) 
30

>  <SMILES>  (32) 
C[NH+](C)C[C@H]1CN(Cc2cccs2)Cc2cccn2C1

>  <Energy>  (32) 
113.37763205124082

>  <Genealogy>  (32) 
C[NH+](C)CC1CN(Cc2cccs2)Cc2cccn2C1 (protonated)
C[NH+](C)C[C@H]1CN(Cc2cccs2)Cc2cccn2C1 (chirality)
C[NH+](C)C[C@H]1CN(Cc2cccs2)Cc2cccn2C1 (3D coordinates assigned)
C[NH+](C)C[C@H]1CN(Cc2cccs2)Cc2cccn2C1 (nonaromatic ring conformer: 113.37763205124082 kcal/mol)

>  <smiles>  (32) 
CN(C)CC1CN(Cc2cccs2)Cc2cccn2C1

>  <score_type>  (32) 
oracle

>  <origin>  (32) 
adg

>  <m_score__min__energy>  (32) 
-4.7300000000000004

>  <m_primary>  (32) 
energy

$$$$
32:0
     RDKit          3D

 53 57  0  0  0  0  0  0  0  0999 V2000
   -5.9820   19.2810  -33.2910 C   0  0  0  0  0  0  0  0  0  0  0  0
   -4.6480   18.9020  -32.9620 O   0  0  0  0  0  0  0  0  0  0  0  0
   -3.8280   18.0940  -33.7660 C   0  0  0  0  0  0  0  0  0  0  0  0
   -4.3590   17.1040  -34.6180 C   0  0  0  0  0  0  0  0  0  0  0  0
   -3.5100   16.3080  -35.3920 C   0  0  0  0  0  0  0  0  0  0  0  0
   -2.1280   16.4850  -35.3240 C   0  0  0  0  0  0  0  0  0  0  0  0
   -1.5900   17.4600  -34.4820 C   0  0  0  0  0  0  0  0  0  0  0  0
   -2.4330   18.2710  -33.7060 C   0  0  0  0  0  0  0  0  0  0  0  0
   -1.8630   19.2660  -32.8440 N   0  0  0  0  0  0  0  0  0  0  0  0
   -1.8270   20.6670  -33.2930 C   0  0  0  0  0  0  0  0  0  0  0  0
   -0.8880   21.5100  -32.4230 C   0  0  0  0  0  0  0  0  0  0  0  0
   -1.1480   21.2470  -31.0030 N   0  0  0  0  0  0  0  0  0  0  0  0
   -1.0490   22.3270  -30.0670 C   0  0  0  0  0  0  0  0  0  0  0  0
    0.0000   23.0230  -30.0250 O   0  0  0  0  0  0  0  0  0  0  0  0
   -2.2300   22.7190  -29.2350 C   0  0  0  0  0  0  0  0  0  0  0  0
   -3.3980   22.8760  -30.1010 N   0  0  0  0  0  0  0  0  0  0  0  0
   -3.9110   24.0490  -30.5370 C   0  0  0  0  0  0  0  0  0  0  0  0
   -3.4890   25.2990  -30.1030 O   0  0  0  0  0  0  0  0  0  0  0  0
   -4.9700   23.8230  -31.3920 C   0  0  0  0  0  0  0  0  0  0  0  0
   -5.1470   22.4630  -31.4430 C   0  0  0  0  0  0  0  0  0  0  0  0
   -4.1920   21.9050  -30.6180 C   0  0  0  0  0  0  0  0  0  0  0  0
   -4.1240   20.5530  -30.3010 O   0  0  0  0  0  0  0  0  0  0  0  0
   -6.6360   22.2290  -31.5060 C   0  0  1  0  0  0  0  0  0  0  0  0
   -7.2150   22.7030  -30.1870 C   0  0  0  0  0  0  0  0  0  0  0  0
   -7.0420   24.0340  -30.1400 C   0  0  0  0  0  0  0  0  0  0  0  0
   -6.3480   24.4380  -31.4260 C   0  0  2  0  0  0  0  0  0  0  0  0
   -7.0210   23.4350  -32.3650 C   0  0  0  0  0  0  0  0  0  0  0  0
   -1.3800   19.8810  -30.5160 C   0  0  0  0  0  0  0  0  0  0  0  0
   -1.1570   18.8520  -31.6280 C   0  0  0  0  0  0  0  0  0  0  0  0
   -6.5555   19.4439  -32.3666 H   0  0  0  0  0  0  0  0  0  0  0  0
   -5.9646   20.2097  -33.8802 H   0  0  0  0  0  0  0  0  0  0  0  0
   -6.4555   18.4818  -33.8802 H   0  0  0  0  0  0  0  0  0  0  0  0
   -5.4477   16.9573  -34.6739 H   0  0  0  0  0  0  0  0  0  0  0  0
   -3.9327   15.5400  -36.0565 H   0  0  0  0  0  0  0  0  0  0  0  0
   -1.4622   15.8565  -35.9337 H   0  0  0  0  0  0  0  0  0  0  0  0
   -0.4995   17.5934  -34.4263 H   0  0  0  0  0  0  0  0  0  0  0  0
   -1.4753   20.6999  -34.3347 H   0  0  0  0  0  0  0  0  0  0  0  0
   -2.8419   21.0830  -33.2099 H   0  0  0  0  0  0  0  0  0  0  0  0
    0.1553   21.2510  -32.6563 H   0  0  0  0  0  0  0  0  0  0  0  0
   -1.0633   22.5759  -32.6307 H   0  0  0  0  0  0  0  0  0  0  0  0
   -2.4289   21.9372  -28.4872 H   0  0  0  0  0  0  0  0  0  0  0  0
   -2.0209   23.6688  -28.7211 H   0  0  0  0  0  0  0  0  0  0  0  0
   -4.2550   19.8300  -30.9960 H   0  0  0  0  0  0  0  0  0  0  0  0
   -6.9239   21.2063  -31.7910 H   0  0  0  0  0  0  0  0  0  0  0  0
   -7.6867   22.0762  -29.4159 H   0  0  0  0  0  0  0  0  0  0  0  0
   -7.3464   24.7045  -29.3228 H   0  0  0  0  0  0  0  0  0  0  0  0
   -6.3604   25.5179  -31.6347 H   0  0  0  0  0  0  0  0  0  0  0  0
   -8.1082   23.5798  -32.4493 H   0  0  0  0  0  0  0  0  0  0  0  0
   -6.7341   23.4360  -33.4269 H   0  0  0  0  0  0  0  0  0  0  0  0
   -0.6855   19.6720  -29.6890 H   0  0  0  0  0  0  0  0  0  0  0  0
   -2.4230   19.8050  -30.1747 H   0  0  0  0  0  0  0  0  0  0  0  0
   -0.0807   18.7733  -31.8408 H   0  0  0  0  0  0  0  0  0  0  0  0
   -1.5451   17.8764  -31.2999 H   0  0  0  0  0  0  0  0  0  0  0  0
  1  2  1  0
  2  3  1  0
  3  4  2  0
  4  5  1  0
  5  6  2  0
  6  7  1  0
  7  8  2  0
  8  9  1  0
  9 10  1  0
 10 11  1  0
 11 12  1  0
 12 13  1  0
 13 14  2  0
 13 15  1  0
 15 16  1  0
 16 17  1  0
 17 18  1  0
 17 19  2  0
 19 20  1  0
 20 21  2  0
 21 22  1  0
 20 23  1  0
 23 24  1  0
 24 25  2  0
 25 26  1  0
 26 27  1  0
 12 28  1  0
 28 29  1  0
  8  3  1  0
 29  9  1  0
 21 16  1  0
 27 23  1  0
 26 19  1  0
  1 30  1  0
  1 31  1  0
  1 32  1  0
  4 33  1  0
  5 34  1  0
  6 35  1  0
  7 36  1  0
 10 37  1  0
 10 38  1  0
 11 39  1  0
 11 40  1  0
 15 41  1  0
 15 42  1  0
 22 43  1  0
 23 44  1  6
 24 45  1  0
 25 46  1  0
 26 47  1  6
 27 48  1  0
 27 49  1  0
 28 50  1  0
 28 51  1  0
 29 52  1  0
 29 53  1  0
M  CHG  1  18  -1
M  END
>  <UniqueID>  (33) 
31

>  <SMILES>  (33) 
COc1ccccc1N1CCN(C(=O)Cn2c([O-])c3c(c2O)[C@H]2C=C[C@@H]3C2)CC1

>  <Energy>  (33) 
171.80457510688737

>  <Genealogy>  (33) 
COc1ccccc1N1CCN(C(=O)Cn2c([O-])c3c(c2O)C2C=CC3C2)CC1 (protonated)
COc1ccccc1N1CCN(C(=O)Cn2c([O-])c3c(c2O)[C@H]2C=C[C@@H]3C2)CC1 (chirality)
COc1ccccc1N1CCN(C(=O)Cn2c([O-])c3c(c2O)[C@H]2C=C[C@@H]3C2)CC1 (3D coordinates assigned)
COc1ccccc1N1CCN(C(=O)Cn2c([O-])c3c(c2O)[C@H]2C=C[C@@H]3C2)CC1 (nonaromatic ring conformer: 171.80457510688737 kcal/mol)

>  <smiles>  (33) 
COc1ccccc1N1CCN(C(=O)Cn2c(O)c3c(c2O)C2C=CC3C2)CC1

>  <score_type>  (33) 
oracle

>  <origin>  (33) 
adg

>  <m_score__min__energy>  (33) 
-11.710000000000001

>  <m_primary>  (33) 
energy

$$$$
33:0
     RDKit          3D

 47 49  0  0  0  0  0  0  0  0999 V2000
   -5.3690   25.6750  -30.6750 C   0  0  0  0  0  0  0  0  0  0  0  0
   -4.0560   25.1310  -30.5890 O   0  0  0  0  0  0  0  0  0  0  0  0
   -3.7230   23.9520  -29.9020 C   0  0  0  0  0  0  0  0  0  0  0  0
   -3.2980   23.9750  -28.5580 C   0  0  0  0  0  0  0  0  0  0  0  0
   -2.9810   22.7860  -27.8970 C   0  0  0  0  0  0  0  0  0  0  0  0
   -3.0850   21.5660  -28.5640 C   0  0  0  0  0  0  0  0  0  0  0  0
   -3.5020   21.5290  -29.8940 C   0  0  0  0  0  0  0  0  0  0  0  0
   -3.8180   22.7160  -30.5760 C   0  0  0  0  0  0  0  0  0  0  0  0
   -4.2440   22.6590  -32.0240 C   0  0  0  0  0  0  0  0  0  0  0  0
   -5.2540   21.6160  -32.2230 N   0  0  0  0  0  0  0  0  0  0  0  0
   -5.0090   20.3320  -32.5760 C   0  0  0  0  0  0  0  0  0  0  0  0
   -6.1970   19.6140  -32.6370 C   0  0  0  0  0  0  0  0  0  0  0  0
   -6.3550   18.1890  -33.0720 C   0  0  0  0  0  0  0  0  0  0  0  0
   -5.7390   17.9930  -34.4310 C   0  0  0  0  0  0  0  0  0  0  0  0
   -6.0570   18.7450  -35.3430 O   0  0  0  0  0  0  0  0  0  0  0  0
   -4.7550   16.9510  -34.6480 N   0  0  0  0  0  0  0  0  0  0  0  0
   -3.4260   17.4030  -34.2110 C   0  0  0  0  0  0  0  0  0  0  0  0
   -5.1510   15.7230  -33.9410 C   0  0  0  0  0  0  0  0  0  0  0  0
   -7.1970   20.5130  -32.3240 C   0  0  0  0  0  0  0  0  0  0  0  0
   -8.5820   20.3560  -32.2640 C   0  0  0  0  0  0  0  0  0  0  0  0
   -9.3570   21.4800  -31.9270 C   0  0  0  0  0  0  0  0  0  0  0  0
   -8.7390   22.7220  -31.6670 C   0  0  0  0  0  0  0  0  0  0  0  0
   -7.3410   22.8530  -31.7430 C   0  0  0  0  0  0  0  0  0  0  0  0
   -6.5920   21.7190  -32.0740 C   0  0  0  0  0  0  0  0  0  0  0  0
   -5.7650   25.8391  -29.6619 H   0  0  0  0  0  0  0  0  0  0  0  0
   -5.3344   26.6329  -31.2147 H   0  0  0  0  0  0  0  0  0  0  0  0
   -6.0220   24.9734  -31.2147 H   0  0  0  0  0  0  0  0  0  0  0  0
   -3.2156   24.9347  -28.0269 H   0  0  0  0  0  0  0  0  0  0  0  0
   -2.6488   22.8122  -26.8487 H   0  0  0  0  0  0  0  0  0  0  0  0
   -2.8376   20.6310  -28.0400 H   0  0  0  0  0  0  0  0  0  0  0  0
   -3.5842   20.5628  -30.4134 H   0  0  0  0  0  0  0  0  0  0  0  0
   -4.6666   23.6319  -32.3152 H   0  0  0  0  0  0  0  0  0  0  0  0
   -3.3656   22.4253  -32.6435 H   0  0  0  0  0  0  0  0  0  0  0  0
   -4.0120   19.9167  -32.7847 H   0  0  0  0  0  0  0  0  0  0  0  0
   -5.8552   17.5296  -32.3472 H   0  0  0  0  0  0  0  0  0  0  0  0
   -7.4262   17.9443  -33.1230 H   0  0  0  0  0  0  0  0  0  0  0  0
   -4.6990   16.7300  -35.6710 H   0  0  0  0  0  0  0  0  0  0  0  0
   -3.3864   17.4165  -33.1118 H   0  0  0  0  0  0  0  0  0  0  0  0
   -2.6594   16.7150  -34.5971 H   0  0  0  0  0  0  0  0  0  0  0  0
   -3.2378   18.4157  -34.5971 H   0  0  0  0  0  0  0  0  0  0  0  0
   -5.0967   15.8913  -32.8553 H   0  0  0  0  0  0  0  0  0  0  0  0
   -6.1810   15.4555  -34.2196 H   0  0  0  0  0  0  0  0  0  0  0  0
   -4.4714   14.9042  -34.2196 H   0  0  0  0  0  0  0  0  0  0  0  0
   -9.0527   19.3841  -32.4736 H   0  0  0  0  0  0  0  0  0  0  0  0
  -10.4517   21.3907  -31.8656 H   0  0  0  0  0  0  0  0  0  0  0  0
   -9.3555   23.5939  -31.4030 H   0  0  0  0  0  0  0  0  0  0  0  0
   -6.8511   23.8184  -31.5480 H   0  0  0  0  0  0  0  0  0  0  0  0
  1  2  1  0
  2  3  1  0
  3  4  2  0
  4  5  1  0
  5  6  2  0
  6  7  1  0
  7  8  2  0
  8  9  1  0
  9 10  1  0
 10 11  1  0
 11 12  2  0
 12 13  1  0
 13 14  1  0
 14 15  2  0
 14 16  1  0
 16 17  1  0
 16 18  1  0
 12 19  1  0
 19 20  2  0
 20 21  1  0
 21 22  2  0
 22 23  1  0
 23 24  2  0
  8  3  1  0
 24 10  1  0
 24 19  1  0
  1 25  1  0
  1 26  1  0
  1 27  1  0
  4 28  1  0
  5 29  1  0
  6 30  1  0
  7 31  1  0
  9 32  1  0
  9 33  1  0
 11 34  1  0
 13 35  1  0
 13 36  1  0
 16 37  1  0
 17 38  1  0
 17 39  1  0
 17 40  1  0
 18 41  1  0
 18 42  1  0
 18 43  1  0
 20 44  1  0
 21 45  1  0
 22 46  1  0
 23 47  1  0
M  CHG  1  16   1
M  END
>  <UniqueID>  (34) 
32

>  <SMILES>  (34) 
COc1ccccc1Cn1cc(CC(=O)[NH+](C)C)c2ccccc21

>  <Energy>  (34) 
77.04311917925881

>  <Genealogy>  (34) 
COc1ccccc1Cn1cc(CC(=O)[NH+](C)C)c2ccccc21 (protonated)
COc1ccccc1Cn1cc(CC(=O)[NH+](C)C)c2ccccc21 (3D coordinates assigned)
COc1ccccc1Cn1cc(CC(=O)[NH+](C)C)c2ccccc21 (optimized conformer: 77.04311917925881 kcal/mol)

>  <smiles>  (34) 
COc1ccccc1Cn1cc(CC(=O)N(C)C)c2ccccc21

>  <score_type>  (34) 
oracle

>  <origin>  (34) 
adg

>  <m_score__min__energy>  (34) 
-8.1199999999999992

>  <m_primary>  (34) 
energy

$$$$
34:0
     RDKit          3D

 45 48  0  0  0  0  0  0  0  0999 V2000
   -3.5230   24.4900  -29.6530 C   0  0  0  0  0  0  0  0  0  0  0  0
   -4.2350   24.4640  -30.8860 O   0  0  0  0  0  0  0  0  0  0  0  0
   -5.2630   23.5600  -31.1950 C   0  0  0  0  0  0  0  0  0  0  0  0
   -6.5730   24.0240  -31.1710 C   0  0  0  0  0  0  0  0  0  0  0  0
   -7.6370   23.1670  -31.4430 C   0  0  0  0  0  0  0  0  0  0  0  0
   -7.4180   21.8070  -31.7700 C   0  0  0  0  0  0  0  0  0  0  0  0
   -6.0760   21.3340  -31.8340 C   0  0  0  0  0  0  0  0  0  0  0  0
   -5.0160   22.2150  -31.5180 C   0  0  0  0  0  0  0  0  0  0  0  0
   -5.8440   19.9850  -32.1920 C   0  0  0  0  0  0  0  0  0  0  0  0
   -6.9300   19.1170  -32.3330 C   0  0  0  0  0  0  0  0  0  0  0  0
   -8.2400   19.6080  -32.2280 C   0  0  0  0  0  0  0  0  0  0  0  0
   -9.2050   18.8010  -32.3410 O   0  0  0  0  0  0  0  0  0  0  0  0
   -8.4730   20.9440  -32.0050 N   0  0  0  0  0  0  0  0  0  0  0  0
   -9.8660   21.4380  -31.9730 C   0  0  0  0  0  0  0  0  0  0  0  0
   -6.6350   17.6390  -32.4810 C   0  0  0  0  0  0  0  0  0  0  0  0
   -5.5860   17.3760  -33.5020 N   0  0  2  0  0  0  0  0  0  0  0  0
   -5.0350   16.0040  -33.3720 C   0  0  0  0  0  0  0  0  0  0  0  0
   -5.9300   14.9400  -33.9550 C   0  0  0  0  0  0  0  0  0  0  0  0
   -5.7020   13.5790  -33.9110 C   0  0  0  0  0  0  0  0  0  0  0  0
   -6.7650   13.0020  -34.5710 C   0  0  0  0  0  0  0  0  0  0  0  0
   -7.5750   14.0430  -34.9740 C   0  0  0  0  0  0  0  0  0  0  0  0
   -7.0520   15.1850  -34.5920 O   0  0  0  0  0  0  0  0  0  0  0  0
   -4.5160   18.4140  -33.6050 C   0  0  0  0  0  0  0  0  0  0  0  0
   -4.4710   19.3850  -32.4130 C   0  0  0  0  0  0  0  0  0  0  0  0
   -4.2370   24.4639  -28.8167 H   0  0  0  0  0  0  0  0  0  0  0  0
   -2.8582   23.6155  -29.5950 H   0  0  0  0  0  0  0  0  0  0  0  0
   -2.9238   25.4106  -29.5950 H   0  0  0  0  0  0  0  0  0  0  0  0
   -6.7718   25.0797  -30.9346 H   0  0  0  0  0  0  0  0  0  0  0  0
   -8.6659   23.5539  -31.4030 H   0  0  0  0  0  0  0  0  0  0  0  0
   -3.9814   21.8414  -31.5252 H   0  0  0  0  0  0  0  0  0  0  0  0
  -10.1903   21.5530  -30.9282 H   0  0  0  0  0  0  0  0  0  0  0  0
   -9.9219   22.4108  -32.4835 H   0  0  0  0  0  0  0  0  0  0  0  0
  -10.5223   20.7178  -32.4835 H   0  0  0  0  0  0  0  0  0  0  0  0
   -6.2925   17.2471  -31.5119 H   0  0  0  0  0  0  0  0  0  0  0  0
   -7.5591   17.1410  -32.8096 H   0  0  0  0  0  0  0  0  0  0  0  0
   -6.0850   17.3820  -34.4240 H   0  0  0  0  0  0  0  0  0  0  0  0
   -4.0660   15.9671  -33.8913 H   0  0  0  0  0  0  0  0  0  0  0  0
   -4.9396   15.7936  -32.2965 H   0  0  0  0  0  0  0  0  0  0  0  0
   -4.8493   13.0628  -33.4459 H   0  0  0  0  0  0  0  0  0  0  0  0
   -6.9335   11.9285  -34.7419 H   0  0  0  0  0  0  0  0  0  0  0  0
   -8.5170   13.9330  -35.5313 H   0  0  0  0  0  0  0  0  0  0  0  0
   -3.5440   17.9035  -33.6724 H   0  0  0  0  0  0  0  0  0  0  0  0
   -4.7406   19.0158  -34.4980 H   0  0  0  0  0  0  0  0  0  0  0  0
   -4.1600   18.8405  -31.5092 H   0  0  0  0  0  0  0  0  0  0  0  0
   -3.7514   20.1895  -32.6251 H   0  0  0  0  0  0  0  0  0  0  0  0
  1  2  1  0
  2  3  1  0
  3  4  2  0
  4  5  1  0
  5  6  2  0
  6  7  1  0
  7  8  2  0
  7  9  1  0
  9 10  2  0
 10 11  1  0
 11 12  2  0
 11 13  1  0
 13 14  1  0
 10 15  1  0
 15 16  1  0
 16 17  1  0
 17 18  1  0
 18 19  2  0
 19 20  1  0
 20 21  2  0
 21 22  1  0
 16 23  1  0
 23 24  1  0
  8  3  1  0
 24  9  1  0
 13  6  1  0
 22 18  1  0
  1 25  1  0
  1 26  1  0
  1 27  1  0
  4 28  1  0
  5 29  1  0
  8 30  1  0
 14 31  1  0
 14 32  1  0
 14 33  1  0
 15 34  1  0
 15 35  1  0
 16 36  1  6
 17 37  1  0
 17 38  1  0
 19 39  1  0
 20 40  1  0
 21 41  1  0
 23 42  1  0
 23 43  1  0
 24 44  1  0
 24 45  1  0
M  CHG  1  16   1
M  END
>  <UniqueID>  (35) 
33

>  <SMILES>  (35) 
COc1ccc2c(c1)c1c(c(=O)n2C)C[N@H+](Cc2ccco2)CC1

>  <Energy>  (35) 
102.17078037770584

>  <Genealogy>  (35) 
COc1ccc2c(c1)c1c(c(=O)n2C)C[NH+](Cc2ccco2)CC1 (protonated)
COc1ccc2c(c1)c1c(c(=O)n2C)C[N@H+](Cc2ccco2)CC1 (chirality)
COc1ccc2c(c1)c1c(c(=O)n2C)C[N@H+](Cc2ccco2)CC1 (3D coordinates assigned)
COc1ccc2c(c1)c1c(c(=O)n2C)C[N@H+](Cc2ccco2)CC1 (nonaromatic ring conformer: 102.17078037770584 kcal/mol)

>  <smiles>  (35) 
COc1ccc2c(c1)c1c(c(=O)n2C)CN(Cc2ccco2)CC1

>  <score_type>  (35) 
oracle

>  <origin>  (35) 
adg

>  <m_score__min__energy>  (35) 
-7.7599999999999998

>  <m_primary>  (35) 
energy

$$$$
35:0
     RDKit          3D

 33 35  0  0  0  0  0  0  0  0999 V2000
   -5.5070   24.8850  -30.6550 C   0  0  0  0  0  0  0  0  0  0  0  0
   -5.8060   23.5420  -31.2420 C   0  0  0  0  0  0  0  0  0  0  0  0
   -7.0960   23.0900  -31.2710 N   0  0  0  0  0  0  0  0  0  0  0  0
   -7.3330   21.8790  -31.8250 C   0  0  0  0  0  0  0  0  0  0  0  0
   -8.5090   21.1840  -31.9830 C   0  0  0  0  0  0  0  0  0  0  0  0
   -9.8630   21.5880  -31.5060 C   0  0  0  0  0  0  0  0  0  0  0  0
   -8.2220   19.9970  -32.5700 N   0  0  0  0  0  0  0  0  0  0  0  0
   -6.9110   19.9540  -32.7960 N   0  0  0  0  0  0  0  0  0  0  0  0
   -6.2590   18.8250  -33.3850 C   0  0  0  0  0  0  0  0  0  0  0  0
   -5.8660   18.8860  -34.7290 C   0  0  0  0  0  0  0  0  0  0  0  0
   -5.2280   17.7960  -35.3260 C   0  0  0  0  0  0  0  0  0  0  0  0
   -4.9820   16.6380  -34.5840 C   0  0  0  0  0  0  0  0  0  0  0  0
   -5.3800   16.5640  -33.2460 C   0  0  0  0  0  0  0  0  0  0  0  0
   -6.0310   17.6500  -32.6380 C   0  0  0  0  0  0  0  0  0  0  0  0
   -6.4460   17.5670  -31.1940 C   0  0  0  0  0  0  0  0  0  0  0  0
   -6.3520   21.1000  -32.3450 C   0  0  0  0  0  0  0  0  0  0  0  0
   -5.0300   21.5540  -32.3330 C   0  0  0  0  0  0  0  0  0  0  0  0
   -3.5650   20.5610  -33.0670 Br  0  0  0  0  0  0  0  0  0  0  0  0
   -4.7920   22.7810  -31.7750 N   0  0  0  0  0  0  0  0  0  0  0  0
   -5.5222   24.8169  -29.5572 H   0  0  0  0  0  0  0  0  0  0  0  0
   -4.5128   25.2176  -30.9881 H   0  0  0  0  0  0  0  0  0  0  0  0
   -6.2662   25.6080  -30.9881 H   0  0  0  0  0  0  0  0  0  0  0  0
   -9.8780   21.5925  -30.4061 H   0  0  0  0  0  0  0  0  0  0  0  0
  -10.0980   22.5954  -31.8800 H   0  0  0  0  0  0  0  0  0  0  0  0
  -10.6116   20.8741  -31.8800 H   0  0  0  0  0  0  0  0  0  0  0  0
   -6.0607   19.7957  -35.3160 H   0  0  0  0  0  0  0  0  0  0  0  0
   -4.9193   17.8494  -36.3804 H   0  0  0  0  0  0  0  0  0  0  0  0
   -4.4741   15.7828  -35.0536 H   0  0  0  0  0  0  0  0  0  0  0  0
   -5.1823   15.6504  -32.6662 H   0  0  0  0  0  0  0  0  0  0  0  0
   -5.5712   17.7420  -30.5505 H   0  0  0  0  0  0  0  0  0  0  0  0
   -7.2112   18.3299  -30.9880 H   0  0  0  0  0  0  0  0  0  0  0  0
   -6.8589   16.5685  -30.9880 H   0  0  0  0  0  0  0  0  0  0  0  0
   -3.8120   23.1470  -31.7570 H   0  0  0  0  0  0  0  0  0  0  0  0
  1  2  1  0
  2  3  2  0
  3  4  1  0
  4  5  1  0
  5  6  1  0
  5  7  2  0
  7  8  1  0
  8  9  1  0
  9 10  2  0
 10 11  1  0
 11 12  2  0
 12 13  1  0
 13 14  2  0
 14 15  1  0
  8 16  1  0
 16 17  1  0
 17 18  1  0
 17 19  2  0
 19  2  1  0
 16  4  2  0
 14  9  1  0
  1 20  1  0
  1 21  1  0
  1 22  1  0
  6 23  1  0
  6 24  1  0
  6 25  1  0
 10 26  1  0
 11 27  1  0
 12 28  1  0
 13 29  1  0
 15 30  1  0
 15 31  1  0
 15 32  1  0
 19 33  1  0
M  CHG  1  19   1
M  END
>  <UniqueID>  (36) 
34

>  <SMILES>  (36) 
Cc1nc2c(C)nn(-c3ccccc3C)c2c(Br)[nH+]1

>  <Energy>  (36) 
83.6250507361824

>  <Genealogy>  (36) 
Cc1nc2c(C)nn(-c3ccccc3C)c2c(Br)[nH+]1 (protonated)
Cc1nc2c(C)nn(-c3ccccc3C)c2c(Br)[nH+]1 (3D coordinates assigned)
Cc1nc2c(C)nn(-c3ccccc3C)c2c(Br)[nH+]1 (optimized conformer: 83.6250507361824 kcal/mol)

>  <smiles>  (36) 
Cc1nc(Br)c2c(n1)c(C)nn2-c1ccccc1C

>  <score_type>  (36) 
oracle

>  <origin>  (36) 
adg

>  <m_score__min__energy>  (36) 
-7.04

>  <m_primary>  (36) 
energy

$$$$
36:0
     RDKit          3D

 51 54  0  0  0  0  0  0  0  0999 V2000
   -5.4800   19.2430  -33.6270 O   0  0  0  0  0  0  0  0  0  0  0  0
   -4.3890   19.4810  -33.0410 C   0  0  0  0  0  0  0  0  0  0  0  0
   -4.2340   20.6610  -32.2950 C   0  0  0  0  0  0  0  0  0  0  0  0
   -5.2990   21.5570  -32.1250 O   0  0  0  0  0  0  0  0  0  0  0  0
   -6.2340   21.4640  -31.0460 C   0  0  1  0  0  0  0  0  0  0  0  0
   -5.9320   22.5690  -30.0040 C   0  0  0  0  0  0  0  0  0  0  0  0
   -6.8810   23.7890  -30.0830 C   0  0  1  0  0  0  0  0  0  0  0  0
   -6.2660   24.9970  -29.3460 C   0  0  0  0  0  0  0  0  0  0  0  0
   -6.2140   26.1220  -30.1810 O   0  0  0  0  0  0  0  0  0  0  0  0
   -7.2540   24.1210  -31.5490 C   0  0  1  0  0  0  0  0  0  0  0  0
   -6.1010   24.4800  -32.2680 O   0  0  0  0  0  0  0  0  0  0  0  0
   -7.9480   22.9220  -32.2620 C   0  0  2  0  0  0  0  0  0  0  0  0
   -9.3360   23.1330  -32.3270 O   0  0  0  0  0  0  0  0  0  0  0  0
   -7.6670   21.5470  -31.5980 C   0  0  2  0  0  0  0  0  0  0  0  0
   -8.5760   21.2980  -30.5540 O   0  0  0  0  0  0  0  0  0  0  0  0
   -2.9840   20.9280  -31.7020 C   0  0  0  0  0  0  0  0  0  0  0  0
   -2.7410   22.1620  -30.9280 C   0  0  0  0  0  0  0  0  0  0  0  0
   -1.7630   22.1660  -29.9210 C   0  0  0  0  0  0  0  0  0  0  0  0
   -1.5120   23.3290  -29.1860 C   0  0  0  0  0  0  0  0  0  0  0  0
   -2.2230   24.5010  -29.4630 C   0  0  0  0  0  0  0  0  0  0  0  0
   -1.9680   25.6530  -28.7280 O   0  0  0  0  0  0  0  0  0  0  0  0
   -3.1810   24.5120  -30.4820 C   0  0  0  0  0  0  0  0  0  0  0  0
   -3.8760   25.6800  -30.7740 O   0  0  0  0  0  0  0  0  0  0  0  0
   -3.4400   23.3470  -31.2130 C   0  0  0  0  0  0  0  0  0  0  0  0
   -1.9950   20.0450  -31.8090 O   0  0  0  0  0  0  0  0  0  0  0  0
   -2.1080   18.9060  -32.4850 C   0  0  0  0  0  0  0  0  0  0  0  0
   -1.0190   18.0300  -32.5510 C   0  0  0  0  0  0  0  0  0  0  0  0
   -1.1230   16.8320  -33.2660 C   0  0  0  0  0  0  0  0  0  0  0  0
   -0.0380   15.9670  -33.3290 O   0  0  0  0  0  0  0  0  0  0  0  0
   -2.3160   16.5060  -33.9170 C   0  0  0  0  0  0  0  0  0  0  0  0
   -3.4110   17.3740  -33.8550 C   0  0  0  0  0  0  0  0  0  0  0  0
   -3.3160   18.5800  -33.1380 C   0  0  0  0  0  0  0  0  0  0  0  0
   -6.1371   20.4953  -30.5338 H   0  0  0  0  0  0  0  0  0  0  0  0
   -6.0179   22.1292  -28.9994 H   0  0  0  0  0  0  0  0  0  0  0  0
   -4.9195   22.9405  -30.2203 H   0  0  0  0  0  0  0  0  0  0  0  0
   -7.8217   23.5340  -29.5731 H   0  0  0  0  0  0  0  0  0  0  0  0
   -6.8807   25.2315  -28.4644 H   0  0  0  0  0  0  0  0  0  0  0  0
   -5.2408   24.7378  -29.0432 H   0  0  0  0  0  0  0  0  0  0  0  0
   -5.4650   25.9700  -30.8160 H   0  0  0  0  0  0  0  0  0  0  0  0
   -7.9639   24.9608  -31.5229 H   0  0  0  0  0  0  0  0  0  0  0  0
   -5.3990   24.7140  -31.6070 H   0  0  0  0  0  0  0  0  0  0  0  0
   -7.5134   22.8810  -33.2717 H   0  0  0  0  0  0  0  0  0  0  0  0
   -9.7720   22.2830  -32.0520 H   0  0  0  0  0  0  0  0  0  0  0  0
   -7.7887   20.7850  -32.3820 H   0  0  0  0  0  0  0  0  0  0  0  0
   -9.1160   22.1220  -30.4320 H   0  0  0  0  0  0  0  0  0  0  0  0
   -1.1915   21.2503  -29.7091 H   0  0  0  0  0  0  0  0  0  0  0  0
   -0.7541   23.3219  -28.3888 H   0  0  0  0  0  0  0  0  0  0  0  0
   -4.1939   23.3591  -32.0139 H   0  0  0  0  0  0  0  0  0  0  0  0
   -0.0788   18.2839  -32.0395 H   0  0  0  0  0  0  0  0  0  0  0  0
   -2.3940   15.5641  -34.4797 H   0  0  0  0  0  0  0  0  0  0  0  0
   -4.3483   17.1128  -34.3681 H   0  0  0  0  0  0  0  0  0  0  0  0
  1  2  2  0
  2  3  1  0
  3  4  1  0
  4  5  1  0
  5  6  1  0
  6  7  1  0
  7  8  1  0
  8  9  1  0
  7 10  1  0
 10 11  1  0
 10 12  1  0
 12 13  1  0
 12 14  1  0
 14 15  1  0
  3 16  2  0
 16 17  1  0
 17 18  2  0
 18 19  1  0
 19 20  2  0
 20 21  1  0
 20 22  1  0
 22 23  1  0
 22 24  2  0
 16 25  1  0
 25 26  1  0
 26 27  2  0
 27 28  1  0
 28 29  1  0
 28 30  2  0
 30 31  1  0
 31 32  2  0
 32  2  1  0
 14  5  1  0
 24 17  1  0
 32 26  1  0
  5 33  1  1
  6 34  1  0
  6 35  1  0
  7 36  1  1
  8 37  1  0
  8 38  1  0
  9 39  1  0
 10 40  1  1
 11 41  1  0
 12 42  1  6
 13 43  1  0
 14 44  1  6
 15 45  1  0
 18 46  1  0
 19 47  1  0
 24 48  1  0
 27 49  1  0
 30 50  1  0
 31 51  1  0
M  CHG  3  21  -1  23  -1  29  -1
M  END
>  <UniqueID>  (37) 
35

>  <SMILES>  (37) 
O=c1c(O[C@H]2C[C@@H](CO)C(O)C(O)C2O)c(-c2ccc([O-])c([O-])c2)oc2cc([O-])ccc12

>  <Energy>  (37) 
76.60619737863806

>  <Genealogy>  (37) 
O=c1c(OC2CC(CO)C(O)C(O)C2O)c(-c2ccc([O-])c([O-])c2)oc2cc([O-])ccc12 (protonated)
O=c1c(O[C@H]2C[C@@H](CO)C(O)C(O)C2O)c(-c2ccc([O-])c([O-])c2)oc2cc([O-])ccc12 (chirality)
O=c1c(O[C@H]2C[C@@H](CO)C(O)C(O)C2O)c(-c2ccc([O-])c([O-])c2)oc2cc([O-])ccc12 (3D coordinates assigned)
O=c1c(O[C@H]2C[C@@H](CO)C(O)C(O)C2O)c(-c2ccc([O-])c([O-])c2)oc2cc([O-])ccc12 (nonaromatic ring conformer: 76.60619737863806 kcal/mol)

>  <smiles>  (37) 
O=c1c(OC2CC(CO)C(O)C(O)C2O)c(-c2ccc(O)c(O)c2)oc2cc(O)ccc12

>  <score_type>  (37) 
oracle

>  <origin>  (37) 
adg

>  <m_score__min__energy>  (37) 
-11.1

>  <m_primary>  (37) 
energy

$$$$
37:0
     RDKit          3D

 31 31  0  0  0  0  0  0  0  0999 V2000
   -3.0940   21.9110  -32.3450 C   0  0  0  0  0  0  0  0  0  0  0  0
   -4.0210   20.7320  -32.0580 C   0  0  0  0  0  0  0  0  0  0  0  0
   -4.9390   20.4030  -33.2440 C   0  0  0  0  0  0  0  0  0  0  0  0
   -6.3650   20.1380  -32.8090 C   0  0  0  0  0  0  0  0  0  0  0  0
   -6.8410   18.8180  -32.8340 C   0  0  0  0  0  0  0  0  0  0  0  0
   -8.1340   18.5190  -32.4110 C   0  0  0  0  0  0  0  0  0  0  0  0
   -8.9790   19.5360  -31.9710 C   0  0  0  0  0  0  0  0  0  0  0  0
   -8.5430   20.8690  -31.9550 C   0  0  0  0  0  0  0  0  0  0  0  0
   -9.4960   21.9430  -31.5020 C   0  0  0  0  0  0  0  0  0  0  0  0
   -7.2140   21.1730  -32.3430 C   0  0  0  0  0  0  0  0  0  0  0  0
   -6.7470   22.5300  -32.3080 N   0  0  0  0  0  0  0  0  0  0  0  0
   -6.5390   23.2390  -31.0790 C   0  0  0  0  0  0  0  0  0  0  0  0
   -6.7390   22.6700  -29.9720 O   0  0  0  0  0  0  0  0  0  0  0  0
   -6.1110   24.6690  -31.1040 C   0  0  0  0  0  0  0  0  0  0  0  0
   -4.4580   24.8080  -30.4600 Cl  0  0  0  0  0  0  0  0  0  0  0  0
   -2.7509   22.3473  -31.3953 H   0  0  0  0  0  0  0  0  0  0  0  0
   -2.2256   21.5624  -32.9232 H   0  0  0  0  0  0  0  0  0  0  0  0
   -3.6377   22.6726  -32.9232 H   0  0  0  0  0  0  0  0  0  0  0  0
   -3.4072   19.8478  -31.8312 H   0  0  0  0  0  0  0  0  0  0  0  0
   -4.6608   21.0095  -31.2073 H   0  0  0  0  0  0  0  0  0  0  0  0
   -4.9340   21.2532  -33.9420 H   0  0  0  0  0  0  0  0  0  0  0  0
   -4.5572   19.4891  -33.7224 H   0  0  0  0  0  0  0  0  0  0  0  0
   -6.1855   18.0103  -33.1917 H   0  0  0  0  0  0  0  0  0  0  0  0
   -8.4888   17.4779  -32.4243 H   0  0  0  0  0  0  0  0  0  0  0  0
   -9.9969   19.2912  -31.6333 H   0  0  0  0  0  0  0  0  0  0  0  0
   -9.5210   21.9712  -30.4026 H   0  0  0  0  0  0  0  0  0  0  0  0
   -9.1598   22.9174  -31.8862 H   0  0  0  0  0  0  0  0  0  0  0  0
  -10.5034   21.7251  -31.8862 H   0  0  0  0  0  0  0  0  0  0  0  0
   -6.4970   22.9950  -33.2090 H   0  0  0  0  0  0  0  0  0  0  0  0
   -6.1330   25.0398  -32.1394 H   0  0  0  0  0  0  0  0  0  0  0  0
   -6.7961   25.2665  -30.4846 H   0  0  0  0  0  0  0  0  0  0  0  0
  1  2  1  0
  2  3  1  0
  3  4  1  0
  4  5  2  0
  5  6  1  0
  6  7  2  0
  7  8  1  0
  8  9  1  0
  8 10  2  0
 10 11  1  0
 11 12  1  0
 12 13  2  0
 12 14  1  0
 14 15  1  0
 10  4  1  0
  1 16  1  0
  1 17  1  0
  1 18  1  0
  2 19  1  0
  2 20  1  0
  3 21  1  0
  3 22  1  0
  5 23  1  0
  6 24  1  0
  7 25  1  0
  9 26  1  0
  9 27  1  0
  9 28  1  0
 11 29  1  0
 14 30  1  0
 14 31  1  0
M  END
>  <UniqueID>  (38) 
36

>  <SMILES>  (38) 
CCCc1cccc(C)c1NC(=O)CCl

>  <Energy>  (38) 
28.193167774984325

>  <Genealogy>  (38) 
CCCc1cccc(C)c1NC(=O)CCl (3D coordinates assigned)
CCCc1cccc(C)c1NC(=O)CCl (optimized conformer: 28.193167774984325 kcal/mol)

>  <smiles>  (38) 
CCCc1cccc(C)c1NC(=O)CCl

>  <score_type>  (38) 
oracle

>  <origin>  (38) 
adg

>  <m_score__min__energy>  (38) 
-6.3300000000000001

>  <m_primary>  (38) 
energy

$$$$
38:0
     RDKit          3D

 46 47  0  0  0  0  0  0  0  0999 V2000
   -1.1720   21.3360  -30.3820 C   0  0  0  0  0  0  0  0  0  0  0  0
   -1.7990   22.3600  -31.1470 O   0  0  0  0  0  0  0  0  0  0  0  0
   -3.1550   22.3660  -31.5150 C   0  0  0  0  0  0  0  0  0  0  0  0
   -3.7280   21.3170  -32.2500 C   0  0  0  0  0  0  0  0  0  0  0  0
   -5.0760   21.3570  -32.6230 C   0  0  0  0  0  0  0  0  0  0  0  0
   -5.8740   22.4610  -32.2610 C   0  0  0  0  0  0  0  0  0  0  0  0
   -5.3180   23.4870  -31.4610 C   0  0  0  0  0  0  0  0  0  0  0  0
   -6.1370   24.5100  -30.9770 O   0  0  0  0  0  0  0  0  0  0  0  0
   -6.3430   24.6910  -29.5790 C   0  0  0  0  0  0  0  0  0  0  0  0
   -3.9390   23.4640  -31.1350 C   0  0  0  0  0  0  0  0  0  0  0  0
   -3.2880   24.4980  -30.4380 O   0  0  0  0  0  0  0  0  0  0  0  0
   -2.8690   24.4610  -29.0780 C   0  0  0  0  0  0  0  0  0  0  0  0
   -7.3240   22.5070  -32.7100 C   0  0  0  0  0  0  0  0  0  0  0  0
   -8.2520   21.3750  -32.1500 C   0  0  2  0  0  0  0  0  0  0  0  0
   -8.2210   21.3960  -30.6080 C   0  0  0  0  0  0  0  0  0  0  0  0
   -8.0560   20.0160  -32.7600 N   0  0  2  0  0  0  0  0  0  0  0  0
   -9.0780   19.0510  -32.2950 C   0  0  0  0  0  0  0  0  0  0  0  0
   -6.6750   19.4240  -32.7550 C   0  0  2  0  0  0  0  0  0  0  0  0
   -6.1320   19.0310  -31.3630 C   0  0  0  0  0  0  0  0  0  0  0  0
   -5.6370   20.2780  -33.5150 C   0  0  0  0  0  0  0  0  0  0  0  0
   -1.3015   21.5475  -29.3103 H   0  0  0  0  0  0  0  0  0  0  0  0
   -1.6310   20.3656  -30.6223 H   0  0  0  0  0  0  0  0  0  0  0  0
   -0.0991   21.3037  -30.6223 H   0  0  0  0  0  0  0  0  0  0  0  0
   -3.1102   20.4531  -32.5363 H   0  0  0  0  0  0  0  0  0  0  0  0
   -5.6315   24.0659  -29.0196 H   0  0  0  0  0  0  0  0  0  0  0  0
   -6.1855   25.7482  -29.3190 H   0  0  0  0  0  0  0  0  0  0  0  0
   -7.3711   24.3987  -29.3190 H   0  0  0  0  0  0  0  0  0  0  0  0
   -3.7480   24.5386  -28.4213 H   0  0  0  0  0  0  0  0  0  0  0  0
   -2.3466   23.5132  -28.8809 H   0  0  0  0  0  0  0  0  0  0  0  0
   -2.1886   25.3026  -28.8809 H   0  0  0  0  0  0  0  0  0  0  0  0
   -7.7438   23.4735  -32.3942 H   0  0  0  0  0  0  0  0  0  0  0  0
   -7.3021   22.3609  -33.8000 H   0  0  0  0  0  0  0  0  0  0  0  0
   -9.2765   21.6076  -32.4761 H   0  0  0  0  0  0  0  0  0  0  0  0
   -9.0720   20.8195  -30.2163 H   0  0  0  0  0  0  0  0  0  0  0  0
   -7.2807   20.9481  -30.2540 H   0  0  0  0  0  0  0  0  0  0  0  0
   -8.2882   22.4353  -30.2540 H   0  0  0  0  0  0  0  0  0  0  0  0
   -8.3110   20.1270  -33.7700 H   0  0  0  0  0  0  0  0  0  0  0  0
   -9.0943   19.0356  -31.1952 H   0  0  0  0  0  0  0  0  0  0  0  0
  -10.0661   19.3532  -32.6721 H   0  0  0  0  0  0  0  0  0  0  0  0
   -8.8329   18.0472  -32.6721 H   0  0  0  0  0  0  0  0  0  0  0  0
   -6.8171   18.4826  -33.3060 H   0  0  0  0  0  0  0  0  0  0  0  0
   -6.7601   19.4856  -30.5827 H   0  0  0  0  0  0  0  0  0  0  0  0
   -6.1512   17.9362  -31.2576 H   0  0  0  0  0  0  0  0  0  0  0  0
   -5.0981   19.3914  -31.2576 H   0  0  0  0  0  0  0  0  0  0  0  0
   -4.8167   19.6295  -33.8564 H   0  0  0  0  0  0  0  0  0  0  0  0
   -6.1323   20.7530  -34.3747 H   0  0  0  0  0  0  0  0  0  0  0  0
  1  2  1  0
  2  3  1  0
  3  4  2  0
  4  5  1  0
  5  6  2  0
  6  7  1  0
  7  8  1  0
  8  9  1  0
  7 10  2  0
 10 11  1  0
 11 12  1  0
  6 13  1  0
 13 14  1  0
 14 15  1  0
 14 16  1  0
 16 17  1  0
 16 18  1  0
 18 19  1  0
 18 20  1  0
 10  3  1  0
 20  5  1  0
  1 21  1  0
  1 22  1  0
  1 23  1  0
  4 24  1  0
  9 25  1  0
  9 26  1  0
  9 27  1  0
 12 28  1  0
 12 29  1  0
 12 30  1  0
 13 31  1  0
 13 32  1  0
 14 33  1  1
 15 34  1  0
 15 35  1  0
 15 36  1  0
 16 37  1  6
 17 38  1  0
 17 39  1  0
 17 40  1  0
 18 41  1  6
 19 42  1  0
 19 43  1  0
 19 44  1  0
 20 45  1  0
 20 46  1  0
M  CHG  1  16   1
M  END
>  <UniqueID>  (39) 
37

>  <SMILES>  (39) 
COc1cc2c(c(OC)c1OC)C[C@H](C)[N@H+](C)C(C)C2

>  <Energy>  (39) 
77.42598876934996

>  <Genealogy>  (39) 
COc1cc2c(c(OC)c1OC)CC(C)[NH+](C)C(C)C2 (protonated)
COc1cc2c(c(OC)c1OC)C[C@H](C)[N@H+](C)C(C)C2 (chirality)
COc1cc2c(c(OC)c1OC)C[C@H](C)[N@H+](C)C(C)C2 (3D coordinates assigned)
COc1cc2c(c(OC)c1OC)C[C@H](C)[N@H+](C)C(C)C2 (nonaromatic ring conformer: 77.42598876934996 kcal/mol)

>  <smiles>  (39) 
COc1cc2c(c(OC)c1OC)CC(C)N(C)C(C)C2

>  <score_type>  (39) 
oracle

>  <origin>  (39) 
adg

>  <m_score__min__energy>  (39) 
-4.5300000000000002

>  <m_primary>  (39) 
energy

$$$$
39:0
     RDKit          3D

 53 53  0  0  0  0  0  0  0  0999 V2000
   -3.2200   19.2690  -33.8190 C   0  0  0  0  0  0  0  0  0  0  0  0
   -2.4820   20.6060  -33.7550 C   0  0  0  0  0  0  0  0  0  0  0  0
   -2.9940   21.5260  -32.6330 C   0  0  0  0  0  0  0  0  0  0  0  0
   -4.3780   22.1540  -32.8900 C   0  0  0  0  0  0  0  0  0  0  0  0
   -5.3310   21.8490  -31.8060 N   0  0  0  0  0  0  0  0  0  0  0  0
   -5.4190   22.7320  -30.6280 C   0  0  0  0  0  0  0  0  0  0  0  0
   -5.9060   24.1670  -30.9850 C   0  0  1  0  0  0  0  0  0  0  0  0
   -7.2380   24.5050  -30.2900 C   0  0  0  0  0  0  0  0  0  0  0  0
   -4.8750   25.1990  -30.5770 C   0  0  0  0  0  0  0  0  0  0  0  0
   -5.2430   26.4000  -30.4680 O   0  0  0  0  0  0  0  0  0  0  0  0
   -3.4790   24.9110  -30.3810 N   0  0  0  0  0  0  0  0  0  0  0  0
   -2.7160   24.3170  -29.2720 C   0  0  0  0  0  0  0  0  0  0  0  0
   -1.5530   25.2340  -28.8470 C   0  0  0  0  0  0  0  0  0  0  0  0
   -2.1230   22.9990  -29.8010 C   0  0  0  0  0  0  0  0  0  0  0  0
   -3.6280   23.9900  -28.0740 C   0  0  0  0  0  0  0  0  0  0  0  0
   -6.3760   20.8740  -32.0160 C   0  0  0  0  0  0  0  0  0  0  0  0
   -6.0710   19.5030  -32.0970 C   0  0  0  0  0  0  0  0  0  0  0  0
   -7.0890   18.5540  -32.2830 C   0  0  0  0  0  0  0  0  0  0  0  0
   -6.7510   17.0960  -32.3880 C   0  0  0  0  0  0  0  0  0  0  0  0
   -8.4130   18.9840  -32.4390 C   0  0  0  0  0  0  0  0  0  0  0  0
   -8.7200   20.3450  -32.3830 C   0  0  0  0  0  0  0  0  0  0  0  0
   -7.7090   21.2870  -32.1760 C   0  0  0  0  0  0  0  0  0  0  0  0
   -8.0330   22.6000  -32.1210 F   0  0  0  0  0  0  0  0  0  0  0  0
   -3.4180   18.9103  -32.7982 H   0  0  0  0  0  0  0  0  0  0  0  0
   -4.1729   19.4013  -34.3524 H   0  0  0  0  0  0  0  0  0  0  0  0
   -2.6002   18.5332  -34.3524 H   0  0  0  0  0  0  0  0  0  0  0  0
   -1.4134   20.4080  -33.5849 H   0  0  0  0  0  0  0  0  0  0  0  0
   -2.6587   21.1237  -34.7093 H   0  0  0  0  0  0  0  0  0  0  0  0
   -3.0534   20.9352  -31.7070 H   0  0  0  0  0  0  0  0  0  0  0  0
   -2.2823   22.3624  -32.5708 H   0  0  0  0  0  0  0  0  0  0  0  0
   -4.2644   23.2454  -32.9669 H   0  0  0  0  0  0  0  0  0  0  0  0
   -4.7766   21.7297  -33.8234 H   0  0  0  0  0  0  0  0  0  0  0  0
   -6.1247   22.2899  -29.9093 H   0  0  0  0  0  0  0  0  0  0  0  0
   -4.4077   22.8211  -30.2045 H   0  0  0  0  0  0  0  0  0  0  0  0
   -6.0534   24.1910  -32.0748 H   0  0  0  0  0  0  0  0  0  0  0  0
   -7.1015   24.4704  -29.1991 H   0  0  0  0  0  0  0  0  0  0  0  0
   -7.5611   25.5136  -30.5873 H   0  0  0  0  0  0  0  0  0  0  0  0
   -8.0029   23.7725  -30.5873 H   0  0  0  0  0  0  0  0  0  0  0  0
   -1.5009   25.2751  -27.7490 H   0  0  0  0  0  0  0  0  0  0  0  0
   -0.6078   24.8355  -29.2443 H   0  0  0  0  0  0  0  0  0  0  0  0
   -1.7200   26.2461  -29.2443 H   0  0  0  0  0  0  0  0  0  0  0  0
   -1.8355   22.3599  -28.9531 H   0  0  0  0  0  0  0  0  0  0  0  0
   -2.8739   22.4790  -30.4140 H   0  0  0  0  0  0  0  0  0  0  0  0
   -1.2358   23.2160  -30.4140 H   0  0  0  0  0  0  0  0  0  0  0  0
   -3.0860   24.1843  -27.1368 H   0  0  0  0  0  0  0  0  0  0  0  0
   -4.5277   24.6215  -28.1150 H   0  0  0  0  0  0  0  0  0  0  0  0
   -3.9214   22.9307  -28.1150 H   0  0  0  0  0  0  0  0  0  0  0  0
   -5.0255   19.1715  -32.0139 H   0  0  0  0  0  0  0  0  0  0  0  0
   -6.6520   16.6690  -31.3791 H   0  0  0  0  0  0  0  0  0  0  0  0
   -7.5515   16.5722  -32.9309 H   0  0  0  0  0  0  0  0  0  0  0  0
   -5.8016   16.9779  -32.9309 H   0  0  0  0  0  0  0  0  0  0  0  0
   -9.2129   18.2476  -32.6060 H   0  0  0  0  0  0  0  0  0  0  0  0
   -9.7619   20.6769  -32.5023 H   0  0  0  0  0  0  0  0  0  0  0  0
  1  2  1  0
  2  3  1  0
  3  4  1  0
  4  5  1  0
  5  6  1  0
  6  7  1  0
  7  8  1  0
  7  9  1  0
  9 10  2  0
  9 11  1  0
 11 12  1  0
 12 13  1  0
 12 14  1  0
 12 15  1  0
  5 16  1  0
 16 17  2  0
 17 18  1  0
 18 19  1  0
 18 20  2  0
 20 21  1  0
 21 22  2  0
 22 23  1  0
 22 16  1  0
  1 24  1  0
  1 25  1  0
  1 26  1  0
  2 27  1  0
  2 28  1  0
  3 29  1  0
  3 30  1  0
  4 31  1  0
  4 32  1  0
  6 33  1  0
  6 34  1  0
  7 35  1  6
  8 36  1  0
  8 37  1  0
  8 38  1  0
 13 39  1  0
 13 40  1  0
 13 41  1  0
 14 42  1  0
 14 43  1  0
 14 44  1  0
 15 45  1  0
 15 46  1  0
 15 47  1  0
 17 48  1  0
 19 49  1  0
 19 50  1  0
 19 51  1  0
 20 52  1  0
 21 53  1  0
M  CHG  1  11  -1
M  END
>  <UniqueID>  (40) 
38

>  <SMILES>  (40) 
CCCCN(C[C@@H](C)C(=O)[N-]C(C)(C)C)c1cc(C)ccc1F

>  <Energy>  (40) 
47.11177735371215

>  <Genealogy>  (40) 
CCCCN(CC(C)C(=O)[N-]C(C)(C)C)c1cc(C)ccc1F (protonated)
CCCCN(C[C@@H](C)C(=O)[N-]C(C)(C)C)c1cc(C)ccc1F (chirality)
CCCCN(C[C@@H](C)C(=O)[N-]C(C)(C)C)c1cc(C)ccc1F (3D coordinates assigned)
CCCCN(C[C@@H](C)C(=O)[N-]C(C)(C)C)c1cc(C)ccc1F (optimized conformer: 47.11177735371215 kcal/mol)

>  <smiles>  (40) 
CCCCN(CC(C)C(=O)NC(C)(C)C)c1cc(C)ccc1F

>  <score_type>  (40) 
oracle

>  <origin>  (40) 
adg

>  <m_score__min__energy>  (40) 
-9.7799999999999994

>  <m_primary>  (40) 
energy

$$$$
40:0
     RDKit          3D

 53 54  0  0  0  0  0  0  0  0999 V2000
   -3.0050   20.7870  -27.9700 C   0  0  0  0  0  0  0  0  0  0  0  0
   -2.0530   21.5720  -27.0590 C   0  0  0  0  0  0  0  0  0  0  0  0
   -2.0600   23.0310  -27.3570 N   0  0  2  0  0  0  0  0  0  0  0  0
   -1.9800   23.3050  -28.8190 C   0  0  0  0  0  0  0  0  0  0  0  0
   -2.3590   24.7170  -29.2440 C   0  0  0  0  0  0  0  0  0  0  0  0
   -1.6220   25.6900  -28.9390 O   0  0  0  0  0  0  0  0  0  0  0  0
   -3.4320   24.9470  -30.1660 N   0  0  0  0  0  0  0  0  0  0  0  0
   -4.4620   24.0150  -30.5140 C   0  0  0  0  0  0  0  0  0  0  0  0
   -4.1220   22.8400  -31.1850 C   0  0  0  0  0  0  0  0  0  0  0  0
   -5.1120   21.9280  -31.5670 C   0  0  0  0  0  0  0  0  0  0  0  0
   -6.4800   22.1850  -31.3080 C   0  0  0  0  0  0  0  0  0  0  0  0
   -7.5180   21.2330  -31.6990 N   0  0  0  0  0  0  0  0  0  0  0  0
   -8.8900   21.7200  -31.9480 C   0  0  0  0  0  0  0  0  0  0  0  0
   -9.8860   20.6060  -32.2820 C   0  0  0  0  0  0  0  0  0  0  0  0
   -9.2880   19.6230  -33.0930 O   0  0  0  0  0  0  0  0  0  0  0  0
   -8.3350   18.9320  -32.3220 C   0  0  0  0  0  0  0  0  0  0  0  0
   -7.1420   19.8310  -31.9870 C   0  0  0  0  0  0  0  0  0  0  0  0
   -6.8050   23.3980  -30.6540 C   0  0  0  0  0  0  0  0  0  0  0  0
   -5.8090   24.3000  -30.2730 C   0  0  0  0  0  0  0  0  0  0  0  0
   -1.0050   23.7450  -26.5890 C   0  0  0  0  0  0  0  0  0  0  0  0
   -1.5280   24.9490  -25.8240 C   0  0  0  0  0  0  0  0  0  0  0  0
   -2.7390   25.2830  -25.9530 O   0  0  0  0  0  0  0  0  0  0  0  0
   -0.6920   25.6680  -24.8880 N   0  0  0  0  0  0  0  0  0  0  0  0
   -1.2600   26.8080  -24.1600 C   0  0  0  0  0  0  0  0  0  0  0  0
    0.6960   25.2600  -24.6430 C   0  0  0  0  0  0  0  0  0  0  0  0
   -3.7078   20.2075  -27.3534 H   0  0  0  0  0  0  0  0  0  0  0  0
   -3.5664   21.4882  -28.6050 H   0  0  0  0  0  0  0  0  0  0  0  0
   -2.4236   20.1023  -28.6050 H   0  0  0  0  0  0  0  0  0  0  0  0
   -2.3608   21.4231  -26.0135 H   0  0  0  0  0  0  0  0  0  0  0  0
   -1.0338   21.1976  -27.2351 H   0  0  0  0  0  0  0  0  0  0  0  0
   -2.9940   23.3980  -27.0530 H   0  0  0  0  0  0  0  0  0  0  0  0
   -0.9448   23.1204  -29.1420 H   0  0  0  0  0  0  0  0  0  0  0  0
   -2.7178   22.6397  -29.2913 H   0  0  0  0  0  0  0  0  0  0  0  0
   -3.0673   22.6289  -31.4155 H   0  0  0  0  0  0  0  0  0  0  0  0
   -4.8230   20.9969  -32.0764 H   0  0  0  0  0  0  0  0  0  0  0  0
   -9.2423   22.2424  -31.0463 H   0  0  0  0  0  0  0  0  0  0  0  0
   -8.8423   22.3828  -32.8246 H   0  0  0  0  0  0  0  0  0  0  0  0
  -10.2318   20.1401  -31.3474 H   0  0  0  0  0  0  0  0  0  0  0  0
  -10.7332   21.0450  -32.8293 H   0  0  0  0  0  0  0  0  0  0  0  0
   -8.8053   18.5953  -31.3863 H   0  0  0  0  0  0  0  0  0  0  0  0
   -7.9722   18.0714  -32.9032 H   0  0  0  0  0  0  0  0  0  0  0  0
   -6.6336   19.4188  -31.1029 H   0  0  0  0  0  0  0  0  0  0  0  0
   -6.4919   19.8475  -32.8742 H   0  0  0  0  0  0  0  0  0  0  0  0
   -7.8585   23.6337  -30.4426 H   0  0  0  0  0  0  0  0  0  0  0  0
   -6.0870   25.2427  -29.7791 H   0  0  0  0  0  0  0  0  0  0  0  0
   -0.5600   23.0412  -25.8702 H   0  0  0  0  0  0  0  0  0  0  0  0
   -0.2683   24.1166  -27.3164 H   0  0  0  0  0  0  0  0  0  0  0  0
   -1.1725   26.6323  -23.0777 H   0  0  0  0  0  0  0  0  0  0  0  0
   -0.7128   27.7238  -24.4282 H   0  0  0  0  0  0  0  0  0  0  0  0
   -2.3206   26.9227  -24.4282 H   0  0  0  0  0  0  0  0  0  0  0  0
    0.8767   25.2069  -23.5592 H   0  0  0  0  0  0  0  0  0  0  0  0
    0.8726   24.2719  -25.0930 H   0  0  0  0  0  0  0  0  0  0  0  0
    1.3792   25.9953  -25.0930 H   0  0  0  0  0  0  0  0  0  0  0  0
  1  2  1  0
  2  3  1  0
  3  4  1  0
  4  5  1  0
  5  6  2  0
  5  7  1  0
  7  8  1  0
  8  9  2  0
  9 10  1  0
 10 11  2  0
 11 12  1  0
 12 13  1  0
 13 14  1  0
 14 15  1  0
 15 16  1  0
 16 17  1  0
 11 18  1  0
 18 19  2  0
  3 20  1  0
 20 21  1  0
 21 22  2  0
 21 23  1  0
 23 24  1  0
 23 25  1  0
 19  8  1  0
 17 12  1  0
  1 26  1  0
  1 27  1  0
  1 28  1  0
  2 29  1  0
  2 30  1  0
  3 31  1  1
  4 32  1  0
  4 33  1  0
  9 34  1  0
 10 35  1  0
 13 36  1  0
 13 37  1  0
 14 38  1  0
 14 39  1  0
 16 40  1  0
 16 41  1  0
 17 42  1  0
 17 43  1  0
 18 44  1  0
 19 45  1  0
 20 46  1  0
 20 47  1  0
 24 48  1  0
 24 49  1  0
 24 50  1  0
 25 51  1  0
 25 52  1  0
 25 53  1  0
M  CHG  2   3   1   7  -1
M  END
>  <UniqueID>  (41) 
39

>  <SMILES>  (41) 
CC[N@H+](CC(=O)[N-]c1ccc(N2CCOCC2)cc1)CC(=O)N(C)C

>  <Energy>  (41) 
68.2023021533512

>  <Genealogy>  (41) 
CC[NH+](CC(=O)[N-]c1ccc(N2CCOCC2)cc1)CC(=O)N(C)C (protonated)
CC[N@H+](CC(=O)[N-]c1ccc(N2CCOCC2)cc1)CC(=O)N(C)C (chirality)
CC[N@H+](CC(=O)[N-]c1ccc(N2CCOCC2)cc1)CC(=O)N(C)C (3D coordinates assigned)
CC[N@H+](CC(=O)[N-]c1ccc(N2CCOCC2)cc1)CC(=O)N(C)C (nonaromatic ring conformer: 68.2023021533512 kcal/mol)

>  <smiles>  (41) 
CCN(CC(=O)Nc1ccc(N2CCOCC2)cc1)CC(=O)N(C)C

>  <score_type>  (41) 
oracle

>  <origin>  (41) 
adg

>  <m_score__min__energy>  (41) 
-8.3399999999999999

>  <m_primary>  (41) 
energy

$$$$
41:0
     RDKit          3D

 51 53  0  0  0  0  0  0  0  0999 V2000
   -8.7990   20.5780  -32.3320 C   0  0  0  0  0  0  0  0  0  0  0  0
   -8.4520   21.8940  -31.9160 O   0  0  0  0  0  0  0  0  0  0  0  0
   -7.2060   22.2520  -31.3780 C   0  0  0  0  0  0  0  0  0  0  0  0
   -7.1520   22.6590  -30.0400 C   0  0  0  0  0  0  0  0  0  0  0  0
   -5.9370   23.0310  -29.4590 C   0  0  0  0  0  0  0  0  0  0  0  0
   -4.7530   23.0090  -30.2150 C   0  0  0  0  0  0  0  0  0  0  0  0
   -3.4610   23.4290  -29.6120 C   0  0  0  0  0  0  0  0  0  0  0  0
   -3.1210   24.7920  -29.6940 C   0  0  0  0  0  0  0  0  0  0  0  0
   -3.8540   25.6640  -30.4950 O   0  0  0  0  0  0  0  0  0  0  0  0
   -2.0590   25.3010  -28.9570 C   0  0  0  0  0  0  0  0  0  0  0  0
   -1.3650   24.4990  -28.0550 C   0  0  0  0  0  0  0  0  0  0  0  0
   -0.2920   25.0920  -27.3840 O   0  0  0  0  0  0  0  0  0  0  0  0
   -1.7440   23.1410  -27.8830 C   0  0  0  0  0  0  0  0  0  0  0  0
   -1.2740   22.3390  -26.8170 C   0  0  0  0  0  0  0  0  0  0  0  0
   -0.5640   22.8190  -25.8970 O   0  0  0  0  0  0  0  0  0  0  0  0
   -1.6330   21.0690  -26.7250 O   0  0  0  0  0  0  0  0  0  0  0  0
   -2.3830   20.4440  -27.6210 C   0  0  0  0  0  0  0  0  0  0  0  0
   -2.6920   18.9830  -27.3790 C   0  0  0  0  0  0  0  0  0  0  0  0
   -1.5110   18.2610  -26.7290 C   0  0  0  0  0  0  0  0  0  0  0  0
   -0.0070   18.2110  -27.9490 Br  0  0  0  0  0  0  0  0  0  0  0  0
   -2.8350   21.1420  -28.7700 C   0  0  0  0  0  0  0  0  0  0  0  0
   -3.3320   20.3720  -29.9900 C   0  0  0  0  0  0  0  0  0  0  0  0
   -2.2290   20.0890  -30.9830 C   0  0  0  0  0  0  0  0  0  0  0  0
   -1.6270   21.0530  -31.7120 C   0  0  0  0  0  0  0  0  0  0  0  0
   -2.0810   21.3830  -33.1150 C   0  0  0  0  0  0  0  0  0  0  0  0
   -0.4790   21.8130  -31.0990 C   0  0  0  0  0  0  0  0  0  0  0  0
   -2.6880   22.5620  -28.7780 C   0  0  0  0  0  0  0  0  0  0  0  0
   -4.8030   22.5880  -31.5540 C   0  0  0  0  0  0  0  0  0  0  0  0
   -6.0200   22.2160  -32.1330 C   0  0  0  0  0  0  0  0  0  0  0  0
   -8.9657   19.9458  -31.4474 H   0  0  0  0  0  0  0  0  0  0  0  0
   -9.7182   20.6145  -32.9351 H   0  0  0  0  0  0  0  0  0  0  0  0
   -7.9813   20.1565  -32.9351 H   0  0  0  0  0  0  0  0  0  0  0  0
   -8.0740   22.6862  -29.4407 H   0  0  0  0  0  0  0  0  0  0  0  0
   -5.9073   23.3426  -28.4045 H   0  0  0  0  0  0  0  0  0  0  0  0
   -1.7624   26.3521  -29.0879 H   0  0  0  0  0  0  0  0  0  0  0  0
    0.0750   24.7600  -26.5030 H   0  0  0  0  0  0  0  0  0  0  0  0
   -3.5662   18.9076  -26.7156 H   0  0  0  0  0  0  0  0  0  0  0  0
   -2.8954   18.5076  -28.3499 H   0  0  0  0  0  0  0  0  0  0  0  0
   -1.2184   18.7944  -25.8126 H   0  0  0  0  0  0  0  0  0  0  0  0
   -1.8097   17.2311  -26.4838 H   0  0  0  0  0  0  0  0  0  0  0  0
   -3.7584   19.4153  -29.6539 H   0  0  0  0  0  0  0  0  0  0  0  0
   -4.0852   20.9947  -30.4948 H   0  0  0  0  0  0  0  0  0  0  0  0
   -1.9007   19.0479  -31.1185 H   0  0  0  0  0  0  0  0  0  0  0  0
   -2.9700   22.0292  -33.0702 H   0  0  0  0  0  0  0  0  0  0  0  0
   -1.2736   21.9065  -33.6480 H   0  0  0  0  0  0  0  0  0  0  0  0
   -2.3298   20.4535  -33.6480 H   0  0  0  0  0  0  0  0  0  0  0  0
   -0.5514   21.7650  -30.0024 H   0  0  0  0  0  0  0  0  0  0  0  0
    0.4720   21.3654  -31.4236 H   0  0  0  0  0  0  0  0  0  0  0  0
   -0.5196   22.8632  -31.4236 H   0  0  0  0  0  0  0  0  0  0  0  0
   -3.8795   22.5507  -32.1505 H   0  0  0  0  0  0  0  0  0  0  0  0
   -6.0500   21.8936  -33.1843 H   0  0  0  0  0  0  0  0  0  0  0  0
  1  2  1  0
  2  3  1  0
  3  4  2  0
  4  5  1  0
  5  6  2  0
  6  7  1  0
  7  8  2  0
  8  9  1  0
  8 10  1  0
 10 11  2  0
 11 12  1  0
 11 13  1  0
 13 14  1  0
 14 15  2  0
 14 16  1  0
 16 17  1  0
 17 18  1  0
 18 19  1  0
 19 20  1  0
 17 21  2  0
 21 22  1  0
 22 23  1  0
 23 24  2  3
 24 25  1  0
 24 26  1  0
 21 27  1  0
  6 28  1  0
 28 29  2  0
 29  3  1  0
 27  7  1  0
 27 13  2  0
  1 30  1  0
  1 31  1  0
  1 32  1  0
  4 33  1  0
  5 34  1  0
 10 35  1  0
 12 36  1  0
 18 37  1  0
 18 38  1  0
 19 39  1  0
 19 40  1  0
 22 41  1  0
 22 42  1  0
 23 43  1  0
 25 44  1  0
 25 45  1  0
 25 46  1  0
 26 47  1  0
 26 48  1  0
 26 49  1  0
 28 50  1  0
 29 51  1  0
M  CHG  1   9  -1
M  END
>  <UniqueID>  (42) 
40

>  <SMILES>  (42) 
COc1ccc(-c2c([O-])cc(O)c3c(=O)oc(CCBr)c(CC=C(C)C)c23)cc1

>  <Energy>  (42) 
81.33446697104597

>  <Genealogy>  (42) 
COc1ccc(-c2c([O-])cc(O)c3c(=O)oc(CCBr)c(CC=C(C)C)c23)cc1 (protonated)
COc1ccc(-c2c([O-])cc(O)c3c(=O)oc(CCBr)c(CC=C(C)C)c23)cc1 (3D coordinates assigned)
COc1ccc(-c2c([O-])cc(O)c3c(=O)oc(CCBr)c(CC=C(C)C)c23)cc1 (optimized conformer: 81.33446697104597 kcal/mol)

>  <smiles>  (42) 
COc1ccc(-c2c(O)cc(O)c3c(=O)oc(CCBr)c(CC=C(C)C)c23)cc1

>  <score_type>  (42) 
oracle

>  <origin>  (42) 
adg

>  <m_score__min__energy>  (42) 
-9.3900000000000006

>  <m_primary>  (42) 
energy

$$$$
42:0
     RDKit          3D

 56 58  0  0  0  0  0  0  0  0999 V2000
   -9.7320   21.5840  -30.4690 C   0  0  0  0  0  0  0  0  0  0  0  0
   -9.4840   21.6560  -31.9720 C   0  0  0  0  0  0  0  0  0  0  0  0
   -8.2310   20.9550  -32.3280 N   0  0  0  0  0  0  0  0  0  0  0  0
   -7.0490   21.6410  -32.3480 C   0  0  0  0  0  0  0  0  0  0  0  0
   -7.0320   22.8660  -32.0380 O   0  0  0  0  0  0  0  0  0  0  0  0
   -5.8570   20.9900  -32.7240 C   0  0  0  0  0  0  0  0  0  0  0  0
   -4.5990   21.6300  -32.6930 C   0  0  0  0  0  0  0  0  0  0  0  0
   -4.4930   22.8230  -32.2950 O   0  0  0  0  0  0  0  0  0  0  0  0
   -3.4500   20.9250  -33.0790 C   0  0  0  0  0  0  0  0  0  0  0  0
   -2.1720   21.5060  -32.9700 C   0  0  0  0  0  0  0  0  0  0  0  0
   -1.0350   20.8100  -33.3770 C   0  0  0  0  0  0  0  0  0  0  0  0
    0.1800   21.4060  -33.2690 F   0  0  0  0  0  0  0  0  0  0  0  0
   -1.1480   19.5100  -33.8930 C   0  0  0  0  0  0  0  0  0  0  0  0
    0.0210   18.7890  -34.3340 N   0  0  0  0  0  0  0  0  0  0  0  0
   -0.2170   17.3400  -34.2490 C   0  0  0  0  0  0  0  0  0  0  0  0
    0.2520   16.7700  -32.8910 C   0  0  0  0  0  0  0  0  0  0  0  0
    0.8150   17.8300  -32.0260 N   0  0  0  0  0  0  0  0  0  0  0  0
    2.1040   17.3910  -31.4660 C   0  0  0  0  0  0  0  0  0  0  0  0
   -0.1080   18.1570  -30.9240 C   0  0  0  0  0  0  0  0  0  0  0  0
   -2.4230   18.9340  -34.0240 C   0  0  0  0  0  0  0  0  0  0  0  0
   -3.5890   19.6300  -33.6270 C   0  0  0  0  0  0  0  0  0  0  0  0
   -4.8430   19.0790  -33.7830 N   0  0  0  0  0  0  0  0  0  0  0  0
   -5.0440   18.0760  -34.8480 C   0  0  0  0  0  0  0  0  0  0  0  0
   -5.9330   19.6420  -33.1400 C   0  0  0  0  0  0  0  0  0  0  0  0
   -7.0900   18.9300  -32.8780 N   0  0  0  0  0  0  0  0  0  0  0  0
   -7.0700   17.4590  -32.6880 C   0  0  0  0  0  0  0  0  0  0  0  0
   -6.1110   17.0260  -31.5710 C   0  0  0  0  0  0  0  0  0  0  0  0
   -8.2370   19.6000  -32.5210 C   0  0  0  0  0  0  0  0  0  0  0  0
   -9.3080   18.9520  -32.3370 O   0  0  0  0  0  0  0  0  0  0  0  0
   -8.8100   21.8517  -29.9320 H   0  0  0  0  0  0  0  0  0  0  0  0
  -10.5328   22.2867  -30.1954 H   0  0  0  0  0  0  0  0  0  0  0  0
  -10.0320   20.5617  -30.1954 H   0  0  0  0  0  0  0  0  0  0  0  0
  -10.3252   21.1832  -32.5001 H   0  0  0  0  0  0  0  0  0  0  0  0
   -9.3949   22.7122  -32.2661 H   0  0  0  0  0  0  0  0  0  0  0  0
   -2.0697   22.5211  -32.5588 H   0  0  0  0  0  0  0  0  0  0  0  0
    0.8390   19.0430  -33.7300 H   0  0  0  0  0  0  0  0  0  0  0  0
    0.2600   19.0610  -35.3160 H   0  0  0  0  0  0  0  0  0  0  0  0
   -1.2936   17.1467  -34.3656 H   0  0  0  0  0  0  0  0  0  0  0  0
    0.3569   16.8475  -35.0478 H   0  0  0  0  0  0  0  0  0  0  0  0
   -0.6067   16.3098  -32.3803 H   0  0  0  0  0  0  0  0  0  0  0  0
    1.0383   16.0247  -33.0814 H   0  0  0  0  0  0  0  0  0  0  0  0
    2.0516   17.4088  -30.3674 H   0  0  0  0  0  0  0  0  0  0  0  0
    2.3221   16.3679  -31.8061 H   0  0  0  0  0  0  0  0  0  0  0  0
    2.9013   18.0683  -31.8061 H   0  0  0  0  0  0  0  0  0  0  0  0
    0.3932   17.9794  -29.9610 H   0  0  0  0  0  0  0  0  0  0  0  0
   -0.4030   19.2144  -30.9943 H   0  0  0  0  0  0  0  0  0  0  0  0
   -1.0029   17.5212  -30.9943 H   0  0  0  0  0  0  0  0  0  0  0  0
   -2.5164   17.9215  -34.4437 H   0  0  0  0  0  0  0  0  0  0  0  0
   -5.2409   17.0936  -34.3940 H   0  0  0  0  0  0  0  0  0  0  0  0
   -5.9011   18.3701  -35.4717 H   0  0  0  0  0  0  0  0  0  0  0  0
   -4.1398   18.0172  -35.4717 H   0  0  0  0  0  0  0  0  0  0  0  0
   -8.0854   17.1221  -32.4320 H   0  0  0  0  0  0  0  0  0  0  0  0
   -6.7188   17.0046  -33.6262 H   0  0  0  0  0  0  0  0  0  0  0  0
   -6.5699   17.2332  -30.5930 H   0  0  0  0  0  0  0  0  0  0  0  0
   -5.9074   15.9486  -31.6597 H   0  0  0  0  0  0  0  0  0  0  0  0
   -5.1683   17.5858  -31.6597 H   0  0  0  0  0  0  0  0  0  0  0  0
  1  2  1  0
  2  3  1  0
  3  4  1  0
  4  5  2  0
  4  6  1  0
  6  7  1  0
  7  8  2  0
  7  9  1  0
  9 10  2  0
 10 11  1  0
 11 12  1  0
 11 13  2  0
 13 14  1  0
 14 15  1  0
 15 16  1  0
 16 17  1  0
 17 18  1  0
 17 19  1  0
 13 20  1  0
 20 21  2  0
 21 22  1  0
 22 23  1  0
 22 24  1  0
 24 25  1  0
 25 26  1  0
 26 27  1  0
 25 28  1  0
 28 29  2  0
 28  3  1  0
 24  6  2  0
 21  9  1  0
  1 30  1  0
  1 31  1  0
  1 32  1  0
  2 33  1  0
  2 34  1  0
 10 35  1  0
 14 36  1  0
 14 37  1  0
 15 38  1  0
 15 39  1  0
 16 40  1  0
 16 41  1  0
 18 42  1  0
 18 43  1  0
 18 44  1  0
 19 45  1  0
 19 46  1  0
 19 47  1  0
 20 48  1  0
 23 49  1  0
 23 50  1  0
 23 51  1  0
 26 52  1  0
 26 53  1  0
 27 54  1  0
 27 55  1  0
 27 56  1  0
M  CHG  1  14   1
M  END
>  <UniqueID>  (43) 
41

>  <SMILES>  (43) 
CCn1c(=O)c2c(=O)c3cc(F)c([NH2+]CCN(C)C)cc3n(C)c2n(CC)c1=O

>  <Energy>  (43) 
100.97678331476835

>  <Genealogy>  (43) 
CCn1c(=O)c2c(=O)c3cc(F)c([NH2+]CCN(C)C)cc3n(C)c2n(CC)c1=O (protonated)
CCn1c(=O)c2c(=O)c3cc(F)c([NH2+]CCN(C)C)cc3n(C)c2n(CC)c1=O (3D coordinates assigned)
CCn1c(=O)c2c(=O)c3cc(F)c([NH2+]CCN(C)C)cc3n(C)c2n(CC)c1=O (optimized conformer: 100.97678331476835 kcal/mol)

>  <smiles>  (43) 
CCn1c(=O)c2c(=O)c3cc(F)c(NCCN(C)C)cc3n(C)c2n(CC)c1=O

>  <score_type>  (43) 
oracle

>  <origin>  (43) 
adg

>  <m_score__min__energy>  (43) 
-6.8700000000000001

>  <m_primary>  (43) 
energy

$$$$
43:0
     RDKit          3D

 45 45  0  0  0  0  0  0  0  0999 V2000
   -7.4790   23.0700  -31.9000 C   0  0  0  0  0  0  0  0  0  0  0  0
   -8.0630   21.8880  -31.1290 C   0  0  0  0  0  0  0  0  0  0  0  0
   -7.7610   20.6080  -31.8110 N   0  0  0  0  0  0  0  0  0  0  0  0
   -8.9990   19.8210  -32.0140 C   0  0  0  0  0  0  0  0  0  0  0  0
   -8.7770   18.3510  -31.6620 C   0  0  0  0  0  0  0  0  0  0  0  0
   -7.0220   20.8210  -33.0840 C   0  0  0  0  0  0  0  0  0  0  0  0
   -6.1250   19.6080  -33.3580 C   0  0  0  0  0  0  0  0  0  0  0  0
   -4.8510   19.5900  -32.4930 C   0  0  0  0  0  0  0  0  0  0  0  0
   -3.9040   20.7780  -32.7310 C   0  0  0  0  0  0  0  0  0  0  0  0
   -3.7390   21.6390  -31.5040 C   0  0  0  0  0  0  0  0  0  0  0  0
   -3.3180   21.0690  -30.2930 C   0  0  0  0  0  0  0  0  0  0  0  0
   -3.1190   21.8720  -29.1610 C   0  0  0  0  0  0  0  0  0  0  0  0
   -2.7020   21.2510  -27.8600 C   0  0  0  0  0  0  0  0  0  0  0  0
   -3.3740   23.2500  -29.2350 C   0  0  0  0  0  0  0  0  0  0  0  0
   -3.8020   23.8310  -30.4430 C   0  0  0  0  0  0  0  0  0  0  0  0
   -4.0550   25.2050  -30.5690 O   0  0  0  0  0  0  0  0  0  0  0  0
   -5.3440   25.8000  -30.4610 C   0  0  0  0  0  0  0  0  0  0  0  0
   -3.9830   23.0190  -31.5680 C   0  0  0  0  0  0  0  0  0  0  0  0
   -7.1069   23.8231  -31.1899 H   0  0  0  0  0  0  0  0  0  0  0  0
   -6.6495   22.7212  -32.5327 H   0  0  0  0  0  0  0  0  0  0  0  0
   -8.2600   23.5169  -32.5327 H   0  0  0  0  0  0  0  0  0  0  0  0
   -7.6293   21.8682  -30.1183 H   0  0  0  0  0  0  0  0  0  0  0  0
   -9.1552   22.0084  -31.0774 H   0  0  0  0  0  0  0  0  0  0  0  0
   -9.7937   20.2286  -31.3719 H   0  0  0  0  0  0  0  0  0  0  0  0
   -9.2872   19.8881  -33.0734 H   0  0  0  0  0  0  0  0  0  0  0  0
   -8.7594   18.2345  -30.5683 H   0  0  0  0  0  0  0  0  0  0  0  0
   -9.5940   17.7459  -32.0821 H   0  0  0  0  0  0  0  0  0  0  0  0
   -7.8178   18.0142  -32.0821 H   0  0  0  0  0  0  0  0  0  0  0  0
   -7.7390   20.9417  -33.9094 H   0  0  0  0  0  0  0  0  0  0  0  0
   -6.4028   21.7266  -33.0037 H   0  0  0  0  0  0  0  0  0  0  0  0
   -6.7006   18.6935  -33.1522 H   0  0  0  0  0  0  0  0  0  0  0  0
   -5.8065   19.6669  -34.4092 H   0  0  0  0  0  0  0  0  0  0  0  0
   -5.1533   19.5976  -31.4354 H   0  0  0  0  0  0  0  0  0  0  0  0
   -4.2941   18.6838  -32.7736 H   0  0  0  0  0  0  0  0  0  0  0  0
   -2.9177   20.3897  -33.0248 H   0  0  0  0  0  0  0  0  0  0  0  0
   -4.3440   21.4034  -33.5218 H   0  0  0  0  0  0  0  0  0  0  0  0
   -3.1429   19.9848  -30.2313 H   0  0  0  0  0  0  0  0  0  0  0  0
   -3.1013   21.8457  -27.0252 H   0  0  0  0  0  0  0  0  0  0  0  0
   -3.0951   20.2254  -27.8006 H   0  0  0  0  0  0  0  0  0  0  0  0
   -1.6039   21.2268  -27.8006 H   0  0  0  0  0  0  0  0  0  0  0  0
   -3.2385   23.8797  -28.3433 H   0  0  0  0  0  0  0  0  0  0  0  0
   -5.6045   25.9203  -29.3991 H   0  0  0  0  0  0  0  0  0  0  0  0
   -5.3353   26.7852  -30.9502 H   0  0  0  0  0  0  0  0  0  0  0  0
   -6.0881   25.1543  -30.9502 H   0  0  0  0  0  0  0  0  0  0  0  0
   -4.3206   23.4680  -32.5138 H   0  0  0  0  0  0  0  0  0  0  0  0
  1  2  1  0
  2  3  1  0
  3  4  1  0
  4  5  1  0
  3  6  1  0
  6  7  1  0
  7  8  1  0
  8  9  1  0
  9 10  1  0
 10 11  2  0
 11 12  1  0
 12 13  1  0
 12 14  2  0
 14 15  1  0
 15 16  1  0
 16 17  1  0
 15 18  2  0
 18 10  1  0
  1 19  1  0
  1 20  1  0
  1 21  1  0
  2 22  1  0
  2 23  1  0
  4 24  1  0
  4 25  1  0
  5 26  1  0
  5 27  1  0
  5 28  1  0
  6 29  1  0
  6 30  1  0
  7 31  1  0
  7 32  1  0
  8 33  1  0
  8 34  1  0
  9 35  1  0
  9 36  1  0
 11 37  1  0
 13 38  1  0
 13 39  1  0
 13 40  1  0
 14 41  1  0
 17 42  1  0
 17 43  1  0
 17 44  1  0
 18 45  1  0
M  END
>  <UniqueID>  (44) 
42

>  <SMILES>  (44) 
CCN(CC)CCCCc1cc(C)cc(OC)c1

>  <Energy>  (44) 
34.152333282375146

>  <Genealogy>  (44) 
CCN(CC)CCCCc1cc(C)cc(OC)c1 (3D coordinates assigned)
CCN(CC)CCCCc1cc(C)cc(OC)c1 (optimized conformer: 34.152333282375146 kcal/mol)

>  <smiles>  (44) 
CCN(CC)CCCCc1cc(C)cc(OC)c1

>  <score_type>  (44) 
oracle

>  <origin>  (44) 
adg

>  <m_score__min__energy>  (44) 
-6.75

>  <m_primary>  (44) 
energy

$$$$
44:0
     RDKit          3D

 51 52  0  0  0  0  0  0  0  0999 V2000
   -2.2180   21.2330  -32.8330 C   0  0  0  0  0  0  0  0  0  0  0  0
   -1.6320   21.8030  -31.5430 C   0  0  0  0  0  0  0  0  0  0  0  0
   -2.7110   22.2240  -30.6220 N   0  0  0  0  0  0  0  0  0  0  0  0
   -3.3620   21.0500  -29.9930 C   0  0  0  0  0  0  0  0  0  0  0  0
   -2.7820   20.7910  -28.6040 C   0  0  0  0  0  0  0  0  0  0  0  0
   -2.2260   23.1950  -29.6040 C   0  0  0  0  0  0  0  0  0  0  0  0
   -3.1380   24.4270  -29.5690 C   0  0  0  0  0  0  0  0  0  0  0  0
   -4.5190   24.1720  -28.9340 C   0  0  0  0  0  0  0  0  0  0  0  0
   -5.6350   23.9510  -29.9690 C   0  0  0  0  0  0  0  0  0  0  0  0
   -5.0670   23.7570  -31.3100 N   0  0  0  0  0  0  0  0  0  0  0  0
   -6.1050   23.7780  -32.3470 C   0  0  0  0  0  0  0  0  0  0  0  0
   -7.0870   22.6500  -32.1210 C   0  0  0  0  0  0  0  0  0  0  0  0
   -8.3560   22.9540  -31.6010 C   0  0  0  0  0  0  0  0  0  0  0  0
   -9.3020   21.9460  -31.4340 C   0  0  0  0  0  0  0  0  0  0  0  0
   -9.0090   20.6670  -31.7810 N   0  0  0  0  0  0  0  0  0  0  0  0
   -7.7970   20.3220  -32.2890 C   0  0  0  0  0  0  0  0  0  0  0  0
   -7.5540   18.9910  -32.6470 C   0  0  0  0  0  0  0  0  0  0  0  0
   -6.3110   18.6140  -33.1730 C   0  0  0  0  0  0  0  0  0  0  0  0
   -6.0730   17.1950  -33.6030 C   0  0  0  0  0  0  0  0  0  0  0  0
   -5.3180   19.5820  -33.3610 C   0  0  0  0  0  0  0  0  0  0  0  0
   -5.5470   20.9130  -33.0010 C   0  0  0  0  0  0  0  0  0  0  0  0
   -6.7920   21.3050  -32.4670 C   0  0  0  0  0  0  0  0  0  0  0  0
   -2.9866   20.4854  -32.5876 H   0  0  0  0  0  0  0  0  0  0  0  0
   -2.6710   22.0454  -33.4203 H   0  0  0  0  0  0  0  0  0  0  0  0
   -1.4185   20.7577  -33.4203 H   0  0  0  0  0  0  0  0  0  0  0  0
   -1.0188   21.0323  -31.0531 H   0  0  0  0  0  0  0  0  0  0  0  0
   -1.0153   22.6795  -31.7907 H   0  0  0  0  0  0  0  0  0  0  0  0
   -4.4417   21.2405  -29.9037 H   0  0  0  0  0  0  0  0  0  0  0  0
   -3.1813   20.1660  -30.6222 H   0  0  0  0  0  0  0  0  0  0  0  0
   -3.5039   21.1134  -27.8392 H   0  0  0  0  0  0  0  0  0  0  0  0
   -2.5784   19.7164  -28.4862 H   0  0  0  0  0  0  0  0  0  0  0  0
   -1.8460   21.3566  -28.4862 H   0  0  0  0  0  0  0  0  0  0  0  0
   -2.2266   22.7145  -28.6145 H   0  0  0  0  0  0  0  0  0  0  0  0
   -1.2060   23.5114  -29.8678 H   0  0  0  0  0  0  0  0  0  0  0  0
   -2.6324   25.2144  -28.9907 H   0  0  0  0  0  0  0  0  0  0  0  0
   -3.3191   24.7164  -30.6147 H   0  0  0  0  0  0  0  0  0  0  0  0
   -4.4507   23.2770  -28.2982 H   0  0  0  0  0  0  0  0  0  0  0  0
   -4.7831   25.0713  -28.3583 H   0  0  0  0  0  0  0  0  0  0  0  0
   -6.2152   23.0591  -29.6899 H   0  0  0  0  0  0  0  0  0  0  0  0
   -6.2845   24.8386  -29.9845 H   0  0  0  0  0  0  0  0  0  0  0  0
   -4.6080   22.8160  -31.3300 H   0  0  0  0  0  0  0  0  0  0  0  0
   -6.6391   24.7389  -32.3080 H   0  0  0  0  0  0  0  0  0  0  0  0
   -5.6326   23.6526  -33.3325 H   0  0  0  0  0  0  0  0  0  0  0  0
   -8.6028   23.9899  -31.3253 H   0  0  0  0  0  0  0  0  0  0  0  0
  -10.2916   22.1875  -31.0188 H   0  0  0  0  0  0  0  0  0  0  0  0
   -8.3433   18.2364  -32.5147 H   0  0  0  0  0  0  0  0  0  0  0  0
   -5.9658   16.5557  -32.7143 H   0  0  0  0  0  0  0  0  0  0  0  0
   -6.9252   16.8464  -34.2048 H   0  0  0  0  0  0  0  0  0  0  0  0
   -5.1537   17.1435  -34.2048 H   0  0  0  0  0  0  0  0  0  0  0  0
   -4.3496   19.2931  -33.7955 H   0  0  0  0  0  0  0  0  0  0  0  0
   -4.7506   21.6599  -33.1351 H   0  0  0  0  0  0  0  0  0  0  0  0
  1  2  1  0
  2  3  1  0
  3  4  1  0
  4  5  1  0
  3  6  1  0
  6  7  1  0
  7  8  1  0
  8  9  1  0
  9 10  1  0
 10 11  1  0
 11 12  1  0
 12 13  2  0
 13 14  1  0
 14 15  2  0
 15 16  1  0
 16 17  2  0
 17 18  1  0
 18 19  1  0
 18 20  2  0
 20 21  1  0
 21 22  2  0
 22 12  1  0
 22 16  1  0
  1 23  1  0
  1 24  1  0
  1 25  1  0
  2 26  1  0
  2 27  1  0
  4 28  1  0
  4 29  1  0
  5 30  1  0
  5 31  1  0
  5 32  1  0
  6 33  1  0
  6 34  1  0
  7 35  1  0
  7 36  1  0
  8 37  1  0
  8 38  1  0
  9 39  1  0
  9 40  1  0
 10 41  1  0
 11 42  1  0
 11 43  1  0
 13 44  1  0
 14 45  1  0
 17 46  1  0
 19 47  1  0
 19 48  1  0
 19 49  1  0
 20 50  1  0
 21 51  1  0
M  END
>  <UniqueID>  (45) 
43

>  <SMILES>  (45) 
CCN(CC)CCCCNCc1ccnc2cc(C)ccc12

>  <Energy>  (45) 
47.52109893006984

>  <Genealogy>  (45) 
CCN(CC)CCCCNCc1ccnc2cc(C)ccc12 (3D coordinates assigned)
CCN(CC)CCCCNCc1ccnc2cc(C)ccc12 (optimized conformer: 47.52109893006984 kcal/mol)

>  <smiles>  (45) 
CCN(CC)CCCCNCc1ccnc2cc(C)ccc12

>  <score_type>  (45) 
oracle

>  <origin>  (45) 
adg

>  <m_score__min__energy>  (45) 
-7.7800000000000002

>  <m_primary>  (45) 
energy

$$$$
45:0
     RDKit          3D

 35 36  0  0  0  0  0  0  0  0999 V2000
   -7.9450   18.2780  -31.9690 C   0  0  0  0  0  0  0  0  0  0  0  0
   -9.1110   19.2590  -31.9670 C   0  0  0  0  0  0  0  0  0  0  0  0
   -8.6190   20.6260  -31.8370 N   0  0  0  0  0  0  0  0  0  0  0  0
   -7.3750   20.9850  -31.4690 C   0  0  0  0  0  0  0  0  0  0  0  0
   -7.2920   22.3600  -31.5480 C   0  0  0  0  0  0  0  0  0  0  0  0
   -6.1480   23.2180  -31.1800 C   0  0  0  0  0  0  0  0  0  0  0  0
   -6.4000   24.5680  -30.8950 C   0  0  0  0  0  0  0  0  0  0  0  0
   -5.3500   25.4100  -30.5310 C   0  0  0  0  0  0  0  0  0  0  0  0
   -4.0830   24.9290  -30.4670 N   0  0  0  0  0  0  0  0  0  0  0  0
   -3.7970   23.6320  -30.7510 C   0  0  0  0  0  0  0  0  0  0  0  0
   -4.8150   22.7360  -31.1150 C   0  0  0  0  0  0  0  0  0  0  0  0
   -4.4150   21.3350  -31.5310 C   0  0  0  0  0  0  0  0  0  0  0  0
   -4.3500   21.2290  -33.0030 N   0  0  0  0  0  0  0  0  0  0  0  0
   -2.9450   21.1970  -33.4430 C   0  0  0  0  0  0  0  0  0  0  0  0
   -5.0370   20.0130  -33.4730 C   0  0  0  0  0  0  0  0  0  0  0  0
   -8.5460   22.7780  -31.9520 C   0  0  0  0  0  0  0  0  0  0  0  0
   -9.3330   21.6990  -32.1390 N   0  0  0  0  0  0  0  0  0  0  0  0
   -7.6634   18.0411  -30.9324 H   0  0  0  0  0  0  0  0  0  0  0  0
   -8.2432   17.3551  -32.4880 H   0  0  0  0  0  0  0  0  0  0  0  0
   -7.0867   18.7296  -32.4880 H   0  0  0  0  0  0  0  0  0  0  0  0
   -9.6692   19.1619  -32.9099 H   0  0  0  0  0  0  0  0  0  0  0  0
   -9.7695   19.0321  -31.1156 H   0  0  0  0  0  0  0  0  0  0  0  0
   -6.5684   20.3037  -31.1603 H   0  0  0  0  0  0  0  0  0  0  0  0
   -7.4250   24.9621  -30.9586 H   0  0  0  0  0  0  0  0  0  0  0  0
   -5.5491   26.4658  -30.2954 H   0  0  0  0  0  0  0  0  0  0  0  0
   -2.7565   23.2796  -30.6952 H   0  0  0  0  0  0  0  0  0  0  0  0
   -3.4273   21.1002  -31.1076 H   0  0  0  0  0  0  0  0  0  0  0  0
   -5.1675   20.6252  -31.1570 H   0  0  0  0  0  0  0  0  0  0  0  0
   -2.2854   21.1820  -32.5628 H   0  0  0  0  0  0  0  0  0  0  0  0
   -2.7705   20.2946  -34.0474 H   0  0  0  0  0  0  0  0  0  0  0  0
   -2.7296   22.0905  -34.0474 H   0  0  0  0  0  0  0  0  0  0  0  0
   -5.3706   19.4224  -32.6070 H   0  0  0  0  0  0  0  0  0  0  0  0
   -5.9086   20.2962  -34.0814 H   0  0  0  0  0  0  0  0  0  0  0  0
   -4.3446   19.4126  -34.0814 H   0  0  0  0  0  0  0  0  0  0  0  0
   -8.8531   23.8242  -32.0978 H   0  0  0  0  0  0  0  0  0  0  0  0
  1  2  1  0
  2  3  1  0
  3  4  1  0
  4  5  2  0
  5  6  1  0
  6  7  2  0
  7  8  1  0
  8  9  2  0
  9 10  1  0
 10 11  2  0
 11 12  1  0
 12 13  1  0
 13 14  1  0
 13 15  1  0
  5 16  1  0
 16 17  2  0
 17  3  1  0
 11  6  1  0
  1 18  1  0
  1 19  1  0
  1 20  1  0
  2 21  1  0
  2 22  1  0
  4 23  1  0
  7 24  1  0
  8 25  1  0
 10 26  1  0
 12 27  1  0
 12 28  1  0
 14 29  1  0
 14 30  1  0
 14 31  1  0
 15 32  1  0
 15 33  1  0
 15 34  1  0
 16 35  1  0
M  END
>  <UniqueID>  (46) 
44

>  <SMILES>  (46) 
CCn1cc(-c2ccncc2CN(C)C)cn1

>  <Energy>  (46) 
68.71265188249829

>  <Genealogy>  (46) 
CCn1cc(-c2ccncc2CN(C)C)cn1 (3D coordinates assigned)
CCn1cc(-c2ccncc2CN(C)C)cn1 (optimized conformer: 68.71265188249829 kcal/mol)

>  <smiles>  (46) 
CCn1cc(-c2ccncc2CN(C)C)cn1

>  <score_type>  (46) 
oracle

>  <origin>  (46) 
adg

>  <m_score__min__energy>  (46) 
-6.7000000000000002

>  <m_primary>  (46) 
energy

$$$$
46:0
     RDKit          3D

 43 45  0  0  0  0  0  0  0  0999 V2000
   -5.1850   13.9570  -33.6000 C   0  0  0  0  0  0  0  0  0  0  0  0
   -6.0200   15.0940  -34.2140 C   0  0  0  0  0  0  0  0  0  0  0  0
   -5.6880   16.4470  -33.7010 N   0  0  0  0  0  0  0  0  0  0  0  0
   -5.0810   17.3080  -34.7390 C   0  0  0  0  0  0  0  0  0  0  0  0
   -4.5680   18.6100  -34.1090 C   0  0  0  0  0  0  0  0  0  0  0  0
   -5.5920   19.2120  -33.2470 N   0  0  0  0  0  0  0  0  0  0  0  0
   -5.3160   20.4650  -32.5940 C   0  0  0  0  0  0  0  0  0  0  0  0
   -6.2420   21.4520  -32.4690 N   0  0  0  0  0  0  0  0  0  0  0  0
   -5.5630   22.4050  -31.8130 C   0  0  0  0  0  0  0  0  0  0  0  0
   -6.0250   23.6540  -31.4160 C   0  0  0  0  0  0  0  0  0  0  0  0
   -5.1250   24.5090  -30.7310 C   0  0  0  0  0  0  0  0  0  0  0  0
   -5.5030   25.7910  -30.3040 O   0  0  0  0  0  0  0  0  0  0  0  0
   -6.4870   26.0490  -29.3080 C   0  0  0  0  0  0  0  0  0  0  0  0
   -3.8000   24.0740  -30.4640 C   0  0  0  0  0  0  0  0  0  0  0  0
   -2.9410   24.9480  -29.7800 O   0  0  0  0  0  0  0  0  0  0  0  0
   -2.2820   24.6370  -28.5560 C   0  0  0  0  0  0  0  0  0  0  0  0
   -3.3770   22.7900  -30.8890 C   0  0  0  0  0  0  0  0  0  0  0  0
   -4.2940   21.9910  -31.5630 C   0  0  0  0  0  0  0  0  0  0  0  0
   -4.1050   20.7550  -32.0470 N   0  0  0  0  0  0  0  0  0  0  0  0
   -6.9290   18.6100  -33.1850 C   0  0  0  0  0  0  0  0  0  0  0  0
   -6.8400   17.0810  -32.9950 C   0  0  0  0  0  0  0  0  0  0  0  0
   -5.2310   14.0196  -32.5027 H   0  0  0  0  0  0  0  0  0  0  0  0
   -5.5874   12.9876  -33.9291 H   0  0  0  0  0  0  0  0  0  0  0  0
   -4.1396   14.0508  -33.9291 H   0  0  0  0  0  0  0  0  0  0  0  0
   -5.8588   15.0899  -35.3021 H   0  0  0  0  0  0  0  0  0  0  0  0
   -7.0660   14.9008  -33.9338 H   0  0  0  0  0  0  0  0  0  0  0  0
   -4.9440   16.2920  -32.9770 H   0  0  0  0  0  0  0  0  0  0  0  0
   -4.2410   16.7751  -35.2084 H   0  0  0  0  0  0  0  0  0  0  0  0
   -5.8409   17.5492  -35.4968 H   0  0  0  0  0  0  0  0  0  0  0  0
   -3.6735   18.3913  -33.5073 H   0  0  0  0  0  0  0  0  0  0  0  0
   -4.3246   19.3187  -34.9143 H   0  0  0  0  0  0  0  0  0  0  0  0
   -7.0574   23.9697  -31.6268 H   0  0  0  0  0  0  0  0  0  0  0  0
   -6.0386   25.9314  -28.3104 H   0  0  0  0  0  0  0  0  0  0  0  0
   -6.8636   27.0762  -29.4220 H   0  0  0  0  0  0  0  0  0  0  0  0
   -7.3191   25.3387  -29.4220 H   0  0  0  0  0  0  0  0  0  0  0  0
   -2.9183   24.9373  -27.7104 H   0  0  0  0  0  0  0  0  0  0  0  0
   -2.0927   23.5545  -28.5062 H   0  0  0  0  0  0  0  0  0  0  0  0
   -1.3261   25.1790  -28.5062 H   0  0  0  0  0  0  0  0  0  0  0  0
   -2.3543   22.4361  -30.6917 H   0  0  0  0  0  0  0  0  0  0  0  0
   -7.4807   19.0459  -32.3391 H   0  0  0  0  0  0  0  0  0  0  0  0
   -7.4495   18.8153  -34.1320 H   0  0  0  0  0  0  0  0  0  0  0  0
   -6.7443   16.8712  -31.9194 H   0  0  0  0  0  0  0  0  0  0  0  0
   -7.7547   16.6527  -33.4307 H   0  0  0  0  0  0  0  0  0  0  0  0
  1  2  1  0
  2  3  1  0
  3  4  1  0
  4  5  1  0
  5  6  1  0
  6  7  1  0
  7  8  2  0
  8  9  1  0
  9 10  2  0
 10 11  1  0
 11 12  1  0
 12 13  1  0
 11 14  2  0
 14 15  1  0
 15 16  1  0
 14 17  1  0
 17 18  2  0
 18 19  1  0
  6 20  1  0
 20 21  1  0
 21  3  1  0
 19  7  1  0
 18  9  1  0
  1 22  1  0
  1 23  1  0
  1 24  1  0
  2 25  1  0
  2 26  1  0
  3 27  1  0
  4 28  1  0
  4 29  1  0
  5 30  1  0
  5 31  1  0
 10 32  1  0
 13 33  1  0
 13 34  1  0
 13 35  1  0
 16 36  1  0
 16 37  1  0
 16 38  1  0
 17 39  1  0
 20 40  1  0
 20 41  1  0
 21 42  1  0
 21 43  1  0
M  CHG  2   3   1  19  -1
M  END
>  <UniqueID>  (47) 
45

>  <SMILES>  (47) 
CC[NH+]1CCN(c2nc3cc(OC)c(OC)cc3[n-]2)CC1

>  <Energy>  (47) 
84.83900971886312

>  <Genealogy>  (47) 
CC[NH+]1CCN(c2nc3cc(OC)c(OC)cc3[n-]2)CC1 (protonated)
CC[NH+]1CCN(c2nc3cc(OC)c(OC)cc3[n-]2)CC1 (3D coordinates assigned)
CC[NH+]1CCN(c2nc3cc(OC)c(OC)cc3[n-]2)CC1 (nonaromatic ring conformer: 84.83900971886312 kcal/mol)

>  <smiles>  (47) 
CCN1CCN(c2nc3cc(OC)c(OC)cc3[nH]2)CC1

>  <score_type>  (47) 
oracle

>  <origin>  (47) 
adg

>  <m_score__min__energy>  (47) 
-6.0499999999999998

>  <m_primary>  (47) 
energy

$$$$
47:0
     RDKit          3D

 59 62  0  0  0  0  0  0  0  0999 V2000
   -0.6100   28.0580  -24.4710 C   0  0  0  0  0  0  0  0  0  0  0  0
   -0.8090   26.7170  -23.7440 C   0  0  0  0  0  0  0  0  0  0  0  0
    0.3060   25.7510  -23.9350 N   0  0  0  0  0  0  0  0  0  0  0  0
    1.5720   26.4560  -24.2630 C   0  0  0  0  0  0  0  0  0  0  0  0
    2.8110   25.7060  -23.7630 C   0  0  0  0  0  0  0  0  0  0  0  0
   -0.0430   24.6980  -24.9360 C   0  0  0  0  0  0  0  0  0  0  0  0
   -1.1300   25.1590  -25.9260 C   0  0  0  0  0  0  0  0  0  0  0  0
   -1.7960   24.0180  -26.5610 N   0  0  0  0  0  0  0  0  0  0  0  0
   -2.7060   24.1530  -27.6690 C   0  0  0  0  0  0  0  0  0  0  0  0
   -2.2710   24.0410  -29.0040 C   0  0  0  0  0  0  0  0  0  0  0  0
   -3.1810   24.1750  -30.0580 C   0  0  0  0  0  0  0  0  0  0  0  0
   -4.5360   24.4290  -29.7980 C   0  0  0  0  0  0  0  0  0  0  0  0
   -5.5230   24.5320  -30.9300 C   0  0  0  0  0  0  0  0  0  0  0  0
   -6.0030   23.1610  -31.3360 C   0  0  0  0  0  0  0  0  0  0  0  0
   -7.2610   22.7060  -30.9140 C   0  0  0  0  0  0  0  0  0  0  0  0
   -7.6860   21.4900  -31.2300 O   0  0  0  0  0  0  0  0  0  0  0  0
   -6.9590   20.6370  -31.9450 C   0  0  0  0  0  0  0  0  0  0  0  0
   -7.4740   19.3710  -32.2400 C   0  0  0  0  0  0  0  0  0  0  0  0
   -6.7220   18.4570  -32.9900 C   0  0  0  0  0  0  0  0  0  0  0  0
   -7.2350   17.1840  -33.2870 C   0  0  0  0  0  0  0  0  0  0  0  0
   -6.4770   16.2790  -34.0350 C   0  0  0  0  0  0  0  0  0  0  0  0
   -5.2050   16.6350  -34.4920 C   0  0  0  0  0  0  0  0  0  0  0  0
   -4.6830   17.8990  -34.2030 C   0  0  0  0  0  0  0  0  0  0  0  0
   -5.4340   18.8180  -33.4520 C   0  0  0  0  0  0  0  0  0  0  0  0
   -4.9170   20.0890  -33.1570 C   0  0  0  0  0  0  0  0  0  0  0  0
   -5.6750   21.0050  -32.4050 C   0  0  0  0  0  0  0  0  0  0  0  0
   -5.1940   22.2880  -32.0860 C   0  0  0  0  0  0  0  0  0  0  0  0
   -4.0500   22.6550  -32.4700 O   0  0  0  0  0  0  0  0  0  0  0  0
   -4.9730   24.5340  -28.4690 C   0  0  0  0  0  0  0  0  0  0  0  0
   -4.0640   24.4010  -27.4150 C   0  0  0  0  0  0  0  0  0  0  0  0
   -0.4906   28.8624  -23.7303 H   0  0  0  0  0  0  0  0  0  0  0  0
    0.2899   28.0034  -25.1013 H   0  0  0  0  0  0  0  0  0  0  0  0
   -1.4870   28.2671  -25.1013 H   0  0  0  0  0  0  0  0  0  0  0  0
   -0.9101   26.9194  -22.6675 H   0  0  0  0  0  0  0  0  0  0  0  0
   -1.7081   26.2528  -24.1754 H   0  0  0  0  0  0  0  0  0  0  0  0
    0.4380   25.3080  -22.9930 H   0  0  0  0  0  0  0  0  0  0  0  0
    1.6424   26.5636  -25.3555 H   0  0  0  0  0  0  0  0  0  0  0  0
    1.5488   27.4337  -23.7595 H   0  0  0  0  0  0  0  0  0  0  0  0
    2.8180   25.7018  -22.6630 H   0  0  0  0  0  0  0  0  0  0  0  0
    2.7872   24.6705  -24.1335 H   0  0  0  0  0  0  0  0  0  0  0  0
    3.7174   26.2072  -24.1335 H   0  0  0  0  0  0  0  0  0  0  0  0
    0.8626   24.4372  -25.5034 H   0  0  0  0  0  0  0  0  0  0  0  0
   -0.4396   23.8326  -24.3849 H   0  0  0  0  0  0  0  0  0  0  0  0
   -1.8794   25.7535  -25.3829 H   0  0  0  0  0  0  0  0  0  0  0  0
   -0.6490   25.7596  -26.7121 H   0  0  0  0  0  0  0  0  0  0  0  0
   -1.6010   23.0570  -26.2010 H   0  0  0  0  0  0  0  0  0  0  0  0
   -1.2098   23.8471  -29.2190 H   0  0  0  0  0  0  0  0  0  0  0  0
   -2.8320   24.0806  -31.0969 H   0  0  0  0  0  0  0  0  0  0  0  0
   -6.3835   25.1362  -30.6067 H   0  0  0  0  0  0  0  0  0  0  0  0
   -5.0298   25.0067  -31.7911 H   0  0  0  0  0  0  0  0  0  0  0  0
   -7.9035   23.3664  -30.3131 H   0  0  0  0  0  0  0  0  0  0  0  0
   -8.4754   19.0909  -31.8812 H   0  0  0  0  0  0  0  0  0  0  0  0
   -8.2356   16.8985  -32.9301 H   0  0  0  0  0  0  0  0  0  0  0  0
   -6.8829   15.2828  -34.2649 H   0  0  0  0  0  0  0  0  0  0  0  0
   -4.6132   15.9186  -35.0806 H   0  0  0  0  0  0  0  0  0  0  0  0
   -3.6814   18.1747  -34.5647 H   0  0  0  0  0  0  0  0  0  0  0  0
   -3.9156   20.3699  -33.5151 H   0  0  0  0  0  0  0  0  0  0  0  0
   -6.0356   24.7218  -28.2552 H   0  0  0  0  0  0  0  0  0  0  0  0
   -4.4164   24.4916  -26.3769 H   0  0  0  0  0  0  0  0  0  0  0  0
  1  2  1  0
  2  3  1  0
  3  4  1  0
  4  5  1  0
  3  6  1  0
  6  7  1  0
  7  8  1  0
  8  9  1  0
  9 10  2  0
 10 11  1  0
 11 12  2  0
 12 13  1  0
 13 14  1  0
 14 15  2  0
 15 16  1  0
 16 17  1  0
 17 18  2  0
 18 19  1  0
 19 20  2  0
 20 21  1  0
 21 22  2  0
 22 23  1  0
 23 24  2  0
 24 25  1  0
 25 26  2  0
 26 27  1  0
 27 28  2  0
 12 29  1  0
 29 30  2  0
 30  9  1  0
 27 14  1  0
 26 17  1  0
 24 19  1  0
  1 31  1  0
  1 32  1  0
  1 33  1  0
  2 34  1  0
  2 35  1  0
  3 36  1  0
  4 37  1  0
  4 38  1  0
  5 39  1  0
  5 40  1  0
  5 41  1  0
  6 42  1  0
  6 43  1  0
  7 44  1  0
  7 45  1  0
  8 46  1  0
 10 47  1  0
 11 48  1  0
 13 49  1  0
 13 50  1  0
 15 51  1  0
 18 52  1  0
 20 53  1  0
 21 54  1  0
 22 55  1  0
 23 56  1  0
 25 57  1  0
 29 58  1  0
 30 59  1  0
M  CHG  1   3   1
M  END
>  <UniqueID>  (48) 
46

>  <SMILES>  (48) 
CC[NH+](CC)CCNc1ccc(Cc2coc3cc4ccccc4cc3c2=O)cc1

>  <Energy>  (48) 
72.78759192596235

>  <Genealogy>  (48) 
CC[NH+](CC)CCNc1ccc(Cc2coc3cc4ccccc4cc3c2=O)cc1 (protonated)
CC[NH+](CC)CCNc1ccc(Cc2coc3cc4ccccc4cc3c2=O)cc1 (3D coordinates assigned)
CC[NH+](CC)CCNc1ccc(Cc2coc3cc4ccccc4cc3c2=O)cc1 (optimized conformer: 72.78759192596235 kcal/mol)

>  <smiles>  (48) 
CCN(CC)CCNc1ccc(Cc2coc3cc4ccccc4cc3c2=O)cc1

>  <score_type>  (48) 
oracle

>  <origin>  (48) 
adg

>  <m_score__min__energy>  (48) 
-9.2799999999999994

>  <m_primary>  (48) 
energy

$$$$
48:0
     RDKit          3D

 51 52  0  0  0  0  0  0  0  0999 V2000
   -3.3580   24.1410  -28.0670 C   0  0  0  0  0  0  0  0  0  0  0  0
   -2.5940   24.4930  -29.3380 C   0  0  0  0  0  0  0  0  0  0  0  0
   -3.4820   24.9540  -30.3580 O   0  0  0  0  0  0  0  0  0  0  0  0
   -4.7670   24.4450  -30.6120 C   0  0  0  0  0  0  0  0  0  0  0  0
   -5.9390   25.0610  -30.1370 C   0  0  0  0  0  0  0  0  0  0  0  0
   -7.1940   24.5360  -30.4610 C   0  0  0  0  0  0  0  0  0  0  0  0
   -7.3000   23.3990  -31.2770 C   0  0  0  0  0  0  0  0  0  0  0  0
   -8.6560   22.8740  -31.6720 C   0  0  0  0  0  0  0  0  0  0  0  0
   -8.8010   21.3590  -31.4440 C   0  0  0  0  0  0  0  0  0  0  0  0
   -8.5800   20.5240  -32.7220 C   0  0  0  0  0  0  0  0  0  0  0  0
   -7.4040   19.6480  -32.6020 N   0  0  0  0  0  0  0  0  0  0  0  0
   -7.7440   18.4230  -31.8610 C   0  0  0  0  0  0  0  0  0  0  0  0
   -6.4900   17.6210  -31.4800 C   0  0  0  0  0  0  0  0  0  0  0  0
   -5.6690   17.2500  -32.6930 C   0  0  0  0  0  0  0  0  0  0  0  0
   -5.6900   15.9230  -33.1570 C   0  0  0  0  0  0  0  0  0  0  0  0
   -4.9660   15.5580  -34.2930 C   0  0  0  0  0  0  0  0  0  0  0  0
   -4.2130   16.5120  -34.9760 C   0  0  0  0  0  0  0  0  0  0  0  0
   -4.1920   17.8360  -34.5340 C   0  0  0  0  0  0  0  0  0  0  0  0
   -4.9290   18.2230  -33.3980 C   0  0  0  0  0  0  0  0  0  0  0  0
   -4.9540   19.5550  -32.9560 O   0  0  0  0  0  0  0  0  0  0  0  0
   -3.8940   20.4870  -33.1410 C   0  0  0  0  0  0  0  0  0  0  0  0
   -6.1300   22.7690  -31.7270 C   0  0  0  0  0  0  0  0  0  0  0  0
   -4.8750   23.2840  -31.3870 C   0  0  0  0  0  0  0  0  0  0  0  0
   -2.7563   24.4182  -27.1889 H   0  0  0  0  0  0  0  0  0  0  0  0
   -4.3104   24.6911  -28.0474 H   0  0  0  0  0  0  0  0  0  0  0  0
   -3.5587   23.0596  -28.0474 H   0  0  0  0  0  0  0  0  0  0  0  0
   -1.8644   25.2844  -29.1116 H   0  0  0  0  0  0  0  0  0  0  0  0
   -2.0822   23.5895  -29.7009 H   0  0  0  0  0  0  0  0  0  0  0  0
   -5.8680   25.9603  -29.5075 H   0  0  0  0  0  0  0  0  0  0  0  0
   -8.1041   25.0173  -30.0738 H   0  0  0  0  0  0  0  0  0  0  0  0
   -9.4208   23.3935  -31.0760 H   0  0  0  0  0  0  0  0  0  0  0  0
   -8.7809   23.0593  -32.7491 H   0  0  0  0  0  0  0  0  0  0  0  0
   -8.0618   21.0472  -30.6914 H   0  0  0  0  0  0  0  0  0  0  0  0
   -9.8338   21.1777  -31.1118 H   0  0  0  0  0  0  0  0  0  0  0  0
   -9.4703   19.9033  -32.9009 H   0  0  0  0  0  0  0  0  0  0  0  0
   -8.4082   21.2166  -33.5592 H   0  0  0  0  0  0  0  0  0  0  0  0
   -7.0630   19.3910  -33.5540 H   0  0  0  0  0  0  0  0  0  0  0  0
   -6.6460   20.1620  -32.0920 H   0  0  0  0  0  0  0  0  0  0  0  0
   -8.2823   18.7001  -30.9426 H   0  0  0  0  0  0  0  0  0  0  0  0
   -8.3693   17.7926  -32.5103 H   0  0  0  0  0  0  0  0  0  0  0  0
   -5.8709   18.2288  -30.8038 H   0  0  0  0  0  0  0  0  0  0  0  0
   -6.8154   16.6910  -30.9909 H   0  0  0  0  0  0  0  0  0  0  0  0
   -6.2816   15.1666  -32.6205 H   0  0  0  0  0  0  0  0  0  0  0  0
   -4.9895   14.5176  -34.6494 H   0  0  0  0  0  0  0  0  0  0  0  0
   -3.6342   16.2209  -35.8650 H   0  0  0  0  0  0  0  0  0  0  0  0
   -3.5949   18.5831  -35.0774 H   0  0  0  0  0  0  0  0  0  0  0  0
   -3.5198   20.8161  -32.1604 H   0  0  0  0  0  0  0  0  0  0  0  0
   -3.0785   20.0081  -33.7028 H   0  0  0  0  0  0  0  0  0  0  0  0
   -4.2646   21.3571  -33.7028 H   0  0  0  0  0  0  0  0  0  0  0  0
   -6.2001   21.8654  -32.3504 H   0  0  0  0  0  0  0  0  0  0  0  0
   -3.9644   22.7722  -31.7316 H   0  0  0  0  0  0  0  0  0  0  0  0
  1  2  1  0
  2  3  1  0
  3  4  1  0
  4  5  2  0
  5  6  1  0
  6  7  2  0
  7  8  1  0
  8  9  1  0
  9 10  1  0
 10 11  1  0
 11 12  1  0
 12 13  1  0
 13 14  1  0
 14 15  2  0
 15 16  1  0
 16 17  2  0
 17 18  1  0
 18 19  2  0
 19 20  1  0
 20 21  1  0
  7 22  1  0
 22 23  2  0
 23  4  1  0
 19 14  1  0
  1 24  1  0
  1 25  1  0
  1 26  1  0
  2 27  1  0
  2 28  1  0
  5 29  1  0
  6 30  1  0
  8 31  1  0
  8 32  1  0
  9 33  1  0
  9 34  1  0
 10 35  1  0
 10 36  1  0
 11 37  1  0
 11 38  1  0
 12 39  1  0
 12 40  1  0
 13 41  1  0
 13 42  1  0
 15 43  1  0
 16 44  1  0
 17 45  1  0
 18 46  1  0
 21 47  1  0
 21 48  1  0
 21 49  1  0
 22 50  1  0
 23 51  1  0
M  CHG  1  11   1
M  END
>  <UniqueID>  (49) 
47

>  <SMILES>  (49) 
CCOc1ccc(CCC[NH2+]CCc2ccccc2OC)cc1

>  <Energy>  (49) 
37.49110649115393

>  <Genealogy>  (49) 
CCOc1ccc(CCC[NH2+]CCc2ccccc2OC)cc1 (protonated)
CCOc1ccc(CCC[NH2+]CCc2ccccc2OC)cc1 (3D coordinates assigned)
CCOc1ccc(CCC[NH2+]CCc2ccccc2OC)cc1 (optimized conformer: 37.49110649115393 kcal/mol)

>  <smiles>  (49) 
CCOc1ccc(CCCNCCc2ccccc2OC)cc1

>  <score_type>  (49) 
oracle

>  <origin>  (49) 
adg

>  <m_score__min__energy>  (49) 
-7.5700000000000003

>  <m_primary>  (49) 
energy

$$$$
