0:0
     RDKit          3D

 40 42  0  0  0  0  0  0  0  0999 V2000
   -2.7220   21.5260  -29.3490 C   0  0  0  0  0  0  0  0  0  0  0  0
   -2.1470   22.7280  -30.0810 C   0  0  0  0  0  0  0  0  0  0  0  0
   -2.8910   23.9270  -29.7140 N   0  0  0  0  0  0  0  0  0  0  0  0
   -3.9860   24.4590  -30.4690 C   0  0  0  0  0  0  0  0  0  0  0  0
   -3.9660   25.6730  -30.8010 O   0  0  0  0  0  0  0  0  0  0  0  0
   -5.1310   23.6130  -30.8720 C   0  0  0  0  0  0  0  0  0  0  0  0
   -4.8940   22.4670  -31.5710 N   0  0  0  0  0  0  0  0  0  0  0  0
   -5.9020   21.6340  -31.9700 C   0  0  0  0  0  0  0  0  0  0  0  0
   -7.2440   21.9470  -31.6430 C   0  0  0  0  0  0  0  0  0  0  0  0
   -7.5000   23.1190  -30.9120 C   0  0  0  0  0  0  0  0  0  0  0  0
   -6.4540   23.9670  -30.5300 C   0  0  0  0  0  0  0  0  0  0  0  0
   -6.7610   25.2210  -29.7540 C   0  0  0  0  0  0  0  0  0  0  0  0
   -8.2780   21.0710  -32.0580 C   0  0  0  0  0  0  0  0  0  0  0  0
   -9.7250   21.3340  -31.7500 C   0  0  0  0  0  0  0  0  0  0  0  0
   -7.9670   19.9500  -32.7620 N   0  0  0  0  0  0  0  0  0  0  0  0
   -6.6900   19.6270  -33.0890 C   0  0  0  0  0  0  0  0  0  0  0  0
   -6.4220   18.4640  -33.8150 C   0  0  0  0  0  0  0  0  0  0  0  0
   -5.1000   18.1320  -34.1380 C   0  0  0  0  0  0  0  0  0  0  0  0
   -4.7990   16.9080  -34.9520 C   0  0  0  0  0  0  0  0  0  0  0  0
   -4.0690   18.9990  -33.7500 C   0  0  0  0  0  0  0  0  0  0  0  0
   -4.3520   20.1260  -33.0440 N   0  0  0  0  0  0  0  0  0  0  0  0
   -5.6260   20.4620  -32.7000 C   0  0  0  0  0  0  0  0  0  0  0  0
   -2.6452   21.6866  -28.2635 H   0  0  0  0  0  0  0  0  0  0  0  0
   -3.7786   21.3984  -29.6269 H   0  0  0  0  0  0  0  0  0  0  0  0
   -2.1582   20.6233  -29.6269 H   0  0  0  0  0  0  0  0  0  0  0  0
   -1.0900   22.8540  -29.8038 H   0  0  0  0  0  0  0  0  0  0  0  0
   -2.2268   22.5669  -31.1662 H   0  0  0  0  0  0  0  0  0  0  0  0
   -3.9010   22.2170  -31.7840 H   0  0  0  0  0  0  0  0  0  0  0  0
   -8.5342   23.3732  -30.6367 H   0  0  0  0  0  0  0  0  0  0  0  0
   -6.7087   25.0073  -28.6762 H   0  0  0  0  0  0  0  0  0  0  0  0
   -6.0269   25.9993  -30.0095 H   0  0  0  0  0  0  0  0  0  0  0  0
   -7.7716   25.5722  -30.0095 H   0  0  0  0  0  0  0  0  0  0  0  0
   -9.8689   21.3602  -30.6598 H   0  0  0  0  0  0  0  0  0  0  0  0
  -10.0221   22.3009  -32.1824 H   0  0  0  0  0  0  0  0  0  0  0  0
  -10.3433   20.5335  -32.1824 H   0  0  0  0  0  0  0  0  0  0  0  0
   -7.2476   17.8101  -34.1325 H   0  0  0  0  0  0  0  0  0  0  0  0
   -4.5911   16.0625  -34.2797 H   0  0  0  0  0  0  0  0  0  0  0  0
   -5.6648   16.6676  -35.5865 H   0  0  0  0  0  0  0  0  0  0  0  0
   -3.9205   17.0965  -35.5865 H   0  0  0  0  0  0  0  0  0  0  0  0
   -3.0276   18.7668  -34.0176 H   0  0  0  0  0  0  0  0  0  0  0  0
  1  2  1  0
  2  3  1  0
  3  4  1  0
  4  5  2  0
  4  6  1  0
  6  7  2  0
  7  8  1  0
  8  9  2  0
  9 10  1  0
 10 11  2  0
 11 12  1  0
  9 13  1  0
 13 14  1  0
 13 15  2  0
 15 16  1  0
 16 17  2  0
 17 18  1  0
 18 19  1  0
 18 20  2  0
 20 21  1  0
 21 22  2  0
 11  6  1  0
 22 16  1  0
 22  8  1  0
  1 23  1  0
  1 24  1  0
  1 25  1  0
  2 26  1  0
  2 27  1  0
  7 28  1  0
 10 29  1  0
 12 30  1  0
 12 31  1  0
 12 32  1  0
 14 33  1  0
 14 34  1  0
 14 35  1  0
 17 36  1  0
 19 37  1  0
 19 38  1  0
 19 39  1  0
 20 40  1  0
M  CHG  2   3  -1   7   1
M  END
>  <UniqueID>  (1) 
1

>  <SMILES>  (1) 
CC[N-]C(=O)c1[nH+]c2c(cc1C)c(C)nc1cc(C)cnc12

>  <Energy>  (1) 
51.10115912632662

>  <Genealogy>  (1) 
CC[N-]C(=O)c1[nH+]c2c(cc1C)c(C)nc1cc(C)cnc12 (protonated)
CC[N-]C(=O)c1[nH+]c2c(cc1C)c(C)nc1cc(C)cnc12 (3D coordinates assigned)
CC[N-]C(=O)c1[nH+]c2c(cc1C)c(C)nc1cc(C)cnc12 (optimized conformer: 51.10115912632662 kcal/mol)

>  <smiles>  (1) 
CCNC(=O)c1nc2c(cc1C)c(C)nc1cc(C)cnc12

>  <score_type>  (1) 
oracle

>  <origin>  (1) 
adg

>  <m_score__min__energy>  (1) 
-9.1899999999999995

>  <m_primary>  (1) 
energy

$$$$
1:0
     RDKit          3D

 41 44  0  0  0  0  0  0  0  0999 V2000
   -7.1460   16.3440  -34.2060 O   0  0  0  0  0  0  0  0  0  0  0  0
   -6.5080   17.2460  -33.6040 C   0  0  0  0  0  0  0  0  0  0  0  0
   -5.0750   17.1700  -33.5790 N   0  0  0  0  0  0  0  0  0  0  0  0
   -4.1420   18.1180  -34.1830 C   0  0  0  0  0  0  0  0  0  0  0  0
   -3.9850   19.3450  -33.3220 C   0  0  0  0  0  0  0  0  0  0  0  0
   -4.5370   19.3880  -32.0340 C   0  0  0  0  0  0  0  0  0  0  0  0
   -4.3810   20.5220  -31.2330 C   0  0  0  0  0  0  0  0  0  0  0  0
   -3.6790   21.6450  -31.7120 C   0  0  0  0  0  0  0  0  0  0  0  0
   -3.5040   22.8240  -30.8990 N   0  0  0  0  0  0  0  0  0  0  0  0
   -2.7930   22.9490  -29.7610 C   0  0  0  0  0  0  0  0  0  0  0  0
   -2.9200   24.2660  -29.3620 C   0  0  0  0  0  0  0  0  0  0  0  0
   -2.3230   24.9180  -28.1710 C   0  0  0  0  0  0  0  0  0  0  0  0
   -1.2280   25.7890  -28.3240 C   0  0  0  0  0  0  0  0  0  0  0  0
   -0.6550   26.4110  -27.2100 C   0  0  0  0  0  0  0  0  0  0  0  0
   -1.1670   26.1700  -25.9330 C   0  0  0  0  0  0  0  0  0  0  0  0
   -2.2530   25.3080  -25.7680 C   0  0  0  0  0  0  0  0  0  0  0  0
   -2.8300   24.6840  -26.8780 C   0  0  0  0  0  0  0  0  0  0  0  0
   -3.6990   24.9000  -30.2640 N   0  0  0  0  0  0  0  0  0  0  0  0
   -4.0350   24.0050  -31.1800 N   0  0  0  0  0  0  0  0  0  0  0  0
   -3.1510   21.6060  -33.0150 C   0  0  0  0  0  0  0  0  0  0  0  0
   -3.3060   20.4690  -33.8120 C   0  0  0  0  0  0  0  0  0  0  0  0
   -7.2640   18.3210  -32.9340 C   0  0  0  0  0  0  0  0  0  0  0  0
   -8.1670   18.1300  -31.8930 C   0  0  0  0  0  0  0  0  0  0  0  0
   -8.7990   19.3100  -31.4800 C   0  0  0  0  0  0  0  0  0  0  0  0
   -8.4100   20.4220  -32.2100 C   0  0  0  0  0  0  0  0  0  0  0  0
   -9.0450   22.2020  -31.9610 Br  0  0  0  0  0  0  0  0  0  0  0  0
   -7.2890   19.9500  -33.3670 S   0  0  0  0  0  0  0  0  0  0  0  0
   -3.1617   17.6329  -34.3000 H   0  0  0  0  0  0  0  0  0  0  0  0
   -4.5394   18.4253  -35.1616 H   0  0  0  0  0  0  0  0  0  0  0  0
   -5.0972   18.5222  -31.6511 H   0  0  0  0  0  0  0  0  0  0  0  0
   -4.8099   20.5378  -30.2202 H   0  0  0  0  0  0  0  0  0  0  0  0
   -2.2237   22.1584  -29.2503 H   0  0  0  0  0  0  0  0  0  0  0  0
   -0.8199   25.9819  -29.3271 H   0  0  0  0  0  0  0  0  0  0  0  0
    0.2000   27.0909  -27.3397 H   0  0  0  0  0  0  0  0  0  0  0  0
   -0.7148   26.6591  -25.0576 H   0  0  0  0  0  0  0  0  0  0  0  0
   -2.6556   25.1194  -24.7619 H   0  0  0  0  0  0  0  0  0  0  0  0
   -3.6853   24.0060  -26.7407 H   0  0  0  0  0  0  0  0  0  0  0  0
   -2.6109   22.4789  -33.4103 H   0  0  0  0  0  0  0  0  0  0  0  0
   -2.8923   20.4558  -34.8311 H   0  0  0  0  0  0  0  0  0  0  0  0
   -8.3654   17.1481  -31.4385 H   0  0  0  0  0  0  0  0  0  0  0  0
   -9.5302   19.3500  -30.6592 H   0  0  0  0  0  0  0  0  0  0  0  0
  1  2  2  0
  2  3  1  0
  3  4  1  0
  4  5  1  0
  5  6  2  0
  6  7  1  0
  7  8  2  0
  8  9  1  0
  9 10  1  0
 10 11  2  0
 11 12  1  0
 12 13  2  0
 13 14  1  0
 14 15  2  0
 15 16  1  0
 16 17  2  0
 11 18  1  0
 18 19  2  0
  8 20  1  0
 20 21  2  0
  2 22  1  0
 22 23  2  0
 23 24  1  0
 24 25  2  0
 25 26  1  0
 25 27  1  0
 21  5  1  0
 27 22  1  0
 19  9  1  0
 17 12  1  0
  4 28  1  0
  4 29  1  0
  6 30  1  0
  7 31  1  0
 10 32  1  0
 13 33  1  0
 14 34  1  0
 15 35  1  0
 16 36  1  0
 17 37  1  0
 20 38  1  0
 21 39  1  0
 23 40  1  0
 24 41  1  0
M  CHG  1   3  -1
M  END
>  <UniqueID>  (2) 
2

>  <SMILES>  (2) 
O=C([N-]Cc1ccc(-n2cc(-c3ccccc3)nn2)cc1)c1ccc(Br)s1

>  <Energy>  (2) 
111.7938897791236

>  <Genealogy>  (2) 
O=C([N-]Cc1ccc(-n2cc(-c3ccccc3)nn2)cc1)c1ccc(Br)s1 (protonated)
O=C([N-]Cc1ccc(-n2cc(-c3ccccc3)nn2)cc1)c1ccc(Br)s1 (3D coordinates assigned)
O=C([N-]Cc1ccc(-n2cc(-c3ccccc3)nn2)cc1)c1ccc(Br)s1 (optimized conformer: 111.7938897791236 kcal/mol)

>  <smiles>  (2) 
O=C(NCc1ccc(-n2cc(-c3ccccc3)nn2)cc1)c1ccc(Br)s1

>  <score_type>  (2) 
oracle

>  <origin>  (2) 
adg

>  <m_score__min__energy>  (2) 
-10.17

>  <m_primary>  (2) 
energy

$$$$
2:0
     RDKit          3D

 37 39  0  0  0  0  0  0  0  0999 V2000
   -6.2540   19.5960  -34.0880 C   0  0  0  0  0  0  0  0  0  0  0  0
   -6.7900   18.9340  -32.9050 N   0  0  0  0  0  0  0  0  0  0  0  0
   -6.2820   17.8580  -32.2810 C   0  0  0  0  0  0  0  0  0  0  0  0
   -7.0990   17.4370  -31.2960 N   0  0  0  0  0  0  0  0  0  0  0  0
   -8.1550   18.2390  -31.2940 N   0  0  0  0  0  0  0  0  0  0  0  0
   -7.9640   19.1380  -32.2780 C   0  0  0  0  0  0  0  0  0  0  0  0
   -9.1720   20.3930  -32.7150 S   0  0  0  0  0  0  0  0  0  0  0  0
   -8.3410   21.6330  -31.7250 C   0  0  0  0  0  0  0  0  0  0  0  0
   -7.6340   22.6710  -32.3430 C   0  0  0  0  0  0  0  0  0  0  0  0
   -6.8760   23.5560  -31.5730 C   0  0  0  0  0  0  0  0  0  0  0  0
   -6.8130   23.4040  -30.1800 C   0  0  0  0  0  0  0  0  0  0  0  0
   -5.8980   24.2020  -29.4180 N   0  0  0  0  0  0  0  0  0  0  0  0
   -4.2230   24.3070  -29.8590 S   0  0  0  0  0  0  0  0  0  0  0  0
   -4.0290   25.4280  -30.8400 O   0  0  0  0  0  0  0  0  0  0  0  0
   -3.4060   24.5820  -28.6280 O   0  0  0  0  0  0  0  0  0  0  0  0
   -3.7230   22.7930  -30.6150 C   0  0  0  0  0  0  0  0  0  0  0  0
   -3.1590   21.7610  -29.8500 C   0  0  0  0  0  0  0  0  0  0  0  0
   -2.8530   20.5330  -30.4470 C   0  0  0  0  0  0  0  0  0  0  0  0
   -3.1090   20.3300  -31.8060 C   0  0  0  0  0  0  0  0  0  0  0  0
   -3.6670   21.3570  -32.5730 C   0  0  0  0  0  0  0  0  0  0  0  0
   -3.9700   22.5870  -31.9810 C   0  0  0  0  0  0  0  0  0  0  0  0
   -7.5890   22.4100  -29.5610 C   0  0  0  0  0  0  0  0  0  0  0  0
   -8.3480   21.5290  -30.3310 C   0  0  0  0  0  0  0  0  0  0  0  0
   -5.5896   20.4166  -33.7796 H   0  0  0  0  0  0  0  0  0  0  0  0
   -5.6860   18.8703  -34.6886 H   0  0  0  0  0  0  0  0  0  0  0  0
   -7.0820   20.0006  -34.6886 H   0  0  0  0  0  0  0  0  0  0  0  0
   -5.3244   17.3830  -32.5404 H   0  0  0  0  0  0  0  0  0  0  0  0
   -7.6754   22.7898  -33.4358 H   0  0  0  0  0  0  0  0  0  0  0  0
   -6.3266   24.3749  -32.0605 H   0  0  0  0  0  0  0  0  0  0  0  0
   -6.2760   24.9460  -28.7880 H   0  0  0  0  0  0  0  0  0  0  0  0
   -2.9572   21.9173  -28.7800 H   0  0  0  0  0  0  0  0  0  0  0  0
   -2.4100   19.7256  -29.8454 H   0  0  0  0  0  0  0  0  0  0  0  0
   -2.8714   19.3623  -32.2719 H   0  0  0  0  0  0  0  0  0  0  0  0
   -3.8678   21.1974  -33.6427 H   0  0  0  0  0  0  0  0  0  0  0  0
   -4.4033   23.3957  -32.5879 H   0  0  0  0  0  0  0  0  0  0  0  0
   -7.5981   22.3261  -28.4642 H   0  0  0  0  0  0  0  0  0  0  0  0
   -8.9526   20.7517  -29.8410 H   0  0  0  0  0  0  0  0  0  0  0  0
  1  2  1  0
  2  3  1  0
  3  4  2  0
  4  5  1  0
  5  6  2  0
  6  7  1  0
  7  8  1  0
  8  9  2  0
  9 10  1  0
 10 11  2  0
 11 12  1  0
 12 13  1  0
 13 14  2  0
 13 15  2  0
 13 16  1  0
 16 17  2  0
 17 18  1  0
 18 19  2  0
 19 20  1  0
 20 21  2  0
 11 22  1  0
 22 23  2  0
  6  2  1  0
 23  8  1  0
 21 16  1  0
  1 24  1  0
  1 25  1  0
  1 26  1  0
  3 27  1  0
  9 28  1  0
 10 29  1  0
 12 30  1  0
 17 31  1  0
 18 32  1  0
 19 33  1  0
 20 34  1  0
 21 35  1  0
 22 36  1  0
 23 37  1  0
M  END
>  <UniqueID>  (3) 
3

>  <SMILES>  (3) 
Cn1cnnc1Sc1ccc(NS(=O)(=O)c2ccccc2)cc1

>  <Energy>  (3) 
70.83528491576449

>  <Genealogy>  (3) 
Cn1cnnc1Sc1ccc(NS(=O)(=O)c2ccccc2)cc1 (3D coordinates assigned)
Cn1cnnc1Sc1ccc(NS(=O)(=O)c2ccccc2)cc1 (optimized conformer: 70.83528491576449 kcal/mol)

>  <smiles>  (3) 
Cn1cnnc1Sc1ccc(NS(=O)(=O)c2ccccc2)cc1

>  <score_type>  (3) 
oracle

>  <origin>  (3) 
adg

>  <m_score__min__energy>  (3) 
-8.9000000000000004

>  <m_primary>  (3) 
energy

$$$$
3:0
     RDKit          3D

 38 40  0  0  0  0  0  0  0  0999 V2000
   -0.1130   25.0700  -27.5150 C   0  0  0  0  0  0  0  0  0  0  0  0
   -0.9450   26.1870  -28.1340 C   0  0  0  0  0  0  0  0  0  0  0  0
   -2.0110   25.6480  -28.9140 O   0  0  0  0  0  0  0  0  0  0  0  0
   -2.8100   24.5760  -28.4960 C   0  0  0  0  0  0  0  0  0  0  0  0
   -3.0050   24.3750  -27.2650 O   0  0  0  0  0  0  0  0  0  0  0  0
   -3.4330   23.6860  -29.5010 C   0  0  0  0  0  0  0  0  0  0  0  0
   -2.8730   22.4330  -29.7910 C   0  0  0  0  0  0  0  0  0  0  0  0
   -3.4590   21.6020  -30.7460 C   0  0  0  0  0  0  0  0  0  0  0  0
   -4.6220   22.0000  -31.4260 C   0  0  0  0  0  0  0  0  0  0  0  0
   -5.2030   23.2490  -31.1330 C   0  0  0  0  0  0  0  0  0  0  0  0
   -4.5920   24.0880  -30.1850 C   0  0  0  0  0  0  0  0  0  0  0  0
   -6.3820   23.7720  -31.8610 C   0  0  0  0  0  0  0  0  0  0  0  0
   -7.4270   23.0540  -32.2950 C   0  0  0  0  0  0  0  0  0  0  0  0
   -7.6100   21.5940  -32.1340 C   0  0  0  0  0  0  0  0  0  0  0  0
   -8.9200   21.1070  -31.9870 C   0  0  0  0  0  0  0  0  0  0  0  0
   -9.1640   19.7340  -31.8970 C   0  0  0  0  0  0  0  0  0  0  0  0
   -8.1050   18.8310  -31.9710 C   0  0  0  0  0  0  0  0  0  0  0  0
   -6.8000   19.2980  -32.1390 C   0  0  0  0  0  0  0  0  0  0  0  0
   -6.5410   20.6780  -32.2250 C   0  0  0  0  0  0  0  0  0  0  0  0
   -5.1960   21.1370  -32.4170 N   0  0  0  0  0  0  0  0  0  0  0  0
   -4.3420   20.5080  -33.4260 C   0  0  0  0  0  0  0  0  0  0  0  0
   -0.1644   25.1391  -26.4184 H   0  0  0  0  0  0  0  0  0  0  0  0
   -0.5073   24.0959  -27.8399 H   0  0  0  0  0  0  0  0  0  0  0  0
    0.9332   25.1689  -27.8399 H   0  0  0  0  0  0  0  0  0  0  0  0
   -1.3645   26.8119  -27.3318 H   0  0  0  0  0  0  0  0  0  0  0  0
   -0.2976   26.7897  -28.7879 H   0  0  0  0  0  0  0  0  0  0  0  0
   -1.9664   22.1037  -29.2622 H   0  0  0  0  0  0  0  0  0  0  0  0
   -3.0057   20.6249  -30.9689 H   0  0  0  0  0  0  0  0  0  0  0  0
   -5.0287   25.0756  -29.9754 H   0  0  0  0  0  0  0  0  0  0  0  0
   -6.4018   24.8528  -32.0649 H   0  0  0  0  0  0  0  0  0  0  0  0
   -8.2237   23.6011  -32.8203 H   0  0  0  0  0  0  0  0  0  0  0  0
   -9.7618   21.8137  -31.9423 H   0  0  0  0  0  0  0  0  0  0  0  0
  -10.1924   19.3657  -31.7677 H   0  0  0  0  0  0  0  0  0  0  0  0
   -8.2973   17.7505  -31.8971 H   0  0  0  0  0  0  0  0  0  0  0  0
   -5.9680   18.5814  -32.2046 H   0  0  0  0  0  0  0  0  0  0  0  0
   -3.5526   19.9265  -32.9273 H   0  0  0  0  0  0  0  0  0  0  0  0
   -4.9485   19.8392  -34.0544 H   0  0  0  0  0  0  0  0  0  0  0  0
   -3.8832   21.2856  -34.0544 H   0  0  0  0  0  0  0  0  0  0  0  0
  1  2  1  0
  2  3  1  0
  3  4  1  0
  4  5  2  0
  4  6  1  0
  6  7  2  0
  7  8  1  0
  8  9  2  0
  9 10  1  0
 10 11  2  0
 10 12  1  0
 12 13  2  0
 13 14  1  0
 14 15  2  0
 15 16  1  0
 16 17  2  0
 17 18  1  0
 18 19  2  0
 19 20  1  0
 20 21  1  0
 11  6  1  0
 19 14  1  0
 20  9  1  0
  1 22  1  0
  1 23  1  0
  1 24  1  0
  2 25  1  0
  2 26  1  0
  7 27  1  0
  8 28  1  0
 11 29  1  0
 12 30  1  0
 13 31  1  0
 15 32  1  0
 16 33  1  0
 17 34  1  0
 18 35  1  0
 21 36  1  0
 21 37  1  0
 21 38  1  0
M  END
>  <UniqueID>  (4) 
4

>  <SMILES>  (4) 
CCOC(=O)c1ccc2c(c1)C=Cc1ccccc1N2C

>  <Energy>  (4) 
56.92046146068393

>  <Genealogy>  (4) 
CCOC(=O)c1ccc2c(c1)C=Cc1ccccc1N2C (3D coordinates assigned)
CCOC(=O)c1ccc2c(c1)C=Cc1ccccc1N2C (nonaromatic ring conformer: 56.92046146068393 kcal/mol)

>  <smiles>  (4) 
CCOC(=O)c1ccc2c(c1)C=Cc1ccccc1N2C

>  <score_type>  (4) 
oracle

>  <origin>  (4) 
adg

>  <m_score__min__energy>  (4) 
-6.9000000000000004

>  <m_primary>  (4) 
energy

$$$$
4:0
     RDKit          3D

 48 50  0  0  0  0  0  0  0  0999 V2000
   -0.5160   19.1240  -27.4860 C   0  0  0  0  0  0  0  0  0  0  0  0
    0.0540   20.4190  -27.6450 O   0  0  0  0  0  0  0  0  0  0  0  0
   -0.6300   21.5270  -28.1660 C   0  0  0  0  0  0  0  0  0  0  0  0
   -1.0740   22.5140  -27.2770 C   0  0  0  0  0  0  0  0  0  0  0  0
   -1.7640   23.6350  -27.7470 C   0  0  0  0  0  0  0  0  0  0  0  0
   -2.0370   23.7720  -29.1170 C   0  0  0  0  0  0  0  0  0  0  0  0
   -2.7190   24.9230  -29.6250 N   0  0  0  0  0  0  0  0  0  0  0  0
   -4.0630   24.9550  -30.1250 C   0  0  0  0  0  0  0  0  0  0  0  0
   -4.2790   25.5700  -31.2040 O   0  0  0  0  0  0  0  0  0  0  0  0
   -5.1840   24.1860  -29.4410 C   0  0  1  0  0  0  0  0  0  0  0  0
   -6.5990   24.7610  -29.7190 C   0  0  0  0  0  0  0  0  0  0  0  0
   -7.3490   24.0150  -30.8360 C   0  0  0  0  0  0  0  0  0  0  0  0
   -6.3780   23.3940  -31.8450 C   0  0  0  0  0  0  0  0  0  0  0  0
   -5.4860   22.3810  -31.2180 N   0  0  1  0  0  0  0  0  0  0  0  0
   -4.2650   22.1610  -32.0340 C   0  0  0  0  0  0  0  0  0  0  0  0
   -4.3280   20.8660  -32.8140 C   0  0  0  0  0  0  0  0  0  0  0  0
   -5.5730   20.3150  -33.1670 C   0  0  0  0  0  0  0  0  0  0  0  0
   -5.6370   19.1060  -33.8670 C   0  0  0  0  0  0  0  0  0  0  0  0
   -4.4620   18.4370  -34.2180 C   0  0  0  0  0  0  0  0  0  0  0  0
   -3.2210   18.9750  -33.8690 C   0  0  0  0  0  0  0  0  0  0  0  0
   -3.1500   20.1830  -33.1690 C   0  0  0  0  0  0  0  0  0  0  0  0
   -1.9330   20.6880  -32.8380 F   0  0  0  0  0  0  0  0  0  0  0  0
   -5.1360   22.6820  -29.7980 C   0  0  0  0  0  0  0  0  0  0  0  0
   -1.5680   22.8050  -30.0120 C   0  0  0  0  0  0  0  0  0  0  0  0
   -0.8790   21.6820  -29.5430 C   0  0  0  0  0  0  0  0  0  0  0  0
   -0.6161   18.8965  -26.4144 H   0  0  0  0  0  0  0  0  0  0  0  0
   -1.5082   19.0993  -27.9604 H   0  0  0  0  0  0  0  0  0  0  0  0
    0.1359   18.3757  -27.9604 H   0  0  0  0  0  0  0  0  0  0  0  0
   -0.8781   22.4061  -26.2000 H   0  0  0  0  0  0  0  0  0  0  0  0
   -2.0939   24.4118  -27.0415 H   0  0  0  0  0  0  0  0  0  0  0  0
   -5.0036   24.3075  -28.3627 H   0  0  0  0  0  0  0  0  0  0  0  0
   -7.1915   24.6931  -28.7947 H   0  0  0  0  0  0  0  0  0  0  0  0
   -6.4689   25.8014  -30.0517 H   0  0  0  0  0  0  0  0  0  0  0  0
   -7.9572   23.2161  -30.3867 H   0  0  0  0  0  0  0  0  0  0  0  0
   -7.9846   24.7381  -31.3681 H   0  0  0  0  0  0  0  0  0  0  0  0
   -6.9591   22.9086  -32.6430 H   0  0  0  0  0  0  0  0  0  0  0  0
   -5.7448   24.2002  -32.2439 H   0  0  0  0  0  0  0  0  0  0  0  0
   -6.0130   21.4740  -31.2040 H   0  0  0  0  0  0  0  0  0  0  0  0
   -4.1558   22.9963  -32.7414 H   0  0  0  0  0  0  0  0  0  0  0  0
   -3.4058   22.1030  -31.3496 H   0  0  0  0  0  0  0  0  0  0  0  0
   -6.5008   20.8375  -32.8912 H   0  0  0  0  0  0  0  0  0  0  0  0
   -6.6139   18.6813  -34.1416 H   0  0  0  0  0  0  0  0  0  0  0  0
   -4.5140   17.4865  -34.7692 H   0  0  0  0  0  0  0  0  0  0  0  0
   -2.2968   18.4465  -34.1458 H   0  0  0  0  0  0  0  0  0  0  0  0
   -5.8452   22.1497  -29.1471 H   0  0  0  0  0  0  0  0  0  0  0  0
   -4.0963   22.3542  -29.6513 H   0  0  0  0  0  0  0  0  0  0  0  0
   -1.7421   22.9285  -31.0911 H   0  0  0  0  0  0  0  0  0  0  0  0
   -0.5304   20.9171  -30.2525 H   0  0  0  0  0  0  0  0  0  0  0  0
  1  2  1  0
  2  3  1  0
  3  4  2  0
  4  5  1  0
  5  6  2  0
  6  7  1  0
  7  8  1  0
  8  9  2  0
  8 10  1  0
 10 11  1  0
 11 12  1  0
 12 13  1  0
 13 14  1  0
 14 15  1  0
 15 16  1  0
 16 17  2  0
 17 18  1  0
 18 19  2  0
 19 20  1  0
 20 21  2  0
 21 22  1  0
 14 23  1  0
  6 24  1  0
 24 25  2  0
 25  3  1  0
 23 10  1  0
 21 16  1  0
  1 26  1  0
  1 27  1  0
  1 28  1  0
  4 29  1  0
  5 30  1  0
 10 31  1  1
 11 32  1  0
 11 33  1  0
 12 34  1  0
 12 35  1  0
 13 36  1  0
 13 37  1  0
 14 38  1  1
 15 39  1  0
 15 40  1  0
 17 41  1  0
 18 42  1  0
 19 43  1  0
 20 44  1  0
 23 45  1  0
 23 46  1  0
 24 47  1  0
 25 48  1  0
M  CHG  2   7  -1  14   1
M  END
>  <UniqueID>  (5) 
5

>  <SMILES>  (5) 
COc1ccc([N-]C(=O)[C@H]2CCC[N@@H+](Cc3ccccc3F)C2)cc1

>  <Energy>  (5) 
66.11584614705373

>  <Genealogy>  (5) 
COc1ccc([N-]C(=O)C2CCC[NH+](Cc3ccccc3F)C2)cc1 (protonated)
COc1ccc([N-]C(=O)[C@H]2CCC[N@@H+](Cc3ccccc3F)C2)cc1 (chirality)
COc1ccc([N-]C(=O)[C@H]2CCC[N@@H+](Cc3ccccc3F)C2)cc1 (3D coordinates assigned)
COc1ccc([N-]C(=O)[C@H]2CCC[N@@H+](Cc3ccccc3F)C2)cc1 (nonaromatic ring conformer: 66.11584614705373 kcal/mol)

>  <smiles>  (5) 
COc1ccc(NC(=O)C2CCCN(Cc3ccccc3F)C2)cc1

>  <score_type>  (5) 
oracle

>  <origin>  (5) 
adg

>  <m_score__min__energy>  (5) 
-8.8599999999999994

>  <m_primary>  (5) 
energy

$$$$
5:0
     RDKit          3D

 35 36  0  0  0  0  0  0  0  0999 V2000
   -1.3980   20.7140  -28.9160 C   0  0  0  0  0  0  0  0  0  0  0  0
   -0.9250   21.3880  -30.2010 C   0  0  0  0  0  0  0  0  0  0  0  0
   -1.5450   22.7050  -30.3590 N   0  0  0  0  0  0  0  0  0  0  0  0
   -2.8780   22.9110  -30.8730 C   0  0  0  0  0  0  0  0  0  0  0  0
   -3.3420   22.1670  -31.9730 C   0  0  0  0  0  0  0  0  0  0  0  0
   -4.6320   22.3720  -32.4590 C   0  0  0  0  0  0  0  0  0  0  0  0
   -5.4440   23.2870  -31.8720 N   0  0  0  0  0  0  0  0  0  0  0  0
   -5.0370   24.0240  -30.8070 C   0  0  0  0  0  0  0  0  0  0  0  0
   -3.7450   23.8610  -30.2780 C   0  0  0  0  0  0  0  0  0  0  0  0
   -3.3160   24.7170  -29.1090 C   0  0  0  0  0  0  0  0  0  0  0  0
   -1.9930   25.2900  -29.3370 N   0  0  0  0  0  0  0  0  0  0  0  0
   -0.8670   25.0740  -28.4810 C   0  0  0  0  0  0  0  0  0  0  0  0
    0.1740   24.5470  -28.9610 O   0  0  0  0  0  0  0  0  0  0  0  0
   -0.8980   25.4690  -27.0420 C   0  0  0  0  0  0  0  0  0  0  0  0
   -1.0870   26.8330  -26.7270 C   0  0  0  0  0  0  0  0  0  0  0  0
   -1.1230   27.2680  -25.4020 C   0  0  0  0  0  0  0  0  0  0  0  0
   -0.9690   26.3560  -24.3620 C   0  0  0  0  0  0  0  0  0  0  0  0
   -0.7780   25.0050  -24.6450 C   0  0  0  0  0  0  0  0  0  0  0  0
   -0.7380   24.5470  -25.9690 C   0  0  0  0  0  0  0  0  0  0  0  0
   -0.4640   22.8200  -26.1890 Cl  0  0  0  0  0  0  0  0  0  0  0  0
   -1.0100   21.2668  -28.0477 H   0  0  0  0  0  0  0  0  0  0  0  0
   -2.4976   20.7106  -28.8870 H   0  0  0  0  0  0  0  0  0  0  0  0
   -1.0273   19.6788  -28.8870 H   0  0  0  0  0  0  0  0  0  0  0  0
    0.1680   21.5066  -30.1642 H   0  0  0  0  0  0  0  0  0  0  0  0
   -1.2147   20.7584  -31.0552 H   0  0  0  0  0  0  0  0  0  0  0  0
   -0.9570   23.5330  -30.1170 H   0  0  0  0  0  0  0  0  0  0  0  0
   -2.6865   21.4233  -32.4497 H   0  0  0  0  0  0  0  0  0  0  0  0
   -4.9927   21.7907  -33.3204 H   0  0  0  0  0  0  0  0  0  0  0  0
   -5.7238   24.7545  -30.3545 H   0  0  0  0  0  0  0  0  0  0  0  0
   -4.0425   25.5319  -28.9743 H   0  0  0  0  0  0  0  0  0  0  0  0
   -3.2737   24.0854  -28.2094 H   0  0  0  0  0  0  0  0  0  0  0  0
   -1.2078   27.5642  -27.5399 H   0  0  0  0  0  0  0  0  0  0  0  0
   -1.2735   28.3345  -25.1786 H   0  0  0  0  0  0  0  0  0  0  0  0
   -0.9980   26.7012  -23.3180 H   0  0  0  0  0  0  0  0  0  0  0  0
   -0.6571   24.2889  -23.8188 H   0  0  0  0  0  0  0  0  0  0  0  0
  1  2  1  0
  2  3  1  0
  3  4  1  0
  4  5  2  0
  5  6  1  0
  6  7  2  0
  7  8  1  0
  8  9  2  0
  9 10  1  0
 10 11  1  0
 11 12  1  0
 12 13  2  0
 12 14  1  0
 14 15  2  0
 15 16  1  0
 16 17  2  0
 17 18  1  0
 18 19  2  0
 19 20  1  0
  9  4  1  0
 19 14  1  0
  1 21  1  0
  1 22  1  0
  1 23  1  0
  2 24  1  0
  2 25  1  0
  3 26  1  0
  5 27  1  0
  6 28  1  0
  8 29  1  0
 10 30  1  0
 10 31  1  0
 15 32  1  0
 16 33  1  0
 17 34  1  0
 18 35  1  0
M  CHG  1  11  -1
M  END
>  <UniqueID>  (6) 
6

>  <SMILES>  (6) 
CCNc1ccncc1C[N-]C(=O)c1ccccc1Cl

>  <Energy>  (6) 
36.92206036906369

>  <Genealogy>  (6) 
CCNc1ccncc1C[N-]C(=O)c1ccccc1Cl (protonated)
CCNc1ccncc1C[N-]C(=O)c1ccccc1Cl (3D coordinates assigned)
CCNc1ccncc1C[N-]C(=O)c1ccccc1Cl (optimized conformer: 36.92206036906369 kcal/mol)

>  <smiles>  (6) 
CCNc1ccncc1CNC(=O)c1ccccc1Cl

>  <score_type>  (6) 
oracle

>  <origin>  (6) 
adg

>  <m_score__min__energy>  (6) 
-7.7400000000000002

>  <m_primary>  (6) 
energy

$$$$
6:0
     RDKit          3D

 50 53  0  0  0  0  0  0  0  0999 V2000
   -4.1870   25.6690  -30.4650 O   0  0  0  0  0  0  0  0  0  0  0  0
   -3.8710   24.4470  -30.4300 C   0  0  0  0  0  0  0  0  0  0  0  0
   -2.7770   24.0430  -29.5020 C   0  0  0  0  0  0  0  0  0  0  0  0
   -2.1000   22.8270  -29.6980 C   0  0  0  0  0  0  0  0  0  0  0  0
   -1.0670   22.4490  -28.8260 C   0  0  0  0  0  0  0  0  0  0  0  0
   -0.3520   21.1330  -29.0120 C   0  0  0  0  0  0  0  0  0  0  0  0
   -1.1730   20.0750  -28.6610 F   0  0  0  0  0  0  0  0  0  0  0  0
    0.7740   21.1130  -28.2110 F   0  0  0  0  0  0  0  0  0  0  0  0
    0.0280   20.9650  -30.3320 F   0  0  0  0  0  0  0  0  0  0  0  0
   -0.7670   23.2720  -27.7300 C   0  0  0  0  0  0  0  0  0  0  0  0
   -1.4710   24.4720  -27.5430 C   0  0  0  0  0  0  0  0  0  0  0  0
   -1.1850   25.3780  -26.4020 C   0  0  0  0  0  0  0  0  0  0  0  0
   -0.8520   24.8380  -25.1440 C   0  0  0  0  0  0  0  0  0  0  0  0
   -0.5670   25.6770  -24.0630 C   0  0  0  0  0  0  0  0  0  0  0  0
   -0.6020   27.0630  -24.2250 C   0  0  0  0  0  0  0  0  0  0  0  0
   -0.9200   27.6140  -25.4690 C   0  0  0  0  0  0  0  0  0  0  0  0
   -1.2070   26.7790  -26.5540 C   0  0  0  0  0  0  0  0  0  0  0  0
   -2.4400   24.8170  -28.4360 N   0  0  0  0  0  0  0  0  0  0  0  0
   -4.6050   23.5090  -31.2630 N   0  0  0  0  0  0  0  0  0  0  0  0
   -4.1010   22.1470  -31.5220 C   0  0  0  0  0  0  0  0  0  0  0  0
   -4.9750   21.3890  -32.5260 C   0  0  0  0  0  0  0  0  0  0  0  0
   -6.3870   21.5450  -32.1650 N   0  0  0  0  0  0  0  0  0  0  0  0
   -7.2540   20.4000  -32.1080 C   0  0  0  0  0  0  0  0  0  0  0  0
   -8.6150   20.5290  -32.4300 C   0  0  0  0  0  0  0  0  0  0  0  0
   -9.4610   19.4170  -32.3750 C   0  0  0  0  0  0  0  0  0  0  0  0
   -8.9570   18.1710  -31.9950 C   0  0  0  0  0  0  0  0  0  0  0  0
   -7.6060   18.0340  -31.6670 C   0  0  0  0  0  0  0  0  0  0  0  0
   -6.7540   19.1430  -31.7220 C   0  0  0  0  0  0  0  0  0  0  0  0
   -5.4490   18.9970  -31.3760 F   0  0  0  0  0  0  0  0  0  0  0  0
   -6.9230   22.8780  -31.8600 C   0  0  0  0  0  0  0  0  0  0  0  0
   -5.8340   23.9560  -31.9450 C   0  0  0  0  0  0  0  0  0  0  0  0
   -2.3799   22.1710  -30.5354 H   0  0  0  0  0  0  0  0  0  0  0  0
    0.0185   22.9774  -27.0185 H   0  0  0  0  0  0  0  0  0  0  0  0
   -0.8160   23.7466  -25.0114 H   0  0  0  0  0  0  0  0  0  0  0  0
   -0.3148   25.2446  -23.0835 H   0  0  0  0  0  0  0  0  0  0  0  0
   -0.3791   27.7218  -23.3728 H   0  0  0  0  0  0  0  0  0  0  0  0
   -0.9447   28.7064  -25.5954 H   0  0  0  0  0  0  0  0  0  0  0  0
   -1.4514   27.2187  -27.5322 H   0  0  0  0  0  0  0  0  0  0  0  0
   -3.0794   22.2175  -31.9238 H   0  0  0  0  0  0  0  0  0  0  0  0
   -4.1195   21.5932  -30.5718 H   0  0  0  0  0  0  0  0  0  0  0  0
   -4.8083   21.7937  -33.5352 H   0  0  0  0  0  0  0  0  0  0  0  0
   -4.7094   20.3217  -32.5087 H   0  0  0  0  0  0  0  0  0  0  0  0
   -9.0171   21.5089  -32.7267 H   0  0  0  0  0  0  0  0  0  0  0  0
  -10.5254   19.5237  -32.6315 H   0  0  0  0  0  0  0  0  0  0  0  0
   -9.6241   17.2973  -31.9540 H   0  0  0  0  0  0  0  0  0  0  0  0
   -7.2111   17.0528  -31.3650 H   0  0  0  0  0  0  0  0  0  0  0  0
   -7.7189   23.1166  -32.5808 H   0  0  0  0  0  0  0  0  0  0  0  0
   -7.3157   22.8649  -30.8326 H   0  0  0  0  0  0  0  0  0  0  0  0
   -5.6074   24.1580  -33.0023 H   0  0  0  0  0  0  0  0  0  0  0  0
   -6.2002   24.8689  -31.4525 H   0  0  0  0  0  0  0  0  0  0  0  0
  1  2  2  0
  2  3  1  0
  3  4  2  0
  4  5  1  0
  5  6  1  0
  6  7  1  0
  6  8  1  0
  6  9  1  0
  5 10  2  0
 10 11  1  0
 11 12  1  0
 12 13  2  0
 13 14  1  0
 14 15  2  0
 15 16  1  0
 16 17  2  0
 11 18  2  0
  2 19  1  0
 19 20  1  0
 20 21  1  0
 21 22  1  0
 22 23  1  0
 23 24  2  0
 24 25  1  0
 25 26  2  0
 26 27  1  0
 27 28  2  0
 28 29  1  0
 22 30  1  0
 30 31  1  0
 18  3  1  0
 31 19  1  0
 17 12  1  0
 28 23  1  0
  4 32  1  0
 10 33  1  0
 13 34  1  0
 14 35  1  0
 15 36  1  0
 16 37  1  0
 17 38  1  0
 20 39  1  0
 20 40  1  0
 21 41  1  0
 21 42  1  0
 24 43  1  0
 25 44  1  0
 26 45  1  0
 27 46  1  0
 30 47  1  0
 30 48  1  0
 31 49  1  0
 31 50  1  0
M  END
>  <UniqueID>  (7) 
7

>  <SMILES>  (7) 
O=C(c1cc(C(F)(F)F)cc(-c2ccccc2)n1)N1CCN(c2ccccc2F)CC1

>  <Energy>  (7) 
68.46847978399028

>  <Genealogy>  (7) 
O=C(c1cc(C(F)(F)F)cc(-c2ccccc2)n1)N1CCN(c2ccccc2F)CC1 (3D coordinates assigned)
O=C(c1cc(C(F)(F)F)cc(-c2ccccc2)n1)N1CCN(c2ccccc2F)CC1 (nonaromatic ring conformer: 68.46847978399028 kcal/mol)

>  <smiles>  (7) 
O=C(c1cc(C(F)(F)F)cc(-c2ccccc2)n1)N1CCN(c2ccccc2F)CC1

>  <score_type>  (7) 
oracle

>  <origin>  (7) 
adg

>  <m_score__min__energy>  (7) 
-9.2799999999999994

>  <m_primary>  (7) 
energy

$$$$
7:0
     RDKit          3D

 29 29  0  0  0  0  0  0  0  0999 V2000
   -8.6010   18.6240  -31.7040 C   0  0  0  0  0  0  0  0  0  0  0  0
   -8.2550   19.6760  -32.7490 C   0  0  0  0  0  0  0  0  0  0  0  0
   -7.5030   20.7900  -32.1510 N   0  0  0  0  0  0  0  0  0  0  0  0
   -8.0370   21.4950  -30.9760 C   0  0  0  0  0  0  0  0  0  0  0  0
   -9.4850   21.9130  -31.1960 C   0  0  0  0  0  0  0  0  0  0  0  0
   -6.0920   20.8720  -32.4080 C   0  0  0  0  0  0  0  0  0  0  0  0
   -5.3340   19.7390  -32.7440 C   0  0  0  0  0  0  0  0  0  0  0  0
   -3.9910   20.0090  -32.9560 C   0  0  0  0  0  0  0  0  0  0  0  0
   -3.7460   21.6550  -32.7270 S   0  0  0  0  0  0  0  0  0  0  0  0
   -5.3390   22.0510  -32.3560 C   0  0  0  0  0  0  0  0  0  0  0  0
   -5.7920   23.4150  -32.0390 C   0  0  0  0  0  0  0  0  0  0  0  0
   -6.8840   23.8490  -32.4920 O   0  0  0  0  0  0  0  0  0  0  0  0
   -4.9940   24.2270  -31.2280 O   0  0  0  0  0  0  0  0  0  0  0  0
   -5.4830   24.8420  -30.0420 C   0  0  0  0  0  0  0  0  0  0  0  0
   -8.4619   19.0468  -30.6981 H   0  0  0  0  0  0  0  0  0  0  0  0
   -9.6487   18.3132  -31.8295 H   0  0  0  0  0  0  0  0  0  0  0  0
   -7.9423   17.7520  -31.8295 H   0  0  0  0  0  0  0  0  0  0  0  0
   -7.6436   19.2120  -33.5370 H   0  0  0  0  0  0  0  0  0  0  0  0
   -9.1913   20.0723  -33.1688 H   0  0  0  0  0  0  0  0  0  0  0  0
   -7.9847   20.8280  -30.1029 H   0  0  0  0  0  0  0  0  0  0  0  0
   -7.4345   22.4001  -30.8091 H   0  0  0  0  0  0  0  0  0  0  0  0
   -9.9775   22.0552  -30.2227 H   0  0  0  0  0  0  0  0  0  0  0  0
   -9.5125   22.8558  -31.7621 H   0  0  0  0  0  0  0  0  0  0  0  0
  -10.0107   21.1299  -31.7621 H   0  0  0  0  0  0  0  0  0  0  0  0
   -5.7656   18.7310  -32.8309 H   0  0  0  0  0  0  0  0  0  0  0  0
   -3.2196   19.2732  -33.2271 H   0  0  0  0  0  0  0  0  0  0  0  0
   -5.0709   24.3238  -29.1636 H   0  0  0  0  0  0  0  0  0  0  0  0
   -5.1751   25.8978  -30.0227 H   0  0  0  0  0  0  0  0  0  0  0  0
   -6.5811   24.7799  -30.0227 H   0  0  0  0  0  0  0  0  0  0  0  0
  1  2  1  0
  2  3  1  0
  3  4  1  0
  4  5  1  0
  3  6  1  0
  6  7  1  0
  7  8  2  0
  8  9  1  0
  9 10  1  0
 10 11  1  0
 11 12  2  0
 11 13  1  0
 13 14  1  0
 10  6  2  0
  1 15  1  0
  1 16  1  0
  1 17  1  0
  2 18  1  0
  2 19  1  0
  4 20  1  0
  4 21  1  0
  5 22  1  0
  5 23  1  0
  5 24  1  0
  7 25  1  0
  8 26  1  0
 14 27  1  0
 14 28  1  0
 14 29  1  0
M  END
>  <UniqueID>  (8) 
8

>  <SMILES>  (8) 
CCN(CC)c1ccsc1C(=O)OC

>  <Energy>  (8) 
49.90834312871936

>  <Genealogy>  (8) 
CCN(CC)c1ccsc1C(=O)OC (3D coordinates assigned)
CCN(CC)c1ccsc1C(=O)OC (optimized conformer: 49.90834312871936 kcal/mol)

>  <smiles>  (8) 
CCN(CC)c1ccsc1C(=O)OC

>  <score_type>  (8) 
oracle

>  <origin>  (8) 
adg

>  <m_score__min__energy>  (8) 
-5.04

>  <m_primary>  (8) 
energy

$$$$
8:0
     RDKit          3D

 45 48  0  0  0  0  0  0  0  0999 V2000
   -7.3382   24.7912  -31.5862 H   0  0  0  0  0  0  0  0  0  0  0  0
   -6.3080   24.5920  -31.2560 C   0  0  0  0  0  0  0  0  0  0  0  0
   -5.4840   25.6150  -30.9140 N   0  0  0  0  0  0  0  0  0  0  0  0
   -4.2320   25.3890  -30.5180 N   0  0  0  0  0  0  0  0  0  0  0  0
   -3.7410   24.1230  -30.4440 C   0  0  0  0  0  0  0  0  0  0  0  0
   -2.5130   23.8860  -30.0910 N   0  0  0  0  0  0  0  0  0  0  0  0
   -1.8070   24.4380  -28.9680 C   0  0  0  0  0  0  0  0  0  0  0  0
   -1.4120   25.6350  -28.9650 O   0  0  0  0  0  0  0  0  0  0  0  0
   -1.5030   23.5550  -27.8010 C   0  0  0  0  0  0  0  0  0  0  0  0
   -2.4104   22.9938  -27.5332 H   0  0  0  0  0  0  0  0  0  0  0  0
   -1.1716   24.1918  -26.9676 H   0  0  0  0  0  0  0  0  0  0  0  0
   -0.1620   22.3680  -28.1780 S   0  0  0  0  0  0  0  0  0  0  0  0
   -0.8960   21.7390  -29.6940 C   0  0  0  0  0  0  0  0  0  0  0  0
   -0.2860   21.8620  -30.9030 N   0  0  0  0  0  0  0  0  0  0  0  0
   -1.1330   21.2260  -31.7330 C   0  0  0  0  0  0  0  0  0  0  0  0
   -0.9920   21.0380  -33.1060 C   0  0  0  0  0  0  0  0  0  0  0  0
   -0.1147   21.4243  -33.6455 H   0  0  0  0  0  0  0  0  0  0  0  0
   -2.0100   20.3370  -33.7800 C   0  0  0  0  0  0  0  0  0  0  0  0
   -1.9331   20.1688  -34.8643 H   0  0  0  0  0  0  0  0  0  0  0  0
   -3.1310   19.8480  -33.0700 C   0  0  0  0  0  0  0  0  0  0  0  0
   -3.9219   19.3033  -33.6064 H   0  0  0  0  0  0  0  0  0  0  0  0
   -3.2420   20.0530  -31.6830 C   0  0  0  0  0  0  0  0  0  0  0  0
   -4.1079   19.6764  -31.1188 H   0  0  0  0  0  0  0  0  0  0  0  0
   -2.2130   20.7520  -31.0480 C   0  0  0  0  0  0  0  0  0  0  0  0
   -2.0820   21.0760  -29.7510 N   0  0  0  0  0  0  0  0  0  0  0  0
   -3.0440   20.8400  -28.6690 C   0  0  0  0  0  0  0  0  0  0  0  0
   -3.9340   20.3417  -29.0808 H   0  0  0  0  0  0  0  0  0  0  0  0
   -3.3170   21.8083  -28.2242 H   0  0  0  0  0  0  0  0  0  0  0  0
   -2.4370   19.9600  -27.5840 C   0  0  0  0  0  0  0  0  0  0  0  0
   -2.7103   20.3563  -26.5949 H   0  0  0  0  0  0  0  0  0  0  0  0
   -2.8205   18.9341  -27.6868 H   0  0  0  0  0  0  0  0  0  0  0  0
   -1.3418   19.9541  -27.6868 H   0  0  0  0  0  0  0  0  0  0  0  0
   -4.5430   23.0830  -30.7790 N   0  0  0  0  0  0  0  0  0  0  0  0
   -5.8260   23.2780  -31.1820 C   0  0  0  0  0  0  0  0  0  0  0  0
   -6.6560   22.1090  -31.5690 C   0  0  0  0  0  0  0  0  0  0  0  0
   -6.2260   21.1930  -32.5500 C   0  0  0  0  0  0  0  0  0  0  0  0
   -5.2554   21.3386  -33.0467 H   0  0  0  0  0  0  0  0  0  0  0  0
   -7.0270   20.1000  -32.8950 C   0  0  0  0  0  0  0  0  0  0  0  0
   -6.6835   19.3879  -33.6599 H   0  0  0  0  0  0  0  0  0  0  0  0
   -8.2620   19.9100  -32.2710 C   0  0  0  0  0  0  0  0  0  0  0  0
   -8.8867   19.0454  -32.5400 H   0  0  0  0  0  0  0  0  0  0  0  0
   -8.7040   20.8170  -31.3060 C   0  0  0  0  0  0  0  0  0  0  0  0
   -9.6781   20.6683  -30.8171 H   0  0  0  0  0  0  0  0  0  0  0  0
   -7.9100   21.9130  -30.9610 C   0  0  0  0  0  0  0  0  0  0  0  0
   -8.2681   22.6296  -30.2071 H   0  0  0  0  0  0  0  0  0  0  0  0
  1  2  1  0
  2  3  2  0
  3  4  1  0
  4  5  1  0
  5  6  2  0
  6  7  1  0
  7  8  2  0
  7  9  1  0
  9 10  1  0
  9 11  1  0
  9 12  1  0
 12 13  1  0
 13 14  2  0
 14 15  1  0
 15 16  2  0
 16 17  1  0
 16 18  1  0
 18 19  1  0
 18 20  2  0
 20 21  1  0
 20 22  1  0
 22 23  1  0
 22 24  2  0
 24 25  1  0
 25 26  1  0
 26 27  1  0
 26 28  1  0
 26 29  1  0
 29 30  1  0
 29 31  1  0
 29 32  1  0
  5 33  1  0
 33 34  2  0
 34 35  1  0
 35 36  2  0
 36 37  1  0
 36 38  1  0
 38 39  1  0
 38 40  2  0
 40 41  1  0
 40 42  1  0
 42 43  1  0
 42 44  2  0
 44 45  1  0
 34  2  1  0
 44 35  1  0
 25 13  1  0
 24 15  1  0
M  CHG  1   4  -1
M  END
>  <UniqueID>  (9) 
9

>  <SMILES>  (9) 
CCn1c(SCC(=O)/N=c2/nc(-c3ccccc3)cn[n-]2)nc2ccccc21

>  <Energy>  (9) 
84.62410510059857

>  <Genealogy>  (9) 
CCn1c(SCC(=O)N=c2nc(-c3ccccc3)cn[n-]2)nc2ccccc21 (protonated)
CCn1c(SCC(=O)/N=c2/nc(-c3ccccc3)cn[n-]2)nc2ccccc21 (cis-trans isomerization)
CCn1c(SCC(=O)/N=c2/nc(-c3ccccc3)cn[n-]2)nc2ccccc21 (3D coordinates assigned)
CCn1c(SCC(=O)/N=c2/nc(-c3ccccc3)cn[n-]2)nc2ccccc21 (optimized conformer: 84.62410510059857 kcal/mol)

>  <smiles>  (9) 
CCn1c(SCC(=O)N=c2nc(-c3ccccc3)cn[nH]2)nc2ccccc21

>  <score_type>  (9) 
oracle

>  <origin>  (9) 
adg

>  <m_score__min__energy>  (9) 
-10.960000000000001

>  <m_primary>  (9) 
energy

$$$$
9:0
     RDKit          3D

 43 45  0  0  0  0  0  0  0  0999 V2000
   -1.7180   25.8710  -25.5310 C   0  0  0  0  0  0  0  0  0  0  0  0
   -0.6350   26.0510  -26.3830 C   0  0  0  0  0  0  0  0  0  0  0  0
   -1.0330   25.4140  -27.8870 S   0  0  0  0  0  0  0  0  0  0  0  0
   -2.5840   24.9160  -27.4680 C   0  0  0  0  0  0  0  0  0  0  0  0
   -3.5370   24.1960  -28.3730 C   0  0  0  0  0  0  0  0  0  0  0  0
   -3.2510   24.4690  -29.8630 C   0  0  0  0  0  0  0  0  0  0  0  0
   -4.1380   25.4750  -30.4770 N   0  0  0  0  0  0  0  0  0  0  0  0
   -5.5660   25.2660  -30.1970 C   0  0  0  0  0  0  0  0  0  0  0  0
   -6.0370   23.9350  -30.7220 C   0  0  0  0  0  0  0  0  0  0  0  0
   -5.4440   23.3600  -31.8520 C   0  0  0  0  0  0  0  0  0  0  0  0
   -5.9090   22.1390  -32.3380 C   0  0  0  0  0  0  0  0  0  0  0  0
   -6.9770   21.4960  -31.6940 C   0  0  0  0  0  0  0  0  0  0  0  0
   -7.4710   20.2330  -32.1800 N   0  0  0  0  0  0  0  0  0  0  0  0
   -8.8960   19.9000  -32.0610 C   0  0  0  0  0  0  0  0  0  0  0  0
   -9.0960   18.3960  -31.7610 C   0  0  0  0  0  0  0  0  0  0  0  0
   -7.9080   17.6290  -31.8640 O   0  0  0  0  0  0  0  0  0  0  0  0
   -7.2240   17.9490  -33.0570 C   0  0  0  0  0  0  0  0  0  0  0  0
   -6.5810   19.3290  -32.9180 C   0  0  0  0  0  0  0  0  0  0  0  0
   -7.5390   22.0730  -30.5920 N   0  0  0  0  0  0  0  0  0  0  0  0
   -7.0990   23.2640  -30.1030 C   0  0  0  0  0  0  0  0  0  0  0  0
   -2.8080   25.2330  -26.1350 C   0  0  0  0  0  0  0  0  0  0  0  0
   -1.7187   26.1989  -24.4810 H   0  0  0  0  0  0  0  0  0  0  0  0
    0.3198   26.5288  -26.1184 H   0  0  0  0  0  0  0  0  0  0  0  0
   -3.4508   23.1149  -28.1889 H   0  0  0  0  0  0  0  0  0  0  0  0
   -4.5506   24.5623  -28.1531 H   0  0  0  0  0  0  0  0  0  0  0  0
   -2.2134   24.8223  -29.9555 H   0  0  0  0  0  0  0  0  0  0  0  0
   -3.4300   23.5238  -30.3964 H   0  0  0  0  0  0  0  0  0  0  0  0
   -3.8660   26.4320  -30.1530 H   0  0  0  0  0  0  0  0  0  0  0  0
   -5.7266   25.2995  -29.1093 H   0  0  0  0  0  0  0  0  0  0  0  0
   -6.1384   26.0598  -30.6992 H   0  0  0  0  0  0  0  0  0  0  0  0
   -4.6111   23.8716  -32.3565 H   0  0  0  0  0  0  0  0  0  0  0  0
   -5.4409   21.6818  -33.2222 H   0  0  0  0  0  0  0  0  0  0  0  0
   -9.3353   20.4904  -31.2435 H   0  0  0  0  0  0  0  0  0  0  0  0
   -9.3890   20.1331  -33.0163 H   0  0  0  0  0  0  0  0  0  0  0  0
   -9.4861   18.2954  -30.7374 H   0  0  0  0  0  0  0  0  0  0  0  0
   -9.7941   18.0085  -32.5176 H   0  0  0  0  0  0  0  0  0  0  0  0
   -6.4432   17.1974  -33.2455 H   0  0  0  0  0  0  0  0  0  0  0  0
   -7.9339   17.9569  -33.8972 H   0  0  0  0  0  0  0  0  0  0  0  0
   -5.6294   19.2330  -32.3746 H   0  0  0  0  0  0  0  0  0  0  0  0
   -6.4017   19.7432  -33.9212 H   0  0  0  0  0  0  0  0  0  0  0  0
   -8.3150   21.5870  -30.0870 H   0  0  0  0  0  0  0  0  0  0  0  0
   -7.5802   23.7024  -29.2163 H   0  0  0  0  0  0  0  0  0  0  0  0
   -3.7461   25.0060  -25.6073 H   0  0  0  0  0  0  0  0  0  0  0  0
  1  2  2  0
  2  3  1  0
  3  4  1  0
  4  5  1  0
  5  6  1  0
  6  7  1  0
  7  8  1  0
  8  9  1  0
  9 10  2  0
 10 11  1  0
 11 12  2  0
 12 13  1  0
 13 14  1  0
 14 15  1  0
 15 16  1  0
 16 17  1  0
 17 18  1  0
 12 19  1  0
 19 20  2  0
  4 21  2  0
 21  1  1  0
 20  9  1  0
 18 13  1  0
  1 22  1  0
  2 23  1  0
  5 24  1  0
  5 25  1  0
  6 26  1  0
  6 27  1  0
  7 28  1  0
  8 29  1  0
  8 30  1  0
 10 31  1  0
 11 32  1  0
 14 33  1  0
 14 34  1  0
 15 35  1  0
 15 36  1  0
 17 37  1  0
 17 38  1  0
 18 39  1  0
 18 40  1  0
 19 41  1  0
 20 42  1  0
 21 43  1  0
M  CHG  1  19   1
M  END
>  <UniqueID>  (10) 
10

>  <SMILES>  (10) 
c1csc(CCNCc2ccc(N3CCOCC3)[nH+]c2)c1

>  <Energy>  (10) 
78.68640735293117

>  <Genealogy>  (10) 
c1csc(CCNCc2ccc(N3CCOCC3)[nH+]c2)c1 (protonated)
c1csc(CCNCc2ccc(N3CCOCC3)[nH+]c2)c1 (3D coordinates assigned)
c1csc(CCNCc2ccc(N3CCOCC3)[nH+]c2)c1 (nonaromatic ring conformer: 78.68640735293117 kcal/mol)

>  <smiles>  (10) 
c1csc(CCNCc2ccc(N3CCOCC3)nc2)c1

>  <score_type>  (10) 
oracle

>  <origin>  (10) 
adg

>  <m_score__min__energy>  (10) 
-7.9699999999999998

>  <m_primary>  (10) 
energy

$$$$
10:0
     RDKit          3D

 51 54  0  0  0  0  0  0  0  0999 V2000
   -4.0770   19.1980  -33.8210 C   0  0  0  0  0  0  0  0  0  0  0  0
   -5.4090   18.5710  -34.2190 C   0  0  0  0  0  0  0  0  0  0  0  0
   -5.6350   17.3300  -33.4350 N   0  0  0  0  0  0  0  0  0  0  0  0
   -6.6100   16.4570  -34.1090 C   0  0  0  0  0  0  0  0  0  0  0  0
   -6.0840   17.6140  -32.0550 C   0  0  0  0  0  0  0  0  0  0  0  0
   -6.9400   18.8520  -32.0170 C   0  0  0  0  0  0  0  0  0  0  0  0
   -8.2990   18.7750  -32.3530 C   0  0  0  0  0  0  0  0  0  0  0  0
   -9.1080   19.9110  -32.2810 C   0  0  0  0  0  0  0  0  0  0  0  0
   -8.5710   21.1300  -31.8620 C   0  0  0  0  0  0  0  0  0  0  0  0
   -7.2120   21.2260  -31.5090 C   0  0  0  0  0  0  0  0  0  0  0  0
   -6.6460   22.5130  -31.0330 C   0  0  0  0  0  0  0  0  0  0  0  0
   -7.3690   23.7090  -31.1820 C   0  0  0  0  0  0  0  0  0  0  0  0
   -6.8330   24.9180  -30.7330 C   0  0  0  0  0  0  0  0  0  0  0  0
   -5.5740   24.9480  -30.1290 C   0  0  0  0  0  0  0  0  0  0  0  0
   -4.8350   23.7650  -29.9670 C   0  0  0  0  0  0  0  0  0  0  0  0
   -3.5030   23.7950  -29.3220 C   0  0  0  0  0  0  0  0  0  0  0  0
   -2.9310   22.6970  -28.7580 N   0  0  0  0  0  0  0  0  0  0  0  0
   -1.7590   23.1670  -28.3080 C   0  0  0  0  0  0  0  0  0  0  0  0
   -0.7510   22.4680  -27.6340 C   0  0  0  0  0  0  0  0  0  0  0  0
   -0.9050   21.0170  -27.2890 C   0  0  0  0  0  0  0  0  0  0  0  0
    0.3890   23.2010  -27.2380 C   0  0  0  0  0  0  0  0  0  0  0  0
    0.4990   24.5760  -27.5410 C   0  0  0  0  0  0  0  0  0  0  0  0
   -0.5320   25.2390  -28.2320 C   0  0  0  0  0  0  0  0  0  0  0  0
   -1.6500   24.4930  -28.5960 C   0  0  0  0  0  0  0  0  0  0  0  0
   -2.7440   24.9200  -29.2410 N   0  0  0  0  0  0  0  0  0  0  0  0
   -5.3800   22.5510  -30.4210 C   0  0  0  0  0  0  0  0  0  0  0  0
   -6.4020   20.0790  -31.5950 C   0  0  0  0  0  0  0  0  0  0  0  0
   -4.0016   19.2335  -32.7242 H   0  0  0  0  0  0  0  0  0  0  0  0
   -3.2518   18.5938  -34.2259 H   0  0  0  0  0  0  0  0  0  0  0  0
   -4.0168   20.2190  -34.2259 H   0  0  0  0  0  0  0  0  0  0  0  0
   -6.2226   19.2834  -34.0177 H   0  0  0  0  0  0  0  0  0  0  0  0
   -5.3887   18.3248  -35.2909 H   0  0  0  0  0  0  0  0  0  0  0  0
   -7.2066   15.9228  -33.3549 H   0  0  0  0  0  0  0  0  0  0  0  0
   -7.2751   17.0670  -34.7379 H   0  0  0  0  0  0  0  0  0  0  0  0
   -6.0769   15.7288  -34.7379 H   0  0  0  0  0  0  0  0  0  0  0  0
   -6.6683   16.7597  -31.6825 H   0  0  0  0  0  0  0  0  0  0  0  0
   -5.1992   17.7768  -31.4221 H   0  0  0  0  0  0  0  0  0  0  0  0
   -8.7299   17.8154  -32.6748 H   0  0  0  0  0  0  0  0  0  0  0  0
  -10.1713   19.8454  -32.5551 H   0  0  0  0  0  0  0  0  0  0  0  0
   -9.2141   22.0207  -31.8075 H   0  0  0  0  0  0  0  0  0  0  0  0
   -8.3621   23.6928  -31.6547 H   0  0  0  0  0  0  0  0  0  0  0  0
   -7.4044   25.8499  -30.8555 H   0  0  0  0  0  0  0  0  0  0  0  0
   -5.1588   25.9043  -29.7780 H   0  0  0  0  0  0  0  0  0  0  0  0
   -0.9175   20.8995  -26.1954 H   0  0  0  0  0  0  0  0  0  0  0  0
   -1.8484   20.6383  -27.7093 H   0  0  0  0  0  0  0  0  0  0  0  0
   -0.0621   20.4487  -27.7093 H   0  0  0  0  0  0  0  0  0  0  0  0
    1.1980   22.6970  -26.6890 H   0  0  0  0  0  0  0  0  0  0  0  0
    1.3970   25.1326  -27.2347 H   0  0  0  0  0  0  0  0  0  0  0  0
   -0.4574   26.3090  -28.4760 H   0  0  0  0  0  0  0  0  0  0  0  0
   -4.8091   21.6191  -30.2960 H   0  0  0  0  0  0  0  0  0  0  0  0
   -5.3366   20.1437  -31.3291 H   0  0  0  0  0  0  0  0  0  0  0  0
  1  2  1  0
  2  3  1  0
  3  4  1  0
  3  5  1  0
  5  6  1  0
  6  7  2  0
  7  8  1  0
  8  9  2  0
  9 10  1  0
 10 11  1  0
 11 12  2  0
 12 13  1  0
 13 14  2  0
 14 15  1  0
 15 16  1  0
 16 17  2  0
 17 18  1  0
 18 19  2  0
 19 20  1  0
 19 21  1  0
 21 22  2  0
 22 23  1  0
 23 24  2  0
 24 25  1  0
 15 26  2  0
 10 27  2  0
 27  6  1  0
 26 11  1  0
 25 16  1  0
 24 18  1  0
  1 28  1  0
  1 29  1  0
  1 30  1  0
  2 31  1  0
  2 32  1  0
  4 33  1  0
  4 34  1  0
  4 35  1  0
  5 36  1  0
  5 37  1  0
  7 38  1  0
  8 39  1  0
  9 40  1  0
 12 41  1  0
 13 42  1  0
 14 43  1  0
 20 44  1  0
 20 45  1  0
 20 46  1  0
 21 47  1  0
 22 48  1  0
 23 49  1  0
 26 50  1  0
 27 51  1  0
M  CHG  1  25  -1
M  END
>  <UniqueID>  (11) 
11

>  <SMILES>  (11) 
CCN(C)Cc1cccc(-c2cccc(-c3nc4c(C)cccc4[n-]3)c2)c1

>  <Energy>  (11) 
93.88273471180547

>  <Genealogy>  (11) 
CCN(C)Cc1cccc(-c2cccc(-c3nc4c(C)cccc4[n-]3)c2)c1 (protonated)
CCN(C)Cc1cccc(-c2cccc(-c3nc4c(C)cccc4[n-]3)c2)c1 (3D coordinates assigned)
CCN(C)Cc1cccc(-c2cccc(-c3nc4c(C)cccc4[n-]3)c2)c1 (optimized conformer: 93.88273471180547 kcal/mol)

>  <smiles>  (11) 
CCN(C)Cc1cccc(-c2cccc(-c3nc4c(C)cccc4[nH]3)c2)c1

>  <score_type>  (11) 
oracle

>  <origin>  (11) 
adg

>  <m_score__min__energy>  (11) 
-10.18

>  <m_primary>  (11) 
energy

$$$$
11:0
     RDKit          3D

 57 59  0  0  0  0  0  0  0  0999 V2000
   -4.5760   14.9710  -32.2960 C   0  0  0  0  0  0  0  0  0  0  0  0
   -4.8280   15.5710  -33.6770 C   0  0  0  0  0  0  0  0  0  0  0  0
   -6.2190   16.0280  -33.8080 N   0  0  0  0  0  0  0  0  0  0  0  0
   -7.2330   15.0900  -34.3180 C   0  0  0  0  0  0  0  0  0  0  0  0
   -6.6190   13.7170  -34.5830 C   0  0  0  0  0  0  0  0  0  0  0  0
   -6.5800   17.3810  -33.4410 C   0  0  0  0  0  0  0  0  0  0  0  0
   -7.4050   17.6280  -32.3280 C   0  0  0  0  0  0  0  0  0  0  0  0
   -7.7580   18.9340  -31.9800 C   0  0  0  0  0  0  0  0  0  0  0  0
   -7.2980   20.0200  -32.7380 C   0  0  0  0  0  0  0  0  0  0  0  0
   -7.6580   21.4320  -32.3390 C   0  0  0  0  0  0  0  0  0  0  0  0
   -6.6720   22.0080  -31.3940 N   0  0  0  0  0  0  0  0  0  0  0  0
   -5.2790   21.8140  -31.8800 C   0  0  0  0  0  0  0  0  0  0  0  0
   -4.2650   22.8310  -31.3100 C   0  0  0  0  0  0  0  0  0  0  0  0
   -4.7470   23.4550  -30.0690 N   0  0  0  0  0  0  0  0  0  0  0  0
   -3.8100   23.8270  -29.0400 C   0  0  0  0  0  0  0  0  0  0  0  0
   -4.2630   24.2450  -27.7760 C   0  0  0  0  0  0  0  0  0  0  0  0
   -3.3530   24.6100  -26.7830 C   0  0  0  0  0  0  0  0  0  0  0  0
   -1.9800   24.5610  -27.0350 C   0  0  0  0  0  0  0  0  0  0  0  0
   -1.5080   24.1320  -28.2850 C   0  0  0  0  0  0  0  0  0  0  0  0
   -0.0360   24.1190  -28.5740 C   0  0  0  0  0  0  0  0  0  0  0  0
   -2.4260   23.7820  -29.2880 C   0  0  0  0  0  0  0  0  0  0  0  0
   -6.1240   23.9610  -29.9990 C   0  0  0  0  0  0  0  0  0  0  0  0
   -6.9630   23.4380  -31.1690 C   0  0  0  0  0  0  0  0  0  0  0  0
   -6.4690   19.7800  -33.8440 C   0  0  0  0  0  0  0  0  0  0  0  0
   -6.1150   18.4750  -34.1930 C   0  0  0  0  0  0  0  0  0  0  0  0
   -4.8788   15.6918  -31.5222 H   0  0  0  0  0  0  0  0  0  0  0  0
   -5.1619   14.0466  -32.1854 H   0  0  0  0  0  0  0  0  0  0  0  0
   -3.5058   14.7422  -32.1854 H   0  0  0  0  0  0  0  0  0  0  0  0
   -4.1529   16.4266  -33.8259 H   0  0  0  0  0  0  0  0  0  0  0  0
   -4.6414   14.7958  -34.4348 H   0  0  0  0  0  0  0  0  0  0  0  0
   -8.0364   14.9879  -33.5736 H   0  0  0  0  0  0  0  0  0  0  0  0
   -7.6339   15.4847  -35.2632 H   0  0  0  0  0  0  0  0  0  0  0  0
   -6.3981   13.2231  -33.6253 H   0  0  0  0  0  0  0  0  0  0  0  0
   -7.3282   13.1028  -35.1573 H   0  0  0  0  0  0  0  0  0  0  0  0
   -5.6884   13.8361  -35.1573 H   0  0  0  0  0  0  0  0  0  0  0  0
   -7.7753   16.7848  -31.7264 H   0  0  0  0  0  0  0  0  0  0  0  0
   -8.4011   19.1115  -31.1054 H   0  0  0  0  0  0  0  0  0  0  0  0
   -7.6930   22.0588  -33.2423 H   0  0  0  0  0  0  0  0  0  0  0  0
   -8.6362   21.4053  -31.8366 H   0  0  0  0  0  0  0  0  0  0  0  0
   -6.7780   21.5090  -30.4770 H   0  0  0  0  0  0  0  0  0  0  0  0
   -4.9515   20.8031  -31.5956 H   0  0  0  0  0  0  0  0  0  0  0  0
   -5.2994   21.9629  -32.9697 H   0  0  0  0  0  0  0  0  0  0  0  0
   -3.3191   22.3099  -31.1010 H   0  0  0  0  0  0  0  0  0  0  0  0
   -4.1255   23.6260  -32.0573 H   0  0  0  0  0  0  0  0  0  0  0  0
   -5.3425   24.2845  -27.5685 H   0  0  0  0  0  0  0  0  0  0  0  0
   -3.7182   24.9374  -25.7984 H   0  0  0  0  0  0  0  0  0  0  0  0
   -1.2673   24.8593  -26.2520 H   0  0  0  0  0  0  0  0  0  0  0  0
    0.5236   24.1141  -27.6270 H   0  0  0  0  0  0  0  0  0  0  0  0
    0.2160   23.2186  -29.1535 H   0  0  0  0  0  0  0  0  0  0  0  0
    0.2318   25.0148  -29.1535 H   0  0  0  0  0  0  0  0  0  0  0  0
   -2.0596   23.4697  -30.2770 H   0  0  0  0  0  0  0  0  0  0  0  0
   -6.5804   23.6315  -29.0539 H   0  0  0  0  0  0  0  0  0  0  0  0
   -6.0961   25.0594  -30.0521 H   0  0  0  0  0  0  0  0  0  0  0  0
   -8.0310   23.5610  -30.9361 H   0  0  0  0  0  0  0  0  0  0  0  0
   -6.7136   24.0064  -32.0771 H   0  0  0  0  0  0  0  0  0  0  0  0
   -6.0953   20.6254  -34.4403 H   0  0  0  0  0  0  0  0  0  0  0  0
   -5.4664   18.3009  -35.0642 H   0  0  0  0  0  0  0  0  0  0  0  0
  1  2  1  0
  2  3  1  0
  3  4  1  0
  4  5  1  0
  3  6  1  0
  6  7  2  0
  7  8  1  0
  8  9  2  0
  9 10  1  0
 10 11  1  0
 11 12  1  0
 12 13  1  0
 13 14  1  0
 14 15  1  0
 15 16  2  0
 16 17  1  0
 17 18  2  0
 18 19  1  0
 19 20  1  0
 19 21  2  0
 14 22  1  0
 22 23  1  0
  9 24  1  0
 24 25  2  0
 25  6  1  0
 23 11  1  0
 21 15  1  0
  1 26  1  0
  1 27  1  0
  1 28  1  0
  2 29  1  0
  2 30  1  0
  4 31  1  0
  4 32  1  0
  5 33  1  0
  5 34  1  0
  5 35  1  0
  7 36  1  0
  8 37  1  0
 10 38  1  0
 10 39  1  0
 11 40  1  0
 12 41  1  0
 12 42  1  0
 13 43  1  0
 13 44  1  0
 16 45  1  0
 17 46  1  0
 18 47  1  0
 20 48  1  0
 20 49  1  0
 20 50  1  0
 21 51  1  0
 22 52  1  0
 22 53  1  0
 23 54  1  0
 23 55  1  0
 24 56  1  0
 25 57  1  0
M  CHG  1  11   1
M  END
>  <UniqueID>  (12) 
12

>  <SMILES>  (12) 
CCN(CC)c1ccc(C[NH+]2CCN(c3cccc(C)c3)CC2)cc1

>  <Energy>  (12) 
64.75288872935441

>  <Genealogy>  (12) 
CCN(CC)c1ccc(C[NH+]2CCN(c3cccc(C)c3)CC2)cc1 (protonated)
CCN(CC)c1ccc(C[NH+]2CCN(c3cccc(C)c3)CC2)cc1 (3D coordinates assigned)
CCN(CC)c1ccc(C[NH+]2CCN(c3cccc(C)c3)CC2)cc1 (nonaromatic ring conformer: 64.75288872935441 kcal/mol)

>  <smiles>  (12) 
CCN(CC)c1ccc(CN2CCN(c3cccc(C)c3)CC2)cc1

>  <score_type>  (12) 
oracle

>  <origin>  (12) 
adg

>  <m_score__min__energy>  (12) 
-6.8099999999999996

>  <m_primary>  (12) 
energy

$$$$
12:0
     RDKit          3D

 49 51  0  0  0  0  0  0  0  0999 V2000
   -5.8090   14.6920  -33.9200 C   0  0  0  0  0  0  0  0  0  0  0  0
   -6.7090   15.7930  -33.9600 O   0  0  0  0  0  0  0  0  0  0  0  0
   -6.3540   17.1200  -33.6690 C   0  0  0  0  0  0  0  0  0  0  0  0
   -5.0400   17.5210  -33.9180 C   0  0  0  0  0  0  0  0  0  0  0  0
   -4.6340   18.8270  -33.6480 C   0  0  0  0  0  0  0  0  0  0  0  0
   -5.5390   19.7670  -33.1240 C   0  0  0  0  0  0  0  0  0  0  0  0
   -5.0870   21.1490  -32.8260 C   0  0  0  0  0  0  0  0  0  0  0  0
   -4.1470   21.6490  -33.5020 O   0  0  0  0  0  0  0  0  0  0  0  0
   -5.7430   21.9830  -31.7470 C   0  0  2  0  0  0  0  0  0  0  0  0
   -6.1130   23.3710  -32.2890 C   0  0  0  0  0  0  0  0  0  0  0  0
   -6.8500   24.2020  -31.2230 C   0  0  0  0  0  0  0  0  0  0  0  0
   -6.4050   23.8570  -29.7870 C   0  0  0  0  0  0  0  0  0  0  0  0
   -5.0050   23.3790  -29.7590 N   0  0  1  0  0  0  0  0  0  0  0  0
   -4.4480   23.3260  -28.3840 C   0  0  0  0  0  0  0  0  0  0  0  0
   -3.1840   24.1360  -28.1950 C   0  0  0  0  0  0  0  0  0  0  0  0
   -2.4820   24.1090  -26.9840 C   0  0  0  0  0  0  0  0  0  0  0  0
   -1.3250   24.8750  -26.8480 C   0  0  0  0  0  0  0  0  0  0  0  0
   -0.9020   25.6590  -27.9220 C   0  0  0  0  0  0  0  0  0  0  0  0
    0.1390   26.3600  -27.8270 O   0  0  0  0  0  0  0  0  0  0  0  0
   -1.6220   25.6630  -29.0720 N   0  0  0  0  0  0  0  0  0  0  0  0
   -2.7290   24.9280  -29.2040 N   0  0  0  0  0  0  0  0  0  0  0  0
   -4.8410   22.0900  -30.4840 C   0  0  0  0  0  0  0  0  0  0  0  0
   -6.8710   19.3740  -32.8670 C   0  0  0  0  0  0  0  0  0  0  0  0
   -7.7750   20.3220  -32.3550 O   0  0  0  0  0  0  0  0  0  0  0  0
   -9.1160   20.0400  -31.9710 C   0  0  0  0  0  0  0  0  0  0  0  0
   -7.2690   18.0490  -33.1410 C   0  0  0  0  0  0  0  0  0  0  0  0
   -5.5955   14.4308  -32.8730 H   0  0  0  0  0  0  0  0  0  0  0  0
   -6.2632   13.8285  -34.4280 H   0  0  0  0  0  0  0  0  0  0  0  0
   -4.8724   14.9654  -34.4280 H   0  0  0  0  0  0  0  0  0  0  0  0
   -4.3189   16.8002  -34.3308 H   0  0  0  0  0  0  0  0  0  0  0  0
   -3.5942   19.1255  -33.8471 H   0  0  0  0  0  0  0  0  0  0  0  0
   -6.6705   21.4765  -31.4417 H   0  0  0  0  0  0  0  0  0  0  0  0
   -5.1939   23.8985  -32.5841 H   0  0  0  0  0  0  0  0  0  0  0  0
   -6.7790   23.2426  -33.1550 H   0  0  0  0  0  0  0  0  0  0  0  0
   -6.6496   25.2678  -31.4071 H   0  0  0  0  0  0  0  0  0  0  0  0
   -7.9222   23.9699  -31.3034 H   0  0  0  0  0  0  0  0  0  0  0  0
   -6.4892   24.7567  -29.1597 H   0  0  0  0  0  0  0  0  0  0  0  0
   -7.0538   23.0548  -29.4054 H   0  0  0  0  0  0  0  0  0  0  0  0
   -4.4250   24.0930  -30.2640 H   0  0  0  0  0  0  0  0  0  0  0  0
   -5.2097   23.7079  -27.6883 H   0  0  0  0  0  0  0  0  0  0  0  0
   -4.1824   22.2762  -28.1909 H   0  0  0  0  0  0  0  0  0  0  0  0
   -2.8397   23.4897  -26.1482 H   0  0  0  0  0  0  0  0  0  0  0  0
   -0.7540   24.8615  -25.9079 H   0  0  0  0  0  0  0  0  0  0  0  0
   -3.7902   21.9940  -30.7948 H   0  0  0  0  0  0  0  0  0  0  0  0
   -5.1414   21.2856  -29.7964 H   0  0  0  0  0  0  0  0  0  0  0  0
   -9.1877   20.0249  -30.8734 H   0  0  0  0  0  0  0  0  0  0  0  0
   -9.7833   20.8175  -32.3714 H   0  0  0  0  0  0  0  0  0  0  0  0
   -9.4136   19.0596  -32.3714 H   0  0  0  0  0  0  0  0  0  0  0  0
   -8.3051   17.7389  -32.9399 H   0  0  0  0  0  0  0  0  0  0  0  0
  1  2  1  0
  2  3  1  0
  3  4  2  0
  4  5  1  0
  5  6  2  0
  6  7  1  0
  7  8  2  0
  7  9  1  0
  9 10  1  0
 10 11  1  0
 11 12  1  0
 12 13  1  0
 13 14  1  0
 14 15  1  0
 15 16  1  0
 16 17  2  0
 17 18  1  0
 18 19  2  0
 18 20  1  0
 20 21  1  0
 13 22  1  0
  6 23  1  0
 23 24  1  0
 24 25  1  0
 23 26  2  0
 26  3  1  0
 22  9  1  0
 21 15  2  0
  1 27  1  0
  1 28  1  0
  1 29  1  0
  4 30  1  0
  5 31  1  0
  9 32  1  1
 10 33  1  0
 10 34  1  0
 11 35  1  0
 11 36  1  0
 12 37  1  0
 12 38  1  0
 13 39  1  6
 14 40  1  0
 14 41  1  0
 16 42  1  0
 17 43  1  0
 22 44  1  0
 22 45  1  0
 25 46  1  0
 25 47  1  0
 25 48  1  0
 26 49  1  0
M  CHG  2  13   1  20  -1
M  END
>  <UniqueID>  (13) 
13

>  <SMILES>  (13) 
COc1ccc(C(=O)[C@@H]2CCC[N@@H+](Cc3ccc(=O)[n-]n3)C2)c(OC)c1

>  <Energy>  (13) 
63.85696209378477

>  <Genealogy>  (13) 
COc1ccc(C(=O)C2CCC[NH+](Cc3ccc(=O)[n-]n3)C2)c(OC)c1 (protonated)
COc1ccc(C(=O)[C@@H]2CCC[N@@H+](Cc3ccc(=O)[n-]n3)C2)c(OC)c1 (chirality)
COc1ccc(C(=O)[C@@H]2CCC[N@@H+](Cc3ccc(=O)[n-]n3)C2)c(OC)c1 (3D coordinates assigned)
COc1ccc(C(=O)[C@@H]2CCC[N@@H+](Cc3ccc(=O)[n-]n3)C2)c(OC)c1 (nonaromatic ring conformer: 63.85696209378477 kcal/mol)

>  <smiles>  (13) 
COc1ccc(C(=O)C2CCCN(Cc3ccc(=O)[nH]n3)C2)c(OC)c1

>  <score_type>  (13) 
oracle

>  <origin>  (13) 
adg

>  <m_score__min__energy>  (13) 
-9.8100000000000005

>  <m_primary>  (13) 
energy

$$$$
13:0
     RDKit          3D

 40 42  0  0  0  0  0  0  0  0999 V2000
   -2.2700   24.2890  -29.3360 C   0  0  0  0  0  0  0  0  0  0  0  0
   -3.1600   24.7750  -30.3350 O   0  0  0  0  0  0  0  0  0  0  0  0
   -4.5330   24.4820  -30.3940 C   0  0  0  0  0  0  0  0  0  0  0  0
   -5.4990   25.3600  -29.8650 C   0  0  0  0  0  0  0  0  0  0  0  0
   -6.8540   25.0350  -29.9140 C   0  0  0  0  0  0  0  0  0  0  0  0
   -7.2660   23.8340  -30.4890 C   0  0  0  0  0  0  0  0  0  0  0  0
   -6.3260   22.9520  -31.0400 C   0  0  0  0  0  0  0  0  0  0  0  0
   -4.9510   23.2730  -30.9950 C   0  0  0  0  0  0  0  0  0  0  0  0
   -3.9290   22.2910  -31.5370 C   0  0  1  0  0  0  0  0  0  0  0  0
   -3.4460   21.3570  -30.4240 C   0  0  0  0  0  0  0  0  0  0  0  0
   -4.5070   21.4880  -32.6700 C   0  0  0  0  0  0  0  0  0  0  0  0
   -3.7370   21.0480  -33.5670 O   0  0  0  0  0  0  0  0  0  0  0  0
   -5.9200   21.2020  -32.7160 N   0  0  0  0  0  0  0  0  0  0  0  0
   -6.4600   20.2890  -33.7310 C   0  0  0  0  0  0  0  0  0  0  0  0
   -6.1370   18.8630  -33.3740 C   0  0  0  0  0  0  0  0  0  0  0  0
   -5.6390   17.9850  -34.3510 C   0  0  0  0  0  0  0  0  0  0  0  0
   -5.3760   16.6500  -34.0320 C   0  0  0  0  0  0  0  0  0  0  0  0
   -5.6090   16.1800  -32.7370 C   0  0  0  0  0  0  0  0  0  0  0  0
   -6.1100   17.0450  -31.7590 C   0  0  0  0  0  0  0  0  0  0  0  0
   -6.3770   18.3810  -32.0760 C   0  0  0  0  0  0  0  0  0  0  0  0
   -6.7800   21.6310  -31.6050 C   0  0  0  0  0  0  0  0  0  0  0  0
   -2.6795   24.5126  -28.3399 H   0  0  0  0  0  0  0  0  0  0  0  0
   -2.1518   23.2011  -29.4481 H   0  0  0  0  0  0  0  0  0  0  0  0
   -1.2909   24.7777  -29.4481 H   0  0  0  0  0  0  0  0  0  0  0  0
   -5.1819   26.3097  -29.4095 H   0  0  0  0  0  0  0  0  0  0  0  0
   -7.5998   25.7282  -29.4978 H   0  0  0  0  0  0  0  0  0  0  0  0
   -8.3353   23.5767  -30.5106 H   0  0  0  0  0  0  0  0  0  0  0  0
   -3.0717   22.8646  -31.9191 H   0  0  0  0  0  0  0  0  0  0  0  0
   -3.6766   21.8030  -29.4453 H   0  0  0  0  0  0  0  0  0  0  0  0
   -3.9550   20.3860  -30.5136 H   0  0  0  0  0  0  0  0  0  0  0  0
   -2.3594   21.2111  -30.5136 H   0  0  0  0  0  0  0  0  0  0  0  0
   -7.5518   20.4113  -33.7853 H   0  0  0  0  0  0  0  0  0  0  0  0
   -6.0059   20.5264  -34.7044 H   0  0  0  0  0  0  0  0  0  0  0  0
   -5.4551   18.3501  -35.3722 H   0  0  0  0  0  0  0  0  0  0  0  0
   -4.9850   15.9682  -34.8016 H   0  0  0  0  0  0  0  0  0  0  0  0
   -5.3984   15.1297  -32.4868 H   0  0  0  0  0  0  0  0  0  0  0  0
   -6.2942   16.6745  -30.7398 H   0  0  0  0  0  0  0  0  0  0  0  0
   -6.7766   19.0572  -31.3059 H   0  0  0  0  0  0  0  0  0  0  0  0
   -7.8126   21.7333  -31.9700 H   0  0  0  0  0  0  0  0  0  0  0  0
   -6.7219   20.8743  -30.8087 H   0  0  0  0  0  0  0  0  0  0  0  0
  1  2  1  0
  2  3  1  0
  3  4  2  0
  4  5  1  0
  5  6  2  0
  6  7  1  0
  7  8  2  0
  8  9  1  0
  9 10  1  0
  9 11  1  0
 11 12  2  0
 11 13  1  0
 13 14  1  0
 14 15  1  0
 15 16  2  0
 16 17  1  0
 17 18  2  0
 18 19  1  0
 19 20  2  0
 13 21  1  0
  8  3  1  0
 20 15  1  0
 21  7  1  0
  1 22  1  0
  1 23  1  0
  1 24  1  0
  4 25  1  0
  5 26  1  0
  6 27  1  0
  9 28  1  6
 10 29  1  0
 10 30  1  0
 10 31  1  0
 14 32  1  0
 14 33  1  0
 16 34  1  0
 17 35  1  0
 18 36  1  0
 19 37  1  0
 20 38  1  0
 21 39  1  0
 21 40  1  0
M  END
>  <UniqueID>  (14) 
14

>  <SMILES>  (14) 
COc1cccc2c1[C@@H](C)C(=O)N(Cc1ccccc1)C2

>  <Energy>  (14) 
39.83735408918874

>  <Genealogy>  (14) 
COc1cccc2c1[C@@H](C)C(=O)N(Cc1ccccc1)C2 (chirality)
COc1cccc2c1[C@@H](C)C(=O)N(Cc1ccccc1)C2 (3D coordinates assigned)
COc1cccc2c1[C@@H](C)C(=O)N(Cc1ccccc1)C2 (nonaromatic ring conformer: 39.83735408918874 kcal/mol)

>  <smiles>  (14) 
COc1cccc2c1C(C)C(=O)N(Cc1ccccc1)C2

>  <score_type>  (14) 
oracle

>  <origin>  (14) 
adg

>  <m_score__min__energy>  (14) 
-8.0199999999999996

>  <m_primary>  (14) 
energy

$$$$
14:0
     RDKit          3D

 31 33  0  0  1  0  0  0  0  0999 V2000
   -2.9590   20.8110  -32.6570 C   0  0  0  0  0  0  0  0  0  0  0  0
   -4.2970   21.4220  -32.4350 C   0  0  0  0  0  0  0  0  0  0  0  0
   -4.3850   22.7550  -32.2690 N   0  0  0  0  0  0  0  0  0  0  0  0
   -5.6250   23.2580  -32.0710 C   0  0  0  0  0  0  0  0  0  0  0  0
   -5.7030   24.5350  -31.9140 N   0  0  0  0  0  0  0  0  0  0  0  0
   -5.7890   25.1010  -30.5820 C   0  0  0  0  0  0  0  0  0  0  0  0
   -4.6760   24.5640  -29.7560 C   0  0  0  0  0  0  0  0  0  0  0  0
   -4.6670   23.4610  -28.9230 C   0  0  0  0  0  0  0  0  0  0  0  0
   -3.3830   23.4170  -28.4040 C   0  0  0  0  0  0  0  0  0  0  0  0
   -2.6880   24.4680  -28.9350 C   0  0  0  0  0  0  0  0  0  0  0  0
   -0.8670   24.9160  -28.5840 Br  0  0  0  0  0  0  0  0  0  0  0  0
   -3.4860   25.1290  -29.7340 O   0  0  0  0  0  0  0  0  0  0  0  0
   -6.7560   22.4690  -32.0350 C   0  0  0  0  0  0  0  0  0  0  0  0
   -7.9840   23.0660  -31.8270 C   0  0  0  0  0  0  0  0  0  0  0  0
   -9.0930   22.2270  -31.7980 C   0  0  0  0  0  0  0  0  0  0  0  0
   -8.9430   20.8680  -31.9730 C   0  0  0  0  0  0  0  0  0  0  0  0
   -7.7060   20.2910  -32.1800 C   0  0  0  0  0  0  0  0  0  0  0  0
   -6.5980   21.1130  -32.2100 C   0  0  0  0  0  0  0  0  0  0  0  0
   -5.3630   20.6010  -32.4090 N   0  0  0  0  0  0  0  0  0  0  0  0
   -2.4884   20.5961  -31.6862 H   0  0  0  0  0  0  0  0  0  0  0  0
   -3.0727   19.8755  -33.2245 H   0  0  0  0  0  0  0  0  0  0  0  0
   -2.3265   21.5095  -33.2245 H   0  0  0  0  0  0  0  0  0  0  0  0
   -5.7095   26.1965  -30.6408 H   0  0  0  0  0  0  0  0  0  0  0  0
   -6.7535   24.8334  -30.1257 H   0  0  0  0  0  0  0  0  0  0  0  0
   -5.4974   22.7695  -28.7172 H   0  0  0  0  0  0  0  0  0  0  0  0
   -2.9937   22.6723  -27.6942 H   0  0  0  0  0  0  0  0  0  0  0  0
   -8.0804   24.1533  -31.6908 H   0  0  0  0  0  0  0  0  0  0  0  0
  -10.0951   22.6502  -31.6345 H   0  0  0  0  0  0  0  0  0  0  0  0
   -9.8348   20.2246  -31.9470 H   0  0  0  0  0  0  0  0  0  0  0  0
   -7.6062   19.2042  -32.3175 H   0  0  0  0  0  0  0  0  0  0  0  0
   -5.2180   19.5700  -32.5450 H   0  0  0  0  0  0  0  0  0  0  0  0
  1  2  1  0
  2  3  2  0
  3  4  1  0
  4  5  2  0
  5  6  1  0
  6  7  1  0
  7  8  2  0
  8  9  1  0
  9 10  2  0
 10 11  1  0
 10 12  1  0
  4 13  1  0
 13 14  2  0
 14 15  1  0
 15 16  2  0
 16 17  1  0
 17 18  2  0
 18 19  1  0
 19  2  1  0
 12  7  1  0
 18 13  1  0
  1 20  1  0
  1 21  1  0
  1 22  1  0
  6 23  1  0
  6 24  1  0
  8 25  1  0
  9 26  1  0
 14 27  1  0
 15 28  1  0
 16 29  1  0
 17 30  1  0
 19 31  1  0
M  END
>  <smiles>  (15) 
Cc1nc(=NCc2ccc(Br)o2)c2ccccc2[nH]1

>  <score_type>  (15) 
oracle

>  <origin>  (15) 
adg

>  <m_score__min__energy>  (15) 
-8.1699999999999999

>  <m_primary>  (15) 
energy

$$$$
15:0
     RDKit          3D

 57 60  0  0  0  0  0  0  0  0999 V2000
   -1.0016   22.1131  -29.7573 H   0  0  0  0  0  0  0  0  0  0  0  0
   -1.9270   22.6220  -30.0650 C   0  0  0  0  0  0  0  0  0  0  0  0
   -2.3870   23.7480  -29.3660 C   0  0  0  0  0  0  0  0  0  0  0  0
   -1.6430   24.2980  -28.2100 C   0  0  0  0  0  0  0  0  0  0  0  0
   -1.4330   23.4850  -27.0800 C   0  0  0  0  0  0  0  0  0  0  0  0
   -1.8175   22.4544  -27.0701 H   0  0  0  0  0  0  0  0  0  0  0  0
   -0.7400   23.9770  -25.9710 C   0  0  0  0  0  0  0  0  0  0  0  0
   -0.5866   23.3355  -25.0907 H   0  0  0  0  0  0  0  0  0  0  0  0
   -0.2420   25.2810  -25.9780 C   0  0  0  0  0  0  0  0  0  0  0  0
    0.4300   25.7550  -24.9000 F   0  0  0  0  0  0  0  0  0  0  0  0
   -0.4260   26.0930  -27.0990 C   0  0  0  0  0  0  0  0  0  0  0  0
   -0.0278   27.1184  -27.1036 H   0  0  0  0  0  0  0  0  0  0  0  0
   -1.1150   25.6080  -28.2170 C   0  0  0  0  0  0  0  0  0  0  0  0
   -1.2400   26.4240  -29.3360 O   0  0  0  0  0  0  0  0  0  0  0  0
   -3.5160   24.3770  -29.7910 N   0  0  0  0  0  0  0  0  0  0  0  0
   -4.2160   23.9320  -30.8650 C   0  0  0  0  0  0  0  0  0  0  0  0
   -5.2850   24.5720  -31.2360 N   0  0  0  0  0  0  0  0  0  0  0  0
   -6.3350   24.0540  -32.1210 C   0  0  0  0  0  0  0  0  0  0  0  0
   -7.0438   24.8643  -32.3467 H   0  0  0  0  0  0  0  0  0  0  0  0
   -5.8586   23.6823  -33.0402 H   0  0  0  0  0  0  0  0  0  0  0  0
   -7.0690   22.9350  -31.4950 N   0  0  0  0  0  0  0  0  0  0  0  0
   -6.4420   21.6090  -31.7330 C   0  0  0  0  0  0  0  0  0  0  0  0
   -5.4160   21.7651  -32.0977 H   0  0  0  0  0  0  0  0  0  0  0  0
   -6.4554   21.0590  -30.7805 H   0  0  0  0  0  0  0  0  0  0  0  0
   -7.2080   20.7690  -32.7650 C   0  0  0  0  0  0  0  0  0  0  0  0
   -7.2080   21.2984  -33.7292 H   0  0  0  0  0  0  0  0  0  0  0  0
   -6.7095   19.7928  -32.8574 H   0  0  0  0  0  0  0  0  0  0  0  0
   -8.6630   20.5320  -32.3230 C   0  0  0  0  0  0  0  0  0  0  0  0
   -9.2915   20.4364  -33.2207 H   0  0  0  0  0  0  0  0  0  0  0  0
   -8.6783   19.6163  -31.7137 H   0  0  0  0  0  0  0  0  0  0  0  0
   -9.2180   21.6750  -31.4540 C   0  0  0  0  0  0  0  0  0  0  0  0
  -10.2966   21.7788  -31.6432 H   0  0  0  0  0  0  0  0  0  0  0  0
   -9.0321   21.4320  -30.3974 H   0  0  0  0  0  0  0  0  0  0  0  0
   -8.5240   23.0010  -31.7770 C   0  0  0  0  0  0  0  0  0  0  0  0
   -8.6717   23.2317  -32.8424 H   0  0  0  0  0  0  0  0  0  0  0  0
   -8.9637   23.7846  -31.1425 H   0  0  0  0  0  0  0  0  0  0  0  0
   -3.7890   22.8280  -31.5340 N   0  0  0  0  0  0  0  0  0  0  0  0
   -2.6660   22.1550  -31.1630 C   0  0  0  0  0  0  0  0  0  0  0  0
   -2.2380   20.9670  -31.9450 C   0  0  0  0  0  0  0  0  0  0  0  0
   -2.9670   20.5240  -33.0630 C   0  0  0  0  0  0  0  0  0  0  0  0
   -3.8782   21.0603  -33.3666 H   0  0  0  0  0  0  0  0  0  0  0  0
   -2.5450   19.4090  -33.7920 C   0  0  0  0  0  0  0  0  0  0  0  0
   -3.1320   19.0754  -34.6605 H   0  0  0  0  0  0  0  0  0  0  0  0
   -1.3790   18.7060  -33.4310 C   0  0  0  0  0  0  0  0  0  0  0  0
   -0.9420   17.5460  -34.1870 N   0  0  0  0  0  0  0  0  0  0  0  0
   -1.8910   16.7980  -35.0230 C   0  0  0  0  0  0  0  0  0  0  0  0
   -2.5912   16.2461  -34.3787 H   0  0  0  0  0  0  0  0  0  0  0  0
   -2.4521   17.4993  -35.6581 H   0  0  0  0  0  0  0  0  0  0  0  0
   -1.3401   16.0886  -35.6581 H   0  0  0  0  0  0  0  0  0  0  0  0
    0.4550   17.1000  -34.1290 C   0  0  0  0  0  0  0  0  0  0  0  0
    0.7650   17.0010  -33.0782 H   0  0  0  0  0  0  0  0  0  0  0  0
    0.5504   16.1267  -34.6327 H   0  0  0  0  0  0  0  0  0  0  0  0
    1.0967   17.8379  -34.6327 H   0  0  0  0  0  0  0  0  0  0  0  0
   -0.6460   19.1620  -32.3160 C   0  0  0  0  0  0  0  0  0  0  0  0
    0.2695   18.6320  -32.0144 H   0  0  0  0  0  0  0  0  0  0  0  0
   -1.0680   20.2790  -31.5890 C   0  0  0  0  0  0  0  0  0  0  0  0
   -0.4760   20.6226  -30.7279 H   0  0  0  0  0  0  0  0  0  0  0  0
  1  2  1  0
  2  3  1  0
  3  4  1  0
  4  5  2  0
  5  6  1  0
  5  7  1  0
  7  8  1  0
  7  9  2  0
  9 10  1  0
  9 11  1  0
 11 12  1  0
 11 13  2  0
 13 14  1  0
  3 15  2  0
 15 16  1  0
 16 17  2  0
 17 18  1  0
 18 19  1  0
 18 20  1  0
 18 21  1  0
 21 22  1  0
 22 23  1  0
 22 24  1  0
 22 25  1  0
 25 26  1  0
 25 27  1  0
 25 28  1  0
 28 29  1  0
 28 30  1  0
 28 31  1  0
 31 32  1  0
 31 33  1  0
 31 34  1  0
 34 35  1  0
 34 36  1  0
 16 37  1  0
 37 38  1  0
 38 39  1  0
 39 40  2  0
 40 41  1  0
 40 42  1  0
 42 43  1  0
 42 44  2  0
 44 45  1  0
 45 46  1  0
 46 47  1  0
 46 48  1  0
 46 49  1  0
 45 50  1  0
 50 51  1  0
 50 52  1  0
 50 53  1  0
 44 54  1  0
 54 55  1  0
 54 56  2  0
 56 57  1  0
 38  2  2  0
 56 39  1  0
 13  4  1  0
 34 21  1  0
M  CHG  2  14  -1  37  -1
M  END
>  <UniqueID>  (16) 
15

>  <SMILES>  (16) 
CN(C)c1ccc(-c2cc(-c3ccc(F)cc3[O-])n/c(=N/CN3CCCCC3)[n-]2)cc1

>  <Energy>  (16) 
80.71303712235232

>  <Genealogy>  (16) 
CN(C)c1ccc(-c2cc(-c3ccc(F)cc3[O-])nc(=NCN3CCCCC3)[n-]2)cc1 (protonated)
CN(C)c1ccc(-c2cc(-c3ccc(F)cc3[O-])n/c(=N/CN3CCCCC3)[n-]2)cc1 (cis-trans isomerization)
CN(C)c1ccc(-c2cc(-c3ccc(F)cc3[O-])n/c(=N/CN3CCCCC3)[n-]2)cc1 (3D coordinates assigned)
CN(C)c1ccc(-c2cc(-c3ccc(F)cc3[O-])n/c(=N/CN3CCCCC3)[n-]2)cc1 (nonaromatic ring conformer: 80.71303712235232 kcal/mol)

>  <smiles>  (16) 
CN(C)c1ccc(-c2cc(-c3ccc(F)cc3O)nc(=NCN3CCCCC3)[nH]2)cc1

>  <score_type>  (16) 
oracle

>  <origin>  (16) 
adg

>  <m_score__min__energy>  (16) 
-12.9

>  <m_primary>  (16) 
energy

$$$$
16:0
     RDKit          3D

 51 53  0  0  0  0  0  0  0  0999 V2000
   -5.1760   17.7370  -34.6280 C   0  0  0  0  0  0  0  0  0  0  0  0
   -5.4730   18.1560  -33.3010 O   0  0  0  0  0  0  0  0  0  0  0  0
   -6.6370   18.8480  -32.9320 C   0  0  0  0  0  0  0  0  0  0  0  0
   -7.8680   18.1830  -32.6750 C   0  0  0  0  0  0  0  0  0  0  0  0
   -9.0110   18.9100  -32.3010 C   0  0  0  0  0  0  0  0  0  0  0  0
   -8.8950   20.2940  -32.1810 C   0  0  0  0  0  0  0  0  0  0  0  0
   -9.8530   21.1620  -31.8150 N   0  0  0  0  0  0  0  0  0  0  0  0
   -9.2730   22.3840  -31.8260 C   0  0  0  0  0  0  0  0  0  0  0  0
   -7.9390   22.2830  -32.2060 C   0  0  0  0  0  0  0  0  0  0  0  0
   -6.9720   23.4180  -32.3720 C   0  0  0  0  0  0  0  0  0  0  0  0
   -6.4350   23.9380  -31.0290 C   0  0  0  0  0  0  0  0  0  0  0  0
   -5.1150   23.3810  -30.6780 N   0  0  0  0  0  0  0  0  0  0  0  0
   -4.9640   21.9170  -30.6160 C   0  0  0  0  0  0  0  0  0  0  0  0
   -3.8090   21.4480  -31.4550 C   0  0  0  0  0  0  0  0  0  0  0  0
   -2.7270   20.7850  -30.8560 C   0  0  0  0  0  0  0  0  0  0  0  0
   -1.6850   20.3110  -31.6530 C   0  0  0  0  0  0  0  0  0  0  0  0
   -1.7300   20.4960  -33.0350 C   0  0  0  0  0  0  0  0  0  0  0  0
   -2.8170   21.1650  -33.5990 C   0  0  0  0  0  0  0  0  0  0  0  0
   -3.8210   21.6320  -32.8080 N   0  0  0  0  0  0  0  0  0  0  0  0
   -4.0740   24.2510  -30.1680 C   0  0  0  0  0  0  0  0  0  0  0  0
   -3.8610   25.3700  -30.7070 O   0  0  0  0  0  0  0  0  0  0  0  0
   -3.2890   23.8790  -29.0270 N   0  0  0  0  0  0  0  0  0  0  0  0
   -1.8470   23.7240  -29.1970 C   0  0  0  0  0  0  0  0  0  0  0  0
   -3.7900   24.2360  -27.7010 C   0  0  0  0  0  0  0  0  0  0  0  0
   -7.7110   20.9390  -32.4250 C   0  0  0  0  0  0  0  0  0  0  0  0
   -6.5660   20.2490  -32.8150 C   0  0  0  0  0  0  0  0  0  0  0  0
   -4.5402   16.8400  -34.5956 H   0  0  0  0  0  0  0  0  0  0  0  0
   -6.1119   17.5042  -35.1571 H   0  0  0  0  0  0  0  0  0  0  0  0
   -4.6464   18.5429  -35.1571 H   0  0  0  0  0  0  0  0  0  0  0  0
   -7.9258   17.0886  -32.7700 H   0  0  0  0  0  0  0  0  0  0  0  0
   -9.9679   18.4025  -32.1088 H   0  0  0  0  0  0  0  0  0  0  0  0
  -10.8430   20.9420  -31.5650 H   0  0  0  0  0  0  0  0  0  0  0  0
   -9.7839   23.3241  -31.5706 H   0  0  0  0  0  0  0  0  0  0  0  0
   -6.1235   23.0718  -32.9805 H   0  0  0  0  0  0  0  0  0  0  0  0
   -7.5094   24.2452  -32.8587 H   0  0  0  0  0  0  0  0  0  0  0  0
   -6.3485   25.0331  -31.0871 H   0  0  0  0  0  0  0  0  0  0  0  0
   -7.1424   23.6211  -30.2485 H   0  0  0  0  0  0  0  0  0  0  0  0
   -4.7914   21.6191  -29.5713 H   0  0  0  0  0  0  0  0  0  0  0  0
   -5.8841   21.4576  -31.0065 H   0  0  0  0  0  0  0  0  0  0  0  0
   -2.7007   20.6401  -29.7659 H   0  0  0  0  0  0  0  0  0  0  0  0
   -0.8305   19.7929  -31.1932 H   0  0  0  0  0  0  0  0  0  0  0  0
   -0.9174   20.1186  -33.6732 H   0  0  0  0  0  0  0  0  0  0  0  0
   -2.8625   21.3155  -34.6877 H   0  0  0  0  0  0  0  0  0  0  0  0
   -4.6200   22.1320  -33.2600 H   0  0  0  0  0  0  0  0  0  0  0  0
   -1.3649   23.6722  -28.2096 H   0  0  0  0  0  0  0  0  0  0  0  0
   -1.6409   22.7985  -29.7547 H   0  0  0  0  0  0  0  0  0  0  0  0
   -1.4489   24.5845  -29.7547 H   0  0  0  0  0  0  0  0  0  0  0  0
   -3.1495   23.7796  -26.9319 H   0  0  0  0  0  0  0  0  0  0  0  0
   -3.7775   25.3300  -27.5866 H   0  0  0  0  0  0  0  0  0  0  0  0
   -4.8200   23.8671  -27.5866 H   0  0  0  0  0  0  0  0  0  0  0  0
   -5.6292   20.7855  -33.0264 H   0  0  0  0  0  0  0  0  0  0  0  0
  1  2  1  0
  2  3  1  0
  3  4  2  0
  4  5  1  0
  5  6  2  0
  6  7  1  0
  7  8  1  0
  8  9  2  0
  9 10  1  0
 10 11  1  0
 11 12  1  0
 12 13  1  0
 13 14  1  0
 14 15  2  0
 15 16  1  0
 16 17  2  0
 17 18  1  0
 18 19  2  0
 12 20  1  0
 20 21  2  0
 20 22  1  0
 22 23  1  0
 22 24  1  0
  9 25  1  0
 25 26  2  0
 26  3  1  0
 25  6  1  0
 19 14  1  0
  1 27  1  0
  1 28  1  0
  1 29  1  0
  4 30  1  0
  5 31  1  0
  7 32  1  0
  8 33  1  0
 10 34  1  0
 10 35  1  0
 11 36  1  0
 11 37  1  0
 13 38  1  0
 13 39  1  0
 15 40  1  0
 16 41  1  0
 17 42  1  0
 18 43  1  0
 19 44  1  0
 23 45  1  0
 23 46  1  0
 23 47  1  0
 24 48  1  0
 24 49  1  0
 24 50  1  0
 26 51  1  0
M  CHG  1  19   1
M  END
>  <UniqueID>  (17) 
16

>  <SMILES>  (17) 
COc1ccc2[nH]cc(CCN(Cc3cccc[nH+]3)C(=O)N(C)C)c2c1

>  <Energy>  (17) 
77.9891347074952

>  <Genealogy>  (17) 
COc1ccc2[nH]cc(CCN(Cc3cccc[nH+]3)C(=O)N(C)C)c2c1 (protonated)
COc1ccc2[nH]cc(CCN(Cc3cccc[nH+]3)C(=O)N(C)C)c2c1 (3D coordinates assigned)
COc1ccc2[nH]cc(CCN(Cc3cccc[nH+]3)C(=O)N(C)C)c2c1 (optimized conformer: 77.9891347074952 kcal/mol)

>  <smiles>  (17) 
COc1ccc2[nH]cc(CCN(Cc3ccccn3)C(=O)N(C)C)c2c1

>  <score_type>  (17) 
oracle

>  <origin>  (17) 
adg

>  <m_score__min__energy>  (17) 
-7.9800000000000004

>  <m_primary>  (17) 
energy

$$$$
17:0
     RDKit          3D

 32 34  0  0  0  0  0  0  0  0999 V2000
   -3.8390   18.8190  -33.9390 C   0  0  0  0  0  0  0  0  0  0  0  0
   -4.4860   19.6290  -32.8910 N   0  0  0  0  0  0  0  0  0  0  0  0
   -5.8840   19.4090  -32.5970 C   0  0  0  0  0  0  0  0  0  0  0  0
   -6.3830   18.0920  -32.5590 C   0  0  0  0  0  0  0  0  0  0  0  0
   -7.7260   17.8440  -32.2950 C   0  0  0  0  0  0  0  0  0  0  0  0
   -8.5940   18.9000  -32.0470 C   0  0  0  0  0  0  0  0  0  0  0  0
   -8.1230   20.2160  -32.0430 C   0  0  0  0  0  0  0  0  0  0  0  0
   -9.3850   21.6020  -31.6260 Br  0  0  0  0  0  0  0  0  0  0  0  0
   -6.7600   20.4910  -32.3170 C   0  0  0  0  0  0  0  0  0  0  0  0
   -6.2880   21.9290  -32.2070 C   0  0  0  0  0  0  0  0  0  0  0  0
   -4.5740   22.2960  -32.7330 S   0  0  0  0  0  0  0  0  0  0  0  0
   -3.7730   20.7340  -32.2180 C   0  0  1  0  0  0  0  0  0  0  0  0
   -3.8610   20.5790  -30.6810 C   0  0  0  0  0  0  0  0  0  0  0  0
   -2.2940   20.7870  -32.6080 C   0  0  0  0  0  0  0  0  0  0  0  0
   -1.7660   21.1740  -33.8430 C   0  0  0  0  0  0  0  0  0  0  0  0
   -0.3780   21.0110  -33.9410 C   0  0  0  0  0  0  0  0  0  0  0  0
    0.2050   20.4760  -32.8020 C   0  0  0  0  0  0  0  0  0  0  0  0
   -1.0100   20.2020  -31.6790 S   0  0  0  0  0  0  0  0  0  0  0  0
   -3.2179   18.0414  -33.4703 H   0  0  0  0  0  0  0  0  0  0  0  0
   -4.6099   18.3450  -34.5643 H   0  0  0  0  0  0  0  0  0  0  0  0
   -3.2064   19.4661  -34.5643 H   0  0  0  0  0  0  0  0  0  0  0  0
   -5.7011   17.2482  -32.7406 H   0  0  0  0  0  0  0  0  0  0  0  0
   -8.1014   16.8101  -32.2826 H   0  0  0  0  0  0  0  0  0  0  0  0
   -9.6579   18.6993  -31.8527 H   0  0  0  0  0  0  0  0  0  0  0  0
   -6.9608   22.5449  -32.8219 H   0  0  0  0  0  0  0  0  0  0  0  0
   -6.3044   22.1485  -31.1293 H   0  0  0  0  0  0  0  0  0  0  0  0
   -3.3732   21.4381  -30.1973 H   0  0  0  0  0  0  0  0  0  0  0  0
   -4.9172   20.5378  -30.3765 H   0  0  0  0  0  0  0  0  0  0  0  0
   -3.3551   19.6509  -30.3765 H   0  0  0  0  0  0  0  0  0  0  0  0
   -2.3835   21.5701  -34.6626 H   0  0  0  0  0  0  0  0  0  0  0  0
    0.1966   21.2824  -34.8389 H   0  0  0  0  0  0  0  0  0  0  0  0
    1.2758   20.2680  -32.6602 H   0  0  0  0  0  0  0  0  0  0  0  0
  1  2  1  0
  2  3  1  0
  3  4  2  0
  4  5  1  0
  5  6  2  0
  6  7  1  0
  7  8  1  0
  7  9  2  0
  9 10  1  0
 10 11  1  0
 11 12  1  0
 12 13  1  1
 12 14  1  0
 14 15  2  0
 15 16  1  0
 16 17  2  0
 17 18  1  0
 12  2  1  0
 18 14  1  0
  9  3  1  0
  1 19  1  0
  1 20  1  0
  1 21  1  0
  4 22  1  0
  5 23  1  0
  6 24  1  0
 10 25  1  0
 10 26  1  0
 13 27  1  0
 13 28  1  0
 13 29  1  0
 15 30  1  0
 16 31  1  0
 17 32  1  0
M  END
>  <UniqueID>  (18) 
17

>  <SMILES>  (18) 
CN1c2cccc(Br)c2CS[C@]1(C)c1cccs1

>  <Energy>  (18) 
73.21880733260113

>  <Genealogy>  (18) 
CN1c2cccc(Br)c2CS[C@]1(C)c1cccs1 (chirality)
CN1c2cccc(Br)c2CS[C@]1(C)c1cccs1 (3D coordinates assigned)
CN1c2cccc(Br)c2CS[C@]1(C)c1cccs1 (nonaromatic ring conformer: 73.21880733260113 kcal/mol)

>  <smiles>  (18) 
CN1c2cccc(Br)c2CSC1(C)c1cccs1

>  <score_type>  (18) 
oracle

>  <origin>  (18) 
adg

>  <m_score__min__energy>  (18) 
-7.2000000000000002

>  <m_primary>  (18) 
energy

$$$$
18:0
     RDKit          3D

 36 37  0  0  0  0  0  0  0  0999 V2000
   -3.8480   22.6080  -31.7000 C   0  0  0  0  0  0  0  0  0  0  0  0
   -4.7920   23.5150  -31.0290 N   0  0  0  0  0  0  0  0  0  0  0  0
   -4.1210   24.4110  -30.0760 C   0  0  0  0  0  0  0  0  0  0  0  0
   -5.7690   24.1680  -31.9350 C   0  0  0  0  0  0  0  0  0  0  0  0
   -7.0870   23.3950  -32.2250 C   0  0  0  0  0  0  0  0  0  0  0  0
   -7.1420   22.0140  -31.6830 N   0  0  1  0  0  0  0  0  0  0  0  0
   -7.9680   21.9610  -30.5060 C   0  0  0  0  0  0  0  0  0  0  0  0
   -7.5310   22.2810  -29.4100 O   0  0  0  0  0  0  0  0  0  0  0  0
   -9.3520   21.4430  -30.6350 C   0  0  0  0  0  0  0  0  0  0  0  0
   -9.5360   20.8740  -32.3400 S   0  0  0  0  0  0  0  0  0  0  0  0
   -7.7480   21.0850  -32.6740 C   0  0  2  0  0  0  0  0  0  0  0  0
   -7.0510   19.7330  -32.6830 C   0  0  0  0  0  0  0  0  0  0  0  0
   -7.5090   18.7010  -31.8430 C   0  0  0  0  0  0  0  0  0  0  0  0
   -6.8900   17.4480  -31.8560 C   0  0  0  0  0  0  0  0  0  0  0  0
   -5.8100   17.2070  -32.7100 C   0  0  0  0  0  0  0  0  0  0  0  0
   -4.9680   15.4940  -32.7280 Br  0  0  0  0  0  0  0  0  0  0  0  0
   -5.3510   18.2220  -33.5550 C   0  0  0  0  0  0  0  0  0  0  0  0
   -5.9670   19.4760  -33.5450 C   0  0  0  0  0  0  0  0  0  0  0  0
   -3.2716   22.0542  -30.9443 H   0  0  0  0  0  0  0  0  0  0  0  0
   -4.4055   21.8981  -32.3287 H   0  0  0  0  0  0  0  0  0  0  0  0
   -3.1610   23.1934  -32.3287 H   0  0  0  0  0  0  0  0  0  0  0  0
   -4.3566   24.0964  -29.0486 H   0  0  0  0  0  0  0  0  0  0  0  0
   -3.0332   24.3652  -30.2331 H   0  0  0  0  0  0  0  0  0  0  0  0
   -4.4711   25.4419  -30.2331 H   0  0  0  0  0  0  0  0  0  0  0  0
   -6.0426   25.1347  -31.4871 H   0  0  0  0  0  0  0  0  0  0  0  0
   -5.2574   24.2361  -32.9064 H   0  0  0  0  0  0  0  0  0  0  0  0
   -7.9195   23.9657  -31.7876 H   0  0  0  0  0  0  0  0  0  0  0  0
   -7.1488   23.2964  -33.3188 H   0  0  0  0  0  0  0  0  0  0  0  0
   -6.1770   21.6920  -31.4530 H   0  0  0  0  0  0  0  0  0  0  0  0
   -9.5108   20.6076  -29.9372 H   0  0  0  0  0  0  0  0  0  0  0  0
  -10.0903   22.2226  -30.3960 H   0  0  0  0  0  0  0  0  0  0  0  0
   -7.6171   21.5334  -33.6699 H   0  0  0  0  0  0  0  0  0  0  0  0
   -8.3608   18.8819  -31.1709 H   0  0  0  0  0  0  0  0  0  0  0  0
   -7.2536   16.6495  -31.1925 H   0  0  0  0  0  0  0  0  0  0  0  0
   -4.5028   18.0328  -34.2293 H   0  0  0  0  0  0  0  0  0  0  0  0
   -5.6028   20.2685  -34.2153 H   0  0  0  0  0  0  0  0  0  0  0  0
  1  2  1  0
  2  3  1  0
  2  4  1  0
  4  5  1  0
  5  6  1  0
  6  7  1  0
  7  8  2  0
  7  9  1  0
  9 10  1  0
 10 11  1  0
 11 12  1  0
 12 13  2  0
 13 14  1  0
 14 15  2  0
 15 16  1  0
 15 17  1  0
 17 18  2  0
 11  6  1  0
 18 12  1  0
  1 19  1  0
  1 20  1  0
  1 21  1  0
  3 22  1  0
  3 23  1  0
  3 24  1  0
  4 25  1  0
  4 26  1  0
  5 27  1  0
  5 28  1  0
  6 29  1  1
  9 30  1  0
  9 31  1  0
 11 32  1  6
 13 33  1  0
 14 34  1  0
 17 35  1  0
 18 36  1  0
M  CHG  1   6   1
M  END
>  <UniqueID>  (19) 
18

>  <SMILES>  (19) 
CN(C)CC[N@H+]1C(=O)CS[C@@H]1c1ccc(Br)cc1

>  <Energy>  (19) 
43.895995138358394

>  <Genealogy>  (19) 
CN(C)CC[NH+]1C(=O)CSC1c1ccc(Br)cc1 (protonated)
CN(C)CC[N@H+]1C(=O)CS[C@@H]1c1ccc(Br)cc1 (chirality)
CN(C)CC[N@H+]1C(=O)CS[C@@H]1c1ccc(Br)cc1 (3D coordinates assigned)
CN(C)CC[N@H+]1C(=O)CS[C@@H]1c1ccc(Br)cc1 (nonaromatic ring conformer: 43.895995138358394 kcal/mol)

>  <smiles>  (19) 
CN(C)CCN1C(=O)CSC1c1ccc(Br)cc1

>  <score_type>  (19) 
oracle

>  <origin>  (19) 
adg

>  <m_score__min__energy>  (19) 
-6.5999999999999996

>  <m_primary>  (19) 
energy

$$$$
19:0
     RDKit          3D

 55 57  0  0  0  0  0  0  0  0999 V2000
   -7.0160   14.3030  -34.5670 C   0  0  0  0  0  0  0  0  0  0  0  0
   -5.8780   15.0310  -34.1170 O   0  0  0  0  0  0  0  0  0  0  0  0
   -5.9110   16.3680  -33.6920 C   0  0  0  0  0  0  0  0  0  0  0  0
   -5.7560   16.6350  -32.3290 C   0  0  0  0  0  0  0  0  0  0  0  0
   -5.7790   17.9480  -31.8560 C   0  0  0  0  0  0  0  0  0  0  0  0
   -5.9500   19.0360  -32.7370 C   0  0  0  0  0  0  0  0  0  0  0  0
   -6.0080   20.3890  -32.1860 N   0  0  1  0  0  0  0  0  0  0  0  0
   -5.5330   21.4710  -33.0940 C   0  0  0  0  0  0  0  0  0  0  0  0
   -4.0010   21.6970  -33.1010 C   0  0  0  0  0  0  0  0  0  0  0  0
   -3.4640   22.0070  -31.7020 C   0  0  0  0  0  0  0  0  0  0  0  0
   -3.1830   20.7450  -30.9740 N   0  0  0  0  0  0  0  0  0  0  0  0
   -2.9310   20.9600  -29.5370 C   0  0  0  0  0  0  0  0  0  0  0  0
   -1.5400   21.5890  -29.2850 C   0  0  0  0  0  0  0  0  0  0  0  0
   -0.7770   21.7010  -30.4720 O   0  0  0  0  0  0  0  0  0  0  0  0
   -0.6960   20.4430  -31.1090 C   0  0  0  0  0  0  0  0  0  0  0  0
   -2.0850   19.9630  -31.5820 C   0  0  0  0  0  0  0  0  0  0  0  0
   -7.2910   20.6840  -31.5620 C   0  0  0  0  0  0  0  0  0  0  0  0
   -8.5330   19.6010  -31.6240 S   0  0  0  0  0  0  0  0  0  0  0  0
   -7.6130   22.0340  -31.1810 N   0  0  0  0  0  0  0  0  0  0  0  0
   -6.6530   22.9790  -30.6910 C   0  0  0  0  0  0  0  0  0  0  0  0
   -6.5140   24.2190  -31.3320 C   0  0  0  0  0  0  0  0  0  0  0  0
   -5.6030   25.1640  -30.8500 C   0  0  0  0  0  0  0  0  0  0  0  0
   -4.8370   24.8810  -29.7150 C   0  0  0  0  0  0  0  0  0  0  0  0
   -4.9880   23.6570  -29.0570 C   0  0  0  0  0  0  0  0  0  0  0  0
   -5.8970   22.7110  -29.5370 C   0  0  0  0  0  0  0  0  0  0  0  0
   -6.1180   18.7570  -34.1120 C   0  0  0  0  0  0  0  0  0  0  0  0
   -6.0930   17.4400  -34.5830 C   0  0  0  0  0  0  0  0  0  0  0  0
   -7.5851   13.9389  -33.6989 H   0  0  0  0  0  0  0  0  0  0  0  0
   -7.6550   14.9604  -35.1748 H   0  0  0  0  0  0  0  0  0  0  0  0
   -6.6870   13.4473  -35.1748 H   0  0  0  0  0  0  0  0  0  0  0  0
   -5.6147   15.8034  -31.6230 H   0  0  0  0  0  0  0  0  0  0  0  0
   -5.6619   18.1372  -30.7787 H   0  0  0  0  0  0  0  0  0  0  0  0
   -5.2980   20.3800  -31.4180 H   0  0  0  0  0  0  0  0  0  0  0  0
   -5.8448   21.2179  -34.1181 H   0  0  0  0  0  0  0  0  0  0  0  0
   -5.9787   22.4039  -32.7184 H   0  0  0  0  0  0  0  0  0  0  0  0
   -3.5091   20.7880  -33.4775 H   0  0  0  0  0  0  0  0  0  0  0  0
   -3.7865   22.5605  -33.7478 H   0  0  0  0  0  0  0  0  0  0  0  0
   -2.5361   22.5913  -31.7894 H   0  0  0  0  0  0  0  0  0  0  0  0
   -4.2177   22.5839  -31.1460 H   0  0  0  0  0  0  0  0  0  0  0  0
   -3.7037   21.6329  -29.1368 H   0  0  0  0  0  0  0  0  0  0  0  0
   -2.9597   19.9817  -29.0349 H   0  0  0  0  0  0  0  0  0  0  0  0
   -1.6782   22.5931  -28.8575 H   0  0  0  0  0  0  0  0  0  0  0  0
   -0.9931   20.9297  -28.5949 H   0  0  0  0  0  0  0  0  0  0  0  0
   -0.0294   20.5248  -31.9802 H   0  0  0  0  0  0  0  0  0  0  0  0
   -0.3040   19.7125  -30.3861 H   0  0  0  0  0  0  0  0  0  0  0  0
   -2.1413   20.0644  -32.6759 H   0  0  0  0  0  0  0  0  0  0  0  0
   -2.2042   18.9148  -31.2706 H   0  0  0  0  0  0  0  0  0  0  0  0
   -8.5940   22.3670  -31.3250 H   0  0  0  0  0  0  0  0  0  0  0  0
   -7.1244   24.4490  -32.2178 H   0  0  0  0  0  0  0  0  0  0  0  0
   -5.4890   26.1300  -31.3637 H   0  0  0  0  0  0  0  0  0  0  0  0
   -4.1154   25.6217  -29.3398 H   0  0  0  0  0  0  0  0  0  0  0  0
   -4.3902   23.4384  -28.1599 H   0  0  0  0  0  0  0  0  0  0  0  0
   -6.0214   21.7534  -29.0101 H   0  0  0  0  0  0  0  0  0  0  0  0
   -6.2702   19.5849  -34.8201 H   0  0  0  0  0  0  0  0  0  0  0  0
   -6.2166   17.2419  -35.6579 H   0  0  0  0  0  0  0  0  0  0  0  0
  1  2  1  0
  2  3  1  0
  3  4  2  0
  4  5  1  0
  5  6  2  0
  6  7  1  0
  7  8  1  0
  8  9  1  0
  9 10  1  0
 10 11  1  0
 11 12  1  0
 12 13  1  0
 13 14  1  0
 14 15  1  0
 15 16  1  0
  7 17  1  0
 17 18  2  0
 17 19  1  0
 19 20  1  0
 20 21  2  0
 21 22  1  0
 22 23  2  0
 23 24  1  0
 24 25  2  0
  6 26  1  0
 26 27  2  0
 27  3  1  0
 16 11  1  0
 25 20  1  0
  1 28  1  0
  1 29  1  0
  1 30  1  0
  4 31  1  0
  5 32  1  0
  7 33  1  1
  8 34  1  0
  8 35  1  0
  9 36  1  0
  9 37  1  0
 10 38  1  0
 10 39  1  0
 12 40  1  0
 12 41  1  0
 13 42  1  0
 13 43  1  0
 15 44  1  0
 15 45  1  0
 16 46  1  0
 16 47  1  0
 19 48  1  0
 21 49  1  0
 22 50  1  0
 23 51  1  0
 24 52  1  0
 25 53  1  0
 26 54  1  0
 27 55  1  0
M  CHG  1   7   1
M  END
>  <UniqueID>  (20) 
19

>  <SMILES>  (20) 
COc1ccc([N@@H+](CCCN2CCOCC2)C(=S)Nc2ccccc2)cc1

>  <Energy>  (20) 
85.34124611306056

>  <Genealogy>  (20) 
COc1ccc([NH+](CCCN2CCOCC2)C(=S)Nc2ccccc2)cc1 (protonated)
COc1ccc([N@@H+](CCCN2CCOCC2)C(=S)Nc2ccccc2)cc1 (chirality)
COc1ccc([N@@H+](CCCN2CCOCC2)C(=S)Nc2ccccc2)cc1 (3D coordinates assigned)
COc1ccc([N@@H+](CCCN2CCOCC2)C(=S)Nc2ccccc2)cc1 (nonaromatic ring conformer: 85.34124611306056 kcal/mol)

>  <smiles>  (20) 
COc1ccc(N(CCCN2CCOCC2)C(=S)Nc2ccccc2)cc1

>  <score_type>  (20) 
oracle

>  <origin>  (20) 
adg

>  <m_score__min__energy>  (20) 
-7.9100000000000001

>  <m_primary>  (20) 
energy

$$$$
20:0
     RDKit          3D

 47 50  0  0  0  0  0  0  0  0999 V2000
   -6.0060   23.9680  -30.5030 C   0  0  0  0  0  0  0  0  0  0  0  0
   -6.2620   24.0770  -31.8730 C   0  0  0  0  0  0  0  0  0  0  0  0
   -7.2360   23.2710  -32.4700 C   0  0  0  0  0  0  0  0  0  0  0  0
   -7.9770   22.3580  -31.6990 C   0  0  0  0  0  0  0  0  0  0  0  0
   -9.0330   21.4760  -32.3400 C   0  0  0  0  0  0  0  0  0  0  0  0
   -8.5210   20.1830  -32.8660 N   0  0  2  0  0  0  0  0  0  0  0  0
   -9.2780   19.0010  -32.3610 C   0  0  0  0  0  0  0  0  0  0  0  0
   -8.4810   18.1780  -31.3420 C   0  0  0  0  0  0  0  0  0  0  0  0
   -7.1680   17.6640  -31.9580 C   0  0  0  0  0  0  0  0  0  0  0  0
   -6.5690   18.6270  -33.0130 C   0  0  2  0  0  0  0  0  0  0  0  0
   -5.0970   18.4560  -33.0580 N   0  0  0  0  0  0  0  0  0  0  0  0
   -4.5410   17.3060  -33.7890 C   0  0  0  0  0  0  0  0  0  0  0  0
   -3.3380   17.8270  -34.6000 C   0  0  0  0  0  0  0  0  0  0  0  0
   -3.1040   19.1640  -34.0090 C   0  0  0  0  0  0  0  0  0  0  0  0
   -1.9960   19.9910  -34.1990 C   0  0  0  0  0  0  0  0  0  0  0  0
   -1.8990   21.1660  -33.4420 C   0  0  0  0  0  0  0  0  0  0  0  0
   -2.8850   21.4730  -32.4890 C   0  0  0  0  0  0  0  0  0  0  0  0
   -3.9860   20.6210  -32.3090 C   0  0  0  0  0  0  0  0  0  0  0  0
   -4.1120   19.4910  -33.1350 C   0  0  0  0  0  0  0  0  0  0  0  0
   -7.0430   20.0670  -32.7380 C   0  0  0  0  0  0  0  0  0  0  0  0
   -7.6900   22.2360  -30.3270 C   0  0  0  0  0  0  0  0  0  0  0  0
   -6.7160   23.0440  -29.7330 C   0  0  0  0  0  0  0  0  0  0  0  0
   -5.2463   24.6092  -30.0320 H   0  0  0  0  0  0  0  0  0  0  0  0
   -5.6965   24.7977  -32.4819 H   0  0  0  0  0  0  0  0  0  0  0  0
   -7.4240   23.3517  -33.5508 H   0  0  0  0  0  0  0  0  0  0  0  0
   -9.8034   21.2589  -31.5854 H   0  0  0  0  0  0  0  0  0  0  0  0
   -9.4224   22.0330  -33.2049 H   0  0  0  0  0  0  0  0  0  0  0  0
   -8.7130   20.2220  -33.8970 H   0  0  0  0  0  0  0  0  0  0  0  0
  -10.2029   19.3542  -31.8816 H   0  0  0  0  0  0  0  0  0  0  0  0
   -9.4887   18.3494  -33.2218 H   0  0  0  0  0  0  0  0  0  0  0  0
   -8.2477   18.8098  -30.4723 H   0  0  0  0  0  0  0  0  0  0  0  0
   -9.0883   17.3131  -31.0367 H   0  0  0  0  0  0  0  0  0  0  0  0
   -6.4328   17.5290  -31.1509 H   0  0  0  0  0  0  0  0  0  0  0  0
   -7.3969   16.7187  -32.4719 H   0  0  0  0  0  0  0  0  0  0  0  0
   -6.9325   18.3864  -34.0229 H   0  0  0  0  0  0  0  0  0  0  0  0
   -4.2122   16.5312  -33.0808 H   0  0  0  0  0  0  0  0  0  0  0  0
   -5.2970   16.8588  -34.4512 H   0  0  0  0  0  0  0  0  0  0  0  0
   -2.4604   17.1766  -34.4705 H   0  0  0  0  0  0  0  0  0  0  0  0
   -3.5205   17.8541  -35.6844 H   0  0  0  0  0  0  0  0  0  0  0  0
   -1.2155   19.7260  -34.9275 H   0  0  0  0  0  0  0  0  0  0  0  0
   -1.0501   21.8489  -33.5938 H   0  0  0  0  0  0  0  0  0  0  0  0
   -2.7936   22.3853  -31.8812 H   0  0  0  0  0  0  0  0  0  0  0  0
   -4.7375   20.8342  -31.5345 H   0  0  0  0  0  0  0  0  0  0  0  0
   -6.7481   20.3526  -31.7175 H   0  0  0  0  0  0  0  0  0  0  0  0
   -6.5768   20.7335  -33.4785 H   0  0  0  0  0  0  0  0  0  0  0  0
   -8.2355   21.5002  -29.7179 H   0  0  0  0  0  0  0  0  0  0  0  0
   -6.5083   22.9518  -28.6567 H   0  0  0  0  0  0  0  0  0  0  0  0
  1  2  2  0
  2  3  1  0
  3  4  2  0
  4  5  1  0
  5  6  1  0
  6  7  1  0
  7  8  1  0
  8  9  1  0
  9 10  1  0
 10 11  1  0
 11 12  1  0
 12 13  1  0
 13 14  1  0
 14 15  2  0
 15 16  1  0
 16 17  2  0
 17 18  1  0
 18 19  2  0
 10 20  1  0
  4 21  1  0
 21 22  2  0
 22  1  1  0
 20  6  1  0
 19 11  1  0
 19 14  1  0
  1 23  1  0
  2 24  1  0
  3 25  1  0
  5 26  1  0
  5 27  1  0
  6 28  1  6
  7 29  1  0
  7 30  1  0
  8 31  1  0
  8 32  1  0
  9 33  1  0
  9 34  1  0
 10 35  1  6
 12 36  1  0
 12 37  1  0
 13 38  1  0
 13 39  1  0
 15 40  1  0
 16 41  1  0
 17 42  1  0
 18 43  1  0
 20 44  1  0
 20 45  1  0
 21 46  1  0
 22 47  1  0
M  CHG  1   6   1
M  END
>  <UniqueID>  (21) 
20

>  <SMILES>  (21) 
c1ccc(C[N@@H+]2CCC[C@H](N3CCc4ccccc43)C2)cc1

>  <Energy>  (21) 
83.51300740712718

>  <Genealogy>  (21) 
c1ccc(C[NH+]2CCCC(N3CCc4ccccc43)C2)cc1 (protonated)
c1ccc(C[N@@H+]2CCC[C@H](N3CCc4ccccc43)C2)cc1 (chirality)
c1ccc(C[N@@H+]2CCC[C@H](N3CCc4ccccc43)C2)cc1 (3D coordinates assigned)
c1ccc(C[N@@H+]2CCC[C@H](N3CCc4ccccc43)C2)cc1 (nonaromatic ring conformer: 83.51300740712718 kcal/mol)

>  <smiles>  (21) 
c1ccc(CN2CCCC(N3CCc4ccccc43)C2)cc1

>  <score_type>  (21) 
oracle

>  <origin>  (21) 
adg

>  <m_score__min__energy>  (21) 
-7.7599999999999998

>  <m_primary>  (21) 
energy

$$$$
21:0
     RDKit          3D

 30 31  0  0  0  0  0  0  0  0999 V2000
   -3.8630   25.2530  -30.8390 N   0  0  0  0  0  0  0  0  0  0  0  0
   -5.2580   24.9640  -29.8610 S   0  0  0  0  0  0  0  0  0  0  0  0
   -4.8280   24.5350  -28.4850 O   0  0  0  0  0  0  0  0  0  0  0  0
   -6.0550   26.2330  -29.7430 O   0  0  0  0  0  0  0  0  0  0  0  0
   -6.2440   23.7060  -30.5990 C   0  0  0  0  0  0  0  0  0  0  0  0
   -5.7640   22.3910  -30.6740 C   0  0  0  0  0  0  0  0  0  0  0  0
   -6.5400   21.3920  -31.2680 C   0  0  0  0  0  0  0  0  0  0  0  0
   -7.8020   21.6990  -31.8020 C   0  0  0  0  0  0  0  0  0  0  0  0
   -8.6420   20.6130  -32.4170 C   0  0  0  0  0  0  0  0  0  0  0  0
   -7.8030   19.7030  -33.1930 N   0  0  0  0  0  0  0  0  0  0  0  0
   -7.2260   18.5180  -32.6210 C   0  0  0  0  0  0  0  0  0  0  0  0
   -7.5270   18.1790  -31.4450 O   0  0  0  0  0  0  0  0  0  0  0  0
   -6.2830   17.6790  -33.3850 C   0  0  0  0  0  0  0  0  0  0  0  0
   -6.1190   16.2990  -33.2980 C   0  0  0  0  0  0  0  0  0  0  0  0
   -5.1440   15.7990  -34.1700 C   0  0  0  0  0  0  0  0  0  0  0  0
   -4.5350   16.7760  -34.9470 C   0  0  0  0  0  0  0  0  0  0  0  0
   -5.2150   18.2600  -34.5500 S   0  0  0  0  0  0  0  0  0  0  0  0
   -8.2790   23.0170  -31.7260 C   0  0  0  0  0  0  0  0  0  0  0  0
   -7.5010   24.0150  -31.1320 C   0  0  0  0  0  0  0  0  0  0  0  0
   -3.9490   26.2250  -31.2120 H   0  0  0  0  0  0  0  0  0  0  0  0
   -4.7734   22.1447  -30.2640 H   0  0  0  0  0  0  0  0  0  0  0  0
   -6.1606   20.3607  -31.3175 H   0  0  0  0  0  0  0  0  0  0  0  0
   -9.1477   20.0493  -31.6192 H   0  0  0  0  0  0  0  0  0  0  0  0
   -9.3870   21.0707  -33.0845 H   0  0  0  0  0  0  0  0  0  0  0  0
   -7.6450   19.9300  -34.2000 H   0  0  0  0  0  0  0  0  0  0  0  0
   -6.6984   15.6639  -32.6117 H   0  0  0  0  0  0  0  0  0  0  0  0
   -4.8846   14.7319  -34.2337 H   0  0  0  0  0  0  0  0  0  0  0  0
   -3.7444   16.6073  -35.6930 H   0  0  0  0  0  0  0  0  0  0  0  0
   -9.2692   23.2656  -32.1356 H   0  0  0  0  0  0  0  0  0  0  0  0
   -7.8780   25.0472  -31.0832 H   0  0  0  0  0  0  0  0  0  0  0  0
  1  2  1  0
  2  3  2  0
  2  4  2  0
  2  5  1  0
  5  6  2  0
  6  7  1  0
  7  8  2  0
  8  9  1  0
  9 10  1  0
 10 11  1  0
 11 12  2  0
 11 13  1  0
 13 14  2  0
 14 15  1  0
 15 16  2  0
 16 17  1  0
  8 18  1  0
 18 19  2  0
 19  5  1  0
 17 13  1  0
  1 20  1  0
  6 21  1  0
  7 22  1  0
  9 23  1  0
  9 24  1  0
 10 25  1  0
 14 26  1  0
 15 27  1  0
 16 28  1  0
 18 29  1  0
 19 30  1  0
M  CHG  1   1  -1
M  END
>  <UniqueID>  (22) 
21

>  <SMILES>  (22) 
[NH-]S(=O)(=O)c1ccc(CNC(=O)c2cccs2)cc1

>  <Energy>  (22) 
53.45054956786586

>  <Genealogy>  (22) 
[NH-]S(=O)(=O)c1ccc(CNC(=O)c2cccs2)cc1 (protonated)
[NH-]S(=O)(=O)c1ccc(CNC(=O)c2cccs2)cc1 (3D coordinates assigned)
[NH-]S(=O)(=O)c1ccc(CNC(=O)c2cccs2)cc1 (optimized conformer: 53.45054956786586 kcal/mol)

>  <smiles>  (22) 
NS(=O)(=O)c1ccc(CNC(=O)c2cccs2)cc1

>  <score_type>  (22) 
oracle

>  <origin>  (22) 
adg

>  <m_score__min__energy>  (22) 
-10.41

>  <m_primary>  (22) 
energy

$$$$
22:0
     RDKit          3D

 39 41  0  0  0  0  0  0  0  0999 V2000
   -9.0107   20.1852  -31.6860 H   0  0  0  0  0  0  0  0  0  0  0  0
   -8.0710   20.4880  -32.1710 C   0  0  0  0  0  0  0  0  0  0  0  0
   -7.7690   21.7460  -32.2470 N   0  0  0  0  0  0  0  0  0  0  0  0
   -8.0420   22.6820  -31.1660 C   0  0  0  0  0  0  0  0  0  0  0  0
   -8.4733   22.1408  -30.3109 H   0  0  0  0  0  0  0  0  0  0  0  0
   -8.7550   23.4458  -31.5098 H   0  0  0  0  0  0  0  0  0  0  0  0
   -6.7600   23.3410  -30.7480 C   0  0  0  0  0  0  0  0  0  0  0  0
   -6.7360   24.7090  -30.4360 C   0  0  0  0  0  0  0  0  0  0  0  0
   -7.6676   25.2933  -30.4637 H   0  0  0  0  0  0  0  0  0  0  0  0
   -5.5330   25.3330  -30.0900 C   0  0  0  0  0  0  0  0  0  0  0  0
   -5.5247   26.4033  -29.8362 H   0  0  0  0  0  0  0  0  0  0  0  0
   -4.3330   24.5980  -30.0650 C   0  0  0  0  0  0  0  0  0  0  0  0
   -3.1020   25.1780  -29.7240 O   0  0  0  0  0  0  0  0  0  0  0  0
   -2.1460   24.5810  -28.8540 C   0  0  0  0  0  0  0  0  0  0  0  0
   -2.4373   24.7629  -27.8090 H   0  0  0  0  0  0  0  0  0  0  0  0
   -2.1068   23.4976  -29.0404 H   0  0  0  0  0  0  0  0  0  0  0  0
   -1.1553   25.0212  -29.0404 H   0  0  0  0  0  0  0  0  0  0  0  0
   -4.3590   23.2380  -30.3930 C   0  0  0  0  0  0  0  0  0  0  0  0
   -3.4260   22.6555  -30.3778 H   0  0  0  0  0  0  0  0  0  0  0  0
   -5.5610   22.6130  -30.7400 C   0  0  0  0  0  0  0  0  0  0  0  0
   -5.5662   21.5461  -31.0078 H   0  0  0  0  0  0  0  0  0  0  0  0
   -7.1770   19.4590  -32.7230 C   0  0  0  0  0  0  0  0  0  0  0  0
   -7.5450   18.1470  -32.9990 C   0  0  0  0  0  0  0  0  0  0  0  0
   -8.5490   17.7283  -32.8355 H   0  0  0  0  0  0  0  0  0  0  0  0
   -6.4930   17.4590  -33.4970 N   0  0  0  0  0  0  0  0  0  0  0  0
   -6.4910   16.0570  -33.9030 C   0  0  0  0  0  0  0  0  0  0  0  0
   -6.4901   15.4163  -33.0088 H   0  0  0  0  0  0  0  0  0  0  0  0
   -7.3888   15.8478  -34.5031 H   0  0  0  0  0  0  0  0  0  0  0  0
   -5.5926   15.8503  -34.5031 H   0  0  0  0  0  0  0  0  0  0  0  0
   -5.4580   18.3210  -33.5420 C   0  0  0  0  0  0  0  0  0  0  0  0
   -4.1560   18.0710  -33.9840 C   0  0  0  0  0  0  0  0  0  0  0  0
   -3.8644   17.0769  -34.3537 H   0  0  0  0  0  0  0  0  0  0  0  0
   -3.2300   19.1280  -33.9420 C   0  0  0  0  0  0  0  0  0  0  0  0
   -2.1974   18.9640  -34.2839 H   0  0  0  0  0  0  0  0  0  0  0  0
   -3.6170   20.3980  -33.4640 C   0  0  0  0  0  0  0  0  0  0  0  0
   -2.8832   21.2170  -33.4354 H   0  0  0  0  0  0  0  0  0  0  0  0
   -4.9330   20.6250  -33.0240 C   0  0  0  0  0  0  0  0  0  0  0  0
   -5.2426   21.6123  -32.6505 H   0  0  0  0  0  0  0  0  0  0  0  0
   -5.8370   19.5590  -33.0750 C   0  0  0  0  0  0  0  0  0  0  0  0
  1  2  1  0
  2  3  2  0
  3  4  1  0
  4  5  1  0
  4  6  1  0
  4  7  1  0
  7  8  2  0
  8  9  1  0
  8 10  1  0
 10 11  1  0
 10 12  2  0
 12 13  1  0
 13 14  1  0
 14 15  1  0
 14 16  1  0
 14 17  1  0
 12 18  1  0
 18 19  1  0
 18 20  2  0
 20 21  1  0
  2 22  1  0
 22 23  2  0
 23 24  1  0
 23 25  1  0
 25 26  1  0
 26 27  1  0
 26 28  1  0
 26 29  1  0
 25 30  1  0
 30 31  2  0
 31 32  1  0
 31 33  1  0
 33 34  1  0
 33 35  2  0
 35 36  1  0
 35 37  1  0
 37 38  1  0
 37 39  2  0
 20  7  1  0
 39 22  1  0
 39 30  1  0
M  END
>  <UniqueID>  (23) 
22

>  <SMILES>  (23) 
COc1ccc(C/N=C/c2cn(C)c3ccccc23)cc1

>  <Energy>  (23) 
70.67932911984244

>  <Genealogy>  (23) 
COc1ccc(C/N=C/c2cn(C)c3ccccc23)cc1 (cis-trans isomerization)
COc1ccc(C/N=C/c2cn(C)c3ccccc23)cc1 (3D coordinates assigned)
COc1ccc(C/N=C/c2cn(C)c3ccccc23)cc1 (optimized conformer: 70.67932911984244 kcal/mol)

>  <smiles>  (23) 
COc1ccc(CN=Cc2cn(C)c3ccccc23)cc1

>  <score_type>  (23) 
oracle

>  <origin>  (23) 
adg

>  <m_score__min__energy>  (23) 
-7.9400000000000004

>  <m_primary>  (23) 
energy

$$$$
23:0
     RDKit          3D

 62 65  0  0  0  0  0  0  0  0999 V2000
   -5.6440   15.8870  -33.5070 C   0  0  0  0  0  0  0  0  0  0  0  0
   -6.4770   16.9460  -34.2160 C   0  0  0  0  0  0  0  0  0  0  0  0
   -6.5110   18.1880  -33.3990 N   0  0  0  0  0  0  0  0  0  0  0  0
   -5.2380   18.4200  -32.6630 C   0  0  0  0  0  0  0  0  0  0  0  0
   -4.1640   19.1730  -33.4650 C   0  0  0  0  0  0  0  0  0  0  0  0
   -7.7370   18.3340  -32.5800 C   0  0  0  0  0  0  0  0  0  0  0  0
   -8.1730   19.8050  -32.4600 C   0  0  0  0  0  0  0  0  0  0  0  0
   -7.1600   20.7050  -33.0180 N   0  0  0  0  0  0  0  0  0  0  0  0
   -6.5470   21.7850  -32.2930 C   0  0  0  0  0  0  0  0  0  0  0  0
   -7.0180   23.0960  -32.3970 C   0  0  0  0  0  0  0  0  0  0  0  0
   -6.4640   24.1030  -31.6130 C   0  0  0  0  0  0  0  0  0  0  0  0
   -5.3950   23.8350  -30.7380 C   0  0  0  0  0  0  0  0  0  0  0  0
   -4.8290   22.5380  -30.6910 C   0  0  0  0  0  0  0  0  0  0  0  0
   -5.4400   21.5250  -31.4720 C   0  0  0  0  0  0  0  0  0  0  0  0
   -3.6620   22.1440  -29.8190 C   0  0  0  0  0  0  0  0  0  0  0  0
   -3.4710   20.9030  -29.6750 O   0  0  0  0  0  0  0  0  0  0  0  0
   -2.6620   23.0550  -29.1520 C   0  0  0  0  0  0  0  0  0  0  0  0
   -1.6620   22.4610  -28.3390 C   0  0  0  0  0  0  0  0  0  0  0  0
   -0.6450   23.2210  -27.7630 C   0  0  0  0  0  0  0  0  0  0  0  0
   -0.5960   24.6060  -27.9580 C   0  0  0  0  0  0  0  0  0  0  0  0
    0.4060   25.4200  -27.3180 N   0  0  0  0  0  0  0  0  0  0  0  0
    0.1110   26.4500  -26.3500 C   0  0  0  0  0  0  0  0  0  0  0  0
   -0.1050   27.7770  -26.7740 C   0  0  0  0  0  0  0  0  0  0  0  0
   -0.3360   28.7950  -25.8430 C   0  0  0  0  0  0  0  0  0  0  0  0
   -0.3170   28.5090  -24.4770 C   0  0  0  0  0  0  0  0  0  0  0  0
   -0.0730   27.2080  -24.0390 C   0  0  0  0  0  0  0  0  0  0  0  0
    0.1400   26.1670  -24.9590 C   0  0  0  0  0  0  0  0  0  0  0  0
    0.3640   24.8360  -24.4700 N   0  0  0  0  0  0  0  0  0  0  0  0
   -1.5440   25.2040  -28.7900 C   0  0  0  0  0  0  0  0  0  0  0  0
   -2.5920   24.4590  -29.3460 C   0  0  0  0  0  0  0  0  0  0  0  0
   -3.5650   25.1700  -30.0390 O   0  0  0  0  0  0  0  0  0  0  0  0
   -4.9410   24.9240  -29.8280 C   0  0  0  0  0  0  0  0  0  0  0  0
   -5.7420   16.0116  -32.4185 H   0  0  0  0  0  0  0  0  0  0  0  0
   -6.0000   14.8869  -33.7951 H   0  0  0  0  0  0  0  0  0  0  0  0
   -4.5882   15.9974  -33.7951 H   0  0  0  0  0  0  0  0  0  0  0  0
   -6.0305   17.1659  -35.1970 H   0  0  0  0  0  0  0  0  0  0  0  0
   -7.5024   16.5716  -34.3519 H   0  0  0  0  0  0  0  0  0  0  0  0
   -5.4654   19.0054  -31.7599 H   0  0  0  0  0  0  0  0  0  0  0  0
   -4.8214   17.4268  -32.4393 H   0  0  0  0  0  0  0  0  0  0  0  0
   -3.4649   19.6632  -32.7715 H   0  0  0  0  0  0  0  0  0  0  0  0
   -3.6137   18.4619  -34.0987 H   0  0  0  0  0  0  0  0  0  0  0  0
   -4.6449   19.9327  -34.0987 H   0  0  0  0  0  0  0  0  0  0  0  0
   -8.5491   17.7592  -33.0492 H   0  0  0  0  0  0  0  0  0  0  0  0
   -7.5194   17.9586  -31.5692 H   0  0  0  0  0  0  0  0  0  0  0  0
   -9.1174   19.9450  -33.0063 H   0  0  0  0  0  0  0  0  0  0  0  0
   -8.3024   20.0442  -31.3941 H   0  0  0  0  0  0  0  0  0  0  0  0
   -6.7890   20.4680  -33.9660 H   0  0  0  0  0  0  0  0  0  0  0  0
   -7.8294   23.3329  -33.1009 H   0  0  0  0  0  0  0  0  0  0  0  0
   -6.8677   25.1242  -31.6781 H   0  0  0  0  0  0  0  0  0  0  0  0
   -5.0334   20.5036  -31.4329 H   0  0  0  0  0  0  0  0  0  0  0  0
   -1.6899   21.3762  -28.1592 H   0  0  0  0  0  0  0  0  0  0  0  0
    0.1247   22.7284  -27.1507 H   0  0  0  0  0  0  0  0  0  0  0  0
    1.3720   25.3980  -27.7230 H   0  0  0  0  0  0  0  0  0  0  0  0
   -0.0917   28.0143  -27.8480 H   0  0  0  0  0  0  0  0  0  0  0  0
   -0.5326   29.8210  -26.1874 H   0  0  0  0  0  0  0  0  0  0  0  0
   -0.4947   29.3108  -23.7452 H   0  0  0  0  0  0  0  0  0  0  0  0
   -0.0469   26.9937  -22.9604 H   0  0  0  0  0  0  0  0  0  0  0  0
    0.6220   24.6510  -23.4780 H   0  0  0  0  0  0  0  0  0  0  0  0
    0.3760   24.0310  -25.1320 H   0  0  0  0  0  0  0  0  0  0  0  0
   -1.4668   26.2784  -29.0128 H   0  0  0  0  0  0  0  0  0  0  0  0
   -5.1035   24.6206  -28.7832 H   0  0  0  0  0  0  0  0  0  0  0  0
   -5.5139   25.8396  -30.0367 H   0  0  0  0  0  0  0  0  0  0  0  0
  1  2  1  0
  2  3  1  0
  3  4  1  0
  4  5  1  0
  3  6  1  0
  6  7  1  0
  7  8  1  0
  8  9  1  0
  9 10  2  0
 10 11  1  0
 11 12  2  0
 12 13  1  0
 13 14  2  0
 13 15  1  0
 15 16  2  0
 15 17  1  0
 17 18  2  0
 18 19  1  0
 19 20  2  0
 20 21  1  0
 21 22  1  0
 22 23  2  0
 23 24  1  0
 24 25  2  0
 25 26  1  0
 26 27  2  0
 27 28  1  0
 20 29  1  0
 29 30  2  0
 30 31  1  0
 31 32  1  0
 14  9  1  0
 30 17  1  0
 32 12  1  0
 27 22  1  0
  1 33  1  0
  1 34  1  0
  1 35  1  0
  2 36  1  0
  2 37  1  0
  4 38  1  0
  4 39  1  0
  5 40  1  0
  5 41  1  0
  5 42  1  0
  6 43  1  0
  6 44  1  0
  7 45  1  0
  7 46  1  0
  8 47  1  0
 10 48  1  0
 11 49  1  0
 14 50  1  0
 18 51  1  0
 19 52  1  0
 21 53  1  0
 23 54  1  0
 24 55  1  0
 25 56  1  0
 26 57  1  0
 28 58  1  0
 28 59  1  0
 29 60  1  0
 32 61  1  0
 32 62  1  0
M  END
>  <UniqueID>  (24) 
23

>  <SMILES>  (24) 
CCN(CC)CCNc1ccc2c(c1)C(=O)c1ccc(Nc3ccccc3N)cc1OC2

>  <Energy>  (24) 
94.39537003897799

>  <Genealogy>  (24) 
CCN(CC)CCNc1ccc2c(c1)C(=O)c1ccc(Nc3ccccc3N)cc1OC2 (3D coordinates assigned)
CCN(CC)CCNc1ccc2c(c1)C(=O)c1ccc(Nc3ccccc3N)cc1OC2 (nonaromatic ring conformer: 94.39537003897799 kcal/mol)

>  <smiles>  (24) 
CCN(CC)CCNc1ccc2c(c1)C(=O)c1ccc(Nc3ccccc3N)cc1OC2

>  <score_type>  (24) 
oracle

>  <origin>  (24) 
adg

>  <m_score__min__energy>  (24) 
-9.2400000000000002

>  <m_primary>  (24) 
energy

$$$$
24:0
     RDKit          3D

 42 43  0  0  0  0  0  0  0  0999 V2000
   -5.7940   16.6800  -31.8930 C   0  0  0  0  0  0  0  0  0  0  0  0
   -6.2370   18.0150  -32.4020 C   0  0  0  0  0  0  0  0  0  0  0  0
   -6.8830   18.9880  -31.6700 C   0  0  0  0  0  0  0  0  0  0  0  0
   -7.0790   20.0200  -32.5760 C   0  0  0  0  0  0  0  0  0  0  0  0
   -7.7500   21.3420  -32.3010 C   0  0  2  0  0  0  0  0  0  0  0  0
   -6.8240   22.5140  -32.6940 C   0  0  0  0  0  0  0  0  0  0  0  0
   -7.2540   23.8020  -31.9780 C   0  0  0  0  0  0  0  0  0  0  0  0
   -7.1880   23.6870  -30.4950 N   0  0  2  0  0  0  0  0  0  0  0  0
   -5.7290   24.4260  -29.8760 S   0  0  0  0  0  0  0  0  0  0  0  0
   -6.1040   25.6730  -29.1190 O   0  0  0  0  0  0  0  0  0  0  0  0
   -4.8530   24.8280  -31.0320 O   0  0  0  0  0  0  0  0  0  0  0  0
   -4.9000   23.2890  -28.8280 N   0  0  0  0  0  0  0  0  0  0  0  0
   -4.2340   23.9930  -27.7250 C   0  0  0  0  0  0  0  0  0  0  0  0
   -3.9200   22.5030  -29.5890 C   0  0  0  0  0  0  0  0  0  0  0  0
   -7.2930   22.2980  -29.9820 C   0  0  0  0  0  0  0  0  0  0  0  0
   -8.2370   21.4410  -30.8350 C   0  0  0  0  0  0  0  0  0  0  0  0
   -6.5770   19.6760  -33.7800 N   0  0  0  0  0  0  0  0  0  0  0  0
   -6.0710   18.4590  -33.6660 N   0  0  0  0  0  0  0  0  0  0  0  0
   -5.4290   17.7440  -34.7620 C   0  0  0  0  0  0  0  0  0  0  0  0
   -5.7966   16.6877  -30.7930 H   0  0  0  0  0  0  0  0  0  0  0  0
   -6.4823   15.9024  -32.2558 H   0  0  0  0  0  0  0  0  0  0  0  0
   -4.7774   16.4682  -32.2558 H   0  0  0  0  0  0  0  0  0  0  0  0
   -7.1760   18.9540  -30.6103 H   0  0  0  0  0  0  0  0  0  0  0  0
   -8.6499   21.4086  -32.9300 H   0  0  0  0  0  0  0  0  0  0  0  0
   -5.7900   22.2695  -32.4094 H   0  0  0  0  0  0  0  0  0  0  0  0
   -6.8910   22.6715  -33.7806 H   0  0  0  0  0  0  0  0  0  0  0  0
   -6.5909   24.6196  -32.2970 H   0  0  0  0  0  0  0  0  0  0  0  0
   -8.3021   23.9975  -32.2488 H   0  0  0  0  0  0  0  0  0  0  0  0
   -7.9870   24.2360  -30.0980 H   0  0  0  0  0  0  0  0  0  0  0  0
   -4.6031   23.6028  -26.7650 H   0  0  0  0  0  0  0  0  0  0  0  0
   -3.1475   23.8346  -27.7918 H   0  0  0  0  0  0  0  0  0  0  0  0
   -4.4524   25.0690  -27.7918 H   0  0  0  0  0  0  0  0  0  0  0  0
   -3.2562   21.9706  -28.8919 H   0  0  0  0  0  0  0  0  0  0  0  0
   -4.4469   21.7742  -30.2225 H   0  0  0  0  0  0  0  0  0  0  0  0
   -3.3230   23.1755  -30.2225 H   0  0  0  0  0  0  0  0  0  0  0  0
   -6.2929   21.8399  -29.9896 H   0  0  0  0  0  0  0  0  0  0  0  0
   -7.7022   22.3422  -28.9619 H   0  0  0  0  0  0  0  0  0  0  0  0
   -8.2858   20.4292  -30.4061 H   0  0  0  0  0  0  0  0  0  0  0  0
   -9.2287   21.9170  -30.8337 H   0  0  0  0  0  0  0  0  0  0  0  0
   -4.7465   16.9839  -34.3540 H   0  0  0  0  0  0  0  0  0  0  0  0
   -6.1963   17.2542  -35.3796 H   0  0  0  0  0  0  0  0  0  0  0  0
   -4.8597   18.4543  -35.3796 H   0  0  0  0  0  0  0  0  0  0  0  0
  1  2  1  0
  2  3  2  0
  3  4  1  0
  4  5  1  0
  5  6  1  0
  6  7  1  0
  7  8  1  0
  8  9  1  0
  9 10  2  0
  9 11  2  0
  9 12  1  0
 12 13  1  0
 12 14  1  0
  8 15  1  0
 15 16  1  0
  4 17  2  0
 17 18  1  0
 18 19  1  0
 18  2  1  0
 16  5  1  0
  1 20  1  0
  1 21  1  0
  1 22  1  0
  3 23  1  0
  5 24  1  6
  6 25  1  0
  6 26  1  0
  7 27  1  0
  7 28  1  0
  8 29  1  1
 13 30  1  0
 13 31  1  0
 13 32  1  0
 14 33  1  0
 14 34  1  0
 14 35  1  0
 15 36  1  0
 15 37  1  0
 16 38  1  0
 16 39  1  0
 19 40  1  0
 19 41  1  0
 19 42  1  0
M  CHG  1   8   1
M  END
>  <UniqueID>  (25) 
24

>  <SMILES>  (25) 
Cc1cc(C2CC[NH+](S(=O)(=O)N(C)C)CC2)nn1C

>  <Energy>  (25) 
71.37953423418577

>  <Genealogy>  (25) 
Cc1cc(C2CC[NH+](S(=O)(=O)N(C)C)CC2)nn1C (protonated)
Cc1cc(C2CC[NH+](S(=O)(=O)N(C)C)CC2)nn1C (3D coordinates assigned)
Cc1cc(C2CC[NH+](S(=O)(=O)N(C)C)CC2)nn1C (nonaromatic ring conformer: 71.37953423418577 kcal/mol)

>  <smiles>  (25) 
Cc1cc(C2CCN(S(=O)(=O)N(C)C)CC2)nn1C

>  <score_type>  (25) 
oracle

>  <origin>  (25) 
adg

>  <m_score__min__energy>  (25) 
-7.04

>  <m_primary>  (25) 
energy

$$$$
25:0
     RDKit          3D

 38 40  0  0  0  0  0  0  0  0999 V2000
   -5.3930   25.4010  -30.7430 C   0  0  0  0  0  0  0  0  0  0  0  0
   -4.2010   24.6300  -30.8400 O   0  0  0  0  0  0  0  0  0  0  0  0
   -3.8330   23.6100  -29.9470 C   0  0  0  0  0  0  0  0  0  0  0  0
   -4.0630   23.7250  -28.5610 C   0  0  0  0  0  0  0  0  0  0  0  0
   -3.6940   22.6960  -27.6940 C   0  0  0  0  0  0  0  0  0  0  0  0
   -3.0910   21.5440  -28.1940 C   0  0  0  0  0  0  0  0  0  0  0  0
   -2.8540   21.4150  -29.5630 C   0  0  0  0  0  0  0  0  0  0  0  0
   -3.2220   22.4420  -30.4560 C   0  0  0  0  0  0  0  0  0  0  0  0
   -2.9870   22.3190  -31.8760 N   0  0  0  0  0  0  0  0  0  0  0  0
   -3.5430   21.2560  -32.7140 C   0  0  0  0  0  0  0  0  0  0  0  0
   -5.0360   21.1900  -32.5630 C   0  0  0  0  0  0  0  0  0  0  0  0
   -5.7910   22.2050  -32.0840 N   0  0  0  0  0  0  0  0  0  0  0  0
   -7.0520   21.7360  -32.1090 C   0  0  0  0  0  0  0  0  0  0  0  0
   -8.1910   22.4160  -31.6800 C   0  0  0  0  0  0  0  0  0  0  0  0
   -9.4210   21.7450  -31.7680 C   0  0  0  0  0  0  0  0  0  0  0  0
   -9.4800   20.4300  -32.2700 C   0  0  0  0  0  0  0  0  0  0  0  0
   -8.3000   19.7960  -32.6870 C   0  0  0  0  0  0  0  0  0  0  0  0
   -7.1310   20.4830  -32.5930 N   0  0  0  0  0  0  0  0  0  0  0  0
   -5.8680   20.1260  -32.9080 C   0  0  0  0  0  0  0  0  0  0  0  0
   -5.4490   18.7850  -33.4340 C   0  0  0  0  0  0  0  0  0  0  0  0
   -5.6408   25.5613  -29.6833 H   0  0  0  0  0  0  0  0  0  0  0  0
   -5.2421   26.3730  -31.2353 H   0  0  0  0  0  0  0  0  0  0  0  0
   -6.2176   24.8647  -31.2353 H   0  0  0  0  0  0  0  0  0  0  0  0
   -4.5370   24.6330  -28.1599 H   0  0  0  0  0  0  0  0  0  0  0  0
   -3.8795   22.7945  -26.6142 H   0  0  0  0  0  0  0  0  0  0  0  0
   -2.8011   20.7344  -27.5081 H   0  0  0  0  0  0  0  0  0  0  0  0
   -2.3753   20.5030  -29.9493 H   0  0  0  0  0  0  0  0  0  0  0  0
   -2.4040   23.0390  -32.3600 H   0  0  0  0  0  0  0  0  0  0  0  0
   -3.2947   21.4581  -33.7664 H   0  0  0  0  0  0  0  0  0  0  0  0
   -3.1119   20.2942  -32.3992 H   0  0  0  0  0  0  0  0  0  0  0  0
   -5.4660   23.1400  -31.7500 H   0  0  0  0  0  0  0  0  0  0  0  0
   -8.1282   23.4414  -31.2867 H   0  0  0  0  0  0  0  0  0  0  0  0
  -10.3435   22.2486  -31.4433 H   0  0  0  0  0  0  0  0  0  0  0  0
  -10.4441   19.9043  -32.3345 H   0  0  0  0  0  0  0  0  0  0  0  0
   -8.3204   18.7688  -33.0801 H   0  0  0  0  0  0  0  0  0  0  0  0
   -5.2381   18.1102  -32.5913 H   0  0  0  0  0  0  0  0  0  0  0  0
   -6.2581   18.3629  -34.0482 H   0  0  0  0  0  0  0  0  0  0  0  0
   -4.5435   18.8986  -34.0482 H   0  0  0  0  0  0  0  0  0  0  0  0
  1  2  1  0
  2  3  1  0
  3  4  2  0
  4  5  1  0
  5  6  2  0
  6  7  1  0
  7  8  2  0
  8  9  1  0
  9 10  1  0
 10 11  1  0
 11 12  1  0
 12 13  2  0
 13 14  1  0
 14 15  2  0
 15 16  1  0
 16 17  2  0
 17 18  1  0
 18 19  1  0
 19 20  1  0
  8  3  1  0
 19 11  2  0
 18 13  1  0
  1 21  1  0
  1 22  1  0
  1 23  1  0
  4 24  1  0
  5 25  1  0
  6 26  1  0
  7 27  1  0
  9 28  1  0
 10 29  1  0
 10 30  1  0
 12 31  1  0
 14 32  1  0
 15 33  1  0
 16 34  1  0
 17 35  1  0
 20 36  1  0
 20 37  1  0
 20 38  1  0
M  CHG  1  12   1
M  END
>  <UniqueID>  (26) 
25

>  <SMILES>  (26) 
COc1ccccc1NCc1[nH+]c2ccccn2c1C

>  <Energy>  (26) 
74.83646829187451

>  <Genealogy>  (26) 
COc1ccccc1NCc1[nH+]c2ccccn2c1C (protonated)
COc1ccccc1NCc1[nH+]c2ccccn2c1C (3D coordinates assigned)
COc1ccccc1NCc1[nH+]c2ccccn2c1C (optimized conformer: 74.83646829187451 kcal/mol)

>  <smiles>  (26) 
COc1ccccc1NCc1nc2ccccn2c1C

>  <score_type>  (26) 
oracle

>  <origin>  (26) 
adg

>  <m_score__min__energy>  (26) 
-7.1500000000000004

>  <m_primary>  (26) 
energy

$$$$
26:0
     RDKit          3D

 48 50  0  0  0  0  0  0  0  0999 V2000
   -2.3820   24.6660  -28.5840 C   0  0  0  0  0  0  0  0  0  0  0  0
   -2.7460   24.7950  -29.9530 O   0  0  0  0  0  0  0  0  0  0  0  0
   -3.9310   24.2680  -30.4780 C   0  0  0  0  0  0  0  0  0  0  0  0
   -4.9620   25.0930  -30.8160 N   0  0  0  0  0  0  0  0  0  0  0  0
   -6.1410   24.6120  -31.2910 C   0  0  0  0  0  0  0  0  0  0  0  0
   -6.3270   23.2370  -31.4370 C   0  0  0  0  0  0  0  0  0  0  0  0
   -5.2850   22.3690  -31.1100 C   0  0  0  0  0  0  0  0  0  0  0  0
   -4.0680   22.8790  -30.6420 C   0  0  0  0  0  0  0  0  0  0  0  0
   -2.9790   21.9570  -30.2740 C   0  0  0  0  0  0  0  0  0  0  0  0
   -2.0410   21.3950  -31.1230 C   0  0  0  0  0  0  0  0  0  0  0  0
   -1.9040   21.5560  -32.6120 C   0  0  0  0  0  0  0  0  0  0  0  0
   -2.5110   20.4170  -33.3340 N   0  0  0  0  0  0  0  0  0  0  0  0
   -2.0170   19.1410  -32.7820 C   0  0  0  0  0  0  0  0  0  0  0  0
   -3.9910   20.4630  -33.2580 C   0  0  0  0  0  0  0  0  0  0  0  0
   -4.5700   19.1150  -32.7940 C   0  0  0  0  0  0  0  0  0  0  0  0
   -6.0500   19.1740  -32.5390 C   0  0  0  0  0  0  0  0  0  0  0  0
   -6.7150   18.0970  -31.9320 C   0  0  0  0  0  0  0  0  0  0  0  0
   -8.0890   18.1860  -31.7000 C   0  0  0  0  0  0  0  0  0  0  0  0
   -8.7860   19.3330  -32.0790 C   0  0  0  0  0  0  0  0  0  0  0  0
   -8.0940   20.3810  -32.6900 C   0  0  0  0  0  0  0  0  0  0  0  0
   -6.7540   20.2800  -32.9050 N   0  0  0  0  0  0  0  0  0  0  0  0
   -1.2740   20.5800  -30.3110 C   0  0  0  0  0  0  0  0  0  0  0  0
   -1.7310   20.6480  -29.0450 N   0  0  0  0  0  0  0  0  0  0  0  0
   -2.7580   21.4840  -29.0300 N   0  0  0  0  0  0  0  0  0  0  0  0
   -3.5310   21.7910  -27.8320 C   0  0  0  0  0  0  0  0  0  0  0  0
   -3.2290   24.9662  -27.9495 H   0  0  0  0  0  0  0  0  0  0  0  0
   -2.1178   23.6195  -28.3719 H   0  0  0  0  0  0  0  0  0  0  0  0
   -1.5178   25.3126  -28.3719 H   0  0  0  0  0  0  0  0  0  0  0  0
   -6.9495   25.3075  -31.5606 H   0  0  0  0  0  0  0  0  0  0  0  0
   -7.2849   22.8416  -31.8060 H   0  0  0  0  0  0  0  0  0  0  0  0
   -5.4197   21.2828  -31.2200 H   0  0  0  0  0  0  0  0  0  0  0  0
   -2.4072   22.4845  -32.9198 H   0  0  0  0  0  0  0  0  0  0  0  0
   -0.8330   21.5931  -32.8600 H   0  0  0  0  0  0  0  0  0  0  0  0
   -2.0343   19.1857  -31.6830 H   0  0  0  0  0  0  0  0  0  0  0  0
   -2.6618   18.3187  -33.1257 H   0  0  0  0  0  0  0  0  0  0  0  0
   -0.9866   18.9672  -33.1257 H   0  0  0  0  0  0  0  0  0  0  0  0
   -4.2889   21.2454  -32.5444 H   0  0  0  0  0  0  0  0  0  0  0  0
   -4.3832   20.6817  -34.2622 H   0  0  0  0  0  0  0  0  0  0  0  0
   -4.3773   18.3628  -33.5731 H   0  0  0  0  0  0  0  0  0  0  0  0
   -4.0804   18.8534  -31.8444 H   0  0  0  0  0  0  0  0  0  0  0  0
   -6.1597   17.1928  -31.6423 H   0  0  0  0  0  0  0  0  0  0  0  0
   -8.6212   17.3522  -31.2188 H   0  0  0  0  0  0  0  0  0  0  0  0
   -9.8683   19.4113  -31.8988 H   0  0  0  0  0  0  0  0  0  0  0  0
   -8.6328   21.2893  -32.9979 H   0  0  0  0  0  0  0  0  0  0  0  0
   -0.4222   19.9702  -30.6466 H   0  0  0  0  0  0  0  0  0  0  0  0
   -2.9336   21.5537  -26.9394 H   0  0  0  0  0  0  0  0  0  0  0  0
   -3.7897   22.8601  -27.8265 H   0  0  0  0  0  0  0  0  0  0  0  0
   -4.4527   21.1907  -27.8265 H   0  0  0  0  0  0  0  0  0  0  0  0
  1  2  1  0
  2  3  1  0
  3  4  2  0
  4  5  1  0
  5  6  2  0
  6  7  1  0
  7  8  2  0
  8  9  1  0
  9 10  2  0
 10 11  1  0
 11 12  1  0
 12 13  1  0
 12 14  1  0
 14 15  1  0
 15 16  1  0
 16 17  2  0
 17 18  1  0
 18 19  2  0
 19 20  1  0
 20 21  2  0
 10 22  1  0
 22 23  2  0
 23 24  1  0
 24 25  1  0
  8  3  1  0
 24  9  1  0
 21 16  1  0
  1 26  1  0
  1 27  1  0
  1 28  1  0
  5 29  1  0
  6 30  1  0
  7 31  1  0
 11 32  1  0
 11 33  1  0
 13 34  1  0
 13 35  1  0
 13 36  1  0
 14 37  1  0
 14 38  1  0
 15 39  1  0
 15 40  1  0
 17 41  1  0
 18 42  1  0
 19 43  1  0
 20 44  1  0
 22 45  1  0
 25 46  1  0
 25 47  1  0
 25 48  1  0
M  END
>  <UniqueID>  (27) 
26

>  <SMILES>  (27) 
COc1ncccc1-c1c(CN(C)CCc2ccccn2)cnn1C

>  <Energy>  (27) 
81.4486892092925

>  <Genealogy>  (27) 
COc1ncccc1-c1c(CN(C)CCc2ccccn2)cnn1C (3D coordinates assigned)
COc1ncccc1-c1c(CN(C)CCc2ccccn2)cnn1C (optimized conformer: 81.4486892092925 kcal/mol)

>  <smiles>  (27) 
COc1ncccc1-c1c(CN(C)CCc2ccccn2)cnn1C

>  <score_type>  (27) 
oracle

>  <origin>  (27) 
adg

>  <m_score__min__energy>  (27) 
-7.9699999999999998

>  <m_primary>  (27) 
energy

$$$$
27:0
     RDKit          3D

 39 42  0  0  0  0  0  0  0  0999 V2000
   -5.8160   25.2280  -30.5270 Cl  0  0  0  0  0  0  0  0  0  0  0  0
   -5.5080   23.5250  -30.7970 C   0  0  0  0  0  0  0  0  0  0  0  0
   -6.2400   22.6580  -31.5970 C   0  0  0  0  0  0  0  0  0  0  0  0
   -5.7270   21.3360  -31.5960 C   0  0  0  0  0  0  0  0  0  0  0  0
   -6.3780   20.1850  -32.3420 C   0  0  1  0  0  0  0  0  0  0  0  0
   -7.8770   20.4540  -32.5280 C   0  0  0  0  0  0  0  0  0  0  0  0
   -8.5140   19.1020  -32.3610 C   0  0  0  0  0  0  0  0  0  0  0  0
   -7.3690   18.2020  -31.8900 C   0  0  1  0  0  0  0  0  0  0  0  0
   -6.9900   17.1020  -32.9130 C   0  0  0  0  0  0  0  0  0  0  0  0
   -5.9400   17.4870  -33.8870 N   0  0  0  0  0  0  0  0  0  0  0  0
   -4.5580   17.1900  -33.4550 C   0  0  0  0  0  0  0  0  0  0  0  0
   -3.5580   17.7810  -34.4600 C   0  0  0  0  0  0  0  0  0  0  0  0
   -2.6030   18.8190  -33.8890 C   0  0  0  0  0  0  0  0  0  0  0  0
   -2.0980   17.4230  -34.2230 C   0  0  0  0  0  0  0  0  0  0  0  0
   -6.1200   18.8020  -34.5400 C   0  0  0  0  0  0  0  0  0  0  0  0
   -5.6450   20.0070  -33.6940 C   0  0  0  0  0  0  0  0  0  0  0  0
   -6.2520   19.0020  -31.5860 O   0  0  0  0  0  0  0  0  0  0  0  0
   -4.6380   21.1500  -30.8020 N   0  0  0  0  0  0  0  0  0  0  0  0
   -4.2870   22.6200  -30.1170 S   0  0  0  0  0  0  0  0  0  0  0  0
   -7.1261   22.9648  -32.1721 H   0  0  0  0  0  0  0  0  0  0  0  0
   -8.2455   21.1564  -31.7659 H   0  0  0  0  0  0  0  0  0  0  0  0
   -8.1068   20.9124  -33.5012 H   0  0  0  0  0  0  0  0  0  0  0  0
   -9.3157   19.1389  -31.6088 H   0  0  0  0  0  0  0  0  0  0  0  0
   -8.9805   18.7390  -33.2887 H   0  0  0  0  0  0  0  0  0  0  0  0
   -7.7156   17.6690  -30.9923 H   0  0  0  0  0  0  0  0  0  0  0  0
   -6.6319   16.2249  -32.3540 H   0  0  0  0  0  0  0  0  0  0  0  0
   -7.8978   16.9038  -33.5018 H   0  0  0  0  0  0  0  0  0  0  0  0
   -4.3829   17.6322  -32.4632 H   0  0  0  0  0  0  0  0  0  0  0  0
   -4.4203   16.0998  -33.4055 H   0  0  0  0  0  0  0  0  0  0  0  0
   -4.2391   17.7358  -35.3226 H   0  0  0  0  0  0  0  0  0  0  0  0
   -2.2928   19.6775  -34.5028 H   0  0  0  0  0  0  0  0  0  0  0  0
   -2.5923   19.4561  -32.9924 H   0  0  0  0  0  0  0  0  0  0  0  0
   -1.4228   17.2724  -35.0782 H   0  0  0  0  0  0  0  0  0  0  0  0
   -1.5711   16.6330  -33.6679 H   0  0  0  0  0  0  0  0  0  0  0  0
   -5.5526   18.7985  -35.4824 H   0  0  0  0  0  0  0  0  0  0  0  0
   -7.2019   18.9317  -34.6907 H   0  0  0  0  0  0  0  0  0  0  0  0
   -4.5726   19.8770  -33.4865 H   0  0  0  0  0  0  0  0  0  0  0  0
   -5.8686   20.9065  -34.2864 H   0  0  0  0  0  0  0  0  0  0  0  0
   -4.1260   20.2550  -30.6400 H   0  0  0  0  0  0  0  0  0  0  0  0
  1  2  1  0
  2  3  2  0
  3  4  1  0
  5  4  1  1
  5  6  1  0
  6  7  1  0
  7  8  1  0
  8  9  1  0
  9 10  1  0
 10 11  1  0
 11 12  1  0
 12 13  1  0
 13 14  1  0
 10 15  1  0
 15 16  1  0
  8 17  1  0
  4 18  2  0
 18 19  1  0
 19  2  1  0
 16  5  1  0
 17  5  1  0
 14 12  1  0
  3 20  1  0
  6 21  1  0
  6 22  1  0
  7 23  1  0
  7 24  1  0
  8 25  1  1
  9 26  1  0
  9 27  1  0
 11 28  1  0
 11 29  1  0
 12 30  1  0
 13 31  1  0
 13 32  1  0
 14 33  1  0
 14 34  1  0
 15 35  1  0
 15 36  1  0
 16 37  1  0
 16 38  1  0
 18 39  1  0
M  CHG  1  18   1
M  END
>  <UniqueID>  (28) 
27

>  <SMILES>  (28) 
Clc1cc([C@@]23CC[C@@H](CN(CC4CC4)CC2)O3)[nH+]s1

>  <Energy>  (28) 
351.62485649284275

>  <Genealogy>  (28) 
Clc1cc(C23CCC(CN(CC4CC4)CC2)O3)[nH+]s1 (protonated)
Clc1cc([C@@]23CC[C@@H](CN(CC4CC4)CC2)O3)[nH+]s1 (chirality)
Clc1cc([C@@]23CC[C@@H](CN(CC4CC4)CC2)O3)[nH+]s1 (3D coordinates assigned)
Clc1cc([C@@]23CC[C@@H](CN(CC4CC4)CC2)O3)[nH+]s1 (nonaromatic ring conformer: 351.62485649284275 kcal/mol)

>  <smiles>  (28) 
Clc1cc(C23CCC(CN(CC4CC4)CC2)O3)ns1

>  <score_type>  (28) 
oracle

>  <origin>  (28) 
adg

>  <m_score__min__energy>  (28) 
-5.6100000000000003

>  <m_primary>  (28) 
energy

$$$$
28:0
     RDKit          3D

 55 58  0  0  0  0  0  0  0  0999 V2000
   -3.8470   18.6330  -26.3780 C   0  0  0  0  0  0  0  0  0  0  0  0
   -2.3950   18.8410  -25.9670 C   0  0  0  0  0  0  0  0  0  0  0  0
   -1.6830   19.7060  -26.9550 C   0  0  0  0  0  0  0  0  0  0  0  0
   -1.6080   19.4260  -28.2740 N   0  0  0  0  0  0  0  0  0  0  0  0
   -0.9160   20.3770  -28.9590 C   0  0  0  0  0  0  0  0  0  0  0  0
   -0.6780   20.2730  -30.4430 C   0  0  0  0  0  0  0  0  0  0  0  0
   -1.6190   21.0860  -31.2430 N   0  0  0  0  0  0  0  0  0  0  0  0
   -2.8280   21.5230  -30.4990 C   0  0  0  0  0  0  0  0  0  0  0  0
   -4.0940   20.7770  -30.9490 C   0  0  0  0  0  0  0  0  0  0  0  0
   -4.3930   20.9850  -32.4680 C   0  0  0  0  0  0  0  0  0  0  0  0
   -5.1170   19.7390  -33.0500 C   0  0  0  0  0  0  0  0  0  0  0  0
   -6.4700   19.4700  -32.3790 C   0  0  0  0  0  0  0  0  0  0  0  0
   -7.2960   20.7160  -32.2910 C   0  0  0  0  0  0  0  0  0  0  0  0
   -8.5530   20.6180  -32.2750 O   0  0  0  0  0  0  0  0  0  0  0  0
   -6.6630   21.9990  -32.1280 N   0  0  0  0  0  0  0  0  0  0  0  0
   -7.4130   23.1430  -31.5870 C   0  0  0  0  0  0  0  0  0  0  0  0
   -6.9980   23.4440  -30.1420 C   0  0  0  0  0  0  0  0  0  0  0  0
   -5.6260   24.0420  -30.0660 C   0  0  0  0  0  0  0  0  0  0  0  0
   -5.1320   25.0520  -30.8550 C   0  0  0  0  0  0  0  0  0  0  0  0
   -3.8560   25.2910  -30.5060 N   0  0  0  0  0  0  0  0  0  0  0  0
   -3.6160   24.4140  -29.5100 C   0  0  0  0  0  0  0  0  0  0  0  0
   -4.6730   23.6300  -29.2130 N   0  0  0  0  0  0  0  0  0  0  0  0
   -5.3150   22.2170  -32.6750 C   0  0  0  0  0  0  0  0  0  0  0  0
   -3.0640   21.2170  -33.2570 C   0  0  0  0  0  0  0  0  0  0  0  0
   -1.8790   20.5170  -32.5850 C   0  0  0  0  0  0  0  0  0  0  0  0
   -0.4450   21.4340  -28.1830 C   0  0  0  0  0  0  0  0  0  0  0  0
   -0.9090   21.1540  -26.5920 S   0  0  0  0  0  0  0  0  0  0  0  0
   -4.4735   18.5433  -25.4783 H   0  0  0  0  0  0  0  0  0  0  0  0
   -4.1854   19.4918  -26.9762 H   0  0  0  0  0  0  0  0  0  0  0  0
   -3.9306   17.7137  -26.9762 H   0  0  0  0  0  0  0  0  0  0  0  0
   -2.3654   19.3228  -24.9786 H   0  0  0  0  0  0  0  0  0  0  0  0
   -1.8950   17.8619  -25.9307 H   0  0  0  0  0  0  0  0  0  0  0  0
    0.3463   20.6121  -30.6573 H   0  0  0  0  0  0  0  0  0  0  0  0
   -0.8332   19.2213  -30.7257 H   0  0  0  0  0  0  0  0  0  0  0  0
   -2.6699   21.3356  -29.4267 H   0  0  0  0  0  0  0  0  0  0  0  0
   -2.9789   22.5933  -30.7031 H   0  0  0  0  0  0  0  0  0  0  0  0
   -3.9583   19.7021  -30.7586 H   0  0  0  0  0  0  0  0  0  0  0  0
   -4.9441   21.1803  -30.3792 H   0  0  0  0  0  0  0  0  0  0  0  0
   -5.2838   19.8999  -34.1253 H   0  0  0  0  0  0  0  0  0  0  0  0
   -4.4751   18.8656  -32.8627 H   0  0  0  0  0  0  0  0  0  0  0  0
   -7.0176   18.7188  -32.9671 H   0  0  0  0  0  0  0  0  0  0  0  0
   -6.2827   19.1071  -31.3576 H   0  0  0  0  0  0  0  0  0  0  0  0
   -7.2152   24.0284  -32.2091 H   0  0  0  0  0  0  0  0  0  0  0  0
   -8.4843   22.8937  -31.5972 H   0  0  0  0  0  0  0  0  0  0  0  0
   -7.7185   24.1512  -29.7054 H   0  0  0  0  0  0  0  0  0  0  0  0
   -6.9866   22.4946  -29.5865 H   0  0  0  0  0  0  0  0  0  0  0  0
   -5.6893   25.5790  -31.6434 H   0  0  0  0  0  0  0  0  0  0  0  0
   -2.6497   24.3445  -28.9890 H   0  0  0  0  0  0  0  0  0  0  0  0
   -5.3984   22.4202  -33.7528 H   0  0  0  0  0  0  0  0  0  0  0  0
   -4.8670   23.0681  -32.1413 H   0  0  0  0  0  0  0  0  0  0  0  0
   -3.1807   20.8213  -34.2767 H   0  0  0  0  0  0  0  0  0  0  0  0
   -2.8594   22.2976  -33.2756 H   0  0  0  0  0  0  0  0  0  0  0  0
   -2.1044   19.4451  -32.4839 H   0  0  0  0  0  0  0  0  0  0  0  0
   -0.9847   20.6652  -33.2081 H   0  0  0  0  0  0  0  0  0  0  0  0
    0.1290   22.2988  -28.5472 H   0  0  0  0  0  0  0  0  0  0  0  0
  1  2  1  0
  2  3  1  0
  3  4  2  0
  4  5  1  0
  5  6  1  0
  6  7  1  0
  7  8  1  0
  8  9  1  0
  9 10  1  0
 10 11  1  0
 11 12  1  0
 12 13  1  0
 13 14  2  0
 13 15  1  0
 15 16  1  0
 16 17  1  0
 17 18  1  0
 18 19  2  0
 19 20  1  0
 20 21  2  0
 21 22  1  0
 15 23  1  0
 10 24  1  0
 24 25  1  0
  5 26  2  0
 26 27  1  0
 27  3  1  0
 25  7  1  0
 23 10  1  0
 22 18  1  0
  1 28  1  0
  1 29  1  0
  1 30  1  0
  2 31  1  0
  2 32  1  0
  6 33  1  0
  6 34  1  0
  8 35  1  0
  8 36  1  0
  9 37  1  0
  9 38  1  0
 11 39  1  0
 11 40  1  0
 12 41  1  0
 12 42  1  0
 16 43  1  0
 16 44  1  0
 17 45  1  0
 17 46  1  0
 19 47  1  0
 21 48  1  0
 23 49  1  0
 23 50  1  0
 24 51  1  0
 24 52  1  0
 25 53  1  0
 25 54  1  0
 26 55  1  0
M  CHG  1  22  -1
M  END
>  <UniqueID>  (29) 
28

>  <SMILES>  (29) 
CCc1nc(CN2CCC3(CCC(=O)N(CCc4cnc[n-]4)C3)CC2)cs1

>  <Energy>  (29) 
114.16824752082341

>  <Genealogy>  (29) 
CCc1nc(CN2CCC3(CCC(=O)N(CCc4cnc[n-]4)C3)CC2)cs1 (protonated)
CCc1nc(CN2CCC3(CCC(=O)N(CCc4cnc[n-]4)C3)CC2)cs1 (3D coordinates assigned)
CCc1nc(CN2CCC3(CCC(=O)N(CCc4cnc[n-]4)C3)CC2)cs1 (nonaromatic ring conformer: 114.16824752082341 kcal/mol)

>  <smiles>  (29) 
CCc1nc(CN2CCC3(CCC(=O)N(CCc4cnc[nH]4)C3)CC2)cs1

>  <score_type>  (29) 
oracle

>  <origin>  (29) 
adg

>  <m_score__min__energy>  (29) 
-9.7699999999999996

>  <m_primary>  (29) 
energy

$$$$
29:0
     RDKit          3D

 38 40  0  0  0  0  0  0  0  0999 V2000
   -9.4500   22.1580  -31.5990 C   0  0  0  0  0  0  0  0  0  0  0  0
   -8.0070   22.5250  -31.4970 C   0  0  0  0  0  0  0  0  0  0  0  0
   -6.9990   22.0570  -32.3090 C   0  0  0  0  0  0  0  0  0  0  0  0
   -5.8620   22.6890  -31.9660 N   0  0  0  0  0  0  0  0  0  0  0  0
   -4.6040   22.6160  -32.7130 C   0  0  0  0  0  0  0  0  0  0  0  0
   -4.2130   21.1870  -32.9290 C   0  0  0  0  0  0  0  0  0  0  0  0
   -2.9590   20.6530  -32.7410 C   0  0  0  0  0  0  0  0  0  0  0  0
   -3.0480   19.3660  -32.9610 O   0  0  0  0  0  0  0  0  0  0  0  0
   -4.3020   19.1040  -33.2610 C   0  0  0  0  0  0  0  0  0  0  0  0
   -4.8060   17.7500  -33.5670 C   0  0  0  0  0  0  0  0  0  0  0  0
   -3.9140   16.6950  -33.8240 C   0  0  0  0  0  0  0  0  0  0  0  0
   -4.3980   15.4160  -34.1160 C   0  0  0  0  0  0  0  0  0  0  0  0
   -5.7800   15.1720  -34.1740 C   0  0  0  0  0  0  0  0  0  0  0  0
   -6.3000   13.7810  -34.4410 C   0  0  0  0  0  0  0  0  0  0  0  0
   -7.6390   13.8530  -34.7770 F   0  0  0  0  0  0  0  0  0  0  0  0
   -6.1590   12.9830  -33.3190 F   0  0  0  0  0  0  0  0  0  0  0  0
   -5.6050   13.1910  -35.4820 F   0  0  0  0  0  0  0  0  0  0  0  0
   -6.6690   16.2210  -33.8920 C   0  0  0  0  0  0  0  0  0  0  0  0
   -6.1870   17.5020  -33.6000 C   0  0  0  0  0  0  0  0  0  0  0  0
   -5.0800   20.2080  -33.2500 N   0  0  0  0  0  0  0  0  0  0  0  0
   -6.2130   23.5390  -30.9690 C   0  0  0  0  0  0  0  0  0  0  0  0
   -5.3170   24.5130  -30.3220 C   0  0  0  0  0  0  0  0  0  0  0  0
   -5.5280   24.9340  -28.9750 N   0  0  0  0  0  0  0  0  0  0  0  0
   -4.3760   25.0200  -30.9870 O   0  0  0  0  0  0  0  0  0  0  0  0
   -7.5290   23.4750  -30.6700 N   0  0  0  0  0  0  0  0  0  0  0  0
   -9.8732   22.0504  -30.5894 H   0  0  0  0  0  0  0  0  0  0  0  0
   -9.9916   22.9470  -32.1414 H   0  0  0  0  0  0  0  0  0  0  0  0
   -9.5488   21.2061  -32.1414 H   0  0  0  0  0  0  0  0  0  0  0  0
   -7.1045   21.2994  -33.0995 H   0  0  0  0  0  0  0  0  0  0  0  0
   -4.7312   23.1092  -33.6880 H   0  0  0  0  0  0  0  0  0  0  0  0
   -3.8146   23.1209  -32.1368 H   0  0  0  0  0  0  0  0  0  0  0  0
   -2.0506   21.2051  -32.4583 H   0  0  0  0  0  0  0  0  0  0  0  0
   -2.8294   16.8762  -33.7953 H   0  0  0  0  0  0  0  0  0  0  0  0
   -3.6907   14.5943  -34.3018 H   0  0  0  0  0  0  0  0  0  0  0  0
   -7.7531   16.0347  -33.9006 H   0  0  0  0  0  0  0  0  0  0  0  0
   -6.8945   18.3190  -33.3952 H   0  0  0  0  0  0  0  0  0  0  0  0
   -6.4300   24.7410  -28.4880 H   0  0  0  0  0  0  0  0  0  0  0  0
   -4.8320   25.5560  -28.5060 H   0  0  0  0  0  0  0  0  0  0  0  0
  1  2  1  0
  2  3  2  0
  3  4  1  0
  4  5  1  0
  5  6  1  0
  6  7  2  0
  7  8  1  0
  8  9  1  0
  9 10  1  0
 10 11  2  0
 11 12  1  0
 12 13  2  0
 13 14  1  0
 14 15  1  0
 14 16  1  0
 14 17  1  0
 13 18  1  0
 18 19  2  0
  9 20  2  0
  4 21  1  0
 21 22  1  0
 22 23  1  0
 22 24  2  0
 21 25  2  0
 25  2  1  0
 20  6  1  0
 19 10  1  0
  1 26  1  0
  1 27  1  0
  1 28  1  0
  3 29  1  0
  5 30  1  0
  5 31  1  0
  7 32  1  0
 11 33  1  0
 12 34  1  0
 18 35  1  0
 19 36  1  0
 23 37  1  0
 23 38  1  0
M  END
>  <UniqueID>  (30) 
29

>  <SMILES>  (30) 
Cc1cn(Cc2coc(-c3ccc(C(F)(F)F)cc3)n2)c(C(N)=O)n1

>  <Energy>  (30) 
99.19162421572922

>  <Genealogy>  (30) 
Cc1cn(Cc2coc(-c3ccc(C(F)(F)F)cc3)n2)c(C(N)=O)n1 (3D coordinates assigned)
Cc1cn(Cc2coc(-c3ccc(C(F)(F)F)cc3)n2)c(C(N)=O)n1 (optimized conformer: 99.19162421572922 kcal/mol)

>  <smiles>  (30) 
Cc1cn(Cc2coc(-c3ccc(C(F)(F)F)cc3)n2)c(C(N)=O)n1

>  <score_type>  (30) 
oracle

>  <origin>  (30) 
adg

>  <m_score__min__energy>  (30) 
-7.5599999999999996

>  <m_primary>  (30) 
energy

$$$$
30:0
     RDKit          3D

 39 41  0  0  0  0  0  0  0  0999 V2000
   -8.6020   18.3000  -31.6960 C   0  0  0  0  0  0  0  0  0  0  0  0
   -7.1200   17.9450  -31.6210 C   0  0  0  0  0  0  0  0  0  0  0  0
   -6.4240   18.2370  -32.9270 C   0  0  0  0  0  0  0  0  0  0  0  0
   -6.1520   17.3380  -33.9500 C   0  0  0  0  0  0  0  0  0  0  0  0
   -6.4650   15.8940  -34.0080 C   0  0  0  0  0  0  0  0  0  0  0  0
   -7.5400   15.5190  -34.5500 O   0  0  0  0  0  0  0  0  0  0  0  0
   -5.5680   14.9070  -33.4630 N   0  0  0  0  0  0  0  0  0  0  0  0
   -5.4100   13.6040  -34.1150 C   0  0  0  0  0  0  0  0  0  0  0  0
   -5.2660   12.5100  -33.0520 C   0  0  0  0  0  0  0  0  0  0  0  0
   -4.2450   12.8360  -32.1270 O   0  0  0  0  0  0  0  0  0  0  0  0
   -4.6080   13.9960  -31.4020 C   0  0  0  0  0  0  0  0  0  0  0  0
   -4.6890   15.2130  -32.3280 C   0  0  0  0  0  0  0  0  0  0  0  0
   -5.6030   18.0400  -34.9590 N   0  0  0  0  0  0  0  0  0  0  0  0
   -5.5300   19.3070  -34.5890 N   0  0  0  0  0  0  0  0  0  0  0  0
   -6.0030   19.4500  -33.3610 N   0  0  0  0  0  0  0  0  0  0  0  0
   -6.0800   20.7230  -32.7030 C   0  0  0  0  0  0  0  0  0  0  0  0
   -7.3130   21.2760  -32.3280 C   0  0  0  0  0  0  0  0  0  0  0  0
   -7.3420   22.5000  -31.6570 C   0  0  0  0  0  0  0  0  0  0  0  0
   -6.1470   23.1540  -31.3510 C   0  0  0  0  0  0  0  0  0  0  0  0
   -6.1690   24.8270  -30.4320 Br  0  0  0  0  0  0  0  0  0  0  0  0
   -4.9350   22.5620  -31.7160 C   0  0  0  0  0  0  0  0  0  0  0  0
   -4.9290   21.3700  -32.3690 N   0  0  0  0  0  0  0  0  0  0  0  0
   -9.0077   18.3972  -30.6782 H   0  0  0  0  0  0  0  0  0  0  0  0
   -8.7241   19.2528  -32.2319 H   0  0  0  0  0  0  0  0  0  0  0  0
   -9.1426   17.5059  -32.2319 H   0  0  0  0  0  0  0  0  0  0  0  0
   -6.6488   18.5372  -30.8227 H   0  0  0  0  0  0  0  0  0  0  0  0
   -7.0290   16.8693  -31.4099 H   0  0  0  0  0  0  0  0  0  0  0  0
   -6.2936   13.3963  -34.7364 H   0  0  0  0  0  0  0  0  0  0  0  0
   -4.5099   13.6192  -34.7471 H   0  0  0  0  0  0  0  0  0  0  0  0
   -6.2192   12.4033  -32.5135 H   0  0  0  0  0  0  0  0  0  0  0  0
   -4.9996   11.5670  -33.5518 H   0  0  0  0  0  0  0  0  0  0  0  0
   -5.5892   13.8349  -30.9315 H   0  0  0  0  0  0  0  0  0  0  0  0
   -3.8424   14.1866  -30.6355 H   0  0  0  0  0  0  0  0  0  0  0  0
   -5.0942   16.0709  -31.7714 H   0  0  0  0  0  0  0  0  0  0  0  0
   -3.6831   15.4587  -32.6993 H   0  0  0  0  0  0  0  0  0  0  0  0
   -5.3220   17.6850  -35.8990 H   0  0  0  0  0  0  0  0  0  0  0  0
   -8.2503   20.7493  -32.5608 H   0  0  0  0  0  0  0  0  0  0  0  0
   -8.3046   22.9483  -31.3699 H   0  0  0  0  0  0  0  0  0  0  0  0
   -3.9849   23.0611  -31.4746 H   0  0  0  0  0  0  0  0  0  0  0  0
  1  2  1  0
  2  3  1  0
  3  4  2  0
  4  5  1  0
  5  6  2  0
  5  7  1  0
  7  8  1  0
  8  9  1  0
  9 10  1  0
 10 11  1  0
 11 12  1  0
  4 13  1  0
 13 14  2  0
 14 15  1  0
 15 16  1  0
 16 17  2  0
 17 18  1  0
 18 19  2  0
 19 20  1  0
 19 21  1  0
 21 22  2  0
 15  3  1  0
 22 16  1  0
 12  7  1  0
  1 23  1  0
  1 24  1  0
  1 25  1  0
  2 26  1  0
  2 27  1  0
  8 28  1  0
  8 29  1  0
  9 30  1  0
  9 31  1  0
 11 32  1  0
 11 33  1  0
 12 34  1  0
 12 35  1  0
 13 36  1  0
 17 37  1  0
 18 38  1  0
 21 39  1  0
M  CHG  1  13   1
M  END
>  <UniqueID>  (31) 
30

>  <SMILES>  (31) 
CCc1c(C(=O)N2CCOCC2)[nH+]nn1-c1ccc(Br)cn1

>  <Energy>  (31) 
84.75012088791989

>  <Genealogy>  (31) 
CCc1c(C(=O)N2CCOCC2)[nH+]nn1-c1ccc(Br)cn1 (protonated)
CCc1c(C(=O)N2CCOCC2)[nH+]nn1-c1ccc(Br)cn1 (3D coordinates assigned)
CCc1c(C(=O)N2CCOCC2)[nH+]nn1-c1ccc(Br)cn1 (nonaromatic ring conformer: 84.75012088791989 kcal/mol)

>  <smiles>  (31) 
CCc1c(C(=O)N2CCOCC2)nnn1-c1ccc(Br)cn1

>  <score_type>  (31) 
oracle

>  <origin>  (31) 
adg

>  <m_score__min__energy>  (31) 
-7.2699999999999996

>  <m_primary>  (31) 
energy

$$$$
31:0
     RDKit          3D

 49 51  0  0  0  0  0  0  0  0999 V2000
   -1.0270   26.9240  -26.2810 C   0  0  0  0  0  0  0  0  0  0  0  0
   -1.0580   25.6730  -27.0910 C   0  0  0  0  0  0  0  0  0  0  0  0
   -1.7710   24.5800  -26.7600 N   0  0  0  0  0  0  0  0  0  0  0  0
   -1.4920   23.7640  -27.7980 C   0  0  0  0  0  0  0  0  0  0  0  0
   -2.0310   22.3730  -27.9280 C   0  0  0  0  0  0  0  0  0  0  0  0
   -3.1260   22.3380  -28.9180 N   0  0  0  0  0  0  0  0  0  0  0  0
   -2.6020   22.5870  -30.2800 C   0  0  0  0  0  0  0  0  0  0  0  0
   -3.7200   23.0320  -31.2280 C   0  0  0  0  0  0  0  0  0  0  0  0
   -4.3090   24.3290  -30.8070 N   0  0  0  0  0  0  0  0  0  0  0  0
   -5.6890   24.4850  -31.3140 C   0  0  0  0  0  0  0  0  0  0  0  0
   -6.3920   23.1520  -31.3830 C   0  0  0  0  0  0  0  0  0  0  0  0
   -7.2600   22.7640  -30.3520 C   0  0  0  0  0  0  0  0  0  0  0  0
   -7.9360   21.5420  -30.4200 C   0  0  0  0  0  0  0  0  0  0  0  0
   -7.7600   20.6900  -31.5230 C   0  0  0  0  0  0  0  0  0  0  0  0
   -8.5020   19.3680  -31.5880 C   0  0  0  0  0  0  0  0  0  0  0  0
   -9.4900   19.3460  -32.7590 C   0  0  0  0  0  0  0  0  0  0  0  0
   -7.5260   18.1890  -31.6670 C   0  0  0  0  0  0  0  0  0  0  0  0
   -6.8930   21.0880  -32.5600 C   0  0  0  0  0  0  0  0  0  0  0  0
   -6.2180   22.3090  -32.4890 C   0  0  0  0  0  0  0  0  0  0  0  0
   -4.2390   24.5540  -29.3410 C   0  0  0  0  0  0  0  0  0  0  0  0
   -4.2490   23.2380  -28.5450 C   0  0  0  0  0  0  0  0  0  0  0  0
   -0.6660   24.3290  -28.6990 N   0  0  0  0  0  0  0  0  0  0  0  0
   -0.4220   25.5140  -28.2260 O   0  0  0  0  0  0  0  0  0  0  0  0
   -1.0333   26.6683  -25.2111 H   0  0  0  0  0  0  0  0  0  0  0  0
   -0.1145   27.4912  -26.5171 H   0  0  0  0  0  0  0  0  0  0  0  0
   -1.9103   27.5357  -26.5171 H   0  0  0  0  0  0  0  0  0  0  0  0
   -1.2244   21.7004  -28.2552 H   0  0  0  0  0  0  0  0  0  0  0  0
   -2.4205   22.0476  -26.9521 H   0  0  0  0  0  0  0  0  0  0  0  0
   -1.8366   23.3756  -30.2319 H   0  0  0  0  0  0  0  0  0  0  0  0
   -2.1695   21.6515  -30.6645 H   0  0  0  0  0  0  0  0  0  0  0  0
   -3.3068   23.1397  -32.2418 H   0  0  0  0  0  0  0  0  0  0  0  0
   -4.5133   22.2703  -31.2064 H   0  0  0  0  0  0  0  0  0  0  0  0
   -6.2469   25.1517  -30.6400 H   0  0  0  0  0  0  0  0  0  0  0  0
   -5.6447   24.9114  -32.3270 H   0  0  0  0  0  0  0  0  0  0  0  0
   -7.4098   23.4246  -29.4853 H   0  0  0  0  0  0  0  0  0  0  0  0
   -8.6109   21.2455  -29.6035 H   0  0  0  0  0  0  0  0  0  0  0  0
   -9.0805   19.2626  -30.6584 H   0  0  0  0  0  0  0  0  0  0  0  0
  -10.5188   19.3231  -32.3703 H   0  0  0  0  0  0  0  0  0  0  0  0
   -9.3502   20.2475  -33.3737 H   0  0  0  0  0  0  0  0  0  0  0  0
   -9.3102   18.4516  -33.3737 H   0  0  0  0  0  0  0  0  0  0  0  0
   -7.2584   17.8658  -30.6502 H   0  0  0  0  0  0  0  0  0  0  0  0
   -8.0014   17.3548  -32.2038 H   0  0  0  0  0  0  0  0  0  0  0  0
   -6.6177   18.5002  -32.2038 H   0  0  0  0  0  0  0  0  0  0  0  0
   -6.7467   20.4328  -33.4314 H   0  0  0  0  0  0  0  0  0  0  0  0
   -5.5460   22.6106  -33.3060 H   0  0  0  0  0  0  0  0  0  0  0  0
   -3.3115   25.0989  -29.1111 H   0  0  0  0  0  0  0  0  0  0  0  0
   -5.1285   25.1306  -29.0472 H   0  0  0  0  0  0  0  0  0  0  0  0
   -4.1713   23.4734  -27.4733 H   0  0  0  0  0  0  0  0  0  0  0  0
   -5.1881   22.7143  -28.7772 H   0  0  0  0  0  0  0  0  0  0  0  0
  1  2  1  0
  2  3  2  0
  3  4  1  0
  4  5  1  0
  5  6  1  0
  6  7  1  0
  7  8  1  0
  8  9  1  0
  9 10  1  0
 10 11  1  0
 11 12  2  0
 12 13  1  0
 13 14  2  0
 14 15  1  0
 15 16  1  0
 15 17  1  0
 14 18  1  0
 18 19  2  0
  9 20  1  0
 20 21  1  0
  4 22  2  0
 22 23  1  0
 23  2  1  0
 21  6  1  0
 19 11  1  0
  1 24  1  0
  1 25  1  0
  1 26  1  0
  5 27  1  0
  5 28  1  0
  7 29  1  0
  7 30  1  0
  8 31  1  0
  8 32  1  0
 10 33  1  0
 10 34  1  0
 12 35  1  0
 13 36  1  0
 15 37  1  0
 16 38  1  0
 16 39  1  0
 16 40  1  0
 17 41  1  0
 17 42  1  0
 17 43  1  0
 18 44  1  0
 19 45  1  0
 20 46  1  0
 20 47  1  0
 21 48  1  0
 21 49  1  0
M  END
>  <UniqueID>  (32) 
31

>  <SMILES>  (32) 
Cc1nc(CN2CCN(Cc3ccc(C(C)C)cc3)CC2)no1

>  <Energy>  (32) 
89.55294540792079

>  <Genealogy>  (32) 
Cc1nc(CN2CCN(Cc3ccc(C(C)C)cc3)CC2)no1 (3D coordinates assigned)
Cc1nc(CN2CCN(Cc3ccc(C(C)C)cc3)CC2)no1 (nonaromatic ring conformer: 89.55294540792079 kcal/mol)

>  <smiles>  (32) 
Cc1nc(CN2CCN(Cc3ccc(C(C)C)cc3)CC2)no1

>  <score_type>  (32) 
oracle

>  <origin>  (32) 
adg

>  <m_score__min__energy>  (32) 
-9.1999999999999993

>  <m_primary>  (32) 
energy

$$$$
32:0
     RDKit          3D

 57 60  0  0  0  0  0  0  0  0999 V2000
   -9.7590   21.5810  -31.0380 C   0  0  0  0  0  0  0  0  0  0  0  0
   -9.7600   20.3960  -31.8280 O   0  0  0  0  0  0  0  0  0  0  0  0
   -8.6040   19.7730  -32.3220 C   0  0  0  0  0  0  0  0  0  0  0  0
   -8.3370   18.4050  -32.1160 C   0  0  0  0  0  0  0  0  0  0  0  0
   -7.1690   17.8310  -32.6280 C   0  0  0  0  0  0  0  0  0  0  0  0
   -6.2460   18.6110  -33.3420 C   0  0  0  0  0  0  0  0  0  0  0  0
   -5.0210   17.9830  -33.8880 C   0  0  0  0  0  0  0  0  0  0  0  0
   -5.0220   17.0890  -34.8940 N   0  0  0  0  0  0  0  0  0  0  0  0
   -3.7240   16.7940  -35.0790 C   0  0  0  0  0  0  0  0  0  0  0  0
   -3.3110   15.9900  -35.9560 O   0  0  0  0  0  0  0  0  0  0  0  0
   -2.9320   17.4340  -34.2510 O   0  0  0  0  0  0  0  0  0  0  0  0
   -3.7020   18.1750  -33.4840 C   0  0  0  0  0  0  0  0  0  0  0  0
   -3.1970   19.0610  -32.3780 C   0  0  0  0  0  0  0  0  0  0  0  0
   -1.6890   19.3170  -32.4850 C   0  0  0  0  0  0  0  0  0  0  0  0
   -1.4010   20.7710  -32.4600 N   0  0  0  0  0  0  0  0  0  0  0  0
   -1.4670   21.3500  -31.1030 C   0  0  0  0  0  0  0  0  0  0  0  0
   -2.9090   21.4600  -30.6010 C   0  0  0  0  0  0  0  0  0  0  0  0
   -3.7120   22.1890  -31.5810 N   0  0  0  0  0  0  0  0  0  0  0  0
   -4.7760   23.0460  -31.1340 C   0  0  0  0  0  0  0  0  0  0  0  0
   -6.1150   22.6710  -31.3370 C   0  0  0  0  0  0  0  0  0  0  0  0
   -7.1530   23.4940  -30.8980 C   0  0  0  0  0  0  0  0  0  0  0  0
   -6.8650   24.7000  -30.2570 C   0  0  0  0  0  0  0  0  0  0  0  0
   -5.5380   25.0890  -30.0580 C   0  0  0  0  0  0  0  0  0  0  0  0
   -4.4810   24.2690  -30.4980 C   0  0  0  0  0  0  0  0  0  0  0  0
   -3.1360   24.6380  -30.3380 O   0  0  0  0  0  0  0  0  0  0  0  0
   -2.3340   24.2960  -29.2130 C   0  0  0  0  0  0  0  0  0  0  0  0
   -3.6660   21.7420  -32.9750 C   0  0  0  0  0  0  0  0  0  0  0  0
   -2.2080   21.5490  -33.4270 C   0  0  0  0  0  0  0  0  0  0  0  0
   -6.5230   19.9690  -33.5590 C   0  0  0  0  0  0  0  0  0  0  0  0
   -7.6910   20.5430  -33.0480 C   0  0  0  0  0  0  0  0  0  0  0  0
   -9.7592   21.3108  -29.9717 H   0  0  0  0  0  0  0  0  0  0  0  0
   -8.8604   22.1730  -31.2661 H   0  0  0  0  0  0  0  0  0  0  0  0
  -10.6566   22.1745  -31.2661 H   0  0  0  0  0  0  0  0  0  0  0  0
   -9.0496   17.7864  -31.5506 H   0  0  0  0  0  0  0  0  0  0  0  0
   -6.9722   16.7603  -32.4700 H   0  0  0  0  0  0  0  0  0  0  0  0
   -5.8400   16.7230  -35.4310 H   0  0  0  0  0  0  0  0  0  0  0  0
   -3.7245   20.0250  -32.4273 H   0  0  0  0  0  0  0  0  0  0  0  0
   -3.3862   18.5500  -31.4224 H   0  0  0  0  0  0  0  0  0  0  0  0
   -1.1797   18.8335  -31.6383 H   0  0  0  0  0  0  0  0  0  0  0  0
   -1.3264   18.9011  -33.4366 H   0  0  0  0  0  0  0  0  0  0  0  0
   -0.8982   20.7082  -30.4141 H   0  0  0  0  0  0  0  0  0  0  0  0
   -1.0407   22.3633  -31.1427 H   0  0  0  0  0  0  0  0  0  0  0  0
   -3.3267   20.4519  -30.4618 H   0  0  0  0  0  0  0  0  0  0  0  0
   -2.9232   21.9985  -29.6419 H   0  0  0  0  0  0  0  0  0  0  0  0
   -6.3463   21.7231  -31.8450 H   0  0  0  0  0  0  0  0  0  0  0  0
   -8.1987   23.1921  -31.0572 H   0  0  0  0  0  0  0  0  0  0  0  0
   -7.6845   25.3454  -29.9078 H   0  0  0  0  0  0  0  0  0  0  0  0
   -5.3174   26.0418  -29.5545 H   0  0  0  0  0  0  0  0  0  0  0  0
   -2.8814   24.5294  -28.2879 H   0  0  0  0  0  0  0  0  0  0  0  0
   -2.1027   23.2210  -29.2408 H   0  0  0  0  0  0  0  0  0  0  0  0
   -1.3981   24.8733  -29.2408 H   0  0  0  0  0  0  0  0  0  0  0  0
   -4.2039   20.7870  -33.0676 H   0  0  0  0  0  0  0  0  0  0  0  0
   -4.1393   22.5048  -33.6107 H   0  0  0  0  0  0  0  0  0  0  0  0
   -2.2070   21.0190  -34.3909 H   0  0  0  0  0  0  0  0  0  0  0  0
   -1.7533   22.5474  -33.5070 H   0  0  0  0  0  0  0  0  0  0  0  0
   -5.8171   20.5858  -34.1346 H   0  0  0  0  0  0  0  0  0  0  0  0
   -7.8933   21.6106  -33.2190 H   0  0  0  0  0  0  0  0  0  0  0  0
  1  2  1  0
  2  3  1  0
  3  4  2  0
  4  5  1  0
  5  6  2  0
  6  7  1  0
  7  8  1  0
  8  9  1  0
  9 10  2  0
  9 11  1  0
 11 12  1  0
 12 13  1  0
 13 14  1  0
 14 15  1  0
 15 16  1  0
 16 17  1  0
 17 18  1  0
 18 19  1  0
 19 20  2  0
 20 21  1  0
 21 22  2  0
 22 23  1  0
 23 24  2  0
 24 25  1  0
 25 26  1  0
 18 27  1  0
 27 28  1  0
  6 29  1  0
 29 30  2  0
 30  3  1  0
 12  7  2  0
 28 15  1  0
 24 19  1  0
  1 31  1  0
  1 32  1  0
  1 33  1  0
  4 34  1  0
  5 35  1  0
  8 36  1  0
 13 37  1  0
 13 38  1  0
 14 39  1  0
 14 40  1  0
 16 41  1  0
 16 42  1  0
 17 43  1  0
 17 44  1  0
 20 45  1  0
 21 46  1  0
 22 47  1  0
 23 48  1  0
 26 49  1  0
 26 50  1  0
 26 51  1  0
 27 52  1  0
 27 53  1  0
 28 54  1  0
 28 55  1  0
 29 56  1  0
 30 57  1  0
M  END
>  <UniqueID>  (33) 
32

>  <SMILES>  (33) 
COc1ccc(-c2[nH]c(=O)oc2CCN2CCN(c3ccccc3OC)CC2)cc1

>  <Energy>  (33) 
101.89972354363152

>  <Genealogy>  (33) 
COc1ccc(-c2[nH]c(=O)oc2CCN2CCN(c3ccccc3OC)CC2)cc1 (3D coordinates assigned)
COc1ccc(-c2[nH]c(=O)oc2CCN2CCN(c3ccccc3OC)CC2)cc1 (nonaromatic ring conformer: 101.89972354363152 kcal/mol)

>  <smiles>  (33) 
COc1ccc(-c2[nH]c(=O)oc2CCN2CCN(c3ccccc3OC)CC2)cc1

>  <score_type>  (33) 
oracle

>  <origin>  (33) 
adg

>  <m_score__min__energy>  (33) 
-8.5299999999999994

>  <m_primary>  (33) 
energy

$$$$
33:0
     RDKit          3D

 50 55  0  0  0  0  0  0  0  0999 V2000
   -7.1598   24.9062  -31.7708 H   0  0  0  0  0  0  0  0  0  0  0  0
   -6.5760   23.9880  -31.6090 C   0  0  0  0  0  0  0  0  0  0  0  0
   -5.3320   24.1170  -31.1250 C   0  0  0  0  0  0  0  0  0  0  0  0
   -4.8200   25.2790  -30.3960 C   0  0  0  0  0  0  0  0  0  0  0  0
   -5.4680   26.3350  -30.1750 O   0  0  0  0  0  0  0  0  0  0  0  0
   -3.4900   25.0730  -29.9250 N   0  0  0  0  0  0  0  0  0  0  0  0
   -3.1670   23.7740  -30.4140 C   0  0  0  0  0  0  0  0  0  0  0  0
   -1.9270   23.1540  -30.2870 C   0  0  0  0  0  0  0  0  0  0  0  0
   -1.1237   23.6229  -29.6997 H   0  0  0  0  0  0  0  0  0  0  0  0
   -1.7210   21.9200  -30.9220 C   0  0  0  0  0  0  0  0  0  0  0  0
   -0.7581   21.4012  -30.8055 H   0  0  0  0  0  0  0  0  0  0  0  0
   -2.7420   21.3360  -31.7120 C   0  0  0  0  0  0  0  0  0  0  0  0
   -2.5320   20.0550  -32.4260 C   0  0  0  0  0  0  0  0  0  0  0  0
   -1.5110   19.8470  -33.2480 O   0  0  0  0  0  0  0  0  0  0  0  0
   -1.6450   18.6240  -33.6940 C   0  0  0  0  0  0  0  0  0  0  0  0
   -0.8340   17.9250  -34.5840 C   0  0  0  0  0  0  0  0  0  0  0  0
    0.0631   18.3863  -35.0226 H   0  0  0  0  0  0  0  0  0  0  0  0
   -1.2070   16.6040  -34.9010 C   0  0  0  0  0  0  0  0  0  0  0  0
   -0.5931   16.0155  -35.5987 H   0  0  0  0  0  0  0  0  0  0  0  0
   -2.3660   16.0290  -34.3280 C   0  0  0  0  0  0  0  0  0  0  0  0
   -2.6478   14.9970  -34.5843 H   0  0  0  0  0  0  0  0  0  0  0  0
   -3.1610   16.7690  -33.4320 C   0  0  0  0  0  0  0  0  0  0  0  0
   -4.0644   16.3354  -32.9783 H   0  0  0  0  0  0  0  0  0  0  0  0
   -2.7600   18.0710  -33.1420 C   0  0  0  0  0  0  0  0  0  0  0  0
   -3.3420   18.9660  -32.3300 N   0  0  0  0  0  0  0  0  0  0  0  0
   -4.2090   18.8330  -31.7660 H   0  0  0  0  0  0  0  0  0  0  0  0
   -3.9820   21.9970  -31.8360 C   0  0  0  0  0  0  0  0  0  0  0  0
   -4.7732   21.5808  -32.4769 H   0  0  0  0  0  0  0  0  0  0  0  0
   -4.1930   23.1880  -31.1340 C   0  0  0  0  0  0  0  0  0  0  0  0
   -7.2130   22.7070  -31.9380 C   0  0  0  0  0  0  0  0  0  0  0  0
   -6.5580   21.6690  -32.4010 O   0  0  0  0  0  0  0  0  0  0  0  0
   -7.4150   20.6990  -32.6340 C   0  0  0  0  0  0  0  0  0  0  0  0
   -7.0400   19.3540  -33.1440 C   0  0  0  0  0  0  0  0  0  0  0  0
   -6.1130   19.2580  -34.2010 C   0  0  0  0  0  0  0  0  0  0  0  0
   -5.6667   20.1734  -34.6168 H   0  0  0  0  0  0  0  0  0  0  0  0
   -5.7540   18.0160  -34.7270 C   0  0  0  0  0  0  0  0  0  0  0  0
   -5.0265   17.9580  -35.5500 H   0  0  0  0  0  0  0  0  0  0  0  0
   -6.3150   16.8500  -34.2120 C   0  0  0  0  0  0  0  0  0  0  0  0
   -6.0348   15.8730  -34.6327 H   0  0  0  0  0  0  0  0  0  0  0  0
   -7.2320   16.9200  -33.1630 C   0  0  0  0  0  0  0  0  0  0  0  0
   -7.6737   15.9950  -32.7639 H   0  0  0  0  0  0  0  0  0  0  0  0
   -7.5980   18.1610  -32.6100 C   0  0  0  0  0  0  0  0  0  0  0  0
   -8.5750   18.1770  -31.4630 C   0  0  0  0  0  0  0  0  0  0  0  0
   -8.0234   18.1680  -30.5113 H   0  0  0  0  0  0  0  0  0  0  0  0
   -9.1927   19.0854  -31.5202 H   0  0  0  0  0  0  0  0  0  0  0  0
   -9.2221   17.2893  -31.5202 H   0  0  0  0  0  0  0  0  0  0  0  0
   -8.6950   21.1270  -32.3190 C   0  0  0  0  0  0  0  0  0  0  0  0
   -9.6258   20.5465  -32.4012 H   0  0  0  0  0  0  0  0  0  0  0  0
   -8.5650   22.4270  -31.8820 C   0  0  0  0  0  0  0  0  0  0  0  0
   -9.3702   23.1019  -31.5562 H   0  0  0  0  0  0  0  0  0  0  0  0
  1  2  1  0
  2  3  2  0
  3  4  1  0
  4  5  2  0
  4  6  1  0
  6  7  1  0
  7  8  2  0
  8  9  1  0
  8 10  1  0
 10 11  1  0
 10 12  2  0
 12 13  1  0
 13 14  1  0
 14 15  1  0
 15 16  2  0
 16 17  1  0
 16 18  1  0
 18 19  1  0
 18 20  2  0
 20 21  1  0
 20 22  1  0
 22 23  1  0
 22 24  2  0
 24 25  1  0
 25 26  1  0
 12 27  1  0
 27 28  1  0
 27 29  2  0
  2 30  1  0
 30 31  1  0
 31 32  1  0
 32 33  1  0
 33 34  2  0
 34 35  1  0
 34 36  1  0
 36 37  1  0
 36 38  2  0
 38 39  1  0
 38 40  1  0
 40 41  1  0
 40 42  2  0
 42 43  1  0
 43 44  1  0
 43 45  1  0
 43 46  1  0
 32 47  2  0
 47 48  1  0
 47 49  1  0
 49 50  1  0
 29  3  1  0
 49 30  2  0
 29  7  1  0
 42 33  1  0
 25 13  2  0
 24 15  1  0
M  CHG  2   6  -1  25   1
M  END
>  <UniqueID>  (34) 
33

>  <SMILES>  (34) 
Cc1ccccc1-c1ccc(/C=C2/C(=O)[N-]c3ccc(-c4[nH+]c5ccccc5o4)cc32)o1

>  <Energy>  (34) 
165.0039493149924

>  <Genealogy>  (34) 
Cc1ccccc1-c1ccc(C=C2C(=O)[N-]c3ccc(-c4[nH+]c5ccccc5o4)cc32)o1 (protonated)
Cc1ccccc1-c1ccc(/C=C2/C(=O)[N-]c3ccc(-c4[nH+]c5ccccc5o4)cc32)o1 (cis-trans isomerization)
Cc1ccccc1-c1ccc(/C=C2/C(=O)[N-]c3ccc(-c4[nH+]c5ccccc5o4)cc32)o1 (3D coordinates assigned)
Cc1ccccc1-c1ccc(/C=C2/C(=O)[N-]c3ccc(-c4[nH+]c5ccccc5o4)cc32)o1 (nonaromatic ring conformer: 165.0039493149924 kcal/mol)

>  <smiles>  (34) 
Cc1ccccc1-c1ccc(C=C2C(=O)Nc3ccc(-c4nc5ccccc5o4)cc32)o1

>  <score_type>  (34) 
oracle

>  <origin>  (34) 
adg

>  <m_score__min__energy>  (34) 
-11.15

>  <m_primary>  (34) 
energy

$$$$
34:0
     RDKit          3D

 43 46  0  0  0  0  0  0  0  0999 V2000
   -4.7970   24.8270  -30.7970 F   0  0  0  0  0  0  0  0  0  0  0  0
   -5.5250   23.7810  -31.2580 C   0  0  0  0  0  0  0  0  0  0  0  0
   -4.8770   22.6830  -31.8570 C   0  0  0  0  0  0  0  0  0  0  0  0
   -5.6250   21.5970  -32.3400 C   0  0  0  0  0  0  0  0  0  0  0  0
   -7.0200   21.6400  -32.2180 C   0  0  0  0  0  0  0  0  0  0  0  0
   -7.6440   22.7060  -31.6290 C   0  0  0  0  0  0  0  0  0  0  0  0
   -6.9230   23.7950  -31.1390 C   0  0  0  0  0  0  0  0  0  0  0  0
   -9.1140   22.4990  -31.5940 C   0  0  0  0  0  0  0  0  0  0  0  0
   -9.2950   21.1050  -32.2380 C   0  0  0  0  0  0  0  0  0  0  0  0
   -7.9550   20.6540  -32.6390 N   0  0  0  0  0  0  0  0  0  0  0  0
   -7.6080   19.2700  -33.0060 C   0  0  0  0  0  0  0  0  0  0  0  0
   -7.2820   18.4070  -31.7550 C   0  0  0  0  0  0  0  0  0  0  0  0
   -5.7890   18.0990  -31.6320 C   0  0  0  0  0  0  0  0  0  0  0  0
   -5.3200   17.4460  -32.8600 N   0  0  0  0  0  0  0  0  0  0  0  0
   -4.4660   16.2930  -32.7860 C   0  0  0  0  0  0  0  0  0  0  0  0
   -4.9840   15.0750  -32.3180 C   0  0  0  0  0  0  0  0  0  0  0  0
   -4.1650   13.9460  -32.2270 C   0  0  0  0  0  0  0  0  0  0  0  0
   -2.8230   14.0220  -32.6050 C   0  0  0  0  0  0  0  0  0  0  0  0
   -2.2970   15.2250  -33.0860 C   0  0  0  0  0  0  0  0  0  0  0  0
   -0.9940   15.2800  -33.4650 F   0  0  0  0  0  0  0  0  0  0  0  0
   -3.1110   16.3640  -33.1810 C   0  0  0  0  0  0  0  0  0  0  0  0
   -2.4290   17.8430  -33.8520 Cl  0  0  0  0  0  0  0  0  0  0  0  0
   -5.7820   17.9180  -34.1730 C   0  0  0  0  0  0  0  0  0  0  0  0
   -6.4780   19.2800  -34.0620 C   0  0  0  0  0  0  0  0  0  0  0  0
   -3.7807   22.6762  -31.9468 H   0  0  0  0  0  0  0  0  0  0  0  0
   -5.1271   20.7325  -32.8034 H   0  0  0  0  0  0  0  0  0  0  0  0
   -7.4389   24.6457  -30.6698 H   0  0  0  0  0  0  0  0  0  0  0  0
   -9.4880   22.5063  -30.5596 H   0  0  0  0  0  0  0  0  0  0  0  0
   -9.6716   23.2896  -32.1175 H   0  0  0  0  0  0  0  0  0  0  0  0
   -9.7302   20.4039  -31.5106 H   0  0  0  0  0  0  0  0  0  0  0  0
   -9.9746   21.1508  -33.1018 H   0  0  0  0  0  0  0  0  0  0  0  0
   -8.4819   18.7856  -33.4662 H   0  0  0  0  0  0  0  0  0  0  0  0
   -7.6055   18.9519  -30.8559 H   0  0  0  0  0  0  0  0  0  0  0  0
   -7.8143   17.4501  -31.8598 H   0  0  0  0  0  0  0  0  0  0  0  0
   -5.2329   19.0358  -31.4798 H   0  0  0  0  0  0  0  0  0  0  0  0
   -5.6227   17.4297  -30.7750 H   0  0  0  0  0  0  0  0  0  0  0  0
   -6.0411   15.0087  -32.0210 H   0  0  0  0  0  0  0  0  0  0  0  0
   -4.5783   12.9961  -31.8570 H   0  0  0  0  0  0  0  0  0  0  0  0
   -2.1786   13.1342  -32.5243 H   0  0  0  0  0  0  0  0  0  0  0  0
   -4.9163   18.0117  -34.8451 H   0  0  0  0  0  0  0  0  0  0  0  0
   -6.5050   17.1898  -34.5691 H   0  0  0  0  0  0  0  0  0  0  0  0
   -5.7327   20.0373  -33.7772 H   0  0  0  0  0  0  0  0  0  0  0  0
   -6.9282   19.5116  -35.0386 H   0  0  0  0  0  0  0  0  0  0  0  0
  1  2  1  0
  2  3  2  0
  3  4  1  0
  4  5  2  0
  5  6  1  0
  6  7  2  0
  6  8  1  0
  8  9  1  0
  9 10  1  0
 10 11  1  0
 11 12  1  0
 12 13  1  0
 13 14  1  0
 14 15  1  0
 15 16  2  0
 16 17  1  0
 17 18  2  0
 18 19  1  0
 19 20  1  0
 19 21  2  0
 21 22  1  0
 14 23  1  0
 23 24  1  0
  7  2  1  0
 24 11  1  0
 10  5  1  0
 21 15  1  0
  3 25  1  0
  4 26  1  0
  7 27  1  0
  8 28  1  0
  8 29  1  0
  9 30  1  0
  9 31  1  0
 11 32  1  0
 12 33  1  0
 12 34  1  0
 13 35  1  0
 13 36  1  0
 16 37  1  0
 17 38  1  0
 18 39  1  0
 23 40  1  0
 23 41  1  0
 24 42  1  0
 24 43  1  0
M  END
>  <UniqueID>  (35) 
34

>  <SMILES>  (35) 
Fc1ccc2c(c1)CCN2C1CCN(c2cccc(F)c2Cl)CC1

>  <Energy>  (35) 
68.35521822532371

>  <Genealogy>  (35) 
Fc1ccc2c(c1)CCN2C1CCN(c2cccc(F)c2Cl)CC1 (3D coordinates assigned)
Fc1ccc2c(c1)CCN2C1CCN(c2cccc(F)c2Cl)CC1 (nonaromatic ring conformer: 68.35521822532371 kcal/mol)

>  <smiles>  (35) 
Fc1ccc2c(c1)CCN2C1CCN(c2cccc(F)c2Cl)CC1

>  <score_type>  (35) 
oracle

>  <origin>  (35) 
adg

>  <m_score__min__energy>  (35) 
-7.9699999999999998

>  <m_primary>  (35) 
energy

$$$$
35:0
     RDKit          3D

 52 55  0  0  0  0  0  0  0  0999 V2000
   -6.9730   17.8640  -33.1510 C   0  0  0  0  0  0  0  0  0  0  0  0
   -6.5960   19.2490  -32.8870 N   0  0  0  0  0  0  0  0  0  0  0  0
   -5.3590   19.7840  -33.0220 C   0  0  0  0  0  0  0  0  0  0  0  0
   -5.3750   21.1320  -32.6810 C   0  0  0  0  0  0  0  0  0  0  0  0
   -6.6820   21.4110  -32.3280 C   0  0  0  0  0  0  0  0  0  0  0  0
   -7.2840   22.6030  -31.8990 C   0  0  0  0  0  0  0  0  0  0  0  0
   -6.4910   23.8790  -31.7260 C   0  0  0  0  0  0  0  0  0  0  0  0
   -6.1110   24.1040  -30.3130 N   0  0  2  0  0  0  0  0  0  0  0  0
   -6.8630   25.2200  -29.7140 C   0  0  0  0  0  0  0  0  0  0  0  0
   -4.6900   24.3740  -30.2260 C   0  0  0  0  0  0  0  0  0  0  0  0
   -4.1960   25.2740  -30.8930 O   0  0  0  0  0  0  0  0  0  0  0  0
   -3.8180   23.5190  -29.3280 C   0  0  0  0  0  0  0  0  0  0  0  0
   -2.9960   24.3260  -28.2940 C   0  0  1  0  0  0  0  0  0  0  0  0
   -2.5150   23.4510  -27.0960 C   0  0  0  0  0  0  0  0  0  0  0  0
   -1.0040   23.6630  -26.8880 C   0  0  0  0  0  0  0  0  0  0  0  0
   -0.2850   23.2090  -28.1710 C   0  0  0  0  0  0  0  0  0  0  0  0
   -0.8010   24.0470  -29.3670 C   0  0  0  0  0  0  0  0  0  0  0  0
   -1.8420   25.0190  -28.9390 N   0  0  0  0  0  0  0  0  0  0  0  0
   -1.2340   25.9440  -27.9480 C   0  0  0  0  0  0  0  0  0  0  0  0
   -0.7430   25.1710  -26.6940 C   0  0  0  0  0  0  0  0  0  0  0  0
   -8.6640   22.5610  -31.6000 C   0  0  0  0  0  0  0  0  0  0  0  0
   -9.3950   21.3630  -31.7420 C   0  0  0  0  0  0  0  0  0  0  0  0
   -8.7610   20.1860  -32.1780 C   0  0  0  0  0  0  0  0  0  0  0  0
   -7.3970   20.2470  -32.4630 C   0  0  0  0  0  0  0  0  0  0  0  0
   -7.1170   17.3350  -32.1973 H   0  0  0  0  0  0  0  0  0  0  0  0
   -7.9097   17.8424  -33.7273 H   0  0  0  0  0  0  0  0  0  0  0  0
   -6.1765   17.3707  -33.7273 H   0  0  0  0  0  0  0  0  0  0  0  0
   -4.4682   19.2307  -33.3542 H   0  0  0  0  0  0  0  0  0  0  0  0
   -4.5252   21.8304  -32.6902 H   0  0  0  0  0  0  0  0  0  0  0  0
   -5.5769   23.8152  -32.3345 H   0  0  0  0  0  0  0  0  0  0  0  0
   -7.1228   24.7200  -32.0478 H   0  0  0  0  0  0  0  0  0  0  0  0
   -6.3240   23.2400  -29.7600 H   0  0  0  0  0  0  0  0  0  0  0  0
   -6.8145   25.1481  -28.6174 H   0  0  0  0  0  0  0  0  0  0  0  0
   -6.4232   26.1746  -30.0386 H   0  0  0  0  0  0  0  0  0  0  0  0
   -7.9129   25.1708  -30.0386 H   0  0  0  0  0  0  0  0  0  0  0  0
   -4.4664   22.8175  -28.7826 H   0  0  0  0  0  0  0  0  0  0  0  0
   -3.0946   23.0080  -29.9803 H   0  0  0  0  0  0  0  0  0  0  0  0
   -3.6750   25.0884  -27.8846 H   0  0  0  0  0  0  0  0  0  0  0  0
   -3.0566   23.7452  -26.1849 H   0  0  0  0  0  0  0  0  0  0  0  0
   -2.7131   22.3904  -27.3103 H   0  0  0  0  0  0  0  0  0  0  0  0
   -0.6465   23.0982  -26.0144 H   0  0  0  0  0  0  0  0  0  0  0  0
    0.7990   23.3579  -28.0577 H   0  0  0  0  0  0  0  0  0  0  0  0
   -0.4882   22.1431  -28.3513 H   0  0  0  0  0  0  0  0  0  0  0  0
    0.0427   24.5974  -29.8089 H   0  0  0  0  0  0  0  0  0  0  0  0
   -1.2481   23.3621  -30.1025 H   0  0  0  0  0  0  0  0  0  0  0  0
   -0.3788   26.4570  -28.4121 H   0  0  0  0  0  0  0  0  0  0  0  0
   -1.9963   26.6725  -27.6346 H   0  0  0  0  0  0  0  0  0  0  0  0
    0.3348   25.3423  -26.5558 H   0  0  0  0  0  0  0  0  0  0  0  0
   -1.2863   25.5271  -25.8063 H   0  0  0  0  0  0  0  0  0  0  0  0
   -9.1738   23.4719  -31.2529 H   0  0  0  0  0  0  0  0  0  0  0  0
  -10.4701   21.3494  -31.5097 H   0  0  0  0  0  0  0  0  0  0  0  0
   -9.3229   19.2471  -32.2907 H   0  0  0  0  0  0  0  0  0  0  0  0
  1  2  1  0
  2  3  1  0
  3  4  2  0
  4  5  1  0
  5  6  2  0
  6  7  1  0
  7  8  1  0
  8  9  1  0
  8 10  1  0
 10 11  2  0
 10 12  1  0
 12 13  1  0
 13 14  1  0
 14 15  1  0
 15 16  1  0
 16 17  1  0
 17 18  1  0
 18 19  1  0
 19 20  1  0
  6 21  1  0
 21 22  2  0
 22 23  1  0
 23 24  2  0
 24  2  1  0
 24  5  1  0
 18 13  1  0
 20 15  1  0
  1 25  1  0
  1 26  1  0
  1 27  1  0
  3 28  1  0
  4 29  1  0
  7 30  1  0
  7 31  1  0
  8 32  1  1
  9 33  1  0
  9 34  1  0
  9 35  1  0
 12 36  1  0
 12 37  1  0
 13 38  1  1
 14 39  1  0
 14 40  1  0
 15 41  1  0
 16 42  1  0
 16 43  1  0
 17 44  1  0
 17 45  1  0
 19 46  1  0
 19 47  1  0
 20 48  1  0
 20 49  1  0
 21 50  1  0
 22 51  1  0
 23 52  1  0
M  CHG  1   8   1
M  END
>  <UniqueID>  (36) 
35

>  <SMILES>  (36) 
Cn1ccc2c(C[N@H+](C)C(=O)C[C@H]3CC4CCN3CC4)cccc21

>  <Energy>  (36) 
101.66140625611877

>  <Genealogy>  (36) 
Cn1ccc2c(C[NH+](C)C(=O)CC3CC4CCN3CC4)cccc21 (protonated)
Cn1ccc2c(C[N@H+](C)C(=O)C[C@H]3CC4CCN3CC4)cccc21 (chirality)
Cn1ccc2c(C[N@H+](C)C(=O)C[C@H]3CC4CCN3CC4)cccc21 (3D coordinates assigned)
Cn1ccc2c(C[N@H+](C)C(=O)C[C@H]3CC4CCN3CC4)cccc21 (nonaromatic ring conformer: 101.66140625611877 kcal/mol)

>  <smiles>  (36) 
CN(Cc1cccc2c1ccn2C)C(=O)CC1CC2CCN1CC2

>  <score_type>  (36) 
oracle

>  <origin>  (36) 
adg

>  <m_score__min__energy>  (36) 
-8.6899999999999995

>  <m_primary>  (36) 
energy

$$$$
36:0
     RDKit          3D

 42 44  0  0  0  0  0  0  0  0999 V2000
   -2.3050   19.2990  -34.0510 C   0  0  0  0  0  0  0  0  0  0  0  0
   -3.7740   19.4490  -33.8300 C   0  0  0  0  0  0  0  0  0  0  0  0
   -4.6850   18.6590  -34.3500 O   0  0  0  0  0  0  0  0  0  0  0  0
   -5.8810   18.9960  -33.9610 N   0  0  0  0  0  0  0  0  0  0  0  0
   -5.7470   20.0630  -33.1470 C   0  0  0  0  0  0  0  0  0  0  0  0
   -6.8840   20.7240  -32.4790 C   0  0  0  0  0  0  0  0  0  0  0  0
   -6.8760   22.1230  -32.3290 C   0  0  0  0  0  0  0  0  0  0  0  0
   -5.8360   22.8620  -32.7910 F   0  0  0  0  0  0  0  0  0  0  0  0
   -7.9500   22.7710  -31.7130 C   0  0  0  0  0  0  0  0  0  0  0  0
   -9.0330   22.0330  -31.2310 C   0  0  0  0  0  0  0  0  0  0  0  0
   -9.0390   20.6420  -31.3530 C   0  0  0  0  0  0  0  0  0  0  0  0
   -7.9700   19.9810  -31.9680 C   0  0  0  0  0  0  0  0  0  0  0  0
   -7.9940   18.2200  -32.0180 Cl  0  0  0  0  0  0  0  0  0  0  0  0
   -4.4050   20.3780  -33.0240 C   0  0  0  0  0  0  0  0  0  0  0  0
   -3.7640   21.4180  -32.1440 C   0  0  0  0  0  0  0  0  0  0  0  0
   -3.0640   20.7890  -31.0060 N   0  0  0  0  0  0  0  0  0  0  0  0
   -1.6070   20.9120  -31.1810 C   0  0  0  0  0  0  0  0  0  0  0  0
   -3.4920   21.3510  -29.7030 C   0  0  0  0  0  0  0  0  0  0  0  0
   -3.8810   22.7820  -29.8930 C   0  0  0  0  0  0  0  0  0  0  0  0
   -3.1050   23.8040  -30.4060 C   0  0  0  0  0  0  0  0  0  0  0  0
   -3.8450   24.9300  -30.4720 N   0  0  0  0  0  0  0  0  0  0  0  0
   -5.0590   24.6340  -30.0340 N   0  0  0  0  0  0  0  0  0  0  0  0
   -6.1360   25.6060  -29.9080 C   0  0  0  0  0  0  0  0  0  0  0  0
   -5.1190   23.3420  -29.6650 C   0  0  0  0  0  0  0  0  0  0  0  0
   -1.7915   19.2466  -33.0796 H   0  0  0  0  0  0  0  0  0  0  0  0
   -2.1118   18.3765  -34.6181 H   0  0  0  0  0  0  0  0  0  0  0  0
   -1.9294   20.1635  -34.6181 H   0  0  0  0  0  0  0  0  0  0  0  0
   -7.9422   23.8659  -31.6075 H   0  0  0  0  0  0  0  0  0  0  0  0
   -9.8811   22.5472  -30.7554 H   0  0  0  0  0  0  0  0  0  0  0  0
   -9.8890   20.0625  -30.9634 H   0  0  0  0  0  0  0  0  0  0  0  0
   -3.0396   21.9948  -32.7377 H   0  0  0  0  0  0  0  0  0  0  0  0
   -4.5512   22.0777  -31.7502 H   0  0  0  0  0  0  0  0  0  0  0  0
   -1.1214   20.9530  -30.1948 H   0  0  0  0  0  0  0  0  0  0  0  0
   -1.2301   20.0425  -31.7394 H   0  0  0  0  0  0  0  0  0  0  0  0
   -1.3812   21.8324  -31.7394 H   0  0  0  0  0  0  0  0  0  0  0  0
   -4.3529   20.7826  -29.3213 H   0  0  0  0  0  0  0  0  0  0  0  0
   -2.6654   21.2839  -28.9804 H   0  0  0  0  0  0  0  0  0  0  0  0
   -2.0522   23.7138  -30.7117 H   0  0  0  0  0  0  0  0  0  0  0  0
   -6.3406   25.7906  -28.8431 H   0  0  0  0  0  0  0  0  0  0  0  0
   -5.8387   26.5476  -30.3929 H   0  0  0  0  0  0  0  0  0  0  0  0
   -7.0422   25.2141  -30.3929 H   0  0  0  0  0  0  0  0  0  0  0  0
   -5.9990   22.8250  -29.2546 H   0  0  0  0  0  0  0  0  0  0  0  0
  1  2  1  0
  2  3  1  0
  3  4  1  0
  4  5  2  0
  5  6  1  0
  6  7  2  0
  7  8  1  0
  7  9  1  0
  9 10  2  0
 10 11  1  0
 11 12  2  0
 12 13  1  0
  5 14  1  0
 14 15  1  0
 15 16  1  0
 16 17  1  0
 16 18  1  0
 18 19  1  0
 19 20  1  0
 20 21  2  0
 21 22  1  0
 22 23  1  0
 22 24  1  0
 14  2  2  0
 24 19  2  0
 12  6  1  0
  1 25  1  0
  1 26  1  0
  1 27  1  0
  9 28  1  0
 10 29  1  0
 11 30  1  0
 15 31  1  0
 15 32  1  0
 17 33  1  0
 17 34  1  0
 17 35  1  0
 18 36  1  0
 18 37  1  0
 20 38  1  0
 23 39  1  0
 23 40  1  0
 23 41  1  0
 24 42  1  0
M  END
>  <UniqueID>  (37) 
36

>  <SMILES>  (37) 
Cc1onc(-c2c(F)cccc2Cl)c1CN(C)Cc1cnn(C)c1

>  <Energy>  (37) 
108.13098999978651

>  <Genealogy>  (37) 
Cc1onc(-c2c(F)cccc2Cl)c1CN(C)Cc1cnn(C)c1 (3D coordinates assigned)
Cc1onc(-c2c(F)cccc2Cl)c1CN(C)Cc1cnn(C)c1 (optimized conformer: 108.13098999978651 kcal/mol)

>  <smiles>  (37) 
Cc1onc(-c2c(F)cccc2Cl)c1CN(C)Cc1cnn(C)c1

>  <score_type>  (37) 
oracle

>  <origin>  (37) 
adg

>  <m_score__min__energy>  (37) 
-8.6400000000000006

>  <m_primary>  (37) 
energy

$$$$
37:0
     RDKit          3D

 34 36  0  0  0  0  0  0  0  0999 V2000
   -2.5904   22.5406  -29.6550 H   0  0  0  0  0  0  0  0  0  0  0  0
   -3.4430   23.2140  -29.8270 C   0  0  0  0  0  0  0  0  0  0  0  0
   -3.1480   24.6430  -30.0360 C   0  0  0  0  0  0  0  0  0  0  0  0
   -3.8540   25.3060  -30.8410 O   0  0  0  0  0  0  0  0  0  0  0  0
   -2.1480   25.2910  -29.3210 O   0  0  0  0  0  0  0  0  0  0  0  0
   -4.6690   22.6700  -29.8300 C   0  0  0  0  0  0  0  0  0  0  0  0
   -4.8533   21.8210  -29.1553 H   0  0  0  0  0  0  0  0  0  0  0  0
   -5.7870   23.1300  -30.6740 C   0  0  0  0  0  0  0  0  0  0  0  0
   -6.6300   24.2090  -30.4450 C   0  0  0  0  0  0  0  0  0  0  0  0
   -6.5040   25.2560  -29.3860 C   0  0  0  0  0  0  0  0  0  0  0  0
   -6.5609   24.7833  -28.3944 H   0  0  0  0  0  0  0  0  0  0  0  0
   -5.5375   25.7704  -29.4921 H   0  0  0  0  0  0  0  0  0  0  0  0
   -7.3209   25.9850  -29.4921 H   0  0  0  0  0  0  0  0  0  0  0  0
   -7.6080   24.1710  -31.3220 O   0  0  0  0  0  0  0  0  0  0  0  0
   -7.4910   23.1290  -32.0900 N   0  0  0  0  0  0  0  0  0  0  0  0
   -8.1520   22.8880  -32.8620 H   0  0  0  0  0  0  0  0  0  0  0  0
   -6.3900   22.4460  -31.7210 C   0  0  0  0  0  0  0  0  0  0  0  0
   -5.9440   21.1820  -32.3510 C   0  0  0  0  0  0  0  0  0  0  0  0
   -4.6440   21.0810  -32.8720 C   0  0  0  0  0  0  0  0  0  0  0  0
   -3.9639   21.9434  -32.8108 H   0  0  0  0  0  0  0  0  0  0  0  0
   -4.2060   19.8940  -33.4680 C   0  0  0  0  0  0  0  0  0  0  0  0
   -3.1869   19.8298  -33.8770 H   0  0  0  0  0  0  0  0  0  0  0  0
   -5.0600   18.7870  -33.5460 C   0  0  0  0  0  0  0  0  0  0  0  0
   -4.6300   17.5910  -34.1420 C   0  0  0  0  0  0  0  0  0  0  0  0
   -3.6142   17.5193  -34.5579 H   0  0  0  0  0  0  0  0  0  0  0  0
   -5.4900   16.4910  -34.2080 C   0  0  0  0  0  0  0  0  0  0  0  0
   -5.1493   15.5562  -34.6771 H   0  0  0  0  0  0  0  0  0  0  0  0
   -6.7810   16.5750  -33.6800 C   0  0  0  0  0  0  0  0  0  0  0  0
   -7.4527   15.7055  -33.7333 H   0  0  0  0  0  0  0  0  0  0  0  0
   -7.2220   17.7610  -33.0840 C   0  0  0  0  0  0  0  0  0  0  0  0
   -8.2393   17.8223  -32.6702 H   0  0  0  0  0  0  0  0  0  0  0  0
   -6.3680   18.8740  -33.0130 C   0  0  0  0  0  0  0  0  0  0  0  0
   -6.8000   20.0680  -32.4170 C   0  0  0  0  0  0  0  0  0  0  0  0
   -7.8151   20.1335  -31.9984 H   0  0  0  0  0  0  0  0  0  0  0  0
  1  2  1  0
  2  3  1  0
  3  4  2  0
  3  5  1  0
  2  6  2  0
  6  7  1  0
  6  8  1  0
  8  9  2  0
  9 10  1  0
 10 11  1  0
 10 12  1  0
 10 13  1  0
  9 14  1  0
 14 15  1  0
 15 16  1  0
 15 17  2  0
 17 18  1  0
 18 19  2  0
 19 20  1  0
 19 21  1  0
 21 22  1  0
 21 23  2  0
 23 24  1  0
 24 25  1  0
 24 26  2  0
 26 27  1  0
 26 28  1  0
 28 29  1  0
 28 30  2  0
 30 31  1  0
 30 32  1  0
 32 33  2  0
 33 34  1  0
 17  8  1  0
 33 18  1  0
 32 23  1  0
M  CHG  2   5  -1  15   1
M  END
>  <UniqueID>  (38) 
37

>  <SMILES>  (38) 
Cc1o[nH+]c(-c2ccc3ccccc3c2)c1/C=C\C(=O)[O-]

>  <Energy>  (38) 
80.5766582451932

>  <Genealogy>  (38) 
Cc1o[nH+]c(-c2ccc3ccccc3c2)c1C=CC(=O)[O-] (protonated)
Cc1o[nH+]c(-c2ccc3ccccc3c2)c1/C=C\C(=O)[O-] (cis-trans isomerization)
Cc1o[nH+]c(-c2ccc3ccccc3c2)c1/C=C\C(=O)[O-] (3D coordinates assigned)
Cc1o[nH+]c(-c2ccc3ccccc3c2)c1/C=C\C(=O)[O-] (optimized conformer: 80.5766582451932 kcal/mol)

>  <smiles>  (38) 
Cc1onc(-c2ccc3ccccc3c2)c1C=CC(=O)O

>  <score_type>  (38) 
oracle

>  <origin>  (38) 
adg

>  <m_score__min__energy>  (38) 
-10.58

>  <m_primary>  (38) 
energy

$$$$
38:0
     RDKit          3D

 41 42  0  0  0  0  0  0  0  0999 V2000
   -1.0510   23.4040  -29.2590 C   0  0  0  0  0  0  0  0  0  0  0  0
   -1.2530   24.8890  -28.9780 C   0  0  0  0  0  0  0  0  0  0  0  0
   -2.6750   25.2120  -28.9310 N   0  0  0  0  0  0  0  0  0  0  0  0
   -3.6300   24.7230  -29.8790 C   0  0  0  0  0  0  0  0  0  0  0  0
   -3.8870   25.3830  -30.9230 O   0  0  0  0  0  0  0  0  0  0  0  0
   -4.3160   23.4040  -29.6310 C   0  0  2  0  0  0  0  0  0  0  0  0
   -3.5400   22.2740  -30.3470 C   0  0  0  0  0  0  0  0  0  0  0  0
   -3.4200   22.4010  -31.8790 C   0  0  0  0  0  0  0  0  0  0  0  0
   -4.5960   21.7850  -32.6590 C   0  0  0  0  0  0  0  0  0  0  0  0
   -5.9180   22.3040  -32.2500 N   0  0  0  0  0  0  0  0  0  0  0  0
   -7.0650   21.4330  -32.3250 C   0  0  0  0  0  0  0  0  0  0  0  0
   -8.2060   21.8830  -32.0290 O   0  0  0  0  0  0  0  0  0  0  0  0
   -6.9370   20.0160  -32.7300 C   0  0  0  0  0  0  0  0  0  0  0  0
   -7.5550   19.0080  -31.9720 C   0  0  0  0  0  0  0  0  0  0  0  0
   -7.4450   17.6680  -32.3560 C   0  0  0  0  0  0  0  0  0  0  0  0
   -6.7290   17.3250  -33.5060 C   0  0  0  0  0  0  0  0  0  0  0  0
   -6.6260   16.0240  -33.8760 F   0  0  0  0  0  0  0  0  0  0  0  0
   -6.1260   18.3240  -34.2770 C   0  0  0  0  0  0  0  0  0  0  0  0
   -5.4460   17.9950  -35.4020 F   0  0  0  0  0  0  0  0  0  0  0  0
   -6.2340   19.6650  -33.8940 C   0  0  0  0  0  0  0  0  0  0  0  0
   -6.0540   23.6010  -31.5670 C   0  0  0  0  0  0  0  0  0  0  0  0
   -5.8030   23.4990  -30.0470 C   0  0  0  0  0  0  0  0  0  0  0  0
   -0.9767   22.8575  -28.3072 H   0  0  0  0  0  0  0  0  0  0  0  0
   -1.9053   23.0205  -29.8362 H   0  0  0  0  0  0  0  0  0  0  0  0
   -0.1254   23.2626  -29.8362 H   0  0  0  0  0  0  0  0  0  0  0  0
   -0.7927   25.1402  -28.0110 H   0  0  0  0  0  0  0  0  0  0  0  0
   -0.7828   25.4706  -29.7847 H   0  0  0  0  0  0  0  0  0  0  0  0
   -4.3108   23.1578  -28.5589 H   0  0  0  0  0  0  0  0  0  0  0  0
   -2.5221   22.2489  -29.9308 H   0  0  0  0  0  0  0  0  0  0  0  0
   -4.1217   21.3572  -30.1704 H   0  0  0  0  0  0  0  0  0  0  0  0
   -3.3603   23.4697  -32.1326 H   0  0  0  0  0  0  0  0  0  0  0  0
   -2.5195   21.8415  -32.1723 H   0  0  0  0  0  0  0  0  0  0  0  0
   -4.4541   22.0005  -33.7283 H   0  0  0  0  0  0  0  0  0  0  0  0
   -4.5940   20.7062  -32.4440 H   0  0  0  0  0  0  0  0  0  0  0  0
   -8.1284   19.2740  -31.0718 H   0  0  0  0  0  0  0  0  0  0  0  0
   -7.9228   16.8826  -31.7519 H   0  0  0  0  0  0  0  0  0  0  0  0
   -5.7659   20.4487  -34.5077 H   0  0  0  0  0  0  0  0  0  0  0  0
   -5.3265   24.3045  -31.9981 H   0  0  0  0  0  0  0  0  0  0  0  0
   -7.0877   23.9480  -31.7121 H   0  0  0  0  0  0  0  0  0  0  0  0
   -6.2336   24.3918  -29.5701 H   0  0  0  0  0  0  0  0  0  0  0  0
   -6.2721   22.5586  -29.7221 H   0  0  0  0  0  0  0  0  0  0  0  0
  1  2  1  0
  2  3  1  0
  3  4  1  0
  4  5  2  0
  4  6  1  0
  6  7  1  0
  7  8  1  0
  8  9  1  0
  9 10  1  0
 10 11  1  0
 11 12  2  0
 11 13  1  0
 13 14  2  0
 14 15  1  0
 15 16  2  0
 16 17  1  0
 16 18  1  0
 18 19  1  0
 18 20  2  0
 10 21  1  0
 21 22  1  0
 22  6  1  0
 20 13  1  0
  1 23  1  0
  1 24  1  0
  1 25  1  0
  2 26  1  0
  2 27  1  0
  6 28  1  1
  7 29  1  0
  7 30  1  0
  8 31  1  0
  8 32  1  0
  9 33  1  0
  9 34  1  0
 14 35  1  0
 15 36  1  0
 20 37  1  0
 21 38  1  0
 21 39  1  0
 22 40  1  0
 22 41  1  0
M  CHG  1   3  -1
M  END
>  <UniqueID>  (39) 
38

>  <SMILES>  (39) 
CC[N-]C(=O)[C@@H]1CCCN(C(=O)c2ccc(F)c(F)c2)CC1

>  <Energy>  (39) 
45.742819049111034

>  <Genealogy>  (39) 
CC[N-]C(=O)C1CCCN(C(=O)c2ccc(F)c(F)c2)CC1 (protonated)
CC[N-]C(=O)[C@@H]1CCCN(C(=O)c2ccc(F)c(F)c2)CC1 (chirality)
CC[N-]C(=O)[C@@H]1CCCN(C(=O)c2ccc(F)c(F)c2)CC1 (3D coordinates assigned)
CC[N-]C(=O)[C@@H]1CCCN(C(=O)c2ccc(F)c(F)c2)CC1 (nonaromatic ring conformer: 45.742819049111034 kcal/mol)

>  <smiles>  (39) 
CCNC(=O)C1CCCN(C(=O)c2ccc(F)c(F)c2)CC1

>  <score_type>  (39) 
oracle

>  <origin>  (39) 
adg

>  <m_score__min__energy>  (39) 
-7.3300000000000001

>  <m_primary>  (39) 
energy

$$$$
39:0
     RDKit          3D

 31 33  0  0  0  0  0  0  0  0999 V2000
   -5.3730   17.6210  -34.9500 C   0  0  0  0  0  0  0  0  0  0  0  0
   -4.7470   18.7670  -34.1710 C   0  0  0  0  0  0  0  0  0  0  0  0
   -5.8580   19.4810  -33.4930 C   0  0  0  0  0  0  0  0  0  0  0  0
   -5.6940   20.6180  -32.7810 N   0  0  0  0  0  0  0  0  0  0  0  0
   -6.9000   21.0220  -32.2870 C   0  0  0  0  0  0  0  0  0  0  0  0
   -7.2570   22.1040  -31.5110 C   0  0  0  0  0  0  0  0  0  0  0  0
   -6.2530   23.0720  -31.0690 C   0  0  0  0  0  0  0  0  0  0  0  0
   -6.6300   24.4010  -30.8520 C   0  0  0  0  0  0  0  0  0  0  0  0
   -5.6750   25.3330  -30.4310 C   0  0  0  0  0  0  0  0  0  0  0  0
   -4.3720   24.9250  -30.2340 C   0  0  0  0  0  0  0  0  0  0  0  0
   -3.9850   23.5990  -30.4490 C   0  0  0  0  0  0  0  0  0  0  0  0
   -4.9250   22.6820  -30.8640 C   0  0  0  0  0  0  0  0  0  0  0  0
   -8.5770   22.3030  -31.1310 C   0  0  0  0  0  0  0  0  0  0  0  0
   -9.4910   21.3680  -31.5680 C   0  0  0  0  0  0  0  0  0  0  0  0
   -9.1480   20.2800  -32.3460 C   0  0  0  0  0  0  0  0  0  0  0  0
   -7.8320   20.0830  -32.7240 C   0  0  0  0  0  0  0  0  0  0  0  0
   -7.1760   19.1610  -33.4530 N   0  0  0  0  0  0  0  0  0  0  0  0
   -5.7787   16.8784  -34.2472 H   0  0  0  0  0  0  0  0  0  0  0  0
   -6.1848   18.0084  -35.5832 H   0  0  0  0  0  0  0  0  0  0  0  0
   -4.6084   17.1472  -35.5832 H   0  0  0  0  0  0  0  0  0  0  0  0
   -4.0377   18.3762  -33.4266 H   0  0  0  0  0  0  0  0  0  0  0  0
   -4.1927   19.4426  -34.8391 H   0  0  0  0  0  0  0  0  0  0  0  0
   -7.6729   24.7124  -31.0116 H   0  0  0  0  0  0  0  0  0  0  0  0
   -5.9606   26.3812  -30.2587 H   0  0  0  0  0  0  0  0  0  0  0  0
   -3.6224   25.6579  -29.9010 H   0  0  0  0  0  0  0  0  0  0  0  0
   -2.9412   23.2914  -30.2885 H   0  0  0  0  0  0  0  0  0  0  0  0
   -4.6299   21.6363  -31.0354 H   0  0  0  0  0  0  0  0  0  0  0  0
   -8.8782   23.1620  -30.5134 H   0  0  0  0  0  0  0  0  0  0  0  0
  -10.5458   21.4950  -31.2828 H   0  0  0  0  0  0  0  0  0  0  0  0
   -9.9232   19.5682  -32.6660 H   0  0  0  0  0  0  0  0  0  0  0  0
   -7.6180   18.3460  -33.9010 H   0  0  0  0  0  0  0  0  0  0  0  0
  1  2  1  0
  2  3  1  0
  3  4  2  0
  4  5  1  0
  5  6  2  0
  6  7  1  0
  7  8  2  0
  8  9  1  0
  9 10  2  0
 10 11  1  0
 11 12  2  0
  6 13  1  0
 13 14  2  0
 14 15  1  0
 15 16  2  0
 16 17  1  0
 17  3  1  0
 16  5  1  0
 12  7  1  0
  1 18  1  0
  1 19  1  0
  1 20  1  0
  2 21  1  0
  2 22  1  0
  8 23  1  0
  9 24  1  0
 10 25  1  0
 11 26  1  0
 12 27  1  0
 13 28  1  0
 14 29  1  0
 15 30  1  0
 17 31  1  0
M  END
>  <smiles>  (40) 
CCc1nc2c(-c3ccccc3)cccc2[nH]1

>  <score_type>  (40) 
oracle

>  <origin>  (40) 
adg

>  <m_score__min__energy>  (40) 
-7.3200000000000003

>  <m_primary>  (40) 
energy

$$$$
40:0
     RDKit          3D

 31 33  0  0  0  0  0  0  0  0999 V2000
   -2.5310   24.5480  -29.3220 C   0  0  0  0  0  0  0  0  0  0  0  0
   -3.4980   25.0260  -30.2510 O   0  0  0  0  0  0  0  0  0  0  0  0
   -4.6440   24.3150  -30.6380 C   0  0  0  0  0  0  0  0  0  0  0  0
   -5.8940   24.9130  -30.4410 C   0  0  0  0  0  0  0  0  0  0  0  0
   -7.0690   24.2510  -30.8080 C   0  0  0  0  0  0  0  0  0  0  0  0
   -7.0060   22.9700  -31.3820 C   0  0  0  0  0  0  0  0  0  0  0  0
   -8.1550   22.2660  -31.7750 C   0  0  0  0  0  0  0  0  0  0  0  0
   -9.3040   22.7640  -31.6310 O   0  0  0  0  0  0  0  0  0  0  0  0
   -8.0210   20.9960  -32.3380 C   0  0  0  0  0  0  0  0  0  0  0  0
   -6.7380   20.4460  -32.4970 C   0  0  0  0  0  0  0  0  0  0  0  0
   -6.5370   19.1060  -33.0950 C   0  0  0  0  0  0  0  0  0  0  0  0
   -5.7390   18.9860  -34.2470 C   0  0  0  0  0  0  0  0  0  0  0  0
   -5.5280   17.7360  -34.8370 C   0  0  0  0  0  0  0  0  0  0  0  0
   -6.1000   16.5930  -34.2770 C   0  0  0  0  0  0  0  0  0  0  0  0
   -6.8780   16.6950  -33.1210 C   0  0  0  0  0  0  0  0  0  0  0  0
   -7.0950   17.9420  -32.5250 C   0  0  0  0  0  0  0  0  0  0  0  0
   -7.8050   17.9960  -31.3700 F   0  0  0  0  0  0  0  0  0  0  0  0
   -5.6680   21.1480  -32.1250 O   0  0  0  0  0  0  0  0  0  0  0  0
   -5.7480   22.3600  -31.5830 C   0  0  0  0  0  0  0  0  0  0  0  0
   -4.5770   23.0320  -31.2140 C   0  0  0  0  0  0  0  0  0  0  0  0
   -2.8886   24.7248  -28.2969 H   0  0  0  0  0  0  0  0  0  0  0  0
   -2.3766   23.4698  -29.4756 H   0  0  0  0  0  0  0  0  0  0  0  0
   -1.5806   25.0801  -29.4756 H   0  0  0  0  0  0  0  0  0  0  0  0
   -5.9524   25.9156  -29.9922 H   0  0  0  0  0  0  0  0  0  0  0  0
   -8.0444   24.7335  -30.6473 H   0  0  0  0  0  0  0  0  0  0  0  0
   -8.9107   20.4315  -32.6540 H   0  0  0  0  0  0  0  0  0  0  0  0
   -5.2774   19.8823  -34.6871 H   0  0  0  0  0  0  0  0  0  0  0  0
   -4.9105   17.6536  -35.7436 H   0  0  0  0  0  0  0  0  0  0  0  0
   -5.9383   15.6112  -34.7459 H   0  0  0  0  0  0  0  0  0  0  0  0
   -7.3217   15.7913  -32.6777 H   0  0  0  0  0  0  0  0  0  0  0  0
   -3.5989   22.5551  -31.3749 H   0  0  0  0  0  0  0  0  0  0  0  0
  1  2  1  0
  2  3  1  0
  3  4  2  0
  4  5  1  0
  5  6  2  0
  6  7  1  0
  7  8  2  0
  7  9  1  0
  9 10  2  0
 10 11  1  0
 11 12  2  0
 12 13  1  0
 13 14  2  0
 14 15  1  0
 15 16  2  0
 16 17  1  0
 10 18  1  0
 18 19  1  0
 19 20  2  0
 20  3  1  0
 19  6  1  0
 16 11  1  0
  1 21  1  0
  1 22  1  0
  1 23  1  0
  4 24  1  0
  5 25  1  0
  9 26  1  0
 12 27  1  0
 13 28  1  0
 14 29  1  0
 15 30  1  0
 20 31  1  0
M  END
>  <UniqueID>  (41) 
39

>  <SMILES>  (41) 
COc1ccc2c(=O)cc(-c3ccccc3F)oc2c1

>  <Energy>  (41) 
43.39148828976621

>  <Genealogy>  (41) 
COc1ccc2c(=O)cc(-c3ccccc3F)oc2c1 (3D coordinates assigned)
COc1ccc2c(=O)cc(-c3ccccc3F)oc2c1 (optimized conformer: 43.39148828976621 kcal/mol)

>  <smiles>  (41) 
COc1ccc2c(=O)cc(-c3ccccc3F)oc2c1

>  <score_type>  (41) 
oracle

>  <origin>  (41) 
adg

>  <m_score__min__energy>  (41) 
-8.0600000000000005

>  <m_primary>  (41) 
energy

$$$$
41:0
     RDKit          3D

 44 45  0  0  0  0  0  0  0  0999 V2000
   -3.0320   21.5890  -27.9050 C   0  0  0  0  0  0  0  0  0  0  0  0
   -4.2290   22.3770  -28.4560 C   0  0  0  0  0  0  0  0  0  0  0  0
   -3.9930   23.8330  -28.5660 N   0  0  0  0  0  0  0  0  0  0  0  0
   -4.1720   24.5380  -27.2790 C   0  0  0  0  0  0  0  0  0  0  0  0
   -2.8250   24.9500  -26.6910 C   0  0  0  0  0  0  0  0  0  0  0  0
   -4.9280   24.5550  -29.8650 S   0  0  0  0  0  0  0  0  0  0  0  0
   -4.0110   25.2480  -30.8360 O   0  0  0  0  0  0  0  0  0  0  0  0
   -5.8950   25.5680  -29.3180 O   0  0  0  0  0  0  0  0  0  0  0  0
   -5.8600   23.3050  -30.6980 C   0  0  0  0  0  0  0  0  0  0  0  0
   -7.2570   23.2850  -30.5700 C   0  0  0  0  0  0  0  0  0  0  0  0
   -8.0170   22.3150  -31.2280 C   0  0  0  0  0  0  0  0  0  0  0  0
   -7.3920   21.3350  -32.0120 C   0  0  0  0  0  0  0  0  0  0  0  0
   -8.2190   20.2950  -32.7430 C   0  0  0  0  0  0  0  0  0  0  0  0
   -7.5870   18.9610  -32.8580 N   0  0  0  0  0  0  0  0  0  0  0  0
   -7.0990   18.3840  -31.6070 C   0  0  0  0  0  0  0  0  0  0  0  0
   -6.1300   17.2810  -32.0070 C   0  0  0  0  0  0  0  0  0  0  0  0
   -5.7280   17.5950  -33.4440 C   0  0  0  0  0  0  0  0  0  0  0  0
   -6.4790   18.8670  -33.8070 C   0  0  0  0  0  0  0  0  0  0  0  0
   -5.9960   21.3640  -32.1560 C   0  0  0  0  0  0  0  0  0  0  0  0
   -5.2280   22.3320  -31.5000 C   0  0  0  0  0  0  0  0  0  0  0  0
   -3.3250   22.2710  -31.7330 Br  0  0  0  0  0  0  0  0  0  0  0  0
   -3.0570   21.6055  -26.8054 H   0  0  0  0  0  0  0  0  0  0  0  0
   -3.0846   20.5483  -28.2574 H   0  0  0  0  0  0  0  0  0  0  0  0
   -2.0969   22.0487  -28.2574 H   0  0  0  0  0  0  0  0  0  0  0  0
   -4.4670   21.9888  -29.4573 H   0  0  0  0  0  0  0  0  0  0  0  0
   -5.0543   22.2420  -27.7414 H   0  0  0  0  0  0  0  0  0  0  0  0
   -4.7834   25.4375  -27.4432 H   0  0  0  0  0  0  0  0  0  0  0  0
   -4.6704   23.8580  -26.5724 H   0  0  0  0  0  0  0  0  0  0  0  0
   -2.8835   24.9321  -25.5927 H   0  0  0  0  0  0  0  0  0  0  0  0
   -2.0477   24.2485  -27.0283 H   0  0  0  0  0  0  0  0  0  0  0  0
   -2.5731   25.9663  -27.0283 H   0  0  0  0  0  0  0  0  0  0  0  0
   -7.7582   24.0397  -29.9461 H   0  0  0  0  0  0  0  0  0  0  0  0
   -9.1127   22.3201  -31.1304 H   0  0  0  0  0  0  0  0  0  0  0  0
   -9.1711   20.1763  -32.2050 H   0  0  0  0  0  0  0  0  0  0  0  0
   -8.3417   20.6668  -33.7710 H   0  0  0  0  0  0  0  0  0  0  0  0
   -6.5823   19.1489  -31.0087 H   0  0  0  0  0  0  0  0  0  0  0  0
   -7.9241   17.9939  -30.9930 H   0  0  0  0  0  0  0  0  0  0  0  0
   -5.2474   17.2876  -31.3505 H   0  0  0  0  0  0  0  0  0  0  0  0
   -6.5867   16.2842  -31.9190 H   0  0  0  0  0  0  0  0  0  0  0  0
   -4.6421   17.7567  -33.5129 H   0  0  0  0  0  0  0  0  0  0  0  0
   -5.9726   16.7677  -34.1264 H   0  0  0  0  0  0  0  0  0  0  0  0
   -5.8187   19.7417  -33.7125 H   0  0  0  0  0  0  0  0  0  0  0  0
   -6.8378   18.8422  -34.8465 H   0  0  0  0  0  0  0  0  0  0  0  0
   -5.4998   20.6165  -32.7924 H   0  0  0  0  0  0  0  0  0  0  0  0
  1  2  1  0
  2  3  1  0
  3  4  1  0
  4  5  1  0
  3  6  1  0
  6  7  2  0
  6  8  2  0
  6  9  1  0
  9 10  2  0
 10 11  1  0
 11 12  2  0
 12 13  1  0
 13 14  1  0
 14 15  1  0
 15 16  1  0
 16 17  1  0
 17 18  1  0
 12 19  1  0
 19 20  2  0
 20 21  1  0
 20  9  1  0
 18 14  1  0
  1 22  1  0
  1 23  1  0
  1 24  1  0
  2 25  1  0
  2 26  1  0
  4 27  1  0
  4 28  1  0
  5 29  1  0
  5 30  1  0
  5 31  1  0
 10 32  1  0
 11 33  1  0
 13 34  1  0
 13 35  1  0
 15 36  1  0
 15 37  1  0
 16 38  1  0
 16 39  1  0
 17 40  1  0
 17 41  1  0
 18 42  1  0
 18 43  1  0
 19 44  1  0
M  END
>  <UniqueID>  (42) 
40

>  <SMILES>  (42) 
CCN(CC)S(=O)(=O)c1ccc(CN2CCCC2)cc1Br

>  <Energy>  (42) 
49.48944483264261

>  <Genealogy>  (42) 
CCN(CC)S(=O)(=O)c1ccc(CN2CCCC2)cc1Br (3D coordinates assigned)
CCN(CC)S(=O)(=O)c1ccc(CN2CCCC2)cc1Br (nonaromatic ring conformer: 49.48944483264261 kcal/mol)

>  <smiles>  (42) 
CCN(CC)S(=O)(=O)c1ccc(CN2CCCC2)cc1Br

>  <score_type>  (42) 
oracle

>  <origin>  (42) 
adg

>  <m_score__min__energy>  (42) 
-8.6600000000000001

>  <m_primary>  (42) 
energy

$$$$
42:0
     RDKit          3D

 53 56  0  0  0  0  0  0  0  0999 V2000
    0.5560   22.1650  -35.7210 C   0  0  0  0  0  0  0  0  0  0  0  0
    1.0400   21.8950  -34.4120 O   0  0  0  0  0  0  0  0  0  0  0  0
    0.3010   21.1770  -33.4670 C   0  0  0  0  0  0  0  0  0  0  0  0
    0.8290   20.2320  -32.8190 O   0  0  0  0  0  0  0  0  0  0  0  0
   -1.1400   21.5170  -33.2420 C   0  0  0  0  0  0  0  0  0  0  0  0
   -1.7680   20.5990  -32.1680 C   0  0  1  0  0  0  0  0  0  0  0  0
   -1.3280   21.0320  -30.8770 O   0  0  0  0  0  0  0  0  0  0  0  0
   -1.8320   22.1970  -30.3070 C   0  0  0  0  0  0  0  0  0  0  0  0
   -1.0700   22.8980  -29.3750 C   0  0  0  0  0  0  0  0  0  0  0  0
   -1.5120   24.1290  -28.9000 C   0  0  0  0  0  0  0  0  0  0  0  0
   -2.7070   24.6720  -29.3750 C   0  0  0  0  0  0  0  0  0  0  0  0
   -3.5020   23.9650  -30.3030 C   0  0  0  0  0  0  0  0  0  0  0  0
   -4.6680   24.5360  -30.8420 O   0  0  0  0  0  0  0  0  0  0  0  0
   -5.8040   24.9390  -30.0820 C   0  0  0  0  0  0  0  0  0  0  0  0
   -3.0890   22.6710  -30.7190 C   0  0  0  0  0  0  0  0  0  0  0  0
   -3.9200   21.7350  -31.5550 C   0  0  0  0  0  0  0  0  0  0  0  0
   -5.3200   21.7940  -31.5100 C   0  0  0  0  0  0  0  0  0  0  0  0
   -6.0940   20.8470  -32.1550 C   0  0  0  0  0  0  0  0  0  0  0  0
   -5.5030   19.7790  -32.8250 C   0  0  0  0  0  0  0  0  0  0  0  0
   -4.0950   19.6640  -32.9250 C   0  0  0  0  0  0  0  0  0  0  0  0
   -3.2890   20.6520  -32.2460 C   0  0  0  0  0  0  0  0  0  0  0  0
   -3.5860   18.4550  -33.6960 C   0  0  0  0  0  0  0  0  0  0  0  0
   -2.2170   18.3490  -34.3240 C   0  0  0  0  0  0  0  0  0  0  0  0
   -4.4030   17.4050  -33.9150 C   0  0  0  0  0  0  0  0  0  0  0  0
   -5.8520   17.3820  -33.4970 C   0  0  0  0  0  0  0  0  0  0  0  0
   -5.9860   16.6430  -32.1560 C   0  0  0  0  0  0  0  0  0  0  0  0
   -6.6760   16.6610  -34.5780 C   0  0  0  0  0  0  0  0  0  0  0  0
   -6.3490   18.7490  -33.3500 N   0  0  0  0  0  0  0  0  0  0  0  0
   -0.4029   22.6999  -35.6543 H   0  0  0  0  0  0  0  0  0  0  0  0
    1.2857   22.7864  -36.2608 H   0  0  0  0  0  0  0  0  0  0  0  0
    0.4106   21.2177  -36.2608 H   0  0  0  0  0  0  0  0  0  0  0  0
   -1.2145   22.5627  -32.9088 H   0  0  0  0  0  0  0  0  0  0  0  0
   -1.6845   21.3722  -34.1867 H   0  0  0  0  0  0  0  0  0  0  0  0
   -1.4507   19.5603  -32.3424 H   0  0  0  0  0  0  0  0  0  0  0  0
   -0.1191   22.4785  -29.0146 H   0  0  0  0  0  0  0  0  0  0  0  0
   -0.9198   24.6741  -28.1503 H   0  0  0  0  0  0  0  0  0  0  0  0
   -3.0328   25.6617  -29.0224 H   0  0  0  0  0  0  0  0  0  0  0  0
   -5.5750   24.8578  -29.0092 H   0  0  0  0  0  0  0  0  0  0  0  0
   -6.0567   25.9816  -30.3251 H   0  0  0  0  0  0  0  0  0  0  0  0
   -6.6572   24.2887  -30.3251 H   0  0  0  0  0  0  0  0  0  0  0  0
   -5.8102   22.6061  -30.9531 H   0  0  0  0  0  0  0  0  0  0  0  0
   -7.1901   20.9385  -32.1386 H   0  0  0  0  0  0  0  0  0  0  0  0
   -1.4545   18.2900  -33.5334 H   0  0  0  0  0  0  0  0  0  0  0  0
   -2.1689   17.4444  -34.9481 H   0  0  0  0  0  0  0  0  0  0  0  0
   -2.0302   19.2354  -34.9481 H   0  0  0  0  0  0  0  0  0  0  0  0
   -3.9921   16.5207  -34.4241 H   0  0  0  0  0  0  0  0  0  0  0  0
   -5.8565   17.3570  -31.3293 H   0  0  0  0  0  0  0  0  0  0  0  0
   -6.9824   16.1818  -32.0895 H   0  0  0  0  0  0  0  0  0  0  0  0
   -5.2150   15.8613  -32.0895 H   0  0  0  0  0  0  0  0  0  0  0  0
   -7.4207   16.0094  -34.0976 H   0  0  0  0  0  0  0  0  0  0  0  0
   -7.1896   17.4050  -35.2046 H   0  0  0  0  0  0  0  0  0  0  0  0
   -6.0068   16.0532  -35.2046 H   0  0  0  0  0  0  0  0  0  0  0  0
   -7.3840   18.9080  -33.3680 H   0  0  0  0  0  0  0  0  0  0  0  0
  1  2  1  0
  2  3  1  0
  3  4  2  0
  3  5  1  0
  5  6  1  0
  6  7  1  0
  7  8  1  0
  8  9  2  0
  9 10  1  0
 10 11  2  0
 11 12  1  0
 12 13  1  0
 13 14  1  0
 12 15  2  0
 15 16  1  0
 16 17  2  0
 17 18  1  0
 18 19  2  0
 19 20  1  0
 20 21  2  0
 20 22  1  0
 22 23  1  0
 22 24  2  0
 24 25  1  0
 25 26  1  0
 25 27  1  0
 25 28  1  0
 21  6  1  0
 15  8  1  0
 21 16  1  0
 28 19  1  0
  1 29  1  0
  1 30  1  0
  1 31  1  0
  5 32  1  0
  5 33  1  0
  6 34  1  6
  9 35  1  0
 10 36  1  0
 11 37  1  0
 14 38  1  0
 14 39  1  0
 14 40  1  0
 17 41  1  0
 18 42  1  0
 23 43  1  0
 23 44  1  0
 23 45  1  0
 24 46  1  0
 26 47  1  0
 26 48  1  0
 26 49  1  0
 27 50  1  0
 27 51  1  0
 27 52  1  0
 28 53  1  0
M  END
>  <UniqueID>  (43) 
41

>  <SMILES>  (43) 
COC(=O)C[C@H]1Oc2cccc(OC)c2-c2ccc3c(c21)C(C)=CC(C)(C)N3

>  <Energy>  (43) 
75.1699690803048

>  <Genealogy>  (43) 
COC(=O)C[C@H]1Oc2cccc(OC)c2-c2ccc3c(c21)C(C)=CC(C)(C)N3 (chirality)
COC(=O)C[C@H]1Oc2cccc(OC)c2-c2ccc3c(c21)C(C)=CC(C)(C)N3 (3D coordinates assigned)
COC(=O)C[C@H]1Oc2cccc(OC)c2-c2ccc3c(c21)C(C)=CC(C)(C)N3 (nonaromatic ring conformer: 75.1699690803048 kcal/mol)

>  <smiles>  (43) 
COC(=O)CC1Oc2cccc(OC)c2-c2ccc3c(c21)C(C)=CC(C)(C)N3

>  <score_type>  (43) 
oracle

>  <origin>  (43) 
adg

>  <m_score__min__energy>  (43) 
-8.1500000000000004

>  <m_primary>  (43) 
energy

$$$$
43:0
     RDKit          3D

 44 45  0  0  0  0  0  0  0  0999 V2000
   -6.4940   25.6790  -29.3420 C   0  0  0  0  0  0  0  0  0  0  0  0
   -6.4060   24.5330  -30.3440 C   0  0  0  0  0  0  0  0  0  0  0  0
   -4.7110   24.0110  -30.5700 S   0  0  0  0  0  0  0  0  0  0  0  0
   -3.8670   25.2440  -30.7310 O   0  0  0  0  0  0  0  0  0  0  0  0
   -4.6250   23.1930  -31.8270 O   0  0  0  0  0  0  0  0  0  0  0  0
   -4.1580   23.0860  -29.1850 N   0  0  0  0  0  0  0  0  0  0  0  0
   -3.4480   21.8560  -29.5700 C   0  0  0  0  0  0  0  0  0  0  0  0
   -1.9830   22.0870  -29.9820 C   0  0  0  0  0  0  0  0  0  0  0  0
   -1.3540   23.3500  -29.3750 C   0  0  0  0  0  0  0  0  0  0  0  0
   -1.9510   23.7360  -28.0020 C   0  0  2  0  0  0  0  0  0  0  0  0
   -1.3280   25.0940  -27.5610 C   0  0  0  0  0  0  0  0  0  0  0  0
    0.0460   25.1280  -27.8870 O   0  0  0  0  0  0  0  0  0  0  0  0
    0.8540   24.3000  -27.0570 C   0  0  0  0  0  0  0  0  0  0  0  0
    0.9590   22.7810  -27.3890 C   0  0  0  0  0  0  0  0  0  0  0  0
   -0.2870   21.9970  -27.2560 N   0  0  0  0  0  0  0  0  0  0  0  0
   -0.1780   20.5560  -27.3790 C   0  0  0  0  0  0  0  0  0  0  0  0
   -1.3010   19.6290  -27.0180 C   0  0  0  0  0  0  0  0  0  0  0  0
    0.8930   20.0450  -27.8100 O   0  0  0  0  0  0  0  0  0  0  0  0
   -1.5750   22.6450  -26.9470 C   0  0  0  0  0  0  0  0  0  0  0  0
   -3.5020   23.9120  -28.1390 C   0  0  0  0  0  0  0  0  0  0  0  0
   -6.4630   25.2751  -28.3193 H   0  0  0  0  0  0  0  0  0  0  0  0
   -5.6457   26.3631  -29.4919 H   0  0  0  0  0  0  0  0  0  0  0  0
   -7.4368   26.2256  -29.4919 H   0  0  0  0  0  0  0  0  0  0  0  0
   -6.9978   23.6835  -29.9723 H   0  0  0  0  0  0  0  0  0  0  0  0
   -6.7982   24.8811  -31.3110 H   0  0  0  0  0  0  0  0  0  0  0  0
   -3.4627   21.1649  -28.7144 H   0  0  0  0  0  0  0  0  0  0  0  0
   -3.9676   21.4483  -30.4497 H   0  0  0  0  0  0  0  0  0  0  0  0
   -1.3919   21.2172  -29.6595 H   0  0  0  0  0  0  0  0  0  0  0  0
   -1.9774   22.2223  -31.0736 H   0  0  0  0  0  0  0  0  0  0  0  0
   -0.2751   23.1760  -29.2493 H   0  0  0  0  0  0  0  0  0  0  0  0
   -1.5644   24.1805  -30.0649 H   0  0  0  0  0  0  0  0  0  0  0  0
   -1.8447   25.9160  -28.0780 H   0  0  0  0  0  0  0  0  0  0  0  0
   -1.4420   25.2051  -26.4726 H   0  0  0  0  0  0  0  0  0  0  0  0
    1.8746   24.7091  -27.0874 H   0  0  0  0  0  0  0  0  0  0  0  0
    0.3471   24.3252  -26.0811 H   0  0  0  0  0  0  0  0  0  0  0  0
    1.3049   22.6878  -28.4290 H   0  0  0  0  0  0  0  0  0  0  0  0
    1.6510   22.3634  -26.6429 H   0  0  0  0  0  0  0  0  0  0  0  0
   -1.3830   19.5613  -25.9232 H   0  0  0  0  0  0  0  0  0  0  0  0
   -2.2434   20.0157  -27.4331 H   0  0  0  0  0  0  0  0  0  0  0  0
   -1.0999   18.6304  -27.4331 H   0  0  0  0  0  0  0  0  0  0  0  0
   -2.3637   21.8783  -26.9327 H   0  0  0  0  0  0  0  0  0  0  0  0
   -1.4807   23.1378  -25.9681 H   0  0  0  0  0  0  0  0  0  0  0  0
   -3.9573   23.6546  -27.1713 H   0  0  0  0  0  0  0  0  0  0  0  0
   -3.6576   24.9574  -28.4437 H   0  0  0  0  0  0  0  0  0  0  0  0
  1  2  1  0
  2  3  1  0
  3  4  2  0
  3  5  2  0
  3  6  1  0
  6  7  1  0
  7  8  1  0
  8  9  1  0
 10  9  1  6
 10 11  1  0
 11 12  1  0
 12 13  1  0
 13 14  1  0
 14 15  1  0
 15 16  1  0
 16 17  1  0
 16 18  2  0
 15 19  1  0
 10 20  1  0
 20  6  1  0
 19 10  1  0
  1 21  1  0
  1 22  1  0
  1 23  1  0
  2 24  1  0
  2 25  1  0
  7 26  1  0
  7 27  1  0
  8 28  1  0
  8 29  1  0
  9 30  1  0
  9 31  1  0
 11 32  1  0
 11 33  1  0
 13 34  1  0
 13 35  1  0
 14 36  1  0
 14 37  1  0
 17 38  1  0
 17 39  1  0
 17 40  1  0
 19 41  1  0
 19 42  1  0
 20 43  1  0
 20 44  1  0
M  END
>  <UniqueID>  (44) 
42

>  <SMILES>  (44) 
CCS(=O)(=O)N1CCC[C@@]2(COCCN(C(C)=O)C2)C1

>  <Energy>  (44) 
64.54591386733524

>  <Genealogy>  (44) 
CCS(=O)(=O)N1CCC[C@@]2(COCCN(C(C)=O)C2)C1 (chirality)
CCS(=O)(=O)N1CCC[C@@]2(COCCN(C(C)=O)C2)C1 (3D coordinates assigned)
CCS(=O)(=O)N1CCC[C@@]2(COCCN(C(C)=O)C2)C1 (nonaromatic ring conformer: 64.54591386733524 kcal/mol)

>  <smiles>  (44) 
CCS(=O)(=O)N1CCCC2(COCCN(C(C)=O)C2)C1

>  <score_type>  (44) 
oracle

>  <origin>  (44) 
adg

>  <m_score__min__energy>  (44) 
-6.25

>  <m_primary>  (44) 
energy

$$$$
44:0
     RDKit          3D

 45 46  0  0  0  0  0  0  0  0999 V2000
   -4.8570   19.0730  -33.8430 C   0  0  0  0  0  0  0  0  0  0  0  0
   -4.2590   19.3030  -32.4500 C   0  0  0  0  0  0  0  0  0  0  0  0
   -3.7810   20.6950  -32.2390 N   0  0  0  0  0  0  0  0  0  0  0  0
   -3.1290   21.2910  -33.4420 C   0  0  0  0  0  0  0  0  0  0  0  0
   -1.6000   21.1270  -33.5160 C   0  0  0  0  0  0  0  0  0  0  0  0
   -2.9960   20.8980  -30.9890 C   0  0  0  0  0  0  0  0  0  0  0  0
   -3.0810   22.3120  -30.3880 C   0  0  0  0  0  0  0  0  0  0  0  0
   -3.9320   23.1330  -31.1850 O   0  0  0  0  0  0  0  0  0  0  0  0
   -4.6490   24.2210  -30.6750 C   0  0  0  0  0  0  0  0  0  0  0  0
   -4.2330   25.4010  -30.8440 O   0  0  0  0  0  0  0  0  0  0  0  0
   -5.9260   23.9720  -29.9260 C   0  0  1  0  0  0  0  0  0  0  0  0
   -6.7510   25.2570  -29.8180 C   0  0  0  0  0  0  0  0  0  0  0  0
   -6.7140   22.8850  -30.6000 C   0  0  0  0  0  0  0  0  0  0  0  0
   -7.9950   23.0310  -31.1280 C   0  0  0  0  0  0  0  0  0  0  0  0
   -8.3080   21.7810  -31.6080 C   0  0  0  0  0  0  0  0  0  0  0  0
   -9.4530   21.3060  -32.2440 C   0  0  0  0  0  0  0  0  0  0  0  0
   -9.4770   19.9510  -32.6220 C   0  0  0  0  0  0  0  0  0  0  0  0
   -8.3690   19.1140  -32.3560 C   0  0  0  0  0  0  0  0  0  0  0  0
   -7.2280   19.6250  -31.7110 C   0  0  0  0  0  0  0  0  0  0  0  0
   -7.2340   20.9700  -31.3500 C   0  0  0  0  0  0  0  0  0  0  0  0
   -6.2870   21.6420  -30.7440 O   0  0  0  0  0  0  0  0  0  0  0  0
   -5.8794   18.6798  -33.7427 H   0  0  0  0  0  0  0  0  0  0  0  0
   -4.8827   20.0254  -34.3928 H   0  0  0  0  0  0  0  0  0  0  0  0
   -4.2379   18.3488  -34.3928 H   0  0  0  0  0  0  0  0  0  0  0  0
   -5.0301   19.0806  -31.6977 H   0  0  0  0  0  0  0  0  0  0  0  0
   -3.3860   18.6404  -32.3562 H   0  0  0  0  0  0  0  0  0  0  0  0
   -4.6460   21.2710  -32.0970 H   0  0  0  0  0  0  0  0  0  0  0  0
   -3.5644   20.8164  -34.3337 H   0  0  0  0  0  0  0  0  0  0  0  0
   -3.3143   22.3736  -33.3811 H   0  0  0  0  0  0  0  0  0  0  0  0
   -1.1863   21.0826  -32.4977 H   0  0  0  0  0  0  0  0  0  0  0  0
   -1.3564   20.1976  -34.0516 H   0  0  0  0  0  0  0  0  0  0  0  0
   -1.1648   21.9836  -34.0516 H   0  0  0  0  0  0  0  0  0  0  0  0
   -3.3633   20.1850  -30.2362 H   0  0  0  0  0  0  0  0  0  0  0  0
   -1.9414   20.7432  -31.2607 H   0  0  0  0  0  0  0  0  0  0  0  0
   -3.4871   22.2498  -29.3676 H   0  0  0  0  0  0  0  0  0  0  0  0
   -2.0740   22.7540  -30.3639 H   0  0  0  0  0  0  0  0  0  0  0  0
   -5.6784   23.6443  -28.9056 H   0  0  0  0  0  0  0  0  0  0  0  0
   -6.9091   25.5032  -28.7576 H   0  0  0  0  0  0  0  0  0  0  0  0
   -6.2126   26.0808  -30.3094 H   0  0  0  0  0  0  0  0  0  0  0  0
   -7.7242   25.1103  -30.3094 H   0  0  0  0  0  0  0  0  0  0  0  0
   -8.6148   23.9393  -31.1548 H   0  0  0  0  0  0  0  0  0  0  0  0
  -10.3088   21.9676  -32.4437 H   0  0  0  0  0  0  0  0  0  0  0  0
  -10.3633   19.5402  -33.1277 H   0  0  0  0  0  0  0  0  0  0  0  0
   -8.3993   18.0560  -32.6554 H   0  0  0  0  0  0  0  0  0  0  0  0
   -6.3600   18.9835  -31.4989 H   0  0  0  0  0  0  0  0  0  0  0  0
  1  2  1  0
  2  3  1  0
  3  4  1  0
  4  5  1  0
  3  6  1  0
  6  7  1  0
  7  8  1  0
  8  9  1  0
  9 10  2  0
  9 11  1  0
 11 12  1  0
 11 13  1  0
 13 14  2  0
 14 15  1  0
 15 16  2  0
 16 17  1  0
 17 18  2  0
 18 19  1  0
 19 20  2  0
 20 21  1  0
 21 13  1  0
 20 15  1  0
  1 22  1  0
  1 23  1  0
  1 24  1  0
  2 25  1  0
  2 26  1  0
  3 27  1  0
  4 28  1  0
  4 29  1  0
  5 30  1  0
  5 31  1  0
  5 32  1  0
  6 33  1  0
  6 34  1  0
  7 35  1  0
  7 36  1  0
 11 37  1  1
 12 38  1  0
 12 39  1  0
 12 40  1  0
 14 41  1  0
 16 42  1  0
 17 43  1  0
 18 44  1  0
 19 45  1  0
M  CHG  1   3   1
M  END
>  <UniqueID>  (45) 
43

>  <SMILES>  (45) 
CC[NH+](CC)CCOC(=O)[C@@H](C)c1cc2ccccc2o1

>  <Energy>  (45) 
79.73566025187604

>  <Genealogy>  (45) 
CC[NH+](CC)CCOC(=O)C(C)c1cc2ccccc2o1 (protonated)
CC[NH+](CC)CCOC(=O)[C@@H](C)c1cc2ccccc2o1 (chirality)
CC[NH+](CC)CCOC(=O)[C@@H](C)c1cc2ccccc2o1 (3D coordinates assigned)
CC[NH+](CC)CCOC(=O)[C@@H](C)c1cc2ccccc2o1 (optimized conformer: 79.73566025187604 kcal/mol)

>  <smiles>  (45) 
CCN(CC)CCOC(=O)C(C)c1cc2ccccc2o1

>  <score_type>  (45) 
oracle

>  <origin>  (45) 
adg

>  <m_score__min__energy>  (45) 
-6.0499999999999998

>  <m_primary>  (45) 
energy

$$$$
45:0
     RDKit          3D

 40 41  0  0  0  0  0  0  0  0999 V2000
   -6.0230   19.0850  -34.3900 C   0  0  0  0  0  0  0  0  0  0  0  0
   -6.2310   19.1860  -32.9390 N   0  0  0  0  0  0  0  0  0  0  0  0
   -6.8240   18.0580  -32.2090 C   0  0  0  0  0  0  0  0  0  0  0  0
   -5.8510   20.4060  -32.2590 C   0  0  0  0  0  0  0  0  0  0  0  0
   -4.6470   20.5100  -31.5400 C   0  0  0  0  0  0  0  0  0  0  0  0
   -4.3210   21.7080  -30.9060 C   0  0  0  0  0  0  0  0  0  0  0  0
   -5.1920   22.8120  -30.9640 C   0  0  0  0  0  0  0  0  0  0  0  0
   -4.8200   24.0770  -30.2670 C   0  0  0  0  0  0  0  0  0  0  0  0
   -3.9200   24.7980  -30.7820 O   0  0  0  0  0  0  0  0  0  0  0  0
   -5.3840   24.4440  -28.9750 N   0  0  2  0  0  0  0  0  0  0  0  0
   -6.2110   25.6640  -29.0640 C   0  0  0  0  0  0  0  0  0  0  0  0
   -4.3320   24.5470  -27.9330 C   0  0  0  0  0  0  0  0  0  0  0  0
   -3.0970   23.7000  -28.2110 C   0  0  0  0  0  0  0  0  0  0  0  0
   -1.9220   24.2920  -28.7190 C   0  0  0  0  0  0  0  0  0  0  0  0
   -1.8810   25.6190  -29.0060 F   0  0  0  0  0  0  0  0  0  0  0  0
   -0.7840   23.5120  -28.9600 C   0  0  0  0  0  0  0  0  0  0  0  0
   -0.8110   22.1370  -28.7130 C   0  0  0  0  0  0  0  0  0  0  0  0
   -1.9750   21.5360  -28.2290 C   0  0  0  0  0  0  0  0  0  0  0  0
   -3.1150   22.3090  -27.9780 C   0  0  0  0  0  0  0  0  0  0  0  0
   -4.2350   21.6960  -27.5170 F   0  0  0  0  0  0  0  0  0  0  0  0
   -6.3900   22.6660  -31.6940 C   0  0  0  0  0  0  0  0  0  0  0  0
   -6.6780   21.4900  -32.3130 N   0  0  0  0  0  0  0  0  0  0  0  0
   -5.0498   18.6124  -34.5889 H   0  0  0  0  0  0  0  0  0  0  0  0
   -6.8241   18.4755  -34.8337 H   0  0  0  0  0  0  0  0  0  0  0  0
   -6.0394   20.0914  -34.8337 H   0  0  0  0  0  0  0  0  0  0  0  0
   -6.7322   18.2327  -31.1268 H   0  0  0  0  0  0  0  0  0  0  0  0
   -7.8870   17.9662  -32.4767 H   0  0  0  0  0  0  0  0  0  0  0  0
   -6.2970   17.1303  -32.4767 H   0  0  0  0  0  0  0  0  0  0  0  0
   -3.9649   19.6492  -31.4781 H   0  0  0  0  0  0  0  0  0  0  0  0
   -3.3729   21.7913  -30.3545 H   0  0  0  0  0  0  0  0  0  0  0  0
   -6.0450   23.6970  -28.6670 H   0  0  0  0  0  0  0  0  0  0  0  0
   -6.4514   26.0187  -28.0509 H   0  0  0  0  0  0  0  0  0  0  0  0
   -5.6554   26.4450  -29.6037 H   0  0  0  0  0  0  0  0  0  0  0  0
   -7.1423   25.4371  -29.6037 H   0  0  0  0  0  0  0  0  0  0  0  0
   -4.0200   25.5993  -27.8598 H   0  0  0  0  0  0  0  0  0  0  0  0
   -4.7725   24.1688  -26.9987 H   0  0  0  0  0  0  0  0  0  0  0  0
    0.1328   23.9828  -29.3445 H   0  0  0  0  0  0  0  0  0  0  0  0
    0.0853   21.5274  -28.8999 H   0  0  0  0  0  0  0  0  0  0  0  0
   -1.9962   20.4518  -28.0444 H   0  0  0  0  0  0  0  0  0  0  0  0
   -7.0949   23.5077  -31.7629 H   0  0  0  0  0  0  0  0  0  0  0  0
  1  2  1  0
  2  3  1  0
  2  4  1  0
  4  5  2  0
  5  6  1  0
  6  7  2  0
  7  8  1  0
  8  9  2  0
  8 10  1  0
 10 11  1  0
 10 12  1  0
 12 13  1  0
 13 14  2  0
 14 15  1  0
 14 16  1  0
 16 17  2  0
 17 18  1  0
 18 19  2  0
 19 20  1  0
  7 21  1  0
 21 22  2  0
 22  4  1  0
 19 13  1  0
  1 23  1  0
  1 24  1  0
  1 25  1  0
  3 26  1  0
  3 27  1  0
  3 28  1  0
  5 29  1  0
  6 30  1  0
 10 31  1  1
 11 32  1  0
 11 33  1  0
 11 34  1  0
 12 35  1  0
 12 36  1  0
 16 37  1  0
 17 38  1  0
 18 39  1  0
 21 40  1  0
M  CHG  1  10   1
M  END
>  <UniqueID>  (46) 
44

>  <SMILES>  (46) 
CN(C)c1ccc(C(=O)[N@H+](C)Cc2c(F)cccc2F)cn1

>  <Energy>  (46) 
49.34512304961125

>  <Genealogy>  (46) 
CN(C)c1ccc(C(=O)[NH+](C)Cc2c(F)cccc2F)cn1 (protonated)
CN(C)c1ccc(C(=O)[N@H+](C)Cc2c(F)cccc2F)cn1 (chirality)
CN(C)c1ccc(C(=O)[N@H+](C)Cc2c(F)cccc2F)cn1 (3D coordinates assigned)
CN(C)c1ccc(C(=O)[N@H+](C)Cc2c(F)cccc2F)cn1 (optimized conformer: 49.34512304961125 kcal/mol)

>  <smiles>  (46) 
CN(Cc1c(F)cccc1F)C(=O)c1ccc(N(C)C)nc1

>  <score_type>  (46) 
oracle

>  <origin>  (46) 
adg

>  <m_score__min__energy>  (46) 
-6.3600000000000003

>  <m_primary>  (46) 
energy

$$$$
46:0
     RDKit          3D

 57 60  0  0  0  0  0  0  0  0999 V2000
    0.2460   29.2180  -23.5850 H   0  0  0  0  0  0  0  0  0  0  0  0
    0.2760   28.6090  -24.4350 N   0  0  0  0  0  0  0  0  0  0  0  0
    0.2590   27.3150  -24.3590 C   0  0  0  0  0  0  0  0  0  0  0  0
   -0.5310   26.5350  -25.3420 C   0  0  0  0  0  0  0  0  0  0  0  0
   -1.8330   26.1120  -25.0270 C   0  0  0  0  0  0  0  0  0  0  0  0
   -2.2634   26.3577  -24.0450 H   0  0  0  0  0  0  0  0  0  0  0  0
   -2.5860   25.3820  -25.9500 C   0  0  0  0  0  0  0  0  0  0  0  0
   -3.6090   25.0700  -25.6928 H   0  0  0  0  0  0  0  0  0  0  0  0
   -2.0490   25.0420  -27.2050 C   0  0  0  0  0  0  0  0  0  0  0  0
   -2.8530   24.2690  -28.1900 C   0  0  0  0  0  0  0  0  0  0  0  0
   -2.2360   23.6600  -29.2990 C   0  0  0  0  0  0  0  0  0  0  0  0
   -1.1499   23.7604  -29.4412 H   0  0  0  0  0  0  0  0  0  0  0  0
   -2.9890   22.9300  -30.2200 C   0  0  0  0  0  0  0  0  0  0  0  0
   -2.4913   22.4536  -31.0775 H   0  0  0  0  0  0  0  0  0  0  0  0
   -4.3770   22.8000  -30.0590 C   0  0  0  0  0  0  0  0  0  0  0  0
   -5.1750   22.0210  -31.0290 C   0  0  0  0  0  0  0  0  0  0  0  0
   -4.6330   21.2440  -31.9940 N   0  0  0  0  0  0  0  0  0  0  0  0
   -5.7050   20.7250  -32.6230 C   0  0  0  0  0  0  0  0  0  0  0  0
   -5.5930   19.7640  -33.7350 C   0  0  0  0  0  0  0  0  0  0  0  0
   -6.5280   19.6860  -34.5780 O   0  0  0  0  0  0  0  0  0  0  0  0
   -4.4540   18.9040  -33.8450 N   0  0  0  0  0  0  0  0  0  0  0  0
   -4.3850   17.5430  -33.4030 C   0  0  0  0  0  0  0  0  0  0  0  0
   -3.3560   16.6810  -33.8200 C   0  0  0  0  0  0  0  0  0  0  0  0
   -2.5929   17.0407  -34.5258 H   0  0  0  0  0  0  0  0  0  0  0  0
   -3.2980   15.3690  -33.3420 C   0  0  0  0  0  0  0  0  0  0  0  0
   -2.4960   14.6989  -33.6851 H   0  0  0  0  0  0  0  0  0  0  0  0
   -4.2550   14.8980  -32.4270 C   0  0  0  0  0  0  0  0  0  0  0  0
   -4.1770   13.5030  -31.9220 C   0  0  0  0  0  0  0  0  0  0  0  0
   -4.9920   13.0990  -30.8140 N   0  0  0  0  0  0  0  0  0  0  0  0
   -5.0200   12.1030  -30.5040 H   0  0  0  0  0  0  0  0  0  0  0  0
   -5.5550   13.7970  -30.2800 H   0  0  0  0  0  0  0  0  0  0  0  0
   -3.3910   12.6340  -32.4870 N   0  0  0  0  0  0  0  0  0  0  0  0
   -2.4530   12.4160  -32.0800 H   0  0  0  0  0  0  0  0  0  0  0  0
   -3.6800   12.1070  -33.3390 H   0  0  0  0  0  0  0  0  0  0  0  0
   -5.2740   15.7690  -31.9980 C   0  0  0  0  0  0  0  0  0  0  0  0
   -6.0305   15.4152  -31.2821 H   0  0  0  0  0  0  0  0  0  0  0  0
   -5.3300   17.0820  -32.4770 C   0  0  0  0  0  0  0  0  0  0  0  0
   -6.1225   17.7582  -32.1238 H   0  0  0  0  0  0  0  0  0  0  0  0
   -6.8550   21.2060  -32.0170 C   0  0  0  0  0  0  0  0  0  0  0  0
   -8.2840   20.9030  -32.3500 C   0  0  0  0  0  0  0  0  0  0  0  0
   -8.9020   21.0287  -31.4488 H   0  0  0  0  0  0  0  0  0  0  0  0
   -8.6242   21.5926  -33.1366 H   0  0  0  0  0  0  0  0  0  0  0  0
   -8.4070   19.5310  -32.8320 N   0  0  0  0  0  0  0  0  0  0  0  0
   -7.4800   19.0650  -32.7020 H   0  0  0  0  0  0  0  0  0  0  0  0
   -8.5830   19.5610  -33.8640 H   0  0  0  0  0  0  0  0  0  0  0  0
   -6.4910   21.9980  -31.0390 O   0  0  0  0  0  0  0  0  0  0  0  0
   -5.0000   23.4120  -28.9600 C   0  0  0  0  0  0  0  0  0  0  0  0
   -6.0885   23.3227  -28.8286 H   0  0  0  0  0  0  0  0  0  0  0  0
   -4.2450   24.1340  -28.0320 C   0  0  0  0  0  0  0  0  0  0  0  0
   -4.7433   24.6013  -27.1698 H   0  0  0  0  0  0  0  0  0  0  0  0
   -0.7380   25.4490  -27.5110 C   0  0  0  0  0  0  0  0  0  0  0  0
   -0.2982   25.1824  -28.4834 H   0  0  0  0  0  0  0  0  0  0  0  0
    0.0120   26.1890  -26.5920 C   0  0  0  0  0  0  0  0  0  0  0  0
    1.0345   26.5029  -26.8488 H   0  0  0  0  0  0  0  0  0  0  0  0
    1.0060   26.6560  -23.3280 N   0  0  0  0  0  0  0  0  0  0  0  0
    1.5210   27.2100  -22.6080 H   0  0  0  0  0  0  0  0  0  0  0  0
    1.1080   25.6180  -23.3140 H   0  0  0  0  0  0  0  0  0  0  0  0
  1  2  1  0
  2  3  2  0
  3  4  1  0
  4  5  2  0
  5  6  1  0
  5  7  1  0
  7  8  1  0
  7  9  2  0
  9 10  1  0
 10 11  2  0
 11 12  1  0
 11 13  1  0
 13 14  1  0
 13 15  2  0
 15 16  1  0
 16 17  2  0
 17 18  1  0
 18 19  1  0
 19 20  2  0
 19 21  1  0
 21 22  1  0
 22 23  2  0
 23 24  1  0
 23 25  1  0
 25 26  1  0
 25 27  2  0
 27 28  1  0
 28 29  1  0
 29 30  1  0
 29 31  1  0
 28 32  2  0
 32 33  1  0
 32 34  1  0
 27 35  1  0
 35 36  1  0
 35 37  2  0
 37 38  1  0
 18 39  2  0
 39 40  1  0
 40 41  1  0
 40 42  1  0
 40 43  1  0
 43 44  1  0
 43 45  1  0
 39 46  1  0
 15 47  1  0
 47 48  1  0
 47 49  2  0
 49 50  1  0
  9 51  1  0
 51 52  1  0
 51 53  2  0
 53 54  1  0
  3 55  1  0
 55 56  1  0
 55 57  1  0
 53  4  1  0
 49 10  1  0
 46 16  1  0
 37 22  1  0
M  CHG  2  21  -1  32   1
M  END
>  <UniqueID>  (47) 
45

>  <SMILES>  (47) 
[H]/N=C(\N)c1ccc(-c2ccc(-c3nc(C(=O)[N-]c4ccc(C(N)=[NH2+])cc4)c(CN)o3)cc2)cc1

>  <Energy>  (47) 
101.94424420259706

>  <Genealogy>  (47) 
N=C(N)c1ccc(-c2ccc(-c3nc(C(=O)[N-]c4ccc(C(N)=[NH2+])cc4)c(CN)o3)cc2)cc1 (protonated)
[H]/N=C(\N)c1ccc(-c2ccc(-c3nc(C(=O)[N-]c4ccc(C(N)=[NH2+])cc4)c(CN)o3)cc2)cc1 (cis-trans isomerization)
[H]/N=C(\N)c1ccc(-c2ccc(-c3nc(C(=O)[N-]c4ccc(C(N)=[NH2+])cc4)c(CN)o3)cc2)cc1 (3D coordinates assigned)
[H]/N=C(\N)c1ccc(-c2ccc(-c3nc(C(=O)[N-]c4ccc(C(N)=[NH2+])cc4)c(CN)o3)cc2)cc1 (optimized conformer: 101.94424420259706 kcal/mol)

>  <smiles>  (47) 
N=C(N)c1ccc(NC(=O)c2nc(-c3ccc(-c4ccc(C(=N)N)cc4)cc3)oc2CN)cc1

>  <score_type>  (47) 
oracle

>  <origin>  (47) 
adg

>  <m_score__min__energy>  (47) 
-9.5800000000000001

>  <m_primary>  (47) 
energy

$$$$
47:0
     RDKit          3D

 37 38  0  0  1  0  0  0  0  0999 V2000
   -0.8450   25.6970  -24.2740 C   0  0  0  0  0  0  0  0  0  0  0  0
   -1.5150   25.8790  -25.5800 C   0  0  0  0  0  0  0  0  0  0  0  0
   -1.7740   24.7240  -26.3770 N   0  0  0  0  0  0  0  0  0  0  0  0
   -0.8570   23.6010  -26.1650 C   0  0  0  0  0  0  0  0  0  0  0  0
   -1.4410   22.3510  -26.7500 C   0  0  0  0  0  0  0  0  0  0  0  0
   -2.8040   24.5660  -27.3240 C   0  0  0  0  0  0  0  0  0  0  0  0
   -3.9760   24.4250  -27.3940 N   0  0  0  0  0  0  0  0  0  0  0  0
   -4.7500   24.2930  -28.4240 N   0  0  0  0  0  0  0  0  0  0  0  0
   -4.1640   24.3170  -29.5640 C   0  0  0  0  0  0  0  0  0  0  0  0
   -4.5980   24.2150  -30.8610 N   0  0  0  0  0  0  0  0  0  0  0  0
   -5.6620   23.2930  -31.0150 C   0  0  0  0  0  0  0  0  0  0  0  0
   -6.3030   22.8880  -30.0010 O   0  0  0  0  0  0  0  0  0  0  0  0
   -6.0750   22.7720  -32.2720 N   0  0  0  0  0  0  0  0  0  0  0  0
   -7.1560   21.8510  -32.3130 C   0  0  0  0  0  0  0  0  0  0  0  0
   -7.0190   20.5360  -32.7090 C   0  0  0  0  0  0  0  0  0  0  0  0
   -8.1390   19.7240  -32.7110 C   0  0  0  0  0  0  0  0  0  0  0  0
   -9.3910   20.1730  -32.3340 C   0  0  0  0  0  0  0  0  0  0  0  0
   -9.4880   21.5000  -31.9430 C   0  0  0  0  0  0  0  0  0  0  0  0
   -8.3990   22.3470  -31.9240 C   0  0  0  0  0  0  0  0  0  0  0  0
   -2.3710   24.5430  -29.1810 S   0  0  0  0  0  0  0  0  0  0  0  0
   -1.5626   25.8919  -23.4634 H   0  0  0  0  0  0  0  0  0  0  0  0
   -0.4725   24.6651  -24.1936 H   0  0  0  0  0  0  0  0  0  0  0  0
   -0.0016   26.3986  -24.1936 H   0  0  0  0  0  0  0  0  0  0  0  0
   -2.4833   26.3626  -25.3841 H   0  0  0  0  0  0  0  0  0  0  0  0
   -0.7954   26.4614  -26.1741 H   0  0  0  0  0  0  0  0  0  0  0  0
    0.1047   23.8178  -26.6529 H   0  0  0  0  0  0  0  0  0  0  0  0
   -0.7012   23.4583  -25.0855 H   0  0  0  0  0  0  0  0  0  0  0  0
   -1.7553   21.6784  -25.9383 H   0  0  0  0  0  0  0  0  0  0  0  0
   -2.3119   22.6087  -27.3705 H   0  0  0  0  0  0  0  0  0  0  0  0
   -0.6845   21.8484  -27.3705 H   0  0  0  0  0  0  0  0  0  0  0  0
   -5.8140   24.1720  -28.3070 H   0  0  0  0  0  0  0  0  0  0  0  0
   -5.5680   23.0820  -33.1480 H   0  0  0  0  0  0  0  0  0  0  0  0
   -6.0393   20.1417  -33.0167 H   0  0  0  0  0  0  0  0  0  0  0  0
   -8.0286   18.6759  -33.0261 H   0  0  0  0  0  0  0  0  0  0  0  0
  -10.2683   19.5094  -32.3437 H   0  0  0  0  0  0  0  0  0  0  0  0
  -10.4692   21.8917  -31.6368 H   0  0  0  0  0  0  0  0  0  0  0  0
   -8.5098   23.3947  -31.6076 H   0  0  0  0  0  0  0  0  0  0  0  0
  1  2  1  0
  2  3  1  0
  3  4  1  0
  4  5  1  0
  3  6  1  0
  6  7  2  0
  7  8  1  0
  8  9  1  0
  9 10  2  0
 10 11  1  0
 11 12  2  0
 11 13  1  0
 13 14  1  0
 14 15  2  0
 15 16  1  0
 16 17  2  0
 17 18  1  0
 18 19  2  0
  9 20  1  0
 20  6  1  0
 19 14  1  0
  1 21  1  0
  1 22  1  0
  1 23  1  0
  2 24  1  0
  2 25  1  0
  4 26  1  0
  4 27  1  0
  5 28  1  0
  5 29  1  0
  5 30  1  0
  8 31  1  0
 13 32  1  0
 15 33  1  0
 16 34  1  0
 17 35  1  0
 18 36  1  0
 19 37  1  0
M  END
>  <smiles>  (48) 
CCN(CC)c1n[nH]c(=NC(=O)Nc2ccccc2)s1

>  <score_type>  (48) 
oracle

>  <origin>  (48) 
adg

>  <m_score__min__energy>  (48) 
-7.6200000000000001

>  <m_primary>  (48) 
energy

$$$$
48:0
     RDKit          3D

 43 45  0  0  0  0  0  0  0  0999 V2000
   -1.2510   26.8300  -24.6950 C   0  0  0  0  0  0  0  0  0  0  0  0
   -0.8390   25.3630  -24.6070 C   0  0  0  0  0  0  0  0  0  0  0  0
   -0.8910   24.7140  -25.9660 C   0  0  0  0  0  0  0  0  0  0  0  0
   -0.2620   23.4770  -26.1880 C   0  0  0  0  0  0  0  0  0  0  0  0
   -0.3260   22.8700  -27.4480 C   0  0  0  0  0  0  0  0  0  0  0  0
   -1.0370   23.4820  -28.4870 C   0  0  0  0  0  0  0  0  0  0  0  0
   -1.7090   24.6920  -28.2640 C   0  0  0  0  0  0  0  0  0  0  0  0
   -2.4410   25.2970  -29.3390 N   0  0  0  0  0  0  0  0  0  0  0  0
   -3.7460   24.9020  -29.7820 C   0  0  0  0  0  0  0  0  0  0  0  0
   -4.1620   25.3230  -30.8950 O   0  0  0  0  0  0  0  0  0  0  0  0
   -4.5780   23.9040  -29.0190 C   0  0  0  0  0  0  0  0  0  0  0  0
   -5.3750   23.0870  -29.9490 N   0  0  0  0  0  0  0  0  0  0  0  0
   -6.7430   23.2430  -29.9770 C   0  0  0  0  0  0  0  0  0  0  0  0
   -7.5180   22.4810  -30.8010 N   0  0  0  0  0  0  0  0  0  0  0  0
   -6.9210   21.5730  -31.6070 C   0  0  0  0  0  0  0  0  0  0  0  0
   -7.6640   20.5460  -32.7050 S   0  0  0  0  0  0  0  0  0  0  0  0
   -6.2080   19.8520  -33.2290 C   0  0  0  0  0  0  0  0  0  0  0  0
   -6.1000   18.7540  -34.2440 C   0  0  0  0  0  0  0  0  0  0  0  0
   -6.5000   17.4150  -33.6340 C   0  0  0  0  0  0  0  0  0  0  0  0
   -5.1360   20.4110  -32.5290 C   0  0  0  0  0  0  0  0  0  0  0  0
   -5.5570   21.3880  -31.6180 C   0  0  0  0  0  0  0  0  0  0  0  0
   -4.7680   22.1540  -30.7610 C   0  0  0  0  0  0  0  0  0  0  0  0
   -3.5150   21.9890  -30.7380 O   0  0  0  0  0  0  0  0  0  0  0  0
   -1.6170   25.3150  -27.0090 C   0  0  0  0  0  0  0  0  0  0  0  0
   -1.3661   27.2400  -23.6808 H   0  0  0  0  0  0  0  0  0  0  0  0
   -0.4772   27.3965  -25.2338 H   0  0  0  0  0  0  0  0  0  0  0  0
   -2.2066   26.9108  -25.2338 H   0  0  0  0  0  0  0  0  0  0  0  0
    0.1867   25.2987  -24.2149 H   0  0  0  0  0  0  0  0  0  0  0  0
   -1.5366   24.8388  -23.9372 H   0  0  0  0  0  0  0  0  0  0  0  0
    0.2824   22.9841  -25.3691 H   0  0  0  0  0  0  0  0  0  0  0  0
    0.1833   21.9106  -27.6218 H   0  0  0  0  0  0  0  0  0  0  0  0
   -1.0685   23.0122  -29.4811 H   0  0  0  0  0  0  0  0  0  0  0  0
   -3.9144   23.2479  -28.4367 H   0  0  0  0  0  0  0  0  0  0  0  0
   -5.2581   24.4455  -28.3450 H   0  0  0  0  0  0  0  0  0  0  0  0
   -7.2171   23.9923  -29.3260 H   0  0  0  0  0  0  0  0  0  0  0  0
   -8.5580   22.5940  -30.8040 H   0  0  0  0  0  0  0  0  0  0  0  0
   -6.7654   18.9782  -35.0907 H   0  0  0  0  0  0  0  0  0  0  0  0
   -5.0563   18.6894  -34.5855 H   0  0  0  0  0  0  0  0  0  0  0  0
   -6.4774   17.4905  -32.5368 H   0  0  0  0  0  0  0  0  0  0  0  0
   -7.5161   17.1513  -33.9626 H   0  0  0  0  0  0  0  0  0  0  0  0
   -5.7950   16.6372  -33.9626 H   0  0  0  0  0  0  0  0  0  0  0  0
   -4.0858   20.1185  -32.6759 H   0  0  0  0  0  0  0  0  0  0  0  0
   -2.1167   26.2804  -26.8408 H   0  0  0  0  0  0  0  0  0  0  0  0
  1  2  1  0
  2  3  1  0
  3  4  2  0
  4  5  1  0
  5  6  2  0
  6  7  1  0
  7  8  1  0
  8  9  1  0
  9 10  2  0
  9 11  1  0
 11 12  1  0
 12 13  1  0
 13 14  2  0
 14 15  1  0
 15 16  1  0
 16 17  1  0
 17 18  1  0
 18 19  1  0
 17 20  2  0
 20 21  1  0
 21 22  1  0
 22 23  2  0
  7 24  2  0
 24  3  1  0
 22 12  1  0
 21 15  2  0
  1 25  1  0
  1 26  1  0
  1 27  1  0
  2 28  1  0
  2 29  1  0
  4 30  1  0
  5 31  1  0
  6 32  1  0
 11 33  1  0
 11 34  1  0
 13 35  1  0
 14 36  1  0
 18 37  1  0
 18 38  1  0
 19 39  1  0
 19 40  1  0
 19 41  1  0
 20 42  1  0
 24 43  1  0
M  CHG  2   8  -1  14   1
M  END
>  <UniqueID>  (49) 
46

>  <SMILES>  (49) 
CCc1cccc([N-]C(=O)Cn2c[nH+]c3sc(CC)cc3c2=O)c1

>  <Energy>  (49) 
75.56953347863946

>  <Genealogy>  (49) 
CCc1cccc([N-]C(=O)Cn2c[nH+]c3sc(CC)cc3c2=O)c1 (protonated)
CCc1cccc([N-]C(=O)Cn2c[nH+]c3sc(CC)cc3c2=O)c1 (3D coordinates assigned)
CCc1cccc([N-]C(=O)Cn2c[nH+]c3sc(CC)cc3c2=O)c1 (optimized conformer: 75.56953347863946 kcal/mol)

>  <smiles>  (49) 
CCc1cccc(NC(=O)Cn2cnc3sc(CC)cc3c2=O)c1

>  <score_type>  (49) 
oracle

>  <origin>  (49) 
adg

>  <m_score__min__energy>  (49) 
-9.1899999999999995

>  <m_primary>  (49) 
energy

$$$$
