0:0
     RDKit          3D

 50 52  0  0  0  0  0  0  0  0999 V2000
   -3.0650   21.5410  -33.4150 C   0  0  0  0  0  0  0  0  0  0  0  0
   -2.8440   20.5590  -32.4280 O   0  0  0  0  0  0  0  0  0  0  0  0
   -1.8940   19.6100  -32.8770 C   0  0  0  0  0  0  0  0  0  0  0  0
   -2.5790   18.3770  -33.4880 C   0  0  0  0  0  0  0  0  0  0  0  0
   -4.0520   18.5130  -33.4940 N   0  0  0  0  0  0  0  0  0  0  0  0
   -4.6430   18.0840  -34.7730 C   0  0  0  0  0  0  0  0  0  0  0  0
   -6.0970   18.5670  -34.8440 C   0  0  0  0  0  0  0  0  0  0  0  0
   -6.8900   18.2810  -33.5400 C   0  0  0  0  0  0  0  0  0  0  0  0
   -7.3710   19.5500  -32.8530 C   0  0  0  0  0  0  0  0  0  0  0  0
   -8.7430   19.7640  -32.6570 C   0  0  0  0  0  0  0  0  0  0  0  0
   -9.1660   20.8820  -32.0140 N   0  0  0  0  0  0  0  0  0  0  0  0
   -8.2860   21.8020  -31.5440 C   0  0  0  0  0  0  0  0  0  0  0  0
   -6.9100   21.5980  -31.7200 C   0  0  0  0  0  0  0  0  0  0  0  0
   -5.9270   22.5640  -31.1730 C   0  0  0  0  0  0  0  0  0  0  0  0
   -4.7530   22.1170  -30.5440 C   0  0  0  0  0  0  0  0  0  0  0  0
   -3.8310   23.0340  -30.0310 C   0  0  0  0  0  0  0  0  0  0  0  0
   -4.0610   24.4100  -30.1390 C   0  0  0  0  0  0  0  0  0  0  0  0
   -3.1080   25.2900  -29.6050 O   0  0  0  0  0  0  0  0  0  0  0  0
   -2.1630   24.9360  -28.5990 C   0  0  0  0  0  0  0  0  0  0  0  0
   -5.2320   24.8610  -30.7760 C   0  0  0  0  0  0  0  0  0  0  0  0
   -6.1570   23.9440  -31.2840 C   0  0  0  0  0  0  0  0  0  0  0  0
   -6.4870   20.4800  -32.3800 N   0  0  0  0  0  0  0  0  0  0  0  0
   -6.1200   17.3720  -32.5600 C   0  0  0  0  0  0  0  0  0  0  0  0
   -4.6470   17.7890  -32.3430 C   0  0  0  0  0  0  0  0  0  0  0  0
   -3.2819   22.5048  -32.9312 H   0  0  0  0  0  0  0  0  0  0  0  0
   -2.1665   21.6394  -34.0420 H   0  0  0  0  0  0  0  0  0  0  0  0
   -3.9190   21.2450  -34.0420 H   0  0  0  0  0  0  0  0  0  0  0  0
   -1.2533   20.0779  -33.6390 H   0  0  0  0  0  0  0  0  0  0  0  0
   -1.2972   19.2821  -32.0131 H   0  0  0  0  0  0  0  0  0  0  0  0
   -2.2289   18.2517  -34.5232 H   0  0  0  0  0  0  0  0  0  0  0  0
   -2.3191   17.5022  -32.8739 H   0  0  0  0  0  0  0  0  0  0  0  0
   -4.0704   18.5170  -35.6065 H   0  0  0  0  0  0  0  0  0  0  0  0
   -4.6143   16.9867  -34.8437 H   0  0  0  0  0  0  0  0  0  0  0  0
   -6.0985   19.6519  -35.0256 H   0  0  0  0  0  0  0  0  0  0  0  0
   -6.5896   18.0164  -35.6589 H   0  0  0  0  0  0  0  0  0  0  0  0
   -7.7852   17.7271  -33.8590 H   0  0  0  0  0  0  0  0  0  0  0  0
   -9.4740   19.0282  -33.0232 H   0  0  0  0  0  0  0  0  0  0  0  0
   -8.6501   22.7026  -31.0279 H   0  0  0  0  0  0  0  0  0  0  0  0
   -4.5580   21.0381  -30.4546 H   0  0  0  0  0  0  0  0  0  0  0  0
   -2.9170   22.6708  -29.5383 H   0  0  0  0  0  0  0  0  0  0  0  0
   -2.6055   25.1018  -27.6057 H   0  0  0  0  0  0  0  0  0  0  0  0
   -1.8921   23.8754  -28.7074 H   0  0  0  0  0  0  0  0  0  0  0  0
   -1.2619   25.5575  -28.7074 H   0  0  0  0  0  0  0  0  0  0  0  0
   -5.4204   25.9402  -30.8747 H   0  0  0  0  0  0  0  0  0  0  0  0
   -7.0722   24.3070  -31.7745 H   0  0  0  0  0  0  0  0  0  0  0  0
   -5.4660   20.3500  -32.5430 H   0  0  0  0  0  0  0  0  0  0  0  0
   -6.6338   17.3975  -31.5877 H   0  0  0  0  0  0  0  0  0  0  0  0
   -6.1045   16.3656  -33.0037 H   0  0  0  0  0  0  0  0  0  0  0  0
   -4.5985   18.4429  -31.4598 H   0  0  0  0  0  0  0  0  0  0  0  0
   -4.0681   16.8625  -32.2143 H   0  0  0  0  0  0  0  0  0  0  0  0
  1  2  1  0
  2  3  1  0
  3  4  1  0
  4  5  1  0
  5  6  1  0
  6  7  1  0
  7  8  1  0
  8  9  1  0
  9 10  2  0
 10 11  1  0
 11 12  2  0
 12 13  1  0
 13 14  1  0
 14 15  2  0
 15 16  1  0
 16 17  2  0
 17 18  1  0
 18 19  1  0
 17 20  1  0
 20 21  2  0
 13 22  2  0
  8 23  1  0
 23 24  1  0
 24  5  1  0
 22  9  1  0
 21 14  1  0
  1 25  1  0
  1 26  1  0
  1 27  1  0
  3 28  1  0
  3 29  1  0
  4 30  1  0
  4 31  1  0
  6 32  1  0
  6 33  1  0
  7 34  1  0
  7 35  1  0
  8 36  1  0
 10 37  1  0
 12 38  1  0
 15 39  1  0
 16 40  1  0
 19 41  1  0
 19 42  1  0
 19 43  1  0
 20 44  1  0
 21 45  1  0
 22 46  1  0
 23 47  1  0
 23 48  1  0
 24 49  1  0
 24 50  1  0
M  CHG  1  22   1
M  END
>  <UniqueID>  (1) 
1

>  <SMILES>  (1) 
COCCN1CCC(c2cncc(-c3ccc(OC)cc3)[nH+]2)CC1

>  <Energy>  (1) 
64.65633476595494

>  <Genealogy>  (1) 
COCCN1CCC(c2cncc(-c3ccc(OC)cc3)[nH+]2)CC1 (protonated)
COCCN1CCC(c2cncc(-c3ccc(OC)cc3)[nH+]2)CC1 (3D coordinates assigned)
COCCN1CCC(c2cncc(-c3ccc(OC)cc3)[nH+]2)CC1 (nonaromatic ring conformer: 64.65633476595494 kcal/mol)

>  <smiles>  (1) 
COCCN1CCC(c2cncc(-c3ccc(OC)cc3)n2)CC1

>  <score_type>  (1) 
oracle

>  <origin>  (1) 
adg

>  <m_score__min__energy>  (1) 
-7

>  <m_primary>  (1) 
energy

$$$$
1:0
     RDKit          3D

 55 58  0  0  0  0  0  0  0  0999 V2000
   -3.4990   23.6690  -28.4010 C   0  0  0  0  0  0  0  0  0  0  0  0
   -3.1950   24.5420  -29.6130 C   0  0  0  0  0  0  0  0  0  0  0  0
   -4.3170   24.4540  -30.5840 N   0  0  0  0  0  0  0  0  0  0  0  0
   -5.1530   25.6760  -30.5690 C   0  0  0  0  0  0  0  0  0  0  0  0
   -6.1460   25.6490  -29.4090 C   0  0  0  0  0  0  0  0  0  0  0  0
   -5.1520   23.2530  -30.3480 C   0  0  0  0  0  0  0  0  0  0  0  0
   -6.3260   23.2000  -31.3320 C   0  0  0  0  0  0  0  0  0  0  0  0
   -5.8890   22.6450  -32.6110 N   0  0  0  0  0  0  0  0  0  0  0  0
   -5.7880   21.2230  -32.8000 C   0  0  0  0  0  0  0  0  0  0  0  0
   -6.9200   20.4060  -32.6380 C   0  0  0  0  0  0  0  0  0  0  0  0
   -8.1440   20.9460  -32.1900 C   0  0  0  0  0  0  0  0  0  0  0  0
   -9.2530   20.1280  -31.9910 C   0  0  0  0  0  0  0  0  0  0  0  0
   -9.1560   18.7590  -32.2130 C   0  0  0  0  0  0  0  0  0  0  0  0
   -7.9560   18.2020  -32.6530 C   0  0  0  0  0  0  0  0  0  0  0  0
   -6.8190   19.0130  -32.9000 C   0  0  0  0  0  0  0  0  0  0  0  0
   -5.6310   18.4800  -33.3640 N   0  0  0  0  0  0  0  0  0  0  0  0
   -5.6000   17.1120  -33.9250 C   0  0  0  0  0  0  0  0  0  0  0  0
   -4.4750   19.2360  -33.3340 C   0  0  0  0  0  0  0  0  0  0  0  0
   -3.2420   18.6580  -33.5300 N   0  0  0  0  0  0  0  0  0  0  0  0
   -2.0940   19.3910  -33.5870 C   0  0  0  0  0  0  0  0  0  0  0  0
   -0.8560   18.7650  -33.8130 C   0  0  0  0  0  0  0  0  0  0  0  0
    0.3160   19.5230  -33.8790 C   0  0  0  0  0  0  0  0  0  0  0  0
    0.2630   20.9100  -33.7180 C   0  0  0  0  0  0  0  0  0  0  0  0
   -0.9600   21.5440  -33.4880 C   0  0  0  0  0  0  0  0  0  0  0  0
   -2.1410   20.7890  -33.4190 C   0  0  0  0  0  0  0  0  0  0  0  0
   -3.3690   21.3990  -33.1660 C   0  0  0  0  0  0  0  0  0  0  0  0
   -4.5460   20.6310  -33.0950 C   0  0  0  0  0  0  0  0  0  0  0  0
   -3.3009   24.2378  -27.4805 H   0  0  0  0  0  0  0  0  0  0  0  0
   -4.5559   23.3650  -28.4239 H   0  0  0  0  0  0  0  0  0  0  0  0
   -2.8595   22.7743  -28.4239 H   0  0  0  0  0  0  0  0  0  0  0  0
   -3.0710   25.5863  -29.2903 H   0  0  0  0  0  0  0  0  0  0  0  0
   -2.2686   24.1926  -30.0922 H   0  0  0  0  0  0  0  0  0  0  0  0
   -4.5012   26.5558  -30.4635 H   0  0  0  0  0  0  0  0  0  0  0  0
   -5.7182   25.7241  -31.5115 H   0  0  0  0  0  0  0  0  0  0  0  0
   -5.5970   25.6639  -28.4559 H   0  0  0  0  0  0  0  0  0  0  0  0
   -6.8025   26.5296  -29.4678 H   0  0  0  0  0  0  0  0  0  0  0  0
   -6.7537   24.7340  -29.4678 H   0  0  0  0  0  0  0  0  0  0  0  0
   -4.5329   22.3530  -30.4774 H   0  0  0  0  0  0  0  0  0  0  0  0
   -5.5533   23.2999  -29.3249 H   0  0  0  0  0  0  0  0  0  0  0  0
   -7.1219   22.5661  -30.9140 H   0  0  0  0  0  0  0  0  0  0  0  0
   -6.7040   24.2202  -31.4943 H   0  0  0  0  0  0  0  0  0  0  0  0
   -5.9140   23.2660  -33.4510 H   0  0  0  0  0  0  0  0  0  0  0  0
   -8.2231   22.0258  -31.9957 H   0  0  0  0  0  0  0  0  0  0  0  0
  -10.2060   20.5650  -31.6581 H   0  0  0  0  0  0  0  0  0  0  0  0
  -10.0294   18.1128  -32.0408 H   0  0  0  0  0  0  0  0  0  0  0  0
   -7.8900   17.1154  -32.8112 H   0  0  0  0  0  0  0  0  0  0  0  0
   -5.5834   16.3795  -33.1045 H   0  0  0  0  0  0  0  0  0  0  0  0
   -6.4947   16.9491  -34.5439 H   0  0  0  0  0  0  0  0  0  0  0  0
   -4.6989   16.9898  -34.5439 H   0  0  0  0  0  0  0  0  0  0  0  0
   -3.1470   17.6210  -33.5990 H   0  0  0  0  0  0  0  0  0  0  0  0
   -0.8095   17.6732  -33.9385 H   0  0  0  0  0  0  0  0  0  0  0  0
    1.2815   19.0272  -34.0579 H   0  0  0  0  0  0  0  0  0  0  0  0
    1.1871   21.5042  -33.7726 H   0  0  0  0  0  0  0  0  0  0  0  0
   -0.9976   22.6360  -33.3608 H   0  0  0  0  0  0  0  0  0  0  0  0
   -3.4181   22.4883  -33.0209 H   0  0  0  0  0  0  0  0  0  0  0  0
  1  2  1  0
  2  3  1  0
  3  4  1  0
  4  5  1  0
  3  6  1  0
  6  7  1  0
  7  8  1  0
  8  9  1  0
  9 10  2  0
 10 11  1  0
 11 12  2  0
 12 13  1  0
 13 14  2  0
 14 15  1  0
 15 16  2  0
 16 17  1  0
 16 18  1  0
 18 19  2  0
 19 20  1  0
 20 21  2  0
 21 22  1  0
 22 23  2  0
 23 24  1  0
 24 25  2  0
 25 26  1  0
 26 27  2  0
 27  9  1  0
 15 10  1  0
 27 18  1  0
 25 20  1  0
  1 28  1  0
  1 29  1  0
  1 30  1  0
  2 31  1  0
  2 32  1  0
  4 33  1  0
  4 34  1  0
  5 35  1  0
  5 36  1  0
  5 37  1  0
  6 38  1  0
  6 39  1  0
  7 40  1  0
  7 41  1  0
  8 42  1  0
 11 43  1  0
 12 44  1  0
 13 45  1  0
 14 46  1  0
 17 47  1  0
 17 48  1  0
 17 49  1  0
 19 50  1  0
 21 51  1  0
 22 52  1  0
 23 53  1  0
 24 54  1  0
 26 55  1  0
M  CHG  2  16   1  19   1
M  END
>  <UniqueID>  (2) 
2

>  <SMILES>  (2) 
CCN(CC)CCNc1c2ccccc2[n+](C)c2[nH+]c3ccccc3cc12

>  <Energy>  (2) 
84.74554289775106

>  <Genealogy>  (2) 
CCN(CC)CCNc1c2ccccc2[n+](C)c2[nH+]c3ccccc3cc12 (protonated)
CCN(CC)CCNc1c2ccccc2[n+](C)c2[nH+]c3ccccc3cc12 (3D coordinates assigned)
CCN(CC)CCNc1c2ccccc2[n+](C)c2[nH+]c3ccccc3cc12 (optimized conformer: 84.74554289775106 kcal/mol)

>  <smiles>  (2) 
CCN(CC)CCNc1c2ccccc2[n+](C)c2nc3ccccc3cc12

>  <score_type>  (2) 
oracle

>  <origin>  (2) 
adg

>  <m_score__min__energy>  (2) 
-8.5700000000000003

>  <m_primary>  (2) 
energy

$$$$
2:0
     RDKit          3D

 45 47  0  0  1  0  0  0  0  0999 V2000
   -1.1300   17.0290  -34.8830 C   0  0  0  0  0  0  0  0  0  0  0  0
   -0.6750   18.4300  -34.4790 C   0  0  0  0  0  0  0  0  0  0  0  0
   -1.7750   19.2270  -33.9760 N   0  0  0  0  0  0  0  0  0  0  0  0
   -3.0770   18.9650  -34.0150 C   0  0  0  0  0  0  0  0  0  0  0  0
   -3.7610   20.0030  -33.4160 C   0  0  0  0  0  0  0  0  0  0  0  0
   -5.0660   20.2920  -33.1640 C   0  0  0  0  0  0  0  0  0  0  0  0
   -5.4820   21.4610  -32.5170 C   0  0  0  0  0  0  0  0  0  0  0  0
   -6.8950   21.5750  -32.2660 C   0  0  0  0  0  0  0  0  0  0  0  0
   -7.6310   20.3770  -32.3030 C   0  0  0  0  0  0  0  0  0  0  0  0
   -8.9660   20.3310  -32.0040 C   0  0  0  0  0  0  0  0  0  0  0  0
   -9.6430   21.4770  -31.6520 C   0  0  0  0  0  0  0  0  0  0  0  0
   -8.9160   22.6490  -31.6180 C   0  0  0  0  0  0  0  0  0  0  0  0
   -7.5710   22.7170  -31.9150 C   0  0  0  0  0  0  0  0  0  0  0  0
   -4.4980   22.3180  -32.1430 C   0  0  0  0  0  0  0  0  0  0  0  0
   -4.7550   23.4250  -31.6160 N   0  0  0  0  0  0  0  0  0  0  0  0
   -4.1370   24.0760  -30.5500 C   0  0  0  0  0  0  0  0  0  0  0  0
   -3.8500   25.2980  -30.4840 O   0  0  0  0  0  0  0  0  0  0  0  0
   -3.7780   23.2880  -29.4050 N   0  0  0  0  0  0  0  0  0  0  0  0
   -3.1320   23.8180  -28.2460 C   0  0  0  0  0  0  0  0  0  0  0  0
   -2.2900   22.7990  -27.5150 C   0  0  0  0  0  0  0  0  0  0  0  0
   -4.1850   24.3260  -27.2920 C   0  0  0  0  0  0  0  0  0  0  0  0
   -3.2060   22.0130  -32.4010 N   0  0  0  0  0  0  0  0  0  0  0  0
   -2.8040   20.9060  -33.0130 C   0  0  0  0  0  0  0  0  0  0  0  0
   -1.6150   20.4020  -33.3690 N   0  0  0  0  0  0  0  0  0  0  0  0
   -1.3240   16.4318  -33.9798 H   0  0  0  0  0  0  0  0  0  0  0  0
   -2.0511   17.1006  -35.4801 H   0  0  0  0  0  0  0  0  0  0  0  0
   -0.3426   16.5457  -35.4801 H   0  0  0  0  0  0  0  0  0  0  0  0
    0.0906   18.3435  -33.6939 H   0  0  0  0  0  0  0  0  0  0  0  0
   -0.2701   18.9294  -35.3716 H   0  0  0  0  0  0  0  0  0  0  0  0
   -3.5353   18.0664  -34.4536 H   0  0  0  0  0  0  0  0  0  0  0  0
   -5.8324   19.5710  -33.4847 H   0  0  0  0  0  0  0  0  0  0  0  0
   -7.1164   19.4456  -32.5816 H   0  0  0  0  0  0  0  0  0  0  0  0
   -9.5019   19.3713  -32.0453 H   0  0  0  0  0  0  0  0  0  0  0  0
  -10.7156   21.4589  -31.4087 H   0  0  0  0  0  0  0  0  0  0  0  0
   -9.4361   23.5774  -31.3395 H   0  0  0  0  0  0  0  0  0  0  0  0
   -7.0429   23.6809  -31.8709 H   0  0  0  0  0  0  0  0  0  0  0  0
   -3.9960   22.2560  -29.4060 H   0  0  0  0  0  0  0  0  0  0  0  0
   -2.4621   24.6195  -28.5908 H   0  0  0  0  0  0  0  0  0  0  0  0
   -2.4053   22.9385  -26.4300 H   0  0  0  0  0  0  0  0  0  0  0  0
   -2.6181   21.7861  -27.7913 H   0  0  0  0  0  0  0  0  0  0  0  0
   -1.2334   22.9303  -27.7913 H   0  0  0  0  0  0  0  0  0  0  0  0
   -3.8503   24.1645  -26.2567 H   0  0  0  0  0  0  0  0  0  0  0  0
   -4.3459   25.4008  -27.4619 H   0  0  0  0  0  0  0  0  0  0  0  0
   -5.1264   23.7830  -27.4619 H   0  0  0  0  0  0  0  0  0  0  0  0
   -2.4480   22.6890  -32.1030 H   0  0  0  0  0  0  0  0  0  0  0  0
  1  2  1  0
  2  3  1  0
  3  4  1  0
  4  5  2  0
  5  6  1  0
  6  7  2  0
  7  8  1  0
  8  9  2  0
  9 10  1  0
 10 11  2  0
 11 12  1  0
 12 13  2  0
  7 14  1  0
 14 15  2  0
 15 16  1  0
 16 17  2  0
 16 18  1  0
 18 19  1  0
 19 20  1  0
 19 21  1  0
 14 22  1  0
 22 23  1  0
 23 24  2  0
 24  3  1  0
 23  5  1  0
 13  8  1  0
  1 25  1  0
  1 26  1  0
  1 27  1  0
  2 28  1  0
  2 29  1  0
  4 30  1  0
  6 31  1  0
  9 32  1  0
 10 33  1  0
 11 34  1  0
 12 35  1  0
 13 36  1  0
 18 37  1  0
 19 38  1  0
 20 39  1  0
 20 40  1  0
 20 41  1  0
 21 42  1  0
 21 43  1  0
 21 44  1  0
 22 45  1  0
M  END
>  <smiles>  (3) 
CCn1cc2cc(-c3ccccc3)c(=NC(=O)NC(C)C)[nH]c2n1

>  <score_type>  (3) 
oracle

>  <origin>  (3) 
adg

>  <m_score__min__energy>  (3) 
-8.3000000000000007

>  <m_primary>  (3) 
energy

$$$$
3:0
     RDKit          3D

 44 47  0  0  0  0  0  0  0  0999 V2000
   -2.3710   25.0990  -26.6440 C   0  0  0  0  0  0  0  0  0  0  0  0
   -1.2990   25.6050  -27.6040 C   0  0  0  0  0  0  0  0  0  0  0  0
   -1.7670   25.5630  -28.9520 O   0  0  0  0  0  0  0  0  0  0  0  0
   -2.5980   24.5700  -29.4980 C   0  0  0  0  0  0  0  0  0  0  0  0
   -2.1530   23.2590  -29.7580 C   0  0  0  0  0  0  0  0  0  0  0  0
   -3.0240   22.3120  -30.3040 C   0  0  0  0  0  0  0  0  0  0  0  0
   -4.3560   22.6540  -30.6060 C   0  0  0  0  0  0  0  0  0  0  0  0
   -5.3000   21.6600  -31.1780 C   0  0  0  0  0  0  0  0  0  0  0  0
   -4.8540   20.4280  -31.6850 C   0  0  0  0  0  0  0  0  0  0  0  0
   -5.7690   19.5130  -32.2300 C   0  0  0  0  0  0  0  0  0  0  0  0
   -5.2440   18.2480  -32.7920 C   0  0  0  0  0  0  0  0  0  0  0  0
   -5.4360   17.0340  -32.1120 C   0  0  0  0  0  0  0  0  0  0  0  0
   -4.9580   15.8380  -32.6580 C   0  0  0  0  0  0  0  0  0  0  0  0
   -4.2960   15.8450  -33.8890 C   0  0  0  0  0  0  0  0  0  0  0  0
   -4.1140   17.0480  -34.5780 C   0  0  0  0  0  0  0  0  0  0  0  0
   -4.5900   18.2460  -34.0350 C   0  0  0  0  0  0  0  0  0  0  0  0
   -7.1460   19.8400  -32.2470 C   0  0  0  0  0  0  0  0  0  0  0  0
   -8.1330   18.9530  -32.7240 C   0  0  0  0  0  0  0  0  0  0  0  0
   -9.4790   19.3300  -32.7260 C   0  0  0  0  0  0  0  0  0  0  0  0
   -9.8610   20.5840  -32.2460 C   0  0  0  0  0  0  0  0  0  0  0  0
   -8.8990   21.4670  -31.7530 C   0  0  0  0  0  0  0  0  0  0  0  0
   -7.5470   21.1010  -31.7430 C   0  0  0  0  0  0  0  0  0  0  0  0
   -6.6260   21.9590  -31.2350 N   0  0  0  0  0  0  0  0  0  0  0  0
   -4.7980   23.9590  -30.3280 C   0  0  0  0  0  0  0  0  0  0  0  0
   -3.9250   24.9050  -29.7840 C   0  0  0  0  0  0  0  0  0  0  0  0
   -2.0384   25.2560  -25.6073 H   0  0  0  0  0  0  0  0  0  0  0  0
   -3.3072   25.6503  -26.8162 H   0  0  0  0  0  0  0  0  0  0  0  0
   -2.5404   24.0259  -26.8162 H   0  0  0  0  0  0  0  0  0  0  0  0
   -1.0417   26.6423  -27.3434 H   0  0  0  0  0  0  0  0  0  0  0  0
   -0.4134   24.9583  -27.5172 H   0  0  0  0  0  0  0  0  0  0  0  0
   -1.1140   22.9789  -29.5300 H   0  0  0  0  0  0  0  0  0  0  0  0
   -2.6657   21.2905  -30.4995 H   0  0  0  0  0  0  0  0  0  0  0  0
   -3.7830   20.1791  -31.6549 H   0  0  0  0  0  0  0  0  0  0  0  0
   -5.9639   17.0237  -31.1470 H   0  0  0  0  0  0  0  0  0  0  0  0
   -5.1033   14.8908  -32.1178 H   0  0  0  0  0  0  0  0  0  0  0  0
   -3.9182   14.9042  -34.3157 H   0  0  0  0  0  0  0  0  0  0  0  0
   -3.5958   17.0523  -35.5483 H   0  0  0  0  0  0  0  0  0  0  0  0
   -4.4517   19.1896  -34.5832 H   0  0  0  0  0  0  0  0  0  0  0  0
   -7.8423   17.9596  -33.0963 H   0  0  0  0  0  0  0  0  0  0  0  0
  -10.2413   18.6349  -33.1078 H   0  0  0  0  0  0  0  0  0  0  0  0
  -10.9213   20.8765  -32.2563 H   0  0  0  0  0  0  0  0  0  0  0  0
   -9.2034   22.4528  -31.3714 H   0  0  0  0  0  0  0  0  0  0  0  0
   -5.8405   24.2382  -30.5406 H   0  0  0  0  0  0  0  0  0  0  0  0
   -4.2856   25.9237  -29.5787 H   0  0  0  0  0  0  0  0  0  0  0  0
  1  2  1  0
  2  3  1  0
  3  4  1  0
  4  5  2  0
  5  6  1  0
  6  7  2  0
  7  8  1  0
  8  9  2  0
  9 10  1  0
 10 11  1  0
 11 12  2  0
 12 13  1  0
 13 14  2  0
 14 15  1  0
 15 16  2  0
 10 17  2  0
 17 18  1  0
 18 19  2  0
 19 20  1  0
 20 21  2  0
 21 22  1  0
 22 23  2  0
  7 24  1  0
 24 25  2  0
 25  4  1  0
 23  8  1  0
 16 11  1  0
 22 17  1  0
  1 26  1  0
  1 27  1  0
  1 28  1  0
  2 29  1  0
  2 30  1  0
  5 31  1  0
  6 32  1  0
  9 33  1  0
 12 34  1  0
 13 35  1  0
 14 36  1  0
 15 37  1  0
 16 38  1  0
 18 39  1  0
 19 40  1  0
 20 41  1  0
 21 42  1  0
 24 43  1  0
 25 44  1  0
M  END
>  <UniqueID>  (4) 
3

>  <SMILES>  (4) 
CCOc1ccc(-c2cc(-c3ccccc3)c3ccccc3n2)cc1

>  <Energy>  (4) 
62.24925458630073

>  <Genealogy>  (4) 
CCOc1ccc(-c2cc(-c3ccccc3)c3ccccc3n2)cc1 (3D coordinates assigned)
CCOc1ccc(-c2cc(-c3ccccc3)c3ccccc3n2)cc1 (optimized conformer: 62.24925458630073 kcal/mol)

>  <smiles>  (4) 
CCOc1ccc(-c2cc(-c3ccccc3)c3ccccc3n2)cc1

>  <score_type>  (4) 
oracle

>  <origin>  (4) 
adg

>  <m_score__min__energy>  (4) 
-8.9900000000000002

>  <m_primary>  (4) 
energy

$$$$
4:0
     RDKit          3D

 51 54  0  0  0  0  0  0  0  0999 V2000
   -8.9530   20.3010  -32.1130 C   0  0  0  0  0  0  0  0  0  0  0  0
   -8.4470   19.2390  -32.9860 N   0  0  0  0  0  0  0  0  0  0  0  0
   -7.3520   18.4930  -32.3490 C   0  0  0  0  0  0  0  0  0  0  0  0
   -6.5090   17.7730  -33.4080 C   0  0  0  0  0  0  0  0  0  0  0  0
   -6.1050   18.6840  -34.5760 C   0  0  0  0  0  0  0  0  0  0  0  0
   -5.9470   20.0410  -34.1540 O   0  0  0  0  0  0  0  0  0  0  0  0
   -5.1560   20.5040  -33.0880 C   0  0  0  0  0  0  0  0  0  0  0  0
   -3.9310   19.8740  -32.8690 C   0  0  0  0  0  0  0  0  0  0  0  0
   -3.0900   20.2910  -31.8400 C   0  0  0  0  0  0  0  0  0  0  0  0
   -3.4570   21.3540  -31.0000 C   0  0  0  0  0  0  0  0  0  0  0  0
   -4.7080   22.0110  -31.1950 C   0  0  0  0  0  0  0  0  0  0  0  0
   -5.5440   21.5580  -32.2400 C   0  0  0  0  0  0  0  0  0  0  0  0
   -5.1740   23.1970  -30.3130 C   0  0  0  0  0  0  0  0  0  0  0  0
   -5.3880   24.4430  -31.1980 C   0  0  0  0  0  0  0  0  0  0  0  0
   -6.4910   22.8240  -29.6000 C   0  0  0  0  0  0  0  0  0  0  0  0
   -4.1510   23.5510  -29.2480 C   0  0  0  0  0  0  0  0  0  0  0  0
   -4.2810   24.5440  -28.3330 N   0  0  0  0  0  0  0  0  0  0  0  0
   -3.1580   24.5050  -27.5910 C   0  0  0  0  0  0  0  0  0  0  0  0
   -2.8270   25.3350  -26.5210 C   0  0  0  0  0  0  0  0  0  0  0  0
   -1.5910   25.1240  -25.8790 C   0  0  0  0  0  0  0  0  0  0  0  0
   -1.2090   25.9580  -24.7700 C   0  0  0  0  0  0  0  0  0  0  0  0
   -0.9020   26.6280  -23.8780 N   0  0  0  0  0  0  0  0  0  0  0  0
   -0.7240   24.0950  -26.3190 C   0  0  0  0  0  0  0  0  0  0  0  0
   -1.0840   23.2730  -27.4020 C   0  0  0  0  0  0  0  0  0  0  0  0
   -2.3140   23.5080  -28.0180 C   0  0  0  0  0  0  0  0  0  0  0  0
   -2.9500   22.8950  -29.0800 C   0  0  0  0  0  0  0  0  0  0  0  0
   -2.5390   21.7820  -29.9230 C   0  0  0  0  0  0  0  0  0  0  0  0
   -1.4330   21.2060  -29.7360 O   0  0  0  0  0  0  0  0  0  0  0  0
   -8.8138   20.0089  -31.0617 H   0  0  0  0  0  0  0  0  0  0  0  0
   -8.4018   21.2321  -32.3109 H   0  0  0  0  0  0  0  0  0  0  0  0
  -10.0234   20.4595  -32.3109 H   0  0  0  0  0  0  0  0  0  0  0  0
   -8.0640   19.7040  -33.8430 H   0  0  0  0  0  0  0  0  0  0  0  0
   -6.7127   19.1933  -31.7914 H   0  0  0  0  0  0  0  0  0  0  0  0
   -7.7801   17.7455  -31.6649 H   0  0  0  0  0  0  0  0  0  0  0  0
   -5.5952   17.3919  -32.9287 H   0  0  0  0  0  0  0  0  0  0  0  0
   -7.1252   16.9614  -33.8223 H   0  0  0  0  0  0  0  0  0  0  0  0
   -5.1524   18.3269  -34.9944 H   0  0  0  0  0  0  0  0  0  0  0  0
   -6.9033   18.6492  -35.3319 H   0  0  0  0  0  0  0  0  0  0  0  0
   -3.6257   19.0385  -33.5161 H   0  0  0  0  0  0  0  0  0  0  0  0
   -2.1276   19.7817  -31.6839 H   0  0  0  0  0  0  0  0  0  0  0  0
   -6.5206   22.0402  -32.3943 H   0  0  0  0  0  0  0  0  0  0  0  0
   -5.5395   25.3252  -30.5587 H   0  0  0  0  0  0  0  0  0  0  0  0
   -4.5033   24.5980  -31.8331 H   0  0  0  0  0  0  0  0  0  0  0  0
   -6.2737   24.2939  -31.8331 H   0  0  0  0  0  0  0  0  0  0  0  0
   -6.3429   22.8659  -28.5108 H   0  0  0  0  0  0  0  0  0  0  0  0
   -7.2791   23.5343  -29.8905 H   0  0  0  0  0  0  0  0  0  0  0  0
   -6.7896   21.8059  -29.8905 H   0  0  0  0  0  0  0  0  0  0  0  0
   -5.0820   25.2040  -28.2190 H   0  0  0  0  0  0  0  0  0  0  0  0
   -3.5101   26.1304  -26.1882 H   0  0  0  0  0  0  0  0  0  0  0  0
    0.2384   23.9372  -25.8101 H   0  0  0  0  0  0  0  0  0  0  0  0
   -0.4176   22.4709  -27.7521 H   0  0  0  0  0  0  0  0  0  0  0  0
  1  2  1  0
  2  3  1  0
  3  4  1  0
  4  5  1  0
  5  6  1  0
  6  7  1  0
  7  8  2  0
  8  9  1  0
  9 10  2  0
 10 11  1  0
 11 12  2  0
 11 13  1  0
 13 14  1  0
 13 15  1  0
 13 16  1  0
 16 17  1  0
 17 18  1  0
 18 19  2  0
 19 20  1  0
 20 21  1  0
 21 22  3  0
 20 23  2  0
 23 24  1  0
 24 25  2  0
 25 26  1  0
 26 27  1  0
 27 28  2  0
 12  7  1  0
 26 16  2  0
 27 10  1  0
 25 18  1  0
  1 29  1  0
  1 30  1  0
  1 31  1  0
  2 32  1  0
  3 33  1  0
  3 34  1  0
  4 35  1  0
  4 36  1  0
  5 37  1  0
  5 38  1  0
  8 39  1  0
  9 40  1  0
 12 41  1  0
 14 42  1  0
 14 43  1  0
 14 44  1  0
 15 45  1  0
 15 46  1  0
 15 47  1  0
 17 48  1  0
 19 49  1  0
 23 50  1  0
 24 51  1  0
M  END
>  <UniqueID>  (5) 
4

>  <SMILES>  (5) 
CNCCCOc1ccc2c(c1)C(C)(C)c1[nH]c3cc(C#N)ccc3c1C2=O

>  <Energy>  (5) 
89.4421317123628

>  <Genealogy>  (5) 
CNCCCOc1ccc2c(c1)C(C)(C)c1[nH]c3cc(C#N)ccc3c1C2=O (3D coordinates assigned)
CNCCCOc1ccc2c(c1)C(C)(C)c1[nH]c3cc(C#N)ccc3c1C2=O (nonaromatic ring conformer: 89.4421317123628 kcal/mol)

>  <smiles>  (5) 
CNCCCOc1ccc2c(c1)C(C)(C)c1[nH]c3cc(C#N)ccc3c1C2=O

>  <score_type>  (5) 
oracle

>  <origin>  (5) 
adg

>  <m_score__min__energy>  (5) 
-8.6099999999999994

>  <m_primary>  (5) 
energy

$$$$
5:0
     RDKit          3D

 47 49  0  0  0  0  0  0  0  0999 V2000
    0.0440   21.4230  -34.8720 C   0  0  0  0  0  0  0  0  0  0  0  0
   -0.9500   20.4170  -34.2800 C   0  0  0  0  0  0  0  0  0  0  0  0
   -2.1680   21.0560  -33.7190 N   0  0  2  0  0  0  0  0  0  0  0  0
   -1.9280   21.5500  -32.3460 C   0  0  0  0  0  0  0  0  0  0  0  0
   -3.3090   20.1030  -33.6920 C   0  0  0  0  0  0  0  0  0  0  0  0
   -3.9950   19.9860  -32.3110 C   0  0  0  0  0  0  0  0  0  0  0  0
   -5.3660   20.5160  -32.3120 N   0  0  0  0  0  0  0  0  0  0  0  0
   -6.4950   19.7980  -32.5390 C   0  0  0  0  0  0  0  0  0  0  0  0
   -7.6250   20.5830  -32.3590 C   0  0  0  0  0  0  0  0  0  0  0  0
   -7.1520   21.8180  -31.9800 C   0  0  0  0  0  0  0  0  0  0  0  0
   -7.8440   22.9710  -31.6250 C   0  0  0  0  0  0  0  0  0  0  0  0
   -7.0980   24.0880  -31.2180 C   0  0  0  0  0  0  0  0  0  0  0  0
   -5.6810   24.0400  -31.1760 C   0  0  0  0  0  0  0  0  0  0  0  0
   -4.9160   25.2180  -30.7080 C   0  0  0  0  0  0  0  0  0  0  0  0
   -5.5270   26.2900  -30.4490 O   0  0  0  0  0  0  0  0  0  0  0  0
   -3.5020   25.1640  -30.4770 N   0  0  0  0  0  0  0  0  0  0  0  0
   -2.8520   24.5030  -29.3810 C   0  0  0  0  0  0  0  0  0  0  0  0
   -1.5640   24.8740  -28.9540 C   0  0  0  0  0  0  0  0  0  0  0  0
   -0.9780   24.2390  -27.8560 C   0  0  0  0  0  0  0  0  0  0  0  0
   -1.6720   23.2350  -27.1740 C   0  0  0  0  0  0  0  0  0  0  0  0
   -1.1040   22.6230  -26.1050 F   0  0  0  0  0  0  0  0  0  0  0  0
   -2.9560   22.8700  -27.5880 C   0  0  0  0  0  0  0  0  0  0  0  0
   -3.5470   23.5070  -28.6820 C   0  0  0  0  0  0  0  0  0  0  0  0
   -5.0140   22.8470  -31.5400 C   0  0  0  0  0  0  0  0  0  0  0  0
   -5.7820   21.7500  -31.9460 C   0  0  0  0  0  0  0  0  0  0  0  0
    0.5632   21.9485  -34.0569 H   0  0  0  0  0  0  0  0  0  0  0  0
    0.7799   20.8899  -35.4919 H   0  0  0  0  0  0  0  0  0  0  0  0
   -0.4979   22.1524  -35.4919 H   0  0  0  0  0  0  0  0  0  0  0  0
   -1.2556   19.7195  -35.0738 H   0  0  0  0  0  0  0  0  0  0  0  0
   -0.4400   19.9038  -33.4515 H   0  0  0  0  0  0  0  0  0  0  0  0
   -2.4280   21.8790  -34.3140 H   0  0  0  0  0  0  0  0  0  0  0  0
   -2.2893   20.8064  -31.6204 H   0  0  0  0  0  0  0  0  0  0  0  0
   -0.8502   21.7131  -32.1981 H   0  0  0  0  0  0  0  0  0  0  0  0
   -2.4660   22.4980  -32.1981 H   0  0  0  0  0  0  0  0  0  0  0  0
   -4.0584   20.4392  -34.4237 H   0  0  0  0  0  0  0  0  0  0  0  0
   -2.9012   19.1098  -33.9312 H   0  0  0  0  0  0  0  0  0  0  0  0
   -4.0281   18.9248  -32.0233 H   0  0  0  0  0  0  0  0  0  0  0  0
   -3.4085   20.5829  -31.5970 H   0  0  0  0  0  0  0  0  0  0  0  0
   -6.5121   18.7365  -32.8270 H   0  0  0  0  0  0  0  0  0  0  0  0
   -8.6748   20.2821  -32.4911 H   0  0  0  0  0  0  0  0  0  0  0  0
   -8.9428   23.0064  -31.6621 H   0  0  0  0  0  0  0  0  0  0  0  0
   -7.6188   25.0124  -30.9279 H   0  0  0  0  0  0  0  0  0  0  0  0
   -1.0167   25.6662  -29.4860 H   0  0  0  0  0  0  0  0  0  0  0  0
    0.0309   24.5294  -27.5276 H   0  0  0  0  0  0  0  0  0  0  0  0
   -3.5021   22.0800  -27.0517 H   0  0  0  0  0  0  0  0  0  0  0  0
   -4.5628   23.2253  -28.9962 H   0  0  0  0  0  0  0  0  0  0  0  0
   -3.9164   22.7830  -31.5047 H   0  0  0  0  0  0  0  0  0  0  0  0
  1  2  1  0
  2  3  1  0
  3  4  1  0
  3  5  1  0
  5  6  1  0
  6  7  1  0
  7  8  1  0
  8  9  2  0
  9 10  1  0
 10 11  2  0
 11 12  1  0
 12 13  2  0
 13 14  1  0
 14 15  2  0
 14 16  1  0
 16 17  1  0
 17 18  2  0
 18 19  1  0
 19 20  2  0
 20 21  1  0
 20 22  1  0
 22 23  2  0
 13 24  1  0
 24 25  2  0
 25  7  1  0
 25 10  1  0
 23 17  1  0
  1 26  1  0
  1 27  1  0
  1 28  1  0
  2 29  1  0
  2 30  1  0
  3 31  1  6
  4 32  1  0
  4 33  1  0
  4 34  1  0
  5 35  1  0
  5 36  1  0
  6 37  1  0
  6 38  1  0
  8 39  1  0
  9 40  1  0
 11 41  1  0
 12 42  1  0
 18 43  1  0
 19 44  1  0
 22 45  1  0
 23 46  1  0
 24 47  1  0
M  CHG  2   3   1  16  -1
M  END
>  <UniqueID>  (6) 
5

>  <SMILES>  (6) 
CC[N@H+](C)CCn1ccc2ccc(C(=O)[N-]c3ccc(F)cc3)cc21

>  <Energy>  (6) 
89.17922226447953

>  <Genealogy>  (6) 
CC[NH+](C)CCn1ccc2ccc(C(=O)[N-]c3ccc(F)cc3)cc21 (protonated)
CC[N@H+](C)CCn1ccc2ccc(C(=O)[N-]c3ccc(F)cc3)cc21 (chirality)
CC[N@H+](C)CCn1ccc2ccc(C(=O)[N-]c3ccc(F)cc3)cc21 (3D coordinates assigned)
CC[N@H+](C)CCn1ccc2ccc(C(=O)[N-]c3ccc(F)cc3)cc21 (optimized conformer: 89.17922226447953 kcal/mol)

>  <smiles>  (6) 
CCN(C)CCn1ccc2ccc(C(=O)Nc3ccc(F)cc3)cc21

>  <score_type>  (6) 
oracle

>  <origin>  (6) 
adg

>  <m_score__min__energy>  (6) 
-9.0600000000000005

>  <m_primary>  (6) 
energy

$$$$
6:0
     RDKit          3D

 43 44  0  0  0  0  0  0  0  0999 V2000
   -2.5140   21.5730  -31.7930 C   0  0  0  0  0  0  0  0  0  0  0  0
   -2.8360   21.1410  -33.2190 C   0  0  0  0  0  0  0  0  0  0  0  0
   -4.2200   21.4720  -33.5480 N   0  0  0  0  0  0  0  0  0  0  0  0
   -5.2850   20.6160  -33.1180 C   0  0  0  0  0  0  0  0  0  0  0  0
   -5.5250   19.4290  -33.8260 C   0  0  0  0  0  0  0  0  0  0  0  0
   -6.5660   18.5780  -33.4490 C   0  0  0  0  0  0  0  0  0  0  0  0
   -7.3720   18.9020  -32.3570 C   0  0  0  0  0  0  0  0  0  0  0  0
   -7.1320   20.0710  -31.6320 C   0  0  0  0  0  0  0  0  0  0  0  0
   -6.0840   20.9370  -31.9940 C   0  0  0  0  0  0  0  0  0  0  0  0
   -5.8120   22.1530  -31.1290 C   0  0  0  0  0  0  0  0  0  0  0  0
   -5.5080   23.3510  -31.9310 N   0  0  0  0  0  0  0  0  0  0  0  0
   -6.2300   24.5470  -31.4710 C   0  0  0  0  0  0  0  0  0  0  0  0
   -5.3780   25.3350  -30.4710 C   0  0  0  0  0  0  0  0  0  0  0  0
   -4.0020   24.8360  -30.4610 N   0  0  0  0  0  0  0  0  0  0  0  0
   -3.3490   24.2450  -29.3200 C   0  0  0  0  0  0  0  0  0  0  0  0
   -2.1220   24.7760  -28.8860 C   0  0  0  0  0  0  0  0  0  0  0  0
   -1.4630   24.2300  -27.7800 C   0  0  0  0  0  0  0  0  0  0  0  0
   -2.0240   23.1510  -27.0920 C   0  0  0  0  0  0  0  0  0  0  0  0
   -3.2460   22.6180  -27.5100 C   0  0  0  0  0  0  0  0  0  0  0  0
   -3.9090   23.1610  -28.6150 C   0  0  0  0  0  0  0  0  0  0  0  0
   -3.0163   20.8991  -31.0834 H   0  0  0  0  0  0  0  0  0  0  0  0
   -1.4265   21.5291  -31.6333 H   0  0  0  0  0  0  0  0  0  0  0  0
   -2.8668   22.6026  -31.6333 H   0  0  0  0  0  0  0  0  0  0  0  0
   -2.1628   21.6608  -33.9165 H   0  0  0  0  0  0  0  0  0  0  0  0
   -2.6983   20.0529  -33.3032 H   0  0  0  0  0  0  0  0  0  0  0  0
   -4.4500   22.4850  -33.6690 H   0  0  0  0  0  0  0  0  0  0  0  0
   -4.8887   19.1667  -34.6841 H   0  0  0  0  0  0  0  0  0  0  0  0
   -6.7507   17.6519  -34.0131 H   0  0  0  0  0  0  0  0  0  0  0  0
   -8.1976   18.2356  -32.0669 H   0  0  0  0  0  0  0  0  0  0  0  0
   -7.7686   20.3172  -30.7694 H   0  0  0  0  0  0  0  0  0  0  0  0
   -6.7007   22.3554  -30.5132 H   0  0  0  0  0  0  0  0  0  0  0  0
   -4.9333   21.9331  -30.5048 H   0  0  0  0  0  0  0  0  0  0  0  0
   -5.7550   23.1680  -32.9330 H   0  0  0  0  0  0  0  0  0  0  0  0
   -6.4583   25.1872  -32.3358 H   0  0  0  0  0  0  0  0  0  0  0  0
   -7.1609   24.2329  -30.9762 H   0  0  0  0  0  0  0  0  0  0  0  0
   -5.3753   26.3973  -30.7566 H   0  0  0  0  0  0  0  0  0  0  0  0
   -5.8070   25.2124  -29.4656 H   0  0  0  0  0  0  0  0  0  0  0  0
   -3.4620   24.9190  -31.3540 H   0  0  0  0  0  0  0  0  0  0  0  0
   -1.6766   25.6279  -29.4207 H   0  0  0  0  0  0  0  0  0  0  0  0
   -0.5013   24.6507  -27.4511 H   0  0  0  0  0  0  0  0  0  0  0  0
   -1.5044   22.7218  -26.2226 H   0  0  0  0  0  0  0  0  0  0  0  0
   -3.6879   21.7687  -26.9683 H   0  0  0  0  0  0  0  0  0  0  0  0
   -4.8731   22.7396  -28.9357 H   0  0  0  0  0  0  0  0  0  0  0  0
  1  2  1  0
  2  3  1  0
  3  4  1  0
  4  5  2  0
  5  6  1  0
  6  7  2  0
  7  8  1  0
  8  9  2  0
  9 10  1  0
 10 11  1  0
 11 12  1  0
 12 13  1  0
 13 14  1  0
 14 15  1  0
 15 16  2  0
 16 17  1  0
 17 18  2  0
 18 19  1  0
 19 20  2  0
  9  4  1  0
 20 15  1  0
  1 21  1  0
  1 22  1  0
  1 23  1  0
  2 24  1  0
  2 25  1  0
  3 26  1  0
  5 27  1  0
  6 28  1  0
  7 29  1  0
  8 30  1  0
 10 31  1  0
 10 32  1  0
 11 33  1  0
 12 34  1  0
 12 35  1  0
 13 36  1  0
 13 37  1  0
 14 38  1  0
 16 39  1  0
 17 40  1  0
 18 41  1  0
 19 42  1  0
 20 43  1  0
M  END
>  <UniqueID>  (7) 
6

>  <SMILES>  (7) 
CCNc1ccccc1CNCCNc1ccccc1

>  <Energy>  (7) 
44.052045155811484

>  <Genealogy>  (7) 
CCNc1ccccc1CNCCNc1ccccc1 (3D coordinates assigned)
CCNc1ccccc1CNCCNc1ccccc1 (optimized conformer: 44.052045155811484 kcal/mol)

>  <smiles>  (7) 
CCNc1ccccc1CNCCNc1ccccc1

>  <score_type>  (7) 
oracle

>  <origin>  (7) 
adg

>  <m_score__min__energy>  (7) 
-7.4500000000000002

>  <m_primary>  (7) 
energy

$$$$
7:0
     RDKit          3D

 44 46  0  0  0  0  0  0  0  0999 V2000
   -7.8830   22.4430  -30.9060 C   0  0  0  0  0  0  0  0  0  0  0  0
   -6.9330   21.4960  -31.5820 C   0  0  0  0  0  0  0  0  0  0  0  0
   -7.3530   20.1980  -31.9170 C   0  0  0  0  0  0  0  0  0  0  0  0
   -6.4830   19.3190  -32.5670 C   0  0  0  0  0  0  0  0  0  0  0  0
   -7.0620   17.5530  -33.0060 Br  0  0  0  0  0  0  0  0  0  0  0  0
   -5.1870   19.7280  -32.8890 C   0  0  0  0  0  0  0  0  0  0  0  0
   -4.7580   21.0190  -32.5700 C   0  0  0  0  0  0  0  0  0  0  0  0
   -2.9570   21.5210  -32.9860 Br  0  0  0  0  0  0  0  0  0  0  0  0
   -5.6320   21.9140  -31.9280 C   0  0  0  0  0  0  0  0  0  0  0  0
   -5.2070   23.2070  -31.6170 O   0  0  0  0  0  0  0  0  0  0  0  0
   -4.8160   23.5630  -30.2930 C   0  0  0  0  0  0  0  0  0  0  0  0
   -4.0040   24.8220  -30.3450 C   0  0  0  0  0  0  0  0  0  0  0  0
   -4.5210   25.8630  -30.8310 O   0  0  0  0  0  0  0  0  0  0  0  0
   -2.7250   24.9180  -29.7100 N   0  0  0  0  0  0  0  0  0  0  0  0
   -1.9330   23.8190  -29.2390 C   0  0  0  0  0  0  0  0  0  0  0  0
   -1.8190   22.6400  -29.9960 C   0  0  0  0  0  0  0  0  0  0  0  0
   -1.0530   21.5700  -29.5270 C   0  0  0  0  0  0  0  0  0  0  0  0
   -0.3800   21.6730  -28.3110 C   0  0  0  0  0  0  0  0  0  0  0  0
   -0.4590   22.8520  -27.5640 C   0  0  0  0  0  0  0  0  0  0  0  0
   -1.2220   23.9360  -28.0280 C   0  0  0  0  0  0  0  0  0  0  0  0
   -1.2860   25.1440  -27.2550 N   0  0  0  0  0  0  0  0  0  0  0  0
   -0.4180   26.2830  -27.4910 C   0  0  0  0  0  0  0  0  0  0  0  0
   -0.8270   27.3250  -26.4600 C   0  0  0  0  0  0  0  0  0  0  0  0
   -1.6270   26.5720  -25.3960 C   0  0  0  0  0  0  0  0  0  0  0  0
   -2.0910   25.2790  -26.0540 C   0  0  0  0  0  0  0  0  0  0  0  0
   -7.7843   22.3447  -29.8149 H   0  0  0  0  0  0  0  0  0  0  0  0
   -7.6461   23.4750  -31.2041 H   0  0  0  0  0  0  0  0  0  0  0  0
   -8.9143   22.2028  -31.2041 H   0  0  0  0  0  0  0  0  0  0  0  0
   -8.3731   19.8717  -31.6660 H   0  0  0  0  0  0  0  0  0  0  0  0
   -4.5020   19.0319  -33.3952 H   0  0  0  0  0  0  0  0  0  0  0  0
   -5.7115   23.7271  -29.6757 H   0  0  0  0  0  0  0  0  0  0  0  0
   -4.2168   22.7526  -29.8522 H   0  0  0  0  0  0  0  0  0  0  0  0
   -2.3361   22.5594  -30.9635 H   0  0  0  0  0  0  0  0  0  0  0  0
   -0.9810   20.6452  -30.1182 H   0  0  0  0  0  0  0  0  0  0  0  0
    0.2141   20.8255  -27.9385 H   0  0  0  0  0  0  0  0  0  0  0  0
    0.0792   22.9311  -26.6079 H   0  0  0  0  0  0  0  0  0  0  0  0
    0.6357   25.9987  -27.3534 H   0  0  0  0  0  0  0  0  0  0  0  0
   -0.5149   26.6646  -28.5181 H   0  0  0  0  0  0  0  0  0  0  0  0
    0.0636   27.7893  -26.0115 H   0  0  0  0  0  0  0  0  0  0  0  0
   -1.4204   28.1317  -26.9152 H   0  0  0  0  0  0  0  0  0  0  0  0
   -0.9916   26.3510  -24.5257 H   0  0  0  0  0  0  0  0  0  0  0  0
   -2.4785   27.1682  -25.0361 H   0  0  0  0  0  0  0  0  0  0  0  0
   -1.9247   24.4244  -25.3817 H   0  0  0  0  0  0  0  0  0  0  0  0
   -3.1664   25.3014  -26.2841 H   0  0  0  0  0  0  0  0  0  0  0  0
  1  2  1  0
  2  3  2  0
  3  4  1  0
  4  5  1  0
  4  6  2  0
  6  7  1  0
  7  8  1  0
  7  9  2  0
  9 10  1  0
 10 11  1  0
 11 12  1  0
 12 13  2  0
 12 14  1  0
 14 15  1  0
 15 16  2  0
 16 17  1  0
 17 18  2  0
 18 19  1  0
 19 20  2  0
 20 21  1  0
 21 22  1  0
 22 23  1  0
 23 24  1  0
 24 25  1  0
  9  2  1  0
 20 15  1  0
 25 21  1  0
  1 26  1  0
  1 27  1  0
  1 28  1  0
  3 29  1  0
  6 30  1  0
 11 31  1  0
 11 32  1  0
 16 33  1  0
 17 34  1  0
 18 35  1  0
 19 36  1  0
 22 37  1  0
 22 38  1  0
 23 39  1  0
 23 40  1  0
 24 41  1  0
 24 42  1  0
 25 43  1  0
 25 44  1  0
M  CHG  1  14  -1
M  END
>  <UniqueID>  (8) 
7

>  <SMILES>  (8) 
Cc1cc(Br)cc(Br)c1OCC(=O)[N-]c1ccccc1N1CCCC1

>  <Energy>  (8) 
59.44329890853023

>  <Genealogy>  (8) 
Cc1cc(Br)cc(Br)c1OCC(=O)[N-]c1ccccc1N1CCCC1 (protonated)
Cc1cc(Br)cc(Br)c1OCC(=O)[N-]c1ccccc1N1CCCC1 (3D coordinates assigned)
Cc1cc(Br)cc(Br)c1OCC(=O)[N-]c1ccccc1N1CCCC1 (nonaromatic ring conformer: 59.44329890853023 kcal/mol)

>  <smiles>  (8) 
Cc1cc(Br)cc(Br)c1OCC(=O)Nc1ccccc1N1CCCC1

>  <score_type>  (8) 
oracle

>  <origin>  (8) 
adg

>  <m_score__min__energy>  (8) 
-10.83

>  <m_primary>  (8) 
energy

$$$$
8:0
     RDKit          3D

 56 58  0  0  0  0  0  0  0  0999 V2000
   -5.1510   17.6350  -32.3660 C   0  0  0  0  0  0  0  0  0  0  0  0
   -4.4420   18.1630  -33.5450 N   0  0  0  0  0  0  0  0  0  0  0  0
   -5.4230   18.5050  -34.5890 C   0  0  0  0  0  0  0  0  0  0  0  0
   -3.6330   19.3510  -33.1930 C   0  0  0  0  0  0  0  0  0  0  0  0
   -4.0290   19.8850  -31.8120 C   0  0  0  0  0  0  0  0  0  0  0  0
   -3.3700   21.1720  -31.5640 N   0  0  0  0  0  0  0  0  0  0  0  0
   -3.8960   22.2000  -32.4680 C   0  0  0  0  0  0  0  0  0  0  0  0
   -5.1520   22.7960  -31.8830 C   0  0  0  0  0  0  0  0  0  0  0  0
   -5.1750   23.9630  -31.1140 C   0  0  0  0  0  0  0  0  0  0  0  0
   -4.0420   24.7240  -30.6810 N   0  0  0  0  0  0  0  0  0  0  0  0
   -3.1130   24.2310  -29.7080 C   0  0  0  0  0  0  0  0  0  0  0  0
   -3.2750   23.0880  -29.1990 O   0  0  0  0  0  0  0  0  0  0  0  0
   -1.9860   25.0380  -29.3470 N   0  0  0  0  0  0  0  0  0  0  0  0
   -1.6450   25.4890  -28.0290 C   0  0  0  0  0  0  0  0  0  0  0  0
   -2.3090   24.9230  -26.9330 C   0  0  0  0  0  0  0  0  0  0  0  0
   -1.9930   25.3210  -25.6300 C   0  0  0  0  0  0  0  0  0  0  0  0
   -0.9980   26.2770  -25.4120 C   0  0  0  0  0  0  0  0  0  0  0  0
   -0.3130   26.8290  -26.4970 C   0  0  0  0  0  0  0  0  0  0  0  0
   -0.6270   26.4340  -27.8010 C   0  0  0  0  0  0  0  0  0  0  0  0
   -6.7610   24.4080  -30.8080 S   0  0  0  0  0  0  0  0  0  0  0  0
   -7.4690   23.1050  -31.6000 C   0  0  0  0  0  0  0  0  0  0  0  0
   -6.4570   22.3150  -32.1630 C   0  0  0  0  0  0  0  0  0  0  0  0
   -6.7590   21.0880  -32.9840 C   0  0  0  0  0  0  0  0  0  0  0  0
   -7.3750   19.9650  -32.1330 C   0  0  0  0  0  0  0  0  0  0  0  0
   -8.6480   20.3700  -31.3590 C   0  0  0  0  0  0  0  0  0  0  0  0
   -9.4470   21.4890  -32.0490 C   0  0  0  0  0  0  0  0  0  0  0  0
   -8.9630   22.9150  -31.7020 C   0  0  0  0  0  0  0  0  0  0  0  0
   -4.6619   17.9992  -31.4505 H   0  0  0  0  0  0  0  0  0  0  0  0
   -6.1966   17.9762  -32.3837 H   0  0  0  0  0  0  0  0  0  0  0  0
   -5.1237   16.5355  -32.3837 H   0  0  0  0  0  0  0  0  0  0  0  0
   -6.3614   18.8321  -34.1174 H   0  0  0  0  0  0  0  0  0  0  0  0
   -5.0245   19.3172  -35.2147 H   0  0  0  0  0  0  0  0  0  0  0  0
   -5.6158   17.6211  -35.2147 H   0  0  0  0  0  0  0  0  0  0  0  0
   -2.5688   19.0728  -33.1812 H   0  0  0  0  0  0  0  0  0  0  0  0
   -3.8134   20.1366  -33.9415 H   0  0  0  0  0  0  0  0  0  0  0  0
   -5.1199   20.0208  -31.7730 H   0  0  0  0  0  0  0  0  0  0  0  0
   -3.7151   19.1643  -31.0425 H   0  0  0  0  0  0  0  0  0  0  0  0
   -3.5930   21.4680  -30.5840 H   0  0  0  0  0  0  0  0  0  0  0  0
   -3.1430   22.9909  -32.6001 H   0  0  0  0  0  0  0  0  0  0  0  0
   -4.1279   21.7448  -33.4422 H   0  0  0  0  0  0  0  0  0  0  0  0
   -4.0210   25.7430  -30.9060 H   0  0  0  0  0  0  0  0  0  0  0  0
   -3.0842   24.1603  -27.0983 H   0  0  0  0  0  0  0  0  0  0  0  0
   -2.5285   24.8808  -24.7759 H   0  0  0  0  0  0  0  0  0  0  0  0
   -0.7543   26.5946  -24.3874 H   0  0  0  0  0  0  0  0  0  0  0  0
    0.4755   27.5764  -26.3251 H   0  0  0  0  0  0  0  0  0  0  0  0
   -0.0768   26.8631  -28.6514 H   0  0  0  0  0  0  0  0  0  0  0  0
   -7.4669   21.3590  -33.7811 H   0  0  0  0  0  0  0  0  0  0  0  0
   -5.8120   20.7172  -33.4033 H   0  0  0  0  0  0  0  0  0  0  0  0
   -7.6308   19.1293  -32.8009 H   0  0  0  0  0  0  0  0  0  0  0  0
   -6.6220   19.6979  -31.3769 H   0  0  0  0  0  0  0  0  0  0  0  0
   -9.2954   19.4858  -31.2639 H   0  0  0  0  0  0  0  0  0  0  0  0
   -8.3266   20.7542  -30.3797 H   0  0  0  0  0  0  0  0  0  0  0  0
   -9.3651   21.3515  -33.1373 H   0  0  0  0  0  0  0  0  0  0  0  0
  -10.4829   21.4086  -31.6878 H   0  0  0  0  0  0  0  0  0  0  0  0
   -9.3354   23.5950  -32.4823 H   0  0  0  0  0  0  0  0  0  0  0  0
   -9.3557   23.1226  -30.6957 H   0  0  0  0  0  0  0  0  0  0  0  0
  1  2  1  0
  2  3  1  0
  2  4  1  0
  4  5  1  0
  5  6  1  0
  6  7  1  0
  7  8  1  0
  8  9  2  0
  9 10  1  0
 10 11  1  0
 11 12  2  0
 11 13  1  0
 13 14  1  0
 14 15  2  0
 15 16  1  0
 16 17  2  0
 17 18  1  0
 18 19  2  0
  9 20  1  0
 20 21  1  0
 21 22  2  0
 22 23  1  0
 23 24  1  0
 24 25  1  0
 25 26  1  0
 26 27  1  0
 22  8  1  0
 19 14  1  0
 27 21  1  0
  1 28  1  0
  1 29  1  0
  1 30  1  0
  3 31  1  0
  3 32  1  0
  3 33  1  0
  4 34  1  0
  4 35  1  0
  5 36  1  0
  5 37  1  0
  6 38  1  0
  7 39  1  0
  7 40  1  0
 10 41  1  0
 15 42  1  0
 16 43  1  0
 17 44  1  0
 18 45  1  0
 19 46  1  0
 23 47  1  0
 23 48  1  0
 24 49  1  0
 24 50  1  0
 25 51  1  0
 25 52  1  0
 26 53  1  0
 26 54  1  0
 27 55  1  0
 27 56  1  0
M  CHG  1  13  -1
M  END
>  <UniqueID>  (9) 
8

>  <SMILES>  (9) 
CN(C)CCNCc1c(NC(=O)[N-]c2ccccc2)sc2c1CCCCC2

>  <Energy>  (9) 
93.41256135643522

>  <Genealogy>  (9) 
CN(C)CCNCc1c(NC(=O)[N-]c2ccccc2)sc2c1CCCCC2 (protonated)
CN(C)CCNCc1c(NC(=O)[N-]c2ccccc2)sc2c1CCCCC2 (3D coordinates assigned)
CN(C)CCNCc1c(NC(=O)[N-]c2ccccc2)sc2c1CCCCC2 (nonaromatic ring conformer: 93.41256135643522 kcal/mol)

>  <smiles>  (9) 
CN(C)CCNCc1c(NC(=O)Nc2ccccc2)sc2c1CCCCC2

>  <score_type>  (9) 
oracle

>  <origin>  (9) 
adg

>  <m_score__min__energy>  (9) 
-9.0899999999999999

>  <m_primary>  (9) 
energy

$$$$
9:0
     RDKit          3D

 51 53  0  0  0  0  0  0  0  0999 V2000
   -2.3350   25.7170  -25.7430 C   0  0  0  0  0  0  0  0  0  0  0  0
   -1.3850   24.6770  -26.3270 C   0  0  0  0  0  0  0  0  0  0  0  0
   -0.5210   25.2820  -27.4430 C   0  0  0  0  0  0  0  0  0  0  0  0
   -0.8700   24.7230  -28.8280 C   0  0  0  0  0  0  0  0  0  0  0  0
   -2.1150   25.2980  -29.3310 N   0  0  0  0  0  0  0  0  0  0  0  0
   -3.3430   24.5720  -29.4440 C   0  0  0  0  0  0  0  0  0  0  0  0
   -3.9380   24.1650  -28.4090 O   0  0  0  0  0  0  0  0  0  0  0  0
   -3.8400   24.2780  -30.7190 O   0  0  0  0  0  0  0  0  0  0  0  0
   -4.7040   23.2160  -31.0240 C   0  0  0  0  0  0  0  0  0  0  0  0
   -4.3020   21.8740  -30.9390 C   0  0  0  0  0  0  0  0  0  0  0  0
   -5.1960   20.8490  -31.2520 C   0  0  0  0  0  0  0  0  0  0  0  0
   -6.5080   21.1430  -31.6650 C   0  0  0  0  0  0  0  0  0  0  0  0
   -6.9350   22.4870  -31.6820 C   0  0  0  0  0  0  0  0  0  0  0  0
   -6.0240   23.5110  -31.3810 C   0  0  0  0  0  0  0  0  0  0  0  0
   -8.3420   22.8500  -32.0920 C   0  0  0  0  0  0  0  0  0  0  0  0
   -9.3000   21.7450  -31.8770 N   0  0  2  0  0  0  0  0  0  0  0  0
   -9.6150   21.5540  -30.4480 C   0  0  0  0  0  0  0  0  0  0  0  0
   -8.8270   20.5050  -32.5250 C   0  0  0  0  0  0  0  0  0  0  0  0
   -7.4750   20.0090  -31.9600 C   0  0  1  0  0  0  0  0  0  0  0  0
   -6.8700   18.9880  -32.9070 C   0  0  0  0  0  0  0  0  0  0  0  0
   -6.9910   17.6070  -32.6530 C   0  0  0  0  0  0  0  0  0  0  0  0
   -6.4160   16.6760  -33.5210 C   0  0  0  0  0  0  0  0  0  0  0  0
   -5.7090   17.1090  -34.6450 C   0  0  0  0  0  0  0  0  0  0  0  0
   -5.5720   18.4750  -34.9000 C   0  0  0  0  0  0  0  0  0  0  0  0
   -6.1460   19.4120  -34.0350 C   0  0  0  0  0  0  0  0  0  0  0  0
   -2.2956   25.6738  -24.6446 H   0  0  0  0  0  0  0  0  0  0  0  0
   -2.0343   26.7195  -26.0816 H   0  0  0  0  0  0  0  0  0  0  0  0
   -3.3605   25.5080  -26.0816 H   0  0  0  0  0  0  0  0  0  0  0  0
   -0.7286   24.3014  -25.5282 H   0  0  0  0  0  0  0  0  0  0  0  0
   -1.9830   23.8581  -26.7533 H   0  0  0  0  0  0  0  0  0  0  0  0
   -0.6725   26.3715  -27.4544 H   0  0  0  0  0  0  0  0  0  0  0  0
    0.5264   25.0202  -27.2324 H   0  0  0  0  0  0  0  0  0  0  0  0
   -0.0556   24.9629  -29.5274 H   0  0  0  0  0  0  0  0  0  0  0  0
   -0.9989   23.6340  -28.7419 H   0  0  0  0  0  0  0  0  0  0  0  0
   -3.2770   21.6288  -30.6240 H   0  0  0  0  0  0  0  0  0  0  0  0
   -4.8713   19.8008  -31.1749 H   0  0  0  0  0  0  0  0  0  0  0  0
   -6.3523   24.5599  -31.4264 H   0  0  0  0  0  0  0  0  0  0  0  0
   -8.6680   23.7188  -31.5013 H   0  0  0  0  0  0  0  0  0  0  0  0
   -8.3278   23.0737  -33.1689 H   0  0  0  0  0  0  0  0  0  0  0  0
  -10.1960   22.0170  -32.3500 H   0  0  0  0  0  0  0  0  0  0  0  0
   -8.8345   22.0272  -29.8341 H   0  0  0  0  0  0  0  0  0  0  0  0
  -10.5883   22.0142  -30.2224 H   0  0  0  0  0  0  0  0  0  0  0  0
   -9.6570   20.4782  -30.2224 H   0  0  0  0  0  0  0  0  0  0  0  0
   -9.5811   19.7190  -32.3716 H   0  0  0  0  0  0  0  0  0  0  0  0
   -8.6778   20.7262  -33.5922 H   0  0  0  0  0  0  0  0  0  0  0  0
   -7.6714   19.5277  -30.9906 H   0  0  0  0  0  0  0  0  0  0  0  0
   -7.5415   17.2603  -31.7660 H   0  0  0  0  0  0  0  0  0  0  0  0
   -6.5202   15.5997  -33.3190 H   0  0  0  0  0  0  0  0  0  0  0  0
   -5.2601   16.3740  -35.3293 H   0  0  0  0  0  0  0  0  0  0  0  0
   -5.0113   18.8148  -35.7833 H   0  0  0  0  0  0  0  0  0  0  0  0
   -6.0303   20.4868  -34.2384 H   0  0  0  0  0  0  0  0  0  0  0  0
  1  2  1  0
  2  3  1  0
  3  4  1  0
  4  5  1  0
  5  6  1  0
  6  7  2  0
  6  8  1  0
  8  9  1  0
  9 10  2  0
 10 11  1  0
 11 12  2  0
 12 13  1  0
 13 14  2  0
 13 15  1  0
 15 16  1  0
 16 17  1  0
 16 18  1  0
 18 19  1  0
 19 20  1  0
 20 21  2  0
 21 22  1  0
 22 23  2  0
 23 24  1  0
 24 25  2  0
 14  9  1  0
 25 20  1  0
 19 12  1  0
  1 26  1  0
  1 27  1  0
  1 28  1  0
  2 29  1  0
  2 30  1  0
  3 31  1  0
  3 32  1  0
  4 33  1  0
  4 34  1  0
 10 35  1  0
 11 36  1  0
 14 37  1  0
 15 38  1  0
 15 39  1  0
 16 40  1  6
 17 41  1  0
 17 42  1  0
 17 43  1  0
 18 44  1  0
 18 45  1  0
 19 46  1  1
 21 47  1  0
 22 48  1  0
 23 49  1  0
 24 50  1  0
 25 51  1  0
M  CHG  2   5  -1  16   1
M  END
>  <UniqueID>  (10) 
9

>  <SMILES>  (10) 
CCCC[N-]C(=O)Oc1ccc2c(c1)C[N@H+](C)C[C@H]2c1ccccc1

>  <Energy>  (10) 
55.820055189180444

>  <Genealogy>  (10) 
CCCC[N-]C(=O)Oc1ccc2c(c1)C[NH+](C)CC2c1ccccc1 (protonated)
CCCC[N-]C(=O)Oc1ccc2c(c1)C[N@H+](C)C[C@H]2c1ccccc1 (chirality)
CCCC[N-]C(=O)Oc1ccc2c(c1)C[N@H+](C)C[C@H]2c1ccccc1 (3D coordinates assigned)
CCCC[N-]C(=O)Oc1ccc2c(c1)C[N@H+](C)C[C@H]2c1ccccc1 (nonaromatic ring conformer: 55.820055189180444 kcal/mol)

>  <smiles>  (10) 
CCCCNC(=O)Oc1ccc2c(c1)CN(C)CC2c1ccccc1

>  <score_type>  (10) 
oracle

>  <origin>  (10) 
adg

>  <m_score__min__energy>  (10) 
-9.8900000000000006

>  <m_primary>  (10) 
energy

$$$$
10:0
     RDKit          3D

 48 49  0  0  0  0  0  0  0  0999 V2000
   -6.4930   25.6880  -29.2370 C   0  0  0  0  0  0  0  0  0  0  0  0
   -5.9530   24.3310  -29.6830 C   0  0  0  0  0  0  0  0  0  0  0  0
   -6.2790   24.0240  -31.1530 C   0  0  0  0  0  0  0  0  0  0  0  0
   -5.5900   22.7990  -31.6200 N   0  0  0  0  0  0  0  0  0  0  0  0
   -4.2180   22.7410  -31.6310 C   0  0  0  0  0  0  0  0  0  0  0  0
   -3.5460   23.7430  -31.2500 O   0  0  0  0  0  0  0  0  0  0  0  0
   -3.5650   21.6040  -32.0360 N   0  0  0  0  0  0  0  0  0  0  0  0
   -2.0880   21.5530  -32.0010 C   0  0  0  0  0  0  0  0  0  0  0  0
   -1.5960   21.3600  -30.5710 C   0  0  0  0  0  0  0  0  0  0  0  0
   -4.2760   20.4960  -32.4120 C   0  0  0  0  0  0  0  0  0  0  0  0
   -3.6620   19.4360  -32.7220 O   0  0  0  0  0  0  0  0  0  0  0  0
   -5.6830   20.5300  -32.4370 C   0  0  0  0  0  0  0  0  0  0  0  0
   -6.4990   19.4400  -32.8380 C   0  0  0  0  0  0  0  0  0  0  0  0
   -5.9450   18.2120  -33.3370 N   0  0  0  0  0  0  0  0  0  0  0  0
   -5.7200   18.0660  -34.7800 C   0  0  0  0  0  0  0  0  0  0  0  0
   -4.3750   17.3980  -35.0500 C   0  0  0  0  0  0  0  0  0  0  0  0
   -5.9490   17.0260  -32.4720 C   0  0  0  0  0  0  0  0  0  0  0  0
   -6.3120   17.4080  -31.0410 C   0  0  0  0  0  0  0  0  0  0  0  0
   -7.8510   19.5570  -32.7770 N   0  0  0  0  0  0  0  0  0  0  0  0
   -8.4460   20.6950  -32.3420 C   0  0  0  0  0  0  0  0  0  0  0  0
   -9.9330   20.8010  -32.3270 C   0  0  0  0  0  0  0  0  0  0  0  0
   -7.6850   21.7570  -31.9850 N   0  0  0  0  0  0  0  0  0  0  0  0
   -6.3240   21.7100  -32.0130 C   0  0  0  0  0  0  0  0  0  0  0  0
   -6.5107   25.7324  -28.1380 H   0  0  0  0  0  0  0  0  0  0  0  0
   -5.8442   26.4866  -29.6258 H   0  0  0  0  0  0  0  0  0  0  0  0
   -7.5132   25.8225  -29.6258 H   0  0  0  0  0  0  0  0  0  0  0  0
   -4.8605   24.3265  -29.5553 H   0  0  0  0  0  0  0  0  0  0  0  0
   -6.4348   23.5592  -29.0648 H   0  0  0  0  0  0  0  0  0  0  0  0
   -7.3652   23.8839  -31.2560 H   0  0  0  0  0  0  0  0  0  0  0  0
   -5.9319   24.8688  -31.7660 H   0  0  0  0  0  0  0  0  0  0  0  0
   -1.7397   20.7134  -32.6204 H   0  0  0  0  0  0  0  0  0  0  0  0
   -1.6892   22.5013  -32.3903 H   0  0  0  0  0  0  0  0  0  0  0  0
   -2.3833   21.6688  -29.8676 H   0  0  0  0  0  0  0  0  0  0  0  0
   -1.3529   20.2998  -30.4068 H   0  0  0  0  0  0  0  0  0  0  0  0
   -0.6969   21.9721  -30.4068 H   0  0  0  0  0  0  0  0  0  0  0  0
   -6.5227   17.4491  -35.2102 H   0  0  0  0  0  0  0  0  0  0  0  0
   -5.7183   19.0647  -35.2410 H   0  0  0  0  0  0  0  0  0  0  0  0
   -3.8874   17.1558  -34.0942 H   0  0  0  0  0  0  0  0  0  0  0  0
   -4.5335   16.4739  -35.6252 H   0  0  0  0  0  0  0  0  0  0  0  0
   -3.7345   18.0827  -35.6252 H   0  0  0  0  0  0  0  0  0  0  0  0
   -6.6867   16.3038  -32.8518 H   0  0  0  0  0  0  0  0  0  0  0  0
   -4.9435   16.5800  -32.4763 H   0  0  0  0  0  0  0  0  0  0  0  0
   -5.7289   16.7944  -30.3385 H   0  0  0  0  0  0  0  0  0  0  0  0
   -6.0834   18.4713  -30.8761 H   0  0  0  0  0  0  0  0  0  0  0  0
   -7.3855   17.2339  -30.8761 H   0  0  0  0  0  0  0  0  0  0  0  0
  -10.2883   20.8263  -31.2863 H   0  0  0  0  0  0  0  0  0  0  0  0
  -10.2401   21.7233  -32.8418 H   0  0  0  0  0  0  0  0  0  0  0  0
  -10.3678   19.9316  -32.8418 H   0  0  0  0  0  0  0  0  0  0  0  0
  1  2  1  0
  2  3  1  0
  3  4  1  0
  4  5  1  0
  5  6  2  0
  5  7  1  0
  7  8  1  0
  8  9  1  0
  7 10  1  0
 10 11  2  0
 10 12  1  0
 12 13  2  0
 13 14  1  0
 14 15  1  0
 15 16  1  0
 14 17  1  0
 17 18  1  0
 13 19  1  0
 19 20  2  0
 20 21  1  0
 20 22  1  0
 22 23  2  0
 23  4  1  0
 23 12  1  0
  1 24  1  0
  1 25  1  0
  1 26  1  0
  2 27  1  0
  2 28  1  0
  3 29  1  0
  3 30  1  0
  8 31  1  0
  8 32  1  0
  9 33  1  0
  9 34  1  0
  9 35  1  0
 15 36  1  0
 15 37  1  0
 16 38  1  0
 16 39  1  0
 16 40  1  0
 17 41  1  0
 17 42  1  0
 18 43  1  0
 18 44  1  0
 18 45  1  0
 21 46  1  0
 21 47  1  0
 21 48  1  0
M  END
>  <UniqueID>  (11) 
10

>  <SMILES>  (11) 
CCCn1c(=O)n(CC)c(=O)c2c(N(CC)CC)nc(C)nc21

>  <Energy>  (11) 
50.669232276280766

>  <Genealogy>  (11) 
CCCn1c(=O)n(CC)c(=O)c2c(N(CC)CC)nc(C)nc21 (3D coordinates assigned)
CCCn1c(=O)n(CC)c(=O)c2c(N(CC)CC)nc(C)nc21 (optimized conformer: 50.669232276280766 kcal/mol)

>  <smiles>  (11) 
CCCn1c(=O)n(CC)c(=O)c2c(N(CC)CC)nc(C)nc21

>  <score_type>  (11) 
oracle

>  <origin>  (11) 
adg

>  <m_score__min__energy>  (11) 
-6.8399999999999999

>  <m_primary>  (11) 
energy

$$$$
11:0
     RDKit          3D

 74 77  0  0  0  0  0  0  0  0999 V2000
   -2.1370   19.2830  -34.1670 C   0  0  0  0  0  0  0  0  0  0  0  0
   -2.2750   17.7690  -34.3940 C   0  0  0  0  0  0  0  0  0  0  0  0
   -3.6720   17.2610  -34.4080 N   0  0  0  0  0  0  0  0  0  0  0  0
   -4.7040   18.1440  -34.9960 C   0  0  0  0  0  0  0  0  0  0  0  0
   -6.0910   17.5190  -34.8770 C   0  0  0  0  0  0  0  0  0  0  0  0
   -3.8070   15.8360  -34.7900 C   0  0  0  0  0  0  0  0  0  0  0  0
   -3.9280   14.8850  -33.5930 C   0  0  0  0  0  0  0  0  0  0  0  0
   -4.0070   15.6500  -32.4080 O   0  0  0  0  0  0  0  0  0  0  0  0
   -5.2850   15.5250  -31.8110 C   0  0  0  0  0  0  0  0  0  0  0  0
   -5.8070   16.8850  -31.3210 C   0  0  0  0  0  0  0  0  0  0  0  0
   -5.1700   17.9940  -32.0320 N   0  0  0  0  0  0  0  0  0  0  0  0
   -5.6740   19.3300  -31.8950 C   0  0  0  0  0  0  0  0  0  0  0  0
   -7.0470   19.5870  -32.0320 C   0  0  0  0  0  0  0  0  0  0  0  0
   -7.9680   18.5420  -32.2630 C   0  0  0  0  0  0  0  0  0  0  0  0
   -9.3260   18.8110  -32.4140 C   0  0  0  0  0  0  0  0  0  0  0  0
   -9.7890   20.1210  -32.3430 C   0  0  0  0  0  0  0  0  0  0  0  0
   -8.8960   21.1700  -32.1210 C   0  0  0  0  0  0  0  0  0  0  0  0
   -7.5100   20.9260  -31.9600 C   0  0  0  0  0  0  0  0  0  0  0  0
   -6.6170   21.9580  -31.7530 N   0  0  0  0  0  0  0  0  0  0  0  0
   -6.9850   23.3110  -32.2260 C   0  0  0  0  0  0  0  0  0  0  0  0
   -5.3290   21.6820  -31.3260 C   0  0  0  0  0  0  0  0  0  0  0  0
   -4.8070   20.3770  -31.5330 C   0  0  0  0  0  0  0  0  0  0  0  0
   -3.4260   20.1470  -31.3970 C   0  0  0  0  0  0  0  0  0  0  0  0
   -2.5700   21.1650  -30.9990 C   0  0  0  0  0  0  0  0  0  0  0  0
   -3.0850   22.4040  -30.6080 C   0  0  0  0  0  0  0  0  0  0  0  0
   -2.2240   23.3700  -30.0640 C   0  0  0  0  0  0  0  0  0  0  0  0
   -2.7280   24.5510  -29.5140 C   0  0  0  0  0  0  0  0  0  0  0  0
   -1.8110   25.4690  -28.9740 O   0  0  0  0  0  0  0  0  0  0  0  0
   -1.6260   25.7780  -27.5900 C   0  0  0  0  0  0  0  0  0  0  0  0
   -1.2470   24.5240  -26.7870 C   0  0  0  0  0  0  0  0  0  0  0  0
    0.0300   23.8330  -27.2800 C   0  0  0  0  0  0  0  0  0  0  0  0
    0.4440   24.3590  -28.5750 N   0  0  0  0  0  0  0  0  0  0  0  0
   -4.1160   24.7590  -29.5100 C   0  0  0  0  0  0  0  0  0  0  0  0
   -4.9780   23.8130  -30.0710 C   0  0  0  0  0  0  0  0  0  0  0  0
   -4.4780   22.6540  -30.7050 C   0  0  0  0  0  0  0  0  0  0  0  0
   -2.1180   19.4916  -33.0871 H   0  0  0  0  0  0  0  0  0  0  0  0
   -1.2027   19.6389  -34.6257 H   0  0  0  0  0  0  0  0  0  0  0  0
   -2.9916   19.8019  -34.6257 H   0  0  0  0  0  0  0  0  0  0  0  0
   -1.8136   17.5256  -35.3624 H   0  0  0  0  0  0  0  0  0  0  0  0
   -1.7797   17.2835  -33.5402 H   0  0  0  0  0  0  0  0  0  0  0  0
   -4.6971   19.1079  -34.4660 H   0  0  0  0  0  0  0  0  0  0  0  0
   -4.4752   18.2888  -36.0622 H   0  0  0  0  0  0  0  0  0  0  0  0
   -6.3505   17.4020  -33.8145 H   0  0  0  0  0  0  0  0  0  0  0  0
   -6.8301   18.1711  -35.3654 H   0  0  0  0  0  0  0  0  0  0  0  0
   -6.0922   16.5334  -35.3654 H   0  0  0  0  0  0  0  0  0  0  0  0
   -4.7075   15.7272  -35.4122 H   0  0  0  0  0  0  0  0  0  0  0  0
   -2.8885   15.5594  -35.3284 H   0  0  0  0  0  0  0  0  0  0  0  0
   -4.8354   14.2722  -33.6983 H   0  0  0  0  0  0  0  0  0  0  0  0
   -3.0502   14.2233  -33.5520 H   0  0  0  0  0  0  0  0  0  0  0  0
   -5.9883   15.1168  -32.5518 H   0  0  0  0  0  0  0  0  0  0  0  0
   -5.1996   14.8528  -30.9445 H   0  0  0  0  0  0  0  0  0  0  0  0
   -6.8934   16.9314  -31.4872 H   0  0  0  0  0  0  0  0  0  0  0  0
   -5.5690   16.9799  -30.2513 H   0  0  0  0  0  0  0  0  0  0  0  0
   -4.5070   17.8050  -32.8180 H   0  0  0  0  0  0  0  0  0  0  0  0
   -7.6089   17.5041  -32.3244 H   0  0  0  0  0  0  0  0  0  0  0  0
  -10.0332   17.9870  -32.5896 H   0  0  0  0  0  0  0  0  0  0  0  0
  -10.8623   20.3305  -32.4622 H   0  0  0  0  0  0  0  0  0  0  0  0
   -9.2740   22.2018  -32.0703 H   0  0  0  0  0  0  0  0  0  0  0  0
   -7.1632   23.9661  -31.3605 H   0  0  0  0  0  0  0  0  0  0  0  0
   -6.1660   23.7220  -32.8345 H   0  0  0  0  0  0  0  0  0  0  0  0
   -7.8993   23.2506  -32.8345 H   0  0  0  0  0  0  0  0  0  0  0  0
   -3.0189   19.1473  -31.6088 H   0  0  0  0  0  0  0  0  0  0  0  0
   -1.4831   20.9959  -30.9914 H   0  0  0  0  0  0  0  0  0  0  0  0
   -1.1381   23.1947  -30.0709 H   0  0  0  0  0  0  0  0  0  0  0  0
   -0.8224   26.5228  -27.4929 H   0  0  0  0  0  0  0  0  0  0  0  0
   -2.5718   26.1741  -27.1919 H   0  0  0  0  0  0  0  0  0  0  0  0
   -1.0992   24.8167  -25.7370 H   0  0  0  0  0  0  0  0  0  0  0  0
   -2.0688   23.8037  -26.9129 H   0  0  0  0  0  0  0  0  0  0  0  0
    0.8349   24.0018  -26.5495 H   0  0  0  0  0  0  0  0  0  0  0  0
   -0.1739   22.7575  -27.3884 H   0  0  0  0  0  0  0  0  0  0  0  0
   -0.2180   23.9910  -29.2970 H   0  0  0  0  0  0  0  0  0  0  0  0
    0.3260   25.4000  -28.5600 H   0  0  0  0  0  0  0  0  0  0  0  0
   -4.5289   25.6746  -29.0614 H   0  0  0  0  0  0  0  0  0  0  0  0
   -6.0649   23.9737  -30.0180 H   0  0  0  0  0  0  0  0  0  0  0  0
  1  2  1  0
  2  3  1  0
  3  4  1  0
  4  5  1  0
  3  6  1  0
  6  7  1  0
  7  8  1  0
  8  9  1  0
  9 10  1  0
 10 11  1  0
 11 12  1  0
 12 13  2  0
 13 14  1  0
 14 15  2  0
 15 16  1  0
 16 17  2  0
 17 18  1  0
 18 19  2  0
 19 20  1  0
 19 21  1  0
 21 22  2  0
 22 23  1  0
 23 24  2  0
 24 25  1  0
 25 26  2  0
 26 27  1  0
 27 28  1  0
 28 29  1  0
 29 30  1  0
 30 31  1  0
 31 32  1  0
 27 33  2  0
 33 34  1  0
 34 35  2  0
 22 12  1  0
 35 25  1  0
 18 13  1  0
 35 21  1  0
  1 36  1  0
  1 37  1  0
  1 38  1  0
  2 39  1  0
  2 40  1  0
  4 41  1  0
  4 42  1  0
  5 43  1  0
  5 44  1  0
  5 45  1  0
  6 46  1  0
  6 47  1  0
  7 48  1  0
  7 49  1  0
  9 50  1  0
  9 51  1  0
 10 52  1  0
 10 53  1  0
 11 54  1  0
 14 55  1  0
 15 56  1  0
 16 57  1  0
 17 58  1  0
 20 59  1  0
 20 60  1  0
 20 61  1  0
 23 62  1  0
 24 63  1  0
 26 64  1  0
 29 65  1  0
 29 66  1  0
 30 67  1  0
 30 68  1  0
 31 69  1  0
 31 70  1  0
 32 71  1  0
 32 72  1  0
 33 73  1  0
 34 74  1  0
M  CHG  1  19   1
M  END
>  <UniqueID>  (12) 
11

>  <SMILES>  (12) 
CCN(CC)CCOCCNc1c2ccccc2[n+](C)c2c1ccc1cc(OCCCN)ccc12

>  <Energy>  (12) 
120.1635129321573

>  <Genealogy>  (12) 
CCN(CC)CCOCCNc1c2ccccc2[n+](C)c2c1ccc1cc(OCCCN)ccc12 (3D coordinates assigned)
CCN(CC)CCOCCNc1c2ccccc2[n+](C)c2c1ccc1cc(OCCCN)ccc12 (optimized conformer: 120.1635129321573 kcal/mol)

>  <smiles>  (12) 
CCN(CC)CCOCCNc1c2ccccc2[n+](C)c2c1ccc1cc(OCCCN)ccc12

>  <score_type>  (12) 
oracle

>  <origin>  (12) 
adg

>  <m_score__min__energy>  (12) 
-10.029999999999999

>  <m_primary>  (12) 
energy

$$$$
12:0
     RDKit          3D

 48 50  0  0  0  0  0  0  0  0999 V2000
    1.3290   21.9480  -35.3560 C   0  0  0  0  0  0  0  0  0  0  0  0
    0.5070   21.9180  -34.1930 O   0  0  0  0  0  0  0  0  0  0  0  0
   -0.6110   21.0850  -34.0350 C   0  0  0  0  0  0  0  0  0  0  0  0
   -1.8080   21.5320  -33.4440 C   0  0  0  0  0  0  0  0  0  0  0  0
   -2.8950   20.6640  -33.3100 C   0  0  0  0  0  0  0  0  0  0  0  0
   -2.8060   19.3360  -33.7580 C   0  0  0  0  0  0  0  0  0  0  0  0
   -3.9420   18.4510  -33.6640 N   0  0  0  0  0  0  0  0  0  0  0  0
   -4.6170   17.9850  -34.8790 C   0  0  0  0  0  0  0  0  0  0  0  0
   -6.1100   17.7370  -34.6080 C   0  0  0  0  0  0  0  0  0  0  0  0
   -6.6430   18.6120  -33.5340 N   0  0  0  0  0  0  0  0  0  0  0  0
   -6.6030   20.0660  -33.8560 C   0  0  0  0  0  0  0  0  0  0  0  0
   -7.0030   20.9500  -32.6910 C   0  0  0  0  0  0  0  0  0  0  0  0
   -6.1900   22.0460  -32.3490 C   0  0  0  0  0  0  0  0  0  0  0  0
   -6.5250   22.8670  -31.2710 C   0  0  0  0  0  0  0  0  0  0  0  0
   -7.6760   22.6110  -30.5280 C   0  0  0  0  0  0  0  0  0  0  0  0
   -8.5030   21.5360  -30.8640 C   0  0  0  0  0  0  0  0  0  0  0  0
   -8.1810   20.6990  -31.9520 C   0  0  0  0  0  0  0  0  0  0  0  0
   -9.0080   19.6260  -32.3230 O   0  0  0  0  0  0  0  0  0  0  0  0
   -9.1490   18.4150  -31.5880 C   0  0  0  0  0  0  0  0  0  0  0  0
   -5.9680   18.3390  -32.2350 C   0  0  0  0  0  0  0  0  0  0  0  0
   -4.4650   18.0020  -32.3700 C   0  0  0  0  0  0  0  0  0  0  0  0
   -1.6120   18.8960  -34.3530 C   0  0  0  0  0  0  0  0  0  0  0  0
   -0.5250   19.7640  -34.4850 C   0  0  0  0  0  0  0  0  0  0  0  0
    2.3867   21.9866  -35.0565 H   0  0  0  0  0  0  0  0  0  0  0  0
    1.1503   21.0427  -35.9548 H   0  0  0  0  0  0  0  0  0  0  0  0
    1.0848   22.8378  -35.9548 H   0  0  0  0  0  0  0  0  0  0  0  0
   -1.8880   22.5691  -33.0861 H   0  0  0  0  0  0  0  0  0  0  0  0
   -3.8273   21.0237  -32.8502 H   0  0  0  0  0  0  0  0  0  0  0  0
   -4.5142   18.7479  -35.6648 H   0  0  0  0  0  0  0  0  0  0  0  0
   -4.1538   17.0410  -35.2019 H   0  0  0  0  0  0  0  0  0  0  0  0
   -6.6737   17.9295  -35.5328 H   0  0  0  0  0  0  0  0  0  0  0  0
   -6.2222   16.6939  -34.2774 H   0  0  0  0  0  0  0  0  0  0  0  0
   -7.6510   18.3560  -33.4080 H   0  0  0  0  0  0  0  0  0  0  0  0
   -5.5783   20.3286  -34.1577 H   0  0  0  0  0  0  0  0  0  0  0  0
   -7.3305   20.2410  -34.6623 H   0  0  0  0  0  0  0  0  0  0  0  0
   -5.2837   22.2575  -32.9354 H   0  0  0  0  0  0  0  0  0  0  0  0
   -5.8793   23.7177  -31.0074 H   0  0  0  0  0  0  0  0  0  0  0  0
   -7.9339   23.2565  -29.6754 H   0  0  0  0  0  0  0  0  0  0  0  0
   -9.4117   21.3413  -30.2755 H   0  0  0  0  0  0  0  0  0  0  0  0
   -9.1234   18.6350  -30.5105 H   0  0  0  0  0  0  0  0  0  0  0  0
  -10.1084   17.9410  -31.8428 H   0  0  0  0  0  0  0  0  0  0  0  0
   -8.3242   17.7333  -31.8428 H   0  0  0  0  0  0  0  0  0  0  0  0
   -6.0674   19.2307  -31.5986 H   0  0  0  0  0  0  0  0  0  0  0  0
   -6.4564   17.4543  -31.8005 H   0  0  0  0  0  0  0  0  0  0  0  0
   -3.9097   18.5034  -31.5636 H   0  0  0  0  0  0  0  0  0  0  0  0
   -4.3420   16.9111  -32.3008 H   0  0  0  0  0  0  0  0  0  0  0  0
   -1.5322   17.8612  -34.7175 H   0  0  0  0  0  0  0  0  0  0  0  0
    0.4065   19.4049  -34.9470 H   0  0  0  0  0  0  0  0  0  0  0  0
  1  2  1  0
  2  3  1  0
  3  4  2  0
  4  5  1  0
  5  6  2  0
  6  7  1  0
  7  8  1  0
  8  9  1  0
  9 10  1  0
 10 11  1  0
 11 12  1  0
 12 13  2  0
 13 14  1  0
 14 15  2  0
 15 16  1  0
 16 17  2  0
 17 18  1  0
 18 19  1  0
 10 20  1  0
 20 21  1  0
  6 22  1  0
 22 23  2  0
 23  3  1  0
 21  7  1  0
 17 12  1  0
  1 24  1  0
  1 25  1  0
  1 26  1  0
  4 27  1  0
  5 28  1  0
  8 29  1  0
  8 30  1  0
  9 31  1  0
  9 32  1  0
 10 33  1  0
 11 34  1  0
 11 35  1  0
 13 36  1  0
 14 37  1  0
 15 38  1  0
 16 39  1  0
 19 40  1  0
 19 41  1  0
 19 42  1  0
 20 43  1  0
 20 44  1  0
 21 45  1  0
 21 46  1  0
 22 47  1  0
 23 48  1  0
M  CHG  1  10   1
M  END
>  <UniqueID>  (13) 
12

>  <SMILES>  (13) 
COc1ccc(N2CC[NH+](Cc3ccccc3OC)CC2)cc1

>  <Energy>  (13) 
61.353519956274056

>  <Genealogy>  (13) 
COc1ccc(N2CC[NH+](Cc3ccccc3OC)CC2)cc1 (protonated)
COc1ccc(N2CC[NH+](Cc3ccccc3OC)CC2)cc1 (3D coordinates assigned)
COc1ccc(N2CC[NH+](Cc3ccccc3OC)CC2)cc1 (nonaromatic ring conformer: 61.353519956274056 kcal/mol)

>  <smiles>  (13) 
COc1ccc(N2CCN(Cc3ccccc3OC)CC2)cc1

>  <score_type>  (13) 
oracle

>  <origin>  (13) 
adg

>  <m_score__min__energy>  (13) 
-6.7199999999999998

>  <m_primary>  (13) 
energy

$$$$
13:0
     RDKit          3D

 51 54  0  0  0  0  0  0  0  0999 V2000
   -5.6610   14.9830  -33.8510 C   0  0  0  0  0  0  0  0  0  0  0  0
   -6.2810   16.1040  -34.4730 O   0  0  0  0  0  0  0  0  0  0  0  0
   -6.4940   17.3400  -33.8450 C   0  0  0  0  0  0  0  0  0  0  0  0
   -7.2400   17.4660  -32.6580 C   0  0  0  0  0  0  0  0  0  0  0  0
   -7.4240   18.7210  -32.0690 C   0  0  0  0  0  0  0  0  0  0  0  0
   -6.8660   19.8710  -32.6510 C   0  0  0  0  0  0  0  0  0  0  0  0
   -7.0740   21.2060  -32.0320 C   0  0  0  0  0  0  0  0  0  0  0  0
   -7.6600   21.3010  -30.8270 C   0  0  0  0  0  0  0  0  0  0  0  0
   -7.8920   22.6260  -30.1570 C   0  0  0  0  0  0  0  0  0  0  0  0
   -6.8720   23.6240  -30.5320 N   0  0  0  0  0  0  0  0  0  0  0  0
   -5.5540   23.3390  -29.9180 C   0  0  0  0  0  0  0  0  0  0  0  0
   -4.4490   24.1510  -30.6040 C   0  0  0  0  0  0  0  0  0  0  0  0
   -3.1360   23.5310  -30.3600 N   0  0  0  0  0  0  0  0  0  0  0  0
   -2.1990   24.1760  -29.4720 C   0  0  0  0  0  0  0  0  0  0  0  0
   -2.4670   25.2950  -28.9550 O   0  0  0  0  0  0  0  0  0  0  0  0
   -0.9240   23.4860  -29.0880 C   0  0  0  0  0  0  0  0  0  0  0  0
   -0.5120   22.5660  -30.0950 O   0  0  0  0  0  0  0  0  0  0  0  0
   -1.4270   21.8270  -30.8480 C   0  0  0  0  0  0  0  0  0  0  0  0
   -1.0060   20.6560  -31.4880 C   0  0  0  0  0  0  0  0  0  0  0  0
   -1.9150   19.8910  -32.2200 C   0  0  0  0  0  0  0  0  0  0  0  0
   -3.2480   20.2960  -32.3170 C   0  0  0  0  0  0  0  0  0  0  0  0
   -3.6720   21.4760  -31.6980 C   0  0  0  0  0  0  0  0  0  0  0  0
   -2.7610   22.2680  -30.9660 C   0  0  0  0  0  0  0  0  0  0  0  0
   -6.8180   23.7570  -32.0030 C   0  0  0  0  0  0  0  0  0  0  0  0
   -6.5000   22.4290  -32.7190 C   0  0  0  0  0  0  0  0  0  0  0  0
   -6.1230   19.7410  -33.8380 C   0  0  0  0  0  0  0  0  0  0  0  0
   -5.9400   18.4850  -34.4250 C   0  0  0  0  0  0  0  0  0  0  0  0
   -5.7206   15.0908  -32.7579 H   0  0  0  0  0  0  0  0  0  0  0  0
   -6.1777   14.0615  -34.1573 H   0  0  0  0  0  0  0  0  0  0  0  0
   -4.6058   14.9309  -34.1573 H   0  0  0  0  0  0  0  0  0  0  0  0
   -7.6806   16.5727  -32.1912 H   0  0  0  0  0  0  0  0  0  0  0  0
   -8.0105   18.8081  -31.1425 H   0  0  0  0  0  0  0  0  0  0  0  0
   -7.9797   20.3812  -30.3153 H   0  0  0  0  0  0  0  0  0  0  0  0
   -8.8825   23.0035  -30.4511 H   0  0  0  0  0  0  0  0  0  0  0  0
   -7.8305   22.4710  -29.0697 H   0  0  0  0  0  0  0  0  0  0  0  0
   -5.5878   23.6046  -28.8511 H   0  0  0  0  0  0  0  0  0  0  0  0
   -5.3322   22.2683  -30.0382 H   0  0  0  0  0  0  0  0  0  0  0  0
   -4.6403   24.1826  -31.6868 H   0  0  0  0  0  0  0  0  0  0  0  0
   -4.4459   25.1714  -30.1932 H   0  0  0  0  0  0  0  0  0  0  0  0
   -0.1360   24.2406  -28.9474 H   0  0  0  0  0  0  0  0  0  0  0  0
   -1.0973   22.9276  -28.1562 H   0  0  0  0  0  0  0  0  0  0  0  0
    0.0443   20.3376  -31.4139 H   0  0  0  0  0  0  0  0  0  0  0  0
   -1.5818   18.9697  -32.7202 H   0  0  0  0  0  0  0  0  0  0  0  0
   -3.9669   19.6847  -32.8823 H   0  0  0  0  0  0  0  0  0  0  0  0
   -4.7230   21.7894  -31.7820 H   0  0  0  0  0  0  0  0  0  0  0  0
   -7.7935   24.1211  -32.3577 H   0  0  0  0  0  0  0  0  0  0  0  0
   -6.0054   24.4598  -32.2392 H   0  0  0  0  0  0  0  0  0  0  0  0
   -6.9111   22.4783  -33.7381 H   0  0  0  0  0  0  0  0  0  0  0  0
   -5.4059   22.3158  -32.7090 H   0  0  0  0  0  0  0  0  0  0  0  0
   -5.6830   20.6330  -34.3077 H   0  0  0  0  0  0  0  0  0  0  0  0
   -5.3545   18.3971  -35.3521 H   0  0  0  0  0  0  0  0  0  0  0  0
  1  2  1  0
  2  3  1  0
  3  4  2  0
  4  5  1  0
  5  6  2  0
  6  7  1  0
  7  8  2  0
  8  9  1  0
  9 10  1  0
 10 11  1  0
 11 12  1  0
 12 13  1  0
 13 14  1  0
 14 15  2  0
 14 16  1  0
 16 17  1  0
 17 18  1  0
 18 19  2  0
 19 20  1  0
 20 21  2  0
 21 22  1  0
 22 23  2  0
 10 24  1  0
 24 25  1  0
  6 26  1  0
 26 27  2  0
 27  3  1  0
 25  7  1  0
 23 13  1  0
 23 18  1  0
  1 28  1  0
  1 29  1  0
  1 30  1  0
  4 31  1  0
  5 32  1  0
  8 33  1  0
  9 34  1  0
  9 35  1  0
 11 36  1  0
 11 37  1  0
 12 38  1  0
 12 39  1  0
 16 40  1  0
 16 41  1  0
 19 42  1  0
 20 43  1  0
 21 44  1  0
 22 45  1  0
 24 46  1  0
 24 47  1  0
 25 48  1  0
 25 49  1  0
 26 50  1  0
 27 51  1  0
M  END
>  <UniqueID>  (14) 
13

>  <SMILES>  (14) 
COc1ccc(C2=CCN(CCN3C(=O)COc4ccccc43)CC2)cc1

>  <Energy>  (14) 
67.53816040332613

>  <Genealogy>  (14) 
COc1ccc(C2=CCN(CCN3C(=O)COc4ccccc43)CC2)cc1 (3D coordinates assigned)
COc1ccc(C2=CCN(CCN3C(=O)COc4ccccc43)CC2)cc1 (nonaromatic ring conformer: 67.53816040332613 kcal/mol)

>  <smiles>  (14) 
COc1ccc(C2=CCN(CCN3C(=O)COc4ccccc43)CC2)cc1

>  <score_type>  (14) 
oracle

>  <origin>  (14) 
adg

>  <m_score__min__energy>  (14) 
-9.1199999999999992

>  <m_primary>  (14) 
energy

$$$$
14:0
     RDKit          3D

 43 44  0  0  0  0  0  0  0  0999 V2000
   -8.6070   18.5750  -32.2550 C   0  0  0  0  0  0  0  0  0  0  0  0
   -8.2060   20.0240  -32.1270 C   0  0  0  0  0  0  0  0  0  0  0  0
   -9.1480   20.9330  -31.6210 C   0  0  0  0  0  0  0  0  0  0  0  0
   -8.8250   22.2760  -31.4630 C   0  0  0  0  0  0  0  0  0  0  0  0
   -7.5610   22.7360  -31.8120 C   0  0  0  0  0  0  0  0  0  0  0  0
   -6.5940   21.8660  -32.3490 C   0  0  0  0  0  0  0  0  0  0  0  0
   -5.3040   22.4210  -32.7180 N   0  0  0  0  0  0  0  0  0  0  0  0
   -4.2770   22.1650  -31.6900 C   0  0  0  0  0  0  0  0  0  0  0  0
   -3.9050   23.4170  -30.9320 C   0  0  0  0  0  0  0  0  0  0  0  0
   -4.6020   24.4480  -31.1380 O   0  0  0  0  0  0  0  0  0  0  0  0
   -2.8450   23.4570  -29.9440 N   0  0  0  0  0  0  0  0  0  0  0  0
   -1.7440   22.4820  -29.9280 C   0  0  0  0  0  0  0  0  0  0  0  0
   -1.1860   22.3450  -28.5070 C   0  0  0  0  0  0  0  0  0  0  0  0
   -0.6890   23.6320  -27.9660 N   0  0  0  0  0  0  0  0  0  0  0  0
   -0.7130   23.6140  -26.4950 C   0  0  0  0  0  0  0  0  0  0  0  0
   -1.3750   24.8330  -28.5020 C   0  0  0  0  0  0  0  0  0  0  0  0
   -2.8130   24.5550  -28.9630 C   0  0  0  0  0  0  0  0  0  0  0  0
   -6.9180   20.4860  -32.5240 C   0  0  0  0  0  0  0  0  0  0  0  0
   -5.8870   19.4940  -33.0280 C   0  0  0  0  0  0  0  0  0  0  0  0
   -8.7279   18.1381  -31.2528 H   0  0  0  0  0  0  0  0  0  0  0  0
   -9.5583   18.5048  -32.8028 H   0  0  0  0  0  0  0  0  0  0  0  0
   -7.8271   18.0257  -32.8028 H   0  0  0  0  0  0  0  0  0  0  0  0
  -10.1527   20.5791  -31.3465 H   0  0  0  0  0  0  0  0  0  0  0  0
   -9.5719   22.9762  -31.0607 H   0  0  0  0  0  0  0  0  0  0  0  0
   -7.3123   23.7975  -31.6661 H   0  0  0  0  0  0  0  0  0  0  0  0
   -5.3520   23.4380  -32.9440 H   0  0  0  0  0  0  0  0  0  0  0  0
   -4.9910   21.9580  -33.6050 H   0  0  0  0  0  0  0  0  0  0  0  0
   -4.6657   21.4220  -30.9780 H   0  0  0  0  0  0  0  0  0  0  0  0
   -3.3738   21.7971  -32.1988 H   0  0  0  0  0  0  0  0  0  0  0  0
   -2.1176   21.5050  -30.2685 H   0  0  0  0  0  0  0  0  0  0  0  0
   -0.9440   22.8296  -30.5982 H   0  0  0  0  0  0  0  0  0  0  0  0
   -1.9841   21.9705  -27.8492 H   0  0  0  0  0  0  0  0  0  0  0  0
   -0.3354   21.6487  -28.5476 H   0  0  0  0  0  0  0  0  0  0  0  0
    0.1105   24.2316  -26.1073 H   0  0  0  0  0  0  0  0  0  0  0  0
   -1.6726   24.0170  -26.1390 H   0  0  0  0  0  0  0  0  0  0  0  0
   -0.5949   22.5799  -26.1390 H   0  0  0  0  0  0  0  0  0  0  0  0
   -1.4029   25.6001  -27.7141 H   0  0  0  0  0  0  0  0  0  0  0  0
   -0.8083   25.1659  -29.3841 H   0  0  0  0  0  0  0  0  0  0  0  0
   -3.4238   24.2776  -28.0913 H   0  0  0  0  0  0  0  0  0  0  0  0
   -3.2128   25.4633  -29.4375 H   0  0  0  0  0  0  0  0  0  0  0  0
   -5.3895   19.0153  -32.1717 H   0  0  0  0  0  0  0  0  0  0  0  0
   -6.3847   18.7265  -33.6389 H   0  0  0  0  0  0  0  0  0  0  0  0
   -5.1392   20.0209  -33.6389 H   0  0  0  0  0  0  0  0  0  0  0  0
  1  2  1  0
  2  3  2  0
  3  4  1  0
  4  5  2  0
  5  6  1  0
  6  7  1  0
  7  8  1  0
  8  9  1  0
  9 10  2  0
  9 11  1  0
 11 12  1  0
 12 13  1  0
 13 14  1  0
 14 15  1  0
 14 16  1  0
 16 17  1  0
  6 18  2  0
 18 19  1  0
 18  2  1  0
 17 11  1  0
  1 20  1  0
  1 21  1  0
  1 22  1  0
  3 23  1  0
  4 24  1  0
  5 25  1  0
  7 26  1  0
  7 27  1  0
  8 28  1  0
  8 29  1  0
 12 30  1  0
 12 31  1  0
 13 32  1  0
 13 33  1  0
 15 34  1  0
 15 35  1  0
 15 36  1  0
 16 37  1  0
 16 38  1  0
 17 39  1  0
 17 40  1  0
 19 41  1  0
 19 42  1  0
 19 43  1  0
M  CHG  1   7   1
M  END
>  <UniqueID>  (15) 
14

>  <SMILES>  (15) 
Cc1cccc([NH2+]CC(=O)N2CCN(C)CC2)c1C

>  <Energy>  (15) 
52.74575408122276

>  <Genealogy>  (15) 
Cc1cccc([NH2+]CC(=O)N2CCN(C)CC2)c1C (protonated)
Cc1cccc([NH2+]CC(=O)N2CCN(C)CC2)c1C (3D coordinates assigned)
Cc1cccc([NH2+]CC(=O)N2CCN(C)CC2)c1C (nonaromatic ring conformer: 52.74575408122276 kcal/mol)

>  <smiles>  (15) 
Cc1cccc(NCC(=O)N2CCN(C)CC2)c1C

>  <score_type>  (15) 
oracle

>  <origin>  (15) 
adg

>  <m_score__min__energy>  (15) 
-6.8799999999999999

>  <m_primary>  (15) 
energy

$$$$
15:0
     RDKit          3D

 32 34  0  0  0  0  0  0  0  0999 V2000
   -9.4040   18.6410  -31.9870 C   0  0  0  0  0  0  0  0  0  0  0  0
   -8.2130   17.8630  -32.0200 O   0  0  0  0  0  0  0  0  0  0  0  0
   -7.0710   18.1990  -32.7620 C   0  0  0  0  0  0  0  0  0  0  0  0
   -6.4950   17.3280  -33.7170 C   0  0  0  0  0  0  0  0  0  0  0  0
   -5.3490   17.7170  -34.4340 C   0  0  0  0  0  0  0  0  0  0  0  0
   -4.7640   18.9720  -34.2090 C   0  0  0  0  0  0  0  0  0  0  0  0
   -5.3480   19.8120  -33.2610 C   0  0  0  0  0  0  0  0  0  0  0  0
   -6.4670   19.4460  -32.5580 C   0  0  0  0  0  0  0  0  0  0  0  0
   -6.9040   20.5130  -31.6030 C   0  0  0  0  0  0  0  0  0  0  0  0
   -5.8710   21.6760  -31.7990 C   0  0  1  0  0  0  0  0  0  0  0  0
   -6.5580   22.9230  -32.3230 C   0  0  0  0  0  0  0  0  0  0  0  0
   -6.1300   24.1540  -32.0240 C   0  0  0  0  0  0  0  0  0  0  0  0
   -4.9940   24.3710  -31.1140 C   0  0  0  0  0  0  0  0  0  0  0  0
   -4.6290   25.5470  -30.8460 O   0  0  0  0  0  0  0  0  0  0  0  0
   -4.2310   23.2090  -30.5490 C   0  0  0  0  0  0  0  0  0  0  0  0
   -5.1160   21.9560  -30.4730 C   0  0  0  0  0  0  0  0  0  0  0  0
   -4.9450   21.1360  -32.8580 C   0  0  0  0  0  0  0  0  0  0  0  0
   -3.9700   21.7620  -33.3570 O   0  0  0  0  0  0  0  0  0  0  0  0
   -9.6908   18.8283  -30.9417 H   0  0  0  0  0  0  0  0  0  0  0  0
   -9.2298   19.6000  -32.4969 H   0  0  0  0  0  0  0  0  0  0  0  0
  -10.2121   18.0961  -32.4969 H   0  0  0  0  0  0  0  0  0  0  0  0
   -6.9458   16.3414  -33.8997 H   0  0  0  0  0  0  0  0  0  0  0  0
   -4.9092   17.0334  -35.1751 H   0  0  0  0  0  0  0  0  0  0  0  0
   -3.8684   19.2853  -34.7655 H   0  0  0  0  0  0  0  0  0  0  0  0
   -7.9217   20.8545  -31.8432 H   0  0  0  0  0  0  0  0  0  0  0  0
   -6.9311   20.1534  -30.5638 H   0  0  0  0  0  0  0  0  0  0  0  0
   -7.4392   22.8105  -32.9717 H   0  0  0  0  0  0  0  0  0  0  0  0
   -6.6379   25.0230  -32.4677 H   0  0  0  0  0  0  0  0  0  0  0  0
   -3.3648   22.9994  -31.1938 H   0  0  0  0  0  0  0  0  0  0  0  0
   -3.9001   23.4673  -29.5323 H   0  0  0  0  0  0  0  0  0  0  0  0
   -4.4799   21.0893  -30.2403 H   0  0  0  0  0  0  0  0  0  0  0  0
   -5.8701   22.1283  -29.6909 H   0  0  0  0  0  0  0  0  0  0  0  0
  1  2  1  0
  2  3  1  0
  3  4  2  0
  4  5  1  0
  5  6  2  0
  6  7  1  0
  7  8  2  0
  8  9  1  0
 10  9  1  1
 10 11  1  0
 11 12  2  0
 12 13  1  0
 13 14  2  0
 13 15  1  0
 15 16  1  0
 10 17  1  0
 17 18  2  0
  8  3  1  0
 16 10  1  0
 17  7  1  0
  1 19  1  0
  1 20  1  0
  1 21  1  0
  4 22  1  0
  5 23  1  0
  6 24  1  0
  9 25  1  0
  9 26  1  0
 11 27  1  0
 12 28  1  0
 15 29  1  0
 15 30  1  0
 16 31  1  0
 16 32  1  0
M  END
>  <UniqueID>  (16) 
15

>  <SMILES>  (16) 
COc1cccc2c1C[C@]1(C=CC(=O)CC1)C2=O

>  <Energy>  (16) 
46.773137426735076

>  <Genealogy>  (16) 
COc1cccc2c1C[C@]1(C=CC(=O)CC1)C2=O (chirality)
COc1cccc2c1C[C@]1(C=CC(=O)CC1)C2=O (3D coordinates assigned)
COc1cccc2c1C[C@]1(C=CC(=O)CC1)C2=O (nonaromatic ring conformer: 46.773137426735076 kcal/mol)

>  <smiles>  (16) 
COc1cccc2c1CC1(C=CC(=O)CC1)C2=O

>  <score_type>  (16) 
oracle

>  <origin>  (16) 
adg

>  <m_score__min__energy>  (16) 
-7.7699999999999996

>  <m_primary>  (16) 
energy

$$$$
16:0
     RDKit          3D

 66 68  0  0  0  0  0  0  0  0999 V2000
   -3.3120   24.0280  -27.4020 C   0  0  0  0  0  0  0  0  0  0  0  0
   -2.7840   24.3610  -28.6810 O   0  0  0  0  0  0  0  0  0  0  0  0
   -2.6600   23.4590  -29.7500 C   0  0  0  0  0  0  0  0  0  0  0  0
   -1.6890   22.4400  -29.7600 C   0  0  0  0  0  0  0  0  0  0  0  0
   -1.5860   21.5600  -30.8450 C   0  0  0  0  0  0  0  0  0  0  0  0
   -2.4870   21.6710  -31.9200 C   0  0  0  0  0  0  0  0  0  0  0  0
   -3.4430   22.6970  -31.9190 C   0  0  0  0  0  0  0  0  0  0  0  0
   -3.5370   23.5900  -30.8360 C   0  0  0  0  0  0  0  0  0  0  0  0
   -4.4880   24.6230  -30.8030 O   0  0  0  0  0  0  0  0  0  0  0  0
   -5.5160   24.7430  -29.8250 C   0  0  0  0  0  0  0  0  0  0  0  0
   -2.3710   20.7630  -33.1250 C   0  0  0  0  0  0  0  0  0  0  0  0
   -1.6630   19.5020  -32.8090 N   0  0  1  0  0  0  0  0  0  0  0  0
   -1.4870   18.7030  -34.0470 C   0  0  0  0  0  0  0  0  0  0  0  0
   -2.6610   17.7490  -34.3420 C   0  0  0  0  0  0  0  0  0  0  0  0
   -3.8990   18.4590  -34.4360 O   0  0  0  0  0  0  0  0  0  0  0  0
   -5.1420   18.0720  -33.9000 C   0  0  0  0  0  0  0  0  0  0  0  0
   -5.6390   16.7610  -34.0330 C   0  0  0  0  0  0  0  0  0  0  0  0
   -6.8570   16.4040  -33.4610 C   0  0  0  0  0  0  0  0  0  0  0  0
   -7.6010   17.3420  -32.7510 C   0  0  0  0  0  0  0  0  0  0  0  0
   -7.1450   18.6620  -32.6180 C   0  0  0  0  0  0  0  0  0  0  0  0
   -7.9000   19.6070  -31.8360 N   0  0  0  0  0  0  0  0  0  0  0  0
   -9.1700   20.1840  -32.2780 C   0  0  0  0  0  0  0  0  0  0  0  0
   -9.2150   21.6820  -31.9610 C   0  0  0  0  0  0  0  0  0  0  0  0
   -7.8950   22.1550  -31.4890 N   0  0  0  0  0  0  0  0  0  0  0  0
   -7.5300   23.4150  -32.1530 C   0  0  0  0  0  0  0  0  0  0  0  0
   -7.8960   22.3510  -30.0280 C   0  0  0  0  0  0  0  0  0  0  0  0
   -5.9140   19.0360  -33.2120 C   0  0  0  0  0  0  0  0  0  0  0  0
   -5.4050   20.4520  -33.0760 C   0  0  0  0  0  0  0  0  0  0  0  0
   -0.3600   19.8110  -32.1770 C   0  0  0  0  0  0  0  0  0  0  0  0
   -0.5680   20.4500  -30.8000 C   0  0  0  0  0  0  0  0  0  0  0  0
   -2.6597   24.4394  -26.6176 H   0  0  0  0  0  0  0  0  0  0  0  0
   -4.3213   24.4533  -27.2999 H   0  0  0  0  0  0  0  0  0  0  0  0
   -3.3631   22.9339  -27.2999 H   0  0  0  0  0  0  0  0  0  0  0  0
   -1.0035   22.3335  -28.9063 H   0  0  0  0  0  0  0  0  0  0  0  0
   -4.1266   22.8047  -32.7740 H   0  0  0  0  0  0  0  0  0  0  0  0
   -5.0732   24.6913  -28.8194 H   0  0  0  0  0  0  0  0  0  0  0  0
   -6.0303   25.7073  -29.9501 H   0  0  0  0  0  0  0  0  0  0  0  0
   -6.2386   23.9231  -29.9501 H   0  0  0  0  0  0  0  0  0  0  0  0
   -3.3819   20.5211  -33.4848 H   0  0  0  0  0  0  0  0  0  0  0  0
   -1.7890   21.2937  -33.8929 H   0  0  0  0  0  0  0  0  0  0  0  0
   -2.2610   18.9690  -32.1370 H   0  0  0  0  0  0  0  0  0  0  0  0
   -1.3811   19.3956  -34.8950 H   0  0  0  0  0  0  0  0  0  0  0  0
   -0.5939   18.0775  -33.9012 H   0  0  0  0  0  0  0  0  0  0  0  0
   -2.4716   17.2321  -35.2943 H   0  0  0  0  0  0  0  0  0  0  0  0
   -2.7373   17.0277  -33.5150 H   0  0  0  0  0  0  0  0  0  0  0  0
   -5.0598   16.0126  -34.5937 H   0  0  0  0  0  0  0  0  0  0  0  0
   -7.2331   15.3761  -33.5706 H   0  0  0  0  0  0  0  0  0  0  0  0
   -8.5548   17.0457  -32.2902 H   0  0  0  0  0  0  0  0  0  0  0  0
   -7.4800   19.9900  -30.9600 H   0  0  0  0  0  0  0  0  0  0  0  0
   -9.2753   20.0399  -33.3634 H   0  0  0  0  0  0  0  0  0  0  0  0
   -9.9933   19.6823  -31.7484 H   0  0  0  0  0  0  0  0  0  0  0  0
   -9.4934   22.2355  -32.8699 H   0  0  0  0  0  0  0  0  0  0  0  0
   -9.9574   21.8542  -31.1678 H   0  0  0  0  0  0  0  0  0  0  0  0
   -7.3087   24.1791  -31.3933 H   0  0  0  0  0  0  0  0  0  0  0  0
   -6.6415   23.2544  -32.7812 H   0  0  0  0  0  0  0  0  0  0  0  0
   -8.3668   23.7542  -32.7812 H   0  0  0  0  0  0  0  0  0  0  0  0
   -7.8910   21.3719  -29.5267 H   0  0  0  0  0  0  0  0  0  0  0  0
   -7.0007   22.9183  -29.7335 H   0  0  0  0  0  0  0  0  0  0  0  0
   -8.7970   22.9091  -29.7335 H   0  0  0  0  0  0  0  0  0  0  0  0
   -5.3131   20.7078  -32.0101 H   0  0  0  0  0  0  0  0  0  0  0  0
   -4.4205   20.5358  -33.5594 H   0  0  0  0  0  0  0  0  0  0  0  0
   -6.1109   21.1434  -33.5594 H   0  0  0  0  0  0  0  0  0  0  0  0
    0.2154   18.8807  -32.0609 H   0  0  0  0  0  0  0  0  0  0  0  0
    0.1867   20.5184  -32.8179 H   0  0  0  0  0  0  0  0  0  0  0  0
   -0.9147   19.6774  -30.0979 H   0  0  0  0  0  0  0  0  0  0  0  0
    0.3910   20.8793  -30.4744 H   0  0  0  0  0  0  0  0  0  0  0  0
  1  2  1  0
  2  3  1  0
  3  4  2  0
  4  5  1  0
  5  6  2  0
  6  7  1  0
  7  8  2  0
  8  9  1  0
  9 10  1  0
  6 11  1  0
 11 12  1  0
 12 13  1  0
 13 14  1  0
 14 15  1  0
 15 16  1  0
 16 17  2  0
 17 18  1  0
 18 19  2  0
 19 20  1  0
 20 21  1  0
 21 22  1  0
 22 23  1  0
 23 24  1  0
 24 25  1  0
 24 26  1  0
 20 27  2  0
 27 28  1  0
 12 29  1  0
 29 30  1  0
  8  3  1  0
 27 16  1  0
 30  5  1  0
  1 31  1  0
  1 32  1  0
  1 33  1  0
  4 34  1  0
  7 35  1  0
 10 36  1  0
 10 37  1  0
 10 38  1  0
 11 39  1  0
 11 40  1  0
 12 41  1  1
 13 42  1  0
 13 43  1  0
 14 44  1  0
 14 45  1  0
 17 46  1  0
 18 47  1  0
 19 48  1  0
 21 49  1  0
 22 50  1  0
 22 51  1  0
 23 52  1  0
 23 53  1  0
 25 54  1  0
 25 55  1  0
 25 56  1  0
 26 57  1  0
 26 58  1  0
 26 59  1  0
 28 60  1  0
 28 61  1  0
 28 62  1  0
 29 63  1  0
 29 64  1  0
 30 65  1  0
 30 66  1  0
M  CHG  1  12   1
M  END
>  <UniqueID>  (17) 
16

>  <SMILES>  (17) 
COc1cc2c(cc1OC)C[N@@H+](CCOc1cccc(NCCN(C)C)c1C)CC2

>  <Energy>  (17) 
73.34933222621198

>  <Genealogy>  (17) 
COc1cc2c(cc1OC)C[NH+](CCOc1cccc(NCCN(C)C)c1C)CC2 (protonated)
COc1cc2c(cc1OC)C[N@@H+](CCOc1cccc(NCCN(C)C)c1C)CC2 (chirality)
COc1cc2c(cc1OC)C[N@@H+](CCOc1cccc(NCCN(C)C)c1C)CC2 (3D coordinates assigned)
COc1cc2c(cc1OC)C[N@@H+](CCOc1cccc(NCCN(C)C)c1C)CC2 (nonaromatic ring conformer: 73.34933222621198 kcal/mol)

>  <smiles>  (17) 
COc1cc2c(cc1OC)CN(CCOc1cccc(NCCN(C)C)c1C)CC2

>  <score_type>  (17) 
oracle

>  <origin>  (17) 
adg

>  <m_score__min__energy>  (17) 
-7.7599999999999998

>  <m_primary>  (17) 
energy

$$$$
17:0
     RDKit          3D

 56 59  0  0  0  0  0  0  0  0999 V2000
    1.7540   24.6030  -27.8110 C   0  0  0  0  0  0  0  0  0  0  0  0
    0.3670   24.5290  -28.2910 N   0  0  0  0  0  0  0  0  0  0  0  0
   -0.5490   25.0520  -27.2660 C   0  0  0  0  0  0  0  0  0  0  0  0
   -1.9110   25.2770  -27.9020 C   0  0  0  0  0  0  0  0  0  0  0  0
   -2.3030   24.1660  -28.7840 N   0  0  0  0  0  0  0  0  0  0  0  0
   -3.5820   24.2370  -29.4490 C   0  0  0  0  0  0  0  0  0  0  0  0
   -3.8620   25.1220  -30.4360 N   0  0  0  0  0  0  0  0  0  0  0  0
   -5.1450   25.0110  -30.8720 C   0  0  0  0  0  0  0  0  0  0  0  0
   -5.9010   24.0450  -30.2180 C   0  0  0  0  0  0  0  0  0  0  0  0
   -7.3330   23.7090  -30.4990 C   0  0  0  0  0  0  0  0  0  0  0  0
   -7.5690   23.0410  -31.8800 C   0  0  0  0  0  0  0  0  0  0  0  0
   -7.7760   21.5640  -31.8770 N   0  0  0  0  0  0  0  0  0  0  0  0
   -9.2050   21.2150  -31.7200 C   0  0  0  0  0  0  0  0  0  0  0  0
   -7.0600   20.8130  -32.9600 C   0  0  2  0  0  0  0  0  0  0  0  0
   -7.5510   19.3500  -33.0960 C   0  0  0  0  0  0  0  0  0  0  0  0
   -7.2500   18.5610  -31.8140 C   0  0  0  0  0  0  0  0  0  0  0  0
   -5.7420   18.4770  -31.5540 C   0  0  0  0  0  0  0  0  0  0  0  0
   -4.9840   19.7370  -31.9090 C   0  0  0  0  0  0  0  0  0  0  0  0
   -3.6180   19.8030  -31.6020 C   0  0  0  0  0  0  0  0  0  0  0  0
   -2.8410   20.8560  -32.0800 C   0  0  0  0  0  0  0  0  0  0  0  0
   -3.4250   21.8220  -32.8980 C   0  0  0  0  0  0  0  0  0  0  0  0
   -4.7470   21.7500  -33.2010 N   0  0  0  0  0  0  0  0  0  0  0  0
   -5.5570   20.7700  -32.6940 C   0  0  0  0  0  0  0  0  0  0  0  0
   -4.9210   23.2770  -29.0850 S   0  0  0  0  0  0  0  0  0  0  0  0
   -1.4800   22.9500  -28.9660 C   0  0  0  0  0  0  0  0  0  0  0  0
    0.0120   23.1210  -28.5860 C   0  0  0  0  0  0  0  0  0  0  0  0
    1.7618   24.6034  -26.7110 H   0  0  0  0  0  0  0  0  0  0  0  0
    2.3170   23.7336  -28.1813 H   0  0  0  0  0  0  0  0  0  0  0  0
    2.2213   25.5274  -28.1813 H   0  0  0  0  0  0  0  0  0  0  0  0
   -0.6390   24.3262  -26.4444 H   0  0  0  0  0  0  0  0  0  0  0  0
   -0.1611   25.9994  -26.8636 H   0  0  0  0  0  0  0  0  0  0  0  0
   -2.6620   25.3782  -27.1046 H   0  0  0  0  0  0  0  0  0  0  0  0
   -1.8514   26.1891  -28.5139 H   0  0  0  0  0  0  0  0  0  0  0  0
   -5.5530   25.6368  -31.6794 H   0  0  0  0  0  0  0  0  0  0  0  0
   -7.6858   23.0200  -29.7174 H   0  0  0  0  0  0  0  0  0  0  0  0
   -7.8855   24.6601  -30.5086 H   0  0  0  0  0  0  0  0  0  0  0  0
   -8.4618   23.5029  -32.3267 H   0  0  0  0  0  0  0  0  0  0  0  0
   -6.6396   23.2040  -32.4454 H   0  0  0  0  0  0  0  0  0  0  0  0
   -9.4523   21.1546  -30.6499 H   0  0  0  0  0  0  0  0  0  0  0  0
   -9.8257   21.9879  -32.1967 H   0  0  0  0  0  0  0  0  0  0  0  0
   -9.3996   20.2429  -32.1967 H   0  0  0  0  0  0  0  0  0  0  0  0
   -7.2788   21.3564  -33.8911 H   0  0  0  0  0  0  0  0  0  0  0  0
   -8.6361   19.3475  -33.2763 H   0  0  0  0  0  0  0  0  0  0  0  0
   -7.0259   18.8751  -33.9378 H   0  0  0  0  0  0  0  0  0  0  0  0
   -7.7332   19.0626  -30.9626 H   0  0  0  0  0  0  0  0  0  0  0  0
   -7.6392   17.5393  -31.9352 H   0  0  0  0  0  0  0  0  0  0  0  0
   -5.5866   18.2698  -30.4849 H   0  0  0  0  0  0  0  0  0  0  0  0
   -5.3519   17.6784  -32.2021 H   0  0  0  0  0  0  0  0  0  0  0  0
   -3.1576   19.0203  -30.9812 H   0  0  0  0  0  0  0  0  0  0  0  0
   -1.7758   20.9246  -31.8142 H   0  0  0  0  0  0  0  0  0  0  0  0
   -2.8139   22.6442  -33.2988 H   0  0  0  0  0  0  0  0  0  0  0  0
   -5.1450   22.4830  -33.8280 H   0  0  0  0  0  0  0  0  0  0  0  0
   -1.9045   22.1511  -28.3403 H   0  0  0  0  0  0  0  0  0  0  0  0
   -1.5041   22.7139  -30.0401 H   0  0  0  0  0  0  0  0  0  0  0  0
    0.2208   22.5109  -27.6948 H   0  0  0  0  0  0  0  0  0  0  0  0
    0.6145   22.7991  -29.4482 H   0  0  0  0  0  0  0  0  0  0  0  0
  1  2  1  0
  2  3  1  0
  3  4  1  0
  4  5  1  0
  5  6  1  0
  6  7  2  0
  7  8  1  0
  8  9  2  0
  9 10  1  0
 10 11  1  0
 11 12  1  0
 12 13  1  0
 12 14  1  0
 14 15  1  0
 15 16  1  0
 16 17  1  0
 17 18  1  0
 18 19  2  0
 19 20  1  0
 20 21  2  0
 21 22  1  0
 22 23  2  0
  9 24  1  0
  5 25  1  0
 25 26  1  0
 26  2  1  0
 24  6  1  0
 23 14  1  0
 23 18  1  0
  1 27  1  0
  1 28  1  0
  1 29  1  0
  3 30  1  0
  3 31  1  0
  4 32  1  0
  4 33  1  0
  8 34  1  0
 10 35  1  0
 10 36  1  0
 11 37  1  0
 11 38  1  0
 13 39  1  0
 13 40  1  0
 13 41  1  0
 14 42  1  6
 15 43  1  0
 15 44  1  0
 16 45  1  0
 16 46  1  0
 17 47  1  0
 17 48  1  0
 19 49  1  0
 20 50  1  0
 21 51  1  0
 22 52  1  0
 25 53  1  0
 25 54  1  0
 26 55  1  0
 26 56  1  0
M  CHG  1  22   1
M  END
>  <UniqueID>  (18) 
17

>  <SMILES>  (18) 
CN1CCN(c2ncc(CCN(C)[C@@H]3CCCc4ccc[nH+]c43)s2)CC1

>  <Energy>  (18) 
104.39834251664739

>  <Genealogy>  (18) 
CN1CCN(c2ncc(CCN(C)C3CCCc4ccc[nH+]c43)s2)CC1 (protonated)
CN1CCN(c2ncc(CCN(C)[C@@H]3CCCc4ccc[nH+]c43)s2)CC1 (chirality)
CN1CCN(c2ncc(CCN(C)[C@@H]3CCCc4ccc[nH+]c43)s2)CC1 (3D coordinates assigned)
CN1CCN(c2ncc(CCN(C)[C@@H]3CCCc4ccc[nH+]c43)s2)CC1 (nonaromatic ring conformer: 104.39834251664739 kcal/mol)

>  <smiles>  (18) 
CN1CCN(c2ncc(CCN(C)C3CCCc4cccnc43)s2)CC1

>  <score_type>  (18) 
oracle

>  <origin>  (18) 
adg

>  <m_score__min__energy>  (18) 
-9.3000000000000007

>  <m_primary>  (18) 
energy

$$$$
18:0
     RDKit          3D

 62 65  0  0  0  0  0  0  0  0999 V2000
   -8.7360   19.6730  -31.2760 C   0  0  0  0  0  0  0  0  0  0  0  0
   -8.1240   19.7420  -32.6750 C   0  0  0  0  0  0  0  0  0  0  0  0
   -7.0100   20.8120  -32.7330 C   0  0  0  0  0  0  0  0  0  0  0  0
   -5.7480   20.3760  -33.3940 N   0  0  2  0  0  0  0  0  0  0  0  0
   -5.9660   19.1820  -34.2360 C   0  0  0  0  0  0  0  0  0  0  0  0
   -4.6100   20.1410  -32.4650 C   0  0  0  0  0  0  0  0  0  0  0  0
   -3.2600   20.7030  -32.9680 C   0  0  0  0  0  0  0  0  0  0  0  0
   -2.8270   21.9740  -32.2150 C   0  0  0  0  0  0  0  0  0  0  0  0
   -2.6270   21.6860  -30.7850 N   0  0  0  0  0  0  0  0  0  0  0  0
   -3.3960   22.1810  -29.7760 C   0  0  0  0  0  0  0  0  0  0  0  0
   -4.5080   23.1280  -29.9640 C   0  0  0  0  0  0  0  0  0  0  0  0
   -5.7970   22.6370  -30.2080 C   0  0  0  0  0  0  0  0  0  0  0  0
   -6.8580   23.5210  -30.4160 C   0  0  0  0  0  0  0  0  0  0  0  0
   -6.6290   24.9000  -30.4060 C   0  0  0  0  0  0  0  0  0  0  0  0
   -5.3420   25.3980  -30.1830 C   0  0  0  0  0  0  0  0  0  0  0  0
   -4.2690   24.5160  -29.9570 C   0  0  0  0  0  0  0  0  0  0  0  0
   -2.9660   24.9780  -29.7160 O   0  0  0  0  0  0  0  0  0  0  0  0
   -2.2720   24.8300  -28.4800 C   0  0  0  0  0  0  0  0  0  0  0  0
   -3.0990   21.6690  -28.5630 N   0  0  0  0  0  0  0  0  0  0  0  0
   -2.0940   20.8200  -28.8290 C   0  0  0  0  0  0  0  0  0  0  0  0
   -1.4750   19.9890  -27.9120 C   0  0  0  0  0  0  0  0  0  0  0  0
   -0.5080   19.0850  -28.3770 C   0  0  0  0  0  0  0  0  0  0  0  0
    0.0780   18.1790  -27.4790 C   0  0  0  0  0  0  0  0  0  0  0  0
    1.0100   17.2440  -27.9280 C   0  0  0  0  0  0  0  0  0  0  0  0
    1.3680   17.2020  -29.2760 C   0  0  0  0  0  0  0  0  0  0  0  0
    0.8010   18.0980  -30.1860 C   0  0  0  0  0  0  0  0  0  0  0  0
   -0.1350   19.0720  -29.7620 C   0  0  0  0  0  0  0  0  0  0  0  0
   -0.7250   20.0100  -30.6690 C   0  0  0  0  0  0  0  0  0  0  0  0
   -0.2140   20.1440  -32.0830 C   0  0  0  0  0  0  0  0  0  0  0  0
   -1.7760   20.8260  -30.1630 C   0  0  0  0  0  0  0  0  0  0  0  0
   -7.9396   19.7628  -30.5226 H   0  0  0  0  0  0  0  0  0  0  0  0
   -9.4550   20.4958  -31.1493 H   0  0  0  0  0  0  0  0  0  0  0  0
   -9.2538   18.7108  -31.1493 H   0  0  0  0  0  0  0  0  0  0  0  0
   -7.6962   18.7614  -32.9305 H   0  0  0  0  0  0  0  0  0  0  0  0
   -8.9124   20.0137  -33.3924 H   0  0  0  0  0  0  0  0  0  0  0  0
   -7.4004   21.6807  -33.2835 H   0  0  0  0  0  0  0  0  0  0  0  0
   -6.7468   21.0368  -31.6889 H   0  0  0  0  0  0  0  0  0  0  0  0
   -5.4770   21.1430  -34.0540 H   0  0  0  0  0  0  0  0  0  0  0  0
   -6.1263   18.3041  -33.5929 H   0  0  0  0  0  0  0  0  0  0  0  0
   -6.8506   19.3377  -34.8711 H   0  0  0  0  0  0  0  0  0  0  0  0
   -5.0835   19.0151  -34.8711 H   0  0  0  0  0  0  0  0  0  0  0  0
   -4.8457   20.6176  -31.5021 H   0  0  0  0  0  0  0  0  0  0  0  0
   -4.4888   19.0510  -32.3802 H   0  0  0  0  0  0  0  0  0  0  0  0
   -2.4861   19.9331  -32.8326 H   0  0  0  0  0  0  0  0  0  0  0  0
   -3.3863   20.9716  -34.0272 H   0  0  0  0  0  0  0  0  0  0  0  0
   -1.8847   22.3453  -32.6443 H   0  0  0  0  0  0  0  0  0  0  0  0
   -3.6166   22.7331  -32.3170 H   0  0  0  0  0  0  0  0  0  0  0  0
   -5.9741   21.5517  -30.2359 H   0  0  0  0  0  0  0  0  0  0  0  0
   -7.8728   23.1326  -30.5875 H   0  0  0  0  0  0  0  0  0  0  0  0
   -7.4644   25.5956  -30.5742 H   0  0  0  0  0  0  0  0  0  0  0  0
   -5.1672   26.4840  -30.1842 H   0  0  0  0  0  0  0  0  0  0  0  0
   -2.9731   24.9795  -27.6457 H   0  0  0  0  0  0  0  0  0  0  0  0
   -1.8410   23.8197  -28.4202 H   0  0  0  0  0  0  0  0  0  0  0  0
   -1.4663   25.5765  -28.4202 H   0  0  0  0  0  0  0  0  0  0  0  0
   -1.7348   20.0360  -26.8442 H   0  0  0  0  0  0  0  0  0  0  0  0
   -0.1996   18.2068  -26.4150 H   0  0  0  0  0  0  0  0  0  0  0  0
    1.4642   16.5376  -27.2176 H   0  0  0  0  0  0  0  0  0  0  0  0
    2.1008   16.4592  -29.6243 H   0  0  0  0  0  0  0  0  0  0  0  0
    1.0860   18.0459  -31.2472 H   0  0  0  0  0  0  0  0  0  0  0  0
    0.8499   20.4230  -32.0635 H   0  0  0  0  0  0  0  0  0  0  0  0
   -0.3319   19.1846  -32.6080 H   0  0  0  0  0  0  0  0  0  0  0  0
   -0.7876   20.9221  -32.6080 H   0  0  0  0  0  0  0  0  0  0  0  0
  1  2  1  0
  2  3  1  0
  3  4  1  0
  4  5  1  0
  4  6  1  0
  6  7  1  0
  7  8  1  0
  8  9  1  0
  9 10  1  0
 10 11  1  0
 11 12  2  0
 12 13  1  0
 13 14  2  0
 14 15  1  0
 15 16  2  0
 16 17  1  0
 17 18  1  0
 10 19  2  0
 19 20  1  0
 20 21  2  0
 21 22  1  0
 22 23  2  0
 23 24  1  0
 24 25  2  0
 25 26  1  0
 26 27  2  0
 27 28  1  0
 28 29  1  0
 28 30  2  0
 30  9  1  0
 16 11  1  0
 30 20  1  0
 27 22  1  0
  1 31  1  0
  1 32  1  0
  1 33  1  0
  2 34  1  0
  2 35  1  0
  3 36  1  0
  3 37  1  0
  4 38  1  6
  5 39  1  0
  5 40  1  0
  5 41  1  0
  6 42  1  0
  6 43  1  0
  7 44  1  0
  7 45  1  0
  8 46  1  0
  8 47  1  0
 12 48  1  0
 13 49  1  0
 14 50  1  0
 15 51  1  0
 18 52  1  0
 18 53  1  0
 18 54  1  0
 21 55  1  0
 23 56  1  0
 24 57  1  0
 25 58  1  0
 26 59  1  0
 29 60  1  0
 29 61  1  0
 29 62  1  0
M  CHG  1   4   1
M  END
>  <UniqueID>  (19) 
18

>  <SMILES>  (19) 
CCC[N@H+](C)CCCn1c(-c2ccccc2OC)nc2cc3ccccc3c(C)c21

>  <Energy>  (19) 
120.02252318358451

>  <Genealogy>  (19) 
CCC[NH+](C)CCCn1c(-c2ccccc2OC)nc2cc3ccccc3c(C)c21 (protonated)
CCC[N@H+](C)CCCn1c(-c2ccccc2OC)nc2cc3ccccc3c(C)c21 (chirality)
CCC[N@H+](C)CCCn1c(-c2ccccc2OC)nc2cc3ccccc3c(C)c21 (3D coordinates assigned)
CCC[N@H+](C)CCCn1c(-c2ccccc2OC)nc2cc3ccccc3c(C)c21 (optimized conformer: 120.02252318358451 kcal/mol)

>  <smiles>  (19) 
CCCN(C)CCCn1c(-c2ccccc2OC)nc2cc3ccccc3c(C)c21

>  <score_type>  (19) 
oracle

>  <origin>  (19) 
adg

>  <m_score__min__energy>  (19) 
-8.3699999999999992

>  <m_primary>  (19) 
energy

$$$$
19:0
     RDKit          3D

 58 60  0  0  0  0  0  0  0  0999 V2000
   -3.4770   23.0660  -28.6530 C   0  0  0  0  0  0  0  0  0  0  0  0
   -3.6240   24.5370  -29.0270 C   0  0  0  0  0  0  0  0  0  0  0  0
   -3.8530   24.6790  -30.4840 N   0  0  0  0  0  0  0  0  0  0  0  0
   -3.7500   23.3700  -31.1530 C   0  0  0  0  0  0  0  0  0  0  0  0
   -5.1710   25.2890  -30.7640 C   0  0  0  0  0  0  0  0  0  0  0  0
   -6.2530   24.6440  -29.8900 C   0  0  0  0  0  0  0  0  0  0  0  0
   -6.3800   23.2550  -30.1920 O   0  0  0  0  0  0  0  0  0  0  0  0
   -7.4480   22.6670  -30.8910 C   0  0  0  0  0  0  0  0  0  0  0  0
   -8.4000   23.4220  -31.6030 C   0  0  0  0  0  0  0  0  0  0  0  0
   -9.4400   22.7820  -32.2820 C   0  0  0  0  0  0  0  0  0  0  0  0
   -9.5420   21.3900  -32.2590 C   0  0  0  0  0  0  0  0  0  0  0  0
   -8.6020   20.6240  -31.5540 C   0  0  0  0  0  0  0  0  0  0  0  0
   -8.6990   19.1150  -31.5540 C   0  0  0  0  0  0  0  0  0  0  0  0
   -7.6400   18.4860  -32.3830 N   0  0  0  0  0  0  0  0  0  0  0  0
   -6.5150   18.0140  -31.5250 C   0  0  0  0  0  0  0  0  0  0  0  0
   -5.3160   18.9720  -31.5170 C   0  0  0  0  0  0  0  0  0  0  0  0
   -4.8400   19.1880  -32.8900 N   0  0  0  0  0  0  0  0  0  0  0  0
   -3.4560   19.5140  -33.1480 C   0  0  0  0  0  0  0  0  0  0  0  0
   -2.5050   18.4950  -33.3510 C   0  0  0  0  0  0  0  0  0  0  0  0
   -1.1670   18.8130  -33.6010 C   0  0  0  0  0  0  0  0  0  0  0  0
   -0.7620   20.1480  -33.6530 C   0  0  0  0  0  0  0  0  0  0  0  0
   -1.6940   21.1680  -33.4550 C   0  0  0  0  0  0  0  0  0  0  0  0
   -3.0340   20.8570  -33.2040 C   0  0  0  0  0  0  0  0  0  0  0  0
   -5.8030   19.0820  -33.9930 C   0  0  0  0  0  0  0  0  0  0  0  0
   -7.2150   19.3940  -33.4850 C   0  0  0  0  0  0  0  0  0  0  0  0
   -7.5560   21.2710  -30.8770 C   0  0  0  0  0  0  0  0  0  0  0  0
   -3.4669   22.9654  -27.5577 H   0  0  0  0  0  0  0  0  0  0  0  0
   -4.3227   22.4964  -29.0658 H   0  0  0  0  0  0  0  0  0  0  0  0
   -2.5353   22.6751  -29.0658 H   0  0  0  0  0  0  0  0  0  0  0  0
   -4.4781   24.9659  -28.4824 H   0  0  0  0  0  0  0  0  0  0  0  0
   -2.6990   25.0678  -28.7577 H   0  0  0  0  0  0  0  0  0  0  0  0
   -3.6874   22.5749  -30.3954 H   0  0  0  0  0  0  0  0  0  0  0  0
   -4.6382   23.2085  -31.7815 H   0  0  0  0  0  0  0  0  0  0  0  0
   -2.8475   23.3494  -31.7815 H   0  0  0  0  0  0  0  0  0  0  0  0
   -5.1252   26.3667  -30.5483 H   0  0  0  0  0  0  0  0  0  0  0  0
   -5.4225   25.1266  -31.8225 H   0  0  0  0  0  0  0  0  0  0  0  0
   -5.9792   24.7602  -28.8310 H   0  0  0  0  0  0  0  0  0  0  0  0
   -7.2140   25.1401  -30.0910 H   0  0  0  0  0  0  0  0  0  0  0  0
   -8.3246   24.5192  -31.6246 H   0  0  0  0  0  0  0  0  0  0  0  0
  -10.1807   23.3769  -32.8364 H   0  0  0  0  0  0  0  0  0  0  0  0
  -10.3628   20.8919  -32.7959 H   0  0  0  0  0  0  0  0  0  0  0  0
   -8.6010   18.7535  -30.5197 H   0  0  0  0  0  0  0  0  0  0  0  0
   -9.6733   18.8388  -31.9834 H   0  0  0  0  0  0  0  0  0  0  0  0
   -8.0580   17.6310  -32.8270 H   0  0  0  0  0  0  0  0  0  0  0  0
   -6.8832   17.9065  -30.4940 H   0  0  0  0  0  0  0  0  0  0  0  0
   -6.1659   17.0577  -31.9416 H   0  0  0  0  0  0  0  0  0  0  0  0
   -5.6211   19.9347  -31.0810 H   0  0  0  0  0  0  0  0  0  0  0  0
   -4.5052   18.5327  -30.9173 H   0  0  0  0  0  0  0  0  0  0  0  0
   -2.8176   17.4411  -33.3125 H   0  0  0  0  0  0  0  0  0  0  0  0
   -0.4318   18.0098  -33.7571 H   0  0  0  0  0  0  0  0  0  0  0  0
    0.2914   20.3960  -33.8500 H   0  0  0  0  0  0  0  0  0  0  0  0
   -1.3735   22.2194  -33.4965 H   0  0  0  0  0  0  0  0  0  0  0  0
   -3.7632   21.6660  -33.0493 H   0  0  0  0  0  0  0  0  0  0  0  0
   -5.5331   19.7984  -34.7829 H   0  0  0  0  0  0  0  0  0  0  0  0
   -5.7811   18.0586  -34.3956 H   0  0  0  0  0  0  0  0  0  0  0  0
   -7.2359   20.4300  -33.1159 H   0  0  0  0  0  0  0  0  0  0  0  0
   -7.9111   19.2487  -34.3242 H   0  0  0  0  0  0  0  0  0  0  0  0
   -6.8122   20.6740  -30.3289 H   0  0  0  0  0  0  0  0  0  0  0  0
  1  2  1  0
  2  3  1  0
  3  4  1  0
  3  5  1  0
  5  6  1  0
  6  7  1  0
  7  8  1  0
  8  9  2  0
  9 10  1  0
 10 11  2  0
 11 12  1  0
 12 13  1  0
 13 14  1  0
 14 15  1  0
 15 16  1  0
 16 17  1  0
 17 18  1  0
 18 19  2  0
 19 20  1  0
 20 21  2  0
 21 22  1  0
 22 23  2  0
 17 24  1  0
 24 25  1  0
 12 26  2  0
 26  8  1  0
 25 14  1  0
 23 18  1  0
  1 27  1  0
  1 28  1  0
  1 29  1  0
  2 30  1  0
  2 31  1  0
  4 32  1  0
  4 33  1  0
  4 34  1  0
  5 35  1  0
  5 36  1  0
  6 37  1  0
  6 38  1  0
  9 39  1  0
 10 40  1  0
 11 41  1  0
 13 42  1  0
 13 43  1  0
 14 44  1  0
 15 45  1  0
 15 46  1  0
 16 47  1  0
 16 48  1  0
 19 49  1  0
 20 50  1  0
 21 51  1  0
 22 52  1  0
 23 53  1  0
 24 54  1  0
 24 55  1  0
 25 56  1  0
 25 57  1  0
 26 58  1  0
M  CHG  1  14   1
M  END
>  <UniqueID>  (20) 
19

>  <SMILES>  (20) 
CCN(C)CCOc1cccc(C[NH+]2CCN(c3ccccc3)CC2)c1

>  <Energy>  (20) 
68.34866608838125

>  <Genealogy>  (20) 
CCN(C)CCOc1cccc(C[NH+]2CCN(c3ccccc3)CC2)c1 (protonated)
CCN(C)CCOc1cccc(C[NH+]2CCN(c3ccccc3)CC2)c1 (3D coordinates assigned)
CCN(C)CCOc1cccc(C[NH+]2CCN(c3ccccc3)CC2)c1 (nonaromatic ring conformer: 68.34866608838125 kcal/mol)

>  <smiles>  (20) 
CCN(C)CCOc1cccc(CN2CCN(c3ccccc3)CC2)c1

>  <score_type>  (20) 
oracle

>  <origin>  (20) 
adg

>  <m_score__min__energy>  (20) 
-7.4400000000000004

>  <m_primary>  (20) 
energy

$$$$
20:0
     RDKit          3D

 52 53  0  0  0  0  0  0  0  0999 V2000
   -2.6360   21.3560  -31.5660 C   0  0  0  0  0  0  0  0  0  0  0  0
   -1.4570   21.8340  -30.7210 C   0  0  0  0  0  0  0  0  0  0  0  0
   -1.9330   22.3610  -29.4200 N   0  0  0  0  0  0  0  0  0  0  0  0
   -3.0960   21.5950  -28.9020 C   0  0  0  0  0  0  0  0  0  0  0  0
   -2.7260   20.5050  -27.8870 C   0  0  0  0  0  0  0  0  0  0  0  0
   -2.1490   23.8280  -29.4770 C   0  0  0  0  0  0  0  0  0  0  0  0
   -3.6430   24.1930  -29.5160 C   0  0  0  0  0  0  0  0  0  0  0  0
   -3.8850   25.2130  -30.4690 O   0  0  0  0  0  0  0  0  0  0  0  0
   -5.2540   25.5630  -30.4880 C   0  0  0  0  0  0  0  0  0  0  0  0
   -6.0830   24.3960  -29.9400 C   0  0  0  0  0  0  0  0  0  0  0  0
   -6.9880   23.8410  -30.9710 N   0  0  0  0  0  0  0  0  0  0  0  0
   -6.2750   23.5960  -32.2500 C   0  0  0  0  0  0  0  0  0  0  0  0
   -5.7220   22.1680  -32.3550 C   0  0  0  0  0  0  0  0  0  0  0  0
   -6.7940   21.1800  -32.1590 N   0  0  0  0  0  0  0  0  0  0  0  0
   -6.6660   19.8330  -32.6640 C   0  0  0  0  0  0  0  0  0  0  0  0
   -5.9110   19.5520  -33.8190 C   0  0  0  0  0  0  0  0  0  0  0  0
   -5.8250   18.2370  -34.2840 C   0  0  0  0  0  0  0  0  0  0  0  0
   -6.4740   17.2120  -33.5950 C   0  0  0  0  0  0  0  0  0  0  0  0
   -7.2010   17.5160  -32.4430 C   0  0  0  0  0  0  0  0  0  0  0  0
   -7.2820   18.8030  -32.0110 N   0  0  0  0  0  0  0  0  0  0  0  0
   -8.0510   21.6220  -31.5430 C   0  0  0  0  0  0  0  0  0  0  0  0
   -7.7560   22.6700  -30.4630 C   0  0  0  0  0  0  0  0  0  0  0  0
   -3.4508   21.0257  -30.9050 H   0  0  0  0  0  0  0  0  0  0  0  0
   -2.9906   22.1814  -32.2008 H   0  0  0  0  0  0  0  0  0  0  0  0
   -2.3157   20.5167  -32.2008 H   0  0  0  0  0  0  0  0  0  0  0  0
   -0.7738   20.9906  -30.5422 H   0  0  0  0  0  0  0  0  0  0  0  0
   -0.9336   22.6368  -31.2609 H   0  0  0  0  0  0  0  0  0  0  0  0
   -3.7854   22.3006  -28.4154 H   0  0  0  0  0  0  0  0  0  0  0  0
   -3.5495   21.0847  -29.7645 H   0  0  0  0  0  0  0  0  0  0  0  0
   -2.8581   20.8941  -26.8666 H   0  0  0  0  0  0  0  0  0  0  0  0
   -3.3778   19.6311  -28.0334 H   0  0  0  0  0  0  0  0  0  0  0  0
   -1.6769   20.2085  -28.0334 H   0  0  0  0  0  0  0  0  0  0  0  0
   -1.6948   24.2880  -28.5870 H   0  0  0  0  0  0  0  0  0  0  0  0
   -1.6850   24.2026  -30.4014 H   0  0  0  0  0  0  0  0  0  0  0  0
   -4.2258   23.3002  -29.7868 H   0  0  0  0  0  0  0  0  0  0  0  0
   -3.9436   24.5585  -28.5230 H   0  0  0  0  0  0  0  0  0  0  0  0
   -5.4143   26.4533  -29.8622 H   0  0  0  0  0  0  0  0  0  0  0  0
   -5.5639   25.7823  -31.5204 H   0  0  0  0  0  0  0  0  0  0  0  0
   -5.4014   23.6030  -29.5986 H   0  0  0  0  0  0  0  0  0  0  0  0
   -6.6971   24.7704  -29.1077 H   0  0  0  0  0  0  0  0  0  0  0  0
   -6.9754   23.7643  -33.0813 H   0  0  0  0  0  0  0  0  0  0  0  0
   -5.4205   24.2874  -32.2921 H   0  0  0  0  0  0  0  0  0  0  0  0
   -5.2770   22.0253  -33.3508 H   0  0  0  0  0  0  0  0  0  0  0  0
   -4.9615   22.0247  -31.5733 H   0  0  0  0  0  0  0  0  0  0  0  0
   -5.3922   20.3625  -34.3518 H   0  0  0  0  0  0  0  0  0  0  0  0
   -5.2466   18.0104  -35.1918 H   0  0  0  0  0  0  0  0  0  0  0  0
   -6.4133   16.1747  -33.9561 H   0  0  0  0  0  0  0  0  0  0  0  0
   -7.7081   16.7152  -31.8849 H   0  0  0  0  0  0  0  0  0  0  0  0
   -8.7004   22.0634  -32.3133 H   0  0  0  0  0  0  0  0  0  0  0  0
   -8.5559   20.7587  -31.0850 H   0  0  0  0  0  0  0  0  0  0  0  0
   -8.7123   23.0300  -30.0556 H   0  0  0  0  0  0  0  0  0  0  0  0
   -7.1359   22.1819  -29.6967 H   0  0  0  0  0  0  0  0  0  0  0  0
  1  2  1  0
  2  3  1  0
  3  4  1  0
  4  5  1  0
  3  6  1  0
  6  7  1  0
  7  8  1  0
  8  9  1  0
  9 10  1  0
 10 11  1  0
 11 12  1  0
 12 13  1  0
 13 14  1  0
 14 15  1  0
 15 16  2  0
 16 17  1  0
 17 18  2  0
 18 19  1  0
 19 20  2  0
 14 21  1  0
 21 22  1  0
 22 11  1  0
 20 15  1  0
  1 23  1  0
  1 24  1  0
  1 25  1  0
  2 26  1  0
  2 27  1  0
  4 28  1  0
  4 29  1  0
  5 30  1  0
  5 31  1  0
  5 32  1  0
  6 33  1  0
  6 34  1  0
  7 35  1  0
  7 36  1  0
  9 37  1  0
  9 38  1  0
 10 39  1  0
 10 40  1  0
 12 41  1  0
 12 42  1  0
 13 43  1  0
 13 44  1  0
 16 45  1  0
 17 46  1  0
 18 47  1  0
 19 48  1  0
 21 49  1  0
 21 50  1  0
 22 51  1  0
 22 52  1  0
M  END
>  <UniqueID>  (21) 
20

>  <SMILES>  (21) 
CCN(CC)CCOCCN1CCN(c2ccccn2)CC1

>  <Energy>  (21) 
61.72869520188873

>  <Genealogy>  (21) 
CCN(CC)CCOCCN1CCN(c2ccccn2)CC1 (3D coordinates assigned)
CCN(CC)CCOCCN1CCN(c2ccccn2)CC1 (nonaromatic ring conformer: 61.72869520188873 kcal/mol)

>  <smiles>  (21) 
CCN(CC)CCOCCN1CCN(c2ccccn2)CC1

>  <score_type>  (21) 
oracle

>  <origin>  (21) 
adg

>  <m_score__min__energy>  (21) 
-7.6100000000000003

>  <m_primary>  (21) 
energy

$$$$
21:0
     RDKit          3D

 70 72  0  0  0  0  0  0  0  0999 V2000
   -1.1620   26.8250  -24.0090 C   0  0  0  0  0  0  0  0  0  0  0  0
   -1.2130   26.2030  -25.4120 C   0  0  0  0  0  0  0  0  0  0  0  0
   -0.3500   25.0090  -25.5910 N   0  0  0  0  0  0  0  0  0  0  0  0
   -0.4810   24.0670  -24.4670 C   0  0  0  0  0  0  0  0  0  0  0  0
   -0.5230   24.3030  -26.8810 C   0  0  0  0  0  0  0  0  0  0  0  0
   -0.7860   25.2760  -28.0400 C   0  0  0  0  0  0  0  0  0  0  0  0
   -2.1250   25.0740  -28.6000 N   0  0  0  0  0  0  0  0  0  0  0  0
   -2.4530   23.9840  -29.4880 C   0  0  0  0  0  0  0  0  0  0  0  0
   -1.7610   22.7590  -29.4210 C   0  0  0  0  0  0  0  0  0  0  0  0
   -2.0800   21.7120  -30.2860 C   0  0  0  0  0  0  0  0  0  0  0  0
   -3.0960   21.8580  -31.2410 C   0  0  0  0  0  0  0  0  0  0  0  0
   -3.4290   20.7430  -32.1650 C   0  0  0  0  0  0  0  0  0  0  0  0
   -2.5340   19.6730  -32.3470 C   0  0  0  0  0  0  0  0  0  0  0  0
   -2.8450   18.6270  -33.2200 C   0  0  0  0  0  0  0  0  0  0  0  0
   -4.0520   18.6370  -33.9350 C   0  0  0  0  0  0  0  0  0  0  0  0
   -4.4000   17.5000  -34.8630 C   0  0  0  0  0  0  0  0  0  0  0  0
   -5.8370   17.0090  -34.6470 C   0  0  0  0  0  0  0  0  0  0  0  0
   -6.1490   16.9330  -33.2120 N   0  0  0  0  0  0  0  0  0  0  0  0
   -7.4680   17.5120  -32.9170 C   0  0  0  0  0  0  0  0  0  0  0  0
   -7.4490   18.2310  -31.5520 C   0  0  1  0  0  0  0  0  0  0  0  0
   -6.1620   18.2330  -30.9820 O   0  0  0  0  0  0  0  0  0  0  0  0
   -7.9860   19.6430  -31.6690 C   0  0  0  0  0  0  0  0  0  0  0  0
   -9.2630   19.8690  -32.2160 C   0  0  0  0  0  0  0  0  0  0  0  0
   -9.7600   21.1710  -32.3400 C   0  0  0  0  0  0  0  0  0  0  0  0
   -8.9880   22.2590  -31.9280 C   0  0  0  0  0  0  0  0  0  0  0  0
   -9.4710   23.5200  -32.0510 F   0  0  0  0  0  0  0  0  0  0  0  0
   -7.7150   22.0480  -31.3900 C   0  0  0  0  0  0  0  0  0  0  0  0
   -7.2130   20.7500  -31.2650 C   0  0  0  0  0  0  0  0  0  0  0  0
   -4.9510   19.6970  -33.7520 C   0  0  0  0  0  0  0  0  0  0  0  0
   -4.6430   20.7420  -32.8770 C   0  0  0  0  0  0  0  0  0  0  0  0
   -3.7940   23.0760  -31.3100 C   0  0  0  0  0  0  0  0  0  0  0  0
   -3.4820   24.1410  -30.4410 C   0  0  0  0  0  0  0  0  0  0  0  0
   -4.1690   25.3650  -30.5030 O   0  0  0  0  0  0  0  0  0  0  0  0
   -5.5840   25.5070  -30.4220 C   0  0  0  0  0  0  0  0  0  0  0  0
   -1.2273   26.0291  -23.2525 H   0  0  0  0  0  0  0  0  0  0  0  0
   -0.2160   27.3723  -23.8847 H   0  0  0  0  0  0  0  0  0  0  0  0
   -2.0062   27.5191  -23.8847 H   0  0  0  0  0  0  0  0  0  0  0  0
   -2.2525   25.9090  -25.6192 H   0  0  0  0  0  0  0  0  0  0  0  0
   -0.8341   26.9679  -26.1057 H   0  0  0  0  0  0  0  0  0  0  0  0
   -0.4046   24.6166  -23.5172 H   0  0  0  0  0  0  0  0  0  0  0  0
   -1.4577   23.5640  -24.5220 H   0  0  0  0  0  0  0  0  0  0  0  0
    0.3214   23.3166  -24.5220 H   0  0  0  0  0  0  0  0  0  0  0  0
    0.3913   23.7313  -27.0981 H   0  0  0  0  0  0  0  0  0  0  0  0
   -1.3957   23.6396  -26.7903 H   0  0  0  0  0  0  0  0  0  0  0  0
   -0.7028   26.3083  -27.6693 H   0  0  0  0  0  0  0  0  0  0  0  0
   -0.0434   25.0899  -28.8299 H   0  0  0  0  0  0  0  0  0  0  0  0
   -2.8650   25.7770  -28.3770 H   0  0  0  0  0  0  0  0  0  0  0  0
   -0.9603   22.6264  -28.6785 H   0  0  0  0  0  0  0  0  0  0  0  0
   -1.5289   20.7624  -30.2181 H   0  0  0  0  0  0  0  0  0  0  0  0
   -1.5812   19.6596  -31.7974 H   0  0  0  0  0  0  0  0  0  0  0  0
   -2.1402   17.7921  -33.3471 H   0  0  0  0  0  0  0  0  0  0  0  0
   -4.2933   17.8433  -35.9026 H   0  0  0  0  0  0  0  0  0  0  0  0
   -3.7172   16.6640  -34.6511 H   0  0  0  0  0  0  0  0  0  0  0  0
   -6.5344   17.7080  -35.1318 H   0  0  0  0  0  0  0  0  0  0  0  0
   -5.9378   16.0050  -35.0850 H   0  0  0  0  0  0  0  0  0  0  0  0
   -5.4330   17.5040  -32.7030 H   0  0  0  0  0  0  0  0  0  0  0  0
   -7.7301   18.2350  -33.7035 H   0  0  0  0  0  0  0  0  0  0  0  0
   -8.2123   16.7028  -32.8827 H   0  0  0  0  0  0  0  0  0  0  0  0
   -8.1108   17.6662  -30.8789 H   0  0  0  0  0  0  0  0  0  0  0  0
   -5.7550   17.3400  -31.1310 H   0  0  0  0  0  0  0  0  0  0  0  0
   -9.8741   19.0167  -32.5481 H   0  0  0  0  0  0  0  0  0  0  0  0
  -10.7615   21.3379  -32.7632 H   0  0  0  0  0  0  0  0  0  0  0  0
   -7.1075   22.9053  -31.0645 H   0  0  0  0  0  0  0  0  0  0  0  0
   -6.2074   20.5911  -30.8484 H   0  0  0  0  0  0  0  0  0  0  0  0
   -5.9045   19.7061  -34.3004 H   0  0  0  0  0  0  0  0  0  0  0  0
   -5.3547   21.5701  -32.7437 H   0  0  0  0  0  0  0  0  0  0  0  0
   -4.5955   23.1999  -32.0531 H   0  0  0  0  0  0  0  0  0  0  0  0
   -5.8896   25.5377  -29.3657 H   0  0  0  0  0  0  0  0  0  0  0  0
   -5.8879   26.4402  -30.9189 H   0  0  0  0  0  0  0  0  0  0  0  0
   -6.0673   24.6528  -30.9189 H   0  0  0  0  0  0  0  0  0  0  0  0
  1  2  1  0
  2  3  1  0
  3  4  1  0
  3  5  1  0
  5  6  1  0
  6  7  1  0
  7  8  1  0
  8  9  2  0
  9 10  1  0
 10 11  2  0
 11 12  1  0
 12 13  2  0
 13 14  1  0
 14 15  2  0
 15 16  1  0
 16 17  1  0
 17 18  1  0
 18 19  1  0
 19 20  1  0
 20 21  1  0
 20 22  1  0
 22 23  2  0
 23 24  1  0
 24 25  2  0
 25 26  1  0
 25 27  1  0
 27 28  2  0
 15 29  1  0
 29 30  2  0
 11 31  1  0
 31 32  2  0
 32 33  1  0
 33 34  1  0
 32  8  1  0
 30 12  1  0
 28 22  1  0
  1 35  1  0
  1 36  1  0
  1 37  1  0
  2 38  1  0
  2 39  1  0
  4 40  1  0
  4 41  1  0
  4 42  1  0
  5 43  1  0
  5 44  1  0
  6 45  1  0
  6 46  1  0
  7 47  1  0
  9 48  1  0
 10 49  1  0
 13 50  1  0
 14 51  1  0
 16 52  1  0
 16 53  1  0
 17 54  1  0
 17 55  1  0
 18 56  1  0
 19 57  1  0
 19 58  1  0
 20 59  1  1
 21 60  1  0
 23 61  1  0
 24 62  1  0
 27 63  1  0
 28 64  1  0
 29 65  1  0
 30 66  1  0
 31 67  1  0
 34 68  1  0
 34 69  1  0
 34 70  1  0
M  END
>  <UniqueID>  (22) 
21

>  <SMILES>  (22) 
CCN(C)CCNc1ccc(-c2ccc(CCNC[C@@H](O)c3ccc(F)cc3)cc2)cc1OC

>  <Energy>  (22) 
75.54908809084557

>  <Genealogy>  (22) 
CCN(C)CCNc1ccc(-c2ccc(CCNC[C@@H](O)c3ccc(F)cc3)cc2)cc1OC (chirality)
CCN(C)CCNc1ccc(-c2ccc(CCNC[C@@H](O)c3ccc(F)cc3)cc2)cc1OC (3D coordinates assigned)
CCN(C)CCNc1ccc(-c2ccc(CCNC[C@@H](O)c3ccc(F)cc3)cc2)cc1OC (optimized conformer: 75.54908809084557 kcal/mol)

>  <smiles>  (22) 
CCN(C)CCNc1ccc(-c2ccc(CCNCC(O)c3ccc(F)cc3)cc2)cc1OC

>  <score_type>  (22) 
oracle

>  <origin>  (22) 
adg

>  <m_score__min__energy>  (22) 
-9.1699999999999999

>  <m_primary>  (22) 
energy

$$$$
22:0
     RDKit          3D

 53 56  0  0  0  0  0  0  0  0999 V2000
   -9.3620   21.6680  -30.5880 C   0  0  0  0  0  0  0  0  0  0  0  0
   -8.2950   21.6740  -31.6040 N   0  0  0  0  0  0  0  0  0  0  0  0
   -6.9900   21.2870  -31.0330 C   0  0  0  0  0  0  0  0  0  0  0  0
   -6.4310   22.3550  -30.0680 C   0  0  0  0  0  0  0  0  0  0  0  0
   -6.9320   23.7080  -30.3870 N   0  0  0  0  0  0  0  0  0  0  0  0
   -6.1830   24.7920  -29.7070 C   0  0  0  0  0  0  0  0  0  0  0  0
   -5.2760   25.6370  -30.6220 C   0  0  0  0  0  0  0  0  0  0  0  0
   -3.9120   25.2670  -30.4700 O   0  0  0  0  0  0  0  0  0  0  0  0
   -3.4770   23.9480  -30.5950 C   0  0  0  0  0  0  0  0  0  0  0  0
   -2.6460   23.3060  -29.7040 C   0  0  0  0  0  0  0  0  0  0  0  0
   -2.5170   22.0330  -30.2270 C   0  0  0  0  0  0  0  0  0  0  0  0
   -1.8030   20.9180  -29.5620 C   0  0  0  0  0  0  0  0  0  0  0  0
   -2.2760   20.4110  -28.3410 C   0  0  0  0  0  0  0  0  0  0  0  0
   -1.6150   19.3500  -27.7130 C   0  0  0  0  0  0  0  0  0  0  0  0
   -0.4830   18.7810  -28.3060 C   0  0  0  0  0  0  0  0  0  0  0  0
    0.3460   17.4510  -27.5180 Cl  0  0  0  0  0  0  0  0  0  0  0  0
   -0.0170   19.2680  -29.5310 C   0  0  0  0  0  0  0  0  0  0  0  0
   -0.6780   20.3270  -30.1620 C   0  0  0  0  0  0  0  0  0  0  0  0
   -3.2310   21.9590  -31.3780 N   0  0  0  0  0  0  0  0  0  0  0  0
   -3.3160   20.8590  -32.3010 C   0  0  0  0  0  0  0  0  0  0  0  0
   -4.4990   20.1100  -32.4230 C   0  0  0  0  0  0  0  0  0  0  0  0
   -4.5630   19.0340  -33.3140 C   0  0  0  0  0  0  0  0  0  0  0  0
   -3.4450   18.6880  -34.0770 C   0  0  0  0  0  0  0  0  0  0  0  0
   -3.5110   17.6430  -34.9380 F   0  0  0  0  0  0  0  0  0  0  0  0
   -2.2560   19.4140  -33.9450 C   0  0  0  0  0  0  0  0  0  0  0  0
   -1.1680   19.0740  -34.6780 F   0  0  0  0  0  0  0  0  0  0  0  0
   -2.1900   20.4910  -33.0560 C   0  0  0  0  0  0  0  0  0  0  0  0
   -3.8220   23.1230  -31.6030 N   0  0  0  0  0  0  0  0  0  0  0  0
   -7.1380   23.9120  -31.8290 C   0  0  0  0  0  0  0  0  0  0  0  0
   -8.2330   22.9580  -32.3440 C   0  0  0  0  0  0  0  0  0  0  0  0
   -8.9124   21.6705  -29.5841 H   0  0  0  0  0  0  0  0  0  0  0  0
   -9.9902   22.5626  -30.7107 H   0  0  0  0  0  0  0  0  0  0  0  0
   -9.9801   20.7664  -30.7107 H   0  0  0  0  0  0  0  0  0  0  0  0
   -7.1111   20.3422  -30.4828 H   0  0  0  0  0  0  0  0  0  0  0  0
   -6.2779   21.1801  -31.8646 H   0  0  0  0  0  0  0  0  0  0  0  0
   -6.7318   22.0981  -29.0416 H   0  0  0  0  0  0  0  0  0  0  0  0
   -5.3359   22.3657  -30.1717 H   0  0  0  0  0  0  0  0  0  0  0  0
   -6.9132   25.4661  -29.2354 H   0  0  0  0  0  0  0  0  0  0  0  0
   -5.5142   24.2962  -28.9881 H   0  0  0  0  0  0  0  0  0  0  0  0
   -5.5763   25.4816  -31.6687 H   0  0  0  0  0  0  0  0  0  0  0  0
   -5.3851   26.6953  -30.3426 H   0  0  0  0  0  0  0  0  0  0  0  0
   -2.1906   23.7120  -28.7887 H   0  0  0  0  0  0  0  0  0  0  0  0
   -3.1708   20.8503  -27.8759 H   0  0  0  0  0  0  0  0  0  0  0  0
   -1.9856   18.9629  -26.7524 H   0  0  0  0  0  0  0  0  0  0  0  0
    0.8707   18.8177  -29.9992 H   0  0  0  0  0  0  0  0  0  0  0  0
   -0.3157   20.6987  -31.1318 H   0  0  0  0  0  0  0  0  0  0  0  0
   -5.3779   20.3712  -31.8153 H   0  0  0  0  0  0  0  0  0  0  0  0
   -5.4954   18.4590  -33.4143 H   0  0  0  0  0  0  0  0  0  0  0  0
   -1.2510   21.0534  -32.9471 H   0  0  0  0  0  0  0  0  0  0  0  0
   -7.4466   24.9523  -32.0095 H   0  0  0  0  0  0  0  0  0  0  0  0
   -6.1981   23.7045  -32.3614 H   0  0  0  0  0  0  0  0  0  0  0  0
   -9.2063   23.4617  -32.2494 H   0  0  0  0  0  0  0  0  0  0  0  0
   -7.9874   22.7177  -33.3890 H   0  0  0  0  0  0  0  0  0  0  0  0
  1  2  1  0
  2  3  1  0
  3  4  1  0
  4  5  1  0
  5  6  1  0
  6  7  1  0
  7  8  1  0
  8  9  1  0
  9 10  1  0
 10 11  2  0
 11 12  1  0
 12 13  2  0
 13 14  1  0
 14 15  2  0
 15 16  1  0
 15 17  1  0
 17 18  2  0
 11 19  1  0
 19 20  1  0
 20 21  2  0
 21 22  1  0
 22 23  2  0
 23 24  1  0
 23 25  1  0
 25 26  1  0
 25 27  2  0
 19 28  1  0
  5 29  1  0
 29 30  1  0
 30  2  1  0
 28  9  2  0
 18 12  1  0
 27 20  1  0
  1 31  1  0
  1 32  1  0
  1 33  1  0
  3 34  1  0
  3 35  1  0
  4 36  1  0
  4 37  1  0
  6 38  1  0
  6 39  1  0
  7 40  1  0
  7 41  1  0
 10 42  1  0
 13 43  1  0
 14 44  1  0
 17 45  1  0
 18 46  1  0
 21 47  1  0
 22 48  1  0
 27 49  1  0
 29 50  1  0
 29 51  1  0
 30 52  1  0
 30 53  1  0
M  END
>  <UniqueID>  (23) 
22

>  <SMILES>  (23) 
CN1CCN(CCOc2cc(-c3ccc(Cl)cc3)n(-c3ccc(F)c(F)c3)n2)CC1

>  <Energy>  (23) 
107.2518916270969

>  <Genealogy>  (23) 
CN1CCN(CCOc2cc(-c3ccc(Cl)cc3)n(-c3ccc(F)c(F)c3)n2)CC1 (3D coordinates assigned)
CN1CCN(CCOc2cc(-c3ccc(Cl)cc3)n(-c3ccc(F)c(F)c3)n2)CC1 (nonaromatic ring conformer: 107.2518916270969 kcal/mol)

>  <smiles>  (23) 
CN1CCN(CCOc2cc(-c3ccc(Cl)cc3)n(-c3ccc(F)c(F)c3)n2)CC1

>  <score_type>  (23) 
oracle

>  <origin>  (23) 
adg

>  <m_score__min__energy>  (23) 
-8.8300000000000001

>  <m_primary>  (23) 
energy

$$$$
23:0
     RDKit          3D

 58 61  0  0  0  0  0  0  0  0999 V2000
   -1.3140   20.4870  -33.2140 C   0  0  0  0  0  0  0  0  0  0  0  0
   -2.6910   20.3610  -33.8640 C   0  0  0  0  0  0  0  0  0  0  0  0
   -3.3360   19.0740  -33.5180 N   0  0  0  0  0  0  0  0  0  0  0  0
   -2.7220   17.8710  -34.1320 C   0  0  0  0  0  0  0  0  0  0  0  0
   -3.6510   17.0840  -35.0710 C   0  0  0  0  0  0  0  0  0  0  0  0
   -4.8190   19.0790  -33.5130 C   0  0  0  0  0  0  0  0  0  0  0  0
   -5.4510   18.1540  -32.4610 C   0  0  0  0  0  0  0  0  0  0  0  0
   -5.7030   18.9000  -31.2310 N   0  0  0  0  0  0  0  0  0  0  0  0
   -5.7850   20.3320  -31.2330 C   0  0  0  0  0  0  0  0  0  0  0  0
   -4.6610   21.0970  -30.9270 C   0  0  0  0  0  0  0  0  0  0  0  0
   -4.7360   22.4770  -30.8720 C   0  0  0  0  0  0  0  0  0  0  0  0
   -5.8470   23.1500  -31.3170 N   0  0  0  0  0  0  0  0  0  0  0  0
   -5.7600   24.5640  -31.7110 C   0  0  0  0  0  0  0  0  0  0  0  0
   -7.0160   22.4350  -31.5170 C   0  0  0  0  0  0  0  0  0  0  0  0
   -8.2500   23.0870  -31.7580 C   0  0  0  0  0  0  0  0  0  0  0  0
   -9.4160   22.3550  -31.9840 C   0  0  0  0  0  0  0  0  0  0  0  0
   -9.3840   20.9630  -31.9750 C   0  0  0  0  0  0  0  0  0  0  0  0
   -8.1910   20.2900  -31.7240 C   0  0  0  0  0  0  0  0  0  0  0  0
   -7.0010   21.0040  -31.4800 C   0  0  0  0  0  0  0  0  0  0  0  0
   -3.4350   22.9780  -30.3930 C   0  0  0  0  0  0  0  0  0  0  0  0
   -2.5900   21.8830  -30.2870 C   0  0  0  0  0  0  0  0  0  0  0  0
   -1.2850   22.0130  -29.8210 C   0  0  0  0  0  0  0  0  0  0  0  0
   -0.8330   23.2740  -29.4160 C   0  0  0  0  0  0  0  0  0  0  0  0
   -1.7140   24.3820  -29.4080 C   0  0  0  0  0  0  0  0  0  0  0  0
   -1.3180   25.6440  -28.9390 O   0  0  0  0  0  0  0  0  0  0  0  0
   -1.0280   25.9420  -27.5780 C   0  0  0  0  0  0  0  0  0  0  0  0
   -3.0390   24.2200  -29.8580 C   0  0  0  0  0  0  0  0  0  0  0  0
   -3.9340   25.2690  -29.6990 O   0  0  0  0  0  0  0  0  0  0  0  0
   -3.2850   20.5990  -30.6050 C   0  0  0  0  0  0  0  0  0  0  0  0
   -1.4229   20.4770  -32.1195 H   0  0  0  0  0  0  0  0  0  0  0  0
   -0.6820   19.6429  -33.5273 H   0  0  0  0  0  0  0  0  0  0  0  0
   -0.8457   21.4317  -33.5273 H   0  0  0  0  0  0  0  0  0  0  0  0
   -3.3287   21.1863  -33.5143 H   0  0  0  0  0  0  0  0  0  0  0  0
   -2.5635   20.4018  -34.9558 H   0  0  0  0  0  0  0  0  0  0  0  0
   -1.8428   18.1920  -34.7098 H   0  0  0  0  0  0  0  0  0  0  0  0
   -2.4709   17.1928  -33.3031 H   0  0  0  0  0  0  0  0  0  0  0  0
   -4.3558   16.4869  -34.4737 H   0  0  0  0  0  0  0  0  0  0  0  0
   -4.2115   17.7863  -35.7055 H   0  0  0  0  0  0  0  0  0  0  0  0
   -3.0504   16.4157  -35.7055 H   0  0  0  0  0  0  0  0  0  0  0  0
   -5.1594   20.1065  -33.3172 H   0  0  0  0  0  0  0  0  0  0  0  0
   -5.1386   18.7027  -34.4960 H   0  0  0  0  0  0  0  0  0  0  0  0
   -6.4010   17.7569  -32.8480 H   0  0  0  0  0  0  0  0  0  0  0  0
   -4.7612   17.3244  -32.2467 H   0  0  0  0  0  0  0  0  0  0  0  0
   -6.0820   18.3780  -30.4080 H   0  0  0  0  0  0  0  0  0  0  0  0
   -5.7212   25.1939  -30.8101 H   0  0  0  0  0  0  0  0  0  0  0  0
   -4.8504   24.7228  -32.3088 H   0  0  0  0  0  0  0  0  0  0  0  0
   -6.6433   24.8331  -32.3088 H   0  0  0  0  0  0  0  0  0  0  0  0
   -8.2896   24.1862  -31.7671 H   0  0  0  0  0  0  0  0  0  0  0  0
  -10.3647   22.8798  -32.1701 H   0  0  0  0  0  0  0  0  0  0  0  0
  -10.3048   20.3926  -32.1669 H   0  0  0  0  0  0  0  0  0  0  0  0
   -8.1775   19.1901  -31.7161 H   0  0  0  0  0  0  0  0  0  0  0  0
   -0.6195   21.1385  -29.7718 H   0  0  0  0  0  0  0  0  0  0  0  0
    0.2131   23.4050  -29.1020 H   0  0  0  0  0  0  0  0  0  0  0  0
   -1.6450   25.3080  -26.9243 H   0  0  0  0  0  0  0  0  0  0  0  0
    0.0362   25.7478  -27.3788 H   0  0  0  0  0  0  0  0  0  0  0  0
   -1.2511   27.0006  -27.3788 H   0  0  0  0  0  0  0  0  0  0  0  0
   -2.8257   20.0927  -31.4668 H   0  0  0  0  0  0  0  0  0  0  0  0
   -3.2484   19.8499  -29.8004 H   0  0  0  0  0  0  0  0  0  0  0  0
  1  2  1  0
  2  3  1  0
  3  4  1  0
  4  5  1  0
  3  6  1  0
  6  7  1  0
  7  8  1  0
  8  9  1  0
  9 10  2  0
 10 11  1  0
 11 12  2  0
 12 13  1  0
 12 14  1  0
 14 15  2  0
 15 16  1  0
 16 17  2  0
 17 18  1  0
 18 19  2  0
 11 20  1  0
 20 21  2  0
 21 22  1  0
 22 23  2  0
 23 24  1  0
 24 25  1  0
 25 26  1  0
 24 27  2  0
 27 28  1  0
 21 29  1  0
 19  9  1  0
 27 20  1  0
 29 10  1  0
 19 14  1  0
  1 30  1  0
  1 31  1  0
  1 32  1  0
  2 33  1  0
  2 34  1  0
  4 35  1  0
  4 36  1  0
  5 37  1  0
  5 38  1  0
  5 39  1  0
  6 40  1  0
  6 41  1  0
  7 42  1  0
  7 43  1  0
  8 44  1  0
 13 45  1  0
 13 46  1  0
 13 47  1  0
 15 48  1  0
 16 49  1  0
 17 50  1  0
 18 51  1  0
 22 52  1  0
 23 53  1  0
 26 54  1  0
 26 55  1  0
 26 56  1  0
 29 57  1  0
 29 58  1  0
M  CHG  2  12   1  28  -1
M  END
>  <UniqueID>  (24) 
23

>  <SMILES>  (24) 
CCN(CC)CCNc1c2c([n+](C)c3ccccc13)-c1c(ccc(OC)c1[O-])C2

>  <Energy>  (24) 
112.08331378248701

>  <Genealogy>  (24) 
CCN(CC)CCNc1c2c([n+](C)c3ccccc13)-c1c(ccc(OC)c1[O-])C2 (protonated)
CCN(CC)CCNc1c2c([n+](C)c3ccccc13)-c1c(ccc(OC)c1[O-])C2 (3D coordinates assigned)
CCN(CC)CCNc1c2c([n+](C)c3ccccc13)-c1c(ccc(OC)c1[O-])C2 (nonaromatic ring conformer: 112.08331378248701 kcal/mol)

>  <smiles>  (24) 
CCN(CC)CCNc1c2c([n+](C)c3ccccc13)-c1c(ccc(OC)c1O)C2

>  <score_type>  (24) 
oracle

>  <origin>  (24) 
adg

>  <m_score__min__energy>  (24) 
-8.9700000000000006

>  <m_primary>  (24) 
energy

$$$$
24:0
     RDKit          3D

 41 42  0  0  0  0  0  0  0  0999 V2000
   -2.3680   23.0910  -30.0340 C   0  0  0  0  0  0  0  0  0  0  0  0
   -3.6230   23.0690  -29.1510 C   0  0  0  0  0  0  0  0  0  0  0  0
   -3.9950   24.3960  -28.6000 N   0  0  0  0  0  0  0  0  0  0  0  0
   -3.7860   24.5280  -27.1390 C   0  0  0  0  0  0  0  0  0  0  0  0
   -2.3520   24.9360  -26.7960 C   0  0  0  0  0  0  0  0  0  0  0  0
   -5.3630   24.8050  -28.9910 C   0  0  0  0  0  0  0  0  0  0  0  0
   -5.3630   25.4570  -30.3770 C   0  0  0  0  0  0  0  0  0  0  0  0
   -5.0080   24.5070  -31.3850 O   0  0  0  0  0  0  0  0  0  0  0  0
   -5.7010   23.3230  -31.6810 C   0  0  0  0  0  0  0  0  0  0  0  0
   -7.0390   23.1070  -31.3020 C   0  0  0  0  0  0  0  0  0  0  0  0
   -7.6880   21.9150  -31.6350 C   0  0  0  0  0  0  0  0  0  0  0  0
   -7.0080   20.9070  -32.3460 C   0  0  0  0  0  0  0  0  0  0  0  0
   -7.6170   19.6850  -32.7120 C   0  0  0  0  0  0  0  0  0  0  0  0
   -9.0500   19.3730  -32.3700 C   0  0  0  0  0  0  0  0  0  0  0  0
   -6.8560   18.7410  -33.4150 C   0  0  0  0  0  0  0  0  0  0  0  0
   -5.5270   19.0280  -33.7340 C   0  0  0  0  0  0  0  0  0  0  0  0
   -4.8360   18.1860  -34.3640 O   0  0  0  0  0  0  0  0  0  0  0  0
   -4.9850   20.1870  -33.3770 O   0  0  0  0  0  0  0  0  0  0  0  0
   -5.6570   21.1190  -32.7090 C   0  0  0  0  0  0  0  0  0  0  0  0
   -5.0180   22.3170  -32.3710 C   0  0  0  0  0  0  0  0  0  0  0  0
   -1.4715   23.1067  -29.3967 H   0  0  0  0  0  0  0  0  0  0  0  0
   -2.3507   22.1930  -30.6691 H   0  0  0  0  0  0  0  0  0  0  0  0
   -2.3822   23.9890  -30.6691 H   0  0  0  0  0  0  0  0  0  0  0  0
   -4.4641   22.6964  -29.7541 H   0  0  0  0  0  0  0  0  0  0  0  0
   -3.3977   22.4191  -28.2926 H   0  0  0  0  0  0  0  0  0  0  0  0
   -4.4747   25.2925  -26.7501 H   0  0  0  0  0  0  0  0  0  0  0  0
   -3.9774   23.5468  -26.6800 H   0  0  0  0  0  0  0  0  0  0  0  0
   -2.2320   24.9702  -25.7031 H   0  0  0  0  0  0  0  0  0  0  0  0
   -1.6507   24.2017  -27.2191 H   0  0  0  0  0  0  0  0  0  0  0  0
   -2.1423   25.9295  -27.2191 H   0  0  0  0  0  0  0  0  0  0  0  0
   -6.0126   23.9175  -29.0104 H   0  0  0  0  0  0  0  0  0  0  0  0
   -5.7342   25.5366  -28.2583 H   0  0  0  0  0  0  0  0  0  0  0  0
   -6.3677   25.8507  -30.5903 H   0  0  0  0  0  0  0  0  0  0  0  0
   -4.6234   26.2712  -30.3837 H   0  0  0  0  0  0  0  0  0  0  0  0
   -7.5785   23.8829  -30.7390 H   0  0  0  0  0  0  0  0  0  0  0  0
   -8.7367   21.7630  -31.3399 H   0  0  0  0  0  0  0  0  0  0  0  0
   -9.1688   19.3471  -31.2767 H   0  0  0  0  0  0  0  0  0  0  0  0
   -9.7051   20.1496  -32.7917 H   0  0  0  0  0  0  0  0  0  0  0  0
   -9.3229   18.3944  -32.7917 H   0  0  0  0  0  0  0  0  0  0  0  0
   -7.3024   17.7809  -33.7133 H   0  0  0  0  0  0  0  0  0  0  0  0
   -3.9653   22.4692  -32.6516 H   0  0  0  0  0  0  0  0  0  0  0  0
  1  2  1  0
  2  3  1  0
  3  4  1  0
  4  5  1  0
  3  6  1  0
  6  7  1  0
  7  8  1  0
  8  9  1  0
  9 10  2  0
 10 11  1  0
 11 12  2  0
 12 13  1  0
 13 14  1  0
 13 15  2  0
 15 16  1  0
 16 17  2  0
 16 18  1  0
 18 19  1  0
 19 20  2  0
 20  9  1  0
 19 12  1  0
  1 21  1  0
  1 22  1  0
  1 23  1  0
  2 24  1  0
  2 25  1  0
  4 26  1  0
  4 27  1  0
  5 28  1  0
  5 29  1  0
  5 30  1  0
  6 31  1  0
  6 32  1  0
  7 33  1  0
  7 34  1  0
 10 35  1  0
 11 36  1  0
 14 37  1  0
 14 38  1  0
 14 39  1  0
 15 40  1  0
 20 41  1  0
M  END
>  <UniqueID>  (25) 
24

>  <SMILES>  (25) 
CCN(CC)CCOc1ccc2c(C)cc(=O)oc2c1

>  <Energy>  (25) 
46.263755027863866

>  <Genealogy>  (25) 
CCN(CC)CCOc1ccc2c(C)cc(=O)oc2c1 (3D coordinates assigned)
CCN(CC)CCOc1ccc2c(C)cc(=O)oc2c1 (optimized conformer: 46.263755027863866 kcal/mol)

>  <smiles>  (25) 
CCN(CC)CCOc1ccc2c(C)cc(=O)oc2c1

>  <score_type>  (25) 
oracle

>  <origin>  (25) 
adg

>  <m_score__min__energy>  (25) 
-6.8799999999999999

>  <m_primary>  (25) 
energy

$$$$
25:0
     RDKit          3D

 61 64  0  0  0  0  0  0  0  0999 V2000
   -6.0460   25.2640  -29.9760 C   0  0  0  0  0  0  0  0  0  0  0  0
   -4.6580   24.8490  -30.4460 C   0  0  0  0  0  0  0  0  0  0  0  0
   -3.9510   24.1470  -29.3470 N   0  0  0  0  0  0  0  0  0  0  0  0
   -2.4830   24.1140  -29.5370 C   0  0  0  0  0  0  0  0  0  0  0  0
   -1.7110   24.9760  -28.5260 C   0  0  0  0  0  0  0  0  0  0  0  0
   -4.5120   22.8100  -29.0340 C   0  0  0  0  0  0  0  0  0  0  0  0
   -3.4540   21.7120  -29.1810 C   0  0  0  0  0  0  0  0  0  0  0  0
   -3.6550   21.0140  -30.3930 O   0  0  0  0  0  0  0  0  0  0  0  0
   -2.4210   20.7390  -31.0300 C   0  0  0  0  0  0  0  0  0  0  0  0
   -2.1470   21.7700  -32.1280 C   0  0  0  0  0  0  0  0  0  0  0  0
   -2.9580   21.4960  -33.3130 N   0  0  0  0  0  0  0  0  0  0  0  0
   -3.9970   20.5080  -33.2690 C   0  0  0  0  0  0  0  0  0  0  0  0
   -5.2640   20.8630  -32.8180 C   0  0  0  0  0  0  0  0  0  0  0  0
   -6.2880   19.9370  -32.7730 C   0  0  0  0  0  0  0  0  0  0  0  0
   -6.0770   18.6080  -33.0470 N   0  0  0  0  0  0  0  0  0  0  0  0
   -7.0900   17.6070  -32.6710 C   0  0  0  0  0  0  0  0  0  0  0  0
   -4.8630   18.2320  -33.6010 C   0  0  0  0  0  0  0  0  0  0  0  0
   -4.6440   16.9250  -34.0970 C   0  0  0  0  0  0  0  0  0  0  0  0
   -3.3980   16.5450  -34.5950 C   0  0  0  0  0  0  0  0  0  0  0  0
   -2.3440   17.4520  -34.6200 C   0  0  0  0  0  0  0  0  0  0  0  0
   -2.5360   18.7580  -34.1750 C   0  0  0  0  0  0  0  0  0  0  0  0
   -3.7890   19.1770  -33.6910 C   0  0  0  0  0  0  0  0  0  0  0  0
   -7.5090   20.6420  -32.3610 C   0  0  0  0  0  0  0  0  0  0  0  0
   -8.8540   20.2460  -32.3510 C   0  0  0  0  0  0  0  0  0  0  0  0
   -9.8300   21.1840  -31.9750 C   0  0  0  0  0  0  0  0  0  0  0  0
   -9.4660   22.5050  -31.6620 C   0  0  0  0  0  0  0  0  0  0  0  0
   -8.1250   22.9060  -31.7430 C   0  0  0  0  0  0  0  0  0  0  0  0
   -7.1630   21.9610  -32.1050 C   0  0  0  0  0  0  0  0  0  0  0  0
   -5.7130   22.2200  -32.3620 C   0  0  0  0  0  0  0  0  0  0  0  0
   -6.0735   25.2722  -28.8764 H   0  0  0  0  0  0  0  0  0  0  0  0
   -6.2762   26.2703  -30.3561 H   0  0  0  0  0  0  0  0  0  0  0  0
   -6.7908   24.5492  -30.3561 H   0  0  0  0  0  0  0  0  0  0  0  0
   -4.7503   24.1758  -31.3111 H   0  0  0  0  0  0  0  0  0  0  0  0
   -4.0872   25.7436  -30.7355 H   0  0  0  0  0  0  0  0  0  0  0  0
   -2.1430   23.0727  -29.4370 H   0  0  0  0  0  0  0  0  0  0  0  0
   -2.2782   24.5276  -30.5355 H   0  0  0  0  0  0  0  0  0  0  0  0
   -1.9820   24.6734  -27.5038 H   0  0  0  0  0  0  0  0  0  0  0  0
   -0.6301   24.8366  -28.6752 H   0  0  0  0  0  0  0  0  0  0  0  0
   -1.9682   26.0350  -28.6752 H   0  0  0  0  0  0  0  0  0  0  0  0
   -4.8849   22.8116  -27.9991 H   0  0  0  0  0  0  0  0  0  0  0  0
   -5.3276   22.6022  -29.7422 H   0  0  0  0  0  0  0  0  0  0  0  0
   -2.4527   22.1674  -29.1834 H   0  0  0  0  0  0  0  0  0  0  0  0
   -3.5393   21.0098  -28.3386 H   0  0  0  0  0  0  0  0  0  0  0  0
   -1.6120   20.7782  -30.2857 H   0  0  0  0  0  0  0  0  0  0  0  0
   -2.4684   19.7380  -31.4836 H   0  0  0  0  0  0  0  0  0  0  0  0
   -2.3903   22.7735  -31.7489 H   0  0  0  0  0  0  0  0  0  0  0  0
   -1.0846   21.7128  -32.4075 H   0  0  0  0  0  0  0  0  0  0  0  0
   -2.4990   21.6520  -34.2390 H   0  0  0  0  0  0  0  0  0  0  0  0
   -7.1539   17.5439  -31.5747 H   0  0  0  0  0  0  0  0  0  0  0  0
   -8.0676   17.9036  -33.0788 H   0  0  0  0  0  0  0  0  0  0  0  0
   -6.8050   16.6259  -33.0788 H   0  0  0  0  0  0  0  0  0  0  0  0
   -5.4691   16.1976  -34.0897 H   0  0  0  0  0  0  0  0  0  0  0  0
   -3.2480   15.5219  -34.9702 H   0  0  0  0  0  0  0  0  0  0  0  0
   -1.3575   17.1377  -34.9916 H   0  0  0  0  0  0  0  0  0  0  0  0
   -1.6981   19.4702  -34.2023 H   0  0  0  0  0  0  0  0  0  0  0  0
   -9.1393   19.2215  -32.6319 H   0  0  0  0  0  0  0  0  0  0  0  0
  -10.8867   20.8824  -31.9252 H   0  0  0  0  0  0  0  0  0  0  0  0
  -10.2361   23.2269  -31.3524 H   0  0  0  0  0  0  0  0  0  0  0  0
   -7.8364   23.9449  -31.5256 H   0  0  0  0  0  0  0  0  0  0  0  0
   -5.5695   22.9787  -33.1454 H   0  0  0  0  0  0  0  0  0  0  0  0
   -5.1602   22.6171  -31.4979 H   0  0  0  0  0  0  0  0  0  0  0  0
  1  2  1  0
  2  3  1  0
  3  4  1  0
  4  5  1  0
  3  6  1  0
  6  7  1  0
  7  8  1  0
  8  9  1  0
  9 10  1  0
 10 11  1  0
 11 12  1  0
 12 13  2  0
 13 14  1  0
 14 15  2  0
 15 16  1  0
 15 17  1  0
 17 18  2  0
 18 19  1  0
 19 20  2  0
 20 21  1  0
 21 22  2  0
 14 23  1  0
 23 24  2  0
 24 25  1  0
 25 26  2  0
 26 27  1  0
 27 28  2  0
 28 29  1  0
 22 12  1  0
 28 23  1  0
 29 13  1  0
 22 17  1  0
  1 30  1  0
  1 31  1  0
  1 32  1  0
  2 33  1  0
  2 34  1  0
  4 35  1  0
  4 36  1  0
  5 37  1  0
  5 38  1  0
  5 39  1  0
  6 40  1  0
  6 41  1  0
  7 42  1  0
  7 43  1  0
  9 44  1  0
  9 45  1  0
 10 46  1  0
 10 47  1  0
 11 48  1  0
 16 49  1  0
 16 50  1  0
 16 51  1  0
 18 52  1  0
 19 53  1  0
 20 54  1  0
 21 55  1  0
 24 56  1  0
 25 57  1  0
 26 58  1  0
 27 59  1  0
 29 60  1  0
 29 61  1  0
M  CHG  1  15   1
M  END
>  <UniqueID>  (26) 
25

>  <SMILES>  (26) 
CCN(CC)CCOCCNc1c2c([n+](C)c3ccccc13)-c1ccccc1C2

>  <Energy>  (26) 
106.42796072070895

>  <Genealogy>  (26) 
CCN(CC)CCOCCNc1c2c([n+](C)c3ccccc13)-c1ccccc1C2 (3D coordinates assigned)
CCN(CC)CCOCCNc1c2c([n+](C)c3ccccc13)-c1ccccc1C2 (nonaromatic ring conformer: 106.42796072070895 kcal/mol)

>  <smiles>  (26) 
CCN(CC)CCOCCNc1c2c([n+](C)c3ccccc13)-c1ccccc1C2

>  <score_type>  (26) 
oracle

>  <origin>  (26) 
adg

>  <m_score__min__energy>  (26) 
-9.4499999999999993

>  <m_primary>  (26) 
energy

$$$$
26:0
     RDKit          3D

 35 37  0  0  0  0  0  0  0  0999 V2000
   -2.2010   24.6190  -28.8720 C   0  0  0  0  0  0  0  0  0  0  0  0
   -3.1360   25.2870  -29.7120 O   0  0  0  0  0  0  0  0  0  0  0  0
   -4.3630   24.7420  -30.1200 C   0  0  0  0  0  0  0  0  0  0  0  0
   -5.6110   25.2730  -29.6890 C   0  0  0  0  0  0  0  0  0  0  0  0
   -6.8220   24.7060  -30.1290 C   0  0  0  0  0  0  0  0  0  0  0  0
   -6.7540   23.6170  -30.9910 C   0  0  0  0  0  0  0  0  0  0  0  0
   -7.7800   22.9590  -31.5620 N   0  0  0  0  0  0  0  0  0  0  0  0
   -7.1570   22.0300  -32.3330 C   0  0  0  0  0  0  0  0  0  0  0  0
   -5.8040   22.0870  -32.2540 N   0  0  0  0  0  0  0  0  0  0  0  0
   -4.8510   21.3040  -33.0420 C   0  0  0  0  0  0  0  0  0  0  0  0
   -4.4710   20.0070  -32.3170 C   0  0  0  0  0  0  0  0  0  0  0  0
   -5.2760   18.8360  -32.8160 C   0  0  0  0  0  0  0  0  0  0  0  0
   -6.4490   18.4440  -32.1480 C   0  0  0  0  0  0  0  0  0  0  0  0
   -7.2350   17.4040  -32.6550 C   0  0  0  0  0  0  0  0  0  0  0  0
   -6.8550   16.7490  -33.8290 C   0  0  0  0  0  0  0  0  0  0  0  0
   -5.6900   17.1320  -34.4990 C   0  0  0  0  0  0  0  0  0  0  0  0
   -4.9030   18.1720  -33.9970 C   0  0  0  0  0  0  0  0  0  0  0  0
   -5.5620   23.1000  -31.4040 C   0  0  0  0  0  0  0  0  0  0  0  0
   -4.3410   23.6340  -30.9890 C   0  0  0  0  0  0  0  0  0  0  0  0
   -2.4581   24.8027  -27.8184 H   0  0  0  0  0  0  0  0  0  0  0  0
   -2.2333   23.5382  -29.0742 H   0  0  0  0  0  0  0  0  0  0  0  0
   -1.1890   24.9998  -29.0742 H   0  0  0  0  0  0  0  0  0  0  0  0
   -5.6295   26.1347  -29.0055 H   0  0  0  0  0  0  0  0  0  0  0  0
   -7.7908   25.1113  -29.8015 H   0  0  0  0  0  0  0  0  0  0  0  0
   -7.6961   21.3038  -32.9591 H   0  0  0  0  0  0  0  0  0  0  0  0
   -5.3063   21.0537  -34.0116 H   0  0  0  0  0  0  0  0  0  0  0  0
   -3.9403   21.9038  -33.1865 H   0  0  0  0  0  0  0  0  0  0  0  0
   -3.4032   19.8037  -32.4855 H   0  0  0  0  0  0  0  0  0  0  0  0
   -4.6820   20.1376  -31.2454 H   0  0  0  0  0  0  0  0  0  0  0  0
   -6.7500   18.9572  -31.2228 H   0  0  0  0  0  0  0  0  0  0  0  0
   -8.1527   17.1017  -32.1291 H   0  0  0  0  0  0  0  0  0  0  0  0
   -7.4736   15.9308  -34.2265 H   0  0  0  0  0  0  0  0  0  0  0  0
   -5.3921   16.6142  -35.4227 H   0  0  0  0  0  0  0  0  0  0  0  0
   -3.9878   18.4721  -34.5285 H   0  0  0  0  0  0  0  0  0  0  0  0
   -3.3890   23.2018  -31.3309 H   0  0  0  0  0  0  0  0  0  0  0  0
  1  2  1  0
  2  3  1  0
  3  4  2  0
  4  5  1  0
  5  6  2  0
  6  7  1  0
  7  8  1  0
  8  9  2  0
  9 10  1  0
 10 11  1  0
 11 12  1  0
 12 13  2  0
 13 14  1  0
 14 15  2  0
 15 16  1  0
 16 17  2  0
  9 18  1  0
 18 19  2  0
 19  3  1  0
 18  6  1  0
 17 12  1  0
  1 20  1  0
  1 21  1  0
  1 22  1  0
  4 23  1  0
  5 24  1  0
  8 25  1  0
 10 26  1  0
 10 27  1  0
 11 28  1  0
 11 29  1  0
 13 30  1  0
 14 31  1  0
 15 32  1  0
 16 33  1  0
 17 34  1  0
 19 35  1  0
M  CHG  2   7  -1   9   1
M  END
>  <UniqueID>  (27) 
26

>  <SMILES>  (27) 
COc1ccc2[n-]c[n+](CCc3ccccc3)c2c1

>  <Energy>  (27) 
68.34476979438146

>  <Genealogy>  (27) 
COc1ccc2[n-]c[n+](CCc3ccccc3)c2c1 (protonated)
COc1ccc2[n-]c[n+](CCc3ccccc3)c2c1 (3D coordinates assigned)
COc1ccc2[n-]c[n+](CCc3ccccc3)c2c1 (optimized conformer: 68.34476979438146 kcal/mol)

>  <smiles>  (27) 
COc1ccc2[nH]c[n+](CCc3ccccc3)c2c1

>  <score_type>  (27) 
oracle

>  <origin>  (27) 
adg

>  <m_score__min__energy>  (27) 
-7.3499999999999996

>  <m_primary>  (27) 
energy

$$$$
27:0
     RDKit          3D

 34 36  0  0  0  0  0  0  0  0999 V2000
   -2.2640   24.8690  -28.6630 C   0  0  0  0  0  0  0  0  0  0  0  0
   -3.1340   25.2780  -29.7130 O   0  0  0  0  0  0  0  0  0  0  0  0
   -4.2800   24.5740  -30.1140 C   0  0  0  0  0  0  0  0  0  0  0  0
   -5.5300   25.1760  -29.9240 C   0  0  0  0  0  0  0  0  0  0  0  0
   -6.7040   24.5200  -30.3040 C   0  0  0  0  0  0  0  0  0  0  0  0
   -6.6380   23.2450  -30.8820 C   0  0  0  0  0  0  0  0  0  0  0  0
   -7.7960   22.5660  -31.2790 C   0  0  0  0  0  0  0  0  0  0  0  0
   -7.7000   21.2940  -31.8550 C   0  0  0  0  0  0  0  0  0  0  0  0
   -8.9000   20.6490  -32.3240 C   0  0  0  0  0  0  0  0  0  0  0  0
   -9.8630   20.1270  -32.7020 N   0  0  0  0  0  0  0  0  0  0  0  0
   -6.4290   20.7050  -32.0190 C   0  0  0  0  0  0  0  0  0  0  0  0
   -6.2740   19.3970  -32.5930 N   0  0  0  0  0  0  0  0  0  0  0  0
   -6.0300   19.1800  -34.0100 C   0  0  0  0  0  0  0  0  0  0  0  0
   -6.1160   17.6740  -34.2140 C   0  0  0  0  0  0  0  0  0  0  0  0
   -6.8530   17.1290  -32.9940 C   0  0  0  0  0  0  0  0  0  0  0  0
   -6.7210   18.1930  -31.9120 C   0  0  0  0  0  0  0  0  0  0  0  0
   -5.3180   21.3930  -31.6350 N   0  0  0  0  0  0  0  0  0  0  0  0
   -5.3850   22.6300  -31.0760 C   0  0  0  0  0  0  0  0  0  0  0  0
   -4.2130   23.2920  -30.6950 C   0  0  0  0  0  0  0  0  0  0  0  0
   -2.7322   25.0891  -27.6922 H   0  0  0  0  0  0  0  0  0  0  0  0
   -2.0759   23.7881  -28.7427 H   0  0  0  0  0  0  0  0  0  0  0  0
   -1.3117   25.4137  -28.7427 H   0  0  0  0  0  0  0  0  0  0  0  0
   -5.5885   26.1765  -29.4705 H   0  0  0  0  0  0  0  0  0  0  0  0
   -7.6795   25.0042  -30.1495 H   0  0  0  0  0  0  0  0  0  0  0  0
   -8.7822   23.0325  -31.1382 H   0  0  0  0  0  0  0  0  0  0  0  0
   -6.7925   19.6935  -34.6140 H   0  0  0  0  0  0  0  0  0  0  0  0
   -5.0525   19.5777  -34.3204 H   0  0  0  0  0  0  0  0  0  0  0  0
   -6.6746   17.4435  -35.1332 H   0  0  0  0  0  0  0  0  0  0  0  0
   -5.1183   17.2226  -34.3185 H   0  0  0  0  0  0  0  0  0  0  0  0
   -7.9128   16.9570  -33.2333 H   0  0  0  0  0  0  0  0  0  0  0  0
   -6.4318   16.1672  -32.6660 H   0  0  0  0  0  0  0  0  0  0  0  0
   -7.6919   18.3665  -31.4249 H   0  0  0  0  0  0  0  0  0  0  0  0
   -6.0147   17.8862  -31.1265 H   0  0  0  0  0  0  0  0  0  0  0  0
   -3.2362   22.8103  -30.8494 H   0  0  0  0  0  0  0  0  0  0  0  0
  1  2  1  0
  2  3  1  0
  3  4  2  0
  4  5  1  0
  5  6  2  0
  6  7  1  0
  7  8  2  0
  8  9  1  0
  9 10  3  0
  8 11  1  0
 11 12  1  0
 12 13  1  0
 13 14  1  0
 14 15  1  0
 15 16  1  0
 11 17  2  0
 17 18  1  0
 18 19  2  0
 19  3  1  0
 18  6  1  0
 16 12  1  0
  1 20  1  0
  1 21  1  0
  1 22  1  0
  4 23  1  0
  5 24  1  0
  7 25  1  0
 13 26  1  0
 13 27  1  0
 14 28  1  0
 14 29  1  0
 15 30  1  0
 15 31  1  0
 16 32  1  0
 16 33  1  0
 19 34  1  0
M  END
>  <UniqueID>  (28) 
27

>  <SMILES>  (28) 
COc1ccc2cc(C#N)c(N3CCCC3)nc2c1

>  <Energy>  (28) 
42.45345331071223

>  <Genealogy>  (28) 
COc1ccc2cc(C#N)c(N3CCCC3)nc2c1 (3D coordinates assigned)
COc1ccc2cc(C#N)c(N3CCCC3)nc2c1 (nonaromatic ring conformer: 42.45345331071223 kcal/mol)

>  <smiles>  (28) 
COc1ccc2cc(C#N)c(N3CCCC3)nc2c1

>  <score_type>  (28) 
oracle

>  <origin>  (28) 
adg

>  <m_score__min__energy>  (28) 
-8.0399999999999991

>  <m_primary>  (28) 
energy

$$$$
28:0
     RDKit          3D

 61 64  0  0  0  0  0  0  0  0999 V2000
   -8.8000   19.3360  -31.8010 C   0  0  0  0  0  0  0  0  0  0  0  0
   -9.4430   20.6350  -32.3040 C   0  0  0  0  0  0  0  0  0  0  0  0
   -8.7070   21.8700  -31.9380 N   0  0  0  0  0  0  0  0  0  0  0  0
   -9.4540   23.0840  -32.3110 C   0  0  0  0  0  0  0  0  0  0  0  0
   -8.2780   21.9500  -30.5230 C   0  0  0  0  0  0  0  0  0  0  0  0
   -6.9060   22.6270  -30.3360 C   0  0  0  0  0  0  0  0  0  0  0  0
   -6.2430   22.9910  -31.6060 N   0  0  0  0  0  0  0  0  0  0  0  0
   -4.9970   22.2560  -31.8170 C   0  0  0  0  0  0  0  0  0  0  0  0
   -3.7800   22.6430  -31.1740 C   0  0  0  0  0  0  0  0  0  0  0  0
   -3.6920   23.7600  -30.3040 C   0  0  0  0  0  0  0  0  0  0  0  0
   -2.4760   24.1430  -29.7130 C   0  0  0  0  0  0  0  0  0  0  0  0
   -2.3690   25.2690  -28.8780 O   0  0  0  0  0  0  0  0  0  0  0  0
   -2.2460   25.2240  -27.4600 C   0  0  0  0  0  0  0  0  0  0  0  0
   -1.3260   23.3980  -29.9540 C   0  0  0  0  0  0  0  0  0  0  0  0
   -0.1340   23.7940  -29.3240 O   0  0  0  0  0  0  0  0  0  0  0  0
    0.3460   23.2690  -28.0900 C   0  0  0  0  0  0  0  0  0  0  0  0
   -1.3870   22.2930  -30.8120 C   0  0  0  0  0  0  0  0  0  0  0  0
   -2.5910   21.9120  -31.4490 C   0  0  0  0  0  0  0  0  0  0  0  0
   -2.6100   20.8530  -32.3290 N   0  0  0  0  0  0  0  0  0  0  0  0
   -1.3580   20.4970  -33.0360 C   0  0  0  0  0  0  0  0  0  0  0  0
   -3.8100   20.2990  -32.7200 C   0  0  0  0  0  0  0  0  0  0  0  0
   -4.9920   21.0820  -32.6270 C   0  0  0  0  0  0  0  0  0  0  0  0
   -6.1320   20.6710  -33.3570 C   0  0  0  0  0  0  0  0  0  0  0  0
   -6.1450   19.4740  -34.0640 C   0  0  0  0  0  0  0  0  0  0  0  0
   -5.0670   18.5970  -33.9800 C   0  0  0  0  0  0  0  0  0  0  0  0
   -5.1560   17.3270  -34.5700 C   0  0  0  0  0  0  0  0  0  0  0  0
   -4.1390   16.3920  -34.3800 C   0  0  0  0  0  0  0  0  0  0  0  0
   -3.0480   16.7060  -33.5740 C   0  0  0  0  0  0  0  0  0  0  0  0
   -2.9410   17.9750  -32.9990 C   0  0  0  0  0  0  0  0  0  0  0  0
   -3.9090   18.9730  -33.2550 C   0  0  0  0  0  0  0  0  0  0  0  0
   -8.7972   19.3303  -30.7010 H   0  0  0  0  0  0  0  0  0  0  0  0
   -9.3758   18.4748  -32.1707 H   0  0  0  0  0  0  0  0  0  0  0  0
   -7.7660   19.2716  -32.1707 H   0  0  0  0  0  0  0  0  0  0  0  0
   -9.5050   20.5848  -33.4011 H   0  0  0  0  0  0  0  0  0  0  0  0
  -10.4280   20.7036  -31.8191 H   0  0  0  0  0  0  0  0  0  0  0  0
   -9.7775   23.6097  -31.4005 H   0  0  0  0  0  0  0  0  0  0  0  0
   -8.8062   23.7450  -32.9055 H   0  0  0  0  0  0  0  0  0  0  0  0
  -10.3360   22.8036  -32.9055 H   0  0  0  0  0  0  0  0  0  0  0  0
   -9.0298   22.5253  -29.9628 H   0  0  0  0  0  0  0  0  0  0  0  0
   -8.1837   20.9181  -30.1537 H   0  0  0  0  0  0  0  0  0  0  0  0
   -7.0490   23.5432  -29.7443 H   0  0  0  0  0  0  0  0  0  0  0  0
   -6.2547   21.8979  -29.8318 H   0  0  0  0  0  0  0  0  0  0  0  0
   -6.1460   24.0230  -31.6680 H   0  0  0  0  0  0  0  0  0  0  0  0
   -6.8950   22.7950  -32.3980 H   0  0  0  0  0  0  0  0  0  0  0  0
   -4.5998   24.3418  -30.0862 H   0  0  0  0  0  0  0  0  0  0  0  0
   -3.1842   25.5672  -26.9995 H   0  0  0  0  0  0  0  0  0  0  0  0
   -2.0380   24.1915  -27.1426 H   0  0  0  0  0  0  0  0  0  0  0  0
   -1.4208   25.8785  -27.1426 H   0  0  0  0  0  0  0  0  0  0  0  0
   -0.1367   23.7970  -27.2544 H   0  0  0  0  0  0  0  0  0  0  0  0
    0.1098   22.1963  -28.0313 H   0  0  0  0  0  0  0  0  0  0  0  0
    1.4356   23.4083  -28.0313 H   0  0  0  0  0  0  0  0  0  0  0  0
   -0.4749   21.7061  -30.9953 H   0  0  0  0  0  0  0  0  0  0  0  0
   -0.5720   20.2735  -32.2997 H   0  0  0  0  0  0  0  0  0  0  0  0
   -1.5318   19.6127  -33.6667 H   0  0  0  0  0  0  0  0  0  0  0  0
   -1.0405   21.3405  -33.6667 H   0  0  0  0  0  0  0  0  0  0  0  0
   -7.0262   21.3115  -33.3654 H   0  0  0  0  0  0  0  0  0  0  0  0
   -7.0109   19.2187  -34.6926 H   0  0  0  0  0  0  0  0  0  0  0  0
   -6.0309   17.0681  -35.1844 H   0  0  0  0  0  0  0  0  0  0  0  0
   -4.1987   15.4072  -34.8665 H   0  0  0  0  0  0  0  0  0  0  0  0
   -2.2679   15.9528  -33.3893 H   0  0  0  0  0  0  0  0  0  0  0  0
   -2.0914   18.2007  -32.3377 H   0  0  0  0  0  0  0  0  0  0  0  0
  1  2  1  0
  2  3  1  0
  3  4  1  0
  3  5  1  0
  5  6  1  0
  6  7  1  0
  7  8  1  0
  8  9  2  0
  9 10  1  0
 10 11  2  0
 11 12  1  0
 12 13  1  0
 11 14  1  0
 14 15  1  0
 15 16  1  0
 14 17  2  0
 17 18  1  0
 18 19  2  0
 19 20  1  0
 19 21  1  0
 21 22  2  0
 22 23  1  0
 23 24  2  0
 24 25  1  0
 25 26  2  0
 26 27  1  0
 27 28  2  0
 28 29  1  0
 29 30  2  0
 22  8  1  0
 30 25  1  0
 18  9  1  0
 30 21  1  0
  1 31  1  0
  1 32  1  0
  1 33  1  0
  2 34  1  0
  2 35  1  0
  4 36  1  0
  4 37  1  0
  4 38  1  0
  5 39  1  0
  5 40  1  0
  6 41  1  0
  6 42  1  0
  7 43  1  0
  7 44  1  0
 10 45  1  0
 13 46  1  0
 13 47  1  0
 13 48  1  0
 16 49  1  0
 16 50  1  0
 16 51  1  0
 17 52  1  0
 20 53  1  0
 20 54  1  0
 20 55  1  0
 23 56  1  0
 24 57  1  0
 26 58  1  0
 27 59  1  0
 28 60  1  0
 29 61  1  0
M  CHG  2   7   1  19   1
M  END
>  <UniqueID>  (29) 
28

>  <SMILES>  (29) 
CCN(C)CC[NH2+]c1c2cc(OC)c(OC)cc2[n+](C)c2c1ccc1ccccc12

>  <Energy>  (29) 
110.68535483012754

>  <Genealogy>  (29) 
CCN(C)CC[NH2+]c1c2cc(OC)c(OC)cc2[n+](C)c2c1ccc1ccccc12 (protonated)
CCN(C)CC[NH2+]c1c2cc(OC)c(OC)cc2[n+](C)c2c1ccc1ccccc12 (3D coordinates assigned)
CCN(C)CC[NH2+]c1c2cc(OC)c(OC)cc2[n+](C)c2c1ccc1ccccc12 (optimized conformer: 110.68535483012754 kcal/mol)

>  <smiles>  (29) 
CCN(C)CCNc1c2cc(OC)c(OC)cc2[n+](C)c2c1ccc1ccccc12

>  <score_type>  (29) 
oracle

>  <origin>  (29) 
adg

>  <m_score__min__energy>  (29) 
-7.3300000000000001

>  <m_primary>  (29) 
energy

$$$$
29:0
     RDKit          3D

 58 61  0  0  0  0  0  0  0  0999 V2000
   -0.5050   22.8710  -29.3440 C   0  0  0  0  0  0  0  0  0  0  0  0
   -1.3350   21.7430  -29.6040 O   0  0  0  0  0  0  0  0  0  0  0  0
   -1.5770   20.7220  -28.6650 C   0  0  0  0  0  0  0  0  0  0  0  0
   -2.7930   20.6320  -27.9540 C   0  0  0  0  0  0  0  0  0  0  0  0
   -2.9890   19.6210  -27.0070 C   0  0  0  0  0  0  0  0  0  0  0  0
   -1.9720   18.7030  -26.7530 C   0  0  0  0  0  0  0  0  0  0  0  0
   -0.7730   18.7610  -27.4630 C   0  0  0  0  0  0  0  0  0  0  0  0
   -0.5690   19.7640  -28.4380 C   0  0  0  0  0  0  0  0  0  0  0  0
    0.6010   19.8160  -29.2160 O   0  0  0  0  0  0  0  0  0  0  0  0
    1.0920   18.7490  -30.0450 C   0  0  0  0  0  0  0  0  0  0  0  0
    0.9160   19.1140  -31.5310 C   0  0  0  0  0  0  0  0  0  0  0  0
   -0.4160   19.7350  -31.7790 N   0  0  0  0  0  0  0  0  0  0  0  0
   -0.2940   20.8960  -32.6950 C   0  0  0  0  0  0  0  0  0  0  0  0
   -1.6780   21.4860  -33.0660 C   0  0  0  0  0  0  0  0  0  0  0  0
   -2.7470   20.8100  -32.3010 N   0  0  0  0  0  0  0  0  0  0  0  0
   -4.0760   21.4550  -32.4380 C   0  0  0  0  0  0  0  0  0  0  0  0
   -4.2870   22.6560  -31.5360 C   0  0  0  0  0  0  0  0  0  0  0  0
   -3.2930   23.4200  -30.9520 C   0  0  0  0  0  0  0  0  0  0  0  0
   -3.8180   24.5490  -30.4470 N   0  0  0  0  0  0  0  0  0  0  0  0
   -5.1190   24.5450  -30.7090 N   0  0  0  0  0  0  0  0  0  0  0  0
   -5.9890   25.6640  -30.3730 C   0  0  0  0  0  0  0  0  0  0  0  0
   -5.4530   23.3980  -31.3550 C   0  0  0  0  0  0  0  0  0  0  0  0
   -6.7800   23.1330  -32.0280 C   0  0  0  0  0  0  0  0  0  0  0  0
   -7.9410   22.7290  -31.1170 C   0  0  0  0  0  0  0  0  0  0  0  0
   -7.2440   21.6840  -31.9630 C   0  0  0  0  0  0  0  0  0  0  0  0
   -2.7590   19.3600  -32.5530 C   0  0  0  0  0  0  0  0  0  0  0  0
   -1.3590   18.7450  -32.3320 C   0  0  0  0  0  0  0  0  0  0  0  0
   -0.4035   23.0089  -28.2574 H   0  0  0  0  0  0  0  0  0  0  0  0
    0.4882   22.7053  -29.7869 H   0  0  0  0  0  0  0  0  0  0  0  0
   -0.9587   23.7699  -29.7869 H   0  0  0  0  0  0  0  0  0  0  0  0
   -3.5928   21.3624  -28.1460 H   0  0  0  0  0  0  0  0  0  0  0  0
   -3.9433   19.5510  -26.4644 H   0  0  0  0  0  0  0  0  0  0  0  0
   -2.1159   17.9269  -25.9869 H   0  0  0  0  0  0  0  0  0  0  0  0
    0.0177   18.0228  -27.2633 H   0  0  0  0  0  0  0  0  0  0  0  0
    2.1590   18.5850  -29.8339 H   0  0  0  0  0  0  0  0  0  0  0  0
    0.5241   17.8322  -29.8283 H   0  0  0  0  0  0  0  0  0  0  0  0
    1.7032   19.8252  -31.8215 H   0  0  0  0  0  0  0  0  0  0  0  0
    0.9871   18.1922  -32.1270 H   0  0  0  0  0  0  0  0  0  0  0  0
   -0.7950   20.1030  -30.8710 H   0  0  0  0  0  0  0  0  0  0  0  0
    0.3050   21.6762  -32.2027 H   0  0  0  0  0  0  0  0  0  0  0  0
    0.1892   20.5509  -33.6209 H   0  0  0  0  0  0  0  0  0  0  0  0
   -1.6886   22.5607  -32.8319 H   0  0  0  0  0  0  0  0  0  0  0  0
   -1.8556   21.3320  -34.1406 H   0  0  0  0  0  0  0  0  0  0  0  0
   -4.1926   21.7838  -33.4812 H   0  0  0  0  0  0  0  0  0  0  0  0
   -4.8214   20.7035  -32.1386 H   0  0  0  0  0  0  0  0  0  0  0  0
   -2.2291   23.1440  -30.9075 H   0  0  0  0  0  0  0  0  0  0  0  0
   -6.0612   25.7568  -29.2793 H   0  0  0  0  0  0  0  0  0  0  0  0
   -5.5723   26.5914  -30.7930 H   0  0  0  0  0  0  0  0  0  0  0  0
   -6.9905   25.4888  -30.7930 H   0  0  0  0  0  0  0  0  0  0  0  0
   -6.6452   23.8891  -32.8155 H   0  0  0  0  0  0  0  0  0  0  0  0
   -7.8091   22.7298  -30.0249 H   0  0  0  0  0  0  0  0  0  0  0  0
   -8.9826   23.0598  -30.9916 H   0  0  0  0  0  0  0  0  0  0  0  0
   -6.6079   20.9252  -31.4838 H   0  0  0  0  0  0  0  0  0  0  0  0
   -7.5736   20.9419  -32.7050 H   0  0  0  0  0  0  0  0  0  0  0  0
   -3.4736   18.8821  -31.8668 H   0  0  0  0  0  0  0  0  0  0  0  0
   -3.0540   19.1898  -33.5989 H   0  0  0  0  0  0  0  0  0  0  0  0
   -1.4453   17.9024  -31.6302 H   0  0  0  0  0  0  0  0  0  0  0  0
   -0.9731   18.4059  -33.3047 H   0  0  0  0  0  0  0  0  0  0  0  0
  1  2  1  0
  2  3  1  0
  3  4  2  0
  4  5  1  0
  5  6  2  0
  6  7  1  0
  7  8  2  0
  8  9  1  0
  9 10  1  0
 10 11  1  0
 11 12  1  0
 12 13  1  0
 13 14  1  0
 14 15  1  0
 15 16  1  0
 16 17  1  0
 17 18  1  0
 18 19  2  0
 19 20  1  0
 20 21  1  0
 20 22  1  0
 22 23  1  0
 23 24  1  0
 24 25  1  0
 15 26  1  0
 26 27  1  0
  8  3  1  0
 27 12  1  0
 22 17  2  0
 25 23  1  0
  1 28  1  0
  1 29  1  0
  1 30  1  0
  4 31  1  0
  5 32  1  0
  6 33  1  0
  7 34  1  0
 10 35  1  0
 10 36  1  0
 11 37  1  0
 11 38  1  0
 12 39  1  0
 13 40  1  0
 13 41  1  0
 14 42  1  0
 14 43  1  0
 16 44  1  0
 16 45  1  0
 18 46  1  0
 21 47  1  0
 21 48  1  0
 21 49  1  0
 23 50  1  0
 24 51  1  0
 24 52  1  0
 25 53  1  0
 25 54  1  0
 26 55  1  0
 26 56  1  0
 27 57  1  0
 27 58  1  0
M  CHG  1  12   1
M  END
>  <UniqueID>  (30) 
29

>  <SMILES>  (30) 
COc1ccccc1OCC[NH+]1CCN(Cc2cnn(C)c2C2CC2)CC1

>  <Energy>  (30) 
369.568669178897

>  <Genealogy>  (30) 
COc1ccccc1OCC[NH+]1CCN(Cc2cnn(C)c2C2CC2)CC1 (protonated)
COc1ccccc1OCC[NH+]1CCN(Cc2cnn(C)c2C2CC2)CC1 (3D coordinates assigned)
COc1ccccc1OCC[NH+]1CCN(Cc2cnn(C)c2C2CC2)CC1 (nonaromatic ring conformer: 369.568669178897 kcal/mol)

>  <smiles>  (30) 
COc1ccccc1OCCN1CCN(Cc2cnn(C)c2C2CC2)CC1

>  <score_type>  (30) 
oracle

>  <origin>  (30) 
adg

>  <m_score__min__energy>  (30) 
-6.2599999999999998

>  <m_primary>  (30) 
energy

$$$$
30:0
     RDKit          3D

 62 64  0  0  0  0  0  0  0  0999 V2000
   -1.7070   24.3210  -28.5880 C   0  0  0  0  0  0  0  0  0  0  0  0
   -1.9690   23.4310  -29.8010 C   0  0  0  0  0  0  0  0  0  0  0  0
   -3.3040   22.7990  -29.6910 N   0  0  0  0  0  0  0  0  0  0  0  0
   -3.1910   21.3620  -29.3500 C   0  0  0  0  0  0  0  0  0  0  0  0
   -1.8130   20.8290  -29.7450 C   0  0  0  0  0  0  0  0  0  0  0  0
   -4.1630   23.5150  -28.7190 C   0  0  0  0  0  0  0  0  0  0  0  0
   -4.9730   24.6040  -29.4220 C   0  0  0  0  0  0  0  0  0  0  0  0
   -4.6210   24.6360  -30.7900 O   0  0  0  0  0  0  0  0  0  0  0  0
   -5.7910   24.6650  -31.5800 C   0  0  0  0  0  0  0  0  0  0  0  0
   -6.1100   23.2390  -32.0420 C   0  0  0  0  0  0  0  0  0  0  0  0
   -5.1330   22.2480  -31.5510 N   0  0  0  0  0  0  0  0  0  0  0  0
   -5.2330   20.9730  -32.2560 C   0  0  0  0  0  0  0  0  0  0  0  0
   -6.4260   20.1930  -32.2120 C   0  0  0  0  0  0  0  0  0  0  0  0
   -7.5840   20.6140  -31.5050 C   0  0  0  0  0  0  0  0  0  0  0  0
   -8.7100   19.8020  -31.4110 C   0  0  0  0  0  0  0  0  0  0  0  0
   -8.7170   18.5510  -32.0050 C   0  0  0  0  0  0  0  0  0  0  0  0
   -7.6160   18.1220  -32.7370 C   0  0  0  0  0  0  0  0  0  0  0  0
   -6.4720   18.9450  -32.9000 C   0  0  0  0  0  0  0  0  0  0  0  0
   -5.4200   18.5460  -33.6960 N   0  0  0  0  0  0  0  0  0  0  0  0
   -5.6020   17.4340  -34.6580 C   0  0  0  0  0  0  0  0  0  0  0  0
   -4.2090   19.2040  -33.6290 C   0  0  0  0  0  0  0  0  0  0  0  0
   -3.0390   18.6460  -34.2080 C   0  0  0  0  0  0  0  0  0  0  0  0
   -1.8200   19.3330  -34.2170 C   0  0  0  0  0  0  0  0  0  0  0  0
   -0.6690   18.7210  -34.8310 N   0  0  0  0  0  0  0  0  0  0  0  0
    0.3770   19.4750  -35.5160 C   0  0  0  0  0  0  0  0  0  0  0  0
   -1.7540   20.5990  -33.6320 C   0  0  0  0  0  0  0  0  0  0  0  0
   -2.8720   21.1480  -33.0090 C   0  0  0  0  0  0  0  0  0  0  0  0
   -4.1070   20.4540  -32.9590 C   0  0  0  0  0  0  0  0  0  0  0  0
   -1.8767   23.7445  -27.6667 H   0  0  0  0  0  0  0  0  0  0  0  0
   -0.6662   24.6762  -28.6118 H   0  0  0  0  0  0  0  0  0  0  0  0
   -2.3894   25.1834  -28.6118 H   0  0  0  0  0  0  0  0  0  0  0  0
   -1.9299   24.0415  -30.7152 H   0  0  0  0  0  0  0  0  0  0  0  0
   -1.2011   22.6445  -29.8425 H   0  0  0  0  0  0  0  0  0  0  0  0
   -3.3326   21.2340  -28.2667 H   0  0  0  0  0  0  0  0  0  0  0  0
   -3.9620   20.8023  -29.8998 H   0  0  0  0  0  0  0  0  0  0  0  0
   -1.2328   20.6046  -28.8378 H   0  0  0  0  0  0  0  0  0  0  0  0
   -1.9315   19.9119  -30.3407 H   0  0  0  0  0  0  0  0  0  0  0  0
   -1.2835   21.5872  -30.3407 H   0  0  0  0  0  0  0  0  0  0  0  0
   -4.8519   22.7984  -28.2480 H   0  0  0  0  0  0  0  0  0  0  0  0
   -3.5236   23.9833  -27.9562 H   0  0  0  0  0  0  0  0  0  0  0  0
   -6.0465   24.3852  -29.3235 H   0  0  0  0  0  0  0  0  0  0  0  0
   -4.7569   25.5797  -28.9623 H   0  0  0  0  0  0  0  0  0  0  0  0
   -6.6291   25.0572  -30.9852 H   0  0  0  0  0  0  0  0  0  0  0  0
   -5.6362   25.3152  -32.4536 H   0  0  0  0  0  0  0  0  0  0  0  0
   -7.1077   22.9636  -31.6696 H   0  0  0  0  0  0  0  0  0  0  0  0
   -6.0684   23.2293  -33.1412 H   0  0  0  0  0  0  0  0  0  0  0  0
   -5.2050   22.1580  -30.5160 H   0  0  0  0  0  0  0  0  0  0  0  0
   -4.1700   22.6350  -31.6580 H   0  0  0  0  0  0  0  0  0  0  0  0
   -7.5906   21.6022  -31.0219 H   0  0  0  0  0  0  0  0  0  0  0  0
   -9.5966   20.1545  -30.8636 H   0  0  0  0  0  0  0  0  0  0  0  0
   -9.5945   17.8964  -31.8975 H   0  0  0  0  0  0  0  0  0  0  0  0
   -7.6321   17.1240  -33.1993 H   0  0  0  0  0  0  0  0  0  0  0  0
   -5.7558   16.4943  -34.1073 H   0  0  0  0  0  0  0  0  0  0  0  0
   -6.4790   17.6361  -35.2904 H   0  0  0  0  0  0  0  0  0  0  0  0
   -4.7063   17.3460  -35.2904 H   0  0  0  0  0  0  0  0  0  0  0  0
   -3.0922   17.6456  -34.6623 H   0  0  0  0  0  0  0  0  0  0  0  0
   -0.5590   17.6830  -34.7790 H   0  0  0  0  0  0  0  0  0  0  0  0
    1.0344   19.9489  -34.7721 H   0  0  0  0  0  0  0  0  0  0  0  0
    0.9675   18.7935  -36.1460 H   0  0  0  0  0  0  0  0  0  0  0  0
   -0.0829   20.2507  -36.1460 H   0  0  0  0  0  0  0  0  0  0  0  0
   -0.8124   21.1668  -33.6634 H   0  0  0  0  0  0  0  0  0  0  0  0
   -2.7950   22.1425  -32.5453 H   0  0  0  0  0  0  0  0  0  0  0  0
  1  2  1  0
  2  3  1  0
  3  4  1  0
  4  5  1  0
  3  6  1  0
  6  7  1  0
  7  8  1  0
  8  9  1  0
  9 10  1  0
 10 11  1  0
 11 12  1  0
 12 13  2  0
 13 14  1  0
 14 15  2  0
 15 16  1  0
 16 17  2  0
 17 18  1  0
 18 19  2  0
 19 20  1  0
 19 21  1  0
 21 22  2  0
 22 23  1  0
 23 24  1  0
 24 25  1  0
 23 26  2  0
 26 27  1  0
 27 28  2  0
 28 12  1  0
 18 13  1  0
 28 21  1  0
  1 29  1  0
  1 30  1  0
  1 31  1  0
  2 32  1  0
  2 33  1  0
  4 34  1  0
  4 35  1  0
  5 36  1  0
  5 37  1  0
  5 38  1  0
  6 39  1  0
  6 40  1  0
  7 41  1  0
  7 42  1  0
  9 43  1  0
  9 44  1  0
 10 45  1  0
 10 46  1  0
 11 47  1  0
 11 48  1  0
 14 49  1  0
 15 50  1  0
 16 51  1  0
 17 52  1  0
 20 53  1  0
 20 54  1  0
 20 55  1  0
 22 56  1  0
 24 57  1  0
 25 58  1  0
 25 59  1  0
 25 60  1  0
 26 61  1  0
 27 62  1  0
M  CHG  2  11   1  19   1
M  END
>  <UniqueID>  (31) 
30

>  <SMILES>  (31) 
CCN(CC)CCOCC[NH2+]c1c2ccccc2[n+](C)c2cc(NC)ccc12

>  <Energy>  (31) 
87.9163652286121

>  <Genealogy>  (31) 
CCN(CC)CCOCC[NH2+]c1c2ccccc2[n+](C)c2cc(NC)ccc12 (protonated)
CCN(CC)CCOCC[NH2+]c1c2ccccc2[n+](C)c2cc(NC)ccc12 (3D coordinates assigned)
CCN(CC)CCOCC[NH2+]c1c2ccccc2[n+](C)c2cc(NC)ccc12 (optimized conformer: 87.9163652286121 kcal/mol)

>  <smiles>  (31) 
CCN(CC)CCOCCNc1c2ccccc2[n+](C)c2cc(NC)ccc12

>  <score_type>  (31) 
oracle

>  <origin>  (31) 
adg

>  <m_score__min__energy>  (31) 
-7.5999999999999996

>  <m_primary>  (31) 
energy

$$$$
31:0
     RDKit          3D

 45 46  0  0  0  0  0  0  0  0999 V2000
   -6.3730   25.5020  -29.4060 C   0  0  0  0  0  0  0  0  0  0  0  0
   -5.4230   25.9250  -30.5210 C   0  0  0  0  0  0  0  0  0  0  0  0
   -4.2150   25.1910  -30.4370 O   0  0  0  0  0  0  0  0  0  0  0  0
   -4.3470   24.0690  -29.5790 C   0  0  0  0  0  0  0  0  0  0  0  0
   -4.8140   22.8180  -30.3640 C   0  0  0  0  0  0  0  0  0  0  0  0
   -4.8500   22.9640  -31.8440 N   0  0  2  0  0  0  0  0  0  0  0  0
   -6.1960   23.2880  -32.3730 C   0  0  0  0  0  0  0  0  0  0  0  0
   -7.1800   22.1760  -32.0950 C   0  0  0  0  0  0  0  0  0  0  0  0
   -8.1280   22.3080  -31.0680 C   0  0  0  0  0  0  0  0  0  0  0  0
   -9.0610   21.2940  -30.8460 C   0  0  0  0  0  0  0  0  0  0  0  0
   -9.0440   20.1570  -31.6590 C   0  0  0  0  0  0  0  0  0  0  0  0
   -8.1270   20.0470  -32.6580 N   0  0  0  0  0  0  0  0  0  0  0  0
   -7.2070   21.0220  -32.8940 C   0  0  0  0  0  0  0  0  0  0  0  0
   -4.2800   21.8060  -32.5160 C   0  0  0  0  0  0  0  0  0  0  0  0
   -4.0100   21.8520  -33.7090 O   0  0  0  0  0  0  0  0  0  0  0  0
   -4.0420   20.5230  -31.7470 C   0  0  0  0  0  0  0  0  0  0  0  0
   -3.7310   19.3390  -32.6750 C   0  0  0  0  0  0  0  0  0  0  0  0
   -4.9680   18.5320  -32.9180 C   0  0  0  0  0  0  0  0  0  0  0  0
   -5.7890   17.9900  -31.9370 C   0  0  0  0  0  0  0  0  0  0  0  0
   -6.8360   17.2210  -32.4590 C   0  0  0  0  0  0  0  0  0  0  0  0
   -6.8320   17.1430  -33.8450 C   0  0  0  0  0  0  0  0  0  0  0  0
   -5.5220   18.0300  -34.4220 S   0  0  0  0  0  0  0  0  0  0  0  0
   -5.9086   25.7088  -28.4305 H   0  0  0  0  0  0  0  0  0  0  0  0
   -7.3132   26.0665  -29.4915 H   0  0  0  0  0  0  0  0  0  0  0  0
   -6.5826   24.4255  -29.4915 H   0  0  0  0  0  0  0  0  0  0  0  0
   -5.8975   25.7342  -31.4949 H   0  0  0  0  0  0  0  0  0  0  0  0
   -5.2003   26.9971  -30.4162 H   0  0  0  0  0  0  0  0  0  0  0  0
   -3.3737   23.8574  -29.1121 H   0  0  0  0  0  0  0  0  0  0  0  0
   -5.1011   24.3021  -28.8129 H   0  0  0  0  0  0  0  0  0  0  0  0
   -4.1295   21.9917  -30.1220 H   0  0  0  0  0  0  0  0  0  0  0  0
   -5.8542   22.6393  -30.0540 H   0  0  0  0  0  0  0  0  0  0  0  0
   -4.2340   23.7880  -32.0470 H   0  0  0  0  0  0  0  0  0  0  0  0
   -6.5554   24.2115  -31.8956 H   0  0  0  0  0  0  0  0  0  0  0  0
   -6.1179   23.4167  -33.4627 H   0  0  0  0  0  0  0  0  0  0  0  0
   -8.1355   23.2101  -30.4386 H   0  0  0  0  0  0  0  0  0  0  0  0
   -9.8026   21.3886  -30.0391 H   0  0  0  0  0  0  0  0  0  0  0  0
   -9.7728   19.3504  -31.4909 H   0  0  0  0  0  0  0  0  0  0  0  0
   -6.4824   20.9054  -33.7134 H   0  0  0  0  0  0  0  0  0  0  0  0
   -3.1917   20.6714  -31.0651 H   0  0  0  0  0  0  0  0  0  0  0  0
   -4.9625   20.2854  -31.1937 H   0  0  0  0  0  0  0  0  0  0  0  0
   -3.3516   19.7198  -33.6347 H   0  0  0  0  0  0  0  0  0  0  0  0
   -2.9738   18.6993  -32.1982 H   0  0  0  0  0  0  0  0  0  0  0  0
   -5.6324   18.1489  -30.8599 H   0  0  0  0  0  0  0  0  0  0  0  0
   -7.5905   16.7255  -31.8303 H   0  0  0  0  0  0  0  0  0  0  0  0
   -7.5602   16.5953  -34.4612 H   0  0  0  0  0  0  0  0  0  0  0  0
  1  2  1  0
  2  3  1  0
  3  4  1  0
  4  5  1  0
  5  6  1  0
  6  7  1  0
  7  8  1  0
  8  9  2  0
  9 10  1  0
 10 11  2  0
 11 12  1  0
 12 13  2  0
  6 14  1  0
 14 15  2  0
 14 16  1  0
 16 17  1  0
 17 18  1  0
 18 19  2  0
 19 20  1  0
 20 21  2  0
 21 22  1  0
 13  8  1  0
 22 18  1  0
  1 23  1  0
  1 24  1  0
  1 25  1  0
  2 26  1  0
  2 27  1  0
  4 28  1  0
  4 29  1  0
  5 30  1  0
  5 31  1  0
  6 32  1  1
  7 33  1  0
  7 34  1  0
  9 35  1  0
 10 36  1  0
 11 37  1  0
 13 38  1  0
 16 39  1  0
 16 40  1  0
 17 41  1  0
 17 42  1  0
 19 43  1  0
 20 44  1  0
 21 45  1  0
M  CHG  1   6   1
M  END
>  <UniqueID>  (32) 
31

>  <SMILES>  (32) 
CCOCC[N@H+](Cc1cccnc1)C(=O)CCc1cccs1

>  <Energy>  (32) 
73.25078581926749

>  <Genealogy>  (32) 
CCOCC[NH+](Cc1cccnc1)C(=O)CCc1cccs1 (protonated)
CCOCC[N@H+](Cc1cccnc1)C(=O)CCc1cccs1 (chirality)
CCOCC[N@H+](Cc1cccnc1)C(=O)CCc1cccs1 (3D coordinates assigned)
CCOCC[N@H+](Cc1cccnc1)C(=O)CCc1cccs1 (optimized conformer: 73.25078581926749 kcal/mol)

>  <smiles>  (32) 
CCOCCN(Cc1cccnc1)C(=O)CCc1cccs1

>  <score_type>  (32) 
oracle

>  <origin>  (32) 
adg

>  <m_score__min__energy>  (32) 
-6.5599999999999996

>  <m_primary>  (32) 
energy

$$$$
32:0
     RDKit          3D

 62 64  0  0  0  0  0  0  0  0999 V2000
   -8.0680   18.1690  -31.5990 C   0  0  0  0  0  0  0  0  0  0  0  0
   -9.1150   19.2190  -31.9620 C   0  0  0  0  0  0  0  0  0  0  0  0
   -8.8140   20.5570  -31.2810 C   0  0  0  0  0  0  0  0  0  0  0  0
   -8.3000   21.6330  -32.2610 C   0  0  0  0  0  0  0  0  0  0  0  0
   -6.8260   21.8320  -32.1570 N   0  0  0  0  0  0  0  0  0  0  0  0
   -6.3360   22.9090  -31.4260 C   0  0  0  0  0  0  0  0  0  0  0  0
   -7.1950   23.8900  -30.8500 C   0  0  0  0  0  0  0  0  0  0  0  0
   -6.6910   24.9560  -30.1090 C   0  0  0  0  0  0  0  0  0  0  0  0
   -5.3250   25.0900  -29.9180 C   0  0  0  0  0  0  0  0  0  0  0  0
   -4.4520   24.1620  -30.4730 C   0  0  0  0  0  0  0  0  0  0  0  0
   -4.9360   23.0710  -31.2310 C   0  0  0  0  0  0  0  0  0  0  0  0
   -4.0420   22.1550  -31.8060 C   0  0  0  0  0  0  0  0  0  0  0  0
   -2.6220   22.3460  -31.6690 N   0  0  0  0  0  0  0  0  0  0  0  0
   -1.8900   21.7880  -30.5310 C   0  0  0  0  0  0  0  0  0  0  0  0
   -1.4390   22.9140  -29.5810 C   0  0  0  0  0  0  0  0  0  0  0  0
   -2.1150   22.8850  -28.2640 N   0  0  0  0  0  0  0  0  0  0  0  0
   -2.4950   24.2320  -27.7880 C   0  0  0  0  0  0  0  0  0  0  0  0
   -3.8500   24.2000  -27.0860 C   0  0  0  0  0  0  0  0  0  0  0  0
   -3.2240   21.9030  -28.2090 C   0  0  0  0  0  0  0  0  0  0  0  0
   -2.7480   20.6380  -27.5070 C   0  0  0  0  0  0  0  0  0  0  0  0
   -4.5410   21.0660  -32.5380 C   0  0  0  0  0  0  0  0  0  0  0  0
   -3.6570   20.0950  -33.0530 C   0  0  0  0  0  0  0  0  0  0  0  0
   -4.1260   19.0370  -33.8190 C   0  0  0  0  0  0  0  0  0  0  0  0
   -5.4800   18.9130  -34.0950 C   0  0  0  0  0  0  0  0  0  0  0  0
   -5.8920   17.8420  -34.9050 O   0  0  0  0  0  0  0  0  0  0  0  0
   -6.4080   16.6070  -34.4170 C   0  0  0  0  0  0  0  0  0  0  0  0
   -6.3810   19.8500  -33.5610 C   0  0  0  0  0  0  0  0  0  0  0  0
   -5.9430   20.9310  -32.7430 C   0  0  0  0  0  0  0  0  0  0  0  0
   -7.9907   18.0914  -30.5045 H   0  0  0  0  0  0  0  0  0  0  0  0
   -8.3655   17.1953  -32.0155 H   0  0  0  0  0  0  0  0  0  0  0  0
   -7.0935   18.4637  -32.0155 H   0  0  0  0  0  0  0  0  0  0  0  0
   -9.1159   19.3632  -33.0525 H   0  0  0  0  0  0  0  0  0  0  0  0
  -10.0980   18.8654  -31.6176 H   0  0  0  0  0  0  0  0  0  0  0  0
   -9.7370   20.9253  -30.8094 H   0  0  0  0  0  0  0  0  0  0  0  0
   -8.0178   20.3779  -30.5434 H   0  0  0  0  0  0  0  0  0  0  0  0
   -8.5439   21.3225  -33.2877 H   0  0  0  0  0  0  0  0  0  0  0  0
   -8.7881   22.5846  -32.0037 H   0  0  0  0  0  0  0  0  0  0  0  0
   -8.2820   23.8029  -30.9943 H   0  0  0  0  0  0  0  0  0  0  0  0
   -7.3800   25.6947  -29.6735 H   0  0  0  0  0  0  0  0  0  0  0  0
   -4.9319   25.9306  -29.3273 H   0  0  0  0  0  0  0  0  0  0  0  0
   -3.3688   24.2779  -30.3204 H   0  0  0  0  0  0  0  0  0  0  0  0
   -2.0720   22.6580  -32.5000 H   0  0  0  0  0  0  0  0  0  0  0  0
   -2.5441   21.0925  -29.9846 H   0  0  0  0  0  0  0  0  0  0  0  0
   -1.0016   21.2565  -30.9029 H   0  0  0  0  0  0  0  0  0  0  0  0
   -0.3554   22.8181  -29.4178 H   0  0  0  0  0  0  0  0  0  0  0  0
   -1.7073   23.8671  -30.0603 H   0  0  0  0  0  0  0  0  0  0  0  0
   -1.7323   24.5929  -27.0823 H   0  0  0  0  0  0  0  0  0  0  0  0
   -2.5648   24.9044  -28.6557 H   0  0  0  0  0  0  0  0  0  0  0  0
   -3.6987   24.2036  -25.9965 H   0  0  0  0  0  0  0  0  0  0  0  0
   -4.4351   25.0846  -27.3778 H   0  0  0  0  0  0  0  0  0  0  0  0
   -4.3927   23.2888  -27.3778 H   0  0  0  0  0  0  0  0  0  0  0  0
   -4.0690   22.3350  -27.6529 H   0  0  0  0  0  0  0  0  0  0  0  0
   -3.5458   21.6558  -29.2314 H   0  0  0  0  0  0  0  0  0  0  0  0
   -2.8018   20.7809  -26.4176 H   0  0  0  0  0  0  0  0  0  0  0  0
   -3.3898   19.7934  -27.7982 H   0  0  0  0  0  0  0  0  0  0  0  0
   -1.7086   20.4261  -27.7982 H   0  0  0  0  0  0  0  0  0  0  0  0
   -2.5801   20.1775  -32.8444 H   0  0  0  0  0  0  0  0  0  0  0  0
   -3.4187   18.2909  -34.2103 H   0  0  0  0  0  0  0  0  0  0  0  0
   -6.4039   16.6169  -33.3171 H   0  0  0  0  0  0  0  0  0  0  0  0
   -7.4380   16.4715  -34.7786 H   0  0  0  0  0  0  0  0  0  0  0  0
   -5.7806   15.7790  -34.7786 H   0  0  0  0  0  0  0  0  0  0  0  0
   -7.4538   19.7459  -33.7806 H   0  0  0  0  0  0  0  0  0  0  0  0
  1  2  1  0
  2  3  1  0
  3  4  1  0
  4  5  1  0
  5  6  2  0
  6  7  1  0
  7  8  2  0
  8  9  1  0
  9 10  2  0
 10 11  1  0
 11 12  2  0
 12 13  1  0
 13 14  1  0
 14 15  1  0
 15 16  1  0
 16 17  1  0
 17 18  1  0
 16 19  1  0
 19 20  1  0
 12 21  1  0
 21 22  2  0
 22 23  1  0
 23 24  2  0
 24 25  1  0
 25 26  1  0
 24 27  1  0
 27 28  2  0
 28  5  1  0
 11  6  1  0
 28 21  1  0
  1 29  1  0
  1 30  1  0
  1 31  1  0
  2 32  1  0
  2 33  1  0
  3 34  1  0
  3 35  1  0
  4 36  1  0
  4 37  1  0
  7 38  1  0
  8 39  1  0
  9 40  1  0
 10 41  1  0
 13 42  1  0
 14 43  1  0
 14 44  1  0
 15 45  1  0
 15 46  1  0
 17 47  1  0
 17 48  1  0
 18 49  1  0
 18 50  1  0
 18 51  1  0
 19 52  1  0
 19 53  1  0
 20 54  1  0
 20 55  1  0
 20 56  1  0
 22 57  1  0
 23 58  1  0
 26 59  1  0
 26 60  1  0
 26 61  1  0
 27 62  1  0
M  CHG  1   5   1
M  END
>  <UniqueID>  (33) 
32

>  <SMILES>  (33) 
CCCC[n+]1c2ccccc2c(NCCN(CC)CC)c2ccc(OC)cc21

>  <Energy>  (33) 
83.36262749063623

>  <Genealogy>  (33) 
CCCC[n+]1c2ccccc2c(NCCN(CC)CC)c2ccc(OC)cc21 (3D coordinates assigned)
CCCC[n+]1c2ccccc2c(NCCN(CC)CC)c2ccc(OC)cc21 (optimized conformer: 83.36262749063623 kcal/mol)

>  <smiles>  (33) 
CCCC[n+]1c2ccccc2c(NCCN(CC)CC)c2ccc(OC)cc21

>  <score_type>  (33) 
oracle

>  <origin>  (33) 
adg

>  <m_score__min__energy>  (33) 
-8.0999999999999996

>  <m_primary>  (33) 
energy

$$$$
33:0
     RDKit          3D

 62 64  0  0  0  0  0  0  0  0999 V2000
   -1.1190   21.3530  -31.3730 C   0  0  0  0  0  0  0  0  0  0  0  0
   -1.5920   19.9600  -31.3200 N   0  0  0  0  0  0  0  0  0  0  0  0
   -0.5270   19.0990  -30.7680 C   0  0  0  0  0  0  0  0  0  0  0  0
   -2.0050   19.5040  -32.6670 C   0  0  0  0  0  0  0  0  0  0  0  0
   -3.4770   19.8480  -32.9280 C   0  0  0  0  0  0  0  0  0  0  0  0
   -4.1410   20.2380  -31.6840 N   0  0  0  0  0  0  0  0  0  0  0  0
   -5.4010   20.9330  -31.6940 C   0  0  0  0  0  0  0  0  0  0  0  0
   -6.5870   20.2460  -32.0100 C   0  0  0  0  0  0  0  0  0  0  0  0
   -6.5580   18.8820  -32.3710 C   0  0  0  0  0  0  0  0  0  0  0  0
   -7.7380   18.1940  -32.6420 C   0  0  0  0  0  0  0  0  0  0  0  0
   -8.9610   18.8460  -32.5530 C   0  0  0  0  0  0  0  0  0  0  0  0
   -9.0130   20.2000  -32.2240 C   0  0  0  0  0  0  0  0  0  0  0  0
   -7.8270   20.9420  -31.9820 C   0  0  0  0  0  0  0  0  0  0  0  0
   -7.8580   22.2990  -31.7200 N   0  0  0  0  0  0  0  0  0  0  0  0
   -9.0990   23.0720  -31.9600 C   0  0  0  0  0  0  0  0  0  0  0  0
   -6.7210   22.9450  -31.2720 C   0  0  0  0  0  0  0  0  0  0  0  0
   -6.7650   24.2580  -30.7330 C   0  0  0  0  0  0  0  0  0  0  0  0
   -5.6010   24.9090  -30.3200 C   0  0  0  0  0  0  0  0  0  0  0  0
   -4.3660   24.2790  -30.4480 C   0  0  0  0  0  0  0  0  0  0  0  0
   -3.1940   24.9100  -30.0430 O   0  0  0  0  0  0  0  0  0  0  0  0
   -2.5920   24.6320  -28.7820 C   0  0  0  0  0  0  0  0  0  0  0  0
   -1.8550   23.2940  -28.8500 C   0  0  0  0  0  0  0  0  0  0  0  0
   -2.6850   22.1650  -28.2020 C   0  0  0  0  0  0  0  0  0  0  0  0
   -2.0190   20.8420  -28.3020 N   0  0  0  0  0  0  0  0  0  0  0  0
   -2.7290   19.8550  -27.4680 C   0  0  0  0  0  0  0  0  0  0  0  0
   -0.6050   20.9130  -27.8850 C   0  0  0  0  0  0  0  0  0  0  0  0
   -4.2970   22.9870  -30.9610 C   0  0  0  0  0  0  0  0  0  0  0  0
   -5.4630   22.2870  -31.3200 C   0  0  0  0  0  0  0  0  0  0  0  0
   -0.9892   21.7353  -30.3498 H   0  0  0  0  0  0  0  0  0  0  0  0
   -0.1567   21.3935  -31.9044 H   0  0  0  0  0  0  0  0  0  0  0  0
   -1.8576   21.9711  -31.9044 H   0  0  0  0  0  0  0  0  0  0  0  0
   -0.5640   19.1289  -29.6690 H   0  0  0  0  0  0  0  0  0  0  0  0
   -0.6764   18.0649  -31.1119 H   0  0  0  0  0  0  0  0  0  0  0  0
    0.4529   19.4618  -31.1119 H   0  0  0  0  0  0  0  0  0  0  0  0
   -1.3788   19.9992  -33.4237 H   0  0  0  0  0  0  0  0  0  0  0  0
   -1.8813   18.4125  -32.7243 H   0  0  0  0  0  0  0  0  0  0  0  0
   -3.5325   20.6809  -33.6443 H   0  0  0  0  0  0  0  0  0  0  0  0
   -3.9822   18.9609  -33.3376 H   0  0  0  0  0  0  0  0  0  0  0  0
   -3.8430   19.7610  -30.8040 H   0  0  0  0  0  0  0  0  0  0  0  0
   -5.5937   18.3571  -32.4390 H   0  0  0  0  0  0  0  0  0  0  0  0
   -7.7014   17.1322  -32.9271 H   0  0  0  0  0  0  0  0  0  0  0  0
   -9.8922   18.2921  -32.7428 H   0  0  0  0  0  0  0  0  0  0  0  0
   -9.9892   20.7016  -32.1507 H   0  0  0  0  0  0  0  0  0  0  0  0
   -9.5487   23.3521  -30.9960 H   0  0  0  0  0  0  0  0  0  0  0  0
   -8.8600   23.9812  -32.5311 H   0  0  0  0  0  0  0  0  0  0  0  0
   -9.8097   22.4565  -32.5311 H   0  0  0  0  0  0  0  0  0  0  0  0
   -7.7334   24.7713  -30.6392 H   0  0  0  0  0  0  0  0  0  0  0  0
   -5.6597   25.9210  -29.8929 H   0  0  0  0  0  0  0  0  0  0  0  0
   -1.8782   25.4310  -28.5329 H   0  0  0  0  0  0  0  0  0  0  0  0
   -3.3719   24.5809  -28.0079 H   0  0  0  0  0  0  0  0  0  0  0  0
   -1.6669   23.0413  -29.9039 H   0  0  0  0  0  0  0  0  0  0  0  0
   -0.9079   23.3900  -28.2988 H   0  0  0  0  0  0  0  0  0  0  0  0
   -2.8371   22.4042  -27.1391 H   0  0  0  0  0  0  0  0  0  0  0  0
   -3.6410   22.1001  -28.7422 H   0  0  0  0  0  0  0  0  0  0  0  0
   -2.0590   20.5040  -29.2920 H   0  0  0  0  0  0  0  0  0  0  0  0
   -2.5630   20.0858  -26.4054 H   0  0  0  0  0  0  0  0  0  0  0  0
   -3.8060   19.8959  -27.6882 H   0  0  0  0  0  0  0  0  0  0  0  0
   -2.3478   18.8469  -27.6882 H   0  0  0  0  0  0  0  0  0  0  0  0
   -0.5464   20.9159  -26.7866 H   0  0  0  0  0  0  0  0  0  0  0  0
   -0.0623   20.0410  -28.2788 H   0  0  0  0  0  0  0  0  0  0  0  0
   -0.1524   21.8350  -28.2788 H   0  0  0  0  0  0  0  0  0  0  0  0
   -3.3158   22.5061  -31.0876 H   0  0  0  0  0  0  0  0  0  0  0  0
  1  2  1  0
  2  3  1  0
  2  4  1  0
  4  5  1  0
  5  6  1  0
  6  7  1  0
  7  8  2  0
  8  9  1  0
  9 10  2  0
 10 11  1  0
 11 12  2  0
 12 13  1  0
 13 14  2  0
 14 15  1  0
 14 16  1  0
 16 17  2  0
 17 18  1  0
 18 19  2  0
 19 20  1  0
 20 21  1  0
 21 22  1  0
 22 23  1  0
 23 24  1  0
 24 25  1  0
 24 26  1  0
 19 27  1  0
 27 28  2  0
 28  7  1  0
 13  8  1  0
 28 16  1  0
  1 29  1  0
  1 30  1  0
  1 31  1  0
  3 32  1  0
  3 33  1  0
  3 34  1  0
  4 35  1  0
  4 36  1  0
  5 37  1  0
  5 38  1  0
  6 39  1  0
  9 40  1  0
 10 41  1  0
 11 42  1  0
 12 43  1  0
 15 44  1  0
 15 45  1  0
 15 46  1  0
 17 47  1  0
 18 48  1  0
 21 49  1  0
 21 50  1  0
 22 51  1  0
 22 52  1  0
 23 53  1  0
 23 54  1  0
 24 55  1  0
 25 56  1  0
 25 57  1  0
 25 58  1  0
 26 59  1  0
 26 60  1  0
 26 61  1  0
 27 62  1  0
M  CHG  2  14   1  24   1
M  END
>  <UniqueID>  (34) 
33

>  <SMILES>  (34) 
CN(C)CCNc1c2ccccc2[n+](C)c2ccc(OCCC[NH+](C)C)cc12

>  <Energy>  (34) 
90.06415012131423

>  <Genealogy>  (34) 
CN(C)CCNc1c2ccccc2[n+](C)c2ccc(OCCC[NH+](C)C)cc12 (protonated)
CN(C)CCNc1c2ccccc2[n+](C)c2ccc(OCCC[NH+](C)C)cc12 (3D coordinates assigned)
CN(C)CCNc1c2ccccc2[n+](C)c2ccc(OCCC[NH+](C)C)cc12 (optimized conformer: 90.06415012131423 kcal/mol)

>  <smiles>  (34) 
CN(C)CCCOc1ccc2c(c1)c(NCCN(C)C)c1ccccc1[n+]2C

>  <score_type>  (34) 
oracle

>  <origin>  (34) 
adg

>  <m_score__min__energy>  (34) 
-7.8700000000000001

>  <m_primary>  (34) 
energy

$$$$
34:0
     RDKit          3D

 59 61  0  0  0  0  0  0  0  0999 V2000
   -1.9320   24.3850  -29.3200 C   0  0  0  0  0  0  0  0  0  0  0  0
   -2.8780   23.3750  -29.9310 C   0  0  0  0  0  0  0  0  0  0  0  0
   -2.4220   22.0880  -30.2960 C   0  0  0  0  0  0  0  0  0  0  0  0
   -2.9090   21.5140  -31.5080 C   0  0  0  0  0  0  0  0  0  0  0  0
   -4.2200   21.9300  -31.9630 C   0  0  0  0  0  0  0  0  0  0  0  0
   -4.9690   21.1900  -32.9670 N   0  0  0  0  0  0  0  0  0  0  0  0
   -5.6120   19.9230  -32.5220 C   0  0  0  0  0  0  0  0  0  0  0  0
   -6.8530   20.0600  -31.6070 C   0  0  0  0  0  0  0  0  0  0  0  0
   -8.0990   20.1970  -32.3950 N   0  0  0  0  0  0  0  0  0  0  0  0
   -8.8960   21.3480  -31.9390 C   0  0  0  0  0  0  0  0  0  0  0  0
   -8.9070   18.9700  -32.3130 C   0  0  0  0  0  0  0  0  0  0  0  0
   -4.8670   23.0210  -31.2950 C   0  0  0  0  0  0  0  0  0  0  0  0
   -6.1870   23.4360  -31.6160 C   0  0  0  0  0  0  0  0  0  0  0  0
   -6.7330   24.5360  -31.0400 N   0  0  0  0  0  0  0  0  0  0  0  0
   -6.0570   25.2820  -30.1370 C   0  0  0  0  0  0  0  0  0  0  0  0
   -4.7680   24.9230  -29.7660 C   0  0  0  0  0  0  0  0  0  0  0  0
   -4.1610   23.7820  -30.3340 C   0  0  0  0  0  0  0  0  0  0  0  0
   -1.8520   20.6200  -32.2470 C   0  0  0  0  0  0  0  0  0  0  0  0
   -2.2930   19.7940  -33.4800 C   0  0  0  0  0  0  0  0  0  0  0  0
   -0.7060   21.5490  -32.7390 C   0  0  0  0  0  0  0  0  0  0  0  0
   -1.2740   19.5820  -31.2470 C   0  0  0  0  0  0  0  0  0  0  0  0
   -0.7460   20.2130  -29.9600 C   0  0  0  0  0  0  0  0  0  0  0  0
   -1.7910   21.1170  -29.2680 C   0  0  0  0  0  0  0  0  0  0  0  0
   -1.0800   21.7810  -28.0640 C   0  0  0  0  0  0  0  0  0  0  0  0
   -2.9360   20.2520  -28.6800 C   0  0  0  0  0  0  0  0  0  0  0  0
   -1.9891   24.3241  -28.2232 H   0  0  0  0  0  0  0  0  0  0  0  0
   -0.9040   24.1687  -29.6463 H   0  0  0  0  0  0  0  0  0  0  0  0
   -2.2150   25.3967  -29.6463 H   0  0  0  0  0  0  0  0  0  0  0  0
   -5.6420   21.7910  -33.4690 H   0  0  0  0  0  0  0  0  0  0  0  0
   -4.3270   20.9700  -33.7620 H   0  0  0  0  0  0  0  0  0  0  0  0
   -5.9203   19.3711  -33.4222 H   0  0  0  0  0  0  0  0  0  0  0  0
   -4.8544   19.4129  -31.9089 H   0  0  0  0  0  0  0  0  0  0  0  0
   -6.9288   19.1650  -30.9720 H   0  0  0  0  0  0  0  0  0  0  0  0
   -6.7312   20.9663  -30.9957 H   0  0  0  0  0  0  0  0  0  0  0  0
   -8.9116   21.3706  -30.8393 H   0  0  0  0  0  0  0  0  0  0  0  0
   -8.4475   22.2780  -32.3185 H   0  0  0  0  0  0  0  0  0  0  0  0
   -9.9243   21.2554  -32.3185 H   0  0  0  0  0  0  0  0  0  0  0  0
   -9.0766   18.7125  -31.2571 H   0  0  0  0  0  0  0  0  0  0  0  0
   -9.8744   19.1341  -32.8103 H   0  0  0  0  0  0  0  0  0  0  0  0
   -8.3741   18.1461  -32.8103 H   0  0  0  0  0  0  0  0  0  0  0  0
   -6.7753   22.8566  -32.3427 H   0  0  0  0  0  0  0  0  0  0  0  0
   -6.5282   26.1730  -29.6965 H   0  0  0  0  0  0  0  0  0  0  0  0
   -4.2195   25.5280  -29.0291 H   0  0  0  0  0  0  0  0  0  0  0  0
   -2.7864   18.8698  -33.1448 H   0  0  0  0  0  0  0  0  0  0  0  0
   -2.9952   20.3857  -34.0856 H   0  0  0  0  0  0  0  0  0  0  0  0
   -1.4107   19.5397  -34.0856 H   0  0  0  0  0  0  0  0  0  0  0  0
   -0.1809   21.9747  -31.8712 H   0  0  0  0  0  0  0  0  0  0  0  0
    0.0023   20.9670  -33.3469 H   0  0  0  0  0  0  0  0  0  0  0  0
   -1.1288   22.3624  -33.3469 H   0  0  0  0  0  0  0  0  0  0  0  0
   -2.0694   18.8686  -30.9855 H   0  0  0  0  0  0  0  0  0  0  0  0
   -0.4234   19.0907  -31.7421 H   0  0  0  0  0  0  0  0  0  0  0  0
   -0.4604   19.4094  -29.2653 H   0  0  0  0  0  0  0  0  0  0  0  0
    0.1146   20.8437  -30.2274 H   0  0  0  0  0  0  0  0  0  0  0  0
   -1.5011   21.3877  -27.1270 H   0  0  0  0  0  0  0  0  0  0  0  0
   -0.0038   21.5572  -28.1047 H   0  0  0  0  0  0  0  0  0  0  0  0
   -1.2298   22.8700  -28.1047 H   0  0  0  0  0  0  0  0  0  0  0  0
   -2.8930   20.2845  -27.5813 H   0  0  0  0  0  0  0  0  0  0  0  0
   -3.9050   20.6456  -29.0208 H   0  0  0  0  0  0  0  0  0  0  0  0
   -2.8222   19.2123  -29.0208 H   0  0  0  0  0  0  0  0  0  0  0  0
  1  2  1  0
  2  3  2  0
  3  4  1  0
  4  5  2  0
  5  6  1  0
  6  7  1  0
  7  8  1  0
  8  9  1  0
  9 10  1  0
  9 11  1  0
  5 12  1  0
 12 13  2  0
 13 14  1  0
 14 15  2  0
 15 16  1  0
 16 17  2  0
  4 18  1  0
 18 19  1  0
 18 20  1  0
 18 21  1  0
 21 22  1  0
 22 23  1  0
 23 24  1  0
 23 25  1  0
 17  2  1  0
 23  3  1  0
 17 12  1  0
  1 26  1  0
  1 27  1  0
  1 28  1  0
  6 29  1  0
  6 30  1  0
  7 31  1  0
  7 32  1  0
  8 33  1  0
  8 34  1  0
 10 35  1  0
 10 36  1  0
 10 37  1  0
 11 38  1  0
 11 39  1  0
 11 40  1  0
 13 41  1  0
 15 42  1  0
 16 43  1  0
 19 44  1  0
 19 45  1  0
 19 46  1  0
 20 47  1  0
 20 48  1  0
 20 49  1  0
 21 50  1  0
 21 51  1  0
 22 52  1  0
 22 53  1  0
 24 54  1  0
 24 55  1  0
 24 56  1  0
 25 57  1  0
 25 58  1  0
 25 59  1  0
M  CHG  1   6   1
M  END
>  <UniqueID>  (35) 
34

>  <SMILES>  (35) 
Cc1c2c(c([NH2+]CCN(C)C)c3cnccc13)C(C)(C)CCC2(C)C

>  <Energy>  (35) 
126.11611637916789

>  <Genealogy>  (35) 
Cc1c2c(c([NH2+]CCN(C)C)c3cnccc13)C(C)(C)CCC2(C)C (protonated)
Cc1c2c(c([NH2+]CCN(C)C)c3cnccc13)C(C)(C)CCC2(C)C (3D coordinates assigned)
Cc1c2c(c([NH2+]CCN(C)C)c3cnccc13)C(C)(C)CCC2(C)C (nonaromatic ring conformer: 126.11611637916789 kcal/mol)

>  <smiles>  (35) 
Cc1c2c(c(NCCN(C)C)c3cnccc13)C(C)(C)CCC2(C)C

>  <score_type>  (35) 
oracle

>  <origin>  (35) 
adg

>  <m_score__min__energy>  (35) 
-8.1899999999999995

>  <m_primary>  (35) 
energy

$$$$
35:0
     RDKit          3D

 39 41  0  0  1  0  0  0  0  0999 V2000
   -3.0840   24.5160  -27.3370 C   0  0  0  0  0  0  0  0  0  0  0  0
   -1.8050   24.5990  -28.1550 C   0  0  0  0  0  0  0  0  0  0  0  0
   -2.0160   23.9830  -29.4070 N   0  0  0  0  0  0  0  0  0  0  0  0
   -1.5240   22.6880  -29.6410 C   0  0  0  0  0  0  0  0  0  0  0  0
   -2.1480   21.9020  -30.7660 C   0  0  0  0  0  0  0  0  0  0  0  0
   -2.8990   22.8120  -31.5970 N   0  0  0  0  0  0  0  0  0  0  0  0
   -4.1890   22.8890  -31.4340 C   0  0  0  0  0  0  0  0  0  0  0  0
   -4.9680   21.7450  -31.6600 C   0  0  0  0  0  0  0  0  0  0  0  0
   -6.3470   21.7700  -31.5050 C   0  0  0  0  0  0  0  0  0  0  0  0
   -7.1410   20.5810  -31.7410 C   0  0  0  0  0  0  0  0  0  0  0  0
   -6.6360   19.2920  -31.6360 C   0  0  0  0  0  0  0  0  0  0  0  0
   -7.4070   18.1690  -31.8670 C   0  0  0  0  0  0  0  0  0  0  0  0
   -8.7270   18.2800  -32.2150 C   0  0  0  0  0  0  0  0  0  0  0  0
   -9.2560   19.5390  -32.3260 C   0  0  0  0  0  0  0  0  0  0  0  0
   -8.4770   20.6740  -32.0940 C   0  0  0  0  0  0  0  0  0  0  0  0
   -6.8710   22.9570  -31.1260 N   0  0  0  0  0  0  0  0  0  0  0  0
   -6.1200   24.0550  -30.9090 C   0  0  0  0  0  0  0  0  0  0  0  0
   -6.5030   25.2990  -30.5300 N   0  0  0  0  0  0  0  0  0  0  0  0
   -5.3700   26.0180  -30.4570 C   0  0  0  0  0  0  0  0  0  0  0  0
   -4.3120   25.2580  -30.7780 N   0  0  0  0  0  0  0  0  0  0  0  0
   -4.7850   24.0550  -31.0530 N   0  0  0  0  0  0  0  0  0  0  0  0
   -2.8357   24.5321  -26.2655 H   0  0  0  0  0  0  0  0  0  0  0  0
   -3.7290   25.3742  -27.5768 H   0  0  0  0  0  0  0  0  0  0  0  0
   -3.6127   23.5817  -27.5768 H   0  0  0  0  0  0  0  0  0  0  0  0
   -1.5317   25.6539  -28.3050 H   0  0  0  0  0  0  0  0  0  0  0  0
   -0.9908   24.0858  -27.6223 H   0  0  0  0  0  0  0  0  0  0  0  0
   -2.4020   24.5250  -30.1740 H   0  0  0  0  0  0  0  0  0  0  0  0
   -0.4492   22.7774  -29.8574 H   0  0  0  0  0  0  0  0  0  0  0  0
   -1.7737   22.1232  -28.7307 H   0  0  0  0  0  0  0  0  0  0  0  0
   -1.3604   21.4184  -31.3625 H   0  0  0  0  0  0  0  0  0  0  0  0
   -2.8128   21.1251  -30.3604 H   0  0  0  0  0  0  0  0  0  0  0  0
   -4.4766   20.8097  -31.9661 H   0  0  0  0  0  0  0  0  0  0  0  0
   -5.5800   19.1595  -31.3578 H   0  0  0  0  0  0  0  0  0  0  0  0
   -6.9541   17.1713  -31.7700 H   0  0  0  0  0  0  0  0  0  0  0  0
   -9.3426   17.3872  -32.3994 H   0  0  0  0  0  0  0  0  0  0  0  0
  -10.3139   19.6576  -32.6030 H   0  0  0  0  0  0  0  0  0  0  0  0
   -8.9364   21.6684  -32.1942 H   0  0  0  0  0  0  0  0  0  0  0  0
   -7.8860   23.0510  -30.9910 H   0  0  0  0  0  0  0  0  0  0  0  0
   -5.3175   27.0797  -30.1740 H   0  0  0  0  0  0  0  0  0  0  0  0
  1  2  1  0
  2  3  1  0
  3  4  1  0
  4  5  1  0
  5  6  1  0
  6  7  2  0
  7  8  1  0
  8  9  2  0
  9 10  1  0
 10 11  2  0
 11 12  1  0
 12 13  2  0
 13 14  1  0
 14 15  2  0
  9 16  1  0
 16 17  1  0
 17 18  2  0
 18 19  1  0
 19 20  2  0
 20 21  1  0
 21  7  1  0
 15 10  1  0
 21 17  1  0
  1 22  1  0
  1 23  1  0
  1 24  1  0
  2 25  1  0
  2 26  1  0
  3 27  1  0
  4 28  1  0
  4 29  1  0
  5 30  1  0
  5 31  1  0
  8 32  1  0
 11 33  1  0
 12 34  1  0
 13 35  1  0
 14 36  1  0
 15 37  1  0
 16 38  1  0
 19 39  1  0
M  END
>  <smiles>  (36) 
CCNCCN=c1cc(-c2ccccc2)[nH]c2ncnn12

>  <score_type>  (36) 
oracle

>  <origin>  (36) 
adg

>  <m_score__min__energy>  (36) 
-7.5499999999999998

>  <m_primary>  (36) 
energy

$$$$
36:0
     RDKit          3D

 50 54  0  0  0  0  0  0  0  0999 V2000
   -1.4330   12.0550  -31.2260 C   0  0  0  0  0  0  0  0  0  0  0  0
   -1.5050   12.8880  -32.3790 O   0  0  0  0  0  0  0  0  0  0  0  0
   -2.6380   13.6250  -32.7500 C   0  0  0  0  0  0  0  0  0  0  0  0
   -3.8040   13.4910  -31.9920 C   0  0  0  0  0  0  0  0  0  0  0  0
   -4.9530   14.2090  -32.3360 C   0  0  0  0  0  0  0  0  0  0  0  0
   -4.9250   15.0600  -33.4490 C   0  0  0  0  0  0  0  0  0  0  0  0
   -6.1320   15.8640  -33.8290 C   0  0  0  0  0  0  0  0  0  0  0  0
   -5.8580   17.2900  -33.6610 N   0  0  0  0  0  0  0  0  0  0  0  0
   -4.6790   17.8560  -33.9130 N   0  0  0  0  0  0  0  0  0  0  0  0
   -4.7420   19.1730  -33.6060 C   0  0  0  0  0  0  0  0  0  0  0  0
   -3.5940   20.1260  -33.6650 C   0  0  0  0  0  0  0  0  0  0  0  0
   -6.0060   19.4260  -33.1240 C   0  0  0  0  0  0  0  0  0  0  0  0
   -6.5570   20.5700  -32.6550 N   0  0  0  0  0  0  0  0  0  0  0  0
   -7.8500   20.5380  -32.2090 C   0  0  0  0  0  0  0  0  0  0  0  0
   -8.6140   22.0420  -31.6150 S   0  0  0  0  0  0  0  0  0  0  0  0
   -7.0680   22.6950  -31.0030 C   0  0  0  0  0  0  0  0  0  0  0  0
   -6.5660   22.3800  -29.7840 N   0  0  0  0  0  0  0  0  0  0  0  0
   -5.4050   23.0440  -29.5620 C   0  0  0  0  0  0  0  0  0  0  0  0
   -4.6390   22.9550  -28.4030 C   0  0  0  0  0  0  0  0  0  0  0  0
   -3.4690   23.7250  -28.3180 C   0  0  0  0  0  0  0  0  0  0  0  0
   -3.1000   24.5660  -29.3890 C   0  0  0  0  0  0  0  0  0  0  0  0
   -1.9400   25.3400  -29.2800 O   0  0  0  0  0  0  0  0  0  0  0  0
   -1.0260   25.2090  -28.1970 C   0  0  0  0  0  0  0  0  0  0  0  0
   -3.8760   24.6250  -30.5140 N   0  0  0  0  0  0  0  0  0  0  0  0
   -5.0010   23.8730  -30.5890 C   0  0  0  0  0  0  0  0  0  0  0  0
   -6.1050   23.8070  -31.8490 S   0  0  0  0  0  0  0  0  0  0  0  0
   -8.5860   19.3270  -32.2230 C   0  0  0  0  0  0  0  0  0  0  0  0
   -7.9910   18.1470  -32.7060 C   0  0  0  0  0  0  0  0  0  0  0  0
   -6.6780   18.2400  -33.1660 C   0  0  0  0  0  0  0  0  0  0  0  0
   -3.7780   15.1880  -34.1690 N   0  0  0  0  0  0  0  0  0  0  0  0
   -2.6490   14.4980  -33.8540 C   0  0  0  0  0  0  0  0  0  0  0  0
   -1.4868   12.6770  -30.3203 H   0  0  0  0  0  0  0  0  0  0  0  0
   -2.2731   11.3450  -31.2336 H   0  0  0  0  0  0  0  0  0  0  0  0
   -0.4835   11.4997  -31.2336 H   0  0  0  0  0  0  0  0  0  0  0  0
   -3.8179   12.8183  -31.1217 H   0  0  0  0  0  0  0  0  0  0  0  0
   -5.8709   14.1069  -31.7384 H   0  0  0  0  0  0  0  0  0  0  0  0
   -6.3866   15.6637  -34.8802 H   0  0  0  0  0  0  0  0  0  0  0  0
   -6.9733   15.5798  -33.1798 H   0  0  0  0  0  0  0  0  0  0  0  0
   -3.8410   17.3450  -34.2730 H   0  0  0  0  0  0  0  0  0  0  0  0
   -3.2806   20.3862  -32.6432 H   0  0  0  0  0  0  0  0  0  0  0  0
   -2.7542   19.6559  -34.1976 H   0  0  0  0  0  0  0  0  0  0  0  0
   -3.9015   21.0380  -34.1976 H   0  0  0  0  0  0  0  0  0  0  0  0
   -4.9431   22.2978  -27.5750 H   0  0  0  0  0  0  0  0  0  0  0  0
   -2.8400   23.6729  -27.4171 H   0  0  0  0  0  0  0  0  0  0  0  0
   -1.5717   25.2872  -27.2451 H   0  0  0  0  0  0  0  0  0  0  0  0
   -0.5273   24.2302  -28.2544 H   0  0  0  0  0  0  0  0  0  0  0  0
   -0.2725   26.0083  -28.2544 H   0  0  0  0  0  0  0  0  0  0  0  0
   -9.6229   19.3095  -31.8561 H   0  0  0  0  0  0  0  0  0  0  0  0
   -8.5378   17.1927  -32.7201 H   0  0  0  0  0  0  0  0  0  0  0  0
   -1.7420   14.6226  -34.4638 H   0  0  0  0  0  0  0  0  0  0  0  0
  1  2  1  0
  2  3  1  0
  3  4  2  0
  4  5  1  0
  5  6  2  0
  6  7  1  0
  7  8  1  0
  8  9  1  0
  9 10  2  0
 10 11  1  0
 10 12  1  0
 12 13  2  0
 13 14  1  0
 14 15  1  0
 15 16  1  0
 16 17  2  0
 17 18  1  0
 18 19  2  0
 19 20  1  0
 20 21  2  0
 21 22  1  0
 22 23  1  0
 21 24  1  0
 24 25  2  0
 25 26  1  0
 14 27  2  0
 27 28  1  0
 28 29  2  0
  6 30  1  0
 30 31  2  0
 31  3  1  0
 29  8  1  0
 29 12  1  0
 26 16  1  0
 25 18  1  0
  1 32  1  0
  1 33  1  0
  1 34  1  0
  4 35  1  0
  5 36  1  0
  7 37  1  0
  7 38  1  0
  9 39  1  0
 11 40  1  0
 11 41  1  0
 11 42  1  0
 19 43  1  0
 20 44  1  0
 23 45  1  0
 23 46  1  0
 23 47  1  0
 27 48  1  0
 28 49  1  0
 31 50  1  0
M  CHG  1   9   1
M  END
>  <UniqueID>  (37) 
35

>  <SMILES>  (37) 
COc1ccc(Cn2[nH+]c(C)c3nc(Sc4nc5ccc(OC)nc5s4)ccc32)nc1

>  <Energy>  (37) 
125.64127393186602

>  <Genealogy>  (37) 
COc1ccc(Cn2[nH+]c(C)c3nc(Sc4nc5ccc(OC)nc5s4)ccc32)nc1 (protonated)
COc1ccc(Cn2[nH+]c(C)c3nc(Sc4nc5ccc(OC)nc5s4)ccc32)nc1 (3D coordinates assigned)
COc1ccc(Cn2[nH+]c(C)c3nc(Sc4nc5ccc(OC)nc5s4)ccc32)nc1 (optimized conformer: 125.64127393186602 kcal/mol)

>  <smiles>  (37) 
COc1ccc(Cn2nc(C)c3nc(Sc4nc5ccc(OC)nc5s4)ccc32)nc1

>  <score_type>  (37) 
oracle

>  <origin>  (37) 
adg

>  <m_score__min__energy>  (37) 
-9.3900000000000006

>  <m_primary>  (37) 
energy

$$$$
37:0
     RDKit          3D

 59 60  0  0  0  0  0  0  0  0999 V2000
   -8.6220   18.7880  -31.7080 C   0  0  0  0  0  0  0  0  0  0  0  0
   -7.2430   18.1600  -31.4810 C   0  0  0  0  0  0  0  0  0  0  0  0
   -6.3280   18.3190  -32.6370 N   0  0  0  0  0  0  0  0  0  0  0  0
   -6.8660   17.6260  -33.8410 C   0  0  0  0  0  0  0  0  0  0  0  0
   -6.4750   16.1440  -33.8920 C   0  0  0  0  0  0  0  0  0  0  0  0
   -4.9330   17.8900  -32.3410 C   0  0  0  0  0  0  0  0  0  0  0  0
   -3.8140   18.8090  -32.9110 C   0  0  0  0  0  0  0  0  0  0  0  0
   -4.3250   20.1520  -33.4770 C   0  0  0  0  0  0  0  0  0  0  0  0
   -4.7500   21.0300  -32.4340 O   0  0  0  0  0  0  0  0  0  0  0  0
   -6.0840   21.4170  -32.2550 C   0  0  0  0  0  0  0  0  0  0  0  0
   -6.9410   21.1900  -33.1550 O   0  0  0  0  0  0  0  0  0  0  0  0
   -6.4620   22.1820  -31.0130 C   0  0  2  0  0  0  0  0  0  0  0  0
   -7.5390   23.2420  -31.2780 C   0  0  0  0  0  0  0  0  0  0  0  0
   -5.2260   22.8050  -30.3970 C   0  0  0  0  0  0  0  0  0  0  0  0
   -5.1160   24.1990  -30.2630 C   0  0  0  0  0  0  0  0  0  0  0  0
   -3.9330   24.7780  -29.8000 C   0  0  0  0  0  0  0  0  0  0  0  0
   -2.8290   23.9760  -29.4590 C   0  0  0  0  0  0  0  0  0  0  0  0
   -1.6110   24.5580  -29.0350 C   0  0  0  0  0  0  0  0  0  0  0  0
   -1.5510   25.9650  -28.9630 O   0  0  0  0  0  0  0  0  0  0  0  0
   -0.8600   26.7410  -27.9910 C   0  0  0  0  0  0  0  0  0  0  0  0
   -0.5140   23.7160  -28.7100 C   0  0  0  0  0  0  0  0  0  0  0  0
    0.7050   24.2780  -28.2990 O   0  0  0  0  0  0  0  0  0  0  0  0
    1.3010   24.0950  -27.0180 C   0  0  0  0  0  0  0  0  0  0  0  0
   -0.6630   22.3190  -28.8090 C   0  0  0  0  0  0  0  0  0  0  0  0
   -1.8630   21.7540  -29.2300 C   0  0  0  0  0  0  0  0  0  0  0  0
   -2.9470   22.5690  -29.5610 C   0  0  0  0  0  0  0  0  0  0  0  0
   -4.1430   21.9940  -30.0210 C   0  0  0  0  0  0  0  0  0  0  0  0
   -9.0918   19.0020  -30.7367 H   0  0  0  0  0  0  0  0  0  0  0  0
   -8.5099   19.7238  -32.2751 H   0  0  0  0  0  0  0  0  0  0  0  0
   -9.2543   18.0891  -32.2751 H   0  0  0  0  0  0  0  0  0  0  0  0
   -6.7825   18.6369  -30.6032 H   0  0  0  0  0  0  0  0  0  0  0  0
   -7.3970   17.0808  -31.3337 H   0  0  0  0  0  0  0  0  0  0  0  0
   -6.2730   19.3430  -32.8570 H   0  0  0  0  0  0  0  0  0  0  0  0
   -7.9634   17.7007  -33.8296 H   0  0  0  0  0  0  0  0  0  0  0  0
   -6.4354   18.1150  -34.7273 H   0  0  0  0  0  0  0  0  0  0  0  0
   -6.3727   15.7563  -32.8677 H   0  0  0  0  0  0  0  0  0  0  0  0
   -7.2543   15.5772  -34.4225 H   0  0  0  0  0  0  0  0  0  0  0  0
   -5.5175   16.0355  -34.4225 H   0  0  0  0  0  0  0  0  0  0  0  0
   -4.8153   17.8508  -31.2480 H   0  0  0  0  0  0  0  0  0  0  0  0
   -4.8052   16.9161  -32.8361 H   0  0  0  0  0  0  0  0  0  0  0  0
   -3.0997   19.0247  -32.1028 H   0  0  0  0  0  0  0  0  0  0  0  0
   -3.3560   18.2658  -33.7508 H   0  0  0  0  0  0  0  0  0  0  0  0
   -3.5135   20.6340  -34.0419 H   0  0  0  0  0  0  0  0  0  0  0  0
   -5.1869   19.9469  -34.1290 H   0  0  0  0  0  0  0  0  0  0  0  0
   -6.9010   21.4664  -30.3023 H   0  0  0  0  0  0  0  0  0  0  0  0
   -7.9241   23.6210  -30.3198 H   0  0  0  0  0  0  0  0  0  0  0  0
   -7.1026   24.0726  -31.8521 H   0  0  0  0  0  0  0  0  0  0  0  0
   -8.3626   22.7924  -31.8521 H   0  0  0  0  0  0  0  0  0  0  0  0
   -5.9702   24.8405  -30.5254 H   0  0  0  0  0  0  0  0  0  0  0  0
   -3.8637   25.8713  -29.7010 H   0  0  0  0  0  0  0  0  0  0  0  0
   -1.1531   26.4119  -26.9831 H   0  0  0  0  0  0  0  0  0  0  0  0
    0.2244   26.6082  -28.1192 H   0  0  0  0  0  0  0  0  0  0  0  0
   -1.1171   27.8028  -28.1192 H   0  0  0  0  0  0  0  0  0  0  0  0
    0.5630   24.3216  -26.2345 H   0  0  0  0  0  0  0  0  0  0  0  0
    1.6365   23.0525  -26.9152 H   0  0  0  0  0  0  0  0  0  0  0  0
    2.1637   24.7696  -26.9152 H   0  0  0  0  0  0  0  0  0  0  0  0
    0.1822   21.6645  -28.5496 H   0  0  0  0  0  0  0  0  0  0  0  0
   -1.9578   20.6605  -29.3023 H   0  0  0  0  0  0  0  0  0  0  0  0
   -4.2321   20.8996  -30.0873 H   0  0  0  0  0  0  0  0  0  0  0  0
  1  2  1  0
  2  3  1  0
  3  4  1  0
  4  5  1  0
  3  6  1  0
  6  7  1  0
  7  8  1  0
  8  9  1  0
  9 10  1  0
 10 11  2  0
 10 12  1  0
 12 13  1  0
 12 14  1  0
 14 15  2  0
 15 16  1  0
 16 17  2  0
 17 18  1  0
 18 19  1  0
 19 20  1  0
 18 21  2  0
 21 22  1  0
 22 23  1  0
 21 24  1  0
 24 25  2  0
 25 26  1  0
 26 27  2  0
 27 14  1  0
 26 17  1  0
  1 28  1  0
  1 29  1  0
  1 30  1  0
  2 31  1  0
  2 32  1  0
  3 33  1  0
  4 34  1  0
  4 35  1  0
  5 36  1  0
  5 37  1  0
  5 38  1  0
  6 39  1  0
  6 40  1  0
  7 41  1  0
  7 42  1  0
  8 43  1  0
  8 44  1  0
 12 45  1  1
 13 46  1  0
 13 47  1  0
 13 48  1  0
 15 49  1  0
 16 50  1  0
 20 51  1  0
 20 52  1  0
 20 53  1  0
 23 54  1  0
 23 55  1  0
 23 56  1  0
 24 57  1  0
 25 58  1  0
 27 59  1  0
M  CHG  1   3   1
M  END
>  <UniqueID>  (38) 
36

>  <SMILES>  (38) 
CC[NH+](CC)CCCOC(=O)[C@H](C)c1ccc2c(OC)c(OC)ccc2c1

>  <Energy>  (38) 
60.604054995146306

>  <Genealogy>  (38) 
CC[NH+](CC)CCCOC(=O)C(C)c1ccc2c(OC)c(OC)ccc2c1 (protonated)
CC[NH+](CC)CCCOC(=O)[C@H](C)c1ccc2c(OC)c(OC)ccc2c1 (chirality)
CC[NH+](CC)CCCOC(=O)[C@H](C)c1ccc2c(OC)c(OC)ccc2c1 (3D coordinates assigned)
CC[NH+](CC)CCCOC(=O)[C@H](C)c1ccc2c(OC)c(OC)ccc2c1 (optimized conformer: 60.604054995146306 kcal/mol)

>  <smiles>  (38) 
CCN(CC)CCCOC(=O)C(C)c1ccc2c(OC)c(OC)ccc2c1

>  <score_type>  (38) 
oracle

>  <origin>  (38) 
adg

>  <m_score__min__energy>  (38) 
-6.8499999999999996

>  <m_primary>  (38) 
energy

$$$$
38:0
     RDKit          3D

 75 79  0  0  0  0  0  0  0  0999 V2000
    0.4336   26.0450  -25.8766 H   0  0  0  0  0  0  0  0  0  0  0  0
    0.0640   25.3860  -26.6760 C   0  0  0  0  0  0  0  0  0  0  0  0
    0.7750   24.2230  -27.0140 C   0  0  0  0  0  0  0  0  0  0  0  0
    2.0010   23.8950  -26.4180 O   0  0  0  0  0  0  0  0  0  0  0  0
    2.5770   24.5970  -25.3200 C   0  0  0  0  0  0  0  0  0  0  0  0
    2.2183   24.1598  -24.3765 H   0  0  0  0  0  0  0  0  0  0  0  0
    3.6730   24.5169  -25.3679 H   0  0  0  0  0  0  0  0  0  0  0  0
    2.2844   25.6563  -25.3679 H   0  0  0  0  0  0  0  0  0  0  0  0
    0.2610   23.3650  -27.9930 C   0  0  0  0  0  0  0  0  0  0  0  0
    0.8397   22.4776  -28.2888 H   0  0  0  0  0  0  0  0  0  0  0  0
   -0.9870   23.6150  -28.6100 C   0  0  0  0  0  0  0  0  0  0  0  0
   -1.6140   24.8470  -28.3390 C   0  0  0  0  0  0  0  0  0  0  0  0
   -2.6920   25.2290  -29.0550 N   0  0  0  0  0  0  0  0  0  0  0  0
   -3.2070   24.5230  -30.0890 C   0  0  0  0  0  0  0  0  0  0  0  0
   -4.2620   25.0580  -30.6500 N   0  0  0  0  0  0  0  0  0  0  0  0
   -5.5150   25.6420  -30.1760 C   0  0  0  0  0  0  0  0  0  0  0  0
   -5.4429   25.8206  -29.0930 H   0  0  0  0  0  0  0  0  0  0  0  0
   -5.6872   26.5887  -30.7089 H   0  0  0  0  0  0  0  0  0  0  0  0
   -6.6960   24.6970  -30.4540 C   0  0  0  0  0  0  0  0  0  0  0  0
   -7.4015   24.7523  -29.6119 H   0  0  0  0  0  0  0  0  0  0  0  0
   -7.1732   25.0148  -31.3928 H   0  0  0  0  0  0  0  0  0  0  0  0
   -6.2360   23.2370  -30.6230 C   0  0  0  0  0  0  0  0  0  0  0  0
   -5.1594   23.2245  -30.8484 H   0  0  0  0  0  0  0  0  0  0  0  0
   -6.4446   22.6972  -29.6875 H   0  0  0  0  0  0  0  0  0  0  0  0
   -6.9670   22.5650  -31.7230 N   0  0  0  0  0  0  0  0  0  0  0  0
   -8.1290   21.8140  -31.2110 C   0  0  0  0  0  0  0  0  0  0  0  0
   -8.1155   21.8227  -30.1111 H   0  0  0  0  0  0  0  0  0  0  0  0
   -9.0565   22.2840  -31.5701 H   0  0  0  0  0  0  0  0  0  0  0  0
   -8.0814   20.7753  -31.5701 H   0  0  0  0  0  0  0  0  0  0  0  0
   -6.0670   21.6350  -32.4290 C   0  0  0  0  0  0  0  0  0  0  0  0
   -5.4978   21.0468  -31.6942 H   0  0  0  0  0  0  0  0  0  0  0  0
   -6.6613   20.9576  -33.0598 H   0  0  0  0  0  0  0  0  0  0  0  0
   -5.3704   22.2067  -33.0598 H   0  0  0  0  0  0  0  0  0  0  0  0
   -2.6000   23.2650  -30.4280 C   0  0  0  0  0  0  0  0  0  0  0  0
   -2.9060   22.5190  -31.5810 C   0  0  0  0  0  0  0  0  0  0  0  0
   -3.6347   22.9163  -32.3029 H   0  0  0  0  0  0  0  0  0  0  0  0
   -2.3040   21.2870  -31.8260 C   0  0  0  0  0  0  0  0  0  0  0  0
   -2.5900   20.5930  -33.0150 C   0  0  0  0  0  0  0  0  0  0  0  0
   -3.2757   21.0338  -33.7536 H   0  0  0  0  0  0  0  0  0  0  0  0
   -2.0050   19.3390  -33.2660 C   0  0  0  0  0  0  0  0  0  0  0  0
   -2.2560   18.6130  -34.4420 O   0  0  0  0  0  0  0  0  0  0  0  0
   -2.5360   17.2160  -34.4770 C   0  0  0  0  0  0  0  0  0  0  0  0
   -2.7178   16.9105  -35.5180 H   0  0  0  0  0  0  0  0  0  0  0  0
   -1.6733   16.6727  -34.0639 H   0  0  0  0  0  0  0  0  0  0  0  0
   -3.7740   16.8880  -33.6330 C   0  0  0  0  0  0  0  0  0  0  0  0
   -4.2234   15.9689  -34.0370 H   0  0  0  0  0  0  0  0  0  0  0  0
   -3.4124   16.7936  -32.5984 H   0  0  0  0  0  0  0  0  0  0  0  0
   -4.8300   17.9330  -33.5960 N   0  0  0  0  0  0  0  0  0  0  0  0
   -4.4050   18.7070  -34.1680 H   0  0  0  0  0  0  0  0  0  0  0  0
   -5.0540   18.5390  -32.2570 C   0  0  0  0  0  0  0  0  0  0  0  0
   -4.1530   18.3814  -31.6460 H   0  0  0  0  0  0  0  0  0  0  0  0
   -5.2647   19.6076  -32.4111 H   0  0  0  0  0  0  0  0  0  0  0  0
   -6.2560   17.9370  -31.5190 C   0  0  0  0  0  0  0  0  0  0  0  0
   -6.0403   16.8876  -31.2694 H   0  0  0  0  0  0  0  0  0  0  0  0
   -6.4370   18.5131  -30.5996 H   0  0  0  0  0  0  0  0  0  0  0  0
   -7.4070   17.9950  -32.3310 O   0  0  0  0  0  0  0  0  0  0  0  0
   -7.2370   17.1220  -33.4210 C   0  0  0  0  0  0  0  0  0  0  0  0
   -7.0219   16.1125  -33.0406 H   0  0  0  0  0  0  0  0  0  0  0  0
   -8.1626   17.1268  -34.0154 H   0  0  0  0  0  0  0  0  0  0  0  0
   -6.0770   17.5730  -34.3280 C   0  0  0  0  0  0  0  0  0  0  0  0
   -5.8439   16.7526  -35.0227 H   0  0  0  0  0  0  0  0  0  0  0  0
   -6.4151   18.4852  -34.8414 H   0  0  0  0  0  0  0  0  0  0  0  0
   -1.1320   18.7940  -32.3210 C   0  0  0  0  0  0  0  0  0  0  0  0
   -0.6553   17.8222  -32.5168 H   0  0  0  0  0  0  0  0  0  0  0  0
   -0.8580   19.4720  -31.1280 C   0  0  0  0  0  0  0  0  0  0  0  0
   -0.1733   19.0234  -30.3932 H   0  0  0  0  0  0  0  0  0  0  0  0
   -1.4510   20.7280  -30.8550 C   0  0  0  0  0  0  0  0  0  0  0  0
   -1.2210   21.4040  -29.6790 N   0  0  0  0  0  0  0  0  0  0  0  0
   -0.8170   20.6230  -28.4910 C   0  0  0  0  0  0  0  0  0  0  0  0
   -1.0998   21.1697  -27.5793 H   0  0  0  0  0  0  0  0  0  0  0  0
   -1.3230   19.6464  -28.5048 H   0  0  0  0  0  0  0  0  0  0  0  0
    0.2725   20.4717  -28.5048 H   0  0  0  0  0  0  0  0  0  0  0  0
   -1.5870   22.7390  -29.5640 C   0  0  0  0  0  0  0  0  0  0  0  0
   -1.1120   25.7040  -27.3560 C   0  0  0  0  0  0  0  0  0  0  0  0
   -1.6472   26.6348  -27.1169 H   0  0  0  0  0  0  0  0  0  0  0  0
  1  2  1  0
  2  3  2  0
  3  4  1  0
  4  5  1  0
  5  6  1  0
  5  7  1  0
  5  8  1  0
  3  9  1  0
  9 10  1  0
  9 11  2  0
 11 12  1  0
 12 13  1  0
 13 14  1  0
 14 15  2  0
 15 16  1  0
 16 17  1  0
 16 18  1  0
 16 19  1  0
 19 20  1  0
 19 21  1  0
 19 22  1  0
 22 23  1  0
 22 24  1  0
 22 25  1  0
 25 26  1  0
 26 27  1  0
 26 28  1  0
 26 29  1  0
 25 30  1  0
 30 31  1  0
 30 32  1  0
 30 33  1  0
 14 34  1  0
 34 35  2  0
 35 36  1  0
 35 37  1  0
 37 38  2  0
 38 39  1  0
 38 40  1  0
 40 41  1  0
 41 42  1  0
 42 43  1  0
 42 44  1  0
 42 45  1  0
 45 46  1  0
 45 47  1  0
 45 48  1  0
 48 49  1  0
 48 50  1  0
 50 51  1  0
 50 52  1  0
 50 53  1  0
 53 54  1  0
 53 55  1  0
 53 56  1  0
 56 57  1  0
 57 58  1  0
 57 59  1  0
 57 60  1  0
 60 61  1  0
 60 62  1  0
 40 63  2  0
 63 64  1  0
 63 65  1  0
 65 66  1  0
 65 67  2  0
 67 68  1  0
 68 69  1  0
 69 70  1  0
 69 71  1  0
 69 72  1  0
 68 73  2  0
 12 74  2  0
 74 75  1  0
 74  2  1  0
 73 11  1  0
 73 34  1  0
 67 37  1  0
 60 48  1  0
M  CHG  3  13  -1  48   1  68   1
M  END
>  <UniqueID>  (39) 
37

>  <SMILES>  (39) 
COc1ccc2[n-]/c(=N/CCCN(C)C)c3cc4cc(OCC[NH+]5CCOCC5)ccc4[n+](C)c3c2c1

>  <Energy>  (39) 
140.42497318429994

>  <Genealogy>  (39) 
COc1ccc2[n-]c(=NCCCN(C)C)c3cc4cc(OCC[NH+]5CCOCC5)ccc4[n+](C)c3c2c1 (protonated)
COc1ccc2[n-]/c(=N/CCCN(C)C)c3cc4cc(OCC[NH+]5CCOCC5)ccc4[n+](C)c3c2c1 (cis-trans isomerization)
COc1ccc2[n-]/c(=N/CCCN(C)C)c3cc4cc(OCC[NH+]5CCOCC5)ccc4[n+](C)c3c2c1 (3D coordinates assigned)
COc1ccc2[n-]/c(=N/CCCN(C)C)c3cc4cc(OCC[NH+]5CCOCC5)ccc4[n+](C)c3c2c1 (nonaromatic ring conformer: 140.42497318429994 kcal/mol)

>  <smiles>  (39) 
COc1ccc2[nH]c(=NCCCN(C)C)c3cc4cc(OCCN5CCOCC5)ccc4[n+](C)c3c2c1

>  <score_type>  (39) 
oracle

>  <origin>  (39) 
adg

>  <m_score__min__energy>  (39) 
-9.5399999999999991

>  <m_primary>  (39) 
energy

$$$$
39:0
     RDKit          3D

 46 48  0  0  0  0  0  0  0  0999 V2000
   -8.8150   21.7890  -30.7260 C   0  0  0  0  0  0  0  0  0  0  0  0
   -7.6310   22.5600  -31.0880 N   0  0  0  0  0  0  0  0  0  0  0  0
   -7.2220   23.6230  -30.4150 N   0  0  0  0  0  0  0  0  0  0  0  0
   -6.1050   24.0760  -31.0180 C   0  0  0  0  0  0  0  0  0  0  0  0
   -5.2910   25.2230  -30.5130 C   0  0  0  0  0  0  0  0  0  0  0  0
   -3.8640   24.8860  -30.5960 N   0  0  0  0  0  0  0  0  0  0  0  0
   -3.4740   23.8980  -29.5790 C   0  0  0  0  0  0  0  0  0  0  0  0
   -2.8050   24.5400  -28.3870 C   0  0  0  0  0  0  0  0  0  0  0  0
   -3.4570   24.5690  -27.1430 C   0  0  0  0  0  0  0  0  0  0  0  0
   -2.8490   25.1840  -26.0440 C   0  0  0  0  0  0  0  0  0  0  0  0
   -1.5920   25.7790  -26.1810 C   0  0  0  0  0  0  0  0  0  0  0  0
   -0.9410   25.7610  -27.4170 C   0  0  0  0  0  0  0  0  0  0  0  0
    0.2770   26.3420  -27.5500 F   0  0  0  0  0  0  0  0  0  0  0  0
   -1.5440   25.1460  -28.5190 C   0  0  0  0  0  0  0  0  0  0  0  0
   -5.7820   23.2670  -32.0920 C   0  0  0  0  0  0  0  0  0  0  0  0
   -6.7810   22.3160  -32.1090 C   0  0  0  0  0  0  0  0  0  0  0  0
   -6.8660   21.1650  -33.0770 C   0  0  0  0  0  0  0  0  0  0  0  0
   -6.3040   19.9350  -32.4820 N   0  0  0  0  0  0  0  0  0  0  0  0
   -5.2630   19.3350  -33.3570 C   0  0  0  0  0  0  0  0  0  0  0  0
   -5.8170   18.2640  -34.3020 C   0  0  0  0  0  0  0  0  0  0  0  0
   -6.3370   16.7620  -33.3910 S   0  0  0  0  0  0  0  0  0  0  0  0
   -6.8480   17.5790  -31.8340 C   0  0  0  0  0  0  0  0  0  0  0  0
   -7.3790   18.9890  -32.0880 C   0  0  0  0  0  0  0  0  0  0  0  0
   -8.8969   21.7356  -29.6304 H   0  0  0  0  0  0  0  0  0  0  0  0
   -9.7106   22.2776  -31.1373 H   0  0  0  0  0  0  0  0  0  0  0  0
   -8.7304   20.7723  -31.1373 H   0  0  0  0  0  0  0  0  0  0  0  0
   -5.4934   26.1139  -31.1257 H   0  0  0  0  0  0  0  0  0  0  0  0
   -5.5584   25.4289  -29.4660 H   0  0  0  0  0  0  0  0  0  0  0  0
   -3.6600   24.5010  -31.5480 H   0  0  0  0  0  0  0  0  0  0  0  0
   -4.3748   23.3676  -29.2366 H   0  0  0  0  0  0  0  0  0  0  0  0
   -2.7529   23.2064  -30.0391 H   0  0  0  0  0  0  0  0  0  0  0  0
   -4.4490   24.1065  -27.0330 H   0  0  0  0  0  0  0  0  0  0  0  0
   -3.3609   25.1994  -25.0705 H   0  0  0  0  0  0  0  0  0  0  0  0
   -1.1149   26.2617  -25.3153 H   0  0  0  0  0  0  0  0  0  0  0  0
   -1.0299   25.1367  -29.4914 H   0  0  0  0  0  0  0  0  0  0  0  0
   -4.9253   23.3604  -32.7756 H   0  0  0  0  0  0  0  0  0  0  0  0
   -7.9203   20.9902  -33.3374 H   0  0  0  0  0  0  0  0  0  0  0  0
   -6.2856   21.4179  -33.9766 H   0  0  0  0  0  0  0  0  0  0  0  0
   -4.8100   20.1348  -33.9613 H   0  0  0  0  0  0  0  0  0  0  0  0
   -4.5263   18.8460  -32.7027 H   0  0  0  0  0  0  0  0  0  0  0  0
   -6.6856   18.6752  -34.8371 H   0  0  0  0  0  0  0  0  0  0  0  0
   -5.0198   17.9806  -35.0049 H   0  0  0  0  0  0  0  0  0  0  0  0
   -7.6387   16.9797  -31.3590 H   0  0  0  0  0  0  0  0  0  0  0  0
   -5.9670   17.6553  -31.1797 H   0  0  0  0  0  0  0  0  0  0  0  0
   -8.1251   18.9457  -32.8951 H   0  0  0  0  0  0  0  0  0  0  0  0
   -7.8217   19.3553  -31.1500 H   0  0  0  0  0  0  0  0  0  0  0  0
  1  2  1  0
  2  3  1  0
  3  4  2  0
  4  5  1  0
  5  6  1  0
  6  7  1  0
  7  8  1  0
  8  9  2  0
  9 10  1  0
 10 11  2  0
 11 12  1  0
 12 13  1  0
 12 14  2  0
  4 15  1  0
 15 16  2  0
 16 17  1  0
 17 18  1  0
 18 19  1  0
 19 20  1  0
 20 21  1  0
 21 22  1  0
 22 23  1  0
 16  2  1  0
 23 18  1  0
 14  8  1  0
  1 24  1  0
  1 25  1  0
  1 26  1  0
  5 27  1  0
  5 28  1  0
  6 29  1  0
  7 30  1  0
  7 31  1  0
  9 32  1  0
 10 33  1  0
 11 34  1  0
 14 35  1  0
 15 36  1  0
 17 37  1  0
 17 38  1  0
 19 39  1  0
 19 40  1  0
 20 41  1  0
 20 42  1  0
 22 43  1  0
 22 44  1  0
 23 45  1  0
 23 46  1  0
M  END
>  <UniqueID>  (40) 
38

>  <SMILES>  (40) 
Cn1nc(CNCc2cccc(F)c2)cc1CN1CCSCC1

>  <Energy>  (40) 
80.06144094966355

>  <Genealogy>  (40) 
Cn1nc(CNCc2cccc(F)c2)cc1CN1CCSCC1 (3D coordinates assigned)
Cn1nc(CNCc2cccc(F)c2)cc1CN1CCSCC1 (nonaromatic ring conformer: 80.06144094966355 kcal/mol)

>  <smiles>  (40) 
Cn1nc(CNCc2cccc(F)c2)cc1CN1CCSCC1

>  <score_type>  (40) 
oracle

>  <origin>  (40) 
adg

>  <m_score__min__energy>  (40) 
-8.2699999999999996

>  <m_primary>  (40) 
energy

$$$$
40:0
     RDKit          3D

 47 49  0  0  0  0  0  0  0  0999 V2000
   -3.9470   24.5080  -27.0340 C   0  0  0  0  0  0  0  0  0  0  0  0
   -4.0220   23.9290  -28.4560 C   0  0  0  0  0  0  0  0  0  0  0  0
   -5.3990   23.9340  -29.0130 N   0  0  1  0  0  0  0  0  0  0  0  0
   -5.8210   25.3060  -29.3840 C   0  0  0  0  0  0  0  0  0  0  0  0
   -5.4640   23.0430  -30.2040 C   0  0  0  0  0  0  0  0  0  0  0  0
   -5.6800   23.8340  -31.5090 C   0  0  0  0  0  0  0  0  0  0  0  0
   -5.4290   22.9910  -32.6850 N   0  0  0  0  0  0  0  0  0  0  0  0
   -5.6160   21.5630  -32.6440 C   0  0  0  0  0  0  0  0  0  0  0  0
   -6.8900   21.0190  -32.4050 C   0  0  0  0  0  0  0  0  0  0  0  0
   -7.9640   21.8430  -32.0110 C   0  0  0  0  0  0  0  0  0  0  0  0
   -9.2470   21.3220  -31.8700 C   0  0  0  0  0  0  0  0  0  0  0  0
   -9.4830   19.9760  -32.1250 C   0  0  0  0  0  0  0  0  0  0  0  0
   -8.4270   19.1310  -32.4620 C   0  0  0  0  0  0  0  0  0  0  0  0
   -7.0980   19.6210  -32.5550 C   0  0  0  0  0  0  0  0  0  0  0  0
   -6.0270   18.7790  -32.8100 N   0  0  0  0  0  0  0  0  0  0  0  0
   -6.2020   17.3120  -32.7140 C   0  0  0  0  0  0  0  0  0  0  0  0
   -4.7830   19.3100  -33.1080 C   0  0  0  0  0  0  0  0  0  0  0  0
   -3.7190   18.5000  -33.5780 C   0  0  0  0  0  0  0  0  0  0  0  0
   -2.4570   19.0390  -33.8250 C   0  0  0  0  0  0  0  0  0  0  0  0
   -2.2240   20.3950  -33.6390 C   0  0  0  0  0  0  0  0  0  0  0  0
   -0.4910   21.1260  -33.9810 Br  0  0  0  0  0  0  0  0  0  0  0  0
   -3.2630   21.2290  -33.2280 C   0  0  0  0  0  0  0  0  0  0  0  0
   -4.5510   20.7070  -32.9790 C   0  0  0  0  0  0  0  0  0  0  0  0
   -4.0524   23.6947  -26.3009 H   0  0  0  0  0  0  0  0  0  0  0  0
   -2.9768   25.0064  -26.8918 H   0  0  0  0  0  0  0  0  0  0  0  0
   -4.7582   25.2372  -26.8918 H   0  0  0  0  0  0  0  0  0  0  0  0
   -3.3758   24.5293  -29.1134 H   0  0  0  0  0  0  0  0  0  0  0  0
   -3.6927   22.8808  -28.4022 H   0  0  0  0  0  0  0  0  0  0  0  0
   -6.0490   23.5730  -28.2760 H   0  0  0  0  0  0  0  0  0  0  0  0
   -6.0017   25.8934  -28.4717 H   0  0  0  0  0  0  0  0  0  0  0  0
   -5.0288   25.7853  -29.9778 H   0  0  0  0  0  0  0  0  0  0  0  0
   -6.7457   25.2572  -29.9778 H   0  0  0  0  0  0  0  0  0  0  0  0
   -4.5199   22.4837  -30.2804 H   0  0  0  0  0  0  0  0  0  0  0  0
   -6.3203   22.3650  -30.0733 H   0  0  0  0  0  0  0  0  0  0  0  0
   -6.7179   24.1968  -31.5418 H   0  0  0  0  0  0  0  0  0  0  0  0
   -4.9750   24.6782  -31.5270 H   0  0  0  0  0  0  0  0  0  0  0  0
   -5.2190   23.4510  -33.6010 H   0  0  0  0  0  0  0  0  0  0  0  0
   -7.7859   22.9102  -31.8127 H   0  0  0  0  0  0  0  0  0  0  0  0
  -10.0745   21.9756  -31.5567 H   0  0  0  0  0  0  0  0  0  0  0  0
  -10.5059   19.5767  -32.0606 H   0  0  0  0  0  0  0  0  0  0  0  0
   -8.6267   18.0674  -32.6591 H   0  0  0  0  0  0  0  0  0  0  0  0
   -6.2374   17.0155  -31.6553 H   0  0  0  0  0  0  0  0  0  0  0  0
   -7.1411   17.0217  -33.2077 H   0  0  0  0  0  0  0  0  0  0  0  0
   -5.3575   16.8089  -33.2077 H   0  0  0  0  0  0  0  0  0  0  0  0
   -3.8919   17.4275  -33.7509 H   0  0  0  0  0  0  0  0  0  0  0  0
   -1.6413   18.3861  -34.1692 H   0  0  0  0  0  0  0  0  0  0  0  0
   -3.0772   22.3052  -33.0963 H   0  0  0  0  0  0  0  0  0  0  0  0
  1  2  1  0
  2  3  1  0
  3  4  1  0
  3  5  1  0
  5  6  1  0
  6  7  1  0
  7  8  1  0
  8  9  2  0
  9 10  1  0
 10 11  2  0
 11 12  1  0
 12 13  2  0
 13 14  1  0
 14 15  2  0
 15 16  1  0
 15 17  1  0
 17 18  2  0
 18 19  1  0
 19 20  2  0
 20 21  1  0
 20 22  1  0
 22 23  2  0
 23  8  1  0
 14  9  1  0
 23 17  1  0
  1 24  1  0
  1 25  1  0
  1 26  1  0
  2 27  1  0
  2 28  1  0
  3 29  1  1
  4 30  1  0
  4 31  1  0
  4 32  1  0
  5 33  1  0
  5 34  1  0
  6 35  1  0
  6 36  1  0
  7 37  1  0
 10 38  1  0
 11 39  1  0
 12 40  1  0
 13 41  1  0
 16 42  1  0
 16 43  1  0
 16 44  1  0
 18 45  1  0
 19 46  1  0
 22 47  1  0
M  CHG  2   3   1  15   1
M  END
>  <UniqueID>  (41) 
39

>  <SMILES>  (41) 
CC[N@@H+](C)CCNc1c2ccccc2[n+](C)c2ccc(Br)cc12

>  <Energy>  (41) 
76.04325063973356

>  <Genealogy>  (41) 
CC[NH+](C)CCNc1c2ccccc2[n+](C)c2ccc(Br)cc12 (protonated)
CC[N@@H+](C)CCNc1c2ccccc2[n+](C)c2ccc(Br)cc12 (chirality)
CC[N@@H+](C)CCNc1c2ccccc2[n+](C)c2ccc(Br)cc12 (3D coordinates assigned)
CC[N@@H+](C)CCNc1c2ccccc2[n+](C)c2ccc(Br)cc12 (optimized conformer: 76.04325063973356 kcal/mol)

>  <smiles>  (41) 
CCN(C)CCNc1c2ccccc2[n+](C)c2ccc(Br)cc12

>  <score_type>  (41) 
oracle

>  <origin>  (41) 
adg

>  <m_score__min__energy>  (41) 
-7.8799999999999999

>  <m_primary>  (41) 
energy

$$$$
41:0
     RDKit          3D

 37 38  0  0  0  0  0  0  0  0999 V2000
   -3.9060   22.4650  -27.7850 C   0  0  0  0  0  0  0  0  0  0  0  0
   -2.9210   23.6310  -27.8250 C   0  0  0  0  0  0  0  0  0  0  0  0
   -1.9820   23.4760  -28.9580 N   0  0  0  0  0  0  0  0  0  0  0  0
   -0.7480   24.2690  -28.7490 C   0  0  0  0  0  0  0  0  0  0  0  0
   -1.0860   25.6450  -28.1790 C   0  0  0  0  0  0  0  0  0  0  0  0
   -1.6790   22.0480  -29.2340 C   0  0  0  0  0  0  0  0  0  0  0  0
   -2.4830   21.5620  -30.4460 C   0  0  0  0  0  0  0  0  0  0  0  0
   -2.8020   22.6650  -31.3660 N   0  0  0  0  0  0  0  0  0  0  0  0
   -4.1750   23.0720  -31.1880 C   0  0  0  0  0  0  0  0  0  0  0  0
   -4.5080   24.3790  -30.7620 C   0  0  0  0  0  0  0  0  0  0  0  0
   -3.5130   25.3070  -30.4740 O   0  0  0  0  0  0  0  0  0  0  0  0
   -5.8610   24.7490  -30.6310 C   0  0  0  0  0  0  0  0  0  0  0  0
   -6.8570   23.8640  -30.9240 N   0  0  0  0  0  0  0  0  0  0  0  0
   -6.5530   22.6110  -31.3480 C   0  0  0  0  0  0  0  0  0  0  0  0
   -7.4870   21.6280  -31.6890 C   0  0  0  0  0  0  0  0  0  0  0  0
   -9.3780   21.8760  -31.6090 Br  0  0  0  0  0  0  0  0  0  0  0  0
   -6.8900   20.4390  -32.1030 C   0  0  0  0  0  0  0  0  0  0  0  0
   -5.2090   20.6200  -32.0400 S   0  0  0  0  0  0  0  0  0  0  0  0
   -5.2370   22.2080  -31.4860 C   0  0  0  0  0  0  0  0  0  0  0  0
   -4.1250   22.2058  -26.7387 H   0  0  0  0  0  0  0  0  0  0  0  0
   -4.8374   22.7542  -28.2938 H   0  0  0  0  0  0  0  0  0  0  0  0
   -3.4652   21.5950  -28.2938 H   0  0  0  0  0  0  0  0  0  0  0  0
   -3.4783   24.5721  -27.9426 H   0  0  0  0  0  0  0  0  0  0  0  0
   -2.3475   23.6453  -26.8864 H   0  0  0  0  0  0  0  0  0  0  0  0
   -0.0909   23.7372  -28.0452 H   0  0  0  0  0  0  0  0  0  0  0  0
   -0.2412   24.3996  -29.7165 H   0  0  0  0  0  0  0  0  0  0  0  0
   -1.0748   25.5995  -27.0800 H   0  0  0  0  0  0  0  0  0  0  0  0
   -0.3411   26.3775  -28.5232 H   0  0  0  0  0  0  0  0  0  0  0  0
   -2.0855   25.9490  -28.5232 H   0  0  0  0  0  0  0  0  0  0  0  0
   -0.6046   21.9380  -29.4426 H   0  0  0  0  0  0  0  0  0  0  0  0
   -1.9539   21.4459  -28.3554 H   0  0  0  0  0  0  0  0  0  0  0  0
   -1.8925   20.8071  -30.9859 H   0  0  0  0  0  0  0  0  0  0  0  0
   -3.4291   21.1358  -30.0810 H   0  0  0  0  0  0  0  0  0  0  0  0
   -2.6450   22.3590  -32.3550 H   0  0  0  0  0  0  0  0  0  0  0  0
   -2.1740   23.4800  -31.1830 H   0  0  0  0  0  0  0  0  0  0  0  0
   -6.1171   25.7625  -30.2887 H   0  0  0  0  0  0  0  0  0  0  0  0
   -7.4244   19.5310  -32.4192 H   0  0  0  0  0  0  0  0  0  0  0  0
  1  2  1  0
  2  3  1  0
  3  4  1  0
  4  5  1  0
  3  6  1  0
  6  7  1  0
  7  8  1  0
  8  9  1  0
  9 10  2  0
 10 11  1  0
 10 12  1  0
 12 13  2  0
 13 14  1  0
 14 15  1  0
 15 16  1  0
 15 17  2  0
 17 18  1  0
 18 19  1  0
 19  9  1  0
 19 14  2  0
  1 20  1  0
  1 21  1  0
  1 22  1  0
  2 23  1  0
  2 24  1  0
  4 25  1  0
  4 26  1  0
  5 27  1  0
  5 28  1  0
  5 29  1  0
  6 30  1  0
  6 31  1  0
  7 32  1  0
  7 33  1  0
  8 34  1  0
  8 35  1  0
 12 36  1  0
 17 37  1  0
M  CHG  2   8   1  11  -1
M  END
>  <UniqueID>  (42) 
40

>  <SMILES>  (42) 
CCN(CC)CC[NH2+]c1c([O-])cnc2c(Br)csc12

>  <Energy>  (42) 
67.84099047782104

>  <Genealogy>  (42) 
CCN(CC)CC[NH2+]c1c([O-])cnc2c(Br)csc12 (protonated)
CCN(CC)CC[NH2+]c1c([O-])cnc2c(Br)csc12 (3D coordinates assigned)
CCN(CC)CC[NH2+]c1c([O-])cnc2c(Br)csc12 (optimized conformer: 67.84099047782104 kcal/mol)

>  <smiles>  (42) 
CCN(CC)CCNc1c(O)cnc2c(Br)csc12

>  <score_type>  (42) 
oracle

>  <origin>  (42) 
adg

>  <m_score__min__energy>  (42) 
-8.1199999999999992

>  <m_primary>  (42) 
energy

$$$$
42:0
     RDKit          3D

 50 52  0  0  0  0  0  0  0  0999 V2000
   -3.8270   18.5230  -34.2230 C   0  0  0  0  0  0  0  0  0  0  0  0
   -3.1560   19.1350  -32.9970 C   0  0  0  0  0  0  0  0  0  0  0  0
   -2.8950   20.5770  -33.2200 N   0  0  0  0  0  0  0  0  0  0  0  0
   -1.6780   20.7630  -34.0300 C   0  0  0  0  0  0  0  0  0  0  0  0
   -2.7750   21.3100  -31.9410 C   0  0  0  0  0  0  0  0  0  0  0  0
   -4.0080   22.2020  -31.7210 C   0  0  0  0  0  0  0  0  0  0  0  0
   -4.9660   22.0570  -32.8320 N   0  0  0  0  0  0  0  0  0  0  0  0
   -6.3760   22.0520  -32.4600 C   0  0  0  0  0  0  0  0  0  0  0  0
   -7.1000   23.2450  -32.2040 C   0  0  0  0  0  0  0  0  0  0  0  0
   -8.4490   23.2070  -31.8510 C   0  0  0  0  0  0  0  0  0  0  0  0
   -9.1160   21.9930  -31.7410 C   0  0  0  0  0  0  0  0  0  0  0  0
   -8.4380   20.7980  -31.9810 C   0  0  0  0  0  0  0  0  0  0  0  0
   -9.1060   19.6190  -31.8680 N   0  0  0  0  0  0  0  0  0  0  0  0
   -8.5020   18.4240  -32.0860 C   0  0  0  0  0  0  0  0  0  0  0  0
   -7.1460   18.3710  -32.4350 C   0  0  0  0  0  0  0  0  0  0  0  0
   -6.4900   17.1080  -32.6630 N   0  0  0  0  0  0  0  0  0  0  0  0
   -6.8790   16.2690  -33.8000 C   0  0  0  0  0  0  0  0  0  0  0  0
   -5.6940   15.3940  -34.2230 C   0  0  0  0  0  0  0  0  0  0  0  0
   -5.1750   14.6820  -33.1160 O   0  0  0  0  0  0  0  0  0  0  0  0
   -4.6320   15.5870  -32.1740 C   0  0  0  0  0  0  0  0  0  0  0  0
   -5.7280   16.4770  -31.5800 C   0  0  0  0  0  0  0  0  0  0  0  0
   -6.4350   19.5720  -32.5660 C   0  0  0  0  0  0  0  0  0  0  0  0
   -7.0670   20.8120  -32.3390 C   0  0  0  0  0  0  0  0  0  0  0  0
   -4.6040   17.8143  -33.9003 H   0  0  0  0  0  0  0  0  0  0  0  0
   -4.2856   19.3203  -34.8263 H   0  0  0  0  0  0  0  0  0  0  0  0
   -3.0752   17.9931  -34.8263 H   0  0  0  0  0  0  0  0  0  0  0  0
   -3.8158   19.0162  -32.1249 H   0  0  0  0  0  0  0  0  0  0  0  0
   -2.1997   18.6215  -32.8185 H   0  0  0  0  0  0  0  0  0  0  0  0
   -0.8117   20.8954  -33.3651 H   0  0  0  0  0  0  0  0  0  0  0  0
   -1.5212   19.8784  -34.6647 H   0  0  0  0  0  0  0  0  0  0  0  0
   -1.7926   21.6541  -34.6647 H   0  0  0  0  0  0  0  0  0  0  0  0
   -2.6970   20.5881  -31.1147 H   0  0  0  0  0  0  0  0  0  0  0  0
   -1.8760   21.9430  -31.9737 H   0  0  0  0  0  0  0  0  0  0  0  0
   -4.4998   21.9115  -30.7809 H   0  0  0  0  0  0  0  0  0  0  0  0
   -3.6797   23.2508  -31.6741 H   0  0  0  0  0  0  0  0  0  0  0  0
   -4.8100   22.8540  -33.4940 H   0  0  0  0  0  0  0  0  0  0  0  0
   -4.7600   21.1560  -33.3210 H   0  0  0  0  0  0  0  0  0  0  0  0
   -6.5892   24.2158  -32.2852 H   0  0  0  0  0  0  0  0  0  0  0  0
   -8.9891   24.1457  -31.6582 H   0  0  0  0  0  0  0  0  0  0  0  0
  -10.1804   21.9744  -31.4642 H   0  0  0  0  0  0  0  0  0  0  0  0
   -9.0792   17.4927  -31.9884 H   0  0  0  0  0  0  0  0  0  0  0  0
   -7.7229   15.6264  -33.5088 H   0  0  0  0  0  0  0  0  0  0  0  0
   -7.1779   16.9107  -34.6419 H   0  0  0  0  0  0  0  0  0  0  0  0
   -6.0294   14.6777  -34.9875 H   0  0  0  0  0  0  0  0  0  0  0  0
   -4.9031   16.0429  -34.6272 H   0  0  0  0  0  0  0  0  0  0  0  0
   -4.1505   15.0190  -31.3643 H   0  0  0  0  0  0  0  0  0  0  0  0
   -3.8961   16.2266  -32.6833 H   0  0  0  0  0  0  0  0  0  0  0  0
   -6.4040   15.8644  -30.9654 H   0  0  0  0  0  0  0  0  0  0  0  0
   -5.2672   17.2563  -30.9553 H   0  0  0  0  0  0  0  0  0  0  0  0
   -5.3723   19.5469  -32.8490 H   0  0  0  0  0  0  0  0  0  0  0  0
  1  2  1  0
  2  3  1  0
  3  4  1  0
  3  5  1  0
  5  6  1  0
  6  7  1  0
  7  8  1  0
  8  9  2  0
  9 10  1  0
 10 11  2  0
 11 12  1  0
 12 13  2  0
 13 14  1  0
 14 15  2  0
 15 16  1  0
 16 17  1  0
 17 18  1  0
 18 19  1  0
 19 20  1  0
 20 21  1  0
 15 22  1  0
 22 23  2  0
 23  8  1  0
 23 12  1  0
 21 16  1  0
  1 24  1  0
  1 25  1  0
  1 26  1  0
  2 27  1  0
  2 28  1  0
  4 29  1  0
  4 30  1  0
  4 31  1  0
  5 32  1  0
  5 33  1  0
  6 34  1  0
  6 35  1  0
  7 36  1  0
  7 37  1  0
  9 38  1  0
 10 39  1  0
 11 40  1  0
 14 41  1  0
 17 42  1  0
 17 43  1  0
 18 44  1  0
 18 45  1  0
 20 46  1  0
 20 47  1  0
 21 48  1  0
 21 49  1  0
 22 50  1  0
M  CHG  1   7   1
M  END
>  <UniqueID>  (43) 
41

>  <SMILES>  (43) 
CCN(C)CC[NH2+]c1cccc2ncc(N3CCOCC3)cc12

>  <Energy>  (43) 
66.0161754048001

>  <Genealogy>  (43) 
CCN(C)CC[NH2+]c1cccc2ncc(N3CCOCC3)cc12 (protonated)
CCN(C)CC[NH2+]c1cccc2ncc(N3CCOCC3)cc12 (3D coordinates assigned)
CCN(C)CC[NH2+]c1cccc2ncc(N3CCOCC3)cc12 (nonaromatic ring conformer: 66.0161754048001 kcal/mol)

>  <smiles>  (43) 
CCN(C)CCNc1cccc2ncc(N3CCOCC3)cc12

>  <score_type>  (43) 
oracle

>  <origin>  (43) 
adg

>  <m_score__min__energy>  (43) 
-7.46

>  <m_primary>  (43) 
energy

$$$$
43:0
     RDKit          3D

 55 57  0  0  0  0  0  0  0  0999 V2000
   -1.8600   20.2640  -32.5510 C   0  0  0  0  0  0  0  0  0  0  0  0
   -2.8490   19.2620  -32.3310 O   0  0  0  0  0  0  0  0  0  0  0  0
   -3.1670   18.2420  -33.2430 C   0  0  0  0  0  0  0  0  0  0  0  0
   -2.2190   17.7340  -34.1560 C   0  0  0  0  0  0  0  0  0  0  0  0
   -2.5760   16.7360  -35.0660 C   0  0  0  0  0  0  0  0  0  0  0  0
   -3.8760   16.2250  -35.0720 C   0  0  0  0  0  0  0  0  0  0  0  0
   -4.8220   16.7090  -34.1670 C   0  0  0  0  0  0  0  0  0  0  0  0
   -4.4750   17.7100  -33.2440 C   0  0  0  0  0  0  0  0  0  0  0  0
   -5.5150   18.2370  -32.2820 C   0  0  0  0  0  0  0  0  0  0  0  0
   -6.3090   19.3100  -32.9150 N   0  0  0  0  0  0  0  0  0  0  0  0
   -7.2110   19.9630  -31.9260 C   0  0  0  0  0  0  0  0  0  0  0  0
   -7.5140   21.4260  -32.2890 C   0  0  0  0  0  0  0  0  0  0  0  0
   -6.2740   22.2600  -32.3700 N   0  0  0  0  0  0  0  0  0  0  0  0
   -6.1020   23.1620  -31.1790 C   0  0  0  0  0  0  0  0  0  0  0  0
   -4.7580   23.0810  -30.4700 C   0  0  0  0  0  0  0  0  0  0  0  0
   -4.2940   21.8350  -30.0220 C   0  0  0  0  0  0  0  0  0  0  0  0
   -3.0780   21.7400  -29.3500 C   0  0  0  0  0  0  0  0  0  0  0  0
   -2.3140   22.8830  -29.1160 C   0  0  0  0  0  0  0  0  0  0  0  0
   -2.7580   24.1480  -29.5470 C   0  0  0  0  0  0  0  0  0  0  0  0
   -1.9880   25.3000  -29.3120 O   0  0  0  0  0  0  0  0  0  0  0  0
   -1.2400   25.5560  -28.1280 C   0  0  0  0  0  0  0  0  0  0  0  0
   -4.0000   24.2520  -30.2310 C   0  0  0  0  0  0  0  0  0  0  0  0
   -4.5400   25.4750  -30.6800 O   0  0  0  0  0  0  0  0  0  0  0  0
   -5.7410   26.0900  -30.2240 C   0  0  0  0  0  0  0  0  0  0  0  0
   -5.0710   21.4640  -32.7470 C   0  0  0  0  0  0  0  0  0  0  0  0
   -5.4450   20.2750  -33.6400 C   0  0  0  0  0  0  0  0  0  0  0  0
   -1.4930   20.6358  -31.5830 H   0  0  0  0  0  0  0  0  0  0  0  0
   -1.0225   19.8339  -33.1199 H   0  0  0  0  0  0  0  0  0  0  0  0
   -2.3010   21.0958  -33.1199 H   0  0  0  0  0  0  0  0  0  0  0  0
   -1.1914   18.1265  -34.1513 H   0  0  0  0  0  0  0  0  0  0  0  0
   -1.8319   16.3518  -35.7792 H   0  0  0  0  0  0  0  0  0  0  0  0
   -4.1545   15.4403  -35.7908 H   0  0  0  0  0  0  0  0  0  0  0  0
   -5.8449   16.3045  -34.1764 H   0  0  0  0  0  0  0  0  0  0  0  0
   -6.1854   17.4159  -31.9882 H   0  0  0  0  0  0  0  0  0  0  0  0
   -5.0059   18.6462  -31.3969 H   0  0  0  0  0  0  0  0  0  0  0  0
   -8.1579   19.4045  -31.8883 H   0  0  0  0  0  0  0  0  0  0  0  0
   -6.7017   19.9569  -30.9510 H   0  0  0  0  0  0  0  0  0  0  0  0
   -8.0211   21.4505  -33.2648 H   0  0  0  0  0  0  0  0  0  0  0  0
   -8.1498   21.8448  -31.4950 H   0  0  0  0  0  0  0  0  0  0  0  0
   -6.4350   22.9050  -33.1830 H   0  0  0  0  0  0  0  0  0  0  0  0
   -6.2413   24.1988  -31.5190 H   0  0  0  0  0  0  0  0  0  0  0  0
   -6.8468   22.8262  -30.4424 H   0  0  0  0  0  0  0  0  0  0  0  0
   -4.8928   20.9300  -30.2022 H   0  0  0  0  0  0  0  0  0  0  0  0
   -2.7189   20.7600  -29.0026 H   0  0  0  0  0  0  0  0  0  0  0  0
   -1.3528   22.7954  -28.5883 H   0  0  0  0  0  0  0  0  0  0  0  0
   -1.8634   25.3427  -27.2472 H   0  0  0  0  0  0  0  0  0  0  0  0
   -0.3485   24.9118  -28.1110 H   0  0  0  0  0  0  0  0  0  0  0  0
   -0.9302   26.6113  -28.1110 H   0  0  0  0  0  0  0  0  0  0  0  0
   -5.7546   26.0970  -29.1241 H   0  0  0  0  0  0  0  0  0  0  0  0
   -5.7886   27.1234  -30.5979 H   0  0  0  0  0  0  0  0  0  0  0  0
   -6.6073   25.5246  -30.5979 H   0  0  0  0  0  0  0  0  0  0  0  0
   -4.3683   22.1128  -33.2904 H   0  0  0  0  0  0  0  0  0  0  0  0
   -4.6107   21.0749  -31.8268 H   0  0  0  0  0  0  0  0  0  0  0  0
   -5.9845   20.6459  -34.5239 H   0  0  0  0  0  0  0  0  0  0  0  0
   -4.5204   19.7590  -33.9382 H   0  0  0  0  0  0  0  0  0  0  0  0
  1  2  1  0
  2  3  1  0
  3  4  2  0
  4  5  1  0
  5  6  2  0
  6  7  1  0
  7  8  2  0
  8  9  1  0
  9 10  1  0
 10 11  1  0
 11 12  1  0
 12 13  1  0
 13 14  1  0
 14 15  1  0
 15 16  2  0
 16 17  1  0
 17 18  2  0
 18 19  1  0
 19 20  1  0
 20 21  1  0
 19 22  2  0
 22 23  1  0
 23 24  1  0
 13 25  1  0
 25 26  1  0
  8  3  1  0
 26 10  1  0
 22 15  1  0
  1 27  1  0
  1 28  1  0
  1 29  1  0
  4 30  1  0
  5 31  1  0
  6 32  1  0
  7 33  1  0
  9 34  1  0
  9 35  1  0
 11 36  1  0
 11 37  1  0
 12 38  1  0
 12 39  1  0
 13 40  1  0
 14 41  1  0
 14 42  1  0
 16 43  1  0
 17 44  1  0
 18 45  1  0
 21 46  1  0
 21 47  1  0
 21 48  1  0
 24 49  1  0
 24 50  1  0
 24 51  1  0
 25 52  1  0
 25 53  1  0
 26 54  1  0
 26 55  1  0
M  CHG  1  13   1
M  END
>  <UniqueID>  (44) 
42

>  <SMILES>  (44) 
COc1ccccc1CN1CC[NH+](Cc2cccc(OC)c2OC)CC1

>  <Energy>  (44) 
81.41736156016717

>  <Genealogy>  (44) 
COc1ccccc1CN1CC[NH+](Cc2cccc(OC)c2OC)CC1 (protonated)
COc1ccccc1CN1CC[NH+](Cc2cccc(OC)c2OC)CC1 (3D coordinates assigned)
COc1ccccc1CN1CC[NH+](Cc2cccc(OC)c2OC)CC1 (nonaromatic ring conformer: 81.41736156016717 kcal/mol)

>  <smiles>  (44) 
COc1ccccc1CN1CCN(Cc2cccc(OC)c2OC)CC1

>  <score_type>  (44) 
oracle

>  <origin>  (44) 
adg

>  <m_score__min__energy>  (44) 
-7.1399999999999997

>  <m_primary>  (44) 
energy

$$$$
44:0
     RDKit          3D

 47 50  0  0  0  0  0  0  0  0999 V2000
   -8.8290   20.2660  -31.6330 C   0  0  0  0  0  0  0  0  0  0  0  0
   -7.3990   20.3590  -32.0130 N   0  0  0  0  0  0  0  0  0  0  0  0
   -6.8020   19.3290  -32.7150 C   0  0  0  0  0  0  0  0  0  0  0  0
   -7.4220   18.0600  -32.8470 C   0  0  0  0  0  0  0  0  0  0  0  0
   -6.8400   17.0470  -33.6070 C   0  0  0  0  0  0  0  0  0  0  0  0
   -5.6280   17.2610  -34.2440 C   0  0  0  0  0  0  0  0  0  0  0  0
   -4.9710   18.4780  -34.0990 C   0  0  0  0  0  0  0  0  0  0  0  0
   -5.5260   19.5130  -33.3130 C   0  0  0  0  0  0  0  0  0  0  0  0
   -4.8180   20.7110  -33.0920 C   0  0  0  0  0  0  0  0  0  0  0  0
   -3.4830   20.8720  -33.6070 N   0  0  0  0  0  0  0  0  0  0  0  0
   -2.3500   20.1020  -33.0800 C   0  0  0  0  0  0  0  0  0  0  0  0
   -1.3990   19.6510  -34.2150 C   0  0  0  0  0  0  0  0  0  0  0  0
   -0.5100   20.7390  -34.6930 N   0  0  0  0  0  0  0  0  0  0  0  0
    0.2750   20.2700  -35.8500 C   0  0  0  0  0  0  0  0  0  0  0  0
    0.4050   21.2020  -33.6320 C   0  0  0  0  0  0  0  0  0  0  0  0
   -5.3980   21.7200  -32.3000 C   0  0  0  0  0  0  0  0  0  0  0  0
   -4.7340   22.9570  -32.0980 C   0  0  0  0  0  0  0  0  0  0  0  0
   -5.2990   23.8780  -31.2320 C   0  0  0  0  0  0  0  0  0  0  0  0
   -6.4640   23.6400  -30.5950 C   0  0  0  0  0  0  0  0  0  0  0  0
   -7.1830   22.4700  -30.7880 C   0  0  0  0  0  0  0  0  0  0  0  0
   -6.6800   21.4950  -31.7010 C   0  0  0  0  0  0  0  0  0  0  0  0
   -6.7740   24.7130  -29.7820 O   0  0  0  0  0  0  0  0  0  0  0  0
   -5.7380   25.6930  -29.9280 C   0  0  0  0  0  0  0  0  0  0  0  0
   -4.8150   25.1170  -30.8620 O   0  0  0  0  0  0  0  0  0  0  0  0
   -8.9174   20.2603  -30.5366 H   0  0  0  0  0  0  0  0  0  0  0  0
   -9.3736   21.1306  -32.0402 H   0  0  0  0  0  0  0  0  0  0  0  0
   -9.2570   19.3381  -32.0402 H   0  0  0  0  0  0  0  0  0  0  0  0
   -8.3800   17.8719  -32.3401 H   0  0  0  0  0  0  0  0  0  0  0  0
   -7.3445   16.0741  -33.7015 H   0  0  0  0  0  0  0  0  0  0  0  0
   -5.1855   16.4679  -34.8646 H   0  0  0  0  0  0  0  0  0  0  0  0
   -4.0063   18.6372  -34.6029 H   0  0  0  0  0  0  0  0  0  0  0  0
   -3.3510   21.3680  -34.5170 H   0  0  0  0  0  0  0  0  0  0  0  0
   -1.7895   20.7291  -32.3711 H   0  0  0  0  0  0  0  0  0  0  0  0
   -2.7432   19.2047  -32.5798 H   0  0  0  0  0  0  0  0  0  0  0  0
   -0.7742   18.8262  -33.8418 H   0  0  0  0  0  0  0  0  0  0  0  0
   -2.0247   19.3401  -35.0646 H   0  0  0  0  0  0  0  0  0  0  0  0
   -1.0940   21.5480  -35.0120 H   0  0  0  0  0  0  0  0  0  0  0  0
    1.1687   19.7361  -35.4946 H   0  0  0  0  0  0  0  0  0  0  0  0
   -0.3397   19.5910  -36.4592 H   0  0  0  0  0  0  0  0  0  0  0  0
    0.5816   21.1331  -36.4592 H   0  0  0  0  0  0  0  0  0  0  0  0
   -0.0330   20.9804  -32.6476 H   0  0  0  0  0  0  0  0  0  0  0  0
    1.3706   20.6840  -33.7287 H   0  0  0  0  0  0  0  0  0  0  0  0
    0.5595   22.2868  -33.7287 H   0  0  0  0  0  0  0  0  0  0  0  0
   -3.7907   23.1799  -32.6180 H   0  0  0  0  0  0  0  0  0  0  0  0
   -8.1248   22.2963  -30.2468 H   0  0  0  0  0  0  0  0  0  0  0  0
   -6.1487   26.6350  -30.3205 H   0  0  0  0  0  0  0  0  0  0  0  0
   -5.2589   25.9356  -28.9680 H   0  0  0  0  0  0  0  0  0  0  0  0
  1  2  1  0
  2  3  2  0
  3  4  1  0
  4  5  2  0
  5  6  1  0
  6  7  2  0
  7  8  1  0
  8  9  2  0
  9 10  1  0
 10 11  1  0
 11 12  1  0
 12 13  1  0
 13 14  1  0
 13 15  1  0
  9 16  1  0
 16 17  2  0
 17 18  1  0
 18 19  2  0
 19 20  1  0
 20 21  2  0
 19 22  1  0
 22 23  1  0
 23 24  1  0
 21  2  1  0
  8  3  1  0
 21 16  1  0
 24 18  1  0
  1 25  1  0
  1 26  1  0
  1 27  1  0
  4 28  1  0
  5 29  1  0
  6 30  1  0
  7 31  1  0
 10 32  1  0
 11 33  1  0
 11 34  1  0
 12 35  1  0
 12 36  1  0
 13 37  1  0
 14 38  1  0
 14 39  1  0
 14 40  1  0
 15 41  1  0
 15 42  1  0
 15 43  1  0
 17 44  1  0
 20 45  1  0
 23 46  1  0
 23 47  1  0
M  CHG  2   2   1  13   1
M  END
>  <UniqueID>  (45) 
43

>  <SMILES>  (45) 
C[n+]1c2ccccc2c(NCC[NH+](C)C)c2cc3c(cc21)OCO3

>  <Energy>  (45) 
105.46407806771656

>  <Genealogy>  (45) 
C[n+]1c2ccccc2c(NCC[NH+](C)C)c2cc3c(cc21)OCO3 (protonated)
C[n+]1c2ccccc2c(NCC[NH+](C)C)c2cc3c(cc21)OCO3 (3D coordinates assigned)
C[n+]1c2ccccc2c(NCC[NH+](C)C)c2cc3c(cc21)OCO3 (nonaromatic ring conformer: 105.46407806771656 kcal/mol)

>  <smiles>  (45) 
CN(C)CCNc1c2ccccc2[n+](C)c2cc3c(cc12)OCO3

>  <score_type>  (45) 
oracle

>  <origin>  (45) 
adg

>  <m_score__min__energy>  (45) 
-7.6699999999999999

>  <m_primary>  (45) 
energy

$$$$
