0:0
     RDKit          3D

 41 43  0  0  0  0  0  0  0  0999 V2000
   -7.2000   23.4840  -32.3500 C   0  0  0  0  0  0  0  0  0  0  0  0
   -7.3900   22.3890  -31.4610 O   0  0  0  0  0  0  0  0  0  0  0  0
   -7.7780   21.0970  -31.8570 C   0  0  0  0  0  0  0  0  0  0  0  0
   -9.1300   20.7000  -31.8610 C   0  0  0  0  0  0  0  0  0  0  0  0
   -9.4770   19.4510  -32.2660 N   0  0  0  0  0  0  0  0  0  0  0  0
   -8.5500   18.5480  -32.6720 C   0  0  0  0  0  0  0  0  0  0  0  0
   -7.1980   18.8890  -32.6850 C   0  0  0  0  0  0  0  0  0  0  0  0
   -6.7970   20.1720  -32.2770 C   0  0  0  0  0  0  0  0  0  0  0  0
   -5.3550   20.5270  -32.2760 C   0  0  0  0  0  0  0  0  0  0  0  0
   -4.5630   19.9220  -33.0490 O   0  0  0  0  0  0  0  0  0  0  0  0
   -4.8530   21.5400  -31.3870 N   0  0  0  0  0  0  0  0  0  0  0  0
   -3.5480   22.1300  -31.5230 C   0  0  0  0  0  0  0  0  0  0  0  0
   -2.9180   22.0130  -32.6100 O   0  0  0  0  0  0  0  0  0  0  0  0
   -2.9430   22.9110  -30.4160 C   0  0  0  0  0  0  0  0  0  0  0  0
   -1.8760   22.4010  -29.6590 C   0  0  0  0  0  0  0  0  0  0  0  0
   -1.3200   23.1580  -28.6270 C   0  0  0  0  0  0  0  0  0  0  0  0
   -1.8320   24.4360  -28.3460 C   0  0  0  0  0  0  0  0  0  0  0  0
   -1.2720   25.2820  -27.2610 C   0  0  0  0  0  0  0  0  0  0  0  0
   -1.4040   24.8770  -25.9200 C   0  0  0  0  0  0  0  0  0  0  0  0
   -0.8790   25.6570  -24.8850 C   0  0  0  0  0  0  0  0  0  0  0  0
   -0.2060   26.8490  -25.1760 C   0  0  0  0  0  0  0  0  0  0  0  0
    0.3350   27.6510  -24.1110 C   0  0  0  0  0  0  0  0  0  0  0  0
    0.7720   28.2950  -23.2540 N   0  0  0  0  0  0  0  0  0  0  0  0
   -0.0590   27.2560  -26.5070 C   0  0  0  0  0  0  0  0  0  0  0  0
   -0.5840   26.4790  -27.5430 C   0  0  0  0  0  0  0  0  0  0  0  0
   -2.8540   24.9180  -29.1080 N   0  0  0  0  0  0  0  0  0  0  0  0
   -3.4100   24.2010  -30.1200 C   0  0  0  0  0  0  0  0  0  0  0  0
   -7.0403   24.4044  -31.7692 H   0  0  0  0  0  0  0  0  0  0  0  0
   -6.3215   23.2934  -32.9840 H   0  0  0  0  0  0  0  0  0  0  0  0
   -8.0913   23.6005  -32.9840 H   0  0  0  0  0  0  0  0  0  0  0  0
   -9.9084   21.4053  -31.5344 H   0  0  0  0  0  0  0  0  0  0  0  0
   -8.8656   17.5440  -32.9919 H   0  0  0  0  0  0  0  0  0  0  0  0
   -6.4474   18.1552  -33.0139 H   0  0  0  0  0  0  0  0  0  0  0  0
   -5.4700   21.8680  -30.6120 H   0  0  0  0  0  0  0  0  0  0  0  0
   -1.4766   21.4003  -29.8805 H   0  0  0  0  0  0  0  0  0  0  0  0
   -0.4841   22.7558  -28.0358 H   0  0  0  0  0  0  0  0  0  0  0  0
   -1.9253   23.9377  -25.6835 H   0  0  0  0  0  0  0  0  0  0  0  0
   -0.9952   25.3331  -23.8402 H   0  0  0  0  0  0  0  0  0  0  0  0
    0.4719   28.1912  -26.7385 H   0  0  0  0  0  0  0  0  0  0  0  0
   -0.4593   26.8042  -28.5864 H   0  0  0  0  0  0  0  0  0  0  0  0
   -4.2307   24.6343  -30.7105 H   0  0  0  0  0  0  0  0  0  0  0  0
  1  2  1  0
  2  3  1  0
  3  4  2  0
  4  5  1  0
  5  6  2  0
  6  7  1  0
  7  8  2  0
  8  9  1  0
  9 10  2  0
  9 11  1  0
 11 12  1  0
 12 13  2  0
 12 14  1  0
 14 15  2  0
 15 16  1  0
 16 17  2  0
 17 18  1  0
 18 19  2  0
 19 20  1  0
 20 21  2  0
 21 22  1  0
 22 23  3  0
 21 24  1  0
 24 25  2  0
 17 26  1  0
 26 27  2  0
  8  3  1  0
 27 14  1  0
 25 18  1  0
  1 28  1  0
  1 29  1  0
  1 30  1  0
  4 31  1  0
  6 32  1  0
  7 33  1  0
 11 34  1  0
 15 35  1  0
 16 36  1  0
 19 37  1  0
 20 38  1  0
 24 39  1  0
 25 40  1  0
 27 41  1  0
M  END
>  <UniqueID>  (1) 
1

>  <SMILES>  (1) 
COc1cnccc1C(=O)NC(=O)c1ccc(-c2ccc(C#N)cc2)nc1

>  <Energy>  (1) 
54.940893195980955

>  <Genealogy>  (1) 
COc1cnccc1C(=O)NC(=O)c1ccc(-c2ccc(C#N)cc2)nc1 (3D coordinates assigned)
COc1cnccc1C(=O)NC(=O)c1ccc(-c2ccc(C#N)cc2)nc1 (optimized conformer: 54.940893195980955 kcal/mol)

>  <smiles>  (1) 
COc1cnccc1C(=O)NC(=O)c1ccc(-c2ccc(C#N)cc2)nc1

>  <score_type>  (1) 
oracle

>  <origin>  (1) 
adg

>  <m_score__min__energy>  (1) 
-6.9100000000000001

>  <m_primary>  (1) 
energy

$$$$
1:0
     RDKit          3D

 39 39  0  0  0  0  0  0  0  0999 V2000
   -5.8670   17.7890  -34.1550 C   0  0  0  0  0  0  0  0  0  0  0  0
   -6.8230   18.7460  -33.4460 C   0  0  0  0  0  0  0  0  0  0  0  0
   -7.5590   18.0670  -32.3570 N   0  0  0  0  0  0  0  0  0  0  0  0
   -6.6650   17.7800  -31.2210 C   0  0  0  0  0  0  0  0  0  0  0  0
   -8.7720   18.7960  -31.9190 C   0  0  0  0  0  0  0  0  0  0  0  0
   -8.5580   20.2480  -31.7820 C   0  0  0  0  0  0  0  0  0  0  0  0
   -8.3850   21.4360  -31.6720 C   0  0  0  0  0  0  0  0  0  0  0  0
   -8.1850   22.8840  -31.5370 C   0  0  0  0  0  0  0  0  0  0  0  0
   -7.0490   23.3840  -32.4370 C   0  0  0  0  0  0  0  0  0  0  0  0
   -5.7190   22.7490  -32.0730 C   0  0  0  0  0  0  0  0  0  0  0  0
   -5.4090   21.5070  -32.6580 C   0  0  0  0  0  0  0  0  0  0  0  0
   -4.1680   20.9070  -32.4470 C   0  0  0  0  0  0  0  0  0  0  0  0
   -3.2110   21.5410  -31.6580 C   0  0  0  0  0  0  0  0  0  0  0  0
   -3.4950   22.7730  -31.0690 C   0  0  0  0  0  0  0  0  0  0  0  0
   -4.7450   23.3920  -31.2570 C   0  0  0  0  0  0  0  0  0  0  0  0
   -4.9930   24.6840  -30.5760 C   0  0  0  0  0  0  0  0  0  0  0  0
   -6.2110   24.8860  -29.7290 C   0  0  0  0  0  0  0  0  0  0  0  0
   -4.2310   25.6660  -30.7880 O   0  0  0  0  0  0  0  0  0  0  0  0
   -5.2972   17.2186  -33.4067 H   0  0  0  0  0  0  0  0  0  0  0  0
   -6.4430   17.0948  -34.7845 H   0  0  0  0  0  0  0  0  0  0  0  0
   -5.1722   18.3643  -34.7845 H   0  0  0  0  0  0  0  0  0  0  0  0
   -6.2448   19.5798  -33.0213 H   0  0  0  0  0  0  0  0  0  0  0  0
   -7.5543   19.1122  -34.1816 H   0  0  0  0  0  0  0  0  0  0  0  0
   -7.2037   17.9529  -30.2777 H   0  0  0  0  0  0  0  0  0  0  0  0
   -6.3365   16.7313  -31.2687 H   0  0  0  0  0  0  0  0  0  0  0  0
   -5.7875   18.4416  -31.2687 H   0  0  0  0  0  0  0  0  0  0  0  0
   -9.5676   18.6281  -32.6598 H   0  0  0  0  0  0  0  0  0  0  0  0
   -9.0449   18.4102  -30.9257 H   0  0  0  0  0  0  0  0  0  0  0  0
   -9.1152   23.4003  -31.8165 H   0  0  0  0  0  0  0  0  0  0  0  0
   -7.9152   23.0978  -30.4922 H   0  0  0  0  0  0  0  0  0  0  0  0
   -7.2875   23.1363  -33.4819 H   0  0  0  0  0  0  0  0  0  0  0  0
   -6.9574   24.4715  -32.2990 H   0  0  0  0  0  0  0  0  0  0  0  0
   -6.1553   21.0031  -33.2898 H   0  0  0  0  0  0  0  0  0  0  0  0
   -3.9445   19.9318  -32.9042 H   0  0  0  0  0  0  0  0  0  0  0  0
   -2.2300   21.0694  -31.4992 H   0  0  0  0  0  0  0  0  0  0  0  0
   -2.7322   23.2673  -30.4495 H   0  0  0  0  0  0  0  0  0  0  0  0
   -5.9305   24.8395  -28.6664 H   0  0  0  0  0  0  0  0  0  0  0  0
   -6.6517   25.8695  -29.9492 H   0  0  0  0  0  0  0  0  0  0  0  0
   -6.9456   24.0974  -29.9492 H   0  0  0  0  0  0  0  0  0  0  0  0
  1  2  1  0
  2  3  1  0
  3  4  1  0
  3  5  1  0
  5  6  1  0
  6  7  3  0
  7  8  1  0
  8  9  1  0
  9 10  1  0
 10 11  2  0
 11 12  1  0
 12 13  2  0
 13 14  1  0
 14 15  2  0
 15 16  1  0
 16 17  1  0
 16 18  2  0
 15 10  1  0
  1 19  1  0
  1 20  1  0
  1 21  1  0
  2 22  1  0
  2 23  1  0
  4 24  1  0
  4 25  1  0
  4 26  1  0
  5 27  1  0
  5 28  1  0
  8 29  1  0
  8 30  1  0
  9 31  1  0
  9 32  1  0
 11 33  1  0
 12 34  1  0
 13 35  1  0
 14 36  1  0
 17 37  1  0
 17 38  1  0
 17 39  1  0
M  END
>  <UniqueID>  (2) 
2

>  <SMILES>  (2) 
CCN(C)CC#CCCc1ccccc1C(C)=O

>  <Energy>  (2) 
35.74826390131714

>  <Genealogy>  (2) 
CCN(C)CC#CCCc1ccccc1C(C)=O (3D coordinates assigned)
CCN(C)CC#CCCc1ccccc1C(C)=O (optimized conformer: 35.74826390131714 kcal/mol)

>  <smiles>  (2) 
CCN(C)CC#CCCc1ccccc1C(C)=O

>  <score_type>  (2) 
oracle

>  <origin>  (2) 
adg

>  <m_score__min__energy>  (2) 
-7.1900000000000004

>  <m_primary>  (2) 
energy

$$$$
2:0
     RDKit          3D

 42 44  0  0  0  0  0  0  0  0999 V2000
   -6.5460   25.5600  -29.3470 C   0  0  0  0  0  0  0  0  0  0  0  0
   -5.7370   25.6740  -30.6340 C   0  0  0  0  0  0  0  0  0  0  0  0
   -5.3540   24.3460  -31.1180 N   0  0  0  0  0  0  0  0  0  0  0  0
   -4.0930   23.9480  -31.1900 N   0  0  0  0  0  0  0  0  0  0  0  0
   -4.0820   22.6760  -31.6390 C   0  0  0  0  0  0  0  0  0  0  0  0
   -2.8410   21.9040  -31.8930 C   0  0  0  0  0  0  0  0  0  0  0  0
   -2.7250   21.1300  -33.0620 C   0  0  0  0  0  0  0  0  0  0  0  0
   -1.5660   20.3860  -33.3070 C   0  0  0  0  0  0  0  0  0  0  0  0
   -0.5140   20.4060  -32.3900 C   0  0  0  0  0  0  0  0  0  0  0  0
   -0.6180   21.1680  -31.2240 C   0  0  0  0  0  0  0  0  0  0  0  0
   -1.7750   21.9130  -30.9740 C   0  0  0  0  0  0  0  0  0  0  0  0
   -5.3840   22.2480  -31.8410 C   0  0  0  0  0  0  0  0  0  0  0  0
   -6.1630   23.3390  -31.5180 C   0  0  0  0  0  0  0  0  0  0  0  0
   -7.6670   23.3910  -31.6310 C   0  0  0  0  0  0  0  0  0  0  0  0
   -8.3180   22.2290  -31.0010 N   0  0  0  0  0  0  0  0  0  0  0  0
   -8.9950   21.3320  -31.9540 C   0  0  0  0  0  0  0  0  0  0  0  0
   -8.1640   20.1220  -32.3120 C   0  0  0  0  0  0  0  0  0  0  0  0
   -7.2180   20.1840  -33.3460 C   0  0  0  0  0  0  0  0  0  0  0  0
   -6.4400   19.0610  -33.6380 C   0  0  0  0  0  0  0  0  0  0  0  0
   -6.6130   17.9110  -32.9370 N   0  0  0  0  0  0  0  0  0  0  0  0
   -7.5390   17.8120  -31.9460 C   0  0  0  0  0  0  0  0  0  0  0  0
   -8.3370   18.9120  -31.6220 C   0  0  0  0  0  0  0  0  0  0  0  0
   -5.8736   25.6548  -28.4816 H   0  0  0  0  0  0  0  0  0  0  0  0
   -7.2994   26.3609  -29.3153 H   0  0  0  0  0  0  0  0  0  0  0  0
   -7.0488   24.5821  -29.3153 H   0  0  0  0  0  0  0  0  0  0  0  0
   -6.3448   26.1772  -31.4003 H   0  0  0  0  0  0  0  0  0  0  0  0
   -4.8255   26.2554  -30.4311 H   0  0  0  0  0  0  0  0  0  0  0  0
   -3.5510   21.1097  -33.7881 H   0  0  0  0  0  0  0  0  0  0  0  0
   -1.4836   19.7841  -34.2240 H   0  0  0  0  0  0  0  0  0  0  0  0
    0.3972   19.8216  -32.5856 H   0  0  0  0  0  0  0  0  0  0  0  0
    0.2112   21.1822  -30.5014 H   0  0  0  0  0  0  0  0  0  0  0  0
   -1.8523   22.5098  -30.0532 H   0  0  0  0  0  0  0  0  0  0  0  0
   -5.7212   21.2584  -32.1829 H   0  0  0  0  0  0  0  0  0  0  0  0
   -8.0267   24.3070  -31.1395 H   0  0  0  0  0  0  0  0  0  0  0  0
   -7.9236   23.3802  -32.7006 H   0  0  0  0  0  0  0  0  0  0  0  0
   -8.9720   22.5230  -30.2400 H   0  0  0  0  0  0  0  0  0  0  0  0
   -9.9387   20.9895  -31.5044 H   0  0  0  0  0  0  0  0  0  0  0  0
   -9.1664   21.9012  -32.8795 H   0  0  0  0  0  0  0  0  0  0  0  0
   -7.0896   21.1114  -33.9235 H   0  0  0  0  0  0  0  0  0  0  0  0
   -5.6858   19.1085  -34.4373 H   0  0  0  0  0  0  0  0  0  0  0  0
   -7.6598   16.8652  -31.3992 H   0  0  0  0  0  0  0  0  0  0  0  0
   -9.0966   18.8303  -30.8306 H   0  0  0  0  0  0  0  0  0  0  0  0
  1  2  1  0
  2  3  1  0
  3  4  1  0
  4  5  2  0
  5  6  1  0
  6  7  2  0
  7  8  1  0
  8  9  2  0
  9 10  1  0
 10 11  2  0
  5 12  1  0
 12 13  2  0
 13 14  1  0
 14 15  1  0
 15 16  1  0
 16 17  1  0
 17 18  2  0
 18 19  1  0
 19 20  2  0
 20 21  1  0
 21 22  2  0
 13  3  1  0
 22 17  1  0
 11  6  1  0
  1 23  1  0
  1 24  1  0
  1 25  1  0
  2 26  1  0
  2 27  1  0
  7 28  1  0
  8 29  1  0
  9 30  1  0
 10 31  1  0
 11 32  1  0
 12 33  1  0
 14 34  1  0
 14 35  1  0
 15 36  1  0
 16 37  1  0
 16 38  1  0
 18 39  1  0
 19 40  1  0
 21 41  1  0
 22 42  1  0
M  END
>  <UniqueID>  (3) 
3

>  <SMILES>  (3) 
CCn1nc(-c2ccccc2)cc1CNCc1ccncc1

>  <Energy>  (3) 
71.56013424456

>  <Genealogy>  (3) 
CCn1nc(-c2ccccc2)cc1CNCc1ccncc1 (3D coordinates assigned)
CCn1nc(-c2ccccc2)cc1CNCc1ccncc1 (optimized conformer: 71.56013424456 kcal/mol)

>  <smiles>  (3) 
CCn1nc(-c2ccccc2)cc1CNCc1ccncc1

>  <score_type>  (3) 
oracle

>  <origin>  (3) 
adg

>  <m_score__min__energy>  (3) 
-7.7999999999999998

>  <m_primary>  (3) 
energy

$$$$
3:0
     RDKit          3D

 48 51  0  0  0  0  0  0  0  0999 V2000
   -2.1550   24.8910  -28.7400 C   0  0  0  0  0  0  0  0  0  0  0  0
   -3.1010   25.2980  -29.7230 O   0  0  0  0  0  0  0  0  0  0  0  0
   -4.1840   24.5160  -30.1510 C   0  0  0  0  0  0  0  0  0  0  0  0
   -5.4690   25.0600  -30.0660 C   0  0  0  0  0  0  0  0  0  0  0  0
   -6.5800   24.3260  -30.4850 C   0  0  0  0  0  0  0  0  0  0  0  0
   -6.4220   23.0340  -31.0080 C   0  0  0  0  0  0  0  0  0  0  0  0
   -5.1350   22.4640  -31.0710 C   0  0  0  0  0  0  0  0  0  0  0  0
   -4.0220   23.2140  -30.6600 C   0  0  0  0  0  0  0  0  0  0  0  0
   -4.9220   21.0930  -31.6570 C   0  0  0  0  0  0  0  0  0  0  0  0
   -6.2350   20.2790  -31.7300 C   0  0  2  0  0  0  0  0  0  0  0  0
   -6.0920   18.9640  -32.4920 C   0  0  0  0  0  0  0  0  0  0  0  0
   -4.8560   18.3760  -32.8350 C   0  0  0  0  0  0  0  0  0  0  0  0
   -4.8120   17.1290  -33.4910 C   0  0  0  0  0  0  0  0  0  0  0  0
   -3.6000   16.5250  -33.8620 O   0  0  0  0  0  0  0  0  0  0  0  0
   -3.1300   16.4100  -35.2010 C   0  0  0  0  0  0  0  0  0  0  0  0
   -6.0070   16.4560  -33.7860 C   0  0  0  0  0  0  0  0  0  0  0  0
   -5.9270   15.2140  -34.4370 O   0  0  0  0  0  0  0  0  0  0  0  0
   -5.4660   14.0110  -33.8300 C   0  0  0  0  0  0  0  0  0  0  0  0
   -7.2360   17.0300  -33.4200 C   0  0  0  0  0  0  0  0  0  0  0  0
   -7.2740   18.2750  -32.7820 C   0  0  0  0  0  0  0  0  0  0  0  0
   -8.5680   18.8900  -32.3470 C   0  0  0  0  0  0  0  0  0  0  0  0
   -8.5720   20.3850  -32.6930 C   0  0  0  0  0  0  0  0  0  0  0  0
   -7.3190   21.1210  -32.3170 N   0  0  1  0  0  0  0  0  0  0  0  0
   -7.6430   22.2380  -31.4000 C   0  0  0  0  0  0  0  0  0  0  0  0
   -2.5691   25.0692  -27.7366 H   0  0  0  0  0  0  0  0  0  0  0  0
   -1.9374   23.8196  -28.8619 H   0  0  0  0  0  0  0  0  0  0  0  0
   -1.2275   25.4697  -28.8619 H   0  0  0  0  0  0  0  0  0  0  0  0
   -5.6058   26.0753  -29.6654 H   0  0  0  0  0  0  0  0  0  0  0  0
   -7.5860   24.7636  -30.4045 H   0  0  0  0  0  0  0  0  0  0  0  0
   -3.0141   22.7802  -30.7364 H   0  0  0  0  0  0  0  0  0  0  0  0
   -4.5153   21.2013  -32.6733 H   0  0  0  0  0  0  0  0  0  0  0  0
   -4.2240   20.5504  -31.0024 H   0  0  0  0  0  0  0  0  0  0  0  0
   -6.4990   19.9998  -30.6993 H   0  0  0  0  0  0  0  0  0  0  0  0
   -3.9183   18.8954  -32.5883 H   0  0  0  0  0  0  0  0  0  0  0  0
   -2.0615   16.1486  -35.1934 H   0  0  0  0  0  0  0  0  0  0  0  0
   -3.6961   15.6239  -35.7221 H   0  0  0  0  0  0  0  0  0  0  0  0
   -3.2692   17.3687  -35.7221 H   0  0  0  0  0  0  0  0  0  0  0  0
   -5.5055   14.1140  -32.7355 H   0  0  0  0  0  0  0  0  0  0  0  0
   -6.1069   13.1735  -34.1428 H   0  0  0  0  0  0  0  0  0  0  0  0
   -4.4295   13.8163  -34.1428 H   0  0  0  0  0  0  0  0  0  0  0  0
   -8.1740   16.4976  -33.6362 H   0  0  0  0  0  0  0  0  0  0  0  0
   -9.4015   18.3926  -32.8646 H   0  0  0  0  0  0  0  0  0  0  0  0
   -8.6825   18.7673  -31.2599 H   0  0  0  0  0  0  0  0  0  0  0  0
   -8.7146   20.4846  -33.7792 H   0  0  0  0  0  0  0  0  0  0  0  0
   -9.3849   20.8368  -32.1056 H   0  0  0  0  0  0  0  0  0  0  0  0
   -6.9460   21.5470  -33.2000 H   0  0  0  0  0  0  0  0  0  0  0  0
   -8.3568   22.9094  -31.8997 H   0  0  0  0  0  0  0  0  0  0  0  0
   -8.0699   21.8057  -30.4830 H   0  0  0  0  0  0  0  0  0  0  0  0
  1  2  1  0
  2  3  1  0
  3  4  2  0
  4  5  1  0
  5  6  2  0
  6  7  1  0
  7  8  2  0
  7  9  1  0
  9 10  1  0
 10 11  1  0
 11 12  2  0
 12 13  1  0
 13 14  1  0
 14 15  1  0
 13 16  2  0
 16 17  1  0
 17 18  1  0
 16 19  1  0
 19 20  2  0
 20 21  1  0
 21 22  1  0
 22 23  1  0
 23 24  1  0
  8  3  1  0
 23 10  1  0
 24  6  1  0
 20 11  1  0
  1 25  1  0
  1 26  1  0
  1 27  1  0
  4 28  1  0
  5 29  1  0
  8 30  1  0
  9 31  1  0
  9 32  1  0
 10 33  1  1
 12 34  1  0
 15 35  1  0
 15 36  1  0
 15 37  1  0
 18 38  1  0
 18 39  1  0
 18 40  1  0
 19 41  1  0
 21 42  1  0
 21 43  1  0
 22 44  1  0
 22 45  1  0
 23 46  1  6
 24 47  1  0
 24 48  1  0
M  CHG  1  23   1
M  END
>  <UniqueID>  (4) 
4

>  <SMILES>  (4) 
COc1ccc2c(c1)C[C@@H]1c3cc(OC)c(OC)cc3CC[N@H+]1C2

>  <Energy>  (4) 
67.27307114709447

>  <Genealogy>  (4) 
COc1ccc2c(c1)CC1c3cc(OC)c(OC)cc3CC[NH+]1C2 (protonated)
COc1ccc2c(c1)C[C@@H]1c3cc(OC)c(OC)cc3CC[N@H+]1C2 (chirality)
COc1ccc2c(c1)C[C@@H]1c3cc(OC)c(OC)cc3CC[N@H+]1C2 (3D coordinates assigned)
COc1ccc2c(c1)C[C@@H]1c3cc(OC)c(OC)cc3CC[N@H+]1C2 (nonaromatic ring conformer: 67.27307114709447 kcal/mol)

>  <smiles>  (4) 
COc1ccc2c(c1)CC1c3cc(OC)c(OC)cc3CCN1C2

>  <score_type>  (4) 
oracle

>  <origin>  (4) 
adg

>  <m_score__min__energy>  (4) 
-8

>  <m_primary>  (4) 
energy

$$$$
4:0
     RDKit          3D

 34 36  0  0  0  0  0  0  0  0999 V2000
   -2.3600   19.3290  -26.3760 C   0  0  0  0  0  0  0  0  0  0  0  0
   -2.0460   20.5800  -26.9790 O   0  0  0  0  0  0  0  0  0  0  0  0
   -2.7230   21.1200  -28.0820 C   0  0  0  0  0  0  0  0  0  0  0  0
   -2.4490   20.5990  -29.3510 C   0  0  0  0  0  0  0  0  0  0  0  0
   -3.0970   21.1010  -30.4830 C   0  0  0  0  0  0  0  0  0  0  0  0
   -4.0370   22.1390  -30.3620 C   0  0  0  0  0  0  0  0  0  0  0  0
   -4.7410   22.6880  -31.5820 C   0  0  1  0  0  0  0  0  0  0  0  0
   -5.3640   21.6110  -32.2950 O   0  0  0  0  0  0  0  0  0  0  0  0
   -6.7280   21.3250  -32.2100 C   0  0  0  0  0  0  0  0  0  0  0  0
   -7.2280   20.1190  -32.7090 C   0  0  0  0  0  0  0  0  0  0  0  0
   -8.5960   19.8400  -32.6210 C   0  0  0  0  0  0  0  0  0  0  0  0
   -9.4640   20.7720  -32.0410 C   0  0  0  0  0  0  0  0  0  0  0  0
   -8.9660   21.9850  -31.5520 C   0  0  0  0  0  0  0  0  0  0  0  0
   -7.5940   22.2620  -31.6350 C   0  0  0  0  0  0  0  0  0  0  0  0
   -7.0460   23.5440  -31.1670 C   0  0  0  0  0  0  0  0  0  0  0  0
   -5.7210   23.7850  -31.1800 C   0  0  0  0  0  0  0  0  0  0  0  0
   -5.2070   25.0610  -30.7490 N   0  0  0  0  0  0  0  0  0  0  0  0
   -5.9680   25.9460  -30.3040 O   0  0  0  0  0  0  0  0  0  0  0  0
   -3.8600   25.3300  -30.8380 O   0  0  0  0  0  0  0  0  0  0  0  0
   -4.3120   22.6640  -29.0880 C   0  0  0  0  0  0  0  0  0  0  0  0
   -3.6630   22.1600  -27.9580 C   0  0  0  0  0  0  0  0  0  0  0  0
   -2.3339   19.4328  -25.2812 H   0  0  0  0  0  0  0  0  0  0  0  0
   -3.3655   19.0125  -26.6905 H   0  0  0  0  0  0  0  0  0  0  0  0
   -1.6232   18.5752  -26.6905 H   0  0  0  0  0  0  0  0  0  0  0  0
   -1.7160   19.7859  -29.4590 H   0  0  0  0  0  0  0  0  0  0  0  0
   -2.8701   20.6814  -31.4742 H   0  0  0  0  0  0  0  0  0  0  0  0
   -4.0151   23.1567  -32.2628 H   0  0  0  0  0  0  0  0  0  0  0  0
   -6.5462   19.3896  -33.1707 H   0  0  0  0  0  0  0  0  0  0  0  0
   -8.9893   18.8882  -33.0076 H   0  0  0  0  0  0  0  0  0  0  0  0
  -10.5392   20.5508  -31.9694 H   0  0  0  0  0  0  0  0  0  0  0  0
   -9.6501   22.7202  -31.1031 H   0  0  0  0  0  0  0  0  0  0  0  0
   -7.7318   24.3214  -30.7991 H   0  0  0  0  0  0  0  0  0  0  0  0
   -5.0438   23.4780  -28.9795 H   0  0  0  0  0  0  0  0  0  0  0  0
   -3.8880   22.5784  -26.9659 H   0  0  0  0  0  0  0  0  0  0  0  0
  1  2  1  0
  2  3  1  0
  3  4  2  0
  4  5  1  0
  5  6  2  0
  6  7  1  0
  7  8  1  0
  8  9  1  0
  9 10  2  0
 10 11  1  0
 11 12  2  0
 12 13  1  0
 13 14  2  0
 14 15  1  0
 15 16  2  0
 16 17  1  0
 17 18  2  0
 17 19  1  0
  6 20  1  0
 20 21  2  0
 21  3  1  0
 16  7  1  0
 14  9  1  0
  1 22  1  0
  1 23  1  0
  1 24  1  0
  4 25  1  0
  5 26  1  0
  7 27  1  6
 10 28  1  0
 11 29  1  0
 12 30  1  0
 13 31  1  0
 15 32  1  0
 20 33  1  0
 21 34  1  0
M  CHG  2  17   1  19  -1
M  END
>  <UniqueID>  (5) 
5

>  <SMILES>  (5) 
COc1ccc([C@H]2Oc3ccccc3C=C2[N+](=O)[O-])cc1

>  <Energy>  (5) 
39.56851190129978

>  <Genealogy>  (5) 
COc1ccc([C@H]2Oc3ccccc3C=C2[N+](=O)[O-])cc1 (chirality)
COc1ccc([C@H]2Oc3ccccc3C=C2[N+](=O)[O-])cc1 (3D coordinates assigned)
COc1ccc([C@H]2Oc3ccccc3C=C2[N+](=O)[O-])cc1 (nonaromatic ring conformer: 39.56851190129978 kcal/mol)

>  <smiles>  (5) 
COc1ccc(C2Oc3ccccc3C=C2[N+](=O)[O-])cc1

>  <score_type>  (5) 
oracle

>  <origin>  (5) 
adg

>  <m_score__min__energy>  (5) 
-8.3499999999999996

>  <m_primary>  (5) 
energy

$$$$
5:0
     RDKit          3D

 35 36  0  0  0  0  0  0  0  0999 V2000
   -7.6170   23.1260  -31.0230 C   0  0  0  0  0  0  0  0  0  0  0  0
   -6.5240   23.6120  -31.9730 C   0  0  0  0  0  0  0  0  0  0  0  0
   -5.1730   23.6550  -31.2750 C   0  0  0  0  0  0  0  0  0  0  0  0
   -4.7460   24.8250  -30.5980 C   0  0  0  0  0  0  0  0  0  0  0  0
   -5.6130   26.0440  -30.4700 C   0  0  0  0  0  0  0  0  0  0  0  0
   -3.5190   24.8600  -30.0170 N   0  0  0  0  0  0  0  0  0  0  0  0
   -2.6520   23.8190  -30.0580 C   0  0  0  0  0  0  0  0  0  0  0  0
   -1.1980   23.9900  -29.3150 S   0  0  0  0  0  0  0  0  0  0  0  0
   -3.0130   22.6350  -30.7250 C   0  0  0  0  0  0  0  0  0  0  0  0
   -2.1010   21.5080  -30.7740 C   0  0  0  0  0  0  0  0  0  0  0  0
   -1.3740   20.6080  -30.8140 N   0  0  0  0  0  0  0  0  0  0  0  0
   -4.2820   22.5520  -31.3400 C   0  0  0  0  0  0  0  0  0  0  0  0
   -4.6690   21.3050  -32.0430 C   0  0  0  0  0  0  0  0  0  0  0  0
   -3.9510   20.8800  -33.1690 C   0  0  0  0  0  0  0  0  0  0  0  0
   -4.3050   19.6980  -33.8200 C   0  0  0  0  0  0  0  0  0  0  0  0
   -5.3710   18.9270  -33.3480 C   0  0  0  0  0  0  0  0  0  0  0  0
   -6.0920   19.3370  -32.2100 C   0  0  0  0  0  0  0  0  0  0  0  0
   -7.1670   18.5970  -31.6930 O   0  0  0  0  0  0  0  0  0  0  0  0
   -8.5370   18.8860  -31.9480 C   0  0  0  0  0  0  0  0  0  0  0  0
   -5.7310   20.5250  -31.5620 C   0  0  0  0  0  0  0  0  0  0  0  0
   -7.2900   23.2714  -29.9828 H   0  0  0  0  0  0  0  0  0  0  0  0
   -8.5390   23.6990  -31.2010 H   0  0  0  0  0  0  0  0  0  0  0  0
   -7.8091   22.0576  -31.2010 H   0  0  0  0  0  0  0  0  0  0  0  0
   -6.4634   22.9272  -32.8317 H   0  0  0  0  0  0  0  0  0  0  0  0
   -6.7777   24.6288  -32.3074 H   0  0  0  0  0  0  0  0  0  0  0  0
   -5.7735   26.2697  -29.4054 H   0  0  0  0  0  0  0  0  0  0  0  0
   -5.1185   26.8983  -30.9554 H   0  0  0  0  0  0  0  0  0  0  0  0
   -6.5823   25.8572  -30.9554 H   0  0  0  0  0  0  0  0  0  0  0  0
   -3.1067   21.4795  -33.5402 H   0  0  0  0  0  0  0  0  0  0  0  0
   -3.7433   19.3717  -34.7077 H   0  0  0  0  0  0  0  0  0  0  0  0
   -5.6475   17.9973  -33.8669 H   0  0  0  0  0  0  0  0  0  0  0  0
   -9.0718   18.9988  -30.9934 H   0  0  0  0  0  0  0  0  0  0  0  0
   -8.6137   19.8201  -32.5239 H   0  0  0  0  0  0  0  0  0  0  0  0
   -8.9844   18.0625  -32.5239 H   0  0  0  0  0  0  0  0  0  0  0  0
   -6.2848   20.8490  -30.6685 H   0  0  0  0  0  0  0  0  0  0  0  0
  1  2  1  0
  2  3  1  0
  3  4  2  0
  4  5  1  0
  4  6  1  0
  6  7  1  0
  7  8  2  0
  7  9  1  0
  9 10  1  0
 10 11  3  0
  9 12  2  0
 12 13  1  0
 13 14  2  0
 14 15  1  0
 15 16  2  0
 16 17  1  0
 17 18  1  0
 18 19  1  0
 17 20  2  0
 12  3  1  0
 20 13  1  0
  1 21  1  0
  1 22  1  0
  1 23  1  0
  2 24  1  0
  2 25  1  0
  5 26  1  0
  5 27  1  0
  5 28  1  0
 14 29  1  0
 15 30  1  0
 16 31  1  0
 19 32  1  0
 19 33  1  0
 19 34  1  0
 20 35  1  0
M  CHG  1   6  -1
M  END
>  <UniqueID>  (6) 
6

>  <SMILES>  (6) 
CCc1c(C)[n-]c(=S)c(C#N)c1-c1cccc(OC)c1

>  <Energy>  (6) 
44.15990504392973

>  <Genealogy>  (6) 
CCc1c(C)[n-]c(=S)c(C#N)c1-c1cccc(OC)c1 (protonated)
CCc1c(C)[n-]c(=S)c(C#N)c1-c1cccc(OC)c1 (3D coordinates assigned)
CCc1c(C)[n-]c(=S)c(C#N)c1-c1cccc(OC)c1 (optimized conformer: 44.15990504392973 kcal/mol)

>  <smiles>  (6) 
CCc1c(C)[nH]c(=S)c(C#N)c1-c1cccc(OC)c1

>  <score_type>  (6) 
oracle

>  <origin>  (6) 
adg

>  <m_score__min__energy>  (6) 
-7.9800000000000004

>  <m_primary>  (6) 
energy

$$$$
6:0
     RDKit          3D

 42 44  0  0  0  0  0  0  0  0999 V2000
   -6.4900   25.6720  -29.3660 C   0  0  0  0  0  0  0  0  0  0  0  0
   -6.7900   24.2360  -29.7780 C   0  0  0  0  0  0  0  0  0  0  0  0
   -7.0280   24.1640  -31.2250 N   0  0  0  0  0  0  0  0  0  0  0  0
   -5.7620   24.1580  -31.9710 C   0  0  0  0  0  0  0  0  0  0  0  0
   -4.6650   23.4910  -31.1600 C   0  0  0  0  0  0  0  0  0  0  0  0
   -4.5750   22.0820  -31.0430 C   0  0  0  0  0  0  0  0  0  0  0  0
   -5.5050   21.1860  -31.7640 C   0  0  0  0  0  0  0  0  0  0  0  0
   -5.0790   20.5010  -32.9120 C   0  0  0  0  0  0  0  0  0  0  0  0
   -5.9590   19.6470  -33.5860 C   0  0  0  0  0  0  0  0  0  0  0  0
   -7.2610   19.4670  -33.1120 C   0  0  0  0  0  0  0  0  0  0  0  0
   -7.6850   20.1370  -31.9600 C   0  0  0  0  0  0  0  0  0  0  0  0
   -6.8090   20.9910  -31.2840 C   0  0  0  0  0  0  0  0  0  0  0  0
   -3.6100   21.5320  -30.2460 N   0  0  0  0  0  0  0  0  0  0  0  0
   -3.5260   20.1590  -30.1430 O   0  0  0  0  0  0  0  0  0  0  0  0
   -2.7240   22.3190  -29.5670 C   0  0  0  0  0  0  0  0  0  0  0  0
   -1.7250   21.7510  -28.7540 C   0  0  0  0  0  0  0  0  0  0  0  0
   -0.8250   22.5660  -28.0660 C   0  0  0  0  0  0  0  0  0  0  0  0
   -0.9120   23.9590  -28.1650 C   0  0  0  0  0  0  0  0  0  0  0  0
    0.0830   24.8300  -27.4540 C   0  0  0  0  0  0  0  0  0  0  0  0
   -1.8920   24.5340  -28.9870 C   0  0  0  0  0  0  0  0  0  0  0  0
   -2.8070   23.7230  -29.6870 C   0  0  0  0  0  0  0  0  0  0  0  0
   -3.7750   24.2760  -30.4780 N   0  0  0  0  0  0  0  0  0  0  0  0
   -3.8650   25.6470  -30.5890 O   0  0  0  0  0  0  0  0  0  0  0  0
   -6.4752   25.7431  -28.2684 H   0  0  0  0  0  0  0  0  0  0  0  0
   -5.5100   25.9711  -29.7661 H   0  0  0  0  0  0  0  0  0  0  0  0
   -7.2683   26.3385  -29.7661 H   0  0  0  0  0  0  0  0  0  0  0  0
   -5.9334   23.5967  -29.5182 H   0  0  0  0  0  0  0  0  0  0  0  0
   -7.6900   23.8906  -29.2481 H   0  0  0  0  0  0  0  0  0  0  0  0
   -7.5090   23.2560  -31.4250 H   0  0  0  0  0  0  0  0  0  0  0  0
   -5.9005   23.6072  -32.9130 H   0  0  0  0  0  0  0  0  0  0  0  0
   -5.4676   25.1977  -32.1769 H   0  0  0  0  0  0  0  0  0  0  0  0
   -4.0521   20.6355  -33.2826 H   0  0  0  0  0  0  0  0  0  0  0  0
   -5.6253   19.1167  -34.4901 H   0  0  0  0  0  0  0  0  0  0  0  0
   -7.9527   18.7981  -33.6451 H   0  0  0  0  0  0  0  0  0  0  0  0
   -8.7090   19.9917  -31.5855 H   0  0  0  0  0  0  0  0  0  0  0  0
   -7.1425   21.5112  -30.3740 H   0  0  0  0  0  0  0  0  0  0  0  0
   -1.6533   20.6573  -28.6604 H   0  0  0  0  0  0  0  0  0  0  0  0
   -0.0422   22.1104  -27.4419 H   0  0  0  0  0  0  0  0  0  0  0  0
   -0.0435   24.7192  -26.3669 H   0  0  0  0  0  0  0  0  0  0  0  0
    1.1023   24.5287  -27.7371 H   0  0  0  0  0  0  0  0  0  0  0  0
   -0.0808   25.8803  -27.7371 H   0  0  0  0  0  0  0  0  0  0  0  0
   -1.9468   25.6282  -29.0861 H   0  0  0  0  0  0  0  0  0  0  0  0
  1  2  1  0
  2  3  1  0
  3  4  1  0
  4  5  1  0
  5  6  2  0
  6  7  1  0
  7  8  2  0
  8  9  1  0
  9 10  2  0
 10 11  1  0
 11 12  2  0
  6 13  1  0
 13 14  1  0
 13 15  2  0
 15 16  1  0
 16 17  2  0
 17 18  1  0
 18 19  1  0
 18 20  2  0
 20 21  1  0
 21 22  2  0
 22 23  1  0
 22  5  1  0
 12  7  1  0
 21 15  1  0
  1 24  1  0
  1 25  1  0
  1 26  1  0
  2 27  1  0
  2 28  1  0
  3 29  1  0
  4 30  1  0
  4 31  1  0
  8 32  1  0
  9 33  1  0
 10 34  1  0
 11 35  1  0
 12 36  1  0
 16 37  1  0
 17 38  1  0
 19 39  1  0
 19 40  1  0
 19 41  1  0
 20 42  1  0
M  CHG  4  13   1  14  -1  22   1  23  -1
M  END
>  <UniqueID>  (7) 
7

>  <SMILES>  (7) 
CCNCc1c(-c2ccccc2)[n+]([O-])c2ccc(C)cc2[n+]1[O-]

>  <Energy>  (7) 
55.6842316226355

>  <Genealogy>  (7) 
CCNCc1c(-c2ccccc2)[n+]([O-])c2ccc(C)cc2[n+]1[O-] (3D coordinates assigned)
CCNCc1c(-c2ccccc2)[n+]([O-])c2ccc(C)cc2[n+]1[O-] (optimized conformer: 55.6842316226355 kcal/mol)

>  <smiles>  (7) 
CCNCc1c(-c2ccccc2)[n+]([O-])c2ccc(C)cc2[n+]1[O-]

>  <score_type>  (7) 
oracle

>  <origin>  (7) 
adg

>  <m_score__min__energy>  (7) 
-7.6299999999999999

>  <m_primary>  (7) 
energy

$$$$
7:0
     RDKit          3D

 53 55  0  0  0  0  0  0  0  0999 V2000
    0.0770   21.1540  -33.8450 C   0  0  0  0  0  0  0  0  0  0  0  0
    0.4210   19.9810  -32.9200 C   0  0  0  0  0  0  0  0  0  0  0  0
   -0.7560   19.4720  -32.1710 N   0  0  0  0  0  0  0  0  0  0  0  0
   -0.4240   19.2420  -30.7390 C   0  0  0  0  0  0  0  0  0  0  0  0
   -1.0940   20.2620  -29.8090 C   0  0  0  0  0  0  0  0  0  0  0  0
   -1.3760   18.2660  -32.7900 C   0  0  0  0  0  0  0  0  0  0  0  0
   -2.2810   18.5290  -34.0210 C   0  0  0  0  0  0  0  0  0  0  0  0
   -3.4170   19.4040  -33.7090 N   0  0  0  0  0  0  0  0  0  0  0  0
   -3.3370   20.7380  -33.4930 C   0  0  0  0  0  0  0  0  0  0  0  0
   -4.5630   21.2430  -33.0690 C   0  0  0  0  0  0  0  0  0  0  0  0
   -4.8580   22.6790  -32.6980 C   0  0  0  0  0  0  0  0  0  0  0  0
   -4.5970   22.9970  -31.2750 N   0  0  0  0  0  0  0  0  0  0  0  0
   -3.1620   23.1440  -30.9510 C   0  0  0  0  0  0  0  0  0  0  0  0
   -2.9740   23.9410  -29.6510 C   0  0  0  0  0  0  0  0  0  0  0  0
   -3.4980   25.2600  -29.7210 O   0  0  0  0  0  0  0  0  0  0  0  0
   -4.6560   25.3810  -30.5400 C   0  0  0  0  0  0  0  0  0  0  0  0
   -5.4470   24.0720  -30.7180 C   0  0  0  0  0  0  0  0  0  0  0  0
   -5.4040   20.1480  -32.9830 C   0  0  0  0  0  0  0  0  0  0  0  0
   -6.7190   20.0330  -32.5260 C   0  0  0  0  0  0  0  0  0  0  0  0
   -7.3130   18.7590  -32.5280 C   0  0  0  0  0  0  0  0  0  0  0  0
   -9.1130   18.5500  -31.9260 Br  0  0  0  0  0  0  0  0  0  0  0  0
   -6.5820   17.6340  -32.9640 C   0  0  0  0  0  0  0  0  0  0  0  0
   -5.2500   17.7680  -33.3890 C   0  0  0  0  0  0  0  0  0  0  0  0
   -4.6810   19.0470  -33.3830 C   0  0  0  0  0  0  0  0  0  0  0  0
   -0.1814   22.0351  -33.2393 H   0  0  0  0  0  0  0  0  0  0  0  0
    0.9446   21.3871  -34.4798 H   0  0  0  0  0  0  0  0  0  0  0  0
   -0.7791   20.8816  -34.4798 H   0  0  0  0  0  0  0  0  0  0  0  0
    0.8305   19.1618  -33.5293 H   0  0  0  0  0  0  0  0  0  0  0  0
    1.1502   20.3455  -32.1815 H   0  0  0  0  0  0  0  0  0  0  0  0
   -1.4950   20.2150  -32.2080 H   0  0  0  0  0  0  0  0  0  0  0  0
   -0.7600   18.2333  -30.4567 H   0  0  0  0  0  0  0  0  0  0  0  0
    0.6647   19.3521  -30.6266 H   0  0  0  0  0  0  0  0  0  0  0  0
   -0.9090   19.9804  -28.7619 H   0  0  0  0  0  0  0  0  0  0  0  0
   -0.6760   21.2615  -29.9992 H   0  0  0  0  0  0  0  0  0  0  0  0
   -2.1774   20.2754  -29.9992 H   0  0  0  0  0  0  0  0  0  0  0  0
   -0.5646   17.5935  -33.1052 H   0  0  0  0  0  0  0  0  0  0  0  0
   -2.0359   17.8406  -32.0196 H   0  0  0  0  0  0  0  0  0  0  0  0
   -1.6764   19.0035  -34.8079 H   0  0  0  0  0  0  0  0  0  0  0  0
   -2.6864   17.5607  -34.3497 H   0  0  0  0  0  0  0  0  0  0  0  0
   -2.4275   21.3406  -33.6333 H   0  0  0  0  0  0  0  0  0  0  0  0
   -4.2297   23.3335  -33.3200 H   0  0  0  0  0  0  0  0  0  0  0  0
   -5.9329   22.8386  -32.8689 H   0  0  0  0  0  0  0  0  0  0  0  0
   -2.7158   22.1459  -30.8296 H   0  0  0  0  0  0  0  0  0  0  0  0
   -2.6696   23.6869  -31.7712 H   0  0  0  0  0  0  0  0  0  0  0  0
   -3.4832   23.4055  -28.8362 H   0  0  0  0  0  0  0  0  0  0  0  0
   -1.8916   24.0287  -29.4756 H   0  0  0  0  0  0  0  0  0  0  0  0
   -5.3234   26.1274  -30.0845 H   0  0  0  0  0  0  0  0  0  0  0  0
   -4.3046   25.6747  -31.5401 H   0  0  0  0  0  0  0  0  0  0  0  0
   -5.8330   23.7516  -29.7391 H   0  0  0  0  0  0  0  0  0  0  0  0
   -6.2716   24.2597  -31.4214 H   0  0  0  0  0  0  0  0  0  0  0  0
   -7.2743   20.9150  -32.1743 H   0  0  0  0  0  0  0  0  0  0  0  0
   -7.0594   16.6430  -32.9712 H   0  0  0  0  0  0  0  0  0  0  0  0
   -4.6703   16.8927  -33.7173 H   0  0  0  0  0  0  0  0  0  0  0  0
  1  2  1  0
  2  3  1  0
  3  4  1  0
  4  5  1  0
  3  6  1  0
  6  7  1  0
  7  8  1  0
  8  9  1  0
  9 10  2  0
 10 11  1  0
 11 12  1  0
 12 13  1  0
 13 14  1  0
 14 15  1  0
 15 16  1  0
 16 17  1  0
 10 18  1  0
 18 19  2  0
 19 20  1  0
 20 21  1  0
 20 22  2  0
 22 23  1  0
 23 24  2  0
 24  8  1  0
 17 12  1  0
 24 18  1  0
  1 25  1  0
  1 26  1  0
  1 27  1  0
  2 28  1  0
  2 29  1  0
  3 30  1  0
  4 31  1  0
  4 32  1  0
  5 33  1  0
  5 34  1  0
  5 35  1  0
  6 36  1  0
  6 37  1  0
  7 38  1  0
  7 39  1  0
  9 40  1  0
 11 41  1  0
 11 42  1  0
 13 43  1  0
 13 44  1  0
 14 45  1  0
 14 46  1  0
 16 47  1  0
 16 48  1  0
 17 49  1  0
 17 50  1  0
 19 51  1  0
 22 52  1  0
 23 53  1  0
M  CHG  1   3   1
M  END
>  <UniqueID>  (8) 
8

>  <SMILES>  (8) 
CC[NH+](CC)CCn1cc(CN2CCOCC2)c2cc(Br)ccc21

>  <Energy>  (8) 
104.36378079435055

>  <Genealogy>  (8) 
CC[NH+](CC)CCn1cc(CN2CCOCC2)c2cc(Br)ccc21 (protonated)
CC[NH+](CC)CCn1cc(CN2CCOCC2)c2cc(Br)ccc21 (3D coordinates assigned)
CC[NH+](CC)CCn1cc(CN2CCOCC2)c2cc(Br)ccc21 (nonaromatic ring conformer: 104.36378079435055 kcal/mol)

>  <smiles>  (8) 
CCN(CC)CCn1cc(CN2CCOCC2)c2cc(Br)ccc21

>  <score_type>  (8) 
oracle

>  <origin>  (8) 
adg

>  <m_score__min__energy>  (8) 
-6.9699999999999998

>  <m_primary>  (8) 
energy

$$$$
8:0
     RDKit          3D

 63 67  0  0  0  0  0  0  0  0999 V2000
   -0.5254   18.6494  -31.9990 H   0  0  0  0  0  0  0  0  0  0  0  0
   -0.7110   17.8840  -32.7670 C   0  0  0  0  0  0  0  0  0  0  0  0
   -0.8880   18.2620  -34.0980 C   0  0  0  0  0  0  0  0  0  0  0  0
   -0.8448   19.3250  -34.3777 H   0  0  0  0  0  0  0  0  0  0  0  0
   -1.1200   17.2920  -35.0760 C   0  0  0  0  0  0  0  0  0  0  0  0
   -1.2676   17.5955  -36.1230 H   0  0  0  0  0  0  0  0  0  0  0  0
   -1.1660   15.9300  -34.7300 C   0  0  0  0  0  0  0  0  0  0  0  0
   -1.4490   14.9000  -35.7890 C   0  0  0  0  0  0  0  0  0  0  0  0
   -1.6433   15.4023  -36.7482 H   0  0  0  0  0  0  0  0  0  0  0  0
   -0.5809   14.2332  -35.8973 H   0  0  0  0  0  0  0  0  0  0  0  0
   -2.5870   14.1430  -35.4110 O   0  0  0  0  0  0  0  0  0  0  0  0
   -3.8510   14.6750  -35.5290 N   0  0  0  0  0  0  0  0  0  0  0  0
   -4.3540   15.4200  -34.5940 C   0  0  0  0  0  0  0  0  0  0  0  0
   -4.1640   16.8870  -34.5160 C   0  0  0  0  0  0  0  0  0  0  0  0
   -3.1082   17.1374  -34.3357 H   0  0  0  0  0  0  0  0  0  0  0  0
   -4.4395   17.4041  -35.4470 H   0  0  0  0  0  0  0  0  0  0  0  0
   -4.9900   17.2780  -33.3870 N   0  0  0  0  0  0  0  0  0  0  0  0
   -5.2090   18.6480  -33.0130 C   0  0  0  0  0  0  0  0  0  0  0  0
   -6.5020   19.1920  -33.0310 C   0  0  0  0  0  0  0  0  0  0  0  0
   -7.5590   18.4530  -33.4500 F   0  0  0  0  0  0  0  0  0  0  0  0
   -6.7110   20.5140  -32.6410 C   0  0  0  0  0  0  0  0  0  0  0  0
   -7.7291   20.9301  -32.6563 H   0  0  0  0  0  0  0  0  0  0  0  0
   -5.6360   21.3230  -32.2280 C   0  0  0  0  0  0  0  0  0  0  0  0
   -5.8510   22.6440  -31.7960 C   0  0  0  0  0  0  0  0  0  0  0  0
   -7.0200   23.1250  -31.8050 O   0  0  0  0  0  0  0  0  0  0  0  0
   -4.7700   23.4200  -31.3430 C   0  0  0  0  0  0  0  0  0  0  0  0
   -4.9520   24.8110  -30.8460 C   0  0  0  0  0  0  0  0  0  0  0  0
   -6.1040   25.2480  -30.5810 O   0  0  0  0  0  0  0  0  0  0  0  0
   -3.8630   25.6550  -30.6580 O   0  0  0  0  0  0  0  0  0  0  0  0
   -3.4860   22.8540  -31.3610 C   0  0  0  0  0  0  0  0  0  0  0  0
   -2.6380   23.4391  -30.9755 H   0  0  0  0  0  0  0  0  0  0  0  0
   -3.2600   21.5940  -31.8450 N   0  0  0  0  0  0  0  0  0  0  0  0
   -1.8720   21.0900  -31.8370 C   0  0  0  0  0  0  0  0  0  0  0  0
   -1.8515   20.7859  -32.8939 H   0  0  0  0  0  0  0  0  0  0  0  0
   -1.4100   20.4550  -30.5250 C   0  0  0  0  0  0  0  0  0  0  0  0
   -2.1244   20.3157  -29.7002 H   0  0  0  0  0  0  0  0  0  0  0  0
   -0.9093   19.5148  -30.2507 H   0  0  0  0  0  0  0  0  0  0  0  0
   -0.9430   21.8480  -30.8950 C   0  0  0  0  0  0  0  0  0  0  0  0
   -1.3181   22.7189  -30.3374 H   0  0  0  0  0  0  0  0  0  0  0  0
    0.0378   22.3350  -30.9989 H   0  0  0  0  0  0  0  0  0  0  0  0
   -4.3170   20.7970  -32.2300 C   0  0  0  0  0  0  0  0  0  0  0  0
   -4.1300   19.4480  -32.6120 C   0  0  0  0  0  0  0  0  0  0  0  0
   -3.1177   19.0181  -32.5940 H   0  0  0  0  0  0  0  0  0  0  0  0
   -5.6700   16.1530  -32.7480 C   0  0  0  0  0  0  0  0  0  0  0  0
   -5.3671   16.0752  -31.6934 H   0  0  0  0  0  0  0  0  0  0  0  0
   -6.7620   16.2834  -32.7708 H   0  0  0  0  0  0  0  0  0  0  0  0
   -5.2430   14.8870  -33.5200 C   0  0  2  0  0  0  0  0  0  0  0  0
   -6.1098   14.3286  -33.9031 H   0  0  0  0  0  0  0  0  0  0  0  0
   -4.4960   13.8680  -32.6340 C   0  0  0  0  0  0  0  0  0  0  0  0
   -4.1776   14.3662  -31.7064 H   0  0  0  0  0  0  0  0  0  0  0  0
   -5.1791   13.0340  -32.4151 H   0  0  0  0  0  0  0  0  0  0  0  0
   -3.3160   13.3300  -33.3150 N   0  0  0  0  0  0  0  0  0  0  0  0
   -3.6280   12.7220  -34.1070 H   0  0  0  0  0  0  0  0  0  0  0  0
   -2.7530   12.7510  -32.6490 H   0  0  0  0  0  0  0  0  0  0  0  0
   -2.7250   14.1030  -33.6970 H   0  0  0  0  0  0  0  0  0  0  0  0
   -1.0040   15.5450  -33.3830 C   0  0  0  0  0  0  0  0  0  0  0  0
   -1.0860   14.1810  -33.0510 O   0  0  0  0  0  0  0  0  0  0  0  0
   -0.1940   13.5110  -32.1670 C   0  0  0  0  0  0  0  0  0  0  0  0
   -0.4792   13.7252  -31.1264 H   0  0  0  0  0  0  0  0  0  0  0  0
   -0.2461   12.4269  -32.3457 H   0  0  0  0  0  0  0  0  0  0  0  0
    0.8327   13.8631  -32.3457 H   0  0  0  0  0  0  0  0  0  0  0  0
   -0.7690   16.5340  -32.4070 C   0  0  0  0  0  0  0  0  0  0  0  0
   -0.6303   16.2422  -31.3555 H   0  0  0  0  0  0  0  0  0  0  0  0
  1  2  1  0
  2  3  2  0
  3  4  1  0
  3  5  1  0
  5  6  1  0
  5  7  2  0
  7  8  1  0
  8  9  1  0
  8 10  1  0
  8 11  1  0
 11 12  1  0
 12 13  2  0
 13 14  1  0
 14 15  1  0
 14 16  1  0
 14 17  1  0
 17 18  1  0
 18 19  2  0
 19 20  1  0
 19 21  1  0
 21 22  1  0
 21 23  2  0
 23 24  1  0
 24 25  2  0
 24 26  1  0
 26 27  1  0
 27 28  2  0
 27 29  1  0
 26 30  2  0
 30 31  1  0
 30 32  1  0
 32 33  1  0
 33 34  1  0
 33 35  1  0
 35 36  1  0
 35 37  1  0
 35 38  1  0
 38 39  1  0
 38 40  1  0
 32 41  1  0
 41 42  2  0
 42 43  1  0
 17 44  1  0
 44 45  1  0
 44 46  1  0
 44 47  1  0
 47 48  1  6
 47 49  1  0
 49 50  1  0
 49 51  1  0
 49 52  1  0
 52 53  1  0
 52 54  1  0
 52 55  1  0
  7 56  1  0
 56 57  1  0
 57 58  1  0
 58 59  1  0
 58 60  1  0
 58 61  1  0
 56 62  2  0
 62 63  1  0
 62  2  1  0
 47 13  1  0
 42 18  1  0
 41 23  1  0
 38 33  1  0
M  CHG  2  29  -1  52   1
M  END
>  <UniqueID>  (9) 
9

>  <SMILES>  (9) 
COc1ccccc1CO/N=C1\CN(c2cc3c(cc2F)c(=O)c(C(=O)[O-])cn3C2CC2)C[C@@H]1C[NH3+]

>  <Energy>  (9) 
343.9978379687519

>  <Genealogy>  (9) 
COc1ccccc1CON=C1CN(c2cc3c(cc2F)c(=O)c(C(=O)[O-])cn3C2CC2)CC1C[NH3+] (protonated)
COc1ccccc1CON=C1CN(c2cc3c(cc2F)c(=O)c(C(=O)[O-])cn3C2CC2)C[C@@H]1C[NH3+] (chirality)
COc1ccccc1CO/N=C1\CN(c2cc3c(cc2F)c(=O)c(C(=O)[O-])cn3C2CC2)C[C@@H]1C[NH3+] (cis-trans isomerization)
COc1ccccc1CO/N=C1\CN(c2cc3c(cc2F)c(=O)c(C(=O)[O-])cn3C2CC2)C[C@@H]1C[NH3+] (3D coordinates assigned)
COc1ccccc1CO/N=C1\CN(c2cc3c(cc2F)c(=O)c(C(=O)[O-])cn3C2CC2)C[C@@H]1C[NH3+] (nonaromatic ring conformer: 343.9978379687519 kcal/mol)

>  <smiles>  (9) 
COc1ccccc1CON=C1CN(c2cc3c(cc2F)c(=O)c(C(=O)O)cn3C2CC2)CC1CN

>  <score_type>  (9) 
oracle

>  <origin>  (9) 
adg

>  <m_score__min__energy>  (9) 
-8

>  <m_primary>  (9) 
energy

$$$$
9:0
     RDKit          3D

 51 54  0  0  0  0  0  0  0  0999 V2000
   -0.1560   22.8610  -26.8390 C   0  0  0  0  0  0  0  0  0  0  0  0
   -1.2000   23.8930  -26.7990 N   0  0  0  0  0  0  0  0  0  0  0  0
   -1.1100   24.9570  -25.7930 C   0  0  0  0  0  0  0  0  0  0  0  0
   -2.3100   23.8500  -27.7320 C   0  0  0  0  0  0  0  0  0  0  0  0
   -2.1190   24.1480  -29.0970 C   0  0  0  0  0  0  0  0  0  0  0  0
   -3.1960   24.1340  -29.9880 C   0  0  0  0  0  0  0  0  0  0  0  0
   -4.4830   23.8250  -29.5360 C   0  0  0  0  0  0  0  0  0  0  0  0
   -5.8330   23.8560  -30.6640 S   0  0  0  0  0  0  0  0  0  0  0  0
   -5.4350   24.5270  -31.9470 O   0  0  0  0  0  0  0  0  0  0  0  0
   -6.9170   24.6840  -30.0300 O   0  0  0  0  0  0  0  0  0  0  0  0
   -6.4540   22.2300  -31.0230 C   0  0  0  0  0  0  0  0  0  0  0  0
   -7.8140   21.9800  -30.7860 C   0  0  0  0  0  0  0  0  0  0  0  0
   -8.3650   20.7820  -31.0980 N   0  0  0  0  0  0  0  0  0  0  0  0
   -7.6440   19.7810  -31.6600 C   0  0  0  0  0  0  0  0  0  0  0  0
   -8.2700   18.5690  -31.9800 C   0  0  0  0  0  0  0  0  0  0  0  0
   -9.5880   18.3870  -31.7150 F   0  0  0  0  0  0  0  0  0  0  0  0
   -7.5390   17.5410  -32.5800 C   0  0  0  0  0  0  0  0  0  0  0  0
   -6.1860   17.7190  -32.8690 C   0  0  0  0  0  0  0  0  0  0  0  0
   -5.5510   18.9230  -32.5530 C   0  0  0  0  0  0  0  0  0  0  0  0
   -6.2690   19.9670  -31.9320 C   0  0  0  0  0  0  0  0  0  0  0  0
   -5.6600   21.1980  -31.5870 C   0  0  0  0  0  0  0  0  0  0  0  0
   -4.2460   21.3720  -31.7970 N   0  0  0  0  0  0  0  0  0  0  0  0
   -3.3380   21.0710  -30.6740 C   0  0  0  0  0  0  0  0  0  0  0  0
   -1.8710   20.9630  -31.1060 C   0  0  0  0  0  0  0  0  0  0  0  0
   -1.5780   21.8500  -32.1620 O   0  0  0  0  0  0  0  0  0  0  0  0
   -2.2700   21.4280  -33.3150 C   0  0  0  0  0  0  0  0  0  0  0  0
   -3.7740   21.6620  -33.1590 C   0  0  0  0  0  0  0  0  0  0  0  0
   -4.6800   23.4970  -28.1900 C   0  0  0  0  0  0  0  0  0  0  0  0
   -3.6090   23.5160  -27.2950 C   0  0  0  0  0  0  0  0  0  0  0  0
    0.1248   22.5835  -25.8123 H   0  0  0  0  0  0  0  0  0  0  0  0
   -0.5368   21.9745  -27.3673 H   0  0  0  0  0  0  0  0  0  0  0  0
    0.7260   23.2520  -27.3673 H   0  0  0  0  0  0  0  0  0  0  0  0
   -1.1474   24.5143  -24.7867 H   0  0  0  0  0  0  0  0  0  0  0  0
   -0.1626   25.5015  -25.9190 H   0  0  0  0  0  0  0  0  0  0  0  0
   -1.9525   25.6530  -25.9190 H   0  0  0  0  0  0  0  0  0  0  0  0
   -1.1118   24.3941  -29.4645 H   0  0  0  0  0  0  0  0  0  0  0  0
   -3.0304   24.3672  -31.0502 H   0  0  0  0  0  0  0  0  0  0  0  0
   -8.4411   22.7667  -30.3412 H   0  0  0  0  0  0  0  0  0  0  0  0
   -8.0316   16.5885  -32.8253 H   0  0  0  0  0  0  0  0  0  0  0  0
   -5.6167   16.9085  -33.3475 H   0  0  0  0  0  0  0  0  0  0  0  0
   -4.4853   19.0577  -32.7897 H   0  0  0  0  0  0  0  0  0  0  0  0
   -3.4258   21.8735  -29.9268 H   0  0  0  0  0  0  0  0  0  0  0  0
   -3.6339   20.0947  -30.2626 H   0  0  0  0  0  0  0  0  0  0  0  0
   -1.2267   21.2036  -30.2475 H   0  0  0  0  0  0  0  0  0  0  0  0
   -1.6884   19.9363  -31.4561 H   0  0  0  0  0  0  0  0  0  0  0  0
   -1.9044   21.9955  -34.1835 H   0  0  0  0  0  0  0  0  0  0  0  0
   -2.0926   20.3521  -33.4600 H   0  0  0  0  0  0  0  0  0  0  0  0
   -3.9944   22.7139  -33.3932 H   0  0  0  0  0  0  0  0  0  0  0  0
   -4.2937   20.9795  -33.8475 H   0  0  0  0  0  0  0  0  0  0  0  0
   -5.6844   23.2227  -27.8352 H   0  0  0  0  0  0  0  0  0  0  0  0
   -3.7799   23.2677  -26.2371 H   0  0  0  0  0  0  0  0  0  0  0  0
  1  2  1  0
  2  3  1  0
  2  4  1  0
  4  5  2  0
  5  6  1  0
  6  7  2  0
  7  8  1  0
  8  9  2  0
  8 10  2  0
  8 11  1  0
 11 12  2  0
 12 13  1  0
 13 14  2  0
 14 15  1  0
 15 16  1  0
 15 17  2  0
 17 18  1  0
 18 19  2  0
 19 20  1  0
 20 21  2  0
 21 22  1  0
 22 23  1  0
 23 24  1  0
 24 25  1  0
 25 26  1  0
 26 27  1  0
  7 28  1  0
 28 29  2  0
 29  4  1  0
 21 11  1  0
 27 22  1  0
 20 14  1  0
  1 30  1  0
  1 31  1  0
  1 32  1  0
  3 33  1  0
  3 34  1  0
  3 35  1  0
  5 36  1  0
  6 37  1  0
 12 38  1  0
 17 39  1  0
 18 40  1  0
 19 41  1  0
 23 42  1  0
 23 43  1  0
 24 44  1  0
 24 45  1  0
 26 46  1  0
 26 47  1  0
 27 48  1  0
 27 49  1  0
 28 50  1  0
 29 51  1  0
M  END
>  <UniqueID>  (10) 
10

>  <SMILES>  (10) 
CN(C)c1ccc(S(=O)(=O)c2cnc3c(F)cccc3c2N2CCOCC2)cc1

>  <Energy>  (10) 
70.73671075440191

>  <Genealogy>  (10) 
CN(C)c1ccc(S(=O)(=O)c2cnc3c(F)cccc3c2N2CCOCC2)cc1 (3D coordinates assigned)
CN(C)c1ccc(S(=O)(=O)c2cnc3c(F)cccc3c2N2CCOCC2)cc1 (nonaromatic ring conformer: 70.73671075440191 kcal/mol)

>  <smiles>  (10) 
CN(C)c1ccc(S(=O)(=O)c2cnc3c(F)cccc3c2N2CCOCC2)cc1

>  <score_type>  (10) 
oracle

>  <origin>  (10) 
adg

>  <m_score__min__energy>  (10) 
-8.8699999999999992

>  <m_primary>  (10) 
energy

$$$$
10:0
     RDKit          3D

 56 57  0  0  0  0  0  0  0  0999 V2000
   -5.2090   18.5090  -34.0400 C   0  0  0  0  0  0  0  0  0  0  0  0
   -5.4410   19.7360  -33.1620 C   0  0  0  0  0  0  0  0  0  0  0  0
   -6.7930   20.3950  -33.4740 C   0  0  0  0  0  0  0  0  0  0  0  0
   -7.3900   21.0040  -32.2640 N   0  0  0  0  0  0  0  0  0  0  0  0
   -8.7930   20.6160  -31.9620 C   0  0  0  0  0  0  0  0  0  0  0  0
   -9.1260   19.1140  -32.1150 C   0  0  0  0  0  0  0  0  0  0  0  0
   -8.0300   18.1830  -31.6020 C   0  0  0  0  0  0  0  0  0  0  0  0
   -7.1310   22.4580  -32.1570 C   0  0  0  0  0  0  0  0  0  0  0  0
   -7.2550   22.9110  -30.6980 C   0  0  0  0  0  0  0  0  0  0  0  0
   -6.8440   24.3760  -30.5070 C   0  0  0  0  0  0  0  0  0  0  0  0
   -5.8160   24.4850  -29.4730 N   0  0  0  0  0  0  0  0  0  0  0  0
   -4.4120   24.5150  -29.7840 C   0  0  0  0  0  0  0  0  0  0  0  0
   -4.0410   24.5450  -30.9900 O   0  0  0  0  0  0  0  0  0  0  0  0
   -3.3890   24.5230  -28.7110 C   0  0  0  0  0  0  0  0  0  0  0  0
   -3.7880   24.5560  -27.3630 C   0  0  0  0  0  0  0  0  0  0  0  0
   -2.8400   24.5680  -26.3370 C   0  0  0  0  0  0  0  0  0  0  0  0
   -1.4680   24.5530  -26.6430 C   0  0  0  0  0  0  0  0  0  0  0  0
   -0.4740   24.5660  -25.6470 C   0  0  0  0  0  0  0  0  0  0  0  0
   -0.8060   24.5950  -24.4280 O   0  0  0  0  0  0  0  0  0  0  0  0
    0.8520   24.5490  -26.0020 N   0  0  0  0  0  0  0  0  0  0  0  0
    1.9110   24.5880  -24.9800 C   0  0  0  0  0  0  0  0  0  0  0  0
    1.9720   25.9640  -24.3270 C   0  0  0  0  0  0  0  0  0  0  0  0
    1.2060   24.5470  -27.3220 C   0  0  0  0  0  0  0  0  0  0  0  0
    0.2590   24.5360  -28.2940 N   0  0  0  0  0  0  0  0  0  0  0  0
   -1.0610   24.5340  -27.9890 C   0  0  0  0  0  0  0  0  0  0  0  0
   -2.0150   24.5230  -29.0140 C   0  0  0  0  0  0  0  0  0  0  0  0
   -5.0425   17.6282  -33.4025 H   0  0  0  0  0  0  0  0  0  0  0  0
   -6.0912   18.3405  -34.6751 H   0  0  0  0  0  0  0  0  0  0  0  0
   -4.3262   18.6742  -34.6751 H   0  0  0  0  0  0  0  0  0  0  0  0
   -5.4267   19.4292  -32.1057 H   0  0  0  0  0  0  0  0  0  0  0  0
   -4.6430   20.4654  -33.3650 H   0  0  0  0  0  0  0  0  0  0  0  0
   -6.6429   21.1781  -34.2317 H   0  0  0  0  0  0  0  0  0  0  0  0
   -7.4787   19.6188  -33.8447 H   0  0  0  0  0  0  0  0  0  0  0  0
   -9.0060   20.9042  -30.9220 H   0  0  0  0  0  0  0  0  0  0  0  0
   -9.4127   21.1358  -32.7076 H   0  0  0  0  0  0  0  0  0  0  0  0
  -10.0489   18.9048  -31.5543 H   0  0  0  0  0  0  0  0  0  0  0  0
   -9.2334   18.9184  -33.1921 H   0  0  0  0  0  0  0  0  0  0  0  0
   -8.0324   18.1850  -30.5020 H   0  0  0  0  0  0  0  0  0  0  0  0
   -8.2155   17.1621  -31.9672 H   0  0  0  0  0  0  0  0  0  0  0  0
   -7.0525   18.5311  -31.9672 H   0  0  0  0  0  0  0  0  0  0  0  0
   -6.1152   22.6739  -32.5196 H   0  0  0  0  0  0  0  0  0  0  0  0
   -7.8697   23.0002  -32.7655 H   0  0  0  0  0  0  0  0  0  0  0  0
   -8.3008   22.7924  -30.3783 H   0  0  0  0  0  0  0  0  0  0  0  0
   -6.5775   22.2897  -30.0938 H   0  0  0  0  0  0  0  0  0  0  0  0
   -6.4476   24.7681  -31.4552 H   0  0  0  0  0  0  0  0  0  0  0  0
   -7.7253   24.9570  -30.1974 H   0  0  0  0  0  0  0  0  0  0  0  0
   -6.1350   24.5670  -28.4820 H   0  0  0  0  0  0  0  0  0  0  0  0
   -4.8592   24.5726  -27.1135 H   0  0  0  0  0  0  0  0  0  0  0  0
   -3.1679   24.5892  -25.2872 H   0  0  0  0  0  0  0  0  0  0  0  0
    1.6994   23.8311  -24.2104 H   0  0  0  0  0  0  0  0  0  0  0  0
    2.8779   24.3793  -25.4613 H   0  0  0  0  0  0  0  0  0  0  0  0
    1.9670   25.8511  -23.2328 H   0  0  0  0  0  0  0  0  0  0  0  0
    2.8938   26.4771  -24.6385 H   0  0  0  0  0  0  0  0  0  0  0  0
    1.0992   26.5567  -24.6385 H   0  0  0  0  0  0  0  0  0  0  0  0
    2.2703   24.5544  -27.5997 H   0  0  0  0  0  0  0  0  0  0  0  0
   -1.6877   24.5143  -30.0641 H   0  0  0  0  0  0  0  0  0  0  0  0
  1  2  1  0
  2  3  1  0
  3  4  1  0
  4  5  1  0
  5  6  1  0
  6  7  1  0
  4  8  1  0
  8  9  1  0
  9 10  1  0
 10 11  1  0
 11 12  1  0
 12 13  2  0
 12 14  1  0
 14 15  2  0
 15 16  1  0
 16 17  2  0
 17 18  1  0
 18 19  2  0
 18 20  1  0
 20 21  1  0
 21 22  1  0
 20 23  1  0
 23 24  2  0
 24 25  1  0
 25 26  2  0
 26 14  1  0
 25 17  1  0
  1 27  1  0
  1 28  1  0
  1 29  1  0
  2 30  1  0
  2 31  1  0
  3 32  1  0
  3 33  1  0
  5 34  1  0
  5 35  1  0
  6 36  1  0
  6 37  1  0
  7 38  1  0
  7 39  1  0
  7 40  1  0
  8 41  1  0
  8 42  1  0
  9 43  1  0
  9 44  1  0
 10 45  1  0
 10 46  1  0
 11 47  1  0
 15 48  1  0
 16 49  1  0
 21 50  1  0
 21 51  1  0
 22 52  1  0
 22 53  1  0
 22 54  1  0
 23 55  1  0
 26 56  1  0
M  END
>  <UniqueID>  (11) 
11

>  <SMILES>  (11) 
CCCN(CCC)CCCNC(=O)c1ccc2c(=O)n(CC)cnc2c1

>  <Energy>  (11) 
56.77125283303174

>  <Genealogy>  (11) 
CCCN(CCC)CCCNC(=O)c1ccc2c(=O)n(CC)cnc2c1 (3D coordinates assigned)
CCCN(CCC)CCCNC(=O)c1ccc2c(=O)n(CC)cnc2c1 (optimized conformer: 56.77125283303174 kcal/mol)

>  <smiles>  (11) 
CCCN(CCC)CCCNC(=O)c1ccc2c(=O)n(CC)cnc2c1

>  <score_type>  (11) 
oracle

>  <origin>  (11) 
adg

>  <m_score__min__energy>  (11) 
-7.9400000000000004

>  <m_primary>  (11) 
energy

$$$$
11:0
     RDKit          3D

 50 52  0  0  0  0  0  0  0  0999 V2000
   -8.8880   22.5580  -31.9550 C   0  0  0  0  0  0  0  0  0  0  0  0
   -7.8800   21.7190  -32.5100 O   0  0  0  0  0  0  0  0  0  0  0  0
   -7.8640   20.3170  -32.4120 C   0  0  0  0  0  0  0  0  0  0  0  0
   -8.8630   19.6150  -31.7070 C   0  0  0  0  0  0  0  0  0  0  0  0
   -8.8230   18.2220  -31.6210 C   0  0  0  0  0  0  0  0  0  0  0  0
   -7.7890   17.5120  -32.2320 C   0  0  0  0  0  0  0  0  0  0  0  0
   -6.7930   18.1930  -32.9330 C   0  0  0  0  0  0  0  0  0  0  0  0
   -6.8210   19.5940  -33.0320 C   0  0  0  0  0  0  0  0  0  0  0  0
   -5.7140   20.2930  -33.7860 C   0  0  0  0  0  0  0  0  0  0  0  0
   -4.5760   20.5730  -32.8840 N   0  0  0  0  0  0  0  0  0  0  0  0
   -4.8920   20.3260  -31.4520 C   0  0  0  0  0  0  0  0  0  0  0  0
   -5.0070   21.6150  -30.6140 C   0  0  0  0  0  0  0  0  0  0  0  0
   -5.6690   22.6820  -31.3900 N   0  0  0  0  0  0  0  0  0  0  0  0
   -5.9140   23.8490  -30.5600 C   0  0  0  0  0  0  0  0  0  0  0  0
   -6.6500   23.7540  -29.5870 O   0  0  0  0  0  0  0  0  0  0  0  0
   -5.2920   25.1890  -30.8560 C   0  0  0  0  0  0  0  0  0  0  0  0
   -3.9120   25.1520  -30.5010 O   0  0  0  0  0  0  0  0  0  0  0  0
   -3.3500   24.2370  -29.5990 C   0  0  0  0  0  0  0  0  0  0  0  0
   -2.3640   23.3610  -30.0690 C   0  0  0  0  0  0  0  0  0  0  0  0
   -1.7720   22.4320  -29.2070 C   0  0  0  0  0  0  0  0  0  0  0  0
   -2.1610   22.3720  -27.8660 C   0  0  0  0  0  0  0  0  0  0  0  0
   -1.4180   21.2060  -26.7860 Cl  0  0  0  0  0  0  0  0  0  0  0  0
   -3.1450   23.2420  -27.3870 C   0  0  0  0  0  0  0  0  0  0  0  0
   -3.7390   24.1730  -28.2460 C   0  0  0  0  0  0  0  0  0  0  0  0
   -4.9190   23.0430  -32.6210 C   0  0  0  0  0  0  0  0  0  0  0  0
   -3.9960   21.9100  -33.1190 C   0  0  0  0  0  0  0  0  0  0  0  0
   -8.8369   22.5155  -30.8570 H   0  0  0  0  0  0  0  0  0  0  0  0
   -8.7283   23.5936  -32.2896 H   0  0  0  0  0  0  0  0  0  0  0  0
   -9.8774   22.2130  -32.2896 H   0  0  0  0  0  0  0  0  0  0  0  0
   -9.6799   20.1688  -31.2212 H   0  0  0  0  0  0  0  0  0  0  0  0
   -9.6083   17.6833  -31.0704 H   0  0  0  0  0  0  0  0  0  0  0  0
   -7.7589   16.4147  -32.1611 H   0  0  0  0  0  0  0  0  0  0  0  0
   -5.9795   17.6283  -33.4119 H   0  0  0  0  0  0  0  0  0  0  0  0
   -5.3737   19.6491  -34.6104 H   0  0  0  0  0  0  0  0  0  0  0  0
   -6.0974   21.2440  -34.1842 H   0  0  0  0  0  0  0  0  0  0  0  0
   -5.8495   19.7876  -31.3950 H   0  0  0  0  0  0  0  0  0  0  0  0
   -4.0585   19.7427  -31.0337 H   0  0  0  0  0  0  0  0  0  0  0  0
   -5.5972   21.4066  -29.7094 H   0  0  0  0  0  0  0  0  0  0  0  0
   -3.9961   21.9511  -30.3399 H   0  0  0  0  0  0  0  0  0  0  0  0
   -6.6040   22.3080  -31.6830 H   0  0  0  0  0  0  0  0  0  0  0  0
   -5.3904   25.4118  -31.9287 H   0  0  0  0  0  0  0  0  0  0  0  0
   -5.8030   25.9709  -30.2750 H   0  0  0  0  0  0  0  0  0  0  0  0
   -2.0528   23.4037  -31.1232 H   0  0  0  0  0  0  0  0  0  0  0  0
   -0.9987   21.7473  -29.5854 H   0  0  0  0  0  0  0  0  0  0  0  0
   -3.4530   23.1944  -26.3321 H   0  0  0  0  0  0  0  0  0  0  0  0
   -4.5116   24.8567  -27.8643 H   0  0  0  0  0  0  0  0  0  0  0  0
   -5.6422   23.2806  -33.4151 H   0  0  0  0  0  0  0  0  0  0  0  0
   -4.2801   23.9044  -32.3764 H   0  0  0  0  0  0  0  0  0  0  0  0
   -3.8285   22.0385  -34.1986 H   0  0  0  0  0  0  0  0  0  0  0  0
   -3.0526   21.9719  -32.5568 H   0  0  0  0  0  0  0  0  0  0  0  0
  1  2  1  0
  2  3  1  0
  3  4  2  0
  4  5  1  0
  5  6  2  0
  6  7  1  0
  7  8  2  0
  8  9  1  0
  9 10  1  0
 10 11  1  0
 11 12  1  0
 12 13  1  0
 13 14  1  0
 14 15  2  0
 14 16  1  0
 16 17  1  0
 17 18  1  0
 18 19  2  0
 19 20  1  0
 20 21  2  0
 21 22  1  0
 21 23  1  0
 23 24  2  0
 13 25  1  0
 25 26  1  0
  8  3  1  0
 26 10  1  0
 24 18  1  0
  1 27  1  0
  1 28  1  0
  1 29  1  0
  4 30  1  0
  5 31  1  0
  6 32  1  0
  7 33  1  0
  9 34  1  0
  9 35  1  0
 11 36  1  0
 11 37  1  0
 12 38  1  0
 12 39  1  0
 13 40  1  0
 16 41  1  0
 16 42  1  0
 19 43  1  0
 20 44  1  0
 23 45  1  0
 24 46  1  0
 25 47  1  0
 25 48  1  0
 26 49  1  0
 26 50  1  0
M  CHG  1  13   1
M  END
>  <UniqueID>  (12) 
12

>  <SMILES>  (12) 
COc1ccccc1CN1CC[NH+](C(=O)COc2ccc(Cl)cc2)CC1

>  <Energy>  (12) 
64.07650995337535

>  <Genealogy>  (12) 
COc1ccccc1CN1CC[NH+](C(=O)COc2ccc(Cl)cc2)CC1 (protonated)
COc1ccccc1CN1CC[NH+](C(=O)COc2ccc(Cl)cc2)CC1 (3D coordinates assigned)
COc1ccccc1CN1CC[NH+](C(=O)COc2ccc(Cl)cc2)CC1 (nonaromatic ring conformer: 64.07650995337535 kcal/mol)

>  <smiles>  (12) 
COc1ccccc1CN1CCN(C(=O)COc2ccc(Cl)cc2)CC1

>  <score_type>  (12) 
oracle

>  <origin>  (12) 
adg

>  <m_score__min__energy>  (12) 
-7.9199999999999999

>  <m_primary>  (12) 
energy

$$$$
12:0
     RDKit          3D

 63 67  0  0  0  0  0  0  0  0999 V2000
   -1.7620   24.8950  -28.4490 C   0  0  0  0  0  0  0  0  0  0  0  0
   -2.4580   24.4090  -27.1720 C   0  0  0  0  0  0  0  0  0  0  0  0
   -1.6390   23.5010  -26.3350 N   0  0  0  0  0  0  0  0  0  0  0  0
   -0.8120   24.1680  -25.3000 C   0  0  0  0  0  0  0  0  0  0  0  0
   -1.2110   25.6190  -24.9960 C   0  0  0  0  0  0  0  0  0  0  0  0
   -1.0040   22.3680  -27.0430 C   0  0  0  0  0  0  0  0  0  0  0  0
   -1.3500   21.0280  -26.3850 C   0  0  0  0  0  0  0  0  0  0  0  0
   -2.4180   20.0490  -27.4320 S   0  0  0  0  0  0  0  0  0  0  0  0
   -3.8650   19.6500  -26.6740 O   0  0  0  0  0  0  0  0  0  0  0  0
   -2.7190   20.8570  -28.9520 C   0  0  0  0  0  0  0  0  0  0  0  0
   -3.5470   21.9330  -28.9970 N   0  0  0  0  0  0  0  0  0  0  0  0
   -3.7920   22.5910  -30.1610 C   0  0  0  0  0  0  0  0  0  0  0  0
   -4.6640   23.7810  -30.1310 C   0  0  0  0  0  0  0  0  0  0  0  0
   -5.7170   23.9610  -29.3040 N   0  0  0  0  0  0  0  0  0  0  0  0
   -6.2310   25.1500  -29.6590 C   0  0  0  0  0  0  0  0  0  0  0  0
   -5.4680   25.6600  -30.6850 C   0  0  0  0  0  0  0  0  0  0  0  0
   -4.5130   24.8000  -30.9500 O   0  0  0  0  0  0  0  0  0  0  0  0
   -3.1760   22.1480  -31.3390 C   0  0  0  0  0  0  0  0  0  0  0  0
   -2.3390   21.0260  -31.2790 C   0  0  0  0  0  0  0  0  0  0  0  0
   -1.6050   20.5470  -32.5040 C   0  0  2  0  0  0  0  0  0  0  0  0
   -2.0590   21.1880  -33.8150 C   0  0  0  0  0  0  0  0  0  0  0  0
   -2.3820   19.7250  -33.5390 C   0  0  2  0  0  0  0  0  0  0  0  0
   -3.8200   19.3810  -33.2320 C   0  0  0  0  0  0  0  0  0  0  0  0
   -4.7470   20.3350  -32.9910 N   0  0  0  0  0  0  0  0  0  0  0  0
   -5.9790   19.8220  -32.7120 C   0  0  0  0  0  0  0  0  0  0  0  0
   -7.1190   20.7120  -32.3570 C   0  0  0  0  0  0  0  0  0  0  0  0
   -8.4190   20.1760  -32.2420 C   0  0  0  0  0  0  0  0  0  0  0  0
   -9.5160   21.0070  -31.9820 C   0  0  0  0  0  0  0  0  0  0  0  0
   -9.3340   22.3830  -31.8260 C   0  0  0  0  0  0  0  0  0  0  0  0
   -8.0510   22.9270  -31.9160 C   0  0  0  0  0  0  0  0  0  0  0  0
   -6.9480   22.1010  -32.1770 C   0  0  0  0  0  0  0  0  0  0  0  0
   -6.0370   18.4230  -32.7430 C   0  0  0  0  0  0  0  0  0  0  0  0
   -4.5010   17.8440  -33.1100 S   0  0  0  0  0  0  0  0  0  0  0  0
   -2.1130   20.4200  -30.0850 N   0  0  0  0  0  0  0  0  0  0  0  0
   -0.8875   25.5057  -28.1802 H   0  0  0  0  0  0  0  0  0  0  0  0
   -1.4354   24.0276  -29.0414 H   0  0  0  0  0  0  0  0  0  0  0  0
   -2.4638   25.5004  -29.0414 H   0  0  0  0  0  0  0  0  0  0  0  0
   -2.7216   25.2895  -26.5677 H   0  0  0  0  0  0  0  0  0  0  0  0
   -3.3366   23.8309  -27.4944 H   0  0  0  0  0  0  0  0  0  0  0  0
   -0.8948   23.5878  -24.3691 H   0  0  0  0  0  0  0  0  0  0  0  0
    0.2129   24.2048  -25.6978 H   0  0  0  0  0  0  0  0  0  0  0  0
   -1.2518   25.7675  -23.9068 H   0  0  0  0  0  0  0  0  0  0  0  0
   -0.4675   26.3027  -25.4317 H   0  0  0  0  0  0  0  0  0  0  0  0
   -2.1995   25.8264  -25.4317 H   0  0  0  0  0  0  0  0  0  0  0  0
   -1.3559   22.3556  -28.0851 H   0  0  0  0  0  0  0  0  0  0  0  0
    0.0869   22.5020  -26.9989 H   0  0  0  0  0  0  0  0  0  0  0  0
   -0.4208   20.4696  -26.1984 H   0  0  0  0  0  0  0  0  0  0  0  0
   -1.8779   21.2299  -25.4413 H   0  0  0  0  0  0  0  0  0  0  0  0
   -3.6570   19.6590  -25.7050 H   0  0  0  0  0  0  0  0  0  0  0  0
   -6.0770   23.3290  -28.5570 H   0  0  0  0  0  0  0  0  0  0  0  0
   -7.1102   25.6330  -29.2076 H   0  0  0  0  0  0  0  0  0  0  0  0
   -5.6306   26.6214  -31.1942 H   0  0  0  0  0  0  0  0  0  0  0  0
   -3.3461   22.6707  -32.2918 H   0  0  0  0  0  0  0  0  0  0  0  0
   -0.6529   20.3986  -31.9734 H   0  0  0  0  0  0  0  0  0  0  0  0
   -2.8633   21.9384  -33.8097 H   0  0  0  0  0  0  0  0  0  0  0  0
   -1.5556   21.7315  -34.6282 H   0  0  0  0  0  0  0  0  0  0  0  0
   -2.2069   18.7733  -34.0620 H   0  0  0  0  0  0  0  0  0  0  0  0
   -8.5728   19.0930  -32.3579 H   0  0  0  0  0  0  0  0  0  0  0  0
  -10.5242   20.5746  -31.9004 H   0  0  0  0  0  0  0  0  0  0  0  0
  -10.1981   23.0358  -31.6330 H   0  0  0  0  0  0  0  0  0  0  0  0
   -7.9047   24.0089  -31.7815 H   0  0  0  0  0  0  0  0  0  0  0  0
   -5.9413   22.5396  -32.2419 H   0  0  0  0  0  0  0  0  0  0  0  0
   -6.9314   17.8096  -32.5593 H   0  0  0  0  0  0  0  0  0  0  0  0
  1  2  1  0
  2  3  1  0
  3  4  1  0
  4  5  1  0
  3  6  1  0
  6  7  1  0
  7  8  1  0
  8  9  1  1
  8 10  1  0
 10 11  2  0
 11 12  1  0
 12 13  1  0
 13 14  2  0
 14 15  1  0
 15 16  2  0
 16 17  1  0
 12 18  2  0
 18 19  1  0
 19 20  1  0
 20 21  1  0
 21 22  1  0
 22 23  1  0
 23 24  2  0
 24 25  1  0
 25 26  1  0
 26 27  2  0
 27 28  1  0
 28 29  2  0
 29 30  1  0
 30 31  2  0
 25 32  2  0
 32 33  1  0
 19 34  2  0
 34 10  1  0
 17 13  1  0
 22 20  1  0
 33 23  1  0
 31 26  1  0
  1 35  1  0
  1 36  1  0
  1 37  1  0
  2 38  1  0
  2 39  1  0
  4 40  1  0
  4 41  1  0
  5 42  1  0
  5 43  1  0
  5 44  1  0
  6 45  1  0
  6 46  1  0
  7 47  1  0
  7 48  1  0
  9 49  1  0
 14 50  1  0
 15 51  1  0
 16 52  1  0
 18 53  1  0
 20 54  1  1
 21 55  1  0
 21 56  1  0
 22 57  1  6
 27 58  1  0
 28 59  1  0
 29 60  1  0
 30 61  1  0
 31 62  1  0
 32 63  1  0
M  CHG  2   8   1  14   1
M  END
>  <UniqueID>  (13) 
13

>  <SMILES>  (13) 
CCN(CC)CC[S@@+](O)c1nc(-c2[nH+]cco2)cc([C@@H]2CC2c2nc(-c3ccccc3)cs2)n1

>  <Energy>  (13) 
399.48506184582027

>  <Genealogy>  (13) 
CCN(CC)CC[S+](O)c1nc(-c2[nH+]cco2)cc(C2CC2c2nc(-c3ccccc3)cs2)n1 (protonated)
CCN(CC)CC[S@@+](O)c1nc(-c2[nH+]cco2)cc([C@@H]2CC2c2nc(-c3ccccc3)cs2)n1 (chirality)
CCN(CC)CC[S@@+](O)c1nc(-c2[nH+]cco2)cc([C@@H]2CC2c2nc(-c3ccccc3)cs2)n1 (3D coordinates assigned)
CCN(CC)CC[S@@+](O)c1nc(-c2[nH+]cco2)cc([C@@H]2CC2c2nc(-c3ccccc3)cs2)n1 (nonaromatic ring conformer: 399.48506184582027 kcal/mol)

>  <smiles>  (13) 
CCN(CC)CC[S+]([O-])c1nc(-c2ncco2)cc(C2CC2c2nc(-c3ccccc3)cs2)n1

>  <score_type>  (13) 
oracle

>  <origin>  (13) 
adg

>  <m_score__min__energy>  (13) 
-8.8100000000000005

>  <m_primary>  (13) 
energy

$$$$
13:0
     RDKit          3D

 62 64  0  0  0  0  0  0  0  0999 V2000
   -6.1250   18.1990  -33.9540 C   0  0  0  0  0  0  0  0  0  0  0  0
   -6.5470   19.6640  -33.8630 C   0  0  0  0  0  0  0  0  0  0  0  0
   -6.7620   20.1020  -32.4610 N   0  0  0  0  0  0  0  0  0  0  0  0
   -7.2000   18.9420  -31.6480 C   0  0  0  0  0  0  0  0  0  0  0  0
   -8.7220   18.8000  -31.6490 C   0  0  0  0  0  0  0  0  0  0  0  0
   -7.7410   21.2210  -32.3780 C   0  0  0  0  0  0  0  0  0  0  0  0
   -7.2820   22.2910  -31.3730 C   0  0  0  0  0  0  0  0  0  0  0  0
   -6.4260   23.3810  -32.0310 C   0  0  0  0  0  0  0  0  0  0  0  0
   -5.1040   23.4500  -31.3970 N   0  0  0  0  0  0  0  0  0  0  0  0
   -4.8210   24.5020  -30.4520 C   0  0  0  0  0  0  0  0  0  0  0  0
   -4.2480   25.5590  -30.8440 O   0  0  0  0  0  0  0  0  0  0  0  0
   -5.1750   24.3590  -28.9950 C   0  0  0  0  0  0  0  0  0  0  0  0
   -4.6220   23.0500  -28.4200 C   0  0  0  0  0  0  0  0  0  0  0  0
   -3.3190   23.3000  -27.7000 C   0  0  0  0  0  0  0  0  0  0  0  0
   -3.0870   24.5570  -27.1150 C   0  0  0  0  0  0  0  0  0  0  0  0
   -1.9080   24.8030  -26.4050 C   0  0  0  0  0  0  0  0  0  0  0  0
   -1.6330   26.3750  -25.6740 Cl  0  0  0  0  0  0  0  0  0  0  0  0
   -0.9540   23.7930  -26.2680 C   0  0  0  0  0  0  0  0  0  0  0  0
   -1.1760   22.5340  -26.8340 C   0  0  0  0  0  0  0  0  0  0  0  0
   -2.3630   22.2720  -27.5470 C   0  0  0  0  0  0  0  0  0  0  0  0
   -2.6250   21.0090  -28.1080 O   0  0  0  0  0  0  0  0  0  0  0  0
   -2.7770   19.8080  -27.3570 C   0  0  0  0  0  0  0  0  0  0  0  0
   -4.1090   22.4600  -31.7110 C   0  0  0  0  0  0  0  0  0  0  0  0
   -4.2890   21.4790  -32.6290 N   0  0  0  0  0  0  0  0  0  0  0  0
   -3.1930   20.6830  -32.7280 C   0  0  0  0  0  0  0  0  0  0  0  0
   -3.0690   19.6000  -33.6030 C   0  0  0  0  0  0  0  0  0  0  0  0
   -1.8670   18.8710  -33.6100 C   0  0  0  0  0  0  0  0  0  0  0  0
   -1.6730   17.5260  -34.7160 Cl  0  0  0  0  0  0  0  0  0  0  0  0
   -0.8150   19.2210  -32.7380 C   0  0  0  0  0  0  0  0  0  0  0  0
   -0.9500   20.3140  -31.8650 C   0  0  0  0  0  0  0  0  0  0  0  0
   -2.1460   21.0260  -31.8860 C   0  0  0  0  0  0  0  0  0  0  0  0
   -2.5800   22.3750  -30.9810 S   0  0  0  0  0  0  0  0  0  0  0  0
   -6.0066   17.7879  -32.9406 H   0  0  0  0  0  0  0  0  0  0  0  0
   -6.8953   17.6284  -34.4935 H   0  0  0  0  0  0  0  0  0  0  0  0
   -5.1692   18.1256  -34.4935 H   0  0  0  0  0  0  0  0  0  0  0  0
   -5.7596   20.2875  -34.3117 H   0  0  0  0  0  0  0  0  0  0  0  0
   -7.5008   19.7736  -34.3999 H   0  0  0  0  0  0  0  0  0  0  0  0
   -6.7553   18.0258  -32.0637 H   0  0  0  0  0  0  0  0  0  0  0  0
   -6.8690   19.1024  -30.6113 H   0  0  0  0  0  0  0  0  0  0  0  0
   -9.0878   18.7659  -30.6121 H   0  0  0  0  0  0  0  0  0  0  0  0
   -9.1702   19.6602  -32.1678 H   0  0  0  0  0  0  0  0  0  0  0  0
   -9.0033   17.8717  -32.1678 H   0  0  0  0  0  0  0  0  0  0  0  0
   -7.8429   21.6825  -33.3713 H   0  0  0  0  0  0  0  0  0  0  0  0
   -8.7048   20.8149  -32.0371 H   0  0  0  0  0  0  0  0  0  0  0  0
   -8.1707   22.7610  -30.9265 H   0  0  0  0  0  0  0  0  0  0  0  0
   -6.6643   21.7931  -30.6111 H   0  0  0  0  0  0  0  0  0  0  0  0
   -6.3034   23.1491  -33.0993 H   0  0  0  0  0  0  0  0  0  0  0  0
   -6.9300   24.3510  -31.9086 H   0  0  0  0  0  0  0  0  0  0  0  0
   -4.7486   25.2054  -28.4367 H   0  0  0  0  0  0  0  0  0  0  0  0
   -6.2709   24.3473  -28.9006 H   0  0  0  0  0  0  0  0  0  0  0  0
   -5.3515   22.6280  -27.7131 H   0  0  0  0  0  0  0  0  0  0  0  0
   -4.4438   22.3451  -29.2454 H   0  0  0  0  0  0  0  0  0  0  0  0
   -3.8390   25.3533  -27.2167 H   0  0  0  0  0  0  0  0  0  0  0  0
   -0.0246   23.9884  -25.7129 H   0  0  0  0  0  0  0  0  0  0  0  0
   -0.4196   21.7432  -26.7221 H   0  0  0  0  0  0  0  0  0  0  0  0
   -2.7475   20.0413  -26.2824 H   0  0  0  0  0  0  0  0  0  0  0  0
   -3.7415   19.3405  -27.6043 H   0  0  0  0  0  0  0  0  0  0  0  0
   -1.9594   19.1149  -27.6043 H   0  0  0  0  0  0  0  0  0  0  0  0
   -5.1550   21.3540  -33.2000 H   0  0  0  0  0  0  0  0  0  0  0  0
   -3.8962   19.3234  -34.2733 H   0  0  0  0  0  0  0  0  0  0  0  0
    0.1161   18.6353  -32.7413 H   0  0  0  0  0  0  0  0  0  0  0  0
   -0.1340   20.5987  -31.1846 H   0  0  0  0  0  0  0  0  0  0  0  0
  1  2  1  0
  2  3  1  0
  3  4  1  0
  4  5  1  0
  3  6  1  0
  6  7  1  0
  7  8  1  0
  8  9  1  0
  9 10  1  0
 10 11  2  0
 10 12  1  0
 12 13  1  0
 13 14  1  0
 14 15  2  0
 15 16  1  0
 16 17  1  0
 16 18  2  0
 18 19  1  0
 19 20  2  0
 20 21  1  0
 21 22  1  0
  9 23  1  0
 23 24  2  0
 24 25  1  0
 25 26  2  0
 26 27  1  0
 27 28  1  0
 27 29  2  0
 29 30  1  0
 30 31  2  0
 31 32  1  0
 20 14  1  0
 32 23  1  0
 31 25  1  0
  1 33  1  0
  1 34  1  0
  1 35  1  0
  2 36  1  0
  2 37  1  0
  4 38  1  0
  4 39  1  0
  5 40  1  0
  5 41  1  0
  5 42  1  0
  6 43  1  0
  6 44  1  0
  7 45  1  0
  7 46  1  0
  8 47  1  0
  8 48  1  0
 12 49  1  0
 12 50  1  0
 13 51  1  0
 13 52  1  0
 15 53  1  0
 18 54  1  0
 19 55  1  0
 22 56  1  0
 22 57  1  0
 22 58  1  0
 24 59  1  0
 26 60  1  0
 29 61  1  0
 30 62  1  0
M  CHG  1  24   1
M  END
>  <UniqueID>  (14) 
14

>  <SMILES>  (14) 
CCN(CC)CCCN(C(=O)CCc1cc(Cl)ccc1OC)c1[nH+]c2cc(Cl)ccc2s1

>  <Energy>  (14) 
94.55710619428

>  <Genealogy>  (14) 
CCN(CC)CCCN(C(=O)CCc1cc(Cl)ccc1OC)c1[nH+]c2cc(Cl)ccc2s1 (protonated)
CCN(CC)CCCN(C(=O)CCc1cc(Cl)ccc1OC)c1[nH+]c2cc(Cl)ccc2s1 (3D coordinates assigned)
CCN(CC)CCCN(C(=O)CCc1cc(Cl)ccc1OC)c1[nH+]c2cc(Cl)ccc2s1 (optimized conformer: 94.55710619428 kcal/mol)

>  <smiles>  (14) 
CCN(CC)CCCN(C(=O)CCc1cc(Cl)ccc1OC)c1nc2cc(Cl)ccc2s1

>  <score_type>  (14) 
oracle

>  <origin>  (14) 
adg

>  <m_score__min__energy>  (14) 
-9

>  <m_primary>  (14) 
energy

$$$$
14:0
     RDKit          3D

 44 45  0  0  0  0  0  0  0  0999 V2000
   -9.0760   18.4060  -31.6490 C   0  0  0  0  0  0  0  0  0  0  0  0
   -7.5950   18.6780  -31.9130 C   0  0  0  0  0  0  0  0  0  0  0  0
   -7.3570   20.1170  -32.1670 N   0  0  0  0  0  0  0  0  0  0  0  0
   -6.5860   20.3380  -33.4180 C   0  0  0  0  0  0  0  0  0  0  0  0
   -5.1310   20.6360  -33.0750 C   0  0  0  0  0  0  0  0  0  0  0  0
   -8.6360   20.8650  -32.1660 C   0  0  0  0  0  0  0  0  0  0  0  0
   -8.6690   21.9050  -31.0430 C   0  0  0  0  0  0  0  0  0  0  0  0
   -7.3410   22.3120  -30.7290 O   0  0  0  0  0  0  0  0  0  0  0  0
   -6.6960   23.3640  -31.3860 C   0  0  0  0  0  0  0  0  0  0  0  0
   -7.1390   23.8070  -32.4790 O   0  0  0  0  0  0  0  0  0  0  0  0
   -5.4880   23.9500  -30.7960 C   0  0  0  0  0  0  0  0  0  0  0  0
   -4.7650   23.4250  -29.7460 C   0  0  0  0  0  0  0  0  0  0  0  0
   -3.7340   24.3320  -29.5790 C   0  0  0  0  0  0  0  0  0  0  0  0
   -2.6370   24.2780  -28.5850 C   0  0  0  0  0  0  0  0  0  0  0  0
   -2.5420   23.2270  -27.6550 C   0  0  0  0  0  0  0  0  0  0  0  0
   -1.4980   23.1950  -26.7260 C   0  0  0  0  0  0  0  0  0  0  0  0
   -0.5400   24.2190  -26.7000 C   0  0  0  0  0  0  0  0  0  0  0  0
    0.6010   24.1640  -25.7300 C   0  0  0  0  0  0  0  0  0  0  0  0
   -0.6220   25.2590  -27.6370 C   0  0  0  0  0  0  0  0  0  0  0  0
   -1.6660   25.2920  -28.5670 C   0  0  0  0  0  0  0  0  0  0  0  0
   -3.8730   25.2900  -30.4690 O   0  0  0  0  0  0  0  0  0  0  0  0
   -4.9180   25.0930  -31.2190 N   0  0  0  0  0  0  0  0  0  0  0  0
   -9.2551   18.3731  -30.5642 H   0  0  0  0  0  0  0  0  0  0  0  0
   -9.6815   19.2080  -32.0964 H   0  0  0  0  0  0  0  0  0  0  0  0
   -9.3571   17.4412  -32.0964 H   0  0  0  0  0  0  0  0  0  0  0  0
   -7.0099   18.3660  -31.0353 H   0  0  0  0  0  0  0  0  0  0  0  0
   -7.2874   18.1094  -32.8030 H   0  0  0  0  0  0  0  0  0  0  0  0
   -6.6371   19.4350  -34.0441 H   0  0  0  0  0  0  0  0  0  0  0  0
   -7.0145   21.1902  -33.9659 H   0  0  0  0  0  0  0  0  0  0  0  0
   -5.0096   20.6609  -31.9820 H   0  0  0  0  0  0  0  0  0  0  0  0
   -4.4865   19.8512  -33.4977 H   0  0  0  0  0  0  0  0  0  0  0  0
   -4.8469   21.6110  -33.4977 H   0  0  0  0  0  0  0  0  0  0  0  0
   -8.7529   21.3770  -33.1326 H   0  0  0  0  0  0  0  0  0  0  0  0
   -9.4567   20.1509  -32.0033 H   0  0  0  0  0  0  0  0  0  0  0  0
   -9.2518   22.7786  -31.3702 H   0  0  0  0  0  0  0  0  0  0  0  0
   -9.1363   21.4637  -30.1503 H   0  0  0  0  0  0  0  0  0  0  0  0
   -4.9612   22.5044  -29.1768 H   0  0  0  0  0  0  0  0  0  0  0  0
   -3.2945   22.4247  -27.6588 H   0  0  0  0  0  0  0  0  0  0  0  0
   -1.4274   22.3619  -26.0112 H   0  0  0  0  0  0  0  0  0  0  0  0
    0.2097   24.1829  -24.7021 H   0  0  0  0  0  0  0  0  0  0  0  0
    1.1722   23.2373  -25.8879 H   0  0  0  0  0  0  0  0  0  0  0  0
    1.2587   25.0315  -25.8879 H   0  0  0  0  0  0  0  0  0  0  0  0
    0.1390   26.0533  -27.6406 H   0  0  0  0  0  0  0  0  0  0  0  0
   -1.7269   26.1188  -29.2900 H   0  0  0  0  0  0  0  0  0  0  0  0
  1  2  1  0
  2  3  1  0
  3  4  1  0
  4  5  1  0
  3  6  1  0
  6  7  1  0
  7  8  1  0
  8  9  1  0
  9 10  2  0
  9 11  1  0
 11 12  1  0
 12 13  2  0
 13 14  1  0
 14 15  2  0
 15 16  1  0
 16 17  2  0
 17 18  1  0
 17 19  1  0
 19 20  2  0
 13 21  1  0
 21 22  1  0
 22 11  2  0
 20 14  1  0
  1 23  1  0
  1 24  1  0
  1 25  1  0
  2 26  1  0
  2 27  1  0
  4 28  1  0
  4 29  1  0
  5 30  1  0
  5 31  1  0
  5 32  1  0
  6 33  1  0
  6 34  1  0
  7 35  1  0
  7 36  1  0
 12 37  1  0
 15 38  1  0
 16 39  1  0
 18 40  1  0
 18 41  1  0
 18 42  1  0
 19 43  1  0
 20 44  1  0
M  END
>  <UniqueID>  (15) 
15

>  <SMILES>  (15) 
CCN(CC)CCOC(=O)c1cc(-c2ccc(C)cc2)on1

>  <Energy>  (15) 
68.19233378348956

>  <Genealogy>  (15) 
CCN(CC)CCOC(=O)c1cc(-c2ccc(C)cc2)on1 (3D coordinates assigned)
CCN(CC)CCOC(=O)c1cc(-c2ccc(C)cc2)on1 (optimized conformer: 68.19233378348956 kcal/mol)

>  <smiles>  (15) 
CCN(CC)CCOC(=O)c1cc(-c2ccc(C)cc2)on1

>  <score_type>  (15) 
oracle

>  <origin>  (15) 
adg

>  <m_score__min__energy>  (15) 
-8.0700000000000003

>  <m_primary>  (15) 
energy

$$$$
15:0
     RDKit          3D

 34 35  0  0  0  0  0  0  0  0999 V2000
   -5.6490   20.0520  -33.1890 C   0  0  0  0  0  0  0  0  0  0  0  0
   -6.8000   19.1850  -33.4610 N   0  0  0  0  0  0  0  0  0  0  0  0
   -7.7390   19.1590  -32.3300 C   0  0  0  0  0  0  0  0  0  0  0  0
   -9.0860   19.8110  -32.6890 C   0  0  0  0  0  0  0  0  0  0  0  0
   -9.4450   21.0170  -31.8020 C   0  0  0  0  0  0  0  0  0  0  0  0
   -8.2200   21.6470  -31.1180 C   0  0  0  0  0  0  0  0  0  0  0  0
   -7.8900   23.0370  -31.6810 C   0  0  0  0  0  0  0  0  0  0  0  0
   -6.6060   23.5840  -31.1130 C   0  0  0  0  0  0  0  0  0  0  0  0
   -6.5400   24.9340  -30.6790 C   0  0  0  0  0  0  0  0  0  0  0  0
   -5.3400   25.4670  -30.1740 C   0  0  0  0  0  0  0  0  0  0  0  0
   -4.2300   24.6270  -30.1230 C   0  0  0  0  0  0  0  0  0  0  0  0
   -2.9970   24.9210  -29.6880 N   0  0  0  0  0  0  0  0  0  0  0  0
   -2.3320   23.7510  -29.8720 C   0  0  0  0  0  0  0  0  0  0  0  0
   -3.0870   22.7510  -30.3960 N   0  0  0  0  0  0  0  0  0  0  0  0
   -4.2850   23.3350  -30.5440 C   0  0  0  0  0  0  0  0  0  0  0  0
   -5.4530   22.7700  -31.0480 C   0  0  0  0  0  0  0  0  0  0  0  0
   -5.5149   20.1530  -32.1019 H   0  0  0  0  0  0  0  0  0  0  0  0
   -4.7440   19.6093  -33.6305 H   0  0  0  0  0  0  0  0  0  0  0  0
   -5.8248   21.0440  -33.6305 H   0  0  0  0  0  0  0  0  0  0  0  0
   -7.3020   19.5890  -34.2870 H   0  0  0  0  0  0  0  0  0  0  0  0
   -7.9163   18.1132  -32.0386 H   0  0  0  0  0  0  0  0  0  0  0  0
   -7.2929   19.7303  -31.5026 H   0  0  0  0  0  0  0  0  0  0  0  0
   -9.0401   20.1501  -33.7344 H   0  0  0  0  0  0  0  0  0  0  0  0
   -9.8644   19.0505  -32.5285 H   0  0  0  0  0  0  0  0  0  0  0  0
   -9.9280   21.7813  -32.4286 H   0  0  0  0  0  0  0  0  0  0  0  0
  -10.1139   20.6534  -31.0080 H   0  0  0  0  0  0  0  0  0  0  0  0
   -8.4251   21.7408  -30.0414 H   0  0  0  0  0  0  0  0  0  0  0  0
   -7.3556   20.9933  -31.3064 H   0  0  0  0  0  0  0  0  0  0  0  0
   -7.7923   22.9637  -32.7742 H   0  0  0  0  0  0  0  0  0  0  0  0
   -8.7049   23.7204  -31.4001 H   0  0  0  0  0  0  0  0  0  0  0  0
   -7.4359   25.5695  -30.7381 H   0  0  0  0  0  0  0  0  0  0  0  0
   -5.2804   26.5106  -29.8314 H   0  0  0  0  0  0  0  0  0  0  0  0
   -1.2694   23.6239  -29.6176 H   0  0  0  0  0  0  0  0  0  0  0  0
   -5.4776   21.7232  -31.3849 H   0  0  0  0  0  0  0  0  0  0  0  0
  1  2  1  0
  2  3  1  0
  3  4  1  0
  4  5  1  0
  5  6  1  0
  6  7  1  0
  7  8  1  0
  8  9  2  0
  9 10  1  0
 10 11  2  0
 11 12  1  0
 12 13  1  0
 13 14  2  0
 14 15  1  0
 15 16  2  0
 16  8  1  0
 15 11  1  0
  1 17  1  0
  1 18  1  0
  1 19  1  0
  2 20  1  0
  3 21  1  0
  3 22  1  0
  4 23  1  0
  4 24  1  0
  5 25  1  0
  5 26  1  0
  6 27  1  0
  6 28  1  0
  7 29  1  0
  7 30  1  0
  9 31  1  0
 10 32  1  0
 13 33  1  0
 16 34  1  0
M  CHG  1  12  -1
M  END
>  <UniqueID>  (16) 
16

>  <SMILES>  (16) 
CNCCCCCc1ccc2[n-]cnc2c1

>  <Energy>  (16) 
61.12834163533799

>  <Genealogy>  (16) 
CNCCCCCc1ccc2[n-]cnc2c1 (protonated)
CNCCCCCc1ccc2[n-]cnc2c1 (3D coordinates assigned)
CNCCCCCc1ccc2[n-]cnc2c1 (optimized conformer: 61.12834163533799 kcal/mol)

>  <smiles>  (16) 
CNCCCCCc1ccc2[nH]cnc2c1

>  <score_type>  (16) 
oracle

>  <origin>  (16) 
adg

>  <m_score__min__energy>  (16) 
-7.4900000000000002

>  <m_primary>  (16) 
energy

$$$$
16:0
     RDKit          3D

 70 73  0  0  0  0  0  0  0  0999 V2000
   -9.4680   21.9710  -31.7930 C   0  0  0  0  0  0  0  0  0  0  0  0
   -8.7070   21.9450  -30.4710 C   0  0  0  0  0  0  0  0  0  0  0  0
   -7.3080   22.1180  -30.6900 O   0  0  0  0  0  0  0  0  0  0  0  0
   -6.5090   21.3470  -31.5520 C   0  0  0  0  0  0  0  0  0  0  0  0
   -6.8710   20.0460  -31.9550 C   0  0  0  0  0  0  0  0  0  0  0  0
   -6.0510   19.3220  -32.8220 C   0  0  0  0  0  0  0  0  0  0  0  0
   -4.8790   19.8960  -33.3330 C   0  0  0  0  0  0  0  0  0  0  0  0
   -4.0110   19.1690  -34.2110 N   0  0  0  0  0  0  0  0  0  0  0  0
   -4.2530   17.8740  -34.7810 C   0  0  0  0  0  0  0  0  0  0  0  0
   -5.1100   17.7760  -35.6970 O   0  0  0  0  0  0  0  0  0  0  0  0
   -3.6510   16.6190  -34.2010 C   0  0  0  0  0  0  0  0  0  0  0  0
   -2.3230   16.8940  -33.6260 N   0  0  0  0  0  0  0  0  0  0  0  0
   -2.1500   17.9970  -32.8830 N   0  0  0  0  0  0  0  0  0  0  0  0
   -0.9600   18.2840  -32.2800 C   0  0  0  0  0  0  0  0  0  0  0  0
   -0.8140   19.4750  -31.4800 N   0  0  0  0  0  0  0  0  0  0  0  0
   -1.2100   20.7750  -32.0450 C   0  0  0  0  0  0  0  0  0  0  0  0
   -0.7400   21.9320  -31.1600 C   0  0  0  0  0  0  0  0  0  0  0  0
   -1.1010   21.6540  -29.7650 N   0  0  0  0  0  0  0  0  0  0  0  0
   -1.9890   22.5410  -29.0580 C   0  0  0  0  0  0  0  0  0  0  0  0
   -3.3130   22.1430  -28.8080 C   0  0  0  0  0  0  0  0  0  0  0  0
   -4.1850   22.9790  -28.1090 C   0  0  0  0  0  0  0  0  0  0  0  0
   -3.7450   24.2200  -27.6480 C   0  0  0  0  0  0  0  0  0  0  0  0
   -2.4310   24.6320  -27.8910 C   0  0  0  0  0  0  0  0  0  0  0  0
   -1.5420   23.8010  -28.6050 C   0  0  0  0  0  0  0  0  0  0  0  0
   -0.2270   24.2000  -28.8930 O   0  0  0  0  0  0  0  0  0  0  0  0
    0.8490   24.1690  -27.9630 C   0  0  0  0  0  0  0  0  0  0  0  0
   -0.7580   20.3520  -29.1710 C   0  0  0  0  0  0  0  0  0  0  0  0
   -0.1020   19.4120  -30.1950 C   0  0  0  0  0  0  0  0  0  0  0  0
    0.1110   17.4010  -32.4400 C   0  0  0  0  0  0  0  0  0  0  0  0
   -0.0580   16.2560  -33.2060 C   0  0  0  0  0  0  0  0  0  0  0  0
   -1.2940   16.0050  -33.7960 C   0  0  0  0  0  0  0  0  0  0  0  0
   -1.4510   14.9530  -34.4730 O   0  0  0  0  0  0  0  0  0  0  0  0
   -4.4960   21.1730  -32.9060 C   0  0  0  0  0  0  0  0  0  0  0  0
   -5.3080   21.9080  -32.0200 C   0  0  0  0  0  0  0  0  0  0  0  0
   -4.9670   23.2010  -31.5830 O   0  0  0  0  0  0  0  0  0  0  0  0
   -5.8290   24.3400  -31.5920 C   0  0  0  0  0  0  0  0  0  0  0  0
   -5.7350   25.1040  -30.2750 C   0  0  0  0  0  0  0  0  0  0  0  0
  -10.5491   22.0079  -31.5931 H   0  0  0  0  0  0  0  0  0  0  0  0
   -9.1712   22.8595  -32.3695 H   0  0  0  0  0  0  0  0  0  0  0  0
   -9.2325   21.0643  -32.3695 H   0  0  0  0  0  0  0  0  0  0  0  0
   -9.0747   22.7574  -29.8269 H   0  0  0  0  0  0  0  0  0  0  0  0
   -8.8711   20.9704  -29.9881 H   0  0  0  0  0  0  0  0  0  0  0  0
   -7.8050   19.5986  -31.5842 H   0  0  0  0  0  0  0  0  0  0  0  0
   -6.3261   18.2954  -33.1057 H   0  0  0  0  0  0  0  0  0  0  0  0
   -4.3129   16.2328  -33.4118 H   0  0  0  0  0  0  0  0  0  0  0  0
   -3.5405   15.8765  -35.0050 H   0  0  0  0  0  0  0  0  0  0  0  0
   -2.9550   18.6450  -32.7320 H   0  0  0  0  0  0  0  0  0  0  0  0
   -0.7622   20.8830  -33.0439 H   0  0  0  0  0  0  0  0  0  0  0  0
   -2.3079   20.8076  -32.1053 H   0  0  0  0  0  0  0  0  0  0  0  0
    0.3518   22.0378  -31.2428 H   0  0  0  0  0  0  0  0  0  0  0  0
   -1.2228   22.8649  -31.4864 H   0  0  0  0  0  0  0  0  0  0  0  0
   -3.6653   21.1644  -29.1661 H   0  0  0  0  0  0  0  0  0  0  0  0
   -5.2205   22.6590  -27.9213 H   0  0  0  0  0  0  0  0  0  0  0  0
   -4.4324   24.8751  -27.0928 H   0  0  0  0  0  0  0  0  0  0  0  0
   -2.0882   25.6103  -27.5231 H   0  0  0  0  0  0  0  0  0  0  0  0
    0.4486   24.1805  -26.9385 H   0  0  0  0  0  0  0  0  0  0  0  0
    1.4393   23.2535  -28.1157 H   0  0  0  0  0  0  0  0  0  0  0  0
    1.4911   25.0490  -28.1157 H   0  0  0  0  0  0  0  0  0  0  0  0
   -0.0587   20.5141  -28.3375 H   0  0  0  0  0  0  0  0  0  0  0  0
   -1.6881   19.8804  -28.8210 H   0  0  0  0  0  0  0  0  0  0  0  0
    0.9448   19.7144  -30.3457 H   0  0  0  0  0  0  0  0  0  0  0  0
   -0.1471   18.3815  -29.8128 H   0  0  0  0  0  0  0  0  0  0  0  0
    1.0796   17.6115  -31.9630 H   0  0  0  0  0  0  0  0  0  0  0  0
    0.7767   15.5534  -33.3457 H   0  0  0  0  0  0  0  0  0  0  0  0
   -3.5514   21.6069  -33.2659 H   0  0  0  0  0  0  0  0  0  0  0  0
   -5.5365   25.0065  -32.4167 H   0  0  0  0  0  0  0  0  0  0  0  0
   -6.8651   23.9956  -31.7254 H   0  0  0  0  0  0  0  0  0  0  0  0
   -5.8217   24.3990  -29.4351 H   0  0  0  0  0  0  0  0  0  0  0  0
   -4.7663   25.6223  -30.2201 H   0  0  0  0  0  0  0  0  0  0  0  0
   -6.5492   25.8417  -30.2201 H   0  0  0  0  0  0  0  0  0  0  0  0
  1  2  1  0
  2  3  1  0
  3  4  1  0
  4  5  2  0
  5  6  1  0
  6  7  2  0
  7  8  1  0
  8  9  1  0
  9 10  2  0
  9 11  1  0
 11 12  1  0
 12 13  1  0
 13 14  2  0
 14 15  1  0
 15 16  1  0
 16 17  1  0
 17 18  1  0
 18 19  1  0
 19 20  2  0
 20 21  1  0
 21 22  2  0
 22 23  1  0
 23 24  2  0
 24 25  1  0
 25 26  1  0
 18 27  1  0
 27 28  1  0
 14 29  1  0
 29 30  2  0
 30 31  1  0
 31 32  2  0
  7 33  1  0
 33 34  2  0
 34 35  1  0
 35 36  1  0
 36 37  1  0
 34  4  1  0
 31 12  1  0
 28 15  1  0
 24 19  1  0
  1 38  1  0
  1 39  1  0
  1 40  1  0
  2 41  1  0
  2 42  1  0
  5 43  1  0
  6 44  1  0
 11 45  1  0
 11 46  1  0
 13 47  1  0
 16 48  1  0
 16 49  1  0
 17 50  1  0
 17 51  1  0
 20 52  1  0
 21 53  1  0
 22 54  1  0
 23 55  1  0
 26 56  1  0
 26 57  1  0
 26 58  1  0
 27 59  1  0
 27 60  1  0
 28 61  1  0
 28 62  1  0
 29 63  1  0
 30 64  1  0
 33 65  1  0
 36 66  1  0
 36 67  1  0
 37 68  1  0
 37 69  1  0
 37 70  1  0
M  CHG  2   8  -1  13   1
M  END
>  <UniqueID>  (17) 
17

>  <SMILES>  (17) 
CCOc1ccc([N-]C(=O)Cn2[nH+]c(N3CCN(c4ccccc4OC)CC3)ccc2=O)cc1OCC

>  <Energy>  (17) 
84.84209304866899

>  <Genealogy>  (17) 
CCOc1ccc([N-]C(=O)Cn2[nH+]c(N3CCN(c4ccccc4OC)CC3)ccc2=O)cc1OCC (protonated)
CCOc1ccc([N-]C(=O)Cn2[nH+]c(N3CCN(c4ccccc4OC)CC3)ccc2=O)cc1OCC (3D coordinates assigned)
CCOc1ccc([N-]C(=O)Cn2[nH+]c(N3CCN(c4ccccc4OC)CC3)ccc2=O)cc1OCC (nonaromatic ring conformer: 84.84209304866899 kcal/mol)

>  <smiles>  (17) 
CCOc1ccc(NC(=O)Cn2nc(N3CCN(c4ccccc4OC)CC3)ccc2=O)cc1OCC

>  <score_type>  (17) 
oracle

>  <origin>  (17) 
adg

>  <m_score__min__energy>  (17) 
-10.210000000000001

>  <m_primary>  (17) 
energy

$$$$
17:0
     RDKit          3D

 51 53  0  0  0  0  0  0  0  0999 V2000
   -5.4370   24.4210  -29.7140 C   0  0  0  0  0  0  0  0  0  0  0  0
   -4.8250   23.1230  -29.1550 C   0  0  0  0  0  0  0  0  0  0  0  0
   -3.6050   22.6320  -29.8720 N   0  0  0  0  0  0  0  0  0  0  0  0
   -3.4570   21.1620  -29.6970 C   0  0  0  0  0  0  0  0  0  0  0  0
   -2.3800   23.2930  -29.3510 C   0  0  0  0  0  0  0  0  0  0  0  0
   -3.7410   22.8790  -31.3460 C   0  0  0  0  0  0  0  0  0  0  0  0
   -3.5220   21.6430  -32.2550 C   0  0  0  0  0  0  0  0  0  0  0  0
   -4.4730   21.6010  -33.3870 N   0  0  0  0  0  0  0  0  0  0  0  0
   -5.6420   20.7730  -33.1100 C   0  0  0  0  0  0  0  0  0  0  0  0
   -6.8440   21.3340  -32.5890 C   0  0  0  0  0  0  0  0  0  0  0  0
   -6.9980   22.7280  -32.3680 C   0  0  0  0  0  0  0  0  0  0  0  0
   -8.2020   23.2620  -31.9180 C   0  0  0  0  0  0  0  0  0  0  0  0
   -9.2880   22.4330  -31.6870 C   0  0  0  0  0  0  0  0  0  0  0  0
   -9.1670   21.0600  -31.8690 C   0  0  0  0  0  0  0  0  0  0  0  0
   -7.9410   20.4760  -32.2810 C   0  0  0  0  0  0  0  0  0  0  0  0
   -7.8110   19.1080  -32.3940 N   0  0  0  0  0  0  0  0  0  0  0  0
   -8.8120   18.2150  -31.7630 C   0  0  0  0  0  0  0  0  0  0  0  0
   -6.7360   18.5680  -33.0660 C   0  0  0  0  0  0  0  0  0  0  0  0
   -6.7250   17.2020  -33.4560 C   0  0  0  0  0  0  0  0  0  0  0  0
   -5.6160   16.6360  -34.0740 C   0  0  0  0  0  0  0  0  0  0  0  0
   -4.4950   17.4100  -34.3330 C   0  0  0  0  0  0  0  0  0  0  0  0
   -4.4890   18.7630  -34.0050 C   0  0  0  0  0  0  0  0  0  0  0  0
   -5.6130   19.3780  -33.3950 C   0  0  0  0  0  0  0  0  0  0  0  0
   -5.7432   25.0705  -28.8807 H   0  0  0  0  0  0  0  0  0  0  0  0
   -4.6901   24.9428  -30.3303 H   0  0  0  0  0  0  0  0  0  0  0  0
   -6.3148   24.1768  -30.3303 H   0  0  0  0  0  0  0  0  0  0  0  0
   -4.5536   23.3001  -28.1038 H   0  0  0  0  0  0  0  0  0  0  0  0
   -5.5902   22.3438  -29.2864 H   0  0  0  0  0  0  0  0  0  0  0  0
   -3.4327   20.9211  -28.6240 H   0  0  0  0  0  0  0  0  0  0  0  0
   -4.3080   20.6491  -30.1688 H   0  0  0  0  0  0  0  0  0  0  0  0
   -2.5208   20.8290  -30.1688 H   0  0  0  0  0  0  0  0  0  0  0  0
   -2.3977   23.2834  -28.2512 H   0  0  0  0  0  0  0  0  0  0  0  0
   -1.4913   22.7520  -29.7081 H   0  0  0  0  0  0  0  0  0  0  0  0
   -2.3443   24.3328  -29.7081 H   0  0  0  0  0  0  0  0  0  0  0  0
   -4.7554   23.2611  -31.5330 H   0  0  0  0  0  0  0  0  0  0  0  0
   -2.9430   23.5897  -31.6070 H   0  0  0  0  0  0  0  0  0  0  0  0
   -2.4978   21.6754  -32.6549 H   0  0  0  0  0  0  0  0  0  0  0  0
   -3.6874   20.7434  -31.6440 H   0  0  0  0  0  0  0  0  0  0  0  0
   -3.9840   21.3390  -34.2680 H   0  0  0  0  0  0  0  0  0  0  0  0
   -4.7880   22.5740  -33.6030 H   0  0  0  0  0  0  0  0  0  0  0  0
   -6.1479   23.4002  -32.5564 H   0  0  0  0  0  0  0  0  0  0  0  0
   -8.2916   24.3447  -31.7453 H   0  0  0  0  0  0  0  0  0  0  0  0
  -10.2466   22.8616  -31.3594 H   0  0  0  0  0  0  0  0  0  0  0  0
  -10.0388   20.4136  -31.6901 H   0  0  0  0  0  0  0  0  0  0  0  0
   -8.7302   18.2880  -30.6685 H   0  0  0  0  0  0  0  0  0  0  0  0
   -9.8222   18.5174  -32.0762 H   0  0  0  0  0  0  0  0  0  0  0  0
   -8.6264   17.1770  -32.0762 H   0  0  0  0  0  0  0  0  0  0  0  0
   -7.6118   16.5798  -33.2651 H   0  0  0  0  0  0  0  0  0  0  0  0
   -5.6277   15.5733  -34.3578 H   0  0  0  0  0  0  0  0  0  0  0  0
   -3.6088   16.9541  -34.7985 H   0  0  0  0  0  0  0  0  0  0  0  0
   -3.5958   19.3669  -34.2229 H   0  0  0  0  0  0  0  0  0  0  0  0
  1  2  1  0
  2  3  1  0
  3  4  1  0
  3  5  1  0
  3  6  1  0
  6  7  1  0
  7  8  1  0
  8  9  1  0
  9 10  2  0
 10 11  1  0
 11 12  2  0
 12 13  1  0
 13 14  2  0
 14 15  1  0
 15 16  2  0
 16 17  1  0
 16 18  1  0
 18 19  2  0
 19 20  1  0
 20 21  2  0
 21 22  1  0
 22 23  2  0
 23  9  1  0
 15 10  1  0
 23 18  1  0
  1 24  1  0
  1 25  1  0
  1 26  1  0
  2 27  1  0
  2 28  1  0
  4 29  1  0
  4 30  1  0
  4 31  1  0
  5 32  1  0
  5 33  1  0
  5 34  1  0
  6 35  1  0
  6 36  1  0
  7 37  1  0
  7 38  1  0
  8 39  1  0
  8 40  1  0
 11 41  1  0
 12 42  1  0
 13 43  1  0
 14 44  1  0
 17 45  1  0
 17 46  1  0
 17 47  1  0
 19 48  1  0
 20 49  1  0
 21 50  1  0
 22 51  1  0
M  CHG  3   3   1   8   1  16   1
M  END
>  <UniqueID>  (18) 
18

>  <SMILES>  (18) 
CC[N+](C)(C)CC[NH2+]c1c2ccccc2[n+](C)c2ccccc12

>  <Energy>  (18) 
91.36603710439317

>  <Genealogy>  (18) 
CC[N+](C)(C)CC[NH2+]c1c2ccccc2[n+](C)c2ccccc12 (protonated)
CC[N+](C)(C)CC[NH2+]c1c2ccccc2[n+](C)c2ccccc12 (3D coordinates assigned)
CC[N+](C)(C)CC[NH2+]c1c2ccccc2[n+](C)c2ccccc12 (optimized conformer: 91.36603710439317 kcal/mol)

>  <smiles>  (18) 
CC[N+](C)(C)CCNc1c2ccccc2[n+](C)c2ccccc12

>  <score_type>  (18) 
oracle

>  <origin>  (18) 
adg

>  <m_score__min__energy>  (18) 
-6.3399999999999999

>  <m_primary>  (18) 
energy

$$$$
18:0
     RDKit          3D

 32 33  0  0  0  0  0  0  0  0999 V2000
   -6.8560   25.2740  -29.7000 C   0  0  0  0  0  0  0  0  0  0  0  0
   -5.2290   25.5550  -30.4650 S   0  0  0  0  0  0  0  0  0  0  0  0
   -4.4720   24.1370  -29.6630 C   0  0  0  0  0  0  0  0  0  0  0  0
   -4.3080   24.1420  -28.2720 C   0  0  0  0  0  0  0  0  0  0  0  0
   -3.7250   23.0480  -27.6290 C   0  0  0  0  0  0  0  0  0  0  0  0
   -3.3050   21.9430  -28.3730 C   0  0  0  0  0  0  0  0  0  0  0  0
   -3.4670   21.9290  -29.7610 C   0  0  0  0  0  0  0  0  0  0  0  0
   -4.0540   23.0280  -30.4200 C   0  0  0  0  0  0  0  0  0  0  0  0
   -4.2310   23.0550  -31.8110 O   0  0  0  0  0  0  0  0  0  0  0  0
   -4.7550   21.9790  -32.5830 C   0  0  0  0  0  0  0  0  0  0  0  0
   -6.2280   21.8780  -32.3470 C   0  0  0  0  0  0  0  0  0  0  0  0
   -7.0010   23.0350  -32.1740 C   0  0  0  0  0  0  0  0  0  0  0  0
   -8.3680   22.9130  -31.9210 C   0  0  0  0  0  0  0  0  0  0  0  0
   -8.9490   21.6460  -31.8360 C   0  0  0  0  0  0  0  0  0  0  0  0
   -8.1480   20.5100  -32.0080 C   0  0  0  0  0  0  0  0  0  0  0  0
   -8.7420   19.1420  -31.9010 C   0  0  0  0  0  0  0  0  0  0  0  0
   -6.8160   20.6550  -32.2480 N   0  0  0  0  0  0  0  0  0  0  0  0
   -6.7542   25.2916  -28.6049 H   0  0  0  0  0  0  0  0  0  0  0  0
   -7.5515   26.0653  -30.0164 H   0  0  0  0  0  0  0  0  0  0  0  0
   -7.2458   24.2952  -30.0164 H   0  0  0  0  0  0  0  0  0  0  0  0
   -4.6395   25.0106  -27.6841 H   0  0  0  0  0  0  0  0  0  0  0  0
   -3.5965   23.0565  -26.5366 H   0  0  0  0  0  0  0  0  0  0  0  0
   -2.8458   21.0820  -27.8653 H   0  0  0  0  0  0  0  0  0  0  0  0
   -3.1348   21.0561  -30.3420 H   0  0  0  0  0  0  0  0  0  0  0  0
   -4.5651   22.1650  -33.6504 H   0  0  0  0  0  0  0  0  0  0  0  0
   -4.2673   21.0387  -32.2863 H   0  0  0  0  0  0  0  0  0  0  0  0
   -6.5345   24.0292  -32.2371 H   0  0  0  0  0  0  0  0  0  0  0  0
   -8.9865   23.8130  -31.7888 H   0  0  0  0  0  0  0  0  0  0  0  0
  -10.0255   21.5412  -31.6359 H   0  0  0  0  0  0  0  0  0  0  0  0
   -8.8581   18.8746  -30.8403 H   0  0  0  0  0  0  0  0  0  0  0  0
   -9.7263   19.1302  -32.3920 H   0  0  0  0  0  0  0  0  0  0  0  0
   -8.0786   18.4148  -32.3920 H   0  0  0  0  0  0  0  0  0  0  0  0
  1  2  1  0
  2  3  1  0
  3  4  2  0
  4  5  1  0
  5  6  2  0
  6  7  1  0
  7  8  2  0
  8  9  1  0
  9 10  1  0
 10 11  1  0
 11 12  2  0
 12 13  1  0
 13 14  2  0
 14 15  1  0
 15 16  1  0
 15 17  2  0
  8  3  1  0
 17 11  1  0
  1 18  1  0
  1 19  1  0
  1 20  1  0
  4 21  1  0
  5 22  1  0
  6 23  1  0
  7 24  1  0
 10 25  1  0
 10 26  1  0
 12 27  1  0
 13 28  1  0
 14 29  1  0
 16 30  1  0
 16 31  1  0
 16 32  1  0
M  END
>  <UniqueID>  (19) 
19

>  <SMILES>  (19) 
CSc1ccccc1OCc1cccc(C)n1

>  <Energy>  (19) 
26.030561371507442

>  <Genealogy>  (19) 
CSc1ccccc1OCc1cccc(C)n1 (3D coordinates assigned)
CSc1ccccc1OCc1cccc(C)n1 (optimized conformer: 26.030561371507442 kcal/mol)

>  <smiles>  (19) 
CSc1ccccc1OCc1cccc(C)n1

>  <score_type>  (19) 
oracle

>  <origin>  (19) 
adg

>  <m_score__min__energy>  (19) 
-6.7699999999999996

>  <m_primary>  (19) 
energy

$$$$
19:0
     RDKit          3D

 43 45  0  0  0  0  0  0  0  0999 V2000
   -6.1970   25.2980  -29.7240 C   0  0  0  0  0  0  0  0  0  0  0  0
   -5.5710   24.8580  -31.0480 C   0  0  0  0  0  0  0  0  0  0  0  0
   -4.2980   24.1350  -30.8440 N   0  0  0  0  0  0  0  0  0  0  0  0
   -3.7250   24.4270  -29.5210 C   0  0  0  0  0  0  0  0  0  0  0  0
   -4.3240   22.6850  -31.1640 C   0  0  0  0  0  0  0  0  0  0  0  0
   -4.6930   22.3090  -32.6190 C   0  0  0  0  0  0  0  0  0  0  0  0
   -5.7080   21.2490  -32.7080 N   0  0  0  0  0  0  0  0  0  0  0  0
   -7.0260   21.3490  -32.3800 C   0  0  0  0  0  0  0  0  0  0  0  0
   -7.6720   20.1340  -32.5500 C   0  0  0  0  0  0  0  0  0  0  0  0
   -6.7000   19.2410  -32.9370 C   0  0  0  0  0  0  0  0  0  0  0  0
   -6.7720   17.8700  -33.1740 C   0  0  0  0  0  0  0  0  0  0  0  0
   -5.5870   17.1990  -33.5180 C   0  0  0  0  0  0  0  0  0  0  0  0
   -5.6250   15.3210  -33.8610 Br  0  0  0  0  0  0  0  0  0  0  0  0
   -4.3670   17.9050  -33.5990 C   0  0  0  0  0  0  0  0  0  0  0  0
   -4.3210   19.2860  -33.3400 C   0  0  0  0  0  0  0  0  0  0  0  0
   -5.5170   19.9410  -33.0170 C   0  0  0  0  0  0  0  0  0  0  0  0
   -9.0930   19.8620  -32.1560 C   0  0  0  0  0  0  0  0  0  0  0  0
   -9.8680   21.1800  -31.9760 C   0  0  0  0  0  0  0  0  0  0  0  0
   -9.0480   22.2130  -31.1770 C   0  0  0  0  0  0  0  0  0  0  0  0
   -7.7470   22.5850  -31.9120 C   0  0  0  0  0  0  0  0  0  0  0  0
   -5.6125   24.8872  -28.8876 H   0  0  0  0  0  0  0  0  0  0  0  0
   -6.1979   26.3965  -29.6660 H   0  0  0  0  0  0  0  0  0  0  0  0
   -7.2309   24.9269  -29.6660 H   0  0  0  0  0  0  0  0  0  0  0  0
   -6.2760   24.1955  -31.5716 H   0  0  0  0  0  0  0  0  0  0  0  0
   -5.3588   25.7602  -31.6405 H   0  0  0  0  0  0  0  0  0  0  0  0
   -4.4132   24.0763  -28.7378 H   0  0  0  0  0  0  0  0  0  0  0  0
   -2.7589   23.9113  -29.4179 H   0  0  0  0  0  0  0  0  0  0  0  0
   -3.5744   25.5118  -29.4179 H   0  0  0  0  0  0  0  0  0  0  0  0
   -3.3232   22.2783  -30.9566 H   0  0  0  0  0  0  0  0  0  0  0  0
   -5.1253   22.2620  -30.5403 H   0  0  0  0  0  0  0  0  0  0  0  0
   -5.0806   23.2063  -33.1235 H   0  0  0  0  0  0  0  0  0  0  0  0
   -3.7797   21.9254  -33.0972 H   0  0  0  0  0  0  0  0  0  0  0  0
   -7.7270   17.3299  -33.0942 H   0  0  0  0  0  0  0  0  0  0  0  0
   -3.4442   17.3697  -33.8672 H   0  0  0  0  0  0  0  0  0  0  0  0
   -3.3709   19.8381  -33.3896 H   0  0  0  0  0  0  0  0  0  0  0  0
   -9.5772   19.2624  -32.9409 H   0  0  0  0  0  0  0  0  0  0  0  0
   -9.0976   19.3151  -31.2016 H   0  0  0  0  0  0  0  0  0  0  0  0
  -10.0994   21.5968  -32.9673 H   0  0  0  0  0  0  0  0  0  0  0  0
  -10.7904   20.9644  -31.4168 H   0  0  0  0  0  0  0  0  0  0  0  0
   -9.6533   23.1210  -31.0384 H   0  0  0  0  0  0  0  0  0  0  0  0
   -8.7831   21.7694  -30.2059 H   0  0  0  0  0  0  0  0  0  0  0  0
   -7.9910   23.2117  -32.7825 H   0  0  0  0  0  0  0  0  0  0  0  0
   -7.0935   23.1329  -31.2172 H   0  0  0  0  0  0  0  0  0  0  0  0
  1  2  1  0
  2  3  1  0
  3  4  1  0
  3  5  1  0
  5  6  1  0
  6  7  1  0
  7  8  1  0
  8  9  2  0
  9 10  1  0
 10 11  2  0
 11 12  1  0
 12 13  1  0
 12 14  2  0
 14 15  1  0
 15 16  2  0
  9 17  1  0
 17 18  1  0
 18 19  1  0
 19 20  1  0
 16  7  1  0
 20  8  1  0
 16 10  1  0
  1 21  1  0
  1 22  1  0
  1 23  1  0
  2 24  1  0
  2 25  1  0
  4 26  1  0
  4 27  1  0
  4 28  1  0
  5 29  1  0
  5 30  1  0
  6 31  1  0
  6 32  1  0
 11 33  1  0
 14 34  1  0
 15 35  1  0
 17 36  1  0
 17 37  1  0
 18 38  1  0
 18 39  1  0
 19 40  1  0
 19 41  1  0
 20 42  1  0
 20 43  1  0
M  END
>  <UniqueID>  (20) 
20

>  <SMILES>  (20) 
CCN(C)CCn1c2c(c3cc(Br)ccc31)CCCC2

>  <Energy>  (20) 
79.82026689206644

>  <Genealogy>  (20) 
CCN(C)CCn1c2c(c3cc(Br)ccc31)CCCC2 (3D coordinates assigned)
CCN(C)CCn1c2c(c3cc(Br)ccc31)CCCC2 (nonaromatic ring conformer: 79.82026689206644 kcal/mol)

>  <smiles>  (20) 
CCN(C)CCn1c2c(c3cc(Br)ccc31)CCCC2

>  <score_type>  (20) 
oracle

>  <origin>  (20) 
adg

>  <m_score__min__energy>  (20) 
-8.8300000000000001

>  <m_primary>  (20) 
energy

$$$$
20:0
     RDKit          3D

 66 69  0  0  0  0  0  0  0  0999 V2000
   -4.4900   22.7800  -29.1050 C   0  0  0  0  0  0  0  0  0  0  0  0
   -4.0510   23.8330  -30.1240 C   0  0  0  0  0  0  0  0  0  0  0  0
   -5.1040   24.1050  -31.1290 N   0  0  0  0  0  0  0  0  0  0  0  0
   -5.9180   25.3210  -30.8740 C   0  0  0  0  0  0  0  0  0  0  0  0
   -6.2200   25.5960  -29.3930 C   0  0  0  0  0  0  0  0  0  0  0  0
   -5.8770   22.9330  -31.6100 C   0  0  0  0  0  0  0  0  0  0  0  0
   -7.2630   23.2760  -32.1690 C   0  0  0  0  0  0  0  0  0  0  0  0
   -8.2400   22.5750  -31.4290 O   0  0  0  0  0  0  0  0  0  0  0  0
   -8.8810   21.6290  -32.2580 C   0  0  0  0  0  0  0  0  0  0  0  0
   -8.7580   20.2390  -31.6180 C   0  0  0  0  0  0  0  0  0  0  0  0
   -8.3300   19.2090  -32.5800 N   0  0  0  0  0  0  0  0  0  0  0  0
   -6.9150   19.2880  -32.8640 C   0  0  0  0  0  0  0  0  0  0  0  0
   -6.4040   18.8040  -34.0850 C   0  0  0  0  0  0  0  0  0  0  0  0
   -5.0330   18.8610  -34.3540 C   0  0  0  0  0  0  0  0  0  0  0  0
   -4.1590   19.4060  -33.4090 C   0  0  0  0  0  0  0  0  0  0  0  0
   -2.8260   19.4760  -33.6580 N   0  0  0  0  0  0  0  0  0  0  0  0
   -1.9540   20.0140  -32.7600 C   0  0  0  0  0  0  0  0  0  0  0  0
   -0.5300   20.1160  -33.1490 C   0  0  0  0  0  0  0  0  0  0  0  0
   -0.1200   20.9930  -34.1700 C   0  0  0  0  0  0  0  0  0  0  0  0
    1.2290   21.0690  -34.5330 C   0  0  0  0  0  0  0  0  0  0  0  0
    2.1730   20.2620  -33.8940 C   0  0  0  0  0  0  0  0  0  0  0  0
    1.7710   19.3710  -32.8970 C   0  0  0  0  0  0  0  0  0  0  0  0
    0.4240   19.2900  -32.5310 C   0  0  0  0  0  0  0  0  0  0  0  0
   -2.4560   20.4910  -31.5200 C   0  0  0  0  0  0  0  0  0  0  0  0
   -1.5870   21.0210  -30.4460 C   0  0  0  0  0  0  0  0  0  0  0  0
   -1.1090   20.1840  -29.4220 C   0  0  0  0  0  0  0  0  0  0  0  0
   -0.3010   20.7050  -28.4070 C   0  0  0  0  0  0  0  0  0  0  0  0
    0.0240   22.0650  -28.3960 C   0  0  0  0  0  0  0  0  0  0  0  0
    0.8060   22.5680  -27.4080 F   0  0  0  0  0  0  0  0  0  0  0  0
   -0.4650   22.9060  -29.3970 C   0  0  0  0  0  0  0  0  0  0  0  0
   -1.2720   22.3900  -30.4160 C   0  0  0  0  0  0  0  0  0  0  0  0
   -3.7960   20.4270  -31.2860 N   0  0  0  0  0  0  0  0  0  0  0  0
   -4.6580   19.9020  -32.1920 C   0  0  0  0  0  0  0  0  0  0  0  0
   -6.0270   19.8370  -31.9180 C   0  0  0  0  0  0  0  0  0  0  0  0
   -4.3294   23.1653  -28.0873 H   0  0  0  0  0  0  0  0  0  0  0  0
   -5.5571   22.5544  -29.2475 H   0  0  0  0  0  0  0  0  0  0  0  0
   -3.8992   21.8631  -29.2475 H   0  0  0  0  0  0  0  0  0  0  0  0
   -3.8183   24.7671  -29.5917 H   0  0  0  0  0  0  0  0  0  0  0  0
   -3.1677   23.4462  -30.6534 H   0  0  0  0  0  0  0  0  0  0  0  0
   -5.3747   26.1875  -31.2789 H   0  0  0  0  0  0  0  0  0  0  0  0
   -6.8893   25.1509  -31.3614 H   0  0  0  0  0  0  0  0  0  0  0  0
   -5.5529   24.9885  -28.7638 H   0  0  0  0  0  0  0  0  0  0  0  0
   -6.0570   26.6623  -29.1774 H   0  0  0  0  0  0  0  0  0  0  0  0
   -7.2664   25.3341  -29.1774 H   0  0  0  0  0  0  0  0  0  0  0  0
   -5.2973   22.4410  -32.4049 H   0  0  0  0  0  0  0  0  0  0  0  0
   -6.0418   22.2850  -30.7365 H   0  0  0  0  0  0  0  0  0  0  0  0
   -7.4392   24.3582  -32.0813 H   0  0  0  0  0  0  0  0  0  0  0  0
   -7.3196   22.9874  -33.2290 H   0  0  0  0  0  0  0  0  0  0  0  0
   -9.9435   21.8928  -32.3656 H   0  0  0  0  0  0  0  0  0  0  0  0
   -8.4080   21.6241  -33.2511 H   0  0  0  0  0  0  0  0  0  0  0  0
   -8.0196   20.2898  -30.8043 H   0  0  0  0  0  0  0  0  0  0  0  0
   -9.7530   19.9543  -31.2453 H   0  0  0  0  0  0  0  0  0  0  0  0
   -8.8900   19.2960  -33.4600 H   0  0  0  0  0  0  0  0  0  0  0  0
   -8.5390   18.2680  -32.1760 H   0  0  0  0  0  0  0  0  0  0  0  0
   -7.0893   18.3779  -34.8325 H   0  0  0  0  0  0  0  0  0  0  0  0
   -4.6427   18.4774  -35.3082 H   0  0  0  0  0  0  0  0  0  0  0  0
   -0.8624   21.6208  -34.6844 H   0  0  0  0  0  0  0  0  0  0  0  0
    1.5467   21.7655  -35.3230 H   0  0  0  0  0  0  0  0  0  0  0  0
    3.2340   20.3284  -34.1764 H   0  0  0  0  0  0  0  0  0  0  0  0
    2.5150   18.7320  -32.3988 H   0  0  0  0  0  0  0  0  0  0  0  0
    0.1096   18.5761  -31.7554 H   0  0  0  0  0  0  0  0  0  0  0  0
   -1.3717   19.1158  -29.4196 H   0  0  0  0  0  0  0  0  0  0  0  0
    0.0800   20.0434  -27.6151 H   0  0  0  0  0  0  0  0  0  0  0  0
   -0.2150   23.9771  -29.3843 H   0  0  0  0  0  0  0  0  0  0  0  0
   -1.6619   23.0588  -31.1975 H   0  0  0  0  0  0  0  0  0  0  0  0
   -6.4126   20.2160  -30.9600 H   0  0  0  0  0  0  0  0  0  0  0  0
  1  2  1  0
  2  3  1  0
  3  4  1  0
  4  5  1  0
  3  6  1  0
  6  7  1  0
  7  8  1  0
  8  9  1  0
  9 10  1  0
 10 11  1  0
 11 12  1  0
 12 13  2  0
 13 14  1  0
 14 15  2  0
 15 16  1  0
 16 17  2  0
 17 18  1  0
 18 19  2  0
 19 20  1  0
 20 21  2  0
 21 22  1  0
 22 23  2  0
 17 24  1  0
 24 25  1  0
 25 26  2  0
 26 27  1  0
 27 28  2  0
 28 29  1  0
 28 30  1  0
 30 31  2  0
 24 32  2  0
 32 33  1  0
 33 34  2  0
 34 12  1  0
 33 15  1  0
 23 18  1  0
 31 25  1  0
  1 35  1  0
  1 36  1  0
  1 37  1  0
  2 38  1  0
  2 39  1  0
  4 40  1  0
  4 41  1  0
  5 42  1  0
  5 43  1  0
  5 44  1  0
  6 45  1  0
  6 46  1  0
  7 47  1  0
  7 48  1  0
  9 49  1  0
  9 50  1  0
 10 51  1  0
 10 52  1  0
 11 53  1  0
 11 54  1  0
 13 55  1  0
 14 56  1  0
 19 57  1  0
 20 58  1  0
 21 59  1  0
 22 60  1  0
 23 61  1  0
 26 62  1  0
 27 63  1  0
 30 64  1  0
 31 65  1  0
 34 66  1  0
M  CHG  1  11   1
M  END
>  <UniqueID>  (21) 
21

>  <SMILES>  (21) 
CCN(CC)CCOCC[NH2+]c1ccc2nc(-c3ccccc3)c(-c3ccc(F)cc3)nc2c1

>  <Energy>  (21) 
90.91001408614885

>  <Genealogy>  (21) 
CCN(CC)CCOCC[NH2+]c1ccc2nc(-c3ccccc3)c(-c3ccc(F)cc3)nc2c1 (protonated)
CCN(CC)CCOCC[NH2+]c1ccc2nc(-c3ccccc3)c(-c3ccc(F)cc3)nc2c1 (3D coordinates assigned)
CCN(CC)CCOCC[NH2+]c1ccc2nc(-c3ccccc3)c(-c3ccc(F)cc3)nc2c1 (optimized conformer: 90.91001408614885 kcal/mol)

>  <smiles>  (21) 
CCN(CC)CCOCCNc1ccc2nc(-c3ccccc3)c(-c3ccc(F)cc3)nc2c1

>  <score_type>  (21) 
oracle

>  <origin>  (21) 
adg

>  <m_score__min__energy>  (21) 
-9.0199999999999996

>  <m_primary>  (21) 
energy

$$$$
21:0
     RDKit          3D

 43 45  0  0  0  0  0  0  0  0999 V2000
   -2.5620   24.5230  -28.6340 C   0  0  0  0  0  0  0  0  0  0  0  0
   -3.2730   25.1020  -29.7240 O   0  0  0  0  0  0  0  0  0  0  0  0
   -4.4300   24.5530  -30.2950 C   0  0  0  0  0  0  0  0  0  0  0  0
   -4.2970   23.4220  -31.1100 C   0  0  0  0  0  0  0  0  0  0  0  0
   -5.4200   22.8380  -31.7030 C   0  0  0  0  0  0  0  0  0  0  0  0
   -6.6970   23.3870  -31.5020 C   0  0  0  0  0  0  0  0  0  0  0  0
   -7.9110   22.7520  -32.1310 C   0  0  0  0  0  0  0  0  0  0  0  0
   -8.1010   21.3330  -31.6550 C   0  0  0  0  0  0  0  0  0  0  0  0
   -8.9940   21.1160  -30.7900 O   0  0  0  0  0  0  0  0  0  0  0  0
   -7.3180   20.2290  -32.1660 N   0  0  0  0  0  0  0  0  0  0  0  0
   -7.4170   18.8710  -31.5130 C   0  0  0  0  0  0  0  0  0  0  0  0
   -6.3640   17.7900  -31.9940 C   0  0  1  0  0  0  0  0  0  0  0  0
   -6.9030   16.7800  -33.0970 C   0  0  0  0  0  0  0  0  0  0  0  0
   -6.1240   16.7860  -34.3880 N   0  0  0  0  0  0  0  0  0  0  0  0
   -5.7360   18.1370  -34.9320 C   0  0  0  0  0  0  0  0  0  0  0  0
   -5.7790   19.1950  -33.8120 C   0  0  2  0  0  0  0  0  0  0  0  0
   -5.1880   18.5420  -32.5600 C   0  0  0  0  0  0  0  0  0  0  0  0
   -6.4430   20.5020  -33.3560 C   0  0  0  0  0  0  0  0  0  0  0  0
   -6.8340   24.5120  -30.6730 C   0  0  0  0  0  0  0  0  0  0  0  0
   -5.7100   25.0950  -30.0780 C   0  0  0  0  0  0  0  0  0  0  0  0
   -2.9944   24.8751  -27.6858 H   0  0  0  0  0  0  0  0  0  0  0  0
   -2.6384   23.4269  -28.6872 H   0  0  0  0  0  0  0  0  0  0  0  0
   -1.5041   24.8198  -28.6872 H   0  0  0  0  0  0  0  0  0  0  0  0
   -3.3007   22.9897  -31.2849 H   0  0  0  0  0  0  0  0  0  0  0  0
   -5.3028   21.9426  -32.3312 H   0  0  0  0  0  0  0  0  0  0  0  0
   -8.8011   23.3408  -31.8645 H   0  0  0  0  0  0  0  0  0  0  0  0
   -7.7658   22.7342  -33.2212 H   0  0  0  0  0  0  0  0  0  0  0  0
   -8.4228   18.4736  -31.7140 H   0  0  0  0  0  0  0  0  0  0  0  0
   -7.2035   19.0386  -30.4470 H   0  0  0  0  0  0  0  0  0  0  0  0
   -6.1102   17.1684  -31.1227 H   0  0  0  0  0  0  0  0  0  0  0  0
   -7.9461   17.0451  -33.3245 H   0  0  0  0  0  0  0  0  0  0  0  0
   -6.7968   15.7703  -32.6736 H   0  0  0  0  0  0  0  0  0  0  0  0
   -5.2560   16.2190  -34.2450 H   0  0  0  0  0  0  0  0  0  0  0  0
   -6.6890   16.2860  -35.1140 H   0  0  0  0  0  0  0  0  0  0  0  0
   -6.4382   18.4230  -35.7289 H   0  0  0  0  0  0  0  0  0  0  0  0
   -4.7136   18.0816  -35.3339 H   0  0  0  0  0  0  0  0  0  0  0  0
   -5.7355   19.8094  -34.7234 H   0  0  0  0  0  0  0  0  0  0  0  0
   -4.8234   19.3002  -31.8514 H   0  0  0  0  0  0  0  0  0  0  0  0
   -4.3193   17.9008  -32.7701 H   0  0  0  0  0  0  0  0  0  0  0  0
   -7.0542   20.9083  -34.1753 H   0  0  0  0  0  0  0  0  0  0  0  0
   -5.6670   21.2318  -33.0815 H   0  0  0  0  0  0  0  0  0  0  0  0
   -7.8317   24.9377  -30.4902 H   0  0  0  0  0  0  0  0  0  0  0  0
   -5.8276   25.9815  -29.4374 H   0  0  0  0  0  0  0  0  0  0  0  0
  1  2  1  0
  2  3  1  0
  3  4  2  0
  4  5  1  0
  5  6  2  0
  6  7  1  0
  7  8  1  0
  8  9  2  0
  8 10  1  0
 10 11  1  0
 11 12  1  0
 12 13  1  0
 13 14  1  0
 14 15  1  0
 15 16  1  0
 16 17  1  0
 16 18  1  0
  6 19  1  0
 19 20  2  0
 20  3  1  0
 18 10  1  0
 17 12  1  0
  1 21  1  0
  1 22  1  0
  1 23  1  0
  4 24  1  0
  5 25  1  0
  7 26  1  0
  7 27  1  0
 11 28  1  0
 11 29  1  0
 12 30  1  1
 13 31  1  0
 13 32  1  0
 14 33  1  0
 14 34  1  0
 15 35  1  0
 15 36  1  0
 16 37  1  6
 17 38  1  0
 17 39  1  0
 18 40  1  0
 18 41  1  0
 19 42  1  0
 20 43  1  0
M  CHG  1  14   1
M  END
>  <UniqueID>  (22) 
22

>  <SMILES>  (22) 
COc1ccc(CC(=O)N2C[C@H]3C[NH2+]C[C@@H](C3)C2)cc1

>  <Energy>  (22) 
153.91748512413847

>  <Genealogy>  (22) 
COc1ccc(CC(=O)N2CC3C[NH2+]CC(C3)C2)cc1 (protonated)
COc1ccc(CC(=O)N2C[C@H]3C[NH2+]C[C@@H](C3)C2)cc1 (chirality)
COc1ccc(CC(=O)N2C[C@H]3C[NH2+]C[C@@H](C3)C2)cc1 (3D coordinates assigned)
COc1ccc(CC(=O)N2C[C@H]3C[NH2+]C[C@@H](C3)C2)cc1 (nonaromatic ring conformer: 153.91748512413847 kcal/mol)

>  <smiles>  (22) 
COc1ccc(CC(=O)N2CC3CNCC(C3)C2)cc1

>  <score_type>  (22) 
oracle

>  <origin>  (22) 
adg

>  <m_score__min__energy>  (22) 
-7.5899999999999999

>  <m_primary>  (22) 
energy

$$$$
22:0
     RDKit          3D

 45 47  0  0  0  0  0  0  0  0999 V2000
   -1.5350   22.4300  -30.0600 C   0  0  0  0  0  0  0  0  0  0  0  0
   -2.2230   23.3800  -29.7820 C   0  0  0  0  0  0  0  0  0  0  0  0
   -3.0570   24.5370  -29.4420 C   0  0  0  0  0  0  0  0  0  0  0  0
   -4.0130   24.7840  -30.4730 O   0  0  0  0  0  0  0  0  0  0  0  0
   -5.1250   23.9750  -30.7590 C   0  0  0  0  0  0  0  0  0  0  0  0
   -5.7940   24.1740  -31.9720 C   0  0  0  0  0  0  0  0  0  0  0  0
   -6.9050   23.3970  -32.3090 C   0  0  0  0  0  0  0  0  0  0  0  0
   -7.3650   22.4080  -31.4290 C   0  0  0  0  0  0  0  0  0  0  0  0
   -8.7540   21.4070  -31.8450 S   0  0  0  0  0  0  0  0  0  0  0  0
   -9.3000   20.7960  -30.5840 O   0  0  0  0  0  0  0  0  0  0  0  0
   -9.8290   22.2500  -32.4750 O   0  0  0  0  0  0  0  0  0  0  0  0
   -8.2640   20.1460  -32.9550 N   0  0  0  0  0  0  0  0  0  0  0  0
   -6.8870   20.4140  -33.4320 C   0  0  0  0  0  0  0  0  0  0  0  0
   -6.2100   19.1520  -33.9760 C   0  0  0  0  0  0  0  0  0  0  0  0
   -6.1640   18.1200  -32.9330 N   0  0  0  0  0  0  0  0  0  0  0  0
   -5.1610   17.0850  -32.9980 C   0  0  0  0  0  0  0  0  0  0  0  0
   -5.3410   15.8480  -32.3510 C   0  0  0  0  0  0  0  0  0  0  0  0
   -4.3420   14.8760  -32.4350 C   0  0  0  0  0  0  0  0  0  0  0  0
   -3.1750   15.1370  -33.1510 C   0  0  0  0  0  0  0  0  0  0  0  0
   -3.0200   16.3750  -33.7740 C   0  0  0  0  0  0  0  0  0  0  0  0
   -4.0040   17.3100  -33.6840 N   0  0  0  0  0  0  0  0  0  0  0  0
   -7.1550   18.1620  -31.8480 C   0  0  0  0  0  0  0  0  0  0  0  0
   -8.4580   18.8020  -32.3450 C   0  0  0  0  0  0  0  0  0  0  0  0
   -6.7010   22.2030  -30.2140 C   0  0  0  0  0  0  0  0  0  0  0  0
   -5.5890   22.9800  -29.8760 C   0  0  0  0  0  0  0  0  0  0  0  0
   -0.9072   21.5631  -30.3137 H   0  0  0  0  0  0  0  0  0  0  0  0
   -3.5857   24.3374  -28.4983 H   0  0  0  0  0  0  0  0  0  0  0  0
   -2.4120   25.4216  -29.3353 H   0  0  0  0  0  0  0  0  0  0  0  0
   -5.4414   24.9502  -32.6672 H   0  0  0  0  0  0  0  0  0  0  0  0
   -7.4198   23.5618  -33.2670 H   0  0  0  0  0  0  0  0  0  0  0  0
   -8.9050   20.2170  -33.7800 H   0  0  0  0  0  0  0  0  0  0  0  0
   -6.9292   21.1671  -34.2326 H   0  0  0  0  0  0  0  0  0  0  0  0
   -6.2961   20.7736  -32.5767 H   0  0  0  0  0  0  0  0  0  0  0  0
   -6.7805   18.7746  -34.8375 H   0  0  0  0  0  0  0  0  0  0  0  0
   -5.1841   19.3974  -34.2879 H   0  0  0  0  0  0  0  0  0  0  0  0
   -6.2619   15.6485  -31.7834 H   0  0  0  0  0  0  0  0  0  0  0  0
   -4.4760   13.9047  -31.9363 H   0  0  0  0  0  0  0  0  0  0  0  0
   -2.3851   14.3750  -33.2239 H   0  0  0  0  0  0  0  0  0  0  0  0
   -2.1019   16.5955  -34.3383 H   0  0  0  0  0  0  0  0  0  0  0  0
   -7.3613   17.1376  -31.5045 H   0  0  0  0  0  0  0  0  0  0  0  0
   -6.7537   18.7626  -31.0184 H   0  0  0  0  0  0  0  0  0  0  0  0
   -8.9062   18.1386  -33.0993 H   0  0  0  0  0  0  0  0  0  0  0  0
   -9.1083   18.9354  -31.4679 H   0  0  0  0  0  0  0  0  0  0  0  0
   -7.0562   21.4260  -29.5211 H   0  0  0  0  0  0  0  0  0  0  0  0
   -5.0748   22.8140  -28.9178 H   0  0  0  0  0  0  0  0  0  0  0  0
  1  2  3  0
  2  3  1  0
  3  4  1  0
  4  5  1  0
  5  6  2  0
  6  7  1  0
  7  8  2  0
  8  9  1  0
  9 10  2  0
  9 11  2  0
  9 12  1  0
 12 13  1  0
 13 14  1  0
 14 15  1  0
 15 16  1  0
 16 17  2  0
 17 18  1  0
 18 19  2  0
 19 20  1  0
 20 21  2  0
 15 22  1  0
 22 23  1  0
  8 24  1  0
 24 25  2  0
 25  5  1  0
 23 12  1  0
 21 16  1  0
  1 26  1  0
  3 27  1  0
  3 28  1  0
  6 29  1  0
  7 30  1  0
 12 31  1  0
 13 32  1  0
 13 33  1  0
 14 34  1  0
 14 35  1  0
 17 36  1  0
 18 37  1  0
 19 38  1  0
 20 39  1  0
 22 40  1  0
 22 41  1  0
 23 42  1  0
 23 43  1  0
 24 44  1  0
 25 45  1  0
M  CHG  1  12   1
M  END
>  <UniqueID>  (23) 
23

>  <SMILES>  (23) 
C#CCOc1ccc(S(=O)(=O)[NH+]2CCN(c3ccccn3)CC2)cc1

>  <Energy>  (23) 
52.213053521111924

>  <Genealogy>  (23) 
C#CCOc1ccc(S(=O)(=O)[NH+]2CCN(c3ccccn3)CC2)cc1 (protonated)
C#CCOc1ccc(S(=O)(=O)[NH+]2CCN(c3ccccn3)CC2)cc1 (3D coordinates assigned)
C#CCOc1ccc(S(=O)(=O)[NH+]2CCN(c3ccccn3)CC2)cc1 (nonaromatic ring conformer: 52.213053521111924 kcal/mol)

>  <smiles>  (23) 
C#CCOc1ccc(S(=O)(=O)N2CCN(c3ccccn3)CC2)cc1

>  <score_type>  (23) 
oracle

>  <origin>  (23) 
adg

>  <m_score__min__energy>  (23) 
-8.0999999999999996

>  <m_primary>  (23) 
energy

$$$$
23:0
     RDKit          3D

 50 51  0  0  1  0  0  0  0  0999 V2000
   -5.9130   19.6100  -33.4750 C   0  0  0  0  0  0  0  0  0  0  0  0
   -7.1720   20.3750  -33.0890 C   0  0  0  0  0  0  0  0  0  0  0  0
   -6.9110   21.4940  -32.2900 C   0  0  0  0  0  0  0  0  0  0  0  0
   -5.7620   22.0920  -31.8670 C   0  0  0  0  0  0  0  0  0  0  0  0
   -5.7820   23.1700  -31.1070 C   0  0  0  0  0  0  0  0  0  0  0  0
   -4.6990   23.9190  -30.5900 C   0  0  0  0  0  0  0  0  0  0  0  0
   -3.4960   23.5650  -30.8320 N   0  0  0  0  0  0  0  0  0  0  0  0
   -2.7380   22.5210  -30.2300 C   0  0  0  0  0  0  0  0  0  0  0  0
   -2.2590   23.0280  -28.8790 C   0  0  0  0  0  0  0  0  0  0  0  0
   -1.4030   24.1980  -28.9390 C   0  0  0  0  0  0  0  0  0  0  0  0
   -1.9310   25.3030  -29.2600 O   0  0  0  0  0  0  0  0  0  0  0  0
   -0.0430   24.1910  -28.6670 O   0  0  0  0  0  0  0  0  0  0  0  0
    0.4080   24.1860  -27.3190 C   0  0  0  0  0  0  0  0  0  0  0  0
   -0.0280   25.3370  -26.4970 C   0  0  0  0  0  0  0  0  0  0  0  0
   -1.1400   24.9470  -25.5510 N   0  0  0  0  0  0  0  0  0  0  0  0
   -2.2680   25.8070  -25.8950 C   0  0  0  0  0  0  0  0  0  0  0  0
   -3.4340   25.0010  -26.3460 C   0  0  0  0  0  0  0  0  0  0  0  0
   -0.6260   25.2490  -24.2230 C   0  0  0  0  0  0  0  0  0  0  0  0
   -0.8250   26.6850  -23.8450 C   0  0  0  0  0  0  0  0  0  0  0  0
   -4.9030   24.9970  -29.8420 N   0  0  0  0  0  0  0  0  0  0  0  0
   -6.1040   25.4830  -29.4980 C   0  0  0  0  0  0  0  0  0  0  0  0
   -7.1730   24.7830  -29.9800 N   0  0  0  0  0  0  0  0  0  0  0  0
   -7.0220   23.7060  -30.7280 C   0  0  0  0  0  0  0  0  0  0  0  0
   -8.2430   22.5940  -31.5100 S   0  0  0  0  0  0  0  0  0  0  0  0
   -5.3852   19.2893  -32.5647 H   0  0  0  0  0  0  0  0  0  0  0  0
   -6.1886   18.7265  -34.0695 H   0  0  0  0  0  0  0  0  0  0  0  0
   -5.2558   20.2616  -34.0695 H   0  0  0  0  0  0  0  0  0  0  0  0
   -7.6735   20.7108  -34.0087 H   0  0  0  0  0  0  0  0  0  0  0  0
   -7.8035   19.6924  -32.5014 H   0  0  0  0  0  0  0  0  0  0  0  0
   -4.7935   21.6651  -32.1668 H   0  0  0  0  0  0  0  0  0  0  0  0
   -3.3674   21.6290  -30.0953 H   0  0  0  0  0  0  0  0  0  0  0  0
   -1.8842   22.2444  -30.8661 H   0  0  0  0  0  0  0  0  0  0  0  0
   -3.1429   23.2808  -28.2749 H   0  0  0  0  0  0  0  0  0  0  0  0
   -1.6522   22.2213  -28.4419 H   0  0  0  0  0  0  0  0  0  0  0  0
    0.0363   23.2678  -26.8407 H   0  0  0  0  0  0  0  0  0  0  0  0
    1.5052   24.2478  -27.3674 H   0  0  0  0  0  0  0  0  0  0  0  0
    0.8280   25.7039  -25.9117 H   0  0  0  0  0  0  0  0  0  0  0  0
   -0.4043   26.1213  -27.1702 H   0  0  0  0  0  0  0  0  0  0  0  0
   -2.5565   26.3932  -25.0101 H   0  0  0  0  0  0  0  0  0  0  0  0
   -1.9636   26.4731  -26.7157 H   0  0  0  0  0  0  0  0  0  0  0  0
   -3.9801   24.6235  -25.4689 H   0  0  0  0  0  0  0  0  0  0  0  0
   -4.1028   25.6305  -26.9513 H   0  0  0  0  0  0  0  0  0  0  0  0
   -3.0814   24.1529  -26.9513 H   0  0  0  0  0  0  0  0  0  0  0  0
   -1.1474   24.6156  -23.4902 H   0  0  0  0  0  0  0  0  0  0  0  0
    0.4561   25.0515  -24.2300 H   0  0  0  0  0  0  0  0  0  0  0  0
   -0.8378   26.7773  -22.7489 H   0  0  0  0  0  0  0  0  0  0  0  0
   -0.0020   27.2893  -24.2543 H   0  0  0  0  0  0  0  0  0  0  0  0
   -1.7813   27.0428  -24.2543 H   0  0  0  0  0  0  0  0  0  0  0  0
   -4.0680   25.5180  -29.4820 H   0  0  0  0  0  0  0  0  0  0  0  0
   -6.2201   26.3806  -28.8728 H   0  0  0  0  0  0  0  0  0  0  0  0
  1  2  1  0
  2  3  1  0
  3  4  2  0
  4  5  1  0
  5  6  1  0
  6  7  2  0
  7  8  1  0
  8  9  1  0
  9 10  1  0
 10 11  2  0
 10 12  1  0
 12 13  1  0
 13 14  1  0
 14 15  1  0
 15 16  1  0
 16 17  1  0
 15 18  1  0
 18 19  1  0
  6 20  1  0
 20 21  1  0
 21 22  2  0
 22 23  1  0
 23 24  1  0
 24  3  1  0
 23  5  2  0
  1 25  1  0
  1 26  1  0
  1 27  1  0
  2 28  1  0
  2 29  1  0
  4 30  1  0
  8 31  1  0
  8 32  1  0
  9 33  1  0
  9 34  1  0
 13 35  1  0
 13 36  1  0
 14 37  1  0
 14 38  1  0
 16 39  1  0
 16 40  1  0
 17 41  1  0
 17 42  1  0
 17 43  1  0
 18 44  1  0
 18 45  1  0
 19 46  1  0
 19 47  1  0
 19 48  1  0
 20 49  1  0
 21 50  1  0
M  END
>  <smiles>  (24) 
CCc1cc2c(=NCCC(=O)OCCN(CC)CC)[nH]cnc2s1

>  <score_type>  (24) 
oracle

>  <origin>  (24) 
adg

>  <m_score__min__energy>  (24) 
-7.7400000000000002

>  <m_primary>  (24) 
energy

$$$$
24:0
     RDKit          3D

 36 37  0  0  0  0  0  0  0  0999 V2000
   -0.2132   21.0485  -29.7760 H   0  0  0  0  0  0  0  0  0  0  0  0
   -1.1010   21.6820  -29.6330 C   0  0  0  0  0  0  0  0  0  0  0  0
   -2.3670   21.1020  -29.5800 C   0  0  0  0  0  0  0  0  0  0  0  0
   -2.4767   20.0119  -29.6784 H   0  0  0  0  0  0  0  0  0  0  0  0
   -3.4970   21.9040  -29.4020 C   0  0  0  0  0  0  0  0  0  0  0  0
   -4.4935   21.4408  -29.3523 H   0  0  0  0  0  0  0  0  0  0  0  0
   -3.3690   23.2990  -29.2860 C   0  0  0  0  0  0  0  0  0  0  0  0
   -4.5980   24.1410  -29.0600 C   0  0  0  0  0  0  0  0  0  0  0  0
   -4.3852   24.8962  -28.2890 H   0  0  0  0  0  0  0  0  0  0  0  0
   -5.4235   23.4930  -28.7305 H   0  0  0  0  0  0  0  0  0  0  0  0
   -4.9900   24.8270  -30.3300 C   0  0  0  0  0  0  0  0  0  0  0  0
   -4.2040   25.6650  -30.8460 O   0  0  0  0  0  0  0  0  0  0  0  0
   -6.2510   24.5050  -30.9350 N   0  0  0  0  0  0  0  0  0  0  0  0
   -6.7580   23.3290  -31.1750 C   0  0  0  0  0  0  0  0  0  0  0  0
   -7.5880   22.6560  -30.3000 C   0  0  0  0  0  0  0  0  0  0  0  0
   -7.9469   22.9922  -29.3161 H   0  0  0  0  0  0  0  0  0  0  0  0
   -7.8650   21.4640  -30.9420 C   0  0  0  0  0  0  0  0  0  0  0  0
   -8.5117   20.6629  -30.5547 H   0  0  0  0  0  0  0  0  0  0  0  0
   -7.2120   21.4450  -32.1210 N   0  0  0  0  0  0  0  0  0  0  0  0
   -7.2800   20.3850  -33.1230 C   0  0  0  0  0  0  0  0  0  0  0  0
   -6.2626   20.0338  -33.3500 H   0  0  0  0  0  0  0  0  0  0  0  0
   -7.7523   20.7818  -34.0338 H   0  0  0  0  0  0  0  0  0  0  0  0
   -8.1100   19.2190  -32.6000 C   0  0  0  0  0  0  0  0  0  0  0  0
   -8.1033   19.2284  -31.5001 H   0  0  0  0  0  0  0  0  0  0  0  0
   -9.1446   19.3143  -32.9612 H   0  0  0  0  0  0  0  0  0  0  0  0
   -7.6812   18.2726  -32.9612 H   0  0  0  0  0  0  0  0  0  0  0  0
   -6.5420   22.5760  -32.2750 N   0  0  0  0  0  0  0  0  0  0  0  0
   -5.9560   22.7920  -33.1090 H   0  0  0  0  0  0  0  0  0  0  0  0
   -2.0860   23.8880  -29.3250 C   0  0  0  0  0  0  0  0  0  0  0  0
   -1.9720   25.2810  -29.1800 O   0  0  0  0  0  0  0  0  0  0  0  0
   -1.2230   25.9290  -28.1570 C   0  0  0  0  0  0  0  0  0  0  0  0
   -1.5936   25.6084  -27.1722 H   0  0  0  0  0  0  0  0  0  0  0  0
   -0.1607   25.6604  -28.2542 H   0  0  0  0  0  0  0  0  0  0  0  0
   -1.3360   27.0188  -28.2542 H   0  0  0  0  0  0  0  0  0  0  0  0
   -0.9560   23.0660  -29.5050 C   0  0  0  0  0  0  0  0  0  0  0  0
    0.0467   23.5165  -29.5450 H   0  0  0  0  0  0  0  0  0  0  0  0
  1  2  1  0
  2  3  2  0
  3  4  1  0
  3  5  1  0
  5  6  1  0
  5  7  2  0
  7  8  1  0
  8  9  1  0
  8 10  1  0
  8 11  1  0
 11 12  2  0
 11 13  1  0
 13 14  2  0
 14 15  1  0
 15 16  1  0
 15 17  2  0
 17 18  1  0
 17 19  1  0
 19 20  1  0
 20 21  1  0
 20 22  1  0
 20 23  1  0
 23 24  1  0
 23 25  1  0
 23 26  1  0
 19 27  1  0
 27 28  1  0
  7 29  1  0
 29 30  1  0
 30 31  1  0
 31 32  1  0
 31 33  1  0
 31 34  1  0
 29 35  2  0
 35 36  1  0
 35  2  1  0
 27 14  1  0
M  END
>  <UniqueID>  (25) 
24

>  <SMILES>  (25) 
CCn1cc/c(=N/C(=O)Cc2ccccc2OC)[nH]1

>  <Energy>  (25) 
65.23978624735338

>  <Genealogy>  (25) 
CCn1cc/c(=N/C(=O)Cc2ccccc2OC)[nH]1 (cis-trans isomerization)
CCn1cc/c(=N/C(=O)Cc2ccccc2OC)[nH]1 (3D coordinates assigned)
CCn1cc/c(=N/C(=O)Cc2ccccc2OC)[nH]1 (optimized conformer: 65.23978624735338 kcal/mol)

>  <smiles>  (25) 
CCn1ccc(=NC(=O)Cc2ccccc2OC)[nH]1

>  <score_type>  (25) 
oracle

>  <origin>  (25) 
adg

>  <m_score__min__energy>  (25) 
-7.29

>  <m_primary>  (25) 
energy

$$$$
25:0
     RDKit          3D

 71 73  0  0  0  0  0  0  0  0999 V2000
   -1.4530   20.5760  -31.4760 C   0  0  0  0  0  0  0  0  0  0  0  0
   -0.4640   20.6060  -30.4490 O   0  0  0  0  0  0  0  0  0  0  0  0
   -0.0910   19.5000  -29.6680 C   0  0  0  0  0  0  0  0  0  0  0  0
    0.6140   18.4090  -30.2140 C   0  0  0  0  0  0  0  0  0  0  0  0
    0.9480   17.3130  -29.4120 C   0  0  0  0  0  0  0  0  0  0  0  0
    0.5900   17.2940  -28.0620 C   0  0  0  0  0  0  0  0  0  0  0  0
   -0.0990   18.3730  -27.5060 C   0  0  0  0  0  0  0  0  0  0  0  0
   -0.4430   19.4820  -28.3000 C   0  0  0  0  0  0  0  0  0  0  0  0
   -1.1260   20.5990  -27.7020 N   0  0  0  0  0  0  0  0  0  0  0  0
   -2.4300   20.4150  -27.0590 C   0  0  0  0  0  0  0  0  0  0  0  0
   -3.4280   21.4870  -27.5390 C   0  0  0  0  0  0  0  0  0  0  0  0
   -2.8020   22.7830  -27.9310 N   0  0  0  0  0  0  0  0  0  0  0  0
   -2.6830   22.9390  -29.4030 C   0  0  0  0  0  0  0  0  0  0  0  0
   -2.9720   24.3920  -29.8380 C   0  0  2  0  0  0  0  0  0  0  0  0
   -2.4020   25.2910  -28.9240 O   0  0  0  0  0  0  0  0  0  0  0  0
   -4.4900   24.6740  -29.9780 C   0  0  0  0  0  0  0  0  0  0  0  0
   -5.0230   24.2580  -31.2380 O   0  0  0  0  0  0  0  0  0  0  0  0
   -5.9490   23.2220  -31.4320 C   0  0  0  0  0  0  0  0  0  0  0  0
   -7.1470   23.2660  -30.7110 C   0  0  0  0  0  0  0  0  0  0  0  0
   -8.1560   22.3310  -30.9550 C   0  0  0  0  0  0  0  0  0  0  0  0
   -7.9650   21.3190  -31.9060 C   0  0  0  0  0  0  0  0  0  0  0  0
   -9.0960   20.3930  -32.2570 C   0  0  0  0  0  0  0  0  0  0  0  0
   -8.8360   18.9950  -31.6840 C   0  0  0  0  0  0  0  0  0  0  0  0
   -8.1310   18.1700  -32.6720 N   0  0  0  0  0  0  0  0  0  0  0  0
   -6.7300   17.9620  -32.2710 C   0  0  0  0  0  0  0  0  0  0  0  0
   -5.8860   17.4810  -33.4730 C   0  0  0  0  0  0  0  0  0  0  0  0
   -5.7260   18.6100  -34.4980 C   0  0  0  0  0  0  0  0  0  0  0  0
   -6.5010   16.2450  -34.1480 C   0  0  0  0  0  0  0  0  0  0  0  0
   -6.7410   21.2360  -32.5870 C   0  0  0  0  0  0  0  0  0  0  0  0
   -5.7330   22.1740  -32.3450 C   0  0  0  0  0  0  0  0  0  0  0  0
   -1.5040   22.9990  -27.2550 C   0  0  0  0  0  0  0  0  0  0  0  0
   -0.4840   21.9160  -27.6490 C   0  0  0  0  0  0  0  0  0  0  0  0
   -2.4538   20.5456  -31.0205 H   0  0  0  0  0  0  0  0  0  0  0  0
   -1.3613   21.4773  -32.0998 H   0  0  0  0  0  0  0  0  0  0  0  0
   -1.3068   19.6819  -32.0998 H   0  0  0  0  0  0  0  0  0  0  0  0
    0.9028   18.4194  -31.2753 H   0  0  0  0  0  0  0  0  0  0  0  0
    1.4946   16.4628  -29.8460 H   0  0  0  0  0  0  0  0  0  0  0  0
    0.8513   16.4278  -27.4364 H   0  0  0  0  0  0  0  0  0  0  0  0
   -0.3745   18.3560  -26.4412 H   0  0  0  0  0  0  0  0  0  0  0  0
   -2.8205   19.4183  -27.3123 H   0  0  0  0  0  0  0  0  0  0  0  0
   -2.3048   20.5094  -25.9702 H   0  0  0  0  0  0  0  0  0  0  0  0
   -3.9676   21.0884  -28.4108 H   0  0  0  0  0  0  0  0  0  0  0  0
   -4.0887   21.7036  -26.6866 H   0  0  0  0  0  0  0  0  0  0  0  0
   -1.6619   22.6692  -29.7106 H   0  0  0  0  0  0  0  0  0  0  0  0
   -3.4210   22.2794  -29.8830 H   0  0  0  0  0  0  0  0  0  0  0  0
   -2.5180   24.5314  -30.8302 H   0  0  0  0  0  0  0  0  0  0  0  0
   -2.6520   24.9780  -28.0140 H   0  0  0  0  0  0  0  0  0  0  0  0
   -5.0212   24.1369  -29.1784 H   0  0  0  0  0  0  0  0  0  0  0  0
   -4.6299   25.7627  -29.9055 H   0  0  0  0  0  0  0  0  0  0  0  0
   -7.2957   24.0426  -29.9463 H   0  0  0  0  0  0  0  0  0  0  0  0
   -9.1034   22.3891  -30.3991 H   0  0  0  0  0  0  0  0  0  0  0  0
  -10.0326   20.7888  -31.8374 H   0  0  0  0  0  0  0  0  0  0  0  0
   -9.1740   20.3222  -33.3519 H   0  0  0  0  0  0  0  0  0  0  0  0
   -8.2204   19.0821  -30.7766 H   0  0  0  0  0  0  0  0  0  0  0  0
   -9.7979   18.5210  -31.4387 H   0  0  0  0  0  0  0  0  0  0  0  0
   -8.1310   18.6990  -33.5760 H   0  0  0  0  0  0  0  0  0  0  0  0
   -6.3169   18.9098  -31.8954 H   0  0  0  0  0  0  0  0  0  0  0  0
   -6.6966   17.1940  -31.4842 H   0  0  0  0  0  0  0  0  0  0  0  0
   -4.8970   17.1953  -33.0854 H   0  0  0  0  0  0  0  0  0  0  0  0
   -5.5905   19.5664  -33.9718 H   0  0  0  0  0  0  0  0  0  0  0  0
   -4.8471   18.4107  -35.1288 H   0  0  0  0  0  0  0  0  0  0  0  0
   -6.6256   18.6628  -35.1288 H   0  0  0  0  0  0  0  0  0  0  0  0
   -6.8507   15.5423  -33.3774 H   0  0  0  0  0  0  0  0  0  0  0  0
   -7.3504   16.5541  -34.7749 H   0  0  0  0  0  0  0  0  0  0  0  0
   -5.7422   15.7539  -34.7749 H   0  0  0  0  0  0  0  0  0  0  0  0
   -6.5737   20.4286  -33.3151 H   0  0  0  0  0  0  0  0  0  0  0  0
   -4.7695   22.0924  -32.8694 H   0  0  0  0  0  0  0  0  0  0  0  0
   -1.1096   23.9848  -27.5423 H   0  0  0  0  0  0  0  0  0  0  0  0
   -1.6646   22.9471  -26.1680 H   0  0  0  0  0  0  0  0  0  0  0  0
   -0.0666   22.1550  -28.6383 H   0  0  0  0  0  0  0  0  0  0  0  0
    0.3164   21.8908  -26.8949 H   0  0  0  0  0  0  0  0  0  0  0  0
  1  2  1  0
  2  3  1  0
  3  4  2  0
  4  5  1  0
  5  6  2  0
  6  7  1  0
  7  8  2  0
  8  9  1  0
  9 10  1  0
 10 11  1  0
 11 12  1  0
 12 13  1  0
 13 14  1  0
 14 15  1  0
 14 16  1  0
 16 17  1  0
 17 18  1  0
 18 19  2  0
 19 20  1  0
 20 21  2  0
 21 22  1  0
 22 23  1  0
 23 24  1  0
 24 25  1  0
 25 26  1  0
 26 27  1  0
 26 28  1  0
 21 29  1  0
 29 30  2  0
 12 31  1  0
 31 32  1  0
  8  3  1  0
 32  9  1  0
 30 18  1  0
  1 33  1  0
  1 34  1  0
  1 35  1  0
  4 36  1  0
  5 37  1  0
  6 38  1  0
  7 39  1  0
 10 40  1  0
 10 41  1  0
 11 42  1  0
 11 43  1  0
 13 44  1  0
 13 45  1  0
 14 46  1  6
 15 47  1  0
 16 48  1  0
 16 49  1  0
 19 50  1  0
 20 51  1  0
 22 52  1  0
 22 53  1  0
 23 54  1  0
 23 55  1  0
 24 56  1  0
 25 57  1  0
 25 58  1  0
 26 59  1  0
 27 60  1  0
 27 61  1  0
 27 62  1  0
 28 63  1  0
 28 64  1  0
 28 65  1  0
 29 66  1  0
 30 67  1  0
 31 68  1  0
 31 69  1  0
 32 70  1  0
 32 71  1  0
M  END
>  <UniqueID>  (26) 
25

>  <SMILES>  (26) 
COc1ccccc1N1CCN(C[C@H](O)COc2ccc(CCNCC(C)C)cc2)CC1

>  <Energy>  (26) 
72.1045177562552

>  <Genealogy>  (26) 
COc1ccccc1N1CCN(C[C@H](O)COc2ccc(CCNCC(C)C)cc2)CC1 (chirality)
COc1ccccc1N1CCN(C[C@H](O)COc2ccc(CCNCC(C)C)cc2)CC1 (3D coordinates assigned)
COc1ccccc1N1CCN(C[C@H](O)COc2ccc(CCNCC(C)C)cc2)CC1 (nonaromatic ring conformer: 72.1045177562552 kcal/mol)

>  <smiles>  (26) 
COc1ccccc1N1CCN(CC(O)COc2ccc(CCNCC(C)C)cc2)CC1

>  <score_type>  (26) 
oracle

>  <origin>  (26) 
adg

>  <m_score__min__energy>  (26) 
-9.0399999999999991

>  <m_primary>  (26) 
energy

$$$$
26:0
     RDKit          3D

 49 51  0  0  0  0  0  0  0  0999 V2000
   -9.0940   21.8920  -31.5150 C   0  0  0  0  0  0  0  0  0  0  0  0
   -9.0940   20.4700  -31.4340 O   0  0  0  0  0  0  0  0  0  0  0  0
   -8.1820   19.6390  -32.1010 C   0  0  0  0  0  0  0  0  0  0  0  0
   -7.9960   18.2870  -31.7520 C   0  0  0  0  0  0  0  0  0  0  0  0
   -7.0750   17.4990  -32.4510 C   0  0  0  0  0  0  0  0  0  0  0  0
   -6.3390   18.0490  -33.5070 C   0  0  0  0  0  0  0  0  0  0  0  0
   -5.1490   17.0410  -34.3970 S   0  0  0  0  0  0  0  0  0  0  0  0
   -4.1170   16.6480  -32.9340 C   0  0  0  0  0  0  0  0  0  0  0  0
   -2.6140   16.6260  -33.2480 C   0  0  0  0  0  0  0  0  0  0  0  0
   -2.1960   17.8100  -34.0150 N   0  0  0  0  0  0  0  0  0  0  0  0
   -2.5560   19.0090  -33.3000 C   0  0  0  0  0  0  0  0  0  0  0  0
   -1.9550   19.3150  -32.0720 C   0  0  0  0  0  0  0  0  0  0  0  0
   -2.2800   20.4930  -31.3950 C   0  0  0  0  0  0  0  0  0  0  0  0
   -3.2150   21.4110  -31.9280 C   0  0  0  0  0  0  0  0  0  0  0  0
   -3.5580   22.6430  -31.2200 N   0  0  0  0  0  0  0  0  0  0  0  0
   -4.7990   23.3620  -31.5780 C   0  0  0  0  0  0  0  0  0  0  0  0
   -5.0700   24.5920  -30.7060 C   0  0  0  0  0  0  0  0  0  0  0  0
   -3.8750   25.2690  -30.3970 O   0  0  0  0  0  0  0  0  0  0  0  0
   -3.1170   24.4570  -29.5340 C   0  0  0  0  0  0  0  0  0  0  0  0
   -2.5890   23.2230  -30.2670 C   0  0  0  0  0  0  0  0  0  0  0  0
   -3.7980   21.0970  -33.1790 C   0  0  0  0  0  0  0  0  0  0  0  0
   -3.4700   19.9170  -33.8530 C   0  0  0  0  0  0  0  0  0  0  0  0
   -6.5100   19.3950  -33.8480 C   0  0  0  0  0  0  0  0  0  0  0  0
   -7.4310   20.1830  -33.1510 C   0  0  0  0  0  0  0  0  0  0  0  0
   -8.0569   22.2581  -31.5359 H   0  0  0  0  0  0  0  0  0  0  0  0
   -9.6125   22.2070  -32.4325 H   0  0  0  0  0  0  0  0  0  0  0  0
   -9.6125   22.3092  -30.6392 H   0  0  0  0  0  0  0  0  0  0  0  0
   -8.5769   17.8491  -30.9269 H   0  0  0  0  0  0  0  0  0  0  0  0
   -6.9291   16.4455  -32.1702 H   0  0  0  0  0  0  0  0  0  0  0  0
   -4.3023   17.4075  -32.1602 H   0  0  0  0  0  0  0  0  0  0  0  0
   -4.3970   15.6396  -32.5953 H   0  0  0  0  0  0  0  0  0  0  0  0
   -2.0535   16.5991  -32.3019 H   0  0  0  0  0  0  0  0  0  0  0  0
   -2.4063   15.7343  -33.8577 H   0  0  0  0  0  0  0  0  0  0  0  0
   -1.1610   17.7970  -34.1640 H   0  0  0  0  0  0  0  0  0  0  0  0
   -2.6590   17.8040  -34.9540 H   0  0  0  0  0  0  0  0  0  0  0  0
   -1.2205   18.6213  -31.6369 H   0  0  0  0  0  0  0  0  0  0  0  0
   -1.7999   20.7107  -30.4295 H   0  0  0  0  0  0  0  0  0  0  0  0
   -4.7214   23.6889  -32.6254 H   0  0  0  0  0  0  0  0  0  0  0  0
   -5.6335   22.6635  -31.4177 H   0  0  0  0  0  0  0  0  0  0  0  0
   -5.7401   25.2756  -31.2479 H   0  0  0  0  0  0  0  0  0  0  0  0
   -5.5346   24.2580  -29.7665 H   0  0  0  0  0  0  0  0  0  0  0  0
   -2.2663   25.0378  -29.1481 H   0  0  0  0  0  0  0  0  0  0  0  0
   -3.7626   24.1247  -28.7077 H   0  0  0  0  0  0  0  0  0  0  0  0
   -1.6834   23.5089  -30.8222 H   0  0  0  0  0  0  0  0  0  0  0  0
   -2.3868   22.4562  -29.5047 H   0  0  0  0  0  0  0  0  0  0  0  0
   -4.5214   21.7932  -33.6284 H   0  0  0  0  0  0  0  0  0  0  0  0
   -3.9334   19.6988  -34.8265 H   0  0  0  0  0  0  0  0  0  0  0  0
   -5.9192   19.8339  -34.6655 H   0  0  0  0  0  0  0  0  0  0  0  0
   -7.5669   21.2385  -33.4294 H   0  0  0  0  0  0  0  0  0  0  0  0
  1  2  1  0
  2  3  1  0
  3  4  2  0
  4  5  1  0
  5  6  2  0
  6  7  1  0
  7  8  1  0
  8  9  1  0
  9 10  1  0
 10 11  1  0
 11 12  2  0
 12 13  1  0
 13 14  2  0
 14 15  1  0
 15 16  1  0
 16 17  1  0
 17 18  1  0
 18 19  1  0
 19 20  1  0
 14 21  1  0
 21 22  2  0
  6 23  1  0
 23 24  2  0
 24  3  1  0
 22 11  1  0
 20 15  1  0
  1 25  1  0
  1 26  1  0
  1 27  1  0
  4 28  1  0
  5 29  1  0
  8 30  1  0
  8 31  1  0
  9 32  1  0
  9 33  1  0
 10 34  1  0
 10 35  1  0
 12 36  1  0
 13 37  1  0
 16 38  1  0
 16 39  1  0
 17 40  1  0
 17 41  1  0
 19 42  1  0
 19 43  1  0
 20 44  1  0
 20 45  1  0
 21 46  1  0
 22 47  1  0
 23 48  1  0
 24 49  1  0
M  CHG  1  10   1
M  END
>  <UniqueID>  (27) 
26

>  <SMILES>  (27) 
COc1ccc(SCC[NH2+]c2ccc(N3CCOCC3)cc2)cc1

>  <Energy>  (27) 
52.34580024139321

>  <Genealogy>  (27) 
COc1ccc(SCC[NH2+]c2ccc(N3CCOCC3)cc2)cc1 (protonated)
COc1ccc(SCC[NH2+]c2ccc(N3CCOCC3)cc2)cc1 (3D coordinates assigned)
COc1ccc(SCC[NH2+]c2ccc(N3CCOCC3)cc2)cc1 (nonaromatic ring conformer: 52.34580024139321 kcal/mol)

>  <smiles>  (27) 
COc1ccc(SCCNc2ccc(N3CCOCC3)cc2)cc1

>  <score_type>  (27) 
oracle

>  <origin>  (27) 
adg

>  <m_score__min__energy>  (27) 
-7.9299999999999997

>  <m_primary>  (27) 
energy

$$$$
27:0
     RDKit          3D

 33 35  0  0  1  0  0  0  0  0999 V2000
   -6.0270   17.3300  -32.1420 C   0  0  0  0  0  0  0  0  0  0  0  0
   -6.6560   18.5020  -31.5960 N   0  0  0  0  0  0  0  0  0  0  0  0
   -5.8280   19.6680  -31.6080 C   0  0  0  0  0  0  0  0  0  0  0  0
   -6.4700   20.6630  -32.5530 C   0  0  1  0  0  0  0  0  0  0  0  0
   -7.2220   19.6840  -33.4650 C   0  0  0  0  0  0  0  0  0  0  0  0
   -7.8560   18.8300  -32.3820 C   0  0  2  0  0  0  0  0  0  0  0  0
   -8.7420   19.6150  -31.4660 C   0  0  0  0  0  0  0  0  0  0  0  0
   -8.7270   21.0880  -31.8570 C   0  0  0  0  0  0  0  0  0  0  0  0
   -7.3630   21.5320  -31.8570 N   0  0  0  0  0  0  0  0  0  0  0  0
   -7.2870   22.9000  -32.2530 C   0  0  0  0  0  0  0  0  0  0  0  0
   -6.3670   23.6830  -31.3200 C   0  0  0  0  0  0  0  0  0  0  0  0
   -6.8280   24.5650  -30.4550 C   0  0  0  0  0  0  0  0  0  0  0  0
   -5.9030   25.2370  -29.6350 C   0  0  0  0  0  0  0  0  0  0  0  0
   -4.2710   24.5880  -30.1120 S   0  0  0  0  0  0  0  0  0  0  0  0
   -4.9970   23.4300  -31.4130 C   0  0  0  0  0  0  0  0  0  0  0  0
   -5.6804   16.6841  -31.3218 H   0  0  0  0  0  0  0  0  0  0  0  0
   -6.7511   16.7799  -32.7609 H   0  0  0  0  0  0  0  0  0  0  0  0
   -5.1683   17.6293  -32.7609 H   0  0  0  0  0  0  0  0  0  0  0  0
   -5.7645   20.0957  -30.5965 H   0  0  0  0  0  0  0  0  0  0  0  0
   -4.8080   19.4195  -31.9363 H   0  0  0  0  0  0  0  0  0  0  0  0
   -5.7800   21.3469  -33.0688 H   0  0  0  0  0  0  0  0  0  0  0  0
   -7.9730   20.1897  -34.0897 H   0  0  0  0  0  0  0  0  0  0  0  0
   -6.6106   19.1481  -34.2060 H   0  0  0  0  0  0  0  0  0  0  0  0
   -8.4641   18.0104  -32.7924 H   0  0  0  0  0  0  0  0  0  0  0  0
   -9.7702   19.2304  -31.5366 H   0  0  0  0  0  0  0  0  0  0  0  0
   -8.3738   19.5128  -30.4345 H   0  0  0  0  0  0  0  0  0  0  0  0
   -9.1602   21.2124  -32.8604 H   0  0  0  0  0  0  0  0  0  0  0  0
   -9.3215   21.6789  -31.1447 H   0  0  0  0  0  0  0  0  0  0  0  0
   -6.8941   22.9574  -33.2789 H   0  0  0  0  0  0  0  0  0  0  0  0
   -8.2948   23.3381  -32.2044 H   0  0  0  0  0  0  0  0  0  0  0  0
   -7.9059   24.7697  -30.3766 H   0  0  0  0  0  0  0  0  0  0  0  0
   -6.1203   25.9946  -28.8677 H   0  0  0  0  0  0  0  0  0  0  0  0
   -4.4716   22.7298  -32.0790 H   0  0  0  0  0  0  0  0  0  0  0  0
  1  2  1  0
  2  3  1  0
  3  4  1  0
  4  5  1  0
  5  6  1  0
  6  7  1  0
  7  8  1  0
  8  9  1  0
  9 10  1  0
 10 11  1  0
 11 12  1  0
 12 13  2  0
 13 14  1  0
 14 15  1  0
  6  2  1  0
 15 11  2  0
  9  4  1  0
  1 16  1  0
  1 17  1  0
  1 18  1  0
  3 19  1  0
  3 20  1  0
  4 21  1  6
  5 22  1  0
  5 23  1  0
  6 24  1  6
  7 25  1  0
  7 26  1  0
  8 27  1  0
  8 28  1  0
 10 29  1  0
 10 30  1  0
 12 31  1  0
 13 32  1  0
 15 33  1  0
M  END
>  <smiles>  (28) 
CN1CC2CC1CCN2Cc1ccsc1

>  <score_type>  (28) 
oracle

>  <origin>  (28) 
adg

>  <m_score__min__energy>  (28) 
-6.7000000000000002

>  <m_primary>  (28) 
energy

$$$$
28:0
     RDKit          3D

 65 66  0  0  0  0  0  0  0  0999 V2000
   -5.3820   14.7150  -33.8950 C   0  0  0  0  0  0  0  0  0  0  0  0
   -6.5060   15.6970  -34.2220 C   0  0  0  0  0  0  0  0  0  0  0  0
   -6.1760   17.0610  -33.7420 N   0  0  0  0  0  0  0  0  0  0  0  0
   -7.1170   17.4870  -32.6800 C   0  0  0  0  0  0  0  0  0  0  0  0
   -6.4300   17.4560  -31.3170 C   0  0  0  0  0  0  0  0  0  0  0  0
   -4.7790   17.1160  -33.2460 C   0  0  0  0  0  0  0  0  0  0  0  0
   -3.9370   18.1160  -34.0440 C   0  0  0  0  0  0  0  0  0  0  0  0
   -2.6870   18.3510  -33.3980 O   0  0  0  0  0  0  0  0  0  0  0  0
   -1.9000   19.4880  -33.6220 C   0  0  0  0  0  0  0  0  0  0  0  0
   -1.5120   19.7620  -34.7900 O   0  0  0  0  0  0  0  0  0  0  0  0
   -1.4730   20.3780  -32.4570 C   0  0  2  0  0  0  0  0  0  0  0  0
   -0.1720   21.1340  -32.8330 C   0  0  0  0  0  0  0  0  0  0  0  0
   -1.1280   19.4460  -31.2520 C   0  0  0  0  0  0  0  0  0  0  0  0
    0.1520   19.8110  -30.4890 C   0  0  0  0  0  0  0  0  0  0  0  0
   -2.5370   21.3820  -32.1100 N   0  0  0  0  0  0  0  0  0  0  0  0
   -3.4660   21.8840  -33.1540 C   0  0  0  0  0  0  0  0  0  0  0  0
   -4.9150   21.8730  -32.7140 C   0  0  0  0  0  0  0  0  0  0  0  0
   -5.5540   23.0450  -32.2700 C   0  0  0  0  0  0  0  0  0  0  0  0
   -6.8900   23.0100  -31.8560 C   0  0  0  0  0  0  0  0  0  0  0  0
   -7.5950   21.8060  -31.8620 C   0  0  0  0  0  0  0  0  0  0  0  0
   -6.9640   20.6300  -32.2710 C   0  0  0  0  0  0  0  0  0  0  0  0
   -5.6280   20.6590  -32.6840 C   0  0  0  0  0  0  0  0  0  0  0  0
   -2.9240   21.6620  -30.7320 C   0  0  0  0  0  0  0  0  0  0  0  0
   -3.9520   21.1120  -30.2520 O   0  0  0  0  0  0  0  0  0  0  0  0
   -2.0840   22.4720  -29.8220 C   0  0  0  0  0  0  0  0  0  0  0  0
   -2.4190   23.6760  -29.3330 C   0  0  0  0  0  0  0  0  0  0  0  0
   -3.6990   24.3780  -29.5510 C   0  0  0  0  0  0  0  0  0  0  0  0
   -4.9070   24.1520  -28.9120 C   0  0  0  0  0  0  0  0  0  0  0  0
   -5.8060   25.0160  -29.4980 C   0  0  0  0  0  0  0  0  0  0  0  0
   -5.1010   25.7070  -30.4610 C   0  0  0  0  0  0  0  0  0  0  0  0
   -3.8530   25.3000  -30.4730 O   0  0  0  0  0  0  0  0  0  0  0  0
   -5.2794   14.6254  -32.8035 H   0  0  0  0  0  0  0  0  0  0  0  0
   -5.6196   13.7300  -34.3231 H   0  0  0  0  0  0  0  0  0  0  0  0
   -4.4378   15.0827  -34.3231 H   0  0  0  0  0  0  0  0  0  0  0  0
   -6.6536   15.7250  -35.3117 H   0  0  0  0  0  0  0  0  0  0  0  0
   -7.4236   15.3602  -33.7175 H   0  0  0  0  0  0  0  0  0  0  0  0
   -7.4608   18.5107  -32.8895 H   0  0  0  0  0  0  0  0  0  0  0  0
   -7.9734   16.7968  -32.6639 H   0  0  0  0  0  0  0  0  0  0  0  0
   -7.1900   17.4903  -30.5225 H   0  0  0  0  0  0  0  0  0  0  0  0
   -5.8430   16.5305  -31.2232 H   0  0  0  0  0  0  0  0  0  0  0  0
   -5.7620   18.3249  -31.2232 H   0  0  0  0  0  0  0  0  0  0  0  0
   -4.7871   17.4196  -32.1888 H   0  0  0  0  0  0  0  0  0  0  0  0
   -4.3321   16.1179  -33.3643 H   0  0  0  0  0  0  0  0  0  0  0  0
   -3.7531   17.7113  -35.0502 H   0  0  0  0  0  0  0  0  0  0  0  0
   -4.4855   19.0672  -34.1097 H   0  0  0  0  0  0  0  0  0  0  0  0
    0.3530   21.4390  -31.9157 H   0  0  0  0  0  0  0  0  0  0  0  0
    0.4781   20.4730  -33.4250 H   0  0  0  0  0  0  0  0  0  0  0  0
   -0.4244   22.0261  -33.4250 H   0  0  0  0  0  0  0  0  0  0  0  0
   -1.9684   19.4812  -30.5431 H   0  0  0  0  0  0  0  0  0  0  0  0
   -0.9545   18.4471  -31.6788 H   0  0  0  0  0  0  0  0  0  0  0  0
   -0.0381   19.7568  -29.4069 H   0  0  0  0  0  0  0  0  0  0  0  0
    0.9522   19.1052  -30.7565 H   0  0  0  0  0  0  0  0  0  0  0  0
    0.4596   20.8327  -30.7565 H   0  0  0  0  0  0  0  0  0  0  0  0
   -3.1844   22.9170  -33.4060 H   0  0  0  0  0  0  0  0  0  0  0  0
   -3.3808   21.2113  -34.0201 H   0  0  0  0  0  0  0  0  0  0  0  0
   -4.9998   23.9949  -32.2482 H   0  0  0  0  0  0  0  0  0  0  0  0
   -7.3860   23.9343  -31.5248 H   0  0  0  0  0  0  0  0  0  0  0  0
   -8.6479   21.7835  -31.5445 H   0  0  0  0  0  0  0  0  0  0  0  0
   -7.5179   19.6796  -32.2685 H   0  0  0  0  0  0  0  0  0  0  0  0
   -5.1303   19.7262  -32.9877 H   0  0  0  0  0  0  0  0  0  0  0  0
   -1.1107   22.0554  -29.5236 H   0  0  0  0  0  0  0  0  0  0  0  0
   -1.6694   24.1877  -28.7115 H   0  0  0  0  0  0  0  0  0  0  0  0
   -5.1070   23.4323  -28.1045 H   0  0  0  0  0  0  0  0  0  0  0  0
   -6.8710   25.1314  -29.2482 H   0  0  0  0  0  0  0  0  0  0  0  0
   -5.5208   26.4818  -31.1193 H   0  0  0  0  0  0  0  0  0  0  0  0
  1  2  1  0
  2  3  1  0
  3  4  1  0
  4  5  1  0
  3  6  1  0
  6  7  1  0
  7  8  1  0
  8  9  1  0
  9 10  2  0
  9 11  1  0
 11 12  1  0
 11 13  1  0
 13 14  1  0
 11 15  1  1
 15 16  1  0
 16 17  1  0
 17 18  2  0
 18 19  1  0
 19 20  2  0
 20 21  1  0
 21 22  2  0
 15 23  1  0
 23 24  2  0
 23 25  1  0
 25 26  2  3
 26 27  1  0
 27 28  2  0
 28 29  1  0
 29 30  2  0
 30 31  1  0
 22 17  1  0
 31 27  1  0
  1 32  1  0
  1 33  1  0
  1 34  1  0
  2 35  1  0
  2 36  1  0
  4 37  1  0
  4 38  1  0
  5 39  1  0
  5 40  1  0
  5 41  1  0
  6 42  1  0
  6 43  1  0
  7 44  1  0
  7 45  1  0
 12 46  1  0
 12 47  1  0
 12 48  1  0
 13 49  1  0
 13 50  1  0
 14 51  1  0
 14 52  1  0
 14 53  1  0
 16 54  1  0
 16 55  1  0
 18 56  1  0
 19 57  1  0
 20 58  1  0
 21 59  1  0
 22 60  1  0
 25 61  1  0
 26 62  1  0
 28 63  1  0
 29 64  1  0
 30 65  1  0
M  END
>  <UniqueID>  (29) 
27

>  <SMILES>  (29) 
CCN(CC)CCOC(=O)[C@](C)(CC)N(Cc1ccccc1)C(=O)C=Cc1ccco1

>  <Energy>  (29) 
99.56886235128054

>  <Genealogy>  (29) 
CCN(CC)CCOC(=O)[C@](C)(CC)N(Cc1ccccc1)C(=O)C=Cc1ccco1 (chirality)
CCN(CC)CCOC(=O)[C@](C)(CC)N(Cc1ccccc1)C(=O)C=Cc1ccco1 (3D coordinates assigned)
CCN(CC)CCOC(=O)[C@](C)(CC)N(Cc1ccccc1)C(=O)C=Cc1ccco1 (optimized conformer: 99.56886235128054 kcal/mol)

>  <smiles>  (29) 
CCN(CC)CCOC(=O)C(C)(CC)N(Cc1ccccc1)C(=O)C=Cc1ccco1

>  <score_type>  (29) 
oracle

>  <origin>  (29) 
adg

>  <m_score__min__energy>  (29) 
-8.5299999999999994

>  <m_primary>  (29) 
energy

$$$$
29:0
     RDKit          3D

 29 30  0  0  0  0  0  0  0  0999 V2000
   -5.7371   19.4019  -33.9186 H   0  0  0  0  0  0  0  0  0  0  0  0
   -5.7450   20.3260  -33.3220 C   0  0  0  0  0  0  0  0  0  0  0  0
   -6.9490   20.8150  -32.8080 C   0  0  0  0  0  0  0  0  0  0  0  0
   -7.8858   20.2726  -33.0035 H   0  0  0  0  0  0  0  0  0  0  0  0
   -6.9730   21.9930  -32.0440 C   0  0  0  0  0  0  0  0  0  0  0  0
   -8.2840   22.4530  -31.4640 C   0  0  0  0  0  0  0  0  0  0  0  0
   -8.2263   22.4327  -30.3657 H   0  0  0  0  0  0  0  0  0  0  0  0
   -8.4944   23.4787  -31.8013 H   0  0  0  0  0  0  0  0  0  0  0  0
   -9.0891   21.7837  -31.8013 H   0  0  0  0  0  0  0  0  0  0  0  0
   -5.7670   22.7120  -31.8450 C   0  0  0  0  0  0  0  0  0  0  0  0
   -5.7280   23.9410  -31.1090 N   0  0  0  0  0  0  0  0  0  0  0  0
   -4.5460   24.4710  -30.5050 C   0  0  0  0  0  0  0  0  0  0  0  0
   -4.1530   25.6190  -30.8420 O   0  0  0  0  0  0  0  0  0  0  0  0
   -3.8760   23.7300  -29.4710 N   0  0  0  0  0  0  0  0  0  0  0  0
   -2.6840   23.9300  -28.9880 C   0  0  0  0  0  0  0  0  0  0  0  0
   -2.0880   23.1190  -28.0470 C   0  0  0  0  0  0  0  0  0  0  0  0
   -2.5012   22.2274  -27.5528 H   0  0  0  0  0  0  0  0  0  0  0  0
   -0.8450   23.6980  -27.8750 C   0  0  0  0  0  0  0  0  0  0  0  0
    0.2350   23.2080  -26.9720 C   0  0  0  0  0  0  0  0  0  0  0  0
   -0.0715   23.3470  -25.9247 H   0  0  0  0  0  0  0  0  0  0  0  0
    0.4156   22.1398  -27.1624 H   0  0  0  0  0  0  0  0  0  0  0  0
    1.1578   23.7756  -27.1624 H   0  0  0  0  0  0  0  0  0  0  0  0
   -0.7390   24.7430  -28.6640 O   0  0  0  0  0  0  0  0  0  0  0  0
   -1.8320   24.9120  -29.3480 N   0  0  0  0  0  0  0  0  0  0  0  0
   -1.9590   25.6640  -30.0580 H   0  0  0  0  0  0  0  0  0  0  0  0
   -4.5640   22.1930  -32.3390 C   0  0  0  0  0  0  0  0  0  0  0  0
   -3.6200   22.7223  -32.1425 H   0  0  0  0  0  0  0  0  0  0  0  0
   -4.5530   21.0090  -33.0790 C   0  0  0  0  0  0  0  0  0  0  0  0
   -3.3840   20.5260  -33.5670 F   0  0  0  0  0  0  0  0  0  0  0  0
  1  2  1  0
  2  3  2  0
  3  4  1  0
  3  5  1  0
  5  6  1  0
  6  7  1  0
  6  8  1  0
  6  9  1  0
  5 10  2  0
 10 11  1  0
 11 12  1  0
 12 13  2  0
 12 14  1  0
 14 15  2  0
 15 16  1  0
 16 17  1  0
 16 18  2  0
 18 19  1  0
 19 20  1  0
 19 21  1  0
 19 22  1  0
 18 23  1  0
 23 24  1  0
 24 25  1  0
 10 26  1  0
 26 27  1  0
 26 28  2  0
 28 29  1  0
 28  2  1  0
 24 15  1  0
M  CHG  1  11  -1
M  END
>  <UniqueID>  (30) 
28

>  <SMILES>  (30) 
Cc1c/c(=N/C(=O)[N-]c2cc(F)ccc2C)[nH]o1

>  <Energy>  (30) 
70.04498529024733

>  <Genealogy>  (30) 
Cc1cc(=NC(=O)[N-]c2cc(F)ccc2C)[nH]o1 (protonated)
Cc1c/c(=N/C(=O)[N-]c2cc(F)ccc2C)[nH]o1 (cis-trans isomerization)
Cc1c/c(=N/C(=O)[N-]c2cc(F)ccc2C)[nH]o1 (3D coordinates assigned)
Cc1c/c(=N/C(=O)[N-]c2cc(F)ccc2C)[nH]o1 (optimized conformer: 70.04498529024733 kcal/mol)

>  <smiles>  (30) 
Cc1cc(=NC(=O)Nc2cc(F)ccc2C)[nH]o1

>  <score_type>  (30) 
oracle

>  <origin>  (30) 
adg

>  <m_score__min__energy>  (30) 
-7.96

>  <m_primary>  (30) 
energy

$$$$
30:0
     RDKit          3D

 26 27  0  0  0  0  0  0  0  0999 V2000
   -0.2899   25.5341  -27.6730 H   0  0  0  0  0  0  0  0  0  0  0  0
   -1.2000   25.0230  -28.0200 C   0  0  0  0  0  0  0  0  0  0  0  0
   -1.7870   25.3090  -29.2130 N   0  0  0  0  0  0  0  0  0  0  0  0
   -2.8870   24.5500  -29.4120 C   0  0  0  0  0  0  0  0  0  0  0  0
   -3.6340   24.6210  -30.4700 N   0  0  0  0  0  0  0  0  0  0  0  0
   -5.3500   24.8540  -30.4030 S   0  0  0  0  0  0  0  0  0  0  0  0
   -5.7320   26.0680  -31.2020 O   0  0  0  0  0  0  0  0  0  0  0  0
   -5.7840   25.0450  -28.9770 O   0  0  0  0  0  0  0  0  0  0  0  0
   -6.1440   23.4340  -31.0740 C   0  0  0  0  0  0  0  0  0  0  0  0
   -7.4420   23.0960  -30.6710 C   0  0  0  0  0  0  0  0  0  0  0  0
   -7.9624   23.7145  -29.9249 H   0  0  0  0  0  0  0  0  0  0  0  0
   -8.0790   21.9760  -31.2130 C   0  0  0  0  0  0  0  0  0  0  0  0
   -9.0963   21.7133  -30.8872 H   0  0  0  0  0  0  0  0  0  0  0  0
   -7.4240   21.1830  -32.1740 C   0  0  0  0  0  0  0  0  0  0  0  0
   -8.0200   20.0490  -32.7480 O   0  0  0  0  0  0  0  0  0  0  0  0
   -8.7230   19.0510  -32.0140 C   0  0  0  0  0  0  0  0  0  0  0  0
   -8.5962   19.2310  -30.9363 H   0  0  0  0  0  0  0  0  0  0  0  0
   -9.7921   19.0929  -32.2695 H   0  0  0  0  0  0  0  0  0  0  0  0
   -8.3236   18.0584  -32.2695 H   0  0  0  0  0  0  0  0  0  0  0  0
   -6.1300   21.5310  -32.5790 C   0  0  0  0  0  0  0  0  0  0  0  0
   -5.6102   20.9185  -33.3304 H   0  0  0  0  0  0  0  0  0  0  0  0
   -5.4930   22.6510  -32.0360 C   0  0  0  0  0  0  0  0  0  0  0  0
   -4.4779   22.9180  -32.3651 H   0  0  0  0  0  0  0  0  0  0  0  0
   -3.1780   23.5040  -28.1330 S   0  0  0  0  0  0  0  0  0  0  0  0
   -1.8340   24.0370  -27.2700 C   0  0  0  0  0  0  0  0  0  0  0  0
   -1.5128   23.6695  -26.2842 H   0  0  0  0  0  0  0  0  0  0  0  0
  1  2  1  0
  2  3  1  0
  3  4  1  0
  4  5  2  0
  5  6  1  0
  6  7  2  0
  6  8  2  0
  6  9  1  0
  9 10  2  0
 10 11  1  0
 10 12  1  0
 12 13  1  0
 12 14  2  0
 14 15  1  0
 15 16  1  0
 16 17  1  0
 16 18  1  0
 16 19  1  0
 14 20  1  0
 20 21  1  0
 20 22  2  0
 22 23  1  0
  4 24  1  0
 24 25  1  0
 25 26  1  0
 25  2  2  0
 22  9  1  0
M  CHG  1   3  -1
M  END
>  <UniqueID>  (31) 
29

>  <SMILES>  (31) 
COc1ccc(S(=O)(=O)/N=c2\[n-]ccs2)cc1

>  <Energy>  (31) 
59.32474181074122

>  <Genealogy>  (31) 
COc1ccc(S(=O)(=O)N=c2[n-]ccs2)cc1 (protonated)
COc1ccc(S(=O)(=O)/N=c2\[n-]ccs2)cc1 (cis-trans isomerization)
COc1ccc(S(=O)(=O)/N=c2\[n-]ccs2)cc1 (3D coordinates assigned)
COc1ccc(S(=O)(=O)/N=c2\[n-]ccs2)cc1 (optimized conformer: 59.32474181074122 kcal/mol)

>  <smiles>  (31) 
COc1ccc(S(=O)(=O)N=c2[nH]ccs2)cc1

>  <score_type>  (31) 
oracle

>  <origin>  (31) 
adg

>  <m_score__min__energy>  (31) 
-8

>  <m_primary>  (31) 
energy

$$$$
31:0
     RDKit          3D

 67 69  0  0  0  0  0  0  0  0999 V2000
   -2.4106   23.8164  -30.2763 H   0  0  0  0  0  0  0  0  0  0  0  0
   -2.9400   23.7190  -29.3170 C   0  0  0  0  0  0  0  0  0  0  0  0
   -3.9820   22.8790  -29.2530 C   0  0  0  0  0  0  0  0  0  0  0  0
   -4.2366   22.4115  -28.2904 H   0  0  0  0  0  0  0  0  0  0  0  0
   -4.8020   22.5640  -30.4520 C   0  0  0  0  0  0  0  0  0  0  0  0
   -4.3220   21.6040  -31.3710 C   0  0  0  0  0  0  0  0  0  0  0  0
   -3.1150   20.8960  -31.1780 C   0  0  0  0  0  0  0  0  0  0  0  0
   -2.5000   21.0989  -30.2889 H   0  0  0  0  0  0  0  0  0  0  0  0
   -2.6960   19.9410  -32.1060 C   0  0  0  0  0  0  0  0  0  0  0  0
   -1.7535   19.3969  -31.9460 H   0  0  0  0  0  0  0  0  0  0  0  0
   -3.4700   19.6750  -33.2360 C   0  0  0  0  0  0  0  0  0  0  0  0
   -3.1373   18.9219  -33.9655 H   0  0  0  0  0  0  0  0  0  0  0  0
   -4.6660   20.3640  -33.4410 C   0  0  0  0  0  0  0  0  0  0  0  0
   -5.2749   20.1514  -34.3321 H   0  0  0  0  0  0  0  0  0  0  0  0
   -5.0960   21.3290  -32.5130 C   0  0  0  0  0  0  0  0  0  0  0  0
   -6.2780   21.9690  -32.6990 N   0  0  0  0  0  0  0  0  0  0  0  0
   -6.8560   21.7260  -33.5370 H   0  0  0  0  0  0  0  0  0  0  0  0
   -6.7600   22.8700  -31.7950 C   0  0  0  0  0  0  0  0  0  0  0  0
   -8.1780   23.3780  -32.0100 C   0  0  0  0  0  0  0  0  0  0  0  0
   -8.2496   23.8110  -33.0187 H   0  0  0  0  0  0  0  0  0  0  0  0
   -8.3876   24.1296  -31.2346 H   0  0  0  0  0  0  0  0  0  0  0  0
   -9.2280   22.2560  -31.8760 C   0  0  0  0  0  0  0  0  0  0  0  0
   -9.5902   21.9938  -32.8810 H   0  0  0  0  0  0  0  0  0  0  0  0
  -10.0353   22.6375  -31.2335 H   0  0  0  0  0  0  0  0  0  0  0  0
   -8.6720   20.9840  -31.2080 C   0  0  0  0  0  0  0  0  0  0  0  0
   -9.0375   20.9459  -30.1712 H   0  0  0  0  0  0  0  0  0  0  0  0
   -7.5747   21.0424  -31.2590 H   0  0  0  0  0  0  0  0  0  0  0  0
   -9.0940   19.6840  -31.9240 C   0  0  0  0  0  0  0  0  0  0  0  0
   -9.8484   19.9295  -32.6859 H   0  0  0  0  0  0  0  0  0  0  0  0
   -9.4964   18.9984  -31.1637 H   0  0  0  0  0  0  0  0  0  0  0  0
   -7.9120   18.9810  -32.6090 C   0  0  0  0  0  0  0  0  0  0  0  0
   -7.3246   19.7326  -33.1569 H   0  0  0  0  0  0  0  0  0  0  0  0
   -8.3248   18.2172  -33.2845 H   0  0  0  0  0  0  0  0  0  0  0  0
   -6.9900   18.2690  -31.6110 C   0  0  0  0  0  0  0  0  0  0  0  0
   -7.6089   17.7449  -30.8679 H   0  0  0  0  0  0  0  0  0  0  0  0
   -6.3538   19.0298  -31.1350 H   0  0  0  0  0  0  0  0  0  0  0  0
   -6.0720   17.2480  -32.3000 C   0  0  0  0  0  0  0  0  0  0  0  0
   -6.3545   16.2390  -31.9650 H   0  0  0  0  0  0  0  0  0  0  0  0
   -5.0361   17.4943  -32.0237 H   0  0  0  0  0  0  0  0  0  0  0  0
   -6.1670   17.3010  -33.8260 C   0  0  0  0  0  0  0  0  0  0  0  0
   -7.0931   17.8177  -34.1180 H   0  0  0  0  0  0  0  0  0  0  0  0
   -5.3005   17.8460  -34.2286 H   0  0  0  0  0  0  0  0  0  0  0  0
   -6.1757   16.2774  -34.2286 H   0  0  0  0  0  0  0  0  0  0  0  0
   -6.0030   23.2110  -30.6870 N   0  0  0  0  0  0  0  0  0  0  0  0
   -6.4820   24.2280  -29.7230 C   0  0  0  0  0  0  0  0  0  0  0  0
   -6.3129   23.8691  -28.6970 H   0  0  0  0  0  0  0  0  0  0  0  0
   -5.9319   25.1679  -29.8779 H   0  0  0  0  0  0  0  0  0  0  0  0
   -7.5570   24.4025  -29.8779 H   0  0  0  0  0  0  0  0  0  0  0  0
   -2.4590   24.5260  -28.1670 C   0  0  0  0  0  0  0  0  0  0  0  0
   -3.1400   24.5720  -26.9390 C   0  0  0  0  0  0  0  0  0  0  0  0
   -4.0734   24.0040  -26.8116 H   0  0  0  0  0  0  0  0  0  0  0  0
   -2.6420   25.3330  -25.8780 C   0  0  0  0  0  0  0  0  0  0  0  0
   -3.1828   25.3459  -24.9202 H   0  0  0  0  0  0  0  0  0  0  0  0
   -1.4580   26.0840  -26.0160 C   0  0  0  0  0  0  0  0  0  0  0  0
   -0.9360   26.8720  -24.9100 N   0  0  0  0  0  0  0  0  0  0  0  0
   -0.5290   26.2220  -23.6570 C   0  0  0  0  0  0  0  0  0  0  0  0
   -0.8969   26.8095  -22.8029 H   0  0  0  0  0  0  0  0  0  0  0  0
   -0.9539   25.2083  -23.6150 H   0  0  0  0  0  0  0  0  0  0  0  0
    0.5685   26.1616  -23.6150 H   0  0  0  0  0  0  0  0  0  0  0  0
   -0.8160   28.3300  -25.0200 C   0  0  0  0  0  0  0  0  0  0  0  0
   -0.7796   28.7719  -24.0133 H   0  0  0  0  0  0  0  0  0  0  0  0
    0.1059   28.5820  -25.5646 H   0  0  0  0  0  0  0  0  0  0  0  0
   -1.6843   28.7293  -25.5646 H   0  0  0  0  0  0  0  0  0  0  0  0
   -0.7890   26.0460  -27.2590 C   0  0  0  0  0  0  0  0  0  0  0  0
    0.1360   26.6253  -27.3960 H   0  0  0  0  0  0  0  0  0  0  0  0
   -1.2880   25.2810  -28.3180 C   0  0  0  0  0  0  0  0  0  0  0  0
   -0.7554   25.2718  -29.2804 H   0  0  0  0  0  0  0  0  0  0  0  0
  1  2  1  0
  2  3  2  0
  3  4  1  0
  3  5  1  0
  5  6  1  0
  6  7  2  0
  7  8  1  0
  7  9  1  0
  9 10  1  0
  9 11  2  0
 11 12  1  0
 11 13  1  0
 13 14  1  0
 13 15  2  0
 15 16  1  0
 16 17  1  0
 16 18  2  0
 18 19  1  0
 19 20  1  0
 19 21  1  0
 19 22  1  0
 22 23  1  0
 22 24  1  0
 22 25  1  0
 25 26  1  0
 25 27  1  0
 25 28  1  0
 28 29  1  0
 28 30  1  0
 28 31  1  0
 31 32  1  0
 31 33  1  0
 31 34  1  0
 34 35  1  0
 34 36  1  0
 34 37  1  0
 37 38  1  0
 37 39  1  0
 37 40  1  0
 40 41  1  0
 40 42  1  0
 40 43  1  0
 18 44  1  0
 44 45  1  0
 45 46  1  0
 45 47  1  0
 45 48  1  0
  2 49  1  0
 49 50  2  0
 50 51  1  0
 50 52  1  0
 52 53  1  0
 52 54  2  0
 54 55  1  0
 55 56  1  0
 56 57  1  0
 56 58  1  0
 56 59  1  0
 55 60  1  0
 60 61  1  0
 60 62  1  0
 60 63  1  0
 54 64  1  0
 64 65  1  0
 64 66  2  0
 66 67  1  0
 44  5  2  0
 66 49  1  0
 15  6  1  0
M  CHG  2  16   1  44   1
M  END
>  <UniqueID>  (32) 
30

>  <SMILES>  (32) 
CCCCCCCCc1[nH+]c2ccccc2c(/C=C/c2ccc(N(C)C)cc2)[n+]1C

>  <Energy>  (32) 
80.45763603555561

>  <Genealogy>  (32) 
CCCCCCCCc1[nH+]c2ccccc2c(C=Cc2ccc(N(C)C)cc2)[n+]1C (protonated)
CCCCCCCCc1[nH+]c2ccccc2c(/C=C/c2ccc(N(C)C)cc2)[n+]1C (cis-trans isomerization)
CCCCCCCCc1[nH+]c2ccccc2c(/C=C/c2ccc(N(C)C)cc2)[n+]1C (3D coordinates assigned)
CCCCCCCCc1[nH+]c2ccccc2c(/C=C/c2ccc(N(C)C)cc2)[n+]1C (optimized conformer: 80.45763603555561 kcal/mol)

>  <smiles>  (32) 
CCCCCCCCc1nc2ccccc2c(C=Cc2ccc(N(C)C)cc2)[n+]1C

>  <score_type>  (32) 
oracle

>  <origin>  (32) 
adg

>  <m_score__min__energy>  (32) 
-8.0999999999999996

>  <m_primary>  (32) 
energy

$$$$
32:0
     RDKit          3D

 38 39  0  0  0  0  0  0  0  0999 V2000
   -4.1860   24.5440  -28.8740 C   0  0  0  0  0  0  0  0  0  0  0  0
   -3.0920   24.8750  -29.7000 O   0  0  0  0  0  0  0  0  0  0  0  0
   -1.9500   24.1160  -29.3440 C   0  0  0  0  0  0  0  0  0  0  0  0
   -1.8820   22.8100  -30.1460 C   0  0  0  0  0  0  0  0  0  0  0  0
   -3.1340   22.5680  -30.8620 N   0  0  0  0  0  0  0  0  0  0  0  0
   -3.1680   21.7440  -32.0340 C   0  0  0  0  0  0  0  0  0  0  0  0
   -2.2880   20.8570  -32.2080 O   0  0  0  0  0  0  0  0  0  0  0  0
   -4.2440   21.9270  -33.0670 C   0  0  0  0  0  0  0  0  0  0  0  0
   -5.5750   21.9930  -32.4370 N   0  0  0  0  0  0  0  0  0  0  0  0
   -6.0460   23.2430  -31.8900 C   0  0  0  0  0  0  0  0  0  0  0  0
   -5.2440   24.1840  -31.6400 O   0  0  0  0  0  0  0  0  0  0  0  0
   -7.5140   23.4620  -31.6880 C   0  0  0  0  0  0  0  0  0  0  0  0
   -8.1720   22.2420  -31.3600 O   0  0  0  0  0  0  0  0  0  0  0  0
   -7.7670   21.0080  -31.8770 C   0  0  0  0  0  0  0  0  0  0  0  0
   -8.6460   19.9230  -31.8190 C   0  0  0  0  0  0  0  0  0  0  0  0
   -8.2700   18.6860  -32.3390 C   0  0  0  0  0  0  0  0  0  0  0  0
   -7.0060   18.5180  -32.9200 C   0  0  0  0  0  0  0  0  0  0  0  0
   -6.5900   17.1790  -33.4500 C   0  0  0  0  0  0  0  0  0  0  0  0
   -6.1060   19.5950  -32.9400 C   0  0  0  0  0  0  0  0  0  0  0  0
   -6.4800   20.8580  -32.4310 C   0  0  0  0  0  0  0  0  0  0  0  0
   -3.8890   24.6339  -27.8187 H   0  0  0  0  0  0  0  0  0  0  0  0
   -5.0213   25.2296  -29.0795 H   0  0  0  0  0  0  0  0  0  0  0  0
   -4.5011   23.5103  -29.0795 H   0  0  0  0  0  0  0  0  0  0  0  0
   -1.0466   24.7097  -29.5472 H   0  0  0  0  0  0  0  0  0  0  0  0
   -2.0164   23.8660  -28.2748 H   0  0  0  0  0  0  0  0  0  0  0  0
   -1.0592   22.8769  -30.8730 H   0  0  0  0  0  0  0  0  0  0  0  0
   -1.7122   21.9781  -29.4466 H   0  0  0  0  0  0  0  0  0  0  0  0
   -3.9900   23.1090  -30.6040 H   0  0  0  0  0  0  0  0  0  0  0  0
   -4.0595   22.8616  -33.6170 H   0  0  0  0  0  0  0  0  0  0  0  0
   -4.2226   21.0664  -33.7518 H   0  0  0  0  0  0  0  0  0  0  0  0
   -7.6610   24.1814  -30.8689 H   0  0  0  0  0  0  0  0  0  0  0  0
   -7.9423   23.8504  -32.6238 H   0  0  0  0  0  0  0  0  0  0  0  0
   -9.6386   20.0459  -31.3611 H   0  0  0  0  0  0  0  0  0  0  0  0
   -8.9686   17.8376  -32.2932 H   0  0  0  0  0  0  0  0  0  0  0  0
   -6.3794   16.5013  -32.6095 H   0  0  0  0  0  0  0  0  0  0  0  0
   -7.4003   16.7601  -34.0647 H   0  0  0  0  0  0  0  0  0  0  0  0
   -5.6849   17.2930  -34.0647 H   0  0  0  0  0  0  0  0  0  0  0  0
   -5.0979   19.4536  -33.3569 H   0  0  0  0  0  0  0  0  0  0  0  0
  1  2  1  0
  2  3  1  0
  3  4  1  0
  4  5  1  0
  5  6  1  0
  6  7  2  0
  6  8  1  0
  8  9  1  0
  9 10  1  0
 10 11  2  0
 10 12  1  0
 12 13  1  0
 13 14  1  0
 14 15  2  0
 15 16  1  0
 16 17  2  0
 17 18  1  0
 17 19  1  0
 19 20  2  0
 20  9  1  0
 20 14  1  0
  1 21  1  0
  1 22  1  0
  1 23  1  0
  3 24  1  0
  3 25  1  0
  4 26  1  0
  4 27  1  0
  5 28  1  0
  8 29  1  0
  8 30  1  0
 12 31  1  0
 12 32  1  0
 15 33  1  0
 16 34  1  0
 18 35  1  0
 18 36  1  0
 18 37  1  0
 19 38  1  0
M  END
>  <UniqueID>  (33) 
31

>  <SMILES>  (33) 
COCCNC(=O)CN1C(=O)COc2ccc(C)cc21

>  <Energy>  (33) 
37.560114888405856

>  <Genealogy>  (33) 
COCCNC(=O)CN1C(=O)COc2ccc(C)cc21 (3D coordinates assigned)
COCCNC(=O)CN1C(=O)COc2ccc(C)cc21 (nonaromatic ring conformer: 37.560114888405856 kcal/mol)

>  <smiles>  (33) 
COCCNC(=O)CN1C(=O)COc2ccc(C)cc21

>  <score_type>  (33) 
oracle

>  <origin>  (33) 
adg

>  <m_score__min__energy>  (33) 
-6.5599999999999996

>  <m_primary>  (33) 
energy

$$$$
33:0
     RDKit          3D

 57 60  0  0  0  0  0  0  0  0999 V2000
   -8.4650   18.9860  -31.2200 C   0  0  0  0  0  0  0  0  0  0  0  0
   -8.0700   18.9080  -32.6350 N   0  0  0  0  0  0  0  0  0  0  0  0
   -7.0830   19.9640  -32.9510 C   0  0  0  0  0  0  0  0  0  0  0  0
   -6.3080   19.6360  -34.2350 C   0  0  0  0  0  0  0  0  0  0  0  0
   -5.5540   18.3580  -34.1310 N   0  0  0  0  0  0  0  0  0  0  0  0
   -4.1060   18.5770  -33.9350 C   0  0  0  0  0  0  0  0  0  0  0  0
   -3.8760   19.7280  -32.9910 C   0  0  0  0  0  0  0  0  0  0  0  0
   -4.2660   19.6180  -31.6470 C   0  0  0  0  0  0  0  0  0  0  0  0
   -4.0430   20.6750  -30.7610 C   0  0  0  0  0  0  0  0  0  0  0  0
   -3.4210   21.8490  -31.2040 C   0  0  0  0  0  0  0  0  0  0  0  0
   -3.1870   22.9270  -30.2910 N   0  0  0  0  0  0  0  0  0  0  0  0
   -1.8690   23.0990  -29.6790 C   0  0  0  0  0  0  0  0  0  0  0  0
   -1.9210   22.6690  -28.2080 C   0  0  0  0  0  0  0  0  0  0  0  0
   -1.7910   21.1730  -27.9680 C   0  0  0  0  0  0  0  0  0  0  0  0
   -3.1410   21.8550  -27.8090 C   0  0  0  0  0  0  0  0  0  0  0  0
   -4.4050   24.1490  -30.1040 S   0  0  0  0  0  0  0  0  0  0  0  0
   -3.9910   25.3990  -30.8310 O   0  0  0  0  0  0  0  0  0  0  0  0
   -4.5750   24.4880  -28.6490 O   0  0  0  0  0  0  0  0  0  0  0  0
   -5.9220   23.5370  -30.7460 C   0  0  0  0  0  0  0  0  0  0  0  0
   -6.7840   22.7810  -29.9380 C   0  0  0  0  0  0  0  0  0  0  0  0
   -8.0020   22.3240  -30.4510 C   0  0  0  0  0  0  0  0  0  0  0  0
   -8.3660   22.6240  -31.7660 C   0  0  0  0  0  0  0  0  0  0  0  0
   -7.5140   23.3850  -32.5710 C   0  0  0  0  0  0  0  0  0  0  0  0
   -6.2950   23.8440  -32.0620 C   0  0  0  0  0  0  0  0  0  0  0  0
   -3.0270   21.9600  -32.5440 C   0  0  0  0  0  0  0  0  0  0  0  0
   -3.2540   20.9070  -33.4330 C   0  0  0  0  0  0  0  0  0  0  0  0
   -6.0850   17.4450  -33.0940 C   0  0  0  0  0  0  0  0  0  0  0  0
   -7.6140   17.5430  -32.9950 C   0  0  0  0  0  0  0  0  0  0  0  0
   -7.5848   18.8122  -30.5835 H   0  0  0  0  0  0  0  0  0  0  0  0
   -8.8788   19.9832  -31.0092 H   0  0  0  0  0  0  0  0  0  0  0  0
   -9.2267   18.2209  -31.0092 H   0  0  0  0  0  0  0  0  0  0  0  0
   -7.6110   20.9196  -33.0852 H   0  0  0  0  0  0  0  0  0  0  0  0
   -6.3659   20.0295  -32.1194 H   0  0  0  0  0  0  0  0  0  0  0  0
   -7.0217   19.5583  -35.0684 H   0  0  0  0  0  0  0  0  0  0  0  0
   -5.5793   20.4428  -34.4025 H   0  0  0  0  0  0  0  0  0  0  0  0
   -3.6547   17.6664  -33.5141 H   0  0  0  0  0  0  0  0  0  0  0  0
   -3.6443   18.8116  -34.9055 H   0  0  0  0  0  0  0  0  0  0  0  0
   -4.7489   18.6963  -31.2901 H   0  0  0  0  0  0  0  0  0  0  0  0
   -4.3574   20.5847  -29.7108 H   0  0  0  0  0  0  0  0  0  0  0  0
   -1.1338   22.4806  -30.2148 H   0  0  0  0  0  0  0  0  0  0  0  0
   -1.5755   24.1575  -29.7385 H   0  0  0  0  0  0  0  0  0  0  0  0
   -1.4246   23.5691  -27.8164 H   0  0  0  0  0  0  0  0  0  0  0  0
   -1.6144   20.4933  -28.8147 H   0  0  0  0  0  0  0  0  0  0  0  0
   -1.1591   20.5397  -27.3280 H   0  0  0  0  0  0  0  0  0  0  0  0
   -3.9410   21.6684  -28.5406 H   0  0  0  0  0  0  0  0  0  0  0  0
   -3.8902   21.9192  -27.0061 H   0  0  0  0  0  0  0  0  0  0  0  0
   -6.5019   22.5476  -28.9007 H   0  0  0  0  0  0  0  0  0  0  0  0
   -8.6749   21.7271  -29.8178 H   0  0  0  0  0  0  0  0  0  0  0  0
   -9.3235   22.2611  -32.1679 H   0  0  0  0  0  0  0  0  0  0  0  0
   -7.8024   23.6231  -33.6055 H   0  0  0  0  0  0  0  0  0  0  0  0
   -5.6277   24.4470  -32.6954 H   0  0  0  0  0  0  0  0  0  0  0  0
   -2.5373   22.8795  -32.8970 H   0  0  0  0  0  0  0  0  0  0  0  0
   -2.9442   21.0016  -34.4842 H   0  0  0  0  0  0  0  0  0  0  0  0
   -5.8079   16.4118  -33.3503 H   0  0  0  0  0  0  0  0  0  0  0  0
   -5.6548   17.7338  -32.1237 H   0  0  0  0  0  0  0  0  0  0  0  0
   -8.0494   17.2699  -33.9675 H   0  0  0  0  0  0  0  0  0  0  0  0
   -7.9437   16.8581  -32.1998 H   0  0  0  0  0  0  0  0  0  0  0  0
  1  2  1  0
  2  3  1  0
  3  4  1  0
  4  5  1  0
  5  6  1  0
  6  7  1  0
  7  8  2  0
  8  9  1  0
  9 10  2  0
 10 11  1  0
 11 12  1  0
 12 13  1  0
 13 14  1  0
 14 15  1  0
 11 16  1  0
 16 17  2  0
 16 18  2  0
 16 19  1  0
 19 20  2  0
 20 21  1  0
 21 22  2  0
 22 23  1  0
 23 24  2  0
 10 25  1  0
 25 26  2  0
  5 27  1  0
 27 28  1  0
 28  2  1  0
 26  7  1  0
 15 13  1  0
 24 19  1  0
  1 29  1  0
  1 30  1  0
  1 31  1  0
  3 32  1  0
  3 33  1  0
  4 34  1  0
  4 35  1  0
  6 36  1  0
  6 37  1  0
  8 38  1  0
  9 39  1  0
 12 40  1  0
 12 41  1  0
 13 42  1  0
 14 43  1  0
 14 44  1  0
 15 45  1  0
 15 46  1  0
 20 47  1  0
 21 48  1  0
 22 49  1  0
 23 50  1  0
 24 51  1  0
 25 52  1  0
 26 53  1  0
 27 54  1  0
 27 55  1  0
 28 56  1  0
 28 57  1  0
M  END
>  <UniqueID>  (34) 
32

>  <SMILES>  (34) 
CN1CCN(Cc2ccc(N(CC3CC3)S(=O)(=O)c3ccccc3)cc2)CC1

>  <Energy>  (34) 
337.54482171549836

>  <Genealogy>  (34) 
CN1CCN(Cc2ccc(N(CC3CC3)S(=O)(=O)c3ccccc3)cc2)CC1 (3D coordinates assigned)
CN1CCN(Cc2ccc(N(CC3CC3)S(=O)(=O)c3ccccc3)cc2)CC1 (nonaromatic ring conformer: 337.54482171549836 kcal/mol)

>  <smiles>  (34) 
CN1CCN(Cc2ccc(N(CC3CC3)S(=O)(=O)c3ccccc3)cc2)CC1

>  <score_type>  (34) 
oracle

>  <origin>  (34) 
adg

>  <m_score__min__energy>  (34) 
-9.3100000000000005

>  <m_primary>  (34) 
energy

$$$$
34:0
     RDKit          3D

 36 37  0  0  0  0  0  0  0  0999 V2000
   -5.1900   25.2980  -30.7660 F   0  0  0  0  0  0  0  0  0  0  0  0
   -6.0450   24.7030  -29.8570 C   0  0  0  0  0  0  0  0  0  0  0  0
   -5.3480   23.7480  -29.1370 F   0  0  0  0  0  0  0  0  0  0  0  0
   -6.5040   25.6720  -28.9840 F   0  0  0  0  0  0  0  0  0  0  0  0
   -7.2360   24.0530  -30.5670 C   0  0  0  0  0  0  0  0  0  0  0  0
   -6.8050   22.8570  -31.3250 N   0  0  0  0  0  0  0  0  0  0  0  0
   -7.9420   22.0740  -31.8750 C   0  0  0  0  0  0  0  0  0  0  0  0
   -7.5760   20.6640  -32.2970 C   0  0  0  0  0  0  0  0  0  0  0  0
   -8.0550   19.5620  -31.5670 C   0  0  0  0  0  0  0  0  0  0  0  0
   -7.7160   18.2590  -31.9440 C   0  0  0  0  0  0  0  0  0  0  0  0
   -6.9080   18.0420  -33.0640 C   0  0  0  0  0  0  0  0  0  0  0  0
   -6.4860   16.4070  -33.5380 Cl  0  0  0  0  0  0  0  0  0  0  0  0
   -6.4470   19.1290  -33.8120 C   0  0  0  0  0  0  0  0  0  0  0  0
   -6.7830   20.4340  -33.4360 C   0  0  0  0  0  0  0  0  0  0  0  0
   -5.7620   23.1690  -32.3290 C   0  0  0  0  0  0  0  0  0  0  0  0
   -4.5500   22.2930  -32.1450 C   0  0  0  0  0  0  0  0  0  0  0  0
   -3.7880   21.8870  -33.2540 C   0  0  0  0  0  0  0  0  0  0  0  0
   -2.6520   21.0910  -33.0760 C   0  0  0  0  0  0  0  0  0  0  0  0
   -2.2600   20.7060  -31.7910 C   0  0  0  0  0  0  0  0  0  0  0  0
   -0.7070   19.6190  -31.5500 Br  0  0  0  0  0  0  0  0  0  0  0  0
   -3.0000   21.1230  -30.6800 C   0  0  0  0  0  0  0  0  0  0  0  0
   -4.1360   21.9190  -30.8540 C   0  0  0  0  0  0  0  0  0  0  0  0
   -7.9842   23.7552  -29.8177 H   0  0  0  0  0  0  0  0  0  0  0  0
   -7.6680   24.7802  -31.2702 H   0  0  0  0  0  0  0  0  0  0  0  0
   -8.7238   22.0118  -31.1037 H   0  0  0  0  0  0  0  0  0  0  0  0
   -8.2798   22.5987  -32.7809 H   0  0  0  0  0  0  0  0  0  0  0  0
   -8.7016   19.7262  -30.6924 H   0  0  0  0  0  0  0  0  0  0  0  0
   -8.0854   17.4039  -31.3589 H   0  0  0  0  0  0  0  0  0  0  0  0
   -5.8185   18.9580  -34.6984 H   0  0  0  0  0  0  0  0  0  0  0  0
   -6.4252   21.2849  -34.0343 H   0  0  0  0  0  0  0  0  0  0  0  0
   -6.1731   23.0060  -33.3362 H   0  0  0  0  0  0  0  0  0  0  0  0
   -5.4568   24.2179  -32.2001 H   0  0  0  0  0  0  0  0  0  0  0  0
   -4.0865   22.1967  -34.2664 H   0  0  0  0  0  0  0  0  0  0  0  0
   -2.0660   20.7674  -33.9489 H   0  0  0  0  0  0  0  0  0  0  0  0
   -2.6879   20.8244  -29.6683 H   0  0  0  0  0  0  0  0  0  0  0  0
   -4.7088   22.2544  -29.9769 H   0  0  0  0  0  0  0  0  0  0  0  0
  1  2  1  0
  2  3  1  0
  2  4  1  0
  2  5  1  0
  5  6  1  0
  6  7  1  0
  7  8  1  0
  8  9  2  0
  9 10  1  0
 10 11  2  0
 11 12  1  0
 11 13  1  0
 13 14  2  0
  6 15  1  0
 15 16  1  0
 16 17  2  0
 17 18  1  0
 18 19  2  0
 19 20  1  0
 19 21  1  0
 21 22  2  0
 14  8  1  0
 22 16  1  0
  5 23  1  0
  5 24  1  0
  7 25  1  0
  7 26  1  0
  9 27  1  0
 10 28  1  0
 13 29  1  0
 14 30  1  0
 15 31  1  0
 15 32  1  0
 17 33  1  0
 18 34  1  0
 21 35  1  0
 22 36  1  0
M  END
>  <UniqueID>  (35) 
33

>  <SMILES>  (35) 
FC(F)(F)CN(Cc1ccc(Cl)cc1)Cc1ccc(Br)cc1

>  <Energy>  (35) 
39.63603040019914

>  <Genealogy>  (35) 
FC(F)(F)CN(Cc1ccc(Cl)cc1)Cc1ccc(Br)cc1 (3D coordinates assigned)
FC(F)(F)CN(Cc1ccc(Cl)cc1)Cc1ccc(Br)cc1 (optimized conformer: 39.63603040019914 kcal/mol)

>  <smiles>  (35) 
FC(F)(F)CN(Cc1ccc(Cl)cc1)Cc1ccc(Br)cc1

>  <score_type>  (35) 
oracle

>  <origin>  (35) 
adg

>  <m_score__min__energy>  (35) 
-7.0899999999999999

>  <m_primary>  (35) 
energy

$$$$
35:0
     RDKit          3D

 59 60  0  0  0  0  0  0  0  0999 V2000
   -6.0380   18.4270  -34.3060 C   0  0  0  0  0  0  0  0  0  0  0  0
   -6.6800   17.4540  -33.3210 C   0  0  0  0  0  0  0  0  0  0  0  0
   -7.3830   18.2040  -32.1860 C   0  0  0  0  0  0  0  0  0  0  0  0
   -7.8860   19.5750  -32.6540 C   0  0  0  0  0  0  0  0  0  0  0  0
   -9.1110   20.0130  -31.8420 C   0  0  0  0  0  0  0  0  0  0  0  0
   -9.1860   21.5410  -31.7300 C   0  0  0  0  0  0  0  0  0  0  0  0
   -7.9830   22.1490  -30.9900 C   0  0  0  0  0  0  0  0  0  0  0  0
   -7.4120   23.4100  -31.6620 C   0  0  0  0  0  0  0  0  0  0  0  0
   -6.1880   23.8640  -31.0060 N   0  0  0  0  0  0  0  0  0  0  0  0
   -5.7850   23.5620  -29.7600 C   0  0  0  0  0  0  0  0  0  0  0  0
   -4.5400   24.1340  -29.6150 C   0  0  0  0  0  0  0  0  0  0  0  0
   -3.6980   24.1390  -28.3750 C   0  0  0  0  0  0  0  0  0  0  0  0
   -2.3800   24.7460  -28.6510 N   0  0  0  0  0  0  0  0  0  0  0  0
   -1.7580   25.2070  -27.3990 C   0  0  0  0  0  0  0  0  0  0  0  0
   -1.4810   23.8230  -29.3850 C   0  0  0  0  0  0  0  0  0  0  0  0
   -1.7650   22.3850  -28.9410 C   0  0  0  0  0  0  0  0  0  0  0  0
   -1.4540   21.3550  -30.0400 C   0  0  0  0  0  0  0  0  0  0  0  0
   -2.5970   21.2290  -31.0170 C   0  0  0  0  0  0  0  0  0  0  0  0
   -3.8650   20.8060  -30.5850 C   0  0  0  0  0  0  0  0  0  0  0  0
   -4.9350   20.7590  -31.4850 C   0  0  0  0  0  0  0  0  0  0  0  0
   -4.7480   21.1330  -32.8170 C   0  0  0  0  0  0  0  0  0  0  0  0
   -3.4870   21.5480  -33.2560 C   0  0  0  0  0  0  0  0  0  0  0  0
   -2.4150   21.5930  -32.3610 C   0  0  0  0  0  0  0  0  0  0  0  0
   -4.2220   24.7630  -30.7650 N   0  0  0  0  0  0  0  0  0  0  0  0
   -5.2360   24.5720  -31.5970 N   0  0  0  0  0  0  0  0  0  0  0  0
   -5.5151   19.2195  -33.7505 H   0  0  0  0  0  0  0  0  0  0  0  0
   -5.3184   17.8868  -34.9387 H   0  0  0  0  0  0  0  0  0  0  0  0
   -6.8177   18.8761  -34.9387 H   0  0  0  0  0  0  0  0  0  0  0  0
   -7.4174   16.8365  -33.8547 H   0  0  0  0  0  0  0  0  0  0  0  0
   -5.8901   16.8233  -32.8871 H   0  0  0  0  0  0  0  0  0  0  0  0
   -8.2393   17.6074  -31.8383 H   0  0  0  0  0  0  0  0  0  0  0  0
   -6.6605   18.3581  -31.3710 H   0  0  0  0  0  0  0  0  0  0  0  0
   -7.0839   20.3166  -32.5247 H   0  0  0  0  0  0  0  0  0  0  0  0
   -8.1734   19.5019  -33.7133 H   0  0  0  0  0  0  0  0  0  0  0  0
  -10.0208   19.6447  -32.3386 H   0  0  0  0  0  0  0  0  0  0  0  0
   -9.0248   19.5937  -30.8287 H   0  0  0  0  0  0  0  0  0  0  0  0
   -9.2247   21.9653  -32.7441 H   0  0  0  0  0  0  0  0  0  0  0  0
  -10.0874   21.7844  -31.1484 H   0  0  0  0  0  0  0  0  0  0  0  0
   -8.3005   22.4131  -29.9705 H   0  0  0  0  0  0  0  0  0  0  0  0
   -7.1851   21.3919  -31.0001 H   0  0  0  0  0  0  0  0  0  0  0  0
   -7.1891   23.1831  -32.7150 H   0  0  0  0  0  0  0  0  0  0  0  0
   -8.1617   24.2110  -31.5818 H   0  0  0  0  0  0  0  0  0  0  0  0
   -6.3366   22.9774  -29.0091 H   0  0  0  0  0  0  0  0  0  0  0  0
   -4.2081   24.7201  -27.5926 H   0  0  0  0  0  0  0  0  0  0  0  0
   -3.5504   23.1019  -28.0393 H   0  0  0  0  0  0  0  0  0  0  0  0
   -2.3117   24.7966  -26.5417 H   0  0  0  0  0  0  0  0  0  0  0  0
   -0.7139   24.8629  -27.3599 H   0  0  0  0  0  0  0  0  0  0  0  0
   -1.7835   26.3060  -27.3599 H   0  0  0  0  0  0  0  0  0  0  0  0
   -1.6607   23.9166  -30.4662 H   0  0  0  0  0  0  0  0  0  0  0  0
   -0.4330   24.0769  -29.1677 H   0  0  0  0  0  0  0  0  0  0  0  0
   -1.1453   22.1591  -28.0607 H   0  0  0  0  0  0  0  0  0  0  0  0
   -2.8382   22.3130  -28.7106 H   0  0  0  0  0  0  0  0  0  0  0  0
   -0.5522   21.6731  -30.5836 H   0  0  0  0  0  0  0  0  0  0  0  0
   -1.2977   20.3764  -29.5626 H   0  0  0  0  0  0  0  0  0  0  0  0
   -4.0170   20.5109  -29.5363 H   0  0  0  0  0  0  0  0  0  0  0  0
   -5.9260   20.4266  -31.1424 H   0  0  0  0  0  0  0  0  0  0  0  0
   -5.5926   21.1012  -33.5210 H   0  0  0  0  0  0  0  0  0  0  0  0
   -3.3389   21.8392  -34.3064 H   0  0  0  0  0  0  0  0  0  0  0  0
   -1.4232   21.9153  -32.7110 H   0  0  0  0  0  0  0  0  0  0  0  0
  1  2  1  0
  2  3  1  0
  3  4  1  0
  4  5  1  0
  5  6  1  0
  6  7  1  0
  7  8  1  0
  8  9  1  0
  9 10  1  0
 10 11  2  0
 11 12  1  0
 12 13  1  0
 13 14  1  0
 13 15  1  0
 15 16  1  0
 16 17  1  0
 17 18  1  0
 18 19  2  0
 19 20  1  0
 20 21  2  0
 21 22  1  0
 22 23  2  0
 11 24  1  0
 24 25  2  0
 25  9  1  0
 23 18  1  0
  1 26  1  0
  1 27  1  0
  1 28  1  0
  2 29  1  0
  2 30  1  0
  3 31  1  0
  3 32  1  0
  4 33  1  0
  4 34  1  0
  5 35  1  0
  5 36  1  0
  6 37  1  0
  6 38  1  0
  7 39  1  0
  7 40  1  0
  8 41  1  0
  8 42  1  0
 10 43  1  0
 12 44  1  0
 12 45  1  0
 14 46  1  0
 14 47  1  0
 14 48  1  0
 15 49  1  0
 15 50  1  0
 16 51  1  0
 16 52  1  0
 17 53  1  0
 17 54  1  0
 19 55  1  0
 20 56  1  0
 21 57  1  0
 22 58  1  0
 23 59  1  0
M  END
>  <UniqueID>  (36) 
34

>  <SMILES>  (36) 
CCCCCCCCn1cc(CN(C)CCCc2ccccc2)nn1

>  <Energy>  (36) 
70.50802485610265

>  <Genealogy>  (36) 
CCCCCCCCn1cc(CN(C)CCCc2ccccc2)nn1 (3D coordinates assigned)
CCCCCCCCn1cc(CN(C)CCCc2ccccc2)nn1 (optimized conformer: 70.50802485610265 kcal/mol)

>  <smiles>  (36) 
CCCCCCCCn1cc(CN(C)CCCc2ccccc2)nn1

>  <score_type>  (36) 
oracle

>  <origin>  (36) 
adg

>  <m_score__min__energy>  (36) 
-8.5

>  <m_primary>  (36) 
energy

$$$$
36:0
     RDKit          3D

 47 49  0  0  0  0  0  0  0  0999 V2000
   -4.2970   17.7470  -34.9650 C   0  0  0  0  0  0  0  0  0  0  0  0
   -4.8240   16.6700  -34.0310 C   0  0  0  0  0  0  0  0  0  0  0  0
   -4.7260   17.1200  -32.6830 O   0  0  0  0  0  0  0  0  0  0  0  0
   -5.8480   17.4330  -31.9090 C   0  0  0  0  0  0  0  0  0  0  0  0
   -6.1080   16.7800  -30.8620 O   0  0  0  0  0  0  0  0  0  0  0  0
   -6.7330   18.5210  -32.3320 C   0  0  0  0  0  0  0  0  0  0  0  0
   -7.8820   18.9470  -31.7010 C   0  0  0  0  0  0  0  0  0  0  0  0
   -8.3800   19.9310  -32.4680 N   0  0  0  0  0  0  0  0  0  0  0  0
   -9.6270   20.6580  -32.2530 C   0  0  0  0  0  0  0  0  0  0  0  0
   -9.4350   21.8440  -31.2900 C   0  0  0  0  0  0  0  0  0  0  0  0
   -8.6760   23.0360  -31.9110 C   0  0  0  0  0  0  0  0  0  0  0  0
   -7.2560   23.2370  -31.3520 C   0  0  0  0  0  0  0  0  0  0  0  0
   -6.2220   23.5560  -32.4390 C   0  0  0  0  0  0  0  0  0  0  0  0
   -5.0880   22.6240  -32.3310 N   0  0  0  0  0  0  0  0  0  0  0  0
   -5.0820   21.5210  -33.0900 N   0  0  0  0  0  0  0  0  0  0  0  0
   -4.0480   20.6810  -33.0930 N   0  0  0  0  0  0  0  0  0  0  0  0
   -2.9540   20.9110  -32.3300 C   0  0  0  0  0  0  0  0  0  0  0  0
   -1.8740   20.0220  -32.3560 C   0  0  0  0  0  0  0  0  0  0  0  0
   -0.7440   20.2720  -31.5730 C   0  0  0  0  0  0  0  0  0  0  0  0
   -0.6920   21.4080  -30.7600 C   0  0  0  0  0  0  0  0  0  0  0  0
   -1.7700   22.3000  -30.7280 C   0  0  0  0  0  0  0  0  0  0  0  0
   -2.9090   22.0560  -31.5180 C   0  0  0  0  0  0  0  0  0  0  0  0
   -4.0110   22.9200  -31.5370 C   0  0  0  0  0  0  0  0  0  0  0  0
   -4.0050   23.9670  -30.8300 O   0  0  0  0  0  0  0  0  0  0  0  0
   -7.5760   20.1080  -33.5050 N   0  0  0  0  0  0  0  0  0  0  0  0
   -6.5610   19.2570  -33.4490 N   0  0  0  0  0  0  0  0  0  0  0  0
   -3.8897   18.5793  -34.3722 H   0  0  0  0  0  0  0  0  0  0  0  0
   -3.5032   17.3258  -35.5994 H   0  0  0  0  0  0  0  0  0  0  0  0
   -5.1167   18.1154  -35.5994 H   0  0  0  0  0  0  0  0  0  0  0  0
   -5.8765   16.4592  -34.2715 H   0  0  0  0  0  0  0  0  0  0  0  0
   -4.2284   15.7536  -34.1555 H   0  0  0  0  0  0  0  0  0  0  0  0
   -8.3046   18.5604  -30.7618 H   0  0  0  0  0  0  0  0  0  0  0  0
   -9.9892   21.0384  -33.2195 H   0  0  0  0  0  0  0  0  0  0  0  0
  -10.3549   19.9659  -31.8044 H   0  0  0  0  0  0  0  0  0  0  0  0
  -10.4272   22.1941  -30.9693 H   0  0  0  0  0  0  0  0  0  0  0  0
   -8.8250   21.4788  -30.4506 H   0  0  0  0  0  0  0  0  0  0  0  0
   -8.5999   22.8697  -32.9957 H   0  0  0  0  0  0  0  0  0  0  0  0
   -9.2472   23.9417  -31.6590 H   0  0  0  0  0  0  0  0  0  0  0  0
   -7.2771   24.0696  -30.6335 H   0  0  0  0  0  0  0  0  0  0  0  0
   -6.9530   22.2919  -30.8777 H   0  0  0  0  0  0  0  0  0  0  0  0
   -6.6884   23.4517  -33.4297 H   0  0  0  0  0  0  0  0  0  0  0  0
   -5.8611   24.5869  -32.3084 H   0  0  0  0  0  0  0  0  0  0  0  0
   -5.8950   21.3040  -33.7120 H   0  0  0  0  0  0  0  0  0  0  0  0
   -1.9144   19.1261  -32.9929 H   0  0  0  0  0  0  0  0  0  0  0  0
    0.1058   19.5739  -31.5964 H   0  0  0  0  0  0  0  0  0  0  0  0
    0.1985   21.6013  -30.1438 H   0  0  0  0  0  0  0  0  0  0  0  0
   -1.7271   23.1918  -30.0854 H   0  0  0  0  0  0  0  0  0  0  0  0
  1  2  1  0
  2  3  1  0
  3  4  1  0
  4  5  2  0
  4  6  1  0
  6  7  2  0
  7  8  1  0
  8  9  1  0
  9 10  1  0
 10 11  1  0
 11 12  1  0
 12 13  1  0
 13 14  1  0
 14 15  1  0
 15 16  2  0
 16 17  1  0
 17 18  2  0
 18 19  1  0
 19 20  2  0
 20 21  1  0
 21 22  2  0
 22 23  1  0
 23 24  2  0
  8 25  1  0
 25 26  2  0
 26  6  1  0
 23 14  1  0
 22 17  1  0
  1 27  1  0
  1 28  1  0
  1 29  1  0
  2 30  1  0
  2 31  1  0
  7 32  1  0
  9 33  1  0
  9 34  1  0
 10 35  1  0
 10 36  1  0
 11 37  1  0
 11 38  1  0
 12 39  1  0
 12 40  1  0
 13 41  1  0
 13 42  1  0
 15 43  1  0
 18 44  1  0
 19 45  1  0
 20 46  1  0
 21 47  1  0
M  CHG  1  15   1
M  END
>  <UniqueID>  (37) 
35

>  <SMILES>  (37) 
CCOC(=O)c1cn(CCCCCn2[nH+]nc3ccccc3c2=O)nn1

>  <Energy>  (37) 
73.86740808751262

>  <Genealogy>  (37) 
CCOC(=O)c1cn(CCCCCn2[nH+]nc3ccccc3c2=O)nn1 (protonated)
CCOC(=O)c1cn(CCCCCn2[nH+]nc3ccccc3c2=O)nn1 (3D coordinates assigned)
CCOC(=O)c1cn(CCCCCn2[nH+]nc3ccccc3c2=O)nn1 (optimized conformer: 73.86740808751262 kcal/mol)

>  <smiles>  (37) 
CCOC(=O)c1cn(CCCCCn2nnc3ccccc3c2=O)nn1

>  <score_type>  (37) 
oracle

>  <origin>  (37) 
adg

>  <m_score__min__energy>  (37) 
-8.3200000000000003

>  <m_primary>  (37) 
energy

$$$$
37:0
     RDKit          3D

 42 45  0  0  0  0  0  0  0  0999 V2000
    1.6430   22.0910  -35.3540 C   0  0  0  0  0  0  0  0  0  0  0  0
    1.1700   21.4090  -34.1950 O   0  0  0  0  0  0  0  0  0  0  0  0
   -0.1030   20.8330  -34.0810 C   0  0  0  0  0  0  0  0  0  0  0  0
   -0.4070   19.5620  -34.6020 C   0  0  0  0  0  0  0  0  0  0  0  0
   -1.6940   19.0310  -34.4650 C   0  0  0  0  0  0  0  0  0  0  0  0
   -2.7040   19.7610  -33.8100 C   0  0  0  0  0  0  0  0  0  0  0  0
   -4.0740   19.2120  -33.6430 C   0  0  0  0  0  0  0  0  0  0  0  0
   -5.1390   20.0100  -33.1920 C   0  0  0  0  0  0  0  0  0  0  0  0
   -6.4220   19.4540  -33.0530 C   0  0  0  0  0  0  0  0  0  0  0  0
   -7.5600   20.2890  -32.5900 C   0  0  0  0  0  0  0  0  0  0  0  0
   -7.4160   21.6000  -32.0950 C   0  0  0  0  0  0  0  0  0  0  0  0
   -8.6130   22.1920  -31.7200 C   0  0  0  0  0  0  0  0  0  0  0  0
   -9.8510   21.0940  -32.0000 S   0  0  0  0  0  0  0  0  0  0  0  0
   -8.8860   19.8560  -32.6010 C   0  0  0  0  0  0  0  0  0  0  0  0
   -6.6090   18.0960  -33.3560 C   0  0  0  0  0  0  0  0  0  0  0  0
   -5.5230   17.3160  -33.7790 C   0  0  0  0  0  0  0  0  0  0  0  0
   -5.6810   15.8760  -34.1060 C   0  0  0  0  0  0  0  0  0  0  0  0
   -6.9680   15.3240  -34.2210 C   0  0  0  0  0  0  0  0  0  0  0  0
   -7.1150   13.9710  -34.5310 C   0  0  0  0  0  0  0  0  0  0  0  0
   -5.9860   13.1800  -34.7300 C   0  0  0  0  0  0  0  0  0  0  0  0
   -4.7210   13.7560  -34.6230 C   0  0  0  0  0  0  0  0  0  0  0  0
   -4.5900   15.0770  -34.3200 N   0  0  0  0  0  0  0  0  0  0  0  0
   -4.3000   17.8990  -33.9140 N   0  0  0  0  0  0  0  0  0  0  0  0
   -2.3880   21.0250  -33.2800 C   0  0  0  0  0  0  0  0  0  0  0  0
   -1.1020   21.5550  -33.4210 C   0  0  0  0  0  0  0  0  0  0  0  0
    2.2452   22.9593  -35.0483 H   0  0  0  0  0  0  0  0  0  0  0  0
    2.2624   21.4081  -35.9540 H   0  0  0  0  0  0  0  0  0  0  0  0
    0.7864   22.4318  -35.9540 H   0  0  0  0  0  0  0  0  0  0  0  0
    0.3715   18.9826  -35.1199 H   0  0  0  0  0  0  0  0  0  0  0  0
   -1.9188   18.0344  -34.8726 H   0  0  0  0  0  0  0  0  0  0  0  0
   -4.9685   21.0690  -32.9480 H   0  0  0  0  0  0  0  0  0  0  0  0
   -6.4435   22.1076  -32.0134 H   0  0  0  0  0  0  0  0  0  0  0  0
   -8.7305   23.2059  -31.3099 H   0  0  0  0  0  0  0  0  0  0  0  0
   -9.2396   18.8726  -32.9443 H   0  0  0  0  0  0  0  0  0  0  0  0
   -7.6073   17.6438  -33.2616 H   0  0  0  0  0  0  0  0  0  0  0  0
   -7.8557   15.9552  -34.0674 H   0  0  0  0  0  0  0  0  0  0  0  0
   -8.1193   13.5308  -34.6179 H   0  0  0  0  0  0  0  0  0  0  0  0
   -6.0914   12.1115  -34.9692 H   0  0  0  0  0  0  0  0  0  0  0  0
   -3.8240   13.1401  -34.7842 H   0  0  0  0  0  0  0  0  0  0  0  0
   -3.6250   15.4730  -34.2830 H   0  0  0  0  0  0  0  0  0  0  0  0
   -3.1599   21.6019  -32.7496 H   0  0  0  0  0  0  0  0  0  0  0  0
   -0.8740   22.5491  -33.0089 H   0  0  0  0  0  0  0  0  0  0  0  0
  1  2  1  0
  2  3  1  0
  3  4  2  0
  4  5  1  0
  5  6  2  0
  6  7  1  0
  7  8  2  0
  8  9  1  0
  9 10  1  0
 10 11  1  0
 11 12  2  0
 12 13  1  0
 13 14  1  0
  9 15  2  0
 15 16  1  0
 16 17  1  0
 17 18  2  0
 18 19  1  0
 19 20  2  0
 20 21  1  0
 21 22  2  0
 16 23  2  0
  6 24  1  0
 24 25  2  0
 25  3  1  0
 23  7  1  0
 14 10  2  0
 22 17  1  0
  1 26  1  0
  1 27  1  0
  1 28  1  0
  4 29  1  0
  5 30  1  0
  8 31  1  0
 11 32  1  0
 12 33  1  0
 14 34  1  0
 15 35  1  0
 18 36  1  0
 19 37  1  0
 20 38  1  0
 21 39  1  0
 22 40  1  0
 24 41  1  0
 25 42  1  0
M  CHG  1  22   1
M  END
>  <UniqueID>  (38) 
36

>  <SMILES>  (38) 
COc1ccc(-c2cc(-c3ccsc3)cc(-c3cccc[nH+]3)n2)cc1

>  <Energy>  (38) 
83.27600231956389

>  <Genealogy>  (38) 
COc1ccc(-c2cc(-c3ccsc3)cc(-c3cccc[nH+]3)n2)cc1 (protonated)
COc1ccc(-c2cc(-c3ccsc3)cc(-c3cccc[nH+]3)n2)cc1 (3D coordinates assigned)
COc1ccc(-c2cc(-c3ccsc3)cc(-c3cccc[nH+]3)n2)cc1 (optimized conformer: 83.27600231956389 kcal/mol)

>  <smiles>  (38) 
COc1ccc(-c2cc(-c3ccsc3)cc(-c3ccccn3)n2)cc1

>  <score_type>  (38) 
oracle

>  <origin>  (38) 
adg

>  <m_score__min__energy>  (38) 
-7.3700000000000001

>  <m_primary>  (38) 
energy

$$$$
38:0
     RDKit          3D

 87 89  0  0  0  0  0  0  0  0999 V2000
   -0.8860   26.9010  -26.1560 C   0  0  0  0  0  0  0  0  0  0  0  0
   -0.5120   26.5990  -27.6080 C   0  0  0  0  0  0  0  0  0  0  0  0
   -1.2850   25.4600  -28.1580 N   0  0  0  0  0  0  0  0  0  0  0  0
   -0.4410   24.3590  -28.6850 C   0  0  0  0  0  0  0  0  0  0  0  0
   -0.4250   23.1020  -27.8050 C   0  0  0  0  0  0  0  0  0  0  0  0
   -2.2950   24.9730  -27.1890 C   0  0  0  0  0  0  0  0  0  0  0  0
   -3.5840   24.5780  -27.9150 C   0  0  0  0  0  0  0  0  0  0  0  0
   -3.4050   24.7320  -29.3600 N   0  0  0  0  0  0  0  0  0  0  0  0
   -3.7620   23.7160  -30.3110 C   0  0  0  0  0  0  0  0  0  0  0  0
   -2.8160   22.7550  -30.6620 C   0  0  0  0  0  0  0  0  0  0  0  0
   -3.1390   21.7360  -31.5620 C   0  0  0  0  0  0  0  0  0  0  0  0
   -1.9660   20.6200  -31.9950 S   0  0  0  0  0  0  0  0  0  0  0  0
   -2.5430   19.4570  -33.0570 C   0  0  0  0  0  0  0  0  0  0  0  0
   -1.6670   18.4690  -33.5010 C   0  0  0  0  0  0  0  0  0  0  0  0
   -2.1090   17.4550  -34.3520 C   0  0  0  0  0  0  0  0  0  0  0  0
   -1.2040   16.4110  -34.7730 N   0  0  0  0  0  0  0  0  0  0  0  0
   -0.2590   16.0390  -33.7050 C   0  0  0  0  0  0  0  0  0  0  0  0
   -0.9610   15.3360  -32.5280 C   0  0  0  0  0  0  0  0  0  0  0  0
   -1.7740   14.1200  -32.9940 C   0  0  0  0  0  0  0  0  0  0  0  0
   -3.0400   14.5360  -33.6410 N   0  0  0  0  0  0  0  0  0  0  0  0
   -4.0780   14.7770  -32.6230 C   0  0  0  0  0  0  0  0  0  0  0  0
   -3.5110   13.5070  -34.5850 C   0  0  0  0  0  0  0  0  0  0  0  0
   -3.4510   17.4450  -34.7540 C   0  0  0  0  0  0  0  0  0  0  0  0
   -3.8950   16.4230  -35.5320 F   0  0  0  0  0  0  0  0  0  0  0  0
   -4.3500   18.4450  -34.3260 C   0  0  0  0  0  0  0  0  0  0  0  0
   -5.7290   18.3310  -34.7230 N   0  0  0  0  0  0  0  0  0  0  0  0
   -6.4810   17.0850  -34.5860 C   0  0  0  0  0  0  0  0  0  0  0  0
   -7.2610   17.0550  -33.2650 C   0  0  0  0  0  0  0  0  0  0  0  0
   -7.3580   18.3910  -32.6310 N   0  0  0  0  0  0  0  0  0  0  0  0
   -8.7350   18.9440  -32.5480 C   0  0  0  0  0  0  0  0  0  0  0  0
   -8.8050   20.4230  -32.1330 C   0  0  0  0  0  0  0  0  0  0  0  0
   -6.6470   18.4370  -31.3300 C   0  0  0  0  0  0  0  0  0  0  0  0
   -6.1160   17.0530  -30.9680 C   0  0  0  0  0  0  0  0  0  0  0  0
   -3.9010   19.4980  -33.4600 C   0  0  0  0  0  0  0  0  0  0  0  0
   -4.7800   20.5660  -33.0370 C   0  0  0  0  0  0  0  0  0  0  0  0
   -5.9490   20.5870  -33.5040 O   0  0  0  0  0  0  0  0  0  0  0  0
   -4.4290   21.6230  -32.1260 C   0  0  0  0  0  0  0  0  0  0  0  0
   -5.3840   22.6100  -31.7500 C   0  0  0  0  0  0  0  0  0  0  0  0
   -6.6560   22.5860  -32.2230 F   0  0  0  0  0  0  0  0  0  0  0  0
   -5.0520   23.6330  -30.8530 C   0  0  0  0  0  0  0  0  0  0  0  0
   -6.0100   24.5190  -30.4790 F   0  0  0  0  0  0  0  0  0  0  0  0
   -0.2097   26.3549  -25.4820 H   0  0  0  0  0  0  0  0  0  0  0  0
   -0.7944   27.9814  -25.9709 H   0  0  0  0  0  0  0  0  0  0  0  0
   -1.9229   26.5839  -25.9709 H   0  0  0  0  0  0  0  0  0  0  0  0
   -0.7125   27.4916  -28.2188 H   0  0  0  0  0  0  0  0  0  0  0  0
    0.5540   26.3287  -27.6338 H   0  0  0  0  0  0  0  0  0  0  0  0
   -0.8200   24.0793  -29.6791 H   0  0  0  0  0  0  0  0  0  0  0  0
    0.5913   24.7380  -28.7135 H   0  0  0  0  0  0  0  0  0  0  0  0
   -0.4287   23.3963  -26.7451 H   0  0  0  0  0  0  0  0  0  0  0  0
   -1.3155   22.4929  -28.0195 H   0  0  0  0  0  0  0  0  0  0  0  0
    0.4807   22.5157  -28.0195 H   0  0  0  0  0  0  0  0  0  0  0  0
   -1.8949   24.0966  -26.6580 H   0  0  0  0  0  0  0  0  0  0  0  0
   -2.5205   25.7777  -26.4738 H   0  0  0  0  0  0  0  0  0  0  0  0
   -3.8255   23.5295  -27.6864 H   0  0  0  0  0  0  0  0  0  0  0  0
   -4.4048   25.2285  -27.5788 H   0  0  0  0  0  0  0  0  0  0  0  0
   -3.1060   25.6660  -29.7240 H   0  0  0  0  0  0  0  0  0  0  0  0
   -1.8066   22.7989  -30.2270 H   0  0  0  0  0  0  0  0  0  0  0  0
   -0.6158   18.4883  -33.1774 H   0  0  0  0  0  0  0  0  0  0  0  0
   -1.7600   15.5640  -35.0430 H   0  0  0  0  0  0  0  0  0  0  0  0
   -0.6710   16.7010  -35.6270 H   0  0  0  0  0  0  0  0  0  0  0  0
    0.4987   15.3597  -34.1228 H   0  0  0  0  0  0  0  0  0  0  0  0
    0.1999   16.9626  -33.3224 H   0  0  0  0  0  0  0  0  0  0  0  0
   -0.1998   15.0009  -31.8081 H   0  0  0  0  0  0  0  0  0  0  0  0
   -1.6540   16.0538  -32.0648 H   0  0  0  0  0  0  0  0  0  0  0  0
   -1.1756   13.5435  -33.7148 H   0  0  0  0  0  0  0  0  0  0  0  0
   -2.0185   13.5073  -32.1138 H   0  0  0  0  0  0  0  0  0  0  0  0
   -3.6384   14.6749  -31.6198 H   0  0  0  0  0  0  0  0  0  0  0  0
   -4.4820   15.7928  -32.7447 H   0  0  0  0  0  0  0  0  0  0  0  0
   -4.8883   14.0431  -32.7447 H   0  0  0  0  0  0  0  0  0  0  0  0
   -3.9047   12.6469  -34.0235 H   0  0  0  0  0  0  0  0  0  0  0  0
   -4.3066   13.9268  -35.2181 H   0  0  0  0  0  0  0  0  0  0  0  0
   -2.6733   13.1792  -35.2181 H   0  0  0  0  0  0  0  0  0  0  0  0
   -6.2550   19.2050  -34.9460 H   0  0  0  0  0  0  0  0  0  0  0  0
   -7.1888   16.9982  -35.4236 H   0  0  0  0  0  0  0  0  0  0  0  0
   -5.7709   16.2450  -34.5925 H   0  0  0  0  0  0  0  0  0  0  0  0
   -8.2775   16.6847  -33.4642 H   0  0  0  0  0  0  0  0  0  0  0  0
   -6.7181   16.3955  -32.5720 H   0  0  0  0  0  0  0  0  0  0  0  0
   -9.2062   18.8421  -33.5367 H   0  0  0  0  0  0  0  0  0  0  0  0
   -9.2538   18.3742  -31.7630 H   0  0  0  0  0  0  0  0  0  0  0  0
   -8.8085   20.4961  -31.0354 H   0  0  0  0  0  0  0  0  0  0  0  0
   -7.9312   20.9579  -32.5333 H   0  0  0  0  0  0  0  0  0  0  0  0
   -9.7254   20.8730  -32.5333 H   0  0  0  0  0  0  0  0  0  0  0  0
   -5.8052   19.1415  -31.4011 H   0  0  0  0  0  0  0  0  0  0  0  0
   -7.3490   18.7665  -30.5498 H   0  0  0  0  0  0  0  0  0  0  0  0
   -6.0765   16.9501  -29.8735 H   0  0  0  0  0  0  0  0  0  0  0  0
   -6.7829   16.2839  -31.3848 H   0  0  0  0  0  0  0  0  0  0  0  0
   -5.1058   16.9273  -31.3848 H   0  0  0  0  0  0  0  0  0  0  0  0
  1  2  1  0
  2  3  1  0
  3  4  1  0
  4  5  1  0
  3  6  1  0
  6  7  1  0
  7  8  1  0
  8  9  1  0
  9 10  2  0
 10 11  1  0
 11 12  1  0
 12 13  1  0
 13 14  2  0
 14 15  1  0
 15 16  1  0
 16 17  1  0
 17 18  1  0
 18 19  1  0
 19 20  1  0
 20 21  1  0
 20 22  1  0
 15 23  2  0
 23 24  1  0
 23 25  1  0
 25 26  1  0
 26 27  1  0
 27 28  1  0
 28 29  1  0
 29 30  1  0
 30 31  1  0
 29 32  1  0
 32 33  1  0
 25 34  2  0
 34 35  1  0
 35 36  2  0
 35 37  1  0
 37 38  1  0
 38 39  1  0
 38 40  2  0
 40 41  1  0
 40  9  1  0
 37 11  2  0
 34 13  1  0
  1 42  1  0
  1 43  1  0
  1 44  1  0
  2 45  1  0
  2 46  1  0
  4 47  1  0
  4 48  1  0
  5 49  1  0
  5 50  1  0
  5 51  1  0
  6 52  1  0
  6 53  1  0
  7 54  1  0
  7 55  1  0
  8 56  1  0
 10 57  1  0
 14 58  1  0
 16 59  1  0
 16 60  1  0
 17 61  1  0
 17 62  1  0
 18 63  1  0
 18 64  1  0
 19 65  1  0
 19 66  1  0
 21 67  1  0
 21 68  1  0
 21 69  1  0
 22 70  1  0
 22 71  1  0
 22 72  1  0
 26 73  1  0
 27 74  1  0
 27 75  1  0
 28 76  1  0
 28 77  1  0
 30 78  1  0
 30 79  1  0
 31 80  1  0
 31 81  1  0
 31 82  1  0
 32 83  1  0
 32 84  1  0
 33 85  1  0
 33 86  1  0
 33 87  1  0
M  CHG  1  16   1
M  END
>  <UniqueID>  (39) 
37

>  <SMILES>  (39) 
CCN(CC)CCNc1cc2sc3cc([NH2+]CCCN(C)C)c(F)c(NCCN(CC)CC)c3c(=O)c2c(F)c1F

>  <Energy>  (39) 
112.52081578012168

>  <Genealogy>  (39) 
CCN(CC)CCNc1cc2sc3cc([NH2+]CCCN(C)C)c(F)c(NCCN(CC)CC)c3c(=O)c2c(F)c1F (protonated)
CCN(CC)CCNc1cc2sc3cc([NH2+]CCCN(C)C)c(F)c(NCCN(CC)CC)c3c(=O)c2c(F)c1F (3D coordinates assigned)
CCN(CC)CCNc1cc2sc3cc([NH2+]CCCN(C)C)c(F)c(NCCN(CC)CC)c3c(=O)c2c(F)c1F (optimized conformer: 112.52081578012168 kcal/mol)

>  <smiles>  (39) 
CCN(CC)CCNc1cc2sc3cc(NCCCN(C)C)c(F)c(NCCN(CC)CC)c3c(=O)c2c(F)c1F

>  <score_type>  (39) 
oracle

>  <origin>  (39) 
adg

>  <m_score__min__energy>  (39) 
-7.3099999999999996

>  <m_primary>  (39) 
energy

$$$$
39:0
     RDKit          3D

 43 45  0  0  0  0  0  0  0  0999 V2000
   -1.9330   24.6570  -28.7310 C   0  0  0  0  0  0  0  0  0  0  0  0
   -2.9180   24.9360  -29.7220 O   0  0  0  0  0  0  0  0  0  0  0  0
   -3.9760   24.0820  -30.0720 C   0  0  0  0  0  0  0  0  0  0  0  0
   -5.2410   24.2280  -29.4810 C   0  0  0  0  0  0  0  0  0  0  0  0
   -6.2960   23.3980  -29.8380 C   0  0  0  0  0  0  0  0  0  0  0  0
   -6.1320   22.4000  -30.8100 C   0  0  0  0  0  0  0  0  0  0  0  0
   -4.8430   22.1900  -31.3640 C   0  0  0  0  0  0  0  0  0  0  0  0
   -3.7730   23.0540  -31.0280 C   0  0  0  0  0  0  0  0  0  0  0  0
   -2.5400   22.8370  -31.6770 O   0  0  0  0  0  0  0  0  0  0  0  0
   -1.5220   21.9190  -31.2950 C   0  0  0  0  0  0  0  0  0  0  0  0
   -4.6010   21.0870  -32.3740 C   0  0  0  0  0  0  0  0  0  0  0  0
   -5.6310   19.9630  -32.2690 C   0  0  0  0  0  0  0  0  0  0  0  0
   -7.0510   20.5500  -32.3410 C   0  0  2  0  0  0  0  0  0  0  0  0
   -7.3180   21.4970  -31.1460 C   0  0  2  0  0  0  0  0  0  0  0  0
   -8.6060   22.3160  -31.4320 C   0  0  0  0  0  0  0  0  0  0  0  0
   -9.6030   21.5700  -32.3390 C   0  0  0  0  0  0  0  0  0  0  0  0
   -9.4910   20.0520  -32.1490 C   0  0  0  0  0  0  0  0  0  0  0  0
   -8.1370   19.5220  -32.4870 N   0  0  2  0  0  0  0  0  0  0  0  0
   -7.8970   18.2840  -31.7140 C   0  0  0  0  0  0  0  0  0  0  0  0
   -2.3735   24.7818  -27.7308 H   0  0  0  0  0  0  0  0  0  0  0  0
   -1.5773   23.6228  -28.8486 H   0  0  0  0  0  0  0  0  0  0  0  0
   -1.0877   25.3511  -28.8486 H   0  0  0  0  0  0  0  0  0  0  0  0
   -5.3990   25.0108  -28.7245 H   0  0  0  0  0  0  0  0  0  0  0  0
   -7.2743   23.5252  -29.3514 H   0  0  0  0  0  0  0  0  0  0  0  0
   -1.4664   21.8689  -30.1975 H   0  0  0  0  0  0  0  0  0  0  0  0
   -1.7578   20.9222  -31.6961 H   0  0  0  0  0  0  0  0  0  0  0  0
   -0.5548   22.2562  -31.6961 H   0  0  0  0  0  0  0  0  0  0  0  0
   -4.6499   21.5173  -33.3852 H   0  0  0  0  0  0  0  0  0  0  0  0
   -3.6111   20.6545  -32.1667 H   0  0  0  0  0  0  0  0  0  0  0  0
   -5.4856   19.2556  -33.0988 H   0  0  0  0  0  0  0  0  0  0  0  0
   -5.5020   19.4402  -31.3098 H   0  0  0  0  0  0  0  0  0  0  0  0
   -7.0869   21.1355  -33.2716 H   0  0  0  0  0  0  0  0  0  0  0  0
   -7.4635   20.8790  -30.2477 H   0  0  0  0  0  0  0  0  0  0  0  0
   -9.1006   22.5376  -30.4748 H   0  0  0  0  0  0  0  0  0  0  0  0
   -8.3034   23.2329  -31.9589 H   0  0  0  0  0  0  0  0  0  0  0  0
  -10.6254   21.8892  -32.0884 H   0  0  0  0  0  0  0  0  0  0  0  0
   -9.3698   21.8097  -33.3869 H   0  0  0  0  0  0  0  0  0  0  0  0
   -9.7090   19.8130  -31.0976 H   0  0  0  0  0  0  0  0  0  0  0  0
  -10.2105   19.5799  -32.8341 H   0  0  0  0  0  0  0  0  0  0  0  0
   -8.1580   19.2430  -33.4970 H   0  0  0  0  0  0  0  0  0  0  0  0
   -7.9407   18.5092  -30.6382 H   0  0  0  0  0  0  0  0  0  0  0  0
   -8.6677   17.5401  -31.9645 H   0  0  0  0  0  0  0  0  0  0  0  0
   -6.9042   17.8820  -31.9645 H   0  0  0  0  0  0  0  0  0  0  0  0
  1  2  1  0
  2  3  1  0
  3  4  2  0
  4  5  1  0
  5  6  2  0
  6  7  1  0
  7  8  2  0
  8  9  1  0
  9 10  1  0
  7 11  1  0
 11 12  1  0
 12 13  1  0
 13 14  1  0
 14 15  1  0
 15 16  1  0
 16 17  1  0
 17 18  1  0
 18 19  1  0
  8  3  1  0
 18 13  1  0
 14  6  1  0
  1 20  1  0
  1 21  1  0
  1 22  1  0
  4 23  1  0
  5 24  1  0
 10 25  1  0
 10 26  1  0
 10 27  1  0
 11 28  1  0
 11 29  1  0
 12 30  1  0
 12 31  1  0
 13 32  1  6
 14 33  1  1
 15 34  1  0
 15 35  1  0
 16 36  1  0
 16 37  1  0
 17 38  1  0
 17 39  1  0
 18 40  1  6
 19 41  1  0
 19 42  1  0
 19 43  1  0
M  CHG  1  18   1
M  END
>  <UniqueID>  (40) 
38

>  <SMILES>  (40) 
COc1ccc2c(c1OC)CC[C@@H]1[C@@H]2CCC[NH+]1C

>  <Energy>  (40) 
62.363355433777166

>  <Genealogy>  (40) 
COc1ccc2c(c1OC)CCC1C2CCC[NH+]1C (protonated)
COc1ccc2c(c1OC)CC[C@@H]1[C@@H]2CCC[NH+]1C (chirality)
COc1ccc2c(c1OC)CC[C@@H]1[C@@H]2CCC[NH+]1C (3D coordinates assigned)
COc1ccc2c(c1OC)CC[C@@H]1[C@@H]2CCC[NH+]1C (nonaromatic ring conformer: 62.363355433777166 kcal/mol)

>  <smiles>  (40) 
COc1ccc2c(c1OC)CCC1C2CCCN1C

>  <score_type>  (40) 
oracle

>  <origin>  (40) 
adg

>  <m_score__min__energy>  (40) 
-7.2300000000000004

>  <m_primary>  (40) 
energy

$$$$
40:0
     RDKit          3D

 48 49  0  0  0  0  0  0  0  0999 V2000
    1.0560   22.5980  -35.8150 C   0  0  0  0  0  0  0  0  0  0  0  0
    0.0140   22.2430  -34.9330 O   0  0  0  0  0  0  0  0  0  0  0  0
    0.0900   20.8680  -34.6040 C   0  0  0  0  0  0  0  0  0  0  0  0
   -1.2040   20.3710  -33.9300 C   0  0  0  0  0  0  0  0  0  0  0  0
   -2.2660   21.3960  -33.8540 N   0  0  0  0  0  0  0  0  0  0  0  0
   -2.8340   21.5950  -32.5060 C   0  0  0  0  0  0  0  0  0  0  0  0
   -4.3720   21.6740  -32.4820 C   0  0  0  0  0  0  0  0  0  0  0  0
   -4.8780   22.7680  -31.5690 C   0  0  0  0  0  0  0  0  0  0  0  0
   -3.9550   23.5110  -30.8130 C   0  0  0  0  0  0  0  0  0  0  0  0
   -4.3930   24.5160  -29.9490 C   0  0  0  0  0  0  0  0  0  0  0  0
   -5.7540   24.7920  -29.8330 C   0  0  0  0  0  0  0  0  0  0  0  0
   -6.6840   24.0690  -30.5840 C   0  0  0  0  0  0  0  0  0  0  0  0
   -6.2560   23.0540  -31.4630 C   0  0  0  0  0  0  0  0  0  0  0  0
   -7.1610   22.3220  -32.2500 O   0  0  0  0  0  0  0  0  0  0  0  0
   -8.5530   22.1480  -31.9810 C   0  0  0  0  0  0  0  0  0  0  0  0
   -8.9120   20.6620  -31.8720 C   0  0  0  0  0  0  0  0  0  0  0  0
   -7.7730   19.7970  -32.3480 C   0  0  0  0  0  0  0  0  0  0  0  0
   -7.1700   20.0380  -33.5950 C   0  0  0  0  0  0  0  0  0  0  0  0
   -6.1520   19.2000  -34.0600 C   0  0  0  0  0  0  0  0  0  0  0  0
   -5.7320   18.1140  -33.2880 C   0  0  0  0  0  0  0  0  0  0  0  0
   -6.3320   17.8630  -32.0500 C   0  0  0  0  0  0  0  0  0  0  0  0
   -7.3520   18.6970  -31.5820 C   0  0  0  0  0  0  0  0  0  0  0  0
    1.9407   22.8994  -35.2349 H   0  0  0  0  0  0  0  0  0  0  0  0
    1.3096   21.7356  -36.4489 H   0  0  0  0  0  0  0  0  0  0  0  0
    0.7303   23.4359  -36.4489 H   0  0  0  0  0  0  0  0  0  0  0  0
    0.2572   20.2898  -35.5247 H   0  0  0  0  0  0  0  0  0  0  0  0
    0.9204   20.7301  -33.8959 H   0  0  0  0  0  0  0  0  0  0  0  0
   -1.5880   19.5150  -34.5044 H   0  0  0  0  0  0  0  0  0  0  0  0
   -0.9442   20.1001  -32.8960 H   0  0  0  0  0  0  0  0  0  0  0  0
   -1.8870   22.3100  -34.1950 H   0  0  0  0  0  0  0  0  0  0  0  0
   -3.0290   21.1350  -34.5200 H   0  0  0  0  0  0  0  0  0  0  0  0
   -2.5205   20.7537  -31.8705 H   0  0  0  0  0  0  0  0  0  0  0  0
   -2.4590   22.5626  -32.1413 H   0  0  0  0  0  0  0  0  0  0  0  0
   -4.7317   21.8710  -33.5027 H   0  0  0  0  0  0  0  0  0  0  0  0
   -4.7515   20.7151  -32.0993 H   0  0  0  0  0  0  0  0  0  0  0  0
   -2.8794   23.2989  -30.9029 H   0  0  0  0  0  0  0  0  0  0  0  0
   -3.6634   25.0905  -29.3593 H   0  0  0  0  0  0  0  0  0  0  0  0
   -6.0970   25.5815  -29.1481 H   0  0  0  0  0  0  0  0  0  0  0  0
   -7.7567   24.2933  -30.4887 H   0  0  0  0  0  0  0  0  0  0  0  0
   -8.8011   22.6481  -31.0332 H   0  0  0  0  0  0  0  0  0  0  0  0
   -9.1268   22.5863  -32.8109 H   0  0  0  0  0  0  0  0  0  0  0  0
   -9.1327   20.4209  -30.8217 H   0  0  0  0  0  0  0  0  0  0  0  0
   -9.7905   20.4654  -32.5042 H   0  0  0  0  0  0  0  0  0  0  0  0
   -7.5006   20.8897  -34.2076 H   0  0  0  0  0  0  0  0  0  0  0  0
   -5.6813   19.3960  -35.0347 H   0  0  0  0  0  0  0  0  0  0  0  0
   -4.9296   17.4565  -33.6538 H   0  0  0  0  0  0  0  0  0  0  0  0
   -6.0008   17.0075  -31.4430 H   0  0  0  0  0  0  0  0  0  0  0  0
   -7.8263   18.4913  -30.6111 H   0  0  0  0  0  0  0  0  0  0  0  0
  1  2  1  0
  2  3  1  0
  3  4  1  0
  4  5  1  0
  5  6  1  0
  6  7  1  0
  7  8  1  0
  8  9  2  0
  9 10  1  0
 10 11  2  0
 11 12  1  0
 12 13  2  0
 13 14  1  0
 14 15  1  0
 15 16  1  0
 16 17  1  0
 17 18  2  0
 18 19  1  0
 19 20  2  0
 20 21  1  0
 21 22  2  0
 13  8  1  0
 22 17  1  0
  1 23  1  0
  1 24  1  0
  1 25  1  0
  3 26  1  0
  3 27  1  0
  4 28  1  0
  4 29  1  0
  5 30  1  0
  5 31  1  0
  6 32  1  0
  6 33  1  0
  7 34  1  0
  7 35  1  0
  9 36  1  0
 10 37  1  0
 11 38  1  0
 12 39  1  0
 15 40  1  0
 15 41  1  0
 16 42  1  0
 16 43  1  0
 18 44  1  0
 19 45  1  0
 20 46  1  0
 21 47  1  0
 22 48  1  0
M  CHG  1   5   1
M  END
>  <UniqueID>  (41) 
39

>  <SMILES>  (41) 
COCC[NH2+]CCc1ccccc1OCCc1ccccc1

>  <Energy>  (41) 
45.87365225974857

>  <Genealogy>  (41) 
COCC[NH2+]CCc1ccccc1OCCc1ccccc1 (protonated)
COCC[NH2+]CCc1ccccc1OCCc1ccccc1 (3D coordinates assigned)
COCC[NH2+]CCc1ccccc1OCCc1ccccc1 (optimized conformer: 45.87365225974857 kcal/mol)

>  <smiles>  (41) 
COCCNCCc1ccccc1OCCc1ccccc1

>  <score_type>  (41) 
oracle

>  <origin>  (41) 
adg

>  <m_score__min__energy>  (41) 
-6.8700000000000001

>  <m_primary>  (41) 
energy

$$$$
41:0
     RDKit          3D

 42 44  0  0  0  0  0  0  0  0999 V2000
   -1.2630   27.2640  -25.3060 C   0  0  0  0  0  0  0  0  0  0  0  0
   -1.6630   25.7880  -25.4650 C   0  0  0  0  0  0  0  0  0  0  0  0
   -2.5050   25.4990  -26.6540 N   0  0  0  0  0  0  0  0  0  0  0  0
   -3.6010   24.5500  -26.3600 C   0  0  0  0  0  0  0  0  0  0  0  0
   -4.6040   24.5300  -27.5210 C   0  0  0  0  0  0  0  0  0  0  0  0
   -3.9050   24.5360  -28.8120 N   0  0  0  0  0  0  0  0  0  0  0  0
   -4.6250   24.7800  -30.0340 C   0  0  0  0  0  0  0  0  0  0  0  0
   -4.0850   25.4590  -30.9500 O   0  0  0  0  0  0  0  0  0  0  0  0
   -5.9780   24.1640  -30.2880 C   0  0  0  0  0  0  0  0  0  0  0  0
   -6.1450   23.7280  -31.7540 C   0  0  1  0  0  0  0  0  0  0  0  0
   -4.9080   23.2190  -32.2740 O   0  0  0  0  0  0  0  0  0  0  0  0
   -5.0600   21.8940  -32.6610 C   0  0  0  0  0  0  0  0  0  0  0  0
   -4.1370   21.1830  -33.1380 O   0  0  0  0  0  0  0  0  0  0  0  0
   -6.4190   21.4760  -32.4340 C   0  0  0  0  0  0  0  0  0  0  0  0
   -7.0510   20.2560  -32.6630 C   0  0  0  0  0  0  0  0  0  0  0  0
   -8.4160   20.1520  -32.3500 C   0  0  0  0  0  0  0  0  0  0  0  0
   -9.1140   21.2630  -31.8320 C   0  0  0  0  0  0  0  0  0  0  0  0
   -8.4490   22.4830  -31.6160 C   0  0  0  0  0  0  0  0  0  0  0  0
   -7.0860   22.5590  -31.9110 C   0  0  0  0  0  0  0  0  0  0  0  0
   -2.4690   24.2360  -28.8540 C   0  0  0  0  0  0  0  0  0  0  0  0
   -1.6910   25.0910  -27.8330 C   0  0  0  0  0  0  0  0  0  0  0  0
   -1.1957   27.5125  -24.2366 H   0  0  0  0  0  0  0  0  0  0  0  0
   -0.2867   27.4328  -25.7838 H   0  0  0  0  0  0  0  0  0  0  0  0
   -2.0205   27.9027  -25.7838 H   0  0  0  0  0  0  0  0  0  0  0  0
   -0.7431   25.1899  -25.5428 H   0  0  0  0  0  0  0  0  0  0  0  0
   -2.2706   25.5336  -24.5841 H   0  0  0  0  0  0  0  0  0  0  0  0
   -2.9570   26.4130  -26.9030 H   0  0  0  0  0  0  0  0  0  0  0  0
   -3.1828   23.5419  -26.2226 H   0  0  0  0  0  0  0  0  0  0  0  0
   -4.1174   24.8682  -25.4424 H   0  0  0  0  0  0  0  0  0  0  0  0
   -5.2213   23.6224  -27.4490 H   0  0  0  0  0  0  0  0  0  0  0  0
   -5.2360   25.4281  -27.4573 H   0  0  0  0  0  0  0  0  0  0  0  0
   -6.0948   23.2831  -29.6397 H   0  0  0  0  0  0  0  0  0  0  0  0
   -6.7439   24.9226  -30.0691 H   0  0  0  0  0  0  0  0  0  0  0  0
   -6.5134   24.6265  -32.2707 H   0  0  0  0  0  0  0  0  0  0  0  0
   -6.4976   19.4000  -33.0765 H   0  0  0  0  0  0  0  0  0  0  0  0
   -8.9433   19.1999  -32.5095 H   0  0  0  0  0  0  0  0  0  0  0  0
  -10.1847   21.1745  -31.5957 H   0  0  0  0  0  0  0  0  0  0  0  0
   -8.9896   23.3570  -31.2239 H   0  0  0  0  0  0  0  0  0  0  0  0
   -2.3177   23.1718  -28.6203 H   0  0  0  0  0  0  0  0  0  0  0  0
   -2.0936   24.4688  -29.8614 H   0  0  0  0  0  0  0  0  0  0  0  0
   -0.8294   24.5079  -27.4758 H   0  0  0  0  0  0  0  0  0  0  0  0
   -1.3866   26.0131  -28.3497 H   0  0  0  0  0  0  0  0  0  0  0  0
  1  2  1  0
  2  3  1  0
  3  4  1  0
  4  5  1  0
  5  6  1  0
  6  7  1  0
  7  8  2  0
  7  9  1  0
  9 10  1  0
 10 11  1  0
 11 12  1  0
 12 13  2  0
 12 14  1  0
 14 15  2  0
 15 16  1  0
 16 17  2  0
 17 18  1  0
 18 19  2  0
  6 20  1  0
 20 21  1  0
 21  3  1  0
 19 10  1  0
 19 14  1  0
  1 22  1  0
  1 23  1  0
  1 24  1  0
  2 25  1  0
  2 26  1  0
  3 27  1  0
  4 28  1  0
  4 29  1  0
  5 30  1  0
  5 31  1  0
  9 32  1  0
  9 33  1  0
 10 34  1  6
 15 35  1  0
 16 36  1  0
 17 37  1  0
 18 38  1  0
 20 39  1  0
 20 40  1  0
 21 41  1  0
 21 42  1  0
M  CHG  1   3   1
M  END
>  <UniqueID>  (42) 
40

>  <SMILES>  (42) 
CC[NH+]1CCN(C(=O)C[C@H]2OC(=O)c3ccccc32)CC1

>  <Energy>  (42) 
72.27783733717497

>  <Genealogy>  (42) 
CC[NH+]1CCN(C(=O)CC2OC(=O)c3ccccc32)CC1 (protonated)
CC[NH+]1CCN(C(=O)C[C@H]2OC(=O)c3ccccc32)CC1 (chirality)
CC[NH+]1CCN(C(=O)C[C@H]2OC(=O)c3ccccc32)CC1 (3D coordinates assigned)
CC[NH+]1CCN(C(=O)C[C@H]2OC(=O)c3ccccc32)CC1 (nonaromatic ring conformer: 72.27783733717497 kcal/mol)

>  <smiles>  (42) 
CCN1CCN(C(=O)CC2OC(=O)c3ccccc32)CC1

>  <score_type>  (42) 
oracle

>  <origin>  (42) 
adg

>  <m_score__min__energy>  (42) 
-7.6399999999999997

>  <m_primary>  (42) 
energy

$$$$
42:0
     RDKit          3D

 39 41  0  0  0  0  0  0  0  0999 V2000
   -5.4210   25.4010  -30.2190 C   0  0  0  0  0  0  0  0  0  0  0  0
   -4.9820   24.4000  -31.1310 O   0  0  0  0  0  0  0  0  0  0  0  0
   -5.7740   23.3340  -31.5920 C   0  0  0  0  0  0  0  0  0  0  0  0
   -7.1620   23.3280  -31.4270 C   0  0  0  0  0  0  0  0  0  0  0  0
   -7.9260   22.2770  -31.9150 C   0  0  0  0  0  0  0  0  0  0  0  0
   -7.3350   21.2010  -32.5970 C   0  0  0  0  0  0  0  0  0  0  0  0
   -5.9120   21.1550  -32.7300 C   0  0  0  0  0  0  0  0  0  0  0  0
   -5.1470   22.2510  -32.2320 C   0  0  0  0  0  0  0  0  0  0  0  0
   -3.3490   22.3190  -32.4110 S   0  0  0  0  0  0  0  0  0  0  0  0
   -3.0750   22.3360  -30.6400 C   0  0  0  0  0  0  0  0  0  0  0  0
   -3.3850   21.3070  -29.7640 C   0  0  0  0  0  0  0  0  0  0  0  0
   -3.0600   21.6040  -28.4360 C   0  0  0  0  0  0  0  0  0  0  0  0
   -2.5010   22.8650  -28.2680 C   0  0  0  0  0  0  0  0  0  0  0  0
   -2.4100   23.6120  -29.7720 S   0  0  0  0  0  0  0  0  0  0  0  0
   -5.1990   20.0390  -33.4910 C   0  0  0  0  0  0  0  0  0  0  0  0
   -5.4420   18.6320  -32.9330 C   0  0  0  0  0  0  0  0  0  0  0  0
   -6.7630   18.1020  -33.3260 N   0  0  0  0  0  0  0  0  0  0  0  0
   -6.7730   16.6330  -33.2350 C   0  0  0  0  0  0  0  0  0  0  0  0
   -7.8980   18.7000  -32.5860 C   0  0  0  0  0  0  0  0  0  0  0  0
   -8.2770   20.1080  -33.0750 C   0  0  0  0  0  0  0  0  0  0  0  0
   -5.2672   25.0504  -29.1878 H   0  0  0  0  0  0  0  0  0  0  0  0
   -4.8450   26.3238  -30.3822 H   0  0  0  0  0  0  0  0  0  0  0  0
   -6.4900   25.6023  -30.3822 H   0  0  0  0  0  0  0  0  0  0  0  0
   -7.6529   24.1632  -30.9060 H   0  0  0  0  0  0  0  0  0  0  0  0
   -9.0156   22.2871  -31.7646 H   0  0  0  0  0  0  0  0  0  0  0  0
   -3.8391   20.3563  -30.0801 H   0  0  0  0  0  0  0  0  0  0  0  0
   -3.2308   20.9054  -27.6037 H   0  0  0  0  0  0  0  0  0  0  0  0
   -2.1734   23.3010  -27.3127 H   0  0  0  0  0  0  0  0  0  0  0  0
   -5.5458   20.0591  -34.5347 H   0  0  0  0  0  0  0  0  0  0  0  0
   -4.1207   20.2326  -33.3917 H   0  0  0  0  0  0  0  0  0  0  0  0
   -4.6609   17.9584  -33.3154 H   0  0  0  0  0  0  0  0  0  0  0  0
   -5.4128   18.6920  -31.8350 H   0  0  0  0  0  0  0  0  0  0  0  0
   -6.7751   16.3312  -32.1772 H   0  0  0  0  0  0  0  0  0  0  0  0
   -7.6738   16.2411  -33.7299 H   0  0  0  0  0  0  0  0  0  0  0  0
   -5.8776   16.2289  -33.7299 H   0  0  0  0  0  0  0  0  0  0  0  0
   -8.7733   18.0440  -32.7021 H   0  0  0  0  0  0  0  0  0  0  0  0
   -7.5843   18.7962  -31.5361 H   0  0  0  0  0  0  0  0  0  0  0  0
   -8.2740   20.1050  -34.1750 H   0  0  0  0  0  0  0  0  0  0  0  0
   -9.2682   20.3353  -32.6557 H   0  0  0  0  0  0  0  0  0  0  0  0
  1  2  1  0
  2  3  1  0
  3  4  2  0
  4  5  1  0
  5  6  2  0
  6  7  1  0
  7  8  2  0
  8  9  1  0
  9 10  1  0
 10 11  2  0
 11 12  1  0
 12 13  2  0
 13 14  1  0
  7 15  1  0
 15 16  1  0
 16 17  1  0
 17 18  1  0
 17 19  1  0
 19 20  1  0
  8  3  1  0
 14 10  1  0
 20  6  1  0
  1 21  1  0
  1 22  1  0
  1 23  1  0
  4 24  1  0
  5 25  1  0
 11 26  1  0
 12 27  1  0
 13 28  1  0
 15 29  1  0
 15 30  1  0
 16 31  1  0
 16 32  1  0
 18 33  1  0
 18 34  1  0
 18 35  1  0
 19 36  1  0
 19 37  1  0
 20 38  1  0
 20 39  1  0
M  END
>  <UniqueID>  (43) 
41

>  <SMILES>  (43) 
COc1ccc2c(c1Sc1cccs1)CCN(C)CC2

>  <Energy>  (43) 
77.0603386315936

>  <Genealogy>  (43) 
COc1ccc2c(c1Sc1cccs1)CCN(C)CC2 (3D coordinates assigned)
COc1ccc2c(c1Sc1cccs1)CCN(C)CC2 (nonaromatic ring conformer: 77.0603386315936 kcal/mol)

>  <smiles>  (43) 
COc1ccc2c(c1Sc1cccs1)CCN(C)CC2

>  <score_type>  (43) 
oracle

>  <origin>  (43) 
adg

>  <m_score__min__energy>  (43) 
-6.0499999999999998

>  <m_primary>  (43) 
energy

$$$$
43:0
     RDKit          3D

 58 60  0  0  0  0  0  0  0  0999 V2000
   -0.1710   22.7360  -24.0890 C   0  0  0  0  0  0  0  0  0  0  0  0
    0.5170   23.9270  -24.7790 C   0  0  0  0  0  0  0  0  0  0  0  0
    0.3640   25.2400  -24.0900 N   0  0  1  0  0  0  0  0  0  0  0  0
    1.5850   26.0720  -24.0850 C   0  0  0  0  0  0  0  0  0  0  0  0
   -0.8470   26.0020  -24.4910 C   0  0  0  0  0  0  0  0  0  0  0  0
   -0.9980   26.2350  -26.0000 C   0  0  0  0  0  0  0  0  0  0  0  0
   -2.3500   26.0300  -26.3580 O   0  0  0  0  0  0  0  0  0  0  0  0
   -2.6620   24.6490  -26.3520 C   0  0  0  0  0  0  0  0  0  0  0  0
   -2.3330   24.0120  -27.6840 C   0  0  0  0  0  0  0  0  0  0  0  0
   -1.0570   23.4580  -27.8740 C   0  0  0  0  0  0  0  0  0  0  0  0
   -0.7230   22.8840  -29.0570 N   0  0  0  0  0  0  0  0  0  0  0  0
   -1.5960   22.8180  -30.0920 C   0  0  0  0  0  0  0  0  0  0  0  0
   -2.8880   23.3430  -29.9630 C   0  0  0  0  0  0  0  0  0  0  0  0
   -3.2570   23.9820  -28.7570 C   0  0  0  0  0  0  0  0  0  0  0  0
   -4.6620   24.5300  -28.5900 C   0  0  0  0  0  0  0  0  0  0  0  0
   -5.3940   24.6860  -29.9240 C   0  0  0  0  0  0  0  0  0  0  0  0
   -5.2220   23.4600  -30.7210 N   0  0  0  0  0  0  0  0  0  0  0  0
   -6.1800   23.3610  -31.8450 C   0  0  0  0  0  0  0  0  0  0  0  0
   -6.9510   22.0580  -31.8840 C   0  0  0  0  0  0  0  0  0  0  0  0
   -8.2980   22.0190  -31.4860 C   0  0  0  0  0  0  0  0  0  0  0  0
   -9.0090   20.8160  -31.5160 C   0  0  0  0  0  0  0  0  0  0  0  0
   -8.3900   19.6390  -31.9620 C   0  0  0  0  0  0  0  0  0  0  0  0
   -9.1420   18.3410  -31.9550 C   0  0  0  0  0  0  0  0  0  0  0  0
   -7.0430   19.6740  -32.3530 C   0  0  0  0  0  0  0  0  0  0  0  0
   -6.3320   20.8770  -32.3230 C   0  0  0  0  0  0  0  0  0  0  0  0
   -3.8190   23.3150  -31.1490 C   0  0  0  0  0  0  0  0  0  0  0  0
   -0.1023   22.8549  -22.9976 H   0  0  0  0  0  0  0  0  0  0  0  0
   -1.2290   22.7001  -24.3881 H   0  0  0  0  0  0  0  0  0  0  0  0
    0.3265   21.8016  -24.3881 H   0  0  0  0  0  0  0  0  0  0  0  0
    1.5918   23.7039  -24.8495 H   0  0  0  0  0  0  0  0  0  0  0  0
    0.0238   24.0378  -25.7560 H   0  0  0  0  0  0  0  0  0  0  0  0
    0.2000   25.0050  -23.0810 H   0  0  0  0  0  0  0  0  0  0  0  0
    1.8851   26.2765  -23.0467 H   0  0  0  0  0  0  0  0  0  0  0  0
    2.3952   25.5372  -24.6023 H   0  0  0  0  0  0  0  0  0  0  0  0
    1.3837   27.0217  -24.6023 H   0  0  0  0  0  0  0  0  0  0  0  0
   -1.7302   25.4472  -24.1416 H   0  0  0  0  0  0  0  0  0  0  0  0
   -0.7476   26.9982  -24.0352 H   0  0  0  0  0  0  0  0  0  0  0  0
   -0.7021   27.2653  -26.2467 H   0  0  0  0  0  0  0  0  0  0  0  0
   -0.3540   25.5355  -26.5532 H   0  0  0  0  0  0  0  0  0  0  0  0
   -2.0794   24.1522  -25.5622 H   0  0  0  0  0  0  0  0  0  0  0  0
   -3.7401   24.5346  -26.1661 H   0  0  0  0  0  0  0  0  0  0  0  0
   -0.3217   23.4896  -27.0565 H   0  0  0  0  0  0  0  0  0  0  0  0
   -1.2879   22.3495  -31.0384 H   0  0  0  0  0  0  0  0  0  0  0  0
   -5.2353   23.8415  -27.9518 H   0  0  0  0  0  0  0  0  0  0  0  0
   -4.5788   25.5287  -28.1364 H   0  0  0  0  0  0  0  0  0  0  0  0
   -6.4647   24.8557  -29.7377 H   0  0  0  0  0  0  0  0  0  0  0  0
   -4.9786   25.5435  -30.4736 H   0  0  0  0  0  0  0  0  0  0  0  0
   -6.9011   24.1872  -31.7587 H   0  0  0  0  0  0  0  0  0  0  0  0
   -5.5895   23.4094  -32.7718 H   0  0  0  0  0  0  0  0  0  0  0  0
   -8.7957   22.9403  -31.1490 H   0  0  0  0  0  0  0  0  0  0  0  0
  -10.0588   20.7922  -31.1883 H   0  0  0  0  0  0  0  0  0  0  0  0
   -9.3234   18.0279  -30.9162 H   0  0  0  0  0  0  0  0  0  0  0  0
  -10.1042   18.4719  -32.4718 H   0  0  0  0  0  0  0  0  0  0  0  0
   -8.5499   17.5714  -32.4718 H   0  0  0  0  0  0  0  0  0  0  0  0
   -6.5446   18.7511  -32.6844 H   0  0  0  0  0  0  0  0  0  0  0  0
   -5.2806   20.8985  -32.6455 H   0  0  0  0  0  0  0  0  0  0  0  0
   -3.7008   22.3572  -31.6769 H   0  0  0  0  0  0  0  0  0  0  0  0
   -3.5662   24.1543  -31.8136 H   0  0  0  0  0  0  0  0  0  0  0  0
  1  2  1  0
  2  3  1  0
  3  4  1  0
  3  5  1  0
  5  6  1  0
  6  7  1  0
  7  8  1  0
  8  9  1  0
  9 10  2  0
 10 11  1  0
 11 12  2  0
 12 13  1  0
 13 14  2  0
 14 15  1  0
 15 16  1  0
 16 17  1  0
 17 18  1  0
 18 19  1  0
 19 20  2  0
 20 21  1  0
 21 22  2  0
 22 23  1  0
 22 24  1  0
 24 25  2  0
 17 26  1  0
 14  9  1  0
 25 19  1  0
 26 13  1  0
  1 27  1  0
  1 28  1  0
  1 29  1  0
  2 30  1  0
  2 31  1  0
  3 32  1  1
  4 33  1  0
  4 34  1  0
  4 35  1  0
  5 36  1  0
  5 37  1  0
  6 38  1  0
  6 39  1  0
  8 40  1  0
  8 41  1  0
 10 42  1  0
 12 43  1  0
 15 44  1  0
 15 45  1  0
 16 46  1  0
 16 47  1  0
 18 48  1  0
 18 49  1  0
 20 50  1  0
 21 51  1  0
 23 52  1  0
 23 53  1  0
 23 54  1  0
 24 55  1  0
 25 56  1  0
 26 57  1  0
 26 58  1  0
M  CHG  1   3   1
M  END
>  <UniqueID>  (44) 
42

>  <SMILES>  (44) 
CC[N@@H+](C)CCOCc1cncc2c1CCN(Cc1ccc(C)cc1)C2

>  <Energy>  (44) 
73.11488406503733

>  <Genealogy>  (44) 
CC[NH+](C)CCOCc1cncc2c1CCN(Cc1ccc(C)cc1)C2 (protonated)
CC[N@@H+](C)CCOCc1cncc2c1CCN(Cc1ccc(C)cc1)C2 (chirality)
CC[N@@H+](C)CCOCc1cncc2c1CCN(Cc1ccc(C)cc1)C2 (3D coordinates assigned)
CC[N@@H+](C)CCOCc1cncc2c1CCN(Cc1ccc(C)cc1)C2 (nonaromatic ring conformer: 73.11488406503733 kcal/mol)

>  <smiles>  (44) 
CCN(C)CCOCc1cncc2c1CCN(Cc1ccc(C)cc1)C2

>  <score_type>  (44) 
oracle

>  <origin>  (44) 
adg

>  <m_score__min__energy>  (44) 
-8.5099999999999998

>  <m_primary>  (44) 
energy

$$$$
44:0
     RDKit          3D

 50 52  0  0  0  0  0  0  0  0999 V2000
   -9.1470   18.9960  -31.9420 C   0  0  0  0  0  0  0  0  0  0  0  0
   -7.8820   18.1630  -31.7770 C   0  0  0  0  0  0  0  0  0  0  0  0
   -6.9000   18.5180  -32.8030 N   0  0  0  0  0  0  0  0  0  0  0  0
   -6.4510   17.7060  -33.7750 C   0  0  0  0  0  0  0  0  0  0  0  0
   -5.6130   18.4340  -34.5890 C   0  0  0  0  0  0  0  0  0  0  0  0
   -5.5380   19.7040  -34.1410 N   0  0  0  0  0  0  0  0  0  0  0  0
   -6.3420   19.7240  -33.0570 C   0  0  0  0  0  0  0  0  0  0  0  0
   -6.5470   20.9590  -32.2170 C   0  0  0  0  0  0  0  0  0  0  0  0
   -5.5300   21.9990  -32.5060 N   0  0  0  0  0  0  0  0  0  0  0  0
   -6.0830   23.3760  -32.3510 C   0  0  0  0  0  0  0  0  0  0  0  0
   -5.7140   24.0060  -30.9990 C   0  0  0  0  0  0  0  0  0  0  0  0
   -4.2430   24.1290  -30.8340 N   0  0  0  0  0  0  0  0  0  0  0  0
   -3.8620   24.2290  -29.4080 C   0  0  0  0  0  0  0  0  0  0  0  0
   -2.3370   24.2320  -29.2310 C   0  0  0  0  0  0  0  0  0  0  0  0
   -1.8660   25.5440  -28.9210 O   0  0  0  0  0  0  0  0  0  0  0  0
   -1.4700   25.9900  -27.6490 C   0  0  0  0  0  0  0  0  0  0  0  0
   -2.0840   25.4160  -26.5270 C   0  0  0  0  0  0  0  0  0  0  0  0
   -1.7300   25.8230  -25.2380 C   0  0  0  0  0  0  0  0  0  0  0  0
   -0.7580   26.8090  -25.0570 C   0  0  0  0  0  0  0  0  0  0  0  0
   -0.1400   27.3900  -26.1660 C   0  0  0  0  0  0  0  0  0  0  0  0
   -0.4920   26.9880  -27.4590 C   0  0  0  0  0  0  0  0  0  0  0  0
   -3.4900   23.0490  -31.5220 C   0  0  0  0  0  0  0  0  0  0  0  0
   -4.3230   21.7680  -31.6710 C   0  0  0  0  0  0  0  0  0  0  0  0
   -9.5452   19.2582  -30.9507 H   0  0  0  0  0  0  0  0  0  0  0  0
   -8.9106   19.9157  -32.4972 H   0  0  0  0  0  0  0  0  0  0  0  0
   -9.8985   18.4155  -32.4972 H   0  0  0  0  0  0  0  0  0  0  0  0
   -7.4513   18.3511  -30.7825 H   0  0  0  0  0  0  0  0  0  0  0  0
   -8.1393   17.0987  -31.8823 H   0  0  0  0  0  0  0  0  0  0  0  0
   -6.7085   16.6437  -33.8987 H   0  0  0  0  0  0  0  0  0  0  0  0
   -5.0852   18.0402  -35.4701 H   0  0  0  0  0  0  0  0  0  0  0  0
   -7.5456   21.3700  -32.4266 H   0  0  0  0  0  0  0  0  0  0  0  0
   -6.4505   20.6721  -31.1595 H   0  0  0  0  0  0  0  0  0  0  0  0
   -5.2300   21.8950  -33.5050 H   0  0  0  0  0  0  0  0  0  0  0  0
   -5.6841   24.0098  -33.1568 H   0  0  0  0  0  0  0  0  0  0  0  0
   -7.1796   23.3048  -32.4000 H   0  0  0  0  0  0  0  0  0  0  0  0
   -6.1647   25.0075  -30.9374 H   0  0  0  0  0  0  0  0  0  0  0  0
   -6.0954   23.3526  -30.2005 H   0  0  0  0  0  0  0  0  0  0  0  0
   -4.2716   25.1619  -28.9933 H   0  0  0  0  0  0  0  0  0  0  0  0
   -4.2686   23.3536  -28.8803 H   0  0  0  0  0  0  0  0  0  0  0  0
   -2.0675   23.5490  -28.4119 H   0  0  0  0  0  0  0  0  0  0  0  0
   -1.8718   23.9031  -30.1719 H   0  0  0  0  0  0  0  0  0  0  0  0
   -2.8507   24.6389  -26.6625 H   0  0  0  0  0  0  0  0  0  0  0  0
   -2.2178   25.3659  -24.3644 H   0  0  0  0  0  0  0  0  0  0  0  0
   -0.4795   27.1277  -24.0417 H   0  0  0  0  0  0  0  0  0  0  0  0
    0.6261   28.1663  -26.0227 H   0  0  0  0  0  0  0  0  0  0  0  0
   -0.0047   27.4515  -28.3295 H   0  0  0  0  0  0  0  0  0  0  0  0
   -3.1994   23.4014  -32.5227 H   0  0  0  0  0  0  0  0  0  0  0  0
   -2.6073   22.8096  -30.9109 H   0  0  0  0  0  0  0  0  0  0  0  0
   -3.7038   20.9917  -32.1443 H   0  0  0  0  0  0  0  0  0  0  0  0
   -4.6506   21.4503  -30.6701 H   0  0  0  0  0  0  0  0  0  0  0  0
  1  2  1  0
  2  3  1  0
  3  4  1  0
  4  5  2  0
  5  6  1  0
  6  7  2  0
  7  8  1  0
  8  9  1  0
  9 10  1  0
 10 11  1  0
 11 12  1  0
 12 13  1  0
 13 14  1  0
 14 15  1  0
 15 16  1  0
 16 17  2  0
 17 18  1  0
 18 19  2  0
 19 20  1  0
 20 21  2  0
 12 22  1  0
 22 23  1  0
  7  3  1  0
 23  9  1  0
 21 16  1  0
  1 24  1  0
  1 25  1  0
  1 26  1  0
  2 27  1  0
  2 28  1  0
  4 29  1  0
  5 30  1  0
  8 31  1  0
  8 32  1  0
  9 33  1  0
 10 34  1  0
 10 35  1  0
 11 36  1  0
 11 37  1  0
 13 38  1  0
 13 39  1  0
 14 40  1  0
 14 41  1  0
 17 42  1  0
 18 43  1  0
 19 44  1  0
 20 45  1  0
 21 46  1  0
 22 47  1  0
 22 48  1  0
 23 49  1  0
 23 50  1  0
M  CHG  1   9   1
M  END
>  <UniqueID>  (45) 
43

>  <SMILES>  (45) 
CCn1ccnc1C[NH+]1CCN(CCOc2ccccc2)CC1

>  <Energy>  (45) 
89.8370209591796

>  <Genealogy>  (45) 
CCn1ccnc1C[NH+]1CCN(CCOc2ccccc2)CC1 (protonated)
CCn1ccnc1C[NH+]1CCN(CCOc2ccccc2)CC1 (3D coordinates assigned)
CCn1ccnc1C[NH+]1CCN(CCOc2ccccc2)CC1 (nonaromatic ring conformer: 89.8370209591796 kcal/mol)

>  <smiles>  (45) 
CCn1ccnc1CN1CCN(CCOc2ccccc2)CC1

>  <score_type>  (45) 
oracle

>  <origin>  (45) 
adg

>  <m_score__min__energy>  (45) 
-7.4199999999999999

>  <m_primary>  (45) 
energy

$$$$
