0:0
     RDKit          3D

 63 66  0  0  0  0  0  0  0  0999 V2000
   -0.8320   25.5430  -24.5380 C   0  0  0  0  0  0  0  0  0  0  0  0
   -1.8980   25.8740  -25.5790 C   0  0  0  0  0  0  0  0  0  0  0  0
   -2.3020   24.6980  -26.2550 O   0  0  0  0  0  0  0  0  0  0  0  0
   -3.5030   24.9220  -26.9700 C   0  0  0  0  0  0  0  0  0  0  0  0
   -4.0020   23.6060  -27.5660 C   0  0  0  0  0  0  0  0  0  0  0  0
   -3.6770   23.5250  -28.9970 N   0  0  0  0  0  0  0  0  0  0  0  0
   -2.5780   22.6500  -29.4350 C   0  0  0  0  0  0  0  0  0  0  0  0
   -1.3190   22.9000  -28.5970 C   0  0  0  0  0  0  0  0  0  0  0  0
   -0.7250   24.1370  -28.9450 O   0  0  0  0  0  0  0  0  0  0  0  0
    0.2050   24.5330  -27.9580 C   0  0  0  0  0  0  0  0  0  0  0  0
   -4.4240   24.3160  -29.9440 C   0  0  0  0  0  0  0  0  0  0  0  0
   -3.8640   25.2880  -30.5140 O   0  0  0  0  0  0  0  0  0  0  0  0
   -5.8550   23.9950  -30.2970 C   0  0  0  0  0  0  0  0  0  0  0  0
   -5.9470   22.7620  -31.0830 N   0  0  0  0  0  0  0  0  0  0  0  0
   -4.9040   22.0930  -31.6350 C   0  0  0  0  0  0  0  0  0  0  0  0
   -5.3500   20.9440  -32.2800 C   0  0  0  0  0  0  0  0  0  0  0  0
   -4.5010   19.9540  -32.9650 C   0  0  0  0  0  0  0  0  0  0  0  0
   -4.9610   18.8000  -33.5150 N   0  0  0  0  0  0  0  0  0  0  0  0
   -3.9580   18.0730  -34.0730 C   0  0  0  0  0  0  0  0  0  0  0  0
   -4.1290   16.8460  -34.7160 C   0  0  0  0  0  0  0  0  0  0  0  0
   -3.0020   16.1970  -35.2510 C   0  0  0  0  0  0  0  0  0  0  0  0
   -3.2130   14.6550  -36.0610 Cl  0  0  0  0  0  0  0  0  0  0  0  0
   -1.7160   16.7770  -35.1410 C   0  0  0  0  0  0  0  0  0  0  0  0
   -0.6200   16.0930  -35.6900 O   0  0  0  0  0  0  0  0  0  0  0  0
    0.2640   15.2660  -34.9430 C   0  0  0  0  0  0  0  0  0  0  0  0
   -1.5650   18.0210  -34.4840 C   0  0  0  0  0  0  0  0  0  0  0  0
   -2.6990   18.6360  -33.9630 C   0  0  0  0  0  0  0  0  0  0  0  0
   -2.8200   20.0910  -33.1350 S   0  0  0  0  0  0  0  0  0  0  0  0
   -6.7290   20.9450  -32.1400 C   0  0  0  0  0  0  0  0  0  0  0  0
   -7.7110   20.0960  -32.6570 C   0  0  0  0  0  0  0  0  0  0  0  0
   -9.0560   20.3940  -32.3770 C   0  0  0  0  0  0  0  0  0  0  0  0
   -9.3930   21.5290  -31.6100 C   0  0  0  0  0  0  0  0  0  0  0  0
   -8.3900   22.3860  -31.1260 C   0  0  0  0  0  0  0  0  0  0  0  0
   -7.0570   22.0650  -31.4090 C   0  0  0  0  0  0  0  0  0  0  0  0
   -1.2514   25.6732  -23.5295 H   0  0  0  0  0  0  0  0  0  0  0  0
   -0.5045   24.5009  -24.6671 H   0  0  0  0  0  0  0  0  0  0  0  0
    0.0282   26.2164  -24.6671 H   0  0  0  0  0  0  0  0  0  0  0  0
   -2.7685   26.3224  -25.0779 H   0  0  0  0  0  0  0  0  0  0  0  0
   -1.4793   26.5822  -26.3092 H   0  0  0  0  0  0  0  0  0  0  0  0
   -4.2649   25.3261  -26.2872 H   0  0  0  0  0  0  0  0  0  0  0  0
   -3.3148   25.6407  -27.7813 H   0  0  0  0  0  0  0  0  0  0  0  0
   -3.5234   22.7672  -27.0394 H   0  0  0  0  0  0  0  0  0  0  0  0
   -5.0947   23.5578  -27.4492 H   0  0  0  0  0  0  0  0  0  0  0  0
   -2.8851   21.5999  -29.3207 H   0  0  0  0  0  0  0  0  0  0  0  0
   -2.3505   22.8688  -30.4887 H   0  0  0  0  0  0  0  0  0  0  0  0
   -1.5917   22.9172  -27.5315 H   0  0  0  0  0  0  0  0  0  0  0  0
   -0.5974   22.0932  -28.7927 H   0  0  0  0  0  0  0  0  0  0  0  0
   -0.2203   24.3519  -26.9598 H   0  0  0  0  0  0  0  0  0  0  0  0
    1.1316   23.9514  -28.0728 H   0  0  0  0  0  0  0  0  0  0  0  0
    0.4278   25.6041  -28.0728 H   0  0  0  0  0  0  0  0  0  0  0  0
   -6.4337   23.8725  -29.3696 H   0  0  0  0  0  0  0  0  0  0  0  0
   -6.2569   24.8219  -30.9010 H   0  0  0  0  0  0  0  0  0  0  0  0
   -3.8533   22.4139  -31.5803 H   0  0  0  0  0  0  0  0  0  0  0  0
   -5.9560   18.4800  -33.4840 H   0  0  0  0  0  0  0  0  0  0  0  0
   -5.1283   16.3944  -34.8028 H   0  0  0  0  0  0  0  0  0  0  0  0
    0.0942   15.4249  -33.8679 H   0  0  0  0  0  0  0  0  0  0  0  0
    0.0771   14.2109  -35.1917 H   0  0  0  0  0  0  0  0  0  0  0  0
    1.3043   15.5227  -35.1917 H   0  0  0  0  0  0  0  0  0  0  0  0
   -0.5749   18.4905  -34.3875 H   0  0  0  0  0  0  0  0  0  0  0  0
   -7.4397   19.2204  -33.2651 H   0  0  0  0  0  0  0  0  0  0  0  0
   -9.8516   19.7373  -32.7588 H   0  0  0  0  0  0  0  0  0  0  0  0
  -10.4488   21.7448  -31.3892 H   0  0  0  0  0  0  0  0  0  0  0  0
   -8.6447   23.2827  -30.5420 H   0  0  0  0  0  0  0  0  0  0  0  0
  1  2  1  0
  2  3  1  0
  3  4  1  0
  4  5  1  0
  5  6  1  0
  6  7  1  0
  7  8  1  0
  8  9  1  0
  9 10  1  0
  6 11  1  0
 11 12  2  0
 11 13  1  0
 13 14  1  0
 14 15  1  0
 15 16  2  0
 16 17  1  0
 17 18  2  0
 18 19  1  0
 19 20  2  0
 20 21  1  0
 21 22  1  0
 21 23  2  0
 23 24  1  0
 24 25  1  0
 23 26  1  0
 26 27  2  0
 27 28  1  0
 16 29  1  0
 29 30  2  0
 30 31  1  0
 31 32  2  0
 32 33  1  0
 33 34  2  0
 34 14  1  0
 28 17  1  0
 34 29  1  0
 27 19  1  0
  1 35  1  0
  1 36  1  0
  1 37  1  0
  2 38  1  0
  2 39  1  0
  4 40  1  0
  4 41  1  0
  5 42  1  0
  5 43  1  0
  7 44  1  0
  7 45  1  0
  8 46  1  0
  8 47  1  0
 10 48  1  0
 10 49  1  0
 10 50  1  0
 13 51  1  0
 13 52  1  0
 15 53  1  0
 18 54  1  0
 20 55  1  0
 25 56  1  0
 25 57  1  0
 25 58  1  0
 26 59  1  0
 30 60  1  0
 31 61  1  0
 32 62  1  0
 33 63  1  0
M  CHG  1  18   1
M  END
>  <UniqueID>  (1) 
1

>  <SMILES>  (1) 
CCOCCN(CCOC)C(=O)Cn1cc(-c2[nH+]c3cc(Cl)c(OC)cc3s2)c2ccccc21

>  <Energy>  (1) 
132.74253923465116

>  <Genealogy>  (1) 
CCOCCN(CCOC)C(=O)Cn1cc(-c2[nH+]c3cc(Cl)c(OC)cc3s2)c2ccccc21 (protonated)
CCOCCN(CCOC)C(=O)Cn1cc(-c2[nH+]c3cc(Cl)c(OC)cc3s2)c2ccccc21 (3D coordinates assigned)
CCOCCN(CCOC)C(=O)Cn1cc(-c2[nH+]c3cc(Cl)c(OC)cc3s2)c2ccccc21 (optimized conformer: 132.74253923465116 kcal/mol)

>  <smiles>  (1) 
CCOCCN(CCOC)C(=O)Cn1cc(-c2nc3cc(Cl)c(OC)cc3s2)c2ccccc21

>  <score_type>  (1) 
oracle

>  <origin>  (1) 
adg

>  <m_score__min__energy>  (1) 
-8.6999999999999993

>  <m_primary>  (1) 
energy

$$$$
1:0
     RDKit          3D

 44 46  0  0  0  0  0  0  0  0999 V2000
   -6.8690   16.0690  -33.8390 C   0  0  0  0  0  0  0  0  0  0  0  0
   -5.8380   17.1800  -33.5640 C   0  0  1  0  0  0  0  0  0  0  0  0
   -4.6870   17.0510  -34.5850 C   0  0  0  0  0  0  0  0  0  0  0  0
   -3.5760   18.0720  -34.3060 C   0  0  0  0  0  0  0  0  0  0  0  0
   -4.1170   19.4070  -33.7720 C   0  0  0  0  0  0  0  0  0  0  0  0
   -5.5950   19.6070  -34.1370 C   0  0  0  0  0  0  0  0  0  0  0  0
   -6.4730   18.5360  -33.5960 N   0  0  2  0  0  0  0  0  0  0  0  0
   -7.0640   18.9850  -32.0030 S   0  0  0  0  0  0  0  0  0  0  0  0
   -6.2740   18.2790  -30.9360 O   0  0  0  0  0  0  0  0  0  0  0  0
   -8.5080   18.6020  -31.8490 O   0  0  0  0  0  0  0  0  0  0  0  0
   -6.9380   20.7310  -31.7840 C   0  0  0  0  0  0  0  0  0  0  0  0
   -8.0940   21.5190  -31.8320 C   0  0  0  0  0  0  0  0  0  0  0  0
   -8.0050   22.9060  -31.6950 C   0  0  0  0  0  0  0  0  0  0  0  0
   -6.7600   23.5120  -31.5030 C   0  0  0  0  0  0  0  0  0  0  0  0
   -5.5970   22.7360  -31.4320 C   0  0  0  0  0  0  0  0  0  0  0  0
   -4.3370   23.4010  -31.2600 N   0  0  0  0  0  0  0  0  0  0  0  0
   -4.1000   24.5950  -30.5030 C   0  0  0  0  0  0  0  0  0  0  0  0
   -4.6210   25.6910  -30.8450 O   0  0  0  0  0  0  0  0  0  0  0  0
   -3.1960   24.5450  -29.3480 C   0  0  0  0  0  0  0  0  0  0  0  0
   -3.3300   23.7230  -28.2460 C   0  0  0  0  0  0  0  0  0  0  0  0
   -2.2600   24.0210  -27.4290 C   0  0  0  0  0  0  0  0  0  0  0  0
   -1.5420   25.0030  -28.0820 C   0  0  0  0  0  0  0  0  0  0  0  0
   -2.1250   25.2930  -29.2230 O   0  0  0  0  0  0  0  0  0  0  0  0
   -5.6880   21.3410  -31.5960 C   0  0  0  0  0  0  0  0  0  0  0  0
   -7.2403   15.6688  -32.8840 H   0  0  0  0  0  0  0  0  0  0  0  0
   -7.7098   16.4833  -34.4147 H   0  0  0  0  0  0  0  0  0  0  0  0
   -6.3931   15.2615  -34.4147 H   0  0  0  0  0  0  0  0  0  0  0  0
   -5.4284   17.0615  -32.5500 H   0  0  0  0  0  0  0  0  0  0  0  0
   -4.2653   16.0369  -34.5231 H   0  0  0  0  0  0  0  0  0  0  0  0
   -5.0913   17.2442  -35.5896 H   0  0  0  0  0  0  0  0  0  0  0  0
   -2.8876   17.6478  -33.5602 H   0  0  0  0  0  0  0  0  0  0  0  0
   -3.0671   18.2776  -35.2593 H   0  0  0  0  0  0  0  0  0  0  0  0
   -4.0152   19.4205  -32.6768 H   0  0  0  0  0  0  0  0  0  0  0  0
   -3.5369   20.2208  -34.2316 H   0  0  0  0  0  0  0  0  0  0  0  0
   -5.9293   20.5734  -33.7317 H   0  0  0  0  0  0  0  0  0  0  0  0
   -5.6721   19.5754  -35.2338 H   0  0  0  0  0  0  0  0  0  0  0  0
   -7.3160   18.5070  -34.2160 H   0  0  0  0  0  0  0  0  0  0  0  0
   -9.0755   21.0443  -31.9781 H   0  0  0  0  0  0  0  0  0  0  0  0
   -8.9153   23.5221  -31.7382 H   0  0  0  0  0  0  0  0  0  0  0  0
   -6.6937   24.6058  -31.4071 H   0  0  0  0  0  0  0  0  0  0  0  0
   -4.1241   22.9851  -28.0593 H   0  0  0  0  0  0  0  0  0  0  0  0
   -2.0258   23.5681  -26.4543 H   0  0  0  0  0  0  0  0  0  0  0  0
   -0.6213   25.4716  -27.7041 H   0  0  0  0  0  0  0  0  0  0  0  0
   -4.7759   20.7265  -31.5768 H   0  0  0  0  0  0  0  0  0  0  0  0
  1  2  1  0
  2  3  1  0
  3  4  1  0
  4  5  1  0
  5  6  1  0
  6  7  1  0
  7  8  1  0
  8  9  2  0
  8 10  2  0
  8 11  1  0
 11 12  2  0
 12 13  1  0
 13 14  2  0
 14 15  1  0
 15 16  1  0
 16 17  1  0
 17 18  2  0
 17 19  1  0
 19 20  2  0
 20 21  1  0
 21 22  2  0
 22 23  1  0
 15 24  2  0
  7  2  1  0
 24 11  1  0
 23 19  1  0
  1 25  1  0
  1 26  1  0
  1 27  1  0
  2 28  1  1
  3 29  1  0
  3 30  1  0
  4 31  1  0
  4 32  1  0
  5 33  1  0
  5 34  1  0
  6 35  1  0
  6 36  1  0
  7 37  1  6
 12 38  1  0
 13 39  1  0
 14 40  1  0
 20 41  1  0
 21 42  1  0
 22 43  1  0
 24 44  1  0
M  CHG  2   7   1  16  -1
M  END
>  <UniqueID>  (2) 
2

>  <SMILES>  (2) 
C[C@H]1CCCC[N@@H+]1S(=O)(=O)c1cccc([N-]C(=O)c2ccco2)c1

>  <Energy>  (2) 
79.13172231874347

>  <Genealogy>  (2) 
CC1CCCC[NH+]1S(=O)(=O)c1cccc([N-]C(=O)c2ccco2)c1 (protonated)
C[C@H]1CCCC[N@@H+]1S(=O)(=O)c1cccc([N-]C(=O)c2ccco2)c1 (chirality)
C[C@H]1CCCC[N@@H+]1S(=O)(=O)c1cccc([N-]C(=O)c2ccco2)c1 (3D coordinates assigned)
C[C@H]1CCCC[N@@H+]1S(=O)(=O)c1cccc([N-]C(=O)c2ccco2)c1 (nonaromatic ring conformer: 79.13172231874347 kcal/mol)

>  <smiles>  (2) 
CC1CCCCN1S(=O)(=O)c1cccc(NC(=O)c2ccco2)c1

>  <score_type>  (2) 
oracle

>  <origin>  (2) 
adg

>  <m_score__min__energy>  (2) 
-10.15

>  <m_primary>  (2) 
energy

$$$$
2:0
     RDKit          3D

 27 27  0  0  0  0  0  0  0  0999 V2000
   -2.3320   25.6390  -25.9180 C   0  0  0  0  0  0  0  0  0  0  0  0
   -3.0710   24.8500  -26.9960 C   0  0  0  0  0  0  0  0  0  0  0  0
   -2.2680   24.7280  -28.2210 N   0  0  0  0  0  0  0  0  0  0  0  0
   -1.0540   25.5280  -28.3990 C   0  0  0  0  0  0  0  0  0  0  0  0
   -2.5800   23.7030  -29.1820 C   0  0  0  0  0  0  0  0  0  0  0  0
   -2.0850   22.4020  -29.0000 C   0  0  0  0  0  0  0  0  0  0  0  0
   -2.3880   21.3940  -29.9170 C   0  0  0  0  0  0  0  0  0  0  0  0
   -3.1910   21.6740  -31.0210 C   0  0  0  0  0  0  0  0  0  0  0  0
   -3.6920   22.9640  -31.2160 C   0  0  0  0  0  0  0  0  0  0  0  0
   -3.3910   23.9910  -30.2980 C   0  0  0  0  0  0  0  0  0  0  0  0
   -3.8660   25.3000  -30.4710 O   0  0  0  0  0  0  0  0  0  0  0  0
   -5.2410   25.6710  -30.4560 C   0  0  0  0  0  0  0  0  0  0  0  0
   -2.6551   25.2940  -24.9247 H   0  0  0  0  0  0  0  0  0  0  0  0
   -1.2487   25.4818  -26.0263 H   0  0  0  0  0  0  0  0  0  0  0  0
   -2.5597   26.7097  -26.0263 H   0  0  0  0  0  0  0  0  0  0  0  0
   -3.2933   23.8432  -26.6127 H   0  0  0  0  0  0  0  0  0  0  0  0
   -3.9976   25.3886  -27.2433 H   0  0  0  0  0  0  0  0  0  0  0  0
   -0.6449   25.7976  -27.4142 H   0  0  0  0  0  0  0  0  0  0  0  0
   -0.3085   24.9436  -28.9583 H   0  0  0  0  0  0  0  0  0  0  0  0
   -1.2969   26.4435  -28.9583 H   0  0  0  0  0  0  0  0  0  0  0  0
   -1.4536   22.1752  -28.1283 H   0  0  0  0  0  0  0  0  0  0  0  0
   -1.9928   20.3783  -29.7681 H   0  0  0  0  0  0  0  0  0  0  0  0
   -3.4311   20.8776  -31.7408 H   0  0  0  0  0  0  0  0  0  0  0  0
   -4.3243   23.1792  -32.0900 H   0  0  0  0  0  0  0  0  0  0  0  0
   -5.5844   25.7637  -29.4151 H   0  0  0  0  0  0  0  0  0  0  0  0
   -5.3663   26.6351  -30.9707 H   0  0  0  0  0  0  0  0  0  0  0  0
   -5.8342   24.9008  -30.9707 H   0  0  0  0  0  0  0  0  0  0  0  0
  1  2  1  0
  2  3  1  0
  3  4  1  0
  3  5  1  0
  5  6  2  0
  6  7  1  0
  7  8  2  0
  8  9  1  0
  9 10  2  0
 10 11  1  0
 11 12  1  0
 10  5  1  0
  1 13  1  0
  1 14  1  0
  1 15  1  0
  2 16  1  0
  2 17  1  0
  4 18  1  0
  4 19  1  0
  4 20  1  0
  6 21  1  0
  7 22  1  0
  8 23  1  0
  9 24  1  0
 12 25  1  0
 12 26  1  0
 12 27  1  0
M  END
>  <UniqueID>  (3) 
3

>  <SMILES>  (3) 
CCN(C)c1ccccc1OC

>  <Energy>  (3) 
26.074814523118704

>  <Genealogy>  (3) 
CCN(C)c1ccccc1OC (3D coordinates assigned)
CCN(C)c1ccccc1OC (optimized conformer: 26.074814523118704 kcal/mol)

>  <smiles>  (3) 
CCN(C)c1ccccc1OC

>  <score_type>  (3) 
oracle

>  <origin>  (3) 
adg

>  <m_score__min__energy>  (3) 
-4.5

>  <m_primary>  (3) 
energy

$$$$
3:0
     RDKit          3D

 46 48  0  0  0  0  0  0  0  0999 V2000
   -3.8620   16.4110  -35.6410 C   0  0  0  0  0  0  0  0  0  0  0  0
   -4.3080   17.3810  -34.5960 C   0  0  0  0  0  0  0  0  0  0  0  0
   -5.5540   17.7240  -34.3830 O   0  0  0  0  0  0  0  0  0  0  0  0
   -5.5510   18.5950  -33.3970 C   0  0  0  0  0  0  0  0  0  0  0  0
   -6.7720   19.2190  -32.8480 C   0  0  0  0  0  0  0  0  0  0  0  0
   -7.8630   18.4210  -32.4600 C   0  0  0  0  0  0  0  0  0  0  0  0
   -9.0120   19.0090  -31.9220 C   0  0  0  0  0  0  0  0  0  0  0  0
   -9.0850   20.3980  -31.7790 C   0  0  0  0  0  0  0  0  0  0  0  0
   -8.0070   21.1990  -32.1640 C   0  0  0  0  0  0  0  0  0  0  0  0
   -6.8520   20.6140  -32.6920 C   0  0  0  0  0  0  0  0  0  0  0  0
   -4.3070   18.8520  -32.9320 N   0  0  0  0  0  0  0  0  0  0  0  0
   -3.5190   18.0820  -33.7070 C   0  0  0  0  0  0  0  0  0  0  0  0
   -2.0350   17.9570  -33.5180 C   0  0  0  0  0  0  0  0  0  0  0  0
   -1.2990   19.1090  -34.1970 C   0  0  0  0  0  0  0  0  0  0  0  0
   -1.0060   20.1260  -33.2400 O   0  0  0  0  0  0  0  0  0  0  0  0
   -1.9630   20.7870  -32.4590 C   0  0  0  0  0  0  0  0  0  0  0  0
   -1.9910   20.6930  -31.0550 C   0  0  0  0  0  0  0  0  0  0  0  0
   -2.9550   21.3920  -30.3190 C   0  0  0  0  0  0  0  0  0  0  0  0
   -3.9150   22.1780  -30.9770 C   0  0  0  0  0  0  0  0  0  0  0  0
   -4.9680   22.9110  -30.1840 C   0  0  0  0  0  0  0  0  0  0  0  0
   -4.3220   23.8400  -29.1490 C   0  0  0  0  0  0  0  0  0  0  0  0
   -3.5270   24.9240  -29.8110 C   0  0  0  0  0  0  0  0  0  0  0  0
   -3.9520   25.4750  -30.8610 O   0  0  0  0  0  0  0  0  0  0  0  0
   -2.2910   25.2950  -29.2940 O   0  0  0  0  0  0  0  0  0  0  0  0
   -3.9040   22.2480  -32.3790 C   0  0  0  0  0  0  0  0  0  0  0  0
   -2.9260   21.5680  -33.1100 C   0  0  0  0  0  0  0  0  0  0  0  0
   -3.4495   15.5138  -35.1563 H   0  0  0  0  0  0  0  0  0  0  0  0
   -4.7201   16.1273  -36.2681 H   0  0  0  0  0  0  0  0  0  0  0  0
   -3.0880   16.8777  -36.2681 H   0  0  0  0  0  0  0  0  0  0  0  0
   -7.8123   17.3288  -32.5803 H   0  0  0  0  0  0  0  0  0  0  0  0
   -9.8584   18.3788  -31.6113 H   0  0  0  0  0  0  0  0  0  0  0  0
   -9.9922   20.8606  -31.3629 H   0  0  0  0  0  0  0  0  0  0  0  0
   -8.0670   22.2916  -32.0516 H   0  0  0  0  0  0  0  0  0  0  0  0
   -6.0025   21.2477  -32.9865 H   0  0  0  0  0  0  0  0  0  0  0  0
   -1.8070   17.9687  -32.4420 H   0  0  0  0  0  0  0  0  0  0  0  0
   -1.7019   17.0119  -33.9718 H   0  0  0  0  0  0  0  0  0  0  0  0
   -0.3603   18.7363  -34.6329 H   0  0  0  0  0  0  0  0  0  0  0  0
   -1.9348   19.5290  -34.9903 H   0  0  0  0  0  0  0  0  0  0  0  0
   -1.2518   20.0672  -30.5335 H   0  0  0  0  0  0  0  0  0  0  0  0
   -2.9606   21.3254  -29.2210 H   0  0  0  0  0  0  0  0  0  0  0  0
   -5.5849   23.5095  -30.8705 H   0  0  0  0  0  0  0  0  0  0  0  0
   -5.5892   22.1726  -29.6559 H   0  0  0  0  0  0  0  0  0  0  0  0
   -5.1123   24.2985  -28.5364 H   0  0  0  0  0  0  0  0  0  0  0  0
   -3.6417   23.2432  -28.5237 H   0  0  0  0  0  0  0  0  0  0  0  0
   -4.6679   22.8402  -32.9041 H   0  0  0  0  0  0  0  0  0  0  0  0
   -2.9125   21.6470  -34.2071 H   0  0  0  0  0  0  0  0  0  0  0  0
  1  2  1  0
  2  3  1  0
  3  4  1  0
  4  5  1  0
  5  6  2  0
  6  7  1  0
  7  8  2  0
  8  9  1  0
  9 10  2  0
  4 11  2  0
 11 12  1  0
 12 13  1  0
 13 14  1  0
 14 15  1  0
 15 16  1  0
 16 17  2  0
 17 18  1  0
 18 19  2  0
 19 20  1  0
 20 21  1  0
 21 22  1  0
 22 23  2  0
 22 24  1  0
 19 25  1  0
 25 26  2  0
 12  2  2  0
 26 16  1  0
 10  5  1  0
  1 27  1  0
  1 28  1  0
  1 29  1  0
  6 30  1  0
  7 31  1  0
  8 32  1  0
  9 33  1  0
 10 34  1  0
 13 35  1  0
 13 36  1  0
 14 37  1  0
 14 38  1  0
 17 39  1  0
 18 40  1  0
 20 41  1  0
 20 42  1  0
 21 43  1  0
 21 44  1  0
 25 45  1  0
 26 46  1  0
M  CHG  1  24  -1
M  END
>  <UniqueID>  (4) 
4

>  <SMILES>  (4) 
Cc1oc(-c2ccccc2)nc1CCOc1ccc(CCC(=O)[O-])cc1

>  <Energy>  (4) 
69.78721875766752

>  <Genealogy>  (4) 
Cc1oc(-c2ccccc2)nc1CCOc1ccc(CCC(=O)[O-])cc1 (protonated)
Cc1oc(-c2ccccc2)nc1CCOc1ccc(CCC(=O)[O-])cc1 (3D coordinates assigned)
Cc1oc(-c2ccccc2)nc1CCOc1ccc(CCC(=O)[O-])cc1 (optimized conformer: 69.78721875766752 kcal/mol)

>  <smiles>  (4) 
Cc1oc(-c2ccccc2)nc1CCOc1ccc(CCC(=O)O)cc1

>  <score_type>  (4) 
oracle

>  <origin>  (4) 
adg

>  <m_score__min__energy>  (4) 
-11.06

>  <m_primary>  (4) 
energy

$$$$
4:0
     RDKit          3D

 56 60  0  0  0  0  0  0  0  0999 V2000
   -9.8930   21.1740  -31.9740 C   0  0  0  0  0  0  0  0  0  0  0  0
   -8.8440   21.8450  -31.2850 O   0  0  0  0  0  0  0  0  0  0  0  0
   -7.5190   21.9200  -31.7400 C   0  0  0  0  0  0  0  0  0  0  0  0
   -6.8250   23.1530  -31.8570 C   0  0  0  0  0  0  0  0  0  0  0  0
   -5.4970   23.1860  -32.3170 C   0  0  0  0  0  0  0  0  0  0  0  0
   -4.8780   21.9850  -32.6570 C   0  0  0  0  0  0  0  0  0  0  0  0
   -5.5520   20.7900  -32.5440 C   0  0  0  0  0  0  0  0  0  0  0  0
   -6.8680   20.7220  -32.0890 C   0  0  0  0  0  0  0  0  0  0  0  0
   -4.6520   19.7470  -32.9620 C   0  0  0  0  0  0  0  0  0  0  0  0
   -4.8980   18.5120  -32.9450 O   0  0  0  0  0  0  0  0  0  0  0  0
   -3.4090   20.3210  -33.3630 N   0  0  0  0  0  0  0  0  0  0  0  0
   -2.2090   19.5870  -33.7700 C   0  0  0  0  0  0  0  0  0  0  0  0
   -0.9300   20.4180  -33.5480 C   0  0  2  0  0  0  0  0  0  0  0  0
   -0.8930   20.9620  -32.1820 C   0  0  0  0  0  0  0  0  0  0  0  0
   -0.8620   21.4080  -31.0630 C   0  0  0  0  0  0  0  0  0  0  0  0
   -0.8250   21.9400  -29.7260 C   0  0  0  0  0  0  0  0  0  0  0  0
   -0.6340   21.0820  -28.6370 C   0  0  0  0  0  0  0  0  0  0  0  0
   -0.5960   21.5950  -27.3380 C   0  0  0  0  0  0  0  0  0  0  0  0
   -0.7530   22.9690  -27.1220 C   0  0  0  0  0  0  0  0  0  0  0  0
   -0.7080   23.4650  -25.8640 N   0  0  0  0  0  0  0  0  0  0  0  0
   -0.8540   24.7920  -25.6110 C   0  0  0  0  0  0  0  0  0  0  0  0
   -0.7810   25.2440  -24.1780 C   0  0  0  0  0  0  0  0  0  0  0  0
   -1.0780   25.6730  -26.6460 N   0  0  0  0  0  0  0  0  0  0  0  0
   -1.2320   27.1150  -26.3700 C   0  0  0  0  0  0  0  0  0  0  0  0
   -1.1030   25.2120  -27.9410 C   0  0  0  0  0  0  0  0  0  0  0  0
   -1.2620   26.0160  -28.9030 O   0  0  0  0  0  0  0  0  0  0  0  0
   -0.9480   23.8390  -28.2080 C   0  0  0  0  0  0  0  0  0  0  0  0
   -0.9820   23.3170  -29.5150 C   0  0  0  0  0  0  0  0  0  0  0  0
   -0.8440   21.5110  -34.5170 N   0  0  0  0  0  0  0  0  0  0  0  0
    0.3390   21.3290  -35.2820 C   0  0  0  0  0  0  0  0  0  0  0  0
    0.6890   22.1020  -36.2110 O   0  0  0  0  0  0  0  0  0  0  0  0
    1.0830   20.1910  -34.8930 N   0  0  0  0  0  0  0  0  0  0  0  0
    0.3270   19.6360  -33.8260 C   0  0  0  0  0  0  0  0  0  0  0  0
    0.6940   18.6150  -33.1870 O   0  0  0  0  0  0  0  0  0  0  0  0
   -3.4780   21.7730  -33.1580 C   0  0  0  0  0  0  0  0  0  0  0  0
  -10.5862   20.7306  -31.2441 H   0  0  0  0  0  0  0  0  0  0  0  0
  -10.4358   21.8930  -32.6052 H   0  0  0  0  0  0  0  0  0  0  0  0
   -9.4678   20.3798  -32.6052 H   0  0  0  0  0  0  0  0  0  0  0  0
   -7.3311   24.0911  -31.5852 H   0  0  0  0  0  0  0  0  0  0  0  0
   -4.9576   24.1405  -32.4067 H   0  0  0  0  0  0  0  0  0  0  0  0
   -7.3853   19.7549  -32.0048 H   0  0  0  0  0  0  0  0  0  0  0  0
   -2.1398   18.6615  -33.1796 H   0  0  0  0  0  0  0  0  0  0  0  0
   -2.2911   19.3641  -34.8440 H   0  0  0  0  0  0  0  0  0  0  0  0
   -0.5135   20.0015  -28.8041 H   0  0  0  0  0  0  0  0  0  0  0  0
   -0.4426   20.9185  -26.4843 H   0  0  0  0  0  0  0  0  0  0  0  0
   -0.9207   24.3789  -23.5131 H   0  0  0  0  0  0  0  0  0  0  0  0
    0.2022   25.6986  -23.9865 H   0  0  0  0  0  0  0  0  0  0  0  0
   -1.5711   25.9850  -23.9865 H   0  0  0  0  0  0  0  0  0  0  0  0
   -1.2497   27.2804  -25.2826 H   0  0  0  0  0  0  0  0  0  0  0  0
   -0.3875   27.6649  -26.8108 H   0  0  0  0  0  0  0  0  0  0  0  0
   -2.1736   27.4742  -26.8108 H   0  0  0  0  0  0  0  0  0  0  0  0
   -1.1319   23.9904  -30.3717 H   0  0  0  0  0  0  0  0  0  0  0  0
   -1.5320   22.2900  -34.6320 H   0  0  0  0  0  0  0  0  0  0  0  0
    1.9880   19.8500  -35.2850 H   0  0  0  0  0  0  0  0  0  0  0  0
   -2.7387   22.1013  -32.4125 H   0  0  0  0  0  0  0  0  0  0  0  0
   -3.2553   22.3475  -34.0692 H   0  0  0  0  0  0  0  0  0  0  0  0
  1  2  1  0
  2  3  1  0
  3  4  2  0
  4  5  1  0
  5  6  2  0
  6  7  1  0
  7  8  2  0
  7  9  1  0
  9 10  2  0
  9 11  1  0
 11 12  1  0
 12 13  1  0
 13 14  1  1
 14 15  3  0
 15 16  1  0
 16 17  2  0
 17 18  1  0
 18 19  2  0
 19 20  1  0
 20 21  2  0
 21 22  1  0
 21 23  1  0
 23 24  1  0
 23 25  1  0
 25 26  2  0
 25 27  1  0
 27 28  2  0
 13 29  1  0
 29 30  1  0
 30 31  2  0
 30 32  1  0
 32 33  1  0
 33 34  2  0
 11 35  1  0
  8  3  1  0
 33 13  1  0
 35  6  1  0
 28 16  1  0
 27 19  1  0
  1 36  1  0
  1 37  1  0
  1 38  1  0
  4 39  1  0
  5 40  1  0
  8 41  1  0
 12 42  1  0
 12 43  1  0
 17 44  1  0
 18 45  1  0
 22 46  1  0
 22 47  1  0
 22 48  1  0
 24 49  1  0
 24 50  1  0
 24 51  1  0
 28 52  1  0
 29 53  1  0
 32 54  1  0
 35 55  1  0
 35 56  1  0
M  END
>  <UniqueID>  (5) 
5

>  <SMILES>  (5) 
COc1ccc2c(c1)C(=O)N(C[C@]1(C#Cc3ccc4nc(C)n(C)c(=O)c4c3)NC(=O)NC1=O)C2

>  <Energy>  (5) 
101.47583145732811

>  <Genealogy>  (5) 
COc1ccc2c(c1)C(=O)N(C[C@]1(C#Cc3ccc4nc(C)n(C)c(=O)c4c3)NC(=O)NC1=O)C2 (chirality)
COc1ccc2c(c1)C(=O)N(C[C@]1(C#Cc3ccc4nc(C)n(C)c(=O)c4c3)NC(=O)NC1=O)C2 (3D coordinates assigned)
COc1ccc2c(c1)C(=O)N(C[C@]1(C#Cc3ccc4nc(C)n(C)c(=O)c4c3)NC(=O)NC1=O)C2 (nonaromatic ring conformer: 101.47583145732811 kcal/mol)

>  <smiles>  (5) 
COc1ccc2c(c1)C(=O)N(CC1(C#Cc3ccc4nc(C)n(C)c(=O)c4c3)NC(=O)NC1=O)C2

>  <score_type>  (5) 
oracle

>  <origin>  (5) 
adg

>  <m_score__min__energy>  (5) 
-8.9700000000000006

>  <m_primary>  (5) 
energy

$$$$
5:0
     RDKit          3D

 67 71  0  0  0  0  0  0  0  0999 V2000
    0.0970   20.7330  -35.2090 C   0  0  0  0  0  0  0  0  0  0  0  0
    0.7520   19.6500  -34.3570 C   0  0  0  0  0  0  0  0  0  0  0  0
   -0.2990   18.7850  -33.6540 C   0  0  0  0  0  0  0  0  0  0  0  0
   -1.3710   18.3150  -34.6410 C   0  0  0  0  0  0  0  0  0  0  0  0
   -2.7390   18.4500  -34.0290 C   0  0  0  0  0  0  0  0  0  0  0  0
   -3.6070   17.4180  -33.7400 C   0  0  0  0  0  0  0  0  0  0  0  0
   -3.5400   16.0450  -33.9590 C   0  0  0  0  0  0  0  0  0  0  0  0
   -4.6250   15.2640  -33.5270 C   0  0  0  0  0  0  0  0  0  0  0  0
   -5.7340   15.8620  -32.8890 C   0  0  0  0  0  0  0  0  0  0  0  0
   -5.7710   17.2600  -32.6640 C   0  0  0  0  0  0  0  0  0  0  0  0
   -6.8740   17.9120  -32.0030 N   0  0  0  0  0  0  0  0  0  0  0  0
   -7.9710   18.5820  -32.7010 C   0  0  0  0  0  0  0  0  0  0  0  0
   -8.0080   20.0490  -32.3610 C   0  0  0  0  0  0  0  0  0  0  0  0
   -9.1050   20.5890  -31.6680 C   0  0  0  0  0  0  0  0  0  0  0  0
   -9.1230   21.9440  -31.3200 C   0  0  0  0  0  0  0  0  0  0  0  0
   -8.0450   22.7690  -31.6560 C   0  0  0  0  0  0  0  0  0  0  0  0
   -6.9450   22.2370  -32.3350 C   0  0  0  0  0  0  0  0  0  0  0  0
   -6.9220   20.8830  -32.6820 C   0  0  0  0  0  0  0  0  0  0  0  0
   -4.6760   18.0040  -33.1140 C   0  0  0  0  0  0  0  0  0  0  0  0
   -4.4800   19.3310  -33.0040 N   0  0  0  0  0  0  0  0  0  0  0  0
   -3.2980   19.5950  -33.5530 N   0  0  0  0  0  0  0  0  0  0  0  0
   -2.7590   20.9520  -33.6400 C   0  0  0  0  0  0  0  0  0  0  0  0
   -2.4060   21.4600  -32.2660 C   0  0  0  0  0  0  0  0  0  0  0  0
   -3.4200   21.8480  -31.3730 C   0  0  0  0  0  0  0  0  0  0  0  0
   -3.0980   22.3000  -30.0910 C   0  0  0  0  0  0  0  0  0  0  0  0
   -1.7580   22.3720  -29.6810 C   0  0  0  0  0  0  0  0  0  0  0  0
   -1.4210   22.8540  -28.3210 C   0  0  0  0  0  0  0  0  0  0  0  0
   -0.9620   21.9160  -27.3790 C   0  0  0  0  0  0  0  0  0  0  0  0
   -0.6970   22.2970  -26.0640 C   0  0  0  0  0  0  0  0  0  0  0  0
   -0.8900   23.6190  -25.6700 C   0  0  0  0  0  0  0  0  0  0  0  0
   -1.3350   24.5690  -26.5900 C   0  0  0  0  0  0  0  0  0  0  0  0
   -1.5910   24.2110  -27.9270 C   0  0  0  0  0  0  0  0  0  0  0  0
   -1.9820   25.2820  -28.8760 C   0  0  0  0  0  0  0  0  0  0  0  0
   -2.9790   25.1460  -29.6340 O   0  0  0  0  0  0  0  0  0  0  0  0
   -1.2200   26.4420  -28.9680 O   0  0  0  0  0  0  0  0  0  0  0  0
   -0.7420   22.0170  -30.5840 C   0  0  0  0  0  0  0  0  0  0  0  0
   -1.0650   21.5580  -31.8630 C   0  0  0  0  0  0  0  0  0  0  0  0
   -0.3601   21.4888  -34.5534 H   0  0  0  0  0  0  0  0  0  0  0  0
    0.8580   21.2103  -35.8439 H   0  0  0  0  0  0  0  0  0  0  0  0
   -0.6791   20.2807  -35.8439 H   0  0  0  0  0  0  0  0  0  0  0  0
    1.3693   19.0093  -35.0039 H   0  0  0  0  0  0  0  0  0  0  0  0
    1.3706   20.1381  -33.5894 H   0  0  0  0  0  0  0  0  0  0  0  0
    0.1945   17.9062  -33.2133 H   0  0  0  0  0  0  0  0  0  0  0  0
   -0.7829   19.3877  -32.8713 H   0  0  0  0  0  0  0  0  0  0  0  0
   -1.3191   18.9285  -35.5526 H   0  0  0  0  0  0  0  0  0  0  0  0
   -1.1919   17.2581  -34.8876 H   0  0  0  0  0  0  0  0  0  0  0  0
   -2.6694   15.5882  -34.4523 H   0  0  0  0  0  0  0  0  0  0  0  0
   -4.6106   14.1758  -33.6873 H   0  0  0  0  0  0  0  0  0  0  0  0
   -6.5777   15.2357  -32.5635 H   0  0  0  0  0  0  0  0  0  0  0  0
   -6.9100   17.8980  -30.9580 H   0  0  0  0  0  0  0  0  0  0  0  0
   -7.8310   18.4672  -33.7860 H   0  0  0  0  0  0  0  0  0  0  0  0
   -8.9201   18.1240  -32.3855 H   0  0  0  0  0  0  0  0  0  0  0  0
   -9.9535   19.9432  -31.3979 H   0  0  0  0  0  0  0  0  0  0  0  0
   -9.9866   22.3611  -30.7812 H   0  0  0  0  0  0  0  0  0  0  0  0
   -8.0626   23.8353  -31.3863 H   0  0  0  0  0  0  0  0  0  0  0  0
   -6.0957   22.8852  -32.5968 H   0  0  0  0  0  0  0  0  0  0  0  0
   -6.0501   20.4678  -33.2087 H   0  0  0  0  0  0  0  0  0  0  0  0
   -1.8559   20.9448  -34.2680 H   0  0  0  0  0  0  0  0  0  0  0  0
   -3.5188   21.6126  -34.0830 H   0  0  0  0  0  0  0  0  0  0  0  0
   -4.4733   21.7954  -31.6856 H   0  0  0  0  0  0  0  0  0  0  0  0
   -3.8988   22.6009  -29.3996 H   0  0  0  0  0  0  0  0  0  0  0  0
   -0.8103   20.8698  -27.6830 H   0  0  0  0  0  0  0  0  0  0  0  0
   -0.3356   21.5537  -25.3381 H   0  0  0  0  0  0  0  0  0  0  0  0
   -0.6908   23.9152  -24.6295 H   0  0  0  0  0  0  0  0  0  0  0  0
   -1.4875   25.6093  -26.2668 H   0  0  0  0  0  0  0  0  0  0  0  0
    0.3125   22.1009  -30.2824 H   0  0  0  0  0  0  0  0  0  0  0  0
   -0.2630   21.2714  -32.5592 H   0  0  0  0  0  0  0  0  0  0  0  0
  1  2  1  0
  2  3  1  0
  3  4  1  0
  4  5  1  0
  5  6  2  0
  6  7  1  0
  7  8  2  0
  8  9  1  0
  9 10  2  0
 10 11  1  0
 11 12  1  0
 12 13  1  0
 13 14  2  0
 14 15  1  0
 15 16  2  0
 16 17  1  0
 17 18  2  0
 10 19  1  0
 19 20  2  0
 20 21  1  0
 21 22  1  0
 22 23  1  0
 23 24  2  0
 24 25  1  0
 25 26  2  0
 26 27  1  0
 27 28  2  0
 28 29  1  0
 29 30  2  0
 30 31  1  0
 31 32  2  0
 32 33  1  0
 33 34  2  0
 33 35  1  0
 26 36  1  0
 36 37  2  0
 21  5  1  0
 37 23  1  0
 19  6  1  0
 32 27  1  0
 18 13  1  0
  1 38  1  0
  1 39  1  0
  1 40  1  0
  2 41  1  0
  2 42  1  0
  3 43  1  0
  3 44  1  0
  4 45  1  0
  4 46  1  0
  7 47  1  0
  8 48  1  0
  9 49  1  0
 11 50  1  0
 12 51  1  0
 12 52  1  0
 14 53  1  0
 15 54  1  0
 16 55  1  0
 17 56  1  0
 18 57  1  0
 22 58  1  0
 22 59  1  0
 24 60  1  0
 25 61  1  0
 28 62  1  0
 29 63  1  0
 30 64  1  0
 31 65  1  0
 36 66  1  0
 37 67  1  0
M  CHG  1  35  -1
M  END
>  <UniqueID>  (6) 
6

>  <SMILES>  (6) 
CCCCc1c2cccc(NCc3ccccc3)c2nn1Cc1ccc(-c2ccccc2C(=O)[O-])cc1

>  <Energy>  (6) 
112.4441528021478

>  <Genealogy>  (6) 
CCCCc1c2cccc(NCc3ccccc3)c2nn1Cc1ccc(-c2ccccc2C(=O)[O-])cc1 (protonated)
CCCCc1c2cccc(NCc3ccccc3)c2nn1Cc1ccc(-c2ccccc2C(=O)[O-])cc1 (3D coordinates assigned)
CCCCc1c2cccc(NCc3ccccc3)c2nn1Cc1ccc(-c2ccccc2C(=O)[O-])cc1 (optimized conformer: 112.4441528021478 kcal/mol)

>  <smiles>  (6) 
CCCCc1c2cccc(NCc3ccccc3)c2nn1Cc1ccc(-c2ccccc2C(=O)O)cc1

>  <score_type>  (6) 
oracle

>  <origin>  (6) 
adg

>  <m_score__min__energy>  (6) 
-13.1

>  <m_primary>  (6) 
energy

$$$$
6:0
     RDKit          3D

 63 66  0  0  0  0  0  0  0  0999 V2000
   -1.1800   26.6220  -24.9100 C   0  0  0  0  0  0  0  0  0  0  0  0
   -2.0000   25.4990  -25.2190 O   0  0  0  0  0  0  0  0  0  0  0  0
   -2.4230   25.1590  -26.5130 C   0  0  0  0  0  0  0  0  0  0  0  0
   -3.6870   24.5950  -26.7690 C   0  0  0  0  0  0  0  0  0  0  0  0
   -4.0640   24.2730  -28.0770 C   0  0  0  0  0  0  0  0  0  0  0  0
   -3.1860   24.5160  -29.1500 C   0  0  0  0  0  0  0  0  0  0  0  0
   -3.5110   24.2180  -30.4840 O   0  0  0  0  0  0  0  0  0  0  0  0
   -4.2400   23.0720  -30.9280 C   0  0  0  0  0  0  0  0  0  0  0  0
   -3.4570   22.3030  -32.0180 C   0  0  2  0  0  0  0  0  0  0  0  0
   -4.1810   21.1260  -32.6470 C   0  0  0  0  0  0  0  0  0  0  0  0
   -5.5800   20.9790  -32.5900 C   0  0  0  0  0  0  0  0  0  0  0  0
   -6.2120   19.8640  -33.1690 C   0  0  0  0  0  0  0  0  0  0  0  0
   -7.5980   19.6640  -33.0830 O   0  0  0  0  0  0  0  0  0  0  0  0
   -8.2830   19.2350  -31.9100 C   0  0  0  0  0  0  0  0  0  0  0  0
   -5.4470   18.9070  -33.8480 C   0  0  0  0  0  0  0  0  0  0  0  0
   -6.1020   17.7930  -34.3920 O   0  0  0  0  0  0  0  0  0  0  0  0
   -6.4440   16.6190  -33.6600 C   0  0  0  0  0  0  0  0  0  0  0  0
   -4.0560   19.0830  -33.9590 C   0  0  0  0  0  0  0  0  0  0  0  0
   -3.4210   20.1830  -33.3690 C   0  0  0  0  0  0  0  0  0  0  0  0
   -1.9160   20.2890  -33.4790 C   0  0  0  0  0  0  0  0  0  0  0  0
   -1.2810   21.4410  -32.6730 C   0  0  0  0  0  0  0  0  0  0  0  0
   -2.1100   21.9060  -31.5470 N   0  0  0  0  0  0  0  0  0  0  0  0
   -2.0600   20.8110  -30.1640 S   0  0  0  0  0  0  0  0  0  0  0  0
   -1.3460   19.5480  -30.5550 O   0  0  0  0  0  0  0  0  0  0  0  0
   -3.4660   20.4260  -29.7950 O   0  0  0  0  0  0  0  0  0  0  0  0
   -1.2740   21.4720  -28.7220 C   0  0  0  0  0  0  0  0  0  0  0  0
   -1.7760   21.1800  -27.4450 C   0  0  0  0  0  0  0  0  0  0  0  0
   -1.1980   21.7530  -26.3100 C   0  0  0  0  0  0  0  0  0  0  0  0
   -0.0830   22.5960  -26.4330 C   0  0  0  0  0  0  0  0  0  0  0  0
    0.5040   23.2650  -25.2260 C   0  0  0  0  0  0  0  0  0  0  0  0
    0.4440   22.8570  -27.7050 C   0  0  0  0  0  0  0  0  0  0  0  0
   -0.1370   22.2840  -28.8400 C   0  0  0  0  0  0  0  0  0  0  0  0
   -1.9280   25.0690  -28.8880 C   0  0  0  0  0  0  0  0  0  0  0  0
   -1.5510   25.3900  -27.5810 C   0  0  0  0  0  0  0  0  0  0  0  0
   -1.1016   26.7294  -23.8181 H   0  0  0  0  0  0  0  0  0  0  0  0
   -0.1772   26.4723  -25.3367 H   0  0  0  0  0  0  0  0  0  0  0  0
   -1.6279   27.5316  -25.3367 H   0  0  0  0  0  0  0  0  0  0  0  0
   -4.3813   24.4066  -25.9369 H   0  0  0  0  0  0  0  0  0  0  0  0
   -5.0515   23.8277  -28.2680 H   0  0  0  0  0  0  0  0  0  0  0  0
   -4.4150   22.4036  -30.0721 H   0  0  0  0  0  0  0  0  0  0  0  0
   -5.1954   23.4095  -31.3561 H   0  0  0  0  0  0  0  0  0  0  0  0
   -3.3583   23.0348  -32.8333 H   0  0  0  0  0  0  0  0  0  0  0  0
   -6.1865   21.7460  -32.0862 H   0  0  0  0  0  0  0  0  0  0  0  0
   -7.7355   19.5779  -31.0196 H   0  0  0  0  0  0  0  0  0  0  0  0
   -9.2979   19.6591  -31.9023 H   0  0  0  0  0  0  0  0  0  0  0  0
   -8.3445   18.1367  -31.9023 H   0  0  0  0  0  0  0  0  0  0  0  0
   -6.3830   16.8284  -32.5818 H   0  0  0  0  0  0  0  0  0  0  0  0
   -7.4688   16.3124  -33.9166 H   0  0  0  0  0  0  0  0  0  0  0  0
   -5.7442   15.8100  -33.9166 H   0  0  0  0  0  0  0  0  0  0  0  0
   -3.4588   18.3467  -34.5168 H   0  0  0  0  0  0  0  0  0  0  0  0
   -1.4808   19.3436  -33.1230 H   0  0  0  0  0  0  0  0  0  0  0  0
   -1.7000   20.4995  -34.5368 H   0  0  0  0  0  0  0  0  0  0  0  0
   -0.3164   21.0945  -32.2737 H   0  0  0  0  0  0  0  0  0  0  0  0
   -1.1701   22.2913  -33.3620 H   0  0  0  0  0  0  0  0  0  0  0  0
   -2.6302   20.4954  -27.3369 H   0  0  0  0  0  0  0  0  0  0  0  0
   -1.6186   21.5426  -25.3156 H   0  0  0  0  0  0  0  0  0  0  0  0
    0.0970   22.8011  -24.3154 H   0  0  0  0  0  0  0  0  0  0  0  0
    1.5979   23.1499  -25.2386 H   0  0  0  0  0  0  0  0  0  0  0  0
    0.2477   24.3346  -25.2386 H   0  0  0  0  0  0  0  0  0  0  0  0
    1.3187   23.5156  -27.8108 H   0  0  0  0  0  0  0  0  0  0  0  0
    0.3005   22.4713  -29.8317 H   0  0  0  0  0  0  0  0  0  0  0  0
   -1.2296   25.2528  -29.7177 H   0  0  0  0  0  0  0  0  0  0  0  0
   -0.5600   25.8280  -27.3911 H   0  0  0  0  0  0  0  0  0  0  0  0
  1  2  1  0
  2  3  1  0
  3  4  2  0
  4  5  1  0
  5  6  2  0
  6  7  1  0
  7  8  1  0
  8  9  1  0
  9 10  1  0
 10 11  2  0
 11 12  1  0
 12 13  1  0
 13 14  1  0
 12 15  2  0
 15 16  1  0
 16 17  1  0
 15 18  1  0
 18 19  2  0
 19 20  1  0
 20 21  1  0
 21 22  1  0
 22 23  1  0
 23 24  2  0
 23 25  2  0
 23 26  1  0
 26 27  2  0
 27 28  1  0
 28 29  2  0
 29 30  1  0
 29 31  1  0
 31 32  2  0
  6 33  1  0
 33 34  2  0
 34  3  1  0
 22  9  1  0
 32 26  1  0
 19 10  1  0
  1 35  1  0
  1 36  1  0
  1 37  1  0
  4 38  1  0
  5 39  1  0
  8 40  1  0
  8 41  1  0
  9 42  1  6
 11 43  1  0
 14 44  1  0
 14 45  1  0
 14 46  1  0
 17 47  1  0
 17 48  1  0
 17 49  1  0
 18 50  1  0
 20 51  1  0
 20 52  1  0
 21 53  1  0
 21 54  1  0
 27 55  1  0
 28 56  1  0
 30 57  1  0
 30 58  1  0
 30 59  1  0
 31 60  1  0
 32 61  1  0
 33 62  1  0
 34 63  1  0
M  END
>  <UniqueID>  (7) 
7

>  <SMILES>  (7) 
COc1ccc(OC[C@@H]2c3cc(OC)c(OC)cc3CCN2S(=O)(=O)c2ccc(C)cc2)cc1

>  <Energy>  (7) 
72.77670474230963

>  <Genealogy>  (7) 
COc1ccc(OC[C@@H]2c3cc(OC)c(OC)cc3CCN2S(=O)(=O)c2ccc(C)cc2)cc1 (chirality)
COc1ccc(OC[C@@H]2c3cc(OC)c(OC)cc3CCN2S(=O)(=O)c2ccc(C)cc2)cc1 (3D coordinates assigned)
COc1ccc(OC[C@@H]2c3cc(OC)c(OC)cc3CCN2S(=O)(=O)c2ccc(C)cc2)cc1 (nonaromatic ring conformer: 72.77670474230963 kcal/mol)

>  <smiles>  (7) 
COc1ccc(OCC2c3cc(OC)c(OC)cc3CCN2S(=O)(=O)c2ccc(C)cc2)cc1

>  <score_type>  (7) 
oracle

>  <origin>  (7) 
adg

>  <m_score__min__energy>  (7) 
-8.2300000000000004

>  <m_primary>  (7) 
energy

$$$$
7:0
     RDKit          3D

 52 55  0  0  0  0  0  0  0  0999 V2000
   -0.1090   23.3180  -26.6520 C   0  0  0  0  0  0  0  0  0  0  0  0
   -0.2420   23.0560  -28.0450 O   0  0  0  0  0  0  0  0  0  0  0  0
   -1.4550   23.0960  -28.7510 C   0  0  0  0  0  0  0  0  0  0  0  0
   -1.9810   24.3130  -29.2500 C   0  0  0  0  0  0  0  0  0  0  0  0
   -3.1840   24.2730  -29.9450 C   0  0  0  0  0  0  0  0  0  0  0  0
   -3.8630   25.3100  -30.4660 N   0  0  0  0  0  0  0  0  0  0  0  0
   -4.9680   24.8220  -31.0210 N   0  0  0  0  0  0  0  0  0  0  0  0
   -4.9890   23.4760  -30.8590 C   0  0  0  0  0  0  0  0  0  0  0  0
   -6.0700   22.6090  -31.3720 C   0  0  0  0  0  0  0  0  0  0  0  0
   -5.7900   21.5150  -32.2090 C   0  0  0  0  0  0  0  0  0  0  0  0
   -6.8390   20.7260  -32.6860 C   0  0  0  0  0  0  0  0  0  0  0  0
   -8.1230   21.0240  -32.3530 N   0  0  0  0  0  0  0  0  0  0  0  0
   -8.4250   22.0850  -31.5610 C   0  0  0  0  0  0  0  0  0  0  0  0
   -7.4060   22.9020  -31.0620 C   0  0  0  0  0  0  0  0  0  0  0  0
   -3.8560   23.1070  -30.1600 C   0  0  0  0  0  0  0  0  0  0  0  0
   -3.3980   21.8920  -29.6580 C   0  0  0  0  0  0  0  0  0  0  0  0
   -2.1690   21.8760  -28.9580 C   0  0  0  0  0  0  0  0  0  0  0  0
   -1.6420   20.6230  -28.4650 N   0  0  0  0  0  0  0  0  0  0  0  0
   -2.5730   19.9680  -27.5270 C   0  0  0  0  0  0  0  0  0  0  0  0
   -1.8770   19.0430  -26.5030 C   0  0  0  0  0  0  0  0  0  0  0  0
   -0.8630   18.0640  -27.1210 C   0  0  0  0  0  0  0  0  0  0  0  0
   -0.0830   18.6890  -28.2110 N   0  0  0  0  0  0  0  0  0  0  0  0
    1.3110   18.9130  -27.7850 C   0  0  0  0  0  0  0  0  0  0  0  0
    2.1080   19.6060  -28.9100 C   0  0  0  0  0  0  0  0  0  0  0  0
    1.3990   19.6400  -30.1360 O   0  0  0  0  0  0  0  0  0  0  0  0
    0.9450   18.3430  -30.4580 C   0  0  0  0  0  0  0  0  0  0  0  0
   -0.1110   17.8640  -29.4410 C   0  0  0  0  0  0  0  0  0  0  0  0
   -0.5341   22.4806  -26.0792 H   0  0  0  0  0  0  0  0  0  0  0  0
    0.9558   23.4314  -26.4002 H   0  0  0  0  0  0  0  0  0  0  0  0
   -0.6459   24.2445  -26.4002 H   0  0  0  0  0  0  0  0  0  0  0  0
   -1.4516   25.2641  -29.0917 H   0  0  0  0  0  0  0  0  0  0  0  0
   -4.7514   21.2818  -32.4865 H   0  0  0  0  0  0  0  0  0  0  0  0
   -6.6259   19.8618  -33.3324 H   0  0  0  0  0  0  0  0  0  0  0  0
   -9.4741   22.3022  -31.3114 H   0  0  0  0  0  0  0  0  0  0  0  0
   -7.6506   23.7688  -30.4305 H   0  0  0  0  0  0  0  0  0  0  0  0
   -3.9771   20.9679  -29.8020 H   0  0  0  0  0  0  0  0  0  0  0  0
   -1.4830   19.9820  -29.2760 H   0  0  0  0  0  0  0  0  0  0  0  0
   -0.7080   20.7600  -28.0150 H   0  0  0  0  0  0  0  0  0  0  0  0
   -3.1167   20.7492  -26.9755 H   0  0  0  0  0  0  0  0  0  0  0  0
   -3.2419   19.3349  -28.1285 H   0  0  0  0  0  0  0  0  0  0  0  0
   -1.3469   19.6734  -25.7739 H   0  0  0  0  0  0  0  0  0  0  0  0
   -2.6669   18.4304  -26.0439 H   0  0  0  0  0  0  0  0  0  0  0  0
   -0.1698   17.7280  -26.3358 H   0  0  0  0  0  0  0  0  0  0  0  0
   -1.4231   17.2180  -27.5459 H   0  0  0  0  0  0  0  0  0  0  0  0
    1.3189   19.5504  -26.8886 H   0  0  0  0  0  0  0  0  0  0  0  0
    1.7777   17.9426  -27.5603 H   0  0  0  0  0  0  0  0  0  0  0  0
    2.3286   20.6385  -28.6014 H   0  0  0  0  0  0  0  0  0  0  0  0
    3.0289   19.0267  -29.0726 H   0  0  0  0  0  0  0  0  0  0  0  0
    0.4977   18.3566  -31.4629 H   0  0  0  0  0  0  0  0  0  0  0  0
    1.8009   17.6526  -30.4291 H   0  0  0  0  0  0  0  0  0  0  0  0
   -1.1086   17.9361  -29.8988 H   0  0  0  0  0  0  0  0  0  0  0  0
    0.1159   16.8230  -29.1674 H   0  0  0  0  0  0  0  0  0  0  0  0
  1  2  1  0
  2  3  1  0
  3  4  2  0
  4  5  1  0
  5  6  1  0
  6  7  1  0
  7  8  2  0
  8  9  1  0
  9 10  2  0
 10 11  1  0
 11 12  2  0
 12 13  1  0
 13 14  2  0
  8 15  1  0
 15 16  1  0
 16 17  2  0
 17 18  1  0
 18 19  1  0
 19 20  1  0
 20 21  1  0
 21 22  1  0
 22 23  1  0
 23 24  1  0
 24 25  1  0
 25 26  1  0
 26 27  1  0
 17  3  1  0
 27 22  1  0
 15  5  2  0
 14  9  1  0
  1 28  1  0
  1 29  1  0
  1 30  1  0
  4 31  1  0
 10 32  1  0
 11 33  1  0
 13 34  1  0
 14 35  1  0
 16 36  1  0
 18 37  1  0
 18 38  1  0
 19 39  1  0
 19 40  1  0
 20 41  1  0
 20 42  1  0
 21 43  1  0
 21 44  1  0
 23 45  1  0
 23 46  1  0
 24 47  1  0
 24 48  1  0
 26 49  1  0
 26 50  1  0
 27 51  1  0
 27 52  1  0
M  CHG  2   6  -1  18   1
M  END
>  <UniqueID>  (8) 
8

>  <SMILES>  (8) 
COc1cc2[n-]nc(-c3ccncc3)c2cc1[NH2+]CCCN1CCOCC1

>  <Energy>  (8) 
105.7343656476244

>  <Genealogy>  (8) 
COc1cc2[n-]nc(-c3ccncc3)c2cc1[NH2+]CCCN1CCOCC1 (protonated)
COc1cc2[n-]nc(-c3ccncc3)c2cc1[NH2+]CCCN1CCOCC1 (3D coordinates assigned)
COc1cc2[n-]nc(-c3ccncc3)c2cc1[NH2+]CCCN1CCOCC1 (nonaromatic ring conformer: 105.7343656476244 kcal/mol)

>  <smiles>  (8) 
COc1cc2[nH]nc(-c3ccncc3)c2cc1NCCCN1CCOCC1

>  <score_type>  (8) 
oracle

>  <origin>  (8) 
adg

>  <m_score__min__energy>  (8) 
-8.6600000000000001

>  <m_primary>  (8) 
energy

$$$$
8:0
     RDKit          3D

 52 54  0  0  0  0  0  0  0  0999 V2000
   -5.2140   25.5980  -30.7140 C   0  0  0  0  0  0  0  0  0  0  0  0
   -3.8380   25.3030  -30.4930 O   0  0  0  0  0  0  0  0  0  0  0  0
   -3.3690   24.2840  -29.6490 C   0  0  0  0  0  0  0  0  0  0  0  0
   -3.0200   24.5280  -28.3060 C   0  0  0  0  0  0  0  0  0  0  0  0
   -2.5590   23.4870  -27.4970 C   0  0  0  0  0  0  0  0  0  0  0  0
   -2.4340   22.2000  -28.0190 C   0  0  0  0  0  0  0  0  0  0  0  0
   -2.7730   21.9470  -29.3490 C   0  0  0  0  0  0  0  0  0  0  0  0
   -3.2560   22.9840  -30.1710 C   0  0  0  0  0  0  0  0  0  0  0  0
   -3.6190   22.7770  -31.5120 O   0  0  0  0  0  0  0  0  0  0  0  0
   -4.0700   21.5450  -32.0790 C   0  0  0  0  0  0  0  0  0  0  0  0
   -3.4810   21.3420  -33.4790 C   0  0  0  0  0  0  0  0  0  0  0  0
   -3.2460   19.9090  -33.7560 N   0  0  0  0  0  0  0  0  0  0  0  0
   -1.8400   19.6370  -34.0900 C   0  0  0  0  0  0  0  0  0  0  0  0
   -3.7840   18.9920  -32.7190 C   0  0  0  0  0  0  0  0  0  0  0  0
   -4.4510   17.7400  -33.2660 C   0  0  0  0  0  0  0  0  0  0  0  0
   -3.8800   16.4800  -33.0270 C   0  0  0  0  0  0  0  0  0  0  0  0
   -4.4840   15.3280  -33.5260 C   0  0  0  0  0  0  0  0  0  0  0  0
   -5.6750   15.4360  -34.2410 C   0  0  0  0  0  0  0  0  0  0  0  0
   -6.2430   16.6540  -34.4440 N   0  0  0  0  0  0  0  0  0  0  0  0
   -5.6650   17.8030  -33.9810 C   0  0  0  0  0  0  0  0  0  0  0  0
   -6.2990   19.0410  -34.1630 O   0  0  0  0  0  0  0  0  0  0  0  0
   -7.1300   19.6680  -33.2220 C   0  0  0  0  0  0  0  0  0  0  0  0
   -8.1040   18.9030  -32.5720 C   0  0  0  0  0  0  0  0  0  0  0  0
   -8.9400   19.4890  -31.6160 C   0  0  0  0  0  0  0  0  0  0  0  0
   -8.7980   20.8400  -31.2950 C   0  0  0  0  0  0  0  0  0  0  0  0
   -7.8140   21.6090  -31.9240 C   0  0  0  0  0  0  0  0  0  0  0  0
   -7.6220   23.3020  -31.5060 Cl  0  0  0  0  0  0  0  0  0  0  0  0
   -6.9770   21.0250  -32.8820 C   0  0  0  0  0  0  0  0  0  0  0  0
   -5.7255   25.7077  -29.7464 H   0  0  0  0  0  0  0  0  0  0  0  0
   -5.3012   26.5353  -31.2832 H   0  0  0  0  0  0  0  0  0  0  0  0
   -5.6778   24.7789  -31.2832 H   0  0  0  0  0  0  0  0  0  0  0  0
   -3.1110   25.5433  -27.8926 H   0  0  0  0  0  0  0  0  0  0  0  0
   -2.2943   23.6825  -26.4474 H   0  0  0  0  0  0  0  0  0  0  0  0
   -2.0674   21.3823  -27.3811 H   0  0  0  0  0  0  0  0  0  0  0  0
   -2.6624   20.9318  -29.7578 H   0  0  0  0  0  0  0  0  0  0  0  0
   -3.7553   20.7134  -31.4314 H   0  0  0  0  0  0  0  0  0  0  0  0
   -5.1667   21.5744  -32.1589 H   0  0  0  0  0  0  0  0  0  0  0  0
   -4.1833   21.7415  -34.2254 H   0  0  0  0  0  0  0  0  0  0  0  0
   -2.5176   21.8702  -33.5322 H   0  0  0  0  0  0  0  0  0  0  0  0
   -1.2582   19.5244  -33.1633 H   0  0  0  0  0  0  0  0  0  0  0  0
   -1.7756   18.7098  -34.6783 H   0  0  0  0  0  0  0  0  0  0  0  0
   -1.4345   20.4733  -34.6783 H   0  0  0  0  0  0  0  0  0  0  0  0
   -2.9517   18.6818  -32.0701 H   0  0  0  0  0  0  0  0  0  0  0  0
   -4.5641   19.5517  -32.1822 H   0  0  0  0  0  0  0  0  0  0  0  0
   -2.9512   16.4019  -32.4429 H   0  0  0  0  0  0  0  0  0  0  0  0
   -4.0251   14.3427  -33.3572 H   0  0  0  0  0  0  0  0  0  0  0  0
   -6.1572   14.5325  -34.6425 H   0  0  0  0  0  0  0  0  0  0  0  0
   -7.1620   16.6920  -34.9390 H   0  0  0  0  0  0  0  0  0  0  0  0
   -8.2130   17.8355  -32.8138 H   0  0  0  0  0  0  0  0  0  0  0  0
   -9.7109   18.8841  -31.1161 H   0  0  0  0  0  0  0  0  0  0  0  0
   -9.4605   21.2999  -30.5469 H   0  0  0  0  0  0  0  0  0  0  0  0
   -6.1976   21.6284  -33.3704 H   0  0  0  0  0  0  0  0  0  0  0  0
  1  2  1  0
  2  3  1  0
  3  4  2  0
  4  5  1  0
  5  6  2  0
  6  7  1  0
  7  8  2  0
  8  9  1  0
  9 10  1  0
 10 11  1  0
 11 12  1  0
 12 13  1  0
 12 14  1  0
 14 15  1  0
 15 16  2  0
 16 17  1  0
 17 18  2  0
 18 19  1  0
 19 20  2  0
 20 21  1  0
 21 22  1  0
 22 23  2  0
 23 24  1  0
 24 25  2  0
 25 26  1  0
 26 27  1  0
 26 28  2  0
  8  3  1  0
 20 15  1  0
 28 22  1  0
  1 29  1  0
  1 30  1  0
  1 31  1  0
  4 32  1  0
  5 33  1  0
  6 34  1  0
  7 35  1  0
 10 36  1  0
 10 37  1  0
 11 38  1  0
 11 39  1  0
 13 40  1  0
 13 41  1  0
 13 42  1  0
 14 43  1  0
 14 44  1  0
 16 45  1  0
 17 46  1  0
 18 47  1  0
 19 48  1  0
 23 49  1  0
 24 50  1  0
 25 51  1  0
 28 52  1  0
M  CHG  1  19   1
M  END
>  <UniqueID>  (9) 
9

>  <SMILES>  (9) 
COc1ccccc1OCCN(C)Cc1ccc[nH+]c1Oc1cccc(Cl)c1

>  <Energy>  (9) 
63.61213717832126

>  <Genealogy>  (9) 
COc1ccccc1OCCN(C)Cc1ccc[nH+]c1Oc1cccc(Cl)c1 (protonated)
COc1ccccc1OCCN(C)Cc1ccc[nH+]c1Oc1cccc(Cl)c1 (3D coordinates assigned)
COc1ccccc1OCCN(C)Cc1ccc[nH+]c1Oc1cccc(Cl)c1 (optimized conformer: 63.61213717832126 kcal/mol)

>  <smiles>  (9) 
COc1ccccc1OCCN(C)Cc1cccnc1Oc1cccc(Cl)c1

>  <score_type>  (9) 
oracle

>  <origin>  (9) 
adg

>  <m_score__min__energy>  (9) 
-8.8499999999999996

>  <m_primary>  (9) 
energy

$$$$
9:0
     RDKit          3D

 32 33  0  0  0  0  0  0  0  0999 V2000
   -8.7960   18.5500  -31.5870 C   0  0  0  0  0  0  0  0  0  0  0  0
   -9.1120   19.5650  -32.6850 C   0  0  0  0  0  0  0  0  0  0  0  0
   -9.1890   21.0000  -32.1490 C   0  0  0  0  0  0  0  0  0  0  0  0
   -7.8260   21.5630  -31.8830 C   0  0  0  0  0  0  0  0  0  0  0  0
   -6.7060   20.7930  -31.8490 N   0  0  0  0  0  0  0  0  0  0  0  0
   -5.7570   21.6890  -31.5390 C   0  0  0  0  0  0  0  0  0  0  0  0
   -4.4040   21.4850  -31.3440 C   0  0  0  0  0  0  0  0  0  0  0  0
   -3.9140   20.3280  -31.4630 O   0  0  0  0  0  0  0  0  0  0  0  0
   -3.6210   22.5680  -31.0110 N   0  0  0  0  0  0  0  0  0  0  0  0
   -2.1820   22.3840  -30.7600 C   0  0  0  0  0  0  0  0  0  0  0  0
   -4.1990   23.8150  -30.8340 C   0  0  0  0  0  0  0  0  0  0  0  0
   -3.4850   24.7900  -30.4670 O   0  0  0  0  0  0  0  0  0  0  0  0
   -5.5500   24.0020  -31.0470 N   0  0  0  0  0  0  0  0  0  0  0  0
   -6.1890   25.3130  -30.8440 C   0  0  0  0  0  0  0  0  0  0  0  0
   -6.4440   25.5560  -29.3610 C   0  0  0  0  0  0  0  0  0  0  0  0
   -6.2940   22.9160  -31.3930 C   0  0  0  0  0  0  0  0  0  0  0  0
   -7.6200   22.8760  -31.5980 N   0  0  0  0  0  0  0  0  0  0  0  0
   -8.9417   19.0179  -30.6022 H   0  0  0  0  0  0  0  0  0  0  0  0
   -9.4670   17.6838  -31.6843 H   0  0  0  0  0  0  0  0  0  0  0  0
   -7.7519   18.2178  -31.6843 H   0  0  0  0  0  0  0  0  0  0  0  0
   -8.3230   19.5153  -33.4499 H   0  0  0  0  0  0  0  0  0  0  0  0
  -10.0963   19.3101  -33.1047 H   0  0  0  0  0  0  0  0  0  0  0  0
   -9.6975   21.6319  -32.8921 H   0  0  0  0  0  0  0  0  0  0  0  0
   -9.7458   20.9837  -31.2005 H   0  0  0  0  0  0  0  0  0  0  0  0
   -1.9990   22.3606  -29.6756 H   0  0  0  0  0  0  0  0  0  0  0  0
   -1.8498   21.4361  -31.2084 H   0  0  0  0  0  0  0  0  0  0  0  0
   -1.6220   23.2179  -31.2084 H   0  0  0  0  0  0  0  0  0  0  0  0
   -5.5284   26.1022  -31.2322 H   0  0  0  0  0  0  0  0  0  0  0  0
   -7.1503   25.3279  -31.3784 H   0  0  0  0  0  0  0  0  0  0  0  0
   -5.7749   24.9184  -28.7646 H   0  0  0  0  0  0  0  0  0  0  0  0
   -6.2510   26.6127  -29.1241 H   0  0  0  0  0  0  0  0  0  0  0  0
   -7.4902   25.3123  -29.1241 H   0  0  0  0  0  0  0  0  0  0  0  0
  1  2  1  0
  2  3  1  0
  3  4  1  0
  4  5  2  0
  5  6  1  0
  6  7  1  0
  7  8  2  0
  7  9  1  0
  9 10  1  0
  9 11  1  0
 11 12  2  0
 11 13  1  0
 13 14  1  0
 14 15  1  0
 13 16  1  0
 16 17  1  0
 17  4  1  0
 16  6  2  0
  1 18  1  0
  1 19  1  0
  1 20  1  0
  2 21  1  0
  2 22  1  0
  3 23  1  0
  3 24  1  0
 10 25  1  0
 10 26  1  0
 10 27  1  0
 14 28  1  0
 14 29  1  0
 15 30  1  0
 15 31  1  0
 15 32  1  0
M  CHG  1  17  -1
M  END
>  <UniqueID>  (10) 
10

>  <SMILES>  (10) 
CCCc1nc2c(=O)n(C)c(=O)n(CC)c2[n-]1

>  <Energy>  (10) 
65.28035420794566

>  <Genealogy>  (10) 
CCCc1nc2c(=O)n(C)c(=O)n(CC)c2[n-]1 (protonated)
CCCc1nc2c(=O)n(C)c(=O)n(CC)c2[n-]1 (3D coordinates assigned)
CCCc1nc2c(=O)n(C)c(=O)n(CC)c2[n-]1 (optimized conformer: 65.28035420794566 kcal/mol)

>  <smiles>  (10) 
CCCc1nc2c(=O)n(C)c(=O)n(CC)c2[nH]1

>  <score_type>  (10) 
oracle

>  <origin>  (10) 
adg

>  <m_score__min__energy>  (10) 
-6.4500000000000002

>  <m_primary>  (10) 
energy

$$$$
10:0
     RDKit          3D

 36 38  0  0  0  0  0  0  0  0999 V2000
   -6.1170   19.1860  -34.1400 C   0  0  0  0  0  0  0  0  0  0  0  0
   -7.0040   19.9040  -33.2320 N   0  0  0  0  0  0  0  0  0  0  0  0
   -8.2930   19.6280  -33.0560 N   0  0  0  0  0  0  0  0  0  0  0  0
   -8.8270   20.5170  -32.1850 C   0  0  0  0  0  0  0  0  0  0  0  0
   -7.8240   21.3860  -31.8090 C   0  0  0  0  0  0  0  0  0  0  0  0
   -7.8230   22.4970  -30.9700 C   0  0  0  0  0  0  0  0  0  0  0  0
   -6.6140   23.2090  -30.8330 C   0  0  0  0  0  0  0  0  0  0  0  0
   -6.5550   24.6780  -29.8060 S   0  0  0  0  0  0  0  0  0  0  0  0
   -4.9270   24.2890  -29.0670 C   0  0  0  0  0  0  0  0  0  0  0  0
   -3.7940   24.9140  -29.8400 C   0  0  0  0  0  0  0  0  0  0  0  0
   -4.0560   25.6350  -30.8390 O   0  0  0  0  0  0  0  0  0  0  0  0
   -2.4430   24.8660  -29.3640 N   0  0  0  0  0  0  0  0  0  0  0  0
   -1.9810   25.2980  -28.0770 C   0  0  0  0  0  0  0  0  0  0  0  0
   -2.6740   24.8900  -26.9300 C   0  0  0  0  0  0  0  0  0  0  0  0
   -2.2660   25.3270  -25.6650 C   0  0  0  0  0  0  0  0  0  0  0  0
   -1.1730   26.1940  -25.5420 C   0  0  0  0  0  0  0  0  0  0  0  0
   -0.6170   26.7950  -23.8170 Br  0  0  0  0  0  0  0  0  0  0  0  0
   -0.4980   26.6300  -26.6860 C   0  0  0  0  0  0  0  0  0  0  0  0
   -0.9070   26.1920  -27.9500 C   0  0  0  0  0  0  0  0  0  0  0  0
   -5.4490   22.7790  -31.5140 C   0  0  0  0  0  0  0  0  0  0  0  0
   -5.4870   21.6530  -32.3570 C   0  0  0  0  0  0  0  0  0  0  0  0
   -6.7020   20.9800  -32.4800 C   0  0  0  0  0  0  0  0  0  0  0  0
   -5.3921   18.5992  -33.5567 H   0  0  0  0  0  0  0  0  0  0  0  0
   -6.7100   18.5105  -34.7741 H   0  0  0  0  0  0  0  0  0  0  0  0
   -5.5798   19.9067  -34.7741 H   0  0  0  0  0  0  0  0  0  0  0  0
   -8.8070   18.8530  -33.5290 H   0  0  0  0  0  0  0  0  0  0  0  0
   -9.8712   20.5416  -31.8400 H   0  0  0  0  0  0  0  0  0  0  0  0
   -8.7319   22.8077  -30.4339 H   0  0  0  0  0  0  0  0  0  0  0  0
   -4.9053   24.6689  -28.0349 H   0  0  0  0  0  0  0  0  0  0  0  0
   -4.7942   23.1973  -29.0912 H   0  0  0  0  0  0  0  0  0  0  0  0
   -3.5434   24.2227  -27.0243 H   0  0  0  0  0  0  0  0  0  0  0  0
   -2.8039   24.9895  -24.7668 H   0  0  0  0  0  0  0  0  0  0  0  0
    0.3552   27.3179  -26.5921 H   0  0  0  0  0  0  0  0  0  0  0  0
   -0.3840   26.5502  -28.8490 H   0  0  0  0  0  0  0  0  0  0  0  0
   -4.5061   23.3301  -31.3827 H   0  0  0  0  0  0  0  0  0  0  0  0
   -4.5911   21.3160  -32.8991 H   0  0  0  0  0  0  0  0  0  0  0  0
  1  2  1  0
  2  3  1  0
  3  4  2  0
  4  5  1  0
  5  6  2  0
  6  7  1  0
  7  8  1  0
  8  9  1  0
  9 10  1  0
 10 11  2  0
 10 12  1  0
 12 13  1  0
 13 14  2  0
 14 15  1  0
 15 16  2  0
 16 17  1  0
 16 18  1  0
 18 19  2  0
  7 20  2  0
 20 21  1  0
 21 22  2  0
 22  2  1  0
 22  5  1  0
 19 13  1  0
  1 23  1  0
  1 24  1  0
  1 25  1  0
  3 26  1  0
  4 27  1  0
  6 28  1  0
  9 29  1  0
  9 30  1  0
 14 31  1  0
 15 32  1  0
 18 33  1  0
 19 34  1  0
 20 35  1  0
 21 36  1  0
M  CHG  2   3   1  12  -1
M  END
>  <UniqueID>  (11) 
11

>  <SMILES>  (11) 
Cn1[nH+]cc2cc(SCC(=O)[N-]c3ccc(Br)cc3)ccc21

>  <Energy>  (11) 
76.34482357640287

>  <Genealogy>  (11) 
Cn1[nH+]cc2cc(SCC(=O)[N-]c3ccc(Br)cc3)ccc21 (protonated)
Cn1[nH+]cc2cc(SCC(=O)[N-]c3ccc(Br)cc3)ccc21 (3D coordinates assigned)
Cn1[nH+]cc2cc(SCC(=O)[N-]c3ccc(Br)cc3)ccc21 (optimized conformer: 76.34482357640287 kcal/mol)

>  <smiles>  (11) 
Cn1ncc2cc(SCC(=O)Nc3ccc(Br)cc3)ccc21

>  <score_type>  (11) 
oracle

>  <origin>  (11) 
adg

>  <m_score__min__energy>  (11) 
-10.82

>  <m_primary>  (11) 
energy

$$$$
11:0
     RDKit          3D

 52 54  0  0  0  0  0  0  0  0999 V2000
   -0.8840   25.4040  -28.2970 C   0  0  0  0  0  0  0  0  0  0  0  0
   -1.8480   25.2960  -29.3410 O   0  0  0  0  0  0  0  0  0  0  0  0
   -3.0070   24.5030  -29.2720 C   0  0  0  0  0  0  0  0  0  0  0  0
   -3.2820   23.6580  -28.1810 C   0  0  0  0  0  0  0  0  0  0  0  0
   -4.4480   22.8900  -28.1600 C   0  0  0  0  0  0  0  0  0  0  0  0
   -5.3440   22.9470  -29.2320 C   0  0  0  0  0  0  0  0  0  0  0  0
   -5.0780   23.7690  -30.3410 C   0  0  0  0  0  0  0  0  0  0  0  0
   -6.0550   23.8290  -31.5080 C   0  0  0  0  0  0  0  0  0  0  0  0
   -6.2630   22.5310  -32.2170 N   0  0  2  0  0  0  0  0  0  0  0  0
   -7.5850   21.9340  -31.9040 C   0  0  0  0  0  0  0  0  0  0  0  0
   -7.8050   20.6400  -32.7090 C   0  0  0  0  0  0  0  0  0  0  0  0
   -6.6400   19.7080  -32.6630 N   0  0  0  0  0  0  0  0  0  0  0  0
   -7.0490   18.3100  -32.3850 C   0  0  0  0  0  0  0  0  0  0  0  0
   -5.9820   17.3310  -32.8410 C   0  0  0  0  0  0  0  0  0  0  0  0
   -5.5920   16.2950  -31.9660 C   0  0  0  0  0  0  0  0  0  0  0  0
   -4.6420   15.3540  -32.3590 C   0  0  0  0  0  0  0  0  0  0  0  0
   -4.0820   15.4480  -33.6310 C   0  0  0  0  0  0  0  0  0  0  0  0
   -4.4530   16.4560  -34.4720 N   0  0  0  0  0  0  0  0  0  0  0  0
   -5.3830   17.3910  -34.1250 C   0  0  0  0  0  0  0  0  0  0  0  0
   -5.7340   18.4550  -35.1330 C   0  0  0  0  0  0  0  0  0  0  0  0
   -5.5990   20.1330  -31.7060 C   0  0  0  0  0  0  0  0  0  0  0  0
   -5.1230   21.5700  -32.0270 C   0  0  1  0  0  0  0  0  0  0  0  0
   -4.1960   21.5610  -33.2580 C   0  0  0  0  0  0  0  0  0  0  0  0
   -3.9190   24.5660  -30.3350 C   0  0  0  0  0  0  0  0  0  0  0  0
   -1.3910   25.3472  -27.3225 H   0  0  0  0  0  0  0  0  0  0  0  0
   -0.1585   24.5815  -28.3813 H   0  0  0  0  0  0  0  0  0  0  0  0
   -0.3584   26.3666  -28.3813 H   0  0  0  0  0  0  0  0  0  0  0  0
   -2.5748   23.6021  -27.3403 H   0  0  0  0  0  0  0  0  0  0  0  0
   -4.6619   22.2394  -27.2992 H   0  0  0  0  0  0  0  0  0  0  0  0
   -6.2638   22.3442  -29.2074 H   0  0  0  0  0  0  0  0  0  0  0  0
   -7.0279   24.1685  -31.1229 H   0  0  0  0  0  0  0  0  0  0  0  0
   -5.6160   24.5178  -32.2448 H   0  0  0  0  0  0  0  0  0  0  0  0
   -6.3150   22.7870  -33.2350 H   0  0  0  0  0  0  0  0  0  0  0  0
   -7.6309   21.7025  -30.8296 H   0  0  0  0  0  0  0  0  0  0  0  0
   -8.3704   22.6552  -32.1742 H   0  0  0  0  0  0  0  0  0  0  0  0
   -8.6839   20.1201  -32.3000 H   0  0  0  0  0  0  0  0  0  0  0  0
   -7.9463   20.9316  -33.7602 H   0  0  0  0  0  0  0  0  0  0  0  0
   -7.2088   18.1901  -31.3033 H   0  0  0  0  0  0  0  0  0  0  0  0
   -7.9770   18.0996  -32.9368 H   0  0  0  0  0  0  0  0  0  0  0  0
   -6.0420   16.2294  -30.9644 H   0  0  0  0  0  0  0  0  0  0  0  0
   -4.3386   14.5483  -31.6743 H   0  0  0  0  0  0  0  0  0  0  0  0
   -3.3380   14.7069  -33.9585 H   0  0  0  0  0  0  0  0  0  0  0  0
   -6.0367   19.3726  -34.6072 H   0  0  0  0  0  0  0  0  0  0  0  0
   -4.8578   18.6659  -35.7637 H   0  0  0  0  0  0  0  0  0  0  0  0
   -6.5637   18.1031  -35.7637 H   0  0  0  0  0  0  0  0  0  0  0  0
   -6.0119   20.1075  -30.6868 H   0  0  0  0  0  0  0  0  0  0  0  0
   -4.7419   19.4480  -31.7847 H   0  0  0  0  0  0  0  0  0  0  0  0
   -4.5581   21.9289  -31.1540 H   0  0  0  0  0  0  0  0  0  0  0  0
   -3.1470   21.5508  -32.9270 H   0  0  0  0  0  0  0  0  0  0  0  0
   -4.3984   20.6648  -33.8628 H   0  0  0  0  0  0  0  0  0  0  0  0
   -4.3809   22.4610  -33.8628 H   0  0  0  0  0  0  0  0  0  0  0  0
   -3.7255   25.2482  -31.1760 H   0  0  0  0  0  0  0  0  0  0  0  0
  1  2  1  0
  2  3  1  0
  3  4  2  0
  4  5  1  0
  5  6  2  0
  6  7  1  0
  7  8  1  0
  8  9  1  0
  9 10  1  0
 10 11  1  0
 11 12  1  0
 12 13  1  0
 13 14  1  0
 14 15  2  0
 15 16  1  0
 16 17  2  0
 17 18  1  0
 18 19  2  0
 19 20  1  0
 12 21  1  0
 21 22  1  0
 22 23  1  0
  7 24  2  0
 24  3  1  0
 22  9  1  0
 19 14  1  0
  1 25  1  0
  1 26  1  0
  1 27  1  0
  4 28  1  0
  5 29  1  0
  6 30  1  0
  8 31  1  0
  8 32  1  0
  9 33  1  6
 10 34  1  0
 10 35  1  0
 11 36  1  0
 11 37  1  0
 13 38  1  0
 13 39  1  0
 15 40  1  0
 16 41  1  0
 17 42  1  0
 20 43  1  0
 20 44  1  0
 20 45  1  0
 21 46  1  0
 21 47  1  0
 22 48  1  1
 23 49  1  0
 23 50  1  0
 23 51  1  0
 24 52  1  0
M  CHG  1   9   1
M  END
>  <UniqueID>  (12) 
12

>  <SMILES>  (12) 
COc1cccc(C[N@@H+]2CCN(Cc3cccnc3C)C[C@H]2C)c1

>  <Energy>  (12) 
70.15857954461922

>  <Genealogy>  (12) 
COc1cccc(C[NH+]2CCN(Cc3cccnc3C)CC2C)c1 (protonated)
COc1cccc(C[N@@H+]2CCN(Cc3cccnc3C)C[C@H]2C)c1 (chirality)
COc1cccc(C[N@@H+]2CCN(Cc3cccnc3C)C[C@H]2C)c1 (3D coordinates assigned)
COc1cccc(C[N@@H+]2CCN(Cc3cccnc3C)C[C@H]2C)c1 (nonaromatic ring conformer: 70.15857954461922 kcal/mol)

>  <smiles>  (12) 
COc1cccc(CN2CCN(Cc3cccnc3C)CC2C)c1

>  <score_type>  (12) 
oracle

>  <origin>  (12) 
adg

>  <m_score__min__energy>  (12) 
-7.6900000000000004

>  <m_primary>  (12) 
energy

$$$$
12:0
     RDKit          3D

 57 59  0  0  0  0  0  0  0  0999 V2000
   -9.2419   18.8124  -31.0598 H   0  0  0  0  0  0  0  0  0  0  0  0
   -8.8270   19.4000  -31.8920 C   0  0  0  0  0  0  0  0  0  0  0  0
   -9.5590   20.4270  -32.3510 C   0  0  0  0  0  0  0  0  0  0  0  0
  -10.3266   20.2063  -33.1074 H   0  0  0  0  0  0  0  0  0  0  0  0
   -9.4080   21.8680  -31.9060 C   0  0  0  0  0  0  0  0  0  0  0  0
  -10.0764   22.0397  -31.0494 H   0  0  0  0  0  0  0  0  0  0  0  0
   -9.6637   22.5014  -32.7682 H   0  0  0  0  0  0  0  0  0  0  0  0
   -8.0300   22.2190  -31.5020 N   0  0  0  0  0  0  0  0  0  0  0  0
   -7.4040   23.2120  -32.3980 C   0  0  0  0  0  0  0  0  0  0  0  0
   -8.0771   24.0759  -32.5008 H   0  0  0  0  0  0  0  0  0  0  0  0
   -7.2285   22.7357  -33.3739 H   0  0  0  0  0  0  0  0  0  0  0  0
   -6.0490   23.6950  -31.8430 C   0  0  0  0  0  0  0  0  0  0  0  0
   -6.1827   24.6756  -31.3629 H   0  0  0  0  0  0  0  0  0  0  0  0
   -5.3316   23.7752  -32.6730 H   0  0  0  0  0  0  0  0  0  0  0  0
   -5.5280   22.7350  -30.8510 N   0  0  0  0  0  0  0  0  0  0  0  0
   -4.1560   23.1030  -30.4470 C   0  0  0  0  0  0  0  0  0  0  0  0
   -3.9882   22.7854  -29.4073 H   0  0  0  0  0  0  0  0  0  0  0  0
   -4.0414   24.1934  -30.5359 H   0  0  0  0  0  0  0  0  0  0  0  0
   -3.1420   22.4350  -31.3380 C   0  0  0  0  0  0  0  0  0  0  0  0
   -1.8220   22.2420  -30.9000 C   0  0  0  0  0  0  0  0  0  0  0  0
   -1.5162   22.6042  -29.9074 H   0  0  0  0  0  0  0  0  0  0  0  0
   -0.8950   21.5920  -31.7190 C   0  0  0  0  0  0  0  0  0  0  0  0
    0.1376   21.4463  -31.3690 H   0  0  0  0  0  0  0  0  0  0  0  0
   -1.2760   21.1240  -32.9870 C   0  0  0  0  0  0  0  0  0  0  0  0
   -0.2890   20.4000  -33.8660 C   0  0  0  0  0  0  0  0  0  0  0  0
   -0.8276   19.9267  -34.7002 H   0  0  0  0  0  0  0  0  0  0  0  0
    0.2280   19.6378  -33.2645 H   0  0  0  0  0  0  0  0  0  0  0  0
    0.7140   21.3390  -34.4070 N   0  0  0  0  0  0  0  0  0  0  0  0
    0.2730   21.8910  -35.7000 C   0  0  0  0  0  0  0  0  0  0  0  0
   -0.4048   22.7394  -35.5245 H   0  0  0  0  0  0  0  0  0  0  0  0
    1.1490   22.2335  -36.2704 H   0  0  0  0  0  0  0  0  0  0  0  0
   -0.2544   21.1122  -36.2704 H   0  0  0  0  0  0  0  0  0  0  0  0
    2.0040   20.6530  -34.5810 C   0  0  0  0  0  0  0  0  0  0  0  0
    2.4337   20.4245  -33.5945 H   0  0  0  0  0  0  0  0  0  0  0  0
    1.8496   19.7178  -35.1393 H   0  0  0  0  0  0  0  0  0  0  0  0
    2.6930   21.3038  -35.1393 H   0  0  0  0  0  0  0  0  0  0  0  0
   -2.5970   21.3090  -33.4210 C   0  0  0  0  0  0  0  0  0  0  0  0
   -2.9046   20.9401  -34.4106 H   0  0  0  0  0  0  0  0  0  0  0  0
   -3.5250   21.9600  -32.6020 C   0  0  0  0  0  0  0  0  0  0  0  0
   -4.5591   22.1003  -32.9498 H   0  0  0  0  0  0  0  0  0  0  0  0
   -6.4310   22.6620  -29.6760 C   0  0  0  0  0  0  0  0  0  0  0  0
   -6.2618   23.5455  -29.0429 H   0  0  0  0  0  0  0  0  0  0  0  0
   -6.2056   21.7329  -29.1320 H   0  0  0  0  0  0  0  0  0  0  0  0
   -7.9160   22.6230  -30.0890 C   0  0  0  0  0  0  0  0  0  0  0  0
   -8.3580   23.6217  -29.9578 H   0  0  0  0  0  0  0  0  0  0  0  0
   -8.4496   21.8962  -29.4589 H   0  0  0  0  0  0  0  0  0  0  0  0
   -7.5090   18.9990  -32.4180 C   0  0  0  0  0  0  0  0  0  0  0  0
   -6.8410   17.8680  -31.9170 C   0  0  0  0  0  0  0  0  0  0  0  0
   -7.3165   17.2486  -31.1423 H   0  0  0  0  0  0  0  0  0  0  0  0
   -5.5730   17.5280  -32.4010 C   0  0  0  0  0  0  0  0  0  0  0  0
   -5.0606   16.6329  -32.0187 H   0  0  0  0  0  0  0  0  0  0  0  0
   -4.9570   18.3250  -33.3700 C   0  0  0  0  0  0  0  0  0  0  0  0
   -3.9627   18.0535  -33.7543 H   0  0  0  0  0  0  0  0  0  0  0  0
   -5.6040   19.4670  -33.8510 C   0  0  0  0  0  0  0  0  0  0  0  0
   -5.1157   20.0967  -34.6093 H   0  0  0  0  0  0  0  0  0  0  0  0
   -6.8720   19.8100  -33.3690 C   0  0  0  0  0  0  0  0  0  0  0  0
   -7.3710   20.7186  -33.7370 H   0  0  0  0  0  0  0  0  0  0  0  0
  1  2  1  0
  2  3  2  0
  3  4  1  0
  3  5  1  0
  5  6  1  0
  5  7  1  0
  5  8  1  0
  8  9  1  0
  9 10  1  0
  9 11  1  0
  9 12  1  0
 12 13  1  0
 12 14  1  0
 12 15  1  0
 15 16  1  0
 16 17  1  0
 16 18  1  0
 16 19  1  0
 19 20  2  0
 20 21  1  0
 20 22  1  0
 22 23  1  0
 22 24  2  0
 24 25  1  0
 25 26  1  0
 25 27  1  0
 25 28  1  0
 28 29  1  0
 29 30  1  0
 29 31  1  0
 29 32  1  0
 28 33  1  0
 33 34  1  0
 33 35  1  0
 33 36  1  0
 24 37  1  0
 37 38  1  0
 37 39  2  0
 39 40  1  0
 15 41  1  0
 41 42  1  0
 41 43  1  0
 41 44  1  0
 44 45  1  0
 44 46  1  0
  2 47  1  0
 47 48  2  0
 48 49  1  0
 48 50  1  0
 50 51  1  0
 50 52  2  0
 52 53  1  0
 52 54  1  0
 54 55  1  0
 54 56  2  0
 56 57  1  0
 44  8  1  0
 56 47  1  0
 39 19  1  0
M  END
>  <UniqueID>  (13) 
13

>  <SMILES>  (13) 
CN(C)Cc1ccc(CN2CCN(C/C=C\c3ccccc3)CC2)cc1

>  <Energy>  (13) 
74.64325849423332

>  <Genealogy>  (13) 
CN(C)Cc1ccc(CN2CCN(C/C=C\c3ccccc3)CC2)cc1 (cis-trans isomerization)
CN(C)Cc1ccc(CN2CCN(C/C=C\c3ccccc3)CC2)cc1 (3D coordinates assigned)
CN(C)Cc1ccc(CN2CCN(C/C=C\c3ccccc3)CC2)cc1 (nonaromatic ring conformer: 74.64325849423332 kcal/mol)

>  <smiles>  (13) 
CN(C)Cc1ccc(CN2CCN(CC=Cc3ccccc3)CC2)cc1

>  <score_type>  (13) 
oracle

>  <origin>  (13) 
adg

>  <m_score__min__energy>  (13) 
-8.8200000000000003

>  <m_primary>  (13) 
energy

$$$$
13:0
     RDKit          3D

 76 78  0  0  0  0  0  0  0  0999 V2000
   -9.8150   21.8740  -31.5500 C   0  0  0  0  0  0  0  0  0  0  0  0
   -8.6320   21.2900  -30.7820 C   0  0  0  0  0  0  0  0  0  0  0  0
   -7.6070   20.7890  -31.7240 N   0  0  0  0  0  0  0  0  0  0  0  0
   -8.0850   19.6240  -32.5110 C   0  0  0  0  0  0  0  0  0  0  0  0
   -8.7630   18.5290  -31.6740 C   0  0  0  0  0  0  0  0  0  0  0  0
   -7.0300   21.8790  -32.5490 C   0  0  0  0  0  0  0  0  0  0  0  0
   -6.5250   23.0300  -31.6700 C   0  0  0  0  0  0  0  0  0  0  0  0
   -5.0170   23.2620  -31.8640 C   0  0  0  0  0  0  0  0  0  0  0  0
   -4.2990   23.5920  -30.5450 C   0  0  0  0  0  0  0  0  0  0  0  0
   -5.0520   24.6400  -29.7080 C   0  0  0  0  0  0  0  0  0  0  0  0
   -4.8320   24.4210  -28.2700 N   0  0  0  0  0  0  0  0  0  0  0  0
   -3.7830   23.4040  -28.0340 C   0  0  0  0  0  0  0  0  0  0  0  0
   -2.6490   23.9580  -27.1960 C   0  0  0  0  0  0  0  0  0  0  0  0
   -2.7290   25.2800  -26.7230 C   0  0  0  0  0  0  0  0  0  0  0  0
   -1.7150   25.8100  -25.9210 C   0  0  0  0  0  0  0  0  0  0  0  0
   -0.6160   25.0240  -25.5710 C   0  0  0  0  0  0  0  0  0  0  0  0
   -0.5250   23.7070  -26.0230 C   0  0  0  0  0  0  0  0  0  0  0  0
   -1.5280   23.1630  -26.8400 C   0  0  0  0  0  0  0  0  0  0  0  0
   -1.4080   21.7450  -27.2560 C   0  0  0  0  0  0  0  0  0  0  0  0
   -1.6160   20.7570  -26.2790 C   0  0  0  0  0  0  0  0  0  0  0  0
   -1.5810   19.4050  -26.6170 C   0  0  0  0  0  0  0  0  0  0  0  0
   -1.3250   19.0200  -27.9300 C   0  0  0  0  0  0  0  0  0  0  0  0
   -1.0990   19.9860  -28.9110 C   0  0  0  0  0  0  0  0  0  0  0  0
   -1.1240   21.3570  -28.5940 C   0  0  0  0  0  0  0  0  0  0  0  0
   -0.8570   22.3370  -29.6780 C   0  0  0  0  0  0  0  0  0  0  0  0
   -1.2190   23.5390  -29.5660 O   0  0  0  0  0  0  0  0  0  0  0  0
   -0.1840   21.9160  -30.8290 O   0  0  0  0  0  0  0  0  0  0  0  0
   -0.7880   21.1070  -31.8330 C   0  0  0  0  0  0  0  0  0  0  0  0
   -2.1770   21.6510  -32.1700 C   0  0  0  0  0  0  0  0  0  0  0  0
   -3.1130   20.5360  -32.5600 C   0  0  0  0  0  0  0  0  0  0  0  0
   -4.1260   20.1200  -31.6780 C   0  0  0  0  0  0  0  0  0  0  0  0
   -4.9620   19.0520  -32.0190 C   0  0  0  0  0  0  0  0  0  0  0  0
   -4.7910   18.3910  -33.2400 C   0  0  0  0  0  0  0  0  0  0  0  0
   -3.7800   18.7940  -34.1180 C   0  0  0  0  0  0  0  0  0  0  0  0
   -2.9400   19.8590  -33.7790 C   0  0  0  0  0  0  0  0  0  0  0  0
  -10.5670   22.2452  -30.8382 H   0  0  0  0  0  0  0  0  0  0  0  0
   -9.4677   22.7042  -32.1826 H   0  0  0  0  0  0  0  0  0  0  0  0
  -10.2628   21.0934  -32.1826 H   0  0  0  0  0  0  0  0  0  0  0  0
   -8.1901   22.0716  -30.1465 H   0  0  0  0  0  0  0  0  0  0  0  0
   -8.9858   20.4547  -30.1598 H   0  0  0  0  0  0  0  0  0  0  0  0
   -8.8090   19.9856  -33.2560 H   0  0  0  0  0  0  0  0  0  0  0  0
   -7.1947   19.1656  -32.9662 H   0  0  0  0  0  0  0  0  0  0  0  0
   -8.6273   18.7481  -30.6046 H   0  0  0  0  0  0  0  0  0  0  0  0
   -9.8372   18.5002  -31.9090 H   0  0  0  0  0  0  0  0  0  0  0  0
   -8.3100   17.5545  -31.9090 H   0  0  0  0  0  0  0  0  0  0  0  0
   -6.1893   21.4792  -33.1350 H   0  0  0  0  0  0  0  0  0  0  0  0
   -7.8158   22.2666  -33.2140 H   0  0  0  0  0  0  0  0  0  0  0  0
   -7.0662   23.9494  -31.9379 H   0  0  0  0  0  0  0  0  0  0  0  0
   -6.7028   22.7662  -30.6170 H   0  0  0  0  0  0  0  0  0  0  0  0
   -4.5716   22.3509  -32.2900 H   0  0  0  0  0  0  0  0  0  0  0  0
   -4.8946   24.1238  -32.5366 H   0  0  0  0  0  0  0  0  0  0  0  0
   -4.2065   22.6691  -29.9537 H   0  0  0  0  0  0  0  0  0  0  0  0
   -3.3143   24.0122  -30.7977 H   0  0  0  0  0  0  0  0  0  0  0  0
   -4.6917   25.6435  -29.9786 H   0  0  0  0  0  0  0  0  0  0  0  0
   -6.1282   24.5487  -29.9165 H   0  0  0  0  0  0  0  0  0  0  0  0
   -4.5350   25.3240  -27.8290 H   0  0  0  0  0  0  0  0  0  0  0  0
   -5.7380   24.1390  -27.8280 H   0  0  0  0  0  0  0  0  0  0  0  0
   -4.2288   22.5462  -27.5093 H   0  0  0  0  0  0  0  0  0  0  0  0
   -3.3739   23.0985  -29.0083 H   0  0  0  0  0  0  0  0  0  0  0  0
   -3.5971   25.9020  -26.9866 H   0  0  0  0  0  0  0  0  0  0  0  0
   -1.7830   26.8485  -25.5648 H   0  0  0  0  0  0  0  0  0  0  0  0
    0.1797   25.4434  -24.9378 H   0  0  0  0  0  0  0  0  0  0  0  0
    0.3397   23.0903  -25.7367 H   0  0  0  0  0  0  0  0  0  0  0  0
   -1.8083   21.0532  -25.2372 H   0  0  0  0  0  0  0  0  0  0  0  0
   -1.7559   18.6412  -25.8450 H   0  0  0  0  0  0  0  0  0  0  0  0
   -1.3009   17.9526  -28.1945 H   0  0  0  0  0  0  0  0  0  0  0  0
   -0.8986   19.6719  -29.9460 H   0  0  0  0  0  0  0  0  0  0  0  0
   -0.1618   21.1189  -32.7373 H   0  0  0  0  0  0  0  0  0  0  0  0
   -0.8820   20.0761  -31.4610 H   0  0  0  0  0  0  0  0  0  0  0  0
   -2.5833   22.1705  -31.2897 H   0  0  0  0  0  0  0  0  0  0  0  0
   -2.0855   22.3450  -33.0185 H   0  0  0  0  0  0  0  0  0  0  0  0
   -4.2614   20.6365  -30.7163 H   0  0  0  0  0  0  0  0  0  0  0  0
   -5.7545   18.7315  -31.3267 H   0  0  0  0  0  0  0  0  0  0  0  0
   -5.4520   17.5540  -33.5095 H   0  0  0  0  0  0  0  0  0  0  0  0
   -3.6454   18.2722  -35.0770 H   0  0  0  0  0  0  0  0  0  0  0  0
   -2.1409   20.1680  -34.4690 H   0  0  0  0  0  0  0  0  0  0  0  0
  1  2  1  0
  2  3  1  0
  3  4  1  0
  4  5  1  0
  3  6  1  0
  6  7  1  0
  7  8  1  0
  8  9  1  0
  9 10  1  0
 10 11  1  0
 11 12  1  0
 12 13  1  0
 13 14  2  0
 14 15  1  0
 15 16  2  0
 16 17  1  0
 17 18  2  0
 18 19  1  0
 19 20  2  0
 20 21  1  0
 21 22  2  0
 22 23  1  0
 23 24  2  0
 24 25  1  0
 25 26  2  0
 25 27  1  0
 27 28  1  0
 28 29  1  0
 29 30  1  0
 30 31  2  0
 31 32  1  0
 32 33  2  0
 33 34  1  0
 34 35  2  0
 18 13  1  0
 24 19  1  0
 35 30  1  0
  1 36  1  0
  1 37  1  0
  1 38  1  0
  2 39  1  0
  2 40  1  0
  4 41  1  0
  4 42  1  0
  5 43  1  0
  5 44  1  0
  5 45  1  0
  6 46  1  0
  6 47  1  0
  7 48  1  0
  7 49  1  0
  8 50  1  0
  8 51  1  0
  9 52  1  0
  9 53  1  0
 10 54  1  0
 10 55  1  0
 11 56  1  0
 11 57  1  0
 12 58  1  0
 12 59  1  0
 14 60  1  0
 15 61  1  0
 16 62  1  0
 17 63  1  0
 20 64  1  0
 21 65  1  0
 22 66  1  0
 23 67  1  0
 28 68  1  0
 28 69  1  0
 29 70  1  0
 29 71  1  0
 31 72  1  0
 32 73  1  0
 33 74  1  0
 34 75  1  0
 35 76  1  0
M  CHG  1  11   1
M  END
>  <UniqueID>  (14) 
14

>  <SMILES>  (14) 
CCN(CC)CCCCC[NH2+]Cc1ccccc1-c1ccccc1C(=O)OCCc1ccccc1

>  <Energy>  (14) 
75.22495655696429

>  <Genealogy>  (14) 
CCN(CC)CCCCC[NH2+]Cc1ccccc1-c1ccccc1C(=O)OCCc1ccccc1 (protonated)
CCN(CC)CCCCC[NH2+]Cc1ccccc1-c1ccccc1C(=O)OCCc1ccccc1 (3D coordinates assigned)
CCN(CC)CCCCC[NH2+]Cc1ccccc1-c1ccccc1C(=O)OCCc1ccccc1 (optimized conformer: 75.22495655696429 kcal/mol)

>  <smiles>  (14) 
CCN(CC)CCCCCNCc1ccccc1-c1ccccc1C(=O)OCCc1ccccc1

>  <score_type>  (14) 
oracle

>  <origin>  (14) 
adg

>  <m_score__min__energy>  (14) 
-7.8300000000000001

>  <m_primary>  (14) 
energy

$$$$
14:0
     RDKit          3D

 33 34  0  0  0  0  0  0  0  0999 V2000
   -5.2850   25.5270  -30.4500 C   0  0  0  0  0  0  0  0  0  0  0  0
   -3.8750   25.3350  -30.5150 O   0  0  0  0  0  0  0  0  0  0  0  0
   -3.2100   24.1730  -30.0900 C   0  0  0  0  0  0  0  0  0  0  0  0
   -3.6510   22.8860  -30.4530 C   0  0  0  0  0  0  0  0  0  0  0  0
   -2.9630   21.7540  -30.0130 C   0  0  0  0  0  0  0  0  0  0  0  0
   -1.8270   21.8810  -29.1990 C   0  0  0  0  0  0  0  0  0  0  0  0
   -1.0430   20.6610  -28.7840 C   0  0  0  0  0  0  0  0  0  0  0  0
   -1.8320   19.8060  -28.0350 F   0  0  0  0  0  0  0  0  0  0  0  0
    0.0420   21.0540  -28.0250 F   0  0  0  0  0  0  0  0  0  0  0  0
   -0.5890   19.9690  -29.8940 F   0  0  0  0  0  0  0  0  0  0  0  0
   -1.3700   23.1660  -28.8610 C   0  0  0  0  0  0  0  0  0  0  0  0
   -2.0740   24.3110  -29.2780 C   0  0  0  0  0  0  0  0  0  0  0  0
   -1.6200   25.6330  -28.9470 N   0  0  0  0  0  0  0  0  0  0  0  0
   -1.0330   26.0480  -27.7080 C   0  0  0  0  0  0  0  0  0  0  0  0
    0.1950   26.3230  -27.6340 O   0  0  0  0  0  0  0  0  0  0  0  0
   -1.8650   26.0450  -26.4670 C   0  0  0  0  0  0  0  0  0  0  0  0
   -1.0330   26.3640  -25.3110 N   0  0  0  0  0  0  0  0  0  0  0  0
   -0.7280   27.5920  -24.8490 C   0  0  0  0  0  0  0  0  0  0  0  0
    0.0060   27.4440  -23.6920 C   0  0  0  0  0  0  0  0  0  0  0  0
    0.1450   26.1290  -23.4350 N   0  0  0  0  0  0  0  0  0  0  0  0
   -0.5030   25.4930  -24.4300 C   0  0  0  0  0  0  0  0  0  0  0  0
   -5.6010   25.5700  -29.3973 H   0  0  0  0  0  0  0  0  0  0  0  0
   -5.5502   26.4695  -30.9513 H   0  0  0  0  0  0  0  0  0  0  0  0
   -5.7926   24.6897  -30.9513 H   0  0  0  0  0  0  0  0  0  0  0  0
   -4.5427   22.7720  -31.0869 H   0  0  0  0  0  0  0  0  0  0  0  0
   -3.3143   20.7539  -30.3068 H   0  0  0  0  0  0  0  0  0  0  0  0
   -0.4527   23.2781  -28.2644 H   0  0  0  0  0  0  0  0  0  0  0  0
   -2.6628   26.7965  -26.5608 H   0  0  0  0  0  0  0  0  0  0  0  0
   -2.3083   25.0476  -26.3303 H   0  0  0  0  0  0  0  0  0  0  0  0
   -1.0148   28.5466  -25.3142 H   0  0  0  0  0  0  0  0  0  0  0  0
    0.4110   28.2635  -23.0801 H   0  0  0  0  0  0  0  0  0  0  0  0
    0.6380   25.6930  -22.6260 H   0  0  0  0  0  0  0  0  0  0  0  0
   -0.5888   24.3995  -24.5130 H   0  0  0  0  0  0  0  0  0  0  0  0
  1  2  1  0
  2  3  1  0
  3  4  2  0
  4  5  1  0
  5  6  2  0
  6  7  1  0
  7  8  1  0
  7  9  1  0
  7 10  1  0
  6 11  1  0
 11 12  2  0
 12 13  1  0
 13 14  1  0
 14 15  2  0
 14 16  1  0
 16 17  1  0
 17 18  1  0
 18 19  2  0
 19 20  1  0
 20 21  2  0
 12  3  1  0
 21 17  1  0
  1 22  1  0
  1 23  1  0
  1 24  1  0
  4 25  1  0
  5 26  1  0
 11 27  1  0
 16 28  1  0
 16 29  1  0
 18 30  1  0
 19 31  1  0
 20 32  1  0
 21 33  1  0
M  CHG  2  13  -1  20   1
M  END
>  <UniqueID>  (15) 
15

>  <SMILES>  (15) 
COc1ccc(C(F)(F)F)cc1[N-]C(=O)Cn1cc[nH+]c1

>  <Energy>  (15) 
64.40571435892267

>  <Genealogy>  (15) 
COc1ccc(C(F)(F)F)cc1[N-]C(=O)Cn1cc[nH+]c1 (protonated)
COc1ccc(C(F)(F)F)cc1[N-]C(=O)Cn1cc[nH+]c1 (3D coordinates assigned)
COc1ccc(C(F)(F)F)cc1[N-]C(=O)Cn1cc[nH+]c1 (optimized conformer: 64.40571435892267 kcal/mol)

>  <smiles>  (15) 
COc1ccc(C(F)(F)F)cc1NC(=O)Cn1ccnc1

>  <score_type>  (15) 
oracle

>  <origin>  (15) 
adg

>  <m_score__min__energy>  (15) 
-8.1300000000000008

>  <m_primary>  (15) 
energy

$$$$
15:0
     RDKit          3D

 49 52  0  0  0  0  0  0  0  0999 V2000
   -7.3980   17.8380  -32.2510 C   0  0  0  0  0  0  0  0  0  0  0  0
   -8.3380   18.5920  -32.2830 C   0  0  0  0  0  0  0  0  0  0  0  0
   -9.4850   19.5150  -32.3190 C   0  0  0  0  0  0  0  0  0  0  0  0
   -9.0570   20.9170  -32.4410 N   0  0  0  0  0  0  0  0  0  0  0  0
   -8.4290   21.4360  -31.2160 C   0  0  0  0  0  0  0  0  0  0  0  0
   -6.9900   21.8350  -31.4750 C   0  0  0  0  0  0  0  0  0  0  0  0
   -6.1670   20.8860  -32.1110 C   0  0  0  0  0  0  0  0  0  0  0  0
   -4.8190   21.1560  -32.3920 C   0  0  0  0  0  0  0  0  0  0  0  0
   -3.9740   20.1400  -33.0690 C   0  0  0  0  0  0  0  0  0  0  0  0
   -4.5440   18.9900  -33.6370 C   0  0  0  0  0  0  0  0  0  0  0  0
   -3.7380   18.0420  -34.2700 C   0  0  0  0  0  0  0  0  0  0  0  0
   -2.3520   18.2500  -34.3460 C   0  0  0  0  0  0  0  0  0  0  0  0
   -1.4870   17.2870  -34.9780 N   0  0  0  0  0  0  0  0  0  0  0  0
   -2.0260   15.9600  -35.2960 C   0  0  0  0  0  0  0  0  0  0  0  0
   -0.9930   15.1230  -36.0500 C   0  0  0  0  0  0  0  0  0  0  0  0
   -0.2990   15.9500  -36.9580 O   0  0  0  0  0  0  0  0  0  0  0  0
    0.6020   16.7890  -36.2570 C   0  0  0  0  0  0  0  0  0  0  0  0
   -0.0340   17.5130  -35.0460 C   0  0  0  0  0  0  0  0  0  0  0  0
   -1.8170   19.3630  -33.7730 N   0  0  0  0  0  0  0  0  0  0  0  0
   -2.5810   20.3000  -33.1520 C   0  0  0  0  0  0  0  0  0  0  0  0
   -4.2810   22.3970  -32.0240 C   0  0  0  0  0  0  0  0  0  0  0  0
   -5.0670   23.3520  -31.3790 C   0  0  0  0  0  0  0  0  0  0  0  0
   -4.5100   24.5420  -31.0270 N   0  0  0  0  0  0  0  0  0  0  0  0
   -5.2180   25.5070  -30.3900 C   0  0  0  0  0  0  0  0  0  0  0  0
   -6.5560   25.2940  -30.0700 C   0  0  0  0  0  0  0  0  0  0  0  0
   -7.1630   24.0870  -30.4160 C   0  0  0  0  0  0  0  0  0  0  0  0
   -6.4310   23.0840  -31.0870 C   0  0  0  0  0  0  0  0  0  0  0  0
   -6.5402   17.1500  -32.2218 H   0  0  0  0  0  0  0  0  0  0  0  0
  -10.1194   19.2605  -33.1809 H   0  0  0  0  0  0  0  0  0  0  0  0
  -10.0383   19.4084  -31.3743 H   0  0  0  0  0  0  0  0  0  0  0  0
   -9.8920   21.5080  -32.6670 H   0  0  0  0  0  0  0  0  0  0  0  0
   -8.9900   22.3160  -30.8684 H   0  0  0  0  0  0  0  0  0  0  0  0
   -8.4430   20.6456  -30.4511 H   0  0  0  0  0  0  0  0  0  0  0  0
   -6.5903   19.9109  -32.3940 H   0  0  0  0  0  0  0  0  0  0  0  0
   -5.6317   18.8348  -33.5831 H   0  0  0  0  0  0  0  0  0  0  0  0
   -4.1865   17.1374  -34.7066 H   0  0  0  0  0  0  0  0  0  0  0  0
   -2.2944   15.4459  -34.3613 H   0  0  0  0  0  0  0  0  0  0  0  0
   -2.9143   16.0828  -35.9330 H   0  0  0  0  0  0  0  0  0  0  0  0
   -0.2819   14.6843  -35.3345 H   0  0  0  0  0  0  0  0  0  0  0  0
   -1.5007   14.3162  -36.5989 H   0  0  0  0  0  0  0  0  0  0  0  0
    1.4380   16.1734  -35.8934 H   0  0  0  0  0  0  0  0  0  0  0  0
    0.9289   17.5682  -36.9613 H   0  0  0  0  0  0  0  0  0  0  0  0
    0.4290   17.1362  -34.1220 H   0  0  0  0  0  0  0  0  0  0  0  0
    0.1399   18.5929  -35.1622 H   0  0  0  0  0  0  0  0  0  0  0  0
   -2.1056   21.1889  -32.7118 H   0  0  0  0  0  0  0  0  0  0  0  0
   -3.2271   22.6203  -32.2464 H   0  0  0  0  0  0  0  0  0  0  0  0
   -4.7347   26.4592  -30.1258 H   0  0  0  0  0  0  0  0  0  0  0  0
   -7.1309   26.0728  -29.5475 H   0  0  0  0  0  0  0  0  0  0  0  0
   -8.2199   23.9155  -30.1641 H   0  0  0  0  0  0  0  0  0  0  0  0
  1  2  3  0
  2  3  1  0
  3  4  1  0
  4  5  1  0
  5  6  1  0
  6  7  2  0
  7  8  1  0
  8  9  1  0
  9 10  2  0
 10 11  1  0
 11 12  2  0
 12 13  1  0
 13 14  1  0
 14 15  1  0
 15 16  1  0
 16 17  1  0
 17 18  1  0
 12 19  1  0
 19 20  2  0
  8 21  2  0
 21 22  1  0
 22 23  2  0
 23 24  1  0
 24 25  2  0
 25 26  1  0
 26 27  2  0
 27  6  1  0
 20  9  1  0
 27 22  1  0
 18 13  1  0
  1 28  1  0
  3 29  1  0
  3 30  1  0
  4 31  1  0
  5 32  1  0
  5 33  1  0
  7 34  1  0
 10 35  1  0
 11 36  1  0
 14 37  1  0
 14 38  1  0
 15 39  1  0
 15 40  1  0
 17 41  1  0
 17 42  1  0
 18 43  1  0
 18 44  1  0
 20 45  1  0
 21 46  1  0
 24 47  1  0
 25 48  1  0
 26 49  1  0
M  END
>  <UniqueID>  (16) 
16

>  <SMILES>  (16) 
C#CCNCc1cc(-c2ccc(N3CCOCC3)nc2)cc2ncccc12

>  <Energy>  (16) 
72.9786017415569

>  <Genealogy>  (16) 
C#CCNCc1cc(-c2ccc(N3CCOCC3)nc2)cc2ncccc12 (3D coordinates assigned)
C#CCNCc1cc(-c2ccc(N3CCOCC3)nc2)cc2ncccc12 (nonaromatic ring conformer: 72.9786017415569 kcal/mol)

>  <smiles>  (16) 
C#CCNCc1cc(-c2ccc(N3CCOCC3)nc2)cc2ncccc12

>  <score_type>  (16) 
oracle

>  <origin>  (16) 
adg

>  <m_score__min__energy>  (16) 
-8.2300000000000004

>  <m_primary>  (16) 
energy

$$$$
16:0
     RDKit          3D

 61 65  0  0  0  0  0  0  0  0999 V2000
   -3.1100   22.9140  -27.9160 C   0  0  0  0  0  0  0  0  0  0  0  0
   -2.6090   23.4940  -29.2470 C   0  0  0  0  0  0  0  0  0  0  0  0
   -3.6620   23.6420  -30.2810 N   0  0  0  0  0  0  0  0  0  0  0  0
   -4.8920   24.3110  -29.7960 C   0  0  0  0  0  0  0  0  0  0  0  0
   -5.4430   25.2950  -30.8290 C   0  0  0  0  0  0  0  0  0  0  0  0
   -3.9660   22.3610  -30.9610 C   0  0  0  0  0  0  0  0  0  0  0  0
   -3.2750   22.3170  -32.3320 C   0  0  0  0  0  0  0  0  0  0  0  0
   -4.2010   21.9750  -33.4300 N   0  0  0  0  0  0  0  0  0  0  0  0
   -5.1800   20.9780  -33.0350 C   0  0  0  0  0  0  0  0  0  0  0  0
   -4.8320   19.6210  -33.0610 C   0  0  0  0  0  0  0  0  0  0  0  0
   -5.7200   18.6430  -32.6760 C   0  0  0  0  0  0  0  0  0  0  0  0
   -7.0270   18.9220  -32.3740 N   0  0  0  0  0  0  0  0  0  0  0  0
   -8.0220   17.8380  -32.3240 C   0  0  0  0  0  0  0  0  0  0  0  0
   -7.3940   20.2470  -32.2090 C   0  0  0  0  0  0  0  0  0  0  0  0
   -8.6570   20.5920  -31.6680 C   0  0  0  0  0  0  0  0  0  0  0  0
   -9.0510   21.9230  -31.5520 C   0  0  0  0  0  0  0  0  0  0  0  0
   -8.2010   22.9410  -31.9620 C   0  0  0  0  0  0  0  0  0  0  0  0
   -6.9370   22.6430  -32.4640 C   0  0  0  0  0  0  0  0  0  0  0  0
   -6.4920   21.3050  -32.5730 C   0  0  0  0  0  0  0  0  0  0  0  0
   -5.0100   17.3620  -32.7810 C   0  0  0  0  0  0  0  0  0  0  0  0
   -5.3690   16.0960  -32.3020 C   0  0  0  0  0  0  0  0  0  0  0  0
   -4.4680   15.0320  -32.4740 C   0  0  0  0  0  0  0  0  0  0  0  0
   -4.8050   13.7410  -32.0400 C   0  0  0  0  0  0  0  0  0  0  0  0
   -3.9070   12.6840  -32.2120 C   0  0  0  0  0  0  0  0  0  0  0  0
   -2.6660   12.9070  -32.8140 C   0  0  0  0  0  0  0  0  0  0  0  0
   -2.3120   14.1880  -33.2460 C   0  0  0  0  0  0  0  0  0  0  0  0
   -3.2040   15.2630  -33.0800 C   0  0  0  0  0  0  0  0  0  0  0  0
   -2.8680   16.5740  -33.4740 C   0  0  0  0  0  0  0  0  0  0  0  0
   -1.7380   16.8300  -33.9750 O   0  0  0  0  0  0  0  0  0  0  0  0
   -3.7770   17.5720  -33.2950 N   0  0  0  0  0  0  0  0  0  0  0  0
   -3.5490   18.9960  -33.5340 C   0  0  0  0  0  0  0  0  0  0  0  0
   -2.6421   23.4557  -27.0807 H   0  0  0  0  0  0  0  0  0  0  0  0
   -4.2030   23.0226  -27.8570 H   0  0  0  0  0  0  0  0  0  0  0  0
   -2.8437   21.8484  -27.8570 H   0  0  0  0  0  0  0  0  0  0  0  0
   -2.1772   24.4863  -29.0500 H   0  0  0  0  0  0  0  0  0  0  0  0
   -1.8731   22.7802  -29.6455 H   0  0  0  0  0  0  0  0  0  0  0  0
   -5.6556   23.5469  -29.5882 H   0  0  0  0  0  0  0  0  0  0  0  0
   -4.6408   24.8738  -28.8849 H   0  0  0  0  0  0  0  0  0  0  0  0
   -5.9173   26.1421  -30.3119 H   0  0  0  0  0  0  0  0  0  0  0  0
   -4.6203   25.6641  -31.4590 H   0  0  0  0  0  0  0  0  0  0  0  0
   -6.1876   24.7865  -31.4590 H   0  0  0  0  0  0  0  0  0  0  0  0
   -3.6037   21.5259  -30.3435 H   0  0  0  0  0  0  0  0  0  0  0  0
   -5.0536   22.2763  -31.1020 H   0  0  0  0  0  0  0  0  0  0  0  0
   -2.8373   23.3052  -32.5366 H   0  0  0  0  0  0  0  0  0  0  0  0
   -2.5070   21.5306  -32.2901 H   0  0  0  0  0  0  0  0  0  0  0  0
   -4.6360   22.8320  -33.8320 H   0  0  0  0  0  0  0  0  0  0  0  0
   -3.6290   21.5860  -34.2160 H   0  0  0  0  0  0  0  0  0  0  0  0
   -8.2460   17.5940  -31.2751 H   0  0  0  0  0  0  0  0  0  0  0  0
   -8.9434   18.1624  -32.8298 H   0  0  0  0  0  0  0  0  0  0  0  0
   -7.6200   16.9477  -32.8298 H   0  0  0  0  0  0  0  0  0  0  0  0
   -9.3380   19.7954  -31.3339 H   0  0  0  0  0  0  0  0  0  0  0  0
  -10.0386   22.1681  -31.1343 H   0  0  0  0  0  0  0  0  0  0  0  0
   -8.5279   23.9888  -31.8899 H   0  0  0  0  0  0  0  0  0  0  0  0
   -6.2738   23.4614  -32.7809 H   0  0  0  0  0  0  0  0  0  0  0  0
   -6.3359   15.9381  -31.8017 H   0  0  0  0  0  0  0  0  0  0  0  0
   -5.7794   13.5602  -31.5627 H   0  0  0  0  0  0  0  0  0  0  0  0
   -4.1780   11.6734  -31.8724 H   0  0  0  0  0  0  0  0  0  0  0  0
   -1.9645   12.0705  -32.9485 H   0  0  0  0  0  0  0  0  0  0  0  0
   -1.3325   14.3563  -33.7175 H   0  0  0  0  0  0  0  0  0  0  0  0
   -2.6909   19.3633  -32.9520 H   0  0  0  0  0  0  0  0  0  0  0  0
   -3.3105   19.2296  -34.5821 H   0  0  0  0  0  0  0  0  0  0  0  0
  1  2  1  0
  2  3  1  0
  3  4  1  0
  4  5  1  0
  3  6  1  0
  6  7  1  0
  7  8  1  0
  8  9  1  0
  9 10  2  0
 10 11  1  0
 11 12  2  0
 12 13  1  0
 12 14  1  0
 14 15  2  0
 15 16  1  0
 16 17  2  0
 17 18  1  0
 18 19  2  0
 11 20  1  0
 20 21  2  0
 21 22  1  0
 22 23  2  0
 23 24  1  0
 24 25  2  0
 25 26  1  0
 26 27  2  0
 27 28  1  0
 28 29  2  0
 28 30  1  0
 30 31  1  0
 19  9  1  0
 30 20  1  0
 31 10  1  0
 19 14  1  0
 27 22  1  0
  1 32  1  0
  1 33  1  0
  1 34  1  0
  2 35  1  0
  2 36  1  0
  4 37  1  0
  4 38  1  0
  5 39  1  0
  5 40  1  0
  5 41  1  0
  6 42  1  0
  6 43  1  0
  7 44  1  0
  7 45  1  0
  8 46  1  0
  8 47  1  0
 13 48  1  0
 13 49  1  0
 13 50  1  0
 15 51  1  0
 16 52  1  0
 17 53  1  0
 18 54  1  0
 21 55  1  0
 23 56  1  0
 24 57  1  0
 25 58  1  0
 26 59  1  0
 31 60  1  0
 31 61  1  0
M  CHG  2   8   1  12   1
M  END
>  <UniqueID>  (17) 
17

>  <SMILES>  (17) 
CCN(CC)CC[NH2+]c1c2c([n+](C)c3ccccc13)-c1cc3ccccc3c(=O)n1C2

>  <Energy>  (17) 
116.66553906578402

>  <Genealogy>  (17) 
CCN(CC)CC[NH2+]c1c2c([n+](C)c3ccccc13)-c1cc3ccccc3c(=O)n1C2 (protonated)
CCN(CC)CC[NH2+]c1c2c([n+](C)c3ccccc13)-c1cc3ccccc3c(=O)n1C2 (3D coordinates assigned)
CCN(CC)CC[NH2+]c1c2c([n+](C)c3ccccc13)-c1cc3ccccc3c(=O)n1C2 (nonaromatic ring conformer: 116.66553906578402 kcal/mol)

>  <smiles>  (17) 
CCN(CC)CCNc1c2c([n+](C)c3ccccc13)-c1cc3ccccc3c(=O)n1C2

>  <score_type>  (17) 
oracle

>  <origin>  (17) 
adg

>  <m_score__min__energy>  (17) 
-8.9199999999999999

>  <m_primary>  (17) 
energy

$$$$
17:0
     RDKit          3D

 51 52  0  0  0  0  0  0  0  0999 V2000
   -2.3220   20.5330  -30.4660 C   0  0  0  0  0  0  0  0  0  0  0  0
   -3.8000   20.4640  -30.8260 C   0  0  0  0  0  0  0  0  0  0  0  0
   -4.2700   21.7740  -31.2970 N   0  0  0  0  0  0  0  0  0  0  0  0
   -4.0540   22.1800  -32.6940 C   0  0  0  0  0  0  0  0  0  0  0  0
   -3.1920   21.1750  -33.4610 C   0  0  0  0  0  0  0  0  0  0  0  0
   -4.4890   22.8050  -30.3200 C   0  0  0  0  0  0  0  0  0  0  0  0
   -3.5700   22.9670  -29.3330 N   0  0  0  0  0  0  0  0  0  0  0  0
   -3.6950   23.9320  -28.3910 C   0  0  0  0  0  0  0  0  0  0  0  0
   -2.6450   24.0800  -27.3380 C   0  0  0  0  0  0  0  0  0  0  0  0
   -4.7500   24.7870  -28.4330 N   0  0  0  0  0  0  0  0  0  0  0  0
   -5.7070   24.6850  -29.4000 C   0  0  0  0  0  0  0  0  0  0  0  0
   -6.8620   25.6520  -29.3850 C   0  0  0  0  0  0  0  0  0  0  0  0
   -5.6090   23.6640  -30.3800 C   0  0  0  0  0  0  0  0  0  0  0  0
   -6.6880   23.4780  -31.4320 C   0  0  0  0  0  0  0  0  0  0  0  0
   -7.6780   22.4870  -30.9840 N   0  0  0  0  0  0  0  0  0  0  0  0
   -8.8940   22.5140  -31.8130 C   0  0  0  0  0  0  0  0  0  0  0  0
   -9.4900   21.1130  -32.0110 C   0  0  0  0  0  0  0  0  0  0  0  0
   -8.4330   20.0970  -32.3430 C   0  0  0  0  0  0  0  0  0  0  0  0
   -8.6010   18.7470  -31.9960 C   0  0  0  0  0  0  0  0  0  0  0  0
   -7.6110   17.8250  -32.3360 C   0  0  0  0  0  0  0  0  0  0  0  0
   -6.4650   18.2530  -33.0110 C   0  0  0  0  0  0  0  0  0  0  0  0
   -6.3300   19.6040  -33.3370 C   0  0  0  0  0  0  0  0  0  0  0  0
   -7.3070   20.4870  -33.0010 N   0  0  0  0  0  0  0  0  0  0  0  0
   -2.2110   20.5382  -29.3716 H   0  0  0  0  0  0  0  0  0  0  0  0
   -1.8018   19.6582  -30.8832 H   0  0  0  0  0  0  0  0  0  0  0  0
   -1.8855   21.4525  -30.8832 H   0  0  0  0  0  0  0  0  0  0  0  0
   -3.9456   19.7184  -31.6215 H   0  0  0  0  0  0  0  0  0  0  0  0
   -4.3737   20.1773  -29.9324 H   0  0  0  0  0  0  0  0  0  0  0  0
   -5.0304   22.2634  -33.1937 H   0  0  0  0  0  0  0  0  0  0  0  0
   -3.5241   23.1439  -32.6876 H   0  0  0  0  0  0  0  0  0  0  0  0
   -2.6470   20.5396  -32.7474 H   0  0  0  0  0  0  0  0  0  0  0  0
   -3.8364   20.5467  -34.0935 H   0  0  0  0  0  0  0  0  0  0  0  0
   -2.4729   21.7162  -34.0935 H   0  0  0  0  0  0  0  0  0  0  0  0
   -3.1110   24.0143  -26.3437 H   0  0  0  0  0  0  0  0  0  0  0  0
   -1.9002   23.2780  -27.4476 H   0  0  0  0  0  0  0  0  0  0  0  0
   -2.1509   25.0567  -27.4476 H   0  0  0  0  0  0  0  0  0  0  0  0
   -4.8240   25.5330  -27.7050 H   0  0  0  0  0  0  0  0  0  0  0  0
   -7.1352   25.8807  -28.3443 H   0  0  0  0  0  0  0  0  0  0  0  0
   -6.5705   26.5793  -29.8999 H   0  0  0  0  0  0  0  0  0  0  0  0
   -7.7236   25.2020  -29.8999 H   0  0  0  0  0  0  0  0  0  0  0  0
   -7.1922   24.4397  -31.6075 H   0  0  0  0  0  0  0  0  0  0  0  0
   -6.2211   23.1198  -32.3614 H   0  0  0  0  0  0  0  0  0  0  0  0
   -7.2570   21.5360  -31.0930 H   0  0  0  0  0  0  0  0  0  0  0  0
   -9.6436   23.1521  -31.3222 H   0  0  0  0  0  0  0  0  0  0  0  0
   -8.6202   22.9083  -32.8027 H   0  0  0  0  0  0  0  0  0  0  0  0
   -9.9979   20.8082  -31.0841 H   0  0  0  0  0  0  0  0  0  0  0  0
  -10.1962   21.1584  -32.8531 H   0  0  0  0  0  0  0  0  0  0  0  0
   -9.5047   18.4195  -31.4611 H   0  0  0  0  0  0  0  0  0  0  0  0
   -7.7322   16.7637  -32.0734 H   0  0  0  0  0  0  0  0  0  0  0  0
   -5.6781   17.5339  -33.2825 H   0  0  0  0  0  0  0  0  0  0  0  0
   -5.4316   19.9541  -33.8665 H   0  0  0  0  0  0  0  0  0  0  0  0
  1  2  1  0
  2  3  1  0
  3  4  1  0
  4  5  1  0
  3  6  1  0
  6  7  2  0
  7  8  1  0
  8  9  1  0
  8 10  2  0
 10 11  1  0
 11 12  1  0
 11 13  2  0
 13 14  1  0
 14 15  1  0
 15 16  1  0
 16 17  1  0
 17 18  1  0
 18 19  2  0
 19 20  1  0
 20 21  2  0
 21 22  1  0
 22 23  2  0
 13  6  1  0
 23 18  1  0
  1 24  1  0
  1 25  1  0
  1 26  1  0
  2 27  1  0
  2 28  1  0
  4 29  1  0
  4 30  1  0
  5 31  1  0
  5 32  1  0
  5 33  1  0
  9 34  1  0
  9 35  1  0
  9 36  1  0
 10 37  1  0
 12 38  1  0
 12 39  1  0
 12 40  1  0
 14 41  1  0
 14 42  1  0
 15 43  1  0
 16 44  1  0
 16 45  1  0
 17 46  1  0
 17 47  1  0
 19 48  1  0
 20 49  1  0
 21 50  1  0
 22 51  1  0
M  CHG  1  10   1
M  END
>  <UniqueID>  (18) 
18

>  <SMILES>  (18) 
CCN(CC)c1nc(C)[nH+]c(C)c1CNCCc1ccccn1

>  <Energy>  (18) 
47.0035005805669

>  <Genealogy>  (18) 
CCN(CC)c1nc(C)[nH+]c(C)c1CNCCc1ccccn1 (protonated)
CCN(CC)c1nc(C)[nH+]c(C)c1CNCCc1ccccn1 (3D coordinates assigned)
CCN(CC)c1nc(C)[nH+]c(C)c1CNCCc1ccccn1 (optimized conformer: 47.0035005805669 kcal/mol)

>  <smiles>  (18) 
CCN(CC)c1nc(C)nc(C)c1CNCCc1ccccn1

>  <score_type>  (18) 
oracle

>  <origin>  (18) 
adg

>  <m_score__min__energy>  (18) 
-6.79

>  <m_primary>  (18) 
energy

$$$$
18:0
     RDKit          3D

 60 64  0  0  0  0  0  0  0  0999 V2000
    0.0700   18.6870  -30.5320 C   0  0  0  0  0  0  0  0  0  0  0  0
   -1.0320   19.6230  -30.9440 C   0  0  0  0  0  0  0  0  0  0  0  0
   -1.5430   20.6610  -30.1620 C   0  0  0  0  0  0  0  0  0  0  0  0
   -1.1710   21.0150  -28.7460 C   0  0  0  0  0  0  0  0  0  0  0  0
   -1.8160   20.0660  -27.7690 C   0  0  0  0  0  0  0  0  0  0  0  0
   -1.1270   18.9450  -27.2870 C   0  0  0  0  0  0  0  0  0  0  0  0
   -1.7250   18.1040  -26.4050 N   0  0  0  0  0  0  0  0  0  0  0  0
   -2.9940   18.3270  -25.9770 C   0  0  0  0  0  0  0  0  0  0  0  0
   -3.6890   19.4020  -26.4350 N   0  0  0  0  0  0  0  0  0  0  0  0
   -3.1280   20.2690  -27.3200 C   0  0  0  0  0  0  0  0  0  0  0  0
   -2.5370   21.2420  -30.9250 C   0  0  0  0  0  0  0  0  0  0  0  0
   -3.4020   22.2990  -30.6330 C   0  0  0  0  0  0  0  0  0  0  0  0
   -4.3550   22.6620  -31.5980 C   0  0  0  0  0  0  0  0  0  0  0  0
   -5.4630   23.9820  -31.2720 S   0  0  0  0  0  0  0  0  0  0  0  0
   -6.6790   23.5410  -30.0530 C   0  0  0  0  0  0  0  0  0  0  0  0
   -4.6320   25.3800  -30.8470 O   0  0  0  0  0  0  0  0  0  0  0  0
   -4.4290   21.9620  -32.8210 C   0  0  0  0  0  0  0  0  0  0  0  0
   -3.5470   20.9030  -33.0900 C   0  0  0  0  0  0  0  0  0  0  0  0
   -2.5890   20.5660  -32.1210 C   0  0  0  0  0  0  0  0  0  0  0  0
   -1.6520   19.5810  -32.1570 N   0  0  0  0  0  0  0  0  0  0  0  0
   -1.3520   18.6060  -33.2320 C   0  0  0  0  0  0  0  0  0  0  0  0
   -2.5920   17.8140  -33.6220 C   0  0  0  0  0  0  0  0  0  0  0  0
   -3.4990   18.2830  -34.5920 C   0  0  0  0  0  0  0  0  0  0  0  0
   -4.6140   17.5200  -34.9480 C   0  0  0  0  0  0  0  0  0  0  0  0
   -4.8330   16.2770  -34.3500 C   0  0  0  0  0  0  0  0  0  0  0  0
   -3.9350   15.7940  -33.3980 C   0  0  0  0  0  0  0  0  0  0  0  0
   -2.8190   16.5530  -33.0370 C   0  0  0  0  0  0  0  0  0  0  0  0
   -0.6030   19.2370  -34.3980 C   0  0  0  0  0  0  0  0  0  0  0  0
   -0.0500   18.3920  -35.3790 C   0  0  0  0  0  0  0  0  0  0  0  0
    0.6400   18.9240  -36.4710 C   0  0  0  0  0  0  0  0  0  0  0  0
    0.7800   20.3060  -36.6060 C   0  0  0  0  0  0  0  0  0  0  0  0
    0.2240   21.1600  -35.6520 C   0  0  0  0  0  0  0  0  0  0  0  0
   -0.4680   20.6340  -34.5550 C   0  0  0  0  0  0  0  0  0  0  0  0
    0.1221   18.6427  -29.4341 H   0  0  0  0  0  0  0  0  0  0  0  0
   -0.1344   17.6822  -30.9302 H   0  0  0  0  0  0  0  0  0  0  0  0
    1.0285   19.0513  -30.9302 H   0  0  0  0  0  0  0  0  0  0  0  0
   -0.0780   20.9583  -28.6355 H   0  0  0  0  0  0  0  0  0  0  0  0
   -1.5255   22.0343  -28.5331 H   0  0  0  0  0  0  0  0  0  0  0  0
   -0.0990   18.7460  -27.6242 H   0  0  0  0  0  0  0  0  0  0  0  0
   -3.4605   17.6369  -25.2586 H   0  0  0  0  0  0  0  0  0  0  0  0
   -4.6670   19.5630  -26.1040 H   0  0  0  0  0  0  0  0  0  0  0  0
   -3.7053   21.1316  -27.6842 H   0  0  0  0  0  0  0  0  0  0  0  0
   -3.3383   22.8325  -29.6732 H   0  0  0  0  0  0  0  0  0  0  0  0
   -6.2612   23.6925  -29.0468 H   0  0  0  0  0  0  0  0  0  0  0  0
   -7.5704   24.1731  -30.1789 H   0  0  0  0  0  0  0  0  0  0  0  0
   -6.9580   22.4844  -30.1789 H   0  0  0  0  0  0  0  0  0  0  0  0
   -4.1800   25.6710  -31.6790 H   0  0  0  0  0  0  0  0  0  0  0  0
   -5.1831   22.2480  -33.5691 H   0  0  0  0  0  0  0  0  0  0  0  0
   -3.6055   20.3498  -34.0390 H   0  0  0  0  0  0  0  0  0  0  0  0
   -0.6454   17.8634  -32.8330 H   0  0  0  0  0  0  0  0  0  0  0  0
   -3.3283   19.2574  -35.0730 H   0  0  0  0  0  0  0  0  0  0  0  0
   -5.3208   17.8991  -35.7008 H   0  0  0  0  0  0  0  0  0  0  0  0
   -5.7131   15.6792  -34.6295 H   0  0  0  0  0  0  0  0  0  0  0  0
   -4.1060   14.8131  -32.9304 H   0  0  0  0  0  0  0  0  0  0  0  0
   -2.1121   16.1627  -32.2900 H   0  0  0  0  0  0  0  0  0  0  0  0
   -0.1624   17.3018  -35.2847 H   0  0  0  0  0  0  0  0  0  0  0  0
    1.0739   18.2521  -37.2262 H   0  0  0  0  0  0  0  0  0  0  0  0
    1.3283   20.7222  -37.4640 H   0  0  0  0  0  0  0  0  0  0  0  0
    0.3300   22.2493  -35.7627 H   0  0  0  0  0  0  0  0  0  0  0  0
   -0.9094   21.3129  -33.8105 H   0  0  0  0  0  0  0  0  0  0  0  0
  1  2  1  0
  2  3  2  0
  3  4  1  0
  4  5  1  0
  5  6  2  0
  6  7  1  0
  7  8  2  0
  8  9  1  0
  9 10  2  0
  3 11  1  0
 11 12  2  0
 12 13  1  0
 13 14  1  0
 14 15  1  0
 14 16  1  1
 13 17  2  0
 17 18  1  0
 18 19  2  0
 19 20  1  0
 20 21  1  0
 21 22  1  0
 22 23  2  0
 23 24  1  0
 24 25  2  0
 25 26  1  0
 26 27  2  0
 21 28  1  0
 28 29  2  0
 29 30  1  0
 30 31  2  0
 31 32  1  0
 32 33  2  0
 20  2  1  0
 27 22  1  0
 33 28  1  0
 10  5  1  0
 19 11  1  0
  1 34  1  0
  1 35  1  0
  1 36  1  0
  4 37  1  0
  4 38  1  0
  6 39  1  0
  8 40  1  0
  9 41  1  0
 10 42  1  0
 12 43  1  0
 15 44  1  0
 15 45  1  0
 15 46  1  0
 16 47  1  0
 17 48  1  0
 18 49  1  0
 21 50  1  0
 23 51  1  0
 24 52  1  0
 25 53  1  0
 26 54  1  0
 27 55  1  0
 29 56  1  0
 30 57  1  0
 31 58  1  0
 32 59  1  0
 33 60  1  0
M  CHG  2   9   1  14   1
M  END
>  <UniqueID>  (19) 
19

>  <SMILES>  (19) 
Cc1c(Cc2cnc[nH+]c2)c2cc([S@@+](C)O)ccc2n1C(c1ccccc1)c1ccccc1

>  <Energy>  (19) 
99.64704684112743

>  <Genealogy>  (19) 
Cc1c(Cc2cnc[nH+]c2)c2cc([S+](C)O)ccc2n1C(c1ccccc1)c1ccccc1 (protonated)
Cc1c(Cc2cnc[nH+]c2)c2cc([S@@+](C)O)ccc2n1C(c1ccccc1)c1ccccc1 (chirality)
Cc1c(Cc2cnc[nH+]c2)c2cc([S@@+](C)O)ccc2n1C(c1ccccc1)c1ccccc1 (3D coordinates assigned)
Cc1c(Cc2cnc[nH+]c2)c2cc([S@@+](C)O)ccc2n1C(c1ccccc1)c1ccccc1 (optimized conformer: 99.64704684112743 kcal/mol)

>  <smiles>  (19) 
Cc1c(Cc2cncnc2)c2cc([S+](C)[O-])ccc2n1C(c1ccccc1)c1ccccc1

>  <score_type>  (19) 
oracle

>  <origin>  (19) 
adg

>  <m_score__min__energy>  (19) 
-8.9299999999999997

>  <m_primary>  (19) 
energy

$$$$
19:0
     RDKit          3D

 35 37  0  0  0  0  0  0  0  0999 V2000
   -6.4650   25.7000  -29.0500 C   0  0  0  0  0  0  0  0  0  0  0  0
   -6.4770   25.4330  -30.4480 O   0  0  0  0  0  0  0  0  0  0  0  0
   -6.2580   24.1680  -31.0180 C   0  0  0  0  0  0  0  0  0  0  0  0
   -7.3230   23.3340  -31.4160 C   0  0  0  0  0  0  0  0  0  0  0  0
   -7.0620   22.0820  -31.9790 C   0  0  0  0  0  0  0  0  0  0  0  0
   -8.0820   21.2710  -32.3660 N   0  0  0  0  0  0  0  0  0  0  0  0
   -7.8430   20.0520  -32.9150 C   0  0  0  0  0  0  0  0  0  0  0  0
   -6.5190   19.6130  -33.0890 C   0  0  0  0  0  0  0  0  0  0  0  0
   -6.2050   18.2980  -33.6820 C   0  0  0  0  0  0  0  0  0  0  0  0
   -5.1760   18.0180  -34.5670 C   0  0  0  0  0  0  0  0  0  0  0  0
   -5.2100   16.7060  -34.8620 N   0  0  0  0  0  0  0  0  0  0  0  0
   -6.2200   16.1510  -34.2120 N   0  0  0  0  0  0  0  0  0  0  0  0
   -6.5210   14.7250  -34.2230 C   0  0  0  0  0  0  0  0  0  0  0  0
   -6.8440   17.0850  -33.4710 C   0  0  0  0  0  0  0  0  0  0  0  0
   -5.5010   20.4300  -32.7000 N   0  0  0  0  0  0  0  0  0  0  0  0
   -5.7370   21.6510  -32.1520 C   0  0  0  0  0  0  0  0  0  0  0  0
   -4.6760   22.4710  -31.7600 C   0  0  0  0  0  0  0  0  0  0  0  0
   -4.9310   23.7350  -31.1900 C   0  0  0  0  0  0  0  0  0  0  0  0
   -3.8940   24.5900  -30.7830 O   0  0  0  0  0  0  0  0  0  0  0  0
   -3.1490   24.4390  -29.5790 C   0  0  0  0  0  0  0  0  0  0  0  0
   -6.5076   24.7512  -28.4951 H   0  0  0  0  0  0  0  0  0  0  0  0
   -5.5418   26.2373  -28.7872 H   0  0  0  0  0  0  0  0  0  0  0  0
   -7.3363   26.3179  -28.7872 H   0  0  0  0  0  0  0  0  0  0  0  0
   -8.3620   23.6698  -31.2829 H   0  0  0  0  0  0  0  0  0  0  0  0
   -8.6822   19.4107  -33.2223 H   0  0  0  0  0  0  0  0  0  0  0  0
   -4.4527   18.7465  -34.9620 H   0  0  0  0  0  0  0  0  0  0  0  0
   -4.5470   16.1970  -35.4880 H   0  0  0  0  0  0  0  0  0  0  0  0
   -6.5983   14.3586  -33.1887 H   0  0  0  0  0  0  0  0  0  0  0  0
   -7.4747   14.5556  -34.7443 H   0  0  0  0  0  0  0  0  0  0  0  0
   -5.7171   14.1846  -34.7443 H   0  0  0  0  0  0  0  0  0  0  0  0
   -7.7093   16.9162  -32.8131 H   0  0  0  0  0  0  0  0  0  0  0  0
   -3.6392   22.1296  -31.8964 H   0  0  0  0  0  0  0  0  0  0  0  0
   -3.8166   24.5743  -28.7153 H   0  0  0  0  0  0  0  0  0  0  0  0
   -2.7058   23.4328  -29.5458 H   0  0  0  0  0  0  0  0  0  0  0  0
   -2.3490   25.1933  -29.5458 H   0  0  0  0  0  0  0  0  0  0  0  0
  1  2  1  0
  2  3  1  0
  3  4  2  0
  4  5  1  0
  5  6  2  0
  6  7  1  0
  7  8  2  0
  8  9  1  0
  9 10  1  0
 10 11  2  0
 11 12  1  0
 12 13  1  0
 12 14  1  0
  8 15  1  0
 15 16  2  0
 16 17  1  0
 17 18  2  0
 18 19  1  0
 19 20  1  0
 18  3  1  0
 16  5  1  0
 14  9  2  0
  1 21  1  0
  1 22  1  0
  1 23  1  0
  4 24  1  0
  7 25  1  0
 10 26  1  0
 11 27  1  0
 13 28  1  0
 13 29  1  0
 13 30  1  0
 14 31  1  0
 17 32  1  0
 20 33  1  0
 20 34  1  0
 20 35  1  0
M  CHG  1  11   1
M  END
>  <UniqueID>  (20) 
20

>  <SMILES>  (20) 
COc1cc2ncc(-c3c[nH+]n(C)c3)nc2cc1OC

>  <Energy>  (20) 
70.09444125019236

>  <Genealogy>  (20) 
COc1cc2ncc(-c3c[nH+]n(C)c3)nc2cc1OC (protonated)
COc1cc2ncc(-c3c[nH+]n(C)c3)nc2cc1OC (3D coordinates assigned)
COc1cc2ncc(-c3c[nH+]n(C)c3)nc2cc1OC (optimized conformer: 70.09444125019236 kcal/mol)

>  <smiles>  (20) 
COc1cc2ncc(-c3cnn(C)c3)nc2cc1OC

>  <score_type>  (20) 
oracle

>  <origin>  (20) 
adg

>  <m_score__min__energy>  (20) 
-6.3200000000000003

>  <m_primary>  (20) 
energy

$$$$
20:0
     RDKit          3D

 43 43  0  0  0  0  0  0  0  0999 V2000
   -3.8950   24.1380  -28.5490 C   0  0  0  0  0  0  0  0  0  0  0  0
   -3.5980   23.9090  -30.0280 C   0  0  0  0  0  0  0  0  0  0  0  0
   -4.6210   24.5610  -30.8700 N   0  0  0  0  0  0  0  0  0  0  0  0
   -5.4570   25.5400  -30.1350 C   0  0  0  0  0  0  0  0  0  0  0  0
   -6.8530   24.9650  -29.9370 C   0  0  0  0  0  0  0  0  0  0  0  0
   -5.4220   23.5960  -31.6560 C   0  0  0  0  0  0  0  0  0  0  0  0
   -4.6600   22.3000  -32.0340 C   0  0  0  0  0  0  0  0  0  0  0  0
   -5.5470   21.0750  -32.0070 C   0  0  0  0  0  0  0  0  0  0  0  0
   -5.1200   20.0600  -31.4750 O   0  0  0  0  0  0  0  0  0  0  0  0
   -6.8430   21.0690  -32.6730 N   0  0  1  0  0  0  0  0  0  0  0  0
   -6.8660   20.0300  -33.7280 C   0  0  0  0  0  0  0  0  0  0  0  0
   -6.8610   18.5940  -33.1600 C   0  0  0  0  0  0  0  0  0  0  0  0
   -7.7070   18.4460  -31.8850 C   0  0  0  0  0  0  0  0  0  0  0  0
   -8.7050   19.5900  -31.7330 C   0  0  0  0  0  0  0  0  0  0  0  0
   -7.9910   20.9670  -31.7060 C   0  0  2  0  0  0  0  0  0  0  0  0
   -9.0360   22.0710  -31.9540 C   0  0  0  0  0  0  0  0  0  0  0  0
   -3.1703   23.5792  -27.9387 H   0  0  0  0  0  0  0  0  0  0  0  0
   -3.8160   25.2112  -28.3210 H   0  0  0  0  0  0  0  0  0  0  0  0
   -4.9128   23.7887  -28.3210 H   0  0  0  0  0  0  0  0  0  0  0  0
   -2.6104   24.3298  -30.2679 H   0  0  0  0  0  0  0  0  0  0  0  0
   -3.6096   22.8276  -30.2290 H   0  0  0  0  0  0  0  0  0  0  0  0
   -5.0031   25.7474  -29.1547 H   0  0  0  0  0  0  0  0  0  0  0  0
   -5.5228   26.4739  -30.7126 H   0  0  0  0  0  0  0  0  0  0  0  0
   -7.0645   24.8779  -28.8610 H   0  0  0  0  0  0  0  0  0  0  0  0
   -7.5936   25.6313  -30.4035 H   0  0  0  0  0  0  0  0  0  0  0  0
   -6.9094   23.9704  -30.4035 H   0  0  0  0  0  0  0  0  0  0  0  0
   -6.3055   23.3167  -31.0631 H   0  0  0  0  0  0  0  0  0  0  0  0
   -5.6843   24.0963  -32.5999 H   0  0  0  0  0  0  0  0  0  0  0  0
   -4.2496   22.4156  -33.0480 H   0  0  0  0  0  0  0  0  0  0  0  0
   -3.8644   22.1519  -31.2889 H   0  0  0  0  0  0  0  0  0  0  0  0
   -6.9200   21.9790  -33.1850 H   0  0  0  0  0  0  0  0  0  0  0  0
   -7.7748   20.1646  -34.3330 H   0  0  0  0  0  0  0  0  0  0  0  0
   -5.9520   20.1499  -34.3282 H   0  0  0  0  0  0  0  0  0  0  0  0
   -7.2606   17.9133  -33.9261 H   0  0  0  0  0  0  0  0  0  0  0  0
   -5.8218   18.3506  -32.8938 H   0  0  0  0  0  0  0  0  0  0  0  0
   -8.2588   17.4956  -31.9319 H   0  0  0  0  0  0  0  0  0  0  0  0
   -7.0285   18.4661  -31.0194 H   0  0  0  0  0  0  0  0  0  0  0  0
   -9.4064   19.5675  -32.5801 H   0  0  0  0  0  0  0  0  0  0  0  0
   -9.2382   19.4588  -30.7798 H   0  0  0  0  0  0  0  0  0  0  0  0
   -7.5364   21.0917  -30.7121 H   0  0  0  0  0  0  0  0  0  0  0  0
   -9.3996   22.4551  -30.9895 H   0  0  0  0  0  0  0  0  0  0  0  0
   -8.5751   22.8906  -32.5248 H   0  0  0  0  0  0  0  0  0  0  0  0
   -9.8797   21.6558  -32.5248 H   0  0  0  0  0  0  0  0  0  0  0  0
  1  2  1  0
  2  3  1  0
  3  4  1  0
  4  5  1  0
  3  6  1  0
  6  7  1  0
  7  8  1  0
  8  9  2  0
  8 10  1  0
 10 11  1  0
 11 12  1  0
 12 13  1  0
 13 14  1  0
 14 15  1  0
 15 16  1  0
 15 10  1  0
  1 17  1  0
  1 18  1  0
  1 19  1  0
  2 20  1  0
  2 21  1  0
  4 22  1  0
  4 23  1  0
  5 24  1  0
  5 25  1  0
  5 26  1  0
  6 27  1  0
  6 28  1  0
  7 29  1  0
  7 30  1  0
 10 31  1  6
 11 32  1  0
 11 33  1  0
 12 34  1  0
 12 35  1  0
 13 36  1  0
 13 37  1  0
 14 38  1  0
 14 39  1  0
 15 40  1  1
 16 41  1  0
 16 42  1  0
 16 43  1  0
M  CHG  1  10   1
M  END
>  <UniqueID>  (21) 
21

>  <SMILES>  (21) 
CCN(CC)CCC(=O)[N@H+]1CCCC[C@@H]1C

>  <Energy>  (21) 
47.861582542525824

>  <Genealogy>  (21) 
CCN(CC)CCC(=O)[NH+]1CCCCC1C (protonated)
CCN(CC)CCC(=O)[N@H+]1CCCC[C@@H]1C (chirality)
CCN(CC)CCC(=O)[N@H+]1CCCC[C@@H]1C (3D coordinates assigned)
CCN(CC)CCC(=O)[N@H+]1CCCC[C@@H]1C (nonaromatic ring conformer: 47.861582542525824 kcal/mol)

>  <smiles>  (21) 
CCN(CC)CCC(=O)N1CCCCC1C

>  <score_type>  (21) 
oracle

>  <origin>  (21) 
adg

>  <m_score__min__energy>  (21) 
-5.9500000000000002

>  <m_primary>  (21) 
energy

$$$$
21:0
     RDKit          3D

 48 51  0  0  0  0  0  0  0  0999 V2000
   -1.2220   27.1950  -24.1070 C   0  0  0  0  0  0  0  0  0  0  0  0
   -0.4490   26.1640  -23.2750 C   0  0  0  0  0  0  0  0  0  0  0  0
    0.4400   25.3130  -24.1040 N   0  0  0  0  0  0  0  0  0  0  0  0
    0.8560   26.0190  -25.3530 C   0  0  0  0  0  0  0  0  0  0  0  0
    1.1060   25.0640  -26.5260 C   0  0  0  0  0  0  0  0  0  0  0  0
   -0.1100   24.2910  -26.7950 N   0  0  0  0  0  0  0  0  0  0  0  0
   -0.3960   23.8440  -28.1380 C   0  0  0  0  0  0  0  0  0  0  0  0
    0.5370   23.8040  -28.9890 O   0  0  0  0  0  0  0  0  0  0  0  0
   -1.7810   23.4040  -28.5560 C   0  0  1  0  0  0  0  0  0  0  0  0
   -2.7910   24.5670  -28.4270 C   0  0  0  0  0  0  0  0  0  0  0  0
   -4.2270   24.1020  -28.7280 C   0  0  0  0  0  0  0  0  0  0  0  0
   -4.2850   23.2560  -29.9750 C   0  0  0  0  0  0  0  0  0  0  0  0
   -3.1510   22.6350  -30.5010 C   0  0  0  0  0  0  0  0  0  0  0  0
   -3.5740   21.7150  -31.8540 S   0  0  0  0  0  0  0  0  0  0  0  0
   -5.2160   22.0640  -31.7490 C   0  0  0  0  0  0  0  0  0  0  0  0
   -6.2420   21.6070  -32.5710 C   0  0  0  0  0  0  0  0  0  0  0  0
   -7.5540   22.0170  -32.2880 C   0  0  0  0  0  0  0  0  0  0  0  0
   -7.8120   22.8670  -31.1960 C   0  0  0  0  0  0  0  0  0  0  0  0
   -6.7620   23.3180  -30.3780 C   0  0  0  0  0  0  0  0  0  0  0  0
   -5.4550   22.9090  -30.6700 C   0  0  0  0  0  0  0  0  0  0  0  0
   -1.7580   22.8640  -30.0020 C   0  0  0  0  0  0  0  0  0  0  0  0
   -0.9740   23.9240  -25.6650 C   0  0  0  0  0  0  0  0  0  0  0  0
   -0.1870   23.9840  -24.3480 C   0  0  0  0  0  0  0  0  0  0  0  0
   -1.7442   27.8915  -23.4346 H   0  0  0  0  0  0  0  0  0  0  0  0
   -0.5195   27.7552  -24.7415 H   0  0  0  0  0  0  0  0  0  0  0  0
   -1.9567   26.6776  -24.7415 H   0  0  0  0  0  0  0  0  0  0  0  0
    0.1645   26.6976  -22.5342 H   0  0  0  0  0  0  0  0  0  0  0  0
   -1.1859   25.5052  -22.7924 H   0  0  0  0  0  0  0  0  0  0  0  0
    1.3070   25.1310  -23.5420 H   0  0  0  0  0  0  0  0  0  0  0  0
    0.0614   26.7241  -25.6383 H   0  0  0  0  0  0  0  0  0  0  0  0
    1.8045   26.5336  -25.1397 H   0  0  0  0  0  0  0  0  0  0  0  0
    1.3766   25.6447  -27.4202 H   0  0  0  0  0  0  0  0  0  0  0  0
    1.9275   24.3781  -26.2715 H   0  0  0  0  0  0  0  0  0  0  0  0
   -2.1043   22.5956  -27.8837 H   0  0  0  0  0  0  0  0  0  0  0  0
   -2.7510   24.9633  -27.4016 H   0  0  0  0  0  0  0  0  0  0  0  0
   -2.5190   25.3433  -29.1573 H   0  0  0  0  0  0  0  0  0  0  0  0
   -4.5967   23.5105  -27.8774 H   0  0  0  0  0  0  0  0  0  0  0  0
   -4.8518   24.9933  -28.8867 H   0  0  0  0  0  0  0  0  0  0  0  0
   -6.0299   20.9415  -33.4208 H   0  0  0  0  0  0  0  0  0  0  0  0
   -8.3842   21.6727  -32.9222 H   0  0  0  0  0  0  0  0  0  0  0  0
   -8.8441   23.1809  -30.9811 H   0  0  0  0  0  0  0  0  0  0  0  0
   -6.9633   23.9806  -29.5234 H   0  0  0  0  0  0  0  0  0  0  0  0
   -1.2052   21.9133  -30.0241 H   0  0  0  0  0  0  0  0  0  0  0  0
   -1.2665   23.6050  -30.6496 H   0  0  0  0  0  0  0  0  0  0  0  0
   -1.8206   24.6245  -25.6136 H   0  0  0  0  0  0  0  0  0  0  0  0
   -1.3410   22.8979  -25.8150 H   0  0  0  0  0  0  0  0  0  0  0  0
   -0.8748   23.7634  -23.5184 H   0  0  0  0  0  0  0  0  0  0  0  0
    0.6249   23.2450  -24.4162 H   0  0  0  0  0  0  0  0  0  0  0  0
  1  2  1  0
  2  3  1  0
  3  4  1  0
  4  5  1  0
  5  6  1  0
  6  7  1  0
  7  8  2  0
  7  9  1  0
  9 10  1  0
 10 11  1  0
 11 12  1  0
 12 13  2  0
 13 14  1  0
 14 15  1  0
 15 16  2  0
 16 17  1  0
 17 18  2  0
 18 19  1  0
 19 20  2  0
 13 21  1  0
  6 22  1  0
 22 23  1  0
 23  3  1  0
 21  9  1  0
 20 12  1  0
 20 15  1  0
  1 24  1  0
  1 25  1  0
  1 26  1  0
  2 27  1  0
  2 28  1  0
  3 29  1  0
  4 30  1  0
  4 31  1  0
  5 32  1  0
  5 33  1  0
  9 34  1  1
 10 35  1  0
 10 36  1  0
 11 37  1  0
 11 38  1  0
 16 39  1  0
 17 40  1  0
 18 41  1  0
 19 42  1  0
 21 43  1  0
 21 44  1  0
 22 45  1  0
 22 46  1  0
 23 47  1  0
 23 48  1  0
M  CHG  1   3   1
M  END
>  <UniqueID>  (22) 
22

>  <SMILES>  (22) 
CC[NH+]1CCN(C(=O)[C@H]2CCc3c(sc4ccccc34)C2)CC1

>  <Energy>  (22) 
87.84909507161821

>  <Genealogy>  (22) 
CC[NH+]1CCN(C(=O)C2CCc3c(sc4ccccc34)C2)CC1 (protonated)
CC[NH+]1CCN(C(=O)[C@H]2CCc3c(sc4ccccc34)C2)CC1 (chirality)
CC[NH+]1CCN(C(=O)[C@H]2CCc3c(sc4ccccc34)C2)CC1 (3D coordinates assigned)
CC[NH+]1CCN(C(=O)[C@H]2CCc3c(sc4ccccc34)C2)CC1 (nonaromatic ring conformer: 87.84909507161821 kcal/mol)

>  <smiles>  (22) 
CCN1CCN(C(=O)C2CCc3c(sc4ccccc34)C2)CC1

>  <score_type>  (22) 
oracle

>  <origin>  (22) 
adg

>  <m_score__min__energy>  (22) 
-7.9699999999999998

>  <m_primary>  (22) 
energy

$$$$
22:0
     RDKit          3D

 30 31  0  0  0  0  0  0  0  0999 V2000
   -5.3970   25.5690  -30.0920 C   0  0  0  0  0  0  0  0  0  0  0  0
   -4.6840   24.5910  -30.8410 O   0  0  0  0  0  0  0  0  0  0  0  0
   -5.2790   23.4960  -31.4850 C   0  0  0  0  0  0  0  0  0  0  0  0
   -4.4520   22.4870  -31.9850 C   0  0  0  0  0  0  0  0  0  0  0  0
   -4.9970   21.3770  -32.6340 C   0  0  0  0  0  0  0  0  0  0  0  0
   -6.3890   21.2450  -32.7860 C   0  0  0  0  0  0  0  0  0  0  0  0
   -6.9370   20.0380  -33.5400 C   0  0  0  0  0  0  0  0  0  0  0  0
   -5.9910   18.8140  -33.5560 C   0  0  0  0  0  0  0  0  0  0  0  0
   -6.1410   17.8780  -32.3760 C   0  0  0  0  0  0  0  0  0  0  0  0
   -5.3190   16.9850  -32.2390 O   0  0  0  0  0  0  0  0  0  0  0  0
   -7.2560   17.9820  -31.3610 C   0  0  0  0  0  0  0  0  0  0  0  0
   -8.2760   19.0360  -31.6860 C   0  0  0  0  0  0  0  0  0  0  0  0
   -9.1040   19.3480  -30.8420 O   0  0  0  0  0  0  0  0  0  0  0  0
   -8.3390   19.6580  -33.0490 C   0  0  0  0  0  0  0  0  0  0  0  0
   -7.2190   22.2710  -32.2940 C   0  0  0  0  0  0  0  0  0  0  0  0
   -6.6730   23.3820  -31.6460 C   0  0  0  0  0  0  0  0  0  0  0  0
   -5.2592   25.3799  -29.0172 H   0  0  0  0  0  0  0  0  0  0  0  0
   -5.0157   26.5705  -30.3400 H   0  0  0  0  0  0  0  0  0  0  0  0
   -6.4672   25.5123  -30.3400 H   0  0  0  0  0  0  0  0  0  0  0  0
   -3.3614   22.5677  -31.8664 H   0  0  0  0  0  0  0  0  0  0  0  0
   -4.3302   20.5973  -33.0307 H   0  0  0  0  0  0  0  0  0  0  0  0
   -7.0107   20.3608  -34.5890 H   0  0  0  0  0  0  0  0  0  0  0  0
   -6.1887   18.2411  -34.4740 H   0  0  0  0  0  0  0  0  0  0  0  0
   -4.9676   19.2140  -33.5047 H   0  0  0  0  0  0  0  0  0  0  0  0
   -7.7674   17.0096  -31.3068 H   0  0  0  0  0  0  0  0  0  0  0  0
   -6.7931   18.2683  -30.4051 H   0  0  0  0  0  0  0  0  0  0  0  0
   -8.7851   18.9399  -33.7527 H   0  0  0  0  0  0  0  0  0  0  0  0
   -8.9516   20.5698  -32.9922 H   0  0  0  0  0  0  0  0  0  0  0  0
   -8.3091   22.1969  -32.4213 H   0  0  0  0  0  0  0  0  0  0  0  0
   -7.3352   24.1710  -31.2600 H   0  0  0  0  0  0  0  0  0  0  0  0
  1  2  1  0
  2  3  1  0
  3  4  2  0
  4  5  1  0
  5  6  2  0
  6  7  1  0
  7  8  1  0
  8  9  1  0
  9 10  2  0
  9 11  1  0
 11 12  1  0
 12 13  2  0
 12 14  1  0
  6 15  1  0
 15 16  2  0
 16  3  1  0
 14  7  1  0
  1 17  1  0
  1 18  1  0
  1 19  1  0
  4 20  1  0
  5 21  1  0
  7 22  1  0
  8 23  1  0
  8 24  1  0
 11 25  1  0
 11 26  1  0
 14 27  1  0
 14 28  1  0
 15 29  1  0
 16 30  1  0
M  END
>  <UniqueID>  (23) 
23

>  <SMILES>  (23) 
COc1ccc(C2CC(=O)CC(=O)C2)cc1

>  <Energy>  (23) 
30.399894979171712

>  <Genealogy>  (23) 
COc1ccc(C2CC(=O)CC(=O)C2)cc1 (3D coordinates assigned)
COc1ccc(C2CC(=O)CC(=O)C2)cc1 (nonaromatic ring conformer: 30.399894979171712 kcal/mol)

>  <smiles>  (23) 
COc1ccc(C2CC(=O)CC(=O)C2)cc1

>  <score_type>  (23) 
oracle

>  <origin>  (23) 
adg

>  <m_score__min__energy>  (23) 
-6.8799999999999999

>  <m_primary>  (23) 
energy

$$$$
23:0
     RDKit          3D

 34 37  0  0  0  0  0  0  0  0999 V2000
   -9.0140   18.5600  -31.9260 Br  0  0  0  0  0  0  0  0  0  0  0  0
   -7.3390   18.6800  -32.8430 C   0  0  0  0  0  0  0  0  0  0  0  0
   -6.8680   17.6990  -33.6350 N   0  0  0  0  0  0  0  0  0  0  0  0
   -5.7450   18.2280  -34.1630 C   0  0  0  0  0  0  0  0  0  0  0  0
   -5.5220   19.4540  -33.7490 O   0  0  0  0  0  0  0  0  0  0  0  0
   -6.4890   19.7680  -32.9220 C   0  0  0  0  0  0  0  0  0  0  0  0
   -6.6040   21.0780  -32.2510 C   0  0  0  0  0  0  0  0  0  0  0  0
   -7.5150   21.2370  -31.1960 C   0  0  0  0  0  0  0  0  0  0  0  0
   -7.6200   22.4620  -30.5300 C   0  0  0  0  0  0  0  0  0  0  0  0
   -6.8300   23.5520  -30.9240 C   0  0  0  0  0  0  0  0  0  0  0  0
   -6.8760   24.8420  -30.1500 C   0  0  0  0  0  0  0  0  0  0  0  0
   -5.3940   25.8660  -30.4760 S   0  0  0  0  0  0  0  0  0  0  0  0
   -4.2440   24.7190  -29.7200 C   0  0  0  0  0  0  0  0  0  0  0  0
   -4.6470   23.6160  -29.0360 N   0  0  0  0  0  0  0  0  0  0  0  0
   -3.4830   23.1050  -28.6080 C   0  0  0  0  0  0  0  0  0  0  0  0
   -3.2870   21.9670  -27.8290 C   0  0  0  0  0  0  0  0  0  0  0  0
   -1.9640   21.6360  -27.4780 C   0  0  0  0  0  0  0  0  0  0  0  0
   -0.8870   22.4440  -27.9100 C   0  0  0  0  0  0  0  0  0  0  0  0
   -1.1250   23.5880  -28.6950 C   0  0  0  0  0  0  0  0  0  0  0  0
   -2.4450   23.8820  -29.0250 C   0  0  0  0  0  0  0  0  0  0  0  0
   -2.9000   24.9190  -29.7400 N   0  0  0  0  0  0  0  0  0  0  0  0
   -5.9480   23.4050  -32.0060 C   0  0  0  0  0  0  0  0  0  0  0  0
   -5.8370   22.1790  -32.6660 C   0  0  0  0  0  0  0  0  0  0  0  0
   -5.0882   17.6913  -34.8634 H   0  0  0  0  0  0  0  0  0  0  0  0
   -8.1507   20.3927  -30.8908 H   0  0  0  0  0  0  0  0  0  0  0  0
   -8.3255   22.5714  -29.6931 H   0  0  0  0  0  0  0  0  0  0  0  0
   -7.7732   25.4056  -30.4457 H   0  0  0  0  0  0  0  0  0  0  0  0
   -6.9034   24.6023  -29.0768 H   0  0  0  0  0  0  0  0  0  0  0  0
   -4.1353   21.3490  -27.4998 H   0  0  0  0  0  0  0  0  0  0  0  0
   -1.7674   20.7443  -26.8646 H   0  0  0  0  0  0  0  0  0  0  0  0
    0.1430   22.1770  -27.6310 H   0  0  0  0  0  0  0  0  0  0  0  0
   -0.2971   24.2271  -29.0356 H   0  0  0  0  0  0  0  0  0  0  0  0
   -5.3405   24.2605  -32.3362 H   0  0  0  0  0  0  0  0  0  0  0  0
   -5.1454   22.0753  -33.5151 H   0  0  0  0  0  0  0  0  0  0  0  0
  1  2  1  0
  2  3  1  0
  3  4  2  0
  4  5  1  0
  5  6  1  0
  6  7  1  0
  7  8  2  0
  8  9  1  0
  9 10  2  0
 10 11  1  0
 11 12  1  0
 12 13  1  0
 13 14  2  0
 14 15  1  0
 15 16  2  0
 16 17  1  0
 17 18  2  0
 18 19  1  0
 19 20  2  0
 20 21  1  0
 10 22  1  0
 22 23  2  0
  6  2  2  0
 23  7  1  0
 21 13  1  0
 20 15  1  0
  4 24  1  0
  8 25  1  0
  9 26  1  0
 11 27  1  0
 11 28  1  0
 16 29  1  0
 17 30  1  0
 18 31  1  0
 19 32  1  0
 22 33  1  0
 23 34  1  0
M  CHG  1  21  -1
M  END
>  <UniqueID>  (24) 
24

>  <SMILES>  (24) 
Brc1ncoc1-c1ccc(CSc2nc3ccccc3[n-]2)cc1

>  <Energy>  (24) 
101.91429736636557

>  <Genealogy>  (24) 
Brc1ncoc1-c1ccc(CSc2nc3ccccc3[n-]2)cc1 (protonated)
Brc1ncoc1-c1ccc(CSc2nc3ccccc3[n-]2)cc1 (3D coordinates assigned)
Brc1ncoc1-c1ccc(CSc2nc3ccccc3[n-]2)cc1 (optimized conformer: 101.91429736636557 kcal/mol)

>  <smiles>  (24) 
Brc1ncoc1-c1ccc(CSc2nc3ccccc3[nH]2)cc1

>  <score_type>  (24) 
oracle

>  <origin>  (24) 
adg

>  <m_score__min__energy>  (24) 
-9.5199999999999996

>  <m_primary>  (24) 
energy

$$$$
24:0
     RDKit          3D

 52 54  0  0  0  0  0  0  0  0999 V2000
   -2.0570   18.5890  -33.8270 C   0  0  0  0  0  0  0  0  0  0  0  0
   -3.4560   18.8490  -33.8000 O   0  0  0  0  0  0  0  0  0  0  0  0
   -4.4530   17.8610  -33.8360 C   0  0  0  0  0  0  0  0  0  0  0  0
   -4.1880   16.5670  -34.3310 C   0  0  0  0  0  0  0  0  0  0  0  0
   -5.1820   15.5850  -34.3190 C   0  0  0  0  0  0  0  0  0  0  0  0
   -6.4510   15.8830  -33.8250 C   0  0  0  0  0  0  0  0  0  0  0  0
   -6.7340   17.1620  -33.3430 C   0  0  0  0  0  0  0  0  0  0  0  0
   -5.7430   18.1630  -33.3400 C   0  0  0  0  0  0  0  0  0  0  0  0
   -6.0540   19.4740  -32.8150 N   0  0  0  0  0  0  0  0  0  0  0  0
   -7.0150   20.3510  -33.5010 C   0  0  0  0  0  0  0  0  0  0  0  0
   -7.6270   21.3480  -32.5070 C   0  0  0  0  0  0  0  0  0  0  0  0
   -6.5820   22.1600  -31.8340 N   0  0  0  0  0  0  0  0  0  0  0  0
   -7.1390   22.8020  -30.6570 C   0  0  0  0  0  0  0  0  0  0  0  0
   -7.5810   22.1200  -29.7420 O   0  0  0  0  0  0  0  0  0  0  0  0
   -7.1420   24.3030  -30.5100 C   0  0  0  0  0  0  0  0  0  0  0  0
   -5.9450   24.7830  -29.6840 C   0  0  0  0  0  0  0  0  0  0  0  0
   -4.6920   24.6870  -30.4960 C   0  0  0  0  0  0  0  0  0  0  0  0
   -4.7050   24.0820  -31.6020 O   0  0  0  0  0  0  0  0  0  0  0  0
   -3.4890   25.2920  -30.0070 N   0  0  0  0  0  0  0  0  0  0  0  0
   -2.4010   24.6060  -29.3670 C   0  0  0  0  0  0  0  0  0  0  0  0
   -1.5190   25.2690  -28.4930 C   0  0  0  0  0  0  0  0  0  0  0  0
   -0.4370   24.5830  -27.9280 C   0  0  0  0  0  0  0  0  0  0  0  0
   -0.2190   23.2390  -28.2430 C   0  0  0  0  0  0  0  0  0  0  0  0
   -1.0820   22.5780  -29.1220 C   0  0  0  0  0  0  0  0  0  0  0  0
   -2.1650   23.2620  -29.6890 C   0  0  0  0  0  0  0  0  0  0  0  0
   -5.3440   21.4060  -31.4790 C   0  0  0  0  0  0  0  0  0  0  0  0
   -5.5310   19.8840  -31.5050 C   0  0  0  0  0  0  0  0  0  0  0  0
   -1.6772   18.5184  -32.7971 H   0  0  0  0  0  0  0  0  0  0  0  0
   -1.8703   17.6408  -34.3524 H   0  0  0  0  0  0  0  0  0  0  0  0
   -1.5421   19.4068  -34.3524 H   0  0  0  0  0  0  0  0  0  0  0  0
   -3.1908   16.3290  -34.7297 H   0  0  0  0  0  0  0  0  0  0  0  0
   -4.9630   14.5764  -34.6995 H   0  0  0  0  0  0  0  0  0  0  0  0
   -7.2316   15.1080  -33.8150 H   0  0  0  0  0  0  0  0  0  0  0  0
   -7.7403   17.3904  -32.9619 H   0  0  0  0  0  0  0  0  0  0  0  0
   -6.4969   20.9044  -34.2981 H   0  0  0  0  0  0  0  0  0  0  0  0
   -7.8182   19.7353  -33.9319 H   0  0  0  0  0  0  0  0  0  0  0  0
   -8.3076   22.0207  -33.0495 H   0  0  0  0  0  0  0  0  0  0  0  0
   -8.1686   20.7782  -31.7376 H   0  0  0  0  0  0  0  0  0  0  0  0
   -6.3000   22.9040  -32.5160 H   0  0  0  0  0  0  0  0  0  0  0  0
   -7.0949   24.7611  -31.5090 H   0  0  0  0  0  0  0  0  0  0  0  0
   -8.0646   24.5993  -29.9894 H   0  0  0  0  0  0  0  0  0  0  0  0
   -6.1054   25.8290  -29.3839 H   0  0  0  0  0  0  0  0  0  0  0  0
   -5.8456   24.1497  -28.7901 H   0  0  0  0  0  0  0  0  0  0  0  0
   -1.6804   26.3303  -28.2529 H   0  0  0  0  0  0  0  0  0  0  0  0
    0.2419   25.1023  -27.2357 H   0  0  0  0  0  0  0  0  0  0  0  0
    0.6318   22.7012  -27.7992 H   0  0  0  0  0  0  0  0  0  0  0  0
   -0.9105   21.5198  -29.3686 H   0  0  0  0  0  0  0  0  0  0  0  0
   -2.8338   22.7419  -30.3906 H   0  0  0  0  0  0  0  0  0  0  0  0
   -4.5548   21.6729  -32.1973 H   0  0  0  0  0  0  0  0  0  0  0  0
   -5.0783   21.6836  -30.4483 H   0  0  0  0  0  0  0  0  0  0  0  0
   -4.5627   19.3931  -31.3275 H   0  0  0  0  0  0  0  0  0  0  0  0
   -6.2425   19.5899  -30.7193 H   0  0  0  0  0  0  0  0  0  0  0  0
  1  2  1  0
  2  3  1  0
  3  4  2  0
  4  5  1  0
  5  6  2  0
  6  7  1  0
  7  8  2  0
  8  9  1  0
  9 10  1  0
 10 11  1  0
 11 12  1  0
 12 13  1  0
 13 14  2  0
 13 15  1  0
 15 16  1  0
 16 17  1  0
 17 18  2  0
 17 19  1  0
 19 20  1  0
 20 21  2  0
 21 22  1  0
 22 23  2  0
 23 24  1  0
 24 25  2  0
 12 26  1  0
 26 27  1  0
  8  3  1  0
 27  9  1  0
 25 20  1  0
  1 28  1  0
  1 29  1  0
  1 30  1  0
  4 31  1  0
  5 32  1  0
  6 33  1  0
  7 34  1  0
 10 35  1  0
 10 36  1  0
 11 37  1  0
 11 38  1  0
 12 39  1  0
 15 40  1  0
 15 41  1  0
 16 42  1  0
 16 43  1  0
 21 44  1  0
 22 45  1  0
 23 46  1  0
 24 47  1  0
 25 48  1  0
 26 49  1  0
 26 50  1  0
 27 51  1  0
 27 52  1  0
M  CHG  2  12   1  19  -1
M  END
>  <UniqueID>  (25) 
25

>  <SMILES>  (25) 
COc1ccccc1N1CC[NH+](C(=O)CCC(=O)[N-]c2ccccc2)CC1

>  <Energy>  (25) 
64.1231336163652

>  <Genealogy>  (25) 
COc1ccccc1N1CC[NH+](C(=O)CCC(=O)[N-]c2ccccc2)CC1 (protonated)
COc1ccccc1N1CC[NH+](C(=O)CCC(=O)[N-]c2ccccc2)CC1 (3D coordinates assigned)
COc1ccccc1N1CC[NH+](C(=O)CCC(=O)[N-]c2ccccc2)CC1 (nonaromatic ring conformer: 64.1231336163652 kcal/mol)

>  <smiles>  (25) 
COc1ccccc1N1CCN(C(=O)CCC(=O)Nc2ccccc2)CC1

>  <score_type>  (25) 
oracle

>  <origin>  (25) 
adg

>  <m_score__min__energy>  (25) 
-9.6799999999999997

>  <m_primary>  (25) 
energy

$$$$
25:0
     RDKit          3D

 56 58  0  0  0  0  0  0  0  0999 V2000
   -3.7690   15.9310  -33.0930 C   0  0  0  0  0  0  0  0  0  0  0  0
   -3.8120   17.2940  -33.6560 N   0  0  1  0  0  0  0  0  0  0  0  0
   -2.5970   17.5460  -34.4830 C   0  0  0  0  0  0  0  0  0  0  0  0
   -1.9270   18.8810  -34.1370 C   0  0  0  0  0  0  0  0  0  0  0  0
   -2.7600   19.5920  -33.2480 O   0  0  0  0  0  0  0  0  0  0  0  0
   -2.6650   20.9820  -33.4930 C   0  0  0  0  0  0  0  0  0  0  0  0
   -3.5480   21.7350  -32.4980 C   0  0  0  0  0  0  0  0  0  0  0  0
   -2.8100   22.0020  -31.2010 C   0  0  0  0  0  0  0  0  0  0  0  0
   -1.7460   21.1570  -30.8400 C   0  0  0  0  0  0  0  0  0  0  0  0
   -1.0210   21.3860  -29.6700 C   0  0  0  0  0  0  0  0  0  0  0  0
   -1.3440   22.4630  -28.8450 C   0  0  0  0  0  0  0  0  0  0  0  0
   -2.3880   23.3230  -29.1950 C   0  0  0  0  0  0  0  0  0  0  0  0
   -3.1230   23.1080  -30.3700 C   0  0  0  0  0  0  0  0  0  0  0  0
   -4.2220   24.0340  -30.6930 C   0  0  0  0  0  0  0  0  0  0  0  0
   -3.9590   25.2640  -30.7860 O   0  0  0  0  0  0  0  0  0  0  0  0
   -5.6130   23.5550  -30.9000 C   0  0  0  0  0  0  0  0  0  0  0  0
   -6.2750   23.8140  -32.1170 C   0  0  0  0  0  0  0  0  0  0  0  0
   -7.5960   23.3990  -32.3080 C   0  0  0  0  0  0  0  0  0  0  0  0
   -8.2720   22.7210  -31.2930 C   0  0  0  0  0  0  0  0  0  0  0  0
   -7.6260   22.4520  -30.0860 C   0  0  0  0  0  0  0  0  0  0  0  0
   -6.3040   22.8590  -29.8880 C   0  0  0  0  0  0  0  0  0  0  0  0
   -5.0630   17.4550  -34.4400 C   0  0  0  0  0  0  0  0  0  0  0  0
   -6.1360   18.1850  -33.6680 C   0  0  0  0  0  0  0  0  0  0  0  0
   -6.9880   17.4890  -32.7940 C   0  0  0  0  0  0  0  0  0  0  0  0
   -7.9630   18.1770  -32.0650 C   0  0  0  0  0  0  0  0  0  0  0  0
   -8.1000   19.5600  -32.2070 C   0  0  0  0  0  0  0  0  0  0  0  0
   -7.2620   20.2580  -33.0810 C   0  0  0  0  0  0  0  0  0  0  0  0
   -6.2860   19.5740  -33.8140 C   0  0  0  0  0  0  0  0  0  0  0  0
   -3.7708   15.9878  -31.9945 H   0  0  0  0  0  0  0  0  0  0  0  0
   -4.6498   15.3661  -33.4324 H   0  0  0  0  0  0  0  0  0  0  0  0
   -2.8544   15.4228  -33.4324 H   0  0  0  0  0  0  0  0  0  0  0  0
   -3.8420   17.9500  -32.8380 H   0  0  0  0  0  0  0  0  0  0  0  0
   -1.8764   16.7329  -34.3107 H   0  0  0  0  0  0  0  0  0  0  0  0
   -2.9089   17.5881  -35.5370 H   0  0  0  0  0  0  0  0  0  0  0  0
   -0.9533   18.6933  -33.6608 H   0  0  0  0  0  0  0  0  0  0  0  0
   -1.7712   19.4690  -35.0535 H   0  0  0  0  0  0  0  0  0  0  0  0
   -1.6202   21.3050  -33.3739 H   0  0  0  0  0  0  0  0  0  0  0  0
   -3.0003   21.1979  -34.5181 H   0  0  0  0  0  0  0  0  0  0  0  0
   -3.8510   22.6946  -32.9422 H   0  0  0  0  0  0  0  0  0  0  0  0
   -4.4287   21.1145  -32.2757 H   0  0  0  0  0  0  0  0  0  0  0  0
   -1.4824   20.3068  -31.4863 H   0  0  0  0  0  0  0  0  0  0  0  0
   -0.1927   20.7154  -29.3977 H   0  0  0  0  0  0  0  0  0  0  0  0
   -0.7767   22.6354  -27.9185 H   0  0  0  0  0  0  0  0  0  0  0  0
   -2.6353   24.1748  -28.5444 H   0  0  0  0  0  0  0  0  0  0  0  0
   -5.7482   24.3467  -32.9225 H   0  0  0  0  0  0  0  0  0  0  0  0
   -8.1041   23.6075  -33.2611 H   0  0  0  0  0  0  0  0  0  0  0  0
   -9.3129   22.3990  -31.4443 H   0  0  0  0  0  0  0  0  0  0  0  0
   -8.1598   21.9171  -29.2866 H   0  0  0  0  0  0  0  0  0  0  0  0
   -5.7996   22.6348  -28.9365 H   0  0  0  0  0  0  0  0  0  0  0  0
   -4.8365   18.0237  -35.3539 H   0  0  0  0  0  0  0  0  0  0  0  0
   -5.4435   16.4500  -34.6747 H   0  0  0  0  0  0  0  0  0  0  0  0
   -6.8877   16.3992  -32.6828 H   0  0  0  0  0  0  0  0  0  0  0  0
   -8.6237   17.6279  -31.3780 H   0  0  0  0  0  0  0  0  0  0  0  0
   -8.8668   20.0992  -31.6314 H   0  0  0  0  0  0  0  0  0  0  0  0
   -7.3699   21.3470  -33.1928 H   0  0  0  0  0  0  0  0  0  0  0  0
   -5.6339   20.1259  -34.5070 H   0  0  0  0  0  0  0  0  0  0  0  0
  1  2  1  0
  2  3  1  0
  3  4  1  0
  4  5  1  0
  5  6  1  0
  6  7  1  0
  7  8  1  0
  8  9  2  0
  9 10  1  0
 10 11  2  0
 11 12  1  0
 12 13  2  0
 13 14  1  0
 14 15  2  0
 14 16  1  0
 16 17  2  0
 17 18  1  0
 18 19  2  0
 19 20  1  0
 20 21  2  0
  2 22  1  0
 22 23  1  0
 23 24  2  0
 24 25  1  0
 25 26  2  0
 26 27  1  0
 27 28  2  0
 13  8  1  0
 21 16  1  0
 28 23  1  0
  1 29  1  0
  1 30  1  0
  1 31  1  0
  2 32  1  1
  3 33  1  0
  3 34  1  0
  4 35  1  0
  4 36  1  0
  6 37  1  0
  6 38  1  0
  7 39  1  0
  7 40  1  0
  9 41  1  0
 10 42  1  0
 11 43  1  0
 12 44  1  0
 17 45  1  0
 18 46  1  0
 19 47  1  0
 20 48  1  0
 21 49  1  0
 22 50  1  0
 22 51  1  0
 24 52  1  0
 25 53  1  0
 26 54  1  0
 27 55  1  0
 28 56  1  0
M  CHG  1   2   1
M  END
>  <UniqueID>  (26) 
26

>  <SMILES>  (26) 
C[N@@H+](CCOCCc1ccccc1C(=O)c1ccccc1)Cc1ccccc1

>  <Energy>  (26) 
63.50456157864679

>  <Genealogy>  (26) 
C[NH+](CCOCCc1ccccc1C(=O)c1ccccc1)Cc1ccccc1 (protonated)
C[N@@H+](CCOCCc1ccccc1C(=O)c1ccccc1)Cc1ccccc1 (chirality)
C[N@@H+](CCOCCc1ccccc1C(=O)c1ccccc1)Cc1ccccc1 (3D coordinates assigned)
C[N@@H+](CCOCCc1ccccc1C(=O)c1ccccc1)Cc1ccccc1 (optimized conformer: 63.50456157864679 kcal/mol)

>  <smiles>  (26) 
CN(CCOCCc1ccccc1C(=O)c1ccccc1)Cc1ccccc1

>  <score_type>  (26) 
oracle

>  <origin>  (26) 
adg

>  <m_score__min__energy>  (26) 
-8.3100000000000005

>  <m_primary>  (26) 
energy

$$$$
26:0
     RDKit          3D

 44 46  0  0  0  0  0  0  0  0999 V2000
   -4.7590   19.3130  -33.8550 C   0  0  0  0  0  0  0  0  0  0  0  0
   -3.5170   20.0900  -33.4170 C   0  0  0  0  0  0  0  0  0  0  0  0
   -3.6710   21.5440  -33.5940 N   0  0  0  0  0  0  0  0  0  0  0  0
   -3.6250   22.2990  -32.3210 C   0  0  0  0  0  0  0  0  0  0  0  0
   -4.5580   21.7010  -31.2600 C   0  0  0  0  0  0  0  0  0  0  0  0
   -5.9440   22.1230  -31.4940 N   0  0  0  0  0  0  0  0  0  0  0  0
   -6.4590   23.3820  -31.4640 C   0  0  0  0  0  0  0  0  0  0  0  0
   -5.4820   24.8680  -31.1970 S   0  0  0  0  0  0  0  0  0  0  0  0
   -5.3840   24.6890  -29.3800 C   0  0  0  0  0  0  0  0  0  0  0  0
   -4.1060   24.0220  -28.9530 C   0  0  0  0  0  0  0  0  0  0  0  0
   -4.1390   22.8600  -28.1630 C   0  0  0  0  0  0  0  0  0  0  0  0
   -2.9460   22.2370  -27.7790 C   0  0  0  0  0  0  0  0  0  0  0  0
   -1.7170   22.7710  -28.1770 C   0  0  0  0  0  0  0  0  0  0  0  0
   -1.6780   23.9300  -28.9580 C   0  0  0  0  0  0  0  0  0  0  0  0
   -2.8670   24.5560  -29.3430 C   0  0  0  0  0  0  0  0  0  0  0  0
   -7.8070   23.4210  -31.6270 N   0  0  0  0  0  0  0  0  0  0  0  0
   -8.1290   22.1250  -31.7870 C   0  0  0  0  0  0  0  0  0  0  0  0
   -9.3970   21.5870  -31.9920 C   0  0  0  0  0  0  0  0  0  0  0  0
   -9.5030   20.1900  -32.1150 C   0  0  0  0  0  0  0  0  0  0  0  0
   -8.3530   19.3730  -32.0250 C   0  0  0  0  0  0  0  0  0  0  0  0
   -7.0860   19.9490  -31.8130 C   0  0  0  0  0  0  0  0  0  0  0  0
   -7.0150   21.3400  -31.7060 C   0  0  0  0  0  0  0  0  0  0  0  0
   -5.3087   18.9691  -32.9664 H   0  0  0  0  0  0  0  0  0  0  0  0
   -5.4072   19.9669  -34.4568 H   0  0  0  0  0  0  0  0  0  0  0  0
   -4.4546   18.4440  -34.4568 H   0  0  0  0  0  0  0  0  0  0  0  0
   -3.3274   19.8820  -32.3536 H   0  0  0  0  0  0  0  0  0  0  0  0
   -2.6777   19.7630  -34.0485 H   0  0  0  0  0  0  0  0  0  0  0  0
   -4.6090   21.7030  -34.0320 H   0  0  0  0  0  0  0  0  0  0  0  0
   -2.9600   21.8940  -34.2800 H   0  0  0  0  0  0  0  0  0  0  0  0
   -2.5945   22.2830  -31.9364 H   0  0  0  0  0  0  0  0  0  0  0  0
   -3.9596   23.3268  -32.5250 H   0  0  0  0  0  0  0  0  0  0  0  0
   -4.5016   20.6034  -31.3063 H   0  0  0  0  0  0  0  0  0  0  0  0
   -4.2416   22.0568  -30.2684 H   0  0  0  0  0  0  0  0  0  0  0  0
   -5.4355   25.6871  -28.9206 H   0  0  0  0  0  0  0  0  0  0  0  0
   -6.2244   24.0593  -29.0525 H   0  0  0  0  0  0  0  0  0  0  0  0
   -5.1046   22.4393  -27.8458 H   0  0  0  0  0  0  0  0  0  0  0  0
   -2.9755   21.3260  -27.1632 H   0  0  0  0  0  0  0  0  0  0  0  0
   -0.7803   22.2792  -27.8757 H   0  0  0  0  0  0  0  0  0  0  0  0
   -0.7103   24.3498  -29.2699 H   0  0  0  0  0  0  0  0  0  0  0  0
   -2.8321   25.4702  -29.9537 H   0  0  0  0  0  0  0  0  0  0  0  0
  -10.2853   22.2326  -32.0556 H   0  0  0  0  0  0  0  0  0  0  0  0
  -10.4880   19.7298  -32.2825 H   0  0  0  0  0  0  0  0  0  0  0  0
   -8.4485   18.2814  -32.1211 H   0  0  0  0  0  0  0  0  0  0  0  0
   -6.1833   19.3254  -31.7343 H   0  0  0  0  0  0  0  0  0  0  0  0
  1  2  1  0
  2  3  1  0
  3  4  1  0
  4  5  1  0
  5  6  1  0
  6  7  1  0
  7  8  1  0
  8  9  1  0
  9 10  1  0
 10 11  2  0
 11 12  1  0
 12 13  2  0
 13 14  1  0
 14 15  2  0
  7 16  2  0
 16 17  1  0
 17 18  2  0
 18 19  1  0
 19 20  2  0
 20 21  1  0
 21 22  2  0
 22  6  1  0
 15 10  1  0
 22 17  1  0
  1 23  1  0
  1 24  1  0
  1 25  1  0
  2 26  1  0
  2 27  1  0
  3 28  1  0
  3 29  1  0
  4 30  1  0
  4 31  1  0
  5 32  1  0
  5 33  1  0
  9 34  1  0
  9 35  1  0
 11 36  1  0
 12 37  1  0
 13 38  1  0
 14 39  1  0
 15 40  1  0
 18 41  1  0
 19 42  1  0
 20 43  1  0
 21 44  1  0
M  CHG  1   3   1
M  END
>  <UniqueID>  (27) 
27

>  <SMILES>  (27) 
CC[NH2+]CCn1c(SCc2ccccc2)nc2ccccc21

>  <Energy>  (27) 
76.07213065032252

>  <Genealogy>  (27) 
CC[NH2+]CCn1c(SCc2ccccc2)nc2ccccc21 (protonated)
CC[NH2+]CCn1c(SCc2ccccc2)nc2ccccc21 (3D coordinates assigned)
CC[NH2+]CCn1c(SCc2ccccc2)nc2ccccc21 (optimized conformer: 76.07213065032252 kcal/mol)

>  <smiles>  (27) 
CCNCCn1c(SCc2ccccc2)nc2ccccc21

>  <score_type>  (27) 
oracle

>  <origin>  (27) 
adg

>  <m_score__min__energy>  (27) 
-6.9500000000000002

>  <m_primary>  (27) 
energy

$$$$
27:0
     RDKit          3D

 39 41  0  0  0  0  0  0  0  0999 V2000
   -6.4750   16.5300  -34.0080 C   0  0  0  0  0  0  0  0  0  0  0  0
   -5.6900   17.7860  -33.8070 C   0  0  0  0  0  0  0  0  0  0  0  0
   -4.4190   17.9540  -34.2440 N   0  0  0  0  0  0  0  0  0  0  0  0
   -4.0630   19.1610  -33.7730 C   0  0  0  0  0  0  0  0  0  0  0  0
   -2.8510   19.7430  -33.9470 N   0  0  0  0  0  0  0  0  0  0  0  0
   -2.6210   20.9670  -33.3870 C   0  0  0  0  0  0  0  0  0  0  0  0
   -3.6240   21.6080  -32.6350 C   0  0  0  0  0  0  0  0  0  0  0  0
   -4.8610   20.9690  -32.4730 C   0  0  0  0  0  0  0  0  0  0  0  0
   -5.0310   19.7580  -33.0620 N   0  0  0  0  0  0  0  0  0  0  0  0
   -6.0770   18.9070  -33.0730 C   0  0  0  0  0  0  0  0  0  0  0  0
   -7.3660   19.1110  -32.3250 C   0  0  0  0  0  0  0  0  0  0  0  0
   -8.1800   20.1360  -32.9900 N   0  0  0  0  0  0  0  0  0  0  0  0
   -9.4450   20.3720  -32.2700 C   0  0  0  0  0  0  0  0  0  0  0  0
   -9.5950   21.8560  -31.9220 C   0  0  0  0  0  0  0  0  0  0  0  0
   -8.2900   22.4640  -31.4790 C   0  0  0  0  0  0  0  0  0  0  0  0
   -7.7820   22.2030  -30.1960 C   0  0  0  0  0  0  0  0  0  0  0  0
   -6.5810   22.7870  -29.7810 C   0  0  0  0  0  0  0  0  0  0  0  0
   -5.8850   23.6440  -30.6390 C   0  0  0  0  0  0  0  0  0  0  0  0
   -4.2550   24.4560  -30.0620 Br  0  0  0  0  0  0  0  0  0  0  0  0
   -6.3850   23.9090  -31.9170 C   0  0  0  0  0  0  0  0  0  0  0  0
   -7.5820   23.3210  -32.3370 C   0  0  0  0  0  0  0  0  0  0  0  0
   -6.7415   16.1036  -33.0296 H   0  0  0  0  0  0  0  0  0  0  0  0
   -7.3922   16.7570  -34.5711 H   0  0  0  0  0  0  0  0  0  0  0  0
   -5.8690   15.8050  -34.5711 H   0  0  0  0  0  0  0  0  0  0  0  0
   -3.8360   17.2860  -34.7960 H   0  0  0  0  0  0  0  0  0  0  0  0
   -1.6451   21.4557  -33.5244 H   0  0  0  0  0  0  0  0  0  0  0  0
   -3.4400   22.5935  -32.1823 H   0  0  0  0  0  0  0  0  0  0  0  0
   -5.6679   21.4339  -31.8875 H   0  0  0  0  0  0  0  0  0  0  0  0
   -7.9247   18.1638  -32.2984 H   0  0  0  0  0  0  0  0  0  0  0  0
   -7.1387   19.4412  -31.3006 H   0  0  0  0  0  0  0  0  0  0  0  0
   -8.4120   19.7900  -33.9510 H   0  0  0  0  0  0  0  0  0  0  0  0
  -10.2871   20.0625  -32.9065 H   0  0  0  0  0  0  0  0  0  0  0  0
   -9.4388   19.7869  -31.3385 H   0  0  0  0  0  0  0  0  0  0  0  0
   -9.9548   22.3950  -32.8108 H   0  0  0  0  0  0  0  0  0  0  0  0
  -10.3100   21.9404  -31.0904 H   0  0  0  0  0  0  0  0  0  0  0  0
   -8.3311   21.5364  -29.5147 H   0  0  0  0  0  0  0  0  0  0  0  0
   -6.1833   22.5719  -28.7782 H   0  0  0  0  0  0  0  0  0  0  0  0
   -5.8361   24.5810  -32.5932 H   0  0  0  0  0  0  0  0  0  0  0  0
   -7.9710   23.5307  -33.3443 H   0  0  0  0  0  0  0  0  0  0  0  0
  1  2  1  0
  2  3  1  0
  3  4  2  0
  4  5  1  0
  5  6  2  0
  6  7  1  0
  7  8  2  0
  8  9  1  0
  9 10  1  0
 10 11  1  0
 11 12  1  0
 12 13  1  0
 13 14  1  0
 14 15  1  0
 15 16  2  0
 16 17  1  0
 17 18  2  0
 18 19  1  0
 18 20  1  0
 20 21  2  0
 10  2  2  0
 21 15  1  0
  9  4  1  0
  1 22  1  0
  1 23  1  0
  1 24  1  0
  3 25  1  0
  6 26  1  0
  7 27  1  0
  8 28  1  0
 11 29  1  0
 11 30  1  0
 12 31  1  0
 13 32  1  0
 13 33  1  0
 14 34  1  0
 14 35  1  0
 16 36  1  0
 17 37  1  0
 20 38  1  0
 21 39  1  0
M  CHG  1   3   1
M  END
>  <UniqueID>  (28) 
28

>  <SMILES>  (28) 
Cc1[nH+]c2ncccn2c1CNCCc1ccc(Br)cc1

>  <Energy>  (28) 
73.03816342103451

>  <Genealogy>  (28) 
Cc1[nH+]c2ncccn2c1CNCCc1ccc(Br)cc1 (protonated)
Cc1[nH+]c2ncccn2c1CNCCc1ccc(Br)cc1 (3D coordinates assigned)
Cc1[nH+]c2ncccn2c1CNCCc1ccc(Br)cc1 (optimized conformer: 73.03816342103451 kcal/mol)

>  <smiles>  (28) 
Cc1nc2ncccn2c1CNCCc1ccc(Br)cc1

>  <score_type>  (28) 
oracle

>  <origin>  (28) 
adg

>  <m_score__min__energy>  (28) 
-7.7800000000000002

>  <m_primary>  (28) 
energy

$$$$
28:0
     RDKit          3D

 33 35  0  0  0  0  0  0  0  0999 V2000
   -1.9690   24.9880  -28.1790 C   0  0  0  0  0  0  0  0  0  0  0  0
   -2.7290   25.2840  -29.3440 O   0  0  0  0  0  0  0  0  0  0  0  0
   -3.5830   24.3560  -29.9460 C   0  0  0  0  0  0  0  0  0  0  0  0
   -3.4690   23.0030  -29.6160 C   0  0  0  0  0  0  0  0  0  0  0  0
   -4.3230   22.0750  -30.2160 C   0  0  0  0  0  0  0  0  0  0  0  0
   -5.2890   22.5030  -31.1360 C   0  0  0  0  0  0  0  0  0  0  0  0
   -6.1890   21.5240  -31.7860 C   0  0  0  0  0  0  0  0  0  0  0  0
   -7.6010   21.5850  -31.6560 C   0  0  0  0  0  0  0  0  0  0  0  0
   -8.2880   22.6380  -30.8300 C   0  0  0  0  0  0  0  0  0  0  0  0
   -8.3790   20.6250  -32.3450 C   0  0  0  0  0  0  0  0  0  0  0  0
   -7.7860   19.6480  -33.0890 N   0  0  0  0  0  0  0  0  0  0  0  0
   -6.4370   19.6120  -33.1600 C   0  0  0  0  0  0  0  0  0  0  0  0
   -5.6530   18.7320  -33.8670 C   0  0  0  0  0  0  0  0  0  0  0  0
   -4.3640   19.1860  -33.5960 C   0  0  0  0  0  0  0  0  0  0  0  0
   -3.1110   18.6220  -34.1780 C   0  0  0  0  0  0  0  0  0  0  0  0
   -4.3970   20.2790  -32.7980 N   0  0  0  0  0  0  0  0  0  0  0  0
   -5.6720   20.5130  -32.5350 N   0  0  0  0  0  0  0  0  0  0  0  0
   -5.3640   23.8690  -31.4480 C   0  0  0  0  0  0  0  0  0  0  0  0
   -4.5200   24.7530  -30.8520 N   0  0  0  0  0  0  0  0  0  0  0  0
   -2.5647   25.2200  -27.2838 H   0  0  0  0  0  0  0  0  0  0  0  0
   -1.7032   23.9206  -28.1760 H   0  0  0  0  0  0  0  0  0  0  0  0
   -1.0513   25.5944  -28.1760 H   0  0  0  0  0  0  0  0  0  0  0  0
   -2.7126   22.6714  -28.8894 H   0  0  0  0  0  0  0  0  0  0  0  0
   -4.2371   21.0072  -29.9660 H   0  0  0  0  0  0  0  0  0  0  0  0
   -8.1443   22.4177  -29.7619 H   0  0  0  0  0  0  0  0  0  0  0  0
   -7.8588   23.6239  -31.0621 H   0  0  0  0  0  0  0  0  0  0  0  0
   -9.3632   22.6424  -31.0621 H   0  0  0  0  0  0  0  0  0  0  0  0
   -9.4763   20.6672  -32.2797 H   0  0  0  0  0  0  0  0  0  0  0  0
   -5.9652   17.8816  -34.4910 H   0  0  0  0  0  0  0  0  0  0  0  0
   -2.4343   18.3174  -33.3660 H   0  0  0  0  0  0  0  0  0  0  0  0
   -3.3562   17.7474  -34.7985 H   0  0  0  0  0  0  0  0  0  0  0  0
   -2.6189   19.3854  -34.7985 H   0  0  0  0  0  0  0  0  0  0  0  0
   -6.1072   24.2255  -32.1764 H   0  0  0  0  0  0  0  0  0  0  0  0
  1  2  1  0
  2  3  1  0
  3  4  2  0
  4  5  1  0
  5  6  2  0
  6  7  1  0
  7  8  2  0
  8  9  1  0
  8 10  1  0
 10 11  2  0
 11 12  1  0
 12 13  2  0
 13 14  1  0
 14 15  1  0
 14 16  2  0
 16 17  1  0
  6 18  1  0
 18 19  2  0
 19  3  1  0
 17  7  1  0
 17 12  1  0
  1 20  1  0
  1 21  1  0
  1 22  1  0
  4 23  1  0
  5 24  1  0
  9 25  1  0
  9 26  1  0
  9 27  1  0
 10 28  1  0
 13 29  1  0
 15 30  1  0
 15 31  1  0
 15 32  1  0
 18 33  1  0
M  END
>  <UniqueID>  (29) 
29

>  <SMILES>  (29) 
COc1ccc(-c2c(C)cnc3cc(C)nn23)cn1

>  <Energy>  (29) 
76.00545739184574

>  <Genealogy>  (29) 
COc1ccc(-c2c(C)cnc3cc(C)nn23)cn1 (3D coordinates assigned)
COc1ccc(-c2c(C)cnc3cc(C)nn23)cn1 (optimized conformer: 76.00545739184574 kcal/mol)

>  <smiles>  (29) 
COc1ccc(-c2c(C)cnc3cc(C)nn23)cn1

>  <score_type>  (29) 
oracle

>  <origin>  (29) 
adg

>  <m_score__min__energy>  (29) 
-7.7199999999999998

>  <m_primary>  (29) 
energy

$$$$
29:0
     RDKit          3D

 51 54  0  0  0  0  0  0  0  0999 V2000
   -2.5830   22.7350  -30.8210 O   0  0  0  0  0  0  0  0  0  0  0  0
   -3.7690   22.4450  -31.1370 C   0  0  0  0  0  0  0  0  0  0  0  0
   -4.0240   21.2440  -31.8450 C   0  0  0  0  0  0  0  0  0  0  0  0
   -2.8680   20.3390  -32.2970 C   0  0  0  0  0  0  0  0  0  0  0  0
   -1.8640   20.0600  -31.1450 C   0  0  0  0  0  0  0  0  0  0  0  0
   -0.4210   19.8410  -31.6390 C   0  0  0  0  0  0  0  0  0  0  0  0
   -0.3990   19.0950  -32.9760 C   0  0  0  0  0  0  0  0  0  0  0  0
   -1.1190   19.8820  -34.0940 C   0  0  0  0  0  0  0  0  0  0  0  0
   -2.1720   20.8760  -33.5660 C   0  0  0  0  0  0  0  0  0  0  0  0
   -5.3730   20.9170  -32.1420 C   0  0  0  0  0  0  0  0  0  0  0  0
   -5.7470   19.6480  -32.8000 C   0  0  0  0  0  0  0  0  0  0  0  0
   -6.5460   18.7080  -32.1290 C   0  0  0  0  0  0  0  0  0  0  0  0
   -6.9020   17.5110  -32.7580 C   0  0  0  0  0  0  0  0  0  0  0  0
   -6.4780   17.2540  -34.0650 C   0  0  0  0  0  0  0  0  0  0  0  0
   -5.7000   18.1950  -34.7450 C   0  0  0  0  0  0  0  0  0  0  0  0
   -5.3370   19.3920  -34.1180 C   0  0  0  0  0  0  0  0  0  0  0  0
   -6.3760   21.7750  -31.8020 N   0  0  0  0  0  0  0  0  0  0  0  0
   -6.1460   22.9410  -31.1390 C   0  0  0  0  0  0  0  0  0  0  0  0
   -7.2270   23.7670  -30.7980 C   0  0  0  0  0  0  0  0  0  0  0  0
   -7.0150   24.9530  -30.1010 C   0  0  0  0  0  0  0  0  0  0  0  0
   -5.7250   25.3310  -29.7370 C   0  0  0  0  0  0  0  0  0  0  0  0
   -4.6160   24.5240  -30.0650 C   0  0  0  0  0  0  0  0  0  0  0  0
   -3.3070   24.9040  -29.7130 O   0  0  0  0  0  0  0  0  0  0  0  0
   -2.6090   24.5460  -28.5200 C   0  0  0  0  0  0  0  0  0  0  0  0
   -1.2090   25.1570  -28.5020 C   0  0  0  0  0  0  0  0  0  0  0  0
   -1.2340   26.4450  -29.0030 F   0  0  0  0  0  0  0  0  0  0  0  0
   -0.3620   24.3920  -29.2830 F   0  0  0  0  0  0  0  0  0  0  0  0
   -0.7250   25.1820  -27.2050 F   0  0  0  0  0  0  0  0  0  0  0  0
   -4.8280   23.3110  -30.7790 C   0  0  0  0  0  0  0  0  0  0  0  0
   -3.3093   19.3693  -32.5708 H   0  0  0  0  0  0  0  0  0  0  0  0
   -1.8721   20.9192  -30.4581 H   0  0  0  0  0  0  0  0  0  0  0  0
   -2.1846   19.1321  -30.6487 H   0  0  0  0  0  0  0  0  0  0  0  0
    0.0668   20.8187  -31.7659 H   0  0  0  0  0  0  0  0  0  0  0  0
    0.1134   19.2340  -30.8934 H   0  0  0  0  0  0  0  0  0  0  0  0
    0.6473   18.9327  -33.2742 H   0  0  0  0  0  0  0  0  0  0  0  0
   -0.9284   18.1405  -32.8395 H   0  0  0  0  0  0  0  0  0  0  0  0
   -0.3653   20.4440  -34.6650 H   0  0  0  0  0  0  0  0  0  0  0  0
   -1.6511   19.1470  -34.7159 H   0  0  0  0  0  0  0  0  0  0  0  0
   -1.6765   21.8284  -33.3264 H   0  0  0  0  0  0  0  0  0  0  0  0
   -2.9352   21.0179  -34.3454 H   0  0  0  0  0  0  0  0  0  0  0  0
   -6.8928   18.9140  -31.1056 H   0  0  0  0  0  0  0  0  0  0  0  0
   -7.5162   16.7710  -32.2239 H   0  0  0  0  0  0  0  0  0  0  0  0
   -6.7567   16.3111  -34.5583 H   0  0  0  0  0  0  0  0  0  0  0  0
   -5.3722   17.9941  -35.7756 H   0  0  0  0  0  0  0  0  0  0  0  0
   -4.7298   20.1332  -34.6583 H   0  0  0  0  0  0  0  0  0  0  0  0
   -7.3600   21.5120  -32.0420 H   0  0  0  0  0  0  0  0  0  0  0  0
   -8.2487   23.4757  -31.0832 H   0  0  0  0  0  0  0  0  0  0  0  0
   -7.8692   25.5938  -29.8368 H   0  0  0  0  0  0  0  0  0  0  0  0
   -5.5692   26.2707  -29.1868 H   0  0  0  0  0  0  0  0  0  0  0  0
   -3.1728   24.9123  -27.6494 H   0  0  0  0  0  0  0  0  0  0  0  0
   -2.5144   23.4507  -28.4840 H   0  0  0  0  0  0  0  0  0  0  0  0
  1  2  2  0
  2  3  1  0
  3  4  1  0
  4  5  1  0
  5  6  1  0
  6  7  1  0
  7  8  1  0
  8  9  1  0
  3 10  2  0
 10 11  1  0
 11 12  2  0
 12 13  1  0
 13 14  2  0
 14 15  1  0
 15 16  2  0
 10 17  1  0
 17 18  1  0
 18 19  2  0
 19 20  1  0
 20 21  2  0
 21 22  1  0
 22 23  1  0
 23 24  1  0
 24 25  1  0
 25 26  1  0
 25 27  1  0
 25 28  1  0
 22 29  2  0
 29  2  1  0
  9  4  1  0
 16 11  1  0
 29 18  1  0
  4 30  1  0
  5 31  1  0
  5 32  1  0
  6 33  1  0
  6 34  1  0
  7 35  1  0
  7 36  1  0
  8 37  1  0
  8 38  1  0
  9 39  1  0
  9 40  1  0
 12 41  1  0
 13 42  1  0
 14 43  1  0
 15 44  1  0
 16 45  1  0
 17 46  1  0
 19 47  1  0
 20 48  1  0
 21 49  1  0
 24 50  1  0
 24 51  1  0
M  END
>  <UniqueID>  (30) 
30

>  <SMILES>  (30) 
O=c1c(C2CCCCC2)c(-c2ccccc2)[nH]c2cccc(OCC(F)(F)F)c12

>  <Energy>  (30) 
74.23270178163956

>  <Genealogy>  (30) 
O=c1c(C2CCCCC2)c(-c2ccccc2)[nH]c2cccc(OCC(F)(F)F)c12 (3D coordinates assigned)
O=c1c(C2CCCCC2)c(-c2ccccc2)[nH]c2cccc(OCC(F)(F)F)c12 (nonaromatic ring conformer: 74.23270178163956 kcal/mol)

>  <smiles>  (30) 
O=c1c(C2CCCCC2)c(-c2ccccc2)[nH]c2cccc(OCC(F)(F)F)c12

>  <score_type>  (30) 
oracle

>  <origin>  (30) 
adg

>  <m_score__min__energy>  (30) 
-8.9800000000000004

>  <m_primary>  (30) 
energy

$$$$
30:0
     RDKit          3D

 54 58  0  0  0  0  0  0  0  0999 V2000
   -0.5070   23.9910  -24.4560 C   0  0  0  0  0  0  0  0  0  0  0  0
   -0.8080   25.0670  -25.4090 N   0  0  0  0  0  0  0  0  0  0  0  0
   -0.4600   26.4370  -25.0990 C   0  0  0  0  0  0  0  0  0  0  0  0
   -0.8520   27.4810  -25.9580 C   0  0  0  0  0  0  0  0  0  0  0  0
   -0.4980   28.8050  -25.6750 C   0  0  0  0  0  0  0  0  0  0  0  0
    0.2530   29.1010  -24.5350 C   0  0  0  0  0  0  0  0  0  0  0  0
    0.6470   28.0750  -23.6720 C   0  0  0  0  0  0  0  0  0  0  0  0
    0.2940   26.7500  -23.9500 C   0  0  0  0  0  0  0  0  0  0  0  0
   -1.6000   24.7650  -26.5750 C   0  0  0  0  0  0  0  0  0  0  0  0
   -0.9800   24.4290  -27.7890 C   0  0  0  0  0  0  0  0  0  0  0  0
   -1.7500   24.1180  -28.9140 C   0  0  0  0  0  0  0  0  0  0  0  0
   -3.1510   24.1310  -28.8410 C   0  0  0  0  0  0  0  0  0  0  0  0
   -3.9560   23.7920  -30.0340 C   0  0  0  0  0  0  0  0  0  0  0  0
   -4.2330   24.7080  -30.8590 O   0  0  0  0  0  0  0  0  0  0  0  0
   -4.4110   22.4440  -30.2890 N   0  0  0  0  0  0  0  0  0  0  0  0
   -3.4880   21.3190  -30.1550 C   0  0  0  0  0  0  0  0  0  0  0  0
   -2.6430   21.2700  -31.3810 C   0  0  0  0  0  0  0  0  0  0  0  0
   -1.2650   21.5180  -31.3060 C   0  0  0  0  0  0  0  0  0  0  0  0
   -0.4900   21.4990  -32.4640 C   0  0  0  0  0  0  0  0  0  0  0  0
   -1.1010   21.2340  -33.6880 C   0  0  0  0  0  0  0  0  0  0  0  0
   -2.4420   21.0050  -33.7480 N   0  0  0  0  0  0  0  0  0  0  0  0
   -3.2340   21.0390  -32.6350 C   0  0  0  0  0  0  0  0  0  0  0  0
   -4.6350   20.7280  -32.7670 N   0  0  0  0  0  0  0  0  0  0  0  0
   -5.7570   21.4000  -32.1380 C   0  0  0  0  0  0  0  0  0  0  0  0
   -7.0270   21.2140  -32.7200 C   0  0  0  0  0  0  0  0  0  0  0  0
   -8.1580   21.8490  -32.2060 C   0  0  0  0  0  0  0  0  0  0  0  0
   -8.0480   22.6800  -31.0950 C   0  0  0  0  0  0  0  0  0  0  0  0
   -6.8060   22.8710  -30.4900 C   0  0  0  0  0  0  0  0  0  0  0  0
   -5.6510   22.2410  -30.9910 C   0  0  0  0  0  0  0  0  0  0  0  0
   -3.7720   24.4990  -27.6370 C   0  0  0  0  0  0  0  0  0  0  0  0
   -3.0030   24.8090  -26.5110 C   0  0  0  0  0  0  0  0  0  0  0  0
   -0.6132   24.3705  -23.4290 H   0  0  0  0  0  0  0  0  0  0  0  0
   -1.2061   23.1563  -24.6126 H   0  0  0  0  0  0  0  0  0  0  0  0
    0.5237   23.6402  -24.6126 H   0  0  0  0  0  0  0  0  0  0  0  0
   -1.4412   27.2543  -26.8588 H   0  0  0  0  0  0  0  0  0  0  0  0
   -0.8116   29.6139  -26.3513 H   0  0  0  0  0  0  0  0  0  0  0  0
    0.5343   30.1418  -24.3166 H   0  0  0  0  0  0  0  0  0  0  0  0
    1.2356   28.3094  -22.7728 H   0  0  0  0  0  0  0  0  0  0  0  0
    0.6072   25.9467  -23.2669 H   0  0  0  0  0  0  0  0  0  0  0  0
    0.1178   24.4103  -27.8555 H   0  0  0  0  0  0  0  0  0  0  0  0
   -1.2543   23.8616  -29.8619 H   0  0  0  0  0  0  0  0  0  0  0  0
   -2.8523   21.4609  -29.2686 H   0  0  0  0  0  0  0  0  0  0  0  0
   -4.0458   20.3783  -30.0368 H   0  0  0  0  0  0  0  0  0  0  0  0
   -0.7958   21.7275  -30.3334 H   0  0  0  0  0  0  0  0  0  0  0  0
    0.5919   21.6910  -32.4124 H   0  0  0  0  0  0  0  0  0  0  0  0
   -0.4986   21.2097  -34.6081 H   0  0  0  0  0  0  0  0  0  0  0  0
   -2.8700   20.8060  -34.6800 H   0  0  0  0  0  0  0  0  0  0  0  0
   -4.8640   20.0790  -33.5560 H   0  0  0  0  0  0  0  0  0  0  0  0
   -7.1284   20.5560  -33.5957 H   0  0  0  0  0  0  0  0  0  0  0  0
   -9.1384   21.6926  -32.6797 H   0  0  0  0  0  0  0  0  0  0  0  0
   -8.9393   23.1854  -30.6947 H   0  0  0  0  0  0  0  0  0  0  0  0
   -6.7277   23.5237  -29.6081 H   0  0  0  0  0  0  0  0  0  0  0  0
   -4.8696   24.5437  -27.5790 H   0  0  0  0  0  0  0  0  0  0  0  0
   -3.4991   25.0888  -25.5700 H   0  0  0  0  0  0  0  0  0  0  0  0
  1  2  1  0
  2  3  1  0
  3  4  2  0
  4  5  1  0
  5  6  2  0
  6  7  1  0
  7  8  2  0
  2  9  1  0
  9 10  2  0
 10 11  1  0
 11 12  2  0
 12 13  1  0
 13 14  2  0
 13 15  1  0
 15 16  1  0
 16 17  1  0
 17 18  2  0
 18 19  1  0
 19 20  2  0
 20 21  1  0
 21 22  2  0
 22 23  1  0
 23 24  1  0
 24 25  2  0
 25 26  1  0
 26 27  2  0
 27 28  1  0
 28 29  2  0
 12 30  1  0
 30 31  2  0
  8  3  1  0
 31  9  1  0
 29 15  1  0
 22 17  1  0
 29 24  1  0
  1 32  1  0
  1 33  1  0
  1 34  1  0
  4 35  1  0
  5 36  1  0
  6 37  1  0
  7 38  1  0
  8 39  1  0
 10 40  1  0
 11 41  1  0
 16 42  1  0
 16 43  1  0
 18 44  1  0
 19 45  1  0
 20 46  1  0
 21 47  1  0
 23 48  1  0
 25 49  1  0
 26 50  1  0
 27 51  1  0
 28 52  1  0
 30 53  1  0
 31 54  1  0
M  CHG  1  21   1
M  END
>  <UniqueID>  (31) 
31

>  <SMILES>  (31) 
CN(c1ccccc1)c1ccc(C(=O)N2Cc3ccc[nH+]c3Nc3ccccc32)cc1

>  <Energy>  (31) 
90.11957274475698

>  <Genealogy>  (31) 
CN(c1ccccc1)c1ccc(C(=O)N2Cc3ccc[nH+]c3Nc3ccccc32)cc1 (protonated)
CN(c1ccccc1)c1ccc(C(=O)N2Cc3ccc[nH+]c3Nc3ccccc32)cc1 (3D coordinates assigned)
CN(c1ccccc1)c1ccc(C(=O)N2Cc3ccc[nH+]c3Nc3ccccc32)cc1 (nonaromatic ring conformer: 90.11957274475698 kcal/mol)

>  <smiles>  (31) 
CN(c1ccccc1)c1ccc(C(=O)N2Cc3cccnc3Nc3ccccc32)cc1

>  <score_type>  (31) 
oracle

>  <origin>  (31) 
adg

>  <m_score__min__energy>  (31) 
-9.4800000000000004

>  <m_primary>  (31) 
energy

$$$$
31:0
     RDKit          3D

 64 66  0  0  0  0  0  0  0  0999 V2000
   -2.4810   19.8470  -32.7170 C   0  0  0  0  0  0  0  0  0  0  0  0
   -2.3710   20.9600  -31.7090 C   0  0  0  0  0  0  0  0  0  0  0  0
   -1.3730   20.8890  -30.7260 C   0  0  0  0  0  0  0  0  0  0  0  0
   -1.2390   21.9020  -29.7810 C   0  0  0  0  0  0  0  0  0  0  0  0
   -2.0970   23.0000  -29.8010 C   0  0  0  0  0  0  0  0  0  0  0  0
   -3.0880   23.1170  -30.7950 C   0  0  0  0  0  0  0  0  0  0  0  0
   -3.9550   24.2240  -30.8660 O   0  0  0  0  0  0  0  0  0  0  0  0
   -4.9300   24.6260  -29.9010 C   0  0  0  0  0  0  0  0  0  0  0  0
   -6.3610   24.4750  -30.4440 C   0  0  0  0  0  0  0  0  0  0  0  0
   -6.4310   24.1750  -31.9520 C   0  0  0  0  0  0  0  0  0  0  0  0
   -7.6740   23.3600  -32.3400 C   0  0  0  0  0  0  0  0  0  0  0  0
   -8.2220   22.6010  -31.1240 C   0  0  0  0  0  0  0  0  0  0  0  0
   -8.8590   21.2560  -31.4940 C   0  0  0  0  0  0  0  0  0  0  0  0
   -7.8180   20.2120  -31.6710 N   0  0  0  0  0  0  0  0  0  0  0  0
   -8.3070   18.8410  -31.3630 C   0  0  0  0  0  0  0  0  0  0  0  0
   -7.9980   17.8130  -32.4610 C   0  0  0  0  0  0  0  0  0  0  0  0
   -6.5730   17.8650  -32.8460 N   0  0  0  0  0  0  0  0  0  0  0  0
   -6.2820   16.9200  -33.9480 C   0  0  0  0  0  0  0  0  0  0  0  0
   -4.8110   16.6020  -34.0150 C   0  0  0  0  0  0  0  0  0  0  0  0
   -3.9840   17.2930  -34.9160 C   0  0  0  0  0  0  0  0  0  0  0  0
   -2.6130   17.0240  -34.9620 C   0  0  0  0  0  0  0  0  0  0  0  0
   -2.0590   16.0620  -34.1120 C   0  0  0  0  0  0  0  0  0  0  0  0
   -2.8770   15.3670  -33.2160 C   0  0  0  0  0  0  0  0  0  0  0  0
   -4.2480   15.6350  -33.1660 C   0  0  0  0  0  0  0  0  0  0  0  0
   -6.1050   19.2390  -33.1750 C   0  0  0  0  0  0  0  0  0  0  0  0
   -7.1830   20.3180  -32.9980 C   0  0  0  0  0  0  0  0  0  0  0  0
   -3.2150   22.0980  -31.7690 C   0  0  0  0  0  0  0  0  0  0  0  0
   -4.2650   22.2100  -32.8510 C   0  0  0  0  0  0  0  0  0  0  0  0
   -2.5761   18.8850  -32.1921 H   0  0  0  0  0  0  0  0  0  0  0  0
   -3.3674   20.0098  -33.3477 H   0  0  0  0  0  0  0  0  0  0  0  0
   -1.5799   19.8331  -33.3477 H   0  0  0  0  0  0  0  0  0  0  0  0
   -0.6911   20.0262  -30.7018 H   0  0  0  0  0  0  0  0  0  0  0  0
   -0.4524   21.8357  -29.0150 H   0  0  0  0  0  0  0  0  0  0  0  0
   -1.9994   23.7822  -29.0337 H   0  0  0  0  0  0  0  0  0  0  0  0
   -4.8215   24.0009  -29.0024 H   0  0  0  0  0  0  0  0  0  0  0  0
   -4.7623   25.6871  -29.6645 H   0  0  0  0  0  0  0  0  0  0  0  0
   -6.8503   23.6507  -29.9045 H   0  0  0  0  0  0  0  0  0  0  0  0
   -6.8635   25.4411  -30.2885 H   0  0  0  0  0  0  0  0  0  0  0  0
   -6.4512   25.1289  -32.4995 H   0  0  0  0  0  0  0  0  0  0  0  0
   -5.5469   23.5741  -32.2114 H   0  0  0  0  0  0  0  0  0  0  0  0
   -8.4491   24.0415  -32.7204 H   0  0  0  0  0  0  0  0  0  0  0  0
   -7.3936   22.6325  -33.1159 H   0  0  0  0  0  0  0  0  0  0  0  0
   -7.3939   22.4158  -30.4241 H   0  0  0  0  0  0  0  0  0  0  0  0
   -9.0085   23.2247  -30.6741 H   0  0  0  0  0  0  0  0  0  0  0  0
   -9.5454   20.9488  -30.6912 H   0  0  0  0  0  0  0  0  0  0  0  0
   -9.4064   21.3731  -32.4409 H   0  0  0  0  0  0  0  0  0  0  0  0
   -7.8324   18.5048  -30.4293 H   0  0  0  0  0  0  0  0  0  0  0  0
   -9.4021   18.9021  -31.2795 H   0  0  0  0  0  0  0  0  0  0  0  0
   -8.2336   16.8055  -32.0876 H   0  0  0  0  0  0  0  0  0  0  0  0
   -8.6095   18.0481  -33.3446 H   0  0  0  0  0  0  0  0  0  0  0  0
   -6.8436   15.9891  -33.7808 H   0  0  0  0  0  0  0  0  0  0  0  0
   -6.5822   17.3872  -34.8975 H   0  0  0  0  0  0  0  0  0  0  0  0
   -4.4169   18.0487  -35.5880 H   0  0  0  0  0  0  0  0  0  0  0  0
   -1.9694   17.5697  -35.6676 H   0  0  0  0  0  0  0  0  0  0  0  0
   -0.9798   15.8520  -34.1482 H   0  0  0  0  0  0  0  0  0  0  0  0
   -2.4410   14.6082  -32.5495 H   0  0  0  0  0  0  0  0  0  0  0  0
   -4.8882   15.0867  -32.4593 H   0  0  0  0  0  0  0  0  0  0  0  0
   -5.2576   19.4838  -32.5177 H   0  0  0  0  0  0  0  0  0  0  0  0
   -5.8246   19.2366  -34.2387 H   0  0  0  0  0  0  0  0  0  0  0  0
   -6.7194   21.3106  -33.0976 H   0  0  0  0  0  0  0  0  0  0  0  0
   -7.9538   20.1759  -33.7698 H   0  0  0  0  0  0  0  0  0  0  0  0
   -5.2577   22.3159  -32.3891 H   0  0  0  0  0  0  0  0  0  0  0  0
   -4.0554   23.0909  -33.4756 H   0  0  0  0  0  0  0  0  0  0  0  0
   -4.2459   21.3047  -33.4756 H   0  0  0  0  0  0  0  0  0  0  0  0
  1  2  1  0
  2  3  2  0
  3  4  1  0
  4  5  2  0
  5  6  1  0
  6  7  1  0
  7  8  1  0
  8  9  1  0
  9 10  1  0
 10 11  1  0
 11 12  1  0
 12 13  1  0
 13 14  1  0
 14 15  1  0
 15 16  1  0
 16 17  1  0
 17 18  1  0
 18 19  1  0
 19 20  2  0
 20 21  1  0
 21 22  2  0
 22 23  1  0
 23 24  2  0
 17 25  1  0
 25 26  1  0
  6 27  2  0
 27 28  1  0
 27  2  1  0
 26 14  1  0
 24 19  1  0
  1 29  1  0
  1 30  1  0
  1 31  1  0
  3 32  1  0
  4 33  1  0
  5 34  1  0
  8 35  1  0
  8 36  1  0
  9 37  1  0
  9 38  1  0
 10 39  1  0
 10 40  1  0
 11 41  1  0
 11 42  1  0
 12 43  1  0
 12 44  1  0
 13 45  1  0
 13 46  1  0
 15 47  1  0
 15 48  1  0
 16 49  1  0
 16 50  1  0
 18 51  1  0
 18 52  1  0
 20 53  1  0
 21 54  1  0
 22 55  1  0
 23 56  1  0
 24 57  1  0
 25 58  1  0
 25 59  1  0
 26 60  1  0
 26 61  1  0
 28 62  1  0
 28 63  1  0
 28 64  1  0
M  END
>  <UniqueID>  (32) 
32

>  <SMILES>  (32) 
Cc1cccc(OCCCCCCN2CCN(Cc3ccccc3)CC2)c1C

>  <Energy>  (32) 
70.68154412910091

>  <Genealogy>  (32) 
Cc1cccc(OCCCCCCN2CCN(Cc3ccccc3)CC2)c1C (3D coordinates assigned)
Cc1cccc(OCCCCCCN2CCN(Cc3ccccc3)CC2)c1C (nonaromatic ring conformer: 70.68154412910091 kcal/mol)

>  <smiles>  (32) 
Cc1cccc(OCCCCCCN2CCN(Cc3ccccc3)CC2)c1C

>  <score_type>  (32) 
oracle

>  <origin>  (32) 
adg

>  <m_score__min__energy>  (32) 
-9.3300000000000001

>  <m_primary>  (32) 
energy

$$$$
32:0
     RDKit          3D

 57 60  0  0  0  0  0  0  0  0999 V2000
   -3.9060   24.3710  -26.9530 C   0  0  0  0  0  0  0  0  0  0  0  0
   -3.0100   24.0210  -28.0000 O   0  0  0  0  0  0  0  0  0  0  0  0
   -3.3560   23.4210  -29.2230 C   0  0  0  0  0  0  0  0  0  0  0  0
   -4.4090   23.9080  -30.0170 C   0  0  0  0  0  0  0  0  0  0  0  0
   -4.7530   23.3160  -31.2050 C   0  0  0  0  0  0  0  0  0  0  0  0
   -3.9580   22.2870  -31.7550 C   0  0  0  0  0  0  0  0  0  0  0  0
   -4.1030   21.8890  -33.0940 C   0  0  0  0  0  0  0  0  0  0  0  0
   -3.3820   20.8240  -33.6050 C   0  0  0  0  0  0  0  0  0  0  0  0
   -2.4890   20.1390  -32.8010 C   0  0  0  0  0  0  0  0  0  0  0  0
   -2.2370   20.5450  -31.4770 C   0  0  0  0  0  0  0  0  0  0  0  0
   -1.2570   19.6720  -30.7000 C   0  0  0  0  0  0  0  0  0  0  0  0
    0.0880   20.2890  -30.6060 N   0  0  0  0  0  0  0  0  0  0  0  0
    0.9740   19.5040  -29.7270 C   0  0  0  0  0  0  0  0  0  0  0  0
    0.6890   20.3960  -31.9460 C   0  0  0  0  0  0  0  0  0  0  0  0
   -2.9380   21.6870  -30.9450 C   0  0  0  0  0  0  0  0  0  0  0  0
   -2.6450   22.2680  -29.6630 C   0  0  0  0  0  0  0  0  0  0  0  0
   -1.6220   21.6990  -28.8800 O   0  0  0  0  0  0  0  0  0  0  0  0
   -1.6980   21.2170  -27.5420 C   0  0  0  0  0  0  0  0  0  0  0  0
   -5.9900   23.8510  -31.7010 N   0  0  0  0  0  0  0  0  0  0  0  0
   -6.8820   23.2210  -32.6930 C   0  0  0  0  0  0  0  0  0  0  0  0
   -7.4830   21.9260  -32.2020 C   0  0  0  0  0  0  0  0  0  0  0  0
   -8.5330   21.9430  -31.2690 C   0  0  0  0  0  0  0  0  0  0  0  0
   -9.1130   20.7450  -30.8410 C   0  0  0  0  0  0  0  0  0  0  0  0
   -8.6560   19.5250  -31.3470 C   0  0  0  0  0  0  0  0  0  0  0  0
   -7.6190   19.5010  -32.2850 C   0  0  0  0  0  0  0  0  0  0  0  0
   -7.0350   20.6970  -32.7150 C   0  0  0  0  0  0  0  0  0  0  0  0
   -6.3950   24.9580  -30.8310 C   0  0  0  0  0  0  0  0  0  0  0  0
   -5.3660   25.0080  -29.6950 C   0  0  0  0  0  0  0  0  0  0  0  0
   -3.4257   24.1834  -25.9813 H   0  0  0  0  0  0  0  0  0  0  0  0
   -4.1660   25.4368  -27.0338 H   0  0  0  0  0  0  0  0  0  0  0  0
   -4.8195   23.7636  -27.0338 H   0  0  0  0  0  0  0  0  0  0  0  0
   -4.8012   22.4327  -33.7474 H   0  0  0  0  0  0  0  0  0  0  0  0
   -3.5195   20.5214  -34.6536 H   0  0  0  0  0  0  0  0  0  0  0  0
   -1.9654   19.2596  -33.2042 H   0  0  0  0  0  0  0  0  0  0  0  0
   -1.6483   19.5182  -29.6835 H   0  0  0  0  0  0  0  0  0  0  0  0
   -1.1545   18.7178  -31.2375 H   0  0  0  0  0  0  0  0  0  0  0  0
    0.0160   21.2540  -30.2080 H   0  0  0  0  0  0  0  0  0  0  0  0
    0.7316   19.7188  -28.6758 H   0  0  0  0  0  0  0  0  0  0  0  0
    0.8301   18.4315  -29.9247 H   0  0  0  0  0  0  0  0  0  0  0  0
    2.0213   19.7760  -29.9247 H   0  0  0  0  0  0  0  0  0  0  0  0
    1.7678   20.5881  -31.8497 H   0  0  0  0  0  0  0  0  0  0  0  0
    0.5315   19.4557  -32.4946 H   0  0  0  0  0  0  0  0  0  0  0  0
    0.2166   21.2242  -32.4946 H   0  0  0  0  0  0  0  0  0  0  0  0
   -1.5658   22.0553  -26.8422 H   0  0  0  0  0  0  0  0  0  0  0  0
   -2.6806   20.7516  -27.3752 H   0  0  0  0  0  0  0  0  0  0  0  0
   -0.9063   20.4718  -27.3752 H   0  0  0  0  0  0  0  0  0  0  0  0
   -7.6980   23.9208  -32.9260 H   0  0  0  0  0  0  0  0  0  0  0  0
   -6.2766   22.9887  -33.5816 H   0  0  0  0  0  0  0  0  0  0  0  0
   -8.9000   22.9018  -30.8739 H   0  0  0  0  0  0  0  0  0  0  0  0
   -9.9302   20.7627  -30.1049 H   0  0  0  0  0  0  0  0  0  0  0  0
   -9.1121   18.5834  -31.0074 H   0  0  0  0  0  0  0  0  0  0  0  0
   -7.2622   18.5405  -32.6851 H   0  0  0  0  0  0  0  0  0  0  0  0
   -6.2229   20.6754  -33.4567 H   0  0  0  0  0  0  0  0  0  0  0  0
   -6.3907   25.9046  -31.3913 H   0  0  0  0  0  0  0  0  0  0  0  0
   -7.4137   24.8107  -30.4429 H   0  0  0  0  0  0  0  0  0  0  0  0
   -4.8513   25.9800  -29.6777 H   0  0  0  0  0  0  0  0  0  0  0  0
   -5.8274   24.8875  -28.7037 H   0  0  0  0  0  0  0  0  0  0  0  0
  1  2  1  0
  2  3  1  0
  3  4  2  0
  4  5  1  0
  5  6  2  0
  6  7  1  0
  7  8  2  0
  8  9  1  0
  9 10  2  0
 10 11  1  0
 11 12  1  0
 12 13  1  0
 12 14  1  0
 10 15  1  0
 15 16  2  0
 16 17  1  0
 17 18  1  0
  5 19  1  0
 19 20  1  0
 20 21  1  0
 21 22  2  0
 22 23  1  0
 23 24  2  0
 24 25  1  0
 25 26  2  0
 19 27  1  0
 27 28  1  0
 16  3  1  0
 26 21  1  0
 28  4  1  0
 15  6  1  0
  1 29  1  0
  1 30  1  0
  1 31  1  0
  7 32  1  0
  8 33  1  0
  9 34  1  0
 11 35  1  0
 11 36  1  0
 12 37  1  0
 13 38  1  0
 13 39  1  0
 13 40  1  0
 14 41  1  0
 14 42  1  0
 14 43  1  0
 18 44  1  0
 18 45  1  0
 18 46  1  0
 20 47  1  0
 20 48  1  0
 22 49  1  0
 23 50  1  0
 24 51  1  0
 25 52  1  0
 26 53  1  0
 27 54  1  0
 27 55  1  0
 28 56  1  0
 28 57  1  0
M  CHG  1  12   1
M  END
>  <UniqueID>  (33) 
33

>  <SMILES>  (33) 
COc1c2c(c3cccc(C[NH+](C)C)c3c1OC)N(Cc1ccccc1)CC2

>  <Energy>  (33) 
102.11141503338311

>  <Genealogy>  (33) 
COc1c2c(c3cccc(C[NH+](C)C)c3c1OC)N(Cc1ccccc1)CC2 (protonated)
COc1c2c(c3cccc(C[NH+](C)C)c3c1OC)N(Cc1ccccc1)CC2 (3D coordinates assigned)
COc1c2c(c3cccc(C[NH+](C)C)c3c1OC)N(Cc1ccccc1)CC2 (nonaromatic ring conformer: 102.11141503338311 kcal/mol)

>  <smiles>  (33) 
COc1c2c(c3cccc(CN(C)C)c3c1OC)N(Cc1ccccc1)CC2

>  <score_type>  (33) 
oracle

>  <origin>  (33) 
adg

>  <m_score__min__energy>  (33) 
-7

>  <m_primary>  (33) 
energy

$$$$
33:0
     RDKit          3D

 47 49  0  0  0  0  0  0  0  0999 V2000
   -2.4380   22.8660  -27.8240 C   0  0  0  0  0  0  0  0  0  0  0  0
   -3.1230   24.2110  -28.0320 C   0  0  0  0  0  0  0  0  0  0  0  0
   -2.6630   24.8410  -29.3200 C   0  0  0  0  0  0  0  0  0  0  0  0
   -1.5540   25.4350  -29.3470 O   0  0  0  0  0  0  0  0  0  0  0  0
   -3.5130   24.9140  -30.4710 N   0  0  0  0  0  0  0  0  0  0  0  0
   -4.6180   24.0460  -30.7550 C   0  0  0  0  0  0  0  0  0  0  0  0
   -5.8820   24.5580  -31.0840 C   0  0  0  0  0  0  0  0  0  0  0  0
   -6.9470   23.6900  -31.3440 C   0  0  0  0  0  0  0  0  0  0  0  0
   -6.7630   22.3030  -31.2640 C   0  0  0  0  0  0  0  0  0  0  0  0
   -8.0810   21.2030  -31.6750 S   0  0  0  0  0  0  0  0  0  0  0  0
   -8.3390   20.2820  -30.5150 O   0  0  0  0  0  0  0  0  0  0  0  0
   -9.3340   21.9980  -31.9260 O   0  0  0  0  0  0  0  0  0  0  0  0
   -7.6930   20.2540  -33.0930 N   0  0  0  0  0  0  0  0  0  0  0  0
   -8.0780   18.8330  -32.9130 C   0  0  0  0  0  0  0  0  0  0  0  0
   -6.8850   17.9220  -32.5950 C   0  0  0  0  0  0  0  0  0  0  0  0
   -5.8620   18.0590  -33.6400 N   0  0  0  0  0  0  0  0  0  0  0  0
   -5.1070   16.9210  -34.0950 C   0  0  0  0  0  0  0  0  0  0  0  0
   -4.8520   16.8010  -35.3230 O   0  0  0  0  0  0  0  0  0  0  0  0
   -4.6170   15.8820  -33.1700 C   0  0  0  0  0  0  0  0  0  0  0  0
   -3.3680   15.2850  -33.1710 C   0  0  0  0  0  0  0  0  0  0  0  0
   -3.3940   14.3680  -32.1420 C   0  0  0  0  0  0  0  0  0  0  0  0
   -4.6520   14.4550  -31.5820 C   0  0  0  0  0  0  0  0  0  0  0  0
   -5.3570   15.3610  -32.2180 O   0  0  0  0  0  0  0  0  0  0  0  0
   -5.7400   19.3350  -34.3550 C   0  0  0  0  0  0  0  0  0  0  0  0
   -6.2840   20.4760  -33.4890 C   0  0  0  0  0  0  0  0  0  0  0  0
   -5.5120   21.7940  -30.8840 C   0  0  0  0  0  0  0  0  0  0  0  0
   -4.4490   22.6630  -30.6240 C   0  0  0  0  0  0  0  0  0  0  0  0
   -2.3374   22.6685  -26.7466 H   0  0  0  0  0  0  0  0  0  0  0  0
   -3.0414   22.0716  -28.2876 H   0  0  0  0  0  0  0  0  0  0  0  0
   -1.4407   22.8868  -28.2876 H   0  0  0  0  0  0  0  0  0  0  0  0
   -4.2120   24.0609  -28.0707 H   0  0  0  0  0  0  0  0  0  0  0  0
   -2.8625   24.8770  -27.1962 H   0  0  0  0  0  0  0  0  0  0  0  0
   -6.0358   25.6459  -31.1376 H   0  0  0  0  0  0  0  0  0  0  0  0
   -7.9329   24.0974  -31.6123 H   0  0  0  0  0  0  0  0  0  0  0  0
   -8.7989   18.7678  -32.0847 H   0  0  0  0  0  0  0  0  0  0  0  0
   -8.5105   18.4874  -33.8635 H   0  0  0  0  0  0  0  0  0  0  0  0
   -6.4555   18.2085  -31.6237 H   0  0  0  0  0  0  0  0  0  0  0  0
   -7.2263   16.8770  -32.5556 H   0  0  0  0  0  0  0  0  0  0  0  0
   -2.5299   15.4979  -33.8509 H   0  0  0  0  0  0  0  0  0  0  0  0
   -2.5765   13.7013  -31.8302 H   0  0  0  0  0  0  0  0  0  0  0  0
   -5.0097   13.8559  -30.7316 H   0  0  0  0  0  0  0  0  0  0  0  0
   -4.6808   19.5245  -34.5836 H   0  0  0  0  0  0  0  0  0  0  0  0
   -6.3199   19.2824  -35.2883 H   0  0  0  0  0  0  0  0  0  0  0  0
   -5.6689   20.5555  -32.5805 H   0  0  0  0  0  0  0  0  0  0  0  0
   -6.2417   21.4008  -34.0831 H   0  0  0  0  0  0  0  0  0  0  0  0
   -5.3675   20.7076  -30.7905 H   0  0  0  0  0  0  0  0  0  0  0  0
   -3.4742   22.2578  -30.3147 H   0  0  0  0  0  0  0  0  0  0  0  0
  1  2  1  0
  2  3  1  0
  3  4  2  0
  3  5  1  0
  5  6  1  0
  6  7  2  0
  7  8  1  0
  8  9  2  0
  9 10  1  0
 10 11  2  0
 10 12  2  0
 10 13  1  0
 13 14  1  0
 14 15  1  0
 15 16  1  0
 16 17  1  0
 17 18  2  0
 17 19  1  0
 19 20  2  0
 20 21  1  0
 21 22  2  0
 22 23  1  0
 16 24  1  0
 24 25  1  0
  9 26  1  0
 26 27  2  0
 27  6  1  0
 25 13  1  0
 23 19  1  0
  1 28  1  0
  1 29  1  0
  1 30  1  0
  2 31  1  0
  2 32  1  0
  7 33  1  0
  8 34  1  0
 14 35  1  0
 14 36  1  0
 15 37  1  0
 15 38  1  0
 20 39  1  0
 21 40  1  0
 22 41  1  0
 24 42  1  0
 24 43  1  0
 25 44  1  0
 25 45  1  0
 26 46  1  0
 27 47  1  0
M  CHG  1   5  -1
M  END
>  <UniqueID>  (34) 
34

>  <SMILES>  (34) 
CCC(=O)[N-]c1ccc(S(=O)(=O)N2CCN(C(=O)c3ccco3)CC2)cc1

>  <Energy>  (34) 
81.28477638604583

>  <Genealogy>  (34) 
CCC(=O)[N-]c1ccc(S(=O)(=O)N2CCN(C(=O)c3ccco3)CC2)cc1 (protonated)
CCC(=O)[N-]c1ccc(S(=O)(=O)N2CCN(C(=O)c3ccco3)CC2)cc1 (3D coordinates assigned)
CCC(=O)[N-]c1ccc(S(=O)(=O)N2CCN(C(=O)c3ccco3)CC2)cc1 (nonaromatic ring conformer: 81.28477638604583 kcal/mol)

>  <smiles>  (34) 
CCC(=O)Nc1ccc(S(=O)(=O)N2CCN(C(=O)c3ccco3)CC2)cc1

>  <score_type>  (34) 
oracle

>  <origin>  (34) 
adg

>  <m_score__min__energy>  (34) 
-10.140000000000001

>  <m_primary>  (34) 
energy

$$$$
34:0
     RDKit          3D

 68 71  0  0  0  0  0  0  0  0999 V2000
    1.3890   18.9630  -28.1420 C   0  0  0  0  0  0  0  0  0  0  0  0
    0.5880   20.0590  -28.8400 C   0  0  0  0  0  0  0  0  0  0  0  0
   -0.6950   20.2890  -28.1560 N   0  0  0  0  0  0  0  0  0  0  0  0
   -0.8760   19.7850  -26.7870 C   0  0  0  0  0  0  0  0  0  0  0  0
   -2.0680   18.8310  -26.7050 C   0  0  0  0  0  0  0  0  0  0  0  0
   -1.7630   21.0080  -28.8130 C   0  0  0  0  0  0  0  0  0  0  0  0
   -2.5340   20.3810  -29.8080 C   0  0  0  0  0  0  0  0  0  0  0  0
   -3.5490   21.0780  -30.4650 C   0  0  0  0  0  0  0  0  0  0  0  0
   -3.8230   22.4180  -30.1410 C   0  0  0  0  0  0  0  0  0  0  0  0
   -4.8750   23.1330  -30.8200 N   0  0  0  0  0  0  0  0  0  0  0  0
   -5.7040   24.1150  -30.1140 C   0  0  0  0  0  0  0  0  0  0  0  0
   -7.2040   23.8400  -30.3520 C   0  0  0  0  0  0  0  0  0  0  0  0
   -7.4910   23.0820  -31.6050 N   0  0  0  0  0  0  0  0  0  0  0  0
   -7.5820   21.6180  -31.3570 C   0  0  0  0  0  0  0  0  0  0  0  0
   -8.8520   21.0040  -31.9690 C   0  0  0  0  0  0  0  0  0  0  0  0
   -8.4880   20.0840  -33.0410 N   0  0  0  0  0  0  0  0  0  0  0  0
   -7.2860   19.3030  -32.9530 C   0  0  0  0  0  0  0  0  0  0  0  0
   -6.1550   19.8040  -33.4710 C   0  0  0  0  0  0  0  0  0  0  0  0
   -4.7830   19.2330  -33.3550 C   0  0  0  0  0  0  0  0  0  0  0  0
   -3.7300   20.1650  -33.4500 C   0  0  0  0  0  0  0  0  0  0  0  0
   -2.3970   19.7650  -33.3610 C   0  0  0  0  0  0  0  0  0  0  0  0
   -0.9980   21.0540  -33.4980 Br  0  0  0  0  0  0  0  0  0  0  0  0
   -2.0870   18.4200  -33.1780 C   0  0  0  0  0  0  0  0  0  0  0  0
   -3.1070   17.4780  -33.0860 C   0  0  0  0  0  0  0  0  0  0  0  0
   -4.4540   17.8530  -33.1780 C   0  0  0  0  0  0  0  0  0  0  0  0
   -5.3800   16.8040  -33.0790 O   0  0  0  0  0  0  0  0  0  0  0  0
   -6.7900   16.9000  -33.2040 C   0  0  0  0  0  0  0  0  0  0  0  0
   -7.3380   17.9700  -32.2710 C   0  0  0  0  0  0  0  0  0  0  0  0
   -6.5020   23.3910  -32.6630 C   0  0  0  0  0  0  0  0  0  0  0  0
   -5.0820   22.9530  -32.2600 C   0  0  0  0  0  0  0  0  0  0  0  0
   -3.0740   23.0360  -29.1250 C   0  0  0  0  0  0  0  0  0  0  0  0
   -2.0480   22.3430  -28.4750 C   0  0  0  0  0  0  0  0  0  0  0  0
    1.3016   19.0826  -27.0520 H   0  0  0  0  0  0  0  0  0  0  0  0
    0.9962   17.9783  -28.4355 H   0  0  0  0  0  0  0  0  0  0  0  0
    2.4465   19.0382  -28.4355 H   0  0  0  0  0  0  0  0  0  0  0  0
    1.1718   20.9913  -28.8334 H   0  0  0  0  0  0  0  0  0  0  0  0
    0.3833   19.7409  -29.8729 H   0  0  0  0  0  0  0  0  0  0  0  0
    0.0341   19.2502  -26.4777 H   0  0  0  0  0  0  0  0  0  0  0  0
   -1.0665   20.6403  -26.1221 H   0  0  0  0  0  0  0  0  0  0  0  0
   -2.3104   18.6370  -25.6497 H   0  0  0  0  0  0  0  0  0  0  0  0
   -2.9368   19.2861  -27.2031 H   0  0  0  0  0  0  0  0  0  0  0  0
   -1.8144   17.8836  -27.2031 H   0  0  0  0  0  0  0  0  0  0  0  0
   -2.3352   19.3315  -30.0709 H   0  0  0  0  0  0  0  0  0  0  0  0
   -4.1402   20.5739  -31.2437 H   0  0  0  0  0  0  0  0  0  0  0  0
   -5.4934   24.0559  -29.0360 H   0  0  0  0  0  0  0  0  0  0  0  0
   -5.4648   25.1180  -30.4971 H   0  0  0  0  0  0  0  0  0  0  0  0
   -7.5885   23.2591  -29.5006 H   0  0  0  0  0  0  0  0  0  0  0  0
   -7.6949   24.8192  -30.4530 H   0  0  0  0  0  0  0  0  0  0  0  0
   -8.4180   23.4100  -31.9680 H   0  0  0  0  0  0  0  0  0  0  0  0
   -6.7025   21.1281  -31.8002 H   0  0  0  0  0  0  0  0  0  0  0  0
   -7.6212   21.4612  -30.2689 H   0  0  0  0  0  0  0  0  0  0  0  0
   -9.4052   20.4577  -31.1908 H   0  0  0  0  0  0  0  0  0  0  0  0
   -9.4833   21.8068  -32.3776 H   0  0  0  0  0  0  0  0  0  0  0  0
   -8.8830   20.2810  -33.9880 H   0  0  0  0  0  0  0  0  0  0  0  0
   -6.2502   20.7382  -34.0440 H   0  0  0  0  0  0  0  0  0  0  0  0
   -3.9644   21.2296  -33.5973 H   0  0  0  0  0  0  0  0  0  0  0  0
   -1.0363   18.1023  -33.1062 H   0  0  0  0  0  0  0  0  0  0  0  0
   -2.8510   16.4185  -32.9382 H   0  0  0  0  0  0  0  0  0  0  0  0
   -7.0441   17.1606  -34.2420 H   0  0  0  0  0  0  0  0  0  0  0  0
   -7.2370   15.9316  -32.9349 H   0  0  0  0  0  0  0  0  0  0  0  0
   -8.3800   17.7314  -32.0117 H   0  0  0  0  0  0  0  0  0  0  0  0
   -6.7301   18.0034  -31.3549 H   0  0  0  0  0  0  0  0  0  0  0  0
   -6.7895   22.8641  -33.5848 H   0  0  0  0  0  0  0  0  0  0  0  0
   -6.4942   24.4800  -32.8178 H   0  0  0  0  0  0  0  0  0  0  0  0
   -4.9452   21.8917  -32.5149 H   0  0  0  0  0  0  0  0  0  0  0  0
   -4.3527   23.5722  -32.8029 H   0  0  0  0  0  0  0  0  0  0  0  0
   -3.2969   24.0744  -28.8385 H   0  0  0  0  0  0  0  0  0  0  0  0
   -1.4595   22.8458  -27.6935 H   0  0  0  0  0  0  0  0  0  0  0  0
  1  2  1  0
  2  3  1  0
  3  4  1  0
  4  5  1  0
  3  6  1  0
  6  7  2  0
  7  8  1  0
  8  9  2  0
  9 10  1  0
 10 11  1  0
 11 12  1  0
 12 13  1  0
 13 14  1  0
 14 15  1  0
 15 16  1  0
 16 17  1  0
 17 18  2  0
 18 19  1  0
 19 20  2  0
 20 21  1  0
 21 22  1  0
 21 23  2  0
 23 24  1  0
 24 25  2  0
 25 26  1  0
 26 27  1  0
 27 28  1  0
 13 29  1  0
 29 30  1  0
  9 31  1  0
 31 32  2  0
 32  6  1  0
 30 10  1  0
 28 17  1  0
 25 19  1  0
  1 33  1  0
  1 34  1  0
  1 35  1  0
  2 36  1  0
  2 37  1  0
  4 38  1  0
  4 39  1  0
  5 40  1  0
  5 41  1  0
  5 42  1  0
  7 43  1  0
  8 44  1  0
 11 45  1  0
 11 46  1  0
 12 47  1  0
 12 48  1  0
 13 49  1  0
 14 50  1  0
 14 51  1  0
 15 52  1  0
 15 53  1  0
 16 54  1  0
 18 55  1  0
 20 56  1  0
 23 57  1  0
 24 58  1  0
 27 59  1  0
 27 60  1  0
 28 61  1  0
 28 62  1  0
 29 63  1  0
 29 64  1  0
 30 65  1  0
 30 66  1  0
 31 67  1  0
 32 68  1  0
M  CHG  1  13   1
M  END
>  <UniqueID>  (35) 
35

>  <SMILES>  (35) 
CCN(CC)c1ccc(N2CC[NH+](CCNC3=Cc4cc(Br)ccc4OCC3)CC2)cc1

>  <Energy>  (35) 
87.37782518806263

>  <Genealogy>  (35) 
CCN(CC)c1ccc(N2CC[NH+](CCNC3=Cc4cc(Br)ccc4OCC3)CC2)cc1 (protonated)
CCN(CC)c1ccc(N2CC[NH+](CCNC3=Cc4cc(Br)ccc4OCC3)CC2)cc1 (3D coordinates assigned)
CCN(CC)c1ccc(N2CC[NH+](CCNC3=Cc4cc(Br)ccc4OCC3)CC2)cc1 (nonaromatic ring conformer: 87.37782518806263 kcal/mol)

>  <smiles>  (35) 
CCN(CC)c1ccc(N2CCN(CCNC3=Cc4cc(Br)ccc4OCC3)CC2)cc1

>  <score_type>  (35) 
oracle

>  <origin>  (35) 
adg

>  <m_score__min__energy>  (35) 
-6.0199999999999996

>  <m_primary>  (35) 
energy

$$$$
35:0
     RDKit          3D

 68 71  0  0  0  0  0  0  0  0999 V2000
   -2.4190   24.7810  -28.4640 C   0  0  0  0  0  0  0  0  0  0  0  0
   -3.0760   24.9860  -29.7120 O   0  0  0  0  0  0  0  0  0  0  0  0
   -3.6520   23.9660  -30.4880 C   0  0  0  0  0  0  0  0  0  0  0  0
   -2.9900   22.7490  -30.7370 C   0  0  0  0  0  0  0  0  0  0  0  0
   -3.6050   21.7400  -31.4940 C   0  0  0  0  0  0  0  0  0  0  0  0
   -4.8810   21.9670  -32.0450 C   0  0  0  0  0  0  0  0  0  0  0  0
   -5.5400   23.1780  -31.7980 C   0  0  0  0  0  0  0  0  0  0  0  0
   -4.9310   24.1830  -31.0240 C   0  0  0  0  0  0  0  0  0  0  0  0
   -5.5670   25.4060  -30.7570 O   0  0  0  0  0  0  0  0  0  0  0  0
   -6.3260   25.6860  -29.5840 C   0  0  0  0  0  0  0  0  0  0  0  0
   -5.6050   20.8700  -32.7950 C   0  0  0  0  0  0  0  0  0  0  0  0
   -4.6730   19.8570  -33.3320 N   0  0  2  0  0  0  0  0  0  0  0  0
   -5.4100   18.7810  -33.9730 C   0  0  0  0  0  0  0  0  0  0  0  0
   -5.8540   18.9550  -35.0990 O   0  0  0  0  0  0  0  0  0  0  0  0
   -5.7230   17.4780  -33.2520 C   0  0  0  0  0  0  0  0  0  0  0  0
   -5.8660   16.2690  -34.2090 C   0  0  0  0  0  0  0  0  0  0  0  0
   -4.8600   15.2180  -33.9750 N   0  0  0  0  0  0  0  0  0  0  0  0
   -3.9120   15.0800  -35.0940 C   0  0  0  0  0  0  0  0  0  0  0  0
   -3.5040   16.4540  -35.6390 C   0  0  0  0  0  0  0  0  0  0  0  0
   -1.9910   16.7130  -35.5460 C   0  0  0  0  0  0  0  0  0  0  0  0
   -1.5850   17.1710  -34.2050 N   0  0  0  0  0  0  0  0  0  0  0  0
   -1.3910   16.1940  -33.1660 C   0  0  0  0  0  0  0  0  0  0  0  0
   -2.3260   15.9540  -32.3520 O   0  0  0  0  0  0  0  0  0  0  0  0
   -0.0620   15.5380  -32.9570 C   0  0  0  0  0  0  0  0  0  0  0  0
    1.1030   16.4710  -33.2930 C   0  0  0  0  0  0  0  0  0  0  0  0
    0.9580   17.8340  -32.5980 C   0  0  0  0  0  0  0  0  0  0  0  0
    0.1390   18.7530  -33.3900 N   0  0  0  0  0  0  0  0  0  0  0  0
    0.3390   20.0860  -33.4770 C   0  0  0  0  0  0  0  0  0  0  0  0
   -0.6770   20.6700  -34.2060 C   0  0  0  0  0  0  0  0  0  0  0  0
   -1.5420   19.6550  -34.5690 C   0  0  0  0  0  0  0  0  0  0  0  0
   -1.0130   18.4860  -34.0430 C   0  0  0  0  0  0  0  0  0  0  0  0
   -3.7730   19.3500  -32.2790 C   0  0  0  0  0  0  0  0  0  0  0  0
   -2.8450   20.4720  -31.7880 C   0  0  0  0  0  0  0  0  0  0  0  0
   -3.1169   24.9988  -27.6421 H   0  0  0  0  0  0  0  0  0  0  0  0
   -2.0840   23.7356  -28.3933 H   0  0  0  0  0  0  0  0  0  0  0  0
   -1.5490   25.4504  -28.3933 H   0  0  0  0  0  0  0  0  0  0  0  0
   -1.9795   22.5871  -30.3338 H   0  0  0  0  0  0  0  0  0  0  0  0
   -6.5446   23.3452  -32.2136 H   0  0  0  0  0  0  0  0  0  0  0  0
   -5.7203   25.4626  -28.6934 H   0  0  0  0  0  0  0  0  0  0  0  0
   -6.6109   26.7484  -29.5766 H   0  0  0  0  0  0  0  0  0  0  0  0
   -7.2326   25.0632  -29.5766 H   0  0  0  0  0  0  0  0  0  0  0  0
   -6.3092   20.3763  -32.1092 H   0  0  0  0  0  0  0  0  0  0  0  0
   -6.1319   21.3301  -33.6439 H   0  0  0  0  0  0  0  0  0  0  0  0
   -4.0800   20.3230  -34.0640 H   0  0  0  0  0  0  0  0  0  0  0  0
   -4.9096   17.2674  -32.5421 H   0  0  0  0  0  0  0  0  0  0  0  0
   -6.6905   17.6095  -32.7455 H   0  0  0  0  0  0  0  0  0  0  0  0
   -6.8660   15.8317  -34.0721 H   0  0  0  0  0  0  0  0  0  0  0  0
   -5.7138   16.6436  -35.2320 H   0  0  0  0  0  0  0  0  0  0  0  0
   -4.3240   15.4430  -33.1020 H   0  0  0  0  0  0  0  0  0  0  0  0
   -3.0140   14.5512  -34.7419 H   0  0  0  0  0  0  0  0  0  0  0  0
   -4.4006   14.5134  -35.9003 H   0  0  0  0  0  0  0  0  0  0  0  0
   -3.8058   16.5158  -36.6950 H   0  0  0  0  0  0  0  0  0  0  0  0
   -4.0062   17.2144  -35.0228 H   0  0  0  0  0  0  0  0  0  0  0  0
   -1.4571   15.7797  -35.7781 H   0  0  0  0  0  0  0  0  0  0  0  0
   -1.7400   17.5076  -36.2641 H   0  0  0  0  0  0  0  0  0  0  0  0
    0.0208   15.2335  -31.9032 H   0  0  0  0  0  0  0  0  0  0  0  0
   -0.0044   14.6703  -33.6306 H   0  0  0  0  0  0  0  0  0  0  0  0
    2.0420   16.0014  -32.9646 H   0  0  0  0  0  0  0  0  0  0  0  0
    1.1055   16.6388  -34.3801 H   0  0  0  0  0  0  0  0  0  0  0  0
    0.4833   17.6866  -31.6167 H   0  0  0  0  0  0  0  0  0  0  0  0
    1.9601   18.2732  -32.4849 H   0  0  0  0  0  0  0  0  0  0  0  0
    1.1873   20.6268  -33.0321 H   0  0  0  0  0  0  0  0  0  0  0  0
   -0.7787   21.7375  -34.4509 H   0  0  0  0  0  0  0  0  0  0  0  0
   -2.4658   19.7546  -35.1577 H   0  0  0  0  0  0  0  0  0  0  0  0
   -4.3736   18.9799  -31.4350 H   0  0  0  0  0  0  0  0  0  0  0  0
   -3.1619   18.5338  -32.6918 H   0  0  0  0  0  0  0  0  0  0  0  0
   -2.3393   20.1392  -30.8696 H   0  0  0  0  0  0  0  0  0  0  0  0
   -2.1177   20.6868  -32.5848 H   0  0  0  0  0  0  0  0  0  0  0  0
  1  2  1  0
  2  3  1  0
  3  4  2  0
  4  5  1  0
  5  6  2  0
  6  7  1  0
  7  8  2  0
  8  9  1  0
  9 10  1  0
  6 11  1  0
 11 12  1  0
 12 13  1  0
 13 14  2  0
 13 15  1  0
 15 16  1  0
 16 17  1  0
 17 18  1  0
 18 19  1  0
 19 20  1  0
 20 21  1  0
 21 22  1  0
 22 23  2  0
 22 24  1  0
 24 25  1  0
 25 26  1  0
 26 27  1  0
 27 28  1  0
 28 29  2  0
 29 30  1  0
 30 31  2  0
 12 32  1  0
 32 33  1  0
  8  3  1  0
 31 21  1  0
 33  5  1  0
 31 27  1  0
  1 34  1  0
  1 35  1  0
  1 36  1  0
  4 37  1  0
  7 38  1  0
 10 39  1  0
 10 40  1  0
 10 41  1  0
 11 42  1  0
 11 43  1  0
 12 44  1  6
 15 45  1  0
 15 46  1  0
 16 47  1  0
 16 48  1  0
 17 49  1  0
 18 50  1  0
 18 51  1  0
 19 52  1  0
 19 53  1  0
 20 54  1  0
 20 55  1  0
 24 56  1  0
 24 57  1  0
 25 58  1  0
 25 59  1  0
 26 60  1  0
 26 61  1  0
 28 62  1  0
 29 63  1  0
 30 64  1  0
 32 65  1  0
 32 66  1  0
 33 67  1  0
 33 68  1  0
M  CHG  1  12   1
M  END
>  <UniqueID>  (36) 
36

>  <SMILES>  (36) 
COc1cc2c(cc1OC)C[N@H+](C(=O)CCNCCCN1C(=O)CCCn3cccc31)CC2

>  <Energy>  (36) 
104.5527725886332

>  <Genealogy>  (36) 
COc1cc2c(cc1OC)C[NH+](C(=O)CCNCCCN1C(=O)CCCn3cccc31)CC2 (protonated)
COc1cc2c(cc1OC)C[N@H+](C(=O)CCNCCCN1C(=O)CCCn3cccc31)CC2 (chirality)
COc1cc2c(cc1OC)C[N@H+](C(=O)CCNCCCN1C(=O)CCCn3cccc31)CC2 (3D coordinates assigned)
COc1cc2c(cc1OC)C[N@H+](C(=O)CCNCCCN1C(=O)CCCn3cccc31)CC2 (nonaromatic ring conformer: 104.5527725886332 kcal/mol)

>  <smiles>  (36) 
COc1cc2c(cc1OC)CN(C(=O)CCNCCCN1C(=O)CCCn3cccc31)CC2

>  <score_type>  (36) 
oracle

>  <origin>  (36) 
adg

>  <m_score__min__energy>  (36) 
-6.29

>  <m_primary>  (36) 
energy

$$$$
36:0
     RDKit          3D

 33 35  0  0  0  0  0  0  0  0999 V2000
   -4.5160   21.0880  -31.2130 C   0  0  0  0  0  0  0  0  0  0  0  0
   -4.7670   22.5550  -30.9890 C   0  0  0  0  0  0  0  0  0  0  0  0
   -5.9640   23.1780  -31.4290 C   0  0  0  0  0  0  0  0  0  0  0  0
   -7.2120   22.2710  -32.2760 Cl  0  0  0  0  0  0  0  0  0  0  0  0
   -6.1870   24.5520  -31.1840 C   0  0  0  0  0  0  0  0  0  0  0  0
   -5.2390   25.3210  -30.4890 C   0  0  0  0  0  0  0  0  0  0  0  0
   -4.0840   24.6870  -30.0480 C   0  0  0  0  0  0  0  0  0  0  0  0
   -3.0950   25.2200  -29.3740 O   0  0  0  0  0  0  0  0  0  0  0  0
   -2.2100   24.2670  -29.1540 C   0  0  0  0  0  0  0  0  0  0  0  0
   -0.9300   24.4780  -28.4070 C   0  0  0  0  0  0  0  0  0  0  0  0
   -1.1120   24.1650  -26.9900 N   0  0  0  0  0  0  0  0  0  0  0  0
   -0.9090   25.1060  -25.9170 C   0  0  0  0  0  0  0  0  0  0  0  0
   -1.4670   26.3970  -25.9370 C   0  0  0  0  0  0  0  0  0  0  0  0
   -1.2440   27.2710  -24.8720 C   0  0  0  0  0  0  0  0  0  0  0  0
   -0.4640   26.8530  -23.7930 C   0  0  0  0  0  0  0  0  0  0  0  0
    0.0750   25.6040  -23.7850 N   0  0  0  0  0  0  0  0  0  0  0  0
   -0.1280   24.7340  -24.8120 C   0  0  0  0  0  0  0  0  0  0  0  0
   -2.6360   23.0610  -29.6980 C   0  0  0  0  0  0  0  0  0  0  0  0
   -3.8540   23.3550  -30.2810 C   0  0  0  0  0  0  0  0  0  0  0  0
   -4.4288   20.5785  -30.2420 H   0  0  0  0  0  0  0  0  0  0  0  0
   -5.3531   20.6552  -31.7803 H   0  0  0  0  0  0  0  0  0  0  0  0
   -3.5826   20.9581  -31.7803 H   0  0  0  0  0  0  0  0  0  0  0  0
   -7.1136   25.0246  -31.5417 H   0  0  0  0  0  0  0  0  0  0  0  0
   -5.4058   26.3917  -30.2998 H   0  0  0  0  0  0  0  0  0  0  0  0
   -0.1527   23.8225  -28.8265 H   0  0  0  0  0  0  0  0  0  0  0  0
   -0.6278   25.5311  -28.5050 H   0  0  0  0  0  0  0  0  0  0  0  0
   -1.4280   23.1970  -26.7520 H   0  0  0  0  0  0  0  0  0  0  0  0
   -2.0795   26.7179  -26.7925 H   0  0  0  0  0  0  0  0  0  0  0  0
   -1.6795   28.2811  -24.8830 H   0  0  0  0  0  0  0  0  0  0  0  0
   -0.2848   27.5342  -22.9481 H   0  0  0  0  0  0  0  0  0  0  0  0
    0.6580   25.3060  -22.9710 H   0  0  0  0  0  0  0  0  0  0  0  0
    0.3236   23.7316  -24.7755 H   0  0  0  0  0  0  0  0  0  0  0  0
   -2.1195   22.0902  -29.6706 H   0  0  0  0  0  0  0  0  0  0  0  0
  1  2  1  0
  2  3  2  0
  3  4  1  0
  3  5  1  0
  5  6  2  0
  6  7  1  0
  7  8  1  0
  8  9  1  0
  9 10  1  0
 10 11  1  0
 11 12  1  0
 12 13  2  0
 13 14  1  0
 14 15  2  0
 15 16  1  0
 16 17  2  0
  9 18  2  0
 18 19  1  0
 19  2  1  0
 19  7  2  0
 17 12  1  0
  1 20  1  0
  1 21  1  0
  1 22  1  0
  5 23  1  0
  6 24  1  0
 10 25  1  0
 10 26  1  0
 11 27  1  0
 13 28  1  0
 14 29  1  0
 15 30  1  0
 16 31  1  0
 17 32  1  0
 18 33  1  0
M  CHG  1  16   1
M  END
>  <UniqueID>  (37) 
37

>  <SMILES>  (37) 
Cc1c(Cl)ccc2oc(CNc3ccc[nH+]c3)cc12

>  <Energy>  (37) 
67.99114068029094

>  <Genealogy>  (37) 
Cc1c(Cl)ccc2oc(CNc3ccc[nH+]c3)cc12 (protonated)
Cc1c(Cl)ccc2oc(CNc3ccc[nH+]c3)cc12 (3D coordinates assigned)
Cc1c(Cl)ccc2oc(CNc3ccc[nH+]c3)cc12 (optimized conformer: 67.99114068029094 kcal/mol)

>  <smiles>  (37) 
Cc1c(Cl)ccc2oc(CNc3cccnc3)cc12

>  <score_type>  (37) 
oracle

>  <origin>  (37) 
adg

>  <m_score__min__energy>  (37) 
-7.6200000000000001

>  <m_primary>  (37) 
energy

$$$$
37:0
     RDKit          3D

 45 46  0  0  0  0  0  0  0  0999 V2000
   -9.4360   21.7290  -31.8760 C   0  0  0  0  0  0  0  0  0  0  0  0
   -7.9880   21.3920  -32.1260 C   0  0  0  0  0  0  0  0  0  0  0  0
   -7.6660   20.2320  -32.8460 C   0  0  0  0  0  0  0  0  0  0  0  0
   -6.3240   19.9200  -33.0820 C   0  0  0  0  0  0  0  0  0  0  0  0
   -6.0260   18.8710  -33.7140 O   0  0  0  0  0  0  0  0  0  0  0  0
   -5.3600   20.7210  -32.6430 O   0  0  0  0  0  0  0  0  0  0  0  0
   -5.6060   21.8360  -31.9630 C   0  0  0  0  0  0  0  0  0  0  0  0
   -4.5370   22.6380  -31.5460 C   0  0  0  0  0  0  0  0  0  0  0  0
   -4.7690   23.8250  -30.8460 C   0  0  0  0  0  0  0  0  0  0  0  0
   -3.6730   24.6170  -30.4700 O   0  0  0  0  0  0  0  0  0  0  0  0
   -2.9900   24.5370  -29.2050 C   0  0  1  0  0  0  0  0  0  0  0  0
   -3.9120   24.1050  -28.0470 C   0  0  0  0  0  0  0  0  0  0  0  0
   -1.7930   23.6270  -29.3270 C   0  0  0  0  0  0  0  0  0  0  0  0
   -0.6900   24.0990  -29.7160 O   0  0  0  0  0  0  0  0  0  0  0  0
   -1.8830   22.2450  -28.9520 N   0  0  0  0  0  0  0  0  0  0  0  0
   -0.7900   21.3100  -29.2250 C   0  0  0  0  0  0  0  0  0  0  0  0
   -0.8920   20.0600  -28.3370 C   0  0  0  0  0  0  0  0  0  0  0  0
   -1.8730   20.2540  -27.2440 N   0  0  0  0  0  0  0  0  0  0  0  0
   -1.2550   20.9910  -26.1320 C   0  0  0  0  0  0  0  0  0  0  0  0
   -2.3830   18.9630  -26.7500 C   0  0  0  0  0  0  0  0  0  0  0  0
   -6.0850   24.1950  -30.5200 C   0  0  0  0  0  0  0  0  0  0  0  0
   -6.4160   25.6450  -29.5770 Cl  0  0  0  0  0  0  0  0  0  0  0  0
   -7.1600   23.3970  -30.9260 C   0  0  0  0  0  0  0  0  0  0  0  0
   -6.9370   22.2170  -31.6650 C   0  0  0  0  0  0  0  0  0  0  0  0
   -9.6207   21.7720  -30.7925 H   0  0  0  0  0  0  0  0  0  0  0  0
   -9.6683   22.7052  -32.3266 H   0  0  0  0  0  0  0  0  0  0  0  0
  -10.0755   20.9557  -32.3266 H   0  0  0  0  0  0  0  0  0  0  0  0
   -8.4629   19.5734  -33.2218 H   0  0  0  0  0  0  0  0  0  0  0  0
   -3.5050   22.3310  -31.7714 H   0  0  0  0  0  0  0  0  0  0  0  0
   -2.6485   25.5510  -28.9497 H   0  0  0  0  0  0  0  0  0  0  0  0
   -3.4260   24.3327  -27.0868 H   0  0  0  0  0  0  0  0  0  0  0  0
   -4.8649   24.6503  -28.1140 H   0  0  0  0  0  0  0  0  0  0  0  0
   -4.1028   23.0238  -28.1140 H   0  0  0  0  0  0  0  0  0  0  0  0
   -2.7520   21.9010  -28.4860 H   0  0  0  0  0  0  0  0  0  0  0  0
   -0.8346   21.0045  -30.2808 H   0  0  0  0  0  0  0  0  0  0  0  0
    0.1626   21.8150  -29.0068 H   0  0  0  0  0  0  0  0  0  0  0  0
   -1.2082   19.2066  -28.9548 H   0  0  0  0  0  0  0  0  0  0  0  0
    0.0945   19.8718  -27.8883 H   0  0  0  0  0  0  0  0  0  0  0  0
   -1.6049   20.5738  -25.1762 H   0  0  0  0  0  0  0  0  0  0  0  0
   -0.1607   20.8982  -26.1939 H   0  0  0  0  0  0  0  0  0  0  0  0
   -1.5371   22.0524  -26.1939 H   0  0  0  0  0  0  0  0  0  0  0  0
   -2.3822   18.9651  -25.6500 H   0  0  0  0  0  0  0  0  0  0  0  0
   -3.4091   18.8100  -27.1156 H   0  0  0  0  0  0  0  0  0  0  0  0
   -1.7385   18.1500  -27.1156 H   0  0  0  0  0  0  0  0  0  0  0  0
   -8.1874   23.6924  -30.6667 H   0  0  0  0  0  0  0  0  0  0  0  0
  1  2  1  0
  2  3  2  0
  3  4  1  0
  4  5  2  0
  4  6  1  0
  6  7  1  0
  7  8  2  0
  8  9  1  0
  9 10  1  0
 10 11  1  0
 11 12  1  0
 11 13  1  0
 13 14  2  0
 13 15  1  0
 15 16  1  0
 16 17  1  0
 17 18  1  0
 18 19  1  0
 18 20  1  0
  9 21  2  0
 21 22  1  0
 21 23  1  0
 23 24  2  0
 24  2  1  0
 24  7  1  0
  1 25  1  0
  1 26  1  0
  1 27  1  0
  3 28  1  0
  8 29  1  0
 11 30  1  1
 12 31  1  0
 12 32  1  0
 12 33  1  0
 15 34  1  0
 16 35  1  0
 16 36  1  0
 17 37  1  0
 17 38  1  0
 19 39  1  0
 19 40  1  0
 19 41  1  0
 20 42  1  0
 20 43  1  0
 20 44  1  0
 23 45  1  0
M  END
>  <UniqueID>  (38) 
38

>  <SMILES>  (38) 
Cc1cc(=O)oc2cc(O[C@@H](C)C(=O)NCCN(C)C)c(Cl)cc12

>  <Energy>  (38) 
56.706708649640085

>  <Genealogy>  (38) 
Cc1cc(=O)oc2cc(O[C@@H](C)C(=O)NCCN(C)C)c(Cl)cc12 (chirality)
Cc1cc(=O)oc2cc(O[C@@H](C)C(=O)NCCN(C)C)c(Cl)cc12 (3D coordinates assigned)
Cc1cc(=O)oc2cc(O[C@@H](C)C(=O)NCCN(C)C)c(Cl)cc12 (optimized conformer: 56.706708649640085 kcal/mol)

>  <smiles>  (38) 
Cc1cc(=O)oc2cc(OC(C)C(=O)NCCN(C)C)c(Cl)cc12

>  <score_type>  (38) 
oracle

>  <origin>  (38) 
adg

>  <m_score__min__energy>  (38) 
-8.2799999999999994

>  <m_primary>  (38) 
energy

$$$$
38:0
     RDKit          3D

 43 44  0  0  0  0  0  0  0  0999 V2000
    0.8930   23.5830  -27.0350 C   0  0  0  0  0  0  0  0  0  0  0  0
    0.4340   23.9550  -28.3300 O   0  0  0  0  0  0  0  0  0  0  0  0
   -0.6710   23.3920  -28.9860 C   0  0  0  0  0  0  0  0  0  0  0  0
   -0.6990   22.0180  -29.2980 C   0  0  0  0  0  0  0  0  0  0  0  0
   -1.8000   21.4560  -29.9410 C   0  0  0  0  0  0  0  0  0  0  0  0
   -2.8820   22.2530  -30.2980 C   0  0  0  0  0  0  0  0  0  0  0  0
   -2.8760   23.6270  -30.0220 C   0  0  0  0  0  0  0  0  0  0  0  0
   -4.0400   24.4450  -30.4310 C   0  0  0  0  0  0  0  0  0  0  0  0
   -3.8710   25.6670  -30.6930 O   0  0  0  0  0  0  0  0  0  0  0  0
   -5.3580   23.8740  -30.5230 N   0  0  0  0  0  0  0  0  0  0  0  0
   -5.8500   23.0270  -29.4270 C   0  0  0  0  0  0  0  0  0  0  0  0
   -7.2390   22.4670  -29.7450 C   0  0  0  0  0  0  0  0  0  0  0  0
   -7.3120   22.0980  -31.1690 N   0  0  0  0  0  0  0  0  0  0  0  0
   -8.7740   21.1960  -31.4890 S   0  0  0  0  0  0  0  0  0  0  0  0
   -8.3920   19.6850  -32.3500 C   0  0  0  0  0  0  0  0  0  0  0  0
   -9.6930   22.0140  -32.3530 O   0  0  0  0  0  0  0  0  0  0  0  0
   -9.4740   20.8680  -30.1990 O   0  0  0  0  0  0  0  0  0  0  0  0
   -7.2560   23.2940  -32.0410 C   0  0  0  0  0  0  0  0  0  0  0  0
   -6.3000   24.3920  -31.5230 C   0  0  0  0  0  0  0  0  0  0  0  0
   -1.7810   24.2060  -29.3400 C   0  0  0  0  0  0  0  0  0  0  0  0
   -1.8640   25.5780  -29.0290 O   0  0  0  0  0  0  0  0  0  0  0  0
   -1.2160   26.2510  -27.9560 C   0  0  0  0  0  0  0  0  0  0  0  0
    0.2782   24.0813  -26.2709 H   0  0  0  0  0  0  0  0  0  0  0  0
    0.8122   22.4924  -26.9166 H   0  0  0  0  0  0  0  0  0  0  0  0
    1.9433   23.8879  -26.9166 H   0  0  0  0  0  0  0  0  0  0  0  0
    0.1579   21.3821  -29.0309 H   0  0  0  0  0  0  0  0  0  0  0  0
   -1.8132   20.3795  -30.1667 H   0  0  0  0  0  0  0  0  0  0  0  0
   -3.7497   21.8014  -30.8011 H   0  0  0  0  0  0  0  0  0  0  0  0
   -5.1510   22.1909  -29.2774 H   0  0  0  0  0  0  0  0  0  0  0  0
   -5.9201   23.6396  -28.5161 H   0  0  0  0  0  0  0  0  0  0  0  0
   -7.4244   21.5764  -29.1266 H   0  0  0  0  0  0  0  0  0  0  0  0
   -7.9986   23.2324  -29.5279 H   0  0  0  0  0  0  0  0  0  0  0  0
   -6.5090   21.4680  -31.4020 H   0  0  0  0  0  0  0  0  0  0  0  0
   -8.1904   18.8876  -31.6195 H   0  0  0  0  0  0  0  0  0  0  0  0
   -9.2455   19.3968  -32.9812 H   0  0  0  0  0  0  0  0  0  0  0  0
   -7.5040   19.8371  -32.9812 H   0  0  0  0  0  0  0  0  0  0  0  0
   -6.9176   22.9809  -33.0397 H   0  0  0  0  0  0  0  0  0  0  0  0
   -8.2666   23.7280  -32.0592 H   0  0  0  0  0  0  0  0  0  0  0  0
   -5.7297   24.7960  -32.3724 H   0  0  0  0  0  0  0  0  0  0  0  0
   -6.9080   25.1737  -31.0442 H   0  0  0  0  0  0  0  0  0  0  0  0
   -1.5915   25.8610  -26.9984 H   0  0  0  0  0  0  0  0  0  0  0  0
   -0.1308   26.0832  -28.0200 H   0  0  0  0  0  0  0  0  0  0  0  0
   -1.4247   27.3291  -28.0200 H   0  0  0  0  0  0  0  0  0  0  0  0
  1  2  1  0
  2  3  1  0
  3  4  2  0
  4  5  1  0
  5  6  2  0
  6  7  1  0
  7  8  1  0
  8  9  2  0
  8 10  1  0
 10 11  1  0
 11 12  1  0
 12 13  1  0
 13 14  1  0
 14 15  1  0
 14 16  2  0
 14 17  2  0
 13 18  1  0
 18 19  1  0
  7 20  2  0
 20 21  1  0
 21 22  1  0
 20  3  1  0
 19 10  1  0
  1 23  1  0
  1 24  1  0
  1 25  1  0
  4 26  1  0
  5 27  1  0
  6 28  1  0
 11 29  1  0
 11 30  1  0
 12 31  1  0
 12 32  1  0
 13 33  1  0
 15 34  1  0
 15 35  1  0
 15 36  1  0
 18 37  1  0
 18 38  1  0
 19 39  1  0
 19 40  1  0
 22 41  1  0
 22 42  1  0
 22 43  1  0
M  CHG  1  13   1
M  END
>  <UniqueID>  (39) 
39

>  <SMILES>  (39) 
COc1cccc(C(=O)N2CC[NH+](S(C)(=O)=O)CC2)c1OC

>  <Energy>  (39) 
48.459210435805566

>  <Genealogy>  (39) 
COc1cccc(C(=O)N2CC[NH+](S(C)(=O)=O)CC2)c1OC (protonated)
COc1cccc(C(=O)N2CC[NH+](S(C)(=O)=O)CC2)c1OC (3D coordinates assigned)
COc1cccc(C(=O)N2CC[NH+](S(C)(=O)=O)CC2)c1OC (nonaromatic ring conformer: 48.459210435805566 kcal/mol)

>  <smiles>  (39) 
COc1cccc(C(=O)N2CCN(S(C)(=O)=O)CC2)c1OC

>  <score_type>  (39) 
oracle

>  <origin>  (39) 
adg

>  <m_score__min__energy>  (39) 
-7.2599999999999998

>  <m_primary>  (39) 
energy

$$$$
39:0
     RDKit          3D

 44 46  0  0  0  0  0  0  0  0999 V2000
   -7.1630   24.1730  -30.6810 C   0  0  0  0  0  0  0  0  0  0  0  0
   -6.2050   25.2920  -30.2610 C   0  0  0  0  0  0  0  0  0  0  0  0
   -5.6290   25.0680  -28.9210 N   0  0  0  0  0  0  0  0  0  0  0  0
   -4.4780   24.1900  -28.9710 C   0  0  0  0  0  0  0  0  0  0  0  0
   -4.2550   23.4200  -30.1270 C   0  0  0  0  0  0  0  0  0  0  0  0
   -3.1680   22.5330  -30.2230 C   0  0  0  0  0  0  0  0  0  0  0  0
   -2.9910   21.7230  -31.4600 C   0  0  0  0  0  0  0  0  0  0  0  0
   -1.7420   21.5430  -32.0800 C   0  0  0  0  0  0  0  0  0  0  0  0
   -1.6500   20.7600  -33.1880 N   0  0  0  0  0  0  0  0  0  0  0  0
   -2.7380   20.1400  -33.7120 C   0  0  0  0  0  0  0  0  0  0  0  0
   -3.9850   20.2950  -33.0930 C   0  0  0  0  0  0  0  0  0  0  0  0
   -5.1970   19.6200  -33.6040 C   0  0  0  0  0  0  0  0  0  0  0  0
   -5.1350   18.9250  -34.6540 O   0  0  0  0  0  0  0  0  0  0  0  0
   -6.5050   19.7910  -32.9340 C   0  0  0  0  0  0  0  0  0  0  0  0
   -6.9560   21.0930  -32.6570 C   0  0  0  0  0  0  0  0  0  0  0  0
   -8.1680   21.2950  -31.9930 C   0  0  0  0  0  0  0  0  0  0  0  0
   -8.9470   20.2030  -31.6070 C   0  0  0  0  0  0  0  0  0  0  0  0
   -8.5220   18.9040  -31.8970 C   0  0  0  0  0  0  0  0  0  0  0  0
   -7.3100   18.6880  -32.5660 C   0  0  0  0  0  0  0  0  0  0  0  0
   -6.8790   17.0330  -32.9840 Cl  0  0  0  0  0  0  0  0  0  0  0  0
   -4.0710   21.0910  -31.9940 N   0  0  0  0  0  0  0  0  0  0  0  0
   -2.2690   22.4530  -29.1470 C   0  0  0  0  0  0  0  0  0  0  0  0
   -2.4720   23.2140  -27.9950 C   0  0  0  0  0  0  0  0  0  0  0  0
   -3.5760   24.0720  -27.8820 C   0  0  0  0  0  0  0  0  0  0  0  0
   -3.7300   24.8970  -26.6300 C   0  0  0  0  0  0  0  0  0  0  0  0
   -7.5773   23.6891  -29.7842 H   0  0  0  0  0  0  0  0  0  0  0  0
   -7.9821   24.5972  -31.2802 H   0  0  0  0  0  0  0  0  0  0  0  0
   -6.6176   23.4290  -31.2802 H   0  0  0  0  0  0  0  0  0  0  0  0
   -5.3855   25.3481  -30.9926 H   0  0  0  0  0  0  0  0  0  0  0  0
   -6.7799   26.2292  -30.2258 H   0  0  0  0  0  0  0  0  0  0  0  0
   -6.3640   24.6630  -28.2980 H   0  0  0  0  0  0  0  0  0  0  0  0
   -5.3660   25.9850  -28.4900 H   0  0  0  0  0  0  0  0  0  0  0  0
   -4.9476   23.5140  -30.9764 H   0  0  0  0  0  0  0  0  0  0  0  0
   -0.8454   22.0322  -31.6716 H   0  0  0  0  0  0  0  0  0  0  0  0
   -2.6411   19.5206  -34.6158 H   0  0  0  0  0  0  0  0  0  0  0  0
   -6.3507   21.9583  -32.9651 H   0  0  0  0  0  0  0  0  0  0  0  0
   -8.5096   22.3174  -31.7737 H   0  0  0  0  0  0  0  0  0  0  0  0
   -9.8957   20.3652  -31.0744 H   0  0  0  0  0  0  0  0  0  0  0  0
   -9.1424   18.0461  -31.5984 H   0  0  0  0  0  0  0  0  0  0  0  0
   -1.3976   21.7849  -29.2128 H   0  0  0  0  0  0  0  0  0  0  0  0
   -1.7558   23.1400  -27.1634 H   0  0  0  0  0  0  0  0  0  0  0  0
   -3.6094   24.2509  -25.7480 H   0  0  0  0  0  0  0  0  0  0  0  0
   -2.9636   25.6859  -26.6142 H   0  0  0  0  0  0  0  0  0  0  0  0
   -4.7294   25.3563  -26.6142 H   0  0  0  0  0  0  0  0  0  0  0  0
  1  2  1  0
  2  3  1  0
  3  4  1  0
  4  5  2  0
  5  6  1  0
  6  7  1  0
  7  8  2  0
  8  9  1  0
  9 10  2  0
 10 11  1  0
 11 12  1  0
 12 13  2  0
 12 14  1  0
 14 15  2  0
 15 16  1  0
 16 17  2  0
 17 18  1  0
 18 19  2  0
 19 20  1  0
 11 21  2  0
  6 22  2  0
 22 23  1  0
 23 24  2  0
 24 25  1  0
 24  4  1  0
 21  7  1  0
 19 14  1  0
  1 26  1  0
  1 27  1  0
  1 28  1  0
  2 29  1  0
  2 30  1  0
  3 31  1  0
  3 32  1  0
  5 33  1  0
  8 34  1  0
 10 35  1  0
 15 36  1  0
 16 37  1  0
 17 38  1  0
 18 39  1  0
 22 40  1  0
 23 41  1  0
 25 42  1  0
 25 43  1  0
 25 44  1  0
M  CHG  1   3   1
M  END
>  <UniqueID>  (40) 
40

>  <SMILES>  (40) 
CC[NH2+]c1cc(-c2cncc(C(=O)c3ccccc3Cl)n2)ccc1C

>  <Energy>  (40) 
58.17619246208534

>  <Genealogy>  (40) 
CC[NH2+]c1cc(-c2cncc(C(=O)c3ccccc3Cl)n2)ccc1C (protonated)
CC[NH2+]c1cc(-c2cncc(C(=O)c3ccccc3Cl)n2)ccc1C (3D coordinates assigned)
CC[NH2+]c1cc(-c2cncc(C(=O)c3ccccc3Cl)n2)ccc1C (optimized conformer: 58.17619246208534 kcal/mol)

>  <smiles>  (40) 
CCNc1cc(-c2cncc(C(=O)c3ccccc3Cl)n2)ccc1C

>  <score_type>  (40) 
oracle

>  <origin>  (40) 
adg

>  <m_score__min__energy>  (40) 
-9.1699999999999999

>  <m_primary>  (40) 
energy

$$$$
40:0
     RDKit          3D

 59 62  0  0  0  0  0  0  0  0999 V2000
   -6.4900   25.4310  -29.6580 C   0  0  0  0  0  0  0  0  0  0  0  0
   -5.1560   24.6800  -29.6290 C   0  0  0  0  0  0  0  0  0  0  0  0
   -4.8550   23.9340  -30.8730 N   0  0  0  0  0  0  0  0  0  0  0  0
   -4.4400   22.5230  -30.6860 C   0  0  0  0  0  0  0  0  0  0  0  0
   -5.4800   21.5180  -31.2060 C   0  0  0  0  0  0  0  0  0  0  0  0
   -6.8290   22.0950  -31.0890 N   0  0  0  0  0  0  0  0  0  0  0  0
   -7.8760   21.0750  -31.3110 C   0  0  0  0  0  0  0  0  0  0  0  0
   -7.3200   19.9450  -32.1350 C   0  0  0  0  0  0  0  0  0  0  0  0
   -7.1590   18.6770  -31.5600 C   0  0  0  0  0  0  0  0  0  0  0  0
   -6.5690   17.6410  -32.2870 C   0  0  0  0  0  0  0  0  0  0  0  0
   -6.1250   17.8570  -33.6030 C   0  0  0  0  0  0  0  0  0  0  0  0
   -5.4140   16.8190  -34.3150 N   0  0  0  0  0  0  0  0  0  0  0  0
   -5.8520   15.4240  -34.2030 C   0  0  0  0  0  0  0  0  0  0  0  0
   -4.2010   17.1390  -35.0900 C   0  0  0  0  0  0  0  0  0  0  0  0
   -3.0020   17.3080  -34.1660 C   0  0  0  0  0  0  0  0  0  0  0  0
   -2.2770   16.1470  -33.8540 C   0  0  0  0  0  0  0  0  0  0  0  0
   -1.2320   16.1930  -32.9350 C   0  0  0  0  0  0  0  0  0  0  0  0
   -0.8880   17.3650  -32.3410 N   0  0  0  0  0  0  0  0  0  0  0  0
   -1.5360   18.5300  -32.6300 C   0  0  0  0  0  0  0  0  0  0  0  0
   -1.1400   19.7200  -31.9950 C   0  0  0  0  0  0  0  0  0  0  0  0
   -1.7830   20.9230  -32.2820 C   0  0  0  0  0  0  0  0  0  0  0  0
   -2.8210   20.9540  -33.2120 C   0  0  0  0  0  0  0  0  0  0  0  0
   -3.2330   19.7810  -33.8530 C   0  0  0  0  0  0  0  0  0  0  0  0
   -2.6100   18.5420  -33.5660 C   0  0  0  0  0  0  0  0  0  0  0  0
   -6.3160   19.1230  -34.1870 C   0  0  0  0  0  0  0  0  0  0  0  0
   -6.9060   20.1590  -33.4580 C   0  0  0  0  0  0  0  0  0  0  0  0
   -6.9840   23.2150  -32.0360 C   0  0  0  0  0  0  0  0  0  0  0  0
   -5.7770   24.1800  -32.0030 C   0  0  0  0  0  0  0  0  0  0  0  0
   -6.8266   25.6205  -28.6280 H   0  0  0  0  0  0  0  0  0  0  0  0
   -6.3603   26.3887  -30.1834 H   0  0  0  0  0  0  0  0  0  0  0  0
   -7.2415   24.8234  -30.1834 H   0  0  0  0  0  0  0  0  0  0  0  0
   -4.3515   25.4112  -29.4614 H   0  0  0  0  0  0  0  0  0  0  0  0
   -5.2283   23.9357  -28.8223 H   0  0  0  0  0  0  0  0  0  0  0  0
   -3.4953   22.3609  -31.2257 H   0  0  0  0  0  0  0  0  0  0  0  0
   -4.3293   22.3528  -29.6049 H   0  0  0  0  0  0  0  0  0  0  0  0
   -5.2708   21.2883  -32.2612 H   0  0  0  0  0  0  0  0  0  0  0  0
   -5.4253   20.5955  -30.6093 H   0  0  0  0  0  0  0  0  0  0  0  0
   -8.2181   20.6856  -30.3408 H   0  0  0  0  0  0  0  0  0  0  0  0
   -8.7215   21.5326  -31.8455 H   0  0  0  0  0  0  0  0  0  0  0  0
   -7.4995   18.4968  -30.5297 H   0  0  0  0  0  0  0  0  0  0  0  0
   -6.4509   16.6490  -31.8266 H   0  0  0  0  0  0  0  0  0  0  0  0
   -5.9378   15.1508  -33.1409 H   0  0  0  0  0  0  0  0  0  0  0  0
   -6.8303   15.3065  -34.6920 H   0  0  0  0  0  0  0  0  0  0  0  0
   -5.1165   14.7684  -34.6920 H   0  0  0  0  0  0  0  0  0  0  0  0
   -3.9989   16.3221  -35.7984 H   0  0  0  0  0  0  0  0  0  0  0  0
   -4.3658   18.0817  -35.6323 H   0  0  0  0  0  0  0  0  0  0  0  0
   -2.5363   15.1943  -34.3389 H   0  0  0  0  0  0  0  0  0  0  0  0
   -0.6810   15.2735  -32.6883 H   0  0  0  0  0  0  0  0  0  0  0  0
   -0.1030   17.3570  -31.6510 H   0  0  0  0  0  0  0  0  0  0  0  0
   -0.3164   19.7017  -31.2661 H   0  0  0  0  0  0  0  0  0  0  0  0
   -1.4713   21.8479  -31.7746 H   0  0  0  0  0  0  0  0  0  0  0  0
   -3.3193   21.9070  -33.4432 H   0  0  0  0  0  0  0  0  0  0  0  0
   -4.0501   19.8214  -34.5883 H   0  0  0  0  0  0  0  0  0  0  0  0
   -5.9984   19.2985  -35.2254 H   0  0  0  0  0  0  0  0  0  0  0  0
   -7.0463   21.1458  -33.9233 H   0  0  0  0  0  0  0  0  0  0  0  0
   -7.0839   22.8076  -33.0529 H   0  0  0  0  0  0  0  0  0  0  0  0
   -7.8786   23.7837  -31.7423 H   0  0  0  0  0  0  0  0  0  0  0  0
   -5.2150   24.0667  -32.9418 H   0  0  0  0  0  0  0  0  0  0  0  0
   -6.1789   25.1962  -31.8770 H   0  0  0  0  0  0  0  0  0  0  0  0
  1  2  1  0
  2  3  1  0
  3  4  1  0
  4  5  1  0
  5  6  1  0
  6  7  1  0
  7  8  1  0
  8  9  2  0
  9 10  1  0
 10 11  2  0
 11 12  1  0
 12 13  1  0
 12 14  1  0
 14 15  1  0
 15 16  2  0
 16 17  1  0
 17 18  2  0
 18 19  1  0
 19 20  2  0
 20 21  1  0
 21 22  2  0
 22 23  1  0
 23 24  2  0
 11 25  1  0
 25 26  2  0
  6 27  1  0
 27 28  1  0
 28  3  1  0
 26  8  1  0
 24 15  1  0
 24 19  1  0
  1 29  1  0
  1 30  1  0
  1 31  1  0
  2 32  1  0
  2 33  1  0
  4 34  1  0
  4 35  1  0
  5 36  1  0
  5 37  1  0
  7 38  1  0
  7 39  1  0
  9 40  1  0
 10 41  1  0
 13 42  1  0
 13 43  1  0
 13 44  1  0
 14 45  1  0
 14 46  1  0
 16 47  1  0
 17 48  1  0
 18 49  1  0
 20 50  1  0
 21 51  1  0
 22 52  1  0
 23 53  1  0
 25 54  1  0
 26 55  1  0
 27 56  1  0
 27 57  1  0
 28 58  1  0
 28 59  1  0
M  CHG  1  18   1
M  END
>  <UniqueID>  (41) 
41

>  <SMILES>  (41) 
CCN1CCN(Cc2ccc(N(C)Cc3cc[nH+]c4ccccc34)cc2)CC1

>  <Energy>  (41) 
82.9621602070153

>  <Genealogy>  (41) 
CCN1CCN(Cc2ccc(N(C)Cc3cc[nH+]c4ccccc34)cc2)CC1 (protonated)
CCN1CCN(Cc2ccc(N(C)Cc3cc[nH+]c4ccccc34)cc2)CC1 (3D coordinates assigned)
CCN1CCN(Cc2ccc(N(C)Cc3cc[nH+]c4ccccc34)cc2)CC1 (nonaromatic ring conformer: 82.9621602070153 kcal/mol)

>  <smiles>  (41) 
CCN1CCN(Cc2ccc(N(C)Cc3ccnc4ccccc34)cc2)CC1

>  <score_type>  (41) 
oracle

>  <origin>  (41) 
adg

>  <m_score__min__energy>  (41) 
-9.4299999999999997

>  <m_primary>  (41) 
energy

$$$$
41:0
     RDKit          3D

 51 52  0  0  0  0  0  0  0  0999 V2000
   -7.9770   18.2660  -31.5870 C   0  0  0  0  0  0  0  0  0  0  0  0
   -9.0410   19.2380  -32.0690 C   0  0  0  0  0  0  0  0  0  0  0  0
   -8.4310   20.2600  -32.8540 O   0  0  0  0  0  0  0  0  0  0  0  0
   -7.7180   21.3490  -32.3290 C   0  0  0  0  0  0  0  0  0  0  0  0
   -8.3040   22.2610  -31.4300 C   0  0  0  0  0  0  0  0  0  0  0  0
   -7.5630   23.3330  -30.9300 C   0  0  0  0  0  0  0  0  0  0  0  0
   -6.2320   23.5200  -31.3250 C   0  0  0  0  0  0  0  0  0  0  0  0
   -5.4270   24.6560  -30.7550 C   0  0  0  0  0  0  0  0  0  0  0  0
   -4.3380   24.1260  -29.8190 C   0  0  0  0  0  0  0  0  0  0  0  0
   -3.1250   24.9310  -29.9260 N   0  0  0  0  0  0  0  0  0  0  0  0
   -2.0170   24.9220  -29.0140 C   0  0  0  0  0  0  0  0  0  0  0  0
   -1.2810   25.9420  -28.9520 O   0  0  0  0  0  0  0  0  0  0  0  0
   -1.7430   23.7670  -28.0930 C   0  0  0  0  0  0  0  0  0  0  0  0
   -0.5760   23.0720  -28.5240 O   0  0  0  0  0  0  0  0  0  0  0  0
   -0.6170   21.7690  -29.0280 C   0  0  0  0  0  0  0  0  0  0  0  0
   -0.0810   20.8210  -28.3900 O   0  0  0  0  0  0  0  0  0  0  0  0
   -1.2930   21.5220  -30.3130 C   0  0  0  0  0  0  0  0  0  0  0  0
   -2.5660   21.1050  -30.3770 C   0  0  0  0  0  0  0  0  0  0  0  0
   -3.1820   20.9370  -31.6230 O   0  0  0  0  0  0  0  0  0  0  0  0
   -2.5940   21.4450  -32.8220 C   0  0  0  0  0  0  0  0  0  0  0  0
   -1.0750   21.2730  -32.7650 C   0  0  0  0  0  0  0  0  0  0  0  0
   -0.5860   21.7360  -31.5040 O   0  0  0  0  0  0  0  0  0  0  0  0
   -5.6410   22.6060  -32.2100 C   0  0  0  0  0  0  0  0  0  0  0  0
   -6.3780   21.5170  -32.7150 C   0  0  0  0  0  0  0  0  0  0  0  0
   -5.8260   20.5820  -33.6070 O   0  0  0  0  0  0  0  0  0  0  0  0
   -5.3610   19.2760  -33.2660 C   0  0  0  0  0  0  0  0  0  0  0  0
   -5.6600   18.2860  -34.3870 C   0  0  0  0  0  0  0  0  0  0  0  0
   -7.9631   18.2533  -30.4872 H   0  0  0  0  0  0  0  0  0  0  0  0
   -8.2046   17.2574  -31.9625 H   0  0  0  0  0  0  0  0  0  0  0  0
   -6.9931   18.5836  -31.9625 H   0  0  0  0  0  0  0  0  0  0  0  0
   -9.7804   18.6990  -32.6795 H   0  0  0  0  0  0  0  0  0  0  0  0
   -9.5425   19.6922  -31.2017 H   0  0  0  0  0  0  0  0  0  0  0  0
   -9.3511   22.1278  -31.1203 H   0  0  0  0  0  0  0  0  0  0  0  0
   -8.0269   24.0351  -30.2216 H   0  0  0  0  0  0  0  0  0  0  0  0
   -4.9566   25.2146  -31.5776 H   0  0  0  0  0  0  0  0  0  0  0  0
   -6.0973   25.3147  -30.1832 H   0  0  0  0  0  0  0  0  0  0  0  0
   -4.7045   24.1622  -28.7825 H   0  0  0  0  0  0  0  0  0  0  0  0
   -4.1004   23.0909  -30.1054 H   0  0  0  0  0  0  0  0  0  0  0  0
   -1.5872   24.1437  -27.0713 H   0  0  0  0  0  0  0  0  0  0  0  0
   -2.6014   23.0793  -28.1077 H   0  0  0  0  0  0  0  0  0  0  0  0
   -3.1247   20.8955  -29.4529 H   0  0  0  0  0  0  0  0  0  0  0  0
   -2.9921   20.8935  -33.6865 H   0  0  0  0  0  0  0  0  0  0  0  0
   -2.8359   22.5134  -32.9218 H   0  0  0  0  0  0  0  0  0  0  0  0
   -0.8223   20.2094  -32.8873 H   0  0  0  0  0  0  0  0  0  0  0  0
   -0.6110   21.8575  -33.5732 H   0  0  0  0  0  0  0  0  0  0  0  0
   -4.5921   22.7410  -32.5125 H   0  0  0  0  0  0  0  0  0  0  0  0
   -4.2747   19.3125  -33.0970 H   0  0  0  0  0  0  0  0  0  0  0  0
   -5.8788   18.9438  -32.3541 H   0  0  0  0  0  0  0  0  0  0  0  0
   -5.9523   17.3183  -33.9533 H   0  0  0  0  0  0  0  0  0  0  0  0
   -6.4815   18.6725  -35.0081 H   0  0  0  0  0  0  0  0  0  0  0  0
   -4.7619   18.1532  -35.0081 H   0  0  0  0  0  0  0  0  0  0  0  0
  1  2  1  0
  2  3  1  0
  3  4  1  0
  4  5  2  0
  5  6  1  0
  6  7  2  0
  7  8  1  0
  8  9  1  0
  9 10  1  0
 10 11  1  0
 11 12  2  0
 11 13  1  0
 13 14  1  0
 14 15  1  0
 15 16  2  0
 15 17  1  0
 17 18  2  0
 18 19  1  0
 19 20  1  0
 20 21  1  0
 21 22  1  0
  7 23  1  0
 23 24  2  0
 24 25  1  0
 25 26  1  0
 26 27  1  0
 24  4  1  0
 22 17  1  0
  1 28  1  0
  1 29  1  0
  1 30  1  0
  2 31  1  0
  2 32  1  0
  5 33  1  0
  6 34  1  0
  8 35  1  0
  8 36  1  0
  9 37  1  0
  9 38  1  0
 13 39  1  0
 13 40  1  0
 18 41  1  0
 20 42  1  0
 20 43  1  0
 21 44  1  0
 21 45  1  0
 23 46  1  0
 26 47  1  0
 26 48  1  0
 27 49  1  0
 27 50  1  0
 27 51  1  0
M  CHG  1  10  -1
M  END
>  <UniqueID>  (42) 
42

>  <SMILES>  (42) 
CCOc1ccc(CC[N-]C(=O)COC(=O)C2=COCCO2)cc1OCC

>  <Energy>  (42) 
37.72059841119906

>  <Genealogy>  (42) 
CCOc1ccc(CC[N-]C(=O)COC(=O)C2=COCCO2)cc1OCC (protonated)
CCOc1ccc(CC[N-]C(=O)COC(=O)C2=COCCO2)cc1OCC (3D coordinates assigned)
CCOc1ccc(CC[N-]C(=O)COC(=O)C2=COCCO2)cc1OCC (nonaromatic ring conformer: 37.72059841119906 kcal/mol)

>  <smiles>  (42) 
CCOc1ccc(CCNC(=O)COC(=O)C2=COCCO2)cc1OCC

>  <score_type>  (42) 
oracle

>  <origin>  (42) 
adg

>  <m_score__min__energy>  (42) 
-8.3000000000000007

>  <m_primary>  (42) 
energy

$$$$
42:0
     RDKit          3D

 41 44  0  0  0  0  0  0  0  0999 V2000
   -8.7660   19.2490  -31.6180 C   0  0  0  0  0  0  0  0  0  0  0  0
   -7.4960   18.6100  -31.5470 O   0  0  0  0  0  0  0  0  0  0  0  0
   -6.6980   18.2910  -32.6570 C   0  0  0  0  0  0  0  0  0  0  0  0
   -6.8950   17.1000  -33.3880 C   0  0  0  0  0  0  0  0  0  0  0  0
   -6.1210   16.8260  -34.5160 C   0  0  0  0  0  0  0  0  0  0  0  0
   -5.1470   17.7330  -34.9340 C   0  0  0  0  0  0  0  0  0  0  0  0
   -4.9370   18.9130  -34.2190 C   0  0  0  0  0  0  0  0  0  0  0  0
   -5.6930   19.1970  -33.0680 C   0  0  0  0  0  0  0  0  0  0  0  0
   -5.4410   20.4150  -32.3460 N   0  0  0  0  0  0  0  0  0  0  0  0
   -6.2480   21.5030  -32.2890 C   0  0  0  0  0  0  0  0  0  0  0  0
   -5.6580   22.4180  -31.4470 C   0  0  0  0  0  0  0  0  0  0  0  0
   -4.5250   21.8090  -31.0000 C   0  0  0  0  0  0  0  0  0  0  0  0
   -4.3950   20.5860  -31.5440 N   0  0  0  0  0  0  0  0  0  0  0  0
   -3.6870   22.4300  -29.9840 C   0  0  0  0  0  0  0  0  0  0  0  0
   -2.7170   21.8020  -29.4790 O   0  0  0  0  0  0  0  0  0  0  0  0
   -4.0400   23.7600  -29.5430 N   0  0  0  0  0  0  0  0  0  0  0  0
   -3.2890   24.4110  -28.5050 C   0  0  0  0  0  0  0  0  0  0  0  0
   -2.0010   24.9030  -28.7710 C   0  0  0  0  0  0  0  0  0  0  0  0
   -1.2620   25.5280  -27.7630 C   0  0  0  0  0  0  0  0  0  0  0  0
   -1.8010   25.6620  -26.4810 C   0  0  0  0  0  0  0  0  0  0  0  0
   -3.0800   25.1700  -26.2050 C   0  0  0  0  0  0  0  0  0  0  0  0
   -3.8220   24.5450  -27.2120 C   0  0  0  0  0  0  0  0  0  0  0  0
   -5.0240   24.5510  -30.3190 C   0  0  0  0  0  0  0  0  0  0  0  0
   -6.1870   23.6900  -30.8660 C   0  0  0  0  0  0  0  0  0  0  0  0
   -9.1393   19.4368  -30.6005 H   0  0  0  0  0  0  0  0  0  0  0  0
   -8.6663   20.2043  -32.1542 H   0  0  0  0  0  0  0  0  0  0  0  0
   -9.4737   18.5997  -32.1542 H   0  0  0  0  0  0  0  0  0  0  0  0
   -7.6643   16.3826  -33.0661 H   0  0  0  0  0  0  0  0  0  0  0  0
   -6.2791   15.8930  -35.0768 H   0  0  0  0  0  0  0  0  0  0  0  0
   -4.5437   17.5179  -35.8283 H   0  0  0  0  0  0  0  0  0  0  0  0
   -4.1729   19.6275  -34.5591 H   0  0  0  0  0  0  0  0  0  0  0  0
   -7.2026   21.6313  -32.8202 H   0  0  0  0  0  0  0  0  0  0  0  0
   -1.5715   24.7959  -29.7780 H   0  0  0  0  0  0  0  0  0  0  0  0
   -0.2552   25.9148  -27.9791 H   0  0  0  0  0  0  0  0  0  0  0  0
   -1.2187   26.1549  -25.6885 H   0  0  0  0  0  0  0  0  0  0  0  0
   -3.5030   25.2746  -25.1950 H   0  0  0  0  0  0  0  0  0  0  0  0
   -4.8271   24.1567  -26.9909 H   0  0  0  0  0  0  0  0  0  0  0  0
   -5.4414   25.3313  -29.6656 H   0  0  0  0  0  0  0  0  0  0  0  0
   -4.4959   24.9816  -31.1825 H   0  0  0  0  0  0  0  0  0  0  0  0
   -6.8813   23.4540  -30.0461 H   0  0  0  0  0  0  0  0  0  0  0  0
   -6.7119   24.2529  -31.6519 H   0  0  0  0  0  0  0  0  0  0  0  0
  1  2  1  0
  2  3  1  0
  3  4  2  0
  4  5  1  0
  5  6  2  0
  6  7  1  0
  7  8  2  0
  8  9  1  0
  9 10  1  0
 10 11  2  0
 11 12  1  0
 12 13  2  0
 12 14  1  0
 14 15  2  0
 14 16  1  0
 16 17  1  0
 17 18  2  0
 18 19  1  0
 19 20  2  0
 20 21  1  0
 21 22  2  0
 16 23  1  0
 23 24  1  0
  8  3  1  0
 13  9  1  0
 22 17  1  0
 24 11  1  0
  1 25  1  0
  1 26  1  0
  1 27  1  0
  4 28  1  0
  5 29  1  0
  6 30  1  0
  7 31  1  0
 10 32  1  0
 18 33  1  0
 19 34  1  0
 20 35  1  0
 21 36  1  0
 22 37  1  0
 23 38  1  0
 23 39  1  0
 24 40  1  0
 24 41  1  0
M  END
>  <UniqueID>  (43) 
43

>  <SMILES>  (43) 
COc1ccccc1-n1cc2c(n1)C(=O)N(c1ccccc1)CC2

>  <Energy>  (43) 
89.73846159928198

>  <Genealogy>  (43) 
COc1ccccc1-n1cc2c(n1)C(=O)N(c1ccccc1)CC2 (3D coordinates assigned)
COc1ccccc1-n1cc2c(n1)C(=O)N(c1ccccc1)CC2 (nonaromatic ring conformer: 89.73846159928198 kcal/mol)

>  <smiles>  (43) 
COc1ccccc1-n1cc2c(n1)C(=O)N(c1ccccc1)CC2

>  <score_type>  (43) 
oracle

>  <origin>  (43) 
adg

>  <m_score__min__energy>  (43) 
-7.4199999999999999

>  <m_primary>  (43) 
energy

$$$$
43:0
     RDKit          3D

 54 56  0  0  0  0  0  0  0  0999 V2000
   -1.2260   20.4460  -29.9650 C   0  0  0  0  0  0  0  0  0  0  0  0
   -1.4540   21.6300  -30.7200 O   0  0  0  0  0  0  0  0  0  0  0  0
   -2.5980   22.4470  -30.6670 C   0  0  0  0  0  0  0  0  0  0  0  0
   -2.6030   23.4600  -29.6980 C   0  0  0  0  0  0  0  0  0  0  0  0
   -3.6970   24.3150  -29.5610 C   0  0  0  0  0  0  0  0  0  0  0  0
   -4.8040   24.1670  -30.3940 C   0  0  0  0  0  0  0  0  0  0  0  0
   -4.8170   23.1730  -31.3720 C   0  0  0  0  0  0  0  0  0  0  0  0
   -3.7170   22.3040  -31.5290 C   0  0  0  0  0  0  0  0  0  0  0  0
   -3.7120   21.3120  -32.5260 O   0  0  0  0  0  0  0  0  0  0  0  0
   -2.5850   20.9240  -33.3140 C   0  0  0  0  0  0  0  0  0  0  0  0
   -2.7380   19.5140  -33.8310 C   0  0  0  0  0  0  0  0  0  0  0  0
   -1.8550   19.0330  -34.5320 O   0  0  0  0  0  0  0  0  0  0  0  0
   -3.8910   18.7150  -33.4630 N   0  0  0  0  0  0  0  0  0  0  0  0
   -3.4660   17.4030  -32.9040 C   0  0  0  0  0  0  0  0  0  0  0  0
   -4.4630   16.2630  -33.2100 C   0  0  0  0  0  0  0  0  0  0  0  0
   -5.8620   16.7310  -33.2320 N   0  0  0  0  0  0  0  0  0  0  0  0
   -6.3630   17.0490  -31.8780 C   0  0  0  0  0  0  0  0  0  0  0  0
   -7.1240   18.3500  -31.8900 C   0  0  0  0  0  0  0  0  0  0  0  0
   -6.4650   19.5650  -31.6380 C   0  0  0  0  0  0  0  0  0  0  0  0
   -7.1780   20.7670  -31.6510 C   0  0  0  0  0  0  0  0  0  0  0  0
   -8.5520   20.7670  -31.9110 C   0  0  0  0  0  0  0  0  0  0  0  0
   -9.4620   22.3130  -31.9400 S   0  0  0  0  0  0  0  0  0  0  0  0
   -7.9600   23.3390  -31.9530 C   0  0  0  0  0  0  0  0  0  0  0  0
   -9.2130   19.5600  -32.1630 C   0  0  0  0  0  0  0  0  0  0  0  0
   -8.5040   18.3550  -32.1470 C   0  0  0  0  0  0  0  0  0  0  0  0
   -6.0840   17.8290  -34.2100 C   0  0  0  0  0  0  0  0  0  0  0  0
   -4.7900   18.5630  -34.6200 C   0  0  0  0  0  0  0  0  0  0  0  0
   -1.2713   20.6813  -28.8914 H   0  0  0  0  0  0  0  0  0  0  0  0
   -1.9971   19.7008  -30.2099 H   0  0  0  0  0  0  0  0  0  0  0  0
   -0.2333   20.0404  -30.2099 H   0  0  0  0  0  0  0  0  0  0  0  0
   -1.7326   23.5825  -29.0367 H   0  0  0  0  0  0  0  0  0  0  0  0
   -3.6855   25.1053  -28.7960 H   0  0  0  0  0  0  0  0  0  0  0  0
   -5.6698   24.8358  -30.2799 H   0  0  0  0  0  0  0  0  0  0  0  0
   -5.6938   23.0655  -32.0275 H   0  0  0  0  0  0  0  0  0  0  0  0
   -2.4911   21.6108  -34.1681 H   0  0  0  0  0  0  0  0  0  0  0  0
   -1.6867   20.9665  -32.6806 H   0  0  0  0  0  0  0  0  0  0  0  0
   -4.4180   19.2300  -32.7190 H   0  0  0  0  0  0  0  0  0  0  0  0
   -2.4889   17.1388  -33.3347 H   0  0  0  0  0  0  0  0  0  0  0  0
   -3.4177   17.5122  -31.8105 H   0  0  0  0  0  0  0  0  0  0  0  0
   -4.2184   15.8340  -34.1929 H   0  0  0  0  0  0  0  0  0  0  0  0
   -4.3722   15.5138  -32.4097 H   0  0  0  0  0  0  0  0  0  0  0  0
   -7.0300   16.2423  -31.5399 H   0  0  0  0  0  0  0  0  0  0  0  0
   -5.5065   17.1436  -31.1943 H   0  0  0  0  0  0  0  0  0  0  0  0
   -5.3849   19.5702  -31.4299 H   0  0  0  0  0  0  0  0  0  0  0  0
   -6.6568   21.7159  -31.4561 H   0  0  0  0  0  0  0  0  0  0  0  0
   -7.6511   23.5500  -30.9186 H   0  0  0  0  0  0  0  0  0  0  0  0
   -7.1537   22.8021  -32.4742 H   0  0  0  0  0  0  0  0  0  0  0  0
   -8.1669   24.2854  -32.4742 H   0  0  0  0  0  0  0  0  0  0  0  0
  -10.2925   19.5590  -32.3741 H   0  0  0  0  0  0  0  0  0  0  0  0
   -9.0295   17.4074  -32.3365 H   0  0  0  0  0  0  0  0  0  0  0  0
   -6.5427   17.4019  -35.1140 H   0  0  0  0  0  0  0  0  0  0  0  0
   -6.7336   18.5698  -33.7209 H   0  0  0  0  0  0  0  0  0  0  0  0
   -4.2778   17.9832  -35.4020 H   0  0  0  0  0  0  0  0  0  0  0  0
   -5.0536   19.5619  -34.9978 H   0  0  0  0  0  0  0  0  0  0  0  0
  1  2  1  0
  2  3  1  0
  3  4  2  0
  4  5  1  0
  5  6  2  0
  6  7  1  0
  7  8  2  0
  8  9  1  0
  9 10  1  0
 10 11  1  0
 11 12  2  0
 11 13  1  0
 13 14  1  0
 14 15  1  0
 15 16  1  0
 16 17  1  0
 17 18  1  0
 18 19  2  0
 19 20  1  0
 20 21  2  0
 21 22  1  0
 22 23  1  0
 21 24  1  0
 24 25  2  0
 16 26  1  0
 26 27  1  0
  8  3  1  0
 27 13  1  0
 25 18  1  0
  1 28  1  0
  1 29  1  0
  1 30  1  0
  4 31  1  0
  5 32  1  0
  6 33  1  0
  7 34  1  0
 10 35  1  0
 10 36  1  0
 13 37  1  0
 14 38  1  0
 14 39  1  0
 15 40  1  0
 15 41  1  0
 17 42  1  0
 17 43  1  0
 19 44  1  0
 20 45  1  0
 23 46  1  0
 23 47  1  0
 23 48  1  0
 24 49  1  0
 25 50  1  0
 26 51  1  0
 26 52  1  0
 27 53  1  0
 27 54  1  0
M  CHG  1  13   1
M  END
>  <UniqueID>  (44) 
44

>  <SMILES>  (44) 
COc1ccccc1OCC(=O)[NH+]1CCN(Cc2ccc(SC)cc2)CC1

>  <Energy>  (44) 
65.77528382426219

>  <Genealogy>  (44) 
COc1ccccc1OCC(=O)[NH+]1CCN(Cc2ccc(SC)cc2)CC1 (protonated)
COc1ccccc1OCC(=O)[NH+]1CCN(Cc2ccc(SC)cc2)CC1 (3D coordinates assigned)
COc1ccccc1OCC(=O)[NH+]1CCN(Cc2ccc(SC)cc2)CC1 (nonaromatic ring conformer: 65.77528382426219 kcal/mol)

>  <smiles>  (44) 
COc1ccccc1OCC(=O)N1CCN(Cc2ccc(SC)cc2)CC1

>  <score_type>  (44) 
oracle

>  <origin>  (44) 
adg

>  <m_score__min__energy>  (44) 
-8.3000000000000007

>  <m_primary>  (44) 
energy

$$$$
44:0
     RDKit          3D

 40 41  0  0  0  0  0  0  0  0999 V2000
   -1.0620   22.2690  -30.0170 C   0  0  0  0  0  0  0  0  0  0  0  0
   -1.9270   21.9280  -31.1990 C   0  0  0  0  0  0  0  0  0  0  0  0
   -1.4540   21.0390  -32.1800 C   0  0  0  0  0  0  0  0  0  0  0  0
   -2.2500   20.7110  -33.2800 C   0  0  0  0  0  0  0  0  0  0  0  0
   -3.5270   21.2570  -33.4050 C   0  0  0  0  0  0  0  0  0  0  0  0
   -4.0090   22.1440  -32.4390 C   0  0  0  0  0  0  0  0  0  0  0  0
   -3.2090   22.5030  -31.3380 C   0  0  0  0  0  0  0  0  0  0  0  0
   -3.6920   23.3950  -30.3210 N   0  0  0  0  0  0  0  0  0  0  0  0
   -4.4770   24.5780  -30.5220 C   0  0  0  0  0  0  0  0  0  0  0  0
   -3.9340   25.6700  -30.8430 O   0  0  0  0  0  0  0  0  0  0  0  0
   -5.9630   24.5160  -30.3380 C   0  0  0  0  0  0  0  0  0  0  0  0
   -6.3440   23.2550  -29.6810 N   0  0  0  0  0  0  0  0  0  0  0  0
   -7.5940   22.6900  -30.2260 C   0  0  0  0  0  0  0  0  0  0  0  0
   -7.5350   22.4010  -31.7390 C   0  0  0  0  0  0  0  0  0  0  0  0
   -7.6400   20.9280  -32.0440 C   0  0  0  0  0  0  0  0  0  0  0  0
   -8.7070   20.1690  -31.5340 C   0  0  0  0  0  0  0  0  0  0  0  0
   -8.8150   18.8100  -31.8440 C   0  0  0  0  0  0  0  0  0  0  0  0
   -7.8630   18.2000  -32.6670 C   0  0  0  0  0  0  0  0  0  0  0  0
   -6.8010   18.9500  -33.1810 C   0  0  0  0  0  0  0  0  0  0  0  0
   -6.6890   20.3090  -32.8730 C   0  0  0  0  0  0  0  0  0  0  0  0
   -1.6094   22.0532  -29.0876 H   0  0  0  0  0  0  0  0  0  0  0  0
   -0.1425   21.6661  -30.0494 H   0  0  0  0  0  0  0  0  0  0  0  0
   -0.8013   23.3372  -30.0494 H   0  0  0  0  0  0  0  0  0  0  0  0
   -0.4508   20.5989  -32.0807 H   0  0  0  0  0  0  0  0  0  0  0  0
   -1.8693   20.0216  -34.0480 H   0  0  0  0  0  0  0  0  0  0  0  0
   -4.1565   20.9887  -34.2663 H   0  0  0  0  0  0  0  0  0  0  0  0
   -5.0204   22.5646  -32.5396 H   0  0  0  0  0  0  0  0  0  0  0  0
   -6.2871   25.3624  -29.7146 H   0  0  0  0  0  0  0  0  0  0  0  0
   -6.4482   24.5667  -31.3239 H   0  0  0  0  0  0  0  0  0  0  0  0
   -6.5030   23.4440  -28.6620 H   0  0  0  0  0  0  0  0  0  0  0  0
   -5.5640   22.5610  -29.7560 H   0  0  0  0  0  0  0  0  0  0  0  0
   -7.8073   21.7475  -29.7004 H   0  0  0  0  0  0  0  0  0  0  0  0
   -8.3810   23.4432  -30.0729 H   0  0  0  0  0  0  0  0  0  0  0  0
   -8.3673   22.9247  -32.2320 H   0  0  0  0  0  0  0  0  0  0  0  0
   -6.5620   22.7536  -32.1116 H   0  0  0  0  0  0  0  0  0  0  0  0
   -9.4597   20.6456  -30.8888 H   0  0  0  0  0  0  0  0  0  0  0  0
   -9.6504   18.2194  -31.4398 H   0  0  0  0  0  0  0  0  0  0  0  0
   -7.9497   17.1306  -32.9098 H   0  0  0  0  0  0  0  0  0  0  0  0
   -6.0525   18.4701  -33.8287 H   0  0  0  0  0  0  0  0  0  0  0  0
   -5.8531   20.8961  -33.2812 H   0  0  0  0  0  0  0  0  0  0  0  0
  1  2  1  0
  2  3  2  0
  3  4  1  0
  4  5  2  0
  5  6  1  0
  6  7  2  0
  7  8  1  0
  8  9  1  0
  9 10  2  0
  9 11  1  0
 11 12  1  0
 12 13  1  0
 13 14  1  0
 14 15  1  0
 15 16  2  0
 16 17  1  0
 17 18  2  0
 18 19  1  0
 19 20  2  0
  7  2  1  0
 20 15  1  0
  1 21  1  0
  1 22  1  0
  1 23  1  0
  3 24  1  0
  4 25  1  0
  5 26  1  0
  6 27  1  0
 11 28  1  0
 11 29  1  0
 12 30  1  0
 12 31  1  0
 13 32  1  0
 13 33  1  0
 14 34  1  0
 14 35  1  0
 16 36  1  0
 17 37  1  0
 18 38  1  0
 19 39  1  0
 20 40  1  0
M  CHG  2   8  -1  12   1
M  END
>  <UniqueID>  (45) 
45

>  <SMILES>  (45) 
Cc1ccccc1[N-]C(=O)C[NH2+]CCc1ccccc1

>  <Energy>  (45) 
40.89032980122415

>  <Genealogy>  (45) 
Cc1ccccc1[N-]C(=O)C[NH2+]CCc1ccccc1 (protonated)
Cc1ccccc1[N-]C(=O)C[NH2+]CCc1ccccc1 (3D coordinates assigned)
Cc1ccccc1[N-]C(=O)C[NH2+]CCc1ccccc1 (optimized conformer: 40.89032980122415 kcal/mol)

>  <smiles>  (45) 
Cc1ccccc1NC(=O)CNCCc1ccccc1

>  <score_type>  (45) 
oracle

>  <origin>  (45) 
adg

>  <m_score__min__energy>  (45) 
-8.4499999999999993

>  <m_primary>  (45) 
energy

$$$$
45:0
     RDKit          3D

 36 38  0  0  0  0  0  0  0  0999 V2000
   -2.1210   25.2970  -29.3440 O   0  0  0  0  0  0  0  0  0  0  0  0
   -3.2700   24.8900  -29.6610 C   0  0  0  0  0  0  0  0  0  0  0  0
   -3.8750   25.3650  -30.8170 O   0  0  0  0  0  0  0  0  0  0  0  0
   -4.0020   23.9320  -28.7700 C   0  0  0  0  0  0  0  0  0  0  0  0
   -4.4200   22.6660  -29.5260 C   0  0  0  0  0  0  0  0  0  0  0  0
   -3.3240   22.1730  -30.4320 C   0  0  0  0  0  0  0  0  0  0  0  0
   -2.1560   21.6790  -29.9410 N   0  0  0  0  0  0  0  0  0  0  0  0
   -1.4970   21.2970  -31.0500 C   0  0  0  0  0  0  0  0  0  0  0  0
   -0.2310   20.7220  -31.1270 C   0  0  0  0  0  0  0  0  0  0  0  0
    0.2650   20.3970  -32.4020 C   0  0  0  0  0  0  0  0  0  0  0  0
   -0.5110   20.6510  -33.5570 C   0  0  0  0  0  0  0  0  0  0  0  0
   -1.7880   21.2310  -33.4440 C   0  0  0  0  0  0  0  0  0  0  0  0
   -2.2470   21.5440  -32.1620 C   0  0  0  0  0  0  0  0  0  0  0  0
   -3.4140   22.0950  -31.7900 N   0  0  0  0  0  0  0  0  0  0  0  0
   -4.5000   22.5480  -32.6670 C   0  0  0  0  0  0  0  0  0  0  0  0
   -5.6290   21.5500  -32.6680 C   0  0  0  0  0  0  0  0  0  0  0  0
   -6.8960   21.9060  -32.1770 C   0  0  0  0  0  0  0  0  0  0  0  0
   -7.9390   20.9730  -32.1740 C   0  0  0  0  0  0  0  0  0  0  0  0
   -9.5160   21.4230  -31.5520 Cl  0  0  0  0  0  0  0  0  0  0  0  0
   -7.7240   19.6820  -32.6650 C   0  0  0  0  0  0  0  0  0  0  0  0
   -6.4680   19.3210  -33.1620 C   0  0  0  0  0  0  0  0  0  0  0  0
   -6.2000   17.7010  -33.7770 Cl  0  0  0  0  0  0  0  0  0  0  0  0
   -5.4240   20.2520  -33.1660 C   0  0  0  0  0  0  0  0  0  0  0  0
   -3.3451   23.6484  -27.9345 H   0  0  0  0  0  0  0  0  0  0  0  0
   -4.9116   24.4298  -28.4029 H   0  0  0  0  0  0  0  0  0  0  0  0
   -4.6615   21.8785  -28.7970 H   0  0  0  0  0  0  0  0  0  0  0  0
   -5.2951   22.9095  -30.1464 H   0  0  0  0  0  0  0  0  0  0  0  0
    0.3613   20.5285  -30.2205 H   0  0  0  0  0  0  0  0  0  0  0  0
    1.2619   19.9428  -32.5017 H   0  0  0  0  0  0  0  0  0  0  0  0
   -0.1136   20.3935  -34.5499 H   0  0  0  0  0  0  0  0  0  0  0  0
   -2.4033   21.4310  -34.3336 H   0  0  0  0  0  0  0  0  0  0  0  0
   -4.8746   23.5179  -32.3078 H   0  0  0  0  0  0  0  0  0  0  0  0
   -4.1120   22.6470  -33.6915 H   0  0  0  0  0  0  0  0  0  0  0  0
   -7.0690   22.9223  -31.7933 H   0  0  0  0  0  0  0  0  0  0  0  0
   -8.5442   18.9490  -32.6604 H   0  0  0  0  0  0  0  0  0  0  0  0
   -4.4378   19.9667  -33.5609 H   0  0  0  0  0  0  0  0  0  0  0  0
  1  2  2  0
  2  3  1  0
  2  4  1  0
  4  5  1  0
  5  6  1  0
  6  7  2  0
  7  8  1  0
  8  9  2  0
  9 10  1  0
 10 11  2  0
 11 12  1  0
 12 13  2  0
 13 14  1  0
 14 15  1  0
 15 16  1  0
 16 17  2  0
 17 18  1  0
 18 19  1  0
 18 20  2  0
 20 21  1  0
 21 22  1  0
 21 23  2  0
 14  6  1  0
 23 16  1  0
 13  8  1  0
  4 24  1  0
  4 25  1  0
  5 26  1  0
  5 27  1  0
  9 28  1  0
 10 29  1  0
 11 30  1  0
 12 31  1  0
 15 32  1  0
 15 33  1  0
 17 34  1  0
 20 35  1  0
 23 36  1  0
M  CHG  1   3  -1
M  END
>  <UniqueID>  (46) 
46

>  <SMILES>  (46) 
O=C([O-])CCc1nc2ccccc2n1Cc1cc(Cl)cc(Cl)c1

>  <Energy>  (46) 
70.39590329002712

>  <Genealogy>  (46) 
O=C([O-])CCc1nc2ccccc2n1Cc1cc(Cl)cc(Cl)c1 (protonated)
O=C([O-])CCc1nc2ccccc2n1Cc1cc(Cl)cc(Cl)c1 (3D coordinates assigned)
O=C([O-])CCc1nc2ccccc2n1Cc1cc(Cl)cc(Cl)c1 (optimized conformer: 70.39590329002712 kcal/mol)

>  <smiles>  (46) 
O=C(O)CCc1nc2ccccc2n1Cc1cc(Cl)cc(Cl)c1

>  <score_type>  (46) 
oracle

>  <origin>  (46) 
adg

>  <m_score__min__energy>  (46) 
-11.1

>  <m_primary>  (46) 
energy

$$$$
46:0
     RDKit          3D

 68 70  0  0  0  0  0  0  0  0999 V2000
   -3.2260   20.6390  -30.0050 C   0  0  0  0  0  0  0  0  0  0  0  0
   -1.9340   20.9020  -29.2150 C   0  0  0  0  0  0  0  0  0  0  0  0
   -2.1540   21.4740  -27.8660 N   0  0  0  0  0  0  0  0  0  0  0  0
   -1.9850   20.4860  -26.7810 C   0  0  0  0  0  0  0  0  0  0  0  0
   -3.0310   19.3780  -26.8900 C   0  0  0  0  0  0  0  0  0  0  0  0
   -1.4050   22.7330  -27.6370 C   0  0  0  0  0  0  0  0  0  0  0  0
   -2.2050   23.9370  -28.1480 C   0  0  0  0  0  0  0  0  0  0  0  0
   -3.5270   23.5190  -28.6180 N   0  0  0  0  0  0  0  0  0  0  0  0
   -4.0550   23.9510  -29.8810 C   0  0  0  0  0  0  0  0  0  0  0  0
   -3.4880   24.8770  -30.5220 O   0  0  0  0  0  0  0  0  0  0  0  0
   -5.2600   23.3130  -30.4500 C   0  0  0  0  0  0  0  0  0  0  0  0
   -6.4550   23.3480  -29.7190 C   0  0  0  0  0  0  0  0  0  0  0  0
   -7.6340   22.8380  -30.2640 C   0  0  0  0  0  0  0  0  0  0  0  0
   -7.6460   22.2830  -31.5500 C   0  0  0  0  0  0  0  0  0  0  0  0
   -8.8880   21.7680  -32.0720 N   0  0  0  0  0  0  0  0  0  0  0  0
   -9.1670   20.3630  -32.3830 C   0  0  0  0  0  0  0  0  0  0  0  0
   -8.3100   19.4200  -31.5280 C   0  0  0  0  0  0  0  0  0  0  0  0
   -7.1470   18.8470  -32.2960 C   0  0  0  0  0  0  0  0  0  0  0  0
   -6.4210   17.7630  -31.7740 C   0  0  0  0  0  0  0  0  0  0  0  0
   -5.3620   17.2090  -32.4980 C   0  0  0  0  0  0  0  0  0  0  0  0
   -5.0200   17.7310  -33.7480 C   0  0  0  0  0  0  0  0  0  0  0  0
   -5.7370   18.8100  -34.2750 C   0  0  0  0  0  0  0  0  0  0  0  0
   -6.7970   19.3670  -33.5540 C   0  0  0  0  0  0  0  0  0  0  0  0
   -6.4480   22.2470  -32.2870 C   0  0  0  0  0  0  0  0  0  0  0  0
   -5.2450   22.7310  -31.7390 C   0  0  0  0  0  0  0  0  0  0  0  0
   -3.9980   22.5660  -32.4440 N   0  0  0  0  0  0  0  0  0  0  0  0
   -3.7690   21.5450  -33.4650 C   0  0  0  0  0  0  0  0  0  0  0  0
   -2.3830   20.9880  -33.3310 C   0  0  0  0  0  0  0  0  0  0  0  0
   -1.9690   19.9080  -34.1250 C   0  0  0  0  0  0  0  0  0  0  0  0
   -0.6450   19.4690  -34.0480 C   0  0  0  0  0  0  0  0  0  0  0  0
    0.2520   20.1140  -33.1940 C   0  0  0  0  0  0  0  0  0  0  0  0
   -0.1920   21.1930  -32.4280 C   0  0  0  0  0  0  0  0  0  0  0  0
   -1.4840   21.6090  -32.5190 N   0  0  0  0  0  0  0  0  0  0  0  0
   -4.0565   20.4699  -29.3038 H   0  0  0  0  0  0  0  0  0  0  0  0
   -3.4522   21.5095  -30.6383 H   0  0  0  0  0  0  0  0  0  0  0  0
   -3.0939   19.7493  -30.6383 H   0  0  0  0  0  0  0  0  0  0  0  0
   -1.3981   19.9480  -29.1022 H   0  0  0  0  0  0  0  0  0  0  0  0
   -1.3604   21.6475  -29.7853 H   0  0  0  0  0  0  0  0  0  0  0  0
   -0.9808   20.0423  -26.8502 H   0  0  0  0  0  0  0  0  0  0  0  0
   -2.1115   20.9971  -25.8152 H   0  0  0  0  0  0  0  0  0  0  0  0
   -3.3329   19.0582  -25.8817 H   0  0  0  0  0  0  0  0  0  0  0  0
   -3.9098   19.7555  -27.4334 H   0  0  0  0  0  0  0  0  0  0  0  0
   -2.6036   18.5224  -27.4334 H   0  0  0  0  0  0  0  0  0  0  0  0
   -1.2201   22.8528  -26.5593 H   0  0  0  0  0  0  0  0  0  0  0  0
   -0.4515   22.6829  -28.1832 H   0  0  0  0  0  0  0  0  0  0  0  0
   -2.3255   24.6634  -27.3308 H   0  0  0  0  0  0  0  0  0  0  0  0
   -1.6596   24.3932  -28.9873 H   0  0  0  0  0  0  0  0  0  0  0  0
   -4.0010   22.7380  -28.1130 H   0  0  0  0  0  0  0  0  0  0  0  0
   -6.4637   23.7808  -28.7078 H   0  0  0  0  0  0  0  0  0  0  0  0
   -8.5639   22.8722  -29.6774 H   0  0  0  0  0  0  0  0  0  0  0  0
   -9.6830   22.4370  -32.1930 H   0  0  0  0  0  0  0  0  0  0  0  0
  -10.2297   20.1572  -32.1873 H   0  0  0  0  0  0  0  0  0  0  0  0
   -8.9242   20.1877  -33.4415 H   0  0  0  0  0  0  0  0  0  0  0  0
   -7.9217   19.9805  -30.6648 H   0  0  0  0  0  0  0  0  0  0  0  0
   -8.9479   18.5821  -31.2102 H   0  0  0  0  0  0  0  0  0  0  0  0
   -6.6877   17.3485  -30.7906 H   0  0  0  0  0  0  0  0  0  0  0  0
   -4.7971   16.3611  -32.0834 H   0  0  0  0  0  0  0  0  0  0  0  0
   -4.1869   17.2934  -34.3176 H   0  0  0  0  0  0  0  0  0  0  0  0
   -5.4662   19.2211  -35.2587 H   0  0  0  0  0  0  0  0  0  0  0  0
   -7.3590   20.2150  -33.9724 H   0  0  0  0  0  0  0  0  0  0  0  0
   -6.4515   21.8345  -33.3067 H   0  0  0  0  0  0  0  0  0  0  0  0
   -3.2080   23.2100  -32.2130 H   0  0  0  0  0  0  0  0  0  0  0  0
   -4.5013   20.7338  -33.3398 H   0  0  0  0  0  0  0  0  0  0  0  0
   -3.8814   21.9984  -34.4609 H   0  0  0  0  0  0  0  0  0  0  0  0
   -2.6801   19.4116  -34.8017 H   0  0  0  0  0  0  0  0  0  0  0  0
   -0.3100   18.6175  -34.6585 H   0  0  0  0  0  0  0  0  0  0  0  0
    1.2964   19.7756  -33.1257 H   0  0  0  0  0  0  0  0  0  0  0  0
    0.5041   21.7079  -31.7495 H   0  0  0  0  0  0  0  0  0  0  0  0
  1  2  1  0
  2  3  1  0
  3  4  1  0
  4  5  1  0
  3  6  1  0
  6  7  1  0
  7  8  1  0
  8  9  1  0
  9 10  2  0
  9 11  1  0
 11 12  2  0
 12 13  1  0
 13 14  2  0
 14 15  1  0
 15 16  1  0
 16 17  1  0
 17 18  1  0
 18 19  2  0
 19 20  1  0
 20 21  2  0
 21 22  1  0
 22 23  2  0
 14 24  1  0
 24 25  2  0
 25 26  1  0
 26 27  1  0
 27 28  1  0
 28 29  2  0
 29 30  1  0
 30 31  2  0
 31 32  1  0
 32 33  2  0
 25 11  1  0
 33 28  1  0
 23 18  1  0
  1 34  1  0
  1 35  1  0
  1 36  1  0
  2 37  1  0
  2 38  1  0
  4 39  1  0
  4 40  1  0
  5 41  1  0
  5 42  1  0
  5 43  1  0
  6 44  1  0
  6 45  1  0
  7 46  1  0
  7 47  1  0
  8 48  1  0
 12 49  1  0
 13 50  1  0
 15 51  1  0
 16 52  1  0
 16 53  1  0
 17 54  1  0
 17 55  1  0
 19 56  1  0
 20 57  1  0
 21 58  1  0
 22 59  1  0
 23 60  1  0
 24 61  1  0
 26 62  1  0
 27 63  1  0
 27 64  1  0
 29 65  1  0
 30 66  1  0
 31 67  1  0
 32 68  1  0
M  END
>  <UniqueID>  (47) 
47

>  <SMILES>  (47) 
CCN(CC)CCNC(=O)c1ccc(NCCc2ccccc2)cc1NCc1ccccn1

>  <Energy>  (47) 
63.74265137062906

>  <Genealogy>  (47) 
CCN(CC)CCNC(=O)c1ccc(NCCc2ccccc2)cc1NCc1ccccn1 (3D coordinates assigned)
CCN(CC)CCNC(=O)c1ccc(NCCc2ccccc2)cc1NCc1ccccn1 (optimized conformer: 63.74265137062906 kcal/mol)

>  <smiles>  (47) 
CCN(CC)CCNC(=O)c1ccc(NCCc2ccccc2)cc1NCc1ccccn1

>  <score_type>  (47) 
oracle

>  <origin>  (47) 
adg

>  <m_score__min__energy>  (47) 
-9.1699999999999999

>  <m_primary>  (47) 
energy

$$$$
47:0
     RDKit          3D

 30 31  0  0  0  0  0  0  0  0999 V2000
   -8.2310   22.2980  -30.4820 C   0  0  0  0  0  0  0  0  0  0  0  0
   -8.1960   22.8520  -31.9040 C   0  0  0  0  0  0  0  0  0  0  0  0
   -6.9900   22.4110  -32.6100 N   0  0  0  0  0  0  0  0  0  0  0  0
   -6.6050   21.0240  -32.7110 C   0  0  0  0  0  0  0  0  0  0  0  0
   -7.5710   20.0010  -32.6170 C   0  0  0  0  0  0  0  0  0  0  0  0
   -7.1960   18.6570  -32.6980 C   0  0  0  0  0  0  0  0  0  0  0  0
   -5.8560   18.3140  -32.8750 C   0  0  0  0  0  0  0  0  0  0  0  0
   -4.8870   19.3110  -32.9760 C   0  0  0  0  0  0  0  0  0  0  0  0
   -5.2490   20.6630  -32.9020 C   0  0  0  0  0  0  0  0  0  0  0  0
   -3.9520   21.8970  -33.0850 S   0  0  0  0  0  0  0  0  0  0  0  0
   -4.3970   22.7240  -31.5600 C   0  0  0  0  0  0  0  0  0  0  0  0
   -4.1330   22.1210  -30.3250 C   0  0  0  0  0  0  0  0  0  0  0  0
   -4.4980   22.7830  -29.1510 C   0  0  0  0  0  0  0  0  0  0  0  0
   -5.1130   24.0340  -29.2220 C   0  0  0  0  0  0  0  0  0  0  0  0
   -5.3540   24.6060  -30.4730 C   0  0  0  0  0  0  0  0  0  0  0  0
   -4.9930   23.9450  -31.6050 N   0  0  0  0  0  0  0  0  0  0  0  0
   -8.1785   23.1291  -29.7633 H   0  0  0  0  0  0  0  0  0  0  0  0
   -9.1662   21.7395  -30.3290 H   0  0  0  0  0  0  0  0  0  0  0  0
   -7.3735   21.6262  -30.3290 H   0  0  0  0  0  0  0  0  0  0  0  0
   -9.0825   22.4973  -32.4502 H   0  0  0  0  0  0  0  0  0  0  0  0
   -8.1895   23.9507  -31.8519 H   0  0  0  0  0  0  0  0  0  0  0  0
   -6.4100   23.1350  -33.0900 H   0  0  0  0  0  0  0  0  0  0  0  0
   -8.6302   20.2634  -32.4785 H   0  0  0  0  0  0  0  0  0  0  0  0
   -7.9592   17.8685  -32.6220 H   0  0  0  0  0  0  0  0  0  0  0  0
   -5.5633   17.2554  -32.9350 H   0  0  0  0  0  0  0  0  0  0  0  0
   -3.8313   19.0348  -33.1147 H   0  0  0  0  0  0  0  0  0  0  0  0
   -3.6436   21.1369  -30.2797 H   0  0  0  0  0  0  0  0  0  0  0  0
   -4.3014   22.3199  -28.1728 H   0  0  0  0  0  0  0  0  0  0  0  0
   -5.4046   24.5634  -28.3029 H   0  0  0  0  0  0  0  0  0  0  0  0
   -5.8363   25.5922  -30.5426 H   0  0  0  0  0  0  0  0  0  0  0  0
  1  2  1  0
  2  3  1  0
  3  4  1  0
  4  5  2  0
  5  6  1  0
  6  7  2  0
  7  8  1  0
  8  9  2  0
  9 10  1  0
 10 11  1  0
 11 12  2  0
 12 13  1  0
 13 14  2  0
 14 15  1  0
 15 16  2  0
  9  4  1  0
 16 11  1  0
  1 17  1  0
  1 18  1  0
  1 19  1  0
  2 20  1  0
  2 21  1  0
  3 22  1  0
  5 23  1  0
  6 24  1  0
  7 25  1  0
  8 26  1  0
 12 27  1  0
 13 28  1  0
 14 29  1  0
 15 30  1  0
M  END
>  <UniqueID>  (48) 
48

>  <SMILES>  (48) 
CCNc1ccccc1Sc1ccccn1

>  <Energy>  (48) 
24.761506373406014

>  <Genealogy>  (48) 
CCNc1ccccc1Sc1ccccn1 (3D coordinates assigned)
CCNc1ccccc1Sc1ccccn1 (optimized conformer: 24.761506373406014 kcal/mol)

>  <smiles>  (48) 
CCNc1ccccc1Sc1ccccn1

>  <score_type>  (48) 
oracle

>  <origin>  (48) 
adg

>  <m_score__min__energy>  (48) 
-6.2400000000000002

>  <m_primary>  (48) 
energy

$$$$
