0:0
     RDKit          3D

 72 75  0  0  0  0  0  0  0  0999 V2000
   -5.6800   25.5790  -30.4080 C   0  0  0  0  0  0  0  0  0  0  0  0
   -5.0670   24.5850  -29.4220 C   0  0  0  0  0  0  0  0  0  0  0  0
   -3.5910   24.5420  -29.5410 N   0  0  0  0  0  0  0  0  0  0  0  0
   -2.9230   24.3730  -28.2220 C   0  0  0  0  0  0  0  0  0  0  0  0
   -3.9530   24.4090  -27.0980 C   0  0  0  0  0  0  0  0  0  0  0  0
   -3.1650   23.5000  -30.5070 C   0  0  0  0  0  0  0  0  0  0  0  0
   -2.9840   22.1640  -29.7840 C   0  0  0  0  0  0  0  0  0  0  0  0
   -2.1940   21.3060  -30.5880 O   0  0  0  0  0  0  0  0  0  0  0  0
   -1.2510   20.5780  -29.8250 C   0  0  0  0  0  0  0  0  0  0  0  0
   -0.1930   19.9650  -30.7390 C   0  0  0  0  0  0  0  0  0  0  0  0
    0.1440   20.9070  -31.7480 O   0  0  0  0  0  0  0  0  0  0  0  0
    0.1950   20.3240  -32.9950 N   0  0  0  0  0  0  0  0  0  0  0  0
    1.5390   19.8400  -33.3530 C   0  0  0  0  0  0  0  0  0  0  0  0
   -0.4840   21.1060  -34.0480 C   0  0  0  0  0  0  0  0  0  0  0  0
   -1.9600   20.7090  -34.1620 C   0  0  0  0  0  0  0  0  0  0  0  0
   -2.3920   19.9280  -32.9990 N   0  0  0  0  0  0  0  0  0  0  0  0
   -3.6960   19.3310  -32.9310 C   0  0  0  0  0  0  0  0  0  0  0  0
   -4.8270   20.1130  -32.7200 C   0  0  0  0  0  0  0  0  0  0  0  0
   -6.0760   19.5430  -32.5350 C   0  0  0  0  0  0  0  0  0  0  0  0
   -6.2820   18.1950  -32.6870 N   0  0  0  0  0  0  0  0  0  0  0  0
   -7.6530   17.6670  -32.7960 C   0  0  0  0  0  0  0  0  0  0  0  0
   -5.1760   17.3670  -32.8140 C   0  0  0  0  0  0  0  0  0  0  0  0
   -5.2920   15.9570  -32.7590 C   0  0  0  0  0  0  0  0  0  0  0  0
   -4.1780   15.1360  -32.9340 C   0  0  0  0  0  0  0  0  0  0  0  0
   -2.9230   15.6920  -33.1600 C   0  0  0  0  0  0  0  0  0  0  0  0
   -2.7650   17.0750  -33.1830 C   0  0  0  0  0  0  0  0  0  0  0  0
   -3.8680   17.9300  -32.9840 C   0  0  0  0  0  0  0  0  0  0  0  0
   -7.0450   20.6370  -32.2770 C   0  0  0  0  0  0  0  0  0  0  0  0
   -8.3700   20.6200  -31.8160 C   0  0  0  0  0  0  0  0  0  0  0  0
   -9.0210   21.8450  -31.5880 C   0  0  0  0  0  0  0  0  0  0  0  0
   -8.3410   23.0630  -31.7790 C   0  0  0  0  0  0  0  0  0  0  0  0
   -6.9950   23.0680  -32.1740 C   0  0  0  0  0  0  0  0  0  0  0  0
   -6.3720   21.8430  -32.4040 C   0  0  0  0  0  0  0  0  0  0  0  0
   -4.9760   21.5680  -32.7000 C   0  0  0  0  0  0  0  0  0  0  0  0
   -4.0900   22.4240  -32.9590 O   0  0  0  0  0  0  0  0  0  0  0  0
   -6.1782   26.3869  -29.8521 H   0  0  0  0  0  0  0  0  0  0  0  0
   -4.8870   26.0042  -31.0408 H   0  0  0  0  0  0  0  0  0  0  0  0
   -6.4159   25.0613  -31.0408 H   0  0  0  0  0  0  0  0  0  0  0  0
   -5.3344   24.8860  -28.3983 H   0  0  0  0  0  0  0  0  0  0  0  0
   -5.4609   23.5839  -29.6515 H   0  0  0  0  0  0  0  0  0  0  0  0
   -2.3982   23.4065  -28.2023 H   0  0  0  0  0  0  0  0  0  0  0  0
   -2.2060   25.1944  -28.0764 H   0  0  0  0  0  0  0  0  0  0  0  0
   -3.4367   24.3910  -26.1269 H   0  0  0  0  0  0  0  0  0  0  0  0
   -4.5512   25.3286  -27.1782 H   0  0  0  0  0  0  0  0  0  0  0  0
   -4.6140   23.5334  -27.1782 H   0  0  0  0  0  0  0  0  0  0  0  0
   -3.9318   23.3912  -31.2882 H   0  0  0  0  0  0  0  0  0  0  0  0
   -2.2095   23.7976  -30.9635 H   0  0  0  0  0  0  0  0  0  0  0  0
   -2.4814   22.3318  -28.8200 H   0  0  0  0  0  0  0  0  0  0  0  0
   -3.9666   21.7033  -29.6044 H   0  0  0  0  0  0  0  0  0  0  0  0
   -0.7635   21.2550  -29.1080 H   0  0  0  0  0  0  0  0  0  0  0  0
   -1.7708   19.7717  -29.2868 H   0  0  0  0  0  0  0  0  0  0  0  0
    0.7032   19.7162  -30.1517 H   0  0  0  0  0  0  0  0  0  0  0  0
   -0.5858   19.0475  -31.2014 H   0  0  0  0  0  0  0  0  0  0  0  0
    2.1108   19.6341  -32.4362 H   0  0  0  0  0  0  0  0  0  0  0  0
    1.4507   18.9172  -33.9451 H   0  0  0  0  0  0  0  0  0  0  0  0
    2.0593   20.6072  -33.9451 H   0  0  0  0  0  0  0  0  0  0  0  0
   -0.4174   22.1758  -33.8009 H   0  0  0  0  0  0  0  0  0  0  0  0
    0.0092   20.9009  -35.0096 H   0  0  0  0  0  0  0  0  0  0  0  0
   -2.5722   21.6204  -34.2292 H   0  0  0  0  0  0  0  0  0  0  0  0
   -2.0848   20.0896  -35.0624 H   0  0  0  0  0  0  0  0  0  0  0  0
   -1.7840   19.9150  -32.1490 H   0  0  0  0  0  0  0  0  0  0  0  0
   -8.0658   17.5080  -31.7889 H   0  0  0  0  0  0  0  0  0  0  0  0
   -8.2812   18.3875  -33.3403 H   0  0  0  0  0  0  0  0  0  0  0  0
   -7.6356   16.7112  -33.3403 H   0  0  0  0  0  0  0  0  0  0  0  0
   -6.2764   15.5017  -32.5753 H   0  0  0  0  0  0  0  0  0  0  0  0
   -4.2925   14.0427  -32.8931 H   0  0  0  0  0  0  0  0  0  0  0  0
   -2.0536   15.0375  -33.3209 H   0  0  0  0  0  0  0  0  0  0  0  0
   -1.7681   17.5055  -33.3585 H   0  0  0  0  0  0  0  0  0  0  0  0
   -8.8892   19.6670  -31.6365 H   0  0  0  0  0  0  0  0  0  0  0  0
  -10.0702   21.8520  -31.2577 H   0  0  0  0  0  0  0  0  0  0  0  0
   -8.8677   24.0151  -31.6177 H   0  0  0  0  0  0  0  0  0  0  0  0
   -6.4463   24.0132  -32.2988 H   0  0  0  0  0  0  0  0  0  0  0  0
  1  2  1  0
  2  3  1  0
  3  4  1  0
  4  5  1  0
  3  6  1  0
  6  7  1  0
  7  8  1  0
  8  9  1  0
  9 10  1  0
 10 11  1  0
 11 12  1  0
 12 13  1  0
 12 14  1  0
 14 15  1  0
 15 16  1  0
 16 17  1  0
 17 18  2  0
 18 19  1  0
 19 20  2  0
 20 21  1  0
 20 22  1  0
 22 23  2  0
 23 24  1  0
 24 25  2  0
 25 26  1  0
 26 27  2  0
 19 28  1  0
 28 29  2  0
 29 30  1  0
 30 31  2  0
 31 32  1  0
 32 33  2  0
 33 34  1  0
 34 35  2  0
 27 17  1  0
 33 28  1  0
 34 18  1  0
 27 22  1  0
  1 36  1  0
  1 37  1  0
  1 38  1  0
  2 39  1  0
  2 40  1  0
  4 41  1  0
  4 42  1  0
  5 43  1  0
  5 44  1  0
  5 45  1  0
  6 46  1  0
  6 47  1  0
  7 48  1  0
  7 49  1  0
  9 50  1  0
  9 51  1  0
 10 52  1  0
 10 53  1  0
 13 54  1  0
 13 55  1  0
 13 56  1  0
 14 57  1  0
 14 58  1  0
 15 59  1  0
 15 60  1  0
 16 61  1  0
 21 62  1  0
 21 63  1  0
 21 64  1  0
 23 65  1  0
 24 66  1  0
 25 67  1  0
 26 68  1  0
 29 69  1  0
 30 70  1  0
 31 71  1  0
 32 72  1  0
M  CHG  1  20   1
M  END
>  <UniqueID>  (1) 
1

>  <SMILES>  (1) 
CCN(CC)CCOCCON(C)CCNc1c2c([n+](C)c3ccccc13)-c1ccccc1C2=O

>  <Energy>  (1) 
138.04123732386486

>  <Genealogy>  (1) 
CCN(CC)CCOCCON(C)CCNc1c2c([n+](C)c3ccccc13)-c1ccccc1C2=O (3D coordinates assigned)
CCN(CC)CCOCCON(C)CCNc1c2c([n+](C)c3ccccc13)-c1ccccc1C2=O (nonaromatic ring conformer: 138.04123732386486 kcal/mol)

>  <smiles>  (1) 
CCN(CC)CCOCCON(C)CCNc1c2c([n+](C)c3ccccc13)-c1ccccc1C2=O

>  <score_type>  (1) 
oracle

>  <origin>  (1) 
adg

>  <m_score__min__energy>  (1) 
-10.460000000000001

>  <m_primary>  (1) 
energy

$$$$
1:0
     RDKit          3D

104109  0  0  0  0  0  0  0  0999 V2000
   -6.1750   17.4520  -31.1280 C   0  0  0  0  0  0  0  0  0  0  0  0
   -5.7080   18.7700  -31.7480 C   0  0  0  0  0  0  0  0  0  0  0  0
   -6.6160   19.2250  -32.8370 N   0  0  0  0  0  0  0  0  0  0  0  0
   -6.0940   18.9460  -34.2060 C   0  0  0  0  0  0  0  0  0  0  0  0
   -5.7650   17.4650  -34.5040 C   0  0  0  0  0  0  0  0  0  0  0  0
   -7.9790   18.6640  -32.6260 C   0  0  0  0  0  0  0  0  0  0  0  0
   -8.9930   19.7410  -32.2040 C   0  0  0  0  0  0  0  0  0  0  0  0
   -8.3770   21.0050  -32.0150 O   0  0  0  0  0  0  0  0  0  0  0  0
   -9.0060   21.7430  -30.9820 C   0  0  0  0  0  0  0  0  0  0  0  0
   -7.9190   22.2910  -30.0930 C   0  0  0  0  0  0  0  0  0  0  0  0
   -7.5870   23.5970  -30.5220 O   0  0  0  0  0  0  0  0  0  0  0  0
   -7.5320   23.6420  -31.9210 C   0  0  0  0  0  0  0  0  0  0  0  0
   -6.0960   23.4150  -32.3680 C   0  0  0  0  0  0  0  0  0  0  0  0
   -5.5810   22.0940  -31.9720 N   0  0  0  0  0  0  0  0  0  0  0  0
   -4.2590   21.8650  -31.4350 C   0  0  0  0  0  0  0  0  0  0  0  0
   -3.2990   21.1610  -32.1820 C   0  0  0  0  0  0  0  0  0  0  0  0
   -1.9620   21.1200  -31.7250 C   0  0  0  0  0  0  0  0  0  0  0  0
   -1.6670   21.4920  -30.4290 N   0  0  0  0  0  0  0  0  0  0  0  0
   -0.4130   21.0340  -29.7800 C   0  0  0  0  0  0  0  0  0  0  0  0
   -2.5750   22.2270  -29.6980 C   0  0  0  0  0  0  0  0  0  0  0  0
   -2.2390   22.7970  -28.4440 C   0  0  0  0  0  0  0  0  0  0  0  0
   -3.1550   23.5970  -27.7610 C   0  0  0  0  0  0  0  0  0  0  0  0
   -4.4170   23.8480  -28.2950 C   0  0  0  0  0  0  0  0  0  0  0  0
   -4.7730   23.2970  -29.5180 C   0  0  0  0  0  0  0  0  0  0  0  0
   -3.8820   22.4600  -30.2220 C   0  0  0  0  0  0  0  0  0  0  0  0
   -0.9370   20.5550  -32.6490 C   0  0  0  0  0  0  0  0  0  0  0  0
    0.3900   21.0120  -32.6530 C   0  0  0  0  0  0  0  0  0  0  0  0
    1.3650   20.2830  -33.3470 C   0  0  0  0  0  0  0  0  0  0  0  0
    0.9900   19.1340  -34.0810 C   0  0  0  0  0  0  0  0  0  0  0  0
    1.8950   18.1190  -34.4770 O   0  0  0  0  0  0  0  0  0  0  0  0
    1.6090   16.7290  -34.6150 C   0  0  0  0  0  0  0  0  0  0  0  0
    2.0380   15.7700  -33.4410 C   0  0  0  0  0  0  0  0  0  0  0  0
    1.7480   16.0950  -32.0120 N   0  0  2  0  0  0  0  0  0  0  0  0
    0.4610   16.8060  -31.8160 C   0  0  0  0  0  0  0  0  0  0  0  0
    0.2780   17.2210  -30.3420 C   0  0  0  0  0  0  0  0  0  0  0  0
    1.4150   16.7470  -29.5290 N   0  0  2  0  0  0  0  0  0  0  0  0
    1.2460   17.1760  -28.1150 C   0  0  0  0  0  0  0  0  0  0  0  0
    0.8160   18.6120  -27.9760 C   0  0  0  0  0  0  0  0  0  0  0  0
    1.7670   19.6460  -28.1630 N   0  0  0  0  0  0  0  0  0  0  0  0
   -0.3480   18.9020  -27.5800 O   0  0  0  0  0  0  0  0  0  0  0  0
    2.6380   17.3770  -30.0630 C   0  0  0  0  0  0  0  0  0  0  0  0
    2.8490   16.9880  -31.5360 C   0  0  0  0  0  0  0  0  0  0  0  0
    1.5320   15.2700  -29.6700 C   0  0  0  0  0  0  0  0  0  0  0  0
    1.7480   14.8700  -31.1640 C   0  0  0  0  0  0  0  0  0  0  0  0
   -0.3630   18.8830  -34.3120 C   0  0  0  0  0  0  0  0  0  0  0  0
   -1.3360   19.5750  -33.5890 C   0  0  0  0  0  0  0  0  0  0  0  0
   -2.7970   19.2550  -33.7420 C   0  0  0  0  0  0  0  0  0  0  0  0
   -3.6280   20.5180  -33.5150 C   0  0  0  0  0  0  0  0  0  0  0  0
   -6.1466   17.5323  -30.0313 H   0  0  0  0  0  0  0  0  0  0  0  0
   -7.2037   17.2379  -31.4534 H   0  0  0  0  0  0  0  0  0  0  0  0
   -5.5106   16.6380  -31.4534 H   0  0  0  0  0  0  0  0  0  0  0  0
   -5.6790   19.5410  -30.9640 H   0  0  0  0  0  0  0  0  0  0  0  0
   -4.7104   18.6075  -32.1821 H   0  0  0  0  0  0  0  0  0  0  0  0
   -6.8514   19.2775  -34.9316 H   0  0  0  0  0  0  0  0  0  0  0  0
   -5.1400   19.4884  -34.2817 H   0  0  0  0  0  0  0  0  0  0  0  0
   -5.6436   16.9186  -33.5570 H   0  0  0  0  0  0  0  0  0  0  0  0
   -6.5854   17.0166  -35.0835 H   0  0  0  0  0  0  0  0  0  0  0  0
   -4.8319   17.4061  -35.0835 H   0  0  0  0  0  0  0  0  0  0  0  0
   -8.3215   18.2036  -33.5645 H   0  0  0  0  0  0  0  0  0  0  0  0
   -7.9169   17.9232  -31.8152 H   0  0  0  0  0  0  0  0  0  0  0  0
   -9.7600   19.8331  -32.9871 H   0  0  0  0  0  0  0  0  0  0  0  0
   -9.4377   19.4328  -31.2463 H   0  0  0  0  0  0  0  0  0  0  0  0
   -9.5913   22.5687  -31.4127 H   0  0  0  0  0  0  0  0  0  0  0  0
   -9.6905   21.1013  -30.4078 H   0  0  0  0  0  0  0  0  0  0  0  0
   -8.2752   22.3241  -29.0528 H   0  0  0  0  0  0  0  0  0  0  0  0
   -7.0310   21.6443  -30.1506 H   0  0  0  0  0  0  0  0  0  0  0  0
   -8.1774   22.8564  -32.3409 H   0  0  0  0  0  0  0  0  0  0  0  0
   -7.8806   24.6234  -32.2751 H   0  0  0  0  0  0  0  0  0  0  0  0
   -6.0514   23.4962  -33.4641 H   0  0  0  0  0  0  0  0  0  0  0  0
   -5.4708   24.1763  -31.8785 H   0  0  0  0  0  0  0  0  0  0  0  0
   -6.1890   21.2480  -32.1220 H   0  0  0  0  0  0  0  0  0  0  0  0
   -0.5292   21.0764  -28.6870 H   0  0  0  0  0  0  0  0  0  0  0  0
   -0.1984   19.9995  -30.0860 H   0  0  0  0  0  0  0  0  0  0  0  0
    0.4178   21.6867  -30.0860 H   0  0  0  0  0  0  0  0  0  0  0  0
   -1.2480   22.6068  -28.0062 H   0  0  0  0  0  0  0  0  0  0  0  0
   -2.8780   24.0343  -26.7904 H   0  0  0  0  0  0  0  0  0  0  0  0
   -5.1303   24.4820  -27.7480 H   0  0  0  0  0  0  0  0  0  0  0  0
   -5.7632   23.5159  -29.9441 H   0  0  0  0  0  0  0  0  0  0  0  0
    0.6620   21.9331  -32.1168 H   0  0  0  0  0  0  0  0  0  0  0  0
    2.4171   20.6030  -33.3209 H   0  0  0  0  0  0  0  0  0  0  0  0
    0.5206   16.6289  -34.7392 H   0  0  0  0  0  0  0  0  0  0  0  0
    2.2167   16.4053  -35.4728 H   0  0  0  0  0  0  0  0  0  0  0  0
    1.5558   14.8019  -33.6414 H   0  0  0  0  0  0  0  0  0  0  0  0
    3.1355   15.8353  -33.4764 H   0  0  0  0  0  0  0  0  0  0  0  0
    0.4477   17.7065  -32.4476 H   0  0  0  0  0  0  0  0  0  0  0  0
   -0.3597   16.1283  -32.0939 H   0  0  0  0  0  0  0  0  0  0  0  0
    0.2195   18.3176  -30.2788 H   0  0  0  0  0  0  0  0  0  0  0  0
   -0.6485   16.7702  -29.9568 H   0  0  0  0  0  0  0  0  0  0  0  0
    0.4846   16.5364  -27.6447 H   0  0  0  0  0  0  0  0  0  0  0  0
    2.2267   17.0807  -27.6261 H   0  0  0  0  0  0  0  0  0  0  0  0
    2.0210   20.2830  -27.3660 H   0  0  0  0  0  0  0  0  0  0  0  0
    2.5437   18.4704  -29.9879 H   0  0  0  0  0  0  0  0  0  0  0  0
    3.5012   17.0281  -29.4771 H   0  0  0  0  0  0  0  0  0  0  0  0
    2.8653   17.8998  -32.1511 H   0  0  0  0  0  0  0  0  0  0  0  0
    3.8038   16.4491  -31.6252 H   0  0  0  0  0  0  0  0  0  0  0  0
    2.3877   14.9178  -29.0752 H   0  0  0  0  0  0  0  0  0  0  0  0
    0.6003   14.8072  -29.3127 H   0  0  0  0  0  0  0  0  0  0  0  0
    2.7125   14.3517  -31.2689 H   0  0  0  0  0  0  0  0  0  0  0  0
    0.9354   14.2020  -31.4855 H   0  0  0  0  0  0  0  0  0  0  0  0
   -0.6631   18.1390  -35.0646 H   0  0  0  0  0  0  0  0  0  0  0  0
   -2.9832   18.8723  -34.7563 H   0  0  0  0  0  0  0  0  0  0  0  0
   -3.0824   18.4933  -33.0015 H   0  0  0  0  0  0  0  0  0  0  0  0
   -3.4165   21.2359  -34.3212 H   0  0  0  0  0  0  0  0  0  0  0  0
   -4.6918   20.2382  -33.5126 H   0  0  0  0  0  0  0  0  0  0  0  0
  1  2  1  0
  2  3  1  0
  3  4  1  0
  4  5  1  0
  3  6  1  0
  6  7  1  0
  7  8  1  0
  8  9  1  0
  9 10  1  0
 10 11  1  0
 11 12  1  0
 12 13  1  0
 13 14  1  0
 14 15  1  0
 15 16  2  0
 16 17  1  0
 17 18  2  0
 18 19  1  0
 18 20  1  0
 20 21  2  0
 21 22  1  0
 22 23  2  0
 23 24  1  0
 24 25  2  0
 17 26  1  0
 26 27  2  0
 27 28  1  0
 28 29  2  0
 29 30  1  0
 30 31  1  0
 31 32  1  0
 33 32  1  6
 33 34  1  0
 34 35  1  0
 35 36  1  0
 36 37  1  1
 37 38  1  0
 38 39  1  0
 38 40  2  0
 36 41  1  0
 41 42  1  0
 36 43  1  0
 43 44  1  0
 29 45  1  0
 45 46  2  0
 46 47  1  0
 47 48  1  0
 25 15  1  0
 46 26  1  0
 48 16  1  0
 25 20  1  0
 42 33  1  0
 44 33  1  0
  1 49  1  0
  1 50  1  0
  1 51  1  0
  2 52  1  0
  2 53  1  0
  4 54  1  0
  4 55  1  0
  5 56  1  0
  5 57  1  0
  5 58  1  0
  6 59  1  0
  6 60  1  0
  7 61  1  0
  7 62  1  0
  9 63  1  0
  9 64  1  0
 10 65  1  0
 10 66  1  0
 12 67  1  0
 12 68  1  0
 13 69  1  0
 13 70  1  0
 14 71  1  0
 19 72  1  0
 19 73  1  0
 19 74  1  0
 21 75  1  0
 22 76  1  0
 23 77  1  0
 24 78  1  0
 27 79  1  0
 28 80  1  0
 31 81  1  0
 31 82  1  0
 32 83  1  0
 32 84  1  0
 34 85  1  0
 34 86  1  0
 35 87  1  0
 35 88  1  0
 37 89  1  0
 37 90  1  0
 39 91  1  0
 41 92  1  0
 41 93  1  0
 42 94  1  0
 42 95  1  0
 43 96  1  0
 43 97  1  0
 44 98  1  0
 44 99  1  0
 45100  1  0
 47101  1  0
 47102  1  0
 48103  1  0
 48104  1  0
M  CHG  4  18   1  33   1  36   1  39  -1
M  END
>  <UniqueID>  (2) 
2

>  <SMILES>  (2) 
CCN(CC)CCOCCOCCNc1c2c([n+](C)c3ccccc13)-c1ccc(OCC[N+]34CC[N+](CC([NH-])=O)(CC3)CC4)cc1CC2

>  <Energy>  (2) 
189.8713260841134

>  <Genealogy>  (2) 
CCN(CC)CCOCCOCCNc1c2c([n+](C)c3ccccc13)-c1ccc(OCC[N+]34CC[N+](CC([NH-])=O)(CC3)CC4)cc1CC2 (protonated)
CCN(CC)CCOCCOCCNc1c2c([n+](C)c3ccccc13)-c1ccc(OCC[N+]34CC[N+](CC([NH-])=O)(CC3)CC4)cc1CC2 (3D coordinates assigned)
CCN(CC)CCOCCOCCNc1c2c([n+](C)c3ccccc13)-c1ccc(OCC[N+]34CC[N+](CC([NH-])=O)(CC3)CC4)cc1CC2 (nonaromatic ring conformer: 189.8713260841134 kcal/mol)

>  <smiles>  (2) 
CCN(CC)CCOCCOCCNc1c2c([n+](C)c3ccccc13)-c1ccc(OCC[N+]34CC[N+](CC(N)=O)(CC3)CC4)cc1CC2

>  <score_type>  (2) 
oracle

>  <origin>  (2) 
adg

>  <m_score__min__energy>  (2) 
-10.76

>  <m_primary>  (2) 
energy

$$$$
2:0
     RDKit          3D

 37 40  0  0  0  0  0  0  0  0999 V2000
   -6.8630   16.1950  -34.0500 C   0  0  0  0  0  0  0  0  0  0  0  0
   -6.7950   17.5390  -33.4920 N   0  0  0  0  0  0  0  0  0  0  0  0
   -5.8370   18.4570  -33.7510 C   0  0  0  0  0  0  0  0  0  0  0  0
   -6.1800   19.6150  -33.0820 C   0  0  0  0  0  0  0  0  0  0  0  0
   -7.3730   19.3460  -32.4640 C   0  0  0  0  0  0  0  0  0  0  0  0
   -7.7290   18.0750  -32.7160 N   0  0  0  0  0  0  0  0  0  0  0  0
   -8.0800   20.3140  -31.5740 C   0  0  0  0  0  0  0  0  0  0  0  0
   -7.6540   21.7500  -31.9300 C   0  0  0  0  0  0  0  0  0  0  0  0
   -6.1910   21.8470  -32.1090 N   0  0  0  0  0  0  0  0  0  0  0  0
   -5.4670   22.9620  -31.5650 C   0  0  0  0  0  0  0  0  0  0  0  0
   -6.0080   24.2120  -31.6240 N   0  0  0  0  0  0  0  0  0  0  0  0
   -5.3630   25.2910  -31.0910 C   0  0  0  0  0  0  0  0  0  0  0  0
   -4.1620   25.1340  -30.4690 N   0  0  0  0  0  0  0  0  0  0  0  0
   -3.6100   23.8980  -30.3920 C   0  0  0  0  0  0  0  0  0  0  0  0
   -4.2290   22.8040  -30.9270 C   0  0  0  0  0  0  0  0  0  0  0  0
   -3.4640   21.5600  -30.6600 C   0  0  0  0  0  0  0  0  0  0  0  0
   -2.2910   22.0260  -29.7760 C   0  0  0  0  0  0  0  0  0  0  0  0
   -2.3450   23.5650  -29.7060 C   0  0  0  0  0  0  0  0  0  0  0  0
   -5.4870   20.9370  -33.0300 C   0  0  0  0  0  0  0  0  0  0  0  0
   -6.9002   15.4600  -33.2324 H   0  0  0  0  0  0  0  0  0  0  0  0
   -7.7671   16.1005  -34.6694 H   0  0  0  0  0  0  0  0  0  0  0  0
   -5.9731   16.0097  -34.6694 H   0  0  0  0  0  0  0  0  0  0  0  0
   -4.9468   18.3085  -34.3799 H   0  0  0  0  0  0  0  0  0  0  0  0
   -8.5850   17.5840  -32.3740 H   0  0  0  0  0  0  0  0  0  0  0  0
   -9.1666   20.2102  -31.7103 H   0  0  0  0  0  0  0  0  0  0  0  0
   -7.8184   20.1048  -30.5263 H   0  0  0  0  0  0  0  0  0  0  0  0
   -8.1500   22.0495  -32.8650 H   0  0  0  0  0  0  0  0  0  0  0  0
   -7.9475   22.4142  -31.1037 H   0  0  0  0  0  0  0  0  0  0  0  0
   -5.8154   26.2910  -31.1644 H   0  0  0  0  0  0  0  0  0  0  0  0
   -4.0862   20.8249  -30.1285 H   0  0  0  0  0  0  0  0  0  0  0  0
   -3.1278   21.0636  -31.5823 H   0  0  0  0  0  0  0  0  0  0  0  0
   -2.3897   21.6006  -28.7664 H   0  0  0  0  0  0  0  0  0  0  0  0
   -1.3318   21.6912  -30.1977 H   0  0  0  0  0  0  0  0  0  0  0  0
   -2.3613   23.9106  -28.6618 H   0  0  0  0  0  0  0  0  0  0  0  0
   -1.4690   24.0455  -30.1663 H   0  0  0  0  0  0  0  0  0  0  0  0
   -5.4729   21.3793  -34.0371 H   0  0  0  0  0  0  0  0  0  0  0  0
   -4.4584   20.7882  -32.6697 H   0  0  0  0  0  0  0  0  0  0  0  0
  1  2  1  0
  2  3  1  0
  3  4  2  0
  4  5  1  0
  5  6  2  0
  5  7  1  0
  7  8  1  0
  8  9  1  0
  9 10  1  0
 10 11  2  0
 11 12  1  0
 12 13  2  0
 13 14  1  0
 14 15  2  0
 15 16  1  0
 16 17  1  0
 17 18  1  0
  9 19  1  0
  6  2  1  0
 15 10  1  0
 19  4  1  0
 18 14  1  0
  1 20  1  0
  1 21  1  0
  1 22  1  0
  3 23  1  0
  6 24  1  0
  7 25  1  0
  7 26  1  0
  8 27  1  0
  8 28  1  0
 12 29  1  0
 16 30  1  0
 16 31  1  0
 17 32  1  0
 17 33  1  0
 18 34  1  0
 18 35  1  0
 19 36  1  0
 19 37  1  0
M  CHG  1   6   1
M  END
>  <UniqueID>  (3) 
3

>  <SMILES>  (3) 
Cn1cc2c([nH+]1)CCN(c1ncnc3c1CCC3)C2

>  <Energy>  (3) 
86.44089636393383

>  <Genealogy>  (3) 
Cn1cc2c([nH+]1)CCN(c1ncnc3c1CCC3)C2 (protonated)
Cn1cc2c([nH+]1)CCN(c1ncnc3c1CCC3)C2 (3D coordinates assigned)
Cn1cc2c([nH+]1)CCN(c1ncnc3c1CCC3)C2 (nonaromatic ring conformer: 86.44089636393383 kcal/mol)

>  <smiles>  (3) 
Cn1cc2c(n1)CCN(c1ncnc3c1CCC3)C2

>  <score_type>  (3) 
oracle

>  <origin>  (3) 
adg

>  <m_score__min__energy>  (3) 
-6.9000000000000004

>  <m_primary>  (3) 
energy

$$$$
3:0
     RDKit          3D

 43 44  0  0  0  0  0  0  0  0999 V2000
   -9.3450   22.4260  -31.9490 C   0  0  0  0  0  0  0  0  0  0  0  0
   -8.9840   21.1300  -31.2280 C   0  0  0  0  0  0  0  0  0  0  0  0
   -9.1930   19.8750  -32.0930 C   0  0  0  0  0  0  0  0  0  0  0  0
   -8.7650   18.5620  -31.4030 C   0  0  0  0  0  0  0  0  0  0  0  0
   -7.3180   18.1630  -31.7410 C   0  0  0  0  0  0  0  0  0  0  0  0
   -7.0940   17.9090  -33.2490 C   0  0  0  0  0  0  0  0  0  0  0  0
   -6.8600   19.1310  -34.0390 N   0  0  0  0  0  0  0  0  0  0  0  0
   -5.9460   20.0270  -33.3850 C   0  0  0  0  0  0  0  0  0  0  0  0
   -6.3080   21.0890  -32.7150 O   0  0  0  0  0  0  0  0  0  0  0  0
   -5.2030   21.6790  -32.3010 C   0  0  0  0  0  0  0  0  0  0  0  0
   -5.2090   22.9410  -31.5110 C   0  0  0  0  0  0  0  0  0  0  0  0
   -6.3810   23.7240  -31.5450 C   0  0  0  0  0  0  0  0  0  0  0  0
   -6.4610   24.9270  -30.8450 C   0  0  0  0  0  0  0  0  0  0  0  0
   -5.3780   25.3710  -30.0920 C   0  0  0  0  0  0  0  0  0  0  0  0
   -4.2080   24.6140  -30.0380 C   0  0  0  0  0  0  0  0  0  0  0  0
   -4.1020   23.3970  -30.7390 C   0  0  0  0  0  0  0  0  0  0  0  0
   -2.8090   22.6320  -30.6400 C   0  0  0  0  0  0  0  0  0  0  0  0
   -4.0890   21.0110  -32.6920 N   0  0  0  0  0  0  0  0  0  0  0  0
   -4.5740   19.9630  -33.3810 C   0  0  0  0  0  0  0  0  0  0  0  0
   -3.7540   18.9630  -34.0100 C   0  0  0  0  0  0  0  0  0  0  0  0
   -3.0950   18.1580  -34.5170 N   0  0  0  0  0  0  0  0  0  0  0  0
   -9.5632   23.2092  -31.2081 H   0  0  0  0  0  0  0  0  0  0  0  0
   -8.5008   22.7424  -32.5792 H   0  0  0  0  0  0  0  0  0  0  0  0
  -10.2312   22.2604  -32.5792 H   0  0  0  0  0  0  0  0  0  0  0  0
   -7.9256   21.1780  -30.9321 H   0  0  0  0  0  0  0  0  0  0  0  0
   -9.6532   21.0426  -30.3593 H   0  0  0  0  0  0  0  0  0  0  0  0
  -10.2613   19.8018  -32.3448 H   0  0  0  0  0  0  0  0  0  0  0  0
   -8.5566   19.9906  -32.9828 H   0  0  0  0  0  0  0  0  0  0  0  0
   -8.8498   18.6919  -30.3140 H   0  0  0  0  0  0  0  0  0  0  0  0
   -9.4261   17.7620  -31.7677 H   0  0  0  0  0  0  0  0  0  0  0  0
   -6.6474   18.9735  -31.4194 H   0  0  0  0  0  0  0  0  0  0  0  0
   -7.1072   17.2200  -31.2154 H   0  0  0  0  0  0  0  0  0  0  0  0
   -6.2188   17.2523  -33.3620 H   0  0  0  0  0  0  0  0  0  0  0  0
   -8.0193   17.4558  -33.6342 H   0  0  0  0  0  0  0  0  0  0  0  0
   -6.4940   18.8870  -34.9880 H   0  0  0  0  0  0  0  0  0  0  0  0
   -7.7730   19.6230  -34.1750 H   0  0  0  0  0  0  0  0  0  0  0  0
   -7.2452   23.3806  -32.1326 H   0  0  0  0  0  0  0  0  0  0  0  0
   -7.3822   25.5266  -30.8879 H   0  0  0  0  0  0  0  0  0  0  0  0
   -5.4449   26.3196  -29.5391 H   0  0  0  0  0  0  0  0  0  0  0  0
   -3.3569   24.9720  -29.4402 H   0  0  0  0  0  0  0  0  0  0  0  0
   -2.5528   22.4804  -29.5810 H   0  0  0  0  0  0  0  0  0  0  0  0
   -2.9221   21.6553  -31.1333 H   0  0  0  0  0  0  0  0  0  0  0  0
   -2.0074   23.2013  -31.1333 H   0  0  0  0  0  0  0  0  0  0  0  0
  1  2  1  0
  2  3  1  0
  3  4  1  0
  4  5  1  0
  5  6  1  0
  6  7  1  0
  7  8  1  0
  8  9  1  0
  9 10  1  0
 10 11  1  0
 11 12  2  0
 12 13  1  0
 13 14  2  0
 14 15  1  0
 15 16  2  0
 16 17  1  0
 10 18  2  0
 18 19  1  0
 19 20  1  0
 20 21  3  0
 19  8  2  0
 16 11  1  0
  1 22  1  0
  1 23  1  0
  1 24  1  0
  2 25  1  0
  2 26  1  0
  3 27  1  0
  3 28  1  0
  4 29  1  0
  4 30  1  0
  5 31  1  0
  5 32  1  0
  6 33  1  0
  6 34  1  0
  7 35  1  0
  7 36  1  0
 12 37  1  0
 13 38  1  0
 14 39  1  0
 15 40  1  0
 17 41  1  0
 17 42  1  0
 17 43  1  0
M  CHG  1   7   1
M  END
>  <UniqueID>  (4) 
4

>  <SMILES>  (4) 
CCCCCC[NH2+]c1oc(-c2ccccc2C)nc1C#N

>  <Energy>  (4) 
68.63531433761123

>  <Genealogy>  (4) 
CCCCCC[NH2+]c1oc(-c2ccccc2C)nc1C#N (protonated)
CCCCCC[NH2+]c1oc(-c2ccccc2C)nc1C#N (3D coordinates assigned)
CCCCCC[NH2+]c1oc(-c2ccccc2C)nc1C#N (optimized conformer: 68.63531433761123 kcal/mol)

>  <smiles>  (4) 
CCCCCCNc1oc(-c2ccccc2C)nc1C#N

>  <score_type>  (4) 
oracle

>  <origin>  (4) 
adg

>  <m_score__min__energy>  (4) 
-6.5199999999999996

>  <m_primary>  (4) 
energy

$$$$
4:0
     RDKit          3D

 79 81  0  0  0  0  0  0  0  0999 V2000
    1.6680   26.8550  -23.8020 C   0  0  0  0  0  0  0  0  0  0  0  0
    0.9350   26.0380  -24.8810 C   0  0  0  0  0  0  0  0  0  0  0  0
   -0.5410   26.2850  -24.9810 N   0  0  0  0  0  0  0  0  0  0  0  0
   -0.8170   27.2950  -26.0370 C   0  0  0  0  0  0  0  0  0  0  0  0
   -0.9750   26.8430  -23.6720 C   0  0  0  0  0  0  0  0  0  0  0  0
   -1.2540   24.9980  -25.2710 C   0  0  0  0  0  0  0  0  0  0  0  0
   -1.6290   24.7750  -26.7560 C   0  0  0  0  0  0  0  0  0  0  0  0
   -3.1550   24.7400  -26.9400 C   0  0  0  0  0  0  0  0  0  0  0  0
   -3.6690   23.3690  -27.4100 C   0  0  0  0  0  0  0  0  0  0  0  0
   -2.5350   22.3640  -27.6780 C   0  0  0  0  0  0  0  0  0  0  0  0
   -2.9650   21.3210  -28.7360 C   0  0  0  0  0  0  0  0  0  0  0  0
   -2.5450   21.6280  -30.1420 N   0  0  0  0  0  0  0  0  0  0  0  0
   -1.0760   21.4580  -30.3140 C   0  0  0  0  0  0  0  0  0  0  0  0
   -2.9000   23.0300  -30.4950 C   0  0  0  0  0  0  0  0  0  0  0  0
   -3.2860   20.7410  -31.0970 C   0  0  0  0  0  0  0  0  0  0  0  0
   -3.1120   21.0950  -32.6010 C   0  0  0  0  0  0  0  0  0  0  0  0
   -4.4250   21.4540  -33.3500 C   0  0  0  0  0  0  0  0  0  0  0  0
   -5.6500   21.3490  -32.5080 N   0  0  0  0  0  0  0  0  0  0  0  0
   -6.2970   20.0290  -32.4750 C   0  0  0  0  0  0  0  0  0  0  0  0
   -5.5150   18.8490  -32.5630 C   0  0  0  0  0  0  0  0  0  0  0  0
   -6.1000   17.5900  -32.6940 C   0  0  0  0  0  0  0  0  0  0  0  0
   -7.4820   17.4640  -32.7290 C   0  0  0  0  0  0  0  0  0  0  0  0
   -8.2810   18.5930  -32.5920 C   0  0  0  0  0  0  0  0  0  0  0  0
   -7.7060   19.8700  -32.4490 C   0  0  0  0  0  0  0  0  0  0  0  0
   -8.5920   20.9970  -32.0480 C   0  0  0  0  0  0  0  0  0  0  0  0
   -8.1580   21.4410  -30.6510 C   0  0  0  0  0  0  0  0  0  0  0  0
   -7.1060   22.5090  -30.7370 C   0  0  0  0  0  0  0  0  0  0  0  0
   -7.2470   23.5930  -29.8490 C   0  0  0  0  0  0  0  0  0  0  0  0
   -6.4990   24.7530  -30.0110 C   0  0  0  0  0  0  0  0  0  0  0  0
   -5.6340   24.8650  -31.0880 C   0  0  0  0  0  0  0  0  0  0  0  0
   -5.4500   23.7890  -31.9530 C   0  0  0  0  0  0  0  0  0  0  0  0
   -6.0870   22.5360  -31.7430 C   0  0  0  0  0  0  0  0  0  0  0  0
    1.3571   26.5085  -22.8054 H   0  0  0  0  0  0  0  0  0  0  0  0
    2.7539   26.7204  -23.9147 H   0  0  0  0  0  0  0  0  0  0  0  0
    1.4169   27.9200  -23.9147 H   0  0  0  0  0  0  0  0  0  0  0  0
    1.3864   26.2791  -25.8547 H   0  0  0  0  0  0  0  0  0  0  0  0
    1.0474   24.9827  -24.5916 H   0  0  0  0  0  0  0  0  0  0  0  0
   -1.0792   28.2544  -25.5672 H   0  0  0  0  0  0  0  0  0  0  0  0
    0.0784   27.4256  -26.6625 H   0  0  0  0  0  0  0  0  0  0  0  0
   -1.6544   26.9521  -26.6625 H   0  0  0  0  0  0  0  0  0  0  0  0
   -0.5217   26.2602  -22.8566 H   0  0  0  0  0  0  0  0  0  0  0  0
   -0.6531   27.8921  -23.5958 H   0  0  0  0  0  0  0  0  0  0  0  0
   -2.0710   26.7893  -23.5958 H   0  0  0  0  0  0  0  0  0  0  0  0
   -0.6029   24.1693  -24.9559 H   0  0  0  0  0  0  0  0  0  0  0  0
   -2.2042   25.0432  -24.7187 H   0  0  0  0  0  0  0  0  0  0  0  0
   -1.2127   25.5953  -27.3592 H   0  0  0  0  0  0  0  0  0  0  0  0
   -1.2148   23.8091  -27.0807 H   0  0  0  0  0  0  0  0  0  0  0  0
   -3.6303   24.9823  -25.9780 H   0  0  0  0  0  0  0  0  0  0  0  0
   -3.4108   25.4735  -27.7188 H   0  0  0  0  0  0  0  0  0  0  0  0
   -4.3277   22.9556  -26.6321 H   0  0  0  0  0  0  0  0  0  0  0  0
   -4.2034   23.5244  -28.3588 H   0  0  0  0  0  0  0  0  0  0  0  0
   -1.6513   22.9066  -28.0448 H   0  0  0  0  0  0  0  0  0  0  0  0
   -2.2998   21.8391  -26.7404 H   0  0  0  0  0  0  0  0  0  0  0  0
   -2.5290   20.3511  -28.4546 H   0  0  0  0  0  0  0  0  0  0  0  0
   -4.0650   21.3240  -28.7383 H   0  0  0  0  0  0  0  0  0  0  0  0
   -0.5952   21.4024  -29.3262 H   0  0  0  0  0  0  0  0  0  0  0  0
   -0.8770   20.5308  -30.8714 H   0  0  0  0  0  0  0  0  0  0  0  0
   -0.6705   22.3152  -30.8714 H   0  0  0  0  0  0  0  0  0  0  0  0
   -3.0478   23.6137  -29.5744 H   0  0  0  0  0  0  0  0  0  0  0  0
   -2.0866   23.4766  -31.0857 H   0  0  0  0  0  0  0  0  0  0  0  0
   -3.8279   23.0357  -31.0857 H   0  0  0  0  0  0  0  0  0  0  0  0
   -2.9332   19.7099  -30.9472 H   0  0  0  0  0  0  0  0  0  0  0  0
   -4.3544   20.8771  -30.8733 H   0  0  0  0  0  0  0  0  0  0  0  0
   -2.4327   21.9573  -32.6717 H   0  0  0  0  0  0  0  0  0  0  0  0
   -2.7210   20.1883  -33.0858 H   0  0  0  0  0  0  0  0  0  0  0  0
   -4.3435   22.4885  -33.7149 H   0  0  0  0  0  0  0  0  0  0  0  0
   -4.5358   20.7250  -34.1662 H   0  0  0  0  0  0  0  0  0  0  0  0
   -4.4185   18.9291  -32.5270 H   0  0  0  0  0  0  0  0  0  0  0  0
   -5.4651   16.6949  -32.7698 H   0  0  0  0  0  0  0  0  0  0  0  0
   -7.9430   16.4745  -32.8646 H   0  0  0  0  0  0  0  0  0  0  0  0
   -9.3759   18.4874  -32.5953 H   0  0  0  0  0  0  0  0  0  0  0  0
   -8.4857   21.8305  -32.7579 H   0  0  0  0  0  0  0  0  0  0  0  0
   -9.6461   20.6826  -32.0470 H   0  0  0  0  0  0  0  0  0  0  0  0
   -9.0306   21.8362  -30.1103 H   0  0  0  0  0  0  0  0  0  0  0  0
   -7.7397   20.5743  -30.1183 H   0  0  0  0  0  0  0  0  0  0  0  0
   -7.9600   23.5204  -29.0145 H   0  0  0  0  0  0  0  0  0  0  0  0
   -6.5929   25.5773  -29.2887 H   0  0  0  0  0  0  0  0  0  0  0  0
   -5.0913   25.8062  -31.2601 H   0  0  0  0  0  0  0  0  0  0  0  0
   -4.7915   23.9128  -32.8254 H   0  0  0  0  0  0  0  0  0  0  0  0
  1  2  1  0
  2  3  1  0
  3  4  1  0
  3  5  1  0
  3  6  1  0
  6  7  1  0
  7  8  1  0
  8  9  1  0
  9 10  1  0
 10 11  1  0
 11 12  1  0
 12 13  1  0
 12 14  1  0
 12 15  1  0
 15 16  1  0
 16 17  1  0
 17 18  1  0
 18 19  1  0
 19 20  2  0
 20 21  1  0
 21 22  2  0
 22 23  1  0
 23 24  2  0
 24 25  1  0
 25 26  1  0
 26 27  1  0
 27 28  2  0
 28 29  1  0
 29 30  2  0
 30 31  1  0
 31 32  2  0
 32 18  1  0
 24 19  1  0
 32 27  1  0
  1 33  1  0
  1 34  1  0
  1 35  1  0
  2 36  1  0
  2 37  1  0
  4 38  1  0
  4 39  1  0
  4 40  1  0
  5 41  1  0
  5 42  1  0
  5 43  1  0
  6 44  1  0
  6 45  1  0
  7 46  1  0
  7 47  1  0
  8 48  1  0
  8 49  1  0
  9 50  1  0
  9 51  1  0
 10 52  1  0
 10 53  1  0
 11 54  1  0
 11 55  1  0
 13 56  1  0
 13 57  1  0
 13 58  1  0
 14 59  1  0
 14 60  1  0
 14 61  1  0
 15 62  1  0
 15 63  1  0
 16 64  1  0
 16 65  1  0
 17 66  1  0
 17 67  1  0
 20 68  1  0
 21 69  1  0
 22 70  1  0
 23 71  1  0
 25 72  1  0
 25 73  1  0
 26 74  1  0
 26 75  1  0
 28 76  1  0
 29 77  1  0
 30 78  1  0
 31 79  1  0
M  CHG  2   3   1  12   1
M  END
>  <UniqueID>  (5) 
5

>  <SMILES>  (5) 
CC[N+](C)(C)CCCCCC[N+](C)(C)CCCN1c2ccccc2CCc2ccccc21

>  <Energy>  (5) 
122.43506899450404

>  <Genealogy>  (5) 
CC[N+](C)(C)CCCCCC[N+](C)(C)CCCN1c2ccccc2CCc2ccccc21 (3D coordinates assigned)
CC[N+](C)(C)CCCCCC[N+](C)(C)CCCN1c2ccccc2CCc2ccccc21 (nonaromatic ring conformer: 122.43506899450404 kcal/mol)

>  <smiles>  (5) 
CC[N+](C)(C)CCCCCC[N+](C)(C)CCCN1c2ccccc2CCc2ccccc21

>  <score_type>  (5) 
oracle

>  <origin>  (5) 
adg

>  <m_score__min__energy>  (5) 
-6.3099999999999996

>  <m_primary>  (5) 
energy

$$$$
6:0
     RDKit          3D

 38 39  0  0  0  0  0  0  0  0999 V2000
   -3.4790   24.9210  -31.3810 H   0  0  0  0  0  0  0  0  0  0  0  0
   -3.8760   25.6500  -30.8030 O   0  0  0  0  0  0  0  0  0  0  0  0
   -5.0910   25.4570  -30.1880 N   0  0  0  0  0  0  0  0  0  0  0  0
   -5.4210   24.3340  -29.6260 C   0  0  0  0  0  0  0  0  0  0  0  0
   -6.3960   24.2670  -29.1211 H   0  0  0  0  0  0  0  0  0  0  0  0
   -4.5460   23.1390  -29.6330 C   0  0  0  0  0  0  0  0  0  0  0  0
   -3.9430   22.7020  -28.4390 C   0  0  0  0  0  0  0  0  0  0  0  0
   -4.0847   23.2816  -27.5149 H   0  0  0  0  0  0  0  0  0  0  0  0
   -3.1600   21.5310  -28.4130 C   0  0  0  0  0  0  0  0  0  0  0  0
   -2.5280   21.0620  -27.2500 O   0  0  0  0  0  0  0  0  0  0  0  0
   -2.1010   19.7190  -27.0180 C   0  0  0  0  0  0  0  0  0  0  0  0
   -1.1793   19.7318  -26.4178 H   0  0  0  0  0  0  0  0  0  0  0  0
   -1.9183   19.2336  -27.9881 H   0  0  0  0  0  0  0  0  0  0  0  0
   -3.1740   18.9330  -26.2710 C   0  0  0  0  0  0  0  0  0  0  0  0
   -3.0222   19.0442  -25.1872 H   0  0  0  0  0  0  0  0  0  0  0  0
   -4.1675   19.3186  -26.5436 H   0  0  0  0  0  0  0  0  0  0  0  0
   -3.1060   17.8695  -26.5436 H   0  0  0  0  0  0  0  0  0  0  0  0
   -2.9980   20.7960  -29.5910 C   0  0  0  0  0  0  0  0  0  0  0  0
   -2.3832   19.8839  -29.5839 H   0  0  0  0  0  0  0  0  0  0  0  0
   -3.6080   21.2080  -30.7740 C   0  0  0  0  0  0  0  0  0  0  0  0
   -3.4845   20.6091  -31.6884 H   0  0  0  0  0  0  0  0  0  0  0  0
   -4.3770   22.3780  -30.8090 C   0  0  0  0  0  0  0  0  0  0  0  0
   -5.1140   22.8710  -32.3790 S   0  0  0  0  0  0  0  0  0  0  0  0
   -6.6000   21.8920  -32.1200 C   0  0  0  0  0  0  0  0  0  0  0  0
   -7.6700   22.4480  -31.4070 C   0  0  0  0  0  0  0  0  0  0  0  0
   -7.5959   23.4757  -31.0218 H   0  0  0  0  0  0  0  0  0  0  0  0
   -8.8300   21.7040  -31.1830 C   0  0  0  0  0  0  0  0  0  0  0  0
   -9.6645   22.1436  -30.6169 H   0  0  0  0  0  0  0  0  0  0  0  0
   -8.9310   20.4030  -31.6770 C   0  0  0  0  0  0  0  0  0  0  0  0
   -9.8425   19.8153  -31.4933 H   0  0  0  0  0  0  0  0  0  0  0  0
   -7.8760   19.8450  -32.4050 C   0  0  0  0  0  0  0  0  0  0  0  0
   -7.9620   18.8200  -32.7948 H   0  0  0  0  0  0  0  0  0  0  0  0
   -6.7030   20.5890  -32.6420 C   0  0  0  0  0  0  0  0  0  0  0  0
   -5.6350   20.0730  -33.3920 O   0  0  0  0  0  0  0  0  0  0  0  0
   -5.7150   18.9170  -34.2190 C   0  0  0  0  0  0  0  0  0  0  0  0
   -5.7772   18.0182  -33.5879 H   0  0  0  0  0  0  0  0  0  0  0  0
   -6.6108   18.9818  -34.8541 H   0  0  0  0  0  0  0  0  0  0  0  0
   -4.8188   18.8578  -34.8541 H   0  0  0  0  0  0  0  0  0  0  0  0
  1  2  1  0
  2  3  1  0
  3  4  2  0
  4  5  1  0
  4  6  1  0
  6  7  2  0
  7  8  1  0
  7  9  1  0
  9 10  1  0
 10 11  1  0
 11 12  1  0
 11 13  1  0
 11 14  1  0
 14 15  1  0
 14 16  1  0
 14 17  1  0
  9 18  2  0
 18 19  1  0
 18 20  1  0
 20 21  1  0
 20 22  2  0
 22 23  1  0
 23 24  1  0
 24 25  2  0
 25 26  1  0
 25 27  1  0
 27 28  1  0
 27 29  2  0
 29 30  1  0
 29 31  1  0
 31 32  1  0
 31 33  2  0
 33 34  1  0
 34 35  1  0
 35 36  1  0
 35 37  1  0
 35 38  1  0
 22  6  1  0
 33 24  1  0
M  END
>  <UniqueID>  (6) 
6

>  <SMILES>  (6) 
CCOc1ccc(Sc2ccccc2OC)c(/C=N\O)c1

>  <Energy>  (6) 
35.929060538480826

>  <Genealogy>  (6) 
CCOc1ccc(Sc2ccccc2OC)c(/C=N\O)c1 (cis-trans isomerization)
CCOc1ccc(Sc2ccccc2OC)c(/C=N\O)c1 (3D coordinates assigned)
CCOc1ccc(Sc2ccccc2OC)c(/C=N\O)c1 (optimized conformer: 35.929060538480826 kcal/mol)

>  <smiles>  (6) 
CCOc1ccc(Sc2ccccc2OC)c(C=NO)c1

>  <score_type>  (6) 
oracle

>  <origin>  (6) 
adg

>  <m_score__min__energy>  (6) 
-7.9699999999999998

>  <m_primary>  (6) 
energy

$$$$
7:0
     RDKit          3D

 61 64  0  0  0  0  0  0  0  0999 V2000
   -1.5770   21.6400  -26.8060 C   0  0  0  0  0  0  0  0  0  0  0  0
   -0.2030   21.7450  -27.4570 C   0  0  0  0  0  0  0  0  0  0  0  0
    0.3930   23.0110  -27.1670 O   0  0  0  0  0  0  0  0  0  0  0  0
   -0.2310   24.0660  -26.4760 C   0  0  0  0  0  0  0  0  0  0  0  0
   -0.1130   24.2290  -25.0800 C   0  0  0  0  0  0  0  0  0  0  0  0
   -0.7980   25.2560  -24.4240 C   0  0  0  0  0  0  0  0  0  0  0  0
   -1.5990   26.1370  -25.1490 C   0  0  0  0  0  0  0  0  0  0  0  0
   -1.7110   26.0000  -26.5340 C   0  0  0  0  0  0  0  0  0  0  0  0
   -1.0210   24.9780  -27.2020 C   0  0  0  0  0  0  0  0  0  0  0  0
   -1.1490   24.8710  -28.6660 C   0  0  0  0  0  0  0  0  0  0  0  0
   -0.1700   24.4450  -29.3380 O   0  0  0  0  0  0  0  0  0  0  0  0
   -2.3730   25.1940  -29.3420 N   0  0  0  0  0  0  0  0  0  0  0  0
   -3.6660   24.5490  -29.1090 C   0  0  1  0  0  0  0  0  0  0  0  0
   -4.7110   25.0760  -30.1190 C   0  0  0  0  0  0  0  0  0  0  0  0
   -5.2200   23.8560  -30.7830 C   0  0  0  0  0  0  0  0  0  0  0  0
   -6.1870   23.7940  -31.7890 C   0  0  0  0  0  0  0  0  0  0  0  0
   -6.5210   22.5420  -32.3280 C   0  0  0  0  0  0  0  0  0  0  0  0
   -5.8980   21.3690  -31.8460 C   0  0  0  0  0  0  0  0  0  0  0  0
   -6.2040   20.0550  -32.4490 C   0  0  0  0  0  0  0  0  0  0  0  0
   -7.4600   19.4820  -32.1680 C   0  0  0  0  0  0  0  0  0  0  0  0
   -7.7890   18.2150  -32.6500 C   0  0  0  0  0  0  0  0  0  0  0  0
   -6.8660   17.4990  -33.4080 C   0  0  0  0  0  0  0  0  0  0  0  0
   -5.6250   18.0580  -33.7160 C   0  0  0  0  0  0  0  0  0  0  0  0
   -5.2810   19.3490  -33.2690 C   0  0  0  0  0  0  0  0  0  0  0  0
   -3.9410   19.9330  -33.7040 C   0  0  0  0  0  0  0  0  0  0  0  0
   -2.8590   19.8010  -32.6940 N   0  0  0  0  0  0  0  0  0  0  0  0
   -1.9920   18.6350  -32.9320 C   0  0  0  0  0  0  0  0  0  0  0  0
   -2.0570   21.0290  -32.5650 C   0  0  0  0  0  0  0  0  0  0  0  0
   -4.9080   21.4690  -30.8510 C   0  0  0  0  0  0  0  0  0  0  0  0
   -4.5970   22.7250  -30.3300 C   0  0  0  0  0  0  0  0  0  0  0  0
   -3.5750   23.0180  -29.3030 C   0  0  0  0  0  0  0  0  0  0  0  0
   -1.4659   21.6485  -25.7117 H   0  0  0  0  0  0  0  0  0  0  0  0
   -2.1969   22.4934  -27.1182 H   0  0  0  0  0  0  0  0  0  0  0  0
   -2.0600   20.7023  -27.1182 H   0  0  0  0  0  0  0  0  0  0  0  0
    0.4432   20.9435  -27.0697 H   0  0  0  0  0  0  0  0  0  0  0  0
   -0.3173   21.6469  -28.5466 H   0  0  0  0  0  0  0  0  0  0  0  0
    0.5234   23.5423  -24.5026 H   0  0  0  0  0  0  0  0  0  0  0  0
   -0.7048   25.3691  -23.3338 H   0  0  0  0  0  0  0  0  0  0  0  0
   -2.1428   26.9401  -24.6300 H   0  0  0  0  0  0  0  0  0  0  0  0
   -2.3433   26.6968  -27.1038 H   0  0  0  0  0  0  0  0  0  0  0  0
   -3.9598   24.7793  -28.0743 H   0  0  0  0  0  0  0  0  0  0  0  0
   -5.5233   25.6055  -29.5996 H   0  0  0  0  0  0  0  0  0  0  0  0
   -4.2829   25.7965  -30.8315 H   0  0  0  0  0  0  0  0  0  0  0  0
   -6.6775   24.7092  -32.1519 H   0  0  0  0  0  0  0  0  0  0  0  0
   -7.2713   22.4736  -33.1295 H   0  0  0  0  0  0  0  0  0  0  0  0
   -8.1891   20.0398  -31.5619 H   0  0  0  0  0  0  0  0  0  0  0  0
   -8.7763   17.7820  -32.4316 H   0  0  0  0  0  0  0  0  0  0  0  0
   -7.1160   16.4891  -33.7653 H   0  0  0  0  0  0  0  0  0  0  0  0
   -4.9051   17.4824  -34.3164 H   0  0  0  0  0  0  0  0  0  0  0  0
   -3.6213   19.4160  -34.6208 H   0  0  0  0  0  0  0  0  0  0  0  0
   -4.1013   21.0108  -33.8545 H   0  0  0  0  0  0  0  0  0  0  0  0
   -3.3300   19.6470  -31.7700 H   0  0  0  0  0  0  0  0  0  0  0  0
   -1.6761   18.2101  -31.9678 H   0  0  0  0  0  0  0  0  0  0  0  0
   -2.5468   17.8760  -33.5030 H   0  0  0  0  0  0  0  0  0  0  0  0
   -1.1054   18.9478  -33.5030 H   0  0  0  0  0  0  0  0  0  0  0  0
   -1.9070   21.2587  -31.4998 H   0  0  0  0  0  0  0  0  0  0  0  0
   -1.0805   20.8817  -33.0494 H   0  0  0  0  0  0  0  0  0  0  0  0
   -2.5844   21.8640  -33.0494 H   0  0  0  0  0  0  0  0  0  0  0  0
   -4.3871   20.5701  -30.4895 H   0  0  0  0  0  0  0  0  0  0  0  0
   -3.8018   22.4910  -28.3645 H   0  0  0  0  0  0  0  0  0  0  0  0
   -2.5688   22.6887  -29.6017 H   0  0  0  0  0  0  0  0  0  0  0  0
  1  2  1  0
  2  3  1  0
  3  4  1  0
  4  5  2  0
  5  6  1  0
  6  7  2  0
  7  8  1  0
  8  9  2  0
  9 10  1  0
 10 11  2  0
 10 12  1  0
 12 13  1  0
 13 14  1  0
 14 15  1  0
 15 16  2  0
 16 17  1  0
 17 18  2  0
 18 19  1  0
 19 20  2  0
 20 21  1  0
 21 22  2  0
 22 23  1  0
 23 24  2  0
 24 25  1  0
 25 26  1  0
 26 27  1  0
 26 28  1  0
 18 29  1  0
 29 30  2  0
 30 31  1  0
  9  4  1  0
 31 13  1  0
 30 15  1  0
 24 19  1  0
  1 32  1  0
  1 33  1  0
  1 34  1  0
  2 35  1  0
  2 36  1  0
  5 37  1  0
  6 38  1  0
  7 39  1  0
  8 40  1  0
 13 41  1  1
 14 42  1  0
 14 43  1  0
 16 44  1  0
 17 45  1  0
 20 46  1  0
 21 47  1  0
 22 48  1  0
 23 49  1  0
 25 50  1  0
 25 51  1  0
 26 52  1  0
 27 53  1  0
 27 54  1  0
 27 55  1  0
 28 56  1  0
 28 57  1  0
 28 58  1  0
 29 59  1  0
 31 60  1  0
 31 61  1  0
M  CHG  2  12  -1  26   1
M  END
>  <UniqueID>  (7) 
7

>  <SMILES>  (7) 
CCOc1ccccc1C(=O)[N-][C@H]1Cc2ccc(-c3ccccc3C[NH+](C)C)cc2C1

>  <Energy>  (7) 
84.89772775401187

>  <Genealogy>  (7) 
CCOc1ccccc1C(=O)[N-]C1Cc2ccc(-c3ccccc3C[NH+](C)C)cc2C1 (protonated)
CCOc1ccccc1C(=O)[N-][C@H]1Cc2ccc(-c3ccccc3C[NH+](C)C)cc2C1 (chirality)
CCOc1ccccc1C(=O)[N-][C@H]1Cc2ccc(-c3ccccc3C[NH+](C)C)cc2C1 (3D coordinates assigned)
CCOc1ccccc1C(=O)[N-][C@H]1Cc2ccc(-c3ccccc3C[NH+](C)C)cc2C1 (nonaromatic ring conformer: 84.89772775401187 kcal/mol)

>  <smiles>  (7) 
CCOc1ccccc1C(=O)NC1Cc2ccc(-c3ccccc3CN(C)C)cc2C1

>  <score_type>  (7) 
oracle

>  <origin>  (7) 
adg

>  <m_score__min__energy>  (7) 
-11.06

>  <m_primary>  (7) 
energy

$$$$
8:0
     RDKit          3D

 49 52  0  0  0  0  0  0  0  0999 V2000
   -9.1130   18.1730  -31.5960 C   0  0  0  0  0  0  0  0  0  0  0  0
   -8.1760   19.2220  -31.9870 N   0  0  0  0  0  0  0  0  0  0  0  0
   -8.3430   20.5540  -31.8060 C   0  0  0  0  0  0  0  0  0  0  0  0
   -7.2360   21.2450  -32.2870 C   0  0  0  0  0  0  0  0  0  0  0  0
   -7.0730   22.7380  -32.3240 C   0  0  0  0  0  0  0  0  0  0  0  0
   -6.4690   23.2340  -31.0690 N   0  0  0  0  0  0  0  0  0  0  0  0
   -6.2710   24.7040  -31.1070 C   0  0  0  0  0  0  0  0  0  0  0  0
   -5.1920   25.1490  -30.1130 C   0  0  0  0  0  0  0  0  0  0  0  0
   -3.8670   24.5780  -30.4630 N   0  0  0  0  0  0  0  0  0  0  0  0
   -2.9710   24.5380  -29.2880 C   0  0  0  0  0  0  0  0  0  0  0  0
   -2.4800   23.1360  -29.0310 C   0  0  0  0  0  0  0  0  0  0  0  0
   -3.1950   22.2890  -28.1680 C   0  0  0  0  0  0  0  0  0  0  0  0
   -2.7580   20.9800  -27.9470 C   0  0  0  0  0  0  0  0  0  0  0  0
   -1.6090   20.5060  -28.5880 C   0  0  0  0  0  0  0  0  0  0  0  0
   -1.1880   19.2360  -28.3720 F   0  0  0  0  0  0  0  0  0  0  0  0
   -0.8960   21.3420  -29.4520 C   0  0  0  0  0  0  0  0  0  0  0  0
   -1.3310   22.6530  -29.6770 C   0  0  0  0  0  0  0  0  0  0  0  0
   -3.9580   23.2520  -31.1260 C   0  0  0  0  0  0  0  0  0  0  0  0
   -5.2310   22.4870  -30.7290 C   0  0  0  0  0  0  0  0  0  0  0  0
   -6.3750   20.2830  -32.7840 C   0  0  0  0  0  0  0  0  0  0  0  0
   -5.1280   20.3930  -33.4010 C   0  0  0  0  0  0  0  0  0  0  0  0
   -4.4920   19.2080  -33.8110 C   0  0  0  0  0  0  0  0  0  0  0  0
   -5.1060   17.9540  -33.6000 C   0  0  0  0  0  0  0  0  0  0  0  0
   -6.3640   17.8740  -32.9760 C   0  0  0  0  0  0  0  0  0  0  0  0
   -6.9750   19.0650  -32.5800 C   0  0  0  0  0  0  0  0  0  0  0  0
   -9.1633   18.1167  -30.4986 H   0  0  0  0  0  0  0  0  0  0  0  0
  -10.1107   18.4043  -31.9974 H   0  0  0  0  0  0  0  0  0  0  0  0
   -8.7710   17.2076  -31.9974 H   0  0  0  0  0  0  0  0  0  0  0  0
   -9.2259   21.0213  -31.3455 H   0  0  0  0  0  0  0  0  0  0  0  0
   -6.4220   23.0084  -33.1685 H   0  0  0  0  0  0  0  0  0  0  0  0
   -8.0656   23.1971  -32.4418 H   0  0  0  0  0  0  0  0  0  0  0  0
   -5.9656   24.9979  -32.1221 H   0  0  0  0  0  0  0  0  0  0  0  0
   -7.2187   25.1883  -30.8289 H   0  0  0  0  0  0  0  0  0  0  0  0
   -5.1238   26.2468  -30.1260 H   0  0  0  0  0  0  0  0  0  0  0  0
   -5.4720   24.7881  -29.1123 H   0  0  0  0  0  0  0  0  0  0  0  0
   -2.1071   25.1937  -29.4718 H   0  0  0  0  0  0  0  0  0  0  0  0
   -3.5333   24.8797  -28.4065 H   0  0  0  0  0  0  0  0  0  0  0  0
   -4.1013   22.6570  -27.6648 H   0  0  0  0  0  0  0  0  0  0  0  0
   -3.3189   20.3213  -27.2676 H   0  0  0  0  0  0  0  0  0  0  0  0
    0.0080   20.9690  -29.9556 H   0  0  0  0  0  0  0  0  0  0  0  0
   -0.7711   23.3068  -30.3619 H   0  0  0  0  0  0  0  0  0  0  0  0
   -3.9603   23.4009  -32.2159 H   0  0  0  0  0  0  0  0  0  0  0  0
   -3.0923   22.6547  -30.8038 H   0  0  0  0  0  0  0  0  0  0  0  0
   -5.2434   21.5228  -31.2584 H   0  0  0  0  0  0  0  0  0  0  0  0
   -5.2122   22.3473  -29.6381 H   0  0  0  0  0  0  0  0  0  0  0  0
   -4.6581   21.3746  -33.5613 H   0  0  0  0  0  0  0  0  0  0  0  0
   -3.5080   19.2582  -34.3002 H   0  0  0  0  0  0  0  0  0  0  0  0
   -4.5976   17.0345  -33.9255 H   0  0  0  0  0  0  0  0  0  0  0  0
   -6.8514   16.9028  -32.8053 H   0  0  0  0  0  0  0  0  0  0  0  0
  1  2  1  0
  2  3  1  0
  3  4  2  0
  4  5  1  0
  5  6  1  0
  6  7  1  0
  7  8  1  0
  8  9  1  0
  9 10  1  0
 10 11  1  0
 11 12  2  0
 12 13  1  0
 13 14  2  0
 14 15  1  0
 14 16  1  0
 16 17  2  0
  9 18  1  0
 18 19  1  0
  4 20  1  0
 20 21  2  0
 21 22  1  0
 22 23  2  0
 23 24  1  0
 24 25  2  0
 25  2  1  0
 19  6  1  0
 25 20  1  0
 17 11  1  0
  1 26  1  0
  1 27  1  0
  1 28  1  0
  3 29  1  0
  5 30  1  0
  5 31  1  0
  7 32  1  0
  7 33  1  0
  8 34  1  0
  8 35  1  0
 10 36  1  0
 10 37  1  0
 12 38  1  0
 13 39  1  0
 16 40  1  0
 17 41  1  0
 18 42  1  0
 18 43  1  0
 19 44  1  0
 19 45  1  0
 21 46  1  0
 22 47  1  0
 23 48  1  0
 24 49  1  0
M  END
>  <UniqueID>  (8) 
8

>  <SMILES>  (8) 
Cn1cc(CN2CCN(Cc3ccc(F)cc3)CC2)c2ccccc21

>  <Energy>  (8) 
97.745984721608

>  <Genealogy>  (8) 
Cn1cc(CN2CCN(Cc3ccc(F)cc3)CC2)c2ccccc21 (3D coordinates assigned)
Cn1cc(CN2CCN(Cc3ccc(F)cc3)CC2)c2ccccc21 (nonaromatic ring conformer: 97.745984721608 kcal/mol)

>  <smiles>  (8) 
Cn1cc(CN2CCN(Cc3ccc(F)cc3)CC2)c2ccccc21

>  <score_type>  (8) 
oracle

>  <origin>  (8) 
adg

>  <m_score__min__energy>  (8) 
-8.5700000000000003

>  <m_primary>  (8) 
energy

$$$$
9:0
     RDKit          3D

 51 53  0  0  0  0  0  0  0  0999 V2000
   -6.0890   16.9970  -32.8490 C   0  0  0  0  0  0  0  0  0  0  0  0
   -6.5050   17.8760  -31.6760 C   0  0  0  0  0  0  0  0  0  0  0  0
   -6.9090   19.2140  -32.1750 N   0  0  0  0  0  0  0  0  0  0  0  0
   -8.3810   19.3700  -32.2800 C   0  0  0  0  0  0  0  0  0  0  0  0
   -8.8760   20.7890  -31.9580 C   0  0  0  0  0  0  0  0  0  0  0  0
   -6.2030   19.6200  -33.4160 C   0  0  0  0  0  0  0  0  0  0  0  0
   -5.0520   20.5850  -33.1100 C   0  0  0  0  0  0  0  0  0  0  0  0
   -4.8820   20.7330  -31.6650 N   0  0  0  0  0  0  0  0  0  0  0  0
   -4.2990   21.9060  -31.0720 C   0  0  0  0  0  0  0  0  0  0  0  0
   -2.9190   21.9520  -30.8170 C   0  0  0  0  0  0  0  0  0  0  0  0
   -2.1220   20.8350  -31.1150 O   0  0  0  0  0  0  0  0  0  0  0  0
   -1.6310   20.5020  -32.3870 C   0  0  0  0  0  0  0  0  0  0  0  0
   -0.8560   21.4410  -33.0810 C   0  0  0  0  0  0  0  0  0  0  0  0
   -0.3400   21.1350  -34.3450 C   0  0  0  0  0  0  0  0  0  0  0  0
   -0.5710   19.8790  -34.9110 C   0  0  0  0  0  0  0  0  0  0  0  0
   -1.3220   18.9270  -34.2180 C   0  0  0  0  0  0  0  0  0  0  0  0
   -1.8570   19.2360  -32.9620 C   0  0  0  0  0  0  0  0  0  0  0  0
   -2.3660   23.1030  -30.2370 C   0  0  0  0  0  0  0  0  0  0  0  0
   -3.1410   24.1830  -29.9500 N   0  0  0  0  0  0  0  0  0  0  0  0
   -2.5360   25.2850  -29.3800 O   0  0  0  0  0  0  0  0  0  0  0  0
   -4.4860   24.1780  -30.2000 C   0  0  0  0  0  0  0  0  0  0  0  0
   -5.2810   25.2960  -29.8800 C   0  0  0  0  0  0  0  0  0  0  0  0
   -6.6560   25.2750  -30.1100 C   0  0  0  0  0  0  0  0  0  0  0  0
   -7.2580   24.1440  -30.6630 C   0  0  0  0  0  0  0  0  0  0  0  0
   -6.4900   23.0270  -30.9920 C   0  0  0  0  0  0  0  0  0  0  0  0
   -5.0970   23.0300  -30.7720 C   0  0  0  0  0  0  0  0  0  0  0  0
   -5.6474   16.0638  -32.4694 H   0  0  0  0  0  0  0  0  0  0  0  0
   -6.9715   16.7621  -33.4622 H   0  0  0  0  0  0  0  0  0  0  0  0
   -5.3478   17.5305  -33.4622 H   0  0  0  0  0  0  0  0  0  0  0  0
   -7.3521   17.4098  -31.1516 H   0  0  0  0  0  0  0  0  0  0  0  0
   -5.6578   17.9852  -30.9830 H   0  0  0  0  0  0  0  0  0  0  0  0
   -8.6842   19.1212  -33.3077 H   0  0  0  0  0  0  0  0  0  0  0  0
   -8.8298   18.6961  -31.5354 H   0  0  0  0  0  0  0  0  0  0  0  0
   -8.9225   20.9224  -30.8671 H   0  0  0  0  0  0  0  0  0  0  0  0
   -8.1818   21.5259  -32.3882 H   0  0  0  0  0  0  0  0  0  0  0  0
   -9.8779   20.9343  -32.3882 H   0  0  0  0  0  0  0  0  0  0  0  0
   -5.7980   18.7233  -33.9078 H   0  0  0  0  0  0  0  0  0  0  0  0
   -6.9212   20.1325  -34.0729 H   0  0  0  0  0  0  0  0  0  0  0  0
   -4.1224   20.1903  -33.5459 H   0  0  0  0  0  0  0  0  0  0  0  0
   -5.2853   21.5682  -33.5446 H   0  0  0  0  0  0  0  0  0  0  0  0
   -5.2400   19.9820  -31.0370 H   0  0  0  0  0  0  0  0  0  0  0  0
   -0.6524   22.4233  -32.6298 H   0  0  0  0  0  0  0  0  0  0  0  0
    0.2486   21.8848  -34.8940 H   0  0  0  0  0  0  0  0  0  0  0  0
   -0.1611   19.6396  -35.9033 H   0  0  0  0  0  0  0  0  0  0  0  0
   -1.4931   17.9341  -34.6594 H   0  0  0  0  0  0  0  0  0  0  0  0
   -2.4559   18.4878  -32.4221 H   0  0  0  0  0  0  0  0  0  0  0  0
   -1.2899   23.1326  -30.0110 H   0  0  0  0  0  0  0  0  0  0  0  0
   -4.8136   26.1920  -29.4455 H   0  0  0  0  0  0  0  0  0  0  0  0
   -7.2681   26.1526  -29.8548 H   0  0  0  0  0  0  0  0  0  0  0  0
   -8.3436   24.1333  -30.8403 H   0  0  0  0  0  0  0  0  0  0  0  0
   -6.9735   22.1391  -31.4254 H   0  0  0  0  0  0  0  0  0  0  0  0
  1  2  1  0
  2  3  1  0
  3  4  1  0
  4  5  1  0
  3  6  1  0
  6  7  1  0
  7  8  1  0
  8  9  1  0
  9 10  2  0
 10 11  1  0
 11 12  1  0
 12 13  2  0
 13 14  1  0
 14 15  2  0
 15 16  1  0
 16 17  2  0
 10 18  1  0
 18 19  2  0
 19 20  1  0
 19 21  1  0
 21 22  2  0
 22 23  1  0
 23 24  2  0
 24 25  1  0
 25 26  2  0
 26  9  1  0
 17 12  1  0
 26 21  1  0
  1 27  1  0
  1 28  1  0
  1 29  1  0
  2 30  1  0
  2 31  1  0
  4 32  1  0
  4 33  1  0
  5 34  1  0
  5 35  1  0
  5 36  1  0
  6 37  1  0
  6 38  1  0
  7 39  1  0
  7 40  1  0
  8 41  1  0
 13 42  1  0
 14 43  1  0
 15 44  1  0
 16 45  1  0
 17 46  1  0
 18 47  1  0
 22 48  1  0
 23 49  1  0
 24 50  1  0
 25 51  1  0
M  CHG  2  19   1  20  -1
M  END
>  <UniqueID>  (9) 
9

>  <SMILES>  (9) 
CCN(CC)CCNc1c(Oc2ccccc2)c[n+]([O-])c2ccccc12

>  <Energy>  (9) 
66.77118722679968

>  <Genealogy>  (9) 
CCN(CC)CCNc1c(Oc2ccccc2)c[n+]([O-])c2ccccc12 (3D coordinates assigned)
CCN(CC)CCNc1c(Oc2ccccc2)c[n+]([O-])c2ccccc12 (optimized conformer: 66.77118722679968 kcal/mol)

>  <smiles>  (9) 
CCN(CC)CCNc1c(Oc2ccccc2)c[n+]([O-])c2ccccc12

>  <score_type>  (9) 
oracle

>  <origin>  (9) 
adg

>  <m_score__min__energy>  (9) 
-8.25

>  <m_primary>  (9) 
energy

$$$$
10:0
     RDKit          3D

 71 71  0  0  0  0  0  0  0  0999 V2000
   -3.4260   16.2800  -35.6570 C   0  0  0  0  0  0  0  0  0  0  0  0
   -4.3840   17.2560  -34.9810 C   0  0  0  0  0  0  0  0  0  0  0  0
   -4.0180   17.4120  -33.5490 N   0  0  0  0  0  0  0  0  0  0  0  0
   -4.5630   16.3070  -32.7250 C   0  0  0  0  0  0  0  0  0  0  0  0
   -5.7700   15.6470  -33.4020 C   0  0  0  0  0  0  0  0  0  0  0  0
   -2.5480   17.5130  -33.3620 C   0  0  0  0  0  0  0  0  0  0  0  0
   -2.0830   18.9780  -33.3810 C   0  0  0  0  0  0  0  0  0  0  0  0
   -2.9040   19.7980  -32.5730 O   0  0  0  0  0  0  0  0  0  0  0  0
   -3.2310   21.0130  -33.2290 C   0  0  0  0  0  0  0  0  0  0  0  0
   -4.6360   21.4820  -32.8510 C   0  0  0  0  0  0  0  0  0  0  0  0
   -5.5970   20.6420  -33.4570 O   0  0  0  0  0  0  0  0  0  0  0  0
   -5.6890   19.5080  -32.7030 N   0  0  0  0  0  0  0  0  0  0  0  0
   -6.8780   18.7820  -33.1560 C   0  0  0  0  0  0  0  0  0  0  0  0
   -7.8000   18.4760  -31.9700 C   0  0  0  0  0  0  0  0  0  0  0  0
   -8.6660   19.6870  -31.5960 C   0  0  0  0  0  0  0  0  0  0  0  0
   -7.8760   20.9120  -31.6800 N   0  0  0  0  0  0  0  0  0  0  0  0
   -8.4780   22.2150  -31.7380 C   0  0  0  0  0  0  0  0  0  0  0  0
   -9.7230   22.3520  -31.5650 O   0  0  0  0  0  0  0  0  0  0  0  0
   -7.6270   23.4260  -32.0020 C   0  0  0  0  0  0  0  0  0  0  0  0
   -6.9790   23.9650  -30.7200 C   0  0  0  0  0  0  0  0  0  0  0  0
   -5.5480   24.4690  -30.9590 C   0  0  0  0  0  0  0  0  0  0  0  0
   -4.7600   24.5400  -29.6440 C   0  0  0  0  0  0  0  0  0  0  0  0
   -3.6400   23.5280  -29.6410 C   0  0  0  0  0  0  0  0  0  0  0  0
   -3.9450   22.1610  -29.7670 C   0  0  0  0  0  0  0  0  0  0  0  0
   -2.9310   21.2020  -29.7130 C   0  0  0  0  0  0  0  0  0  0  0  0
   -1.6050   21.5970  -29.5260 C   0  0  0  0  0  0  0  0  0  0  0  0
   -1.2880   22.9510  -29.3880 C   0  0  0  0  0  0  0  0  0  0  0  0
   -2.3020   23.9300  -29.4380 C   0  0  0  0  0  0  0  0  0  0  0  0
   -2.0190   25.2970  -29.2830 O   0  0  0  0  0  0  0  0  0  0  0  0
   -1.2440   25.8440  -28.2230 C   0  0  0  0  0  0  0  0  0  0  0  0
   -2.8738   15.7175  -34.8898 H   0  0  0  0  0  0  0  0  0  0  0  0
   -3.9977   15.5803  -36.2843 H   0  0  0  0  0  0  0  0  0  0  0  0
   -2.7157   16.8385  -36.2843 H   0  0  0  0  0  0  0  0  0  0  0  0
   -4.3229   18.2334  -35.4819 H   0  0  0  0  0  0  0  0  0  0  0  0
   -5.4099   16.8657  -35.0527 H   0  0  0  0  0  0  0  0  0  0  0  0
   -3.7782   15.5507  -32.5764 H   0  0  0  0  0  0  0  0  0  0  0  0
   -4.8915   16.7233  -31.7613 H   0  0  0  0  0  0  0  0  0  0  0  0
   -6.4604   15.2695  -32.6334 H   0  0  0  0  0  0  0  0  0  0  0  0
   -6.2887   16.3870  -34.0292 H   0  0  0  0  0  0  0  0  0  0  0  0
   -5.4269   14.8110  -34.0292 H   0  0  0  0  0  0  0  0  0  0  0  0
   -2.2779   17.0636  -32.3950 H   0  0  0  0  0  0  0  0  0  0  0  0
   -2.0550   16.9810  -34.1890 H   0  0  0  0  0  0  0  0  0  0  0  0
   -1.0499   19.0289  -33.0067 H   0  0  0  0  0  0  0  0  0  0  0  0
   -2.1458   19.3442  -34.4164 H   0  0  0  0  0  0  0  0  0  0  0  0
   -2.5040   21.7854  -32.9378 H   0  0  0  0  0  0  0  0  0  0  0  0
   -3.2001   20.8427  -34.3153 H   0  0  0  0  0  0  0  0  0  0  0  0
   -4.7530   21.4426  -31.7580 H   0  0  0  0  0  0  0  0  0  0  0  0
   -4.7820   22.5146  -33.2008 H   0  0  0  0  0  0  0  0  0  0  0  0
   -4.8590   18.9110  -32.9300 H   0  0  0  0  0  0  0  0  0  0  0  0
   -7.4213   19.3971  -33.8885 H   0  0  0  0  0  0  0  0  0  0  0  0
   -6.5637   17.8345  -33.6180 H   0  0  0  0  0  0  0  0  0  0  0  0
   -8.4582   17.6363  -32.2377 H   0  0  0  0  0  0  0  0  0  0  0  0
   -7.1712   18.2237  -31.1034 H   0  0  0  0  0  0  0  0  0  0  0  0
   -9.5170   19.7542  -32.2898 H   0  0  0  0  0  0  0  0  0  0  0  0
   -9.0325   19.5641  -30.5662 H   0  0  0  0  0  0  0  0  0  0  0  0
   -6.8280   20.8230  -31.6870 H   0  0  0  0  0  0  0  0  0  0  0  0
   -6.8334   23.1539  -32.7135 H   0  0  0  0  0  0  0  0  0  0  0  0
   -8.2761   24.2141  -32.4113 H   0  0  0  0  0  0  0  0  0  0  0  0
   -7.5884   24.7975  -30.3384 H   0  0  0  0  0  0  0  0  0  0  0  0
   -6.9288   23.1393  -29.9949 H   0  0  0  0  0  0  0  0  0  0  0  0
   -5.0355   23.7817  -31.6482 H   0  0  0  0  0  0  0  0  0  0  0  0
   -5.6011   25.4799  -31.3893 H   0  0  0  0  0  0  0  0  0  0  0  0
   -4.3362   25.5487  -29.5304 H   0  0  0  0  0  0  0  0  0  0  0  0
   -5.4414   24.3176  -28.8096 H   0  0  0  0  0  0  0  0  0  0  0  0
   -4.9890   21.8449  -29.9090 H   0  0  0  0  0  0  0  0  0  0  0  0
   -3.1772   20.1351  -29.8178 H   0  0  0  0  0  0  0  0  0  0  0  0
   -0.8076   20.8403  -29.4872 H   0  0  0  0  0  0  0  0  0  0  0  0
   -0.2413   23.2551  -29.2395 H   0  0  0  0  0  0  0  0  0  0  0  0
   -1.6756   25.5394  -27.2582 H   0  0  0  0  0  0  0  0  0  0  0  0
   -0.2106   25.4740  -28.2956 H   0  0  0  0  0  0  0  0  0  0  0  0
   -1.2464   26.9416  -28.2956 H   0  0  0  0  0  0  0  0  0  0  0  0
  1  2  1  0
  2  3  1  0
  3  4  1  0
  4  5  1  0
  3  6  1  0
  6  7  1  0
  7  8  1  0
  8  9  1  0
  9 10  1  0
 10 11  1  0
 11 12  1  0
 12 13  1  0
 13 14  1  0
 14 15  1  0
 15 16  1  0
 16 17  1  0
 17 18  2  0
 17 19  1  0
 19 20  1  0
 20 21  1  0
 21 22  1  0
 22 23  1  0
 23 24  2  0
 24 25  1  0
 25 26  2  0
 26 27  1  0
 27 28  2  0
 28 29  1  0
 29 30  1  0
 28 23  1  0
  1 31  1  0
  1 32  1  0
  1 33  1  0
  2 34  1  0
  2 35  1  0
  4 36  1  0
  4 37  1  0
  5 38  1  0
  5 39  1  0
  5 40  1  0
  6 41  1  0
  6 42  1  0
  7 43  1  0
  7 44  1  0
  9 45  1  0
  9 46  1  0
 10 47  1  0
 10 48  1  0
 12 49  1  0
 13 50  1  0
 13 51  1  0
 14 52  1  0
 14 53  1  0
 15 54  1  0
 15 55  1  0
 16 56  1  0
 19 57  1  0
 19 58  1  0
 20 59  1  0
 20 60  1  0
 21 61  1  0
 21 62  1  0
 22 63  1  0
 22 64  1  0
 24 65  1  0
 25 66  1  0
 26 67  1  0
 27 68  1  0
 30 69  1  0
 30 70  1  0
 30 71  1  0
M  END
>  <UniqueID>  (10) 
10

>  <SMILES>  (10) 
CCN(CC)CCOCCONCCCNC(=O)CCCCc1ccccc1OC

>  <Energy>  (10) 
55.61309942595846

>  <Genealogy>  (10) 
CCN(CC)CCOCCONCCCNC(=O)CCCCc1ccccc1OC (3D coordinates assigned)
CCN(CC)CCOCCONCCCNC(=O)CCCCc1ccccc1OC (optimized conformer: 55.61309942595846 kcal/mol)

>  <smiles>  (10) 
CCN(CC)CCOCCONCCCNC(=O)CCCCc1ccccc1OC

>  <score_type>  (10) 
oracle

>  <origin>  (10) 
adg

>  <m_score__min__energy>  (10) 
-9.1099999999999994

>  <m_primary>  (10) 
energy

$$$$
11:0
     RDKit          3D

 81 84  0  0  0  0  0  0  0  0999 V2000
   -1.5720   18.3900  -33.1370 C   0  0  0  0  0  0  0  0  0  0  0  0
   -0.7050   19.3060  -32.2760 C   0  0  0  0  0  0  0  0  0  0  0  0
   -1.3790   20.6010  -32.0260 N   0  0  0  0  0  0  0  0  0  0  0  0
   -0.5260   21.5320  -31.2410 C   0  0  0  0  0  0  0  0  0  0  0  0
   -1.3830   22.3000  -30.2450 C   0  0  0  0  0  0  0  0  0  0  0  0
   -1.8350   21.2150  -33.2930 C   0  0  0  0  0  0  0  0  0  0  0  0
   -3.3670   21.3290  -33.3260 C   0  0  0  0  0  0  0  0  0  0  0  0
   -4.0040   20.7250  -32.1290 N   0  0  0  0  0  0  0  0  0  0  0  0
   -5.3870   21.1660  -31.9840 C   0  0  0  0  0  0  0  0  0  0  0  0
   -5.6520   22.4590  -31.4410 C   0  0  0  0  0  0  0  0  0  0  0  0
   -4.6320   23.3240  -30.9660 C   0  0  0  0  0  0  0  0  0  0  0  0
   -4.9340   24.5900  -30.4750 C   0  0  0  0  0  0  0  0  0  0  0  0
   -6.2530   25.0080  -30.4370 C   0  0  0  0  0  0  0  0  0  0  0  0
   -7.2310   24.1740  -30.8600 N   0  0  0  0  0  0  0  0  0  0  0  0
   -6.9860   22.9210  -31.3490 C   0  0  0  0  0  0  0  0  0  0  0  0
   -8.0340   22.1150  -31.7040 N   0  0  0  0  0  0  0  0  0  0  0  0
   -9.4050   22.6740  -31.6870 C   0  0  0  0  0  0  0  0  0  0  0  0
   -7.8230   20.7860  -32.0060 C   0  0  0  0  0  0  0  0  0  0  0  0
   -8.9160   19.8890  -32.0630 C   0  0  0  0  0  0  0  0  0  0  0  0
   -8.7350   18.5490  -32.3390 C   0  0  0  0  0  0  0  0  0  0  0  0
   -7.4780   18.0670  -32.6410 C   0  0  0  0  0  0  0  0  0  0  0  0
   -6.3630   18.9220  -32.6770 C   0  0  0  0  0  0  0  0  0  0  0  0
   -5.1360   18.4460  -33.1680 O   0  0  0  0  0  0  0  0  0  0  0  0
   -4.8600   17.8460  -34.4400 C   0  0  0  0  0  0  0  0  0  0  0  0
   -5.4380   16.4110  -34.4810 C   0  0  0  0  0  0  0  0  0  0  0  0
   -4.4540   15.2990  -34.2520 N   0  0  0  0  0  0  0  0  0  0  0  0
   -3.4770   15.2600  -35.3740 C   0  0  0  0  0  0  0  0  0  0  0  0
   -3.7440   15.6100  -32.9750 C   0  0  0  0  0  0  0  0  0  0  0  0
   -2.8870   14.4480  -32.4230 C   0  0  0  0  0  0  0  0  0  0  0  0
   -3.6440   13.1770  -32.2960 N   0  0  0  0  0  0  0  0  0  0  0  0
   -4.6330   13.2530  -31.1900 C   0  0  0  0  0  0  0  0  0  0  0  0
   -2.6890   12.0890  -31.9690 C   0  0  0  0  0  0  0  0  0  0  0  0
   -4.3060   12.8490  -33.5840 C   0  0  0  0  0  0  0  0  0  0  0  0
   -5.1790   13.9990  -34.1320 C   0  0  0  0  0  0  0  0  0  0  0  0
   -6.5000   20.2860  -32.2370 C   0  0  0  0  0  0  0  0  0  0  0  0
   -2.1821   17.7454  -32.4872 H   0  0  0  0  0  0  0  0  0  0  0  0
   -2.2315   18.9998  -33.7720 H   0  0  0  0  0  0  0  0  0  0  0  0
   -0.9269   17.7650  -33.7720 H   0  0  0  0  0  0  0  0  0  0  0  0
   -0.5076   18.8123  -31.3130 H   0  0  0  0  0  0  0  0  0  0  0  0
    0.2357   19.5004  -32.8119 H   0  0  0  0  0  0  0  0  0  0  0  0
    0.2385   20.9570  -30.6979 H   0  0  0  0  0  0  0  0  0  0  0  0
   -0.0388   22.2425  -31.9249 H   0  0  0  0  0  0  0  0  0  0  0  0
   -1.0840   22.0321  -29.2209 H   0  0  0  0  0  0  0  0  0  0  0  0
   -1.2428   23.3804  -30.3971 H   0  0  0  0  0  0  0  0  0  0  0  0
   -2.4416   22.0426  -30.3971 H   0  0  0  0  0  0  0  0  0  0  0  0
   -1.3969   22.2198  -33.3846 H   0  0  0  0  0  0  0  0  0  0  0  0
   -1.5116   20.5776  -34.1292 H   0  0  0  0  0  0  0  0  0  0  0  0
   -3.6414   22.3932  -33.3734 H   0  0  0  0  0  0  0  0  0  0  0  0
   -3.7257   20.7812  -34.2099 H   0  0  0  0  0  0  0  0  0  0  0  0
   -3.4490   20.9070  -31.2690 H   0  0  0  0  0  0  0  0  0  0  0  0
   -3.9420   19.6860  -32.1450 H   0  0  0  0  0  0  0  0  0  0  0  0
   -3.5849   22.9876  -30.9865 H   0  0  0  0  0  0  0  0  0  0  0  0
   -4.1315   25.2532  -30.1200 H   0  0  0  0  0  0  0  0  0  0  0  0
   -6.5047   26.0122  -30.0651 H   0  0  0  0  0  0  0  0  0  0  0  0
   -9.7335   22.8079  -30.6458 H   0  0  0  0  0  0  0  0  0  0  0  0
   -9.4109   23.6463  -32.2013 H   0  0  0  0  0  0  0  0  0  0  0  0
  -10.0891   21.9830  -32.2013 H   0  0  0  0  0  0  0  0  0  0  0  0
   -9.9328   20.2683  -31.8833 H   0  0  0  0  0  0  0  0  0  0  0  0
   -9.5950   17.8635  -32.3182 H   0  0  0  0  0  0  0  0  0  0  0  0
   -7.3463   16.9965  -32.8570 H   0  0  0  0  0  0  0  0  0  0  0  0
   -5.3224   18.4485  -35.2357 H   0  0  0  0  0  0  0  0  0  0  0  0
   -3.7714   17.8028  -34.5919 H   0  0  0  0  0  0  0  0  0  0  0  0
   -6.2146   16.3385  -33.7054 H   0  0  0  0  0  0  0  0  0  0  0  0
   -5.8118   16.2705  -35.5060 H   0  0  0  0  0  0  0  0  0  0  0  0
   -2.4551   15.2192  -34.9691 H   0  0  0  0  0  0  0  0  0  0  0  0
   -3.6627   14.3686  -35.9911 H   0  0  0  0  0  0  0  0  0  0  0  0
   -3.5911   16.1634  -35.9911 H   0  0  0  0  0  0  0  0  0  0  0  0
   -3.0836   16.4722  -33.1494 H   0  0  0  0  0  0  0  0  0  0  0  0
   -4.5218   15.8116  -32.2237 H   0  0  0  0  0  0  0  0  0  0  0  0
   -2.0388   14.2840  -33.1039 H   0  0  0  0  0  0  0  0  0  0  0  0
   -2.5550   14.7349  -31.4143 H   0  0  0  0  0  0  0  0  0  0  0  0
   -4.1073   13.2126  -30.2246 H   0  0  0  0  0  0  0  0  0  0  0  0
   -5.1932   14.1968  -31.2632 H   0  0  0  0  0  0  0  0  0  0  0  0
   -5.3308   12.4058  -31.2632 H   0  0  0  0  0  0  0  0  0  0  0  0
   -2.6038   11.9919  -30.8766 H   0  0  0  0  0  0  0  0  0  0  0  0
   -3.0527   11.1419  -32.3940 H   0  0  0  0  0  0  0  0  0  0  0  0
   -1.7027   12.3268  -32.3940 H   0  0  0  0  0  0  0  0  0  0  0  0
   -3.5288   12.6162  -34.3268 H   0  0  0  0  0  0  0  0  0  0  0  0
   -4.9723   11.9934  -33.3994 H   0  0  0  0  0  0  0  0  0  0  0  0
   -5.5450   13.7123  -35.1289 H   0  0  0  0  0  0  0  0  0  0  0  0
   -5.9968   14.1525  -33.4125 H   0  0  0  0  0  0  0  0  0  0  0  0
  1  2  1  0
  2  3  1  0
  3  4  1  0
  4  5  1  0
  3  6  1  0
  6  7  1  0
  7  8  1  0
  8  9  1  0
  9 10  2  0
 10 11  1  0
 11 12  2  0
 12 13  1  0
 13 14  2  0
 14 15  1  0
 15 16  2  0
 16 17  1  0
 16 18  1  0
 18 19  2  0
 19 20  1  0
 20 21  2  0
 21 22  1  0
 22 23  1  0
 23 24  1  0
 24 25  1  0
 25 26  1  0
 26 27  1  0
 26 28  1  0
 28 29  1  0
 29 30  1  0
 30 31  1  0
 30 32  1  0
 30 33  1  0
 33 34  1  0
 22 35  2  0
 35  9  1  0
 15 10  1  0
 35 18  1  0
 34 26  1  0
  1 36  1  0
  1 37  1  0
  1 38  1  0
  2 39  1  0
  2 40  1  0
  4 41  1  0
  4 42  1  0
  5 43  1  0
  5 44  1  0
  5 45  1  0
  6 46  1  0
  6 47  1  0
  7 48  1  0
  7 49  1  0
  8 50  1  0
  8 51  1  0
 11 52  1  0
 12 53  1  0
 13 54  1  0
 17 55  1  0
 17 56  1  0
 17 57  1  0
 19 58  1  0
 20 59  1  0
 21 60  1  0
 24 61  1  0
 24 62  1  0
 25 63  1  0
 25 64  1  0
 27 65  1  0
 27 66  1  0
 27 67  1  0
 28 68  1  0
 28 69  1  0
 29 70  1  0
 29 71  1  0
 31 72  1  0
 31 73  1  0
 31 74  1  0
 32 75  1  0
 32 76  1  0
 32 77  1  0
 33 78  1  0
 33 79  1  0
 34 80  1  0
 34 81  1  0
M  CHG  4   8   1  16   1  26   1  30   1
M  END
>  <UniqueID>  (11) 
11

>  <SMILES>  (11) 
CCN(CC)CC[NH2+]c1c2cccnc2[n+](C)c2cccc(OCC[N+]3(C)CC[N+](C)(C)CC3)c12

>  <Energy>  (11) 
138.2347977665955

>  <Genealogy>  (11) 
CCN(CC)CC[NH2+]c1c2cccnc2[n+](C)c2cccc(OCC[N+]3(C)CC[N+](C)(C)CC3)c12 (protonated)
CCN(CC)CC[NH2+]c1c2cccnc2[n+](C)c2cccc(OCC[N+]3(C)CC[N+](C)(C)CC3)c12 (3D coordinates assigned)
CCN(CC)CC[NH2+]c1c2cccnc2[n+](C)c2cccc(OCC[N+]3(C)CC[N+](C)(C)CC3)c12 (nonaromatic ring conformer: 138.2347977665955 kcal/mol)

>  <smiles>  (11) 
CCN(CC)CCNc1c2cccnc2[n+](C)c2cccc(OCC[N+]3(C)CC[N+](C)(C)CC3)c12

>  <score_type>  (11) 
oracle

>  <origin>  (11) 
adg

>  <m_score__min__energy>  (11) 
-7.0700000000000003

>  <m_primary>  (11) 
energy

$$$$
12:0
     RDKit          3D

 62 65  0  0  0  0  0  0  0  0999 V2000
   -8.3590   18.6740  -31.6840 C   0  0  0  0  0  0  0  0  0  0  0  0
   -7.6620   17.7900  -32.7060 C   0  0  0  0  0  0  0  0  0  0  0  0
   -6.2910   18.1640  -32.7990 O   0  0  0  0  0  0  0  0  0  0  0  0
   -5.8010   18.9920  -33.8150 C   0  0  0  0  0  0  0  0  0  0  0  0
   -5.8300   18.6140  -35.0200 O   0  0  0  0  0  0  0  0  0  0  0  0
   -5.2250   20.3340  -33.4560 C   0  0  2  0  0  0  0  0  0  0  0  0
   -3.8780   20.1650  -32.7310 C   0  0  0  0  0  0  0  0  0  0  0  0
   -3.4450   21.4950  -32.1110 C   0  0  0  0  0  0  0  0  0  0  0  0
   -4.4050   21.9790  -31.0830 N   0  0  1  0  0  0  0  0  0  0  0  0
   -4.3270   23.4510  -30.8670 C   0  0  0  0  0  0  0  0  0  0  0  0
   -4.6820   23.9820  -29.4530 C   0  0  0  0  0  0  0  0  0  0  0  0
   -4.5990   22.9340  -28.3310 C   0  0  0  0  0  0  0  0  0  0  0  0
   -3.2250   22.8330  -27.8060 N   0  0  0  0  0  0  0  0  0  0  0  0
   -2.5300   21.5660  -27.7840 C   0  0  0  0  0  0  0  0  0  0  0  0
   -3.1440   20.4780  -27.1290 C   0  0  0  0  0  0  0  0  0  0  0  0
   -2.5280   19.2290  -27.0720 C   0  0  0  0  0  0  0  0  0  0  0  0
   -1.2950   19.0330  -27.6810 C   0  0  0  0  0  0  0  0  0  0  0  0
   -0.6730   20.0830  -28.3530 C   0  0  0  0  0  0  0  0  0  0  0  0
   -1.2630   21.3620  -28.4180 C   0  0  0  0  0  0  0  0  0  0  0  0
   -0.4940   22.3930  -29.2360 C   0  0  0  0  0  0  0  0  0  0  0  0
   -1.1940   23.7040  -29.5770 C   0  0  0  0  0  0  0  0  0  0  0  0
   -1.4800   24.4720  -28.3210 C   0  0  0  0  0  0  0  0  0  0  0  0
   -0.7720   25.6430  -28.0060 C   0  0  0  0  0  0  0  0  0  0  0  0
   -1.0820   26.3590  -26.8460 C   0  0  0  0  0  0  0  0  0  0  0  0
   -2.1050   25.9170  -26.0030 C   0  0  0  0  0  0  0  0  0  0  0  0
   -2.8220   24.7610  -26.3190 C   0  0  0  0  0  0  0  0  0  0  0  0
   -2.5130   24.0360  -27.4820 C   0  0  0  0  0  0  0  0  0  0  0  0
   -5.7890   21.4400  -31.1980 C   0  0  0  0  0  0  0  0  0  0  0  0
   -6.2360   21.1890  -32.6490 C   0  0  0  0  0  0  0  0  0  0  0  0
   -8.0955   18.3398  -30.6697 H   0  0  0  0  0  0  0  0  0  0  0  0
   -8.0376   19.7170  -31.8215 H   0  0  0  0  0  0  0  0  0  0  0  0
   -9.4482   18.6048  -31.8215 H   0  0  0  0  0  0  0  0  0  0  0  0
   -7.7349   16.7383  -32.3919 H   0  0  0  0  0  0  0  0  0  0  0  0
   -8.1436   17.9132  -33.6873 H   0  0  0  0  0  0  0  0  0  0  0  0
   -5.0279   20.8900  -34.3845 H   0  0  0  0  0  0  0  0  0  0  0  0
   -3.9840   19.4108  -31.9373 H   0  0  0  0  0  0  0  0  0  0  0  0
   -3.1169   19.8406  -33.4558 H   0  0  0  0  0  0  0  0  0  0  0  0
   -2.4600   21.3614  -31.6398 H   0  0  0  0  0  0  0  0  0  0  0  0
   -3.4079   22.2444  -32.9154 H   0  0  0  0  0  0  0  0  0  0  0  0
   -4.0450   21.5730  -30.1840 H   0  0  0  0  0  0  0  0  0  0  0  0
   -3.2957   23.7633  -31.0880 H   0  0  0  0  0  0  0  0  0  0  0  0
   -5.0960   23.8750  -31.5294 H   0  0  0  0  0  0  0  0  0  0  0  0
   -3.9870   24.7993  -29.2100 H   0  0  0  0  0  0  0  0  0  0  0  0
   -5.7326   24.3046  -29.4982 H   0  0  0  0  0  0  0  0  0  0  0  0
   -5.2759   23.2260  -27.5146 H   0  0  0  0  0  0  0  0  0  0  0  0
   -4.8913   21.9561  -28.7412 H   0  0  0  0  0  0  0  0  0  0  0  0
   -4.1266   20.6178  -26.6547 H   0  0  0  0  0  0  0  0  0  0  0  0
   -3.0186   18.3978  -26.5443 H   0  0  0  0  0  0  0  0  0  0  0  0
   -0.8090   18.0474  -27.6326 H   0  0  0  0  0  0  0  0  0  0  0  0
    0.2970   19.9109  -28.8423 H   0  0  0  0  0  0  0  0  0  0  0  0
    0.4159   22.6453  -28.6718 H   0  0  0  0  0  0  0  0  0  0  0  0
   -0.3333   21.9065  -30.2094 H   0  0  0  0  0  0  0  0  0  0  0  0
   -0.5452   24.3043  -30.2317 H   0  0  0  0  0  0  0  0  0  0  0  0
   -2.1414   23.4854  -30.0913 H   0  0  0  0  0  0  0  0  0  0  0  0
    0.0277   25.9975  -28.6729 H   0  0  0  0  0  0  0  0  0  0  0  0
   -0.5201   27.2712  -26.5966 H   0  0  0  0  0  0  0  0  0  0  0  0
   -2.3459   26.4803  -25.0894 H   0  0  0  0  0  0  0  0  0  0  0  0
   -3.6300   24.4176  -25.6562 H   0  0  0  0  0  0  0  0  0  0  0  0
   -5.8375   20.4875  -30.6499 H   0  0  0  0  0  0  0  0  0  0  0  0
   -6.4658   22.1996  -30.7797 H   0  0  0  0  0  0  0  0  0  0  0  0
   -7.2030   20.6650  -32.6320 H   0  0  0  0  0  0  0  0  0  0  0  0
   -6.3078   22.1683  -33.1449 H   0  0  0  0  0  0  0  0  0  0  0  0
  1  2  1  0
  2  3  1  0
  3  4  1  0
  4  5  2  0
  4  6  1  0
  6  7  1  0
  7  8  1  0
  8  9  1  0
  9 10  1  0
 10 11  1  0
 11 12  1  0
 12 13  1  0
 13 14  1  0
 14 15  2  0
 15 16  1  0
 16 17  2  0
 17 18  1  0
 18 19  2  0
 19 20  1  0
 20 21  1  0
 21 22  1  0
 22 23  2  0
 23 24  1  0
 24 25  2  0
 25 26  1  0
 26 27  2  0
  9 28  1  0
 28 29  1  0
 29  6  1  0
 27 13  1  0
 19 14  1  0
 27 22  1  0
  1 30  1  0
  1 31  1  0
  1 32  1  0
  2 33  1  0
  2 34  1  0
  6 35  1  6
  7 36  1  0
  7 37  1  0
  8 38  1  0
  8 39  1  0
  9 40  1  1
 10 41  1  0
 10 42  1  0
 11 43  1  0
 11 44  1  0
 12 45  1  0
 12 46  1  0
 15 47  1  0
 16 48  1  0
 17 49  1  0
 18 50  1  0
 20 51  1  0
 20 52  1  0
 21 53  1  0
 21 54  1  0
 23 55  1  0
 24 56  1  0
 25 57  1  0
 26 58  1  0
 28 59  1  0
 28 60  1  0
 29 61  1  0
 29 62  1  0
M  CHG  1   9   1
M  END
>  <UniqueID>  (12) 
12

>  <SMILES>  (12) 
CCOC(=O)C1CC[NH+](CCCN2c3ccccc3CCc3ccccc32)CC1

>  <Energy>  (12) 
89.61883160976312

>  <Genealogy>  (12) 
CCOC(=O)C1CC[NH+](CCCN2c3ccccc3CCc3ccccc32)CC1 (protonated)
CCOC(=O)C1CC[NH+](CCCN2c3ccccc3CCc3ccccc32)CC1 (3D coordinates assigned)
CCOC(=O)C1CC[NH+](CCCN2c3ccccc3CCc3ccccc32)CC1 (nonaromatic ring conformer: 89.61883160976312 kcal/mol)

>  <smiles>  (12) 
CCOC(=O)C1CCN(CCCN2c3ccccc3CCc3ccccc32)CC1

>  <score_type>  (12) 
oracle

>  <origin>  (12) 
adg

>  <m_score__min__energy>  (12) 
-7.25

>  <m_primary>  (12) 
energy

$$$$
13:0
     RDKit          3D

 64 66  0  0  0  0  0  0  0  0999 V2000
   -0.2640   23.1230  -28.3470 C   0  0  0  0  0  0  0  0  0  0  0  0
   -0.8880   24.1090  -29.3340 C   0  0  0  0  0  0  0  0  0  0  0  0
   -2.0070   24.8620  -28.7200 N   0  0  0  0  0  0  0  0  0  0  0  0
   -1.6150   25.6730  -27.5380 C   0  0  0  0  0  0  0  0  0  0  0  0
   -2.3770   25.3180  -26.2530 C   0  0  0  0  0  0  0  0  0  0  0  0
   -3.1660   23.9850  -28.4370 C   0  0  0  0  0  0  0  0  0  0  0  0
   -4.4070   24.4980  -29.1740 C   0  0  0  0  0  0  0  0  0  0  0  0
   -4.1900   24.4960  -30.5730 O   0  0  0  0  0  0  0  0  0  0  0  0
   -5.4190   24.5520  -31.2690 C   0  0  0  0  0  0  0  0  0  0  0  0
   -5.5300   23.3500  -32.2080 C   0  0  0  0  0  0  0  0  0  0  0  0
   -4.8720   22.1690  -31.6490 N   0  0  0  0  0  0  0  0  0  0  0  0
   -5.2350   20.8380  -32.0540 C   0  0  0  0  0  0  0  0  0  0  0  0
   -6.5910   20.4760  -32.0850 C   0  0  0  0  0  0  0  0  0  0  0  0
   -7.5770   21.2950  -31.4930 C   0  0  0  0  0  0  0  0  0  0  0  0
   -8.9120   20.9030  -31.4800 C   0  0  0  0  0  0  0  0  0  0  0  0
   -9.2880   19.6920  -32.0540 C   0  0  0  0  0  0  0  0  0  0  0  0
   -8.3370   18.8870  -32.6780 C   0  0  0  0  0  0  0  0  0  0  0  0
   -6.9740   19.2770  -32.7360 C   0  0  0  0  0  0  0  0  0  0  0  0
   -6.0330   18.5340  -33.4170 N   0  0  0  0  0  0  0  0  0  0  0  0
   -6.4700   17.5110  -34.3930 C   0  0  0  0  0  0  0  0  0  0  0  0
   -4.6860   18.7550  -33.1950 C   0  0  0  0  0  0  0  0  0  0  0  0
   -3.7080   17.8370  -33.6480 C   0  0  0  0  0  0  0  0  0  0  0  0
   -2.3540   18.0590  -33.4260 C   0  0  0  0  0  0  0  0  0  0  0  0
   -1.9360   19.1660  -32.7020 C   0  0  0  0  0  0  0  0  0  0  0  0
   -2.8660   20.0800  -32.1920 C   0  0  0  0  0  0  0  0  0  0  0  0
   -2.3940   21.0790  -31.2650 N   0  0  0  0  0  0  0  0  0  0  0  0
   -2.6990   20.9120  -29.8440 C   0  0  0  0  0  0  0  0  0  0  0  0
   -1.2420   21.9060  -31.6170 C   0  0  0  0  0  0  0  0  0  0  0  0
   -4.2560   19.9090  -32.4760 C   0  0  0  0  0  0  0  0  0  0  0  0
   -0.4725   23.4524  -27.3184 H   0  0  0  0  0  0  0  0  0  0  0  0
   -0.6941   22.1232  -28.5061 H   0  0  0  0  0  0  0  0  0  0  0  0
    0.8237   23.0838  -28.5061 H   0  0  0  0  0  0  0  0  0  0  0  0
   -0.1167   24.8210  -29.6629 H   0  0  0  0  0  0  0  0  0  0  0  0
   -1.2848   23.5377  -30.1862 H   0  0  0  0  0  0  0  0  0  0  0  0
   -0.5409   25.5211  -27.3557 H   0  0  0  0  0  0  0  0  0  0  0  0
   -1.8623   26.7184  -27.7747 H   0  0  0  0  0  0  0  0  0  0  0  0
   -1.7723   25.5997  -25.3784 H   0  0  0  0  0  0  0  0  0  0  0  0
   -3.3316   25.8641  -26.2300 H   0  0  0  0  0  0  0  0  0  0  0  0
   -2.5730   24.2359  -26.2300 H   0  0  0  0  0  0  0  0  0  0  0  0
   -2.9395   22.9627  -28.7740 H   0  0  0  0  0  0  0  0  0  0  0  0
   -3.3634   23.9874  -27.3549 H   0  0  0  0  0  0  0  0  0  0  0  0
   -5.2620   23.8469  -28.9395 H   0  0  0  0  0  0  0  0  0  0  0  0
   -4.6136   25.5280  -28.8479 H   0  0  0  0  0  0  0  0  0  0  0  0
   -6.2496   24.5317  -30.5481 H   0  0  0  0  0  0  0  0  0  0  0  0
   -5.4650   25.4809  -31.8564 H   0  0  0  0  0  0  0  0  0  0  0  0
   -6.5935   23.1221  -32.3724 H   0  0  0  0  0  0  0  0  0  0  0  0
   -5.0327   23.6056  -33.1553 H   0  0  0  0  0  0  0  0  0  0  0  0
   -4.1800   22.2920  -30.8740 H   0  0  0  0  0  0  0  0  0  0  0  0
   -7.2867   22.2531  -31.0372 H   0  0  0  0  0  0  0  0  0  0  0  0
   -9.6706   21.5504  -31.0159 H   0  0  0  0  0  0  0  0  0  0  0  0
  -10.3389   19.3695  -32.0149 H   0  0  0  0  0  0  0  0  0  0  0  0
   -8.6477   17.9347  -33.1325 H   0  0  0  0  0  0  0  0  0  0  0  0
   -6.8470   16.6286  -33.8552 H   0  0  0  0  0  0  0  0  0  0  0  0
   -7.2699   17.9248  -35.0246 H   0  0  0  0  0  0  0  0  0  0  0  0
   -5.6180   17.2192  -35.0246 H   0  0  0  0  0  0  0  0  0  0  0  0
   -4.0256   16.9314  -34.1856 H   0  0  0  0  0  0  0  0  0  0  0  0
   -1.6106   17.3538  -33.8262 H   0  0  0  0  0  0  0  0  0  0  0  0
   -0.8621   19.3275  -32.5267 H   0  0  0  0  0  0  0  0  0  0  0  0
   -1.8919   21.3539  -29.2413 H   0  0  0  0  0  0  0  0  0  0  0  0
   -3.6486   21.4160  -29.6111 H   0  0  0  0  0  0  0  0  0  0  0  0
   -2.7859   19.8405  -29.6111 H   0  0  0  0  0  0  0  0  0  0  0  0
   -0.7500   22.2592  -30.6988 H   0  0  0  0  0  0  0  0  0  0  0  0
   -0.5306   21.3111  -32.2086 H   0  0  0  0  0  0  0  0  0  0  0  0
   -1.5782   22.7703  -32.2086 H   0  0  0  0  0  0  0  0  0  0  0  0
  1  2  1  0
  2  3  1  0
  3  4  1  0
  4  5  1  0
  3  6  1  0
  6  7  1  0
  7  8  1  0
  8  9  1  0
  9 10  1  0
 10 11  1  0
 11 12  1  0
 12 13  2  0
 13 14  1  0
 14 15  2  0
 15 16  1  0
 16 17  2  0
 17 18  1  0
 18 19  2  0
 19 20  1  0
 19 21  1  0
 21 22  2  0
 22 23  1  0
 23 24  2  0
 24 25  1  0
 25 26  1  0
 26 27  1  0
 26 28  1  0
 25 29  2  0
 29 12  1  0
 18 13  1  0
 29 21  1  0
  1 30  1  0
  1 31  1  0
  1 32  1  0
  2 33  1  0
  2 34  1  0
  4 35  1  0
  4 36  1  0
  5 37  1  0
  5 38  1  0
  5 39  1  0
  6 40  1  0
  6 41  1  0
  7 42  1  0
  7 43  1  0
  9 44  1  0
  9 45  1  0
 10 46  1  0
 10 47  1  0
 11 48  1  0
 14 49  1  0
 15 50  1  0
 16 51  1  0
 17 52  1  0
 20 53  1  0
 20 54  1  0
 20 55  1  0
 22 56  1  0
 23 57  1  0
 24 58  1  0
 27 59  1  0
 27 60  1  0
 27 61  1  0
 28 62  1  0
 28 63  1  0
 28 64  1  0
M  CHG  1  19   1
M  END
>  <UniqueID>  (13) 
13

>  <SMILES>  (13) 
CCN(CC)CCOCCNc1c2ccccc2[n+](C)c2cccc(N(C)C)c12

>  <Energy>  (13) 
94.61680011863888

>  <Genealogy>  (13) 
CCN(CC)CCOCCNc1c2ccccc2[n+](C)c2cccc(N(C)C)c12 (3D coordinates assigned)
CCN(CC)CCOCCNc1c2ccccc2[n+](C)c2cccc(N(C)C)c12 (optimized conformer: 94.61680011863888 kcal/mol)

>  <smiles>  (13) 
CCN(CC)CCOCCNc1c2ccccc2[n+](C)c2cccc(N(C)C)c12

>  <score_type>  (13) 
oracle

>  <origin>  (13) 
adg

>  <m_score__min__energy>  (13) 
-7.5

>  <m_primary>  (13) 
energy

$$$$
14:0
     RDKit          3D

 61 64  0  0  0  0  0  0  0  0999 V2000
   -2.7190   20.1060  -27.4450 C   0  0  0  0  0  0  0  0  0  0  0  0
   -2.4830   20.4350  -28.9400 C   0  0  0  0  0  0  0  0  0  0  0  0
   -2.8460   21.8390  -29.3910 N   0  0  0  0  0  0  0  0  0  0  0  0
   -3.3560   22.5760  -28.1750 C   0  0  0  0  0  0  0  0  0  0  0  0
   -4.2260   23.8260  -28.3920 C   0  0  0  0  0  0  0  0  0  0  0  0
   -1.5930   22.4260  -29.9990 C   0  0  0  0  0  0  0  0  0  0  0  0
   -0.8060   21.5840  -31.0170 C   0  0  0  0  0  0  0  0  0  0  0  0
   -3.9230   21.6110  -30.4290 C   0  0  0  0  0  0  0  0  0  0  0  0
   -4.1110   22.6620  -31.5690 C   0  0  0  0  0  0  0  0  0  0  0  0
   -4.4390   22.0800  -32.8900 N   0  0  0  0  0  0  0  0  0  0  0  0
   -5.5460   21.1380  -32.8280 C   0  0  0  0  0  0  0  0  0  0  0  0
   -5.3600   19.7710  -33.1170 C   0  0  0  0  0  0  0  0  0  0  0  0
   -6.3750   18.8490  -32.9040 C   0  0  0  0  0  0  0  0  0  0  0  0
   -7.5590   19.2030  -32.3150 N   0  0  0  0  0  0  0  0  0  0  0  0
   -8.4460   18.1630  -31.7670 C   0  0  0  0  0  0  0  0  0  0  0  0
   -7.8630   20.5470  -32.1950 C   0  0  0  0  0  0  0  0  0  0  0  0
   -9.1660   20.9730  -31.8360 C   0  0  0  0  0  0  0  0  0  0  0  0
   -9.4730   22.3280  -31.7200 C   0  0  0  0  0  0  0  0  0  0  0  0
   -8.5040   23.2910  -31.9800 C   0  0  0  0  0  0  0  0  0  0  0  0
   -7.2150   22.9100  -32.3510 C   0  0  0  0  0  0  0  0  0  0  0  0
   -6.8620   21.5440  -32.4570 C   0  0  0  0  0  0  0  0  0  0  0  0
   -5.9180   17.5220  -33.3800 C   0  0  0  0  0  0  0  0  0  0  0  0
   -6.6160   16.3250  -33.6060 C   0  0  0  0  0  0  0  0  0  0  0  0
   -5.9340   15.2460  -34.1910 C   0  0  0  0  0  0  0  0  0  0  0  0
   -4.5900   15.3840  -34.5930 C   0  0  0  0  0  0  0  0  0  0  0  0
   -3.9230   16.6060  -34.4250 C   0  0  0  0  0  0  0  0  0  0  0  0
   -4.6110   17.6550  -33.8170 C   0  0  0  0  0  0  0  0  0  0  0  0
   -4.2120   19.0450  -33.6840 C   0  0  0  0  0  0  0  0  0  0  0  0
   -3.1250   19.5260  -34.0990 O   0  0  0  0  0  0  0  0  0  0  0  0
   -2.1914   20.8415  -26.8200 H   0  0  0  0  0  0  0  0  0  0  0  0
   -3.7964   20.1449  -27.2266 H   0  0  0  0  0  0  0  0  0  0  0  0
   -2.3368   19.0979  -27.2266 H   0  0  0  0  0  0  0  0  0  0  0  0
   -1.4143   20.2822  -29.1510 H   0  0  0  0  0  0  0  0  0  0  0  0
   -3.1587   19.7675  -29.4949 H   0  0  0  0  0  0  0  0  0  0  0  0
   -3.9522   21.8621  -27.5877 H   0  0  0  0  0  0  0  0  0  0  0  0
   -2.4469   22.9589  -27.6884 H   0  0  0  0  0  0  0  0  0  0  0  0
   -4.5169   24.2440  -27.4170 H   0  0  0  0  0  0  0  0  0  0  0  0
   -3.6544   24.5770  -28.9571 H   0  0  0  0  0  0  0  0  0  0  0  0
   -5.1288   23.5508  -28.9571 H   0  0  0  0  0  0  0  0  0  0  0  0
   -1.8839   23.3584  -30.5050 H   0  0  0  0  0  0  0  0  0  0  0  0
   -0.9046   22.5305  -29.1474 H   0  0  0  0  0  0  0  0  0  0  0  0
   -0.1495   20.8817  -30.4824 H   0  0  0  0  0  0  0  0  0  0  0  0
   -1.5089   21.0207  -31.6484 H   0  0  0  0  0  0  0  0  0  0  0  0
   -0.1966   22.2473  -31.6484 H   0  0  0  0  0  0  0  0  0  0  0  0
   -3.7060   20.6469  -30.9121 H   0  0  0  0  0  0  0  0  0  0  0  0
   -4.8595   21.6738  -29.8554 H   0  0  0  0  0  0  0  0  0  0  0  0
   -4.9270   23.3407  -31.2800 H   0  0  0  0  0  0  0  0  0  0  0  0
   -3.1455   23.1763  -31.6838 H   0  0  0  0  0  0  0  0  0  0  0  0
   -3.5800   21.6530  -33.2870 H   0  0  0  0  0  0  0  0  0  0  0  0
   -4.6780   22.8470  -33.5590 H   0  0  0  0  0  0  0  0  0  0  0  0
   -8.4164   18.1977  -30.6679 H   0  0  0  0  0  0  0  0  0  0  0  0
   -9.4754   18.3401  -32.1119 H   0  0  0  0  0  0  0  0  0  0  0  0
   -8.1087   17.1744  -32.1119 H   0  0  0  0  0  0  0  0  0  0  0  0
   -9.9476   20.2227  -31.6458 H   0  0  0  0  0  0  0  0  0  0  0  0
  -10.4858   22.6366  -31.4216 H   0  0  0  0  0  0  0  0  0  0  0  0
   -8.7556   24.3583  -31.8926 H   0  0  0  0  0  0  0  0  0  0  0  0
   -6.4617   23.6826  -32.5644 H   0  0  0  0  0  0  0  0  0  0  0  0
   -7.6769   16.2342  -33.3300 H   0  0  0  0  0  0  0  0  0  0  0  0
   -6.4520   14.2866  -34.3366 H   0  0  0  0  0  0  0  0  0  0  0  0
   -4.0619   14.5291  -35.0406 H   0  0  0  0  0  0  0  0  0  0  0  0
   -2.8843   16.7335  -34.7640 H   0  0  0  0  0  0  0  0  0  0  0  0
  1  2  1  0
  2  3  1  0
  3  4  1  0
  4  5  1  0
  3  6  1  0
  6  7  1  0
  3  8  1  0
  8  9  1  0
  9 10  1  0
 10 11  1  0
 11 12  2  0
 12 13  1  0
 13 14  2  0
 14 15  1  0
 14 16  1  0
 16 17  2  0
 17 18  1  0
 18 19  2  0
 19 20  1  0
 20 21  2  0
 13 22  1  0
 22 23  2  0
 23 24  1  0
 24 25  2  0
 25 26  1  0
 26 27  2  0
 27 28  1  0
 28 29  2  0
 21 11  1  0
 27 22  1  0
 28 12  1  0
 21 16  1  0
  1 30  1  0
  1 31  1  0
  1 32  1  0
  2 33  1  0
  2 34  1  0
  4 35  1  0
  4 36  1  0
  5 37  1  0
  5 38  1  0
  5 39  1  0
  6 40  1  0
  6 41  1  0
  7 42  1  0
  7 43  1  0
  7 44  1  0
  8 45  1  0
  8 46  1  0
  9 47  1  0
  9 48  1  0
 10 49  1  0
 10 50  1  0
 15 51  1  0
 15 52  1  0
 15 53  1  0
 17 54  1  0
 18 55  1  0
 19 56  1  0
 20 57  1  0
 23 58  1  0
 24 59  1  0
 25 60  1  0
 26 61  1  0
M  CHG  3   3   1  10   1  14   1
M  END
>  <UniqueID>  (14) 
14

>  <SMILES>  (14) 
CC[N+](CC)(CC)CC[NH2+]c1c2c([n+](C)c3ccccc13)-c1ccccc1C2=O

>  <Energy>  (14) 
156.00646128750952

>  <Genealogy>  (14) 
CC[N+](CC)(CC)CC[NH2+]c1c2c([n+](C)c3ccccc13)-c1ccccc1C2=O (protonated)
CC[N+](CC)(CC)CC[NH2+]c1c2c([n+](C)c3ccccc13)-c1ccccc1C2=O (3D coordinates assigned)
CC[N+](CC)(CC)CC[NH2+]c1c2c([n+](C)c3ccccc13)-c1ccccc1C2=O (nonaromatic ring conformer: 156.00646128750952 kcal/mol)

>  <smiles>  (14) 
CC[N+](CC)(CC)CCNc1c2c([n+](C)c3ccccc13)-c1ccccc1C2=O

>  <score_type>  (14) 
oracle

>  <origin>  (14) 
adg

>  <m_score__min__energy>  (14) 
-7.3300000000000001

>  <m_primary>  (14) 
energy

$$$$
15:0
     RDKit          3D

 39 41  0  0  0  0  0  0  0  0999 V2000
   -1.1550   25.8280  -28.0470 C   0  0  0  0  0  0  0  0  0  0  0  0
   -1.2400   24.5560  -28.8870 C   0  0  0  0  0  0  0  0  0  0  0  0
   -2.5310   23.7870  -28.5940 C   0  0  0  0  0  0  0  0  0  0  0  0
   -3.6160   24.2150  -29.5310 C   0  0  0  0  0  0  0  0  0  0  0  0
   -4.8850   23.6820  -29.6110 C   0  0  0  0  0  0  0  0  0  0  0  0
   -5.4650   24.3980  -30.6360 C   0  0  0  0  0  0  0  0  0  0  0  0
   -6.8350   24.1760  -31.1980 C   0  0  0  0  0  0  0  0  0  0  0  0
   -6.7750   23.3220  -32.3840 N   0  0  0  0  0  0  0  0  0  0  0  0
   -7.0970   21.9190  -32.3640 C   0  0  0  0  0  0  0  0  0  0  0  0
   -8.3480   21.5050  -31.8530 C   0  0  0  0  0  0  0  0  0  0  0  0
   -8.6920   20.1460  -31.8200 C   0  0  0  0  0  0  0  0  0  0  0  0
   -7.7790   19.2090  -32.3010 C   0  0  0  0  0  0  0  0  0  0  0  0
   -6.5630   19.5960  -32.7990 C   0  0  0  0  0  0  0  0  0  0  0  0
   -6.1940   20.9430  -32.8440 C   0  0  0  0  0  0  0  0  0  0  0  0
   -5.7540   18.4430  -33.2530 C   0  0  0  0  0  0  0  0  0  0  0  0
   -6.6490   17.2210  -32.9690 C   0  0  0  0  0  0  0  0  0  0  0  0
   -7.9600   17.7410  -32.3490 C   0  0  0  0  0  0  0  0  0  0  0  0
   -4.5780   25.2800  -31.1380 N   0  0  0  0  0  0  0  0  0  0  0  0
   -3.4840   25.1440  -30.4490 O   0  0  0  0  0  0  0  0  0  0  0  0
   -1.1726   25.5641  -26.9793 H   0  0  0  0  0  0  0  0  0  0  0  0
   -0.2194   26.3583  -28.2783 H   0  0  0  0  0  0  0  0  0  0  0  0
   -2.0117   26.4781  -28.2783 H   0  0  0  0  0  0  0  0  0  0  0  0
   -1.2174   24.8272  -29.9528 H   0  0  0  0  0  0  0  0  0  0  0  0
   -0.3848   23.9123  -28.6335 H   0  0  0  0  0  0  0  0  0  0  0  0
   -2.3477   22.7096  -28.7193 H   0  0  0  0  0  0  0  0  0  0  0  0
   -2.8464   23.9987  -27.5617 H   0  0  0  0  0  0  0  0  0  0  0  0
   -5.3278   22.8790  -29.0034 H   0  0  0  0  0  0  0  0  0  0  0  0
   -7.4638   23.6922  -30.4361 H   0  0  0  0  0  0  0  0  0  0  0  0
   -7.2620   25.1486  -31.4837 H   0  0  0  0  0  0  0  0  0  0  0  0
   -6.4830   23.7450  -33.2970 H   0  0  0  0  0  0  0  0  0  0  0  0
   -9.0586   22.2561  -31.4776 H   0  0  0  0  0  0  0  0  0  0  0  0
   -9.6656   19.8249  -31.4214 H   0  0  0  0  0  0  0  0  0  0  0  0
   -5.2146   21.2398  -33.2473 H   0  0  0  0  0  0  0  0  0  0  0  0
   -5.5300   18.5218  -34.3271 H   0  0  0  0  0  0  0  0  0  0  0  0
   -4.7817   18.3821  -32.7422 H   0  0  0  0  0  0  0  0  0  0  0  0
   -6.8630   16.6863  -33.9062 H   0  0  0  0  0  0  0  0  0  0  0  0
   -6.1460   16.5236  -32.2830 H   0  0  0  0  0  0  0  0  0  0  0  0
   -8.8222   17.4742  -32.9779 H   0  0  0  0  0  0  0  0  0  0  0  0
   -8.1594   17.3075  -31.3579 H   0  0  0  0  0  0  0  0  0  0  0  0
  1  2  1  0
  2  3  1  0
  3  4  1  0
  4  5  2  0
  5  6  1  0
  6  7  1  0
  7  8  1  0
  8  9  1  0
  9 10  2  0
 10 11  1  0
 11 12  2  0
 12 13  1  0
 13 14  2  0
 13 15  1  0
 15 16  1  0
 16 17  1  0
  6 18  2  0
 18 19  1  0
 19  4  1  0
 14  9  1  0
 17 12  1  0
  1 20  1  0
  1 21  1  0
  1 22  1  0
  2 23  1  0
  2 24  1  0
  3 25  1  0
  3 26  1  0
  5 27  1  0
  7 28  1  0
  7 29  1  0
  8 30  1  0
 10 31  1  0
 11 32  1  0
 14 33  1  0
 15 34  1  0
 15 35  1  0
 16 36  1  0
 16 37  1  0
 17 38  1  0
 17 39  1  0
M  END
>  <UniqueID>  (15) 
15

>  <SMILES>  (15) 
CCCc1cc(CNc2ccc3c(c2)CCC3)no1

>  <Energy>  (15) 
69.9414680632017

>  <Genealogy>  (15) 
CCCc1cc(CNc2ccc3c(c2)CCC3)no1 (3D coordinates assigned)
CCCc1cc(CNc2ccc3c(c2)CCC3)no1 (nonaromatic ring conformer: 69.9414680632017 kcal/mol)

>  <smiles>  (15) 
CCCc1cc(CNc2ccc3c(c2)CCC3)no1

>  <score_type>  (15) 
oracle

>  <origin>  (15) 
adg

>  <m_score__min__energy>  (15) 
-9.3699999999999992

>  <m_primary>  (15) 
energy

$$$$
16:0
     RDKit          3D

 53 55  0  0  0  0  0  0  0  0999 V2000
    0.9780   24.1120  -27.2550 C   0  0  0  0  0  0  0  0  0  0  0  0
    0.2640   24.0960  -28.4870 O   0  0  0  0  0  0  0  0  0  0  0  0
   -1.1340   24.0660  -28.5900 C   0  0  0  0  0  0  0  0  0  0  0  0
   -1.8960   24.5860  -27.5180 C   0  0  0  0  0  0  0  0  0  0  0  0
   -3.3010   24.5750  -27.5590 C   0  0  0  0  0  0  0  0  0  0  0  0
   -3.9160   24.0420  -28.6900 C   0  0  0  0  0  0  0  0  0  0  0  0
   -5.2350   23.9090  -28.9080 N   0  0  0  0  0  0  0  0  0  0  0  0
   -5.3570   23.3200  -30.1220 C   0  0  0  0  0  0  0  0  0  0  0  0
   -6.6650   22.9780  -30.7120 C   0  0  0  0  0  0  0  0  0  0  0  0
   -7.1820   23.7070  -31.7950 C   0  0  0  0  0  0  0  0  0  0  0  0
   -8.4380   23.3900  -32.3230 C   0  0  0  0  0  0  0  0  0  0  0  0
   -9.1940   22.3600  -31.7620 C   0  0  0  0  0  0  0  0  0  0  0  0
   -8.6970   21.6430  -30.6690 C   0  0  0  0  0  0  0  0  0  0  0  0
   -7.4410   21.9550  -30.1410 C   0  0  0  0  0  0  0  0  0  0  0  0
   -4.0920   23.0770  -30.6780 C   0  0  0  0  0  0  0  0  0  0  0  0
   -3.7530   22.2800  -31.9100 C   0  0  0  0  0  0  0  0  0  0  0  0
   -4.5820   20.9920  -31.9940 C   0  0  0  0  0  0  0  0  0  0  0  0
   -5.1390   20.7960  -33.3430 N   0  0  0  0  0  0  0  0  0  0  0  0
   -6.5860   20.5420  -33.2950 C   0  0  0  0  0  0  0  0  0  0  0  0
   -6.8560   19.0790  -32.9000 C   0  0  0  0  0  0  0  0  0  0  0  0
   -5.7130   18.1870  -33.2110 N   0  0  0  0  0  0  0  0  0  0  0  0
   -5.7300   17.7500  -34.6190 C   0  0  0  0  0  0  0  0  0  0  0  0
   -5.7460   17.0030  -32.3320 C   0  0  0  0  0  0  0  0  0  0  0  0
   -3.1900   23.5450  -29.7390 C   0  0  0  0  0  0  0  0  0  0  0  0
   -1.7940   23.5320  -29.7240 C   0  0  0  0  0  0  0  0  0  0  0  0
    0.2648   24.0960  -26.4177 H   0  0  0  0  0  0  0  0  0  0  0  0
    1.6305   23.2282  -27.1978 H   0  0  0  0  0  0  0  0  0  0  0  0
    1.5902   25.0241  -27.1978 H   0  0  0  0  0  0  0  0  0  0  0  0
   -1.3822   25.0048  -26.6402 H   0  0  0  0  0  0  0  0  0  0  0  0
   -3.8961   24.9745  -26.7246 H   0  0  0  0  0  0  0  0  0  0  0  0
   -6.0070   24.1980  -28.2670 H   0  0  0  0  0  0  0  0  0  0  0  0
   -6.5970   24.5307  -32.2300 H   0  0  0  0  0  0  0  0  0  0  0  0
   -8.8305   23.9538  -33.1821 H   0  0  0  0  0  0  0  0  0  0  0  0
  -10.1810   22.1120  -32.1795 H   0  0  0  0  0  0  0  0  0  0  0  0
   -9.2946   20.8334  -30.2247 H   0  0  0  0  0  0  0  0  0  0  0  0
   -7.0580   21.3968  -29.2740 H   0  0  0  0  0  0  0  0  0  0  0  0
   -3.9561   22.8941  -32.7997 H   0  0  0  0  0  0  0  0  0  0  0  0
   -2.6898   22.0026  -31.8591 H   0  0  0  0  0  0  0  0  0  0  0  0
   -3.9381   20.1356  -31.7452 H   0  0  0  0  0  0  0  0  0  0  0  0
   -5.4180   21.0726  -31.2837 H   0  0  0  0  0  0  0  0  0  0  0  0
   -4.9890   21.6860  -33.8730 H   0  0  0  0  0  0  0  0  0  0  0  0
   -7.0477   21.2099  -32.5529 H   0  0  0  0  0  0  0  0  0  0  0  0
   -7.0167   20.7307  -34.2894 H   0  0  0  0  0  0  0  0  0  0  0  0
   -7.0530   19.0361  -31.8186 H   0  0  0  0  0  0  0  0  0  0  0  0
   -7.7211   18.7295  -33.4827 H   0  0  0  0  0  0  0  0  0  0  0  0
   -4.8130   18.6920  -33.0290 H   0  0  0  0  0  0  0  0  0  0  0  0
   -5.7727   16.6517  -34.6615 H   0  0  0  0  0  0  0  0  0  0  0  0
   -6.6124   18.1711  -35.1230 H   0  0  0  0  0  0  0  0  0  0  0  0
   -4.8175   18.1012  -35.1230 H   0  0  0  0  0  0  0  0  0  0  0  0
   -5.7370   17.3265  -31.2807 H   0  0  0  0  0  0  0  0  0  0  0  0
   -6.6606   16.4248  -32.5299 H   0  0  0  0  0  0  0  0  0  0  0  0
   -4.8650   16.3747  -32.5299 H   0  0  0  0  0  0  0  0  0  0  0  0
   -1.2230   23.1189  -30.5686 H   0  0  0  0  0  0  0  0  0  0  0  0
  1  2  1  0
  2  3  1  0
  3  4  2  0
  4  5  1  0
  5  6  2  0
  6  7  1  0
  7  8  1  0
  8  9  1  0
  9 10  2  0
 10 11  1  0
 11 12  2  0
 12 13  1  0
 13 14  2  0
  8 15  2  0
 15 16  1  0
 16 17  1  0
 17 18  1  0
 18 19  1  0
 19 20  1  0
 20 21  1  0
 21 22  1  0
 21 23  1  0
 15 24  1  0
 24 25  2  0
 25  3  1  0
 24  6  1  0
 14  9  1  0
  1 26  1  0
  1 27  1  0
  1 28  1  0
  4 29  1  0
  5 30  1  0
  7 31  1  0
 10 32  1  0
 11 33  1  0
 12 34  1  0
 13 35  1  0
 14 36  1  0
 16 37  1  0
 16 38  1  0
 17 39  1  0
 17 40  1  0
 18 41  1  0
 19 42  1  0
 19 43  1  0
 20 44  1  0
 20 45  1  0
 21 46  1  0
 22 47  1  0
 22 48  1  0
 22 49  1  0
 23 50  1  0
 23 51  1  0
 23 52  1  0
 25 53  1  0
M  CHG  1  21   1
M  END
>  <UniqueID>  (16) 
16

>  <SMILES>  (16) 
COc1ccc2[nH]c(-c3ccccc3)c(CCNCC[NH+](C)C)c2c1

>  <Energy>  (16) 
84.54058242488128

>  <Genealogy>  (16) 
COc1ccc2[nH]c(-c3ccccc3)c(CCNCC[NH+](C)C)c2c1 (protonated)
COc1ccc2[nH]c(-c3ccccc3)c(CCNCC[NH+](C)C)c2c1 (3D coordinates assigned)
COc1ccc2[nH]c(-c3ccccc3)c(CCNCC[NH+](C)C)c2c1 (optimized conformer: 84.54058242488128 kcal/mol)

>  <smiles>  (16) 
COc1ccc2[nH]c(-c3ccccc3)c(CCNCCN(C)C)c2c1

>  <score_type>  (16) 
oracle

>  <origin>  (16) 
adg

>  <m_score__min__energy>  (16) 
-7.75

>  <m_primary>  (16) 
energy

$$$$
17:0
     RDKit          3D

 57 59  0  0  0  0  0  0  0  0999 V2000
   -1.8510   26.1400  -25.2110 C   0  0  0  0  0  0  0  0  0  0  0  0
   -2.2670   25.2580  -26.3880 C   0  0  0  0  0  0  0  0  0  0  0  0
   -3.7680   24.9240  -26.3830 C   0  0  0  0  0  0  0  0  0  0  0  0
   -4.1700   23.9740  -27.5250 C   0  0  0  0  0  0  0  0  0  0  0  0
   -5.0510   24.6580  -28.4870 N   0  0  0  0  0  0  0  0  0  0  0  0
   -4.9950   24.0500  -29.8310 C   0  0  0  0  0  0  0  0  0  0  0  0
   -3.5600   23.7550  -30.2900 C   0  0  0  0  0  0  0  0  0  0  0  0
   -3.5810   23.1730  -31.5800 O   0  0  0  0  0  0  0  0  0  0  0  0
   -2.6740   22.0900  -31.6630 C   0  0  0  0  0  0  0  0  0  0  0  0
   -3.1320   21.1060  -32.7440 C   0  0  0  0  0  0  0  0  0  0  0  0
   -4.4190   21.5050  -33.3090 N   0  0  0  0  0  0  0  0  0  0  0  0
   -5.5960   20.7370  -33.0230 C   0  0  0  0  0  0  0  0  0  0  0  0
   -6.7420   21.3700  -32.5120 C   0  0  0  0  0  0  0  0  0  0  0  0
   -6.7580   22.7640  -32.2850 C   0  0  0  0  0  0  0  0  0  0  0  0
   -7.9140   23.3980  -31.8460 C   0  0  0  0  0  0  0  0  0  0  0  0
   -9.0730   22.6610  -31.6340 C   0  0  0  0  0  0  0  0  0  0  0  0
   -9.0770   21.2810  -31.8320 C   0  0  0  0  0  0  0  0  0  0  0  0
   -7.9040   20.5970  -32.2440 C   0  0  0  0  0  0  0  0  0  0  0  0
   -7.8790   19.2230  -32.4090 N   0  0  0  0  0  0  0  0  0  0  0  0
   -8.9790   18.3960  -31.8670 C   0  0  0  0  0  0  0  0  0  0  0  0
   -6.8140   18.6220  -33.0570 C   0  0  0  0  0  0  0  0  0  0  0  0
   -6.8660   17.2720  -33.4850 C   0  0  0  0  0  0  0  0  0  0  0  0
   -5.7660   16.6670  -34.0930 C   0  0  0  0  0  0  0  0  0  0  0  0
   -4.5910   17.3840  -34.2960 C   0  0  0  0  0  0  0  0  0  0  0  0
   -4.5230   18.7240  -33.9240 C   0  0  0  0  0  0  0  0  0  0  0  0
   -5.6360   19.3650  -33.3320 C   0  0  0  0  0  0  0  0  0  0  0  0
   -2.0919   25.6293  -24.2670 H   0  0  0  0  0  0  0  0  0  0  0  0
   -0.7685   26.3296  -25.2595 H   0  0  0  0  0  0  0  0  0  0  0  0
   -2.3932   27.0959  -25.2595 H   0  0  0  0  0  0  0  0  0  0  0  0
   -2.0276   25.7849  -27.3235 H   0  0  0  0  0  0  0  0  0  0  0  0
   -1.7170   24.3094  -26.3008 H   0  0  0  0  0  0  0  0  0  0  0  0
   -4.0190   24.4472  -25.4240 H   0  0  0  0  0  0  0  0  0  0  0  0
   -4.3179   25.8659  -26.5259 H   0  0  0  0  0  0  0  0  0  0  0  0
   -3.2635   23.6319  -28.0458 H   0  0  0  0  0  0  0  0  0  0  0  0
   -4.7115   23.1172  -27.0975 H   0  0  0  0  0  0  0  0  0  0  0  0
   -6.0370   24.6650  -28.1340 H   0  0  0  0  0  0  0  0  0  0  0  0
   -4.7340   25.6530  -28.5760 H   0  0  0  0  0  0  0  0  0  0  0  0
   -5.5597   23.1062  -29.8138 H   0  0  0  0  0  0  0  0  0  0  0  0
   -5.4282   24.7713  -30.5396 H   0  0  0  0  0  0  0  0  0  0  0  0
   -2.9862   24.6930  -30.3215 H   0  0  0  0  0  0  0  0  0  0  0  0
   -3.0882   23.0565  -29.5833 H   0  0  0  0  0  0  0  0  0  0  0  0
   -1.6738   22.4709  -31.9170 H   0  0  0  0  0  0  0  0  0  0  0  0
   -2.6401   21.5717  -30.6933 H   0  0  0  0  0  0  0  0  0  0  0  0
   -2.3804   21.0791  -33.5467 H   0  0  0  0  0  0  0  0  0  0  0  0
   -3.2451   20.1123  -32.2859 H   0  0  0  0  0  0  0  0  0  0  0  0
   -4.4680   22.2220  -34.0650 H   0  0  0  0  0  0  0  0  0  0  0  0
   -5.8458   23.3540  -32.4575 H   0  0  0  0  0  0  0  0  0  0  0  0
   -7.9117   24.4832  -31.6663 H   0  0  0  0  0  0  0  0  0  0  0  0
   -9.9924   23.1694  -31.3081 H   0  0  0  0  0  0  0  0  0  0  0  0
  -10.0044   20.7132  -31.6662 H   0  0  0  0  0  0  0  0  0  0  0  0
   -8.9479   18.4194  -30.7677 H   0  0  0  0  0  0  0  0  0  0  0  0
   -9.9433   18.7947  -32.2151 H   0  0  0  0  0  0  0  0  0  0  0  0
   -8.8639   17.3589  -32.2151 H   0  0  0  0  0  0  0  0  0  0  0  0
   -7.7886   16.6920  -33.3354 H   0  0  0  0  0  0  0  0  0  0  0  0
   -5.8279   15.6167  -34.4139 H   0  0  0  0  0  0  0  0  0  0  0  0
   -3.7173   16.8931  -34.7496 H   0  0  0  0  0  0  0  0  0  0  0  0
   -3.5946   19.2895  -34.0922 H   0  0  0  0  0  0  0  0  0  0  0  0
  1  2  1  0
  2  3  1  0
  3  4  1  0
  4  5  1  0
  5  6  1  0
  6  7  1  0
  7  8  1  0
  8  9  1  0
  9 10  1  0
 10 11  1  0
 11 12  1  0
 12 13  2  0
 13 14  1  0
 14 15  2  0
 15 16  1  0
 16 17  2  0
 17 18  1  0
 18 19  2  0
 19 20  1  0
 19 21  1  0
 21 22  2  0
 22 23  1  0
 23 24  2  0
 24 25  1  0
 25 26  2  0
 26 12  1  0
 18 13  1  0
 26 21  1  0
  1 27  1  0
  1 28  1  0
  1 29  1  0
  2 30  1  0
  2 31  1  0
  3 32  1  0
  3 33  1  0
  4 34  1  0
  4 35  1  0
  5 36  1  0
  5 37  1  0
  6 38  1  0
  6 39  1  0
  7 40  1  0
  7 41  1  0
  9 42  1  0
  9 43  1  0
 10 44  1  0
 10 45  1  0
 11 46  1  0
 14 47  1  0
 15 48  1  0
 16 49  1  0
 17 50  1  0
 20 51  1  0
 20 52  1  0
 20 53  1  0
 22 54  1  0
 23 55  1  0
 24 56  1  0
 25 57  1  0
M  CHG  2   5   1  19   1
M  END
>  <UniqueID>  (17) 
17

>  <SMILES>  (17) 
CCCC[NH2+]CCOCCNc1c2ccccc2[n+](C)c2ccccc12

>  <Energy>  (17) 
76.67783188927658

>  <Genealogy>  (17) 
CCCC[NH2+]CCOCCNc1c2ccccc2[n+](C)c2ccccc12 (protonated)
CCCC[NH2+]CCOCCNc1c2ccccc2[n+](C)c2ccccc12 (3D coordinates assigned)
CCCC[NH2+]CCOCCNc1c2ccccc2[n+](C)c2ccccc12 (optimized conformer: 76.67783188927658 kcal/mol)

>  <smiles>  (17) 
CCCCNCCOCCNc1c2ccccc2[n+](C)c2ccccc12

>  <score_type>  (17) 
oracle

>  <origin>  (17) 
adg

>  <m_score__min__energy>  (17) 
-8.5700000000000003

>  <m_primary>  (17) 
energy

$$$$
18:0
     RDKit          3D

 74 76  0  0  0  0  0  0  0  0999 V2000
   -3.4750   18.9100  -26.4330 C   0  0  0  0  0  0  0  0  0  0  0  0
   -2.0200   18.5580  -26.7300 C   0  0  0  0  0  0  0  0  0  0  0  0
   -1.3750   19.6430  -27.5100 N   0  0  0  0  0  0  0  0  0  0  0  0
   -1.5110   20.9340  -26.8020 C   0  0  0  0  0  0  0  0  0  0  0  0
    0.0570   19.3360  -27.7410 C   0  0  0  0  0  0  0  0  0  0  0  0
    0.3410   17.8230  -27.6770 C   0  0  0  0  0  0  0  0  0  0  0  0
    0.1080   17.2410  -28.9500 O   0  0  0  0  0  0  0  0  0  0  0  0
    0.7240   17.9890  -29.9860 C   0  0  0  0  0  0  0  0  0  0  0  0
   -0.1520   18.0530  -31.2510 C   0  0  0  0  0  0  0  0  0  0  0  0
   -1.0060   19.1810  -31.2330 O   0  0  0  0  0  0  0  0  0  0  0  0
   -0.2700   20.3740  -31.0500 C   0  0  0  0  0  0  0  0  0  0  0  0
   -0.2060   21.1270  -32.3730 C   0  0  0  0  0  0  0  0  0  0  0  0
   -1.4670   21.7090  -32.6350 O   0  0  0  0  0  0  0  0  0  0  0  0
   -2.0110   21.1550  -33.8140 C   0  0  0  0  0  0  0  0  0  0  0  0
   -3.2220   20.2880  -33.4420 C   0  0  0  0  0  0  0  0  0  0  0  0
   -3.3490   20.0970  -31.9860 N   0  0  0  0  0  0  0  0  0  0  0  0
   -4.6740   20.4740  -31.4960 C   0  0  0  0  0  0  0  0  0  0  0  0
   -5.7890   19.6550  -31.8380 C   0  0  0  0  0  0  0  0  0  0  0  0
   -5.6150   18.3320  -32.3240 C   0  0  0  0  0  0  0  0  0  0  0  0
   -6.6960   17.5710  -32.7640 C   0  0  0  0  0  0  0  0  0  0  0  0
   -7.9750   18.1000  -32.7280 C   0  0  0  0  0  0  0  0  0  0  0  0
   -8.1890   19.3800  -32.2200 C   0  0  0  0  0  0  0  0  0  0  0  0
   -7.1120   20.1730  -31.7360 C   0  0  0  0  0  0  0  0  0  0  0  0
   -7.3250   21.4390  -31.2380 N   0  0  0  0  0  0  0  0  0  0  0  0
   -8.7010   21.8750  -30.9000 C   0  0  0  0  0  0  0  0  0  0  0  0
   -6.2580   22.2860  -31.0120 C   0  0  0  0  0  0  0  0  0  0  0  0
   -6.4570   23.6820  -30.8690 C   0  0  0  0  0  0  0  0  0  0  0  0
   -5.4010   24.5390  -30.5740 C   0  0  0  0  0  0  0  0  0  0  0  0
   -5.6330   26.0180  -30.4560 C   0  0  0  0  0  0  0  0  0  0  0  0
   -4.1540   24.0040  -30.2790 C   0  0  0  0  0  0  0  0  0  0  0  0
   -3.9200   22.6250  -30.3820 C   0  0  0  0  0  0  0  0  0  0  0  0
   -2.6580   22.1300  -29.7130 C   0  0  0  0  0  0  0  0  0  0  0  0
   -4.9260   21.7770  -30.9540 C   0  0  0  0  0  0  0  0  0  0  0  0
   -3.6284   18.9471  -25.3444 H   0  0  0  0  0  0  0  0  0  0  0  0
   -3.7115   19.8913  -26.8703 H   0  0  0  0  0  0  0  0  0  0  0  0
   -4.1338   18.1453  -26.8703 H   0  0  0  0  0  0  0  0  0  0  0  0
   -1.4790   18.4221  -25.7819 H   0  0  0  0  0  0  0  0  0  0  0  0
   -1.9902   17.6290  -27.3182 H   0  0  0  0  0  0  0  0  0  0  0  0
   -1.4927   20.7603  -25.7160 H   0  0  0  0  0  0  0  0  0  0  0  0
   -0.6775   21.5951  -27.0817 H   0  0  0  0  0  0  0  0  0  0  0  0
   -2.4639   21.4070  -27.0817 H   0  0  0  0  0  0  0  0  0  0  0  0
    0.3443   19.7095  -28.7350 H   0  0  0  0  0  0  0  0  0  0  0  0
    0.6414   19.8251  -26.9477 H   0  0  0  0  0  0  0  0  0  0  0  0
    1.3890   17.6592  -27.3858 H   0  0  0  0  0  0  0  0  0  0  0  0
   -0.3243   17.3574  -26.9350 H   0  0  0  0  0  0  0  0  0  0  0  0
    0.9035   19.0129  -29.6262 H   0  0  0  0  0  0  0  0  0  0  0  0
    1.6673   17.4891  -30.2511 H   0  0  0  0  0  0  0  0  0  0  0  0
    0.5001   18.1123  -32.1349 H   0  0  0  0  0  0  0  0  0  0  0  0
   -0.7760   17.1478  -31.2852 H   0  0  0  0  0  0  0  0  0  0  0  0
   -0.7652   21.0001  -30.2932 H   0  0  0  0  0  0  0  0  0  0  0  0
    0.7482   20.1334  -30.7104 H   0  0  0  0  0  0  0  0  0  0  0  0
    0.5582   21.9158  -32.3113 H   0  0  0  0  0  0  0  0  0  0  0  0
    0.0567   20.4310  -33.1833 H   0  0  0  0  0  0  0  0  0  0  0  0
   -2.3287   21.9630  -34.4894 H   0  0  0  0  0  0  0  0  0  0  0  0
   -1.2533   20.5397  -34.3212 H   0  0  0  0  0  0  0  0  0  0  0  0
   -4.1343   20.7762  -33.8153 H   0  0  0  0  0  0  0  0  0  0  0  0
   -3.0793   19.2978  -33.8994 H   0  0  0  0  0  0  0  0  0  0  0  0
   -2.5760   20.6270  -31.5600 H   0  0  0  0  0  0  0  0  0  0  0  0
   -3.1370   19.1060  -31.7290 H   0  0  0  0  0  0  0  0  0  0  0  0
   -4.6045   17.8985  -32.3537 H   0  0  0  0  0  0  0  0  0  0  0  0
   -6.5333   16.5501  -33.1399 H   0  0  0  0  0  0  0  0  0  0  0  0
   -8.8241   17.5087  -33.1012 H   0  0  0  0  0  0  0  0  0  0  0  0
   -9.2113   19.7851  -32.1928 H   0  0  0  0  0  0  0  0  0  0  0  0
   -8.8159   21.9114  -29.8066 H   0  0  0  0  0  0  0  0  0  0  0  0
   -8.8827   22.8747  -31.3213 H   0  0  0  0  0  0  0  0  0  0  0  0
   -9.4253   21.1624  -31.3213 H   0  0  0  0  0  0  0  0  0  0  0  0
   -7.4680   24.0970  -30.9939 H   0  0  0  0  0  0  0  0  0  0  0  0
   -5.6770   26.2986  -29.3933 H   0  0  0  0  0  0  0  0  0  0  0  0
   -4.8087   26.5586  -30.9441 H   0  0  0  0  0  0  0  0  0  0  0  0
   -6.5833   26.2802  -30.9441 H   0  0  0  0  0  0  0  0  0  0  0  0
   -3.3390   24.6705  -29.9603 H   0  0  0  0  0  0  0  0  0  0  0  0
   -2.7792   22.1775  -28.6207 H   0  0  0  0  0  0  0  0  0  0  0  0
   -2.4662   21.0900  -30.0157 H   0  0  0  0  0  0  0  0  0  0  0  0
   -1.8103   22.7623  -30.0157 H   0  0  0  0  0  0  0  0  0  0  0  0
  1  2  1  0
  2  3  1  0
  3  4  1  0
  3  5  1  0
  5  6  1  0
  6  7  1  0
  7  8  1  0
  8  9  1  0
  9 10  1  0
 10 11  1  0
 11 12  1  0
 12 13  1  0
 13 14  1  0
 14 15  1  0
 15 16  1  0
 16 17  1  0
 17 18  2  0
 18 19  1  0
 19 20  2  0
 20 21  1  0
 21 22  2  0
 22 23  1  0
 23 24  2  0
 24 25  1  0
 24 26  1  0
 26 27  2  0
 27 28  1  0
 28 29  1  0
 28 30  2  0
 30 31  1  0
 31 32  1  0
 31 33  2  0
 33 17  1  0
 23 18  1  0
 33 26  1  0
  1 34  1  0
  1 35  1  0
  1 36  1  0
  2 37  1  0
  2 38  1  0
  4 39  1  0
  4 40  1  0
  4 41  1  0
  5 42  1  0
  5 43  1  0
  6 44  1  0
  6 45  1  0
  8 46  1  0
  8 47  1  0
  9 48  1  0
  9 49  1  0
 11 50  1  0
 11 51  1  0
 12 52  1  0
 12 53  1  0
 14 54  1  0
 14 55  1  0
 15 56  1  0
 15 57  1  0
 16 58  1  0
 16 59  1  0
 19 60  1  0
 20 61  1  0
 21 62  1  0
 22 63  1  0
 25 64  1  0
 25 65  1  0
 25 66  1  0
 27 67  1  0
 29 68  1  0
 29 69  1  0
 29 70  1  0
 30 71  1  0
 32 72  1  0
 32 73  1  0
 32 74  1  0
M  CHG  2  16   1  24   1
M  END
>  <UniqueID>  (18) 
18

>  <SMILES>  (18) 
CCN(C)CCOCCOCCOCC[NH2+]c1c2ccccc2[n+](C)c2cc(C)cc(C)c12

>  <Energy>  (18) 
123.32796002410429

>  <Genealogy>  (18) 
CCN(C)CCOCCOCCOCC[NH2+]c1c2ccccc2[n+](C)c2cc(C)cc(C)c12 (protonated)
CCN(C)CCOCCOCCOCC[NH2+]c1c2ccccc2[n+](C)c2cc(C)cc(C)c12 (3D coordinates assigned)
CCN(C)CCOCCOCCOCC[NH2+]c1c2ccccc2[n+](C)c2cc(C)cc(C)c12 (optimized conformer: 123.32796002410429 kcal/mol)

>  <smiles>  (18) 
CCN(C)CCOCCOCCOCCNc1c2ccccc2[n+](C)c2cc(C)cc(C)c12

>  <score_type>  (18) 
oracle

>  <origin>  (18) 
adg

>  <m_score__min__energy>  (18) 
-8.6999999999999993

>  <m_primary>  (18) 
energy

$$$$
19:0
     RDKit          3D

 70 73  0  0  0  0  0  0  0  0999 V2000
   -0.2340   23.2400  -24.7460 C   0  0  0  0  0  0  0  0  0  0  0  0
   -0.3470   24.3940  -25.7390 C   0  0  0  0  0  0  0  0  0  0  0  0
   -1.6810   25.0340  -25.6350 N   0  0  0  0  0  0  0  0  0  0  0  0
   -1.5630   26.4550  -25.2380 C   0  0  0  0  0  0  0  0  0  0  0  0
   -0.8100   26.5780  -23.9150 C   0  0  0  0  0  0  0  0  0  0  0  0
   -2.4320   24.8970  -26.9080 C   0  0  0  0  0  0  0  0  0  0  0  0
   -1.6230   25.4590  -28.0870 C   0  0  0  0  0  0  0  0  0  0  0  0
   -2.2740   25.1920  -29.3150 O   0  0  0  0  0  0  0  0  0  0  0  0
   -2.7120   23.8490  -29.3620 C   0  0  0  0  0  0  0  0  0  0  0  0
   -2.8100   23.4030  -30.8150 C   0  0  0  0  0  0  0  0  0  0  0  0
   -4.1660   23.3210  -31.1810 O   0  0  0  0  0  0  0  0  0  0  0  0
   -4.6410   24.5940  -31.2120 N   0  0  0  0  0  0  0  0  0  0  0  0
   -6.0040   24.5710  -30.6730 C   0  0  0  0  0  0  0  0  0  0  0  0
   -6.9090   23.5930  -31.4420 C   0  0  0  0  0  0  0  0  0  0  0  0
   -6.3200   23.1000  -32.7020 N   0  0  0  0  0  0  0  0  0  0  0  0
   -6.1680   21.6540  -32.7200 C   0  0  0  0  0  0  0  0  0  0  0  0
   -7.2540   20.7420  -32.5390 C   0  0  0  0  0  0  0  0  0  0  0  0
   -8.5840   21.1870  -32.3530 C   0  0  0  0  0  0  0  0  0  0  0  0
   -9.6370   20.2850  -32.2260 C   0  0  0  0  0  0  0  0  0  0  0  0
   -9.3990   18.9190  -32.2880 C   0  0  0  0  0  0  0  0  0  0  0  0
   -8.1040   18.4390  -32.4520 C   0  0  0  0  0  0  0  0  0  0  0  0
   -6.9990   19.3220  -32.5440 C   0  0  0  0  0  0  0  0  0  0  0  0
   -5.7040   18.8380  -32.6580 N   0  0  0  0  0  0  0  0  0  0  0  0
   -5.3770   17.4290  -32.3820 C   0  0  0  0  0  0  0  0  0  0  0  0
   -4.7070   19.7270  -32.9580 C   0  0  0  0  0  0  0  0  0  0  0  0
   -4.9040   21.0930  -32.9470 C   0  0  0  0  0  0  0  0  0  0  0  0
   -3.7510   21.7550  -33.2040 N   0  0  0  0  0  0  0  0  0  0  0  0
   -2.8280   20.8000  -33.4220 C   0  0  0  0  0  0  0  0  0  0  0  0
   -1.4990   21.0030  -33.7840 C   0  0  0  0  0  0  0  0  0  0  0  0
   -0.7030   19.8750  -34.0390 C   0  0  0  0  0  0  0  0  0  0  0  0
   -1.2520   18.5790  -33.9500 C   0  0  0  0  0  0  0  0  0  0  0  0
   -2.6000   18.3960  -33.5930 C   0  0  0  0  0  0  0  0  0  0  0  0
   -3.3660   19.5320  -33.2950 C   0  0  0  0  0  0  0  0  0  0  0  0
   -0.2726   23.6342  -23.7198 H   0  0  0  0  0  0  0  0  0  0  0  0
   -1.0679   22.5396  -24.9014 H   0  0  0  0  0  0  0  0  0  0  0  0
    0.7199   22.7147  -24.9014 H   0  0  0  0  0  0  0  0  0  0  0  0
    0.4313   25.1396  -25.5190 H   0  0  0  0  0  0  0  0  0  0  0  0
   -0.2165   24.0026  -26.7587 H   0  0  0  0  0  0  0  0  0  0  0  0
   -1.0167   27.0051  -26.0184 H   0  0  0  0  0  0  0  0  0  0  0  0
   -2.5719   26.8757  -25.1145 H   0  0  0  0  0  0  0  0  0  0  0  0
   -1.5159   26.4627  -23.0793 H   0  0  0  0  0  0  0  0  0  0  0  0
   -0.0411   25.7935  -23.8564 H   0  0  0  0  0  0  0  0  0  0  0  0
   -0.3307   27.5663  -23.8564 H   0  0  0  0  0  0  0  0  0  0  0  0
   -2.6408   23.8324  -27.0898 H   0  0  0  0  0  0  0  0  0  0  0  0
   -3.3705   25.4646  -26.8244 H   0  0  0  0  0  0  0  0  0  0  0  0
   -1.5155   26.5469  -27.9648 H   0  0  0  0  0  0  0  0  0  0  0  0
   -0.6348   24.9759  -28.0991 H   0  0  0  0  0  0  0  0  0  0  0  0
   -1.9935   23.2091  -28.8287 H   0  0  0  0  0  0  0  0  0  0  0  0
   -3.6989   23.7659  -28.8833 H   0  0  0  0  0  0  0  0  0  0  0  0
   -2.2980   24.1326  -31.4596 H   0  0  0  0  0  0  0  0  0  0  0  0
   -2.3341   22.4184  -30.9333 H   0  0  0  0  0  0  0  0  0  0  0  0
   -4.0350   25.1440  -30.5610 H   0  0  0  0  0  0  0  0  0  0  0  0
   -5.9639   24.2634  -29.6177 H   0  0  0  0  0  0  0  0  0  0  0  0
   -6.4283   25.5806  -30.7761 H   0  0  0  0  0  0  0  0  0  0  0  0
   -7.1145   22.7283  -30.7938 H   0  0  0  0  0  0  0  0  0  0  0  0
   -7.8217   24.1453  -31.7102 H   0  0  0  0  0  0  0  0  0  0  0  0
   -5.4410   23.6120  -32.9240 H   0  0  0  0  0  0  0  0  0  0  0  0
   -6.9660   23.3650  -33.4800 H   0  0  0  0  0  0  0  0  0  0  0  0
   -8.7902   22.2666  -32.3078 H   0  0  0  0  0  0  0  0  0  0  0  0
  -10.6615   20.6564  -32.0760 H   0  0  0  0  0  0  0  0  0  0  0  0
  -10.2385   18.2128  -32.2070 H   0  0  0  0  0  0  0  0  0  0  0  0
   -7.9341   17.3538  -32.5114 H   0  0  0  0  0  0  0  0  0  0  0  0
   -5.3395   17.2675  -31.2946 H   0  0  0  0  0  0  0  0  0  0  0  0
   -6.1485   16.7804  -32.8226 H   0  0  0  0  0  0  0  0  0  0  0  0
   -4.3987   17.1865  -32.8226 H   0  0  0  0  0  0  0  0  0  0  0  0
   -3.5960   22.7880  -33.2600 H   0  0  0  0  0  0  0  0  0  0  0  0
   -1.0844   22.0184  -33.8678 H   0  0  0  0  0  0  0  0  0  0  0  0
    0.3554   20.0028  -34.3099 H   0  0  0  0  0  0  0  0  0  0  0  0
   -0.6204   17.7036  -34.1617 H   0  0  0  0  0  0  0  0  0  0  0  0
   -3.0412   17.3893  -33.5488 H   0  0  0  0  0  0  0  0  0  0  0  0
  1  2  1  0
  2  3  1  0
  3  4  1  0
  4  5  1  0
  3  6  1  0
  6  7  1  0
  7  8  1  0
  8  9  1  0
  9 10  1  0
 10 11  1  0
 11 12  1  0
 12 13  1  0
 13 14  1  0
 14 15  1  0
 15 16  1  0
 16 17  2  0
 17 18  1  0
 18 19  2  0
 19 20  1  0
 20 21  2  0
 21 22  1  0
 22 23  2  0
 23 24  1  0
 23 25  1  0
 25 26  2  0
 26 27  1  0
 27 28  1  0
 28 29  2  0
 29 30  1  0
 30 31  2  0
 31 32  1  0
 32 33  2  0
 26 16  1  0
 33 28  1  0
 22 17  1  0
 33 25  1  0
  1 34  1  0
  1 35  1  0
  1 36  1  0
  2 37  1  0
  2 38  1  0
  4 39  1  0
  4 40  1  0
  5 41  1  0
  5 42  1  0
  5 43  1  0
  6 44  1  0
  6 45  1  0
  7 46  1  0
  7 47  1  0
  9 48  1  0
  9 49  1  0
 10 50  1  0
 10 51  1  0
 12 52  1  0
 13 53  1  0
 13 54  1  0
 14 55  1  0
 14 56  1  0
 15 57  1  0
 15 58  1  0
 18 59  1  0
 19 60  1  0
 20 61  1  0
 21 62  1  0
 24 63  1  0
 24 64  1  0
 24 65  1  0
 27 66  1  0
 29 67  1  0
 30 68  1  0
 31 69  1  0
 32 70  1  0
M  CHG  2  15   1  23   1
M  END
>  <UniqueID>  (19) 
19

>  <SMILES>  (19) 
CCN(CC)CCOCCONCC[NH2+]c1c2ccccc2[n+](C)c2c1[nH]c1ccccc12

>  <Energy>  (19) 
125.40433195997761

>  <Genealogy>  (19) 
CCN(CC)CCOCCONCC[NH2+]c1c2ccccc2[n+](C)c2c1[nH]c1ccccc12 (protonated)
CCN(CC)CCOCCONCC[NH2+]c1c2ccccc2[n+](C)c2c1[nH]c1ccccc12 (3D coordinates assigned)
CCN(CC)CCOCCONCC[NH2+]c1c2ccccc2[n+](C)c2c1[nH]c1ccccc12 (optimized conformer: 125.40433195997761 kcal/mol)

>  <smiles>  (19) 
CCN(CC)CCOCCONCCNc1c2ccccc2[n+](C)c2c1[nH]c1ccccc12

>  <score_type>  (19) 
oracle

>  <origin>  (19) 
adg

>  <m_score__min__energy>  (19) 
-8.9800000000000004

>  <m_primary>  (19) 
energy

$$$$
20:0
     RDKit          3D

 48 50  0  0  0  0  0  0  0  0999 V2000
   -3.5730   24.4930  -27.1710 C   0  0  0  0  0  0  0  0  0  0  0  0
   -3.8360   24.1010  -28.6220 C   0  0  0  0  0  0  0  0  0  0  0  0
   -2.7560   24.5870  -29.4910 N   0  0  0  0  0  0  0  0  0  0  0  0
   -1.4510   24.0550  -29.0750 C   0  0  0  0  0  0  0  0  0  0  0  0
   -0.9510   23.0320  -30.0900 C   0  0  0  0  0  0  0  0  0  0  0  0
   -2.0500   22.3010  -30.5940 O   0  0  0  0  0  0  0  0  0  0  0  0
   -1.5830   21.2180  -31.3680 C   0  0  0  0  0  0  0  0  0  0  0  0
   -2.6480   20.8210  -32.3970 C   0  0  0  0  0  0  0  0  0  0  0  0
   -3.4200   21.9730  -32.9030 N   0  0  0  0  0  0  0  0  0  0  0  0
   -4.8140   21.9100  -32.5060 C   0  0  0  0  0  0  0  0  0  0  0  0
   -5.6560   20.7730  -32.7120 C   0  0  0  0  0  0  0  0  0  0  0  0
   -5.1910   19.6060  -33.3610 C   0  0  0  0  0  0  0  0  0  0  0  0
   -6.0230   18.5000  -33.5360 C   0  0  0  0  0  0  0  0  0  0  0  0
   -5.3590   16.9340  -34.4040 Br  0  0  0  0  0  0  0  0  0  0  0  0
   -7.3340   18.5320  -33.0790 C   0  0  0  0  0  0  0  0  0  0  0  0
   -7.8310   19.6660  -32.4430 C   0  0  0  0  0  0  0  0  0  0  0  0
   -7.0200   20.8100  -32.2430 C   0  0  0  0  0  0  0  0  0  0  0  0
   -7.5200   21.9380  -31.6100 N   0  0  0  0  0  0  0  0  0  0  0  0
   -8.9150   21.9940  -31.1330 C   0  0  0  0  0  0  0  0  0  0  0  0
   -6.6800   23.0020  -31.4330 C   0  0  0  0  0  0  0  0  0  0  0  0
   -6.8980   24.2320  -30.8320 C   0  0  0  0  0  0  0  0  0  0  0  0
   -5.6870   24.8980  -30.9430 C   0  0  0  0  0  0  0  0  0  0  0  0
   -4.8020   24.1390  -31.5580 O   0  0  0  0  0  0  0  0  0  0  0  0
   -5.3840   23.0010  -31.8560 C   0  0  0  0  0  0  0  0  0  0  0  0
   -4.0593   23.7682  -26.5015 H   0  0  0  0  0  0  0  0  0  0  0  0
   -2.4892   24.4963  -26.9827 H   0  0  0  0  0  0  0  0  0  0  0  0
   -3.9809   25.4971  -26.9827 H   0  0  0  0  0  0  0  0  0  0  0  0
   -3.8943   23.0050  -28.6958 H   0  0  0  0  0  0  0  0  0  0  0  0
   -4.7843   24.5544  -28.9463 H   0  0  0  0  0  0  0  0  0  0  0  0
   -2.9450   24.2360  -30.4600 H   0  0  0  0  0  0  0  0  0  0  0  0
   -0.7276   24.8807  -29.0050 H   0  0  0  0  0  0  0  0  0  0  0  0
   -1.5586   23.5657  -28.0957 H   0  0  0  0  0  0  0  0  0  0  0  0
   -0.4446   23.5515  -30.9168 H   0  0  0  0  0  0  0  0  0  0  0  0
   -0.2426   22.3452  -29.6037 H   0  0  0  0  0  0  0  0  0  0  0  0
   -0.6613   21.5129  -31.8909 H   0  0  0  0  0  0  0  0  0  0  0  0
   -1.3761   20.3618  -30.7091 H   0  0  0  0  0  0  0  0  0  0  0  0
   -2.1490   20.3330  -33.2472 H   0  0  0  0  0  0  0  0  0  0  0  0
   -3.3561   20.1464  -31.8936 H   0  0  0  0  0  0  0  0  0  0  0  0
   -3.0020   22.8380  -32.4840 H   0  0  0  0  0  0  0  0  0  0  0  0
   -3.2880   22.0910  -33.9300 H   0  0  0  0  0  0  0  0  0  0  0  0
   -4.1567   19.5697  -33.7338 H   0  0  0  0  0  0  0  0  0  0  0  0
   -7.9837   17.6557  -33.2205 H   0  0  0  0  0  0  0  0  0  0  0  0
   -8.8725   19.6739  -32.0893 H   0  0  0  0  0  0  0  0  0  0  0  0
   -8.9267   21.9945  -30.0331 H   0  0  0  0  0  0  0  0  0  0  0  0
   -9.3932   22.9121  -31.5051 H   0  0  0  0  0  0  0  0  0  0  0  0
   -9.4652   21.1172  -31.5051 H   0  0  0  0  0  0  0  0  0  0  0  0
   -7.8263   24.5985  -30.3694 H   0  0  0  0  0  0  0  0  0  0  0  0
   -5.4925   25.9147  -30.5709 H   0  0  0  0  0  0  0  0  0  0  0  0
  1  2  1  0
  2  3  1  0
  3  4  1  0
  4  5  1  0
  5  6  1  0
  6  7  1  0
  7  8  1  0
  8  9  1  0
  9 10  1  0
 10 11  2  0
 11 12  1  0
 12 13  2  0
 13 14  1  0
 13 15  1  0
 15 16  2  0
 16 17  1  0
 17 18  2  0
 18 19  1  0
 18 20  1  0
 20 21  1  0
 21 22  2  0
 22 23  1  0
 23 24  1  0
 24 10  1  0
 17 11  1  0
 24 20  2  0
  1 25  1  0
  1 26  1  0
  1 27  1  0
  2 28  1  0
  2 29  1  0
  3 30  1  0
  4 31  1  0
  4 32  1  0
  5 33  1  0
  5 34  1  0
  7 35  1  0
  7 36  1  0
  8 37  1  0
  8 38  1  0
  9 39  1  0
  9 40  1  0
 12 41  1  0
 15 42  1  0
 16 43  1  0
 19 44  1  0
 19 45  1  0
 19 46  1  0
 21 47  1  0
 22 48  1  0
M  CHG  2   9   1  18   1
M  END
>  <UniqueID>  (20) 
20

>  <SMILES>  (20) 
CCNCCOCC[NH2+]c1c2cc(Br)ccc2[n+](C)c2ccoc12

>  <Energy>  (20) 
89.74279778250508

>  <Genealogy>  (20) 
CCNCCOCC[NH2+]c1c2cc(Br)ccc2[n+](C)c2ccoc12 (protonated)
CCNCCOCC[NH2+]c1c2cc(Br)ccc2[n+](C)c2ccoc12 (3D coordinates assigned)
CCNCCOCC[NH2+]c1c2cc(Br)ccc2[n+](C)c2ccoc12 (optimized conformer: 89.74279778250508 kcal/mol)

>  <smiles>  (20) 
CCNCCOCCNc1c2cc(Br)ccc2[n+](C)c2ccoc12

>  <score_type>  (20) 
oracle

>  <origin>  (20) 
adg

>  <m_score__min__energy>  (20) 
-7.9000000000000004

>  <m_primary>  (20) 
energy

$$$$
21:0
     RDKit          3D

 57 60  0  0  0  0  0  0  0  0999 V2000
   -4.0910   24.0260  -29.9380 C   0  0  0  0  0  0  0  0  0  0  0  0
   -3.4230   23.9620  -28.7760 C   0  0  0  0  0  0  0  0  0  0  0  0
   -2.2260   24.8460  -28.5350 C   0  0  0  0  0  0  0  0  0  0  0  0
   -0.8820   24.1640  -28.8730 C   0  0  0  0  0  0  0  0  0  0  0  0
   -0.6840   22.6860  -28.4010 C   0  0  1  0  0  0  0  0  0  0  0  0
   -1.4150   22.3810  -27.0930 C   0  0  0  0  0  0  0  0  0  0  0  0
   -2.7820   21.8410  -27.5210 C   0  0  1  0  0  0  0  0  0  0  0  0
   -3.8230   22.9660  -27.7060 C   0  0  0  0  0  0  0  0  0  0  0  0
   -2.5270   21.0800  -28.8280 C   0  0  0  0  0  0  0  0  0  0  0  0
   -1.1660   21.5630  -29.3580 C   0  0  1  0  0  0  0  0  0  0  0  0
   -1.1910   21.9030  -30.8650 C   0  0  0  0  0  0  0  0  0  0  0  0
   -2.2720   21.1580  -31.5480 N   0  0  0  0  0  0  0  0  0  0  0  0
   -1.7400   20.1750  -32.5100 C   0  0  0  0  0  0  0  0  0  0  0  0
   -2.8790   19.2800  -33.0410 C   0  0  0  0  0  0  0  0  0  0  0  0
   -4.2190   19.8950  -32.8480 N   0  0  0  0  0  0  0  0  0  0  0  0
   -5.2450   19.2210  -33.6770 C   0  0  0  0  0  0  0  0  0  0  0  0
   -6.6130   19.2830  -33.0380 C   0  0  0  0  0  0  0  0  0  0  0  0
   -7.2970   20.5070  -32.9540 C   0  0  0  0  0  0  0  0  0  0  0  0
   -8.5530   20.5720  -32.3420 C   0  0  0  0  0  0  0  0  0  0  0  0
   -9.1320   19.4190  -31.8070 C   0  0  0  0  0  0  0  0  0  0  0  0
   -8.4530   18.1990  -31.8790 C   0  0  0  0  0  0  0  0  0  0  0  0
   -7.1980   18.1290  -32.4920 C   0  0  0  0  0  0  0  0  0  0  0  0
   -4.1750   21.3360  -33.1690 C   0  0  0  0  0  0  0  0  0  0  0  0
   -3.1960   22.0860  -32.2370 C   0  0  0  0  0  0  0  0  0  0  0  0
   -4.9636   23.3780  -30.1072 H   0  0  0  0  0  0  0  0  0  0  0  0
   -3.7660   24.7265  -30.7214 H   0  0  0  0  0  0  0  0  0  0  0  0
   -2.3265   25.7467  -29.1584 H   0  0  0  0  0  0  0  0  0  0  0  0
   -2.2086   25.0836  -27.4611 H   0  0  0  0  0  0  0  0  0  0  0  0
   -0.7712   24.1782  -29.9673 H   0  0  0  0  0  0  0  0  0  0  0  0
   -0.1277   24.7396  -28.3165 H   0  0  0  0  0  0  0  0  0  0  0  0
    0.4131   22.6596  -28.3256 H   0  0  0  0  0  0  0  0  0  0  0  0
   -0.8663   21.6266  -26.5101 H   0  0  0  0  0  0  0  0  0  0  0  0
   -1.5039   23.2703  -26.4518 H   0  0  0  0  0  0  0  0  0  0  0  0
   -3.2119   21.1874  -26.7477 H   0  0  0  0  0  0  0  0  0  0  0  0
   -4.7846   22.5128  -27.9887 H   0  0  0  0  0  0  0  0  0  0  0  0
   -3.8953   23.5120  -26.7538 H   0  0  0  0  0  0  0  0  0  0  0  0
   -2.4977   19.9970  -28.6374 H   0  0  0  0  0  0  0  0  0  0  0  0
   -3.3272   21.2672  -29.5592 H   0  0  0  0  0  0  0  0  0  0  0  0
   -0.4137   20.7607  -29.3398 H   0  0  0  0  0  0  0  0  0  0  0  0
   -1.3612   22.9826  -30.9895 H   0  0  0  0  0  0  0  0  0  0  0  0
   -0.2265   21.6167  -31.3097 H   0  0  0  0  0  0  0  0  0  0  0  0
   -1.2728   20.7066  -33.3521 H   0  0  0  0  0  0  0  0  0  0  0  0
   -0.9940   19.5446  -32.0040 H   0  0  0  0  0  0  0  0  0  0  0  0
   -2.7209   19.1073  -34.1158 H   0  0  0  0  0  0  0  0  0  0  0  0
   -2.8574   18.3375  -32.4742 H   0  0  0  0  0  0  0  0  0  0  0  0
   -4.4960   19.7960  -31.8400 H   0  0  0  0  0  0  0  0  0  0  0  0
   -5.2885   19.7135  -34.6596 H   0  0  0  0  0  0  0  0  0  0  0  0
   -4.9622   18.1627  -33.7770 H   0  0  0  0  0  0  0  0  0  0  0  0
   -6.8431   21.4180  -33.3712 H   0  0  0  0  0  0  0  0  0  0  0  0
   -9.0856   21.5326  -32.2819 H   0  0  0  0  0  0  0  0  0  0  0  0
  -10.1215   19.4708  -31.3293 H   0  0  0  0  0  0  0  0  0  0  0  0
   -8.9069   17.2923  -31.4526 H   0  0  0  0  0  0  0  0  0  0  0  0
   -6.6674   17.1670  -32.5467 H   0  0  0  0  0  0  0  0  0  0  0  0
   -3.8460   21.4617  -34.2111 H   0  0  0  0  0  0  0  0  0  0  0  0
   -5.1819   21.7556  -33.0272 H   0  0  0  0  0  0  0  0  0  0  0  0
   -2.6065   22.7952  -32.8366 H   0  0  0  0  0  0  0  0  0  0  0  0
   -3.7870   22.6104  -31.4717 H   0  0  0  0  0  0  0  0  0  0  0  0
  1  2  2  0
  2  3  1  0
  3  4  1  0
  4  5  1  0
  5  6  1  0
  6  7  1  0
  7  8  1  0
  7  9  1  0
  9 10  1  0
 10 11  1  0
 11 12  1  0
 12 13  1  0
 13 14  1  0
 14 15  1  0
 15 16  1  0
 16 17  1  0
 17 18  2  0
 18 19  1  0
 19 20  2  0
 20 21  1  0
 21 22  2  0
 15 23  1  0
 23 24  1  0
  8  2  1  0
 24 12  1  0
 10  5  1  0
 22 17  1  0
  1 25  1  0
  1 26  1  0
  3 27  1  0
  3 28  1  0
  4 29  1  0
  4 30  1  0
  5 31  1  1
  6 32  1  0
  6 33  1  0
  7 34  1  1
  8 35  1  0
  8 36  1  0
  9 37  1  0
  9 38  1  0
 10 39  1  6
 11 40  1  0
 11 41  1  0
 13 42  1  0
 13 43  1  0
 14 44  1  0
 14 45  1  0
 15 46  1  0
 16 47  1  0
 16 48  1  0
 18 49  1  0
 19 50  1  0
 20 51  1  0
 21 52  1  0
 22 53  1  0
 23 54  1  0
 23 55  1  0
 24 56  1  0
 24 57  1  0
M  CHG  1  15   1
M  END
>  <UniqueID>  (21) 
21

>  <SMILES>  (21) 
C=C1CC[C@H]2C[C@@H](C1)CC2CN1CC[NH+](Cc2ccccc2)CC1

>  <Energy>  (21) 
78.0386439292031

>  <Genealogy>  (21) 
C=C1CCC2CC(C1)CC2CN1CC[NH+](Cc2ccccc2)CC1 (protonated)
C=C1CC[C@H]2C[C@@H](C1)CC2CN1CC[NH+](Cc2ccccc2)CC1 (chirality)
C=C1CC[C@H]2C[C@@H](C1)CC2CN1CC[NH+](Cc2ccccc2)CC1 (3D coordinates assigned)
C=C1CC[C@H]2C[C@@H](C1)CC2CN1CC[NH+](Cc2ccccc2)CC1 (nonaromatic ring conformer: 78.0386439292031 kcal/mol)

>  <smiles>  (21) 
C=C1CCC2CC(C1)CC2CN1CCN(Cc2ccccc2)CC1

>  <score_type>  (21) 
oracle

>  <origin>  (21) 
adg

>  <m_score__min__energy>  (21) 
-6.6399999999999997

>  <m_primary>  (21) 
energy

$$$$
22:0
     RDKit          3D

 76 78  0  0  0  0  0  0  0  0999 V2000
   -6.6540   24.3250  -30.2510 C   0  0  0  0  0  0  0  0  0  0  0  0
   -7.0470   22.8830  -29.9270 C   0  0  0  0  0  0  0  0  0  0  0  0
   -7.4420   22.1500  -31.1450 N   0  0  0  0  0  0  0  0  0  0  0  0
   -7.5540   23.0600  -32.3030 C   0  0  0  0  0  0  0  0  0  0  0  0
   -8.7160   21.4180  -30.9310 C   0  0  0  0  0  0  0  0  0  0  0  0
   -9.4720   21.2130  -32.2650 C   0  0  0  0  0  0  0  0  0  0  0  0
   -9.4070   19.8740  -32.7360 O   0  0  0  0  0  0  0  0  0  0  0  0
   -9.0950   18.9830  -31.6830 C   0  0  0  0  0  0  0  0  0  0  0  0
   -7.6010   18.6710  -31.7050 C   0  0  0  0  0  0  0  0  0  0  0  0
   -7.0970   18.7170  -33.0730 N   0  0  0  0  0  0  0  0  0  0  0  0
   -5.8200   18.1620  -33.4300 C   0  0  0  0  0  0  0  0  0  0  0  0
   -5.7200   16.8270  -33.8440 C   0  0  0  0  0  0  0  0  0  0  0  0
   -6.8410   15.9720  -33.7910 C   0  0  0  0  0  0  0  0  0  0  0  0
   -6.7350   14.6420  -34.1810 C   0  0  0  0  0  0  0  0  0  0  0  0
   -5.5080   14.1300  -34.5910 C   0  0  0  0  0  0  0  0  0  0  0  0
   -4.3840   14.9510  -34.6390 C   0  0  0  0  0  0  0  0  0  0  0  0
   -4.4690   16.3250  -34.2970 C   0  0  0  0  0  0  0  0  0  0  0  0
   -3.3700   17.1660  -34.3800 N   0  0  0  0  0  0  0  0  0  0  0  0
   -2.1410   16.7180  -35.0790 C   0  0  0  0  0  0  0  0  0  0  0  0
   -3.4280   18.4320  -33.8220 C   0  0  0  0  0  0  0  0  0  0  0  0
   -2.2750   19.2500  -33.6950 C   0  0  0  0  0  0  0  0  0  0  0  0
   -2.3580   20.5690  -33.2420 C   0  0  0  0  0  0  0  0  0  0  0  0
   -1.1740   21.3740  -33.1990 N   0  0  0  0  0  0  0  0  0  0  0  0
    0.1470   20.7690  -33.0610 C   0  0  0  0  0  0  0  0  0  0  0  0
    0.8900   20.7740  -34.4010 C   0  0  0  0  0  0  0  0  0  0  0  0
    0.3930   21.8880  -35.3510 C   0  0  0  0  0  0  0  0  0  0  0  0
    1.2170   23.1160  -35.2770 N   0  0  0  0  0  0  0  0  0  0  0  0
    0.6380   24.1400  -36.1620 C   0  0  0  0  0  0  0  0  0  0  0  0
    2.6150   22.8660  -35.6780 C   0  0  0  0  0  0  0  0  0  0  0  0
   -3.5890   21.1090  -32.8820 C   0  0  0  0  0  0  0  0  0  0  0  0
   -3.6540   22.4580  -32.5190 O   0  0  0  0  0  0  0  0  0  0  0  0
   -3.7350   22.9170  -31.1760 C   0  0  0  0  0  0  0  0  0  0  0  0
   -4.7320   20.2940  -32.9080 C   0  0  0  0  0  0  0  0  0  0  0  0
   -4.6640   18.9610  -33.3680 C   0  0  0  0  0  0  0  0  0  0  0  0
   -6.5020   24.8827  -29.3151 H   0  0  0  0  0  0  0  0  0  0  0  0
   -5.7221   24.3286  -30.8355 H   0  0  0  0  0  0  0  0  0  0  0  0
   -7.4552   24.8009  -30.8355 H   0  0  0  0  0  0  0  0  0  0  0  0
   -6.1894   22.3730  -29.4638 H   0  0  0  0  0  0  0  0  0  0  0  0
   -7.9051   22.9025  -29.2391 H   0  0  0  0  0  0  0  0  0  0  0  0
   -7.6811   24.0929  -31.9467 H   0  0  0  0  0  0  0  0  0  0  0  0
   -6.6407   22.9921  -32.9124 H   0  0  0  0  0  0  0  0  0  0  0  0
   -8.4236   22.7727  -32.9124 H   0  0  0  0  0  0  0  0  0  0  0  0
   -8.4957   20.4354  -30.4884 H   0  0  0  0  0  0  0  0  0  0  0  0
   -9.3511   22.0121  -30.2575 H   0  0  0  0  0  0  0  0  0  0  0  0
  -10.5281   21.4817  -32.1151 H   0  0  0  0  0  0  0  0  0  0  0  0
   -8.9907   21.8526  -33.0195 H   0  0  0  0  0  0  0  0  0  0  0  0
   -9.3585   19.4462  -30.7207 H   0  0  0  0  0  0  0  0  0  0  0  0
   -9.6656   18.0513  -31.8104 H   0  0  0  0  0  0  0  0  0  0  0  0
   -7.0657   19.4138  -31.0954 H   0  0  0  0  0  0  0  0  0  0  0  0
   -7.4388   17.6627  -31.2964 H   0  0  0  0  0  0  0  0  0  0  0  0
   -7.6830   19.1610  -33.8220 H   0  0  0  0  0  0  0  0  0  0  0  0
   -7.8074   16.3613  -33.4380 H   0  0  0  0  0  0  0  0  0  0  0  0
   -7.6230   13.9930  -34.1654 H   0  0  0  0  0  0  0  0  0  0  0  0
   -5.4253   13.0715  -34.8787 H   0  0  0  0  0  0  0  0  0  0  0  0
   -3.4164   14.5278  -34.9466 H   0  0  0  0  0  0  0  0  0  0  0  0
   -1.3780   16.4399  -34.3371 H   0  0  0  0  0  0  0  0  0  0  0  0
   -2.3744   15.8471  -35.7092 H   0  0  0  0  0  0  0  0  0  0  0  0
   -1.7592   17.5348  -35.7092 H   0  0  0  0  0  0  0  0  0  0  0  0
   -1.2913   18.8350  -33.9599 H   0  0  0  0  0  0  0  0  0  0  0  0
   -1.2830   22.3830  -32.9410 H   0  0  0  0  0  0  0  0  0  0  0  0
    0.7299   21.3399  -32.3232 H   0  0  0  0  0  0  0  0  0  0  0  0
    0.0250   19.7274  -32.7292 H   0  0  0  0  0  0  0  0  0  0  0  0
    1.9623   20.9269  -34.2090 H   0  0  0  0  0  0  0  0  0  0  0  0
    0.7000   19.8079  -34.8915 H   0  0  0  0  0  0  0  0  0  0  0  0
    0.4207   21.5080  -36.3829 H   0  0  0  0  0  0  0  0  0  0  0  0
   -0.6281   22.1556  -35.0416 H   0  0  0  0  0  0  0  0  0  0  0  0
    0.1869   24.9378  -35.5537 H   0  0  0  0  0  0  0  0  0  0  0  0
    1.4290   24.5658  -36.7968 H   0  0  0  0  0  0  0  0  0  0  0  0
   -0.1346   23.6816  -36.7968 H   0  0  0  0  0  0  0  0  0  0  0  0
    3.2398   22.7543  -34.7796 H   0  0  0  0  0  0  0  0  0  0  0  0
    2.6656   21.9446  -36.2767 H   0  0  0  0  0  0  0  0  0  0  0  0
    2.9818   23.7128  -36.2767 H   0  0  0  0  0  0  0  0  0  0  0  0
   -3.5856   22.0705  -30.4896 H   0  0  0  0  0  0  0  0  0  0  0  0
   -2.9565   23.6739  -30.9996 H   0  0  0  0  0  0  0  0  0  0  0  0
   -4.7255   23.3617  -30.9996 H   0  0  0  0  0  0  0  0  0  0  0  0
   -5.6949   20.7002  -32.5648 H   0  0  0  0  0  0  0  0  0  0  0  0
  1  2  1  0
  2  3  1  0
  3  4  1  0
  3  5  1  0
  5  6  1  0
  6  7  1  0
  7  8  1  0
  8  9  1  0
  9 10  1  0
 10 11  1  0
 11 12  2  0
 12 13  1  0
 13 14  2  0
 14 15  1  0
 15 16  2  0
 16 17  1  0
 17 18  2  0
 18 19  1  0
 18 20  1  0
 20 21  2  0
 21 22  1  0
 22 23  1  0
 23 24  1  0
 24 25  1  0
 25 26  1  0
 26 27  1  0
 27 28  1  0
 27 29  1  0
 22 30  2  0
 30 31  1  0
 31 32  1  0
 30 33  1  0
 33 34  2  0
 34 11  1  0
 17 12  1  0
 34 20  1  0
  1 35  1  0
  1 36  1  0
  1 37  1  0
  2 38  1  0
  2 39  1  0
  4 40  1  0
  4 41  1  0
  4 42  1  0
  5 43  1  0
  5 44  1  0
  6 45  1  0
  6 46  1  0
  8 47  1  0
  8 48  1  0
  9 49  1  0
  9 50  1  0
 10 51  1  0
 13 52  1  0
 14 53  1  0
 15 54  1  0
 16 55  1  0
 19 56  1  0
 19 57  1  0
 19 58  1  0
 21 59  1  0
 23 60  1  0
 24 61  1  0
 24 62  1  0
 25 63  1  0
 25 64  1  0
 26 65  1  0
 26 66  1  0
 28 67  1  0
 28 68  1  0
 28 69  1  0
 29 70  1  0
 29 71  1  0
 29 72  1  0
 32 73  1  0
 32 74  1  0
 32 75  1  0
 33 76  1  0
M  CHG  1  18   1
M  END
>  <UniqueID>  (22) 
22

>  <SMILES>  (22) 
CCN(C)CCOCCNc1c2ccccc2[n+](C)c2cc(NCCCN(C)C)c(OC)cc12

>  <Energy>  (22) 
103.69106000960643

>  <Genealogy>  (22) 
CCN(C)CCOCCNc1c2ccccc2[n+](C)c2cc(NCCCN(C)C)c(OC)cc12 (3D coordinates assigned)
CCN(C)CCOCCNc1c2ccccc2[n+](C)c2cc(NCCCN(C)C)c(OC)cc12 (optimized conformer: 103.69106000960643 kcal/mol)

>  <smiles>  (22) 
CCN(C)CCOCCNc1c2ccccc2[n+](C)c2cc(NCCCN(C)C)c(OC)cc12

>  <score_type>  (22) 
oracle

>  <origin>  (22) 
adg

>  <m_score__min__energy>  (22) 
-7.6500000000000004

>  <m_primary>  (22) 
energy

$$$$
23:0
     RDKit          3D

 23 23  0  0  0  0  0  0  0  0999 V2000
   -8.7310   20.4710  -31.8720 C   0  0  0  0  0  0  0  0  0  0  0  0
   -9.0490   21.9380  -31.6030 C   0  0  0  0  0  0  0  0  0  0  0  0
   -7.9900   22.5400  -30.7780 N   0  0  0  0  0  0  0  0  0  0  0  0
   -7.1050   23.4860  -31.4960 C   0  0  2  0  0  0  0  0  0  0  0  0
   -5.9920   22.7720  -32.3030 C   0  0  0  0  0  0  0  0  0  0  0  0
   -4.6670   22.8010  -31.5370 C   0  0  0  0  0  0  0  0  0  0  0  0
   -4.7790   24.1540  -30.4100 S   0  0  0  0  0  0  0  0  0  0  0  0
   -4.4470   23.7300  -29.0070 O   0  0  0  0  0  0  0  0  0  0  0  0
   -3.9010   25.2960  -30.8380 O   0  0  0  0  0  0  0  0  0  0  0  0
   -6.4900   24.5630  -30.5780 C   0  0  0  0  0  0  0  0  0  0  0  0
   -8.6158   19.9395  -30.9158 H   0  0  0  0  0  0  0  0  0  0  0  0
   -9.5517   20.0174  -32.4471 H   0  0  0  0  0  0  0  0  0  0  0  0
   -7.7962   20.3979  -32.4471 H   0  0  0  0  0  0  0  0  0  0  0  0
   -9.1164   22.4773  -32.5594 H   0  0  0  0  0  0  0  0  0  0  0  0
  -10.0071   22.0071  -31.0670 H   0  0  0  0  0  0  0  0  0  0  0  0
   -7.3910   21.7730  -30.3900 H   0  0  0  0  0  0  0  0  0  0  0  0
   -7.7678   23.9984  -32.2089 H   0  0  0  0  0  0  0  0  0  0  0  0
   -6.2860   21.7264  -32.4770 H   0  0  0  0  0  0  0  0  0  0  0  0
   -5.8586   23.2948  -33.2616 H   0  0  0  0  0  0  0  0  0  0  0  0
   -4.5232   21.8586  -30.9882 H   0  0  0  0  0  0  0  0  0  0  0  0
   -3.8121   22.9176  -32.2194 H   0  0  0  0  0  0  0  0  0  0  0  0
   -6.9826   24.5516  -29.5945 H   0  0  0  0  0  0  0  0  0  0  0  0
   -6.6205   25.5702  -31.0005 H   0  0  0  0  0  0  0  0  0  0  0  0
  1  2  1  0
  2  3  1  0
  3  4  1  0
  4  5  1  0
  5  6  1  0
  6  7  1  0
  7  8  2  0
  7  9  2  0
  7 10  1  0
 10  4  1  0
  1 11  1  0
  1 12  1  0
  1 13  1  0
  2 14  1  0
  2 15  1  0
  3 16  1  0
  4 17  1  6
  5 18  1  0
  5 19  1  0
  6 20  1  0
  6 21  1  0
 10 22  1  0
 10 23  1  0
M  END
>  <UniqueID>  (23) 
23

>  <SMILES>  (23) 
CCN[C@@H]1CCS(=O)(=O)C1

>  <Energy>  (23) 
19.37463920988067

>  <Genealogy>  (23) 
CCN[C@@H]1CCS(=O)(=O)C1 (chirality)
CCN[C@@H]1CCS(=O)(=O)C1 (3D coordinates assigned)
CCN[C@@H]1CCS(=O)(=O)C1 (nonaromatic ring conformer: 19.37463920988067 kcal/mol)

>  <smiles>  (23) 
CCNC1CCS(=O)(=O)C1

>  <score_type>  (23) 
oracle

>  <origin>  (23) 
adg

>  <m_score__min__energy>  (23) 
-5.25

>  <m_primary>  (23) 
energy

$$$$
24:0
     RDKit          3D

 76 76  0  0  0  0  0  0  0  0999 V2000
   -6.6016   17.2245  -34.0864 H   0  0  0  0  0  0  0  0  0  0  0  0
   -6.5170   18.1570  -33.5090 C   0  0  0  0  0  0  0  0  0  0  0  0
   -7.1960   18.1430  -32.3210 C   0  0  0  0  0  0  0  0  0  0  0  0
   -6.4900   17.5710  -31.1180 C   0  0  0  0  0  0  0  0  0  0  0  0
   -6.9613   17.9528  -30.2004 H   0  0  0  0  0  0  0  0  0  0  0  0
   -6.5622   16.4736  -31.1379 H   0  0  0  0  0  0  0  0  0  0  0  0
   -5.4314   17.8692  -31.1379 H   0  0  0  0  0  0  0  0  0  0  0  0
   -8.5670   18.7470  -32.0810 C   0  0  0  0  0  0  0  0  0  0  0  0
   -8.7418   18.8156  -30.9971 H   0  0  0  0  0  0  0  0  0  0  0  0
   -9.3161   18.0996  -32.5603 H   0  0  0  0  0  0  0  0  0  0  0  0
   -8.6840   20.1570  -32.6970 C   0  0  0  0  0  0  0  0  0  0  0  0
   -9.6146   20.2133  -33.2808 H   0  0  0  0  0  0  0  0  0  0  0  0
   -7.8032   20.3231  -33.3347 H   0  0  0  0  0  0  0  0  0  0  0  0
   -8.7050   21.2290  -31.6480 C   0  0  0  0  0  0  0  0  0  0  0  0
   -9.7920   21.5290  -31.0830 O   0  0  0  0  0  0  0  0  0  0  0  0
   -7.4880   21.8880  -31.2710 N   0  0  0  0  0  0  0  0  0  0  0  0
   -6.6430   21.7810  -31.8780 H   0  0  0  0  0  0  0  0  0  0  0  0
   -7.3790   22.7160  -30.0710 C   0  0  0  0  0  0  0  0  0  0  0  0
   -6.5331   22.3565  -29.4666 H   0  0  0  0  0  0  0  0  0  0  0  0
   -8.3253   22.6373  -29.5157 H   0  0  0  0  0  0  0  0  0  0  0  0
   -7.1500   24.1990  -30.4150 C   0  0  0  0  0  0  0  0  0  0  0  0
   -6.7350   24.7005  -29.5283 H   0  0  0  0  0  0  0  0  0  0  0  0
   -8.1243   24.6120  -30.7154 H   0  0  0  0  0  0  0  0  0  0  0  0
   -6.1880   24.4220  -31.5920 C   0  0  0  0  0  0  0  0  0  0  0  0
   -6.6490   25.1183  -32.3080 H   0  0  0  0  0  0  0  0  0  0  0  0
   -5.9896   23.4536  -32.0745 H   0  0  0  0  0  0  0  0  0  0  0  0
   -4.9110   24.9870  -31.1220 N   0  0  0  0  0  0  0  0  0  0  0  0
   -4.9910   26.0300  -31.1760 H   0  0  0  0  0  0  0  0  0  0  0  0
   -4.6520   24.6470  -29.7150 C   0  0  0  0  0  0  0  0  0  0  0  0
   -5.6102   24.5059  -29.1934 H   0  0  0  0  0  0  0  0  0  0  0  0
   -4.0855   25.4658  -29.2474 H   0  0  0  0  0  0  0  0  0  0  0  0
   -3.8290   23.3530  -29.6220 C   0  0  0  0  0  0  0  0  0  0  0  0
   -3.3228   23.1886  -30.5846 H   0  0  0  0  0  0  0  0  0  0  0  0
   -4.5242   22.5352  -29.3814 H   0  0  0  0  0  0  0  0  0  0  0  0
   -2.7660   23.4000  -28.5090 C   0  0  0  0  0  0  0  0  0  0  0  0
   -2.4614   22.3692  -28.2753 H   0  0  0  0  0  0  0  0  0  0  0  0
   -3.2240   23.9067  -27.6467 H   0  0  0  0  0  0  0  0  0  0  0  0
   -1.5130   24.2020  -28.8890 C   0  0  0  0  0  0  0  0  0  0  0  0
   -1.2262   23.9589  -29.9227 H   0  0  0  0  0  0  0  0  0  0  0  0
   -0.6970   23.9389  -28.1998 H   0  0  0  0  0  0  0  0  0  0  0  0
   -1.7800   25.6450  -28.7860 N   0  0  0  0  0  0  0  0  0  0  0  0
   -1.5990   26.0700  -29.7270 H   0  0  0  0  0  0  0  0  0  0  0  0
   -0.8690   26.2620  -27.8160 C   0  0  0  0  0  0  0  0  0  0  0  0
   -0.7734   27.3350  -28.0386 H   0  0  0  0  0  0  0  0  0  0  0  0
    0.1147   25.7749  -27.8870 H   0  0  0  0  0  0  0  0  0  0  0  0
   -1.4110   26.0870  -26.3990 C   0  0  0  0  0  0  0  0  0  0  0  0
   -0.6254   26.3406  -25.6720 H   0  0  0  0  0  0  0  0  0  0  0  0
   -2.2750   26.7518  -26.2522 H   0  0  0  0  0  0  0  0  0  0  0  0
   -1.7230   25.0425  -26.2522 H   0  0  0  0  0  0  0  0  0  0  0  0
   -5.6650   19.2290  -34.1780 C   0  0  0  0  0  0  0  0  0  0  0  0
   -5.7034   19.0412  -35.2612 H   0  0  0  0  0  0  0  0  0  0  0  0
   -6.1061   20.1731  -33.8257 H   0  0  0  0  0  0  0  0  0  0  0  0
   -4.1970   19.3500  -33.7990 C   0  0  0  0  0  0  0  0  0  0  0  0
   -3.3100   18.2760  -34.0840 C   0  0  0  0  0  0  0  0  0  0  0  0
   -3.7610   17.0420  -34.8280 C   0  0  0  0  0  0  0  0  0  0  0  0
   -4.0459   16.2623  -34.1062 H   0  0  0  0  0  0  0  0  0  0  0  0
   -4.6264   17.2906  -35.4599 H   0  0  0  0  0  0  0  0  0  0  0  0
   -2.9392   16.6740  -35.4599 H   0  0  0  0  0  0  0  0  0  0  0  0
   -1.9750   18.3510  -33.6790 C   0  0  0  0  0  0  0  0  0  0  0  0
   -1.2938   17.5193  -33.9116 H   0  0  0  0  0  0  0  0  0  0  0  0
   -1.4860   19.4650  -32.9820 C   0  0  0  0  0  0  0  0  0  0  0  0
   -0.1310   19.5410  -32.5960 O   0  0  0  0  0  0  0  0  0  0  0  0
    0.9070   20.1030  -33.3980 C   0  0  0  0  0  0  0  0  0  0  0  0
    1.6862   20.5249  -32.7462 H   0  0  0  0  0  0  0  0  0  0  0  0
    1.3451   19.3188  -34.0330 H   0  0  0  0  0  0  0  0  0  0  0  0
    0.4898   20.8985  -34.0330 H   0  0  0  0  0  0  0  0  0  0  0  0
   -2.3570   20.5270  -32.6640 C   0  0  0  0  0  0  0  0  0  0  0  0
   -1.8210   21.7090  -31.8830 C   0  0  0  0  0  0  0  0  0  0  0  0
   -1.9121   21.5081  -30.8053 H   0  0  0  0  0  0  0  0  0  0  0  0
   -0.7629   21.8677  -32.1382 H   0  0  0  0  0  0  0  0  0  0  0  0
   -2.3988   22.6096  -32.1382 H   0  0  0  0  0  0  0  0  0  0  0  0
   -3.7110   20.4920  -33.0950 C   0  0  0  0  0  0  0  0  0  0  0  0
   -4.6480   21.6270  -32.7230 C   0  0  0  0  0  0  0  0  0  0  0  0
   -4.7125   21.7052  -31.6277 H   0  0  0  0  0  0  0  0  0  0  0  0
   -4.2626   22.5709  -33.1359 H   0  0  0  0  0  0  0  0  0  0  0  0
   -5.6478   21.4273  -33.1359 H   0  0  0  0  0  0  0  0  0  0  0  0
  1  2  1  0
  2  3  2  0
  3  4  1  0
  4  5  1  0
  4  6  1  0
  4  7  1  0
  3  8  1  0
  8  9  1  0
  8 10  1  0
  8 11  1  0
 11 12  1  0
 11 13  1  0
 11 14  1  0
 14 15  2  0
 14 16  1  0
 16 17  1  0
 16 18  1  0
 18 19  1  0
 18 20  1  0
 18 21  1  0
 21 22  1  0
 21 23  1  0
 21 24  1  0
 24 25  1  0
 24 26  1  0
 24 27  1  0
 27 28  1  0
 27 29  1  0
 29 30  1  0
 29 31  1  0
 29 32  1  0
 32 33  1  0
 32 34  1  0
 32 35  1  0
 35 36  1  0
 35 37  1  0
 35 38  1  0
 38 39  1  0
 38 40  1  0
 38 41  1  0
 41 42  1  0
 41 43  1  0
 43 44  1  0
 43 45  1  0
 43 46  1  0
 46 47  1  0
 46 48  1  0
 46 49  1  0
  2 50  1  0
 50 51  1  0
 50 52  1  0
 50 53  1  0
 53 54  2  0
 54 55  1  0
 55 56  1  0
 55 57  1  0
 55 58  1  0
 54 59  1  0
 59 60  1  0
 59 61  2  0
 61 62  1  0
 62 63  1  0
 63 64  1  0
 63 65  1  0
 63 66  1  0
 61 67  1  0
 67 68  1  0
 68 69  1  0
 68 70  1  0
 68 71  1  0
 67 72  2  0
 72 73  1  0
 73 74  1  0
 73 75  1  0
 73 76  1  0
 72 53  1  0
M  END
>  <UniqueID>  (24) 
24

>  <SMILES>  (24) 
CCNCCCCNCCCNC(=O)CC/C(C)=C\Cc1c(C)cc(OC)c(C)c1C

>  <Energy>  (24) 
69.76016958871516

>  <Genealogy>  (24) 
CCNCCCCNCCCNC(=O)CC/C(C)=C\Cc1c(C)cc(OC)c(C)c1C (cis-trans isomerization)
CCNCCCCNCCCNC(=O)CC/C(C)=C\Cc1c(C)cc(OC)c(C)c1C (3D coordinates assigned)
CCNCCCCNCCCNC(=O)CC/C(C)=C\Cc1c(C)cc(OC)c(C)c1C (optimized conformer: 69.76016958871516 kcal/mol)

>  <smiles>  (24) 
CCNCCCCNCCCNC(=O)CCC(C)=CCc1c(C)cc(OC)c(C)c1C

>  <score_type>  (24) 
oracle

>  <origin>  (24) 
adg

>  <m_score__min__energy>  (24) 
-8.6400000000000006

>  <m_primary>  (24) 
energy

$$$$
25:0
     RDKit          3D

 74 75  0  0  0  0  0  0  0  0999 V2000
   -3.9220   20.1570  -31.6630 C   0  0  0  0  0  0  0  0  0  0  0  0
   -3.5990   21.0370  -32.8660 C   0  0  0  0  0  0  0  0  0  0  0  0
   -4.2540   22.3010  -32.7610 O   0  0  0  0  0  0  0  0  0  0  0  0
   -4.4150   23.0490  -31.5780 C   0  0  0  0  0  0  0  0  0  0  0  0
   -3.3730   23.1980  -30.6410 C   0  0  0  0  0  0  0  0  0  0  0  0
   -3.5600   23.9530  -29.4770 C   0  0  0  0  0  0  0  0  0  0  0  0
   -2.5030   24.0760  -28.5170 N   0  0  0  0  0  0  0  0  0  0  0  0
   -2.3380   23.0360  -27.4940 C   0  0  0  0  0  0  0  0  0  0  0  0
   -1.1960   23.3730  -26.5290 C   0  0  0  0  0  0  0  0  0  0  0  0
   -1.2670   24.7860  -26.1130 N   0  0  0  0  0  0  0  0  0  0  0  0
   -1.0100   25.1510  -24.7370 C   0  0  0  0  0  0  0  0  0  0  0  0
   -0.8380   24.2520  -23.8680 O   0  0  0  0  0  0  0  0  0  0  0  0
   -0.9140   26.5890  -24.2970 C   0  0  0  0  0  0  0  0  0  0  0  0
   -0.1050   26.7060  -23.0770 N   0  0  0  0  0  0  0  0  0  0  0  0
    0.9930   27.6600  -23.2550 C   0  0  0  0  0  0  0  0  0  0  0  0
   -1.4920   25.8290  -27.1320 C   0  0  0  0  0  0  0  0  0  0  0  0
   -1.6140   25.2400  -28.5410 C   0  0  0  0  0  0  0  0  0  0  0  0
   -4.7950   24.5630  -29.2410 C   0  0  0  0  0  0  0  0  0  0  0  0
   -5.8420   24.4110  -30.1510 C   0  0  0  0  0  0  0  0  0  0  0  0
   -5.6600   23.6690  -31.3340 C   0  0  0  0  0  0  0  0  0  0  0  0
   -6.7990   23.4680  -32.3120 C   0  0  0  0  0  0  0  0  0  0  0  0
   -7.1890   22.1120  -32.4210 O   0  0  0  0  0  0  0  0  0  0  0  0
   -7.9200   21.6940  -31.2830 C   0  0  0  0  0  0  0  0  0  0  0  0
   -9.4220   21.7400  -31.5680 C   0  0  0  0  0  0  0  0  0  0  0  0
   -9.8750   20.4690  -31.9990 O   0  0  0  0  0  0  0  0  0  0  0  0
   -8.9040   19.8190  -32.8000 C   0  0  0  0  0  0  0  0  0  0  0  0
   -8.4760   18.4940  -32.1550 C   0  0  0  0  0  0  0  0  0  0  0  0
   -7.1560   18.0530  -32.6620 N   0  0  0  0  0  0  0  0  0  0  0  0
   -6.3150   17.5430  -31.5540 C   0  0  0  0  0  0  0  0  0  0  0  0
   -5.3810   16.4350  -32.0390 C   0  0  0  0  0  0  0  0  0  0  0  0
   -6.4700   19.1280  -33.4280 C   0  0  0  0  0  0  0  0  0  0  0  0
   -5.7260   18.5180  -34.6090 C   0  0  0  0  0  0  0  0  0  0  0  0
   -3.7178   20.7134  -30.7363 H   0  0  0  0  0  0  0  0  0  0  0  0
   -4.9837   19.8709  -31.6925 H   0  0  0  0  0  0  0  0  0  0  0  0
   -3.2975   19.2520  -31.6925 H   0  0  0  0  0  0  0  0  0  0  0  0
   -2.5118   21.1973  -32.9138 H   0  0  0  0  0  0  0  0  0  0  0  0
   -3.9525   20.5318  -33.7769 H   0  0  0  0  0  0  0  0  0  0  0  0
   -2.4019   22.7157  -30.8263 H   0  0  0  0  0  0  0  0  0  0  0  0
   -3.2736   22.9451  -26.9227 H   0  0  0  0  0  0  0  0  0  0  0  0
   -2.0944   22.0901  -27.9999 H   0  0  0  0  0  0  0  0  0  0  0  0
   -1.2728   22.7302  -25.6397 H   0  0  0  0  0  0  0  0  0  0  0  0
   -0.2375   23.2021  -27.0409 H   0  0  0  0  0  0  0  0  0  0  0  0
   -0.4472   27.1812  -25.0979 H   0  0  0  0  0  0  0  0  0  0  0  0
   -1.9270   26.9627  -24.0866 H   0  0  0  0  0  0  0  0  0  0  0  0
    0.3240   25.7680  -22.8900 H   0  0  0  0  0  0  0  0  0  0  0  0
    1.3628   27.9813  -22.2701 H   0  0  0  0  0  0  0  0  0  0  0  0
    1.8093   27.1794  -23.8142 H   0  0  0  0  0  0  0  0  0  0  0  0
    0.6311   28.5354  -23.8142 H   0  0  0  0  0  0  0  0  0  0  0  0
   -2.4208   26.3666  -26.8905 H   0  0  0  0  0  0  0  0  0  0  0  0
   -0.6252   26.5061  -27.1214 H   0  0  0  0  0  0  0  0  0  0  0  0
   -2.0265   26.0006  -29.2203 H   0  0  0  0  0  0  0  0  0  0  0  0
   -0.6189   24.9298  -28.8924 H   0  0  0  0  0  0  0  0  0  0  0  0
   -4.9426   25.1662  -28.3331 H   0  0  0  0  0  0  0  0  0  0  0  0
   -6.8175   24.8746  -29.9425 H   0  0  0  0  0  0  0  0  0  0  0  0
   -7.6635   24.0571  -31.9721 H   0  0  0  0  0  0  0  0  0  0  0  0
   -6.4497   23.7952  -33.3024 H   0  0  0  0  0  0  0  0  0  0  0  0
   -7.6314   20.6644  -31.0248 H   0  0  0  0  0  0  0  0  0  0  0  0
   -7.6947   22.3708  -30.4456 H   0  0  0  0  0  0  0  0  0  0  0  0
   -9.9578   22.0253  -30.6506 H   0  0  0  0  0  0  0  0  0  0  0  0
   -9.6157   22.4787  -32.3598 H   0  0  0  0  0  0  0  0  0  0  0  0
   -9.3305   19.6170  -33.7936 H   0  0  0  0  0  0  0  0  0  0  0  0
   -8.0231   20.4715  -32.8914 H   0  0  0  0  0  0  0  0  0  0  0  0
   -8.4149   18.6288  -31.0650 H   0  0  0  0  0  0  0  0  0  0  0  0
   -9.2212   17.7260  -32.4097 H   0  0  0  0  0  0  0  0  0  0  0  0
   -5.7125   18.3699  -31.1500 H   0  0  0  0  0  0  0  0  0  0  0  0
   -6.9739   17.1297  -30.7762 H   0  0  0  0  0  0  0  0  0  0  0  0
   -4.9448   15.9175  -31.1719 H   0  0  0  0  0  0  0  0  0  0  0  0
   -5.9497   15.7161  -32.6471 H   0  0  0  0  0  0  0  0  0  0  0  0
   -4.5763   16.8738  -32.6471 H   0  0  0  0  0  0  0  0  0  0  0  0
   -7.2156   19.8476  -33.7971 H   0  0  0  0  0  0  0  0  0  0  0  0
   -5.7537   19.6443  -32.7719 H   0  0  0  0  0  0  0  0  0  0  0  0
   -4.9251   17.8614  -34.2383 H   0  0  0  0  0  0  0  0  0  0  0  0
   -6.4273   17.9315  -35.2208 H   0  0  0  0  0  0  0  0  0  0  0  0
   -5.2884   19.3206  -35.2208 H   0  0  0  0  0  0  0  0  0  0  0  0
  1  2  1  0
  2  3  1  0
  3  4  1  0
  4  5  2  0
  5  6  1  0
  6  7  1  0
  7  8  1  0
  8  9  1  0
  9 10  1  0
 10 11  1  0
 11 12  2  0
 11 13  1  0
 13 14  1  0
 14 15  1  0
 10 16  1  0
 16 17  1  0
  6 18  2  0
 18 19  1  0
 19 20  2  0
 20 21  1  0
 21 22  1  0
 22 23  1  0
 23 24  1  0
 24 25  1  0
 25 26  1  0
 26 27  1  0
 27 28  1  0
 28 29  1  0
 29 30  1  0
 28 31  1  0
 31 32  1  0
 20  4  1  0
 17  7  1  0
  1 33  1  0
  1 34  1  0
  1 35  1  0
  2 36  1  0
  2 37  1  0
  5 38  1  0
  8 39  1  0
  8 40  1  0
  9 41  1  0
  9 42  1  0
 13 43  1  0
 13 44  1  0
 14 45  1  0
 15 46  1  0
 15 47  1  0
 15 48  1  0
 16 49  1  0
 16 50  1  0
 17 51  1  0
 17 52  1  0
 18 53  1  0
 19 54  1  0
 21 55  1  0
 21 56  1  0
 23 57  1  0
 23 58  1  0
 24 59  1  0
 24 60  1  0
 26 61  1  0
 26 62  1  0
 27 63  1  0
 27 64  1  0
 29 65  1  0
 29 66  1  0
 30 67  1  0
 30 68  1  0
 30 69  1  0
 31 70  1  0
 31 71  1  0
 32 72  1  0
 32 73  1  0
 32 74  1  0
M  END
>  <UniqueID>  (25) 
25

>  <SMILES>  (25) 
CCOc1cc(N2CCN(C(=O)CNC)CC2)ccc1COCCOCCN(CC)CC

>  <Energy>  (25) 
77.33026643413798

>  <Genealogy>  (25) 
CCOc1cc(N2CCN(C(=O)CNC)CC2)ccc1COCCOCCN(CC)CC (3D coordinates assigned)
CCOc1cc(N2CCN(C(=O)CNC)CC2)ccc1COCCOCCN(CC)CC (nonaromatic ring conformer: 77.33026643413798 kcal/mol)

>  <smiles>  (25) 
CCOc1cc(N2CCN(C(=O)CNC)CC2)ccc1COCCOCCN(CC)CC

>  <score_type>  (25) 
oracle

>  <origin>  (25) 
adg

>  <m_score__min__energy>  (25) 
-7.7999999999999998

>  <m_primary>  (25) 
energy

$$$$
26:0
     RDKit          3D

 51 53  0  0  0  0  0  0  0  0999 V2000
    0.3320   22.0210  -35.6430 C   0  0  0  0  0  0  0  0  0  0  0  0
    0.1900   20.8070  -34.7280 C   0  0  0  0  0  0  0  0  0  0  0  0
   -0.5180   21.1820  -33.4140 C   0  0  0  0  0  0  0  0  0  0  0  0
   -1.9890   21.1450  -33.5460 N   0  0  0  0  0  0  0  0  0  0  0  0
   -2.5030   19.8040  -33.8880 C   0  0  0  0  0  0  0  0  0  0  0  0
   -3.9810   19.6340  -33.4970 C   0  0  0  0  0  0  0  0  0  0  0  0
   -4.2360   20.2110  -32.1780 N   0  0  0  0  0  0  0  0  0  0  0  0
   -5.4780   20.8680  -31.8770 C   0  0  0  0  0  0  0  0  0  0  0  0
   -6.6830   20.1620  -32.0320 C   0  0  0  0  0  0  0  0  0  0  0  0
   -6.6800   18.7760  -32.3030 C   0  0  0  0  0  0  0  0  0  0  0  0
   -7.8740   18.0720  -32.4240 C   0  0  0  0  0  0  0  0  0  0  0  0
   -9.0890   18.7290  -32.2670 C   0  0  0  0  0  0  0  0  0  0  0  0
   -9.1160   20.1000  -32.0150 C   0  0  0  0  0  0  0  0  0  0  0  0
   -7.9160   20.8520  -31.9270 C   0  0  0  0  0  0  0  0  0  0  0  0
   -7.9260   22.2200  -31.7430 N   0  0  0  0  0  0  0  0  0  0  0  0
   -9.1750   22.9830  -31.9640 C   0  0  0  0  0  0  0  0  0  0  0  0
   -6.7680   22.8770  -31.3690 C   0  0  0  0  0  0  0  0  0  0  0  0
   -6.8030   24.2100  -30.8940 C   0  0  0  0  0  0  0  0  0  0  0  0
   -5.6370   24.8800  -30.5450 C   0  0  0  0  0  0  0  0  0  0  0  0
   -4.4110   24.2390  -30.6190 C   0  0  0  0  0  0  0  0  0  0  0  0
   -4.3270   22.8990  -31.0320 C   0  0  0  0  0  0  0  0  0  0  0  0
   -3.0900   22.2280  -31.0130 O   0  0  0  0  0  0  0  0  0  0  0  0
   -2.3570   21.8890  -29.8400 C   0  0  0  0  0  0  0  0  0  0  0  0
   -5.5070   22.2120  -31.4360 C   0  0  0  0  0  0  0  0  0  0  0  0
    0.4383   22.9298  -35.0325 H   0  0  0  0  0  0  0  0  0  0  0  0
    1.2221   21.8995  -36.2779 H   0  0  0  0  0  0  0  0  0  0  0  0
   -0.5621   22.1082  -36.2779 H   0  0  0  0  0  0  0  0  0  0  0  0
   -0.3982   20.0345  -35.2450 H   0  0  0  0  0  0  0  0  0  0  0  0
    1.1957   20.4317  -34.4877 H   0  0  0  0  0  0  0  0  0  0  0  0
   -0.2139   20.4710  -32.6317 H   0  0  0  0  0  0  0  0  0  0  0  0
   -0.2267   22.2102  -33.1534 H   0  0  0  0  0  0  0  0  0  0  0  0
   -2.2810   21.8310  -34.2800 H   0  0  0  0  0  0  0  0  0  0  0  0
   -2.4290   21.4590  -32.6500 H   0  0  0  0  0  0  0  0  0  0  0  0
   -2.4033   19.6519  -34.9729 H   0  0  0  0  0  0  0  0  0  0  0  0
   -1.9163   19.0627  -33.3256 H   0  0  0  0  0  0  0  0  0  0  0  0
   -4.6122   20.1415  -34.2414 H   0  0  0  0  0  0  0  0  0  0  0  0
   -4.2172   18.5601  -33.4651 H   0  0  0  0  0  0  0  0  0  0  0  0
   -3.5160   20.1160  -31.4270 H   0  0  0  0  0  0  0  0  0  0  0  0
   -5.7227   18.2469  -32.4198 H   0  0  0  0  0  0  0  0  0  0  0  0
   -7.8565   16.9944  -32.6441 H   0  0  0  0  0  0  0  0  0  0  0  0
  -10.0311   18.1660  -32.3417 H   0  0  0  0  0  0  0  0  0  0  0  0
  -10.0832   20.6069  -31.8823 H   0  0  0  0  0  0  0  0  0  0  0  0
   -9.6165   23.2527  -30.9933 H   0  0  0  0  0  0  0  0  0  0  0  0
   -8.9501   23.8981  -32.5315 H   0  0  0  0  0  0  0  0  0  0  0  0
   -9.8865   22.3652  -32.5315 H   0  0  0  0  0  0  0  0  0  0  0  0
   -7.7706   24.7246  -30.7995 H   0  0  0  0  0  0  0  0  0  0  0  0
   -5.6875   25.9258  -30.2079 H   0  0  0  0  0  0  0  0  0  0  0  0
   -3.4942   24.7849  -30.3517 H   0  0  0  0  0  0  0  0  0  0  0  0
   -2.9436   22.1603  -28.9499 H   0  0  0  0  0  0  0  0  0  0  0  0
   -2.1576   20.8072  -29.8320 H   0  0  0  0  0  0  0  0  0  0  0  0
   -1.4036   22.4376  -29.8320 H   0  0  0  0  0  0  0  0  0  0  0  0
  1  2  1  0
  2  3  1  0
  3  4  1  0
  4  5  1  0
  5  6  1  0
  6  7  1  0
  7  8  1  0
  8  9  2  0
  9 10  1  0
 10 11  2  0
 11 12  1  0
 12 13  2  0
 13 14  1  0
 14 15  2  0
 15 16  1  0
 15 17  1  0
 17 18  2  0
 18 19  1  0
 19 20  2  0
 20 21  1  0
 21 22  1  0
 22 23  1  0
 21 24  2  0
 24  8  1  0
 14  9  1  0
 24 17  1  0
  1 25  1  0
  1 26  1  0
  1 27  1  0
  2 28  1  0
  2 29  1  0
  3 30  1  0
  3 31  1  0
  4 32  1  0
  4 33  1  0
  5 34  1  0
  5 35  1  0
  6 36  1  0
  6 37  1  0
  7 38  1  0
 10 39  1  0
 11 40  1  0
 12 41  1  0
 13 42  1  0
 16 43  1  0
 16 44  1  0
 16 45  1  0
 18 46  1  0
 19 47  1  0
 20 48  1  0
 23 49  1  0
 23 50  1  0
 23 51  1  0
M  CHG  2   4   1  15   1
M  END
>  <UniqueID>  (26) 
26

>  <SMILES>  (26) 
CCC[NH2+]CCNc1c2ccccc2[n+](C)c2cccc(OC)c12

>  <Energy>  (26) 
76.6137262455188

>  <Genealogy>  (26) 
CCC[NH2+]CCNc1c2ccccc2[n+](C)c2cccc(OC)c12 (protonated)
CCC[NH2+]CCNc1c2ccccc2[n+](C)c2cccc(OC)c12 (3D coordinates assigned)
CCC[NH2+]CCNc1c2ccccc2[n+](C)c2cccc(OC)c12 (optimized conformer: 76.6137262455188 kcal/mol)

>  <smiles>  (26) 
CCCNCCNc1c2ccccc2[n+](C)c2cccc(OC)c12

>  <score_type>  (26) 
oracle

>  <origin>  (26) 
adg

>  <m_score__min__energy>  (26) 
-6.5

>  <m_primary>  (26) 
energy

$$$$
