0:0
     RDKit          3D

 30 31  0  0  0  0  0  0  0  0999 V2000
   -3.2640   18.1950  -33.9700 C   0  0  0  0  0  0  0  0  0  0  0  0
   -4.5640   18.6750  -34.2990 O   0  0  0  0  0  0  0  0  0  0  0  0
   -5.3300   19.5440  -33.5060 C   0  0  0  0  0  0  0  0  0  0  0  0
   -4.8060   20.7790  -33.0840 C   0  0  0  0  0  0  0  0  0  0  0  0
   -5.5670   21.6560  -32.3040 C   0  0  0  0  0  0  0  0  0  0  0  0
   -5.0240   22.8910  -31.9080 C   0  0  0  0  0  0  0  0  0  0  0  0
   -5.7810   23.7970  -31.1470 C   0  0  0  0  0  0  0  0  0  0  0  0
   -5.2170   25.0600  -30.7460 N   0  0  0  0  0  0  0  0  0  0  0  0
   -5.9470   25.9700  -30.3010 O   0  0  0  0  0  0  0  0  0  0  0  0
   -3.8630   25.2850  -30.8430 O   0  0  0  0  0  0  0  0  0  0  0  0
   -7.0950   23.4550  -30.7930 C   0  0  0  0  0  0  0  0  0  0  0  0
   -7.6410   22.2290  -31.1800 C   0  0  0  0  0  0  0  0  0  0  0  0
   -6.8820   21.3060  -31.9260 C   0  0  0  0  0  0  0  0  0  0  0  0
   -7.4120   20.0570  -32.3270 C   0  0  0  0  0  0  0  0  0  0  0  0
   -8.7310   19.6550  -31.9220 N   0  0  0  0  0  0  0  0  0  0  0  0
   -8.8870   18.6210  -31.2380 O   0  0  0  0  0  0  0  0  0  0  0  0
   -9.8360   20.2960  -32.4310 O   0  0  0  0  0  0  0  0  0  0  0  0
   -6.6440   19.1780  -33.1200 C   0  0  0  0  0  0  0  0  0  0  0  0
   -7.2410   17.9510  -33.4720 O   0  0  0  0  0  0  0  0  0  0  0  0
   -6.6170   16.6710  -33.4880 C   0  0  0  0  0  0  0  0  0  0  0  0
   -3.1541   18.1544  -32.8763 H   0  0  0  0  0  0  0  0  0  0  0  0
   -3.1281   17.1874  -34.3898 H   0  0  0  0  0  0  0  0  0  0  0  0
   -2.5059   18.8725  -34.3898 H   0  0  0  0  0  0  0  0  0  0  0  0
   -3.7820   21.0596  -33.3717 H   0  0  0  0  0  0  0  0  0  0  0  0
   -3.9950   23.1506  -32.1973 H   0  0  0  0  0  0  0  0  0  0  0  0
   -7.7013   24.1596  -30.2047 H   0  0  0  0  0  0  0  0  0  0  0  0
   -8.6753   21.9814  -30.8991 H   0  0  0  0  0  0  0  0  0  0  0  0
   -6.4512   16.3310  -32.4551 H   0  0  0  0  0  0  0  0  0  0  0  0
   -7.2662   15.9531  -34.0106 H   0  0  0  0  0  0  0  0  0  0  0  0
   -5.6516   16.7402  -34.0106 H   0  0  0  0  0  0  0  0  0  0  0  0
  1  2  1  0
  2  3  1  0
  3  4  2  0
  4  5  1  0
  5  6  2  0
  6  7  1  0
  7  8  1  0
  8  9  2  0
  8 10  1  0
  7 11  2  0
 11 12  1  0
 12 13  2  0
 13 14  1  0
 14 15  1  0
 15 16  2  0
 15 17  1  0
 14 18  2  0
 18 19  1  0
 19 20  1  0
 18  3  1  0
 13  5  1  0
  1 21  1  0
  1 22  1  0
  1 23  1  0
  4 24  1  0
  6 25  1  0
 11 26  1  0
 12 27  1  0
 20 28  1  0
 20 29  1  0
 20 30  1  0
M  CHG  4   8   1  10  -1  15   1  17  -1
M  END
>  <UniqueID>  (1) 
1

>  <SMILES>  (1) 
COc1cc2cc([N+](=O)[O-])ccc2c([N+](=O)[O-])c1OC

>  <Energy>  (1) 
45.19117077298554

>  <Genealogy>  (1) 
COc1cc2cc([N+](=O)[O-])ccc2c([N+](=O)[O-])c1OC (3D coordinates assigned)
COc1cc2cc([N+](=O)[O-])ccc2c([N+](=O)[O-])c1OC (optimized conformer: 45.19117077298554 kcal/mol)

>  <smiles>  (1) 
COc1cc2cc([N+](=O)[O-])ccc2c([N+](=O)[O-])c1OC

>  <score_type>  (1) 
oracle

>  <origin>  (1) 
adg

>  <m_score__min__energy>  (1) 
-7.7300000000000004

>  <m_primary>  (1) 
energy

$$$$
1:0
     RDKit          3D

 56 59  0  0  0  0  0  0  0  0999 V2000
   -5.8630   25.6270  -30.2320 C   0  0  0  0  0  0  0  0  0  0  0  0
   -4.6800   24.7370  -30.0180 C   0  0  0  0  0  0  0  0  0  0  0  0
   -4.8110   23.3510  -30.1220 C   0  0  0  0  0  0  0  0  0  0  0  0
   -3.6950   22.5240  -29.9240 C   0  0  0  0  0  0  0  0  0  0  0  0
   -3.8630   21.0330  -30.0660 C   0  0  0  0  0  0  0  0  0  0  0  0
   -2.4350   23.1130  -29.6420 C   0  0  0  0  0  0  0  0  0  0  0  0
   -1.1930   22.2620  -29.4570 C   0  0  0  0  0  0  0  0  0  0  0  0
   -0.5730   21.9740  -30.7440 N   0  0  0  0  0  0  0  0  0  0  0  0
   -0.4640   20.6580  -31.2990 C   0  0  0  0  0  0  0  0  0  0  0  0
    0.3270   19.8230  -30.7810 O   0  0  0  0  0  0  0  0  0  0  0  0
   -1.2080   20.3220  -32.5760 C   0  0  2  0  0  0  0  0  0  0  0  0
   -0.3060   19.6100  -33.4950 N   0  0  0  0  0  0  0  0  0  0  0  0
   -1.7980   21.5640  -33.2690 C   0  0  0  0  0  0  0  0  0  0  0  0
   -3.1100   21.0720  -33.8420 C   0  0  0  0  0  0  0  0  0  0  0  0
   -3.6040   20.0740  -32.8940 N   0  0  0  0  0  0  0  0  0  0  0  0
   -4.6410   19.1420  -33.3990 C   0  0  0  0  0  0  0  0  0  0  0  0
   -6.0200   19.3070  -32.7680 C   0  0  0  0  0  0  0  0  0  0  0  0
   -6.7210   18.1410  -32.4030 C   0  0  0  0  0  0  0  0  0  0  0  0
   -7.9860   18.2130  -31.8220 C   0  0  0  0  0  0  0  0  0  0  0  0
   -8.5750   19.4490  -31.5720 C   0  0  0  0  0  0  0  0  0  0  0  0
   -7.8940   20.6280  -31.8900 C   0  0  0  0  0  0  0  0  0  0  0  0
   -8.4780   21.8720  -31.6200 C   0  0  0  0  0  0  0  0  0  0  0  0
   -7.7920   23.0430  -31.9260 C   0  0  0  0  0  0  0  0  0  0  0  0
   -6.5260   22.9650  -32.5000 C   0  0  0  0  0  0  0  0  0  0  0  0
   -5.9600   21.7560  -32.7630 N   0  0  0  0  0  0  0  0  0  0  0  0
   -6.6030   20.5780  -32.4830 C   0  0  0  0  0  0  0  0  0  0  0  0
   -2.4370   19.4410  -32.2650 C   0  0  0  0  0  0  0  0  0  0  0  0
   -2.3580   24.5200  -29.5550 C   0  0  0  0  0  0  0  0  0  0  0  0
   -1.2620   25.0930  -29.3070 O   0  0  0  0  0  0  0  0  0  0  0  0
   -3.4670   25.2810  -29.7420 N   0  0  0  0  0  0  0  0  0  0  0  0
   -6.2716   25.9344  -29.2580 H   0  0  0  0  0  0  0  0  0  0  0  0
   -5.5538   26.5183  -30.7977 H   0  0  0  0  0  0  0  0  0  0  0  0
   -6.6337   25.0829  -30.7977 H   0  0  0  0  0  0  0  0  0  0  0  0
   -5.7892   22.9073  -30.3592 H   0  0  0  0  0  0  0  0  0  0  0  0
   -3.9148   20.5732  -29.0681 H   0  0  0  0  0  0  0  0  0  0  0  0
   -4.7909   20.8194  -30.6168 H   0  0  0  0  0  0  0  0  0  0  0  0
   -3.0059   20.6182  -30.6168 H   0  0  0  0  0  0  0  0  0  0  0  0
   -0.4752   22.8028  -28.8228 H   0  0  0  0  0  0  0  0  0  0  0  0
   -1.4807   21.3128  -28.9813 H   0  0  0  0  0  0  0  0  0  0  0  0
   -0.7930   18.7630  -33.8720 H   0  0  0  0  0  0  0  0  0  0  0  0
    0.5370   19.2710  -32.9770 H   0  0  0  0  0  0  0  0  0  0  0  0
   -1.9667   22.3737  -32.5438 H   0  0  0  0  0  0  0  0  0  0  0  0
   -1.1288   21.9795  -34.0368 H   0  0  0  0  0  0  0  0  0  0  0  0
   -3.8252   21.9029  -33.9322 H   0  0  0  0  0  0  0  0  0  0  0  0
   -2.9808   20.6480  -34.8487 H   0  0  0  0  0  0  0  0  0  0  0  0
   -4.7412   19.2983  -34.4832 H   0  0  0  0  0  0  0  0  0  0  0  0
   -4.3006   18.1305  -33.1326 H   0  0  0  0  0  0  0  0  0  0  0  0
   -6.2623   17.1569  -32.5795 H   0  0  0  0  0  0  0  0  0  0  0  0
   -8.5213   17.2885  -31.5598 H   0  0  0  0  0  0  0  0  0  0  0  0
   -9.5782   19.4984  -31.1234 H   0  0  0  0  0  0  0  0  0  0  0  0
   -9.4787   21.9232  -31.1662 H   0  0  0  0  0  0  0  0  0  0  0  0
   -8.2462   24.0226  -31.7161 H   0  0  0  0  0  0  0  0  0  0  0  0
   -5.9791   23.8880  -32.7428 H   0  0  0  0  0  0  0  0  0  0  0  0
   -5.0140   21.7750  -33.2010 H   0  0  0  0  0  0  0  0  0  0  0  0
   -2.5863   19.3749  -31.1772 H   0  0  0  0  0  0  0  0  0  0  0  0
   -2.2920   18.4223  -32.6538 H   0  0  0  0  0  0  0  0  0  0  0  0
  1  2  1  0
  2  3  2  0
  3  4  1  0
  4  5  1  0
  4  6  2  0
  6  7  1  0
  7  8  1  0
  8  9  1  0
  9 10  2  0
  9 11  1  0
 11 12  1  6
 11 13  1  0
 13 14  1  0
 14 15  1  0
 15 16  1  0
 16 17  1  0
 17 18  2  0
 18 19  1  0
 19 20  2  0
 20 21  1  0
 21 22  2  0
 22 23  1  0
 23 24  2  0
 24 25  1  0
 25 26  2  0
 15 27  1  0
  6 28  1  0
 28 29  2  0
 28 30  1  0
 30  2  1  0
 27 11  1  0
 26 17  1  0
 26 21  1  0
  1 31  1  0
  1 32  1  0
  1 33  1  0
  3 34  1  0
  5 35  1  0
  5 36  1  0
  5 37  1  0
  7 38  1  0
  7 39  1  0
 12 40  1  0
 12 41  1  0
 13 42  1  0
 13 43  1  0
 14 44  1  0
 14 45  1  0
 16 46  1  0
 16 47  1  0
 18 48  1  0
 19 49  1  0
 20 50  1  0
 22 51  1  0
 23 52  1  0
 24 53  1  0
 25 54  1  0
 27 55  1  0
 27 56  1  0
M  CHG  3   8  -1  25   1  30  -1
M  END
>  <UniqueID>  (2) 
2

>  <SMILES>  (2) 
Cc1cc(C)c(C[N-]C(=O)[C@]2(N)CCN(Cc3cccc4ccc[nH+]c34)C2)c(=O)[n-]1

>  <Energy>  (2) 
75.7766812838008

>  <Genealogy>  (2) 
Cc1cc(C)c(C[N-]C(=O)C2(N)CCN(Cc3cccc4ccc[nH+]c34)C2)c(=O)[n-]1 (protonated)
Cc1cc(C)c(C[N-]C(=O)[C@]2(N)CCN(Cc3cccc4ccc[nH+]c34)C2)c(=O)[n-]1 (chirality)
Cc1cc(C)c(C[N-]C(=O)[C@]2(N)CCN(Cc3cccc4ccc[nH+]c34)C2)c(=O)[n-]1 (3D coordinates assigned)
Cc1cc(C)c(C[N-]C(=O)[C@]2(N)CCN(Cc3cccc4ccc[nH+]c34)C2)c(=O)[n-]1 (nonaromatic ring conformer: 75.7766812838008 kcal/mol)

>  <smiles>  (2) 
Cc1cc(C)c(CNC(=O)C2(N)CCN(Cc3cccc4cccnc34)C2)c(=O)[nH]1

>  <score_type>  (2) 
oracle

>  <origin>  (2) 
adg

>  <m_score__min__energy>  (2) 
-11.869999999999999

>  <m_primary>  (2) 
energy

$$$$
2:0
     RDKit          3D

 77 77  0  0  0  0  0  0  0  0999 V2000
    0.4510   25.8010  -37.3780 C   0  0  0  0  0  0  0  0  0  0  0  0
    1.3610   24.6750  -37.5240 N   0  0  0  0  0  0  0  0  0  0  0  0
    1.5490   23.6980  -36.4970 C   0  0  0  0  0  0  0  0  0  0  0  0
    0.6250   23.4540  -35.6730 O   0  0  0  0  0  0  0  0  0  0  0  0
    2.8690   23.0050  -36.3720 C   0  0  0  0  0  0  0  0  0  0  0  0
    2.7320   21.6030  -36.7440 N   0  0  0  0  0  0  0  0  0  0  0  0
    3.2540   20.5320  -35.9530 C   0  0  0  0  0  0  0  0  0  0  0  0
    4.1650   19.7910  -36.4130 O   0  0  0  0  0  0  0  0  0  0  0  0
    2.6990   20.2690  -34.5770 C   0  0  2  0  0  0  0  0  0  0  0  0
    2.2000   18.8090  -34.4560 C   0  0  0  0  0  0  0  0  0  0  0  0
    1.6510   18.2080  -35.7840 C   0  0  0  0  0  0  0  0  0  0  0  0
    0.3340   18.8850  -36.1860 C   0  0  0  0  0  0  0  0  0  0  0  0
    1.4380   16.6920  -35.6660 C   0  0  0  0  0  0  0  0  0  0  0  0
    1.6170   21.2240  -34.2580 N   0  0  0  0  0  0  0  0  0  0  0  0
    0.5880   20.6540  -33.3690 C   0  0  0  0  0  0  0  0  0  0  0  0
   -0.8390   21.0160  -33.8170 C   0  0  0  0  0  0  0  0  0  0  0  0
   -1.8150   20.5020  -32.8590 N   0  0  0  0  0  0  0  0  0  0  0  0
   -3.1230   21.0370  -32.6050 C   0  0  0  0  0  0  0  0  0  0  0  0
   -3.2180   22.0240  -31.8290 O   0  0  0  0  0  0  0  0  0  0  0  0
   -4.3810   20.4040  -33.1650 C   0  0  1  0  0  0  0  0  0  0  0  0
   -4.1500   18.9090  -33.4790 C   0  0  0  0  0  0  0  0  0  0  0  0
   -5.3030   18.2650  -34.2620 C   0  0  0  0  0  0  0  0  0  0  0  0
   -6.3730   17.2990  -33.2080 S   0  0  0  0  0  0  0  0  0  0  0  0
   -5.8860   17.4580  -31.5050 C   0  0  0  0  0  0  0  0  0  0  0  0
   -7.9710   17.7830  -33.3960 O   0  0  0  0  0  0  0  0  0  0  0  0
   -5.5230   20.6290  -32.2720 N   0  0  0  0  0  0  0  0  0  0  0  0
   -6.9130   20.4240  -32.5620 C   0  0  0  0  0  0  0  0  0  0  0  0
   -7.3200   20.3360  -33.7520 O   0  0  0  0  0  0  0  0  0  0  0  0
   -7.8940   20.3200  -31.4280 C   0  0  2  0  0  0  0  0  0  0  0  0
   -9.0620   19.5430  -31.8540 N   0  0  0  0  0  0  0  0  0  0  0  0
   -8.3150   21.7310  -30.9740 C   0  0  0  0  0  0  0  0  0  0  0  0
   -7.1420   22.6790  -30.9360 C   0  0  0  0  0  0  0  0  0  0  0  0
   -6.2870   22.6990  -29.8230 C   0  0  0  0  0  0  0  0  0  0  0  0
   -5.2180   23.5990  -29.7700 C   0  0  0  0  0  0  0  0  0  0  0  0
   -4.9960   24.4900  -30.8260 C   0  0  0  0  0  0  0  0  0  0  0  0
   -3.9280   25.3830  -30.7590 O   0  0  0  0  0  0  0  0  0  0  0  0
   -5.8490   24.4790  -31.9370 C   0  0  0  0  0  0  0  0  0  0  0  0
   -6.9190   23.5790  -31.9910 C   0  0  0  0  0  0  0  0  0  0  0  0
    0.2871   26.0038  -36.3094 H   0  0  0  0  0  0  0  0  0  0  0  0
    0.8875   26.6897  -37.8571 H   0  0  0  0  0  0  0  0  0  0  0  0
   -0.5096   25.5607  -37.8571 H   0  0  0  0  0  0  0  0  0  0  0  0
    3.5991   23.4889  -37.0374 H   0  0  0  0  0  0  0  0  0  0  0  0
    3.2142   23.0703  -35.3296 H   0  0  0  0  0  0  0  0  0  0  0  0
    3.5086   20.4137  -33.8465 H   0  0  0  0  0  0  0  0  0  0  0  0
    3.0397   18.1848  -34.1164 H   0  0  0  0  0  0  0  0  0  0  0  0
    1.3612   18.8204  -33.7445 H   0  0  0  0  0  0  0  0  0  0  0  0
    2.4040   18.3952  -36.5637 H   0  0  0  0  0  0  0  0  0  0  0  0
   -0.2224   19.1710  -35.2812 H   0  0  0  0  0  0  0  0  0  0  0  0
    0.5507   19.7835  -36.7825 H   0  0  0  0  0  0  0  0  0  0  0  0
   -0.2705   18.1859  -36.7825 H   0  0  0  0  0  0  0  0  0  0  0  0
    1.3982   16.4089  -34.6038 H   0  0  0  0  0  0  0  0  0  0  0  0
    0.4922   16.4155  -36.1548 H   0  0  0  0  0  0  0  0  0  0  0  0
    2.2710   16.1655  -36.1548 H   0  0  0  0  0  0  0  0  0  0  0  0
    1.1620   21.5630  -35.1380 H   0  0  0  0  0  0  0  0  0  0  0  0
    0.6905   19.5588  -33.3665 H   0  0  0  0  0  0  0  0  0  0  0  0
    0.7415   21.0751  -32.3645 H   0  0  0  0  0  0  0  0  0  0  0  0
   -0.9333   22.1101  -33.8800 H   0  0  0  0  0  0  0  0  0  0  0  0
   -1.0311   20.5648  -34.8017 H   0  0  0  0  0  0  0  0  0  0  0  0
   -4.6286   20.8923  -34.1191 H   0  0  0  0  0  0  0  0  0  0  0  0
   -3.2296   18.8159  -34.0741 H   0  0  0  0  0  0  0  0  0  0  0  0
   -4.0776   18.3824  -32.5160 H   0  0  0  0  0  0  0  0  0  0  0  0
   -5.8966   19.0598  -34.7373 H   0  0  0  0  0  0  0  0  0  0  0  0
   -4.8671   17.5895  -35.0128 H   0  0  0  0  0  0  0  0  0  0  0  0
   -6.7297   17.1825  -30.8551 H   0  0  0  0  0  0  0  0  0  0  0  0
   -5.0348   16.7911  -31.3033 H   0  0  0  0  0  0  0  0  0  0  0  0
   -5.5923   18.4987  -31.3033 H   0  0  0  0  0  0  0  0  0  0  0  0
   -7.9250   18.7600  -33.5520 H   0  0  0  0  0  0  0  0  0  0  0  0
   -7.4217   19.8050  -30.5785 H   0  0  0  0  0  0  0  0  0  0  0  0
   -8.9060   18.5420  -31.5940 H   0  0  0  0  0  0  0  0  0  0  0  0
   -9.1060   19.5570  -32.9000 H   0  0  0  0  0  0  0  0  0  0  0  0
   -9.0664   22.1218  -31.6759 H   0  0  0  0  0  0  0  0  0  0  0  0
   -8.7270   21.6549  -29.9569 H   0  0  0  0  0  0  0  0  0  0  0  0
   -6.4587   22.0033  -28.9884 H   0  0  0  0  0  0  0  0  0  0  0  0
   -4.5500   23.6066  -28.8961 H   0  0  0  0  0  0  0  0  0  0  0  0
   -3.4170   25.6610  -31.5880 H   0  0  0  0  0  0  0  0  0  0  0  0
   -5.6774   25.1788  -32.7681 H   0  0  0  0  0  0  0  0  0  0  0  0
   -7.5886   23.5763  -32.8637 H   0  0  0  0  0  0  0  0  0  0  0  0
  1  2  1  0
  2  3  1  0
  3  4  2  0
  3  5  1  0
  5  6  1  0
  6  7  1  0
  7  8  2  0
  7  9  1  0
  9 10  1  0
 10 11  1  0
 11 12  1  0
 11 13  1  0
  9 14  1  0
 14 15  1  0
 15 16  1  0
 16 17  1  0
 17 18  1  0
 18 19  2  0
 18 20  1  0
 20 21  1  0
 21 22  1  0
 22 23  1  0
 23 24  1  0
 23 25  1  1
 20 26  1  0
 26 27  1  0
 27 28  2  0
 27 29  1  0
 29 30  1  0
 29 31  1  0
 31 32  1  0
 32 33  2  0
 33 34  1  0
 34 35  2  0
 35 36  1  0
 35 37  1  0
 37 38  2  0
 38 32  1  0
  1 39  1  0
  1 40  1  0
  1 41  1  0
  5 42  1  0
  5 43  1  0
  9 44  1  1
 10 45  1  0
 10 46  1  0
 11 47  1  0
 12 48  1  0
 12 49  1  0
 12 50  1  0
 13 51  1  0
 13 52  1  0
 13 53  1  0
 14 54  1  0
 15 55  1  0
 15 56  1  0
 16 57  1  0
 16 58  1  0
 20 59  1  6
 21 60  1  0
 21 61  1  0
 22 62  1  0
 22 63  1  0
 24 64  1  0
 24 65  1  0
 24 66  1  0
 25 67  1  0
 29 68  1  1
 30 69  1  0
 30 70  1  0
 31 71  1  0
 31 72  1  0
 33 73  1  0
 34 74  1  0
 36 75  1  0
 37 76  1  0
 38 77  1  0
M  CHG  5   2  -1   6  -1  17  -1  23   1  26  -1
M  END
>  <UniqueID>  (3) 
3

>  <SMILES>  (3) 
C[N-]C(=O)C[N-]C(=O)[C@H](CC(C)C)NCC[N-]C(=O)[C@@H](CC[S+](C)O)[N-]C(=O)C(N)Cc1ccc(O)cc1

>  <Energy>  (3) 
50.29572316502966

>  <Genealogy>  (3) 
C[N-]C(=O)C[N-]C(=O)C(CC(C)C)NCC[N-]C(=O)C(CC[S+](C)O)[N-]C(=O)C(N)Cc1ccc(O)cc1 (protonated)
C[N-]C(=O)C[N-]C(=O)[C@H](CC(C)C)NCC[N-]C(=O)[C@@H](CC[S+](C)O)[N-]C(=O)C(N)Cc1ccc(O)cc1 (chirality)
C[N-]C(=O)C[N-]C(=O)[C@H](CC(C)C)NCC[N-]C(=O)[C@@H](CC[S+](C)O)[N-]C(=O)C(N)Cc1ccc(O)cc1 (3D coordinates assigned)
C[N-]C(=O)C[N-]C(=O)[C@H](CC(C)C)NCC[N-]C(=O)[C@@H](CC[S+](C)O)[N-]C(=O)C(N)Cc1ccc(O)cc1 (optimized conformer: 50.29572316502966 kcal/mol)

>  <smiles>  (3) 
CNC(=O)CNC(=O)C(CC(C)C)NCCNC(=O)C(CC[S+](C)[O-])NC(=O)C(N)Cc1ccc(O)cc1

>  <score_type>  (3) 
oracle

>  <origin>  (3) 
adg

>  <m_score__min__energy>  (3) 
-10.050000000000001

>  <m_primary>  (3) 
energy

$$$$
3:0
     RDKit          3D

 49 52  0  0  0  0  0  0  0  0999 V2000
   -9.6070   19.6840  -33.0880 C   0  0  0  0  0  0  0  0  0  0  0  0
   -8.6670   19.8860  -31.8790 C   0  0  0  0  0  0  0  0  0  0  0  0
   -8.7960   18.6560  -30.9550 C   0  0  0  0  0  0  0  0  0  0  0  0
   -7.1920   19.9960  -32.3810 C   0  0  0  0  0  0  0  0  0  0  0  0
   -6.7380   21.4480  -32.5630 C   0  0  0  0  0  0  0  0  0  0  0  0
   -6.8550   22.1750  -31.2900 N   0  0  0  0  0  0  0  0  0  0  0  0
   -5.9440   23.2540  -30.9960 C   0  0  0  0  0  0  0  0  0  0  0  0
   -4.6160   23.0050  -30.6150 C   0  0  0  0  0  0  0  0  0  0  0  0
   -3.7770   24.0910  -30.3250 C   0  0  0  0  0  0  0  0  0  0  0  0
   -2.4380   23.9120  -29.9470 O   0  0  0  0  0  0  0  0  0  0  0  0
   -1.8610   22.6950  -29.5490 C   0  0  0  0  0  0  0  0  0  0  0  0
   -1.9720   22.2150  -28.2330 C   0  0  0  0  0  0  0  0  0  0  0  0
   -1.3740   21.0050  -27.8720 C   0  0  0  0  0  0  0  0  0  0  0  0
   -0.6440   20.2570  -28.8130 C   0  0  0  0  0  0  0  0  0  0  0  0
   -0.0280   19.0070  -28.4410 N   0  0  0  0  0  0  0  0  0  0  0  0
    1.0580   18.4370  -28.9970 C   0  0  0  0  0  0  0  0  0  0  0  0
    1.3030   17.2540  -28.3390 C   0  0  0  0  0  0  0  0  0  0  0  0
    0.3790   17.0720  -27.3740 N   0  0  0  0  0  0  0  0  0  0  0  0
   -0.4140   18.1590  -27.4640 C   0  0  0  0  0  0  0  0  0  0  0  0
   -0.5190   20.7560  -30.1230 C   0  0  0  0  0  0  0  0  0  0  0  0
   -1.1180   21.9670  -30.4820 C   0  0  0  0  0  0  0  0  0  0  0  0
   -4.2550   25.3550  -30.4580 N   0  0  0  0  0  0  0  0  0  0  0  0
   -5.5370   25.5860  -30.8390 C   0  0  0  0  0  0  0  0  0  0  0  0
   -6.3670   24.5450  -31.1010 N   0  0  0  0  0  0  0  0  0  0  0  0
   -7.9540   21.8450  -30.3640 C   0  0  0  0  0  0  0  0  0  0  0  0
   -9.1110   21.1660  -31.1060 C   0  0  0  0  0  0  0  0  0  0  0  0
  -10.6237   19.4655  -32.7295 H   0  0  0  0  0  0  0  0  0  0  0  0
   -9.6220   20.5994  -33.6977 H   0  0  0  0  0  0  0  0  0  0  0  0
   -9.2446   18.8432  -33.6977 H   0  0  0  0  0  0  0  0  0  0  0  0
   -8.7619   18.9812  -29.9047 H   0  0  0  0  0  0  0  0  0  0  0  0
   -9.7523   18.1489  -31.1509 H   0  0  0  0  0  0  0  0  0  0  0  0
   -7.9658   17.9615  -31.1509 H   0  0  0  0  0  0  0  0  0  0  0  0
   -6.5328   19.5102  -31.6465 H   0  0  0  0  0  0  0  0  0  0  0  0
   -7.1370   19.5042  -33.3634 H   0  0  0  0  0  0  0  0  0  0  0  0
   -5.6897   21.4629  -32.8959 H   0  0  0  0  0  0  0  0  0  0  0  0
   -7.3756   21.9339  -33.3162 H   0  0  0  0  0  0  0  0  0  0  0  0
   -4.2391   21.9739  -30.5450 H   0  0  0  0  0  0  0  0  0  0  0  0
   -2.5320   22.7942  -27.4840 H   0  0  0  0  0  0  0  0  0  0  0  0
   -1.4752   20.6337  -26.8415 H   0  0  0  0  0  0  0  0  0  0  0  0
    1.6464   18.8459  -29.8316 H   0  0  0  0  0  0  0  0  0  0  0  0
    2.1273   16.5618  -28.5656 H   0  0  0  0  0  0  0  0  0  0  0  0
   -1.2819   18.3357  -26.8116 H   0  0  0  0  0  0  0  0  0  0  0  0
    0.0547   20.1885  -30.8705 H   0  0  0  0  0  0  0  0  0  0  0  0
   -1.0036   22.3498  -31.5069 H   0  0  0  0  0  0  0  0  0  0  0  0
   -5.9037   26.6186  -30.9355 H   0  0  0  0  0  0  0  0  0  0  0  0
   -7.5771   21.1650  -29.5859 H   0  0  0  0  0  0  0  0  0  0  0  0
   -8.3251   22.7773  -29.9135 H   0  0  0  0  0  0  0  0  0  0  0  0
   -9.8811   20.8841  -30.3728 H   0  0  0  0  0  0  0  0  0  0  0  0
   -9.4947   21.8830  -31.8467 H   0  0  0  0  0  0  0  0  0  0  0  0
  1  2  1  0
  2  3  1  0
  2  4  1  0
  4  5  1  0
  5  6  1  0
  6  7  1  0
  7  8  2  0
  8  9  1  0
  9 10  1  0
 10 11  1  0
 11 12  2  0
 12 13  1  0
 13 14  2  0
 14 15  1  0
 15 16  1  0
 16 17  2  0
 17 18  1  0
 18 19  2  0
 14 20  1  0
 20 21  2  0
  9 22  2  0
 22 23  1  0
 23 24  2  0
  6 25  1  0
 25 26  1  0
 26  2  1  0
 24  7  1  0
 21 11  1  0
 19 15  1  0
  1 27  1  0
  1 28  1  0
  1 29  1  0
  3 30  1  0
  3 31  1  0
  3 32  1  0
  4 33  1  0
  4 34  1  0
  5 35  1  0
  5 36  1  0
  8 37  1  0
 12 38  1  0
 13 39  1  0
 16 40  1  0
 17 41  1  0
 19 42  1  0
 20 43  1  0
 21 44  1  0
 23 45  1  0
 25 46  1  0
 25 47  1  0
 26 48  1  0
 26 49  1  0
M  END
>  <UniqueID>  (4) 
4

>  <SMILES>  (4) 
CC1(C)CCN(c2cc(Oc3ccc(-n4ccnc4)cc3)ncn2)CC1

>  <Energy>  (4) 
94.79618269876256

>  <Genealogy>  (4) 
CC1(C)CCN(c2cc(Oc3ccc(-n4ccnc4)cc3)ncn2)CC1 (3D coordinates assigned)
CC1(C)CCN(c2cc(Oc3ccc(-n4ccnc4)cc3)ncn2)CC1 (nonaromatic ring conformer: 94.79618269876256 kcal/mol)

>  <smiles>  (4) 
CC1(C)CCN(c2cc(Oc3ccc(-n4ccnc4)cc3)ncn2)CC1

>  <score_type>  (4) 
oracle

>  <origin>  (4) 
adg

>  <m_score__min__energy>  (4) 
-8.3399999999999999

>  <m_primary>  (4) 
energy

$$$$
4:0
     RDKit          3D

 38 40  0  0  0  0  0  0  0  0999 V2000
   -9.0450   19.4020  -31.6350 C   0  0  0  0  0  0  0  0  0  0  0  0
   -8.6000   20.8190  -31.8030 C   0  0  0  0  0  0  0  0  0  0  0  0
   -9.4490   21.8620  -31.8840 N   0  0  0  0  0  0  0  0  0  0  0  0
   -8.7120   22.9500  -32.0460 N   0  0  0  0  0  0  0  0  0  0  0  0
   -7.4260   22.5540  -32.0670 C   0  0  0  0  0  0  0  0  0  0  0  0
   -6.0480   23.6890  -32.2790 S   0  0  0  0  0  0  0  0  0  0  0  0
   -6.3150   24.5410  -30.6870 C   0  0  0  0  0  0  0  0  0  0  0  0
   -5.2470   25.5770  -30.4720 C   0  0  0  0  0  0  0  0  0  0  0  0
   -5.5800   26.7890  -30.4070 O   0  0  0  0  0  0  0  0  0  0  0  0
   -3.8540   25.2400  -30.4710 N   0  0  0  0  0  0  0  0  0  0  0  0
   -3.2630   24.1410  -29.7690 C   0  0  0  0  0  0  0  0  0  0  0  0
   -2.8540   22.9800  -30.4470 C   0  0  0  0  0  0  0  0  0  0  0  0
   -2.3170   21.9040  -29.7350 C   0  0  0  0  0  0  0  0  0  0  0  0
   -2.1770   21.9820  -28.3450 C   0  0  0  0  0  0  0  0  0  0  0  0
   -1.4130   20.5240  -27.3790 Br  0  0  0  0  0  0  0  0  0  0  0  0
   -2.6040   23.1260  -27.6660 C   0  0  0  0  0  0  0  0  0  0  0  0
   -3.1630   24.1940  -28.3740 C   0  0  0  0  0  0  0  0  0  0  0  0
   -7.3160   21.2180  -31.9170 N   0  0  0  0  0  0  0  0  0  0  0  0
   -6.0990   20.4100  -31.8030 C   0  0  0  0  0  0  0  0  0  0  0  0
   -6.0360   19.3810  -32.8870 C   0  0  0  0  0  0  0  0  0  0  0  0
   -6.2140   18.0240  -32.7130 C   0  0  0  0  0  0  0  0  0  0  0  0
   -6.0370   17.4640  -33.9570 C   0  0  0  0  0  0  0  0  0  0  0  0
   -5.7560   18.5100  -34.8120 C   0  0  0  0  0  0  0  0  0  0  0  0
   -5.7580   19.6410  -34.1440 O   0  0  0  0  0  0  0  0  0  0  0  0
   -9.1192   19.1656  -30.5633 H   0  0  0  0  0  0  0  0  0  0  0  0
  -10.0285   19.2679  -32.1090 H   0  0  0  0  0  0  0  0  0  0  0  0
   -8.3147   18.7297  -32.1090 H   0  0  0  0  0  0  0  0  0  0  0  0
   -7.3002   25.0302  -30.6965 H   0  0  0  0  0  0  0  0  0  0  0  0
   -6.2720   23.8039  -29.8716 H   0  0  0  0  0  0  0  0  0  0  0  0
   -2.9567   22.9180  -31.5404 H   0  0  0  0  0  0  0  0  0  0  0  0
   -2.0039   20.9943  -30.2682 H   0  0  0  0  0  0  0  0  0  0  0  0
   -2.5002   23.1864  -26.5726 H   0  0  0  0  0  0  0  0  0  0  0  0
   -3.5259   25.0799  -27.8323 H   0  0  0  0  0  0  0  0  0  0  0  0
   -5.2213   21.0685  -31.8805 H   0  0  0  0  0  0  0  0  0  0  0  0
   -6.1095   19.8952  -30.8309 H   0  0  0  0  0  0  0  0  0  0  0  0
   -6.4485   17.4993  -31.7751 H   0  0  0  0  0  0  0  0  0  0  0  0
   -6.1056   16.3975  -34.2176 H   0  0  0  0  0  0  0  0  0  0  0  0
   -5.5600   18.4116  -35.8899 H   0  0  0  0  0  0  0  0  0  0  0  0
  1  2  1  0
  2  3  2  0
  3  4  1  0
  4  5  2  0
  5  6  1  0
  6  7  1  0
  7  8  1  0
  8  9  2  0
  8 10  1  0
 10 11  1  0
 11 12  2  0
 12 13  1  0
 13 14  2  0
 14 15  1  0
 14 16  1  0
 16 17  2  0
  5 18  1  0
 18 19  1  0
 19 20  1  0
 20 21  2  0
 21 22  1  0
 22 23  2  0
 23 24  1  0
 18  2  1  0
 24 20  1  0
 17 11  1  0
  1 25  1  0
  1 26  1  0
  1 27  1  0
  7 28  1  0
  7 29  1  0
 12 30  1  0
 13 31  1  0
 16 32  1  0
 17 33  1  0
 19 34  1  0
 19 35  1  0
 21 36  1  0
 22 37  1  0
 23 38  1  0
M  CHG  1  10  -1
M  END
>  <UniqueID>  (5) 
5

>  <SMILES>  (5) 
Cc1nnc(SCC(=O)[N-]c2ccc(Br)cc2)n1Cc1ccco1

>  <Energy>  (5) 
94.46054087959514

>  <Genealogy>  (5) 
Cc1nnc(SCC(=O)[N-]c2ccc(Br)cc2)n1Cc1ccco1 (protonated)
Cc1nnc(SCC(=O)[N-]c2ccc(Br)cc2)n1Cc1ccco1 (3D coordinates assigned)
Cc1nnc(SCC(=O)[N-]c2ccc(Br)cc2)n1Cc1ccco1 (optimized conformer: 94.46054087959514 kcal/mol)

>  <smiles>  (5) 
Cc1nnc(SCC(=O)Nc2ccc(Br)cc2)n1Cc1ccco1

>  <score_type>  (5) 
oracle

>  <origin>  (5) 
adg

>  <m_score__min__energy>  (5) 
-10.09

>  <m_primary>  (5) 
energy

$$$$
5:0
     RDKit          3D

 47 49  0  0  0  0  0  0  0  0999 V2000
   -6.1790   15.2790  -33.8740 C   0  0  0  0  0  0  0  0  0  0  0  0
   -6.0600   16.7070  -33.4280 C   0  0  0  0  0  0  0  0  0  0  0  0
   -7.2110   17.4850  -33.2590 C   0  0  0  0  0  0  0  0  0  0  0  0
   -7.1130   18.8350  -32.8880 C   0  0  0  0  0  0  0  0  0  0  0  0
   -8.3670   19.6450  -32.6990 C   0  0  0  0  0  0  0  0  0  0  0  0
   -5.8410   19.4120  -32.6770 C   0  0  0  0  0  0  0  0  0  0  0  0
   -5.7400   20.7910  -32.2840 N   0  0  0  0  0  0  0  0  0  0  0  0
   -4.9000   21.7070  -33.0670 C   0  0  0  0  0  0  0  0  0  0  0  0
   -4.1660   22.6830  -32.1390 C   0  0  0  0  0  0  0  0  0  0  0  0
   -5.0520   23.2140  -31.0940 N   0  0  0  0  0  0  0  0  0  0  0  0
   -4.5270   24.1830  -30.1740 C   0  0  0  0  0  0  0  0  0  0  0  0
   -3.8600   25.1600  -30.6140 O   0  0  0  0  0  0  0  0  0  0  0  0
   -4.6160   23.9740  -28.6910 C   0  0  0  0  0  0  0  0  0  0  0  0
   -3.3180   24.3530  -28.0570 C   0  0  0  0  0  0  0  0  0  0  0  0
   -3.1570   24.8640  -26.7730 C   0  0  0  0  0  0  0  0  0  0  0  0
   -1.8340   25.2230  -26.4880 C   0  0  0  0  0  0  0  0  0  0  0  0
   -0.9570   25.0130  -27.5470 C   0  0  0  0  0  0  0  0  0  0  0  0
   -1.8280   24.3790  -28.8390 S   0  0  0  0  0  0  0  0  0  0  0  0
   -6.4610   22.8060  -31.0440 C   0  0  0  0  0  0  0  0  0  0  0  0
   -6.5610   21.2840  -31.1700 C   0  0  0  0  0  0  0  0  0  0  0  0
   -4.6770   18.6270  -32.8430 C   0  0  0  0  0  0  0  0  0  0  0  0
   -3.2990   19.2060  -32.6660 C   0  0  0  0  0  0  0  0  0  0  0  0
   -4.7990   17.2870  -33.2430 C   0  0  0  0  0  0  0  0  0  0  0  0
   -6.2337   14.6230  -32.9927 H   0  0  0  0  0  0  0  0  0  0  0  0
   -7.0903   15.1583  -34.4781 H   0  0  0  0  0  0  0  0  0  0  0  0
   -5.3002   15.0091  -34.4781 H   0  0  0  0  0  0  0  0  0  0  0  0
   -8.2017   17.0342  -33.4184 H   0  0  0  0  0  0  0  0  0  0  0  0
   -8.5631   19.7717  -31.6241 H   0  0  0  0  0  0  0  0  0  0  0  0
   -8.2400   20.6322  -33.1674 H   0  0  0  0  0  0  0  0  0  0  0  0
   -9.2146   19.1233  -33.1674 H   0  0  0  0  0  0  0  0  0  0  0  0
   -4.1617   21.1241  -33.6372 H   0  0  0  0  0  0  0  0  0  0  0  0
   -5.5403   22.2801  -33.7537 H   0  0  0  0  0  0  0  0  0  0  0  0
   -3.3270   22.1565  -31.6606 H   0  0  0  0  0  0  0  0  0  0  0  0
   -3.8085   23.5280  -32.7457 H   0  0  0  0  0  0  0  0  0  0  0  0
   -5.4216   24.6001  -28.2800 H   0  0  0  0  0  0  0  0  0  0  0  0
   -4.8316   22.9158  -28.4817 H   0  0  0  0  0  0  0  0  0  0  0  0
   -3.9837   24.9746  -26.0558 H   0  0  0  0  0  0  0  0  0  0  0  0
   -1.5178   25.6328  -25.5174 H   0  0  0  0  0  0  0  0  0  0  0  0
    0.1223   25.2253  -27.5407 H   0  0  0  0  0  0  0  0  0  0  0  0
   -6.9000   23.1235  -30.0867 H   0  0  0  0  0  0  0  0  0  0  0  0
   -7.0069   23.2774  -31.8745 H   0  0  0  0  0  0  0  0  0  0  0  0
   -6.2120   20.8223  -30.2346 H   0  0  0  0  0  0  0  0  0  0  0  0
   -7.6104   21.0175  -31.3644 H   0  0  0  0  0  0  0  0  0  0  0  0
   -3.0757   19.2998  -31.5930 H   0  0  0  0  0  0  0  0  0  0  0  0
   -2.5592   18.5426  -33.1378 H   0  0  0  0  0  0  0  0  0  0  0  0
   -3.2550   20.1987  -33.1378 H   0  0  0  0  0  0  0  0  0  0  0  0
   -3.8937   16.6857  -33.4131 H   0  0  0  0  0  0  0  0  0  0  0  0
  1  2  1  0
  2  3  2  0
  3  4  1  0
  4  5  1  0
  4  6  2  0
  6  7  1  0
  7  8  1  0
  8  9  1  0
  9 10  1  0
 10 11  1  0
 11 12  2  0
 11 13  1  0
 13 14  1  0
 14 15  2  0
 15 16  1  0
 16 17  2  0
 17 18  1  0
 10 19  1  0
 19 20  1  0
  6 21  1  0
 21 22  1  0
 21 23  2  0
 23  2  1  0
 20  7  1  0
 18 14  1  0
  1 24  1  0
  1 25  1  0
  1 26  1  0
  3 27  1  0
  5 28  1  0
  5 29  1  0
  5 30  1  0
  8 31  1  0
  8 32  1  0
  9 33  1  0
  9 34  1  0
 13 35  1  0
 13 36  1  0
 15 37  1  0
 16 38  1  0
 17 39  1  0
 19 40  1  0
 19 41  1  0
 20 42  1  0
 20 43  1  0
 22 44  1  0
 22 45  1  0
 22 46  1  0
 23 47  1  0
M  END
>  <UniqueID>  (6) 
6

>  <SMILES>  (6) 
Cc1cc(C)c(N2CCN(C(=O)Cc3cccs3)CC2)c(C)c1

>  <Energy>  (6) 
77.65612876655274

>  <Genealogy>  (6) 
Cc1cc(C)c(N2CCN(C(=O)Cc3cccs3)CC2)c(C)c1 (3D coordinates assigned)
Cc1cc(C)c(N2CCN(C(=O)Cc3cccs3)CC2)c(C)c1 (nonaromatic ring conformer: 77.65612876655274 kcal/mol)

>  <smiles>  (6) 
Cc1cc(C)c(N2CCN(C(=O)Cc3cccs3)CC2)c(C)c1

>  <score_type>  (6) 
oracle

>  <origin>  (6) 
adg

>  <m_score__min__energy>  (6) 
-8.6799999999999997

>  <m_primary>  (6) 
energy

$$$$
6:0
     RDKit          3D

 32 34  0  0  0  0  0  0  0  0999 V2000
   -9.4880   21.6790  -31.7690 C   0  0  0  0  0  0  0  0  0  0  0  0
   -8.5590   20.5420  -32.0510 C   0  0  0  0  0  0  0  0  0  0  0  0
   -9.0340   19.2260  -32.0580 C   0  0  0  0  0  0  0  0  0  0  0  0
   -8.1500   18.1830  -32.3390 C   0  0  0  0  0  0  0  0  0  0  0  0
   -6.8080   18.4580  -32.6050 C   0  0  0  0  0  0  0  0  0  0  0  0
   -6.3550   19.7900  -32.5800 C   0  0  0  0  0  0  0  0  0  0  0  0
   -4.9460   20.1580  -32.8630 C   0  0  0  0  0  0  0  0  0  0  0  0
   -4.4200   21.4250  -32.5540 C   0  0  0  0  0  0  0  0  0  0  0  0
   -3.0880   21.7100  -32.8550 C   0  0  0  0  0  0  0  0  0  0  0  0
   -2.2800   20.7480  -33.4780 C   0  0  0  0  0  0  0  0  0  0  0  0
   -0.8650   21.0530  -33.7870 C   0  0  0  0  0  0  0  0  0  0  0  0
   -0.4620   21.9330  -34.7200 N   0  0  0  0  0  0  0  0  0  0  0  0
    0.8390   21.9300  -34.7110 O   0  0  0  0  0  0  0  0  0  0  0  0
    1.3420   21.0990  -33.8430 N   0  0  0  0  0  0  0  0  0  0  0  0
    0.2880   20.5140  -33.2400 C   0  0  0  0  0  0  0  0  0  0  0  0
    0.4140   19.4620  -32.1860 C   0  0  0  0  0  0  0  0  0  0  0  0
   -2.8410   19.4960  -33.7700 C   0  0  0  0  0  0  0  0  0  0  0  0
   -4.1400   19.2400  -33.4620 N   0  0  0  0  0  0  0  0  0  0  0  0
   -7.2460   20.7860  -32.3140 N   0  0  0  0  0  0  0  0  0  0  0  0
   -9.5921   21.8064  -30.6814 H   0  0  0  0  0  0  0  0  0  0  0  0
   -9.0822   22.6019  -32.2091 H   0  0  0  0  0  0  0  0  0  0  0  0
  -10.4732   21.4653  -32.2091 H   0  0  0  0  0  0  0  0  0  0  0  0
  -10.0924   19.0156  -31.8444 H   0  0  0  0  0  0  0  0  0  0  0  0
   -8.5113   17.1441  -32.3508 H   0  0  0  0  0  0  0  0  0  0  0  0
   -6.1093   17.6394  -32.8326 H   0  0  0  0  0  0  0  0  0  0  0  0
   -5.0549   22.1867  -32.0779 H   0  0  0  0  0  0  0  0  0  0  0  0
   -2.6690   22.6952  -32.6022 H   0  0  0  0  0  0  0  0  0  0  0  0
   -1.0570   22.5330  -35.3340 H   0  0  0  0  0  0  0  0  0  0  0  0
    0.3579   19.9301  -31.1922 H   0  0  0  0  0  0  0  0  0  0  0  0
   -0.4034   18.7340  -32.2950 H   0  0  0  0  0  0  0  0  0  0  0  0
    1.3802   18.9476  -32.2950 H   0  0  0  0  0  0  0  0  0  0  0  0
   -2.2279   18.7189  -34.2497 H   0  0  0  0  0  0  0  0  0  0  0  0
  1  2  1  0
  2  3  2  0
  3  4  1  0
  4  5  2  0
  5  6  1  0
  6  7  1  0
  7  8  2  0
  8  9  1  0
  9 10  2  0
 10 11  1  0
 11 12  2  0
 12 13  1  0
 13 14  1  0
 14 15  2  0
 15 16  1  0
 10 17  1  0
 17 18  2  0
  6 19  2  0
 19  2  1  0
 18  7  1  0
 15 11  1  0
  1 20  1  0
  1 21  1  0
  1 22  1  0
  3 23  1  0
  4 24  1  0
  5 25  1  0
  8 26  1  0
  9 27  1  0
 12 28  1  0
 16 29  1  0
 16 30  1  0
 16 31  1  0
 17 32  1  0
M  CHG  1  12   1
M  END
>  <UniqueID>  (7) 
7

>  <SMILES>  (7) 
Cc1cccc(-c2ccc(-c3[nH+]onc3C)cn2)n1

>  <Energy>  (7) 
75.86901757120555

>  <Genealogy>  (7) 
Cc1cccc(-c2ccc(-c3[nH+]onc3C)cn2)n1 (protonated)
Cc1cccc(-c2ccc(-c3[nH+]onc3C)cn2)n1 (3D coordinates assigned)
Cc1cccc(-c2ccc(-c3[nH+]onc3C)cn2)n1 (optimized conformer: 75.86901757120555 kcal/mol)

>  <smiles>  (7) 
Cc1cccc(-c2ccc(-c3nonc3C)cn2)n1

>  <score_type>  (7) 
oracle

>  <origin>  (7) 
adg

>  <m_score__min__energy>  (7) 
-7.3799999999999999

>  <m_primary>  (7) 
energy

$$$$
7:0
     RDKit          3D

 52 54  0  0  0  0  0  0  0  0999 V2000
   -2.9417   19.5893  -31.2831 H   0  0  0  0  0  0  0  0  0  0  0  0
   -3.2630   20.0220  -32.2420 C   0  0  0  0  0  0  0  0  0  0  0  0
   -2.9660   21.3050  -32.4870 C   0  0  0  0  0  0  0  0  0  0  0  0
   -1.9215   21.6433  -32.4192 H   0  0  0  0  0  0  0  0  0  0  0  0
   -4.0410   22.2870  -32.8530 C   0  0  0  0  0  0  0  0  0  0  0  0
   -4.8446   21.7605  -33.3887 H   0  0  0  0  0  0  0  0  0  0  0  0
   -3.6052   23.0679  -33.4936 H   0  0  0  0  0  0  0  0  0  0  0  0
   -4.6010   22.9230  -31.6380 N   0  0  0  0  0  0  0  0  0  0  0  0
   -5.3670   21.9290  -30.8440 C   0  0  0  0  0  0  0  0  0  0  0  0
   -4.8996   20.9403  -30.9622 H   0  0  0  0  0  0  0  0  0  0  0  0
   -5.3539   22.2446  -29.7903 H   0  0  0  0  0  0  0  0  0  0  0  0
   -6.8110   21.8490  -31.2990 C   0  0  0  0  0  0  0  0  0  0  0  0
   -7.5100   23.0500  -31.5120 C   0  0  0  0  0  0  0  0  0  0  0  0
   -7.0151   24.0100  -31.3034 H   0  0  0  0  0  0  0  0  0  0  0  0
   -8.8220   23.0410  -31.9840 C   0  0  0  0  0  0  0  0  0  0  0  0
   -9.3536   23.9909  -32.1421 H   0  0  0  0  0  0  0  0  0  0  0  0
   -9.4620   21.8350  -32.2560 C   0  0  0  0  0  0  0  0  0  0  0  0
  -10.4953   21.8369  -32.6331 H   0  0  0  0  0  0  0  0  0  0  0  0
   -8.7970   20.6190  -32.0520 C   0  0  0  0  0  0  0  0  0  0  0  0
   -9.4470   19.4080  -32.3340 C   0  0  0  0  0  0  0  0  0  0  0  0
  -10.4786   19.4170  -32.7157 H   0  0  0  0  0  0  0  0  0  0  0  0
   -8.7920   18.1920  -32.1330 C   0  0  0  0  0  0  0  0  0  0  0  0
   -9.3058   17.2468  -32.3622 H   0  0  0  0  0  0  0  0  0  0  0  0
   -7.4870   18.1740  -31.6420 C   0  0  0  0  0  0  0  0  0  0  0  0
   -6.9755   17.2136  -31.4809 H   0  0  0  0  0  0  0  0  0  0  0  0
   -6.8270   19.3700  -31.3540 C   0  0  0  0  0  0  0  0  0  0  0  0
   -5.7999   19.3433  -30.9611 H   0  0  0  0  0  0  0  0  0  0  0  0
   -7.4620   20.6120  -31.5610 C   0  0  0  0  0  0  0  0  0  0  0  0
   -3.5380   23.5790  -30.8310 C   0  0  0  0  0  0  0  0  0  0  0  0
   -2.8386   24.0913  -31.5081 H   0  0  0  0  0  0  0  0  0  0  0  0
   -3.0177   22.8055  -30.2471 H   0  0  0  0  0  0  0  0  0  0  0  0
   -4.1340   24.6080  -29.8530 C   0  0  0  0  0  0  0  0  0  0  0  0
   -3.3348   25.3013  -29.5518 H   0  0  0  0  0  0  0  0  0  0  0  0
   -4.5450   24.0391  -29.0060 H   0  0  0  0  0  0  0  0  0  0  0  0
   -5.2930   25.4320  -30.4370 C   0  0  0  0  0  0  0  0  0  0  0  0
   -5.6797   24.9134  -31.3267 H   0  0  0  0  0  0  0  0  0  0  0  0
   -4.8990   26.4286  -30.6849 H   0  0  0  0  0  0  0  0  0  0  0  0
   -6.4400   25.6240  -29.4470 C   0  0  0  0  0  0  0  0  0  0  0  0
   -6.0523   25.5591  -28.4196 H   0  0  0  0  0  0  0  0  0  0  0  0
   -6.8986   26.6114  -29.6042 H   0  0  0  0  0  0  0  0  0  0  0  0
   -7.1952   24.8398  -29.6042 H   0  0  0  0  0  0  0  0  0  0  0  0
   -3.9990   19.1530  -33.1880 C   0  0  0  0  0  0  0  0  0  0  0  0
   -3.5300   17.8460  -33.4030 C   0  0  0  0  0  0  0  0  0  0  0  0
   -2.6360   17.4921  -32.8686 H   0  0  0  0  0  0  0  0  0  0  0  0
   -4.1910   16.9920  -34.2910 C   0  0  0  0  0  0  0  0  0  0  0  0
   -3.8114   15.9732  -34.4581 H   0  0  0  0  0  0  0  0  0  0  0  0
   -5.3320   17.4300  -34.9660 C   0  0  0  0  0  0  0  0  0  0  0  0
   -5.8486   16.7582  -35.6673 H   0  0  0  0  0  0  0  0  0  0  0  0
   -5.8170   18.7220  -34.7500 C   0  0  0  0  0  0  0  0  0  0  0  0
   -6.7189   19.0647  -35.2782 H   0  0  0  0  0  0  0  0  0  0  0  0
   -5.1590   19.5810  -33.8640 C   0  0  0  0  0  0  0  0  0  0  0  0
   -5.5488   20.5955  -33.6940 H   0  0  0  0  0  0  0  0  0  0  0  0
  1  2  1  0
  2  3  2  0
  3  4  1  0
  3  5  1  0
  5  6  1  0
  5  7  1  0
  5  8  1  0
  8  9  1  0
  9 10  1  0
  9 11  1  0
  9 12  1  0
 12 13  2  0
 13 14  1  0
 13 15  1  0
 15 16  1  0
 15 17  2  0
 17 18  1  0
 17 19  1  0
 19 20  2  0
 20 21  1  0
 20 22  1  0
 22 23  1  0
 22 24  2  0
 24 25  1  0
 24 26  1  0
 26 27  1  0
 26 28  2  0
  8 29  1  0
 29 30  1  0
 29 31  1  0
 29 32  1  0
 32 33  1  0
 32 34  1  0
 32 35  1  0
 35 36  1  0
 35 37  1  0
 35 38  1  0
 38 39  1  0
 38 40  1  0
 38 41  1  0
  2 42  1  0
 42 43  2  0
 43 44  1  0
 43 45  1  0
 45 46  1  0
 45 47  2  0
 47 48  1  0
 47 49  1  0
 49 50  1  0
 49 51  2  0
 51 52  1  0
 28 12  1  0
 51 42  1  0
 28 19  1  0
M  END
>  <UniqueID>  (8) 
8

>  <SMILES>  (8) 
CCCCN(C/C=C/c1ccccc1)Cc1cccc2ccccc12

>  <Energy>  (8) 
53.9543489363768

>  <Genealogy>  (8) 
CCCCN(C/C=C/c1ccccc1)Cc1cccc2ccccc12 (cis-trans isomerization)
CCCCN(C/C=C/c1ccccc1)Cc1cccc2ccccc12 (3D coordinates assigned)
CCCCN(C/C=C/c1ccccc1)Cc1cccc2ccccc12 (optimized conformer: 53.9543489363768 kcal/mol)

>  <smiles>  (8) 
CCCCN(CC=Cc1ccccc1)Cc1cccc2ccccc12

>  <score_type>  (8) 
oracle

>  <origin>  (8) 
adg

>  <m_score__min__energy>  (8) 
-8.6600000000000001

>  <m_primary>  (8) 
energy

$$$$
8:0
     RDKit          3D

 21 22  0  0  0  0  0  0  0  0999 V2000
   -2.9960   21.2980  -27.8800 C   0  0  0  0  0  0  0  0  0  0  0  0
   -2.7430   22.6090  -28.4910 N   0  0  0  0  0  0  0  0  0  0  0  0
   -1.3640   23.1270  -28.4550 C   0  0  0  0  0  0  0  0  0  0  0  0
   -1.2960   24.6080  -28.6890 C   0  0  0  0  0  0  0  0  0  0  0  0
   -0.2610   25.2450  -28.3600 O   0  0  0  0  0  0  0  0  0  0  0  0
   -2.3620   25.2900  -29.3430 N   0  0  0  0  0  0  0  0  0  0  0  0
   -3.5800   24.6200  -29.6580 C   0  0  0  0  0  0  0  0  0  0  0  0
   -4.5750   25.3040  -30.3640 C   0  0  0  0  0  0  0  0  0  0  0  0
   -5.7840   24.6740  -30.6600 C   0  0  0  0  0  0  0  0  0  0  0  0
   -6.0060   23.3610  -30.2460 C   0  0  0  0  0  0  0  0  0  0  0  0
   -7.1840   22.7510  -30.5310 F   0  0  0  0  0  0  0  0  0  0  0  0
   -5.0170   22.6710  -29.5360 C   0  0  0  0  0  0  0  0  0  0  0  0
   -3.7850   23.2930  -29.2360 C   0  0  0  0  0  0  0  0  0  0  0  0
   -2.9774   21.3944  -26.7844 H   0  0  0  0  0  0  0  0  0  0  0  0
   -3.9819   20.9289  -28.1989 H   0  0  0  0  0  0  0  0  0  0  0  0
   -2.2182   20.5886  -28.1989 H   0  0  0  0  0  0  0  0  0  0  0  0
   -0.9307   22.9062  -27.4684 H   0  0  0  0  0  0  0  0  0  0  0  0
   -0.8032   22.6364  -29.2642 H   0  0  0  0  0  0  0  0  0  0  0  0
   -4.4038   26.3416  -30.6867 H   0  0  0  0  0  0  0  0  0  0  0  0
   -6.5623   25.2130  -31.2201 H   0  0  0  0  0  0  0  0  0  0  0  0
   -5.2004   21.6368  -29.2092 H   0  0  0  0  0  0  0  0  0  0  0  0
  1  2  1  0
  2  3  1  0
  3  4  1  0
  4  5  2  0
  4  6  1  0
  6  7  1  0
  7  8  2  0
  8  9  1  0
  9 10  2  0
 10 11  1  0
 10 12  1  0
 12 13  2  0
 13  2  1  0
 13  7  1  0
  1 14  1  0
  1 15  1  0
  1 16  1  0
  3 17  1  0
  3 18  1  0
  8 19  1  0
  9 20  1  0
 12 21  1  0
M  CHG  1   6  -1
M  END
>  <UniqueID>  (9) 
9

>  <SMILES>  (9) 
CN1CC(=O)[N-]c2ccc(F)cc21

>  <Energy>  (9) 
22.88464497723097

>  <Genealogy>  (9) 
CN1CC(=O)[N-]c2ccc(F)cc21 (protonated)
CN1CC(=O)[N-]c2ccc(F)cc21 (3D coordinates assigned)
CN1CC(=O)[N-]c2ccc(F)cc21 (nonaromatic ring conformer: 22.88464497723097 kcal/mol)

>  <smiles>  (9) 
CN1CC(=O)Nc2ccc(F)cc21

>  <score_type>  (9) 
oracle

>  <origin>  (9) 
adg

>  <m_score__min__energy>  (9) 
-6.6299999999999999

>  <m_primary>  (9) 
energy

$$$$
9:0
     RDKit          3D

 54 57  0  0  0  0  0  0  0  0999 V2000
   -2.3620   24.1830  -29.3330 C   0  0  0  0  0  0  0  0  0  0  0  0
   -3.1990   24.5560  -30.4220 O   0  0  0  0  0  0  0  0  0  0  0  0
   -4.5790   24.3080  -30.4910 C   0  0  0  0  0  0  0  0  0  0  0  0
   -5.5220   25.2390  -30.0100 C   0  0  0  0  0  0  0  0  0  0  0  0
   -6.8900   24.9830  -30.1210 C   0  0  0  0  0  0  0  0  0  0  0  0
   -7.3360   23.8020  -30.7090 C   0  0  0  0  0  0  0  0  0  0  0  0
   -6.4140   22.8660  -31.1840 C   0  0  0  0  0  0  0  0  0  0  0  0
   -5.0320   23.1030  -31.0740 C   0  0  0  0  0  0  0  0  0  0  0  0
   -4.0970   22.1190  -31.5600 N   0  0  0  0  0  0  0  0  0  0  0  0
   -3.2860   21.3410  -30.6170 C   0  0  0  0  0  0  0  0  0  0  0  0
   -2.8140   20.0440  -31.2850 C   0  0  0  0  0  0  0  0  0  0  0  0
   -2.0250   20.2880  -32.5260 N   0  0  0  0  0  0  0  0  0  0  0  0
   -2.0970   19.1280  -33.4520 C   0  0  0  0  0  0  0  0  0  0  0  0
   -2.3210   17.7690  -32.7520 C   0  0  0  0  0  0  0  0  0  0  0  0
   -3.6300   17.0860  -33.1690 C   0  0  0  0  0  0  0  0  0  0  0  0
   -4.7750   17.8630  -32.6990 N   0  0  0  0  0  0  0  0  0  0  0  0
   -5.8040   17.4060  -31.8190 C   0  0  0  0  0  0  0  0  0  0  0  0
   -5.7240   16.3640  -31.1140 O   0  0  0  0  0  0  0  0  0  0  0  0
   -6.9550   18.2980  -31.8870 C   0  0  0  0  0  0  0  0  0  0  0  0
   -8.1760   18.2630  -31.2160 C   0  0  0  0  0  0  0  0  0  0  0  0
   -9.1170   19.2680  -31.5050 C   0  0  0  0  0  0  0  0  0  0  0  0
   -8.8230   20.2730  -32.4520 C   0  0  0  0  0  0  0  0  0  0  0  0
   -7.5850   20.2830  -33.1200 C   0  0  0  0  0  0  0  0  0  0  0  0
   -6.6680   19.2800  -32.8120 C   0  0  0  0  0  0  0  0  0  0  0  0
   -5.3330   19.0150  -33.3360 C   0  0  0  0  0  0  0  0  0  0  0  0
   -4.7540   19.6760  -34.2380 O   0  0  0  0  0  0  0  0  0  0  0  0
   -2.4070   21.5420  -33.2430 C   0  0  0  0  0  0  0  0  0  0  0  0
   -3.8650   21.9510  -32.9990 C   0  0  0  0  0  0  0  0  0  0  0  0
   -2.8712   24.4099  -28.3847 H   0  0  0  0  0  0  0  0  0  0  0  0
   -2.1495   23.1050  -29.3863 H   0  0  0  0  0  0  0  0  0  0  0  0
   -1.4184   24.7458  -29.3863 H   0  0  0  0  0  0  0  0  0  0  0  0
   -5.1775   26.1739  -29.5439 H   0  0  0  0  0  0  0  0  0  0  0  0
   -7.6176   25.7162  -29.7429 H   0  0  0  0  0  0  0  0  0  0  0  0
   -8.4146   23.6061  -30.7995 H   0  0  0  0  0  0  0  0  0  0  0  0
   -6.7721   21.9353  -31.6482 H   0  0  0  0  0  0  0  0  0  0  0  0
   -2.4112   21.9340  -30.3120 H   0  0  0  0  0  0  0  0  0  0  0  0
   -3.8930   21.0944  -29.7334 H   0  0  0  0  0  0  0  0  0  0  0  0
   -2.1856   19.4899  -30.5722 H   0  0  0  0  0  0  0  0  0  0  0  0
   -3.7099   19.4723  -31.5689 H   0  0  0  0  0  0  0  0  0  0  0  0
   -1.0230   20.4090  -32.2460 H   0  0  0  0  0  0  0  0  0  0  0  0
   -2.9291   19.2966  -34.1514 H   0  0  0  0  0  0  0  0  0  0  0  0
   -1.1211   19.0659  -33.9558 H   0  0  0  0  0  0  0  0  0  0  0  0
   -1.4827   17.1029  -33.0042 H   0  0  0  0  0  0  0  0  0  0  0  0
   -2.3820   17.9629  -31.6709 H   0  0  0  0  0  0  0  0  0  0  0  0
   -3.6674   17.0105  -34.2658 H   0  0  0  0  0  0  0  0  0  0  0  0
   -3.6695   16.0815  -32.7225 H   0  0  0  0  0  0  0  0  0  0  0  0
   -8.3972   17.4735  -30.4827 H   0  0  0  0  0  0  0  0  0  0  0  0
  -10.0887   19.2708  -30.9895 H   0  0  0  0  0  0  0  0  0  0  0  0
   -9.5671   21.0536  -32.6690 H   0  0  0  0  0  0  0  0  0  0  0  0
   -7.3481   21.0589  -33.8628 H   0  0  0  0  0  0  0  0  0  0  0  0
   -1.7522   22.3561  -32.8987 H   0  0  0  0  0  0  0  0  0  0  0  0
   -2.2942   21.3524  -34.3207 H   0  0  0  0  0  0  0  0  0  0  0  0
   -4.0699   22.9002  -33.5157 H   0  0  0  0  0  0  0  0  0  0  0  0
   -4.5330   21.1678  -33.3868 H   0  0  0  0  0  0  0  0  0  0  0  0
  1  2  1  0
  2  3  1  0
  3  4  2  0
  4  5  1  0
  5  6  2  0
  6  7  1  0
  7  8  2  0
  8  9  1  0
  9 10  1  0
 10 11  1  0
 11 12  1  0
 12 13  1  0
 13 14  1  0
 14 15  1  0
 15 16  1  0
 16 17  1  0
 17 18  2  0
 17 19  1  0
 19 20  2  0
 20 21  1  0
 21 22  2  0
 22 23  1  0
 23 24  2  0
 24 25  1  0
 25 26  2  0
 12 27  1  0
 27 28  1  0
  8  3  1  0
 28  9  1  0
 25 16  1  0
 24 19  1  0
  1 29  1  0
  1 30  1  0
  1 31  1  0
  4 32  1  0
  5 33  1  0
  6 34  1  0
  7 35  1  0
 10 36  1  0
 10 37  1  0
 11 38  1  0
 11 39  1  0
 12 40  1  0
 13 41  1  0
 13 42  1  0
 14 43  1  0
 14 44  1  0
 15 45  1  0
 15 46  1  0
 20 47  1  0
 21 48  1  0
 22 49  1  0
 23 50  1  0
 27 51  1  0
 27 52  1  0
 28 53  1  0
 28 54  1  0
M  CHG  1  12   1
M  END
>  <UniqueID>  (10) 
10

>  <SMILES>  (10) 
COc1ccccc1N1CC[NH+](CCCN2C(=O)c3ccccc3C2=O)CC1

>  <Energy>  (10) 
98.23142445313121

>  <Genealogy>  (10) 
COc1ccccc1N1CC[NH+](CCCN2C(=O)c3ccccc3C2=O)CC1 (protonated)
COc1ccccc1N1CC[NH+](CCCN2C(=O)c3ccccc3C2=O)CC1 (3D coordinates assigned)
COc1ccccc1N1CC[NH+](CCCN2C(=O)c3ccccc3C2=O)CC1 (nonaromatic ring conformer: 98.23142445313121 kcal/mol)

>  <smiles>  (10) 
COc1ccccc1N1CCN(CCCN2C(=O)c3ccccc3C2=O)CC1

>  <score_type>  (10) 
oracle

>  <origin>  (10) 
adg

>  <m_score__min__energy>  (10) 
-7.9800000000000004

>  <m_primary>  (10) 
energy

$$$$
10:0
     RDKit          3D

 61 64  0  0  0  0  0  0  0  0999 V2000
   -9.4790   22.3000  -31.6060 C   0  0  0  0  0  0  0  0  0  0  0  0
   -7.9980   22.5620  -31.5160 C   0  0  0  0  0  0  0  0  0  0  0  0
   -7.5660   23.8090  -31.0330 C   0  0  0  0  0  0  0  0  0  0  0  0
   -6.2050   24.1020  -30.9460 C   0  0  0  0  0  0  0  0  0  0  0  0
   -5.2530   23.1660  -31.3650 C   0  0  0  0  0  0  0  0  0  0  0  0
   -3.8630   23.4910  -31.3060 N   0  0  0  0  0  0  0  0  0  0  0  0
   -2.9070   22.5590  -30.7990 C   0  0  0  0  0  0  0  0  0  0  0  0
   -2.4470   22.7130  -29.6370 O   0  0  0  0  0  0  0  0  0  0  0  0
   -2.4260   21.4480  -31.6410 C   0  0  0  0  0  0  0  0  0  0  0  0
   -2.7410   21.4190  -33.0080 C   0  0  0  0  0  0  0  0  0  0  0  0
   -2.2400   20.4060  -33.8290 C   0  0  0  0  0  0  0  0  0  0  0  0
   -1.4500   19.3800  -33.2870 C   0  0  0  0  0  0  0  0  0  0  0  0
   -0.8790   18.2930  -34.1780 C   0  0  0  0  0  0  0  0  0  0  0  0
   -1.5480   16.9740  -34.0560 N   0  0  0  0  0  0  0  0  0  0  0  0
   -0.8760   16.0720  -33.0990 C   0  0  0  0  0  0  0  0  0  0  0  0
   -1.7290   14.8030  -32.8800 C   0  0  0  0  0  0  0  0  0  0  0  0
   -2.7390   14.6390  -33.8640 O   0  0  0  0  0  0  0  0  0  0  0  0
   -2.2040   14.8340  -35.1590 C   0  0  0  0  0  0  0  0  0  0  0  0
   -1.7380   16.2920  -35.3580 C   0  0  0  0  0  0  0  0  0  0  0  0
   -1.1420   19.4040  -31.9160 C   0  0  0  0  0  0  0  0  0  0  0  0
   -1.6140   20.4390  -31.1020 C   0  0  0  0  0  0  0  0  0  0  0  0
   -5.6670   21.9140  -31.8300 C   0  0  0  0  0  0  0  0  0  0  0  0
   -7.0320   21.5810  -31.8670 C   0  0  0  0  0  0  0  0  0  0  0  0
   -7.4880   19.9300  -32.3240 S   0  0  0  0  0  0  0  0  0  0  0  0
   -8.1350   19.2620  -31.1410 O   0  0  0  0  0  0  0  0  0  0  0  0
   -8.4720   19.9700  -33.4630 O   0  0  0  0  0  0  0  0  0  0  0  0
   -6.0780   19.0260  -32.8140 N   0  0  0  0  0  0  0  0  0  0  0  0
   -6.0470   18.8540  -34.2730 C   0  0  0  0  0  0  0  0  0  0  0  0
   -4.7420   18.1330  -34.6730 C   0  0  0  0  0  0  0  0  0  0  0  0
   -4.0710   17.5640  -33.5600 O   0  0  0  0  0  0  0  0  0  0  0  0
   -4.9780   16.8040  -32.7850 C   0  0  0  0  0  0  0  0  0  0  0  0
   -6.0500   17.7140  -32.1470 C   0  0  0  0  0  0  0  0  0  0  0  0
   -9.9004   22.2254  -30.5927 H   0  0  0  0  0  0  0  0  0  0  0  0
   -9.9654   23.1260  -32.1455 H   0  0  0  0  0  0  0  0  0  0  0  0
   -9.6525   21.3572  -32.1455 H   0  0  0  0  0  0  0  0  0  0  0  0
   -8.3069   24.5599  -30.7211 H   0  0  0  0  0  0  0  0  0  0  0  0
   -5.8786   25.0734  -30.5461 H   0  0  0  0  0  0  0  0  0  0  0  0
   -3.3871   22.1995  -33.4362 H   0  0  0  0  0  0  0  0  0  0  0  0
   -2.4656   20.4123  -34.9056 H   0  0  0  0  0  0  0  0  0  0  0  0
   -0.9663   18.6258  -35.2228 H   0  0  0  0  0  0  0  0  0  0  0  0
    0.1622   18.1434  -33.8561 H   0  0  0  0  0  0  0  0  0  0  0  0
   -2.5030   17.1800  -33.6690 H   0  0  0  0  0  0  0  0  0  0  0  0
    0.1079   15.7850  -33.4984 H   0  0  0  0  0  0  0  0  0  0  0  0
   -0.7514   16.5932  -32.1384 H   0  0  0  0  0  0  0  0  0  0  0  0
   -1.0662   13.9256  -32.9079 H   0  0  0  0  0  0  0  0  0  0  0  0
   -2.2306   14.9067  -31.9065 H   0  0  0  0  0  0  0  0  0  0  0  0
   -1.3450   14.1610  -35.2972 H   0  0  0  0  0  0  0  0  0  0  0  0
   -2.9905   14.6165  -35.8966 H   0  0  0  0  0  0  0  0  0  0  0  0
   -0.7845   16.2927  -35.9064 H   0  0  0  0  0  0  0  0  0  0  0  0
   -2.5108   16.8314  -35.9254 H   0  0  0  0  0  0  0  0  0  0  0  0
   -0.5258   18.6037  -31.4802 H   0  0  0  0  0  0  0  0  0  0  0  0
   -1.3474   20.4618  -30.0350 H   0  0  0  0  0  0  0  0  0  0  0  0
   -4.9181   21.1835  -32.1697 H   0  0  0  0  0  0  0  0  0  0  0  0
   -6.9115   18.2526  -34.5907 H   0  0  0  0  0  0  0  0  0  0  0  0
   -6.0891   19.8387  -34.7615 H   0  0  0  0  0  0  0  0  0  0  0  0
   -4.9864   17.3309  -35.3850 H   0  0  0  0  0  0  0  0  0  0  0  0
   -4.0711   18.8812  -35.1202 H   0  0  0  0  0  0  0  0  0  0  0  0
   -5.4718   16.0632  -33.4310 H   0  0  0  0  0  0  0  0  0  0  0  0
   -4.4199   16.3001  -31.9821 H   0  0  0  0  0  0  0  0  0  0  0  0
   -7.0359   17.2364  -32.2468 H   0  0  0  0  0  0  0  0  0  0  0  0
   -5.8047   17.8608  -31.0848 H   0  0  0  0  0  0  0  0  0  0  0  0
  1  2  1  0
  2  3  2  0
  3  4  1  0
  4  5  2  0
  5  6  1  0
  6  7  1  0
  7  8  2  0
  7  9  1  0
  9 10  2  0
 10 11  1  0
 11 12  2  0
 12 13  1  0
 13 14  1  0
 14 15  1  0
 15 16  1  0
 16 17  1  0
 17 18  1  0
 18 19  1  0
 12 20  1  0
 20 21  2  0
  5 22  1  0
 22 23  2  0
 23 24  1  0
 24 25  2  0
 24 26  2  0
 24 27  1  0
 27 28  1  0
 28 29  1  0
 29 30  1  0
 30 31  1  0
 31 32  1  0
 23  2  1  0
 32 27  1  0
 21  9  1  0
 19 14  1  0
  1 33  1  0
  1 34  1  0
  1 35  1  0
  3 36  1  0
  4 37  1  0
 10 38  1  0
 11 39  1  0
 13 40  1  0
 13 41  1  0
 14 42  1  0
 15 43  1  0
 15 44  1  0
 16 45  1  0
 16 46  1  0
 18 47  1  0
 18 48  1  0
 19 49  1  0
 19 50  1  0
 20 51  1  0
 21 52  1  0
 22 53  1  0
 28 54  1  0
 28 55  1  0
 29 56  1  0
 29 57  1  0
 31 58  1  0
 31 59  1  0
 32 60  1  0
 32 61  1  0
M  CHG  2   6  -1  14   1
M  END
>  <UniqueID>  (11) 
11

>  <SMILES>  (11) 
Cc1ccc([N-]C(=O)c2ccc(C[NH+]3CCOCC3)cc2)cc1S(=O)(=O)N1CCOCC1

>  <Energy>  (11) 
96.06057758000951

>  <Genealogy>  (11) 
Cc1ccc([N-]C(=O)c2ccc(C[NH+]3CCOCC3)cc2)cc1S(=O)(=O)N1CCOCC1 (protonated)
Cc1ccc([N-]C(=O)c2ccc(C[NH+]3CCOCC3)cc2)cc1S(=O)(=O)N1CCOCC1 (3D coordinates assigned)
Cc1ccc([N-]C(=O)c2ccc(C[NH+]3CCOCC3)cc2)cc1S(=O)(=O)N1CCOCC1 (nonaromatic ring conformer: 96.06057758000951 kcal/mol)

>  <smiles>  (11) 
Cc1ccc(NC(=O)c2ccc(CN3CCOCC3)cc2)cc1S(=O)(=O)N1CCOCC1

>  <score_type>  (11) 
oracle

>  <origin>  (11) 
adg

>  <m_score__min__energy>  (11) 
-12.27

>  <m_primary>  (11) 
energy

$$$$
11:0
     RDKit          3D

 42 44  0  0  0  0  0  0  0  0999 V2000
   -3.6180   18.5420  -33.8530 C   0  0  0  0  0  0  0  0  0  0  0  0
   -4.6500   17.4330  -33.6750 C   0  0  0  0  0  0  0  0  0  0  0  0
   -5.8490   17.9490  -33.0190 N   0  0  0  0  0  0  0  0  0  0  0  0
   -6.3720   17.4610  -31.7590 C   0  0  0  0  0  0  0  0  0  0  0  0
   -7.7150   18.1870  -31.5740 C   0  0  0  0  0  0  0  0  0  0  0  0
   -7.6560   19.4740  -32.4670 C   0  0  1  0  0  0  0  0  0  0  0  0
   -9.0340   19.7960  -33.0610 C   0  0  0  0  0  0  0  0  0  0  0  0
   -9.6580   20.7740  -32.0700 C   0  0  0  0  0  0  0  0  0  0  0  0
   -8.5560   21.1060  -31.0600 C   0  0  0  0  0  0  0  0  0  0  0  0
   -7.2750   20.6560  -31.6390 N   0  0  2  0  0  0  0  0  0  0  0  0
   -6.5090   21.7540  -32.3190 C   0  0  0  0  0  0  0  0  0  0  0  0
   -5.9820   22.8740  -31.4290 C   0  0  0  0  0  0  0  0  0  0  0  0
   -6.8610   23.8670  -30.9500 C   0  0  0  0  0  0  0  0  0  0  0  0
   -6.3960   24.8910  -30.1200 C   0  0  0  0  0  0  0  0  0  0  0  0
   -5.0550   24.9250  -29.7360 C   0  0  0  0  0  0  0  0  0  0  0  0
   -4.1830   23.9230  -30.1660 C   0  0  0  0  0  0  0  0  0  0  0  0
   -4.6450   22.8970  -30.9940 C   0  0  0  0  0  0  0  0  0  0  0  0
   -6.6230   19.0450  -33.4690 C   0  0  0  0  0  0  0  0  0  0  0  0
   -6.4850   19.5380  -34.6190 O   0  0  0  0  0  0  0  0  0  0  0  0
   -3.2875   18.8972  -32.8658 H   0  0  0  0  0  0  0  0  0  0  0  0
   -2.7536   18.1524  -34.4108 H   0  0  0  0  0  0  0  0  0  0  0  0
   -4.0686   19.3761  -34.4108 H   0  0  0  0  0  0  0  0  0  0  0  0
   -4.9223   17.0304  -34.6618 H   0  0  0  0  0  0  0  0  0  0  0  0
   -4.2153   16.6404  -33.0483 H   0  0  0  0  0  0  0  0  0  0  0  0
   -6.5240   16.3723  -31.7998 H   0  0  0  0  0  0  0  0  0  0  0  0
   -5.6816   17.6529  -30.9244 H   0  0  0  0  0  0  0  0  0  0  0  0
   -8.5439   17.5395  -31.8960 H   0  0  0  0  0  0  0  0  0  0  0  0
   -7.8842   18.4446  -30.5181 H   0  0  0  0  0  0  0  0  0  0  0  0
   -8.9310   20.2602  -34.0529 H   0  0  0  0  0  0  0  0  0  0  0  0
   -9.6490   18.8952  -33.2033 H   0  0  0  0  0  0  0  0  0  0  0  0
   -9.9892   21.6857  -32.5888 H   0  0  0  0  0  0  0  0  0  0  0  0
  -10.5415   20.3420  -31.5772 H   0  0  0  0  0  0  0  0  0  0  0  0
   -8.5263   22.1906  -30.8792 H   0  0  0  0  0  0  0  0  0  0  0  0
   -8.7455   20.6037  -30.0999 H   0  0  0  0  0  0  0  0  0  0  0  0
   -6.6600   20.3360  -30.8520 H   0  0  0  0  0  0  0  0  0  0  0  0
   -5.6459   21.2952  -32.8236 H   0  0  0  0  0  0  0  0  0  0  0  0
   -7.2322   22.2364  -32.9930 H   0  0  0  0  0  0  0  0  0  0  0  0
   -7.9237   23.8355  -31.2324 H   0  0  0  0  0  0  0  0  0  0  0  0
   -7.0879   25.6708  -29.7692 H   0  0  0  0  0  0  0  0  0  0  0  0
   -4.6856   25.7396  -29.0958 H   0  0  0  0  0  0  0  0  0  0  0  0
   -3.1290   23.9415  -29.8519 H   0  0  0  0  0  0  0  0  0  0  0  0
   -3.9561   22.0993  -31.3088 H   0  0  0  0  0  0  0  0  0  0  0  0
  1  2  1  0
  2  3  1  0
  3  4  1  0
  4  5  1  0
  6  5  1  1
  6  7  1  0
  7  8  1  0
  8  9  1  0
  9 10  1  0
 10 11  1  0
 11 12  1  0
 12 13  2  0
 13 14  1  0
 14 15  2  0
 15 16  1  0
 16 17  2  0
  6 18  1  0
 18 19  2  0
 18  3  1  0
 10  6  1  0
 17 12  1  0
  1 20  1  0
  1 21  1  0
  1 22  1  0
  2 23  1  0
  2 24  1  0
  4 25  1  0
  4 26  1  0
  5 27  1  0
  5 28  1  0
  7 29  1  0
  7 30  1  0
  8 31  1  0
  8 32  1  0
  9 33  1  0
  9 34  1  0
 10 35  1  1
 11 36  1  0
 11 37  1  0
 13 38  1  0
 14 39  1  0
 15 40  1  0
 16 41  1  0
 17 42  1  0
M  CHG  1  10   1
M  END
>  <UniqueID>  (12) 
12

>  <SMILES>  (12) 
CCN1CC[C@]2(CCC[N@@H+]2Cc2ccccc2)C1=O

>  <Energy>  (12) 
66.93831068169861

>  <Genealogy>  (12) 
CCN1CCC2(CCC[NH+]2Cc2ccccc2)C1=O (protonated)
CCN1CC[C@]2(CCC[N@@H+]2Cc2ccccc2)C1=O (chirality)
CCN1CC[C@]2(CCC[N@@H+]2Cc2ccccc2)C1=O (3D coordinates assigned)
CCN1CC[C@]2(CCC[N@@H+]2Cc2ccccc2)C1=O (nonaromatic ring conformer: 66.93831068169861 kcal/mol)

>  <smiles>  (12) 
CCN1CCC2(CCCN2Cc2ccccc2)C1=O

>  <score_type>  (12) 
oracle

>  <origin>  (12) 
adg

>  <m_score__min__energy>  (12) 
-6.96

>  <m_primary>  (12) 
energy

$$$$
12:0
     RDKit          3D

 34 36  0  0  0  0  0  0  0  0999 V2000
   -3.7230   24.1600  -30.2440 C   0  0  0  0  0  0  0  0  0  0  0  0
   -4.9760   24.5520  -30.9120 N   0  0  0  0  0  0  0  0  0  0  0  0
   -5.3660   25.8990  -30.4640 C   0  0  0  0  0  0  0  0  0  0  0  0
   -6.0570   23.5840  -30.6250 C   0  0  0  0  0  0  0  0  0  0  0  0
   -6.9230   23.3540  -31.8700 C   0  0  0  0  0  0  0  0  0  0  0  0
   -6.9750   21.9110  -32.2070 N   0  0  0  0  0  0  0  0  0  0  0  0
   -8.1420   21.1910  -31.9700 C   0  0  0  0  0  0  0  0  0  0  0  0
   -9.4890   21.8590  -31.3040 S   0  0  0  0  0  0  0  0  0  0  0  0
   -8.2180   19.5390  -32.3490 S   0  0  0  0  0  0  0  0  0  0  0  0
   -6.7470   19.0670  -32.9660 C   0  0  0  0  0  0  0  0  0  0  0  0
   -5.7250   19.9710  -33.0760 C   0  0  0  0  0  0  0  0  0  0  0  0
   -4.6520   19.3750  -33.5690 O   0  0  0  0  0  0  0  0  0  0  0  0
   -4.9670   18.1110  -33.7760 C   0  0  0  0  0  0  0  0  0  0  0  0
   -4.1530   17.1020  -34.2860 C   0  0  0  0  0  0  0  0  0  0  0  0
   -4.7070   15.8140  -34.4180 C   0  0  0  0  0  0  0  0  0  0  0  0
   -6.0470   15.5660  -34.0410 C   0  0  0  0  0  0  0  0  0  0  0  0
   -6.8490   16.6030  -33.5290 C   0  0  0  0  0  0  0  0  0  0  0  0
   -6.2700   17.8640  -33.4140 C   0  0  0  0  0  0  0  0  0  0  0  0
   -5.8140   21.3270  -32.7110 C   0  0  0  0  0  0  0  0  0  0  0  0
   -4.7700   22.0250  -32.8560 O   0  0  0  0  0  0  0  0  0  0  0  0
   -3.8600   24.2028  -29.1534 H   0  0  0  0  0  0  0  0  0  0  0  0
   -3.4549   23.1350  -30.5399 H   0  0  0  0  0  0  0  0  0  0  0  0
   -2.9185   24.8494  -30.5399 H   0  0  0  0  0  0  0  0  0  0  0  0
   -5.3754   25.9313  -29.3645 H   0  0  0  0  0  0  0  0  0  0  0  0
   -4.6443   26.6359  -30.8464 H   0  0  0  0  0  0  0  0  0  0  0  0
   -6.3697   26.1363  -30.8464 H   0  0  0  0  0  0  0  0  0  0  0  0
   -5.6120   22.6277  -30.3129 H   0  0  0  0  0  0  0  0  0  0  0  0
   -6.6912   23.9894  -29.8229 H   0  0  0  0  0  0  0  0  0  0  0  0
   -7.9427   23.7169  -31.6738 H   0  0  0  0  0  0  0  0  0  0  0  0
   -6.4820   23.9013  -32.7162 H   0  0  0  0  0  0  0  0  0  0  0  0
   -3.1115   17.3047  -34.5761 H   0  0  0  0  0  0  0  0  0  0  0  0
   -4.0922   14.9941  -34.8177 H   0  0  0  0  0  0  0  0  0  0  0  0
   -6.4659   14.5546  -34.1487 H   0  0  0  0  0  0  0  0  0  0  0  0
   -7.8927   16.4242  -33.2312 H   0  0  0  0  0  0  0  0  0  0  0  0
  1  2  1  0
  2  3  1  0
  2  4  1  0
  4  5  1  0
  5  6  1  0
  6  7  1  0
  7  8  2  0
  7  9  1  0
  9 10  1  0
 10 11  2  0
 11 12  1  0
 12 13  1  0
 13 14  2  0
 14 15  1  0
 15 16  2  0
 16 17  1  0
 17 18  2  0
 11 19  1  0
 19 20  2  0
 19  6  1  0
 18 10  1  0
 18 13  1  0
  1 21  1  0
  1 22  1  0
  1 23  1  0
  3 24  1  0
  3 25  1  0
  3 26  1  0
  4 27  1  0
  4 28  1  0
  5 29  1  0
  5 30  1  0
 14 31  1  0
 15 32  1  0
 16 33  1  0
 17 34  1  0
M  END
>  <UniqueID>  (13) 
13

>  <SMILES>  (13) 
CN(C)CCn1c(=S)sc2c(oc3ccccc32)c1=O

>  <Energy>  (13) 
87.88637965412141

>  <Genealogy>  (13) 
CN(C)CCn1c(=S)sc2c(oc3ccccc32)c1=O (3D coordinates assigned)
CN(C)CCn1c(=S)sc2c(oc3ccccc32)c1=O (optimized conformer: 87.88637965412141 kcal/mol)

>  <smiles>  (13) 
CN(C)CCn1c(=S)sc2c(oc3ccccc32)c1=O

>  <score_type>  (13) 
oracle

>  <origin>  (13) 
adg

>  <m_score__min__energy>  (13) 
-7.5999999999999996

>  <m_primary>  (13) 
energy

$$$$
13:0
     RDKit          3D

 34 36  0  0  0  0  0  0  0  0999 V2000
   -8.6670   23.4410  -32.3160 O   0  0  0  0  0  0  0  0  0  0  0  0
   -7.7340   22.6770  -31.9460 C   0  0  0  0  0  0  0  0  0  0  0  0
   -7.8540   21.2220  -32.2090 C   0  0  0  0  0  0  0  0  0  0  0  0
   -9.0610   20.5390  -31.9680 C   0  0  0  0  0  0  0  0  0  0  0  0
   -9.1530   19.1630  -32.2030 C   0  0  0  0  0  0  0  0  0  0  0  0
   -8.0440   18.4560  -32.6700 C   0  0  0  0  0  0  0  0  0  0  0  0
   -6.8360   19.1210  -32.8970 C   0  0  0  0  0  0  0  0  0  0  0  0
   -6.7380   20.4970  -32.6630 C   0  0  0  0  0  0  0  0  0  0  0  0
   -6.5560   23.2660  -31.2640 C   0  0  0  0  0  0  0  0  0  0  0  0
   -6.6860   23.9660  -30.0550 C   0  0  0  0  0  0  0  0  0  0  0  0
   -5.5650   24.5270  -29.4420 C   0  0  0  0  0  0  0  0  0  0  0  0
   -4.3040   24.3860  -30.0420 C   0  0  0  0  0  0  0  0  0  0  0  0
   -3.1250   24.9690  -29.4650 N   0  0  0  0  0  0  0  0  0  0  0  0
   -1.9190   24.2370  -29.1900 C   0  0  0  0  0  0  0  0  0  0  0  0
   -1.7060   23.1310  -29.7560 O   0  0  0  0  0  0  0  0  0  0  0  0
   -0.8950   24.7850  -28.2830 C   0  0  0  0  0  0  0  0  0  0  0  0
    0.2060   24.1080  -27.7620 C   0  0  0  0  0  0  0  0  0  0  0  0
    1.0090   24.9090  -26.9400 C   0  0  0  0  0  0  0  0  0  0  0  0
    0.5520   26.2140  -26.8110 C   0  0  0  0  0  0  0  0  0  0  0  0
   -0.8510   26.3710  -27.7220 S   0  0  0  0  0  0  0  0  0  0  0  0
   -4.2050   23.7370  -31.2330 N   0  0  0  0  0  0  0  0  0  0  0  0
   -5.2830   23.1820  -31.8500 C   0  0  0  0  0  0  0  0  0  0  0  0
   -9.9362   21.0899  -31.5931 H   0  0  0  0  0  0  0  0  0  0  0  0
  -10.1015   18.6371  -32.0193 H   0  0  0  0  0  0  0  0  0  0  0  0
   -8.1208   17.3752  -32.8594 H   0  0  0  0  0  0  0  0  0  0  0  0
   -5.9610   18.5619  -33.2601 H   0  0  0  0  0  0  0  0  0  0  0  0
   -5.7827   21.0144  -32.8351 H   0  0  0  0  0  0  0  0  0  0  0  0
   -7.6763   24.0731  -29.5882 H   0  0  0  0  0  0  0  0  0  0  0  0
   -5.6689   25.0762  -28.4946 H   0  0  0  0  0  0  0  0  0  0  0  0
   -3.1140   26.0060  -29.3470 H   0  0  0  0  0  0  0  0  0  0  0  0
    0.4227   23.0508  -27.9749 H   0  0  0  0  0  0  0  0  0  0  0  0
    1.9175   24.5386  -26.4427 H   0  0  0  0  0  0  0  0  0  0  0  0
    1.0265   27.0077  -26.2153 H   0  0  0  0  0  0  0  0  0  0  0  0
   -5.1566   22.6650  -32.8126 H   0  0  0  0  0  0  0  0  0  0  0  0
  1  2  2  0
  2  3  1  0
  3  4  2  0
  4  5  1  0
  5  6  2  0
  6  7  1  0
  7  8  2  0
  2  9  1  0
  9 10  2  0
 10 11  1  0
 11 12  2  0
 12 13  1  0
 13 14  1  0
 14 15  2  0
 14 16  1  0
 16 17  2  0
 17 18  1  0
 18 19  2  0
 19 20  1  0
 12 21  1  0
 21 22  2  0
  8  3  1  0
 22  9  1  0
 20 16  1  0
  4 23  1  0
  5 24  1  0
  6 25  1  0
  7 26  1  0
  8 27  1  0
 10 28  1  0
 11 29  1  0
 13 30  1  0
 17 31  1  0
 18 32  1  0
 19 33  1  0
 22 34  1  0
M  END
>  <UniqueID>  (14) 
14

>  <SMILES>  (14) 
O=C(c1ccccc1)c1ccc(NC(=O)c2cccs2)nc1

>  <Energy>  (14) 
72.8204278696243

>  <Genealogy>  (14) 
O=C(c1ccccc1)c1ccc(NC(=O)c2cccs2)nc1 (3D coordinates assigned)
O=C(c1ccccc1)c1ccc(NC(=O)c2cccs2)nc1 (optimized conformer: 72.8204278696243 kcal/mol)

>  <smiles>  (14) 
O=C(c1ccccc1)c1ccc(NC(=O)c2cccs2)nc1

>  <score_type>  (14) 
oracle

>  <origin>  (14) 
adg

>  <m_score__min__energy>  (14) 
-8.9199999999999999

>  <m_primary>  (14) 
energy

$$$$
14:0
     RDKit          3D

 38 41  0  0  0  0  0  0  0  0999 V2000
   -5.6084   24.1377  -32.9920 H   0  0  0  0  0  0  0  0  0  0  0  0
   -5.8050   23.5190  -32.1040 C   0  0  0  0  0  0  0  0  0  0  0  0
   -5.4890   24.0380  -30.9020 C   0  0  0  0  0  0  0  0  0  0  0  0
   -6.4630   24.8690  -30.2380 C   0  0  0  0  0  0  0  0  0  0  0  0
   -7.2440   25.5350  -29.7050 N   0  0  0  0  0  0  0  0  0  0  0  0
   -4.1720   23.8620  -30.2480 C   0  0  0  0  0  0  0  0  0  0  0  0
   -3.5870   22.6490  -30.0550 N   0  0  0  0  0  0  0  0  0  0  0  0
   -2.4180   22.9720  -29.4860 C   0  0  0  0  0  0  0  0  0  0  0  0
   -1.4130   22.1100  -29.0630 C   0  0  0  0  0  0  0  0  0  0  0  0
   -1.5177   21.0204  -29.1719 H   0  0  0  0  0  0  0  0  0  0  0  0
   -0.2490   22.6780  -28.4870 C   0  0  0  0  0  0  0  0  0  0  0  0
    0.8140   21.8830  -28.0310 O   0  0  0  0  0  0  0  0  0  0  0  0
    0.7760   20.4630  -27.9420 C   0  0  0  0  0  0  0  0  0  0  0  0
    0.7679   20.1620  -26.8840 H   0  0  0  0  0  0  0  0  0  0  0  0
   -0.1325   20.0888  -28.4366 H   0  0  0  0  0  0  0  0  0  0  0  0
    1.6632   20.0407  -28.4366 H   0  0  0  0  0  0  0  0  0  0  0  0
   -0.1380   24.0880  -28.3590 C   0  0  0  0  0  0  0  0  0  0  0  0
    1.0300   24.6130  -27.7840 O   0  0  0  0  0  0  0  0  0  0  0  0
    1.2170   24.8170  -26.3870 C   0  0  0  0  0  0  0  0  0  0  0  0
    0.5777   24.1196  -25.8258 H   0  0  0  0  0  0  0  0  0  0  0  0
    2.2709   24.6376  -26.1281 H   0  0  0  0  0  0  0  0  0  0  0  0
    0.9468   25.8514  -26.1281 H   0  0  0  0  0  0  0  0  0  0  0  0
   -1.1910   24.9240  -28.8070 C   0  0  0  0  0  0  0  0  0  0  0  0
   -1.1232   26.0182  -28.7174 H   0  0  0  0  0  0  0  0  0  0  0  0
   -2.3120   24.3190  -29.3630 C   0  0  0  0  0  0  0  0  0  0  0  0
   -3.4110   24.9160  -29.8470 N   0  0  0  0  0  0  0  0  0  0  0  0
   -6.3960   22.1810  -32.3210 C   0  0  0  0  0  0  0  0  0  0  0  0
   -5.6180   21.0650  -32.7110 C   0  0  0  0  0  0  0  0  0  0  0  0
   -4.5410   21.1893  -32.8968 H   0  0  0  0  0  0  0  0  0  0  0  0
   -6.2140   19.7900  -32.8640 C   0  0  0  0  0  0  0  0  0  0  0  0
   -5.5997   18.9355  -33.1840 H   0  0  0  0  0  0  0  0  0  0  0  0
   -7.5860   19.6070  -32.6100 C   0  0  0  0  0  0  0  0  0  0  0  0
   -8.0644   18.6237  -32.7296 H   0  0  0  0  0  0  0  0  0  0  0  0
   -8.3130   20.7220  -32.2010 C   0  0  0  0  0  0  0  0  0  0  0  0
   -9.6110   20.8120  -31.8870 N   0  0  0  0  0  0  0  0  0  0  0  0
   -9.7820   22.0710  -31.5680 O   0  0  0  0  0  0  0  0  0  0  0  0
   -8.6960   22.8010  -31.6510 N   0  0  0  0  0  0  0  0  0  0  0  0
   -7.7460   21.9440  -32.0550 C   0  0  0  0  0  0  0  0  0  0  0  0
  1  2  1  0
  2  3  2  0
  3  4  1  0
  4  5  3  0
  3  6  1  0
  6  7  2  0
  7  8  1  0
  8  9  2  0
  9 10  1  0
  9 11  1  0
 11 12  1  0
 12 13  1  0
 13 14  1  0
 13 15  1  0
 13 16  1  0
 11 17  2  0
 17 18  1  0
 18 19  1  0
 19 20  1  0
 19 21  1  0
 19 22  1  0
 17 23  1  0
 23 24  1  0
 23 25  2  0
 25 26  1  0
  2 27  1  0
 27 28  2  0
 28 29  1  0
 28 30  1  0
 30 31  1  0
 30 32  2  0
 32 33  1  0
 32 34  1  0
 34 35  2  0
 35 36  1  0
 36 37  1  0
 37 38  2  0
 26  6  1  0
 38 27  1  0
 25  8  1  0
 38 34  1  0
M  CHG  1  26  -1
M  END
>  <UniqueID>  (15) 
15

>  <SMILES>  (15) 
COc1cc2nc(/C(C#N)=C\c3cccc4nonc34)[n-]c2cc1OC

>  <Energy>  (15) 
126.04975527476806

>  <Genealogy>  (15) 
COc1cc2nc(C(C#N)=Cc3cccc4nonc34)[n-]c2cc1OC (protonated)
COc1cc2nc(/C(C#N)=C\c3cccc4nonc34)[n-]c2cc1OC (cis-trans isomerization)
COc1cc2nc(/C(C#N)=C\c3cccc4nonc34)[n-]c2cc1OC (3D coordinates assigned)
COc1cc2nc(/C(C#N)=C\c3cccc4nonc34)[n-]c2cc1OC (optimized conformer: 126.04975527476806 kcal/mol)

>  <smiles>  (15) 
COc1cc2nc(C(C#N)=Cc3cccc4nonc34)[nH]c2cc1OC

>  <score_type>  (15) 
oracle

>  <origin>  (15) 
adg

>  <m_score__min__energy>  (15) 
-9.2899999999999991

>  <m_primary>  (15) 
energy

$$$$
15:0
     RDKit          3D

 47 49  0  0  0  0  0  0  0  0999 V2000
   -4.6540   15.4180  -32.4030 C   0  0  0  0  0  0  0  0  0  0  0  0
   -5.0530   16.0690  -33.7260 C   0  0  0  0  0  0  0  0  0  0  0  0
   -6.5690   16.3070  -33.8180 C   0  0  0  0  0  0  0  0  0  0  0  0
   -6.9380   17.7220  -33.5630 N   0  0  0  0  0  0  0  0  0  0  0  0
   -6.0990   18.7070  -34.2930 C   0  0  0  0  0  0  0  0  0  0  0  0
   -5.6020   19.8570  -33.4380 C   0  0  0  0  0  0  0  0  0  0  0  0
   -6.3890   20.9550  -33.0930 C   0  0  0  0  0  0  0  0  0  0  0  0
   -5.5680   21.7770  -32.3580 C   0  0  0  0  0  0  0  0  0  0  0  0
   -5.8240   23.0200  -31.7850 C   0  0  0  0  0  0  0  0  0  0  0  0
   -4.7750   23.6560  -31.0950 C   0  0  0  0  0  0  0  0  0  0  0  0
   -5.0460   25.2580  -30.3360 S   0  0  0  0  0  0  0  0  0  0  0  0
   -6.8010   24.9300  -29.9860 C   0  0  0  0  0  0  0  0  0  0  0  0
   -3.5090   23.0350  -30.9960 C   0  0  0  0  0  0  0  0  0  0  0  0
   -3.2820   21.7780  -31.5870 C   0  0  0  0  0  0  0  0  0  0  0  0
   -4.3440   21.1680  -32.2640 C   0  0  0  0  0  0  0  0  0  0  0  0
   -4.3540   19.9780  -32.9020 N   0  0  0  0  0  0  0  0  0  0  0  0
   -3.2220   19.0550  -33.0140 C   0  0  0  0  0  0  0  0  0  0  0  0
   -6.9990   18.0160  -32.1170 C   0  0  0  0  0  0  0  0  0  0  0  0
   -8.4400   18.3390  -31.6950 C   0  0  0  0  0  0  0  0  0  0  0  0
   -9.1690   19.2700  -32.6530 C   0  0  0  0  0  0  0  0  0  0  0  0
   -8.7250   19.7800  -31.2930 C   0  0  0  0  0  0  0  0  0  0  0  0
   -5.0276   16.0276  -31.5670 H   0  0  0  0  0  0  0  0  0  0  0  0
   -5.0893   14.4095  -32.3446 H   0  0  0  0  0  0  0  0  0  0  0  0
   -3.5578   15.3482  -32.3446 H   0  0  0  0  0  0  0  0  0  0  0  0
   -4.5359   17.0357  -33.8161 H   0  0  0  0  0  0  0  0  0  0  0  0
   -4.7667   15.3866  -34.5398 H   0  0  0  0  0  0  0  0  0  0  0  0
   -6.9092   16.0299  -34.8267 H   0  0  0  0  0  0  0  0  0  0  0  0
   -7.0519   15.6908  -33.0453 H   0  0  0  0  0  0  0  0  0  0  0  0
   -5.2251   18.1791  -34.7025 H   0  0  0  0  0  0  0  0  0  0  0  0
   -6.7365   19.1470  -35.0740 H   0  0  0  0  0  0  0  0  0  0  0  0
   -7.4437   21.1271  -33.3538 H   0  0  0  0  0  0  0  0  0  0  0  0
   -6.8149   23.4901  -31.8690 H   0  0  0  0  0  0  0  0  0  0  0  0
   -6.9586   24.9006  -28.8977 H   0  0  0  0  0  0  0  0  0  0  0  0
   -7.4178   25.7284  -30.4243 H   0  0  0  0  0  0  0  0  0  0  0  0
   -7.0878   23.9627  -30.4243 H   0  0  0  0  0  0  0  0  0  0  0  0
   -2.6952   23.5379  -30.4530 H   0  0  0  0  0  0  0  0  0  0  0  0
   -2.2988   21.2895  -31.5188 H   0  0  0  0  0  0  0  0  0  0  0  0
   -2.8772   18.7739  -32.0080 H   0  0  0  0  0  0  0  0  0  0  0  0
   -3.5369   18.1529  -33.5591 H   0  0  0  0  0  0  0  0  0  0  0  0
   -2.4018   19.5451  -33.5591 H   0  0  0  0  0  0  0  0  0  0  0  0
   -6.6445   17.1400  -31.5541 H   0  0  0  0  0  0  0  0  0  0  0  0
   -6.3617   18.8868  -31.9034 H   0  0  0  0  0  0  0  0  0  0  0  0
   -8.6373   17.3616  -31.2306 H   0  0  0  0  0  0  0  0  0  0  0  0
   -8.6656   19.6250  -33.5643 H   0  0  0  0  0  0  0  0  0  0  0  0
  -10.1255   19.2336  -33.1950 H   0  0  0  0  0  0  0  0  0  0  0  0
   -7.9000   20.5039  -31.2197 H   0  0  0  0  0  0  0  0  0  0  0  0
   -9.2267   20.2654  -30.4429 H   0  0  0  0  0  0  0  0  0  0  0  0
  1  2  1  0
  2  3  1  0
  3  4  1  0
  4  5  1  0
  5  6  1  0
  6  7  2  0
  7  8  1  0
  8  9  2  0
  9 10  1  0
 10 11  1  0
 11 12  1  0
 10 13  2  0
 13 14  1  0
 14 15  2  0
 15 16  1  0
 16 17  1  0
  4 18  1  0
 18 19  1  0
 19 20  1  0
 20 21  1  0
 16  6  1  0
 21 19  1  0
 15  8  1  0
  1 22  1  0
  1 23  1  0
  1 24  1  0
  2 25  1  0
  2 26  1  0
  3 27  1  0
  3 28  1  0
  5 29  1  0
  5 30  1  0
  7 31  1  0
  9 32  1  0
 12 33  1  0
 12 34  1  0
 12 35  1  0
 13 36  1  0
 14 37  1  0
 17 38  1  0
 17 39  1  0
 17 40  1  0
 18 41  1  0
 18 42  1  0
 19 43  1  0
 20 44  1  0
 20 45  1  0
 21 46  1  0
 21 47  1  0
M  END
>  <UniqueID>  (16) 
16

>  <SMILES>  (16) 
CCCN(Cc1cc2cc(SC)ccc2n1C)CC1CC1

>  <Energy>  (16) 
340.2514453312429

>  <Genealogy>  (16) 
CCCN(Cc1cc2cc(SC)ccc2n1C)CC1CC1 (3D coordinates assigned)
CCCN(Cc1cc2cc(SC)ccc2n1C)CC1CC1 (nonaromatic ring conformer: 340.2514453312429 kcal/mol)

>  <smiles>  (16) 
CCCN(Cc1cc2cc(SC)ccc2n1C)CC1CC1

>  <score_type>  (16) 
oracle

>  <origin>  (16) 
adg

>  <m_score__min__energy>  (16) 
-7.54

>  <m_primary>  (16) 
energy

$$$$
16:0
     RDKit          3D

 44 44  0  0  0  0  0  0  0  0999 V2000
   -5.3150   20.9230  -32.7360 C   0  0  0  0  0  0  0  0  0  0  0  0
   -6.8340   20.7970  -32.8220 C   0  0  0  0  0  0  0  0  0  0  0  0
   -7.4820   21.8990  -32.0740 N   0  0  0  0  0  0  0  0  0  0  0  0
   -8.8420   21.5140  -31.6300 C   0  0  0  0  0  0  0  0  0  0  0  0
   -9.1400   20.0710  -32.0290 C   0  0  0  0  0  0  0  0  0  0  0  0
   -6.6500   22.3300  -30.9270 C   0  0  0  0  0  0  0  0  0  0  0  0
   -6.9070   23.8120  -30.6200 C   0  0  0  0  0  0  0  0  0  0  0  0
   -5.9250   24.7300  -31.3590 C   0  0  0  0  0  0  0  0  0  0  0  0
   -4.5600   24.5500  -30.8710 N   0  0  0  0  0  0  0  0  0  0  0  0
   -4.2320   24.6780  -29.6210 C   0  0  0  0  0  0  0  0  0  0  0  0
   -3.1630   23.8430  -29.0040 C   0  0  0  0  0  0  0  0  0  0  0  0
   -1.8730   24.3700  -28.8710 C   0  0  0  0  0  0  0  0  0  0  0  0
   -1.6190   25.6610  -29.3360 O   0  0  0  0  0  0  0  0  0  0  0  0
   -0.8710   23.6330  -28.2980 N   0  0  0  0  0  0  0  0  0  0  0  0
    0.4800   24.2180  -28.1680 C   0  0  0  0  0  0  0  0  0  0  0  0
   -1.1210   22.3530  -27.8510 C   0  0  0  0  0  0  0  0  0  0  0  0
    0.0990   21.4680  -27.1540 S   0  0  0  0  0  0  0  0  0  0  0  0
   -2.3810   21.8070  -27.9770 N   0  0  0  0  0  0  0  0  0  0  0  0
   -2.6460   20.4330  -27.4930 C   0  0  0  0  0  0  0  0  0  0  0  0
   -3.3980   22.5410  -28.5310 C   0  0  0  0  0  0  0  0  0  0  0  0
   -4.5590   22.0510  -28.6140 O   0  0  0  0  0  0  0  0  0  0  0  0
   -5.0084   20.9484  -31.6799 H   0  0  0  0  0  0  0  0  0  0  0  0
   -4.8468   20.0606  -33.2331 H   0  0  0  0  0  0  0  0  0  0  0  0
   -4.9953   21.8507  -33.2331 H   0  0  0  0  0  0  0  0  0  0  0  0
   -7.1432   20.8427  -33.8766 H   0  0  0  0  0  0  0  0  0  0  0  0
   -7.1399   19.8363  -32.3822 H   0  0  0  0  0  0  0  0  0  0  0  0
   -8.9072   21.6090  -30.5361 H   0  0  0  0  0  0  0  0  0  0  0  0
   -9.5766   22.1773  -32.1099 H   0  0  0  0  0  0  0  0  0  0  0  0
   -9.2664   19.4589  -31.1238 H   0  0  0  0  0  0  0  0  0  0  0  0
  -10.0638   20.0388  -32.6254 H   0  0  0  0  0  0  0  0  0  0  0  0
   -8.3046   19.6755  -32.6254 H   0  0  0  0  0  0  0  0  0  0  0  0
   -6.9053   21.7255  -30.0442 H   0  0  0  0  0  0  0  0  0  0  0  0
   -5.5882   22.1921  -31.1790 H   0  0  0  0  0  0  0  0  0  0  0  0
   -7.9318   24.0662  -30.9286 H   0  0  0  0  0  0  0  0  0  0  0  0
   -6.7677   23.9646  -29.5396 H   0  0  0  0  0  0  0  0  0  0  0  0
   -5.9551   24.4960  -32.4334 H   0  0  0  0  0  0  0  0  0  0  0  0
   -6.2231   25.7735  -31.1793 H   0  0  0  0  0  0  0  0  0  0  0  0
   -4.7563   25.4212  -29.0023 H   0  0  0  0  0  0  0  0  0  0  0  0
    0.7315   24.3269  -27.1027 H   0  0  0  0  0  0  0  0  0  0  0  0
    1.2139   23.5571  -28.6523 H   0  0  0  0  0  0  0  0  0  0  0  0
    0.5001   25.2055  -28.6523 H   0  0  0  0  0  0  0  0  0  0  0  0
   -2.6474   20.4256  -26.3930 H   0  0  0  0  0  0  0  0  0  0  0  0
   -3.6256   20.0964  -27.8632 H   0  0  0  0  0  0  0  0  0  0  0  0
   -1.8618   19.7562  -27.8632 H   0  0  0  0  0  0  0  0  0  0  0  0
  1  2  1  0
  2  3  1  0
  3  4  1  0
  4  5  1  0
  3  6  1  0
  6  7  1  0
  7  8  1  0
  8  9  1  0
  9 10  2  3
 10 11  1  0
 11 12  2  0
 12 13  1  0
 12 14  1  0
 14 15  1  0
 14 16  1  0
 16 17  2  0
 16 18  1  0
 18 19  1  0
 18 20  1  0
 20 21  2  0
 20 11  1  0
  1 22  1  0
  1 23  1  0
  1 24  1  0
  2 25  1  0
  2 26  1  0
  4 27  1  0
  4 28  1  0
  5 29  1  0
  5 30  1  0
  5 31  1  0
  6 32  1  0
  6 33  1  0
  7 34  1  0
  7 35  1  0
  8 36  1  0
  8 37  1  0
 10 38  1  0
 15 39  1  0
 15 40  1  0
 15 41  1  0
 19 42  1  0
 19 43  1  0
 19 44  1  0
M  CHG  1  13  -1
M  END
>  <UniqueID>  (17) 
17

>  <SMILES>  (17) 
CCN(CC)CCCN=Cc1c([O-])n(C)c(=S)n(C)c1=O

>  <Energy>  (17) 
50.59120578382512

>  <Genealogy>  (17) 
CCN(CC)CCCN=Cc1c([O-])n(C)c(=S)n(C)c1=O (protonated)
CCN(CC)CCCN=Cc1c([O-])n(C)c(=S)n(C)c1=O (3D coordinates assigned)
CCN(CC)CCCN=Cc1c([O-])n(C)c(=S)n(C)c1=O (optimized conformer: 50.59120578382512 kcal/mol)

>  <smiles>  (17) 
CCN(CC)CCCN=Cc1c(O)n(C)c(=S)n(C)c1=O

>  <score_type>  (17) 
oracle

>  <origin>  (17) 
adg

>  <m_score__min__energy>  (17) 
-9.2300000000000004

>  <m_primary>  (17) 
energy

$$$$
17:0
     RDKit          3D

 38 41  0  0  0  0  0  0  0  0999 V2000
   -3.4860   16.5260  -35.4440 C   0  0  0  0  0  0  0  0  0  0  0  0
   -4.6080   17.3950  -35.5610 O   0  0  0  0  0  0  0  0  0  0  0  0
   -5.4240   17.7840  -34.4870 C   0  0  0  0  0  0  0  0  0  0  0  0
   -6.4980   16.9970  -34.0340 C   0  0  0  0  0  0  0  0  0  0  0  0
   -7.2840   17.4330  -32.9660 C   0  0  0  0  0  0  0  0  0  0  0  0
   -7.0080   18.6500  -32.3400 C   0  0  0  0  0  0  0  0  0  0  0  0
   -5.9340   19.4470  -32.7710 C   0  0  0  0  0  0  0  0  0  0  0  0
   -5.6450   20.7400  -32.1020 C   0  0  0  0  0  0  0  0  0  0  0  0
   -4.6150   20.9450  -31.2360 N   0  0  0  0  0  0  0  0  0  0  0  0
   -4.5850   22.2200  -30.7710 C   0  0  0  0  0  0  0  0  0  0  0  0
   -3.6450   22.7150  -29.8640 C   0  0  0  0  0  0  0  0  0  0  0  0
   -3.7240   24.0690  -29.4550 C   0  0  0  0  0  0  0  0  0  0  0  0
   -2.7300   24.6090  -28.4940 C   0  0  0  0  0  0  0  0  0  0  0  0
   -2.6390   24.1840  -27.2810 N   0  0  0  0  0  0  0  0  0  0  0  0
   -1.5770   24.8940  -26.5810 C   0  0  0  0  0  0  0  0  0  0  0  0
   -0.9900   25.8590  -27.6200 C   0  0  0  0  0  0  0  0  0  0  0  0
   -1.7870   25.6210  -28.8060 N   0  0  0  0  0  0  0  0  0  0  0  0
   -4.7630   24.8870  -29.9680 C   0  0  0  0  0  0  0  0  0  0  0  0
   -5.7020   24.3720  -30.8750 C   0  0  0  0  0  0  0  0  0  0  0  0
   -5.5870   23.0410  -31.2560 C   0  0  0  0  0  0  0  0  0  0  0  0
   -6.5550   22.1600  -32.3050 S   0  0  0  0  0  0  0  0  0  0  0  0
   -5.1500   19.0020  -33.8530 C   0  0  0  0  0  0  0  0  0  0  0  0
   -3.2645   16.3544  -34.3803 H   0  0  0  0  0  0  0  0  0  0  0  0
   -3.7134   15.5661  -35.9307 H   0  0  0  0  0  0  0  0  0  0  0  0
   -2.6134   16.9862  -35.9307 H   0  0  0  0  0  0  0  0  0  0  0  0
   -6.7190   16.0363  -34.5221 H   0  0  0  0  0  0  0  0  0  0  0  0
   -8.1242   16.8152  -32.6162 H   0  0  0  0  0  0  0  0  0  0  0  0
   -7.6363   18.9877  -31.5026 H   0  0  0  0  0  0  0  0  0  0  0  0
   -3.9360   20.2120  -30.9340 H   0  0  0  0  0  0  0  0  0  0  0  0
   -2.8524   22.0608  -29.4718 H   0  0  0  0  0  0  0  0  0  0  0  0
   -1.9840   25.4502  -25.7237 H   0  0  0  0  0  0  0  0  0  0  0  0
   -0.8168   24.2076  -26.1798 H   0  0  0  0  0  0  0  0  0  0  0  0
   -1.0887   26.9021  -27.2850 H   0  0  0  0  0  0  0  0  0  0  0  0
    0.0843   25.6959  -27.7911 H   0  0  0  0  0  0  0  0  0  0  0  0
   -1.6250   26.0720  -29.7320 H   0  0  0  0  0  0  0  0  0  0  0  0
   -4.8337   25.9380  -29.6510 H   0  0  0  0  0  0  0  0  0  0  0  0
   -6.5079   25.0056  -31.2738 H   0  0  0  0  0  0  0  0  0  0  0  0
   -4.3107   19.6199  -34.2049 H   0  0  0  0  0  0  0  0  0  0  0  0
  1  2  1  0
  2  3  1  0
  3  4  2  0
  4  5  1  0
  5  6  2  0
  6  7  1  0
  7  8  1  0
  8  9  2  0
  9 10  1  0
 10 11  2  0
 11 12  1  0
 12 13  1  0
 13 14  2  0
 14 15  1  0
 15 16  1  0
 16 17  1  0
 12 18  2  0
 18 19  1  0
 19 20  2  0
 20 21  1  0
  7 22  2  0
 22  3  1  0
 21  8  1  0
 20 10  1  0
 17 13  1  0
  1 23  1  0
  1 24  1  0
  1 25  1  0
  4 26  1  0
  5 27  1  0
  6 28  1  0
  9 29  1  0
 11 30  1  0
 15 31  1  0
 15 32  1  0
 16 33  1  0
 16 34  1  0
 17 35  1  0
 18 36  1  0
 19 37  1  0
 22 38  1  0
M  CHG  1   9   1
M  END
>  <UniqueID>  (18) 
18

>  <SMILES>  (18) 
COc1cccc(-c2[nH+]c3cc(C4=NCCN4)ccc3s2)c1

>  <Energy>  (18) 
91.02689383301184

>  <Genealogy>  (18) 
COc1cccc(-c2[nH+]c3cc(C4=NCCN4)ccc3s2)c1 (protonated)
COc1cccc(-c2[nH+]c3cc(C4=NCCN4)ccc3s2)c1 (3D coordinates assigned)
COc1cccc(-c2[nH+]c3cc(C4=NCCN4)ccc3s2)c1 (nonaromatic ring conformer: 91.02689383301184 kcal/mol)

>  <smiles>  (18) 
COc1cccc(-c2nc3cc(C4=NCCN4)ccc3s2)c1

>  <score_type>  (18) 
oracle

>  <origin>  (18) 
adg

>  <m_score__min__energy>  (18) 
-7.6299999999999999

>  <m_primary>  (18) 
energy

$$$$
18:0
     RDKit          3D

 58 61  0  0  0  0  0  0  0  0999 V2000
   -2.9280   19.3040  -26.8310 C   0  0  0  0  0  0  0  0  0  0  0  0
   -1.7380   19.9630  -27.5220 C   0  0  0  0  0  0  0  0  0  0  0  0
   -2.1950   20.9330  -28.5390 N   0  0  0  0  0  0  0  0  0  0  0  0
   -2.8070   20.4230  -29.6520 C   0  0  0  0  0  0  0  0  0  0  0  0
   -3.2660   21.2500  -30.6780 C   0  0  0  0  0  0  0  0  0  0  0  0
   -4.0160   20.5440  -32.1130 S   0  0  0  0  0  0  0  0  0  0  0  0
   -3.6220   19.0960  -32.2190 O   0  0  0  0  0  0  0  0  0  0  0  0
   -3.5530   21.2490  -33.3570 O   0  0  0  0  0  0  0  0  0  0  0  0
   -5.7640   20.7030  -31.9800 C   0  0  0  0  0  0  0  0  0  0  0  0
   -6.5550   19.5540  -31.8570 C   0  0  0  0  0  0  0  0  0  0  0  0
   -7.9490   19.6610  -31.7490 C   0  0  0  0  0  0  0  0  0  0  0  0
   -8.7950   18.4260  -31.6480 C   0  0  0  0  0  0  0  0  0  0  0  0
   -8.5520   20.9260  -31.8050 C   0  0  0  0  0  0  0  0  0  0  0  0
   -7.7680   22.0810  -31.9520 C   0  0  0  0  0  0  0  0  0  0  0  0
   -8.4130   23.4350  -31.9690 C   0  0  0  0  0  0  0  0  0  0  0  0
   -6.3710   21.9650  -32.0220 C   0  0  0  0  0  0  0  0  0  0  0  0
   -3.0950   22.6320  -30.5680 C   0  0  0  0  0  0  0  0  0  0  0  0
   -3.4850   23.3880  -31.5010 O   0  0  0  0  0  0  0  0  0  0  0  0
   -2.4930   23.1720  -29.4190 C   0  0  0  0  0  0  0  0  0  0  0  0
   -2.3290   24.5630  -29.2810 C   0  0  0  0  0  0  0  0  0  0  0  0
   -1.7500   25.1020  -28.1350 C   0  0  0  0  0  0  0  0  0  0  0  0
   -1.5800   26.4460  -28.0600 F   0  0  0  0  0  0  0  0  0  0  0  0
   -1.3260   24.2650  -27.0930 C   0  0  0  0  0  0  0  0  0  0  0  0
   -0.7390   24.8150  -25.8950 N   0  0  0  0  0  0  0  0  0  0  0  0
   -1.1980   26.1090  -25.3740 C   0  0  0  0  0  0  0  0  0  0  0  0
   -0.8640   26.2260  -23.8820 C   0  0  0  0  0  0  0  0  0  0  0  0
    0.5780   26.0430  -23.6080 N   0  0  0  0  0  0  0  0  0  0  0  0
    1.2840   25.1340  -24.5400 C   0  0  0  0  0  0  0  0  0  0  0  0
    0.3480   24.1140  -25.2010 C   0  0  0  0  0  0  0  0  0  0  0  0
   -1.4770   22.8740  -27.2270 C   0  0  0  0  0  0  0  0  0  0  0  0
   -2.0500   22.3010  -28.3880 C   0  0  0  0  0  0  0  0  0  0  0  0
   -2.8031   19.3732  -25.7403 H   0  0  0  0  0  0  0  0  0  0  0  0
   -3.8545   19.8176  -27.1273 H   0  0  0  0  0  0  0  0  0  0  0  0
   -2.9843   18.2461  -27.1273 H   0  0  0  0  0  0  0  0  0  0  0  0
   -1.1294   20.4875  -26.7707 H   0  0  0  0  0  0  0  0  0  0  0  0
   -1.1423   19.1836  -28.0197 H   0  0  0  0  0  0  0  0  0  0  0  0
   -2.9403   19.3346  -29.7399 H   0  0  0  0  0  0  0  0  0  0  0  0
   -6.0801   18.5619  -31.8450 H   0  0  0  0  0  0  0  0  0  0  0  0
   -8.9623   18.1818  -30.5886 H   0  0  0  0  0  0  0  0  0  0  0  0
   -9.7624   18.6030  -32.1407 H   0  0  0  0  0  0  0  0  0  0  0  0
   -8.2805   17.5878  -32.1407 H   0  0  0  0  0  0  0  0  0  0  0  0
   -9.6462   21.0136  -31.7333 H   0  0  0  0  0  0  0  0  0  0  0  0
   -8.5757   23.7766  -30.9361 H   0  0  0  0  0  0  0  0  0  0  0  0
   -7.7573   24.1470  -32.4917 H   0  0  0  0  0  0  0  0  0  0  0  0
   -9.3790   23.3744  -32.4917 H   0  0  0  0  0  0  0  0  0  0  0  0
   -5.7501   22.8687  -32.1102 H   0  0  0  0  0  0  0  0  0  0  0  0
   -2.6621   25.2323  -30.0879 H   0  0  0  0  0  0  0  0  0  0  0  0
   -0.6978   26.9202  -25.9233 H   0  0  0  0  0  0  0  0  0  0  0  0
   -2.2876   26.1835  -25.5055 H   0  0  0  0  0  0  0  0  0  0  0  0
   -1.1661   27.2235  -23.5301 H   0  0  0  0  0  0  0  0  0  0  0  0
   -1.4081   25.4289  -23.3543 H   0  0  0  0  0  0  0  0  0  0  0  0
    0.6830   25.6760  -22.6330 H   0  0  0  0  0  0  0  0  0  0  0  0
    1.0480   26.9780  -23.6380 H   0  0  0  0  0  0  0  0  0  0  0  0
    1.7580   25.7378  -25.3279 H   0  0  0  0  0  0  0  0  0  0  0  0
    2.0258   24.5711  -23.9544 H   0  0  0  0  0  0  0  0  0  0  0  0
    0.9163   23.5126  -25.9258 H   0  0  0  0  0  0  0  0  0  0  0  0
   -0.0779   23.4571  -24.4283 H   0  0  0  0  0  0  0  0  0  0  0  0
   -1.1425   22.2158  -26.4116 H   0  0  0  0  0  0  0  0  0  0  0  0
  1  2  1  0
  2  3  1  0
  3  4  1  0
  4  5  2  0
  5  6  1  0
  6  7  2  0
  6  8  2  0
  6  9  1  0
  9 10  2  0
 10 11  1  0
 11 12  1  0
 11 13  2  0
 13 14  1  0
 14 15  1  0
 14 16  2  0
  5 17  1  0
 17 18  2  0
 17 19  1  0
 19 20  2  0
 20 21  1  0
 21 22  1  0
 21 23  2  0
 23 24  1  0
 24 25  1  0
 25 26  1  0
 26 27  1  0
 27 28  1  0
 28 29  1  0
 23 30  1  0
 30 31  2  0
 31  3  1  0
 16  9  1  0
 31 19  1  0
 29 24  1  0
  1 32  1  0
  1 33  1  0
  1 34  1  0
  2 35  1  0
  2 36  1  0
  4 37  1  0
 10 38  1  0
 12 39  1  0
 12 40  1  0
 12 41  1  0
 13 42  1  0
 15 43  1  0
 15 44  1  0
 15 45  1  0
 16 46  1  0
 20 47  1  0
 25 48  1  0
 25 49  1  0
 26 50  1  0
 26 51  1  0
 27 52  1  0
 27 53  1  0
 28 54  1  0
 28 55  1  0
 29 56  1  0
 29 57  1  0
 30 58  1  0
M  CHG  1  27   1
M  END
>  <UniqueID>  (19) 
19

>  <SMILES>  (19) 
CCn1cc(S(=O)(=O)c2cc(C)cc(C)c2)c(=O)c2cc(F)c(N3CC[NH2+]CC3)cc21

>  <Energy>  (19) 
77.85686223577244

>  <Genealogy>  (19) 
CCn1cc(S(=O)(=O)c2cc(C)cc(C)c2)c(=O)c2cc(F)c(N3CC[NH2+]CC3)cc21 (protonated)
CCn1cc(S(=O)(=O)c2cc(C)cc(C)c2)c(=O)c2cc(F)c(N3CC[NH2+]CC3)cc21 (3D coordinates assigned)
CCn1cc(S(=O)(=O)c2cc(C)cc(C)c2)c(=O)c2cc(F)c(N3CC[NH2+]CC3)cc21 (nonaromatic ring conformer: 77.85686223577244 kcal/mol)

>  <smiles>  (19) 
CCn1cc(S(=O)(=O)c2cc(C)cc(C)c2)c(=O)c2cc(F)c(N3CCNCC3)cc21

>  <score_type>  (19) 
oracle

>  <origin>  (19) 
adg

>  <m_score__min__energy>  (19) 
-9.9000000000000004

>  <m_primary>  (19) 
energy

$$$$
19:0
     RDKit          3D

 42 42  0  0  0  0  0  0  0  0999 V2000
   -6.5060   24.8190  -30.1140 C   0  0  0  0  0  0  0  0  0  0  0  0
   -5.3630   24.3660  -31.0220 C   0  0  0  0  0  0  0  0  0  0  0  0
   -5.7730   23.2260  -31.9710 C   0  0  0  0  0  0  0  0  0  0  0  0
   -5.8270   21.8400  -31.2910 C   0  0  0  0  0  0  0  0  0  0  0  0
   -5.5140   20.7200  -32.2160 N   0  0  0  0  0  0  0  0  0  0  0  0
   -4.3750   21.1100  -33.0860 C   0  0  0  0  0  0  0  0  0  0  0  0
   -6.6580   20.2470  -33.0690 C   0  0  1  0  0  0  0  0  0  0  0  0
   -6.1130   19.2970  -34.1850 C   0  0  0  0  0  0  0  0  0  0  0  0
   -6.1540   17.7940  -33.8260 C   0  0  0  0  0  0  0  0  0  0  0  0
   -6.1460   17.5650  -32.3140 C   0  0  0  0  0  0  0  0  0  0  0  0
   -7.3820   18.1940  -31.6520 C   0  0  0  0  0  0  0  0  0  0  0  0
   -7.8340   19.5050  -32.3420 C   0  0  1  0  0  0  0  0  0  0  0  0
   -8.5090   20.3370  -31.4090 O   0  0  0  0  0  0  0  0  0  0  0  0
   -9.5000   21.1390  -32.0260 C   0  0  0  0  0  0  0  0  0  0  0  0
   -9.1050   22.6090  -31.9600 C   0  0  0  0  0  0  0  0  0  0  0  0
   -6.2074   24.7007  -29.0619 H   0  0  0  0  0  0  0  0  0  0  0  0
   -6.7357   25.8761  -30.3133 H   0  0  0  0  0  0  0  0  0  0  0  0
   -7.3975   24.2062  -30.3133 H   0  0  0  0  0  0  0  0  0  0  0  0
   -5.0320   25.2241  -31.6254 H   0  0  0  0  0  0  0  0  0  0  0  0
   -4.5570   23.9867  -30.3766 H   0  0  0  0  0  0  0  0  0  0  0  0
   -6.7702   23.4531  -32.3759 H   0  0  0  0  0  0  0  0  0  0  0  0
   -5.0040   23.1690  -32.7555 H   0  0  0  0  0  0  0  0  0  0  0  0
   -5.0984   21.8265  -30.4670 H   0  0  0  0  0  0  0  0  0  0  0  0
   -6.8572   21.6911  -30.9352 H   0  0  0  0  0  0  0  0  0  0  0  0
   -3.5192   21.4030  -32.4602 H   0  0  0  0  0  0  0  0  0  0  0  0
   -4.0902   20.2582  -33.7211 H   0  0  0  0  0  0  0  0  0  0  0  0
   -4.6721   21.9576  -33.7211 H   0  0  0  0  0  0  0  0  0  0  0  0
   -7.0963   21.1792  -33.4549 H   0  0  0  0  0  0  0  0  0  0  0  0
   -6.7173   19.4500  -35.0913 H   0  0  0  0  0  0  0  0  0  0  0  0
   -5.0530   19.5557  -34.3249 H   0  0  0  0  0  0  0  0  0  0  0  0
   -7.0697   17.3533  -34.2470 H   0  0  0  0  0  0  0  0  0  0  0  0
   -5.2545   17.3200  -34.2459 H   0  0  0  0  0  0  0  0  0  0  0  0
   -6.1432   16.4832  -32.1146 H   0  0  0  0  0  0  0  0  0  0  0  0
   -5.2462   18.0382  -31.8940 H   0  0  0  0  0  0  0  0  0  0  0  0
   -8.2098   17.4709  -31.6958 H   0  0  0  0  0  0  0  0  0  0  0  0
   -7.1104   18.4432  -30.6156 H   0  0  0  0  0  0  0  0  0  0  0  0
   -8.5420   19.2397  -33.1410 H   0  0  0  0  0  0  0  0  0  0  0  0
   -9.6067   20.8386  -33.0788 H   0  0  0  0  0  0  0  0  0  0  0  0
  -10.4542   21.0001  -31.4967 H   0  0  0  0  0  0  0  0  0  0  0  0
   -9.0216   22.9194  -30.9080 H   0  0  0  0  0  0  0  0  0  0  0  0
   -8.1367   22.7514  -32.4622 H   0  0  0  0  0  0  0  0  0  0  0  0
   -9.8715   23.2175  -32.4622 H   0  0  0  0  0  0  0  0  0  0  0  0
  1  2  1  0
  2  3  1  0
  3  4  1  0
  4  5  1  0
  5  6  1  0
  5  7  1  0
  7  8  1  0
  8  9  1  0
  9 10  1  0
 10 11  1  0
 11 12  1  0
 12 13  1  0
 13 14  1  0
 14 15  1  0
 12  7  1  0
  1 16  1  0
  1 17  1  0
  1 18  1  0
  2 19  1  0
  2 20  1  0
  3 21  1  0
  3 22  1  0
  4 23  1  0
  4 24  1  0
  6 25  1  0
  6 26  1  0
  6 27  1  0
  7 28  1  6
  8 29  1  0
  8 30  1  0
  9 31  1  0
  9 32  1  0
 10 33  1  0
 10 34  1  0
 11 35  1  0
 11 36  1  0
 12 37  1  6
 14 38  1  0
 14 39  1  0
 15 40  1  0
 15 41  1  0
 15 42  1  0
M  END
>  <UniqueID>  (20) 
20

>  <SMILES>  (20) 
CCCCN(C)[C@H]1CCCC[C@H]1OCC

>  <Energy>  (20) 
51.13156794815426

>  <Genealogy>  (20) 
CCCCN(C)[C@H]1CCCC[C@H]1OCC (chirality)
CCCCN(C)[C@H]1CCCC[C@H]1OCC (3D coordinates assigned)
CCCCN(C)[C@H]1CCCC[C@H]1OCC (nonaromatic ring conformer: 51.13156794815426 kcal/mol)

>  <smiles>  (20) 
CCCCN(C)C1CCCCC1OCC

>  <score_type>  (20) 
oracle

>  <origin>  (20) 
adg

>  <m_score__min__energy>  (20) 
-5.7699999999999996

>  <m_primary>  (20) 
energy

$$$$
20:0
     RDKit          3D

 37 39  0  0  0  0  0  0  0  0999 V2000
    1.0580   27.8390  -23.3790 C   0  0  0  0  0  0  0  0  0  0  0  0
   -0.2470   27.1620  -22.9790 C   0  0  0  0  0  0  0  0  0  0  0  0
   -0.6450   26.1420  -23.9990 C   0  0  0  0  0  0  0  0  0  0  0  0
   -1.5490   26.3670  -24.9760 N   0  0  0  0  0  0  0  0  0  0  0  0
   -1.5110   25.1980  -25.6530 C   0  0  0  0  0  0  0  0  0  0  0  0
   -2.3270   24.8950  -26.8380 C   0  0  0  0  0  0  0  0  0  0  0  0
   -3.6660   24.5080  -26.7210 C   0  0  0  0  0  0  0  0  0  0  0  0
   -4.3990   24.2300  -27.8730 C   0  0  0  0  0  0  0  0  0  0  0  0
   -3.7850   24.3560  -29.1260 C   0  0  0  0  0  0  0  0  0  0  0  0
   -4.4940   24.0600  -30.3440 N   0  0  0  0  0  0  0  0  0  0  0  0
   -5.5980   24.9090  -30.8160 C   0  0  0  0  0  0  0  0  0  0  0  0
   -6.8180   24.0490  -31.1830 C   0  0  0  0  0  0  0  0  0  0  0  0
   -6.4440   22.7080  -31.8530 C   0  0  0  0  0  0  0  0  0  0  0  0
   -4.9940   22.6750  -32.3490 C   0  0  0  0  0  0  0  0  0  0  0  0
   -4.0270   22.9500  -31.1890 C   0  0  0  0  0  0  0  0  0  0  0  0
   -2.4730   24.7200  -29.1780 N   0  0  0  0  0  0  0  0  0  0  0  0
   -1.7730   24.9840  -28.0750 N   0  0  0  0  0  0  0  0  0  0  0  0
   -0.6480   24.3600  -25.1270 O   0  0  0  0  0  0  0  0  0  0  0  0
   -0.0920   24.9210  -24.1000 N   0  0  0  0  0  0  0  0  0  0  0  0
    1.6137   28.1273  -22.4745 H   0  0  0  0  0  0  0  0  0  0  0  0
    1.6648   27.1420  -23.9756 H   0  0  0  0  0  0  0  0  0  0  0  0
    0.8376   28.7365  -23.9756 H   0  0  0  0  0  0  0  0  0  0  0  0
   -0.1141   26.6672  -22.0056 H   0  0  0  0  0  0  0  0  0  0  0  0
   -1.0368   27.9248  -22.9132 H   0  0  0  0  0  0  0  0  0  0  0  0
   -4.1356   24.4240  -25.7298 H   0  0  0  0  0  0  0  0  0  0  0  0
   -5.4502   23.9145  -27.7993 H   0  0  0  0  0  0  0  0  0  0  0  0
   -5.8784   25.6144  -30.0199 H   0  0  0  0  0  0  0  0  0  0  0  0
   -5.2677   25.4586  -31.7098 H   0  0  0  0  0  0  0  0  0  0  0  0
   -7.3824   23.8340  -30.2636 H   0  0  0  0  0  0  0  0  0  0  0  0
   -7.4117   24.6213  -31.9110 H   0  0  0  0  0  0  0  0  0  0  0  0
   -6.5835   21.8987  -31.1212 H   0  0  0  0  0  0  0  0  0  0  0  0
   -7.0965   22.5828  -32.7297 H   0  0  0  0  0  0  0  0  0  0  0  0
   -4.7784   21.6835  -32.7737 H   0  0  0  0  0  0  0  0  0  0  0  0
   -4.8611   23.4513  -33.1169 H   0  0  0  0  0  0  0  0  0  0  0  0
   -3.9429   22.0431  -30.5722 H   0  0  0  0  0  0  0  0  0  0  0  0
   -3.0515   23.2290  -31.6140 H   0  0  0  0  0  0  0  0  0  0  0  0
    0.6430   24.4950  -23.4940 H   0  0  0  0  0  0  0  0  0  0  0  0
  1  2  1  0
  2  3  1  0
  3  4  1  0
  4  5  2  0
  5  6  1  0
  6  7  2  0
  7  8  1  0
  8  9  2  0
  9 10  1  0
 10 11  1  0
 11 12  1  0
 12 13  1  0
 13 14  1  0
 14 15  1  0
  9 16  1  0
 16 17  2  0
  5 18  1  0
 18 19  1  0
 19  3  2  0
 17  6  1  0
 15 10  1  0
  1 20  1  0
  1 21  1  0
  1 22  1  0
  2 23  1  0
  2 24  1  0
  7 25  1  0
  8 26  1  0
 11 27  1  0
 11 28  1  0
 12 29  1  0
 12 30  1  0
 13 31  1  0
 13 32  1  0
 14 33  1  0
 14 34  1  0
 15 35  1  0
 15 36  1  0
 19 37  1  0
M  CHG  1  19   1
M  END
>  <UniqueID>  (21) 
21

>  <SMILES>  (21) 
CCc1nc(-c2ccc(N3CCCCC3)nn2)o[nH+]1

>  <Energy>  (21) 
72.700766196827

>  <Genealogy>  (21) 
CCc1nc(-c2ccc(N3CCCCC3)nn2)o[nH+]1 (protonated)
CCc1nc(-c2ccc(N3CCCCC3)nn2)o[nH+]1 (3D coordinates assigned)
CCc1nc(-c2ccc(N3CCCCC3)nn2)o[nH+]1 (nonaromatic ring conformer: 72.700766196827 kcal/mol)

>  <smiles>  (21) 
CCc1noc(-c2ccc(N3CCCCC3)nn2)n1

>  <score_type>  (21) 
oracle

>  <origin>  (21) 
adg

>  <m_score__min__energy>  (21) 
-7.4699999999999998

>  <m_primary>  (21) 
energy

$$$$
21:0
     RDKit          3D

 44 47  0  0  0  0  0  0  0  0999 V2000
    0.0220   21.5330  -32.3500 O   0  0  0  0  0  0  0  0  0  0  0  0
   -0.9950   21.5070  -31.6030 C   0  0  0  0  0  0  0  0  0  0  0  0
   -0.8350   21.7870  -30.1590 C   0  0  0  0  0  0  0  0  0  0  0  0
   -1.0890   23.0710  -29.6550 C   0  0  0  0  0  0  0  0  0  0  0  0
   -0.9300   23.3420  -28.2930 C   0  0  0  0  0  0  0  0  0  0  0  0
   -0.5000   22.3380  -27.4080 C   0  0  0  0  0  0  0  0  0  0  0  0
   -0.3400   22.6330  -26.0050 N   0  0  0  0  0  0  0  0  0  0  0  0
    0.3290   23.6500  -25.4250 C   0  0  0  0  0  0  0  0  0  0  0  0
    0.2190   23.5390  -24.0910 N   0  0  0  0  0  0  0  0  0  0  0  0
   -0.5120   22.4600  -23.8610 N   0  0  0  0  0  0  0  0  0  0  0  0
   -0.8500   21.9110  -25.0180 N   0  0  0  0  0  0  0  0  0  0  0  0
   -0.2250   21.0560  -27.9210 C   0  0  0  0  0  0  0  0  0  0  0  0
   -0.3870   20.7860  -29.2830 C   0  0  0  0  0  0  0  0  0  0  0  0
   -2.2830   21.2090  -32.1710 N   0  0  0  0  0  0  0  0  0  0  0  0
   -3.4400   22.0490  -31.8120 C   0  0  0  0  0  0  0  0  0  0  0  0
   -4.6130   21.8190  -32.7660 C   0  0  0  0  0  0  0  0  0  0  0  0
   -4.8280   20.3770  -32.9380 N   0  0  0  0  0  0  0  0  0  0  0  0
   -6.1220   19.7920  -32.6980 C   0  0  0  0  0  0  0  0  0  0  0  0
   -7.2770   20.5950  -32.7040 C   0  0  0  0  0  0  0  0  0  0  0  0
   -8.5310   20.0300  -32.4560 C   0  0  0  0  0  0  0  0  0  0  0  0
   -8.6450   18.6610  -32.1970 C   0  0  0  0  0  0  0  0  0  0  0  0
   -9.8620   18.1140  -31.9590 F   0  0  0  0  0  0  0  0  0  0  0  0
   -7.5020   17.8560  -32.1830 C   0  0  0  0  0  0  0  0  0  0  0  0
   -6.2450   18.4180  -32.4300 C   0  0  0  0  0  0  0  0  0  0  0  0
   -3.6900   19.5070  -33.2750 C   0  0  0  0  0  0  0  0  0  0  0  0
   -2.3670   20.2850  -33.3100 C   0  0  0  0  0  0  0  0  0  0  0  0
   -1.4156   23.8704  -30.3364 H   0  0  0  0  0  0  0  0  0  0  0  0
   -1.1434   24.3508  -27.9099 H   0  0  0  0  0  0  0  0  0  0  0  0
    0.8759   24.4418  -25.9578 H   0  0  0  0  0  0  0  0  0  0  0  0
    0.6230   24.1650  -23.3620 H   0  0  0  0  0  0  0  0  0  0  0  0
    0.1202   20.2603  -27.2445 H   0  0  0  0  0  0  0  0  0  0  0  0
   -0.1617   19.7817  -29.6711 H   0  0  0  0  0  0  0  0  0  0  0  0
   -3.7576   21.8023  -30.7881 H   0  0  0  0  0  0  0  0  0  0  0  0
   -3.1374   23.1042  -31.8829 H   0  0  0  0  0  0  0  0  0  0  0  0
   -5.5211   22.2779  -32.3479 H   0  0  0  0  0  0  0  0  0  0  0  0
   -4.3875   22.2751  -33.7412 H   0  0  0  0  0  0  0  0  0  0  0  0
   -7.1927   21.6732  -32.9049 H   0  0  0  0  0  0  0  0  0  0  0  0
   -9.4300   20.6638  -32.4646 H   0  0  0  0  0  0  0  0  0  0  0  0
   -7.5913   16.7791  -31.9774 H   0  0  0  0  0  0  0  0  0  0  0  0
   -5.3482   17.7811  -32.4144 H   0  0  0  0  0  0  0  0  0  0  0  0
   -3.6148   18.7109  -32.5197 H   0  0  0  0  0  0  0  0  0  0  0  0
   -3.8659   19.0873  -34.2764 H   0  0  0  0  0  0  0  0  0  0  0  0
   -1.5282   19.5750  -33.2627 H   0  0  0  0  0  0  0  0  0  0  0  0
   -2.3204   20.8656  -34.2432 H   0  0  0  0  0  0  0  0  0  0  0  0
  1  2  2  0
  2  3  1  0
  3  4  2  0
  4  5  1  0
  5  6  2  0
  6  7  1  0
  7  8  1  0
  8  9  2  0
  9 10  1  0
 10 11  2  0
  6 12  1  0
 12 13  2  0
  2 14  1  0
 14 15  1  0
 15 16  1  0
 16 17  1  0
 17 18  1  0
 18 19  2  0
 19 20  1  0
 20 21  2  0
 21 22  1  0
 21 23  1  0
 23 24  2  0
 17 25  1  0
 25 26  1  0
 13  3  1  0
 26 14  1  0
 11  7  1  0
 24 18  1  0
  4 27  1  0
  5 28  1  0
  8 29  1  0
  9 30  1  0
 12 31  1  0
 13 32  1  0
 15 33  1  0
 15 34  1  0
 16 35  1  0
 16 36  1  0
 19 37  1  0
 20 38  1  0
 23 39  1  0
 24 40  1  0
 25 41  1  0
 25 42  1  0
 26 43  1  0
 26 44  1  0
M  CHG  1   9   1
M  END
>  <UniqueID>  (22) 
22

>  <SMILES>  (22) 
O=C(c1ccc(-n2c[nH+]nn2)cc1)N1CCN(c2ccc(F)cc2)CC1

>  <Energy>  (22) 
99.96359193977383

>  <Genealogy>  (22) 
O=C(c1ccc(-n2c[nH+]nn2)cc1)N1CCN(c2ccc(F)cc2)CC1 (protonated)
O=C(c1ccc(-n2c[nH+]nn2)cc1)N1CCN(c2ccc(F)cc2)CC1 (3D coordinates assigned)
O=C(c1ccc(-n2c[nH+]nn2)cc1)N1CCN(c2ccc(F)cc2)CC1 (nonaromatic ring conformer: 99.96359193977383 kcal/mol)

>  <smiles>  (22) 
O=C(c1ccc(-n2cnnn2)cc1)N1CCN(c2ccc(F)cc2)CC1

>  <score_type>  (22) 
oracle

>  <origin>  (22) 
adg

>  <m_score__min__energy>  (22) 
-8.6300000000000008

>  <m_primary>  (22) 
energy

$$$$
22:0
     RDKit          3D

 24 25  0  0  0  0  0  0  0  0999 V2000
   -6.0940   25.3020  -29.9490 C   0  0  0  0  0  0  0  0  0  0  0  0
   -5.7010   24.5350  -31.2050 C   0  0  0  0  0  0  0  0  0  0  0  0
   -6.4210   23.3150  -31.3580 N   0  0  0  0  0  0  0  0  0  0  0  0
   -7.6080   23.1930  -30.7260 C   0  0  0  0  0  0  0  0  0  0  0  0
   -8.3690   22.0840  -30.8080 N   0  0  0  0  0  0  0  0  0  0  0  0
   -7.9190   21.0540  -31.5570 C   0  0  0  0  0  0  0  0  0  0  0  0
   -8.6980   19.9190  -31.6410 C   0  0  0  0  0  0  0  0  0  0  0  0
   -8.2370   18.8750  -32.4040 C   0  0  0  0  0  0  0  0  0  0  0  0
   -7.0230   18.9320  -33.0840 C   0  0  0  0  0  0  0  0  0  0  0  0
   -6.2520   20.0870  -32.9850 C   0  0  0  0  0  0  0  0  0  0  0  0
   -6.7000   21.1480  -32.2220 C   0  0  0  0  0  0  0  0  0  0  0  0
   -5.9450   22.3090  -32.1110 C   0  0  0  0  0  0  0  0  0  0  0  0
   -4.8300   22.3390  -32.7420 N   0  0  0  0  0  0  0  0  0  0  0  0
   -5.7986   24.7256  -29.0599 H   0  0  0  0  0  0  0  0  0  0  0  0
   -5.5843   26.2767  -29.9400 H   0  0  0  0  0  0  0  0  0  0  0  0
   -7.1829   25.4576  -29.9400 H   0  0  0  0  0  0  0  0  0  0  0  0
   -5.8980   25.1710  -32.0806 H   0  0  0  0  0  0  0  0  0  0  0  0
   -4.6347   24.2799  -31.1158 H   0  0  0  0  0  0  0  0  0  0  0  0
   -7.9694   24.0354  -30.1179 H   0  0  0  0  0  0  0  0  0  0  0  0
   -9.6603   19.8522  -31.1122 H   0  0  0  0  0  0  0  0  0  0  0  0
   -8.8470   17.9628  -32.4808 H   0  0  0  0  0  0  0  0  0  0  0  0
   -6.6794   18.0797  -33.6885 H   0  0  0  0  0  0  0  0  0  0  0  0
   -5.2892   20.1546  -33.5126 H   0  0  0  0  0  0  0  0  0  0  0  0
   -4.6380   22.6390  -33.6960 H   0  0  0  0  0  0  0  0  0  0  0  0
  1  2  1  0
  2  3  1  0
  3  4  1  0
  4  5  2  0
  5  6  1  0
  6  7  2  0
  7  8  1  0
  8  9  2  0
  9 10  1  0
 10 11  2  0
 11 12  1  0
 12 13  2  3
 12  3  1  0
 11  6  1  0
  1 14  1  0
  1 15  1  0
  1 16  1  0
  2 17  1  0
  2 18  1  0
  4 19  1  0
  7 20  1  0
  8 21  1  0
  9 22  1  0
 10 23  1  0
 13 24  1  0
M  END
>  <smiles>  (23) 
CCn1cnc2ccccc2c1=N

>  <score_type>  (23) 
oracle

>  <origin>  (23) 
adg

>  <m_score__min__energy>  (23) 
-5.5499999999999998

>  <m_primary>  (23) 
energy

$$$$
23:0
     RDKit          3D

 41 43  0  0  0  0  0  0  0  0999 V2000
   -2.8020   24.5770  -29.3870 C   0  0  0  0  0  0  0  0  0  0  0  0
   -3.6310   25.2950  -30.3460 N   0  0  0  0  0  0  0  0  0  0  0  0
   -4.9890   24.9640  -30.6620 C   0  0  0  0  0  0  0  0  0  0  0  0
   -5.8710   25.8580  -30.5560 O   0  0  0  0  0  0  0  0  0  0  0  0
   -5.3820   23.6250  -31.1440 C   0  0  0  0  0  0  0  0  0  0  0  0
   -6.5520   23.0280  -30.6610 C   0  0  0  0  0  0  0  0  0  0  0  0
   -6.9320   21.7610  -31.1070 C   0  0  0  0  0  0  0  0  0  0  0  0
   -6.1440   21.0560  -32.0330 C   0  0  0  0  0  0  0  0  0  0  0  0
   -6.5860   19.7660  -32.4970 N   0  0  0  0  0  0  0  0  0  0  0  0
   -5.8170   18.6900  -32.7420 C   0  0  0  0  0  0  0  0  0  0  0  0
   -6.6750   17.6710  -33.1200 C   0  0  0  0  0  0  0  0  0  0  0  0
   -6.3220   16.2790  -33.5020 C   0  0  0  0  0  0  0  0  0  0  0  0
   -7.2310   15.4800  -34.2240 C   0  0  0  0  0  0  0  0  0  0  0  0
   -6.9000   14.1600  -34.5870 C   0  0  0  0  0  0  0  0  0  0  0  0
   -7.7790   13.3340  -35.3070 O   0  0  0  0  0  0  0  0  0  0  0  0
   -7.3830   12.4550  -36.3540 C   0  0  0  0  0  0  0  0  0  0  0  0
   -5.6540   13.6420  -34.2260 C   0  0  0  0  0  0  0  0  0  0  0  0
   -4.7450   14.4220  -33.5130 C   0  0  0  0  0  0  0  0  0  0  0  0
   -5.0700   15.7320  -33.1500 C   0  0  0  0  0  0  0  0  0  0  0  0
   -4.1580   16.4550  -32.4530 F   0  0  0  0  0  0  0  0  0  0  0  0
   -7.9320   18.1610  -33.0840 N   0  0  0  0  0  0  0  0  0  0  0  0
   -7.8490   19.4270  -32.7000 N   0  0  0  0  0  0  0  0  0  0  0  0
   -4.9320   21.6350  -32.4860 C   0  0  0  0  0  0  0  0  0  0  0  0
   -4.0110   20.9050  -33.4280 C   0  0  0  0  0  0  0  0  0  0  0  0
   -4.5690   22.9180  -32.0410 C   0  0  0  0  0  0  0  0  0  0  0  0
   -3.1094   24.8432  -28.3649 H   0  0  0  0  0  0  0  0  0  0  0  0
   -2.9233   23.4939  -29.5360 H   0  0  0  0  0  0  0  0  0  0  0  0
   -1.7473   24.8517  -29.5360 H   0  0  0  0  0  0  0  0  0  0  0  0
   -7.1750   23.5596  -29.9266 H   0  0  0  0  0  0  0  0  0  0  0  0
   -7.8605   21.3084  -30.7287 H   0  0  0  0  0  0  0  0  0  0  0  0
   -4.7218   18.6311  -32.6585 H   0  0  0  0  0  0  0  0  0  0  0  0
   -8.2107   15.8922  -34.5074 H   0  0  0  0  0  0  0  0  0  0  0  0
   -6.9676   11.5330  -35.9212 H   0  0  0  0  0  0  0  0  0  0  0  0
   -8.2565   12.2074  -36.9750 H   0  0  0  0  0  0  0  0  0  0  0  0
   -6.6188   12.9453  -36.9750 H   0  0  0  0  0  0  0  0  0  0  0  0
   -5.3884   12.6120  -34.5062 H   0  0  0  0  0  0  0  0  0  0  0  0
   -3.7663   14.0041  -33.2344 H   0  0  0  0  0  0  0  0  0  0  0  0
   -3.2785   20.3244  -32.8481 H   0  0  0  0  0  0  0  0  0  0  0  0
   -4.5988   20.2249  -34.0619 H   0  0  0  0  0  0  0  0  0  0  0  0
   -3.4831   21.6326  -34.0619 H   0  0  0  0  0  0  0  0  0  0  0  0
   -3.6347   23.3733  -32.4013 H   0  0  0  0  0  0  0  0  0  0  0  0
  1  2  1  0
  2  3  1  0
  3  4  2  0
  3  5  1  0
  5  6  2  0
  6  7  1  0
  7  8  2  0
  8  9  1  0
  9 10  1  0
 10 11  2  0
 11 12  1  0
 12 13  2  0
 13 14  1  0
 14 15  1  0
 15 16  1  0
 14 17  2  0
 17 18  1  0
 18 19  2  0
 19 20  1  0
 11 21  1  0
 21 22  2  0
  8 23  1  0
 23 24  1  0
 23 25  2  0
 25  5  1  0
 22  9  1  0
 19 12  1  0
  1 26  1  0
  1 27  1  0
  1 28  1  0
  6 29  1  0
  7 30  1  0
 10 31  1  0
 13 32  1  0
 16 33  1  0
 16 34  1  0
 16 35  1  0
 17 36  1  0
 18 37  1  0
 24 38  1  0
 24 39  1  0
 24 40  1  0
 25 41  1  0
M  CHG  1   2  -1
M  END
>  <UniqueID>  (24) 
23

>  <SMILES>  (24) 
C[N-]C(=O)c1ccc(-n2cc(-c3cc(OC)ccc3F)nn2)c(C)c1

>  <Energy>  (24) 
88.68887515551593

>  <Genealogy>  (24) 
C[N-]C(=O)c1ccc(-n2cc(-c3cc(OC)ccc3F)nn2)c(C)c1 (protonated)
C[N-]C(=O)c1ccc(-n2cc(-c3cc(OC)ccc3F)nn2)c(C)c1 (3D coordinates assigned)
C[N-]C(=O)c1ccc(-n2cc(-c3cc(OC)ccc3F)nn2)c(C)c1 (optimized conformer: 88.68887515551593 kcal/mol)

>  <smiles>  (24) 
CNC(=O)c1ccc(-n2cc(-c3cc(OC)ccc3F)nn2)c(C)c1

>  <score_type>  (24) 
oracle

>  <origin>  (24) 
adg

>  <m_score__min__energy>  (24) 
-9.7899999999999991

>  <m_primary>  (24) 
energy

$$$$
24:0
     RDKit          3D

 46 49  0  0  1  0  0  0  0  0999 V2000
   -7.2770   23.7180  -32.3880 C   0  0  0  0  0  0  0  0  0  0  0  0
   -5.8640   23.4860  -31.9810 C   0  0  0  0  0  0  0  0  0  0  0  0
   -5.3430   24.3340  -31.0830 N   0  0  0  0  0  0  0  0  0  0  0  0
   -4.0660   24.1520  -30.6910 C   0  0  0  0  0  0  0  0  0  0  0  0
   -3.4810   24.9150  -29.8340 N   0  0  0  0  0  0  0  0  0  0  0  0
   -3.3460   23.1410  -31.1980 N   0  0  0  0  0  0  0  0  0  0  0  0
   -3.8470   22.2640  -32.1110 C   0  0  0  0  0  0  0  0  0  0  0  0
   -3.0460   21.1730  -32.6470 C   0  0  0  0  0  0  0  0  0  0  0  0
   -1.6670   21.3490  -32.6880 C   0  0  0  0  0  0  0  0  0  0  0  0
   -0.8060   20.3940  -33.1710 C   0  0  0  0  0  0  0  0  0  0  0  0
    0.4810   20.5720  -33.2030 N   0  0  0  0  0  0  0  0  0  0  0  0
    0.9570   21.3500  -34.3190 C   0  0  0  0  0  0  0  0  0  0  0  0
    2.2520   21.1740  -34.7650 C   0  0  0  0  0  0  0  0  0  0  0  0
    2.7010   21.8990  -35.8080 N   0  0  0  0  0  0  0  0  0  0  0  0
    1.9310   22.8000  -36.4450 C   0  0  0  0  0  0  0  0  0  0  0  0
    0.6300   22.9660  -35.9870 C   0  0  0  0  0  0  0  0  0  0  0  0
    0.1610   22.2490  -34.9420 N   0  0  0  0  0  0  0  0  0  0  0  0
   -1.3700   19.2360  -33.6200 N   0  0  0  0  0  0  0  0  0  0  0  0
   -2.7050   19.0730  -33.5780 C   0  0  0  0  0  0  0  0  0  0  0  0
   -3.3690   17.5300  -34.1840 S   0  0  0  0  0  0  0  0  0  0  0  0
   -4.9890   17.8220  -34.9710 C   0  0  0  0  0  0  0  0  0  0  0  0
   -5.9370   18.2110  -33.8920 C   0  0  0  0  0  0  0  0  0  0  0  0
   -6.4800   19.4890  -33.9570 C   0  0  0  0  0  0  0  0  0  0  0  0
   -7.3700   19.9660  -33.0180 C   0  0  0  0  0  0  0  0  0  0  0  0
   -7.7220   19.1260  -31.9820 C   0  0  0  0  0  0  0  0  0  0  0  0
   -7.1840   17.8490  -31.9120 C   0  0  0  0  0  0  0  0  0  0  0  0
   -6.2880   17.3730  -32.8590 C   0  0  0  0  0  0  0  0  0  0  0  0
   -3.5260   20.0250  -33.0990 N   0  0  0  0  0  0  0  0  0  0  0  0
   -5.1200   22.4710  -32.4800 N   0  0  0  0  0  0  0  0  0  0  0  0
   -7.9048   23.8211  -31.4907 H   0  0  0  0  0  0  0  0  0  0  0  0
   -7.3396   24.6385  -32.9870 H   0  0  0  0  0  0  0  0  0  0  0  0
   -7.6307   22.8659  -32.9870 H   0  0  0  0  0  0  0  0  0  0  0  0
   -3.9420   25.3180  -29.0080 H   0  0  0  0  0  0  0  0  0  0  0  0
   -1.2470   22.2955  -32.3170 H   0  0  0  0  0  0  0  0  0  0  0  0
    2.9130   20.4462  -34.2716 H   0  0  0  0  0  0  0  0  0  0  0  0
    2.3165   23.3822  -37.2950 H   0  0  0  0  0  0  0  0  0  0  0  0
   -0.0294   23.6932  -36.4833 H   0  0  0  0  0  0  0  0  0  0  0  0
   -4.9081   18.6312  -35.7117 H   0  0  0  0  0  0  0  0  0  0  0  0
   -5.3390   16.9188  -35.4923 H   0  0  0  0  0  0  0  0  0  0  0  0
   -6.1883   20.1454  -34.7901 H   0  0  0  0  0  0  0  0  0  0  0  0
   -7.7852   20.9819  -33.0925 H   0  0  0  0  0  0  0  0  0  0  0  0
   -8.4288   19.4684  -31.2118 H   0  0  0  0  0  0  0  0  0  0  0  0
   -7.4770   17.1928  -31.0792 H   0  0  0  0  0  0  0  0  0  0  0  0
   -5.8716   16.3575  -32.7859 H   0  0  0  0  0  0  0  0  0  0  0  0
   -4.5550   19.8620  -33.0820 H   0  0  0  0  0  0  0  0  0  0  0  0
   -5.5910   21.8580  -33.1690 H   0  0  0  0  0  0  0  0  0  0  0  0
  1  2  1  0
  2  3  2  0
  3  4  1  0
  4  5  2  3
  4  6  1  0
  6  7  2  0
  7  8  1  0
  8  9  2  0
  9 10  1  0
 10 11  2  0
 11 12  1  0
 12 13  2  0
 13 14  1  0
 14 15  2  0
 15 16  1  0
 16 17  2  0
 10 18  1  0
 18 19  2  0
 19 20  1  0
 20 21  1  0
 21 22  1  0
 22 23  2  0
 23 24  1  0
 24 25  2  0
 25 26  1  0
 26 27  2  0
 19 28  1  0
  7 29  1  0
 29  2  1  0
 28  8  1  0
 17 12  1  0
 27 22  1  0
  1 30  1  0
  1 31  1  0
  1 32  1  0
  5 33  1  0
  9 34  1  0
 13 35  1  0
 15 36  1  0
 16 37  1  0
 21 38  1  0
 21 39  1  0
 23 40  1  0
 24 41  1  0
 25 42  1  0
 26 43  1  0
 27 44  1  0
 28 45  1  0
 29 46  1  0
M  END
>  <smiles>  (25) 
Cc1nc(=N)nc(-c2cc(=Nc3cnccn3)nc(SCc3ccccc3)[nH]2)[nH]1

>  <score_type>  (25) 
oracle

>  <origin>  (25) 
adg

>  <m_score__min__energy>  (25) 
-9.1999999999999993

>  <m_primary>  (25) 
energy

$$$$
25:0
     RDKit          3D

 40 42  0  0  0  0  0  0  0  0999 V2000
   -2.3950   25.6490  -25.9550 C   0  0  0  0  0  0  0  0  0  0  0  0
   -1.0760   26.0560  -26.6010 C   0  0  0  0  0  0  0  0  0  0  0  0
   -0.9590   25.4730  -27.9850 C   0  0  0  0  0  0  0  0  0  0  0  0
    0.1190   24.9170  -28.3240 O   0  0  0  0  0  0  0  0  0  0  0  0
   -1.9870   25.6420  -28.9690 N   0  0  0  0  0  0  0  0  0  0  0  0
   -2.7480   24.5920  -29.5760 C   0  0  0  0  0  0  0  0  0  0  0  0
   -2.1990   23.3080  -29.6520 C   0  0  0  0  0  0  0  0  0  0  0  0
   -2.9320   22.2580  -30.2130 C   0  0  0  0  0  0  0  0  0  0  0  0
   -4.2370   22.4710  -30.6870 C   0  0  0  0  0  0  0  0  0  0  0  0
   -4.9930   21.3420  -31.2790 C   0  0  0  0  0  0  0  0  0  0  0  0
   -4.4310   20.2570  -31.8770 N   0  0  0  0  0  0  0  0  0  0  0  0
   -5.4880   19.5210  -32.2490 C   0  0  0  0  0  0  0  0  0  0  0  0
   -5.5000   18.2890  -32.8960 C   0  0  0  0  0  0  0  0  0  0  0  0
   -6.7570   17.7060  -33.1740 C   0  0  0  0  0  0  0  0  0  0  0  0
   -6.8290   16.3560  -33.8250 C   0  0  0  0  0  0  0  0  0  0  0  0
   -7.9490   18.3660  -32.7710 C   0  0  0  0  0  0  0  0  0  0  0  0
   -7.8960   19.6230  -32.1300 C   0  0  0  0  0  0  0  0  0  0  0  0
   -9.1430   20.3150  -31.6670 C   0  0  0  0  0  0  0  0  0  0  0  0
   -6.6330   20.1580  -31.8780 C   0  0  0  0  0  0  0  0  0  0  0  0
   -6.3170   21.2810  -31.2810 O   0  0  0  0  0  0  0  0  0  0  0  0
   -4.7990   23.7560  -30.5760 C   0  0  0  0  0  0  0  0  0  0  0  0
   -4.0630   24.8050  -30.0160 C   0  0  0  0  0  0  0  0  0  0  0  0
   -2.2923   25.6807  -24.8603 H   0  0  0  0  0  0  0  0  0  0  0  0
   -3.1872   26.3445  -26.2692 H   0  0  0  0  0  0  0  0  0  0  0  0
   -2.6575   24.6281  -26.2692 H   0  0  0  0  0  0  0  0  0  0  0  0
   -1.0291   27.1531  -26.6661 H   0  0  0  0  0  0  0  0  0  0  0  0
   -0.2480   25.6746  -25.9853 H   0  0  0  0  0  0  0  0  0  0  0  0
   -1.1848   23.1232  -29.2682 H   0  0  0  0  0  0  0  0  0  0  0  0
   -2.4829   21.2564  -30.2838 H   0  0  0  0  0  0  0  0  0  0  0  0
   -3.4230   20.0250  -32.0170 H   0  0  0  0  0  0  0  0  0  0  0  0
   -4.5639   17.7866  -33.1810 H   0  0  0  0  0  0  0  0  0  0  0  0
   -6.8706   15.5768  -33.0497 H   0  0  0  0  0  0  0  0  0  0  0  0
   -7.7315   16.2986  -34.4513 H   0  0  0  0  0  0  0  0  0  0  0  0
   -5.9377   16.2029  -34.4513 H   0  0  0  0  0  0  0  0  0  0  0  0
   -8.9237   17.8926  -32.9604 H   0  0  0  0  0  0  0  0  0  0  0  0
   -9.1679   20.3288  -30.5674 H   0  0  0  0  0  0  0  0  0  0  0  0
   -9.1521   21.3472  -32.0470 H   0  0  0  0  0  0  0  0  0  0  0  0
  -10.0238   19.7766  -32.0470 H   0  0  0  0  0  0  0  0  0  0  0  0
   -5.8240   23.9367  -30.9320 H   0  0  0  0  0  0  0  0  0  0  0  0
   -4.5174   25.8021  -29.9200 H   0  0  0  0  0  0  0  0  0  0  0  0
  1  2  1  0
  2  3  1  0
  3  4  2  0
  3  5  1  0
  5  6  1  0
  6  7  2  0
  7  8  1  0
  8  9  2  0
  9 10  1  0
 10 11  2  0
 11 12  1  0
 12 13  2  0
 13 14  1  0
 14 15  1  0
 14 16  2  0
 16 17  1  0
 17 18  1  0
 17 19  2  0
 19 20  1  0
  9 21  1  0
 21 22  2  0
 22  6  1  0
 20 10  1  0
 19 12  1  0
  1 23  1  0
  1 24  1  0
  1 25  1  0
  2 26  1  0
  2 27  1  0
  7 28  1  0
  8 29  1  0
 11 30  1  0
 13 31  1  0
 15 32  1  0
 15 33  1  0
 15 34  1  0
 16 35  1  0
 18 36  1  0
 18 37  1  0
 18 38  1  0
 21 39  1  0
 22 40  1  0
M  CHG  2   5  -1  11   1
M  END
>  <UniqueID>  (26) 
24

>  <SMILES>  (26) 
CCC(=O)[N-]c1ccc(-c2[nH+]c3cc(C)cc(C)c3o2)cc1

>  <Energy>  (26) 
82.05158970965469

>  <Genealogy>  (26) 
CCC(=O)[N-]c1ccc(-c2[nH+]c3cc(C)cc(C)c3o2)cc1 (protonated)
CCC(=O)[N-]c1ccc(-c2[nH+]c3cc(C)cc(C)c3o2)cc1 (3D coordinates assigned)
CCC(=O)[N-]c1ccc(-c2[nH+]c3cc(C)cc(C)c3o2)cc1 (optimized conformer: 82.05158970965469 kcal/mol)

>  <smiles>  (26) 
CCC(=O)Nc1ccc(-c2nc3cc(C)cc(C)c3o2)cc1

>  <score_type>  (26) 
oracle

>  <origin>  (26) 
adg

>  <m_score__min__energy>  (26) 
-8.9800000000000004

>  <m_primary>  (26) 
energy

$$$$
26:0
     RDKit          3D

 32 33  0  0  0  0  0  0  0  0999 V2000
   -8.4946   23.8755  -32.2790 H   0  0  0  0  0  0  0  0  0  0  0  0
   -7.9540   22.9680  -31.9720 C   0  0  0  0  0  0  0  0  0  0  0  0
   -6.5150   23.1040  -31.6790 C   0  0  0  0  0  0  0  0  0  0  0  0
   -5.7110   23.2610  -32.6370 O   0  0  0  0  0  0  0  0  0  0  0  0
   -6.0390   22.9880  -30.3670 O   0  0  0  0  0  0  0  0  0  0  0  0
   -5.6840   24.1090  -29.5600 C   0  0  0  0  0  0  0  0  0  0  0  0
   -5.0623   23.7679  -28.7191 H   0  0  0  0  0  0  0  0  0  0  0  0
   -6.6026   24.5826  -29.1832 H   0  0  0  0  0  0  0  0  0  0  0  0
   -4.9180   25.1090  -30.3650 C   0  0  0  0  0  0  0  0  0  0  0  0
   -5.5270   26.0410  -30.9550 O   0  0  0  0  0  0  0  0  0  0  0  0
   -3.4950   25.0030  -30.4520 N   0  0  0  0  0  0  0  0  0  0  0  0
   -2.7160   24.1160  -29.5990 C   0  0  0  0  0  0  0  0  0  0  0  0
   -3.3921   23.4301  -29.0675 H   0  0  0  0  0  0  0  0  0  0  0  0
   -2.0159   23.5331  -30.2156 H   0  0  0  0  0  0  0  0  0  0  0  0
   -1.9520   24.9290  -28.6090 C   0  0  0  0  0  0  0  0  0  0  0  0
   -1.3310   26.0480  -28.9000 O   0  0  0  0  0  0  0  0  0  0  0  0
   -0.7360   26.4890  -27.8150 C   0  0  0  0  0  0  0  0  0  0  0  0
   -0.1391   27.4107  -27.7505 H   0  0  0  0  0  0  0  0  0  0  0  0
   -0.9730   25.6210  -26.7680 C   0  0  0  0  0  0  0  0  0  0  0  0
   -0.6104   25.7179  -25.7340 H   0  0  0  0  0  0  0  0  0  0  0  0
   -1.7560   24.6080  -27.2800 C   0  0  0  0  0  0  0  0  0  0  0  0
   -2.1430   23.7294  -26.7431 H   0  0  0  0  0  0  0  0  0  0  0  0
   -8.6570   21.8300  -31.8950 C   0  0  0  0  0  0  0  0  0  0  0  0
   -9.6877   21.8994  -31.5170 H   0  0  0  0  0  0  0  0  0  0  0  0
   -8.1660   20.4930  -32.2740 C   0  0  0  0  0  0  0  0  0  0  0  0
   -8.7310   19.0560  -31.6120 S   0  0  0  0  0  0  0  0  0  0  0  0
   -7.6340   18.0450  -32.3870 C   0  0  0  0  0  0  0  0  0  0  0  0
   -7.5947   16.9491  -32.3006 H   0  0  0  0  0  0  0  0  0  0  0  0
   -6.7860   18.8320  -33.1550 C   0  0  0  0  0  0  0  0  0  0  0  0
   -5.9681   18.4187  -33.7635 H   0  0  0  0  0  0  0  0  0  0  0  0
   -7.0700   20.2010  -33.0820 C   0  0  0  0  0  0  0  0  0  0  0  0
   -6.4859   20.9691  -33.6100 H   0  0  0  0  0  0  0  0  0  0  0  0
  1  2  1  0
  2  3  1  0
  3  4  2  0
  3  5  1  0
  5  6  1  0
  6  7  1  0
  6  8  1  0
  6  9  1  0
  9 10  2  0
  9 11  1  0
 11 12  1  0
 12 13  1  0
 12 14  1  0
 12 15  1  0
 15 16  1  0
 16 17  1  0
 17 18  1  0
 17 19  2  0
 19 20  1  0
 19 21  1  0
 21 22  1  0
  2 23  2  0
 23 24  1  0
 23 25  1  0
 25 26  1  0
 26 27  1  0
 27 28  1  0
 27 29  2  0
 29 30  1  0
 29 31  1  0
 31 32  1  0
 21 15  2  0
 31 25  2  0
M  CHG  1  11  -1
M  END
>  <UniqueID>  (27) 
25

>  <SMILES>  (27) 
O=C(COC(=O)/C=C\c1cccs1)[N-]Cc1ccco1

>  <Energy>  (27) 
83.12308607192215

>  <Genealogy>  (27) 
O=C(COC(=O)C=Cc1cccs1)[N-]Cc1ccco1 (protonated)
O=C(COC(=O)/C=C\c1cccs1)[N-]Cc1ccco1 (cis-trans isomerization)
O=C(COC(=O)/C=C\c1cccs1)[N-]Cc1ccco1 (3D coordinates assigned)
O=C(COC(=O)/C=C\c1cccs1)[N-]Cc1ccco1 (optimized conformer: 83.12308607192215 kcal/mol)

>  <smiles>  (27) 
O=C(COC(=O)C=Cc1cccs1)NCc1ccco1

>  <score_type>  (27) 
oracle

>  <origin>  (27) 
adg

>  <m_score__min__energy>  (27) 
-9.4600000000000009

>  <m_primary>  (27) 
energy

$$$$
27:0
     RDKit          3D

 33 34  0  0  0  0  0  0  0  0999 V2000
   -3.8310   24.1630  -29.7060 C   0  0  0  0  0  0  0  0  0  0  0  0
   -4.6060   24.6440  -30.8630 N   0  0  0  0  0  0  0  0  0  0  0  0
   -5.5780   25.6540  -30.4170 C   0  0  0  0  0  0  0  0  0  0  0  0
   -5.3040   23.5270  -31.5370 C   0  0  0  0  0  0  0  0  0  0  0  0
   -6.8190   23.7790  -31.6290 C   0  0  0  0  0  0  0  0  0  0  0  0
   -7.6440   22.7920  -30.7890 C   0  0  0  0  0  0  0  0  0  0  0  0
   -8.4830   21.9390  -31.6340 N   0  0  0  0  0  0  0  0  0  0  0  0
   -8.1150   20.6240  -32.0920 C   0  0  0  0  0  0  0  0  0  0  0  0
   -8.7040   19.4420  -31.5580 C   0  0  0  0  0  0  0  0  0  0  0  0
   -8.3190   18.1730  -32.0260 C   0  0  0  0  0  0  0  0  0  0  0  0
   -7.3480   18.1330  -33.0170 C   0  0  0  0  0  0  0  0  0  0  0  0
   -6.8130   17.0650  -33.6250 N   0  0  0  0  0  0  0  0  0  0  0  0
   -5.9290   17.5550  -34.4900 N   0  0  0  0  0  0  0  0  0  0  0  0
   -5.9200   18.8850  -34.4190 N   0  0  0  0  0  0  0  0  0  0  0  0
   -6.8010   19.2460  -33.5030 N   0  0  0  0  0  0  0  0  0  0  0  0
   -7.1310   20.4930  -33.0930 C   0  0  0  0  0  0  0  0  0  0  0  0
   -4.3301   24.4728  -28.7760 H   0  0  0  0  0  0  0  0  0  0  0  0
   -3.7657   23.0654  -29.7391 H   0  0  0  0  0  0  0  0  0  0  0  0
   -2.8185   24.5917  -29.7391 H   0  0  0  0  0  0  0  0  0  0  0  0
   -5.6022   25.6792  -29.3176 H   0  0  0  0  0  0  0  0  0  0  0  0
   -5.2822   26.6418  -30.8000 H   0  0  0  0  0  0  0  0  0  0  0  0
   -6.5765   25.3962  -30.8000 H   0  0  0  0  0  0  0  0  0  0  0  0
   -4.8986   23.4140  -32.5533 H   0  0  0  0  0  0  0  0  0  0  0  0
   -5.1424   22.6136  -30.9458 H   0  0  0  0  0  0  0  0  0  0  0  0
   -7.0267   24.7995  -31.2749 H   0  0  0  0  0  0  0  0  0  0  0  0
   -7.1121   23.6414  -32.6803 H   0  0  0  0  0  0  0  0  0  0  0  0
   -6.9588   22.1568  -30.2085 H   0  0  0  0  0  0  0  0  0  0  0  0
   -8.3006   23.3706  -30.1226 H   0  0  0  0  0  0  0  0  0  0  0  0
   -9.4230   22.3120  -31.9020 H   0  0  0  0  0  0  0  0  0  0  0  0
   -9.4683   19.5228  -30.7710 H   0  0  0  0  0  0  0  0  0  0  0  0
   -8.7677   17.2525  -31.6243 H   0  0  0  0  0  0  0  0  0  0  0  0
   -7.0230   16.0540  -33.4710 H   0  0  0  0  0  0  0  0  0  0  0  0
   -6.6453   21.3788  -33.5283 H   0  0  0  0  0  0  0  0  0  0  0  0
  1  2  1  0
  2  3  1  0
  2  4  1  0
  4  5  1  0
  5  6  1  0
  6  7  1  0
  7  8  1  0
  8  9  1  0
  9 10  2  0
 10 11  1  0
 11 12  2  0
 12 13  1  0
 13 14  2  0
 14 15  1  0
 15 16  1  0
 16  8  2  0
 15 11  1  0
  1 17  1  0
  1 18  1  0
  1 19  1  0
  3 20  1  0
  3 21  1  0
  3 22  1  0
  4 23  1  0
  4 24  1  0
  5 25  1  0
  5 26  1  0
  6 27  1  0
  6 28  1  0
  7 29  1  0
  9 30  1  0
 10 31  1  0
 12 32  1  0
 16 33  1  0
M  CHG  1  12   1
M  END
>  <UniqueID>  (28) 
26

>  <SMILES>  (28) 
CN(C)CCCNc1ccc2[nH+]nnn2c1

>  <Energy>  (28) 
77.3578640964482

>  <Genealogy>  (28) 
CN(C)CCCNc1ccc2[nH+]nnn2c1 (protonated)
CN(C)CCCNc1ccc2[nH+]nnn2c1 (3D coordinates assigned)
CN(C)CCCNc1ccc2[nH+]nnn2c1 (optimized conformer: 77.3578640964482 kcal/mol)

>  <smiles>  (28) 
CN(C)CCCNc1ccc2nnnn2c1

>  <score_type>  (28) 
oracle

>  <origin>  (28) 
adg

>  <m_score__min__energy>  (28) 
-5.9900000000000002

>  <m_primary>  (28) 
energy

$$$$
28:0
     RDKit          3D

 47 51  0  0  0  0  0  0  0  0999 V2000
   -9.4860   18.7090  -31.9840 C   0  0  0  0  0  0  0  0  0  0  0  0
   -8.3610   19.5970  -32.3060 N   0  0  0  0  0  0  0  0  0  0  0  0
   -8.3800   20.9320  -31.9560 C   0  0  0  0  0  0  0  0  0  0  0  0
   -9.4120   21.4120  -31.4070 O   0  0  0  0  0  0  0  0  0  0  0  0
   -7.2780   21.7440  -32.1830 N   0  0  0  0  0  0  0  0  0  0  0  0
   -7.3320   23.1770  -31.8270 C   0  0  0  0  0  0  0  0  0  0  0  0
   -6.2210   23.5220  -30.8700 C   0  0  0  0  0  0  0  0  0  0  0  0
   -5.4160   24.6530  -31.0920 C   0  0  0  0  0  0  0  0  0  0  0  0
   -4.3640   24.9520  -30.2200 C   0  0  0  0  0  0  0  0  0  0  0  0
   -4.1050   24.1240  -29.1220 C   0  0  0  0  0  0  0  0  0  0  0  0
   -2.7850   24.5000  -28.0300 Cl  0  0  0  0  0  0  0  0  0  0  0  0
   -4.9000   22.9940  -28.8990 C   0  0  0  0  0  0  0  0  0  0  0  0
   -5.9520   22.6930  -29.7690 C   0  0  0  0  0  0  0  0  0  0  0  0
   -6.1440   21.2230  -32.7660 C   0  0  0  0  0  0  0  0  0  0  0  0
   -5.1160   21.9270  -32.9620 O   0  0  0  0  0  0  0  0  0  0  0  0
   -6.1550   19.8910  -33.1380 C   0  0  0  0  0  0  0  0  0  0  0  0
   -7.2330   19.1050  -32.8860 C   0  0  0  0  0  0  0  0  0  0  0  0
   -6.9390   17.8000  -33.1000 N   0  0  0  0  0  0  0  0  0  0  0  0
   -5.6660   17.8840  -33.5680 C   0  0  0  0  0  0  0  0  0  0  0  0
   -5.1720   19.1140  -33.6060 N   0  0  0  0  0  0  0  0  0  0  0  0
   -3.7330   19.1110  -33.4260 C   0  0  0  0  0  0  0  0  0  0  0  0
   -3.3830   17.5970  -33.3630 C   0  0  0  0  0  0  0  0  0  0  0  0
   -4.6680   16.8850  -33.4540 N   0  0  0  0  0  0  0  0  0  0  0  0
   -4.8600   15.4560  -33.4350 C   0  0  0  0  0  0  0  0  0  0  0  0
   -5.8900   14.8660  -34.1930 C   0  0  0  0  0  0  0  0  0  0  0  0
   -6.0810   13.4810  -34.1730 C   0  0  0  0  0  0  0  0  0  0  0  0
   -5.2540   12.6700  -33.3920 C   0  0  0  0  0  0  0  0  0  0  0  0
   -4.2370   13.2430  -32.6260 C   0  0  0  0  0  0  0  0  0  0  0  0
   -4.0410   14.6290  -32.6430 C   0  0  0  0  0  0  0  0  0  0  0  0
   -9.5884   18.6282  -30.8918 H   0  0  0  0  0  0  0  0  0  0  0  0
  -10.4125   19.1219  -32.4096 H   0  0  0  0  0  0  0  0  0  0  0  0
   -9.2996   17.7119  -32.4096 H   0  0  0  0  0  0  0  0  0  0  0  0
   -7.2251   23.7816  -32.7397 H   0  0  0  0  0  0  0  0  0  0  0  0
   -8.2975   23.3889  -31.3445 H   0  0  0  0  0  0  0  0  0  0  0  0
   -5.6143   25.3055  -31.9551 H   0  0  0  0  0  0  0  0  0  0  0  0
   -3.7391   25.8397  -30.3977 H   0  0  0  0  0  0  0  0  0  0  0  0
   -4.6966   22.3413  -28.0373 H   0  0  0  0  0  0  0  0  0  0  0  0
   -6.5722   21.8023  -29.5902 H   0  0  0  0  0  0  0  0  0  0  0  0
   -3.2288   19.5969  -34.2743 H   0  0  0  0  0  0  0  0  0  0  0  0
   -3.4100   19.6648  -32.5322 H   0  0  0  0  0  0  0  0  0  0  0  0
   -2.7306   17.3192  -34.2040 H   0  0  0  0  0  0  0  0  0  0  0  0
   -2.8441   17.3439  -32.4380 H   0  0  0  0  0  0  0  0  0  0  0  0
   -6.5489   15.4993  -34.8052 H   0  0  0  0  0  0  0  0  0  0  0  0
   -6.8842   13.0290  -34.7735 H   0  0  0  0  0  0  0  0  0  0  0  0
   -5.4040   11.5803  -33.3805 H   0  0  0  0  0  0  0  0  0  0  0  0
   -3.5887   12.6043  -32.0081 H   0  0  0  0  0  0  0  0  0  0  0  0
   -3.2415   15.0750  -32.0333 H   0  0  0  0  0  0  0  0  0  0  0  0
  1  2  1  0
  2  3  1  0
  3  4  2  0
  3  5  1  0
  5  6  1  0
  6  7  1  0
  7  8  2  0
  8  9  1  0
  9 10  2  0
 10 11  1  0
 10 12  1  0
 12 13  2  0
  5 14  1  0
 14 15  2  0
 14 16  1  0
 16 17  2  0
 17 18  1  0
 18 19  2  0
 19 20  1  0
 20 21  1  0
 21 22  1  0
 22 23  1  0
 23 24  1  0
 24 25  2  0
 25 26  1  0
 26 27  2  0
 27 28  1  0
 28 29  2  0
 17  2  1  0
 23 19  1  0
 29 24  1  0
 13  7  1  0
 20 16  1  0
  1 30  1  0
  1 31  1  0
  1 32  1  0
  6 33  1  0
  6 34  1  0
  8 35  1  0
  9 36  1  0
 12 37  1  0
 13 38  1  0
 21 39  1  0
 21 40  1  0
 22 41  1  0
 22 42  1  0
 25 43  1  0
 26 44  1  0
 27 45  1  0
 28 46  1  0
 29 47  1  0
M  END
>  <UniqueID>  (29) 
27

>  <SMILES>  (29) 
Cn1c(=O)n(Cc2ccc(Cl)cc2)c(=O)c2c1nc1n2CCN1c1ccccc1

>  <Energy>  (29) 
130.84433028657878

>  <Genealogy>  (29) 
Cn1c(=O)n(Cc2ccc(Cl)cc2)c(=O)c2c1nc1n2CCN1c1ccccc1 (3D coordinates assigned)
Cn1c(=O)n(Cc2ccc(Cl)cc2)c(=O)c2c1nc1n2CCN1c1ccccc1 (nonaromatic ring conformer: 130.84433028657878 kcal/mol)

>  <smiles>  (29) 
Cn1c(=O)n(Cc2ccc(Cl)cc2)c(=O)c2c1nc1n2CCN1c1ccccc1

>  <score_type>  (29) 
oracle

>  <origin>  (29) 
adg

>  <m_score__min__energy>  (29) 
-8.75

>  <m_primary>  (29) 
energy

$$$$
29:0
     RDKit          3D

 33 35  0  0  0  0  0  0  0  0999 V2000
   -5.0090   18.2170  -34.1830 C   0  0  0  0  0  0  0  0  0  0  0  0
   -4.3910   19.2780  -33.4640 O   0  0  0  0  0  0  0  0  0  0  0  0
   -5.0780   20.3330  -32.8420 C   0  0  0  0  0  0  0  0  0  0  0  0
   -6.4510   20.2380  -32.5460 C   0  0  0  0  0  0  0  0  0  0  0  0
   -7.1160   21.2820  -31.9060 C   0  0  0  0  0  0  0  0  0  0  0  0
   -6.4200   22.4360  -31.5410 C   0  0  0  0  0  0  0  0  0  0  0  0
   -7.0620   23.4910  -30.8850 C   0  0  0  0  0  0  0  0  0  0  0  0
   -6.3330   24.6230  -30.5300 C   0  0  0  0  0  0  0  0  0  0  0  0
   -4.9720   24.6740  -30.8400 C   0  0  0  0  0  0  0  0  0  0  0  0
   -4.2930   25.6860  -30.5260 O   0  0  0  0  0  0  0  0  0  0  0  0
   -4.3870   23.6570  -31.4670 O   0  0  0  0  0  0  0  0  0  0  0  0
   -5.0420   22.5540  -31.8310 C   0  0  0  0  0  0  0  0  0  0  0  0
   -4.3680   21.5100  -32.5040 C   0  0  0  0  0  0  0  0  0  0  0  0
   -2.8850   21.6280  -32.8200 C   0  0  0  0  0  0  0  0  0  0  0  0
   -2.0340   20.7080  -31.9600 C   0  0  0  0  0  0  0  0  0  0  0  0
   -1.8300   20.9680  -30.5830 C   0  0  0  0  0  0  0  0  0  0  0  0
   -2.5000   22.3770  -29.7620 Cl  0  0  0  0  0  0  0  0  0  0  0  0
   -1.0560   20.0850  -29.8240 C   0  0  0  0  0  0  0  0  0  0  0  0
   -0.4920   18.9960  -30.4010 N   0  0  0  0  0  0  0  0  0  0  0  0
   -0.6490   18.7260  -31.7200 C   0  0  0  0  0  0  0  0  0  0  0  0
   -1.4120   19.5720  -32.5290 C   0  0  0  0  0  0  0  0  0  0  0  0
   -1.5350   19.1830  -34.2420 Cl  0  0  0  0  0  0  0  0  0  0  0  0
   -5.4320   17.4908  -33.4733 H   0  0  0  0  0  0  0  0  0  0  0  0
   -5.8125   18.6221  -34.8158 H   0  0  0  0  0  0  0  0  0  0  0  0
   -4.2603   17.7180  -34.8158 H   0  0  0  0  0  0  0  0  0  0  0  0
   -7.0053   19.3292  -32.8231 H   0  0  0  0  0  0  0  0  0  0  0  0
   -8.1908   21.1968  -31.6880 H   0  0  0  0  0  0  0  0  0  0  0  0
   -8.1350   23.4271  -30.6512 H   0  0  0  0  0  0  0  0  0  0  0  0
   -6.8208   25.4631  -30.0140 H   0  0  0  0  0  0  0  0  0  0  0  0
   -2.7275   21.3688  -33.8774 H   0  0  0  0  0  0  0  0  0  0  0  0
   -2.5785   22.6631  -32.6085 H   0  0  0  0  0  0  0  0  0  0  0  0
   -0.9038   20.2754  -28.7514 H   0  0  0  0  0  0  0  0  0  0  0  0
   -0.1728   17.8355  -32.1562 H   0  0  0  0  0  0  0  0  0  0  0  0
  1  2  1  0
  2  3  1  0
  3  4  2  0
  4  5  1  0
  5  6  2  0
  6  7  1  0
  7  8  2  0
  8  9  1  0
  9 10  2  0
  9 11  1  0
 11 12  1  0
 12 13  2  0
 13 14  1  0
 14 15  1  0
 15 16  2  0
 16 17  1  0
 16 18  1  0
 18 19  2  0
 19 20  1  0
 20 21  2  0
 21 22  1  0
 13  3  1  0
 21 15  1  0
 12  6  1  0
  1 23  1  0
  1 24  1  0
  1 25  1  0
  4 26  1  0
  5 27  1  0
  7 28  1  0
  8 29  1  0
 14 30  1  0
 14 31  1  0
 18 32  1  0
 20 33  1  0
M  END
>  <UniqueID>  (30) 
28

>  <SMILES>  (30) 
COc1ccc2ccc(=O)oc2c1Cc1c(Cl)cncc1Cl

>  <Energy>  (30) 
44.495577677582276

>  <Genealogy>  (30) 
COc1ccc2ccc(=O)oc2c1Cc1c(Cl)cncc1Cl (3D coordinates assigned)
COc1ccc2ccc(=O)oc2c1Cc1c(Cl)cncc1Cl (optimized conformer: 44.495577677582276 kcal/mol)

>  <smiles>  (30) 
COc1ccc2ccc(=O)oc2c1Cc1c(Cl)cncc1Cl

>  <score_type>  (30) 
oracle

>  <origin>  (30) 
adg

>  <m_score__min__energy>  (30) 
-7.3600000000000003

>  <m_primary>  (30) 
energy

$$$$
30:0
     RDKit          3D

 43 45  0  0  0  0  0  0  0  0999 V2000
   -3.1972   21.2431  -31.7658 H   0  0  0  0  0  0  0  0  0  0  0  0
   -4.1150   21.7080  -32.1550 C   0  0  0  0  0  0  0  0  0  0  0  0
   -4.6230   21.2210  -33.2530 N   0  0  0  0  0  0  0  0  0  0  0  0
   -5.1160   19.9090  -33.4120 N   0  0  0  0  0  0  0  0  0  0  0  0
   -6.4550   19.6690  -33.2310 C   0  0  0  0  0  0  0  0  0  0  0  0
   -7.4030   20.7840  -32.8400 C   0  0  0  0  0  0  0  0  0  0  0  0
   -8.0007   21.0629  -33.7203 H   0  0  0  0  0  0  0  0  0  0  0  0
   -6.7948   21.6262  -32.4784 H   0  0  0  0  0  0  0  0  0  0  0  0
   -8.3580   20.3790  -31.7050 C   0  0  0  0  0  0  0  0  0  0  0  0
   -7.7654   20.2377  -30.7891 H   0  0  0  0  0  0  0  0  0  0  0  0
   -8.8643   19.4583  -32.0306 H   0  0  0  0  0  0  0  0  0  0  0  0
   -9.4610   21.4110  -31.4120 C   0  0  0  0  0  0  0  0  0  0  0  0
   -9.5881   21.4901  -30.3222 H   0  0  0  0  0  0  0  0  0  0  0  0
  -10.3806   21.0629  -31.9051 H   0  0  0  0  0  0  0  0  0  0  0  0
   -9.1360   22.7970  -31.9680 C   0  0  0  0  0  0  0  0  0  0  0  0
   -8.9719   23.4968  -31.1354 H   0  0  0  0  0  0  0  0  0  0  0  0
   -8.2267   22.7408  -32.5844 H   0  0  0  0  0  0  0  0  0  0  0  0
   -9.9755   23.1509  -32.5844 H   0  0  0  0  0  0  0  0  0  0  0  0
   -6.9460   18.4040  -33.3680 N   0  0  0  0  0  0  0  0  0  0  0  0
   -7.9640   18.2290  -33.1990 H   0  0  0  0  0  0  0  0  0  0  0  0
   -6.1400   17.3660  -33.7180 C   0  0  0  0  0  0  0  0  0  0  0  0
   -6.6640   16.0690  -33.8430 C   0  0  0  0  0  0  0  0  0  0  0  0
   -7.7307   15.8872  -33.6450 H   0  0  0  0  0  0  0  0  0  0  0  0
   -5.8350   15.0090  -34.2180 C   0  0  0  0  0  0  0  0  0  0  0  0
   -6.2491   13.9942  -34.3110 H   0  0  0  0  0  0  0  0  0  0  0  0
   -4.4810   15.2360  -34.4750 C   0  0  0  0  0  0  0  0  0  0  0  0
   -3.8320   14.3996  -34.7737 H   0  0  0  0  0  0  0  0  0  0  0  0
   -3.9480   16.5220  -34.3540 C   0  0  0  0  0  0  0  0  0  0  0  0
   -2.8810   16.6957  -34.5574 H   0  0  0  0  0  0  0  0  0  0  0  0
   -4.7750   17.5960  -33.9720 C   0  0  0  0  0  0  0  0  0  0  0  0
   -4.2850   18.9030  -33.8330 C   0  0  0  0  0  0  0  0  0  0  0  0
   -3.0780   19.1550  -34.1070 O   0  0  0  0  0  0  0  0  0  0  0  0
   -4.6880   22.8440  -31.3950 C   0  0  0  0  0  0  0  0  0  0  0  0
   -5.8270   23.4910  -31.9010 C   0  0  0  0  0  0  0  0  0  0  0  0
   -6.2674   23.1575  -32.8522 H   0  0  0  0  0  0  0  0  0  0  0  0
   -6.4050   24.5560  -31.2040 C   0  0  0  0  0  0  0  0  0  0  0  0
   -7.2880   25.0668  -31.6156 H   0  0  0  0  0  0  0  0  0  0  0  0
   -5.8630   24.9730  -29.9850 C   0  0  0  0  0  0  0  0  0  0  0  0
   -6.4260   26.0050  -29.3100 F   0  0  0  0  0  0  0  0  0  0  0  0
   -4.7470   24.3180  -29.4580 C   0  0  0  0  0  0  0  0  0  0  0  0
   -4.3248   24.6412  -28.4950 H   0  0  0  0  0  0  0  0  0  0  0  0
   -4.1660   23.2530  -30.1520 C   0  0  0  0  0  0  0  0  0  0  0  0
   -3.2965   22.7314  -29.7254 H   0  0  0  0  0  0  0  0  0  0  0  0
  1  2  1  0
  2  3  2  0
  3  4  1  0
  4  5  1  0
  5  6  1  0
  6  7  1  0
  6  8  1  0
  6  9  1  0
  9 10  1  0
  9 11  1  0
  9 12  1  0
 12 13  1  0
 12 14  1  0
 12 15  1  0
 15 16  1  0
 15 17  1  0
 15 18  1  0
  5 19  2  0
 19 20  1  0
 19 21  1  0
 21 22  2  0
 22 23  1  0
 22 24  1  0
 24 25  1  0
 24 26  2  0
 26 27  1  0
 26 28  1  0
 28 29  1  0
 28 30  2  0
 30 31  1  0
 31 32  2  0
  2 33  1  0
 33 34  2  0
 34 35  1  0
 34 36  1  0
 36 37  1  0
 36 38  2  0
 38 39  1  0
 38 40  1  0
 40 41  1  0
 40 42  2  0
 42 43  1  0
 31  4  1  0
 42 33  1  0
 30 21  1  0
M  CHG  1  19   1
M  END
>  <UniqueID>  (31) 
29

>  <SMILES>  (31) 
CCCCc1[nH+]c2ccccc2c(=O)n1/N=C\c1ccc(F)cc1

>  <Energy>  (31) 
56.03673174456287

>  <Genealogy>  (31) 
CCCCc1[nH+]c2ccccc2c(=O)n1N=Cc1ccc(F)cc1 (protonated)
CCCCc1[nH+]c2ccccc2c(=O)n1/N=C\c1ccc(F)cc1 (cis-trans isomerization)
CCCCc1[nH+]c2ccccc2c(=O)n1/N=C\c1ccc(F)cc1 (3D coordinates assigned)
CCCCc1[nH+]c2ccccc2c(=O)n1/N=C\c1ccc(F)cc1 (optimized conformer: 56.03673174456287 kcal/mol)

>  <smiles>  (31) 
CCCCc1nc2ccccc2c(=O)n1N=Cc1ccc(F)cc1

>  <score_type>  (31) 
oracle

>  <origin>  (31) 
adg

>  <m_score__min__energy>  (31) 
-7.4400000000000004

>  <m_primary>  (31) 
energy

$$$$
31:0
     RDKit          3D

 61 63  0  0  0  0  0  0  0  0999 V2000
    0.1860   21.4560  -36.1250 C   0  0  0  0  0  0  0  0  0  0  0  0
   -0.0850   21.3610  -34.6580 C   0  0  0  0  0  0  0  0  0  0  0  0
    0.8310   21.6560  -33.8430 O   0  0  0  0  0  0  0  0  0  0  0  0
   -1.3830   20.9730  -34.1810 N   0  0  0  0  0  0  0  0  0  0  0  0
   -1.7090   20.9240  -32.7560 C   0  0  0  0  0  0  0  0  0  0  0  0
   -3.1100   21.4960  -32.4760 C   0  0  0  0  0  0  0  0  0  0  0  0
   -4.1130   20.4450  -31.9740 C   0  0  0  0  0  0  0  0  0  0  0  0
   -5.3970   20.4980  -32.6940 N   0  0  0  0  0  0  0  0  0  0  0  0
   -5.5130   19.8490  -34.0100 C   0  0  0  0  0  0  0  0  0  0  0  0
   -4.5070   18.7390  -34.1840 C   0  0  0  0  0  0  0  0  0  0  0  0
   -3.3120   19.0290  -34.4610 O   0  0  0  0  0  0  0  0  0  0  0  0
   -4.9040   17.3090  -34.0890 C   0  0  0  0  0  0  0  0  0  0  0  0
   -6.2500   16.9100  -34.2250 C   0  0  0  0  0  0  0  0  0  0  0  0
   -6.6010   15.5580  -34.1360 C   0  0  0  0  0  0  0  0  0  0  0  0
   -5.6190   14.5900  -33.9140 C   0  0  0  0  0  0  0  0  0  0  0  0
   -5.9630   13.2800  -33.8300 F   0  0  0  0  0  0  0  0  0  0  0  0
   -4.2820   14.9710  -33.7830 C   0  0  0  0  0  0  0  0  0  0  0  0
   -3.9240   16.3200  -33.8720 C   0  0  0  0  0  0  0  0  0  0  0  0
   -6.5860   21.0130  -32.0570 C   0  0  0  0  0  0  0  0  0  0  0  0
   -7.6650   20.1350  -31.8470 C   0  0  0  0  0  0  0  0  0  0  0  0
   -8.8500   20.5800  -31.2640 C   0  0  0  0  0  0  0  0  0  0  0  0
   -8.9930   21.9200  -30.9140 C   0  0  0  0  0  0  0  0  0  0  0  0
   -7.9530   22.8180  -31.1500 C   0  0  0  0  0  0  0  0  0  0  0  0
   -6.7340   22.3830  -31.7060 C   0  0  0  0  0  0  0  0  0  0  0  0
   -5.6710   23.4210  -31.9760 C   0  0  0  0  0  0  0  0  0  0  0  0
   -5.1390   24.2460  -30.4740 S   0  0  0  0  0  0  0  0  0  0  0  0
   -6.3210   24.4620  -29.5710 O   0  0  0  0  0  0  0  0  0  0  0  0
   -4.5820   25.5920  -30.8470 O   0  0  0  0  0  0  0  0  0  0  0  0
   -3.9140   23.3250  -29.5990 C   0  0  0  0  0  0  0  0  0  0  0  0
   -2.5660   23.4120  -29.9770 C   0  0  0  0  0  0  0  0  0  0  0  0
   -1.5920   22.6840  -29.2880 C   0  0  0  0  0  0  0  0  0  0  0  0
   -1.9600   21.8550  -28.2250 C   0  0  0  0  0  0  0  0  0  0  0  0
   -3.3020   21.7520  -27.8520 C   0  0  0  0  0  0  0  0  0  0  0  0
   -4.2780   22.4860  -28.5340 C   0  0  0  0  0  0  0  0  0  0  0  0
    1.2129   21.8160  -36.2856 H   0  0  0  0  0  0  0  0  0  0  0  0
    0.0694   20.4634  -36.5845 H   0  0  0  0  0  0  0  0  0  0  0  0
   -0.5249   22.1585  -36.5845 H   0  0  0  0  0  0  0  0  0  0  0  0
   -2.1510   20.8200  -34.8710 H   0  0  0  0  0  0  0  0  0  0  0  0
   -1.6764   19.8777  -32.4180 H   0  0  0  0  0  0  0  0  0  0  0  0
   -0.9728   21.5350  -32.2132 H   0  0  0  0  0  0  0  0  0  0  0  0
   -3.0186   22.2825  -31.7124 H   0  0  0  0  0  0  0  0  0  0  0  0
   -3.4977   21.8831  -33.4299 H   0  0  0  0  0  0  0  0  0  0  0  0
   -3.6738   19.4457  -32.1100 H   0  0  0  0  0  0  0  0  0  0  0  0
   -4.3163   20.6580  -30.9141 H   0  0  0  0  0  0  0  0  0  0  0  0
   -6.5250   19.4300  -34.1112 H   0  0  0  0  0  0  0  0  0  0  0  0
   -5.3174   20.6084  -34.7814 H   0  0  0  0  0  0  0  0  0  0  0  0
   -7.0289   17.6663  -34.4021 H   0  0  0  0  0  0  0  0  0  0  0  0
   -7.6537   15.2569  -34.2413 H   0  0  0  0  0  0  0  0  0  0  0  0
   -3.5086   14.2083  -33.6094 H   0  0  0  0  0  0  0  0  0  0  0  0
   -2.8681   16.6116  -33.7717 H   0  0  0  0  0  0  0  0  0  0  0  0
   -7.5719   19.0810  -32.1476 H   0  0  0  0  0  0  0  0  0  0  0  0
   -9.6722   19.8727  -31.0804 H   0  0  0  0  0  0  0  0  0  0  0  0
   -9.9272   22.2704  -30.4509 H   0  0  0  0  0  0  0  0  0  0  0  0
   -8.0861   23.8806  -30.8986 H   0  0  0  0  0  0  0  0  0  0  0  0
   -4.8024   22.9280  -32.4370 H   0  0  0  0  0  0  0  0  0  0  0  0
   -6.1003   24.1801  -32.6464 H   0  0  0  0  0  0  0  0  0  0  0  0
   -2.2741   24.0561  -30.8196 H   0  0  0  0  0  0  0  0  0  0  0  0
   -0.5352   22.7637  -29.5827 H   0  0  0  0  0  0  0  0  0  0  0  0
   -1.1928   21.2836  -27.6820 H   0  0  0  0  0  0  0  0  0  0  0  0
   -3.5918   21.0926  -27.0206 H   0  0  0  0  0  0  0  0  0  0  0  0
   -5.3335   22.4056  -28.2350 H   0  0  0  0  0  0  0  0  0  0  0  0
  1  2  1  0
  2  3  2  0
  2  4  1  0
  4  5  1  0
  5  6  1  0
  6  7  1  0
  7  8  1  0
  8  9  1  0
  9 10  1  0
 10 11  2  0
 10 12  1  0
 12 13  2  0
 13 14  1  0
 14 15  2  0
 15 16  1  0
 15 17  1  0
 17 18  2  0
  8 19  1  0
 19 20  2  0
 20 21  1  0
 21 22  2  0
 22 23  1  0
 23 24  2  0
 24 25  1  0
 25 26  1  0
 26 27  2  0
 26 28  2  0
 26 29  1  0
 29 30  2  0
 30 31  1  0
 31 32  2  0
 32 33  1  0
 33 34  2  0
 18 12  1  0
 24 19  1  0
 34 29  1  0
  1 35  1  0
  1 36  1  0
  1 37  1  0
  4 38  1  0
  5 39  1  0
  5 40  1  0
  6 41  1  0
  6 42  1  0
  7 43  1  0
  7 44  1  0
  9 45  1  0
  9 46  1  0
 13 47  1  0
 14 48  1  0
 17 49  1  0
 18 50  1  0
 20 51  1  0
 21 52  1  0
 22 53  1  0
 23 54  1  0
 25 55  1  0
 25 56  1  0
 30 57  1  0
 31 58  1  0
 32 59  1  0
 33 60  1  0
 34 61  1  0
M  END
>  <UniqueID>  (32) 
30

>  <SMILES>  (32) 
CC(=O)NCCCN(CC(=O)c1ccc(F)cc1)c1ccccc1CS(=O)(=O)c1ccccc1

>  <Energy>  (32) 
57.875639772412335

>  <Genealogy>  (32) 
CC(=O)NCCCN(CC(=O)c1ccc(F)cc1)c1ccccc1CS(=O)(=O)c1ccccc1 (3D coordinates assigned)
CC(=O)NCCCN(CC(=O)c1ccc(F)cc1)c1ccccc1CS(=O)(=O)c1ccccc1 (optimized conformer: 57.875639772412335 kcal/mol)

>  <smiles>  (32) 
CC(=O)NCCCN(CC(=O)c1ccc(F)cc1)c1ccccc1CS(=O)(=O)c1ccccc1

>  <score_type>  (32) 
oracle

>  <origin>  (32) 
adg

>  <m_score__min__energy>  (32) 
-9.7799999999999994

>  <m_primary>  (32) 
energy

$$$$
32:0
     RDKit          3D

 24 25  0  0  0  0  0  0  0  0999 V2000
   -5.7620   25.3330  -29.9470 C   0  0  0  0  0  0  0  0  0  0  0  0
   -5.2840   24.8970  -31.2140 O   0  0  0  0  0  0  0  0  0  0  0  0
   -5.1070   23.5460  -31.5300 C   0  0  0  0  0  0  0  0  0  0  0  0
   -3.9470   23.0520  -31.5850 O   0  0  0  0  0  0  0  0  0  0  0  0
   -6.2880   22.7080  -31.7960 C   0  0  0  0  0  0  0  0  0  0  0  0
   -7.5870   23.1890  -31.5910 C   0  0  0  0  0  0  0  0  0  0  0  0
   -8.6620   22.3450  -31.8630 C   0  0  0  0  0  0  0  0  0  0  0  0
   -8.4410   21.0830  -32.3180 N   0  0  0  0  0  0  0  0  0  0  0  0
   -7.1720   20.6240  -32.5150 C   0  0  0  0  0  0  0  0  0  0  0  0
   -6.9240   19.2540  -33.0080 C   0  0  0  0  0  0  0  0  0  0  0  0
   -6.1150   18.9150  -34.0890 C   0  0  0  0  0  0  0  0  0  0  0  0
   -6.0630   17.5360  -34.3340 C   0  0  0  0  0  0  0  0  0  0  0  0
   -6.8260   16.7830  -33.4510 C   0  0  0  0  0  0  0  0  0  0  0  0
   -7.5650   17.8340  -32.3680 S   0  0  0  0  0  0  0  0  0  0  0  0
   -6.1140   21.4400  -32.2520 N   0  0  0  0  0  0  0  0  0  0  0  0
   -5.2028   24.8229  -29.1488 H   0  0  0  0  0  0  0  0  0  0  0  0
   -5.6211   26.4202  -29.8563 H   0  0  0  0  0  0  0  0  0  0  0  0
   -6.8317   25.0930  -29.8563 H   0  0  0  0  0  0  0  0  0  0  0  0
   -7.7554   24.2118  -31.2229 H   0  0  0  0  0  0  0  0  0  0  0  0
   -9.6915   22.7006  -31.7093 H   0  0  0  0  0  0  0  0  0  0  0  0
   -9.2670   20.4730  -32.5120 H   0  0  0  0  0  0  0  0  0  0  0  0
   -5.5701   19.6566  -34.6917 H   0  0  0  0  0  0  0  0  0  0  0  0
   -5.4731   17.0917  -35.1493 H   0  0  0  0  0  0  0  0  0  0  0  0
   -6.9288   15.6878  -33.4592 H   0  0  0  0  0  0  0  0  0  0  0  0
  1  2  1  0
  2  3  1  0
  3  4  2  0
  3  5  1  0
  5  6  2  0
  6  7  1  0
  7  8  2  0
  8  9  1  0
  9 10  1  0
 10 11  2  0
 11 12  1  0
 12 13  2  0
 13 14  1  0
  9 15  2  0
 15  5  1  0
 14 10  1  0
  1 16  1  0
  1 17  1  0
  1 18  1  0
  6 19  1  0
  7 20  1  0
  8 21  1  0
 11 22  1  0
 12 23  1  0
 13 24  1  0
M  CHG  1   8   1
M  END
>  <UniqueID>  (33) 
31

>  <SMILES>  (33) 
COC(=O)c1cc[nH+]c(-c2cccs2)n1

>  <Energy>  (33) 
48.324106604558374

>  <Genealogy>  (33) 
COC(=O)c1cc[nH+]c(-c2cccs2)n1 (protonated)
COC(=O)c1cc[nH+]c(-c2cccs2)n1 (3D coordinates assigned)
COC(=O)c1cc[nH+]c(-c2cccs2)n1 (optimized conformer: 48.324106604558374 kcal/mol)

>  <smiles>  (33) 
COC(=O)c1ccnc(-c2cccs2)n1

>  <score_type>  (33) 
oracle

>  <origin>  (33) 
adg

>  <m_score__min__energy>  (33) 
-5.6100000000000003

>  <m_primary>  (33) 
energy

$$$$
33:0
     RDKit          3D

 46 49  0  0  0  0  0  0  0  0999 V2000
   -9.0970   18.8540  -31.3950 C   0  0  0  0  0  0  0  0  0  0  0  0
   -7.7760   18.3300  -31.4130 O   0  0  0  0  0  0  0  0  0  0  0  0
   -7.0610   18.1120  -32.5960 C   0  0  0  0  0  0  0  0  0  0  0  0
   -7.0930   16.8910  -33.1990 N   0  0  0  0  0  0  0  0  0  0  0  0
   -6.4400   16.6600  -34.3660 C   0  0  0  0  0  0  0  0  0  0  0  0
   -5.7470   17.6580  -34.9630 N   0  0  0  0  0  0  0  0  0  0  0  0
   -5.6800   18.8920  -34.4040 C   0  0  0  0  0  0  0  0  0  0  0  0
   -6.3260   19.1560  -33.1870 C   0  0  0  0  0  0  0  0  0  0  0  0
   -6.2410   20.5090  -32.5870 C   0  0  0  0  0  0  0  0  0  0  0  0
   -7.2990   21.4280  -32.6940 C   0  0  0  0  0  0  0  0  0  0  0  0
   -7.1830   22.6890  -32.1060 C   0  0  0  0  0  0  0  0  0  0  0  0
   -6.0220   23.0260  -31.4020 C   0  0  0  0  0  0  0  0  0  0  0  0
   -5.8750   24.2810  -30.7980 C   0  0  0  0  0  0  0  0  0  0  0  0
   -4.7100   24.5840  -30.0870 C   0  0  0  0  0  0  0  0  0  0  0  0
   -3.6730   23.6370  -29.9690 C   0  0  0  0  0  0  0  0  0  0  0  0
   -2.4790   23.9430  -29.2120 N   0  0  0  0  0  0  0  0  0  0  0  0
   -1.1850   23.3930  -29.6510 C   0  0  0  0  0  0  0  0  0  0  0  0
   -0.1140   23.6050  -28.5890 C   0  0  0  0  0  0  0  0  0  0  0  0
   -0.1060   25.0230  -28.2060 N   0  0  0  0  0  0  0  0  0  0  0  0
    1.0410   25.3240  -27.3340 C   0  0  0  0  0  0  0  0  0  0  0  0
   -1.3740   25.4800  -27.5860 C   0  0  0  0  0  0  0  0  0  0  0  0
   -2.5850   24.5660  -27.8850 C   0  0  0  0  0  0  0  0  0  0  0  0
   -3.8250   22.3800  -30.5810 C   0  0  0  0  0  0  0  0  0  0  0  0
   -4.9890   22.0720  -31.2950 C   0  0  0  0  0  0  0  0  0  0  0  0
   -5.1280   20.8540  -31.8820 N   0  0  0  0  0  0  0  0  0  0  0  0
   -9.4256   18.9843  -30.3533 H   0  0  0  0  0  0  0  0  0  0  0  0
   -9.1127   19.8265  -31.9089 H   0  0  0  0  0  0  0  0  0  0  0  0
   -9.7751   18.1567  -31.9089 H   0  0  0  0  0  0  0  0  0  0  0  0
   -6.4738   15.6618  -34.8269 H   0  0  0  0  0  0  0  0  0  0  0  0
   -5.1158   19.6906  -34.9079 H   0  0  0  0  0  0  0  0  0  0  0  0
   -8.2147   21.1549  -33.2388 H   0  0  0  0  0  0  0  0  0  0  0  0
   -8.0032   23.4164  -32.1961 H   0  0  0  0  0  0  0  0  0  0  0  0
   -6.6770   25.0291  -30.8831 H   0  0  0  0  0  0  0  0  0  0  0  0
   -4.6017   25.5716  -29.6149 H   0  0  0  0  0  0  0  0  0  0  0  0
   -1.2973   22.3150  -29.8386 H   0  0  0  0  0  0  0  0  0  0  0  0
   -0.8761   23.9136  -30.5695 H   0  0  0  0  0  0  0  0  0  0  0  0
   -0.3377   22.9848  -27.7085 H   0  0  0  0  0  0  0  0  0  0  0  0
    0.8707   23.3182  -28.9867 H   0  0  0  0  0  0  0  0  0  0  0  0
    0.7325   25.2430  -26.2813 H   0  0  0  0  0  0  0  0  0  0  0  0
    1.8518   24.6082  -27.5345 H   0  0  0  0  0  0  0  0  0  0  0  0
    1.3959   26.3457  -27.5345 H   0  0  0  0  0  0  0  0  0  0  0  0
   -1.2315   25.5199  -26.4960 H   0  0  0  0  0  0  0  0  0  0  0  0
   -1.6036   26.4647  -28.0193 H   0  0  0  0  0  0  0  0  0  0  0  0
   -2.6319   23.7749  -27.1221 H   0  0  0  0  0  0  0  0  0  0  0  0
   -3.4948   25.1840  -27.8671 H   0  0  0  0  0  0  0  0  0  0  0  0
   -3.0224   21.6324  -30.4979 H   0  0  0  0  0  0  0  0  0  0  0  0
  1  2  1  0
  2  3  1  0
  3  4  2  0
  4  5  1  0
  5  6  2  0
  6  7  1  0
  7  8  2  0
  8  9  1  0
  9 10  2  0
 10 11  1  0
 11 12  2  0
 12 13  1  0
 13 14  2  0
 14 15  1  0
 15 16  1  0
 16 17  1  0
 17 18  1  0
 18 19  1  0
 19 20  1  0
 19 21  1  0
 21 22  1  0
 15 23  2  0
 23 24  1  0
 24 25  2  0
  8  3  1  0
 25  9  1  0
 24 12  1  0
 22 16  1  0
  1 26  1  0
  1 27  1  0
  1 28  1  0
  5 29  1  0
  7 30  1  0
 10 31  1  0
 11 32  1  0
 13 33  1  0
 14 34  1  0
 17 35  1  0
 17 36  1  0
 18 37  1  0
 18 38  1  0
 20 39  1  0
 20 40  1  0
 20 41  1  0
 21 42  1  0
 21 43  1  0
 22 44  1  0
 22 45  1  0
 23 46  1  0
M  END
>  <UniqueID>  (34) 
32

>  <SMILES>  (34) 
COc1ncncc1-c1ccc2ccc(N3CCN(C)CC3)cc2n1

>  <Energy>  (34) 
66.10966640023092

>  <Genealogy>  (34) 
COc1ncncc1-c1ccc2ccc(N3CCN(C)CC3)cc2n1 (3D coordinates assigned)
COc1ncncc1-c1ccc2ccc(N3CCN(C)CC3)cc2n1 (nonaromatic ring conformer: 66.10966640023092 kcal/mol)

>  <smiles>  (34) 
COc1ncncc1-c1ccc2ccc(N3CCN(C)CC3)cc2n1

>  <score_type>  (34) 
oracle

>  <origin>  (34) 
adg

>  <m_score__min__energy>  (34) 
-8.2200000000000006

>  <m_primary>  (34) 
energy

$$$$
34:0
     RDKit          3D

 48 49  0  0  0  0  0  0  0  0999 V2000
    0.6150   25.1110  -26.4630 C   0  0  0  0  0  0  0  0  0  0  0  0
    0.7040   24.6630  -27.8120 O   0  0  0  0  0  0  0  0  0  0  0  0
   -0.3600   24.0980  -28.5310 C   0  0  0  0  0  0  0  0  0  0  0  0
   -0.4330   22.7210  -28.8080 C   0  0  0  0  0  0  0  0  0  0  0  0
   -1.5090   22.2080  -29.5350 C   0  0  0  0  0  0  0  0  0  0  0  0
   -2.5150   23.0540  -30.0120 C   0  0  0  0  0  0  0  0  0  0  0  0
   -3.5980   22.4740  -30.7520 N   0  0  0  0  0  0  0  0  0  0  0  0
   -3.5000   21.9280  -32.0720 C   0  0  0  0  0  0  0  0  0  0  0  0
   -4.1880   22.4020  -33.0160 O   0  0  0  0  0  0  0  0  0  0  0  0
   -2.5320   20.8180  -32.3410 C   0  0  0  0  0  0  0  0  0  0  0  0
   -2.3380   20.6460  -33.7940 N   0  0  0  0  0  0  0  0  0  0  0  0
   -0.9770   21.0710  -34.1710 C   0  0  0  0  0  0  0  0  0  0  0  0
   -2.5680   19.2410  -34.1950 C   0  0  0  0  0  0  0  0  0  0  0  0
   -3.9970   18.8580  -33.9440 C   0  0  0  0  0  0  0  0  0  0  0  0
   -4.3290   17.6430  -34.0160 O   0  0  0  0  0  0  0  0  0  0  0  0
   -4.9720   19.8660  -33.6330 N   0  0  0  0  0  0  0  0  0  0  0  0
   -6.2770   19.5870  -33.0990 C   0  0  0  0  0  0  0  0  0  0  0  0
   -6.7290   18.2660  -32.9180 C   0  0  0  0  0  0  0  0  0  0  0  0
   -7.9940   18.0220  -32.3740 C   0  0  0  0  0  0  0  0  0  0  0  0
   -8.8110   19.0890  -31.9920 C   0  0  0  0  0  0  0  0  0  0  0  0
   -8.3610   20.4040  -32.1450 C   0  0  0  0  0  0  0  0  0  0  0  0
   -9.4710   21.8610  -31.6070 Br  0  0  0  0  0  0  0  0  0  0  0  0
   -7.0960   20.6510  -32.6900 C   0  0  0  0  0  0  0  0  0  0  0  0
   -2.4770   24.4300  -29.7040 C   0  0  0  0  0  0  0  0  0  0  0  0
   -3.5450   25.2510  -30.1010 O   0  0  0  0  0  0  0  0  0  0  0  0
   -4.9220   24.9260  -29.9360 C   0  0  0  0  0  0  0  0  0  0  0  0
   -1.3820   24.9410  -28.9790 C   0  0  0  0  0  0  0  0  0  0  0  0
    0.7835   24.2629  -25.7831 H   0  0  0  0  0  0  0  0  0  0  0  0
    1.3773   25.8831  -26.2820 H   0  0  0  0  0  0  0  0  0  0  0  0
   -0.3845   25.5331  -26.2820 H   0  0  0  0  0  0  0  0  0  0  0  0
    0.3594   22.0467  -28.4511 H   0  0  0  0  0  0  0  0  0  0  0  0
   -1.5659   21.1277  -29.7345 H   0  0  0  0  0  0  0  0  0  0  0  0
   -1.5662   21.0576  -31.8722 H   0  0  0  0  0  0  0  0  0  0  0  0
   -2.9342   19.8841  -31.9215 H   0  0  0  0  0  0  0  0  0  0  0  0
   -0.3856   21.2557  -33.2621 H   0  0  0  0  0  0  0  0  0  0  0  0
   -0.4974   20.2798  -34.7660 H   0  0  0  0  0  0  0  0  0  0  0  0
   -1.0329   21.9945  -34.7660 H   0  0  0  0  0  0  0  0  0  0  0  0
   -2.3441   19.1274  -35.2660 H   0  0  0  0  0  0  0  0  0  0  0  0
   -1.9116   18.5865  -33.6027 H   0  0  0  0  0  0  0  0  0  0  0  0
   -4.7420   20.8580  -33.8690 H   0  0  0  0  0  0  0  0  0  0  0  0
   -6.0845   17.4223  -33.2057 H   0  0  0  0  0  0  0  0  0  0  0  0
   -8.3465   16.9878  -32.2466 H   0  0  0  0  0  0  0  0  0  0  0  0
   -9.8084   18.8946  -31.5708 H   0  0  0  0  0  0  0  0  0  0  0  0
   -6.7409   21.6864  -32.7987 H   0  0  0  0  0  0  0  0  0  0  0  0
   -5.1595   24.8699  -28.8634 H   0  0  0  0  0  0  0  0  0  0  0  0
   -5.5412   25.7027  -30.4086 H   0  0  0  0  0  0  0  0  0  0  0  0
   -5.1286   23.9544  -30.4086 H   0  0  0  0  0  0  0  0  0  0  0  0
   -1.3304   26.0182  -28.7624 H   0  0  0  0  0  0  0  0  0  0  0  0
  1  2  1  0
  2  3  1  0
  3  4  2  0
  4  5  1  0
  5  6  2  0
  6  7  1  0
  7  8  1  0
  8  9  2  0
  8 10  1  0
 10 11  1  0
 11 12  1  0
 11 13  1  0
 13 14  1  0
 14 15  2  0
 14 16  1  0
 16 17  1  0
 17 18  2  0
 18 19  1  0
 19 20  2  0
 20 21  1  0
 21 22  1  0
 21 23  2  0
  6 24  1  0
 24 25  1  0
 25 26  1  0
 24 27  2  0
 27  3  1  0
 23 17  1  0
  1 28  1  0
  1 29  1  0
  1 30  1  0
  4 31  1  0
  5 32  1  0
 10 33  1  0
 10 34  1  0
 12 35  1  0
 12 36  1  0
 12 37  1  0
 13 38  1  0
 13 39  1  0
 16 40  1  0
 18 41  1  0
 19 42  1  0
 20 43  1  0
 23 44  1  0
 26 45  1  0
 26 46  1  0
 26 47  1  0
 27 48  1  0
M  CHG  1   7  -1
M  END
>  <UniqueID>  (35) 
33

>  <SMILES>  (35) 
COc1ccc([N-]C(=O)CN(C)CC(=O)Nc2cccc(Br)c2)c(OC)c1

>  <Energy>  (35) 
54.49064101407697

>  <Genealogy>  (35) 
COc1ccc([N-]C(=O)CN(C)CC(=O)Nc2cccc(Br)c2)c(OC)c1 (protonated)
COc1ccc([N-]C(=O)CN(C)CC(=O)Nc2cccc(Br)c2)c(OC)c1 (3D coordinates assigned)
COc1ccc([N-]C(=O)CN(C)CC(=O)Nc2cccc(Br)c2)c(OC)c1 (optimized conformer: 54.49064101407697 kcal/mol)

>  <smiles>  (35) 
COc1ccc(NC(=O)CN(C)CC(=O)Nc2cccc(Br)c2)c(OC)c1

>  <score_type>  (35) 
oracle

>  <origin>  (35) 
adg

>  <m_score__min__energy>  (35) 
-10.039999999999999

>  <m_primary>  (35) 
energy

$$$$
35:0
     RDKit          3D

 46 48  0  0  0  0  0  0  0  0999 V2000
   -2.7440   19.0550  -25.5900 C   0  0  0  0  0  0  0  0  0  0  0  0
   -2.1080   19.2080  -26.8940 N   0  0  0  0  0  0  0  0  0  0  0  0
   -1.0260   18.5370  -27.3630 C   0  0  0  0  0  0  0  0  0  0  0  0
   -0.6560   18.9560  -28.5970 N   0  0  0  0  0  0  0  0  0  0  0  0
   -1.5340   19.9280  -28.8970 C   0  0  0  0  0  0  0  0  0  0  0  0
   -1.5990   20.7050  -30.0510 C   0  0  0  0  0  0  0  0  0  0  0  0
   -2.6210   21.6750  -30.1280 C   0  0  0  0  0  0  0  0  0  0  0  0
   -2.7740   22.6870  -31.5990 S   0  0  0  0  0  0  0  0  0  0  0  0
   -4.5620   22.4920  -31.6540 C   0  0  0  0  0  0  0  0  0  0  0  0
   -5.0760   21.3830  -32.3330 C   0  0  0  0  0  0  0  0  0  0  0  0
   -6.4520   21.1140  -32.3470 C   0  0  0  0  0  0  0  0  0  0  0  0
   -6.9510   20.0030  -33.1090 N   0  0  0  0  0  0  0  0  0  0  0  0
   -6.3010   18.6920  -33.1110 C   0  0  0  0  0  0  0  0  0  0  0  0
   -7.2310   17.6210  -32.5270 C   0  0  0  0  0  0  0  0  0  0  0  0
   -8.2540   18.1990  -31.5470 C   0  0  0  0  0  0  0  0  0  0  0  0
   -9.2110   18.9520  -32.2410 O   0  0  0  0  0  0  0  0  0  0  0  0
   -7.3350   21.9840  -31.6670 C   0  0  0  0  0  0  0  0  0  0  0  0
   -8.7500   21.7250  -31.6070 N   0  0  0  0  0  0  0  0  0  0  0  0
   -9.4010   21.5080  -32.6500 O   0  0  0  0  0  0  0  0  0  0  0  0
   -9.3650   21.5330  -30.3910 O   0  0  0  0  0  0  0  0  0  0  0  0
   -6.8160   23.1110  -31.0100 C   0  0  0  0  0  0  0  0  0  0  0  0
   -5.4380   23.3810  -30.9970 C   0  0  0  0  0  0  0  0  0  0  0  0
   -4.9520   24.5500  -30.3110 N   0  0  0  0  0  0  0  0  0  0  0  0
   -5.5910   25.0230  -29.3490 O   0  0  0  0  0  0  0  0  0  0  0  0
   -3.8780   25.2550  -30.8020 O   0  0  0  0  0  0  0  0  0  0  0  0
   -3.5280   21.8450  -29.0540 C   0  0  0  0  0  0  0  0  0  0  0  0
   -3.4290   21.0430  -27.9010 C   0  0  0  0  0  0  0  0  0  0  0  0
   -2.4130   20.0870  -27.8660 C   0  0  0  0  0  0  0  0  0  0  0  0
   -2.0026   19.2334  -24.7972 H   0  0  0  0  0  0  0  0  0  0  0  0
   -3.5646   19.7814  -25.4948 H   0  0  0  0  0  0  0  0  0  0  0  0
   -3.1444   18.0349  -25.4948 H   0  0  0  0  0  0  0  0  0  0  0  0
   -0.5082   17.7431  -26.8048 H   0  0  0  0  0  0  0  0  0  0  0  0
    0.1390   18.6070  -29.1770 H   0  0  0  0  0  0  0  0  0  0  0  0
   -0.8801   20.5676  -30.8722 H   0  0  0  0  0  0  0  0  0  0  0  0
   -4.3885   20.7095  -32.8657 H   0  0  0  0  0  0  0  0  0  0  0  0
   -7.8930   20.0790  -33.5560 H   0  0  0  0  0  0  0  0  0  0  0  0
   -6.0420   18.4197  -34.1448 H   0  0  0  0  0  0  0  0  0  0  0  0
   -5.3944   18.7475  -32.4906 H   0  0  0  0  0  0  0  0  0  0  0  0
   -7.7706   17.1348  -33.3531 H   0  0  0  0  0  0  0  0  0  0  0  0
   -6.6067   16.9051  -31.9723 H   0  0  0  0  0  0  0  0  0  0  0  0
   -8.7539   17.3762  -31.0149 H   0  0  0  0  0  0  0  0  0  0  0  0
   -7.7362   18.8493  -30.8266 H   0  0  0  0  0  0  0  0  0  0  0  0
   -9.3920   19.7500  -31.6790 H   0  0  0  0  0  0  0  0  0  0  0  0
   -7.5037   23.7974  -30.4943 H   0  0  0  0  0  0  0  0  0  0  0  0
   -4.3160   22.6095  -29.1210 H   0  0  0  0  0  0  0  0  0  0  0  0
   -4.1265   21.1654  -27.0592 H   0  0  0  0  0  0  0  0  0  0  0  0
  1  2  1  0
  2  3  1  0
  3  4  2  0
  4  5  1  0
  5  6  2  0
  6  7  1  0
  7  8  1  0
  8  9  1  0
  9 10  2  0
 10 11  1  0
 11 12  1  0
 12 13  1  0
 13 14  1  0
 14 15  1  0
 15 16  1  0
 11 17  2  0
 17 18  1  0
 18 19  2  0
 18 20  1  0
 17 21  1  0
 21 22  2  0
 22 23  1  0
 23 24  2  0
 23 25  1  0
  7 26  2  0
 26 27  1  0
 27 28  2  0
 28  2  1  0
 28  5  1  0
 22  9  1  0
  1 29  1  0
  1 30  1  0
  1 31  1  0
  3 32  1  0
  4 33  1  0
  6 34  1  0
 10 35  1  0
 12 36  1  0
 13 37  1  0
 13 38  1  0
 14 39  1  0
 14 40  1  0
 15 41  1  0
 15 42  1  0
 16 43  1  0
 21 44  1  0
 26 45  1  0
 27 46  1  0
M  CHG  5   4   1  18   1  20  -1  23   1  25  -1
M  END
>  <UniqueID>  (36) 
34

>  <SMILES>  (36) 
Cn1c[nH+]c2cc(Sc3cc(NCCCO)c([N+](=O)[O-])cc3[N+](=O)[O-])ccc21

>  <Energy>  (36) 
87.98721652050821

>  <Genealogy>  (36) 
Cn1c[nH+]c2cc(Sc3cc(NCCCO)c([N+](=O)[O-])cc3[N+](=O)[O-])ccc21 (protonated)
Cn1c[nH+]c2cc(Sc3cc(NCCCO)c([N+](=O)[O-])cc3[N+](=O)[O-])ccc21 (3D coordinates assigned)
Cn1c[nH+]c2cc(Sc3cc(NCCCO)c([N+](=O)[O-])cc3[N+](=O)[O-])ccc21 (optimized conformer: 87.98721652050821 kcal/mol)

>  <smiles>  (36) 
Cn1cnc2cc(Sc3cc(NCCCO)c([N+](=O)[O-])cc3[N+](=O)[O-])ccc21

>  <score_type>  (36) 
oracle

>  <origin>  (36) 
adg

>  <m_score__min__energy>  (36) 
-8.5399999999999991

>  <m_primary>  (36) 
energy

$$$$
36:0
     RDKit          3D

 50 52  0  0  1  0  0  0  0  0999 V2000
   -9.1570   22.2510  -31.5880 C   0  0  0  0  0  0  0  0  0  0  0  0
   -9.3230   20.8460  -31.5140 O   0  0  0  0  0  0  0  0  0  0  0  0
   -8.3620   20.0040  -32.0550 C   0  0  0  0  0  0  0  0  0  0  0  0
   -7.5800   20.4130  -33.1120 C   0  0  0  0  0  0  0  0  0  0  0  0
   -6.6100   19.6290  -33.6940 C   0  0  0  0  0  0  0  0  0  0  0  0
   -6.4230   18.3490  -33.1720 C   0  0  0  0  0  0  0  0  0  0  0  0
   -5.3820   17.4260  -33.7510 C   0  0  0  0  0  0  0  0  0  0  0  0
   -4.1510   17.7260  -33.0830 N   0  0  0  0  0  0  0  0  0  0  0  0
   -3.5210   18.8610  -33.2190 C   0  0  0  0  0  0  0  0  0  0  0  0
   -2.3750   18.8580  -34.0100 C   0  0  0  0  0  0  0  0  0  0  0  0
   -1.7290   20.0680  -34.1380 C   0  0  0  0  0  0  0  0  0  0  0  0
   -0.4960   20.1680  -34.9620 C   0  0  0  0  0  0  0  0  0  0  0  0
   -2.2300   21.1460  -33.5100 N   0  0  0  0  0  0  0  0  0  0  0  0
   -3.3400   21.1160  -32.7520 C   0  0  0  0  0  0  0  0  0  0  0  0
   -3.8810   22.2860  -32.0710 C   0  0  0  0  0  0  0  0  0  0  0  0
   -5.1920   22.7020  -32.2870 C   0  0  0  0  0  0  0  0  0  0  0  0
   -5.7400   23.7970  -31.6660 C   0  0  0  0  0  0  0  0  0  0  0  0
   -4.9950   24.5360  -30.7920 C   0  0  0  0  0  0  0  0  0  0  0  0
   -5.5310   25.6470  -30.1550 O   0  0  0  0  0  0  0  0  0  0  0  0
   -6.6960   25.5100  -29.3830 C   0  0  0  0  0  0  0  0  0  0  0  0
   -3.6760   24.1620  -30.5420 C   0  0  0  0  0  0  0  0  0  0  0  0
   -2.9680   24.9330  -29.6570 O   0  0  0  0  0  0  0  0  0  0  0  0
   -2.6680   24.5350  -28.3380 C   0  0  0  0  0  0  0  0  0  0  0  0
   -3.1500   23.0500  -31.1840 C   0  0  0  0  0  0  0  0  0  0  0  0
   -3.9900   19.9480  -32.6100 N   0  0  0  0  0  0  0  0  0  0  0  0
   -7.2060   17.9390  -32.1130 C   0  0  0  0  0  0  0  0  0  0  0  0
   -8.1720   18.7450  -31.5470 C   0  0  0  0  0  0  0  0  0  0  0  0
   -9.1077   22.6684  -30.5715 H   0  0  0  0  0  0  0  0  0  0  0  0
   -8.2253   22.4824  -32.1250 H   0  0  0  0  0  0  0  0  0  0  0  0
  -10.0092   22.6931  -32.1250 H   0  0  0  0  0  0  0  0  0  0  0  0
   -7.7397   21.4243  -33.5143 H   0  0  0  0  0  0  0  0  0  0  0  0
   -6.0065   19.9970  -34.5369 H   0  0  0  0  0  0  0  0  0  0  0  0
   -5.6640   16.3776  -33.5741 H   0  0  0  0  0  0  0  0  0  0  0  0
   -5.2878   17.5669  -34.8379 H   0  0  0  0  0  0  0  0  0  0  0  0
   -2.0080   17.9454  -34.5025 H   0  0  0  0  0  0  0  0  0  0  0  0
    0.3812   20.2391  -34.3021 H   0  0  0  0  0  0  0  0  0  0  0  0
   -0.4058   19.2742  -35.5968 H   0  0  0  0  0  0  0  0  0  0  0  0
   -0.5510   21.0646  -35.5968 H   0  0  0  0  0  0  0  0  0  0  0  0
   -1.7070   22.0380  -33.6360 H   0  0  0  0  0  0  0  0  0  0  0  0
   -5.8168   22.1275  -32.9867 H   0  0  0  0  0  0  0  0  0  0  0  0
   -6.7826   24.0800  -31.8731 H   0  0  0  0  0  0  0  0  0  0  0  0
   -6.4339   25.5408  -28.3151 H   0  0  0  0  0  0  0  0  0  0  0  0
   -7.3882   26.3329  -29.6146 H   0  0  0  0  0  0  0  0  0  0  0  0
   -7.1784   24.5489  -29.6146 H   0  0  0  0  0  0  0  0  0  0  0  0
   -3.1739   25.2062  -27.6284 H   0  0  0  0  0  0  0  0  0  0  0  0
   -3.0152   23.5035  -28.1783 H   0  0  0  0  0  0  0  0  0  0  0  0
   -1.5808   24.5848  -28.1783 H   0  0  0  0  0  0  0  0  0  0  0  0
   -2.1076   22.7657  -30.9775 H   0  0  0  0  0  0  0  0  0  0  0  0
   -7.0541   16.9294  -31.7036 H   0  0  0  0  0  0  0  0  0  0  0  0
   -8.7787   18.3840  -30.7035 H   0  0  0  0  0  0  0  0  0  0  0  0
  1  2  1  0
  2  3  1  0
  3  4  2  0
  4  5  1  0
  5  6  2  0
  6  7  1  0
  7  8  1  0
  8  9  2  0
  9 10  1  0
 10 11  2  0
 11 12  1  0
 11 13  1  0
 13 14  1  0
 14 15  1  0
 15 16  2  0
 16 17  1  0
 17 18  2  0
 18 19  1  0
 19 20  1  0
 18 21  1  0
 21 22  1  0
 22 23  1  0
 21 24  2  0
 14 25  2  0
  6 26  1  0
 26 27  2  0
 27  3  1  0
 25  9  1  0
 24 15  1  0
  1 28  1  0
  1 29  1  0
  1 30  1  0
  4 31  1  0
  5 32  1  0
  7 33  1  0
  7 34  1  0
 10 35  1  0
 12 36  1  0
 12 37  1  0
 12 38  1  0
 13 39  1  0
 16 40  1  0
 17 41  1  0
 20 42  1  0
 20 43  1  0
 20 44  1  0
 23 45  1  0
 23 46  1  0
 23 47  1  0
 24 48  1  0
 26 49  1  0
 27 50  1  0
M  END
>  <smiles>  (37) 
COc1ccc(CN=c2cc(C)[nH]c(-c3ccc(OC)c(OC)c3)n2)cc1

>  <score_type>  (37) 
oracle

>  <origin>  (37) 
adg

>  <m_score__min__energy>  (37) 
-8.1899999999999995

>  <m_primary>  (37) 
energy

$$$$
37:0
     RDKit          3D

 62 64  0  0  0  0  0  0  0  0999 V2000
   -0.6660   20.3690  -32.6560 C   0  0  0  0  0  0  0  0  0  0  0  0
   -1.4550   21.2470  -33.6120 C   0  0  0  0  0  0  0  0  0  0  0  0
   -2.7380   21.5180  -33.0600 O   0  0  0  0  0  0  0  0  0  0  0  0
   -3.7180   20.5330  -32.9100 C   0  0  0  0  0  0  0  0  0  0  0  0
   -3.4830   19.3390  -33.2400 O   0  0  0  0  0  0  0  0  0  0  0  0
   -5.0350   20.8980  -32.3710 C   0  0  0  0  0  0  0  0  0  0  0  0
   -5.3010   21.7230  -31.2840 C   0  0  0  0  0  0  0  0  0  0  0  0
   -4.1400   22.6630  -30.3380 S   0  0  0  0  0  0  0  0  0  0  0  0
   -4.7070   22.9910  -28.9860 O   0  0  0  0  0  0  0  0  0  0  0  0
   -3.8750   23.9520  -31.0640 O   0  0  0  0  0  0  0  0  0  0  0  0
   -2.6360   21.7760  -30.1750 N   0  0  0  0  0  0  0  0  0  0  0  0
   -2.5180   21.0420  -28.9140 C   0  0  0  0  0  0  0  0  0  0  0  0
   -2.4780   21.9660  -27.6990 C   0  0  0  0  0  0  0  0  0  0  0  0
   -1.6830   23.1950  -27.8980 N   0  0  0  0  0  0  0  0  0  0  0  0
   -1.5040   24.1040  -26.7670 C   0  0  0  0  0  0  0  0  0  0  0  0
   -0.5060   23.8760  -25.7900 C   0  0  0  0  0  0  0  0  0  0  0  0
   -0.3290   24.7550  -24.7170 C   0  0  0  0  0  0  0  0  0  0  0  0
   -1.1440   25.8900  -24.5850 C   0  0  0  0  0  0  0  0  0  0  0  0
   -1.0050   26.8000  -23.5270 O   0  0  0  0  0  0  0  0  0  0  0  0
    0.2450   27.2310  -22.9940 C   0  0  0  0  0  0  0  0  0  0  0  0
   -2.1340   26.1280  -25.5390 C   0  0  0  0  0  0  0  0  0  0  0  0
   -2.3160   25.2530  -26.6130 C   0  0  0  0  0  0  0  0  0  0  0  0
   -1.1670   23.5960  -29.2270 C   0  0  0  0  0  0  0  0  0  0  0  0
   -1.4550   22.6190  -30.3840 C   0  0  0  0  0  0  0  0  0  0  0  0
   -6.6830   21.7930  -31.1710 C   0  0  0  0  0  0  0  0  0  0  0  0
   -7.4370   22.5550  -30.1160 C   0  0  0  0  0  0  0  0  0  0  0  0
   -7.2640   21.0200  -32.1200 N   0  0  0  0  0  0  0  0  0  0  0  0
   -8.7060   20.8360  -32.3330 C   0  0  0  0  0  0  0  0  0  0  0  0
   -9.1210   19.4100  -31.9840 C   0  0  0  0  0  0  0  0  0  0  0  0
   -6.2670   20.4930  -32.8700 C   0  0  0  0  0  0  0  0  0  0  0  0
   -6.4850   19.5420  -34.0150 C   0  0  0  0  0  0  0  0  0  0  0  0
   -0.9118   20.6425  -31.6193 H   0  0  0  0  0  0  0  0  0  0  0  0
   -0.9254   19.3140  -32.8282 H   0  0  0  0  0  0  0  0  0  0  0  0
    0.4106   20.5146  -32.8282 H   0  0  0  0  0  0  0  0  0  0  0  0
   -0.9166   22.1932  -33.7695 H   0  0  0  0  0  0  0  0  0  0  0  0
   -1.5729   20.7268  -34.5740 H   0  0  0  0  0  0  0  0  0  0  0  0
   -3.3821   20.3683  -28.8162 H   0  0  0  0  0  0  0  0  0  0  0  0
   -1.5702   20.4844  -28.9402 H   0  0  0  0  0  0  0  0  0  0  0  0
   -3.5097   22.2586  -27.4542 H   0  0  0  0  0  0  0  0  0  0  0  0
   -1.9909   21.4024  -26.8896 H   0  0  0  0  0  0  0  0  0  0  0  0
    0.1422   22.9914  -25.8762 H   0  0  0  0  0  0  0  0  0  0  0  0
    0.4545   24.5555  -23.9711 H   0  0  0  0  0  0  0  0  0  0  0  0
    0.1999   27.2155  -21.8950 H   0  0  0  0  0  0  0  0  0  0  0  0
    1.0426   26.5560  -23.3379 H   0  0  0  0  0  0  0  0  0  0  0  0
    0.4570   28.2541  -23.3379 H   0  0  0  0  0  0  0  0  0  0  0  0
   -2.7784   27.0144  -25.4445 H   0  0  0  0  0  0  0  0  0  0  0  0
   -3.1041   25.4607  -27.3517 H   0  0  0  0  0  0  0  0  0  0  0  0
   -1.6175   24.5658  -29.4848 H   0  0  0  0  0  0  0  0  0  0  0  0
   -0.0720   23.6226  -29.1255 H   0  0  0  0  0  0  0  0  0  0  0  0
   -1.6073   23.2057  -31.3019 H   0  0  0  0  0  0  0  0  0  0  0  0
   -0.5901   21.9427  -30.4511 H   0  0  0  0  0  0  0  0  0  0  0  0
   -7.1091   22.2237  -29.1196 H   0  0  0  0  0  0  0  0  0  0  0  0
   -7.2382   23.6310  -30.2284 H   0  0  0  0  0  0  0  0  0  0  0  0
   -8.5151   22.3676  -30.2284 H   0  0  0  0  0  0  0  0  0  0  0  0
   -9.2589   21.5404  -31.6941 H   0  0  0  0  0  0  0  0  0  0  0  0
   -8.9355   21.0237  -33.3923 H   0  0  0  0  0  0  0  0  0  0  0  0
   -9.1544   19.2951  -30.8905 H   0  0  0  0  0  0  0  0  0  0  0  0
  -10.1163   19.2043  -32.4049 H   0  0  0  0  0  0  0  0  0  0  0  0
   -8.3915   18.7024  -32.4049 H   0  0  0  0  0  0  0  0  0  0  0  0
   -6.7145   18.5408  -33.6214 H   0  0  0  0  0  0  0  0  0  0  0  0
   -7.3254   19.8956  -34.6304 H   0  0  0  0  0  0  0  0  0  0  0  0
   -5.5745   19.4942  -34.6304 H   0  0  0  0  0  0  0  0  0  0  0  0
  1  2  1  0
  2  3  1  0
  3  4  1  0
  4  5  2  0
  4  6  1  0
  6  7  1  0
  7  8  1  0
  8  9  2  0
  8 10  2  0
  8 11  1  0
 11 12  1  0
 12 13  1  0
 13 14  1  0
 14 15  1  0
 15 16  2  0
 16 17  1  0
 17 18  2  0
 18 19  1  0
 19 20  1  0
 18 21  1  0
 21 22  2  0
 14 23  1  0
 23 24  1  0
  7 25  2  0
 25 26  1  0
 25 27  1  0
 27 28  1  0
 28 29  1  0
 27 30  1  0
 30 31  1  0
 30  6  2  0
 24 11  1  0
 22 15  1  0
  1 32  1  0
  1 33  1  0
  1 34  1  0
  2 35  1  0
  2 36  1  0
 12 37  1  0
 12 38  1  0
 13 39  1  0
 13 40  1  0
 16 41  1  0
 17 42  1  0
 20 43  1  0
 20 44  1  0
 20 45  1  0
 21 46  1  0
 22 47  1  0
 23 48  1  0
 23 49  1  0
 24 50  1  0
 24 51  1  0
 26 52  1  0
 26 53  1  0
 26 54  1  0
 28 55  1  0
 28 56  1  0
 29 57  1  0
 29 58  1  0
 29 59  1  0
 31 60  1  0
 31 61  1  0
 31 62  1  0
M  END
>  <UniqueID>  (38) 
35

>  <SMILES>  (38) 
CCOC(=O)c1c(S(=O)(=O)N2CCN(c3ccc(OC)cc3)CC2)c(C)n(CC)c1C

>  <Energy>  (38) 
93.42808538169619

>  <Genealogy>  (38) 
CCOC(=O)c1c(S(=O)(=O)N2CCN(c3ccc(OC)cc3)CC2)c(C)n(CC)c1C (3D coordinates assigned)
CCOC(=O)c1c(S(=O)(=O)N2CCN(c3ccc(OC)cc3)CC2)c(C)n(CC)c1C (nonaromatic ring conformer: 93.42808538169619 kcal/mol)

>  <smiles>  (38) 
CCOC(=O)c1c(S(=O)(=O)N2CCN(c3ccc(OC)cc3)CC2)c(C)n(CC)c1C

>  <score_type>  (38) 
oracle

>  <origin>  (38) 
adg

>  <m_score__min__energy>  (38) 
-8.3800000000000008

>  <m_primary>  (38) 
energy

$$$$
38:0
     RDKit          3D

 43 46  0  0  0  0  0  0  0  0999 V2000
   -1.2818   27.2333  -27.9244 H   0  0  0  0  0  0  0  0  0  0  0  0
   -0.8160   26.6900  -27.0890 C   0  0  0  0  0  0  0  0  0  0  0  0
   -0.1870   27.4030  -26.0660 C   0  0  0  0  0  0  0  0  0  0  0  0
   -0.1482   28.5015  -26.1089 H   0  0  0  0  0  0  0  0  0  0  0  0
    0.3950   26.7270  -24.9850 C   0  0  0  0  0  0  0  0  0  0  0  0
    1.1030   27.4950  -23.9000 C   0  0  0  0  0  0  0  0  0  0  0  0
    2.1706   27.2302  -23.9080 H   0  0  0  0  0  0  0  0  0  0  0  0
    0.9754   28.5714  -24.0876 H   0  0  0  0  0  0  0  0  0  0  0  0
    0.5390   27.1760  -22.5890 N   0  0  0  0  0  0  0  0  0  0  0  0
    1.2960   27.2290  -21.8700 H   0  0  0  0  0  0  0  0  0  0  0  0
   -0.2110   27.8630  -22.3450 H   0  0  0  0  0  0  0  0  0  0  0  0
    0.1440   26.2070  -22.5950 H   0  0  0  0  0  0  0  0  0  0  0  0
    0.3570   25.3270  -24.9510 C   0  0  0  0  0  0  0  0  0  0  0  0
    0.8246   24.7875  -24.1141 H   0  0  0  0  0  0  0  0  0  0  0  0
   -0.2720   24.6110  -25.9750 C   0  0  0  0  0  0  0  0  0  0  0  0
   -0.3074   23.5125  -25.9305 H   0  0  0  0  0  0  0  0  0  0  0  0
   -0.8600   25.2850  -27.0620 C   0  0  0  0  0  0  0  0  0  0  0  0
   -1.5430   24.5440  -28.1540 C   0  0  0  0  0  0  0  0  0  0  0  0
   -2.4250   25.2020  -28.9530 N   0  0  0  0  0  0  0  0  0  0  0  0
   -3.1080   24.6090  -29.9700 C   0  0  0  0  0  0  0  0  0  0  0  0
   -3.9510   25.2920  -30.7010 N   0  0  0  0  0  0  0  0  0  0  0  0
   -5.4230   25.4000  -30.7090 C   0  0  0  0  0  0  0  0  0  0  0  0
   -5.4469   25.8686  -31.7039 H   0  0  0  0  0  0  0  0  0  0  0  0
   -6.2200   24.2930  -30.0350 C   0  0  0  0  0  0  0  0  0  0  0  0
   -7.1833   23.9720  -30.4581 H   0  0  0  0  0  0  0  0  0  0  0  0
   -6.0106   23.2574  -29.7288 H   0  0  0  0  0  0  0  0  0  0  0  0
   -6.0940   25.6660  -29.3720 C   0  0  0  0  0  0  0  0  0  0  0  0
   -6.9670   26.3330  -29.3174 H   0  0  0  0  0  0  0  0  0  0  0  0
   -5.7564   26.0283  -28.3898 H   0  0  0  0  0  0  0  0  0  0  0  0
   -2.8920   23.2300  -30.2310 C   0  0  0  0  0  0  0  0  0  0  0  0
   -3.5410   22.5040  -31.2610 C   0  0  0  0  0  0  0  0  0  0  0  0
   -4.3770   23.0730  -32.0160 O   0  0  0  0  0  0  0  0  0  0  0  0
   -3.2640   21.1720  -31.4430 N   0  0  0  0  0  0  0  0  0  0  0  0
   -3.9340   20.4200  -32.5110 C   0  0  0  0  0  0  0  0  0  0  0  0
   -4.6033   19.6688  -32.0662 H   0  0  0  0  0  0  0  0  0  0  0  0
   -4.5210   21.1113  -33.1335 H   0  0  0  0  0  0  0  0  0  0  0  0
   -3.1798   19.9164  -33.1335 H   0  0  0  0  0  0  0  0  0  0  0  0
   -2.3590   20.5420  -30.6390 C   0  0  0  0  0  0  0  0  0  0  0  0
   -2.1399   19.4756  -30.7962 H   0  0  0  0  0  0  0  0  0  0  0  0
   -1.7280   21.2180  -29.6490 N   0  0  0  0  0  0  0  0  0  0  0  0
   -1.9700   22.5320  -29.4250 C   0  0  0  0  0  0  0  0  0  0  0  0
   -1.2960   23.1860  -28.3930 C   0  0  0  0  0  0  0  0  0  0  0  0
   -0.5740   22.6377  -27.7700 H   0  0  0  0  0  0  0  0  0  0  0  0
  1  2  1  0
  2  3  2  0
  3  4  1  0
  3  5  1  0
  5  6  1  0
  6  7  1  0
  6  8  1  0
  6  9  1  0
  9 10  1  0
  9 11  1  0
  9 12  1  0
  5 13  2  0
 13 14  1  0
 13 15  1  0
 15 16  1  0
 15 17  2  0
 17 18  1  0
 18 19  1  0
 19 20  1  0
 20 21  2  0
 21 22  1  0
 22 23  1  0
 22 24  1  0
 24 25  1  0
 24 26  1  0
 24 27  1  0
 27 28  1  0
 27 29  1  0
 20 30  1  0
 30 31  1  0
 31 32  2  0
 31 33  1  0
 33 34  1  0
 34 35  1  0
 34 36  1  0
 34 37  1  0
 33 38  1  0
 38 39  1  0
 38 40  2  0
 40 41  1  0
 41 42  1  0
 42 43  1  0
 17  2  1  0
 42 18  2  0
 27 22  1  0
 41 30  2  0
M  CHG  2   9   1  19  -1
M  END
>  <UniqueID>  (39) 
36

>  <SMILES>  (39) 
Cn1cnc2cc(-c3ccc(C[NH3+])cc3)[n-]/c(=N\C3CC3)c2c1=O

>  <Energy>  (39) 
331.7269367741092

>  <Genealogy>  (39) 
Cn1cnc2cc(-c3ccc(C[NH3+])cc3)[n-]c(=NC3CC3)c2c1=O (protonated)
Cn1cnc2cc(-c3ccc(C[NH3+])cc3)[n-]/c(=N\C3CC3)c2c1=O (cis-trans isomerization)
Cn1cnc2cc(-c3ccc(C[NH3+])cc3)[n-]/c(=N\C3CC3)c2c1=O (3D coordinates assigned)
Cn1cnc2cc(-c3ccc(C[NH3+])cc3)[n-]/c(=N\C3CC3)c2c1=O (nonaromatic ring conformer: 331.7269367741092 kcal/mol)

>  <smiles>  (39) 
Cn1cnc2cc(-c3ccc(CN)cc3)[nH]c(=NC3CC3)c2c1=O

>  <score_type>  (39) 
oracle

>  <origin>  (39) 
adg

>  <m_score__min__energy>  (39) 
-10.76

>  <m_primary>  (39) 
energy

$$$$
39:0
     RDKit          3D

 52 56  0  0  0  0  0  0  0  0999 V2000
    0.5260   22.9910  -27.2920 O   0  0  0  0  0  0  0  0  0  0  0  0
   -0.4820   23.7480  -27.2590 C   0  0  0  0  0  0  0  0  0  0  0  0
   -0.6240   24.7060  -26.1430 C   0  0  0  0  0  0  0  0  0  0  0  0
    0.4370   24.9500  -25.2570 C   0  0  0  0  0  0  0  0  0  0  0  0
    0.2740   25.8450  -24.1980 C   0  0  0  0  0  0  0  0  0  0  0  0
   -0.9470   26.5040  -24.0430 C   0  0  0  0  0  0  0  0  0  0  0  0
   -1.9600   26.2770  -24.9200 N   0  0  0  0  0  0  0  0  0  0  0  0
   -1.8270   25.4080  -25.9580 C   0  0  0  0  0  0  0  0  0  0  0  0
   -1.4860   23.6480  -28.3410 C   0  0  0  0  0  0  0  0  0  0  0  0
   -1.9940   24.7010  -29.0720 C   0  0  0  0  0  0  0  0  0  0  0  0
   -1.6220   26.0350  -28.9660 O   0  0  0  0  0  0  0  0  0  0  0  0
   -2.9490   24.1950  -29.9190 C   0  0  0  0  0  0  0  0  0  0  0  0
   -3.7050   24.9730  -30.7950 O   0  0  0  0  0  0  0  0  0  0  0  0
   -3.0660   22.8560  -29.7500 N   0  0  0  0  0  0  0  0  0  0  0  0
   -4.0900   21.9820  -30.3400 C   0  0  0  0  0  0  0  0  0  0  0  0
   -4.1810   22.1690  -31.8610 C   0  0  0  0  0  0  0  0  0  0  0  0
   -5.3410   21.4190  -32.4460 C   0  0  0  0  0  0  0  0  0  0  0  0
   -5.2800   20.4590  -33.4510 C   0  0  0  0  0  0  0  0  0  0  0  0
   -6.5010   19.9170  -33.6590 N   0  0  0  0  0  0  0  0  0  0  0  0
   -7.3280   20.5180  -32.7870 C   0  0  0  0  0  0  0  0  0  0  0  0
   -8.6880   20.2690  -32.6020 C   0  0  0  0  0  0  0  0  0  0  0  0
   -9.3590   20.9970  -31.6030 C   0  0  0  0  0  0  0  0  0  0  0  0
   -8.6650   21.9440  -30.8180 C   0  0  0  0  0  0  0  0  0  0  0  0
   -7.2920   22.1720  -31.0240 C   0  0  0  0  0  0  0  0  0  0  0  0
   -6.6560   21.4400  -32.0260 C   0  0  0  0  0  0  0  0  0  0  0  0
   -2.1760   22.5170  -28.7800 C   0  0  0  0  0  0  0  0  0  0  0  0
   -2.0800   21.1720  -28.1740 C   0  0  0  0  0  0  0  0  0  0  0  0
   -3.1460   20.6760  -27.4070 C   0  0  0  0  0  0  0  0  0  0  0  0
   -3.0520   19.4190  -26.8030 C   0  0  0  0  0  0  0  0  0  0  0  0
   -1.8940   18.6530  -26.9570 C   0  0  0  0  0  0  0  0  0  0  0  0
   -0.8270   19.1430  -27.7150 C   0  0  0  0  0  0  0  0  0  0  0  0
   -0.9160   20.4000  -28.3230 C   0  0  0  0  0  0  0  0  0  0  0  0
    0.1490   20.8790  -29.0160 F   0  0  0  0  0  0  0  0  0  0  0  0
    1.3988   24.4350  -25.3974 H   0  0  0  0  0  0  0  0  0  0  0  0
    1.0985   26.0289  -23.4935 H   0  0  0  0  0  0  0  0  0  0  0  0
   -1.0893   27.2080  -23.2098 H   0  0  0  0  0  0  0  0  0  0  0  0
   -2.6641   25.2543  -26.6549 H   0  0  0  0  0  0  0  0  0  0  0  0
   -3.3020   25.4500  -31.5890 H   0  0  0  0  0  0  0  0  0  0  0  0
   -3.8337   20.9344  -30.1234 H   0  0  0  0  0  0  0  0  0  0  0  0
   -5.0635   22.2459  -29.9010 H   0  0  0  0  0  0  0  0  0  0  0  0
   -4.3017   23.2399  -32.0815 H   0  0  0  0  0  0  0  0  0  0  0  0
   -3.2574   21.7746  -32.3099 H   0  0  0  0  0  0  0  0  0  0  0  0
   -4.3677   20.1804  -33.9988 H   0  0  0  0  0  0  0  0  0  0  0  0
   -6.7430   19.1650  -34.3440 H   0  0  0  0  0  0  0  0  0  0  0  0
   -9.2184   19.5274  -33.2174 H   0  0  0  0  0  0  0  0  0  0  0  0
  -10.4323   20.8275  -31.4318 H   0  0  0  0  0  0  0  0  0  0  0  0
   -9.2016   22.5072  -30.0402 H   0  0  0  0  0  0  0  0  0  0  0  0
   -6.7392   22.9027  -30.4154 H   0  0  0  0  0  0  0  0  0  0  0  0
   -4.0578   21.2783  -27.2810 H   0  0  0  0  0  0  0  0  0  0  0  0
   -3.8909   19.0325  -26.2057 H   0  0  0  0  0  0  0  0  0  0  0  0
   -1.8219   17.6637  -26.4815 H   0  0  0  0  0  0  0  0  0  0  0  0
    0.0847   18.5392  -27.8339 H   0  0  0  0  0  0  0  0  0  0  0  0
  1  2  2  0
  2  3  1  0
  3  4  2  0
  4  5  1  0
  5  6  2  0
  6  7  1  0
  7  8  2  0
  2  9  1  0
  9 10  1  0
 10 11  1  0
 10 12  2  0
 12 13  1  0
 12 14  1  0
 14 15  1  0
 15 16  1  0
 16 17  1  0
 17 18  2  0
 18 19  1  0
 19 20  1  0
 20 21  2  0
 21 22  1  0
 22 23  2  0
 23 24  1  0
 24 25  2  0
 14 26  1  0
 26 27  1  0
 27 28  2  0
 28 29  1  0
 29 30  2  0
 30 31  1  0
 31 32  2  0
 32 33  1  0
  8  3  1  0
 26  9  2  0
 32 27  1  0
 25 17  1  0
 25 20  1  0
  4 34  1  0
  5 35  1  0
  6 36  1  0
  8 37  1  0
 13 38  1  0
 15 39  1  0
 15 40  1  0
 16 41  1  0
 16 42  1  0
 18 43  1  0
 19 44  1  0
 21 45  1  0
 22 46  1  0
 23 47  1  0
 24 48  1  0
 28 49  1  0
 29 50  1  0
 30 51  1  0
 31 52  1  0
M  CHG  1  11  -1
M  END
>  <UniqueID>  (40) 
37

>  <SMILES>  (40) 
O=C(c1cccnc1)c1c([O-])c(O)n(CCc2c[nH]c3ccccc23)c1-c1ccccc1F

>  <Energy>  (40) 
126.45325513984422

>  <Genealogy>  (40) 
O=C(c1cccnc1)c1c([O-])c(O)n(CCc2c[nH]c3ccccc23)c1-c1ccccc1F (protonated)
O=C(c1cccnc1)c1c([O-])c(O)n(CCc2c[nH]c3ccccc23)c1-c1ccccc1F (3D coordinates assigned)
O=C(c1cccnc1)c1c([O-])c(O)n(CCc2c[nH]c3ccccc23)c1-c1ccccc1F (optimized conformer: 126.45325513984422 kcal/mol)

>  <smiles>  (40) 
O=C(c1cccnc1)c1c(O)c(O)n(CCc2c[nH]c3ccccc23)c1-c1ccccc1F

>  <score_type>  (40) 
oracle

>  <origin>  (40) 
adg

>  <m_score__min__energy>  (40) 
-13.99

>  <m_primary>  (40) 
energy

$$$$
40:0
     RDKit          3D

 37 38  0  0  0  0  0  0  0  0999 V2000
   -4.2280   25.2760  -30.6400 N   0  0  0  0  0  0  0  0  0  0  0  0
   -5.4890   24.5350  -30.5960 C   0  0  0  0  0  0  0  0  0  0  0  0
   -5.4180   23.2030  -31.3760 C   0  0  0  0  0  0  0  0  0  0  0  0
   -6.7350   22.3930  -31.3370 C   0  0  1  0  0  0  0  0  0  0  0  0
   -7.9840   23.3020  -31.4370 C   0  0  0  0  0  0  0  0  0  0  0  0
   -9.2220   22.5600  -31.9730 C   0  0  0  0  0  0  0  0  0  0  0  0
   -9.1230   21.0550  -31.7110 C   0  0  0  0  0  0  0  0  0  0  0  0
   -7.9590   20.4540  -32.4050 N   0  0  0  0  0  0  0  0  0  0  0  0
   -7.6440   19.1310  -31.8300 C   0  0  0  0  0  0  0  0  0  0  0  0
   -6.7860   18.3400  -32.7770 C   0  0  0  0  0  0  0  0  0  0  0  0
   -6.2880   17.0780  -32.4190 C   0  0  0  0  0  0  0  0  0  0  0  0
   -5.4860   16.3780  -33.3230 C   0  0  0  0  0  0  0  0  0  0  0  0
   -5.1910   16.9360  -34.5670 C   0  0  0  0  0  0  0  0  0  0  0  0
   -5.7050   18.1940  -34.8910 C   0  0  0  0  0  0  0  0  0  0  0  0
   -6.4830   18.8620  -33.9970 N   0  0  0  0  0  0  0  0  0  0  0  0
   -6.7620   21.3390  -32.4650 C   0  0  0  0  0  0  0  0  0  0  0  0
   -4.2620   26.0660  -29.9580 H   0  0  0  0  0  0  0  0  0  0  0  0
   -4.1000   25.6770  -31.5970 H   0  0  0  0  0  0  0  0  0  0  0  0
   -5.7338   24.3167  -29.5460 H   0  0  0  0  0  0  0  0  0  0  0  0
   -6.2612   25.1595  -31.0690 H   0  0  0  0  0  0  0  0  0  0  0  0
   -5.1782   23.4269  -32.4259 H   0  0  0  0  0  0  0  0  0  0  0  0
   -4.6453   22.5867  -30.8932 H   0  0  0  0  0  0  0  0  0  0  0  0
   -6.7673   21.8841  -30.3623 H   0  0  0  0  0  0  0  0  0  0  0  0
   -8.2152   23.6927  -30.4351 H   0  0  0  0  0  0  0  0  0  0  0  0
   -7.7495   24.1093  -32.1464 H   0  0  0  0  0  0  0  0  0  0  0  0
  -10.1198   22.9527  -31.4733 H   0  0  0  0  0  0  0  0  0  0  0  0
   -9.2807   22.7209  -33.0596 H   0  0  0  0  0  0  0  0  0  0  0  0
   -9.0186   20.8875  -30.6289 H   0  0  0  0  0  0  0  0  0  0  0  0
  -10.0363   20.5785  -32.0968 H   0  0  0  0  0  0  0  0  0  0  0  0
   -7.1056   19.2672  -30.8805 H   0  0  0  0  0  0  0  0  0  0  0  0
   -8.5826   18.5842  -31.6568 H   0  0  0  0  0  0  0  0  0  0  0  0
   -6.5268   16.6445  -31.4366 H   0  0  0  0  0  0  0  0  0  0  0  0
   -5.0877   15.3884  -33.0546 H   0  0  0  0  0  0  0  0  0  0  0  0
   -4.5604   16.3913  -35.2851 H   0  0  0  0  0  0  0  0  0  0  0  0
   -5.4806   18.6445  -35.8691 H   0  0  0  0  0  0  0  0  0  0  0  0
   -5.8599   20.7148  -32.3834 H   0  0  0  0  0  0  0  0  0  0  0  0
   -6.8006   21.8810  -33.4214 H   0  0  0  0  0  0  0  0  0  0  0  0
  1  2  1  0
  2  3  1  0
  3  4  1  0
  4  5  1  0
  5  6  1  0
  6  7  1  0
  7  8  1  0
  8  9  1  0
  9 10  1  0
 10 11  2  0
 11 12  1  0
 12 13  2  0
 13 14  1  0
 14 15  2  0
  8 16  1  0
 16  4  1  0
 15 10  1  0
  1 17  1  0
  1 18  1  0
  2 19  1  0
  2 20  1  0
  3 21  1  0
  3 22  1  0
  4 23  1  1
  5 24  1  0
  5 25  1  0
  6 26  1  0
  6 27  1  0
  7 28  1  0
  7 29  1  0
  9 30  1  0
  9 31  1  0
 11 32  1  0
 12 33  1  0
 13 34  1  0
 14 35  1  0
 16 36  1  0
 16 37  1  0
M  END
>  <UniqueID>  (41) 
38

>  <SMILES>  (41) 
NCC[C@H]1CCCN(Cc2ccccn2)C1

>  <Energy>  (41) 
43.213309774244344

>  <Genealogy>  (41) 
NCC[C@H]1CCCN(Cc2ccccn2)C1 (chirality)
NCC[C@H]1CCCN(Cc2ccccn2)C1 (3D coordinates assigned)
NCC[C@H]1CCCN(Cc2ccccn2)C1 (nonaromatic ring conformer: 43.213309774244344 kcal/mol)

>  <smiles>  (41) 
NCCC1CCCN(Cc2ccccn2)C1

>  <score_type>  (41) 
oracle

>  <origin>  (41) 
adg

>  <m_score__min__energy>  (41) 
-7.75

>  <m_primary>  (41) 
energy

$$$$
41:0
     RDKit          3D

 34 34  0  0  0  0  0  0  0  0999 V2000
   -9.4450   20.7290  -32.2600 C   0  0  0  0  0  0  0  0  0  0  0  0
   -8.6980   19.5790  -31.5850 C   0  0  0  0  0  0  0  0  0  0  0  0
   -7.9450   18.6910  -32.5880 C   0  0  0  0  0  0  0  0  0  0  0  0
   -6.8570   19.4600  -33.3520 C   0  0  0  0  0  0  0  0  0  0  0  0
   -5.6340   19.7770  -32.4830 C   0  0  0  0  0  0  0  0  0  0  0  0
   -5.1470   21.0980  -32.7330 O   0  0  0  0  0  0  0  0  0  0  0  0
   -5.4400   22.2520  -31.9870 C   0  0  0  0  0  0  0  0  0  0  0  0
   -6.7500   22.6250  -31.6250 C   0  0  0  0  0  0  0  0  0  0  0  0
   -6.9690   23.7780  -30.8670 C   0  0  0  0  0  0  0  0  0  0  0  0
   -5.8920   24.5720  -30.4680 C   0  0  0  0  0  0  0  0  0  0  0  0
   -4.5870   24.2300  -30.8390 C   0  0  0  0  0  0  0  0  0  0  0  0
   -3.5010   25.0540  -30.3940 N   0  0  0  0  0  0  0  0  0  0  0  0
   -2.7480   24.8950  -29.1840 C   0  0  0  0  0  0  0  0  0  0  0  0
   -3.0750   23.8360  -28.1760 C   0  0  0  0  0  0  0  0  0  0  0  0
   -1.7600   25.6480  -28.9780 O   0  0  0  0  0  0  0  0  0  0  0  0
   -4.3670   23.0530  -31.5760 C   0  0  0  0  0  0  0  0  0  0  0  0
   -9.8737   21.3890  -31.4914 H   0  0  0  0  0  0  0  0  0  0  0  0
   -8.7463   21.3021  -32.8872 H   0  0  0  0  0  0  0  0  0  0  0  0
  -10.2527   20.3236  -32.8872 H   0  0  0  0  0  0  0  0  0  0  0  0
   -7.9722   20.0002  -30.8739 H   0  0  0  0  0  0  0  0  0  0  0  0
   -9.4448   18.9493  -31.0792 H   0  0  0  0  0  0  0  0  0  0  0  0
   -7.4727   17.8621  -32.0403 H   0  0  0  0  0  0  0  0  0  0  0  0
   -8.6753   18.3245  -33.3244 H   0  0  0  0  0  0  0  0  0  0  0  0
   -6.5316   18.8512  -34.2085 H   0  0  0  0  0  0  0  0  0  0  0  0
   -7.2919   20.4175  -33.6746 H   0  0  0  0  0  0  0  0  0  0  0  0
   -5.9164   19.6939  -31.4231 H   0  0  0  0  0  0  0  0  0  0  0  0
   -4.8370   19.0606  -32.7309 H   0  0  0  0  0  0  0  0  0  0  0  0
   -7.6030   22.0062  -31.9404 H   0  0  0  0  0  0  0  0  0  0  0  0
   -7.9934   24.0612  -30.5836 H   0  0  0  0  0  0  0  0  0  0  0  0
   -6.0703   25.4706  -29.8591 H   0  0  0  0  0  0  0  0  0  0  0  0
   -2.9492   24.2435  -27.1621 H   0  0  0  0  0  0  0  0  0  0  0  0
   -4.1161   23.5084  -28.3129 H   0  0  0  0  0  0  0  0  0  0  0  0
   -2.3998   22.9785  -28.3129 H   0  0  0  0  0  0  0  0  0  0  0  0
   -3.3391   22.7575  -31.8331 H   0  0  0  0  0  0  0  0  0  0  0  0
  1  2  1  0
  2  3  1  0
  3  4  1  0
  4  5  1  0
  5  6  1  0
  6  7  1  0
  7  8  2  0
  8  9  1  0
  9 10  2  0
 10 11  1  0
 11 12  1  0
 12 13  1  0
 13 14  1  0
 13 15  2  0
 11 16  2  0
 16  7  1  0
  1 17  1  0
  1 18  1  0
  1 19  1  0
  2 20  1  0
  2 21  1  0
  3 22  1  0
  3 23  1  0
  4 24  1  0
  4 25  1  0
  5 26  1  0
  5 27  1  0
  8 28  1  0
  9 29  1  0
 10 30  1  0
 14 31  1  0
 14 32  1  0
 14 33  1  0
 16 34  1  0
M  CHG  1  12  -1
M  END
>  <UniqueID>  (42) 
39

>  <SMILES>  (42) 
CCCCCOc1cccc([N-]C(C)=O)c1

>  <Energy>  (42) 
29.201967032149938

>  <Genealogy>  (42) 
CCCCCOc1cccc([N-]C(C)=O)c1 (protonated)
CCCCCOc1cccc([N-]C(C)=O)c1 (3D coordinates assigned)
CCCCCOc1cccc([N-]C(C)=O)c1 (optimized conformer: 29.201967032149938 kcal/mol)

>  <smiles>  (42) 
CCCCCOc1cccc(NC(C)=O)c1

>  <score_type>  (42) 
oracle

>  <origin>  (42) 
adg

>  <m_score__min__energy>  (42) 
-8.0099999999999998

>  <m_primary>  (42) 
energy

$$$$
42:0
     RDKit          3D

 48 49  0  0  0  0  0  0  0  0999 V2000
   -1.0640   21.4120  -31.4400 C   0  0  0  0  0  0  0  0  0  0  0  0
   -1.6800   20.3010  -32.0800 O   0  0  0  0  0  0  0  0  0  0  0  0
   -2.3610   20.4150  -33.2950 C   0  0  0  0  0  0  0  0  0  0  0  0
   -2.1400   19.6030  -34.2350 O   0  0  0  0  0  0  0  0  0  0  0  0
   -3.3700   21.5030  -33.4780 C   0  0  0  0  0  0  0  0  0  0  0  0
   -4.6520   21.1130  -32.8380 N   0  0  0  0  0  0  0  0  0  0  0  0
   -5.0290   19.7200  -33.1720 C   0  0  0  0  0  0  0  0  0  0  0  0
   -6.4570   19.4340  -32.7850 C   0  0  0  0  0  0  0  0  0  0  0  0
   -6.7680   18.2670  -32.0670 C   0  0  0  0  0  0  0  0  0  0  0  0
   -8.0870   18.0090  -31.6820 C   0  0  0  0  0  0  0  0  0  0  0  0
   -9.1030   18.9110  -32.0110 C   0  0  0  0  0  0  0  0  0  0  0  0
   -8.8000   20.0720  -32.7280 C   0  0  0  0  0  0  0  0  0  0  0  0
   -7.4830   20.3340  -33.1160 C   0  0  0  0  0  0  0  0  0  0  0  0
   -4.5900   21.2830  -31.3690 C   0  0  0  0  0  0  0  0  0  0  0  0
   -5.2970   22.5560  -30.9450 C   0  0  0  0  0  0  0  0  0  0  0  0
   -6.6750   22.6660  -31.2110 C   0  0  0  0  0  0  0  0  0  0  0  0
   -7.3810   23.8160  -30.8610 C   0  0  0  0  0  0  0  0  0  0  0  0
   -6.7270   24.8720  -30.2300 C   0  0  0  0  0  0  0  0  0  0  0  0
   -5.3660   24.7770  -29.9360 C   0  0  0  0  0  0  0  0  0  0  0  0
   -4.6370   23.6190  -30.2680 C   0  0  0  0  0  0  0  0  0  0  0  0
   -3.1720   23.5670  -29.9160 C   0  0  0  0  0  0  0  0  0  0  0  0
   -2.6690   24.9210  -29.7180 N   0  0  0  0  0  0  0  0  0  0  0  0
   -1.5860   25.2280  -28.8380 C   0  0  0  0  0  0  0  0  0  0  0  0
   -1.1290   24.2100  -27.8490 C   0  0  0  0  0  0  0  0  0  0  0  0
   -1.0480   26.3680  -28.8580 O   0  0  0  0  0  0  0  0  0  0  0  0
   -1.1315   21.2903  -30.3488 H   0  0  0  0  0  0  0  0  0  0  0  0
   -0.0066   21.4669  -31.7381 H   0  0  0  0  0  0  0  0  0  0  0  0
   -1.5776   22.3379  -31.7381 H   0  0  0  0  0  0  0  0  0  0  0  0
   -2.9972   22.4284  -33.0147 H   0  0  0  0  0  0  0  0  0  0  0  0
   -3.5359   21.6674  -34.5529 H   0  0  0  0  0  0  0  0  0  0  0  0
   -4.9133   19.5669  -34.2551 H   0  0  0  0  0  0  0  0  0  0  0  0
   -4.3730   19.0378  -32.6115 H   0  0  0  0  0  0  0  0  0  0  0  0
   -5.9714   17.5543  -31.8071 H   0  0  0  0  0  0  0  0  0  0  0  0
   -8.3257   17.0946  -31.1192 H   0  0  0  0  0  0  0  0  0  0  0  0
  -10.1400   18.7073  -31.7059 H   0  0  0  0  0  0  0  0  0  0  0  0
   -9.5999   20.7811  -32.9875 H   0  0  0  0  0  0  0  0  0  0  0  0
   -7.2495   21.2477  -33.6822 H   0  0  0  0  0  0  0  0  0  0  0  0
   -5.0753   20.4225  -30.8854 H   0  0  0  0  0  0  0  0  0  0  0  0
   -3.5347   21.3473  -31.0652 H   0  0  0  0  0  0  0  0  0  0  0  0
   -7.2014   21.8339  -31.7013 H   0  0  0  0  0  0  0  0  0  0  0  0
   -8.4558   23.8897  -31.0833 H   0  0  0  0  0  0  0  0  0  0  0  0
   -7.2842   25.7821  -29.9631 H   0  0  0  0  0  0  0  0  0  0  0  0
   -4.8571   25.6162  -29.4393 H   0  0  0  0  0  0  0  0  0  0  0  0
   -3.0380   22.9876  -28.9906 H   0  0  0  0  0  0  0  0  0  0  0  0
   -2.6161   23.0865  -30.7346 H   0  0  0  0  0  0  0  0  0  0  0  0
   -1.2983   24.5872  -26.8297 H   0  0  0  0  0  0  0  0  0  0  0  0
   -1.6951   23.2781  -27.9939 H   0  0  0  0  0  0  0  0  0  0  0  0
   -0.0564   24.0137  -27.9939 H   0  0  0  0  0  0  0  0  0  0  0  0
  1  2  1  0
  2  3  1  0
  3  4  2  0
  3  5  1  0
  5  6  1  0
  6  7  1  0
  7  8  1  0
  8  9  2  0
  9 10  1  0
 10 11  2  0
 11 12  1  0
 12 13  2  0
  6 14  1  0
 14 15  1  0
 15 16  2  0
 16 17  1  0
 17 18  2  0
 18 19  1  0
 19 20  2  0
 20 21  1  0
 21 22  1  0
 22 23  1  0
 23 24  1  0
 23 25  2  0
 13  8  1  0
 20 15  1  0
  1 26  1  0
  1 27  1  0
  1 28  1  0
  5 29  1  0
  5 30  1  0
  7 31  1  0
  7 32  1  0
  9 33  1  0
 10 34  1  0
 11 35  1  0
 12 36  1  0
 13 37  1  0
 14 38  1  0
 14 39  1  0
 16 40  1  0
 17 41  1  0
 18 42  1  0
 19 43  1  0
 21 44  1  0
 21 45  1  0
 24 46  1  0
 24 47  1  0
 24 48  1  0
M  CHG  1  22  -1
M  END
>  <UniqueID>  (43) 
40

>  <SMILES>  (43) 
COC(=O)CN(Cc1ccccc1)Cc1ccccc1C[N-]C(C)=O

>  <Energy>  (43) 
42.859514148505326

>  <Genealogy>  (43) 
COC(=O)CN(Cc1ccccc1)Cc1ccccc1C[N-]C(C)=O (protonated)
COC(=O)CN(Cc1ccccc1)Cc1ccccc1C[N-]C(C)=O (3D coordinates assigned)
COC(=O)CN(Cc1ccccc1)Cc1ccccc1C[N-]C(C)=O (optimized conformer: 42.859514148505326 kcal/mol)

>  <smiles>  (43) 
COC(=O)CN(Cc1ccccc1)Cc1ccccc1CNC(C)=O

>  <score_type>  (43) 
oracle

>  <origin>  (43) 
adg

>  <m_score__min__energy>  (43) 
-9.4700000000000006

>  <m_primary>  (43) 
energy

$$$$
43:0
     RDKit          3D

 31 32  0  0  0  0  0  0  0  0999 V2000
   -5.3670   18.2280  -34.9410 C   0  0  0  0  0  0  0  0  0  0  0  0
   -6.2770   18.2300  -33.7580 C   0  0  0  0  0  0  0  0  0  0  0  0
   -6.4740   17.2030  -32.8560 C   0  0  0  0  0  0  0  0  0  0  0  0
   -7.2840   17.6330  -31.8670 N   0  0  0  0  0  0  0  0  0  0  0  0
   -7.5970   18.8930  -32.1270 N   0  0  0  0  0  0  0  0  0  0  0  0
   -8.3940   19.7310  -31.2370 C   0  0  0  0  0  0  0  0  0  0  0  0
   -7.9460   21.1570  -31.3470 C   0  0  0  0  0  0  0  0  0  0  0  0
   -8.7890   22.1320  -31.8970 C   0  0  0  0  0  0  0  0  0  0  0  0
   -8.3230   23.4400  -32.0340 C   0  0  0  0  0  0  0  0  0  0  0  0
   -7.0260   23.7630  -31.6330 C   0  0  0  0  0  0  0  0  0  0  0  0
   -6.2060   22.7640  -31.0880 C   0  0  0  0  0  0  0  0  0  0  0  0
   -4.7920   23.0630  -30.6910 C   0  0  0  0  0  0  0  0  0  0  0  0
   -4.6820   24.4790  -30.2150 C   0  0  0  0  0  0  0  0  0  0  0  0
   -5.4310   24.9220  -29.0840 N   0  0  0  0  0  0  0  0  0  0  0  0
   -3.9550   25.2950  -30.8410 O   0  0  0  0  0  0  0  0  0  0  0  0
   -6.6800   21.4930  -30.9740 N   0  0  0  0  0  0  0  0  0  0  0  0
   -6.9860   19.3000  -33.2560 C   0  0  0  0  0  0  0  0  0  0  0  0
   -4.3214   18.2257  -34.5993 H   0  0  0  0  0  0  0  0  0  0  0  0
   -5.5564   17.3303  -35.5478 H   0  0  0  0  0  0  0  0  0  0  0  0
   -5.5525   19.1266  -35.5478 H   0  0  0  0  0  0  0  0  0  0  0  0
   -6.0397   16.1952  -32.9320 H   0  0  0  0  0  0  0  0  0  0  0  0
   -9.4546   19.6585  -31.5196 H   0  0  0  0  0  0  0  0  0  0  0  0
   -8.2626   19.3877  -30.2002 H   0  0  0  0  0  0  0  0  0  0  0  0
   -9.8078   21.8688  -32.2175 H   0  0  0  0  0  0  0  0  0  0  0  0
   -8.9775   24.2160  -32.4578 H   0  0  0  0  0  0  0  0  0  0  0  0
   -6.6504   24.7910  -31.7432 H   0  0  0  0  0  0  0  0  0  0  0  0
   -4.4891   22.3821  -29.8819 H   0  0  0  0  0  0  0  0  0  0  0  0
   -4.1351   22.9228  -31.5621 H   0  0  0  0  0  0  0  0  0  0  0  0
   -6.0540   24.2620  -28.5670 H   0  0  0  0  0  0  0  0  0  0  0  0
   -5.3650   25.9130  -28.7630 H   0  0  0  0  0  0  0  0  0  0  0  0
   -7.0426   20.3057  -33.6981 H   0  0  0  0  0  0  0  0  0  0  0  0
  1  2  1  0
  2  3  1  0
  3  4  2  0
  4  5  1  0
  5  6  1  0
  6  7  1  0
  7  8  2  0
  8  9  1  0
  9 10  2  0
 10 11  1  0
 11 12  1  0
 12 13  1  0
 13 14  1  0
 13 15  2  0
 11 16  2  0
  5 17  1  0
 17  2  2  0
 16  7  1  0
  1 18  1  0
  1 19  1  0
  1 20  1  0
  3 21  1  0
  6 22  1  0
  6 23  1  0
  8 24  1  0
  9 25  1  0
 10 26  1  0
 12 27  1  0
 12 28  1  0
 14 29  1  0
 14 30  1  0
 17 31  1  0
M  END
>  <UniqueID>  (44) 
41

>  <SMILES>  (44) 
Cc1cnn(Cc2cccc(CC(N)=O)n2)c1

>  <Energy>  (44) 
54.194847940729936

>  <Genealogy>  (44) 
Cc1cnn(Cc2cccc(CC(N)=O)n2)c1 (3D coordinates assigned)
Cc1cnn(Cc2cccc(CC(N)=O)n2)c1 (optimized conformer: 54.194847940729936 kcal/mol)

>  <smiles>  (44) 
Cc1cnn(Cc2cccc(CC(N)=O)n2)c1

>  <score_type>  (44) 
oracle

>  <origin>  (44) 
adg

>  <m_score__min__energy>  (44) 
-7.7699999999999996

>  <m_primary>  (44) 
energy

$$$$
44:0
     RDKit          3D

 46 49  0  0  0  0  0  0  0  0999 V2000
   -2.4090   23.1620  -29.1750 O   0  0  0  0  0  0  0  0  0  0  0  0
   -3.3140   23.1680  -30.0520 C   0  0  0  0  0  0  0  0  0  0  0  0
   -4.3260   24.2850  -30.0650 C   0  0  1  0  0  0  0  0  0  0  0  0
   -3.8560   25.3610  -30.8350 O   0  0  0  0  0  0  0  0  0  0  0  0
   -5.6490   23.7700  -30.5910 C   0  0  0  0  0  0  0  0  0  0  0  0
   -6.0620   24.0020  -31.9190 C   0  0  0  0  0  0  0  0  0  0  0  0
   -7.2510   23.4440  -32.3980 C   0  0  0  0  0  0  0  0  0  0  0  0
   -8.0380   22.6480  -31.5640 C   0  0  0  0  0  0  0  0  0  0  0  0
   -7.6380   22.4070  -30.2470 C   0  0  0  0  0  0  0  0  0  0  0  0
   -6.4480   22.9600  -29.7640 C   0  0  0  0  0  0  0  0  0  0  0  0
   -3.4030   22.0810  -30.9820 N   0  0  0  0  0  0  0  0  0  0  0  0
   -3.5860   20.7160  -30.4770 C   0  0  0  0  0  0  0  0  0  0  0  0
   -4.7260   20.0180  -31.2340 C   0  0  0  0  0  0  0  0  0  0  0  0
   -4.7330   20.3290  -32.7560 C   0  0  0  0  0  0  0  0  0  0  0  0
   -4.9780   19.1200  -33.5510 N   0  0  0  0  0  0  0  0  0  0  0  0
   -6.0610   18.9450  -34.3060 N   0  0  0  0  0  0  0  0  0  0  0  0
   -6.0050   17.7760  -34.9380 N   0  0  0  0  0  0  0  0  0  0  0  0
   -4.8500   17.1930  -34.5790 C   0  0  0  0  0  0  0  0  0  0  0  0
   -4.3260   15.9640  -34.9690 C   0  0  0  0  0  0  0  0  0  0  0  0
   -3.0790   15.5950  -34.4300 C   0  0  0  0  0  0  0  0  0  0  0  0
   -2.4030   16.4530  -33.5310 C   0  0  0  0  0  0  0  0  0  0  0  0
   -2.9660   17.6900  -33.1590 C   0  0  0  0  0  0  0  0  0  0  0  0
   -4.2030   18.0250  -33.7150 C   0  0  0  0  0  0  0  0  0  0  0  0
   -3.4580   21.0480  -33.2380 C   0  0  0  0  0  0  0  0  0  0  0  0
   -3.2290   22.3250  -32.4200 C   0  0  0  0  0  0  0  0  0  0  0  0
   -4.4791   24.6494  -29.0384 H   0  0  0  0  0  0  0  0  0  0  0  0
   -3.3460   24.9720  -31.5930 H   0  0  0  0  0  0  0  0  0  0  0  0
   -5.4449   24.6259  -32.5823 H   0  0  0  0  0  0  0  0  0  0  0  0
   -7.5671   23.6327  -33.4346 H   0  0  0  0  0  0  0  0  0  0  0  0
   -8.9731   22.2104  -31.9436 H   0  0  0  0  0  0  0  0  0  0  0  0
   -8.2599   21.7816  -29.5896 H   0  0  0  0  0  0  0  0  0  0  0  0
   -6.1342   22.7599  -28.7289 H   0  0  0  0  0  0  0  0  0  0  0  0
   -2.6546   20.1482  -30.6190 H   0  0  0  0  0  0  0  0  0  0  0  0
   -3.8399   20.7602  -29.4076 H   0  0  0  0  0  0  0  0  0  0  0  0
   -4.6202   18.9313  -31.1001 H   0  0  0  0  0  0  0  0  0  0  0  0
   -5.6721   20.3962  -30.8196 H   0  0  0  0  0  0  0  0  0  0  0  0
   -5.5673   21.0285  -32.9132 H   0  0  0  0  0  0  0  0  0  0  0  0
   -6.7320   17.4070  -35.5880 H   0  0  0  0  0  0  0  0  0  0  0  0
   -4.8640   15.3082  -35.6694 H   0  0  0  0  0  0  0  0  0  0  0  0
   -2.6268   14.6321  -34.7100 H   0  0  0  0  0  0  0  0  0  0  0  0
   -1.4288   16.1517  -33.1185 H   0  0  0  0  0  0  0  0  0  0  0  0
   -2.4520   18.3649  -32.4588 H   0  0  0  0  0  0  0  0  0  0  0  0
   -2.5944   20.3779  -33.1150 H   0  0  0  0  0  0  0  0  0  0  0  0
   -3.5765   21.3170  -34.2980 H   0  0  0  0  0  0  0  0  0  0  0  0
   -2.2057   22.6863  -32.6001 H   0  0  0  0  0  0  0  0  0  0  0  0
   -3.9698   23.0746  -32.7352 H   0  0  0  0  0  0  0  0  0  0  0  0
  1  2  2  0
  2  3  1  0
  3  4  1  0
  3  5  1  0
  5  6  2  0
  6  7  1  0
  7  8  2  0
  8  9  1  0
  9 10  2  0
  2 11  1  0
 11 12  1  0
 12 13  1  0
 13 14  1  0
 14 15  1  0
 15 16  1  0
 16 17  2  0
 17 18  1  0
 18 19  2  0
 19 20  1  0
 20 21  2  0
 21 22  1  0
 22 23  2  0
 14 24  1  0
 24 25  1  0
 10  5  1  0
 25 11  1  0
 23 15  1  0
 23 18  1  0
  3 26  1  1
  4 27  1  0
  6 28  1  0
  7 29  1  0
  8 30  1  0
  9 31  1  0
 10 32  1  0
 12 33  1  0
 12 34  1  0
 13 35  1  0
 13 36  1  0
 14 37  1  0
 17 38  1  0
 19 39  1  0
 20 40  1  0
 21 41  1  0
 22 42  1  0
 24 43  1  0
 24 44  1  0
 25 45  1  0
 25 46  1  0
M  CHG  1  17   1
M  END
>  <UniqueID>  (45) 
42

>  <SMILES>  (45) 
O=C([C@@H](O)c1ccccc1)N1CCC(n2n[nH+]c3ccccc32)CC1

>  <Energy>  (45) 
99.64970250837591

>  <Genealogy>  (45) 
O=C(C(O)c1ccccc1)N1CCC(n2n[nH+]c3ccccc32)CC1 (protonated)
O=C([C@@H](O)c1ccccc1)N1CCC(n2n[nH+]c3ccccc32)CC1 (chirality)
O=C([C@@H](O)c1ccccc1)N1CCC(n2n[nH+]c3ccccc32)CC1 (3D coordinates assigned)
O=C([C@@H](O)c1ccccc1)N1CCC(n2n[nH+]c3ccccc32)CC1 (nonaromatic ring conformer: 99.64970250837591 kcal/mol)

>  <smiles>  (45) 
O=C(C(O)c1ccccc1)N1CCC(n2nnc3ccccc32)CC1

>  <score_type>  (45) 
oracle

>  <origin>  (45) 
adg

>  <m_score__min__energy>  (45) 
-8.9100000000000001

>  <m_primary>  (45) 
energy

$$$$
45:0
     RDKit          3D

 31 33  0  0  0  0  0  0  0  0999 V2000
    0.7670   25.7620  -26.6150 C   0  0  0  0  0  0  0  0  0  0  0  0
    0.7520   25.0250  -27.8330 O   0  0  0  0  0  0  0  0  0  0  0  0
   -0.3810   24.3830  -28.3590 C   0  0  0  0  0  0  0  0  0  0  0  0
   -1.4340   25.0990  -28.9610 C   0  0  0  0  0  0  0  0  0  0  0  0
   -2.5470   24.4260  -29.4740 C   0  0  0  0  0  0  0  0  0  0  0  0
   -3.5320   25.1200  -30.0360 O   0  0  0  0  0  0  0  0  0  0  0  0
   -4.6160   24.5460  -30.5440 C   0  0  0  0  0  0  0  0  0  0  0  0
   -4.7750   23.1520  -30.5150 C   0  0  0  0  0  0  0  0  0  0  0  0
   -5.9930   22.5330  -31.0970 C   0  0  0  0  0  0  0  0  0  0  0  0
   -7.2700   22.8700  -30.6140 C   0  0  0  0  0  0  0  0  0  0  0  0
   -8.4130   22.2760  -31.1610 C   0  0  0  0  0  0  0  0  0  0  0  0
   -8.2910   21.3400  -32.1900 C   0  0  0  0  0  0  0  0  0  0  0  0
   -9.4000   20.7640  -32.7180 F   0  0  0  0  0  0  0  0  0  0  0  0
   -7.0260   20.9920  -32.6720 C   0  0  0  0  0  0  0  0  0  0  0  0
   -5.8820   21.5820  -32.1280 C   0  0  0  0  0  0  0  0  0  0  0  0
   -3.7600   22.3780  -29.9190 C   0  0  0  0  0  0  0  0  0  0  0  0
   -3.8770   21.1250  -29.8390 O   0  0  0  0  0  0  0  0  0  0  0  0
   -2.6230   23.0190  -29.3940 C   0  0  0  0  0  0  0  0  0  0  0  0
   -1.5720   22.3060  -28.7920 C   0  0  0  0  0  0  0  0  0  0  0  0
   -0.4610   22.9840  -28.2790 C   0  0  0  0  0  0  0  0  0  0  0  0
    0.9500   21.9750  -27.4690 Br  0  0  0  0  0  0  0  0  0  0  0  0
    0.7528   25.0647  -25.7643 H   0  0  0  0  0  0  0  0  0  0  0  0
    1.6778   26.3771  -26.5698 H   0  0  0  0  0  0  0  0  0  0  0  0
   -0.1181   26.4136  -26.5698 H   0  0  0  0  0  0  0  0  0  0  0  0
   -1.3803   26.1956  -29.0280 H   0  0  0  0  0  0  0  0  0  0  0  0
   -5.4006   25.1720  -30.9940 H   0  0  0  0  0  0  0  0  0  0  0  0
   -7.3710   23.6047  -29.8016 H   0  0  0  0  0  0  0  0  0  0  0  0
   -9.4087   22.5468  -30.7799 H   0  0  0  0  0  0  0  0  0  0  0  0
   -6.9308   20.2526  -33.4808 H   0  0  0  0  0  0  0  0  0  0  0  0
   -4.8887   21.3012  -32.5081 H   0  0  0  0  0  0  0  0  0  0  0  0
   -1.6233   21.2093  -28.7239 H   0  0  0  0  0  0  0  0  0  0  0  0
  1  2  1  0
  2  3  1  0
  3  4  2  0
  4  5  1  0
  5  6  1  0
  6  7  1  0
  7  8  2  0
  8  9  1  0
  9 10  2  0
 10 11  1  0
 11 12  2  0
 12 13  1  0
 12 14  1  0
 14 15  2  0
  8 16  1  0
 16 17  2  0
 16 18  1  0
 18 19  1  0
 19 20  2  0
 20 21  1  0
 20  3  1  0
 18  5  2  0
 15  9  1  0
  1 22  1  0
  1 23  1  0
  1 24  1  0
  4 25  1  0
  7 26  1  0
 10 27  1  0
 11 28  1  0
 14 29  1  0
 15 30  1  0
 19 31  1  0
M  END
>  <UniqueID>  (46) 
43

>  <SMILES>  (46) 
COc1cc2occ(-c3ccc(F)cc3)c(=O)c2cc1Br

>  <Energy>  (46) 
45.73703385039068

>  <Genealogy>  (46) 
COc1cc2occ(-c3ccc(F)cc3)c(=O)c2cc1Br (3D coordinates assigned)
COc1cc2occ(-c3ccc(F)cc3)c(=O)c2cc1Br (optimized conformer: 45.73703385039068 kcal/mol)

>  <smiles>  (46) 
COc1cc2occ(-c3ccc(F)cc3)c(=O)c2cc1Br

>  <score_type>  (46) 
oracle

>  <origin>  (46) 
adg

>  <m_score__min__energy>  (46) 
-7.1500000000000004

>  <m_primary>  (46) 
energy

$$$$
46:0
     RDKit          3D

 52 55  0  0  0  0  0  0  0  0999 V2000
   -0.8560   30.5900  -26.4730 C   0  0  0  0  0  0  0  0  0  0  0  0
   -1.1440   29.8590  -25.1820 C   0  0  0  0  0  0  0  0  0  0  0  0
   -0.4470   28.6340  -25.0990 O   0  0  0  0  0  0  0  0  0  0  0  0
   -0.8230   27.5020  -25.8080 C   0  0  0  0  0  0  0  0  0  0  0  0
   -0.4540   27.2700  -27.1180 C   0  0  0  0  0  0  0  0  0  0  0  0
   -0.8790   26.1120  -27.7430 C   0  0  0  0  0  0  0  0  0  0  0  0
   -1.6640   25.1710  -27.1010 C   0  0  0  0  0  0  0  0  0  0  0  0
   -2.0680   23.9700  -27.8420 C   0  0  0  0  0  0  0  0  0  0  0  0
   -2.9560   24.2290  -28.9590 N   0  0  0  0  0  0  0  0  0  0  0  0
   -2.8050   23.2720  -30.0160 C   0  0  0  0  0  0  0  0  0  0  0  0
   -4.0310   23.1650  -30.8890 C   0  0  0  0  0  0  0  0  0  0  0  0
   -4.8550   24.3640  -30.8390 N   0  0  0  0  0  0  0  0  0  0  0  0
   -5.9070   24.2220  -31.8090 C   0  0  0  0  0  0  0  0  0  0  0  0
   -6.4090   22.8470  -31.9740 C   0  0  0  0  0  0  0  0  0  0  0  0
   -7.4980   22.3750  -31.3250 N   0  0  0  0  0  0  0  0  0  0  0  0
   -7.7300   21.1010  -31.6570 C   0  0  0  0  0  0  0  0  0  0  0  0
   -8.7290   20.2540  -31.2280 C   0  0  0  0  0  0  0  0  0  0  0  0
   -8.7530   18.9820  -31.7200 C   0  0  0  0  0  0  0  0  0  0  0  0
   -7.7760   18.5830  -32.6310 C   0  0  0  0  0  0  0  0  0  0  0  0
   -6.7770   19.4650  -33.0470 C   0  0  0  0  0  0  0  0  0  0  0  0
   -6.7530   20.7510  -32.5490 C   0  0  0  0  0  0  0  0  0  0  0  0
   -5.9550   21.8320  -32.7300 N   0  0  0  0  0  0  0  0  0  0  0  0
   -5.3300   24.5390  -29.5010 C   0  0  0  0  0  0  0  0  0  0  0  0
   -4.3100   24.1480  -28.4590 C   0  0  0  0  0  0  0  0  0  0  0  0
   -2.0130   25.4360  -25.7920 C   0  0  0  0  0  0  0  0  0  0  0  0
   -1.6070   26.5830  -25.1380 C   0  0  0  0  0  0  0  0  0  0  0  0
   -0.4614   31.5916  -26.2471 H   0  0  0  0  0  0  0  0  0  0  0  0
   -0.1129   30.0260  -27.0558 H   0  0  0  0  0  0  0  0  0  0  0  0
   -1.7841   30.6844  -27.0558 H   0  0  0  0  0  0  0  0  0  0  0  0
   -0.8421   30.4968  -24.3382 H   0  0  0  0  0  0  0  0  0  0  0  0
   -2.2213   29.6389  -25.1502 H   0  0  0  0  0  0  0  0  0  0  0  0
    0.1703   27.9972  -27.6578 H   0  0  0  0  0  0  0  0  0  0  0  0
   -0.5826   25.9328  -28.7870 H   0  0  0  0  0  0  0  0  0  0  0  0
   -1.1610   23.4823  -28.2287 H   0  0  0  0  0  0  0  0  0  0  0  0
   -2.6257   23.3369  -27.1362 H   0  0  0  0  0  0  0  0  0  0  0  0
   -1.9526   23.5727  -30.6429 H   0  0  0  0  0  0  0  0  0  0  0  0
   -2.6434   22.2884  -29.5509 H   0  0  0  0  0  0  0  0  0  0  0  0
   -3.7111   22.9995  -31.9283 H   0  0  0  0  0  0  0  0  0  0  0  0
   -4.6366   22.3264  -30.5149 H   0  0  0  0  0  0  0  0  0  0  0  0
   -6.7481   24.8591  -31.4983 H   0  0  0  0  0  0  0  0  0  0  0  0
   -5.4780   24.5151  -32.7786 H   0  0  0  0  0  0  0  0  0  0  0  0
   -9.4872   20.5949  -30.5076 H   0  0  0  0  0  0  0  0  0  0  0  0
   -9.5356   18.2779  -31.4011 H   0  0  0  0  0  0  0  0  0  0  0  0
   -7.7925   17.5573  -33.0282 H   0  0  0  0  0  0  0  0  0  0  0  0
   -6.0136   19.1363  -33.7676 H   0  0  0  0  0  0  0  0  0  0  0  0
   -5.1350   21.8700  -33.3470 H   0  0  0  0  0  0  0  0  0  0  0  0
   -5.5906   25.5979  -29.3569 H   0  0  0  0  0  0  0  0  0  0  0  0
   -6.2022   23.8812  -29.3719 H   0  0  0  0  0  0  0  0  0  0  0  0
   -4.4094   24.8229  -27.5960 H   0  0  0  0  0  0  0  0  0  0  0  0
   -4.5021   23.1026  -28.1758 H   0  0  0  0  0  0  0  0  0  0  0  0
   -2.6360   24.7086  -25.2509 H   0  0  0  0  0  0  0  0  0  0  0  0
   -1.9049   26.7627  -24.0945 H   0  0  0  0  0  0  0  0  0  0  0  0
  1  2  1  0
  2  3  1  0
  3  4  1  0
  4  5  2  0
  5  6  1  0
  6  7  2  0
  7  8  1  0
  8  9  1  0
  9 10  1  0
 10 11  1  0
 11 12  1  0
 12 13  1  0
 13 14  1  0
 14 15  2  0
 15 16  1  0
 16 17  2  0
 17 18  1  0
 18 19  2  0
 19 20  1  0
 20 21  2  0
 21 22  1  0
 12 23  1  0
 23 24  1  0
  7 25  1  0
 25 26  2  0
 26  4  1  0
 24  9  1  0
 22 14  1  0
 21 16  1  0
  1 27  1  0
  1 28  1  0
  1 29  1  0
  2 30  1  0
  2 31  1  0
  5 32  1  0
  6 33  1  0
  8 34  1  0
  8 35  1  0
 10 36  1  0
 10 37  1  0
 11 38  1  0
 11 39  1  0
 13 40  1  0
 13 41  1  0
 17 42  1  0
 18 43  1  0
 19 44  1  0
 20 45  1  0
 22 46  1  0
 23 47  1  0
 23 48  1  0
 24 49  1  0
 24 50  1  0
 25 51  1  0
 26 52  1  0
M  END
>  <smiles>  (47) 
CCOc1ccc(CN2CCN(Cc3nc4ccccc4[nH]3)CC2)cc1

>  <score_type>  (47) 
oracle

>  <origin>  (47) 
adg

>  <m_score__min__energy>  (47) 
-8.9100000000000001

>  <m_primary>  (47) 
energy

$$$$
