0:0
     RDKit          3D

 41 42  0  0  0  0  0  0  0  0999 V2000
   -1.7090   24.8870  -28.1610 C   0  0  0  0  0  0  0  0  0  0  0  0
   -2.4360   25.2540  -29.3300 O   0  0  0  0  0  0  0  0  0  0  0  0
   -3.5600   24.5670  -29.8110 C   0  0  0  0  0  0  0  0  0  0  0  0
   -3.6360   23.1610  -29.8310 C   0  0  0  0  0  0  0  0  0  0  0  0
   -4.7770   22.5240  -30.3240 C   0  0  0  0  0  0  0  0  0  0  0  0
   -5.8510   23.2770  -30.8230 C   0  0  0  0  0  0  0  0  0  0  0  0
   -7.2970   22.4710  -31.4390 S   0  0  0  0  0  0  0  0  0  0  0  0
   -7.9370   21.6990  -30.3180 O   0  0  0  0  0  0  0  0  0  0  0  0
   -8.2720   23.5300  -31.8730 O   0  0  0  0  0  0  0  0  0  0  0  0
   -6.9980   21.3910  -32.7920 N   0  0  1  0  0  0  0  0  0  0  0  0
   -5.5600   21.0280  -32.9320 C   0  0  0  0  0  0  0  0  0  0  0  0
   -5.2180   19.5390  -32.6710 C   0  0  2  0  0  0  0  0  0  0  0  0
   -5.1940   18.7040  -33.9630 C   0  0  0  0  0  0  0  0  0  0  0  0
   -6.1140   18.9210  -31.5920 C   0  0  0  0  0  0  0  0  0  0  0  0
   -7.6250   19.1170  -31.8460 C   0  0  2  0  0  0  0  0  0  0  0  0
   -8.2880   17.8080  -32.3030 C   0  0  0  0  0  0  0  0  0  0  0  0
   -7.9450   20.2570  -32.8400 C   0  0  0  0  0  0  0  0  0  0  0  0
   -5.7870   24.6770  -30.7750 C   0  0  0  0  0  0  0  0  0  0  0  0
   -4.6460   25.3150  -30.2800 C   0  0  0  0  0  0  0  0  0  0  0  0
   -2.2815   25.1760  -27.2673 H   0  0  0  0  0  0  0  0  0  0  0  0
   -1.5468   23.7990  -28.1565 H   0  0  0  0  0  0  0  0  0  0  0  0
   -0.7373   25.4026  -28.1565 H   0  0  0  0  0  0  0  0  0  0  0  0
   -2.7930   22.5617  -29.4567 H   0  0  0  0  0  0  0  0  0  0  0  0
   -4.8342   21.4255  -30.3211 H   0  0  0  0  0  0  0  0  0  0  0  0
   -7.2330   21.9780  -33.6280 H   0  0  0  0  0  0  0  0  0  0  0  0
   -5.2473   21.2725  -33.9579 H   0  0  0  0  0  0  0  0  0  0  0  0
   -5.0280   21.5998  -32.1574 H   0  0  0  0  0  0  0  0  0  0  0  0
   -4.1917   19.5198  -32.2757 H   0  0  0  0  0  0  0  0  0  0  0  0
   -5.1633   17.6344  -33.7078 H   0  0  0  0  0  0  0  0  0  0  0  0
   -6.0986   18.9145  -34.5525 H   0  0  0  0  0  0  0  0  0  0  0  0
   -4.3030   18.9661  -34.5525 H   0  0  0  0  0  0  0  0  0  0  0  0
   -5.9075   17.8415  -31.5467 H   0  0  0  0  0  0  0  0  0  0  0  0
   -5.8793   19.4356  -30.6486 H   0  0  0  0  0  0  0  0  0  0  0  0
   -8.0494   19.4183  -30.8769 H   0  0  0  0  0  0  0  0  0  0  0  0
   -8.5855   17.2206  -31.4219 H   0  0  0  0  0  0  0  0  0  0  0  0
   -9.1777   18.0391  -32.9071 H   0  0  0  0  0  0  0  0  0  0  0  0
   -7.5753   17.2274  -32.9071 H   0  0  0  0  0  0  0  0  0  0  0  0
   -7.9317   19.8401  -33.8579 H   0  0  0  0  0  0  0  0  0  0  0  0
   -8.9291   20.6567  -32.5540 H   0  0  0  0  0  0  0  0  0  0  0  0
   -6.6390   25.2762  -31.1287 H   0  0  0  0  0  0  0  0  0  0  0  0
   -4.6013   26.4139  -30.2589 H   0  0  0  0  0  0  0  0  0  0  0  0
  1  2  1  0
  2  3  1  0
  3  4  2  0
  4  5  1  0
  5  6  2  0
  6  7  1  0
  7  8  2  0
  7  9  2  0
  7 10  1  0
 10 11  1  0
 11 12  1  0
 12 13  1  0
 12 14  1  0
 14 15  1  0
 15 16  1  0
 15 17  1  0
  6 18  1  0
 18 19  2  0
 19  3  1  0
 17 10  1  0
  1 20  1  0
  1 21  1  0
  1 22  1  0
  4 23  1  0
  5 24  1  0
 10 25  1  6
 11 26  1  0
 11 27  1  0
 12 28  1  1
 13 29  1  0
 13 30  1  0
 13 31  1  0
 14 32  1  0
 14 33  1  0
 15 34  1  1
 16 35  1  0
 16 36  1  0
 16 37  1  0
 17 38  1  0
 17 39  1  0
 18 40  1  0
 19 41  1  0
M  CHG  1  10   1
M  END
>  <UniqueID>  (1) 
1

>  <SMILES>  (1) 
COc1ccc(S(=O)(=O)[NH+]2C[C@H](C)C[C@H](C)C2)cc1

>  <Energy>  (1) 
48.510943251376794

>  <Genealogy>  (1) 
COc1ccc(S(=O)(=O)[NH+]2CC(C)CC(C)C2)cc1 (protonated)
COc1ccc(S(=O)(=O)[NH+]2C[C@H](C)C[C@H](C)C2)cc1 (chirality)
COc1ccc(S(=O)(=O)[NH+]2C[C@H](C)C[C@H](C)C2)cc1 (3D coordinates assigned)
COc1ccc(S(=O)(=O)[NH+]2C[C@H](C)C[C@H](C)C2)cc1 (nonaromatic ring conformer: 48.510943251376794 kcal/mol)

>  <smiles>  (1) 
COc1ccc(S(=O)(=O)N2CC(C)CC(C)C2)cc1

>  <score_type>  (1) 
oracle

>  <origin>  (1) 
adg

>  <m_score__min__energy>  (1) 
-7.6100000000000003

>  <m_primary>  (1) 
energy

$$$$
1:0
     RDKit          3D

 49 52  0  0  0  0  0  0  0  0999 V2000
   -5.7190   17.0810  -34.5680 C   0  0  0  0  0  0  0  0  0  0  0  0
   -6.7780   17.3850  -33.5150 C   0  0  0  0  0  0  0  0  0  0  0  0
   -6.6700   18.7740  -33.0710 N   0  0  0  0  0  0  0  0  0  0  0  0
   -5.5460   19.5280  -33.0930 C   0  0  0  0  0  0  0  0  0  0  0  0
   -5.8240   20.8290  -32.6770 C   0  0  0  0  0  0  0  0  0  0  0  0
   -4.8760   21.9640  -32.6430 C   0  0  0  0  0  0  0  0  0  0  0  0
   -3.9780   22.0390  -33.5260 O   0  0  0  0  0  0  0  0  0  0  0  0
   -4.9200   22.9890  -31.5740 C   0  0  0  0  0  0  0  0  0  0  0  0
   -5.8530   24.0380  -31.6070 C   0  0  0  0  0  0  0  0  0  0  0  0
   -5.8820   24.9610  -30.6110 N   0  0  0  0  0  0  0  0  0  0  0  0
   -5.0100   24.9210  -29.5700 C   0  0  0  0  0  0  0  0  0  0  0  0
   -4.0300   23.9180  -29.5050 C   0  0  0  0  0  0  0  0  0  0  0  0
   -3.1090   23.8270  -28.4060 N   0  0  0  0  0  0  0  0  0  0  0  0
   -1.9460   24.6550  -28.2530 C   0  0  0  0  0  0  0  0  0  0  0  0
   -1.5300   25.3620  -29.2100 O   0  0  0  0  0  0  0  0  0  0  0  0
   -1.1580   24.6100  -26.9790 C   0  0  0  0  0  0  0  0  0  0  0  0
   -1.0130   25.9930  -26.4080 C   0  0  0  0  0  0  0  0  0  0  0  0
   -1.3020   26.2350  -25.0540 C   0  0  0  0  0  0  0  0  0  0  0  0
   -1.1370   27.5150  -24.5170 C   0  0  0  0  0  0  0  0  0  0  0  0
   -0.6730   28.5590  -25.3230 C   0  0  0  0  0  0  0  0  0  0  0  0
   -0.5100   29.7990  -24.7980 F   0  0  0  0  0  0  0  0  0  0  0  0
   -0.3710   28.3230  -26.6680 C   0  0  0  0  0  0  0  0  0  0  0  0
    0.0860   29.3320  -27.4510 F   0  0  0  0  0  0  0  0  0  0  0  0
   -0.5360   27.0440  -27.2080 C   0  0  0  0  0  0  0  0  0  0  0  0
   -4.0010   22.9450  -30.5140 C   0  0  0  0  0  0  0  0  0  0  0  0
   -7.1850   20.8520  -32.4160 C   0  0  0  0  0  0  0  0  0  0  0  0
   -8.0300   21.8750  -31.9850 C   0  0  0  0  0  0  0  0  0  0  0  0
   -9.3920   21.5640  -31.8280 C   0  0  0  0  0  0  0  0  0  0  0  0
   -9.8500   20.3010  -32.0950 N   0  0  0  0  0  0  0  0  0  0  0  0
   -9.0200   19.3020  -32.5140 C   0  0  0  0  0  0  0  0  0  0  0  0
   -7.6640   19.5920  -32.6660 C   0  0  0  0  0  0  0  0  0  0  0  0
   -4.7755   16.8101  -34.0716 H   0  0  0  0  0  0  0  0  0  0  0  0
   -6.0564   16.2434  -35.1962 H   0  0  0  0  0  0  0  0  0  0  0  0
   -5.5608   17.9700  -35.1962 H   0  0  0  0  0  0  0  0  0  0  0  0
   -7.7763   17.2187  -33.9461 H   0  0  0  0  0  0  0  0  0  0  0  0
   -6.6242   16.7210  -32.6516 H   0  0  0  0  0  0  0  0  0  0  0  0
   -4.5529   19.1651  -33.3965 H   0  0  0  0  0  0  0  0  0  0  0  0
   -6.5636   24.1125  -32.4433 H   0  0  0  0  0  0  0  0  0  0  0  0
   -5.0722   25.6780  -28.7744 H   0  0  0  0  0  0  0  0  0  0  0  0
   -3.2480   23.0550  -27.7150 H   0  0  0  0  0  0  0  0  0  0  0  0
   -1.6792   23.9698  -26.2520 H   0  0  0  0  0  0  0  0  0  0  0  0
   -0.1582   24.2026  -27.1900 H   0  0  0  0  0  0  0  0  0  0  0  0
   -1.6593   25.4143  -24.4146 H   0  0  0  0  0  0  0  0  0  0  0  0
   -1.3726   27.7012  -23.4588 H   0  0  0  0  0  0  0  0  0  0  0  0
   -0.2910   26.8601  -28.2645 H   0  0  0  0  0  0  0  0  0  0  0  0
   -3.2519   22.1405  -30.4746 H   0  0  0  0  0  0  0  0  0  0  0  0
   -7.6460   22.8845  -31.7764 H   0  0  0  0  0  0  0  0  0  0  0  0
  -10.0942   22.3397  -31.4886 H   0  0  0  0  0  0  0  0  0  0  0  0
   -9.4097   18.2954  -32.7261 H   0  0  0  0  0  0  0  0  0  0  0  0
  1  2  1  0
  2  3  1  0
  3  4  1  0
  4  5  2  0
  5  6  1  0
  6  7  2  0
  6  8  1  0
  8  9  2  0
  9 10  1  0
 10 11  2  0
 11 12  1  0
 12 13  1  0
 13 14  1  0
 14 15  2  0
 14 16  1  0
 16 17  1  0
 17 18  2  0
 18 19  1  0
 19 20  2  0
 20 21  1  0
 20 22  1  0
 22 23  1  0
 22 24  2  0
 12 25  2  0
  5 26  1  0
 26 27  2  0
 27 28  1  0
 28 29  2  0
 29 30  1  0
 30 31  2  0
 31  3  1  0
 25  8  1  0
 31 26  1  0
 24 17  1  0
  1 32  1  0
  1 33  1  0
  1 34  1  0
  2 35  1  0
  2 36  1  0
  4 37  1  0
  9 38  1  0
 11 39  1  0
 13 40  1  0
 16 41  1  0
 16 42  1  0
 18 43  1  0
 19 44  1  0
 24 45  1  0
 25 46  1  0
 27 47  1  0
 28 48  1  0
 30 49  1  0
M  END
>  <UniqueID>  (2) 
2

>  <SMILES>  (2) 
CCn1cc(C(=O)c2cncc(NC(=O)Cc3ccc(F)c(F)c3)c2)c2ccncc21

>  <Energy>  (2) 
92.80290750850413

>  <Genealogy>  (2) 
CCn1cc(C(=O)c2cncc(NC(=O)Cc3ccc(F)c(F)c3)c2)c2ccncc21 (3D coordinates assigned)
CCn1cc(C(=O)c2cncc(NC(=O)Cc3ccc(F)c(F)c3)c2)c2ccncc21 (optimized conformer: 92.80290750850413 kcal/mol)

>  <smiles>  (2) 
CCn1cc(C(=O)c2cncc(NC(=O)Cc3ccc(F)c(F)c3)c2)c2ccncc21

>  <score_type>  (2) 
oracle

>  <origin>  (2) 
adg

>  <m_score__min__energy>  (2) 
-9.3900000000000006

>  <m_primary>  (2) 
energy

$$$$
2:0
     RDKit          3D

 35 36  0  0  0  0  0  0  0  0999 V2000
   -6.0060   25.2550  -29.5740 C   0  0  0  0  0  0  0  0  0  0  0  0
   -4.8900   24.2810  -29.2990 C   0  0  0  0  0  0  0  0  0  0  0  0
   -4.2340   24.3350  -28.0570 C   0  0  0  0  0  0  0  0  0  0  0  0
   -3.1670   23.4770  -27.7790 C   0  0  0  0  0  0  0  0  0  0  0  0
   -2.7410   22.5580  -28.7370 C   0  0  0  0  0  0  0  0  0  0  0  0
   -3.3900   22.4780  -29.9700 C   0  0  0  0  0  0  0  0  0  0  0  0
   -4.4840   23.3140  -30.2570 C   0  0  0  0  0  0  0  0  0  0  0  0
   -5.1650   23.1580  -31.5620 C   0  0  0  0  0  0  0  0  0  0  0  0
   -5.3710   24.1810  -32.2690 O   0  0  0  0  0  0  0  0  0  0  0  0
   -5.6080   21.8360  -32.0630 C   0  0  0  0  0  0  0  0  0  0  0  0
   -4.6560   20.9910  -32.6570 C   0  0  0  0  0  0  0  0  0  0  0  0
   -5.0320   19.7520  -33.1760 C   0  0  0  0  0  0  0  0  0  0  0  0
   -3.8350   18.7170  -33.9330 Cl  0  0  0  0  0  0  0  0  0  0  0  0
   -6.3610   19.3340  -33.0940 C   0  0  0  0  0  0  0  0  0  0  0  0
   -7.3200   20.1480  -32.4850 C   0  0  0  0  0  0  0  0  0  0  0  0
   -9.1110   19.4830  -32.3340 Br  0  0  0  0  0  0  0  0  0  0  0  0
   -6.9540   21.4060  -31.9640 C   0  0  0  0  0  0  0  0  0  0  0  0
   -7.9290   22.2040  -31.2710 N   0  0  0  0  0  0  0  0  0  0  0  0
   -9.0560   22.7930  -31.9930 C   0  0  0  0  0  0  0  0  0  0  0  0
   -7.8710   22.2910  -29.8120 C   0  0  0  0  0  0  0  0  0  0  0  0
   -6.4202   25.6165  -28.6213 H   0  0  0  0  0  0  0  0  0  0  0  0
   -5.6157   26.1065  -30.1508 H   0  0  0  0  0  0  0  0  0  0  0  0
   -6.7969   24.7531  -30.1508 H   0  0  0  0  0  0  0  0  0  0  0  0
   -4.5636   25.0591  -27.2973 H   0  0  0  0  0  0  0  0  0  0  0  0
   -2.6623   23.5266  -26.8029 H   0  0  0  0  0  0  0  0  0  0  0  0
   -1.8910   21.8942  -28.5205 H   0  0  0  0  0  0  0  0  0  0  0  0
   -3.0431   21.7554  -30.7233 H   0  0  0  0  0  0  0  0  0  0  0  0
   -3.6045   21.3092  -32.7134 H   0  0  0  0  0  0  0  0  0  0  0  0
   -6.6550   18.3593  -33.5106 H   0  0  0  0  0  0  0  0  0  0  0  0
   -9.7924   23.1779  -31.2722 H   0  0  0  0  0  0  0  0  0  0  0  0
   -8.6957   23.6181  -32.6250 H   0  0  0  0  0  0  0  0  0  0  0  0
   -9.5277   22.0261  -32.6250 H   0  0  0  0  0  0  0  0  0  0  0  0
   -8.4303   21.4521  -29.3721 H   0  0  0  0  0  0  0  0  0  0  0  0
   -6.8223   22.2450  -29.4833 H   0  0  0  0  0  0  0  0  0  0  0  0
   -8.3169   23.2414  -29.4833 H   0  0  0  0  0  0  0  0  0  0  0  0
  1  2  1  0
  2  3  2  0
  3  4  1  0
  4  5  2  0
  5  6  1  0
  6  7  2  0
  7  8  1  0
  8  9  2  0
  8 10  1  0
 10 11  2  0
 11 12  1  0
 12 13  1  0
 12 14  2  0
 14 15  1  0
 15 16  1  0
 15 17  2  0
 17 18  1  0
 18 19  1  0
 18 20  1  0
  7  2  1  0
 17 10  1  0
  1 21  1  0
  1 22  1  0
  1 23  1  0
  3 24  1  0
  4 25  1  0
  5 26  1  0
  6 27  1  0
 11 28  1  0
 14 29  1  0
 19 30  1  0
 19 31  1  0
 19 32  1  0
 20 33  1  0
 20 34  1  0
 20 35  1  0
M  END
>  <UniqueID>  (3) 
3

>  <SMILES>  (3) 
Cc1ccccc1C(=O)c1cc(Cl)cc(Br)c1N(C)C

>  <Energy>  (3) 
47.58472273457691

>  <Genealogy>  (3) 
Cc1ccccc1C(=O)c1cc(Cl)cc(Br)c1N(C)C (3D coordinates assigned)
Cc1ccccc1C(=O)c1cc(Cl)cc(Br)c1N(C)C (optimized conformer: 47.58472273457691 kcal/mol)

>  <smiles>  (3) 
Cc1ccccc1C(=O)c1cc(Cl)cc(Br)c1N(C)C

>  <score_type>  (3) 
oracle

>  <origin>  (3) 
adg

>  <m_score__min__energy>  (3) 
-7.8799999999999999

>  <m_primary>  (3) 
energy

$$$$
3:0
     RDKit          3D

 42 43  0  0  0  0  0  0  0  0999 V2000
   -6.4240   17.4760  -31.2180 C   0  0  0  0  0  0  0  0  0  0  0  0
   -7.4930   17.9130  -32.2330 C   0  0  0  0  0  0  0  0  0  0  0  0
   -7.4610   19.3580  -32.5610 N   0  0  0  0  0  0  0  0  0  0  0  0
   -6.6100   19.6700  -33.7280 C   0  0  0  0  0  0  0  0  0  0  0  0
   -6.0600   18.3890  -34.3510 C   0  0  0  0  0  0  0  0  0  0  0  0
   -8.8130   19.9630  -32.6370 C   0  0  0  0  0  0  0  0  0  0  0  0
   -8.8090   21.3380  -31.9640 C   0  0  0  0  0  0  0  0  0  0  0  0
   -7.4610   21.6910  -31.5230 N   0  0  0  0  0  0  0  0  0  0  0  0
   -6.8600   22.9590  -31.8250 C   0  0  0  0  0  0  0  0  0  0  0  0
   -7.4840   23.8000  -32.5270 O   0  0  0  0  0  0  0  0  0  0  0  0
   -5.4970   23.2750  -31.3570 C   0  0  0  0  0  0  0  0  0  0  0  0
   -5.0640   24.4600  -30.7570 C   0  0  0  0  0  0  0  0  0  0  0  0
   -5.9060   25.6570  -30.4520 C   0  0  0  0  0  0  0  0  0  0  0  0
   -3.7750   24.3950  -30.4820 O   0  0  0  0  0  0  0  0  0  0  0  0
   -3.3450   23.2180  -30.8690 C   0  0  0  0  0  0  0  0  0  0  0  0
   -2.0520   22.7150  -30.7560 C   0  0  0  0  0  0  0  0  0  0  0  0
   -1.8140   21.4040  -31.2060 C   0  0  0  0  0  0  0  0  0  0  0  0
   -2.8670   20.6300  -31.7430 C   0  0  0  0  0  0  0  0  0  0  0  0
   -2.6290   19.3600  -32.1520 F   0  0  0  0  0  0  0  0  0  0  0  0
   -4.1650   21.1660  -31.8450 C   0  0  0  0  0  0  0  0  0  0  0  0
   -4.3650   22.4810  -31.4150 C   0  0  0  0  0  0  0  0  0  0  0  0
   -6.8028   17.6309  -30.1970 H   0  0  0  0  0  0  0  0  0  0  0  0
   -6.1921   16.4109  -31.3654 H   0  0  0  0  0  0  0  0  0  0  0  0
   -5.5123   18.0736  -31.3654 H   0  0  0  0  0  0  0  0  0  0  0  0
   -7.3401   17.3444  -33.1621 H   0  0  0  0  0  0  0  0  0  0  0  0
   -8.4706   17.7145  -31.7694 H   0  0  0  0  0  0  0  0  0  0  0  0
   -7.2082   20.2085  -34.4778 H   0  0  0  0  0  0  0  0  0  0  0  0
   -5.7664   20.2925  -33.3950 H   0  0  0  0  0  0  0  0  0  0  0  0
   -5.7610   17.6926  -33.5538 H   0  0  0  0  0  0  0  0  0  0  0  0
   -6.8367   17.9215  -34.9740 H   0  0  0  0  0  0  0  0  0  0  0  0
   -5.1861   18.6301  -34.9740 H   0  0  0  0  0  0  0  0  0  0  0  0
   -9.1036   20.0745  -33.6921 H   0  0  0  0  0  0  0  0  0  0  0  0
   -9.5310   19.3095  -32.1198 H   0  0  0  0  0  0  0  0  0  0  0  0
   -9.1639   22.0926  -32.6814 H   0  0  0  0  0  0  0  0  0  0  0  0
   -9.4719   21.3054  -31.0868 H   0  0  0  0  0  0  0  0  0  0  0  0
   -6.8770   20.9380  -31.0970 H   0  0  0  0  0  0  0  0  0  0  0  0
   -5.9908   25.7775  -29.3619 H   0  0  0  0  0  0  0  0  0  0  0  0
   -5.4388   26.5539  -30.8848 H   0  0  0  0  0  0  0  0  0  0  0  0
   -6.9080   25.5204  -30.8848 H   0  0  0  0  0  0  0  0  0  0  0  0
   -1.2418   23.3238  -30.3282 H   0  0  0  0  0  0  0  0  0  0  0  0
   -0.8018   20.9786  -31.1395 H   0  0  0  0  0  0  0  0  0  0  0  0
   -4.9953   20.5690  -32.2502 H   0  0  0  0  0  0  0  0  0  0  0  0
  1  2  1  0
  2  3  1  0
  3  4  1  0
  4  5  1  0
  3  6  1  0
  6  7  1  0
  7  8  1  0
  8  9  1  0
  9 10  2  0
  9 11  1  0
 11 12  2  0
 12 13  1  0
 12 14  1  0
 14 15  1  0
 15 16  2  0
 16 17  1  0
 17 18  2  0
 18 19  1  0
 18 20  1  0
 20 21  2  0
 21 11  1  0
 21 15  1  0
  1 22  1  0
  1 23  1  0
  1 24  1  0
  2 25  1  0
  2 26  1  0
  4 27  1  0
  4 28  1  0
  5 29  1  0
  5 30  1  0
  5 31  1  0
  6 32  1  0
  6 33  1  0
  7 34  1  0
  7 35  1  0
  8 36  1  0
 13 37  1  0
 13 38  1  0
 13 39  1  0
 16 40  1  0
 17 41  1  0
 20 42  1  0
M  END
>  <UniqueID>  (4) 
4

>  <SMILES>  (4) 
CCN(CC)CCNC(=O)c1c(C)oc2ccc(F)cc12

>  <Energy>  (4) 
74.23534030727444

>  <Genealogy>  (4) 
CCN(CC)CCNC(=O)c1c(C)oc2ccc(F)cc12 (3D coordinates assigned)
CCN(CC)CCNC(=O)c1c(C)oc2ccc(F)cc12 (optimized conformer: 74.23534030727444 kcal/mol)

>  <smiles>  (4) 
CCN(CC)CCNC(=O)c1c(C)oc2ccc(F)cc12

>  <score_type>  (4) 
oracle

>  <origin>  (4) 
adg

>  <m_score__min__energy>  (4) 
-6.71

>  <m_primary>  (4) 
energy

$$$$
5:0
     RDKit          3D

 44 46  0  0  0  0  0  0  0  0999 V2000
   -9.3340   18.3930  -31.8880 O   0  0  0  0  0  0  0  0  0  0  0  0
   -8.1440   18.6420  -32.2250 C   0  0  0  0  0  0  0  0  0  0  0  0
   -7.2340   17.5940  -32.3560 C   0  0  0  0  0  0  0  0  0  0  0  0
   -5.9200   17.8690  -32.7150 C   0  0  0  0  0  0  0  0  0  0  0  0
   -5.5300   19.1980  -32.9310 C   0  0  0  0  0  0  0  0  0  0  0  0
   -4.1400   19.5600  -33.3120 C   0  0  0  0  0  0  0  0  0  0  0  0
   -3.6710   20.8670  -33.0830 C   0  0  0  0  0  0  0  0  0  0  0  0
   -2.3640   21.2230  -33.4280 C   0  0  0  0  0  0  0  0  0  0  0  0
   -1.5070   20.2780  -33.9980 C   0  0  0  0  0  0  0  0  0  0  0  0
   -0.2390   20.6270  -34.3300 F   0  0  0  0  0  0  0  0  0  0  0  0
   -1.9550   18.9750  -34.2190 C   0  0  0  0  0  0  0  0  0  0  0  0
   -3.2610   18.6130  -33.8770 C   0  0  0  0  0  0  0  0  0  0  0  0
   -6.4650   20.1780  -32.7990 N   0  0  0  0  0  0  0  0  0  0  0  0
   -7.7340   19.9270  -32.4670 N   0  0  0  0  0  0  0  0  0  0  0  0
   -8.6490   21.0630  -32.3200 C   0  0  0  0  0  0  0  0  0  0  0  0
   -8.3820   21.7890  -30.9960 C   0  0  0  0  0  0  0  0  0  0  0  0
   -7.8760   23.2210  -31.2210 C   0  0  0  0  0  0  0  0  0  0  0  0
   -6.5840   23.4420  -30.5340 N   0  0  0  0  0  0  0  0  0  0  0  0
   -5.4520   23.1430  -31.4370 C   0  0  0  0  0  0  0  0  0  0  0  0
   -4.1420   23.7250  -30.8910 C   0  0  0  0  0  0  0  0  0  0  0  0
   -4.1940   25.1950  -30.7550 N   0  0  0  0  0  0  0  0  0  0  0  0
   -5.5600   25.7370  -30.6620 C   0  0  0  0  0  0  0  0  0  0  0  0
   -6.4980   24.7870  -29.9030 C   0  0  0  0  0  0  0  0  0  0  0  0
   -7.5538   16.5569  -32.1765 H   0  0  0  0  0  0  0  0  0  0  0  0
   -5.1928   17.0515  -32.8286 H   0  0  0  0  0  0  0  0  0  0  0  0
   -4.3382   21.6144  -32.6289 H   0  0  0  0  0  0  0  0  0  0  0  0
   -2.0095   22.2491  -33.2504 H   0  0  0  0  0  0  0  0  0  0  0  0
   -1.2783   18.2305  -34.6637 H   0  0  0  0  0  0  0  0  0  0  0  0
   -3.6054   17.5827  -34.0497 H   0  0  0  0  0  0  0  0  0  0  0  0
   -8.4971   21.7625  -33.1552 H   0  0  0  0  0  0  0  0  0  0  0  0
   -9.6849   20.6929  -32.3243 H   0  0  0  0  0  0  0  0  0  0  0  0
   -9.3166   21.8288  -30.4173 H   0  0  0  0  0  0  0  0  0  0  0  0
   -7.6032   21.2333  -30.4532 H   0  0  0  0  0  0  0  0  0  0  0  0
   -7.7431   23.3900  -32.2998 H   0  0  0  0  0  0  0  0  0  0  0  0
   -8.6162   23.9226  -30.8088 H   0  0  0  0  0  0  0  0  0  0  0  0
   -5.3479   22.0522  -31.5337 H   0  0  0  0  0  0  0  0  0  0  0  0
   -5.6561   23.6000  -32.4165 H   0  0  0  0  0  0  0  0  0  0  0  0
   -3.9448   23.2852  -29.9022 H   0  0  0  0  0  0  0  0  0  0  0  0
   -3.3424   23.4818  -31.6062 H   0  0  0  0  0  0  0  0  0  0  0  0
   -3.7340   25.6250  -31.5910 H   0  0  0  0  0  0  0  0  0  0  0  0
   -5.5256   26.7013  -30.1338 H   0  0  0  0  0  0  0  0  0  0  0  0
   -5.9500   25.8603  -31.6831 H   0  0  0  0  0  0  0  0  0  0  0  0
   -6.1247   24.6705  -28.8749 H   0  0  0  0  0  0  0  0  0  0  0  0
   -7.5053   25.2285  -29.9215 H   0  0  0  0  0  0  0  0  0  0  0  0
  1  2  2  0
  2  3  1  0
  3  4  2  0
  4  5  1  0
  5  6  1  0
  6  7  2  0
  7  8  1  0
  8  9  2  0
  9 10  1  0
  9 11  1  0
 11 12  2  0
  5 13  2  0
 13 14  1  0
 14 15  1  0
 15 16  1  0
 16 17  1  0
 17 18  1  0
 18 19  1  0
 19 20  1  0
 20 21  1  0
 21 22  1  0
 22 23  1  0
 14  2  1  0
 23 18  1  0
 12  6  1  0
  3 24  1  0
  4 25  1  0
  7 26  1  0
  8 27  1  0
 11 28  1  0
 12 29  1  0
 15 30  1  0
 15 31  1  0
 16 32  1  0
 16 33  1  0
 17 34  1  0
 17 35  1  0
 19 36  1  0
 19 37  1  0
 20 38  1  0
 20 39  1  0
 21 40  1  0
 22 41  1  0
 22 42  1  0
 23 43  1  0
 23 44  1  0
M  END
>  <UniqueID>  (5) 
5

>  <SMILES>  (5) 
O=c1ccc(-c2ccc(F)cc2)nn1CCCN1CCNCC1

>  <Energy>  (5) 
57.42491592054203

>  <Genealogy>  (5) 
O=c1ccc(-c2ccc(F)cc2)nn1CCCN1CCNCC1 (3D coordinates assigned)
O=c1ccc(-c2ccc(F)cc2)nn1CCCN1CCNCC1 (nonaromatic ring conformer: 57.42491592054203 kcal/mol)

>  <smiles>  (5) 
O=c1ccc(-c2ccc(F)cc2)nn1CCCN1CCNCC1

>  <score_type>  (5) 
oracle

>  <origin>  (5) 
adg

>  <m_score__min__energy>  (5) 
-9.0099999999999998

>  <m_primary>  (5) 
energy

$$$$
6:0
     RDKit          3D

 44 46  0  0  0  0  0  0  0  0999 V2000
   -8.8700   19.5320  -32.7150 C   0  0  0  0  0  0  0  0  0  0  0  0
   -7.4320   19.8830  -32.6870 N   0  0  0  0  0  0  0  0  0  0  0  0
   -6.4980   19.0190  -33.2280 C   0  0  0  0  0  0  0  0  0  0  0  0
   -6.8220   17.6760  -33.5460 C   0  0  0  0  0  0  0  0  0  0  0  0
   -5.8770   16.8230  -34.1170 C   0  0  0  0  0  0  0  0  0  0  0  0
   -4.5870   17.2750  -34.3670 C   0  0  0  0  0  0  0  0  0  0  0  0
   -4.2270   18.5780  -34.0320 C   0  0  0  0  0  0  0  0  0  0  0  0
   -5.1670   19.4610  -33.4570 C   0  0  0  0  0  0  0  0  0  0  0  0
   -4.7930   20.7620  -33.0760 C   0  0  0  0  0  0  0  0  0  0  0  0
   -3.4690   21.2450  -33.3620 N   0  0  0  0  0  0  0  0  0  0  0  0
   -2.3480   20.9390  -32.4770 C   0  0  0  0  0  0  0  0  0  0  0  0
   -1.0210   21.3410  -33.1440 C   0  0  0  0  0  0  0  0  0  0  0  0
   -0.9140   20.8500  -34.5380 N   0  0  0  0  0  0  0  0  0  0  0  0
   -0.8280   19.3780  -34.5940 C   0  0  0  0  0  0  0  0  0  0  0  0
    0.2740   21.4370  -35.1840 C   0  0  0  0  0  0  0  0  0  0  0  0
   -5.7030   21.5600  -32.3610 C   0  0  0  0  0  0  0  0  0  0  0  0
   -5.3260   22.8280  -31.8670 C   0  0  0  0  0  0  0  0  0  0  0  0
   -6.2170   23.5990  -31.1230 C   0  0  0  0  0  0  0  0  0  0  0  0
   -5.6800   25.3070  -30.4580 Br  0  0  0  0  0  0  0  0  0  0  0  0
   -7.4910   23.1150  -30.8490 C   0  0  0  0  0  0  0  0  0  0  0  0
   -7.8940   21.8750  -31.3420 C   0  0  0  0  0  0  0  0  0  0  0  0
   -7.0250   21.0870  -32.1400 C   0  0  0  0  0  0  0  0  0  0  0  0
   -9.2452   19.4404  -31.6850 H   0  0  0  0  0  0  0  0  0  0  0  0
   -9.4296   20.3199  -33.2404 H   0  0  0  0  0  0  0  0  0  0  0  0
   -9.0036   18.5749  -33.2404 H   0  0  0  0  0  0  0  0  0  0  0  0
   -7.8350   17.3003  -33.3392 H   0  0  0  0  0  0  0  0  0  0  0  0
   -6.1541   15.7890  -34.3702 H   0  0  0  0  0  0  0  0  0  0  0  0
   -3.8494   16.6030  -34.8300 H   0  0  0  0  0  0  0  0  0  0  0  0
   -3.1991   18.9231  -34.2174 H   0  0  0  0  0  0  0  0  0  0  0  0
   -3.2540   21.5880  -34.3260 H   0  0  0  0  0  0  0  0  0  0  0  0
   -2.4652   21.4961  -31.5358 H   0  0  0  0  0  0  0  0  0  0  0  0
   -2.3352   19.8580  -32.2738 H   0  0  0  0  0  0  0  0  0  0  0  0
   -0.9477   22.4385  -33.1501 H   0  0  0  0  0  0  0  0  0  0  0  0
   -0.2047   20.8840  -32.5655 H   0  0  0  0  0  0  0  0  0  0  0  0
   -1.7550   21.1560  -35.0820 H   0  0  0  0  0  0  0  0  0  0  0  0
   -0.8043   18.9729  -33.5716 H   0  0  0  0  0  0  0  0  0  0  0  0
   -1.7044   18.9795  -35.1261 H   0  0  0  0  0  0  0  0  0  0  0  0
    0.0888   19.0843  -35.1261 H   0  0  0  0  0  0  0  0  0  0  0  0
    0.9769   21.7843  -34.4125 H   0  0  0  0  0  0  0  0  0  0  0  0
    0.7636   20.6771  -35.8108 H   0  0  0  0  0  0  0  0  0  0  0  0
   -0.0321   22.2876  -35.8108 H   0  0  0  0  0  0  0  0  0  0  0  0
   -4.3159   23.2121  -32.0721 H   0  0  0  0  0  0  0  0  0  0  0  0
   -8.1846   23.7135  -30.2401 H   0  0  0  0  0  0  0  0  0  0  0  0
   -8.9020   21.5014  -31.1086 H   0  0  0  0  0  0  0  0  0  0  0  0
  1  2  1  0
  2  3  2  0
  3  4  1  0
  4  5  2  0
  5  6  1  0
  6  7  2  0
  7  8  1  0
  8  9  2  0
  9 10  1  0
 10 11  1  0
 11 12  1  0
 12 13  1  0
 13 14  1  0
 13 15  1  0
  9 16  1  0
 16 17  2  0
 17 18  1  0
 18 19  1  0
 18 20  2  0
 20 21  1  0
 21 22  2  0
 22  2  1  0
  8  3  1  0
 22 16  1  0
  1 23  1  0
  1 24  1  0
  1 25  1  0
  4 26  1  0
  5 27  1  0
  6 28  1  0
  7 29  1  0
 10 30  1  0
 11 31  1  0
 11 32  1  0
 12 33  1  0
 12 34  1  0
 13 35  1  0
 14 36  1  0
 14 37  1  0
 14 38  1  0
 15 39  1  0
 15 40  1  0
 15 41  1  0
 17 42  1  0
 20 43  1  0
 21 44  1  0
M  CHG  2   2   1  13   1
M  END
>  <UniqueID>  (6) 
6

>  <SMILES>  (6) 
C[n+]1c2ccccc2c(NCC[NH+](C)C)c2cc(Br)ccc21

>  <Energy>  (6) 
70.49748006325297

>  <Genealogy>  (6) 
C[n+]1c2ccccc2c(NCC[NH+](C)C)c2cc(Br)ccc21 (protonated)
C[n+]1c2ccccc2c(NCC[NH+](C)C)c2cc(Br)ccc21 (3D coordinates assigned)
C[n+]1c2ccccc2c(NCC[NH+](C)C)c2cc(Br)ccc21 (optimized conformer: 70.49748006325297 kcal/mol)

>  <smiles>  (6) 
CN(C)CCNc1c2ccccc2[n+](C)c2ccc(Br)cc12

>  <score_type>  (6) 
oracle

>  <origin>  (6) 
adg

>  <m_score__min__energy>  (6) 
-7.75

>  <m_primary>  (6) 
energy

$$$$
7:0
     RDKit          3D

 43 45  0  0  0  0  0  0  0  0999 V2000
   -4.0600   24.5490  -27.0510 C   0  0  0  0  0  0  0  0  0  0  0  0
   -2.6860   24.2180  -27.5590 C   0  0  0  0  0  0  0  0  0  0  0  0
   -1.7790   23.5270  -26.7370 C   0  0  0  0  0  0  0  0  0  0  0  0
   -0.5100   23.1840  -27.2150 C   0  0  0  0  0  0  0  0  0  0  0  0
   -0.1330   23.5390  -28.5100 C   0  0  0  0  0  0  0  0  0  0  0  0
   -1.0280   24.2200  -29.3400 C   0  0  0  0  0  0  0  0  0  0  0  0
   -2.3160   24.5410  -28.8820 C   0  0  0  0  0  0  0  0  0  0  0  0
   -3.2240   25.2730  -29.7180 N   0  0  0  0  0  0  0  0  0  0  0  0
   -4.2930   24.7190  -30.4950 C   0  0  0  0  0  0  0  0  0  0  0  0
   -4.0520   23.7170  -31.2200 O   0  0  0  0  0  0  0  0  0  0  0  0
   -5.6540   25.3770  -30.5690 C   0  0  0  0  0  0  0  0  0  0  0  0
   -6.7790   24.4740  -30.0250 C   0  0  0  0  0  0  0  0  0  0  0  0
   -7.1380   23.3640  -30.9670 C   0  0  0  0  0  0  0  0  0  0  0  0
   -6.3420   22.3150  -31.2340 N   0  0  0  0  0  0  0  0  0  0  0  0
   -7.0900   21.5840  -32.0850 C   0  0  0  0  0  0  0  0  0  0  0  0
   -6.7080   20.2560  -32.6230 C   0  0  0  0  0  0  0  0  0  0  0  0
   -5.4280   20.1370  -33.1960 C   0  0  0  0  0  0  0  0  0  0  0  0
   -5.0160   18.9370  -33.7770 C   0  0  0  0  0  0  0  0  0  0  0  0
   -5.8740   17.8360  -33.7940 C   0  0  0  0  0  0  0  0  0  0  0  0
   -7.1420   17.9270  -33.2200 C   0  0  0  0  0  0  0  0  0  0  0  0
   -7.5710   19.1190  -32.5920 C   0  0  0  0  0  0  0  0  0  0  0  0
   -8.9410   19.1330  -31.9350 C   0  0  0  0  0  0  0  0  0  0  0  0
   -9.3620   17.8450  -31.6580 F   0  0  0  0  0  0  0  0  0  0  0  0
   -9.8570   19.7170  -32.7880 F   0  0  0  0  0  0  0  0  0  0  0  0
   -8.9180   19.8280  -30.7360 F   0  0  0  0  0  0  0  0  0  0  0  0
   -8.2950   22.1520  -32.2970 N   0  0  0  0  0  0  0  0  0  0  0  0
   -8.2840   23.2480  -31.5950 O   0  0  0  0  0  0  0  0  0  0  0  0
   -4.0544   24.5477  -25.9510 H   0  0  0  0  0  0  0  0  0  0  0  0
   -4.3556   25.5441  -27.4150 H   0  0  0  0  0  0  0  0  0  0  0  0
   -4.7763   23.7977  -27.4150 H   0  0  0  0  0  0  0  0  0  0  0  0
   -2.0690   23.2543  -25.7115 H   0  0  0  0  0  0  0  0  0  0  0  0
    0.1907   22.6342  -26.5695 H   0  0  0  0  0  0  0  0  0  0  0  0
    0.8710   23.2825  -28.8790 H   0  0  0  0  0  0  0  0  0  0  0  0
   -0.7218   24.5059  -30.3571 H   0  0  0  0  0  0  0  0  0  0  0  0
   -5.6296   26.3044  -29.9779 H   0  0  0  0  0  0  0  0  0  0  0  0
   -5.8703   25.5772  -31.6288 H   0  0  0  0  0  0  0  0  0  0  0  0
   -6.4474   24.0339  -29.0730 H   0  0  0  0  0  0  0  0  0  0  0  0
   -7.6735   25.1007  -29.8944 H   0  0  0  0  0  0  0  0  0  0  0  0
   -5.4110   22.0940  -30.8220 H   0  0  0  0  0  0  0  0  0  0  0  0
   -4.7450   20.9992  -33.1857 H   0  0  0  0  0  0  0  0  0  0  0  0
   -4.0133   18.8585  -34.2224 H   0  0  0  0  0  0  0  0  0  0  0  0
   -5.5494   16.8945  -34.2611 H   0  0  0  0  0  0  0  0  0  0  0  0
   -7.8175   17.0596  -33.2564 H   0  0  0  0  0  0  0  0  0  0  0  0
  1  2  1  0
  2  3  2  0
  3  4  1  0
  4  5  2  0
  5  6  1  0
  6  7  2  0
  7  8  1  0
  8  9  1  0
  9 10  2  0
  9 11  1  0
 11 12  1  0
 12 13  1  0
 13 14  2  0
 14 15  1  0
 15 16  1  0
 16 17  2  0
 17 18  1  0
 18 19  2  0
 19 20  1  0
 20 21  2  0
 21 22  1  0
 22 23  1  0
 22 24  1  0
 22 25  1  0
 15 26  2  0
 26 27  1  0
  7  2  1  0
 27 13  1  0
 21 16  1  0
  1 28  1  0
  1 29  1  0
  1 30  1  0
  3 31  1  0
  4 32  1  0
  5 33  1  0
  6 34  1  0
 11 35  1  0
 11 36  1  0
 12 37  1  0
 12 38  1  0
 14 39  1  0
 17 40  1  0
 18 41  1  0
 19 42  1  0
 20 43  1  0
M  CHG  2   8  -1  14   1
M  END
>  <UniqueID>  (7) 
7

>  <SMILES>  (7) 
Cc1ccccc1[N-]C(=O)CCc1[nH+]c(-c2ccccc2C(F)(F)F)no1

>  <Energy>  (7) 
91.8603709112663

>  <Genealogy>  (7) 
Cc1ccccc1[N-]C(=O)CCc1[nH+]c(-c2ccccc2C(F)(F)F)no1 (protonated)
Cc1ccccc1[N-]C(=O)CCc1[nH+]c(-c2ccccc2C(F)(F)F)no1 (3D coordinates assigned)
Cc1ccccc1[N-]C(=O)CCc1[nH+]c(-c2ccccc2C(F)(F)F)no1 (optimized conformer: 91.8603709112663 kcal/mol)

>  <smiles>  (7) 
Cc1ccccc1NC(=O)CCc1nc(-c2ccccc2C(F)(F)F)no1

>  <score_type>  (7) 
oracle

>  <origin>  (7) 
adg

>  <m_score__min__energy>  (7) 
-9.8200000000000003

>  <m_primary>  (7) 
energy

$$$$
8:0
     RDKit          3D

 53 56  0  0  0  0  0  0  0  0999 V2000
   -1.4700   21.1010  -29.9850 C   0  0  0  0  0  0  0  0  0  0  0  0
   -2.0980   22.1300  -29.9930 C   0  0  0  0  0  0  0  0  0  0  0  0
   -2.8600   23.3830  -29.9970 C   0  0  0  0  0  0  0  0  0  0  0  0
   -4.1350   23.1870  -30.6750 N   0  0  0  0  0  0  0  0  0  0  0  0
   -4.8160   22.0300  -30.7550 C   0  0  0  0  0  0  0  0  0  0  0  0
   -5.9980   22.2700  -31.4310 C   0  0  0  0  0  0  0  0  0  0  0  0
   -7.0490   21.2760  -31.7630 C   0  0  0  0  0  0  0  0  0  0  0  0
   -6.6670   19.9470  -32.0130 C   0  0  0  0  0  0  0  0  0  0  0  0
   -7.6230   18.9560  -32.2720 C   0  0  0  0  0  0  0  0  0  0  0  0
   -7.1850   17.5290  -32.4770 C   0  0  0  0  0  0  0  0  0  0  0  0
   -5.8550   17.5080  -33.1160 N   0  0  0  0  0  0  0  0  0  0  0  0
   -4.9990   16.4310  -32.5660 C   0  0  0  0  0  0  0  0  0  0  0  0
   -3.5780   16.5080  -33.1600 C   0  0  0  0  0  0  0  0  0  0  0  0
   -3.5270   17.5570  -34.1870 N   0  0  0  0  0  0  0  0  0  0  0  0
   -2.8790   18.8240  -33.9220 C   0  0  0  0  0  0  0  0  0  0  0  0
   -3.6210   19.9400  -33.6770 N   0  0  0  0  0  0  0  0  0  0  0  0
   -3.0320   21.1340  -33.4050 C   0  0  0  0  0  0  0  0  0  0  0  0
   -1.6430   21.2320  -33.3750 C   0  0  0  0  0  0  0  0  0  0  0  0
   -0.8930   20.0860  -33.6280 C   0  0  0  0  0  0  0  0  0  0  0  0
   -1.5200   18.9120  -33.8950 N   0  0  0  0  0  0  0  0  0  0  0  0
   -4.5500   17.4360  -35.2340 C   0  0  0  0  0  0  0  0  0  0  0  0
   -5.9530   17.4010  -34.5870 C   0  0  0  0  0  0  0  0  0  0  0  0
   -8.9760   19.3070  -32.3310 C   0  0  0  0  0  0  0  0  0  0  0  0
   -9.3720   20.6250  -32.1010 C   0  0  0  0  0  0  0  0  0  0  0  0
   -8.4190   21.6200  -31.7990 C   0  0  0  0  0  0  0  0  0  0  0  0
   -8.8070   22.9380  -31.5060 O   0  0  0  0  0  0  0  0  0  0  0  0
   -9.5020   23.7980  -32.4040 C   0  0  0  0  0  0  0  0  0  0  0  0
   -5.9600   23.6220  -31.7380 C   0  0  0  0  0  0  0  0  0  0  0  0
   -4.8200   24.1580  -31.2600 N   0  0  0  0  0  0  0  0  0  0  0  0
   -0.8970   20.1621  -29.9777 H   0  0  0  0  0  0  0  0  0  0  0  0
   -3.0436   23.7014  -28.9602 H   0  0  0  0  0  0  0  0  0  0  0  0
   -2.2834   24.1554  -30.5270 H   0  0  0  0  0  0  0  0  0  0  0  0
   -4.4890   21.0601  -30.3521 H   0  0  0  0  0  0  0  0  0  0  0  0
   -5.5998   19.6803  -32.0052 H   0  0  0  0  0  0  0  0  0  0  0  0
   -7.1321   17.0186  -31.5040 H   0  0  0  0  0  0  0  0  0  0  0  0
   -7.9099   17.0130  -33.1237 H   0  0  0  0  0  0  0  0  0  0  0  0
   -4.9399   16.5393  -31.4729 H   0  0  0  0  0  0  0  0  0  0  0  0
   -5.4405   15.4586  -32.8296 H   0  0  0  0  0  0  0  0  0  0  0  0
   -2.8598   16.7435  -32.3608 H   0  0  0  0  0  0  0  0  0  0  0  0
   -3.3202   15.5401  -33.6147 H   0  0  0  0  0  0  0  0  0  0  0  0
   -3.6512   22.0217  -33.2088 H   0  0  0  0  0  0  0  0  0  0  0  0
   -1.1504   22.1910  -33.1568 H   0  0  0  0  0  0  0  0  0  0  0  0
    0.2059   20.1322  -33.6115 H   0  0  0  0  0  0  0  0  0  0  0  0
   -4.4818   18.2982  -35.9137 H   0  0  0  0  0  0  0  0  0  0  0  0
   -4.3855   16.5070  -35.7996 H   0  0  0  0  0  0  0  0  0  0  0  0
   -6.5484   18.2424  -34.9710 H   0  0  0  0  0  0  0  0  0  0  0  0
   -6.4343   16.4448  -34.8399 H   0  0  0  0  0  0  0  0  0  0  0  0
   -9.7310   18.5404  -32.5597 H   0  0  0  0  0  0  0  0  0  0  0  0
  -10.4380   20.8907  -32.1557 H   0  0  0  0  0  0  0  0  0  0  0  0
  -10.0918   24.5279  -31.8301 H   0  0  0  0  0  0  0  0  0  0  0  0
   -8.7769   24.3296  -33.0377 H   0  0  0  0  0  0  0  0  0  0  0  0
  -10.1740   23.2006  -33.0377 H   0  0  0  0  0  0  0  0  0  0  0  0
   -6.7394   24.1713  -32.2865 H   0  0  0  0  0  0  0  0  0  0  0  0
  1  2  3  0
  2  3  1  0
  3  4  1  0
  4  5  1  0
  5  6  2  0
  6  7  1  0
  7  8  2  0
  8  9  1  0
  9 10  1  0
 10 11  1  0
 11 12  1  0
 12 13  1  0
 13 14  1  0
 14 15  1  0
 15 16  2  0
 16 17  1  0
 17 18  2  0
 18 19  1  0
 19 20  2  0
 14 21  1  0
 21 22  1  0
  9 23  2  0
 23 24  1  0
 24 25  2  0
 25 26  1  0
 26 27  1  0
  6 28  1  0
 28 29  2  0
 29  4  1  0
 25  7  1  0
 22 11  1  0
 20 15  1  0
  1 30  1  0
  3 31  1  0
  3 32  1  0
  5 33  1  0
  8 34  1  0
 10 35  1  0
 10 36  1  0
 12 37  1  0
 12 38  1  0
 13 39  1  0
 13 40  1  0
 17 41  1  0
 18 42  1  0
 19 43  1  0
 21 44  1  0
 21 45  1  0
 22 46  1  0
 22 47  1  0
 23 48  1  0
 24 49  1  0
 27 50  1  0
 27 51  1  0
 27 52  1  0
 28 53  1  0
M  END
>  <UniqueID>  (8) 
8

>  <SMILES>  (8) 
C#CCn1cc(-c2cc(CN3CCN(c4ncccn4)CC3)ccc2OC)cn1

>  <Energy>  (8) 
95.0648225949612

>  <Genealogy>  (8) 
C#CCn1cc(-c2cc(CN3CCN(c4ncccn4)CC3)ccc2OC)cn1 (3D coordinates assigned)
C#CCn1cc(-c2cc(CN3CCN(c4ncccn4)CC3)ccc2OC)cn1 (nonaromatic ring conformer: 95.0648225949612 kcal/mol)

>  <smiles>  (8) 
C#CCn1cc(-c2cc(CN3CCN(c4ncccn4)CC3)ccc2OC)cn1

>  <score_type>  (8) 
oracle

>  <origin>  (8) 
adg

>  <m_score__min__energy>  (8) 
-8.0800000000000001

>  <m_primary>  (8) 
energy

$$$$
9:0
     RDKit          3D

 42 44  0  0  0  0  0  0  0  0999 V2000
   -6.1170   25.6800  -29.4380 C   0  0  0  0  0  0  0  0  0  0  0  0
   -5.9250   24.4710  -30.3120 C   0  0  0  0  0  0  0  0  0  0  0  0
   -7.0230   23.6530  -30.6240 C   0  0  0  0  0  0  0  0  0  0  0  0
   -6.8580   22.5250  -31.4300 C   0  0  0  0  0  0  0  0  0  0  0  0
   -8.3600   21.4220  -31.8530 Br  0  0  0  0  0  0  0  0  0  0  0  0
   -5.5950   22.2060  -31.9350 C   0  0  0  0  0  0  0  0  0  0  0  0
   -4.4940   23.0070  -31.6250 C   0  0  0  0  0  0  0  0  0  0  0  0
   -4.6420   24.1320  -30.7920 C   0  0  0  0  0  0  0  0  0  0  0  0
   -3.5250   24.9790  -30.4720 N   0  0  0  0  0  0  0  0  0  0  0  0
   -2.7050   24.9100  -29.3000 C   0  0  0  0  0  0  0  0  0  0  0  0
   -1.6140   25.5370  -29.2410 O   0  0  0  0  0  0  0  0  0  0  0  0
   -3.1490   24.1130  -28.1960 N   0  0  0  0  0  0  0  0  0  0  0  0
   -2.4970   22.9550  -27.6500 C   0  0  0  0  0  0  0  0  0  0  0  0
   -2.9030   21.6510  -27.9880 C   0  0  0  0  0  0  0  0  0  0  0  0
   -2.2690   20.5440  -27.4180 C   0  0  0  0  0  0  0  0  0  0  0  0
   -1.2370   20.7260  -26.4950 C   0  0  0  0  0  0  0  0  0  0  0  0
   -0.8440   22.0150  -26.1320 C   0  0  0  0  0  0  0  0  0  0  0  0
   -1.4720   23.1310  -26.7010 C   0  0  0  0  0  0  0  0  0  0  0  0
   -1.0540   24.4450  -26.3080 N   0  0  0  0  0  0  0  0  0  0  0  0
   -2.0340   25.3570  -25.7190 C   0  0  0  0  0  0  0  0  0  0  0  0
   -1.3120   26.4140  -24.8780 C   0  0  0  0  0  0  0  0  0  0  0  0
   -0.2840   27.0370  -25.6270 O   0  0  0  0  0  0  0  0  0  0  0  0
    0.7210   26.0910  -25.9420 C   0  0  0  0  0  0  0  0  0  0  0  0
    0.1740   25.0050  -26.8740 C   0  0  0  0  0  0  0  0  0  0  0  0
   -6.0693   25.3796  -28.3809 H   0  0  0  0  0  0  0  0  0  0  0  0
   -5.3240   26.4132  -29.6470 H   0  0  0  0  0  0  0  0  0  0  0  0
   -7.0981   26.1314  -29.6470 H   0  0  0  0  0  0  0  0  0  0  0  0
   -8.0195   23.9026  -30.2308 H   0  0  0  0  0  0  0  0  0  0  0  0
   -5.4677   21.3225  -32.5778 H   0  0  0  0  0  0  0  0  0  0  0  0
   -3.5042   22.7571  -32.0346 H   0  0  0  0  0  0  0  0  0  0  0  0
   -3.7240   21.5022  -28.7049 H   0  0  0  0  0  0  0  0  0  0  0  0
   -2.5833   19.5274  -27.6968 H   0  0  0  0  0  0  0  0  0  0  0  0
   -0.7336   19.8530  -26.0539 H   0  0  0  0  0  0  0  0  0  0  0  0
   -0.0382   22.1554  -25.3965 H   0  0  0  0  0  0  0  0  0  0  0  0
   -2.6014   25.8521  -26.5208 H   0  0  0  0  0  0  0  0  0  0  0  0
   -2.7230   24.7880  -25.0775 H   0  0  0  0  0  0  0  0  0  0  0  0
   -2.0371   27.1765  -24.5572 H   0  0  0  0  0  0  0  0  0  0  0  0
   -0.8619   25.9214  -24.0035 H   0  0  0  0  0  0  0  0  0  0  0  0
    1.5569   26.6050  -26.4390 H   0  0  0  0  0  0  0  0  0  0  0  0
    1.0625   25.6164  -25.0103 H   0  0  0  0  0  0  0  0  0  0  0  0
   -0.0437   25.4436  -27.8590 H   0  0  0  0  0  0  0  0  0  0  0  0
    0.9228   24.2067  -26.9837 H   0  0  0  0  0  0  0  0  0  0  0  0
  1  2  1  0
  2  3  2  0
  3  4  1  0
  4  5  1  0
  4  6  2  0
  6  7  1  0
  7  8  2  0
  8  9  1  0
  9 10  1  0
 10 11  2  0
 10 12  1  0
 12 13  1  0
 13 14  2  0
 14 15  1  0
 15 16  2  0
 16 17  1  0
 17 18  2  0
 18 19  1  0
 19 20  1  0
 20 21  1  0
 21 22  1  0
 22 23  1  0
 23 24  1  0
  8  2  1  0
 18 13  1  0
 24 19  1  0
  1 25  1  0
  1 26  1  0
  1 27  1  0
  3 28  1  0
  6 29  1  0
  7 30  1  0
 14 31  1  0
 15 32  1  0
 16 33  1  0
 17 34  1  0
 20 35  1  0
 20 36  1  0
 21 37  1  0
 21 38  1  0
 23 39  1  0
 23 40  1  0
 24 41  1  0
 24 42  1  0
M  CHG  2   9  -1  12  -1
M  END
>  <UniqueID>  (9) 
9

>  <SMILES>  (9) 
Cc1cc(Br)ccc1[N-]C(=O)[N-]c1ccccc1N1CCOCC1

>  <Energy>  (9) 
57.13146827110255

>  <Genealogy>  (9) 
Cc1cc(Br)ccc1[N-]C(=O)[N-]c1ccccc1N1CCOCC1 (protonated)
Cc1cc(Br)ccc1[N-]C(=O)[N-]c1ccccc1N1CCOCC1 (3D coordinates assigned)
Cc1cc(Br)ccc1[N-]C(=O)[N-]c1ccccc1N1CCOCC1 (nonaromatic ring conformer: 57.13146827110255 kcal/mol)

>  <smiles>  (9) 
Cc1cc(Br)ccc1NC(=O)Nc1ccccc1N1CCOCC1

>  <score_type>  (9) 
oracle

>  <origin>  (9) 
adg

>  <m_score__min__energy>  (9) 
-10.83

>  <m_primary>  (9) 
energy

$$$$
10:0
     RDKit          3D

 50 53  0  0  0  0  0  0  0  0999 V2000
   -8.7500   18.6690  -31.9400 C   0  0  0  0  0  0  0  0  0  0  0  0
   -9.0830   19.8250  -31.8700 C   0  0  0  0  0  0  0  0  0  0  0  0
   -9.4900   21.2320  -31.7890 C   0  0  0  0  0  0  0  0  0  0  0  0
   -8.4730   22.0770  -32.3250 O   0  0  0  0  0  0  0  0  0  0  0  0
   -7.0930   21.9270  -32.1110 C   0  0  0  0  0  0  0  0  0  0  0  0
   -6.2980   21.0620  -32.8850 C   0  0  0  0  0  0  0  0  0  0  0  0
   -4.9390   20.9100  -32.6140 C   0  0  0  0  0  0  0  0  0  0  0  0
   -4.3370   21.6410  -31.5870 C   0  0  0  0  0  0  0  0  0  0  0  0
   -5.1240   22.6010  -30.8190 C   0  0  0  0  0  0  0  0  0  0  0  0
   -6.5050   22.6760  -31.0850 C   0  0  0  0  0  0  0  0  0  0  0  0
   -4.4600   23.5250  -29.7120 C   0  0  1  0  0  0  0  0  0  0  0  0
   -5.0400   24.9590  -29.7910 C   0  0  0  0  0  0  0  0  0  0  0  0
   -4.6010   22.9450  -28.2210 C   0  0  0  0  0  0  0  0  0  0  0  0
   -3.2910   22.3280  -27.5110 C   0  0  0  0  0  0  0  0  0  0  0  0
   -2.1880   21.8630  -28.4470 N   0  0  0  0  0  0  0  0  0  0  0  0
   -1.5710   20.5570  -28.1350 C   0  0  0  0  0  0  0  0  0  0  0  0
   -1.9480   20.0130  -26.7390 C   0  0  0  0  0  0  0  0  0  0  0  0
   -3.2560   19.2330  -26.7280 C   0  0  0  0  0  0  0  0  0  0  0  0
   -1.9350   18.5000  -26.5680 C   0  0  0  0  0  0  0  0  0  0  0  0
   -2.5710   22.0700  -29.8520 C   0  0  2  0  0  0  0  0  0  0  0  0
   -2.8680   21.2880  -31.1590 C   0  0  0  0  0  0  0  0  0  0  0  0
   -2.9700   23.5430  -30.0730 C   0  0  2  0  0  0  0  0  0  0  0  0
   -2.0760   24.5680  -29.3370 C   0  0  0  0  0  0  0  0  0  0  0  0
   -8.4460   17.6138  -32.0039 H   0  0  0  0  0  0  0  0  0  0  0  0
  -10.4182   21.3741  -32.3620 H   0  0  0  0  0  0  0  0  0  0  0  0
   -9.6524   21.4956  -30.7335 H   0  0  0  0  0  0  0  0  0  0  0  0
   -6.7538   20.4994  -33.7131 H   0  0  0  0  0  0  0  0  0  0  0  0
   -4.3371   20.2103  -33.2124 H   0  0  0  0  0  0  0  0  0  0  0  0
   -7.1355   23.3378  -30.4730 H   0  0  0  0  0  0  0  0  0  0  0  0
   -5.1971   25.3475  -28.7740 H   0  0  0  0  0  0  0  0  0  0  0  0
   -4.3348   25.6107  -30.3276 H   0  0  0  0  0  0  0  0  0  0  0  0
   -6.0000   24.9372  -30.3276 H   0  0  0  0  0  0  0  0  0  0  0  0
   -4.9588   23.7677  -27.5845 H   0  0  0  0  0  0  0  0  0  0  0  0
   -5.2803   22.0864  -28.3280 H   0  0  0  0  0  0  0  0  0  0  0  0
   -2.8698   23.1003  -26.8506 H   0  0  0  0  0  0  0  0  0  0  0  0
   -3.6344   21.4262  -26.9830 H   0  0  0  0  0  0  0  0  0  0  0  0
   -1.8972   19.8285  -28.8919 H   0  0  0  0  0  0  0  0  0  0  0  0
   -0.4811   20.7055  -28.1400 H   0  0  0  0  0  0  0  0  0  0  0  0
   -1.5095   20.8474  -26.1719 H   0  0  0  0  0  0  0  0  0  0  0  0
   -3.9423   19.3224  -25.8730 H   0  0  0  0  0  0  0  0  0  0  0  0
   -4.1154   19.1467  -27.4091 H   0  0  0  0  0  0  0  0  0  0  0  0
   -1.6652   18.0588  -25.5972 H   0  0  0  0  0  0  0  0  0  0  0  0
   -1.4426   17.6635  -27.0854 H   0  0  0  0  0  0  0  0  0  0  0  0
   -3.6328   22.0054  -29.5721 H   0  0  0  0  0  0  0  0  0  0  0  0
   -2.1628   21.5898  -31.9474 H   0  0  0  0  0  0  0  0  0  0  0  0
   -2.7568   20.2052  -31.0003 H   0  0  0  0  0  0  0  0  0  0  0  0
   -2.8081   23.9078  -31.0980 H   0  0  0  0  0  0  0  0  0  0  0  0
   -2.1885   24.4391  -28.2504 H   0  0  0  0  0  0  0  0  0  0  0  0
   -1.0250   24.4067  -29.6185 H   0  0  0  0  0  0  0  0  0  0  0  0
   -2.3787   25.5874  -29.6185 H   0  0  0  0  0  0  0  0  0  0  0  0
  1  2  3  0
  2  3  1  0
  3  4  1  0
  4  5  1  0
  5  6  2  0
  6  7  1  0
  7  8  2  0
  8  9  1  0
  9 10  2  0
  9 11  1  0
 11 12  1  1
 11 13  1  0
 13 14  1  0
 14 15  1  0
 15 16  1  0
 16 17  1  0
 17 18  1  0
 18 19  1  0
 15 20  1  0
 20 21  1  0
 20 22  1  0
 22 23  1  0
 10  5  1  0
 22 11  1  0
 21  8  1  0
 19 17  1  0
  1 24  1  0
  3 25  1  0
  3 26  1  0
  6 27  1  0
  7 28  1  0
 10 29  1  0
 12 30  1  0
 12 31  1  0
 12 32  1  0
 13 33  1  0
 13 34  1  0
 14 35  1  0
 14 36  1  0
 16 37  1  0
 16 38  1  0
 17 39  1  0
 18 40  1  0
 18 41  1  0
 19 42  1  0
 19 43  1  0
 20 44  1  6
 21 45  1  0
 21 46  1  0
 22 47  1  6
 23 48  1  0
 23 49  1  0
 23 50  1  0
M  END
>  <UniqueID>  (10) 
10

>  <SMILES>  (10) 
C#CCOc1ccc2c(c1)[C@@]1(C)CCN(CC3CC3)[C@H](C2)C1C

>  <Energy>  (10) 
460.24034692883845

>  <Genealogy>  (10) 
C#CCOc1ccc2c(c1)[C@@]1(C)CCN(CC3CC3)[C@H](C2)C1C (chirality)
C#CCOc1ccc2c(c1)[C@@]1(C)CCN(CC3CC3)[C@H](C2)C1C (3D coordinates assigned)
C#CCOc1ccc2c(c1)[C@@]1(C)CCN(CC3CC3)[C@H](C2)C1C (nonaromatic ring conformer: 460.24034692883845 kcal/mol)

>  <smiles>  (10) 
C#CCOc1ccc2c(c1)C1(C)CCN(CC3CC3)C(C2)C1C

>  <score_type>  (10) 
oracle

>  <origin>  (10) 
adg

>  <m_score__min__energy>  (10) 
-7.6100000000000003

>  <m_primary>  (10) 
energy

$$$$
11:0
     RDKit          3D

 46 48  0  0  0  0  0  0  0  0999 V2000
   -6.6900   17.8030  -31.5490 C   0  0  0  0  0  0  0  0  0  0  0  0
   -7.9540   18.3060  -32.2400 C   0  0  1  0  0  0  0  0  0  0  0  0
   -9.0380   18.2190  -31.3820 F   0  0  0  0  0  0  0  0  0  0  0  0
   -7.7340   20.0210  -32.8560 S   0  0  0  0  0  0  0  0  0  0  0  0
   -9.3570   20.6770  -32.3150 C   0  0  0  0  0  0  0  0  0  0  0  0
   -9.1710   22.0250  -31.6220 C   0  0  0  0  0  0  0  0  0  0  0  0
   -7.7350   22.3190  -31.4870 N   0  0  0  0  0  0  0  0  0  0  0  0
   -7.3910   23.7180  -31.8070 C   0  0  0  0  0  0  0  0  0  0  0  0
   -5.8910   23.9180  -32.0990 C   0  0  0  0  0  0  0  0  0  0  0  0
   -5.0670   23.5620  -30.9410 N   0  0  0  0  0  0  0  0  0  0  0  0
   -4.1700   24.3760  -30.3360 C   0  0  0  0  0  0  0  0  0  0  0  0
   -3.8620   25.6590  -30.7700 O   0  0  0  0  0  0  0  0  0  0  0  0
   -3.5210   23.7050  -29.3190 C   0  0  0  0  0  0  0  0  0  0  0  0
   -3.9810   22.4210  -29.3410 C   0  0  0  0  0  0  0  0  0  0  0  0
   -4.8970   22.3390  -30.3720 C   0  0  0  0  0  0  0  0  0  0  0  0
   -5.4830   21.1500  -30.8050 O   0  0  0  0  0  0  0  0  0  0  0  0
   -2.8200   21.5280  -28.9930 C   0  0  2  0  0  0  0  0  0  0  0  0
   -2.5360   21.7700  -27.4900 C   0  0  0  0  0  0  0  0  0  0  0  0
   -2.0070   23.2360  -27.4700 C   0  0  0  0  0  0  0  0  0  0  0  0
   -2.0570   23.6430  -28.9630 C   0  0  1  0  0  0  0  0  0  0  0  0
   -1.6490   22.3100  -29.6040 C   0  0  2  0  0  0  0  0  0  0  0  0
   -1.5640   22.2990  -31.1440 C   0  0  0  0  0  0  0  0  0  0  0  0
   -6.8226   17.8558  -30.4583 H   0  0  0  0  0  0  0  0  0  0  0  0
   -6.5001   16.7608  -31.8453 H   0  0  0  0  0  0  0  0  0  0  0  0
   -5.8360   18.4298  -31.8453 H   0  0  0  0  0  0  0  0  0  0  0  0
   -8.1501   17.6646  -33.1119 H   0  0  0  0  0  0  0  0  0  0  0  0
   -9.8211   19.9679  -31.6137 H   0  0  0  0  0  0  0  0  0  0  0  0
  -10.0042   20.8095  -33.1946 H   0  0  0  0  0  0  0  0  0  0  0  0
   -9.6325   21.9900  -30.6241 H   0  0  0  0  0  0  0  0  0  0  0  0
   -9.6494   22.8127  -32.2226 H   0  0  0  0  0  0  0  0  0  0  0  0
   -7.4170   22.0790  -30.5170 H   0  0  0  0  0  0  0  0  0  0  0  0
   -7.6691   24.3517  -30.9519 H   0  0  0  0  0  0  0  0  0  0  0  0
   -7.9428   23.9922  -32.7182 H   0  0  0  0  0  0  0  0  0  0  0  0
   -5.7138   24.9735  -32.3530 H   0  0  0  0  0  0  0  0  0  0  0  0
   -5.6117   23.2618  -32.9365 H   0  0  0  0  0  0  0  0  0  0  0  0
   -6.3140   21.1240  -31.3820 H   0  0  0  0  0  0  0  0  0  0  0  0
   -2.9664   20.4758  -29.2783 H   0  0  0  0  0  0  0  0  0  0  0  0
   -1.7765   21.0696  -27.1125 H   0  0  0  0  0  0  0  0  0  0  0  0
   -3.4174   21.6164  -26.8501 H   0  0  0  0  0  0  0  0  0  0  0  0
   -0.9786   23.2802  -27.0821 H   0  0  0  0  0  0  0  0  0  0  0  0
   -2.5941   23.9005  -26.8190 H   0  0  0  0  0  0  0  0  0  0  0  0
   -1.4958   24.5529  -29.2220 H   0  0  0  0  0  0  0  0  0  0  0  0
   -0.6303   21.9415  -29.4129 H   0  0  0  0  0  0  0  0  0  0  0  0
   -0.5169   22.1635  -31.4525 H   0  0  0  0  0  0  0  0  0  0  0  0
   -2.1725   21.4721  -31.5389 H   0  0  0  0  0  0  0  0  0  0  0  0
   -1.9420   23.2535  -31.5389 H   0  0  0  0  0  0  0  0  0  0  0  0
  1  2  1  0
  2  3  1  0
  2  4  1  0
  4  5  1  0
  5  6  1  0
  6  7  1  0
  7  8  1  0
  8  9  1  0
  9 10  1  0
 10 11  1  0
 11 12  1  0
 11 13  2  0
 13 14  1  0
 14 15  2  0
 15 16  1  0
 14 17  1  0
 17 18  1  0
 18 19  1  0
 19 20  1  0
 20 21  1  0
 21 22  1  0
 15 10  1  0
 21 17  1  0
 20 13  1  0
  1 23  1  0
  1 24  1  0
  1 25  1  0
  2 26  1  6
  5 27  1  0
  5 28  1  0
  6 29  1  0
  6 30  1  0
  7 31  1  0
  8 32  1  0
  8 33  1  0
  9 34  1  0
  9 35  1  0
 16 36  1  0
 17 37  1  1
 18 38  1  0
 18 39  1  0
 19 40  1  0
 19 41  1  0
 20 42  1  1
 21 43  1  1
 22 44  1  0
 22 45  1  0
 22 46  1  0
M  CHG  1  12  -1
M  END
>  <UniqueID>  (11) 
11

>  <SMILES>  (11) 
CC1C2CC[C@H]1c1c2c([O-])n(CCNCCS[C@@H](C)F)c1O

>  <Energy>  (11) 
132.14242335865322

>  <Genealogy>  (11) 
CC(F)SCCNCCn1c([O-])c2c(c1O)C1CCC2C1C (protonated)
CC1C2CC[C@H]1c1c2c([O-])n(CCNCCS[C@@H](C)F)c1O (chirality)
CC1C2CC[C@H]1c1c2c([O-])n(CCNCCS[C@@H](C)F)c1O (3D coordinates assigned)
CC1C2CC[C@H]1c1c2c([O-])n(CCNCCS[C@@H](C)F)c1O (nonaromatic ring conformer: 132.14242335865322 kcal/mol)

>  <smiles>  (11) 
CC(F)SCCNCCn1c(O)c2c(c1O)C1CCC2C1C

>  <score_type>  (11) 
oracle

>  <origin>  (11) 
adg

>  <m_score__min__energy>  (11) 
-8.8599999999999994

>  <m_primary>  (11) 
energy

$$$$
12:0
     RDKit          3D

 46 49  0  0  0  0  0  0  0  0999 V2000
    0.4110   17.4550  -27.7570 C   0  0  0  0  0  0  0  0  0  0  0  0
   -0.4300   18.3920  -27.0910 O   0  0  0  0  0  0  0  0  0  0  0  0
   -1.2200   19.3500  -27.7430 C   0  0  0  0  0  0  0  0  0  0  0  0
   -2.3510   19.9340  -27.1410 C   0  0  0  0  0  0  0  0  0  0  0  0
   -3.1080   20.8830  -27.8350 C   0  0  0  0  0  0  0  0  0  0  0  0
   -2.7560   21.2560  -29.1400 C   0  0  0  0  0  0  0  0  0  0  0  0
   -3.5340   22.2420  -29.8410 N   0  0  0  0  0  0  0  0  0  0  0  0
   -4.3120   21.9660  -30.8710 N   0  0  0  0  0  0  0  0  0  0  0  0
   -4.9630   23.0990  -31.1840 C   0  0  0  0  0  0  0  0  0  0  0  0
   -5.9060   23.2310  -32.3360 C   0  0  0  0  0  0  0  0  0  0  0  0
   -6.9890   22.1930  -32.2310 C   0  0  0  0  0  0  0  0  0  0  0  0
   -8.2110   22.5050  -31.6090 C   0  0  0  0  0  0  0  0  0  0  0  0
   -9.2030   21.5280  -31.4770 C   0  0  0  0  0  0  0  0  0  0  0  0
   -8.9800   20.2330  -31.9540 C   0  0  0  0  0  0  0  0  0  0  0  0
   -7.7620   19.9130  -32.5610 C   0  0  0  0  0  0  0  0  0  0  0  0
   -6.7670   20.8860  -32.6950 C   0  0  0  0  0  0  0  0  0  0  0  0
   -4.6050   24.1280  -30.3860 N   0  0  0  0  0  0  0  0  0  0  0  0
   -3.7080   23.5540  -29.5530 C   0  0  0  0  0  0  0  0  0  0  0  0
   -2.9710   24.3240  -28.5270 C   0  0  0  0  0  0  0  0  0  0  0  0
   -1.6900   24.8230  -28.8190 C   0  0  0  0  0  0  0  0  0  0  0  0
   -0.9750   25.5370  -27.8520 C   0  0  0  0  0  0  0  0  0  0  0  0
   -1.5260   25.7470  -26.5850 C   0  0  0  0  0  0  0  0  0  0  0  0
   -2.7900   25.2350  -26.2800 C   0  0  0  0  0  0  0  0  0  0  0  0
   -3.5080   24.5190  -27.2430 C   0  0  0  0  0  0  0  0  0  0  0  0
   -1.6180   20.6860  -29.7330 C   0  0  0  0  0  0  0  0  0  0  0  0
   -0.8620   19.7370  -29.0400 C   0  0  0  0  0  0  0  0  0  0  0  0
    0.9514   16.8529  -27.0117 H   0  0  0  0  0  0  0  0  0  0  0  0
   -0.2029   16.7943  -28.3868 H   0  0  0  0  0  0  0  0  0  0  0  0
    1.1339   17.9942  -28.3868 H   0  0  0  0  0  0  0  0  0  0  0  0
   -2.6403   19.6425  -26.1205 H   0  0  0  0  0  0  0  0  0  0  0  0
   -3.9854   21.3399  -27.3540 H   0  0  0  0  0  0  0  0  0  0  0  0
   -4.4150   21.0310  -31.3260 H   0  0  0  0  0  0  0  0  0  0  0  0
   -6.3588   24.2334  -32.3239 H   0  0  0  0  0  0  0  0  0  0  0  0
   -5.3533   23.0846  -33.2757 H   0  0  0  0  0  0  0  0  0  0  0  0
   -8.3872   23.5207  -31.2251 H   0  0  0  0  0  0  0  0  0  0  0  0
  -10.1604   21.7790  -30.9970 H   0  0  0  0  0  0  0  0  0  0  0  0
   -9.7623   19.4664  -31.8518 H   0  0  0  0  0  0  0  0  0  0  0  0
   -7.5861   18.8933  -32.9341 H   0  0  0  0  0  0  0  0  0  0  0  0
   -5.8070   20.6271  -33.1654 H   0  0  0  0  0  0  0  0  0  0  0  0
   -1.2482   24.6514  -29.8116 H   0  0  0  0  0  0  0  0  0  0  0  0
    0.0230   25.9341  -28.0892 H   0  0  0  0  0  0  0  0  0  0  0  0
   -0.9651   26.3150  -25.8282 H   0  0  0  0  0  0  0  0  0  0  0  0
   -3.2209   25.3955  -25.2807 H   0  0  0  0  0  0  0  0  0  0  0  0
   -4.4971   24.1068  -26.9945 H   0  0  0  0  0  0  0  0  0  0  0  0
   -1.3202   20.9880  -30.7480 H   0  0  0  0  0  0  0  0  0  0  0  0
    0.0223   19.2900  -29.5177 H   0  0  0  0  0  0  0  0  0  0  0  0
  1  2  1  0
  2  3  1  0
  3  4  2  0
  4  5  1  0
  5  6  2  0
  6  7  1  0
  7  8  1  0
  8  9  2  0
  9 10  1  0
 10 11  1  0
 11 12  2  0
 12 13  1  0
 13 14  2  0
 14 15  1  0
 15 16  2  0
  9 17  1  0
 17 18  2  0
 18 19  1  0
 19 20  2  0
 20 21  1  0
 21 22  2  0
 22 23  1  0
 23 24  2  0
  6 25  1  0
 25 26  2  0
 26  3  1  0
 18  7  1  0
 24 19  1  0
 16 11  1  0
  1 27  1  0
  1 28  1  0
  1 29  1  0
  4 30  1  0
  5 31  1  0
  8 32  1  0
 10 33  1  0
 10 34  1  0
 12 35  1  0
 13 36  1  0
 14 37  1  0
 15 38  1  0
 16 39  1  0
 20 40  1  0
 21 41  1  0
 22 42  1  0
 23 43  1  0
 24 44  1  0
 25 45  1  0
 26 46  1  0
M  CHG  1   8   1
M  END
>  <UniqueID>  (12) 
12

>  <SMILES>  (12) 
COc1ccc(-n2[nH+]c(Cc3ccccc3)nc2-c2ccccc2)cc1

>  <Energy>  (12) 
90.45512492367698

>  <Genealogy>  (12) 
COc1ccc(-n2[nH+]c(Cc3ccccc3)nc2-c2ccccc2)cc1 (protonated)
COc1ccc(-n2[nH+]c(Cc3ccccc3)nc2-c2ccccc2)cc1 (3D coordinates assigned)
COc1ccc(-n2[nH+]c(Cc3ccccc3)nc2-c2ccccc2)cc1 (optimized conformer: 90.45512492367698 kcal/mol)

>  <smiles>  (12) 
COc1ccc(-n2nc(Cc3ccccc3)nc2-c2ccccc2)cc1

>  <score_type>  (12) 
oracle

>  <origin>  (12) 
adg

>  <m_score__min__energy>  (12) 
-7.6799999999999997

>  <m_primary>  (12) 
energy

$$$$
13:0
     RDKit          3D

 50 52  0  0  0  0  0  0  0  0999 V2000
   -9.3650   21.5500  -30.7390 C   0  0  0  0  0  0  0  0  0  0  0  0
   -8.7620   22.5620  -31.7060 C   0  0  0  0  0  0  0  0  0  0  0  0
   -7.3280   22.3130  -31.8730 N   0  0  0  0  0  0  0  0  0  0  0  0
   -6.2850   23.1070  -31.5010 C   0  0  0  0  0  0  0  0  0  0  0  0
   -6.4260   24.3860  -30.7300 C   0  0  0  0  0  0  0  0  0  0  0  0
   -5.6680   24.3140  -29.4830 N   0  0  0  0  0  0  0  0  0  0  0  0
   -4.2520   24.5380  -29.4280 C   0  0  0  0  0  0  0  0  0  0  0  0
   -3.5330   24.4210  -28.1230 C   0  0  0  0  0  0  0  0  0  0  0  0
   -3.6110   24.8400  -30.4700 O   0  0  0  0  0  0  0  0  0  0  0  0
   -5.0740   22.6070  -31.8610 N   0  0  0  0  0  0  0  0  0  0  0  0
   -5.3920   21.4670  -32.5000 C   0  0  0  0  0  0  0  0  0  0  0  0
   -4.5190   20.5580  -33.0910 C   0  0  0  0  0  0  0  0  0  0  0  0
   -5.0710   19.4220  -33.7340 C   0  0  0  0  0  0  0  0  0  0  0  0
   -4.2410   18.4310  -34.3680 N   0  0  0  0  0  0  0  0  0  0  0  0
   -4.1000   17.0470  -33.9130 C   0  0  0  0  0  0  0  0  0  0  0  0
   -2.6370   16.6000  -33.9860 C   0  0  0  0  0  0  0  0  0  0  0  0
   -1.8130   17.6530  -34.4870 O   0  0  0  0  0  0  0  0  0  0  0  0
   -1.4900   18.8360  -33.8050 C   0  0  0  0  0  0  0  0  0  0  0  0
   -1.1330   20.0280  -34.4690 C   0  0  0  0  0  0  0  0  0  0  0  0
   -0.8220   21.1770  -33.7350 C   0  0  0  0  0  0  0  0  0  0  0  0
   -0.8590   21.1500  -32.3390 C   0  0  0  0  0  0  0  0  0  0  0  0
   -1.2060   19.9710  -31.6730 C   0  0  0  0  0  0  0  0  0  0  0  0
   -1.5190   18.8210  -32.4040 C   0  0  0  0  0  0  0  0  0  0  0  0
   -6.4790   19.2460  -33.7430 C   0  0  0  0  0  0  0  0  0  0  0  0
   -7.3310   20.1850  -33.1350 C   0  0  0  0  0  0  0  0  0  0  0  0
   -6.7420   21.2880  -32.5160 C   0  0  0  0  0  0  0  0  0  0  0  0
   -9.1733   21.8718  -29.7048 H   0  0  0  0  0  0  0  0  0  0  0  0
  -10.4500   21.4836  -30.9072 H   0  0  0  0  0  0  0  0  0  0  0  0
   -8.9069   20.5642  -30.9072 H   0  0  0  0  0  0  0  0  0  0  0  0
   -9.2618   22.4739  -32.6819 H   0  0  0  0  0  0  0  0  0  0  0  0
   -8.9047   23.5743  -31.2999 H   0  0  0  0  0  0  0  0  0  0  0  0
   -6.0454   25.2199  -31.3381 H   0  0  0  0  0  0  0  0  0  0  0  0
   -7.4884   24.5454  -30.4936 H   0  0  0  0  0  0  0  0  0  0  0  0
   -6.1830   24.1160  -28.5960 H   0  0  0  0  0  0  0  0  0  0  0  0
   -4.2504   24.5377  -27.2974 H   0  0  0  0  0  0  0  0  0  0  0  0
   -3.0540   23.4331  -28.0556 H   0  0  0  0  0  0  0  0  0  0  0  0
   -2.7654   25.2061  -28.0556 H   0  0  0  0  0  0  0  0  0  0  0  0
   -3.4310   20.7170  -33.0598 H   0  0  0  0  0  0  0  0  0  0  0  0
   -3.6830   18.7140  -35.2060 H   0  0  0  0  0  0  0  0  0  0  0  0
   -4.4492   16.9715  -32.8726 H   0  0  0  0  0  0  0  0  0  0  0  0
   -4.7015   16.3970  -34.5654 H   0  0  0  0  0  0  0  0  0  0  0  0
   -2.2939   16.3208  -32.9789 H   0  0  0  0  0  0  0  0  0  0  0  0
   -2.5634   15.7386  -34.6662 H   0  0  0  0  0  0  0  0  0  0  0  0
   -1.0991   20.0540  -35.5682 H   0  0  0  0  0  0  0  0  0  0  0  0
   -0.5475   22.1047  -34.2585 H   0  0  0  0  0  0  0  0  0  0  0  0
   -0.6153   22.0557  -31.7642 H   0  0  0  0  0  0  0  0  0  0  0  0
   -1.2328   19.9480  -30.5736 H   0  0  0  0  0  0  0  0  0  0  0  0
   -1.7905   17.8959  -31.8745 H   0  0  0  0  0  0  0  0  0  0  0  0
   -6.9108   18.3611  -34.2333 H   0  0  0  0  0  0  0  0  0  0  0  0
   -8.4232   20.0546  -33.1470 H   0  0  0  0  0  0  0  0  0  0  0  0
  1  2  1  0
  2  3  1  0
  3  4  1  0
  4  5  1  0
  5  6  1  0
  6  7  1  0
  7  8  1  0
  7  9  2  0
  4 10  2  0
 10 11  1  0
 11 12  2  0
 12 13  1  0
 13 14  1  0
 14 15  1  0
 15 16  1  0
 16 17  1  0
 17 18  1  0
 18 19  2  0
 19 20  1  0
 20 21  2  0
 21 22  1  0
 22 23  2  0
 13 24  2  0
 24 25  1  0
 25 26  2  0
 26  3  1  0
 26 11  1  0
 23 18  1  0
  1 27  1  0
  1 28  1  0
  1 29  1  0
  2 30  1  0
  2 31  1  0
  5 32  1  0
  5 33  1  0
  6 34  1  0
  8 35  1  0
  8 36  1  0
  8 37  1  0
 12 38  1  0
 14 39  1  0
 15 40  1  0
 15 41  1  0
 16 42  1  0
 16 43  1  0
 19 44  1  0
 20 45  1  0
 21 46  1  0
 22 47  1  0
 23 48  1  0
 24 49  1  0
 25 50  1  0
M  END
>  <UniqueID>  (13) 
13

>  <SMILES>  (13) 
CCn1c(CNC(C)=O)nc2cc(NCCOc3ccccc3)ccc21

>  <Energy>  (13) 
78.62971126405525

>  <Genealogy>  (13) 
CCn1c(CNC(C)=O)nc2cc(NCCOc3ccccc3)ccc21 (3D coordinates assigned)
CCn1c(CNC(C)=O)nc2cc(NCCOc3ccccc3)ccc21 (optimized conformer: 78.62971126405525 kcal/mol)

>  <smiles>  (13) 
CCn1c(CNC(C)=O)nc2cc(NCCOc3ccccc3)ccc21

>  <score_type>  (13) 
oracle

>  <origin>  (13) 
adg

>  <m_score__min__energy>  (13) 
-8.6600000000000001

>  <m_primary>  (13) 
energy

$$$$
14:0
     RDKit          3D

 44 47  0  0  0  0  0  0  0  0999 V2000
   -4.8930   13.4340  -32.5800 C   0  0  0  0  0  0  0  0  0  0  0  0
   -5.7160   14.2500  -33.4100 O   0  0  0  0  0  0  0  0  0  0  0  0
   -5.4110   15.5690  -33.7770 C   0  0  0  0  0  0  0  0  0  0  0  0
   -4.3120   15.7860  -34.6140 C   0  0  0  0  0  0  0  0  0  0  0  0
   -3.9680   17.0790  -35.0110 C   0  0  0  0  0  0  0  0  0  0  0  0
   -4.7220   18.1710  -34.5750 C   0  0  0  0  0  0  0  0  0  0  0  0
   -5.8300   17.9810  -33.7320 C   0  0  0  0  0  0  0  0  0  0  0  0
   -6.6300   19.1410  -33.2650 C   0  0  0  0  0  0  0  0  0  0  0  0
   -6.1300   20.4110  -32.9380 C   0  0  0  0  0  0  0  0  0  0  0  0
   -7.1890   21.1390  -32.5600 N   0  0  0  0  0  0  0  0  0  0  0  0
   -7.4400   22.3880  -32.1090 C   0  0  0  0  0  0  0  0  0  0  0  0
   -6.3730   23.4220  -31.8970 C   0  0  0  0  0  0  0  0  0  0  0  0
   -5.8980   23.4030  -30.4960 N   0  0  0  0  0  0  0  0  0  0  0  0
   -4.4300   23.1990  -30.3890 C   0  0  0  0  0  0  0  0  0  0  0  0
   -3.6600   24.4660  -29.9670 C   0  0  0  0  0  0  0  0  0  0  0  0
   -4.2530   25.6660  -30.5650 N   0  0  0  0  0  0  0  0  0  0  0  0
   -5.6420   25.8750  -30.1200 C   0  0  0  0  0  0  0  0  0  0  0  0
   -6.3630   24.5690  -29.7160 C   0  0  0  0  0  0  0  0  0  0  0  0
   -8.8040   22.5780  -31.8320 C   0  0  0  0  0  0  0  0  0  0  0  0
   -9.6610   21.1310  -32.1740 S   0  0  0  0  0  0  0  0  0  0  0  0
   -8.2490   20.3660  -32.6530 C   0  0  0  0  0  0  0  0  0  0  0  0
   -7.9830   19.1230  -33.0800 N   0  0  0  0  0  0  0  0  0  0  0  0
   -6.1700   16.6720  -33.3370 C   0  0  0  0  0  0  0  0  0  0  0  0
   -5.1101   13.6493  -31.5233 H   0  0  0  0  0  0  0  0  0  0  0  0
   -5.0993   12.3737  -32.7881 H   0  0  0  0  0  0  0  0  0  0  0  0
   -3.8345   13.6493  -32.7881 H   0  0  0  0  0  0  0  0  0  0  0  0
   -3.7140   14.9309  -34.9622 H   0  0  0  0  0  0  0  0  0  0  0  0
   -3.1010   17.2385  -35.6689 H   0  0  0  0  0  0  0  0  0  0  0  0
   -4.4464   19.1870  -34.8939 H   0  0  0  0  0  0  0  0  0  0  0  0
   -5.0817   20.7413  -32.9830 H   0  0  0  0  0  0  0  0  0  0  0  0
   -5.5273   23.2111  -32.5680 H   0  0  0  0  0  0  0  0  0  0  0  0
   -6.7941   24.4147  -32.1144 H   0  0  0  0  0  0  0  0  0  0  0  0
   -4.2416   22.4129  -29.6429 H   0  0  0  0  0  0  0  0  0  0  0  0
   -4.0692   22.9207  -31.3902 H   0  0  0  0  0  0  0  0  0  0  0  0
   -3.6912   24.5574  -28.8712 H   0  0  0  0  0  0  0  0  0  0  0  0
   -2.6211   24.3772  -30.3174 H   0  0  0  0  0  0  0  0  0  0  0  0
   -4.2320   25.5630  -31.6070 H   0  0  0  0  0  0  0  0  0  0  0  0
   -5.6315   26.5499  -29.2515 H   0  0  0  0  0  0  0  0  0  0  0  0
   -6.1942   26.2994  -30.9715 H   0  0  0  0  0  0  0  0  0  0  0  0
   -6.1754   24.3776  -28.6491 H   0  0  0  0  0  0  0  0  0  0  0  0
   -7.4358   24.7019  -29.9197 H   0  0  0  0  0  0  0  0  0  0  0  0
   -9.2527   23.5088  -31.4548 H   0  0  0  0  0  0  0  0  0  0  0  0
   -8.6570   18.3360  -33.2010 H   0  0  0  0  0  0  0  0  0  0  0  0
   -7.0362   16.5093  -32.6788 H   0  0  0  0  0  0  0  0  0  0  0  0
  1  2  1  0
  2  3  1  0
  3  4  2  0
  4  5  1  0
  5  6  2  0
  6  7  1  0
  7  8  1  0
  8  9  2  0
  9 10  1  0
 10 11  1  0
 11 12  1  0
 12 13  1  0
 13 14  1  0
 14 15  1  0
 15 16  1  0
 16 17  1  0
 17 18  1  0
 11 19  2  0
 19 20  1  0
 20 21  1  0
 21 22  2  0
  7 23  2  0
 23  3  1  0
 22  8  1  0
 21 10  1  0
 18 13  1  0
  1 24  1  0
  1 25  1  0
  1 26  1  0
  4 27  1  0
  5 28  1  0
  6 29  1  0
  9 30  1  0
 12 31  1  0
 12 32  1  0
 14 33  1  0
 14 34  1  0
 15 35  1  0
 15 36  1  0
 16 37  1  0
 17 38  1  0
 17 39  1  0
 18 40  1  0
 18 41  1  0
 19 42  1  0
 22 43  1  0
 23 44  1  0
M  CHG  1  22   1
M  END
>  <UniqueID>  (14) 
14

>  <SMILES>  (14) 
COc1cccc(-c2cn3c(CN4CCNCC4)csc3[nH+]2)c1

>  <Energy>  (14) 
138.22028342183032

>  <Genealogy>  (14) 
COc1cccc(-c2cn3c(CN4CCNCC4)csc3[nH+]2)c1 (protonated)
COc1cccc(-c2cn3c(CN4CCNCC4)csc3[nH+]2)c1 (3D coordinates assigned)
COc1cccc(-c2cn3c(CN4CCNCC4)csc3[nH+]2)c1 (nonaromatic ring conformer: 138.22028342183032 kcal/mol)

>  <smiles>  (14) 
COc1cccc(-c2cn3c(CN4CCNCC4)csc3n2)c1

>  <score_type>  (14) 
oracle

>  <origin>  (14) 
adg

>  <m_score__min__energy>  (14) 
-8.3900000000000006

>  <m_primary>  (14) 
energy

$$$$
15:0
     RDKit          3D

 37 38  0  0  0  0  0  0  0  0999 V2000
    0.3790   18.4680  -28.0300 C   0  0  0  0  0  0  0  0  0  0  0  0
   -0.6030   18.9590  -28.9360 O   0  0  0  0  0  0  0  0  0  0  0  0
   -1.0480   20.2900  -28.9810 C   0  0  0  0  0  0  0  0  0  0  0  0
   -0.8250   21.1150  -30.0990 C   0  0  0  0  0  0  0  0  0  0  0  0
   -1.2790   22.4350  -30.1050 C   0  0  0  0  0  0  0  0  0  0  0  0
   -1.9590   22.9510  -28.9980 C   0  0  0  0  0  0  0  0  0  0  0  0
   -2.5160   24.6220  -28.9990 S   0  0  0  0  0  0  0  0  0  0  0  0
   -3.3170   24.9130  -27.7610 O   0  0  0  0  0  0  0  0  0  0  0  0
   -1.3210   25.5310  -29.0360 O   0  0  0  0  0  0  0  0  0  0  0  0
   -3.5000   24.9250  -30.3940 N   0  0  0  0  0  0  0  0  0  0  0  0
   -4.6000   24.1090  -30.8290 C   0  0  0  0  0  0  0  0  0  0  0  0
   -4.3970   22.9590  -31.6170 C   0  0  0  0  0  0  0  0  0  0  0  0
   -5.4840   22.1930  -32.0430 C   0  0  0  0  0  0  0  0  0  0  0  0
   -6.7820   22.5600  -31.6860 C   0  0  0  0  0  0  0  0  0  0  0  0
   -6.9980   23.6920  -30.8990 C   0  0  0  0  0  0  0  0  0  0  0  0
   -5.9140   24.4710  -30.4620 C   0  0  0  0  0  0  0  0  0  0  0  0
   -6.1620   25.6990  -29.6290 C   0  0  0  0  0  0  0  0  0  0  0  0
   -2.1950   22.1330  -27.8870 C   0  0  0  0  0  0  0  0  0  0  0  0
   -1.7360   20.8020  -27.8690 C   0  0  0  0  0  0  0  0  0  0  0  0
   -1.9440   19.9580  -26.7650 O   0  0  0  0  0  0  0  0  0  0  0  0
   -3.0110   19.0220  -26.6560 C   0  0  0  0  0  0  0  0  0  0  0  0
    0.0416   18.6367  -26.9967 H   0  0  0  0  0  0  0  0  0  0  0  0
    0.5255   17.3906  -28.1966 H   0  0  0  0  0  0  0  0  0  0  0  0
    1.3288   18.9973  -28.1966 H   0  0  0  0  0  0  0  0  0  0  0  0
   -0.2896   20.7172  -30.9737 H   0  0  0  0  0  0  0  0  0  0  0  0
   -1.1010   23.0716  -30.9842 H   0  0  0  0  0  0  0  0  0  0  0  0
   -3.3758   22.6626  -31.8985 H   0  0  0  0  0  0  0  0  0  0  0  0
   -5.3167   21.2986  -32.6611 H   0  0  0  0  0  0  0  0  0  0  0  0
   -7.6364   21.9560  -32.0255 H   0  0  0  0  0  0  0  0  0  0  0  0
   -8.0232   23.9759  -30.6192 H   0  0  0  0  0  0  0  0  0  0  0  0
   -6.1088   25.4354  -28.5624 H   0  0  0  0  0  0  0  0  0  0  0  0
   -5.3989   26.4575  -29.8578 H   0  0  0  0  0  0  0  0  0  0  0  0
   -7.1597   26.1019  -29.8578 H   0  0  0  0  0  0  0  0  0  0  0  0
   -2.7432   22.5330  -27.0213 H   0  0  0  0  0  0  0  0  0  0  0  0
   -3.2261   18.8333  -25.5939 H   0  0  0  0  0  0  0  0  0  0  0  0
   -3.9080   19.4299  -27.1449 H   0  0  0  0  0  0  0  0  0  0  0  0
   -2.7234   18.0795  -27.1449 H   0  0  0  0  0  0  0  0  0  0  0  0
  1  2  1  0
  2  3  1  0
  3  4  2  0
  4  5  1  0
  5  6  2  0
  6  7  1  0
  7  8  2  0
  7  9  2  0
  7 10  1  0
 10 11  1  0
 11 12  2  0
 12 13  1  0
 13 14  2  0
 14 15  1  0
 15 16  2  0
 16 17  1  0
  6 18  1  0
 18 19  2  0
 19 20  1  0
 20 21  1  0
 19  3  1  0
 16 11  1  0
  1 22  1  0
  1 23  1  0
  1 24  1  0
  4 25  1  0
  5 26  1  0
 12 27  1  0
 13 28  1  0
 14 29  1  0
 15 30  1  0
 17 31  1  0
 17 32  1  0
 17 33  1  0
 18 34  1  0
 21 35  1  0
 21 36  1  0
 21 37  1  0
M  CHG  1  10  -1
M  END
>  <UniqueID>  (15) 
15

>  <SMILES>  (15) 
COc1ccc(S(=O)(=O)[N-]c2ccccc2C)cc1OC

>  <Energy>  (15) 
38.88115142306793

>  <Genealogy>  (15) 
COc1ccc(S(=O)(=O)[N-]c2ccccc2C)cc1OC (protonated)
COc1ccc(S(=O)(=O)[N-]c2ccccc2C)cc1OC (3D coordinates assigned)
COc1ccc(S(=O)(=O)[N-]c2ccccc2C)cc1OC (optimized conformer: 38.88115142306793 kcal/mol)

>  <smiles>  (15) 
COc1ccc(S(=O)(=O)Nc2ccccc2C)cc1OC

>  <score_type>  (15) 
oracle

>  <origin>  (15) 
adg

>  <m_score__min__energy>  (15) 
-8.0800000000000001

>  <m_primary>  (15) 
energy

$$$$
16:0
     RDKit          3D

 44 46  0  0  0  0  0  0  0  0999 V2000
    0.2590   21.4500  -35.6590 C   0  0  0  0  0  0  0  0  0  0  0  0
    0.6210   21.2660  -34.1770 C   0  0  0  0  0  0  0  0  0  0  0  0
   -0.3310   20.4210  -33.4190 N   0  0  0  0  0  0  0  0  0  0  0  0
   -0.7290   19.1910  -34.1390 C   0  0  0  0  0  0  0  0  0  0  0  0
   -1.9790   18.5720  -33.5080 C   0  0  0  0  0  0  0  0  0  0  0  0
   -3.1400   19.4890  -33.6210 N   0  0  0  0  0  0  0  0  0  0  0  0
   -4.2500   19.0880  -32.7210 C   0  0  0  0  0  0  0  0  0  0  0  0
   -5.5870   18.9770  -33.4190 C   0  0  0  0  0  0  0  0  0  0  0  0
   -5.6120   18.6790  -34.6440 O   0  0  0  0  0  0  0  0  0  0  0  0
   -6.8200   19.1880  -32.7080 N   0  0  0  0  0  0  0  0  0  0  0  0
   -7.8140   18.1430  -32.4500 C   0  0  0  0  0  0  0  0  0  0  0  0
   -9.0960   18.8700  -31.9780 C   0  0  0  0  0  0  0  0  0  0  0  0
   -8.6910   20.3010  -31.9570 C   0  0  0  0  0  0  0  0  0  0  0  0
   -9.4590   21.4020  -31.5690 C   0  0  0  0  0  0  0  0  0  0  0  0
   -8.8690   22.6760  -31.6020 C   0  0  0  0  0  0  0  0  0  0  0  0
   -7.5270   22.8230  -32.0010 C   0  0  0  0  0  0  0  0  0  0  0  0
   -6.7730   21.7000  -32.3840 C   0  0  0  0  0  0  0  0  0  0  0  0
   -7.3960   20.4440  -32.3720 C   0  0  0  0  0  0  0  0  0  0  0  0
   -2.7840   20.9340  -33.5040 C   0  0  0  0  0  0  0  0  0  0  0  0
   -1.4430   21.1620  -32.7800 C   0  0  0  0  0  0  0  0  0  0  0  0
   -0.7190   21.9471  -35.7386 H   0  0  0  0  0  0  0  0  0  0  0  0
    1.0254   22.0680  -36.1497 H   0  0  0  0  0  0  0  0  0  0  0  0
    0.2115   20.4666  -36.1497 H   0  0  0  0  0  0  0  0  0  0  0  0
    1.6160   20.8004  -34.1203 H   0  0  0  0  0  0  0  0  0  0  0  0
    0.5908   22.2653  -33.7181 H   0  0  0  0  0  0  0  0  0  0  0  0
   -0.9410   19.4405  -35.1892 H   0  0  0  0  0  0  0  0  0  0  0  0
    0.0942   18.4640  -34.0768 H   0  0  0  0  0  0  0  0  0  0  0  0
   -2.2134   17.6292  -34.0240 H   0  0  0  0  0  0  0  0  0  0  0  0
   -1.7796   18.3880  -32.4420 H   0  0  0  0  0  0  0  0  0  0  0  0
   -3.5150   19.3590  -34.5920 H   0  0  0  0  0  0  0  0  0  0  0  0
   -4.0051   18.1097  -32.2817 H   0  0  0  0  0  0  0  0  0  0  0  0
   -4.3484   19.8762  -31.9601 H   0  0  0  0  0  0  0  0  0  0  0  0
   -8.0156   17.5737  -33.3694 H   0  0  0  0  0  0  0  0  0  0  0  0
   -7.4569   17.4298  -31.6925 H   0  0  0  0  0  0  0  0  0  0  0  0
   -9.9243   18.7054  -32.6828 H   0  0  0  0  0  0  0  0  0  0  0  0
   -9.4596   18.5116  -31.0037 H   0  0  0  0  0  0  0  0  0  0  0  0
  -10.5023   21.2737  -31.2450 H   0  0  0  0  0  0  0  0  0  0  0  0
   -9.4566   23.5607  -31.3155 H   0  0  0  0  0  0  0  0  0  0  0  0
   -7.0660   23.8217  -32.0132 H   0  0  0  0  0  0  0  0  0  0  0  0
   -5.7203   21.8041  -32.6856 H   0  0  0  0  0  0  0  0  0  0  0  0
   -2.7147   21.3618  -34.5150 H   0  0  0  0  0  0  0  0  0  0  0  0
   -3.5694   21.4213  -32.9076 H   0  0  0  0  0  0  0  0  0  0  0  0
   -1.2090   22.2367  -32.7972 H   0  0  0  0  0  0  0  0  0  0  0  0
   -1.5478   20.7924  -31.7493 H   0  0  0  0  0  0  0  0  0  0  0  0
  1  2  1  0
  2  3  1  0
  3  4  1  0
  4  5  1  0
  5  6  1  0
  6  7  1  0
  7  8  1  0
  8  9  2  0
  8 10  1  0
 10 11  1  0
 11 12  1  0
 12 13  1  0
 13 14  2  0
 14 15  1  0
 15 16  2  0
 16 17  1  0
 17 18  2  0
  6 19  1  0
 19 20  1  0
 20  3  1  0
 18 10  1  0
 18 13  1  0
  1 21  1  0
  1 22  1  0
  1 23  1  0
  2 24  1  0
  2 25  1  0
  4 26  1  0
  4 27  1  0
  5 28  1  0
  5 29  1  0
  6 30  1  0
  7 31  1  0
  7 32  1  0
 11 33  1  0
 11 34  1  0
 12 35  1  0
 12 36  1  0
 14 37  1  0
 15 38  1  0
 16 39  1  0
 17 40  1  0
 19 41  1  0
 19 42  1  0
 20 43  1  0
 20 44  1  0
M  CHG  1   6   1
M  END
>  <UniqueID>  (16) 
16

>  <SMILES>  (16) 
CCN1CC[NH+](CC(=O)N2CCc3ccccc32)CC1

>  <Energy>  (16) 
76.25607694187966

>  <Genealogy>  (16) 
CCN1CC[NH+](CC(=O)N2CCc3ccccc32)CC1 (protonated)
CCN1CC[NH+](CC(=O)N2CCc3ccccc32)CC1 (3D coordinates assigned)
CCN1CC[NH+](CC(=O)N2CCc3ccccc32)CC1 (nonaromatic ring conformer: 76.25607694187966 kcal/mol)

>  <smiles>  (16) 
CCN1CCN(CC(=O)N2CCc3ccccc32)CC1

>  <score_type>  (16) 
oracle

>  <origin>  (16) 
adg

>  <m_score__min__energy>  (16) 
-6.9000000000000004

>  <m_primary>  (16) 
energy

$$$$
17:0
     RDKit          3D

 43 45  0  0  0  0  0  0  0  0999 V2000
   -5.8720   20.0290  -33.7020 C   0  0  0  0  0  0  0  0  0  0  0  0
   -5.5380   19.7760  -32.2350 C   0  0  0  0  0  0  0  0  0  0  0  0
   -4.3130   20.5460  -31.8290 C   0  0  0  0  0  0  0  0  0  0  0  0
   -4.3900   21.4470  -30.8090 N   0  0  0  0  0  0  0  0  0  0  0  0
   -3.3280   22.1700  -30.4170 N   0  0  0  0  0  0  0  0  0  0  0  0
   -3.5100   23.1420  -29.3300 C   0  0  0  0  0  0  0  0  0  0  0  0
   -3.0910   24.5230  -29.7580 C   0  0  0  0  0  0  0  0  0  0  0  0
   -2.0430   25.0190  -29.2670 O   0  0  0  0  0  0  0  0  0  0  0  0
   -3.8540   25.3040  -30.6870 N   0  0  0  0  0  0  0  0  0  0  0  0
   -5.1940   25.8390  -30.4690 C   0  0  0  0  0  0  0  0  0  0  0  0
   -5.9970   24.8950  -29.5730 C   0  0  0  0  0  0  0  0  0  0  0  0
   -6.7080   23.8520  -30.3950 C   0  0  0  0  0  0  0  0  0  0  0  0
   -6.5910   23.8450  -31.7950 C   0  0  0  0  0  0  0  0  0  0  0  0
   -7.2320   22.8610  -32.5520 C   0  0  0  0  0  0  0  0  0  0  0  0
   -7.9900   21.8710  -31.9150 C   0  0  0  0  0  0  0  0  0  0  0  0
   -8.1030   21.8630  -30.5230 C   0  0  0  0  0  0  0  0  0  0  0  0
   -7.4640   22.8480  -29.7620 C   0  0  0  0  0  0  0  0  0  0  0  0
   -2.1300   22.0480  -31.0780 C   0  0  0  0  0  0  0  0  0  0  0  0
   -1.1220   22.7330  -30.7520 O   0  0  0  0  0  0  0  0  0  0  0  0
   -2.0550   21.1420  -32.1320 C   0  0  0  0  0  0  0  0  0  0  0  0
   -0.9790   20.8380  -32.9430 C   0  0  0  0  0  0  0  0  0  0  0  0
   -1.4410   19.8730  -33.8270 C   0  0  0  0  0  0  0  0  0  0  0  0
   -2.7720   19.6360  -33.5170 C   0  0  0  0  0  0  0  0  0  0  0  0
   -3.1270   20.4190  -32.4780 N   0  0  0  0  0  0  0  0  0  0  0  0
   -6.7472   20.6919  -33.7697 H   0  0  0  0  0  0  0  0  0  0  0  0
   -5.0125   20.5047  -34.1970 H   0  0  0  0  0  0  0  0  0  0  0  0
   -6.0971   19.0728  -34.1970 H   0  0  0  0  0  0  0  0  0  0  0  0
   -6.3869   20.0930  -31.6115 H   0  0  0  0  0  0  0  0  0  0  0  0
   -5.3430   18.7023  -32.0966 H   0  0  0  0  0  0  0  0  0  0  0  0
   -4.5712   23.1625  -29.0411 H   0  0  0  0  0  0  0  0  0  0  0  0
   -2.8823   22.8355  -28.4803 H   0  0  0  0  0  0  0  0  0  0  0  0
   -5.1183   26.8238  -29.9847 H   0  0  0  0  0  0  0  0  0  0  0  0
   -5.7048   25.9370  -31.4383 H   0  0  0  0  0  0  0  0  0  0  0  0
   -5.3132   24.3960  -28.8706 H   0  0  0  0  0  0  0  0  0  0  0  0
   -6.7475   25.4832  -29.0246 H   0  0  0  0  0  0  0  0  0  0  0  0
   -5.9916   24.6182  -32.2978 H   0  0  0  0  0  0  0  0  0  0  0  0
   -7.1412   22.8641  -33.6482 H   0  0  0  0  0  0  0  0  0  0  0  0
   -8.4972   21.0985  -32.5117 H   0  0  0  0  0  0  0  0  0  0  0  0
   -8.6950   21.0814  -30.0244 H   0  0  0  0  0  0  0  0  0  0  0  0
   -7.5529   22.8375  -28.6656 H   0  0  0  0  0  0  0  0  0  0  0  0
    0.0316   21.2700  -32.8977 H   0  0  0  0  0  0  0  0  0  0  0  0
   -0.8601   19.3869  -34.6246 H   0  0  0  0  0  0  0  0  0  0  0  0
   -3.4316   18.9242  -34.0350 H   0  0  0  0  0  0  0  0  0  0  0  0
  1  2  1  0
  2  3  1  0
  3  4  2  0
  4  5  1  0
  5  6  1  0
  6  7  1  0
  7  8  2  0
  7  9  1  0
  9 10  1  0
 10 11  1  0
 11 12  1  0
 12 13  2  0
 13 14  1  0
 14 15  2  0
 15 16  1  0
 16 17  2  0
  5 18  1  0
 18 19  2  0
 18 20  1  0
 20 21  2  0
 21 22  1  0
 22 23  2  0
 23 24  1  0
 24  3  1  0
 17 12  1  0
 24 20  1  0
  1 25  1  0
  1 26  1  0
  1 27  1  0
  2 28  1  0
  2 29  1  0
  6 30  1  0
  6 31  1  0
 10 32  1  0
 10 33  1  0
 11 34  1  0
 11 35  1  0
 13 36  1  0
 14 37  1  0
 15 38  1  0
 16 39  1  0
 17 40  1  0
 21 41  1  0
 22 42  1  0
 23 43  1  0
M  CHG  1   9  -1
M  END
>  <UniqueID>  (17) 
17

>  <SMILES>  (17) 
CCc1nn(CC(=O)[N-]CCc2ccccc2)c(=O)c2cccn12

>  <Energy>  (17) 
69.87972268253745

>  <Genealogy>  (17) 
CCc1nn(CC(=O)[N-]CCc2ccccc2)c(=O)c2cccn12 (protonated)
CCc1nn(CC(=O)[N-]CCc2ccccc2)c(=O)c2cccn12 (3D coordinates assigned)
CCc1nn(CC(=O)[N-]CCc2ccccc2)c(=O)c2cccn12 (optimized conformer: 69.87972268253745 kcal/mol)

>  <smiles>  (17) 
CCc1nn(CC(=O)NCCc2ccccc2)c(=O)c2cccn12

>  <score_type>  (17) 
oracle

>  <origin>  (17) 
adg

>  <m_score__min__energy>  (17) 
-9.4399999999999995

>  <m_primary>  (17) 
energy

$$$$
18:0
     RDKit          3D

 72 75  0  0  0  0  0  0  0  0999 V2000
    0.4830   22.4780  -29.4212 H   0  0  0  0  0  0  0  0  0  0  0  0
   -0.6010   22.5920  -29.2730 C   0  0  0  0  0  0  0  0  0  0  0  0
   -1.4300   21.9280  -30.1060 C   0  0  0  0  0  0  0  0  0  0  0  0
   -2.7810   21.6630  -29.7110 N   0  0  0  0  0  0  0  0  0  0  0  0
   -3.1020   21.1100  -28.3830 C   0  0  0  0  0  0  0  0  0  0  0  0
   -3.0515   21.9186  -27.6390 H   0  0  0  0  0  0  0  0  0  0  0  0
   -4.1120   20.6767  -28.4283 H   0  0  0  0  0  0  0  0  0  0  0  0
   -2.1260   20.0010  -27.9770 C   0  0  0  0  0  0  0  0  0  0  0  0
   -2.0740   19.9419  -26.8798 H   0  0  0  0  0  0  0  0  0  0  0  0
   -2.4759   19.0391  -28.3798 H   0  0  0  0  0  0  0  0  0  0  0  0
   -1.1274   20.2258  -28.3798 H   0  0  0  0  0  0  0  0  0  0  0  0
   -3.7910   21.8370  -30.7130 C   0  0  0  0  0  0  0  0  0  0  0  0
   -5.0830   22.2620  -30.3520 C   0  0  0  0  0  0  0  0  0  0  0  0
   -5.3459   22.3630  -29.2887 H   0  0  0  0  0  0  0  0  0  0  0  0
   -6.0320   22.5560  -31.3280 C   0  0  0  0  0  0  0  0  0  0  0  0
   -7.0423   22.8773  -31.0346 H   0  0  0  0  0  0  0  0  0  0  0  0
   -5.7010   22.4430  -32.6730 C   0  0  0  0  0  0  0  0  0  0  0  0
   -6.4425   22.6997  -33.4439 H   0  0  0  0  0  0  0  0  0  0  0  0
   -4.4310   22.0050  -33.0480 C   0  0  0  0  0  0  0  0  0  0  0  0
   -4.1785   21.9322  -34.1161 H   0  0  0  0  0  0  0  0  0  0  0  0
   -3.4600   21.6520  -32.0780 C   0  0  0  0  0  0  0  0  0  0  0  0
   -2.0960   21.0300  -32.4750 C   0  0  1  0  0  0  0  0  0  0  0  0
   -1.6380   21.5920  -33.8520 C   0  0  0  0  0  0  0  0  0  0  0  0
   -0.9504   22.4358  -33.6933 H   0  0  0  0  0  0  0  0  0  0  0  0
   -1.1237   20.8013  -34.4180 H   0  0  0  0  0  0  0  0  0  0  0  0
   -2.5162   21.9361  -34.4180 H   0  0  0  0  0  0  0  0  0  0  0  0
   -0.9540   21.3580  -31.4320 C   0  0  2  0  0  0  0  0  0  0  0  0
   -0.3181   22.1409  -31.8711 H   0  0  0  0  0  0  0  0  0  0  0  0
   -0.2360   20.0340  -31.1590 C   0  0  0  0  0  0  0  0  0  0  0  0
    0.1584   20.0126  -30.1324 H   0  0  0  0  0  0  0  0  0  0  0  0
    0.6230   19.8838  -31.8295 H   0  0  0  0  0  0  0  0  0  0  0  0
   -1.2930   18.9710  -31.3440 C   0  0  0  0  0  0  0  0  0  0  0  0
   -1.9324   18.8968  -30.4520 H   0  0  0  0  0  0  0  0  0  0  0  0
   -0.8629   17.9700  -31.4956 H   0  0  0  0  0  0  0  0  0  0  0  0
   -2.0970   19.4510  -32.5480 C   0  0  1  0  0  0  0  0  0  0  0  0
   -1.6674   19.2477  -33.5400 H   0  0  0  0  0  0  0  0  0  0  0  0
   -3.3950   18.6020  -32.7690 C   0  0  2  0  0  0  0  0  0  0  0  0
   -3.0909   17.5903  -32.4625 H   0  0  0  0  0  0  0  0  0  0  0  0
   -3.8180   18.5620  -34.2440 C   0  0  0  0  0  0  0  0  0  0  0  0
   -4.9112   18.4586  -34.3093 H   0  0  0  0  0  0  0  0  0  0  0  0
   -3.5075   19.4935  -34.7399 H   0  0  0  0  0  0  0  0  0  0  0  0
   -3.3384   17.7052  -34.7399 H   0  0  0  0  0  0  0  0  0  0  0  0
   -4.5930   18.9320  -31.8390 C   0  0  0  0  0  0  0  0  0  0  0  0
   -4.7670   20.0180  -31.8565 H   0  0  0  0  0  0  0  0  0  0  0  0
   -4.3415   18.5845  -30.8261 H   0  0  0  0  0  0  0  0  0  0  0  0
   -5.8830   18.2150  -32.2800 C   0  0  0  0  0  0  0  0  0  0  0  0
   -6.2915   17.6684  -31.4173 H   0  0  0  0  0  0  0  0  0  0  0  0
   -5.6159   17.5411  -33.1074 H   0  0  0  0  0  0  0  0  0  0  0  0
   -6.9630   19.1780  -32.8050 C   0  0  0  0  0  0  0  0  0  0  0  0
   -7.3000   18.8112  -33.7858 H   0  0  0  0  0  0  0  0  0  0  0  0
   -6.4941   20.1721  -32.8487 H   0  0  0  0  0  0  0  0  0  0  0  0
   -8.1990   19.3240  -31.8990 C   0  0  0  0  0  0  0  0  0  0  0  0
   -7.8578   19.5000  -30.8682 H   0  0  0  0  0  0  0  0  0  0  0  0
   -8.7814   18.3952  -31.9892 H   0  0  0  0  0  0  0  0  0  0  0  0
   -9.1150   20.4750  -32.3100 C   0  0  0  0  0  0  0  0  0  0  0  0
   -9.5087   20.9697  -31.4098 H   0  0  0  0  0  0  0  0  0  0  0  0
   -8.5453   21.2014  -32.9081 H   0  0  0  0  0  0  0  0  0  0  0  0
   -9.9508   20.0829  -32.9081 H   0  0  0  0  0  0  0  0  0  0  0  0
   -1.0650   23.4620  -28.1750 C   0  0  0  0  0  0  0  0  0  0  0  0
   -1.9810   24.5030  -28.4050 C   0  0  0  0  0  0  0  0  0  0  0  0
   -2.4880   24.7150  -29.6930 O   0  0  0  0  0  0  0  0  0  0  0  0
   -3.8720   24.9120  -29.9530 C   0  0  0  0  0  0  0  0  0  0  0  0
   -4.4166   24.9895  -29.0004 H   0  0  0  0  0  0  0  0  0  0  0  0
   -4.0085   25.8386  -30.5298 H   0  0  0  0  0  0  0  0  0  0  0  0
   -4.2616   24.0603  -30.5298 H   0  0  0  0  0  0  0  0  0  0  0  0
   -2.3700   25.2980  -27.3690 N   0  0  0  0  0  0  0  0  0  0  0  0
   -1.9080   25.1100  -26.1040 C   0  0  0  0  0  0  0  0  0  0  0  0
   -2.2360   25.7784  -25.2943 H   0  0  0  0  0  0  0  0  0  0  0  0
   -1.0190   24.0710  -25.8320 C   0  0  0  0  0  0  0  0  0  0  0  0
   -0.6493   23.9094  -24.8087 H   0  0  0  0  0  0  0  0  0  0  0  0
   -0.6030   23.2380  -26.8720 C   0  0  0  0  0  0  0  0  0  0  0  0
    0.0873   22.4061  -26.6682 H   0  0  0  0  0  0  0  0  0  0  0  0
  1  2  1  0
  2  3  2  0
  3  4  1  0
  4  5  1  0
  5  6  1  0
  5  7  1  0
  5  8  1  0
  8  9  1  0
  8 10  1  0
  8 11  1  0
  4 12  1  0
 12 13  2  0
 13 14  1  0
 13 15  1  0
 15 16  1  0
 15 17  2  0
 17 18  1  0
 17 19  1  0
 19 20  1  0
 19 21  2  0
 21 22  1  0
 22 23  1  6
 23 24  1  0
 23 25  1  0
 23 26  1  0
 22 27  1  0
 27 28  1  6
 27 29  1  0
 29 30  1  0
 29 31  1  0
 29 32  1  0
 32 33  1  0
 32 34  1  0
 32 35  1  0
 35 36  1  6
 35 37  1  0
 37 38  1  1
 37 39  1  0
 39 40  1  0
 39 41  1  0
 39 42  1  0
 37 43  1  0
 43 44  1  0
 43 45  1  0
 43 46  1  0
 46 47  1  0
 46 48  1  0
 46 49  1  0
 49 50  1  0
 49 51  1  0
 49 52  1  0
 52 53  1  0
 52 54  1  0
 52 55  1  0
 55 56  1  0
 55 57  1  0
 55 58  1  0
  2 59  1  0
 59 60  2  0
 60 61  1  0
 61 62  1  0
 62 63  1  0
 62 64  1  0
 62 65  1  0
 60 66  1  0
 66 67  2  0
 67 68  1  0
 67 69  1  0
 69 70  1  0
 69 71  2  0
 71 72  1  0
 27  3  1  0
 71 59  1  0
 21 12  1  0
 35 22  1  0
M  END
>  <UniqueID>  (18) 
18

>  <SMILES>  (18) 
CCCCC[C@@H](C)[C@@H]1CCC2/C(=C\c3cccnc3OC)N(CC)c3ccccc3C21C

>  <Energy>  (18) 
98.49468500725324

>  <Genealogy>  (18) 
CCCCC[C@@H](C)[C@@H]1CCC2C(=Cc3cccnc3OC)N(CC)c3ccccc3C21C (chirality)
CCCCC[C@@H](C)[C@@H]1CCC2/C(=C\c3cccnc3OC)N(CC)c3ccccc3C21C (cis-trans isomerization)
CCCCC[C@@H](C)[C@@H]1CCC2/C(=C\c3cccnc3OC)N(CC)c3ccccc3C21C (3D coordinates assigned)
CCCCC[C@@H](C)[C@@H]1CCC2/C(=C\c3cccnc3OC)N(CC)c3ccccc3C21C (nonaromatic ring conformer: 98.49468500725324 kcal/mol)

>  <smiles>  (18) 
CCCCCC(C)C1CCC2C(=Cc3cccnc3OC)N(CC)c3ccccc3C21C

>  <score_type>  (18) 
oracle

>  <origin>  (18) 
adg

>  <m_score__min__energy>  (18) 
-8.2100000000000009

>  <m_primary>  (18) 
energy

$$$$
19:0
     RDKit          3D

 46 49  0  0  0  0  0  0  0  0999 V2000
   -6.1840   20.3390  -31.6950 C   0  0  0  0  0  0  0  0  0  0  0  0
   -4.7430   20.1560  -31.8710 N   0  0  0  0  0  0  0  0  0  0  0  0
   -4.0780   19.1110  -32.4440 C   0  0  0  0  0  0  0  0  0  0  0  0
   -4.7210   17.9330  -33.0670 C   0  0  0  0  0  0  0  0  0  0  0  0
   -5.8160   18.1050  -33.9260 C   0  0  0  0  0  0  0  0  0  0  0  0
   -6.4400   16.9950  -34.4960 C   0  0  0  0  0  0  0  0  0  0  0  0
   -5.9730   15.7170  -34.1890 C   0  0  0  0  0  0  0  0  0  0  0  0
   -4.9280   15.5610  -33.3360 N   0  0  0  0  0  0  0  0  0  0  0  0
   -4.3000   16.6270  -32.7710 C   0  0  0  0  0  0  0  0  0  0  0  0
   -2.7260   19.2440  -32.3890 N   0  0  0  0  0  0  0  0  0  0  0  0
   -2.5590   20.4320  -31.7820 C   0  0  0  0  0  0  0  0  0  0  0  0
   -1.3580   21.0620  -31.4710 C   0  0  0  0  0  0  0  0  0  0  0  0
   -1.4180   22.3120  -30.8300 C   0  0  0  0  0  0  0  0  0  0  0  0
   -2.6690   22.9100  -30.5270 C   0  0  0  0  0  0  0  0  0  0  0  0
   -2.7310   24.2140  -29.8420 C   0  0  0  0  0  0  0  0  0  0  0  0
   -1.9970   24.4150  -28.8400 O   0  0  0  0  0  0  0  0  0  0  0  0
   -3.6250   25.2530  -30.2600 N   0  0  0  0  0  0  0  0  0  0  0  0
   -5.0740   25.2260  -30.0820 C   0  0  0  0  0  0  0  0  0  0  0  0
   -5.7600   24.8510  -31.3970 C   0  0  0  0  0  0  0  0  0  0  0  0
   -6.8230   23.8050  -31.1830 C   0  0  0  0  0  0  0  0  0  0  0  0
   -7.0280   23.2490  -29.9100 C   0  0  0  0  0  0  0  0  0  0  0  0
   -8.0360   22.3010  -29.7100 C   0  0  0  0  0  0  0  0  0  0  0  0
   -8.8510   21.9080  -30.7750 C   0  0  0  0  0  0  0  0  0  0  0  0
   -8.6600   22.4650  -32.0430 C   0  0  0  0  0  0  0  0  0  0  0  0
   -7.6520   23.4130  -32.2470 C   0  0  0  0  0  0  0  0  0  0  0  0
   -3.8650   22.2270  -30.8390 C   0  0  0  0  0  0  0  0  0  0  0  0
   -3.7650   20.9880  -31.4750 C   0  0  0  0  0  0  0  0  0  0  0  0
   -6.4213   20.3691  -30.6213 H   0  0  0  0  0  0  0  0  0  0  0  0
   -6.4938   21.2837  -32.1657 H   0  0  0  0  0  0  0  0  0  0  0  0
   -6.7201   19.5017  -32.1657 H   0  0  0  0  0  0  0  0  0  0  0  0
   -6.1837   19.1171  -34.1508 H   0  0  0  0  0  0  0  0  0  0  0  0
   -7.2912   17.1263  -35.1802 H   0  0  0  0  0  0  0  0  0  0  0  0
   -6.4518   14.8345  -34.6384 H   0  0  0  0  0  0  0  0  0  0  0  0
   -3.4596   16.4652  -32.0800 H   0  0  0  0  0  0  0  0  0  0  0  0
   -0.3924   20.5970  -31.7187 H   0  0  0  0  0  0  0  0  0  0  0  0
   -0.4865   22.8314  -30.5608 H   0  0  0  0  0  0  0  0  0  0  0  0
   -5.3320   24.4833  -29.3127 H   0  0  0  0  0  0  0  0  0  0  0  0
   -5.4163   26.2237  -29.7699 H   0  0  0  0  0  0  0  0  0  0  0  0
   -6.2243   25.7504  -31.8278 H   0  0  0  0  0  0  0  0  0  0  0  0
   -5.0011   24.4393  -32.0786 H   0  0  0  0  0  0  0  0  0  0  0  0
   -6.3934   23.5604  -29.0672 H   0  0  0  0  0  0  0  0  0  0  0  0
   -8.1879   21.8636  -28.7122 H   0  0  0  0  0  0  0  0  0  0  0  0
   -9.6424   21.1608  -30.6157 H   0  0  0  0  0  0  0  0  0  0  0  0
   -9.3029   22.1575  -32.8809 H   0  0  0  0  0  0  0  0  0  0  0  0
   -7.5079   23.8533  -33.2447 H   0  0  0  0  0  0  0  0  0  0  0  0
   -4.8456   22.6580  -30.5886 H   0  0  0  0  0  0  0  0  0  0  0  0
  1  2  1  0
  2  3  1  0
  3  4  1  0
  4  5  2  0
  5  6  1  0
  6  7  2  0
  7  8  1  0
  8  9  2  0
  3 10  2  0
 10 11  1  0
 11 12  2  0
 12 13  1  0
 13 14  2  0
 14 15  1  0
 15 16  2  0
 15 17  1  0
 17 18  1  0
 18 19  1  0
 19 20  1  0
 20 21  2  0
 21 22  1  0
 22 23  2  0
 23 24  1  0
 24 25  2  0
 14 26  1  0
 26 27  2  0
 27  2  1  0
  9  4  1  0
 27 11  1  0
 25 20  1  0
  1 28  1  0
  1 29  1  0
  1 30  1  0
  5 31  1  0
  6 32  1  0
  7 33  1  0
  9 34  1  0
 12 35  1  0
 13 36  1  0
 18 37  1  0
 18 38  1  0
 19 39  1  0
 19 40  1  0
 21 41  1  0
 22 42  1  0
 23 43  1  0
 24 44  1  0
 25 45  1  0
 26 46  1  0
M  CHG  1  17  -1
M  END
>  <UniqueID>  (19) 
19

>  <SMILES>  (19) 
Cn1c(-c2cccnc2)nc2ccc(C(=O)[N-]CCc3ccccc3)cc21

>  <Energy>  (19) 
94.72726129241656

>  <Genealogy>  (19) 
Cn1c(-c2cccnc2)nc2ccc(C(=O)[N-]CCc3ccccc3)cc21 (protonated)
Cn1c(-c2cccnc2)nc2ccc(C(=O)[N-]CCc3ccccc3)cc21 (3D coordinates assigned)
Cn1c(-c2cccnc2)nc2ccc(C(=O)[N-]CCc3ccccc3)cc21 (optimized conformer: 94.72726129241656 kcal/mol)

>  <smiles>  (19) 
Cn1c(-c2cccnc2)nc2ccc(C(=O)NCCc3ccccc3)cc21

>  <score_type>  (19) 
oracle

>  <origin>  (19) 
adg

>  <m_score__min__energy>  (19) 
-11.050000000000001

>  <m_primary>  (19) 
energy

$$$$
20:0
     RDKit          3D

 50 52  0  0  0  0  0  0  0  0999 V2000
   -3.8530   24.2670  -27.1100 C   0  0  0  0  0  0  0  0  0  0  0  0
   -3.5330   24.3900  -28.2660 C   0  0  0  0  0  0  0  0  0  0  0  0
   -3.1470   24.5380  -29.6740 C   0  0  0  0  0  0  0  0  0  0  0  0
   -4.2810   24.8780  -30.4680 O   0  0  0  0  0  0  0  0  0  0  0  0
   -5.3020   23.9900  -30.8450 C   0  0  0  0  0  0  0  0  0  0  0  0
   -5.7380   23.8520  -32.1760 C   0  0  0  0  0  0  0  0  0  0  0  0
   -6.7170   22.9080  -32.5010 C   0  0  0  0  0  0  0  0  0  0  0  0
   -7.2390   22.0590  -31.5170 C   0  0  0  0  0  0  0  0  0  0  0  0
   -8.3930   20.7890  -31.9540 S   0  0  0  0  0  0  0  0  0  0  0  0
   -8.9490   20.1800  -30.6960 O   0  0  0  0  0  0  0  0  0  0  0  0
   -9.5320   21.4370  -32.6900 O   0  0  0  0  0  0  0  0  0  0  0  0
   -7.7270   19.5090  -32.9600 N   0  0  0  0  0  0  0  0  0  0  0  0
   -7.0690   18.4320  -32.2080 C   0  0  0  0  0  0  0  0  0  0  0  0
   -5.8200   18.9140  -31.4770 C   0  0  0  0  0  0  0  0  0  0  0  0
   -5.0300   19.8890  -32.2520 N   0  0  0  0  0  0  0  0  0  0  0  0
   -3.8240   20.4630  -31.6640 C   0  0  0  0  0  0  0  0  0  0  0  0
   -2.7520   20.9010  -32.4750 C   0  0  0  0  0  0  0  0  0  0  0  0
   -1.6420   21.5440  -31.9210 C   0  0  0  0  0  0  0  0  0  0  0  0
   -1.5580   21.7480  -30.5350 C   0  0  0  0  0  0  0  0  0  0  0  0
   -0.4800   22.4160  -29.9350 O   0  0  0  0  0  0  0  0  0  0  0  0
   -0.3260   22.5890  -28.5300 C   0  0  0  0  0  0  0  0  0  0  0  0
   -2.5830   21.2720  -29.7170 C   0  0  0  0  0  0  0  0  0  0  0  0
   -3.6960   20.6320  -30.2660 C   0  0  0  0  0  0  0  0  0  0  0  0
   -5.3790   20.2180  -33.6510 C   0  0  0  0  0  0  0  0  0  0  0  0
   -6.8630   20.0120  -34.0400 C   0  0  0  0  0  0  0  0  0  0  0  0
   -6.8550   22.2450  -30.1810 C   0  0  0  0  0  0  0  0  0  0  0  0
   -5.8950   23.2050  -29.8500 C   0  0  0  0  0  0  0  0  0  0  0  0
   -4.1449   24.1548  -26.0554 H   0  0  0  0  0  0  0  0  0  0  0  0
   -2.3922   25.3334  -29.7610 H   0  0  0  0  0  0  0  0  0  0  0  0
   -2.7341   23.5836  -30.0326 H   0  0  0  0  0  0  0  0  0  0  0  0
   -5.3074   24.4886  -32.9629 H   0  0  0  0  0  0  0  0  0  0  0  0
   -7.0797   22.8317  -33.5367 H   0  0  0  0  0  0  0  0  0  0  0  0
   -8.5590   19.0730  -33.4230 H   0  0  0  0  0  0  0  0  0  0  0  0
   -7.7789   18.0321  -31.4690 H   0  0  0  0  0  0  0  0  0  0  0  0
   -6.7599   17.6599  -32.9279 H   0  0  0  0  0  0  0  0  0  0  0  0
   -6.1286   19.3865  -30.5328 H   0  0  0  0  0  0  0  0  0  0  0  0
   -5.1801   18.0348  -31.3109 H   0  0  0  0  0  0  0  0  0  0  0  0
   -2.7925   20.7326  -33.5613 H   0  0  0  0  0  0  0  0  0  0  0  0
   -0.8291   21.8924  -32.5751 H   0  0  0  0  0  0  0  0  0  0  0  0
   -0.9667   21.8692  -27.9995 H   0  0  0  0  0  0  0  0  0  0  0  0
    0.7247   22.4185  -28.2526 H   0  0  0  0  0  0  0  0  0  0  0  0
   -0.6170   23.6129  -28.2526 H   0  0  0  0  0  0  0  0  0  0  0  0
   -2.5136   21.4024  -28.6270 H   0  0  0  0  0  0  0  0  0  0  0  0
   -4.4857   20.2533  -29.6004 H   0  0  0  0  0  0  0  0  0  0  0  0
   -5.1287   21.2754  -33.8218 H   0  0  0  0  0  0  0  0  0  0  0  0
   -4.8058   19.5168  -34.2753 H   0  0  0  0  0  0  0  0  0  0  0  0
   -7.2649   20.9795  -34.3754 H   0  0  0  0  0  0  0  0  0  0  0  0
   -6.8702   19.2396  -34.8232 H   0  0  0  0  0  0  0  0  0  0  0  0
   -7.3117   21.6322  -29.3899 H   0  0  0  0  0  0  0  0  0  0  0  0
   -5.6031   23.3447  -28.7987 H   0  0  0  0  0  0  0  0  0  0  0  0
  1  2  3  0
  2  3  1  0
  3  4  1  0
  4  5  1  0
  5  6  2  0
  6  7  1  0
  7  8  2  0
  8  9  1  0
  9 10  2  0
  9 11  2  0
  9 12  1  0
 12 13  1  0
 13 14  1  0
 14 15  1  0
 15 16  1  0
 16 17  2  0
 17 18  1  0
 18 19  2  0
 19 20  1  0
 20 21  1  0
 19 22  1  0
 22 23  2  0
 15 24  1  0
 24 25  1  0
  8 26  1  0
 26 27  2  0
 27  5  1  0
 25 12  1  0
 23 16  1  0
  1 28  1  0
  3 29  1  0
  3 30  1  0
  6 31  1  0
  7 32  1  0
 12 33  1  0
 13 34  1  0
 13 35  1  0
 14 36  1  0
 14 37  1  0
 17 38  1  0
 18 39  1  0
 21 40  1  0
 21 41  1  0
 21 42  1  0
 22 43  1  0
 23 44  1  0
 24 45  1  0
 24 46  1  0
 25 47  1  0
 25 48  1  0
 26 49  1  0
 27 50  1  0
M  CHG  1  12   1
M  END
>  <UniqueID>  (20) 
20

>  <SMILES>  (20) 
C#CCOc1ccc(S(=O)(=O)[NH+]2CCN(c3ccc(OC)cc3)CC2)cc1

>  <Energy>  (20) 
57.711218028015004

>  <Genealogy>  (20) 
C#CCOc1ccc(S(=O)(=O)[NH+]2CCN(c3ccc(OC)cc3)CC2)cc1 (protonated)
C#CCOc1ccc(S(=O)(=O)[NH+]2CCN(c3ccc(OC)cc3)CC2)cc1 (3D coordinates assigned)
C#CCOc1ccc(S(=O)(=O)[NH+]2CCN(c3ccc(OC)cc3)CC2)cc1 (nonaromatic ring conformer: 57.711218028015004 kcal/mol)

>  <smiles>  (20) 
C#CCOc1ccc(S(=O)(=O)N2CCN(c3ccc(OC)cc3)CC2)cc1

>  <score_type>  (20) 
oracle

>  <origin>  (20) 
adg

>  <m_score__min__energy>  (20) 
-7.4400000000000004

>  <m_primary>  (20) 
energy

$$$$
21:0
     RDKit          3D

 38 40  0  0  0  0  0  0  0  0999 V2000
   -1.9890   21.1190  -27.0440 C   0  0  0  0  0  0  0  0  0  0  0  0
   -2.4810   22.2320  -27.9190 C   0  0  0  0  0  0  0  0  0  0  0  0
   -1.9490   22.4020  -29.2050 C   0  0  0  0  0  0  0  0  0  0  0  0
   -2.4320   23.4120  -30.0400 C   0  0  0  0  0  0  0  0  0  0  0  0
   -3.4610   24.2590  -29.6120 C   0  0  0  0  0  0  0  0  0  0  0  0
   -3.9180   25.2480  -30.4980 O   0  0  0  0  0  0  0  0  0  0  0  0
   -5.2230   25.3000  -31.0750 C   0  0  0  0  0  0  0  0  0  0  0  0
   -6.0040   24.0710  -30.7090 C   0  0  0  0  0  0  0  0  0  0  0  0
   -6.7990   24.1180  -29.7310 O   0  0  0  0  0  0  0  0  0  0  0  0
   -5.9330   22.8770  -31.5090 N   0  0  0  0  0  0  0  0  0  0  0  0
   -4.6190   22.5540  -32.0830 C   0  0  0  0  0  0  0  0  0  0  0  0
   -4.4180   21.0480  -32.1970 C   0  0  0  0  0  0  0  0  0  0  0  0
   -5.5500   20.4230  -33.4600 S   0  0  0  0  0  0  0  0  0  0  0  0
   -7.0320   20.8850  -32.5530 C   0  0  0  0  0  0  0  0  0  0  0  0
   -8.1490   20.0490  -32.6790 C   0  0  0  0  0  0  0  0  0  0  0  0
   -9.3740   20.4150  -32.1240 C   0  0  0  0  0  0  0  0  0  0  0  0
   -9.4950   21.6270  -31.4470 C   0  0  0  0  0  0  0  0  0  0  0  0
   -8.3840   22.4570  -31.2890 C   0  0  0  0  0  0  0  0  0  0  0  0
   -7.1190   22.0850  -31.8000 C   0  0  0  0  0  0  0  0  0  0  0  0
   -3.9950   24.0890  -28.3210 C   0  0  0  0  0  0  0  0  0  0  0  0
   -3.5150   23.0750  -27.4870 C   0  0  0  0  0  0  0  0  0  0  0  0
   -2.1134   21.4005  -25.9879 H   0  0  0  0  0  0  0  0  0  0  0  0
   -2.5677   20.2067  -27.2510 H   0  0  0  0  0  0  0  0  0  0  0  0
   -0.9248   20.9330  -27.2510 H   0  0  0  0  0  0  0  0  0  0  0  0
   -1.1473   21.7367  -29.5580 H   0  0  0  0  0  0  0  0  0  0  0  0
   -1.9999   23.5431  -31.0430 H   0  0  0  0  0  0  0  0  0  0  0  0
   -5.7502   26.1898  -30.7005 H   0  0  0  0  0  0  0  0  0  0  0  0
   -5.1284   25.3510  -32.1697 H   0  0  0  0  0  0  0  0  0  0  0  0
   -4.5462   23.0018  -33.0851 H   0  0  0  0  0  0  0  0  0  0  0  0
   -3.8415   22.9580  -31.4179 H   0  0  0  0  0  0  0  0  0  0  0  0
   -3.3794   20.8316  -32.4875 H   0  0  0  0  0  0  0  0  0  0  0  0
   -4.6204   20.5628  -31.2308 H   0  0  0  0  0  0  0  0  0  0  0  0
   -8.0585   19.0958  -33.2205 H   0  0  0  0  0  0  0  0  0  0  0  0
  -10.2437   19.7484  -32.2202 H   0  0  0  0  0  0  0  0  0  0  0  0
  -10.4691   21.9305  -31.0359 H   0  0  0  0  0  0  0  0  0  0  0  0
   -8.4941   23.4147  -30.7591 H   0  0  0  0  0  0  0  0  0  0  0  0
   -4.7938   24.7571  -27.9666 H   0  0  0  0  0  0  0  0  0  0  0  0
   -3.9508   22.9376  -26.4864 H   0  0  0  0  0  0  0  0  0  0  0  0
  1  2  1  0
  2  3  2  0
  3  4  1  0
  4  5  2  0
  5  6  1  0
  6  7  1  0
  7  8  1  0
  8  9  2  0
  8 10  1  0
 10 11  1  0
 11 12  1  0
 12 13  1  0
 13 14  1  0
 14 15  2  0
 15 16  1  0
 16 17  2  0
 17 18  1  0
 18 19  2  0
  5 20  1  0
 20 21  2  0
 21  2  1  0
 19 10  1  0
 19 14  1  0
  1 22  1  0
  1 23  1  0
  1 24  1  0
  3 25  1  0
  4 26  1  0
  7 27  1  0
  7 28  1  0
 11 29  1  0
 11 30  1  0
 12 31  1  0
 12 32  1  0
 15 33  1  0
 16 34  1  0
 17 35  1  0
 18 36  1  0
 20 37  1  0
 21 38  1  0
M  END
>  <UniqueID>  (21) 
21

>  <SMILES>  (21) 
Cc1ccc(OCC(=O)N2CCSc3ccccc32)cc1

>  <Energy>  (21) 
50.80298397881607

>  <Genealogy>  (21) 
Cc1ccc(OCC(=O)N2CCSc3ccccc32)cc1 (3D coordinates assigned)
Cc1ccc(OCC(=O)N2CCSc3ccccc32)cc1 (nonaromatic ring conformer: 50.80298397881607 kcal/mol)

>  <smiles>  (21) 
Cc1ccc(OCC(=O)N2CCSc3ccccc32)cc1

>  <score_type>  (21) 
oracle

>  <origin>  (21) 
adg

>  <m_score__min__energy>  (21) 
-8.3900000000000006

>  <m_primary>  (21) 
energy

$$$$
22:0
     RDKit          3D

 43 45  0  0  0  0  0  0  0  0999 V2000
   -6.1350   17.0790  -30.7270 O   0  0  0  0  0  0  0  0  0  0  0  0
   -5.9440   16.7710  -32.0810 C   0  0  0  0  0  0  0  0  0  0  0  0
   -7.2360   17.0700  -32.8730 C   0  0  0  0  0  0  0  0  0  0  0  0
   -7.5710   18.5110  -33.0100 N   0  0  0  0  0  0  0  0  0  0  0  0
   -6.4190   19.3550  -33.4330 C   0  0  0  0  0  0  0  0  0  0  0  0
   -5.8600   20.2090  -32.2780 C   0  0  0  0  0  0  0  0  0  0  0  0
   -6.8930   21.0870  -31.6680 N   0  0  0  0  0  0  0  0  0  0  0  0
   -6.8060   22.4780  -32.1590 C   0  0  0  0  0  0  0  0  0  0  0  0
   -5.7190   23.2250  -31.4310 C   0  0  0  0  0  0  0  0  0  0  0  0
   -5.8850   24.5900  -31.1320 C   0  0  0  0  0  0  0  0  0  0  0  0
   -4.8880   25.2880  -30.4420 C   0  0  0  0  0  0  0  0  0  0  0  0
   -3.7230   24.6280  -30.0470 C   0  0  0  0  0  0  0  0  0  0  0  0
   -3.5380   23.2760  -30.3650 C   0  0  0  0  0  0  0  0  0  0  0  0
   -4.5370   22.5710  -31.0420 C   0  0  0  0  0  0  0  0  0  0  0  0
   -2.3440   22.6480  -29.9970 O   0  0  0  0  0  0  0  0  0  0  0  0
   -1.2150   23.4090  -29.5580 C   0  0  0  0  0  0  0  0  0  0  0  0
   -1.6730   24.5830  -28.6830 C   0  0  0  0  0  0  0  0  0  0  0  0
   -2.7290   25.3000  -29.3290 O   0  0  0  0  0  0  0  0  0  0  0  0
   -8.2740   20.5690  -31.8090 C   0  0  0  0  0  0  0  0  0  0  0  0
   -8.2940   19.0360  -31.8240 C   0  0  0  0  0  0  0  0  0  0  0  0
   -5.7910   16.3060  -30.2070 H   0  0  0  0  0  0  0  0  0  0  0  0
   -5.1208   17.3807  -32.4816 H   0  0  0  0  0  0  0  0  0  0  0  0
   -5.6966   15.7037  -32.1793 H   0  0  0  0  0  0  0  0  0  0  0  0
   -7.1220   16.6490  -33.8828 H   0  0  0  0  0  0  0  0  0  0  0  0
   -8.0586   16.6169  -32.3003 H   0  0  0  0  0  0  0  0  0  0  0  0
   -8.2600   18.5520  -33.8000 H   0  0  0  0  0  0  0  0  0  0  0  0
   -5.6189   18.6989  -33.8064 H   0  0  0  0  0  0  0  0  0  0  0  0
   -6.7758   20.0414  -34.2150 H   0  0  0  0  0  0  0  0  0  0  0  0
   -5.4648   19.5373  -31.5017 H   0  0  0  0  0  0  0  0  0  0  0  0
   -5.0727   20.8564  -32.6915 H   0  0  0  0  0  0  0  0  0  0  0  0
   -6.5809   22.4689  -33.2357 H   0  0  0  0  0  0  0  0  0  0  0  0
   -7.7674   22.9810  -31.9780 H   0  0  0  0  0  0  0  0  0  0  0  0
   -6.8030   25.1107  -31.4422 H   0  0  0  0  0  0  0  0  0  0  0  0
   -5.0219   26.3551  -30.2111 H   0  0  0  0  0  0  0  0  0  0  0  0
   -4.3983   21.5040  -31.2705 H   0  0  0  0  0  0  0  0  0  0  0  0
   -0.5451   22.7607  -28.9741 H   0  0  0  0  0  0  0  0  0  0  0  0
   -0.6849   23.8033  -30.4375 H   0  0  0  0  0  0  0  0  0  0  0  0
   -2.0333   24.1975  -27.7178 H   0  0  0  0  0  0  0  0  0  0  0  0
   -0.8236   25.2633  -28.5230 H   0  0  0  0  0  0  0  0  0  0  0  0
   -8.8794   20.9272  -30.9633 H   0  0  0  0  0  0  0  0  0  0  0  0
   -8.6856   20.9314  -32.7626 H   0  0  0  0  0  0  0  0  0  0  0  0
   -7.8096   18.6600  -30.9107 H   0  0  0  0  0  0  0  0  0  0  0  0
   -9.3396   18.6974  -31.8699 H   0  0  0  0  0  0  0  0  0  0  0  0
  1  2  1  0
  2  3  1  0
  3  4  1  0
  4  5  1  0
  5  6  1  0
  6  7  1  0
  7  8  1  0
  8  9  1  0
  9 10  2  0
 10 11  1  0
 11 12  2  0
 12 13  1  0
 13 14  2  0
 13 15  1  0
 15 16  1  0
 16 17  1  0
 17 18  1  0
  7 19  1  0
 19 20  1  0
 20  4  1  0
 14  9  1  0
 18 12  1  0
  1 21  1  0
  2 22  1  0
  2 23  1  0
  3 24  1  0
  3 25  1  0
  4 26  1  0
  5 27  1  0
  5 28  1  0
  6 29  1  0
  6 30  1  0
  8 31  1  0
  8 32  1  0
 10 33  1  0
 11 34  1  0
 14 35  1  0
 16 36  1  0
 16 37  1  0
 17 38  1  0
 17 39  1  0
 19 40  1  0
 19 41  1  0
 20 42  1  0
 20 43  1  0
M  CHG  1   4   1
M  END
>  <UniqueID>  (22) 
22

>  <SMILES>  (22) 
OCC[NH+]1CCN(Cc2ccc3c(c2)OCCO3)CC1

>  <Energy>  (22) 
59.186777017295

>  <Genealogy>  (22) 
OCC[NH+]1CCN(Cc2ccc3c(c2)OCCO3)CC1 (protonated)
OCC[NH+]1CCN(Cc2ccc3c(c2)OCCO3)CC1 (3D coordinates assigned)
OCC[NH+]1CCN(Cc2ccc3c(c2)OCCO3)CC1 (nonaromatic ring conformer: 59.186777017295 kcal/mol)

>  <smiles>  (22) 
OCCN1CCN(Cc2ccc3c(c2)OCCO3)CC1

>  <score_type>  (22) 
oracle

>  <origin>  (22) 
adg

>  <m_score__min__energy>  (22) 
-7.21

>  <m_primary>  (22) 
energy

$$$$
23:0
     RDKit          3D

 48 49  0  0  0  0  0  0  0  0999 V2000
   -1.9963   19.6536  -29.9601 H   0  0  0  0  0  0  0  0  0  0  0  0
   -2.6720   20.4240  -30.3600 C   0  0  0  0  0  0  0  0  0  0  0  0
   -3.6500   20.0480  -31.1280 N   0  0  0  0  0  0  0  0  0  0  0  0
   -3.5900   20.1250  -32.5030 O   0  0  0  0  0  0  0  0  0  0  0  0
   -4.7740   20.2610  -33.2780 C   0  0  0  0  0  0  0  0  0  0  0  0
   -4.4979   20.4955  -34.3167 H   0  0  0  0  0  0  0  0  0  0  0  0
   -5.3327   19.3147  -33.2292 H   0  0  0  0  0  0  0  0  0  0  0  0
   -5.6520   21.3610  -32.7430 C   0  0  0  0  0  0  0  0  0  0  0  0
   -5.1630   22.5170  -32.6030 O   0  0  0  0  0  0  0  0  0  0  0  0
   -7.0390   21.1250  -32.4140 N   0  0  0  0  0  0  0  0  0  0  0  0
   -7.8220   22.2100  -31.8060 C   0  0  0  0  0  0  0  0  0  0  0  0
   -7.1817   22.7733  -31.1112 H   0  0  0  0  0  0  0  0  0  0  0  0
   -8.1910   22.8725  -32.6028 H   0  0  0  0  0  0  0  0  0  0  0  0
   -9.0190   21.6420  -31.0400 C   0  0  0  0  0  0  0  0  0  0  0  0
   -8.6559   21.0941  -30.1580 H   0  0  0  0  0  0  0  0  0  0  0  0
   -9.6685   22.4747  -30.7322 H   0  0  0  0  0  0  0  0  0  0  0  0
   -9.7650   20.7630  -31.8570 O   0  0  0  0  0  0  0  0  0  0  0  0
   -8.9820   19.6270  -32.1650 C   0  0  0  0  0  0  0  0  0  0  0  0
   -8.6240   19.1721  -31.2296 H   0  0  0  0  0  0  0  0  0  0  0  0
   -9.6035   18.9137  -32.7262 H   0  0  0  0  0  0  0  0  0  0  0  0
   -7.7770   20.0110  -33.0290 C   0  0  0  0  0  0  0  0  0  0  0  0
   -7.1086   19.1427  -33.1251 H   0  0  0  0  0  0  0  0  0  0  0  0
   -8.1346   20.3245  -34.0209 H   0  0  0  0  0  0  0  0  0  0  0  0
   -2.4210   21.8360  -29.9960 C   0  0  0  0  0  0  0  0  0  0  0  0
   -1.2800   22.1520  -29.2510 C   0  0  0  0  0  0  0  0  0  0  0  0
   -0.5920   21.3519  -28.9403 H   0  0  0  0  0  0  0  0  0  0  0  0
   -1.0080   23.4750  -28.8990 C   0  0  0  0  0  0  0  0  0  0  0  0
   -0.1106   23.7095  -28.3076 H   0  0  0  0  0  0  0  0  0  0  0  0
   -1.8750   24.5120  -29.2960 C   0  0  0  0  0  0  0  0  0  0  0  0
   -1.6450   25.8570  -28.9570 O   0  0  0  0  0  0  0  0  0  0  0  0
   -0.9140   26.3180  -27.8200 C   0  0  0  0  0  0  0  0  0  0  0  0
   -0.8234   27.4132  -27.8690 H   0  0  0  0  0  0  0  0  0  0  0  0
    0.0821   25.8514  -27.8276 H   0  0  0  0  0  0  0  0  0  0  0  0
   -1.6260   25.9320  -26.5270 C   0  0  0  0  0  0  0  0  0  0  0  0
   -1.0244   26.2581  -25.6657 H   0  0  0  0  0  0  0  0  0  0  0  0
   -2.6115   26.4194  -26.4915 H   0  0  0  0  0  0  0  0  0  0  0  0
   -1.7554   24.8402  -26.4915 H   0  0  0  0  0  0  0  0  0  0  0  0
   -3.0070   24.2080  -30.0680 C   0  0  0  0  0  0  0  0  0  0  0  0
   -3.8440   25.2690  -30.4580 O   0  0  0  0  0  0  0  0  0  0  0  0
   -5.2190   25.1550  -30.8260 C   0  0  0  0  0  0  0  0  0  0  0  0
   -5.4656   25.9480  -31.5474 H   0  0  0  0  0  0  0  0  0  0  0  0
   -5.3817   24.1636  -31.2740 H   0  0  0  0  0  0  0  0  0  0  0  0
   -6.1230   25.2920  -29.6050 C   0  0  0  0  0  0  0  0  0  0  0  0
   -5.5195   25.2005  -28.6899 H   0  0  0  0  0  0  0  0  0  0  0  0
   -6.6161   26.2751  -29.6223 H   0  0  0  0  0  0  0  0  0  0  0  0
   -6.8853   24.4991  -29.6223 H   0  0  0  0  0  0  0  0  0  0  0  0
   -3.2650   22.8720  -30.4300 C   0  0  0  0  0  0  0  0  0  0  0  0
   -4.1363   22.6370  -31.0590 H   0  0  0  0  0  0  0  0  0  0  0  0
  1  2  1  0
  2  3  2  0
  3  4  1  0
  4  5  1  0
  5  6  1  0
  5  7  1  0
  5  8  1  0
  8  9  2  0
  8 10  1  0
 10 11  1  0
 11 12  1  0
 11 13  1  0
 11 14  1  0
 14 15  1  0
 14 16  1  0
 14 17  1  0
 17 18  1  0
 18 19  1  0
 18 20  1  0
 18 21  1  0
 21 22  1  0
 21 23  1  0
  2 24  1  0
 24 25  2  0
 25 26  1  0
 25 27  1  0
 27 28  1  0
 27 29  2  0
 29 30  1  0
 30 31  1  0
 31 32  1  0
 31 33  1  0
 31 34  1  0
 34 35  1  0
 34 36  1  0
 34 37  1  0
 29 38  1  0
 38 39  1  0
 39 40  1  0
 40 41  1  0
 40 42  1  0
 40 43  1  0
 43 44  1  0
 43 45  1  0
 43 46  1  0
 38 47  2  0
 47 48  1  0
 21 10  1  0
 47 24  1  0
M  END
>  <UniqueID>  (23) 
23

>  <SMILES>  (23) 
CCOc1ccc(/C=N\OCC(=O)N2CCOCC2)cc1OCC

>  <Energy>  (23) 
45.824047606986625

>  <Genealogy>  (23) 
CCOc1ccc(/C=N\OCC(=O)N2CCOCC2)cc1OCC (cis-trans isomerization)
CCOc1ccc(/C=N\OCC(=O)N2CCOCC2)cc1OCC (3D coordinates assigned)
CCOc1ccc(/C=N\OCC(=O)N2CCOCC2)cc1OCC (nonaromatic ring conformer: 45.824047606986625 kcal/mol)

>  <smiles>  (23) 
CCOc1ccc(C=NOCC(=O)N2CCOCC2)cc1OCC

>  <score_type>  (23) 
oracle

>  <origin>  (23) 
adg

>  <m_score__min__energy>  (23) 
-7.6699999999999999

>  <m_primary>  (23) 
energy

$$$$
24:0
     RDKit          3D

 51 53  0  0  0  0  0  0  0  0999 V2000
   -6.0850   15.0720  -34.2180 C   0  0  0  0  0  0  0  0  0  0  0  0
   -5.2050   16.2250  -33.7490 C   0  0  0  0  0  0  0  0  0  0  0  0
   -6.0270   17.3660  -33.3290 N   0  0  0  0  0  0  0  0  0  0  0  0
   -6.5670   17.3980  -31.9640 C   0  0  0  0  0  0  0  0  0  0  0  0
   -7.7170   18.4030  -31.8320 C   0  0  0  0  0  0  0  0  0  0  0  0
   -7.2870   19.7770  -32.3690 C   0  0  2  0  0  0  0  0  0  0  0  0
   -8.4200   20.8280  -32.3210 C   0  0  0  0  0  0  0  0  0  0  0  0
   -8.0280   22.1600  -31.8090 N   0  0  0  0  0  0  0  0  0  0  0  0
   -7.9040   22.2810  -30.3390 C   0  0  0  0  0  0  0  0  0  0  0  0
   -6.8730   23.3320  -29.9200 C   0  0  0  0  0  0  0  0  0  0  0  0
   -5.6330   23.1300  -30.6730 N   0  0  0  0  0  0  0  0  0  0  0  0
   -4.3620   23.1290  -29.9990 C   0  0  0  0  0  0  0  0  0  0  0  0
   -3.9190   21.9680  -29.3460 C   0  0  0  0  0  0  0  0  0  0  0  0
   -2.6920   21.9550  -28.6800 C   0  0  0  0  0  0  0  0  0  0  0  0
   -1.8990   23.1020  -28.6560 C   0  0  0  0  0  0  0  0  0  0  0  0
   -2.3290   24.2670  -29.2960 C   0  0  0  0  0  0  0  0  0  0  0  0
   -3.5660   24.2920  -29.9710 C   0  0  0  0  0  0  0  0  0  0  0  0
   -4.0390   25.4510  -30.6080 O   0  0  0  0  0  0  0  0  0  0  0  0
   -5.3560   25.9710  -30.4700 C   0  0  0  0  0  0  0  0  0  0  0  0
   -5.6800   22.9760  -32.1320 C   0  0  0  0  0  0  0  0  0  0  0  0
   -7.1260   22.9720  -32.6530 C   0  0  0  0  0  0  0  0  0  0  0  0
   -6.8610   19.6430  -33.7240 O   0  0  0  0  0  0  0  0  0  0  0  0
   -6.1630   18.5230  -34.1770 C   0  0  0  0  0  0  0  0  0  0  0  0
   -5.6910   18.5220  -35.3460 O   0  0  0  0  0  0  0  0  0  0  0  0
   -6.4903   14.5410  -33.3440 H   0  0  0  0  0  0  0  0  0  0  0  0
   -6.9138   15.4664  -34.8242 H   0  0  0  0  0  0  0  0  0  0  0  0
   -5.4859   14.3766  -34.8242 H   0  0  0  0  0  0  0  0  0  0  0  0
   -4.5920   15.8893  -32.8996 H   0  0  0  0  0  0  0  0  0  0  0  0
   -4.5607   16.5406  -34.5828 H   0  0  0  0  0  0  0  0  0  0  0  0
   -6.9381   16.3957  -31.7040 H   0  0  0  0  0  0  0  0  0  0  0  0
   -5.7605   17.7089  -31.2836 H   0  0  0  0  0  0  0  0  0  0  0  0
   -8.5821   18.0426  -32.4079 H   0  0  0  0  0  0  0  0  0  0  0  0
   -7.9866   18.5016  -30.7701 H   0  0  0  0  0  0  0  0  0  0  0  0
   -6.4721   20.1289  -31.7193 H   0  0  0  0  0  0  0  0  0  0  0  0
   -8.8066   20.9573  -33.3427 H   0  0  0  0  0  0  0  0  0  0  0  0
   -9.1657   20.4381  -31.6126 H   0  0  0  0  0  0  0  0  0  0  0  0
   -8.8832   22.5633  -29.9249 H   0  0  0  0  0  0  0  0  0  0  0  0
   -7.5650   21.3087  -29.9520 H   0  0  0  0  0  0  0  0  0  0  0  0
   -7.2687   24.3369  -30.1288 H   0  0  0  0  0  0  0  0  0  0  0  0
   -6.6675   23.2340  -28.8438 H   0  0  0  0  0  0  0  0  0  0  0  0
   -4.5429   21.0622  -29.3591 H   0  0  0  0  0  0  0  0  0  0  0  0
   -2.3506   21.0398  -28.1741 H   0  0  0  0  0  0  0  0  0  0  0  0
   -0.9321   23.0893  -28.1316 H   0  0  0  0  0  0  0  0  0  0  0  0
   -1.6994   25.1687  -29.2730 H   0  0  0  0  0  0  0  0  0  0  0  0
   -5.6019   26.0681  -29.4022 H   0  0  0  0  0  0  0  0  0  0  0  0
   -5.4124   26.9589  -30.9505 H   0  0  0  0  0  0  0  0  0  0  0  0
   -6.0721   25.2881  -30.9505 H   0  0  0  0  0  0  0  0  0  0  0  0
   -5.1351   23.8108  -32.5970 H   0  0  0  0  0  0  0  0  0  0  0  0
   -5.2174   22.0124  -32.3919 H   0  0  0  0  0  0  0  0  0  0  0  0
   -7.4972   24.0073  -32.6721 H   0  0  0  0  0  0  0  0  0  0  0  0
   -7.1182   22.5273  -33.6591 H   0  0  0  0  0  0  0  0  0  0  0  0
  1  2  1  0
  2  3  1  0
  3  4  1  0
  4  5  1  0
  5  6  1  0
  6  7  1  0
  7  8  1  0
  8  9  1  0
  9 10  1  0
 10 11  1  0
 11 12  1  0
 12 13  2  0
 13 14  1  0
 14 15  2  0
 15 16  1  0
 16 17  2  0
 17 18  1  0
 18 19  1  0
 11 20  1  0
 20 21  1  0
  6 22  1  0
 22 23  1  0
 23 24  2  0
 23  3  1  0
 21  8  1  0
 17 12  1  0
  1 25  1  0
  1 26  1  0
  1 27  1  0
  2 28  1  0
  2 29  1  0
  4 30  1  0
  4 31  1  0
  5 32  1  0
  5 33  1  0
  6 34  1  1
  7 35  1  0
  7 36  1  0
  9 37  1  0
  9 38  1  0
 10 39  1  0
 10 40  1  0
 13 41  1  0
 14 42  1  0
 15 43  1  0
 16 44  1  0
 19 45  1  0
 19 46  1  0
 19 47  1  0
 20 48  1  0
 20 49  1  0
 21 50  1  0
 21 51  1  0
M  END
>  <UniqueID>  (24) 
24

>  <SMILES>  (24) 
CCN1CC[C@H](CN2CCN(c3ccccc3OC)CC2)OC1=O

>  <Energy>  (24) 
60.82041861432949

>  <Genealogy>  (24) 
CCN1CC[C@H](CN2CCN(c3ccccc3OC)CC2)OC1=O (chirality)
CCN1CC[C@H](CN2CCN(c3ccccc3OC)CC2)OC1=O (3D coordinates assigned)
CCN1CC[C@H](CN2CCN(c3ccccc3OC)CC2)OC1=O (nonaromatic ring conformer: 60.82041861432949 kcal/mol)

>  <smiles>  (24) 
CCN1CCC(CN2CCN(c3ccccc3OC)CC2)OC1=O

>  <score_type>  (24) 
oracle

>  <origin>  (24) 
adg

>  <m_score__min__energy>  (24) 
-8.2300000000000004

>  <m_primary>  (24) 
energy

$$$$
25:0
     RDKit          3D

 59 60  0  0  0  0  0  0  0  0999 V2000
   -6.8210   14.6770  -34.2340 C   0  0  0  0  0  0  0  0  0  0  0  0
   -6.6870   16.2020  -34.2410 C   0  0  0  0  0  0  0  0  0  0  0  0
   -5.3740   16.6240  -33.7030 N   0  0  0  0  0  0  0  0  0  0  0  0
   -5.0380   16.0190  -32.3940 C   0  0  0  0  0  0  0  0  0  0  0  0
   -5.7470   16.6870  -31.2090 C   0  0  0  0  0  0  0  0  0  0  0  0
   -5.0220   18.0640  -33.8330 C   0  0  0  0  0  0  0  0  0  0  0  0
   -6.0380   18.9080  -34.6340 C   0  0  0  0  0  0  0  0  0  0  0  0
   -6.7360   19.8130  -33.7950 O   0  0  0  0  0  0  0  0  0  0  0  0
   -6.9090   19.2910  -32.4910 C   0  0  0  0  0  0  0  0  0  0  0  0
   -8.2370   19.7960  -31.9000 C   0  0  2  0  0  0  0  0  0  0  0  0
   -9.4040   18.9610  -32.4340 C   0  0  0  0  0  0  0  0  0  0  0  0
   -8.4480   21.3030  -32.1640 C   0  0  0  0  0  0  0  0  0  0  0  0
   -7.3390   22.0980  -31.5880 N   0  0  0  0  0  0  0  0  0  0  0  0
   -7.5800   22.4490  -30.1770 C   0  0  0  0  0  0  0  0  0  0  0  0
   -6.3340   23.1150  -29.5630 C   0  0  0  0  0  0  0  0  0  0  0  0
   -5.3420   23.4770  -30.5840 N   0  0  0  0  0  0  0  0  0  0  0  0
   -3.9440   23.3610  -30.2810 C   0  0  0  0  0  0  0  0  0  0  0  0
   -3.3730   24.2280  -29.3350 C   0  0  0  0  0  0  0  0  0  0  0  0
   -2.0090   24.1520  -29.0400 C   0  0  0  0  0  0  0  0  0  0  0  0
   -1.2070   23.2060  -29.6850 C   0  0  0  0  0  0  0  0  0  0  0  0
   -1.7700   22.3290  -30.6180 C   0  0  0  0  0  0  0  0  0  0  0  0
   -3.1370   22.3990  -30.9190 C   0  0  0  0  0  0  0  0  0  0  0  0
   -3.8750   21.1380  -32.1600 Br  0  0  0  0  0  0  0  0  0  0  0  0
   -5.7410   23.9380  -31.9220 C   0  0  0  0  0  0  0  0  0  0  0  0
   -7.0880   23.3380  -32.3480 C   0  0  0  0  0  0  0  0  0  0  0  0
   -6.8527   14.3165  -33.1952 H   0  0  0  0  0  0  0  0  0  0  0  0
   -7.7480   14.3880  -34.7509 H   0  0  0  0  0  0  0  0  0  0  0  0
   -5.9586   14.2308  -34.7509 H   0  0  0  0  0  0  0  0  0  0  0  0
   -6.7860   16.5666  -35.2741 H   0  0  0  0  0  0  0  0  0  0  0  0
   -7.4779   16.6252  -33.6043 H   0  0  0  0  0  0  0  0  0  0  0  0
   -5.3251   14.9574  -32.4176 H   0  0  0  0  0  0  0  0  0  0  0  0
   -3.9572   16.1567  -32.2427 H   0  0  0  0  0  0  0  0  0  0  0  0
   -5.3334   16.2973  -30.2672 H   0  0  0  0  0  0  0  0  0  0  0  0
   -5.5921   17.7751  -31.2550 H   0  0  0  0  0  0  0  0  0  0  0  0
   -6.8239   16.4677  -31.2550 H   0  0  0  0  0  0  0  0  0  0  0  0
   -4.9444   18.4902  -32.8219 H   0  0  0  0  0  0  0  0  0  0  0  0
   -4.0762   18.1029  -34.3933 H   0  0  0  0  0  0  0  0  0  0  0  0
   -5.4999   19.4781  -35.4056 H   0  0  0  0  0  0  0  0  0  0  0  0
   -6.7699   18.2258  -35.0911 H   0  0  0  0  0  0  0  0  0  0  0  0
   -6.9239   18.1920  -32.5364 H   0  0  0  0  0  0  0  0  0  0  0  0
   -6.0772   19.6241  -31.8529 H   0  0  0  0  0  0  0  0  0  0  0  0
   -8.1937   19.6725  -30.8078 H   0  0  0  0  0  0  0  0  0  0  0  0
   -9.9776   18.5506  -31.5899 H   0  0  0  0  0  0  0  0  0  0  0  0
  -10.0590   19.5967  -33.0479 H   0  0  0  0  0  0  0  0  0  0  0  0
   -9.0138   18.1358  -33.0479 H   0  0  0  0  0  0  0  0  0  0  0  0
   -8.4904   21.4766  -33.2494 H   0  0  0  0  0  0  0  0  0  0  0  0
   -9.3897   21.6157  -31.6893 H   0  0  0  0  0  0  0  0  0  0  0  0
   -8.4287   23.1463  -30.1179 H   0  0  0  0  0  0  0  0  0  0  0  0
   -7.8030   21.5294  -29.6161 H   0  0  0  0  0  0  0  0  0  0  0  0
   -6.6446   24.0264  -29.0312 H   0  0  0  0  0  0  0  0  0  0  0  0
   -5.8667   22.3928  -28.8773 H   0  0  0  0  0  0  0  0  0  0  0  0
   -4.0027   24.9708  -28.8235 H   0  0  0  0  0  0  0  0  0  0  0  0
   -1.5668   24.8361  -28.3008 H   0  0  0  0  0  0  0  0  0  0  0  0
   -0.1320   23.1512  -29.4586 H   0  0  0  0  0  0  0  0  0  0  0  0
   -1.1369   21.5810  -31.1177 H   0  0  0  0  0  0  0  0  0  0  0  0
   -5.8262   25.0346  -31.9110 H   0  0  0  0  0  0  0  0  0  0  0  0
   -4.9757   23.6106  -32.6411 H   0  0  0  0  0  0  0  0  0  0  0  0
   -7.8917   24.0611  -32.1449 H   0  0  0  0  0  0  0  0  0  0  0  0
   -7.0626   23.1089  -33.4236 H   0  0  0  0  0  0  0  0  0  0  0  0
  1  2  1  0
  2  3  1  0
  3  4  1  0
  4  5  1  0
  3  6  1  0
  6  7  1  0
  7  8  1  0
  8  9  1  0
  9 10  1  0
 10 11  1  0
 10 12  1  0
 12 13  1  0
 13 14  1  0
 14 15  1  0
 15 16  1  0
 16 17  1  0
 17 18  2  0
 18 19  1  0
 19 20  2  0
 20 21  1  0
 21 22  2  0
 22 23  1  0
 16 24  1  0
 24 25  1  0
 25 13  1  0
 22 17  1  0
  1 26  1  0
  1 27  1  0
  1 28  1  0
  2 29  1  0
  2 30  1  0
  4 31  1  0
  4 32  1  0
  5 33  1  0
  5 34  1  0
  5 35  1  0
  6 36  1  0
  6 37  1  0
  7 38  1  0
  7 39  1  0
  9 40  1  0
  9 41  1  0
 10 42  1  1
 11 43  1  0
 11 44  1  0
 11 45  1  0
 12 46  1  0
 12 47  1  0
 14 48  1  0
 14 49  1  0
 15 50  1  0
 15 51  1  0
 18 52  1  0
 19 53  1  0
 20 54  1  0
 21 55  1  0
 24 56  1  0
 24 57  1  0
 25 58  1  0
 25 59  1  0
M  END
>  <UniqueID>  (25) 
25

>  <SMILES>  (25) 
CCN(CC)CCOC[C@H](C)CN1CCN(c2ccccc2Br)CC1

>  <Energy>  (25) 
71.7794427237117

>  <Genealogy>  (25) 
CCN(CC)CCOC[C@H](C)CN1CCN(c2ccccc2Br)CC1 (chirality)
CCN(CC)CCOC[C@H](C)CN1CCN(c2ccccc2Br)CC1 (3D coordinates assigned)
CCN(CC)CCOC[C@H](C)CN1CCN(c2ccccc2Br)CC1 (nonaromatic ring conformer: 71.7794427237117 kcal/mol)

>  <smiles>  (25) 
CCN(CC)CCOCC(C)CN1CCN(c2ccccc2Br)CC1

>  <score_type>  (25) 
oracle

>  <origin>  (25) 
adg

>  <m_score__min__energy>  (25) 
-7.9199999999999999

>  <m_primary>  (25) 
energy

$$$$
26:0
     RDKit          3D

 54 57  0  0  0  0  0  0  0  0999 V2000
   -9.5110   21.5410  -30.9140 C   0  0  0  0  0  0  0  0  0  0  0  0
   -8.7160   20.5000  -31.6460 C   0  0  0  0  0  0  0  0  0  0  0  0
   -8.7520   19.1630  -31.2220 C   0  0  0  0  0  0  0  0  0  0  0  0
   -7.9770   18.1970  -31.8700 C   0  0  0  0  0  0  0  0  0  0  0  0
   -7.1580   18.5540  -32.9500 C   0  0  0  0  0  0  0  0  0  0  0  0
   -6.2870   17.5280  -33.6280 C   0  0  0  0  0  0  0  0  0  0  0  0
   -5.0300   17.3450  -32.8730 N   0  0  0  0  0  0  0  0  0  0  0  0
   -4.8170   15.9250  -32.5380 C   0  0  0  0  0  0  0  0  0  0  0  0
   -3.8630   17.8970  -33.5980 C   0  0  0  0  0  0  0  0  0  0  0  0
   -4.0410   19.4040  -33.8190 C   0  0  0  0  0  0  0  0  0  0  0  0
   -3.6550   20.1450  -32.6180 N   0  0  0  0  0  0  0  0  0  0  0  0
   -2.5600   19.9340  -31.8430 C   0  0  0  0  0  0  0  0  0  0  0  0
   -2.3690   20.9240  -30.9340 N   0  0  0  0  0  0  0  0  0  0  0  0
   -3.3810   21.7810  -31.1600 C   0  0  0  0  0  0  0  0  0  0  0  0
   -3.6150   23.0490  -30.6340 C   0  0  0  0  0  0  0  0  0  0  0  0
   -2.7990   23.6020  -29.5900 N   0  0  0  0  0  0  0  0  0  0  0  0
   -3.4470   24.2080  -28.4250 C   0  0  0  0  0  0  0  0  0  0  0  0
   -2.3980   24.8480  -27.5120 C   0  0  0  0  0  0  0  0  0  0  0  0
   -1.4180   25.4840  -28.3050 O   0  0  0  0  0  0  0  0  0  0  0  0
   -0.5850   24.5180  -28.9300 C   0  0  0  0  0  0  0  0  0  0  0  0
   -1.3570   23.3320  -29.5560 C   0  0  0  0  0  0  0  0  0  0  0  0
   -4.6260   23.7840  -31.1890 N   0  0  0  0  0  0  0  0  0  0  0  0
   -5.3900   23.2900  -32.2150 C   0  0  0  0  0  0  0  0  0  0  0  0
   -5.1420   22.0490  -32.7310 N   0  0  0  0  0  0  0  0  0  0  0  0
   -4.1470   21.3170  -32.1780 C   0  0  0  0  0  0  0  0  0  0  0  0
   -7.1130   19.8950  -33.3670 C   0  0  0  0  0  0  0  0  0  0  0  0
   -7.8770   20.8630  -32.7110 C   0  0  0  0  0  0  0  0  0  0  0  0
   -9.3982   21.3933  -29.8298 H   0  0  0  0  0  0  0  0  0  0  0  0
   -9.1450   22.5415  -31.1878 H   0  0  0  0  0  0  0  0  0  0  0  0
  -10.5726   21.4513  -31.1878 H   0  0  0  0  0  0  0  0  0  0  0  0
   -9.3929   18.8738  -30.3760 H   0  0  0  0  0  0  0  0  0  0  0  0
   -8.0100   17.1512  -31.5306 H   0  0  0  0  0  0  0  0  0  0  0  0
   -6.8248   16.5696  -33.6757 H   0  0  0  0  0  0  0  0  0  0  0  0
   -6.0476   17.8759  -34.6437 H   0  0  0  0  0  0  0  0  0  0  0  0
   -4.7990   15.8049  -31.4447 H   0  0  0  0  0  0  0  0  0  0  0  0
   -5.6348   15.3221  -32.9597 H   0  0  0  0  0  0  0  0  0  0  0  0
   -3.8583   15.5886  -32.9597 H   0  0  0  0  0  0  0  0  0  0  0  0
   -2.9519   17.7216  -33.0071 H   0  0  0  0  0  0  0  0  0  0  0  0
   -3.7789   17.3985  -34.5749 H   0  0  0  0  0  0  0  0  0  0  0  0
   -3.4094   19.7239  -34.6608 H   0  0  0  0  0  0  0  0  0  0  0  0
   -5.0987   19.6096  -34.0404 H   0  0  0  0  0  0  0  0  0  0  0  0
   -1.9013   19.0585  -31.9409 H   0  0  0  0  0  0  0  0  0  0  0  0
   -1.5680   21.0280  -30.2740 H   0  0  0  0  0  0  0  0  0  0  0  0
   -4.1545   24.9796  -28.7628 H   0  0  0  0  0  0  0  0  0  0  0  0
   -3.9830   23.4275  -27.8651 H   0  0  0  0  0  0  0  0  0  0  0  0
   -2.8816   25.5899  -26.8596 H   0  0  0  0  0  0  0  0  0  0  0  0
   -1.9251   24.0722  -26.8920 H   0  0  0  0  0  0  0  0  0  0  0  0
   -0.0133   25.0174  -29.7261 H   0  0  0  0  0  0  0  0  0  0  0  0
    0.0606   24.0984  -28.1444 H   0  0  0  0  0  0  0  0  0  0  0  0
   -0.9970   23.1704  -30.5828 H   0  0  0  0  0  0  0  0  0  0  0  0
   -1.1826   22.4368  -28.9410 H   0  0  0  0  0  0  0  0  0  0  0  0
   -6.2095   23.8978  -32.6262 H   0  0  0  0  0  0  0  0  0  0  0  0
   -6.4732   20.1838  -34.2139 H   0  0  0  0  0  0  0  0  0  0  0  0
   -7.8209   21.9141  -33.0304 H   0  0  0  0  0  0  0  0  0  0  0  0
  1  2  1  0
  2  3  2  0
  3  4  1  0
  4  5  2  0
  5  6  1  0
  6  7  1  0
  7  8  1  0
  7  9  1  0
  9 10  1  0
 10 11  1  0
 11 12  1  0
 12 13  2  0
 13 14  1  0
 14 15  2  0
 15 16  1  0
 16 17  1  0
 17 18  1  0
 18 19  1  0
 19 20  1  0
 20 21  1  0
 15 22  1  0
 22 23  2  0
 23 24  1  0
 24 25  2  0
  5 26  1  0
 26 27  2  0
 27  2  1  0
 25 11  1  0
 25 14  1  0
 21 16  1  0
  1 28  1  0
  1 29  1  0
  1 30  1  0
  3 31  1  0
  4 32  1  0
  6 33  1  0
  6 34  1  0
  8 35  1  0
  8 36  1  0
  8 37  1  0
  9 38  1  0
  9 39  1  0
 10 40  1  0
 10 41  1  0
 12 42  1  0
 13 43  1  0
 17 44  1  0
 17 45  1  0
 18 46  1  0
 18 47  1  0
 20 48  1  0
 20 49  1  0
 21 50  1  0
 21 51  1  0
 23 52  1  0
 26 53  1  0
 27 54  1  0
M  CHG  1  13   1
M  END
>  <UniqueID>  (26) 
26

>  <SMILES>  (26) 
Cc1ccc(CN(C)CCn2c[nH+]c3c(N4CCOCC4)ncnc32)cc1

>  <Energy>  (26) 
103.82903517198726

>  <Genealogy>  (26) 
Cc1ccc(CN(C)CCn2c[nH+]c3c(N4CCOCC4)ncnc32)cc1 (protonated)
Cc1ccc(CN(C)CCn2c[nH+]c3c(N4CCOCC4)ncnc32)cc1 (3D coordinates assigned)
Cc1ccc(CN(C)CCn2c[nH+]c3c(N4CCOCC4)ncnc32)cc1 (nonaromatic ring conformer: 103.82903517198726 kcal/mol)

>  <smiles>  (26) 
Cc1ccc(CN(C)CCn2cnc3c(N4CCOCC4)ncnc32)cc1

>  <score_type>  (26) 
oracle

>  <origin>  (26) 
adg

>  <m_score__min__energy>  (26) 
-7.8399999999999999

>  <m_primary>  (26) 
energy

$$$$
27:0
     RDKit          3D

 49 51  0  0  0  0  0  0  0  0999 V2000
   -0.1460   23.5190  -24.7790 C   0  0  0  0  0  0  0  0  0  0  0  0
   -0.0510   23.1730  -26.1570 O   0  0  0  0  0  0  0  0  0  0  0  0
   -1.0210   23.4830  -27.1200 C   0  0  0  0  0  0  0  0  0  0  0  0
   -2.1550   24.1960  -26.7170 C   0  0  0  0  0  0  0  0  0  0  0  0
   -3.1520   24.5290  -27.6390 C   0  0  0  0  0  0  0  0  0  0  0  0
   -3.0370   24.1460  -28.9870 C   0  0  0  0  0  0  0  0  0  0  0  0
   -4.1040   24.5170  -29.9510 C   0  0  0  0  0  0  0  0  0  0  0  0
   -3.8600   25.3970  -30.8210 O   0  0  0  0  0  0  0  0  0  0  0  0
   -5.4550   23.8260  -29.9570 C   0  0  0  0  0  0  0  0  0  0  0  0
   -5.2940   22.3010  -30.1750 C   0  0  0  0  0  0  0  0  0  0  0  0
   -5.5620   21.9090  -31.6350 C   0  0  0  0  0  0  0  0  0  0  0  0
   -6.9220   22.2960  -32.0790 N   0  0  0  0  0  0  0  0  0  0  0  0
   -7.8590   21.1670  -32.2850 C   0  0  0  0  0  0  0  0  0  0  0  0
   -7.2100   19.8980  -32.8280 C   0  0  0  0  0  0  0  0  0  0  0  0
   -6.1180   20.0420  -33.6420 N   0  0  0  0  0  0  0  0  0  0  0  0
   -5.4890   18.9810  -34.2110 C   0  0  0  0  0  0  0  0  0  0  0  0
   -5.9380   17.6890  -33.9680 C   0  0  0  0  0  0  0  0  0  0  0  0
   -7.0220   17.4940  -33.1210 C   0  0  0  0  0  0  0  0  0  0  0  0
   -7.6620   18.5860  -32.5130 C   0  0  0  0  0  0  0  0  0  0  0  0
   -8.8130   18.2900  -31.5840 C   0  0  0  0  0  0  0  0  0  0  0  0
   -7.5070   23.4710  -31.3890 C   0  0  0  0  0  0  0  0  0  0  0  0
   -6.4190   24.4700  -30.9870 C   0  0  0  0  0  0  0  0  0  0  0  0
   -1.8900   23.4380  -29.3940 C   0  0  0  0  0  0  0  0  0  0  0  0
   -0.8940   23.1070  -28.4690 C   0  0  0  0  0  0  0  0  0  0  0  0
    0.0953   22.6403  -24.1628 H   0  0  0  0  0  0  0  0  0  0  0  0
    0.5628   24.3298  -24.5548 H   0  0  0  0  0  0  0  0  0  0  0  0
   -1.1694   23.8542  -24.5548 H   0  0  0  0  0  0  0  0  0  0  0  0
   -2.2634   24.4976  -25.6647 H   0  0  0  0  0  0  0  0  0  0  0  0
   -4.0343   25.0957  -27.3068 H   0  0  0  0  0  0  0  0  0  0  0  0
   -5.9152   23.9667  -28.9678 H   0  0  0  0  0  0  0  0  0  0  0  0
   -4.2674   22.0085  -29.9092 H   0  0  0  0  0  0  0  0  0  0  0  0
   -6.0265   21.7826  -29.5388 H   0  0  0  0  0  0  0  0  0  0  0  0
   -4.8236   22.4108  -32.2776 H   0  0  0  0  0  0  0  0  0  0  0  0
   -5.4812   20.8146  -31.7106 H   0  0  0  0  0  0  0  0  0  0  0  0
   -8.3263   20.9275  -31.3184 H   0  0  0  0  0  0  0  0  0  0  0  0
   -8.5845   21.4967  -33.0433 H   0  0  0  0  0  0  0  0  0  0  0  0
   -5.7490   20.9970  -33.8550 H   0  0  0  0  0  0  0  0  0  0  0  0
   -4.6211   19.1454  -34.8665 H   0  0  0  0  0  0  0  0  0  0  0  0
   -5.4406   16.8295  -34.4411 H   0  0  0  0  0  0  0  0  0  0  0  0
   -7.3826   16.4735  -32.9247 H   0  0  0  0  0  0  0  0  0  0  0  0
   -8.4742   18.3771  -30.5411 H   0  0  0  0  0  0  0  0  0  0  0  0
   -9.6258   19.0084  -31.7667 H   0  0  0  0  0  0  0  0  0  0  0  0
   -9.1784   17.2687  -31.7667 H   0  0  0  0  0  0  0  0  0  0  0  0
   -8.2189   23.9673  -32.0650 H   0  0  0  0  0  0  0  0  0  0  0  0
   -8.0174   23.1240  -30.4785 H   0  0  0  0  0  0  0  0  0  0  0  0
   -5.8504   24.7671  -31.8805 H   0  0  0  0  0  0  0  0  0  0  0  0
   -6.8924   25.3528  -30.5325 H   0  0  0  0  0  0  0  0  0  0  0  0
   -1.7762   23.1428  -30.4475 H   0  0  0  0  0  0  0  0  0  0  0  0
   -0.0055   22.5488  -28.7992 H   0  0  0  0  0  0  0  0  0  0  0  0
  1  2  1  0
  2  3  1  0
  3  4  2  0
  4  5  1  0
  5  6  2  0
  6  7  1  0
  7  8  2  0
  7  9  1  0
  9 10  1  0
 10 11  1  0
 11 12  1  0
 12 13  1  0
 13 14  1  0
 14 15  2  0
 15 16  1  0
 16 17  2  0
 17 18  1  0
 18 19  2  0
 19 20  1  0
 12 21  1  0
 21 22  1  0
  6 23  1  0
 23 24  2  0
 24  3  1  0
 22  9  1  0
 19 14  1  0
  1 25  1  0
  1 26  1  0
  1 27  1  0
  4 28  1  0
  5 29  1  0
  9 30  1  0
 10 31  1  0
 10 32  1  0
 11 33  1  0
 11 34  1  0
 13 35  1  0
 13 36  1  0
 15 37  1  0
 16 38  1  0
 17 39  1  0
 18 40  1  0
 20 41  1  0
 20 42  1  0
 20 43  1  0
 21 44  1  0
 21 45  1  0
 22 46  1  0
 22 47  1  0
 23 48  1  0
 24 49  1  0
M  CHG  1  15   1
M  END
>  <UniqueID>  (27) 
27

>  <SMILES>  (27) 
COc1ccc(C(=O)C2CCN(Cc3[nH+]cccc3C)CC2)cc1

>  <Energy>  (27) 
67.68587906244

>  <Genealogy>  (27) 
COc1ccc(C(=O)C2CCN(Cc3[nH+]cccc3C)CC2)cc1 (protonated)
COc1ccc(C(=O)C2CCN(Cc3[nH+]cccc3C)CC2)cc1 (3D coordinates assigned)
COc1ccc(C(=O)C2CCN(Cc3[nH+]cccc3C)CC2)cc1 (nonaromatic ring conformer: 67.68587906244 kcal/mol)

>  <smiles>  (27) 
COc1ccc(C(=O)C2CCN(Cc3ncccc3C)CC2)cc1

>  <score_type>  (27) 
oracle

>  <origin>  (27) 
adg

>  <m_score__min__energy>  (27) 
-8.6199999999999992

>  <m_primary>  (27) 
energy

$$$$
28:0
     RDKit          3D

 52 55  0  0  0  0  0  0  0  0999 V2000
   -2.6530   17.7540  -33.8450 C   0  0  0  0  0  0  0  0  0  0  0  0
   -3.3270   18.6770  -32.9950 O   0  0  0  0  0  0  0  0  0  0  0  0
   -4.7170   18.8670  -32.9770 C   0  0  0  0  0  0  0  0  0  0  0  0
   -5.5320   17.8440  -33.4730 C   0  0  0  0  0  0  0  0  0  0  0  0
   -6.9230   17.9830  -33.4820 C   0  0  0  0  0  0  0  0  0  0  0  0
   -7.5200   19.1490  -32.9840 C   0  0  0  0  0  0  0  0  0  0  0  0
   -8.8770   19.2920  -32.9980 N   0  0  0  0  0  0  0  0  0  0  0  0
   -9.4620   20.4210  -32.5230 C   0  0  0  0  0  0  0  0  0  0  0  0
   -8.7030   21.4260  -32.0170 N   0  0  0  0  0  0  0  0  0  0  0  0
   -7.3490   21.3380  -31.9730 C   0  0  0  0  0  0  0  0  0  0  0  0
   -6.6000   22.4220  -31.4120 N   0  0  0  0  0  0  0  0  0  0  0  0
   -5.5600   23.0830  -32.2080 C   0  0  0  0  0  0  0  0  0  0  0  0
   -4.3000   23.2880  -31.3600 C   0  0  0  0  0  0  0  0  0  0  0  0
   -4.6160   23.7960  -30.0150 N   0  0  0  0  0  0  0  0  0  0  0  0
   -3.5250   24.2330  -29.1790 C   0  0  0  0  0  0  0  0  0  0  0  0
   -2.6050   24.9260  -29.6950 O   0  0  0  0  0  0  0  0  0  0  0  0
   -3.3910   23.8540  -27.7050 C   0  0  2  0  0  0  0  0  0  0  0  0
   -2.5350   24.8280  -26.8860 C   0  0  0  0  0  0  0  0  0  0  0  0
   -1.4810   23.9860  -26.1890 C   0  0  0  0  0  0  0  0  0  0  0  0
   -1.6060   22.5810  -26.7570 C   0  0  0  0  0  0  0  0  0  0  0  0
   -2.9030   22.4840  -27.4330 N   0  0  0  0  0  0  0  0  0  0  0  0
   -2.8850   21.5430  -28.5660 C   0  0  0  0  0  0  0  0  0  0  0  0
   -6.0150   24.0450  -29.6360 C   0  0  0  0  0  0  0  0  0  0  0  0
   -6.8980   22.8610  -30.0470 C   0  0  0  0  0  0  0  0  0  0  0  0
   -6.7100   20.1850  -32.4700 C   0  0  0  0  0  0  0  0  0  0  0  0
   -5.3110   20.0430  -32.4790 C   0  0  0  0  0  0  0  0  0  0  0  0
   -2.1145   17.0166  -33.2316 H   0  0  0  0  0  0  0  0  0  0  0  0
   -3.3873   17.2366  -34.4799 H   0  0  0  0  0  0  0  0  0  0  0  0
   -1.9366   18.2960  -34.4799 H   0  0  0  0  0  0  0  0  0  0  0  0
   -5.0741   16.9216  -33.8596 H   0  0  0  0  0  0  0  0  0  0  0  0
   -7.5516   17.1737  -33.8817 H   0  0  0  0  0  0  0  0  0  0  0  0
   -9.4860   18.5310  -33.3780 H   0  0  0  0  0  0  0  0  0  0  0  0
  -10.5571   20.5219  -32.5483 H   0  0  0  0  0  0  0  0  0  0  0  0
   -5.3150   22.4569  -33.0786 H   0  0  0  0  0  0  0  0  0  0  0  0
   -5.9314   24.0622  -32.5445 H   0  0  0  0  0  0  0  0  0  0  0  0
   -3.7775   22.3250  -31.2620 H   0  0  0  0  0  0  0  0  0  0  0  0
   -3.6688   24.0341  -31.8649 H   0  0  0  0  0  0  0  0  0  0  0  0
   -4.4407   23.9102  -27.3811 H   0  0  0  0  0  0  0  0  0  0  0  0
   -2.0572   25.5649  -27.5484 H   0  0  0  0  0  0  0  0  0  0  0  0
   -3.1462   25.3849  -26.1605 H   0  0  0  0  0  0  0  0  0  0  0  0
   -0.4778   24.3896  -26.3906 H   0  0  0  0  0  0  0  0  0  0  0  0
   -1.6266   23.9888  -25.0987 H   0  0  0  0  0  0  0  0  0  0  0  0
   -0.7946   22.3946  -27.4759 H   0  0  0  0  0  0  0  0  0  0  0  0
   -1.5355   21.8340  -25.9526 H   0  0  0  0  0  0  0  0  0  0  0  0
   -2.8653   20.5111  -28.1854 H   0  0  0  0  0  0  0  0  0  0  0  0
   -3.7861   21.6904  -29.1794 H   0  0  0  0  0  0  0  0  0  0  0  0
   -1.9902   21.7247  -29.1794 H   0  0  0  0  0  0  0  0  0  0  0  0
   -6.0766   24.1822  -28.5463 H   0  0  0  0  0  0  0  0  0  0  0  0
   -6.3689   24.9502  -30.1511 H   0  0  0  0  0  0  0  0  0  0  0  0
   -6.7203   22.0246  -29.3550 H   0  0  0  0  0  0  0  0  0  0  0  0
   -7.9492   23.1826  -30.0080 H   0  0  0  0  0  0  0  0  0  0  0  0
   -4.6766   20.8554  -32.0947 H   0  0  0  0  0  0  0  0  0  0  0  0
  1  2  1  0
  2  3  1  0
  3  4  2  0
  4  5  1  0
  5  6  2  0
  6  7  1  0
  7  8  2  0
  8  9  1  0
  9 10  2  0
 10 11  1  0
 11 12  1  0
 12 13  1  0
 13 14  1  0
 14 15  1  0
 15 16  2  0
 15 17  1  0
 17 18  1  0
 18 19  1  0
 19 20  1  0
 20 21  1  0
 21 22  1  0
 14 23  1  0
 23 24  1  0
 10 25  1  0
 25 26  2  0
 26  3  1  0
 25  6  1  0
 24 11  1  0
 21 17  1  0
  1 27  1  0
  1 28  1  0
  1 29  1  0
  4 30  1  0
  5 31  1  0
  7 32  1  0
  8 33  1  0
 12 34  1  0
 12 35  1  0
 13 36  1  0
 13 37  1  0
 17 38  1  1
 18 39  1  0
 18 40  1  0
 19 41  1  0
 19 42  1  0
 20 43  1  0
 20 44  1  0
 22 45  1  0
 22 46  1  0
 22 47  1  0
 23 48  1  0
 23 49  1  0
 24 50  1  0
 24 51  1  0
 26 52  1  0
M  CHG  1   7   1
M  END
>  <UniqueID>  (28) 
28

>  <SMILES>  (28) 
COc1ccc2[nH+]cnc(N3CCN(C(=O)[C@@H]4CCCN4C)CC3)c2c1

>  <Energy>  (28) 
77.16912821857932

>  <Genealogy>  (28) 
COc1ccc2[nH+]cnc(N3CCN(C(=O)C4CCCN4C)CC3)c2c1 (protonated)
COc1ccc2[nH+]cnc(N3CCN(C(=O)[C@@H]4CCCN4C)CC3)c2c1 (chirality)
COc1ccc2[nH+]cnc(N3CCN(C(=O)[C@@H]4CCCN4C)CC3)c2c1 (3D coordinates assigned)
COc1ccc2[nH+]cnc(N3CCN(C(=O)[C@@H]4CCCN4C)CC3)c2c1 (nonaromatic ring conformer: 77.16912821857932 kcal/mol)

>  <smiles>  (28) 
COc1ccc2ncnc(N3CCN(C(=O)C4CCCN4C)CC3)c2c1

>  <score_type>  (28) 
oracle

>  <origin>  (28) 
adg

>  <m_score__min__energy>  (28) 
-7.96

>  <m_primary>  (28) 
energy

$$$$
29:0
     RDKit          3D

 55 58  0  0  0  0  0  0  0  0999 V2000
   -8.3060   18.5260  -32.1200 C   0  0  0  0  0  0  0  0  0  0  0  0
   -7.8160   19.6200  -33.0620 C   0  0  0  0  0  0  0  0  0  0  0  0
   -7.4840   20.8340  -32.3070 N   0  0  0  0  0  0  0  0  0  0  0  0
   -8.3670   21.7250  -31.7960 C   0  0  0  0  0  0  0  0  0  0  0  0
   -9.8580   21.5940  -31.8680 C   0  0  0  0  0  0  0  0  0  0  0  0
   -7.7020   22.7500  -31.1520 C   0  0  0  0  0  0  0  0  0  0  0  0
   -6.3530   22.4850  -31.2910 C   0  0  0  0  0  0  0  0  0  0  0  0
   -5.2650   23.3020  -30.7320 C   0  0  0  0  0  0  0  0  0  0  0  0
   -4.9070   24.5110  -31.2090 N   0  0  0  0  0  0  0  0  0  0  0  0
   -3.9050   24.9290  -30.4510 N   0  0  0  0  0  0  0  0  0  0  0  0
   -3.6910   23.9580  -29.5420 C   0  0  0  0  0  0  0  0  0  0  0  0
   -2.6440   24.0240  -28.4680 C   0  0  0  0  0  0  0  0  0  0  0  0
   -1.5070   24.9630  -28.8870 C   0  0  0  0  0  0  0  0  0  0  0  0
   -0.4460   25.0750  -27.7720 C   0  0  0  0  0  0  0  0  0  0  0  0
   -0.1900   23.8020  -27.0430 N   0  0  0  0  0  0  0  0  0  0  0  0
   -0.7250   23.8080  -25.6640 C   0  0  0  0  0  0  0  0  0  0  0  0
   -0.2980   25.0620  -24.9470 C   0  0  0  0  0  0  0  0  0  0  0  0
   -1.2490   26.0140  -24.5400 C   0  0  0  0  0  0  0  0  0  0  0  0
   -0.8400   27.1810  -23.8870 C   0  0  0  0  0  0  0  0  0  0  0  0
    0.5170   27.4060  -23.6350 C   0  0  0  0  0  0  0  0  0  0  0  0
    1.4680   26.4640  -24.0390 C   0  0  0  0  0  0  0  0  0  0  0  0
    2.7840   26.6840  -23.7970 F   0  0  0  0  0  0  0  0  0  0  0  0
    1.0640   25.2960  -24.6930 C   0  0  0  0  0  0  0  0  0  0  0  0
   -0.6080   22.6030  -27.7980 C   0  0  0  0  0  0  0  0  0  0  0  0
   -2.1130   22.6110  -28.1320 C   0  0  0  0  0  0  0  0  0  0  0  0
   -4.5240   22.9600  -29.7080 O   0  0  0  0  0  0  0  0  0  0  0  0
   -6.2450   21.3100  -32.0230 C   0  0  0  0  0  0  0  0  0  0  0  0
   -4.9530   20.6370  -32.3960 C   0  0  0  0  0  0  0  0  0  0  0  0
   -8.1619   18.8477  -31.0780 H   0  0  0  0  0  0  0  0  0  0  0  0
   -9.3745   18.3376  -32.3012 H   0  0  0  0  0  0  0  0  0  0  0  0
   -7.7351   17.6033  -32.3012 H   0  0  0  0  0  0  0  0  0  0  0  0
   -6.9196   19.2667  -33.5927 H   0  0  0  0  0  0  0  0  0  0  0  0
   -8.6137   19.8545  -33.7822 H   0  0  0  0  0  0  0  0  0  0  0  0
  -10.2725   21.5576  -30.8497 H   0  0  0  0  0  0  0  0  0  0  0  0
  -10.2766   22.4588  -32.4036 H   0  0  0  0  0  0  0  0  0  0  0  0
  -10.1194   20.6694  -32.4036 H   0  0  0  0  0  0  0  0  0  0  0  0
   -8.1558   23.6066  -30.6321 H   0  0  0  0  0  0  0  0  0  0  0  0
   -3.1027   24.4323  -27.5554 H   0  0  0  0  0  0  0  0  0  0  0  0
   -1.0321   24.5695  -29.7978 H   0  0  0  0  0  0  0  0  0  0  0  0
   -1.9273   25.9622  -29.0738 H   0  0  0  0  0  0  0  0  0  0  0  0
    0.4986   25.4081  -28.2268 H   0  0  0  0  0  0  0  0  0  0  0  0
   -0.8382   25.7891  -27.0330 H   0  0  0  0  0  0  0  0  0  0  0  0
   -1.8236   23.7660  -25.7001 H   0  0  0  0  0  0  0  0  0  0  0  0
   -0.3339   22.9338  -25.1230 H   0  0  0  0  0  0  0  0  0  0  0  0
   -2.3175   25.8405  -24.7357 H   0  0  0  0  0  0  0  0  0  0  0  0
   -1.5874   27.9236  -23.5709 H   0  0  0  0  0  0  0  0  0  0  0  0
    0.8361   28.3237  -23.1192 H   0  0  0  0  0  0  0  0  0  0  0  0
    1.8152   24.5576  -25.0098 H   0  0  0  0  0  0  0  0  0  0  0  0
   -0.0382   22.5616  -28.7380 H   0  0  0  0  0  0  0  0  0  0  0  0
   -0.4103   21.7244  -27.1664 H   0  0  0  0  0  0  0  0  0  0  0  0
   -2.2843   21.9557  -28.9988 H   0  0  0  0  0  0  0  0  0  0  0  0
   -2.6522   22.2575  -27.2408 H   0  0  0  0  0  0  0  0  0  0  0  0
   -4.4098   20.3541  -31.4823 H   0  0  0  0  0  0  0  0  0  0  0  0
   -5.1670   19.7358  -32.9893 H   0  0  0  0  0  0  0  0  0  0  0  0
   -4.3371   21.3289  -32.9893 H   0  0  0  0  0  0  0  0  0  0  0  0
  1  2  1  0
  2  3  1  0
  3  4  1  0
  4  5  1  0
  4  6  2  0
  6  7  1  0
  7  8  1  0
  8  9  2  0
  9 10  1  0
 10 11  2  0
 11 12  1  0
 12 13  1  0
 13 14  1  0
 14 15  1  0
 15 16  1  0
 16 17  1  0
 17 18  2  0
 18 19  1  0
 19 20  2  0
 20 21  1  0
 21 22  1  0
 21 23  2  0
 15 24  1  0
 24 25  1  0
 11 26  1  0
  7 27  2  0
 27 28  1  0
 27  3  1  0
 26  8  1  0
 25 12  1  0
 23 17  1  0
  1 29  1  0
  1 30  1  0
  1 31  1  0
  2 32  1  0
  2 33  1  0
  5 34  1  0
  5 35  1  0
  5 36  1  0
  6 37  1  0
 12 38  1  0
 13 39  1  0
 13 40  1  0
 14 41  1  0
 14 42  1  0
 16 43  1  0
 16 44  1  0
 18 45  1  0
 19 46  1  0
 20 47  1  0
 23 48  1  0
 24 49  1  0
 24 50  1  0
 25 51  1  0
 25 52  1  0
 28 53  1  0
 28 54  1  0
 28 55  1  0
M  END
>  <UniqueID>  (29) 
29

>  <SMILES>  (29) 
CCn1c(C)cc(-c2nnc(C3CCN(Cc4cccc(F)c4)CC3)o2)c1C

>  <Energy>  (29) 
121.66785952378633

>  <Genealogy>  (29) 
CCn1c(C)cc(-c2nnc(C3CCN(Cc4cccc(F)c4)CC3)o2)c1C (3D coordinates assigned)
CCn1c(C)cc(-c2nnc(C3CCN(Cc4cccc(F)c4)CC3)o2)c1C (nonaromatic ring conformer: 121.66785952378633 kcal/mol)

>  <smiles>  (29) 
CCn1c(C)cc(-c2nnc(C3CCN(Cc4cccc(F)c4)CC3)o2)c1C

>  <score_type>  (29) 
oracle

>  <origin>  (29) 
adg

>  <m_score__min__energy>  (29) 
-9.4100000000000001

>  <m_primary>  (29) 
energy

$$$$
30:0
     RDKit          3D

 56 58  0  0  0  0  0  0  0  0999 V2000
   -3.0540   15.6220  -35.6730 C   0  0  0  0  0  0  0  0  0  0  0  0
   -3.2440   15.7590  -34.1650 C   0  0  0  0  0  0  0  0  0  0  0  0
   -4.2410   14.7230  -33.6360 C   0  0  0  0  0  0  0  0  0  0  0  0
   -5.4750   15.3830  -33.1820 N   0  0  0  0  0  0  0  0  0  0  0  0
   -5.9970   16.3570  -34.1550 C   0  0  0  0  0  0  0  0  0  0  0  0
   -6.0910   17.7490  -33.5760 C   0  0  0  0  0  0  0  0  0  0  0  0
   -4.9420   18.5440  -33.4560 C   0  0  0  0  0  0  0  0  0  0  0  0
   -5.0270   19.8370  -32.9330 C   0  0  0  0  0  0  0  0  0  0  0  0
   -6.2650   20.3600  -32.5190 C   0  0  0  0  0  0  0  0  0  0  0  0
   -6.3560   21.7340  -31.9640 C   0  0  0  0  0  0  0  0  0  0  0  0
   -7.6020   22.3760  -31.8460 C   0  0  0  0  0  0  0  0  0  0  0  0
   -7.6850   23.6710  -31.3300 C   0  0  0  0  0  0  0  0  0  0  0  0
   -6.5300   24.3390  -30.9190 C   0  0  0  0  0  0  0  0  0  0  0  0
   -5.2800   23.7100  -31.0080 C   0  0  0  0  0  0  0  0  0  0  0  0
   -4.0460   24.4120  -30.5970 C   0  0  0  0  0  0  0  0  0  0  0  0
   -3.9710   25.6570  -30.7670 O   0  0  0  0  0  0  0  0  0  0  0  0
   -2.9150   23.7270  -30.0400 N   0  0  0  0  0  0  0  0  0  0  0  0
   -2.7230   23.3690  -28.6330 C   0  0  2  0  0  0  0  0  0  0  0  0
   -3.0990   24.5650  -27.7190 C   0  0  0  0  0  0  0  0  0  0  0  0
   -1.8850   25.3420  -27.1770 C   0  0  0  0  0  0  0  0  0  0  0  0
   -0.7650   25.4540  -28.2240 C   0  0  2  0  0  0  0  0  0  0  0  0
   -1.2240   26.1660  -29.3450 O   0  0  0  0  0  0  0  0  0  0  0  0
   -0.2580   24.0610  -28.6660 C   0  0  0  0  0  0  0  0  0  0  0  0
   -1.2680   22.9230  -28.4190 C   0  0  0  0  0  0  0  0  0  0  0  0
   -5.1970   22.4160  -31.5470 C   0  0  0  0  0  0  0  0  0  0  0  0
   -7.4150   19.5600  -32.6390 C   0  0  0  0  0  0  0  0  0  0  0  0
   -7.3290   18.2670  -33.1630 C   0  0  0  0  0  0  0  0  0  0  0  0
   -2.1771   14.9897  -35.8761 H   0  0  0  0  0  0  0  0  0  0  0  0
   -3.9493   15.1603  -36.1149 H   0  0  0  0  0  0  0  0  0  0  0  0
   -2.8987   16.6173  -36.1149 H   0  0  0  0  0  0  0  0  0  0  0  0
   -2.2747   15.6115  -33.6663 H   0  0  0  0  0  0  0  0  0  0  0  0
   -3.6400   16.7632  -33.9536 H   0  0  0  0  0  0  0  0  0  0  0  0
   -4.4848   14.0118  -34.4390 H   0  0  0  0  0  0  0  0  0  0  0  0
   -3.7868   14.1927  -32.7860 H   0  0  0  0  0  0  0  0  0  0  0  0
   -5.2850   15.8690  -32.2740 H   0  0  0  0  0  0  0  0  0  0  0  0
   -5.3266   16.3807  -35.0268 H   0  0  0  0  0  0  0  0  0  0  0  0
   -7.0116   16.0402  -34.4381 H   0  0  0  0  0  0  0  0  0  0  0  0
   -3.9672   18.1471  -33.7757 H   0  0  0  0  0  0  0  0  0  0  0  0
   -4.1183   20.4506  -32.8444 H   0  0  0  0  0  0  0  0  0  0  0  0
   -8.5173   21.8544  -32.1624 H   0  0  0  0  0  0  0  0  0  0  0  0
   -8.6636   24.1664  -31.2471 H   0  0  0  0  0  0  0  0  0  0  0  0
   -6.6009   25.3631  -30.5237 H   0  0  0  0  0  0  0  0  0  0  0  0
   -3.3847   22.5322  -28.3648 H   0  0  0  0  0  0  0  0  0  0  0  0
   -3.7247   25.2601  -28.2981 H   0  0  0  0  0  0  0  0  0  0  0  0
   -3.6259   24.1480  -26.8481 H   0  0  0  0  0  0  0  0  0  0  0  0
   -2.2084   26.3540  -26.8919 H   0  0  0  0  0  0  0  0  0  0  0  0
   -1.4883   24.7945  -26.3093 H   0  0  0  0  0  0  0  0  0  0  0  0
    0.0743   25.9924  -27.7597 H   0  0  0  0  0  0  0  0  0  0  0  0
   -1.9960   25.6600  -29.7120 H   0  0  0  0  0  0  0  0  0  0  0  0
   -0.0349   24.0989  -29.7425 H   0  0  0  0  0  0  0  0  0  0  0  0
    0.6314   23.8368  -28.0588 H   0  0  0  0  0  0  0  0  0  0  0  0
   -1.0464   22.0983  -29.1124 H   0  0  0  0  0  0  0  0  0  0  0  0
   -1.1663   22.6085  -27.3698 H   0  0  0  0  0  0  0  0  0  0  0  0
   -4.2152   21.9296  -31.6446 H   0  0  0  0  0  0  0  0  0  0  0  0
   -8.3902   19.9548  -32.3179 H   0  0  0  0  0  0  0  0  0  0  0  0
   -8.2364   17.6517  -33.2523 H   0  0  0  0  0  0  0  0  0  0  0  0
  1  2  1  0
  2  3  1  0
  3  4  1  0
  4  5  1  0
  5  6  1  0
  6  7  2  0
  7  8  1  0
  8  9  2  0
  9 10  1  0
 10 11  2  0
 11 12  1  0
 12 13  2  0
 13 14  1  0
 14 15  1  0
 15 16  2  0
 15 17  1  0
 17 18  1  0
 18 19  1  0
 19 20  1  0
 20 21  1  0
 21 22  1  0
 21 23  1  0
 23 24  1  0
 14 25  2  0
  9 26  1  0
 26 27  2  0
 27  6  1  0
 25 10  1  0
 24 18  1  0
  1 28  1  0
  1 29  1  0
  1 30  1  0
  2 31  1  0
  2 32  1  0
  3 33  1  0
  3 34  1  0
  4 35  1  0
  5 36  1  0
  5 37  1  0
  7 38  1  0
  8 39  1  0
 11 40  1  0
 12 41  1  0
 13 42  1  0
 18 43  1  1
 19 44  1  0
 19 45  1  0
 20 46  1  0
 20 47  1  0
 21 48  1  1
 22 49  1  0
 23 50  1  0
 23 51  1  0
 24 52  1  0
 24 53  1  0
 25 54  1  0
 26 55  1  0
 27 56  1  0
M  CHG  1  17  -1
M  END
>  <UniqueID>  (30) 
30

>  <SMILES>  (30) 
CCCNCc1ccc(-c2cccc(C(=O)[N-]C3CCC(O)CC3)c2)cc1

>  <Energy>  (30) 
67.03469120383116

>  <Genealogy>  (30) 
CCCNCc1ccc(-c2cccc(C(=O)[N-]C3CCC(O)CC3)c2)cc1 (protonated)
CCCNCc1ccc(-c2cccc(C(=O)[N-]C3CCC(O)CC3)c2)cc1 (3D coordinates assigned)
CCCNCc1ccc(-c2cccc(C(=O)[N-]C3CCC(O)CC3)c2)cc1 (nonaromatic ring conformer: 67.03469120383116 kcal/mol)

>  <smiles>  (30) 
CCCNCc1ccc(-c2cccc(C(=O)NC3CCC(O)CC3)c2)cc1

>  <score_type>  (30) 
oracle

>  <origin>  (30) 
adg

>  <m_score__min__energy>  (30) 
-11

>  <m_primary>  (30) 
energy

$$$$
31:0
     RDKit          3D

 23 24  0  0  0  0  0  0  0  0999 V2000
   -5.7290   25.6760  -30.6030 C   0  0  0  0  0  0  0  0  0  0  0  0
   -6.0650   24.5310  -30.7780 C   0  0  0  0  0  0  0  0  0  0  0  0
   -6.4660   23.1680  -30.9870 C   0  0  0  0  0  0  0  0  0  0  0  0
   -7.0000   22.5320  -30.0390 O   0  0  0  0  0  0  0  0  0  0  0  0
   -6.2990   22.5640  -32.2790 N   0  0  0  0  0  0  0  0  0  0  0  0
   -6.4920   21.1640  -32.5460 C   0  0  0  0  0  0  0  0  0  0  0  0
   -7.6600   20.5300  -32.0990 C   0  0  0  0  0  0  0  0  0  0  0  0
   -7.8730   19.2130  -32.3590 N   0  0  0  0  0  0  0  0  0  0  0  0
   -6.9810   18.4690  -33.0660 C   0  0  0  0  0  0  0  0  0  0  0  0
   -7.2370   17.1140  -33.3140 C   0  0  0  0  0  0  0  0  0  0  0  0
   -6.3220   16.3550  -34.0510 C   0  0  0  0  0  0  0  0  0  0  0  0
   -5.1530   16.9450  -34.5430 C   0  0  0  0  0  0  0  0  0  0  0  0
   -4.8900   18.2970  -34.3000 C   0  0  0  0  0  0  0  0  0  0  0  0
   -5.8000   19.0650  -33.5590 C   0  0  0  0  0  0  0  0  0  0  0  0
   -5.5660   20.4210  -33.2990 C   0  0  0  0  0  0  0  0  0  0  0  0
   -5.4225   26.7203  -30.4434 H   0  0  0  0  0  0  0  0  0  0  0  0
   -6.1100   23.1960  -33.0900 H   0  0  0  0  0  0  0  0  0  0  0  0
   -8.4097   21.1029  -31.5335 H   0  0  0  0  0  0  0  0  0  0  0  0
   -8.1562   16.6478  -32.9297 H   0  0  0  0  0  0  0  0  0  0  0  0
   -6.5223   15.2908  -34.2443 H   0  0  0  0  0  0  0  0  0  0  0  0
   -4.4379   16.3434  -35.1232 H   0  0  0  0  0  0  0  0  0  0  0  0
   -3.9702   18.7576  -34.6897 H   0  0  0  0  0  0  0  0  0  0  0  0
   -4.6567   20.9053  -33.6844 H   0  0  0  0  0  0  0  0  0  0  0  0
  1  2  3  0
  2  3  1  0
  3  4  2  0
  3  5  1  0
  5  6  1  0
  6  7  2  0
  7  8  1  0
  8  9  2  0
  9 10  1  0
 10 11  2  0
 11 12  1  0
 12 13  2  0
 13 14  1  0
 14 15  2  0
 15  6  1  0
 14  9  1  0
  1 16  1  0
  5 17  1  0
  7 18  1  0
 10 19  1  0
 11 20  1  0
 12 21  1  0
 13 22  1  0
 15 23  1  0
M  END
>  <UniqueID>  (31) 
31

>  <SMILES>  (31) 
C#CC(=O)Nc1cnc2ccccc2c1

>  <Energy>  (31) 
27.8344578244147

>  <Genealogy>  (31) 
C#CC(=O)Nc1cnc2ccccc2c1 (3D coordinates assigned)
C#CC(=O)Nc1cnc2ccccc2c1 (optimized conformer: 27.8344578244147 kcal/mol)

>  <smiles>  (31) 
C#CC(=O)Nc1cnc2ccccc2c1

>  <score_type>  (31) 
oracle

>  <origin>  (31) 
adg

>  <m_score__min__energy>  (31) 
-6.0700000000000003

>  <m_primary>  (31) 
energy

$$$$
32:0
     RDKit          3D

 55 57  0  0  0  0  0  0  0  0999 V2000
   -1.3410   22.6430  -29.1890 C   0  0  0  0  0  0  0  0  0  0  0  0
   -1.3970   22.6870  -30.6110 O   0  0  0  0  0  0  0  0  0  0  0  0
   -1.9870   21.6970  -31.4150 C   0  0  0  0  0  0  0  0  0  0  0  0
   -3.2040   21.9100  -32.0870 C   0  0  0  0  0  0  0  0  0  0  0  0
   -3.7640   20.9000  -32.8720 C   0  0  0  0  0  0  0  0  0  0  0  0
   -3.1290   19.6560  -32.9900 C   0  0  0  0  0  0  0  0  0  0  0  0
   -3.7380   18.5540  -33.8360 C   0  0  0  0  0  0  0  0  0  0  0  0
   -5.1710   18.3050  -33.5570 N   0  0  0  0  0  0  0  0  0  0  0  0
   -5.4790   18.1480  -32.1180 C   0  0  0  0  0  0  0  0  0  0  0  0
   -6.9930   18.1910  -31.8880 C   0  0  0  0  0  0  0  0  0  0  0  0
   -7.5760   19.5070  -32.2710 N   0  0  0  0  0  0  0  0  0  0  0  0
   -9.0080   19.3800  -32.6480 C   0  0  0  0  0  0  0  0  0  0  0  0
   -9.8280   20.6500  -32.3400 C   0  0  0  0  0  0  0  0  0  0  0  0
   -9.3740   21.3030  -31.1540 O   0  0  0  0  0  0  0  0  0  0  0  0
   -8.2740   22.1740  -31.0700 C   0  0  0  0  0  0  0  0  0  0  0  0
   -7.5990   22.2650  -29.8460 C   0  0  0  0  0  0  0  0  0  0  0  0
   -6.5010   23.1180  -29.7040 C   0  0  0  0  0  0  0  0  0  0  0  0
   -6.0660   23.8880  -30.7870 C   0  0  0  0  0  0  0  0  0  0  0  0
   -4.6880   24.9580  -30.6080 Cl  0  0  0  0  0  0  0  0  0  0  0  0
   -6.7300   23.8010  -32.0140 C   0  0  0  0  0  0  0  0  0  0  0  0
   -7.8290   22.9480  -32.1600 C   0  0  0  0  0  0  0  0  0  0  0  0
   -6.8060   20.1870  -33.3540 C   0  0  0  0  0  0  0  0  0  0  0  0
   -6.1080   19.1870  -34.2910 C   0  0  0  0  0  0  0  0  0  0  0  0
   -1.9000   19.4530  -32.3420 C   0  0  0  0  0  0  0  0  0  0  0  0
   -1.3300   20.4640  -31.5450 C   0  0  0  0  0  0  0  0  0  0  0  0
   -0.1140   20.2830  -30.8680 O   0  0  0  0  0  0  0  0  0  0  0  0
    0.4710   19.0160  -30.5860 C   0  0  0  0  0  0  0  0  0  0  0  0
   -2.1410   23.2716  -28.7709 H   0  0  0  0  0  0  0  0  0  0  0  0
   -1.4742   21.6055  -28.8487 H   0  0  0  0  0  0  0  0  0  0  0  0
   -0.3645   23.0179  -28.8487 H   0  0  0  0  0  0  0  0  0  0  0  0
   -3.7178   22.8781  -31.9936 H   0  0  0  0  0  0  0  0  0  0  0  0
   -4.7107   21.0820  -33.4018 H   0  0  0  0  0  0  0  0  0  0  0  0
   -3.6349   18.8333  -34.8949 H   0  0  0  0  0  0  0  0  0  0  0  0
   -3.1992   17.6274  -33.5890 H   0  0  0  0  0  0  0  0  0  0  0  0
   -5.0863   17.1825  -31.7666 H   0  0  0  0  0  0  0  0  0  0  0  0
   -5.0099   18.9723  -31.5608 H   0  0  0  0  0  0  0  0  0  0  0  0
   -7.4669   17.4029  -32.4916 H   0  0  0  0  0  0  0  0  0  0  0  0
   -7.1793   18.0350  -30.8152 H   0  0  0  0  0  0  0  0  0  0  0  0
   -7.5250   20.1340  -31.4320 H   0  0  0  0  0  0  0  0  0  0  0  0
   -9.0695   19.1764  -33.7272 H   0  0  0  0  0  0  0  0  0  0  0  0
   -9.4339   18.5607  -32.0503 H   0  0  0  0  0  0  0  0  0  0  0  0
   -9.7363   21.3464  -33.1866 H   0  0  0  0  0  0  0  0  0  0  0  0
  -10.8748   20.3502  -32.1843 H   0  0  0  0  0  0  0  0  0  0  0  0
   -7.9355   21.6609  -28.9905 H   0  0  0  0  0  0  0  0  0  0  0  0
   -5.9781   23.1837  -28.7385 H   0  0  0  0  0  0  0  0  0  0  0  0
   -6.3873   24.4050  -32.8671 H   0  0  0  0  0  0  0  0  0  0  0  0
   -8.3470   22.8813  -33.1281 H   0  0  0  0  0  0  0  0  0  0  0  0
   -7.4982   20.8031  -33.9467 H   0  0  0  0  0  0  0  0  0  0  0  0
   -6.0276   20.8015  -32.8781 H   0  0  0  0  0  0  0  0  0  0  0  0
   -6.8721   18.5654  -34.7807 H   0  0  0  0  0  0  0  0  0  0  0  0
   -5.5292   19.7594  -35.0309 H   0  0  0  0  0  0  0  0  0  0  0  0
   -1.3763   18.4927  -32.4584 H   0  0  0  0  0  0  0  0  0  0  0  0
    0.5355   18.8762  -29.4968 H   0  0  0  0  0  0  0  0  0  0  0  0
   -0.1507   18.2200  -31.0216 H   0  0  0  0  0  0  0  0  0  0  0  0
    1.4801   18.9729  -31.0216 H   0  0  0  0  0  0  0  0  0  0  0  0
  1  2  1  0
  2  3  1  0
  3  4  2  0
  4  5  1  0
  5  6  2  0
  6  7  1  0
  7  8  1  0
  8  9  1  0
  9 10  1  0
 10 11  1  0
 11 12  1  0
 12 13  1  0
 13 14  1  0
 14 15  1  0
 15 16  2  0
 16 17  1  0
 17 18  2  0
 18 19  1  0
 18 20  1  0
 20 21  2  0
 11 22  1  0
 22 23  1  0
  6 24  1  0
 24 25  2  0
 25 26  1  0
 26 27  1  0
 25  3  1  0
 23  8  1  0
 21 15  1  0
  1 28  1  0
  1 29  1  0
  1 30  1  0
  4 31  1  0
  5 32  1  0
  7 33  1  0
  7 34  1  0
  9 35  1  0
  9 36  1  0
 10 37  1  0
 10 38  1  0
 11 39  1  0
 12 40  1  0
 12 41  1  0
 13 42  1  0
 13 43  1  0
 16 44  1  0
 17 45  1  0
 20 46  1  0
 21 47  1  0
 22 48  1  0
 22 49  1  0
 23 50  1  0
 23 51  1  0
 24 52  1  0
 27 53  1  0
 27 54  1  0
 27 55  1  0
M  CHG  1  11   1
M  END
>  <UniqueID>  (32) 
32

>  <SMILES>  (32) 
COc1ccc(CN2CC[NH+](CCOc3ccc(Cl)cc3)CC2)cc1OC

>  <Energy>  (32) 
70.90487724071744

>  <Genealogy>  (32) 
COc1ccc(CN2CC[NH+](CCOc3ccc(Cl)cc3)CC2)cc1OC (protonated)
COc1ccc(CN2CC[NH+](CCOc3ccc(Cl)cc3)CC2)cc1OC (3D coordinates assigned)
COc1ccc(CN2CC[NH+](CCOc3ccc(Cl)cc3)CC2)cc1OC (nonaromatic ring conformer: 70.90487724071744 kcal/mol)

>  <smiles>  (32) 
COc1ccc(CN2CCN(CCOc3ccc(Cl)cc3)CC2)cc1OC

>  <score_type>  (32) 
oracle

>  <origin>  (32) 
adg

>  <m_score__min__energy>  (32) 
-7.9199999999999999

>  <m_primary>  (32) 
energy

$$$$
33:0
     RDKit          3D

 43 46  0  0  0  0  0  0  0  0999 V2000
   -4.5300   20.9060  -32.9280 C   0  0  0  0  0  0  0  0  0  0  0  0
   -5.9150   20.4600  -32.8060 N   0  0  0  0  0  0  0  0  0  0  0  0
   -6.4130   19.2090  -32.9850 C   0  0  0  0  0  0  0  0  0  0  0  0
   -5.6400   18.0940  -33.4540 N   0  0  0  0  0  0  0  0  0  0  0  0
   -5.3460   16.9950  -32.5230 C   0  0  0  0  0  0  0  0  0  0  0  0
   -4.5940   15.8200  -33.1880 C   0  0  0  0  0  0  0  0  0  0  0  0
   -4.7800   15.7960  -34.5930 O   0  0  0  0  0  0  0  0  0  0  0  0
   -4.2140   16.9710  -35.1350 C   0  0  0  0  0  0  0  0  0  0  0  0
   -5.1200   18.1560  -34.8250 C   0  0  0  0  0  0  0  0  0  0  0  0
   -7.7410   19.1210  -32.7150 N   0  0  0  0  0  0  0  0  0  0  0  0
   -8.0890   20.3760  -32.3870 C   0  0  0  0  0  0  0  0  0  0  0  0
   -9.3580   20.8530  -32.0670 C   0  0  0  0  0  0  0  0  0  0  0  0
   -9.4870   22.2250  -31.8040 C   0  0  0  0  0  0  0  0  0  0  0  0
   -8.3610   23.0800  -31.8560 C   0  0  0  0  0  0  0  0  0  0  0  0
   -7.0790   22.5660  -32.1720 C   0  0  0  0  0  0  0  0  0  0  0  0
   -5.9310   23.3650  -32.2160 O   0  0  0  0  0  0  0  0  0  0  0  0
   -5.7330   24.5500  -31.4530 C   0  0  0  0  0  0  0  0  0  0  0  0
   -4.6400   24.3120  -30.4700 C   0  0  0  0  0  0  0  0  0  0  0  0
   -4.6950   23.4330  -29.4070 C   0  0  0  0  0  0  0  0  0  0  0  0
   -3.4930   23.5790  -28.7510 C   0  0  0  0  0  0  0  0  0  0  0  0
   -2.7840   24.5440  -29.4490 C   0  0  0  0  0  0  0  0  0  0  0  0
   -3.4960   24.9620  -30.4680 O   0  0  0  0  0  0  0  0  0  0  0  0
   -6.9910   21.1940  -32.4370 C   0  0  0  0  0  0  0  0  0  0  0  0
   -4.0997   21.0446  -31.9252 H   0  0  0  0  0  0  0  0  0  0  0  0
   -3.9481   20.1498  -33.4754 H   0  0  0  0  0  0  0  0  0  0  0  0
   -4.4987   21.8596  -33.4754 H   0  0  0  0  0  0  0  0  0  0  0  0
   -4.7266   17.3874  -31.7030 H   0  0  0  0  0  0  0  0  0  0  0  0
   -6.3092   16.6050  -32.1623 H   0  0  0  0  0  0  0  0  0  0  0  0
   -3.5196   15.9197  -32.9739 H   0  0  0  0  0  0  0  0  0  0  0  0
   -4.9972   14.8830  -32.7765 H   0  0  0  0  0  0  0  0  0  0  0  0
   -3.2224   17.1403  -34.6899 H   0  0  0  0  0  0  0  0  0  0  0  0
   -4.1107   16.8614  -36.2246 H   0  0  0  0  0  0  0  0  0  0  0  0
   -4.5456   19.0861  -34.9473 H   0  0  0  0  0  0  0  0  0  0  0  0
   -5.9734   18.1274  -35.5184 H   0  0  0  0  0  0  0  0  0  0  0  0
   -8.3560   18.2800  -32.7880 H   0  0  0  0  0  0  0  0  0  0  0  0
  -10.2264   20.1792  -32.0222 H   0  0  0  0  0  0  0  0  0  0  0  0
  -10.4745   22.6406  -31.5546 H   0  0  0  0  0  0  0  0  0  0  0  0
   -8.4819   24.1536  -31.6492 H   0  0  0  0  0  0  0  0  0  0  0  0
   -5.4548   25.3779  -32.1217 H   0  0  0  0  0  0  0  0  0  0  0  0
   -6.6607   24.8124  -30.9234 H   0  0  0  0  0  0  0  0  0  0  0  0
   -5.5228   22.7593  -29.1406 H   0  0  0  0  0  0  0  0  0  0  0  0
   -3.1617   23.0378  -27.8525 H   0  0  0  0  0  0  0  0  0  0  0  0
   -1.7779   24.9042  -29.1881 H   0  0  0  0  0  0  0  0  0  0  0  0
  1  2  1  0
  2  3  1  0
  3  4  1  0
  4  5  1  0
  5  6  1  0
  6  7  1  0
  7  8  1  0
  8  9  1  0
  3 10  2  0
 10 11  1  0
 11 12  2  0
 12 13  1  0
 13 14  2  0
 14 15  1  0
 15 16  1  0
 16 17  1  0
 17 18  1  0
 18 19  2  0
 19 20  1  0
 20 21  2  0
 21 22  1  0
 15 23  2  0
 23  2  1  0
  9  4  1  0
 23 11  1  0
 22 18  1  0
  1 24  1  0
  1 25  1  0
  1 26  1  0
  5 27  1  0
  5 28  1  0
  6 29  1  0
  6 30  1  0
  8 31  1  0
  8 32  1  0
  9 33  1  0
  9 34  1  0
 10 35  1  0
 12 36  1  0
 13 37  1  0
 14 38  1  0
 17 39  1  0
 17 40  1  0
 19 41  1  0
 20 42  1  0
 21 43  1  0
M  CHG  1  10   1
M  END
>  <UniqueID>  (33) 
33

>  <SMILES>  (33) 
Cn1c(N2CCOCC2)[nH+]c2cccc(OCc3ccco3)c21

>  <Energy>  (33) 
118.53623578995224

>  <Genealogy>  (33) 
Cn1c(N2CCOCC2)[nH+]c2cccc(OCc3ccco3)c21 (protonated)
Cn1c(N2CCOCC2)[nH+]c2cccc(OCc3ccco3)c21 (3D coordinates assigned)
Cn1c(N2CCOCC2)[nH+]c2cccc(OCc3ccco3)c21 (nonaromatic ring conformer: 118.53623578995224 kcal/mol)

>  <smiles>  (33) 
Cn1c(N2CCOCC2)nc2cccc(OCc3ccco3)c21

>  <score_type>  (33) 
oracle

>  <origin>  (33) 
adg

>  <m_score__min__energy>  (33) 
-7.3799999999999999

>  <m_primary>  (33) 
energy

$$$$
34:0
     RDKit          3D

 39 41  0  0  0  0  0  0  0  0999 V2000
    0.9100   23.8210  -27.2370 C   0  0  0  0  0  0  0  0  0  0  0  0
    0.2280   24.4000  -28.3450 O   0  0  0  0  0  0  0  0  0  0  0  0
   -0.9280   23.8640  -28.9350 C   0  0  0  0  0  0  0  0  0  0  0  0
   -0.8740   23.0620  -30.0910 C   0  0  0  0  0  0  0  0  0  0  0  0
   -2.0460   22.5460  -30.6490 C   0  0  0  0  0  0  0  0  0  0  0  0
   -3.2900   22.8220  -30.0640 C   0  0  0  0  0  0  0  0  0  0  0  0
   -4.4990   22.2870  -30.6420 N   0  0  0  0  0  0  0  0  0  0  0  0
   -5.5730   23.1050  -30.8400 C   0  0  0  0  0  0  0  0  0  0  0  0
   -5.4970   24.3310  -30.5390 O   0  0  0  0  0  0  0  0  0  0  0  0
   -6.7710   22.5820  -31.3440 C   0  0  0  0  0  0  0  0  0  0  0  0
   -7.8900   23.4140  -31.5330 C   0  0  0  0  0  0  0  0  0  0  0  0
   -9.0970   22.8850  -31.9670 C   0  0  0  0  0  0  0  0  0  0  0  0
   -9.2240   21.5150  -32.1630 C   0  0  0  0  0  0  0  0  0  0  0  0
   -8.1340   20.6570  -31.9750 C   0  0  0  0  0  0  0  0  0  0  0  0
   -8.6160   18.7900  -31.9650 Br  0  0  0  0  0  0  0  0  0  0  0  0
   -6.8460   21.1950  -31.6410 C   0  0  0  0  0  0  0  0  0  0  0  0
   -5.6850   20.4450  -31.5900 N   0  0  0  0  0  0  0  0  0  0  0  0
   -5.5780   19.1180  -32.2230 C   0  0  0  0  0  0  0  0  0  0  0  0
   -4.5500   20.9730  -31.0170 C   0  0  0  0  0  0  0  0  0  0  0  0
   -3.5290   20.2440  -30.8520 O   0  0  0  0  0  0  0  0  0  0  0  0
   -3.3480   23.6240  -28.9160 C   0  0  0  0  0  0  0  0  0  0  0  0
   -2.1760   24.1390  -28.3500 C   0  0  0  0  0  0  0  0  0  0  0  0
   -2.2890   25.1610  -26.8760 S   0  0  0  0  0  0  0  0  0  0  0  0
   -4.0710   24.8630  -26.6590 C   0  0  0  0  0  0  0  0  0  0  0  0
    0.4705   24.1941  -26.3002 H   0  0  0  0  0  0  0  0  0  0  0  0
    0.8119   22.7261  -27.2775 H   0  0  0  0  0  0  0  0  0  0  0  0
    1.9744   24.0955  -27.2775 H   0  0  0  0  0  0  0  0  0  0  0  0
    0.0972   22.8404  -30.5576 H   0  0  0  0  0  0  0  0  0  0  0  0
   -1.9927   21.9200  -31.5519 H   0  0  0  0  0  0  0  0  0  0  0  0
   -7.8071   24.4929  -31.3350 H   0  0  0  0  0  0  0  0  0  0  0  0
   -9.9529   23.5496  -32.1558 H   0  0  0  0  0  0  0  0  0  0  0  0
  -10.1948   21.0989  -32.4702 H   0  0  0  0  0  0  0  0  0  0  0  0
   -5.5156   18.3440  -31.4438 H   0  0  0  0  0  0  0  0  0  0  0  0
   -6.4645   18.9377  -32.8488 H   0  0  0  0  0  0  0  0  0  0  0  0
   -4.6740   19.0821  -32.8488 H   0  0  0  0  0  0  0  0  0  0  0  0
   -4.3215   23.8503  -28.4566 H   0  0  0  0  0  0  0  0  0  0  0  0
   -4.3081   24.8234  -25.5856 H   0  0  0  0  0  0  0  0  0  0  0  0
   -4.6392   25.6786  -27.1301 H   0  0  0  0  0  0  0  0  0  0  0  0
   -4.3429   23.9069  -27.1301 H   0  0  0  0  0  0  0  0  0  0  0  0
  1  2  1  0
  2  3  1  0
  3  4  2  0
  4  5  1  0
  5  6  2  0
  6  7  1  0
  7  8  1  0
  8  9  2  0
  8 10  1  0
 10 11  2  0
 11 12  1  0
 12 13  2  0
 13 14  1  0
 14 15  1  0
 14 16  2  0
 16 17  1  0
 17 18  1  0
 17 19  1  0
 19 20  2  0
  6 21  1  0
 21 22  2  0
 22 23  1  0
 23 24  1  0
 22  3  1  0
 19  7  1  0
 16 10  1  0
  1 25  1  0
  1 26  1  0
  1 27  1  0
  4 28  1  0
  5 29  1  0
 11 30  1  0
 12 31  1  0
 13 32  1  0
 18 33  1  0
 18 34  1  0
 18 35  1  0
 21 36  1  0
 24 37  1  0
 24 38  1  0
 24 39  1  0
M  END
>  <UniqueID>  (34) 
34

>  <SMILES>  (34) 
COc1ccc(-n2c(=O)c3cccc(Br)c3n(C)c2=O)cc1SC

>  <Energy>  (34) 
69.35305882846554

>  <Genealogy>  (34) 
COc1ccc(-n2c(=O)c3cccc(Br)c3n(C)c2=O)cc1SC (3D coordinates assigned)
COc1ccc(-n2c(=O)c3cccc(Br)c3n(C)c2=O)cc1SC (optimized conformer: 69.35305882846554 kcal/mol)

>  <smiles>  (34) 
COc1ccc(-n2c(=O)c3cccc(Br)c3n(C)c2=O)cc1SC

>  <score_type>  (34) 
oracle

>  <origin>  (34) 
adg

>  <m_score__min__energy>  (34) 
-8.1300000000000008

>  <m_primary>  (34) 
energy

$$$$
35:0
     RDKit          3D

 43 45  0  0  0  0  0  0  0  0999 V2000
   -4.6750   22.7410  -31.3370 H   0  0  0  0  0  0  0  0  0  0  0  0
   -5.3580   22.9030  -32.0370 O   0  0  0  0  0  0  0  0  0  0  0  0
   -6.5110   22.2240  -31.6220 C   0  0  0  0  0  0  0  0  0  0  0  0
   -6.2616   21.1745  -31.4066 H   0  0  0  0  0  0  0  0  0  0  0  0
   -7.2681   22.2632  -32.4190 H   0  0  0  0  0  0  0  0  0  0  0  0
   -7.0640   22.8890  -30.3560 C   0  0  0  0  0  0  0  0  0  0  0  0
   -7.4873   22.1102  -29.7047 H   0  0  0  0  0  0  0  0  0  0  0  0
   -7.8287   23.6159  -30.6672 H   0  0  0  0  0  0  0  0  0  0  0  0
   -6.0290   23.6220  -29.6050 N   0  0  0  0  0  0  0  0  0  0  0  0
   -5.0960   23.3160  -29.9690 H   0  0  0  0  0  0  0  0  0  0  0  0
   -6.0810   23.3680  -28.5900 H   0  0  0  0  0  0  0  0  0  0  0  0
   -6.1470   25.0820  -29.7690 C   0  0  0  0  0  0  0  0  0  0  0  0
   -6.1202   25.5570  -28.7772 H   0  0  0  0  0  0  0  0  0  0  0  0
   -7.0974   25.2977  -30.2792 H   0  0  0  0  0  0  0  0  0  0  0  0
   -5.0040   25.6420  -30.6210 C   0  0  0  0  0  0  0  0  0  0  0  0
   -4.6332   26.5725  -30.1664 H   0  0  0  0  0  0  0  0  0  0  0  0
   -5.3767   25.8446  -31.6359 H   0  0  0  0  0  0  0  0  0  0  0  0
   -3.9130   24.6720  -30.6960 N   0  0  0  0  0  0  0  0  0  0  0  0
   -3.0830   24.3340  -29.7490 C   0  0  0  0  0  0  0  0  0  0  0  0
   -2.2950   25.2990  -29.2030 N   0  0  0  0  0  0  0  0  0  0  0  0
   -1.3980   25.0530  -28.2030 C   0  0  0  0  0  0  0  0  0  0  0  0
   -0.6380   26.1140  -27.7010 C   0  0  0  0  0  0  0  0  0  0  0  0
   -0.7617   27.1230  -28.1213 H   0  0  0  0  0  0  0  0  0  0  0  0
    0.2760   25.8990  -26.6700 C   0  0  0  0  0  0  0  0  0  0  0  0
    0.8748   26.7364  -26.2824 H   0  0  0  0  0  0  0  0  0  0  0  0
    0.4310   24.6220  -26.1300 C   0  0  0  0  0  0  0  0  0  0  0  0
    1.6720   24.3430  -24.7030 Br  0  0  0  0  0  0  0  0  0  0  0  0
   -0.3200   23.5480  -26.6210 C   0  0  0  0  0  0  0  0  0  0  0  0
   -0.1912   22.5472  -26.1831 H   0  0  0  0  0  0  0  0  0  0  0  0
   -1.2410   23.7380  -27.6730 C   0  0  0  0  0  0  0  0  0  0  0  0
   -2.0480   22.7250  -28.2520 C   0  0  0  0  0  0  0  0  0  0  0  0
   -2.9440   23.0260  -29.2530 C   0  0  0  0  0  0  0  0  0  0  0  0
   -3.6070   21.9240  -29.6450 N   0  0  0  0  0  0  0  0  0  0  0  0
   -3.0920   20.9490  -28.8660 C   0  0  0  0  0  0  0  0  0  0  0  0
   -3.4186   19.8998  -28.9168 H   0  0  0  0  0  0  0  0  0  0  0  0
   -2.1340   21.3890  -28.0160 N   0  0  0  0  0  0  0  0  0  0  0  0
   -1.4300   20.5130  -27.0770 C   0  0  0  0  0  0  0  0  0  0  0  0
   -1.1350   21.0955  -26.1918 H   0  0  0  0  0  0  0  0  0  0  0  0
   -0.5410   20.1010  -27.5768 H   0  0  0  0  0  0  0  0  0  0  0  0
   -2.3270   19.3570  -26.6400 C   0  0  0  0  0  0  0  0  0  0  0  0
   -2.3604   19.3139  -25.5414 H   0  0  0  0  0  0  0  0  0  0  0  0
   -3.3429   19.5128  -27.0319 H   0  0  0  0  0  0  0  0  0  0  0  0
   -1.9238   18.4116  -27.0319 H   0  0  0  0  0  0  0  0  0  0  0  0
  1  2  1  0
  2  3  1  0
  3  4  1  0
  3  5  1  0
  3  6  1  0
  6  7  1  0
  6  8  1  0
  6  9  1  0
  9 10  1  0
  9 11  1  0
  9 12  1  0
 12 13  1  0
 12 14  1  0
 12 15  1  0
 15 16  1  0
 15 17  1  0
 15 18  1  0
 18 19  2  0
 19 20  1  0
 20 21  1  0
 21 22  2  0
 22 23  1  0
 22 24  1  0
 24 25  1  0
 24 26  2  0
 26 27  1  0
 26 28  1  0
 28 29  1  0
 28 30  2  0
 30 31  1  0
 31 32  2  0
 32 33  1  0
 33 34  2  0
 34 35  1  0
 34 36  1  0
 36 37  1  0
 37 38  1  0
 37 39  1  0
 37 40  1  0
 40 41  1  0
 40 42  1  0
 40 43  1  0
 32 19  1  0
 30 21  1  0
 36 31  1  0
M  CHG  2   9   1  20  -1
M  END
>  <UniqueID>  (35) 
35

>  <SMILES>  (35) 
CCn1cnc2/c(=N\CC[NH2+]CCO)[n-]c3ccc(Br)cc3c21

>  <Energy>  (35) 
87.47476056223833

>  <Genealogy>  (35) 
CCn1cnc2c(=NCC[NH2+]CCO)[n-]c3ccc(Br)cc3c21 (protonated)
CCn1cnc2/c(=N\CC[NH2+]CCO)[n-]c3ccc(Br)cc3c21 (cis-trans isomerization)
CCn1cnc2/c(=N\CC[NH2+]CCO)[n-]c3ccc(Br)cc3c21 (3D coordinates assigned)
CCn1cnc2/c(=N\CC[NH2+]CCO)[n-]c3ccc(Br)cc3c21 (optimized conformer: 87.47476056223833 kcal/mol)

>  <smiles>  (35) 
CCn1cnc2c(=NCCNCCO)[nH]c3ccc(Br)cc3c21

>  <score_type>  (35) 
oracle

>  <origin>  (35) 
adg

>  <m_score__min__energy>  (35) 
-8.9700000000000006

>  <m_primary>  (35) 
energy

$$$$
36:0
     RDKit          3D

 38 39  0  0  0  0  0  0  0  0999 V2000
   -5.0551   23.0021  -32.5137 H   0  0  0  0  0  0  0  0  0  0  0  0
   -5.6570   22.1230  -32.2400 C   0  0  0  0  0  0  0  0  0  0  0  0
   -6.9880   22.2250  -32.3540 C   0  0  0  0  0  0  0  0  0  0  0  0
   -7.3639   23.1140  -32.8817 H   0  0  0  0  0  0  0  0  0  0  0  0
   -8.0350   21.2590  -31.8410 C   0  0  0  0  0  0  0  0  0  0  0  0
   -8.2097   21.4969  -30.7813 H   0  0  0  0  0  0  0  0  0  0  0  0
   -8.8970   21.4047  -32.5086 H   0  0  0  0  0  0  0  0  0  0  0  0
   -7.7260   19.7490  -31.9290 C   0  0  1  0  0  0  0  0  0  0  0  0
   -7.3394   19.4236  -30.9519 H   0  0  0  0  0  0  0  0  0  0  0  0
   -8.9570   19.0190  -32.2480 N   0  0  0  0  0  0  0  0  0  0  0  0
   -9.8570   19.5600  -32.9240 O   0  0  0  0  0  0  0  0  0  0  0  0
   -9.2140   17.8200  -31.6270 O   0  0  0  0  0  0  0  0  0  0  0  0
   -6.6330   19.4380  -32.9720 C   0  0  0  0  0  0  0  0  0  0  0  0
   -6.7715   18.4089  -33.3351 H   0  0  0  0  0  0  0  0  0  0  0  0
   -6.7288   20.1659  -33.7911 H   0  0  0  0  0  0  0  0  0  0  0  0
   -5.2210   19.5700  -32.3840 C   0  0  0  0  0  0  0  0  0  0  0  0
   -5.0983   18.8042  -31.6039 H   0  0  0  0  0  0  0  0  0  0  0  0
   -4.5158   19.4418  -33.2184 H   0  0  0  0  0  0  0  0  0  0  0  0
   -4.9340   20.9180  -31.7740 C   0  0  0  0  0  0  0  0  0  0  0  0
   -3.9810   20.9970  -30.8880 N   0  0  0  0  0  0  0  0  0  0  0  0
   -3.4090   22.2070  -30.3730 C   0  0  0  0  0  0  0  0  0  0  0  0
   -4.2500   23.2230  -29.9080 C   0  0  0  0  0  0  0  0  0  0  0  0
   -5.3415   23.0994  -29.9666 H   0  0  0  0  0  0  0  0  0  0  0  0
   -3.7110   24.3950  -29.3690 C   0  0  0  0  0  0  0  0  0  0  0  0
   -4.3797   25.1953  -29.0193 H   0  0  0  0  0  0  0  0  0  0  0  0
   -2.3140   24.5550  -29.2720 C   0  0  0  0  0  0  0  0  0  0  0  0
   -1.7150   25.7090  -28.7410 O   0  0  0  0  0  0  0  0  0  0  0  0
   -1.2260   25.8530  -27.4070 C   0  0  0  0  0  0  0  0  0  0  0  0
   -1.2506   26.9163  -27.1264 H   0  0  0  0  0  0  0  0  0  0  0  0
   -0.1955   25.4704  -27.3654 H   0  0  0  0  0  0  0  0  0  0  0  0
   -2.0840   25.0570  -26.4280 C   0  0  0  0  0  0  0  0  0  0  0  0
   -1.8024   25.3183  -25.3973 H   0  0  0  0  0  0  0  0  0  0  0  0
   -3.1449   25.2979  -26.5905 H   0  0  0  0  0  0  0  0  0  0  0  0
   -1.9232   23.9810  -26.5905 H   0  0  0  0  0  0  0  0  0  0  0  0
   -1.4790   23.5200  -29.7080 C   0  0  0  0  0  0  0  0  0  0  0  0
   -0.3876   23.6289  -29.6250 H   0  0  0  0  0  0  0  0  0  0  0  0
   -2.0190   22.3490  -30.2480 C   0  0  0  0  0  0  0  0  0  0  0  0
   -1.3526   21.5374  -30.5755 H   0  0  0  0  0  0  0  0  0  0  0  0
  1  2  1  0
  2  3  2  0
  3  4  1  0
  3  5  1  0
  5  6  1  0
  5  7  1  0
  5  8  1  0
  8  9  1  1
  8 10  1  0
 10 11  2  0
 10 12  1  0
  8 13  1  0
 13 14  1  0
 13 15  1  0
 13 16  1  0
 16 17  1  0
 16 18  1  0
 16 19  1  0
 19 20  2  0
 20 21  1  0
 21 22  2  0
 22 23  1  0
 22 24  1  0
 24 25  1  0
 24 26  2  0
 26 27  1  0
 27 28  1  0
 28 29  1  0
 28 30  1  0
 28 31  1  0
 31 32  1  0
 31 33  1  0
 31 34  1  0
 26 35  1  0
 35 36  1  0
 35 37  2  0
 37 38  1  0
 19  2  1  0
 37 21  1  0
M  CHG  2  10   1  12  -1
M  END
>  <UniqueID>  (36) 
36

>  <SMILES>  (36) 
CCOc1ccc(/N=C2\C=CC[C@@H]([N+](=O)[O-])CC2)cc1

>  <Energy>  (36) 
55.86769450976708

>  <Genealogy>  (36) 
CCOc1ccc(N=C2C=CC[C@@H]([N+](=O)[O-])CC2)cc1 (chirality)
CCOc1ccc(/N=C2\C=CC[C@@H]([N+](=O)[O-])CC2)cc1 (cis-trans isomerization)
CCOc1ccc(/N=C2\C=CC[C@@H]([N+](=O)[O-])CC2)cc1 (3D coordinates assigned)
CCOc1ccc(/N=C2\C=CC[C@@H]([N+](=O)[O-])CC2)cc1 (nonaromatic ring conformer: 55.86769450976708 kcal/mol)

>  <smiles>  (36) 
CCOc1ccc(N=C2C=CCC([N+](=O)[O-])CC2)cc1

>  <score_type>  (36) 
oracle

>  <origin>  (36) 
adg

>  <m_score__min__energy>  (36) 
-6.3399999999999999

>  <m_primary>  (36) 
energy

$$$$
37:0
     RDKit          3D

 33 34  0  0  0  0  0  0  0  0999 V2000
   -2.2990   24.5900  -28.6700 C   0  0  0  0  0  0  0  0  0  0  0  0
   -3.0910   25.2000  -29.6840 O   0  0  0  0  0  0  0  0  0  0  0  0
   -4.2020   24.5960  -30.2900 C   0  0  0  0  0  0  0  0  0  0  0  0
   -5.5040   25.1180  -30.1690 C   0  0  0  0  0  0  0  0  0  0  0  0
   -6.5750   24.4890  -30.8060 C   0  0  0  0  0  0  0  0  0  0  0  0
   -6.3640   23.3340  -31.5600 C   0  0  0  0  0  0  0  0  0  0  0  0
   -5.0780   22.7840  -31.6710 C   0  0  0  0  0  0  0  0  0  0  0  0
   -4.8820   21.6070  -32.4730 N   0  0  0  0  0  0  0  0  0  0  0  0
   -4.1140   20.4680  -32.0550 C   0  0  0  0  0  0  0  0  0  0  0  0
   -3.8160   20.3050  -30.8410 O   0  0  0  0  0  0  0  0  0  0  0  0
   -3.7120   19.4310  -33.0570 C   0  0  0  0  0  0  0  0  0  0  0  0
   -4.5890   19.4570  -34.1810 O   0  0  0  0  0  0  0  0  0  0  0  0
   -5.7540   18.6860  -34.2620 C   0  0  0  0  0  0  0  0  0  0  0  0
   -5.8730   17.7940  -35.1470 O   0  0  0  0  0  0  0  0  0  0  0  0
   -6.8440   18.9210  -33.3090 C   0  0  0  0  0  0  0  0  0  0  0  0
   -7.5060   20.1260  -33.0990 C   0  0  0  0  0  0  0  0  0  0  0  0
   -8.5010   20.0440  -32.1190 C   0  0  0  0  0  0  0  0  0  0  0  0
   -8.6260   18.7810  -31.5550 C   0  0  0  0  0  0  0  0  0  0  0  0
   -7.4980   17.7650  -32.2780 S   0  0  0  0  0  0  0  0  0  0  0  0
   -3.9990   23.4340  -31.0460 C   0  0  0  0  0  0  0  0  0  0  0  0
   -2.6802   24.8836  -27.6808 H   0  0  0  0  0  0  0  0  0  0  0  0
   -2.3505   23.4960  -28.7729 H   0  0  0  0  0  0  0  0  0  0  0  0
   -1.2545   24.9192  -28.7729 H   0  0  0  0  0  0  0  0  0  0  0  0
   -5.6778   26.0244  -29.5705 H   0  0  0  0  0  0  0  0  0  0  0  0
   -7.5889   24.9053  -30.7133 H   0  0  0  0  0  0  0  0  0  0  0  0
   -7.2108   22.8519  -32.0703 H   0  0  0  0  0  0  0  0  0  0  0  0
   -5.3750   21.5490  -33.3930 H   0  0  0  0  0  0  0  0  0  0  0  0
   -2.6847   19.6327  -33.3945 H   0  0  0  0  0  0  0  0  0  0  0  0
   -3.7678   18.4391  -32.5847 H   0  0  0  0  0  0  0  0  0  0  0  0
   -7.2710   21.0499  -33.6478 H   0  0  0  0  0  0  0  0  0  0  0  0
   -9.1257   20.8996  -31.8229 H   0  0  0  0  0  0  0  0  0  0  0  0
   -9.3408   18.4943  -30.7696 H   0  0  0  0  0  0  0  0  0  0  0  0
   -2.9833   23.0252  -31.1519 H   0  0  0  0  0  0  0  0  0  0  0  0
  1  2  1  0
  2  3  1  0
  3  4  2  0
  4  5  1  0
  5  6  2  0
  6  7  1  0
  7  8  1  0
  8  9  1  0
  9 10  2  0
  9 11  1  0
 11 12  1  0
 12 13  1  0
 13 14  2  0
 13 15  1  0
 15 16  2  0
 16 17  1  0
 17 18  2  0
 18 19  1  0
  7 20  2  0
 20  3  1  0
 19 15  1  0
  1 21  1  0
  1 22  1  0
  1 23  1  0
  4 24  1  0
  5 25  1  0
  6 26  1  0
  8 27  1  0
 11 28  1  0
 11 29  1  0
 16 30  1  0
 17 31  1  0
 18 32  1  0
 20 33  1  0
M  END
>  <UniqueID>  (37) 
37

>  <SMILES>  (37) 
COc1cccc(NC(=O)COC(=O)c2cccs2)c1

>  <Energy>  (37) 
58.081460371579084

>  <Genealogy>  (37) 
COc1cccc(NC(=O)COC(=O)c2cccs2)c1 (3D coordinates assigned)
COc1cccc(NC(=O)COC(=O)c2cccs2)c1 (optimized conformer: 58.081460371579084 kcal/mol)

>  <smiles>  (37) 
COc1cccc(NC(=O)COC(=O)c2cccs2)c1

>  <score_type>  (37) 
oracle

>  <origin>  (37) 
adg

>  <m_score__min__energy>  (37) 
-7.0300000000000002

>  <m_primary>  (37) 
energy

$$$$
38:0
     RDKit          3D

 30 31  0  0  0  0  0  0  0  0999 V2000
   -3.5140   24.0100  -28.2350 C   0  0  0  0  0  0  0  0  0  0  0  0
   -3.0580   23.8950  -29.6840 C   0  0  0  0  0  0  0  0  0  0  0  0
   -3.6360   24.9290  -30.4780 O   0  0  0  0  0  0  0  0  0  0  0  0
   -5.0090   25.1940  -30.5200 C   0  0  0  0  0  0  0  0  0  0  0  0
   -5.4340   26.3820  -30.5380 O   0  0  0  0  0  0  0  0  0  0  0  0
   -5.9560   24.0730  -30.5500 C   0  0  0  0  0  0  0  0  0  0  0  0
   -7.0090   23.9440  -29.7060 N   0  0  0  0  0  0  0  0  0  0  0  0
   -7.6100   22.7850  -30.0780 C   0  0  0  0  0  0  0  0  0  0  0  0
   -6.9710   22.2010  -31.1100 N   0  0  0  0  0  0  0  0  0  0  0  0
   -7.1980   21.0610  -31.7980 C   0  0  0  0  0  0  0  0  0  0  0  0
   -8.1710   20.3160  -31.4980 O   0  0  0  0  0  0  0  0  0  0  0  0
   -6.3380   20.7440  -32.8210 N   0  0  0  0  0  0  0  0  0  0  0  0
   -6.5010   19.5150  -33.6130 C   0  0  0  0  0  0  0  0  0  0  0  0
   -5.3900   19.3280  -34.4680 O   0  0  0  0  0  0  0  0  0  0  0  0
   -5.3800   18.0090  -34.9640 C   0  0  0  0  0  0  0  0  0  0  0  0
   -5.3060   21.5640  -33.0970 N   0  0  0  0  0  0  0  0  0  0  0  0
   -5.0980   22.6890  -32.4020 N   0  0  0  0  0  0  0  0  0  0  0  0
   -5.9500   22.9940  -31.4030 C   0  0  0  0  0  0  0  0  0  0  0  0
   -2.6673   23.7965  -27.5661 H   0  0  0  0  0  0  0  0  0  0  0  0
   -3.8824   25.0292  -28.0463 H   0  0  0  0  0  0  0  0  0  0  0  0
   -4.3216   23.2874  -28.0463 H   0  0  0  0  0  0  0  0  0  0  0  0
   -1.9619   23.9780  -29.7253 H   0  0  0  0  0  0  0  0  0  0  0  0
   -3.3822   22.9215  -30.0806 H   0  0  0  0  0  0  0  0  0  0  0  0
   -8.5088   22.3732  -29.5957 H   0  0  0  0  0  0  0  0  0  0  0  0
   -6.5841   18.6542  -32.9332 H   0  0  0  0  0  0  0  0  0  0  0  0
   -7.4110   19.6030  -34.2247 H   0  0  0  0  0  0  0  0  0  0  0  0
   -5.3746   17.3008  -34.1223 H   0  0  0  0  0  0  0  0  0  0  0  0
   -6.2769   17.8415  -35.5784 H   0  0  0  0  0  0  0  0  0  0  0  0
   -4.4807   17.8551  -35.5784 H   0  0  0  0  0  0  0  0  0  0  0  0
   -4.6420   21.3280  -33.8680 H   0  0  0  0  0  0  0  0  0  0  0  0
  1  2  1  0
  2  3  1  0
  3  4  1  0
  4  5  2  0
  4  6  1  0
  6  7  1  0
  7  8  2  0
  8  9  1  0
  9 10  1  0
 10 11  2  0
 10 12  1  0
 12 13  1  0
 13 14  1  0
 14 15  1  0
 12 16  1  0
 16 17  2  0
 17 18  1  0
 18  6  2  0
 18  9  1  0
  1 19  1  0
  1 20  1  0
  1 21  1  0
  2 22  1  0
  2 23  1  0
  8 24  1  0
 13 25  1  0
 13 26  1  0
 15 27  1  0
 15 28  1  0
 15 29  1  0
 16 30  1  0
M  CHG  1  16   1
M  END
>  <UniqueID>  (38) 
38

>  <SMILES>  (38) 
CCOC(=O)c1ncn2c(=O)n(COC)[nH+]nc12

>  <Energy>  (38) 
67.52887824597856

>  <Genealogy>  (38) 
CCOC(=O)c1ncn2c(=O)n(COC)[nH+]nc12 (protonated)
CCOC(=O)c1ncn2c(=O)n(COC)[nH+]nc12 (3D coordinates assigned)
CCOC(=O)c1ncn2c(=O)n(COC)[nH+]nc12 (optimized conformer: 67.52887824597856 kcal/mol)

>  <smiles>  (38) 
CCOC(=O)c1ncn2c(=O)n(COC)nnc12

>  <score_type>  (38) 
oracle

>  <origin>  (38) 
adg

>  <m_score__min__energy>  (38) 
-5.6500000000000004

>  <m_primary>  (38) 
energy

$$$$
39:0
     RDKit          3D

 33 34  0  0  0  0  0  0  0  0999 V2000
   -9.5489   22.6292  -31.8488 H   0  0  0  0  0  0  0  0  0  0  0  0
   -8.4950   22.3300  -31.9480 C   0  0  0  0  0  0  0  0  0  0  0  0
   -7.5640   23.2940  -31.9020 C   0  0  0  0  0  0  0  0  0  0  0  0
   -7.7576   24.2222  -32.4597 H   0  0  0  0  0  0  0  0  0  0  0  0
   -6.2740   23.1900  -31.1390 C   0  0  0  0  0  0  0  0  0  0  0  0
   -5.8371   22.1927  -31.2958 H   0  0  0  0  0  0  0  0  0  0  0  0
   -6.4736   23.3450  -30.0684 H   0  0  0  0  0  0  0  0  0  0  0  0
   -5.3600   24.1820  -31.5930 O   0  0  0  0  0  0  0  0  0  0  0  0
   -4.9200   25.2330  -30.7860 C   0  0  0  0  0  0  0  0  0  0  0  0
   -5.7250   26.1290  -30.4110 O   0  0  0  0  0  0  0  0  0  0  0  0
   -3.5360   25.2970  -30.4260 N   0  0  0  0  0  0  0  0  0  0  0  0
   -2.9050   24.6000  -29.3430 C   0  0  0  0  0  0  0  0  0  0  0  0
   -3.6330   23.6140  -28.6620 C   0  0  0  0  0  0  0  0  0  0  0  0
   -4.6607   23.3795  -28.9764 H   0  0  0  0  0  0  0  0  0  0  0  0
   -3.0630   22.9270  -27.5870 C   0  0  0  0  0  0  0  0  0  0  0  0
   -3.6375   22.1464  -27.0669 H   0  0  0  0  0  0  0  0  0  0  0  0
   -1.7630   23.2310  -27.1720 C   0  0  0  0  0  0  0  0  0  0  0  0
   -1.3114   22.6854  -26.3303 H   0  0  0  0  0  0  0  0  0  0  0  0
   -1.0380   24.2300  -27.8290 C   0  0  0  0  0  0  0  0  0  0  0  0
   -0.0180   24.4751  -27.4982 H   0  0  0  0  0  0  0  0  0  0  0  0
   -1.6060   24.9180  -28.9050 C   0  0  0  0  0  0  0  0  0  0  0  0
   -1.0356   25.7108  -29.4112 H   0  0  0  0  0  0  0  0  0  0  0  0
   -8.2000   20.8930  -32.1230 C   0  0  0  0  0  0  0  0  0  0  0  0
   -7.0810   20.5100  -32.8780 C   0  0  0  0  0  0  0  0  0  0  0  0
   -6.4370   21.2782  -33.3310 H   0  0  0  0  0  0  0  0  0  0  0  0
   -6.7810   19.1560  -33.0570 C   0  0  0  0  0  0  0  0  0  0  0  0
   -5.8938   18.8619  -33.6369 H   0  0  0  0  0  0  0  0  0  0  0  0
   -7.6070   18.1760  -32.5000 C   0  0  0  0  0  0  0  0  0  0  0  0
   -7.3651   17.1113  -32.6338 H   0  0  0  0  0  0  0  0  0  0  0  0
   -8.7420   18.5500  -31.7720 C   0  0  0  0  0  0  0  0  0  0  0  0
   -9.3972   17.7787  -31.3410 H   0  0  0  0  0  0  0  0  0  0  0  0
   -9.0440   19.9030  -31.5920 C   0  0  0  0  0  0  0  0  0  0  0  0
   -9.9455   20.1936  -31.0327 H   0  0  0  0  0  0  0  0  0  0  0  0
  1  2  1  0
  2  3  2  0
  3  4  1  0
  3  5  1  0
  5  6  1  0
  5  7  1  0
  5  8  1  0
  8  9  1  0
  9 10  2  0
  9 11  1  0
 11 12  1  0
 12 13  2  0
 13 14  1  0
 13 15  1  0
 15 16  1  0
 15 17  2  0
 17 18  1  0
 17 19  1  0
 19 20  1  0
 19 21  2  0
 21 22  1  0
  2 23  1  0
 23 24  2  0
 24 25  1  0
 24 26  1  0
 26 27  1  0
 26 28  2  0
 28 29  1  0
 28 30  1  0
 30 31  1  0
 30 32  2  0
 32 33  1  0
 21 12  1  0
 32 23  1  0
M  CHG  1  11  -1
M  END
>  <UniqueID>  (39) 
39

>  <SMILES>  (39) 
O=C([N-]c1ccccc1)OC/C=C\c1ccccc1

>  <Energy>  (39) 
39.161402816750225

>  <Genealogy>  (39) 
O=C([N-]c1ccccc1)OCC=Cc1ccccc1 (protonated)
O=C([N-]c1ccccc1)OC/C=C\c1ccccc1 (cis-trans isomerization)
O=C([N-]c1ccccc1)OC/C=C\c1ccccc1 (3D coordinates assigned)
O=C([N-]c1ccccc1)OC/C=C\c1ccccc1 (optimized conformer: 39.161402816750225 kcal/mol)

>  <smiles>  (39) 
O=C(Nc1ccccc1)OCC=Cc1ccccc1

>  <score_type>  (39) 
oracle

>  <origin>  (39) 
adg

>  <m_score__min__energy>  (39) 
-9.1699999999999999

>  <m_primary>  (39) 
energy

$$$$
40:0
     RDKit          3D

 51 54  0  0  0  0  0  0  0  0999 V2000
   -8.9080   20.0230  -32.0010 C   0  0  0  0  0  0  0  0  0  0  0  0
   -7.7800   19.1680  -32.4980 C   0  0  0  0  0  0  0  0  0  0  0  0
   -7.9740   17.7950  -32.7110 C   0  0  0  0  0  0  0  0  0  0  0  0
   -6.9160   16.9950  -33.1490 C   0  0  0  0  0  0  0  0  0  0  0  0
   -5.6550   17.5550  -33.3660 C   0  0  0  0  0  0  0  0  0  0  0  0
   -5.4380   18.9210  -33.1270 C   0  0  0  0  0  0  0  0  0  0  0  0
   -4.0900   19.5330  -33.3960 C   0  0  0  0  0  0  0  0  0  0  0  0
   -3.8620   20.7040  -32.4800 C   0  0  0  0  0  0  0  0  0  0  0  0
   -4.2340   22.0000  -32.8710 C   0  0  0  0  0  0  0  0  0  0  0  0
   -3.9760   23.0620  -32.0630 N   0  0  0  0  0  0  0  0  0  0  0  0
   -3.3510   22.9120  -30.8640 C   0  0  0  0  0  0  0  0  0  0  0  0
   -3.0810   24.0190  -30.0530 C   0  0  0  0  0  0  0  0  0  0  0  0
   -3.4860   25.2870  -30.4570 O   0  0  0  0  0  0  0  0  0  0  0  0
   -2.4050   23.8420  -28.8330 C   0  0  0  0  0  0  0  0  0  0  0  0
   -2.0570   25.0160  -28.0070 C   0  0  0  0  0  0  0  0  0  0  0  0
   -2.3460   25.0120  -26.7820 O   0  0  0  0  0  0  0  0  0  0  0  0
   -1.3700   26.1480  -28.5580 N   0  0  0  0  0  0  0  0  0  0  0  0
   -0.4490   27.0170  -27.8270 C   0  0  0  0  0  0  0  0  0  0  0  0
    0.3300   26.2370  -26.8020 C   0  0  0  0  0  0  0  0  0  0  0  0
    0.0930   26.4250  -25.4290 C   0  0  0  0  0  0  0  0  0  0  0  0
    0.8480   25.7290  -24.4820 C   0  0  0  0  0  0  0  0  0  0  0  0
    1.8370   24.8320  -24.8960 C   0  0  0  0  0  0  0  0  0  0  0  0
    2.5710   24.1590  -23.9760 F   0  0  0  0  0  0  0  0  0  0  0  0
    2.0700   24.6290  -26.2600 C   0  0  0  0  0  0  0  0  0  0  0  0
    1.3190   25.3270  -27.2100 C   0  0  0  0  0  0  0  0  0  0  0  0
   -2.0400   22.5360  -28.4330 C   0  0  0  0  0  0  0  0  0  0  0  0
   -1.3260   22.2770  -27.1390 C   0  0  0  0  0  0  0  0  0  0  0  0
   -2.3240   21.4790  -29.2430 N   0  0  0  0  0  0  0  0  0  0  0  0
   -2.9550   21.6320  -30.4350 C   0  0  0  0  0  0  0  0  0  0  0  0
   -3.2110   20.5280  -31.2510 C   0  0  0  0  0  0  0  0  0  0  0  0
   -6.5060   19.7250  -32.6960 C   0  0  0  0  0  0  0  0  0  0  0  0
   -8.9099   20.0244  -30.9010 H   0  0  0  0  0  0  0  0  0  0  0  0
   -8.7781   21.0515  -32.3688 H   0  0  0  0  0  0  0  0  0  0  0  0
   -9.8632   19.6200  -32.3688 H   0  0  0  0  0  0  0  0  0  0  0  0
   -8.9626   17.3469  -32.5325 H   0  0  0  0  0  0  0  0  0  0  0  0
   -7.0764   15.9208  -33.3235 H   0  0  0  0  0  0  0  0  0  0  0  0
   -4.8292   16.9234  -33.7254 H   0  0  0  0  0  0  0  0  0  0  0  0
   -3.3074   18.7792  -33.2246 H   0  0  0  0  0  0  0  0  0  0  0  0
   -4.0537   19.8796  -34.4393 H   0  0  0  0  0  0  0  0  0  0  0  0
   -4.7370   22.1568  -33.8366 H   0  0  0  0  0  0  0  0  0  0  0  0
    0.2526   27.4770  -28.5384 H   0  0  0  0  0  0  0  0  0  0  0  0
   -1.0343   27.7904  -27.3082 H   0  0  0  0  0  0  0  0  0  0  0  0
   -0.6904   27.1232  -25.0991 H   0  0  0  0  0  0  0  0  0  0  0  0
    0.6641   25.8870  -23.4091 H   0  0  0  0  0  0  0  0  0  0  0  0
    2.8450   23.9194  -26.5855 H   0  0  0  0  0  0  0  0  0  0  0  0
    1.5034   25.1629  -28.2819 H   0  0  0  0  0  0  0  0  0  0  0  0
   -1.9923   22.5187  -26.2978 H   0  0  0  0  0  0  0  0  0  0  0  0
   -1.0374   21.2169  -27.0853 H   0  0  0  0  0  0  0  0  0  0  0  0
   -0.4249   22.9055  -27.0853 H   0  0  0  0  0  0  0  0  0  0  0  0
   -2.9024   19.5222  -30.9300 H   0  0  0  0  0  0  0  0  0  0  0  0
   -6.3436   20.7974  -32.5124 H   0  0  0  0  0  0  0  0  0  0  0  0
  1  2  1  0
  2  3  2  0
  3  4  1  0
  4  5  2  0
  5  6  1  0
  6  7  1  0
  7  8  1  0
  8  9  2  0
  9 10  1  0
 10 11  2  0
 11 12  1  0
 12 13  1  0
 12 14  2  0
 14 15  1  0
 15 16  2  0
 15 17  1  0
 17 18  1  0
 18 19  1  0
 19 20  2  0
 20 21  1  0
 21 22  2  0
 22 23  1  0
 22 24  1  0
 24 25  2  0
 14 26  1  0
 26 27  1  0
 26 28  2  0
 28 29  1  0
 29 30  2  0
  6 31  2  0
 31  2  1  0
 30  8  1  0
 29 11  1  0
 25 19  1  0
  1 32  1  0
  1 33  1  0
  1 34  1  0
  3 35  1  0
  4 36  1  0
  5 37  1  0
  7 38  1  0
  7 39  1  0
  9 40  1  0
 18 41  1  0
 18 42  1  0
 20 43  1  0
 21 44  1  0
 24 45  1  0
 25 46  1  0
 27 47  1  0
 27 48  1  0
 27 49  1  0
 30 50  1  0
 31 51  1  0
M  CHG  2  13  -1  17  -1
M  END
>  <UniqueID>  (40) 
40

>  <SMILES>  (40) 
Cc1cccc(Cc2cnc3c([O-])c(C(=O)[N-]Cc4ccc(F)cc4)c(C)nc3c2)c1

>  <Energy>  (40) 
58.78618234606659

>  <Genealogy>  (40) 
Cc1cccc(Cc2cnc3c([O-])c(C(=O)[N-]Cc4ccc(F)cc4)c(C)nc3c2)c1 (protonated)
Cc1cccc(Cc2cnc3c([O-])c(C(=O)[N-]Cc4ccc(F)cc4)c(C)nc3c2)c1 (3D coordinates assigned)
Cc1cccc(Cc2cnc3c([O-])c(C(=O)[N-]Cc4ccc(F)cc4)c(C)nc3c2)c1 (optimized conformer: 58.78618234606659 kcal/mol)

>  <smiles>  (40) 
Cc1cccc(Cc2cnc3c(O)c(C(=O)NCc4ccc(F)cc4)c(C)nc3c2)c1

>  <score_type>  (40) 
oracle

>  <origin>  (40) 
adg

>  <m_score__min__energy>  (40) 
-14.52

>  <m_primary>  (40) 
energy

$$$$
41:0
     RDKit          3D

 39 40  0  0  0  0  0  0  0  0999 V2000
   -7.4890   23.0860  -31.1920 C   0  0  0  0  0  0  0  0  0  0  0  0
   -6.3710   23.4460  -32.1840 C   0  0  0  0  0  0  0  0  0  0  0  0
   -5.2230   24.1990  -31.6090 N   0  0  0  0  0  0  0  0  0  0  0  0
   -5.6380   25.2450  -30.6640 C   0  0  0  0  0  0  0  0  0  0  0  0
   -5.3860   24.7240  -29.2510 C   0  0  0  0  0  0  0  0  0  0  0  0
   -4.5030   23.4940  -29.4110 C   0  0  0  0  0  0  0  0  0  0  0  0
   -4.1750   23.4330  -30.9010 C   0  0  1  0  0  0  0  0  0  0  0  0
   -3.9090   22.0010  -31.4470 C   0  0  0  0  0  0  0  0  0  0  0  0
   -3.8230   21.9530  -32.9220 N   0  0  0  0  0  0  0  0  0  0  0  0
   -3.9400   20.5820  -33.4480 C   0  0  0  0  0  0  0  0  0  0  0  0
   -5.2470   19.9650  -33.0190 C   0  0  0  0  0  0  0  0  0  0  0  0
   -5.2560   18.8640  -32.1470 C   0  0  0  0  0  0  0  0  0  0  0  0
   -6.4680   18.3140  -31.7190 C   0  0  0  0  0  0  0  0  0  0  0  0
   -7.6790   18.8650  -32.1490 C   0  0  0  0  0  0  0  0  0  0  0  0
   -9.1990   18.1750  -31.6100 Cl  0  0  0  0  0  0  0  0  0  0  0  0
   -7.6770   19.9720  -33.0050 C   0  0  0  0  0  0  0  0  0  0  0  0
   -6.4660   20.5240  -33.4350 C   0  0  0  0  0  0  0  0  0  0  0  0
   -7.1187   23.2052  -30.1631 H   0  0  0  0  0  0  0  0  0  0  0  0
   -8.3494   23.7525  -31.3516 H   0  0  0  0  0  0  0  0  0  0  0  0
   -7.7988   22.0427  -31.3516 H   0  0  0  0  0  0  0  0  0  0  0  0
   -5.9825   22.5098  -32.6113 H   0  0  0  0  0  0  0  0  0  0  0  0
   -6.8298   24.1152  -32.9268 H   0  0  0  0  0  0  0  0  0  0  0  0
   -5.0508   26.1591  -30.8361 H   0  0  0  0  0  0  0  0  0  0  0  0
   -6.7026   25.4859  -30.8006 H   0  0  0  0  0  0  0  0  0  0  0  0
   -4.8730   25.4874  -28.6476 H   0  0  0  0  0  0  0  0  0  0  0  0
   -6.3273   24.4812  -28.7363 H   0  0  0  0  0  0  0  0  0  0  0  0
   -3.5832   23.5986  -28.8168 H   0  0  0  0  0  0  0  0  0  0  0  0
   -5.0025   22.5788  -29.0605 H   0  0  0  0  0  0  0  0  0  0  0  0
   -3.1988   23.9034  -31.0904 H   0  0  0  0  0  0  0  0  0  0  0  0
   -2.9592   21.6368  -31.0283 H   0  0  0  0  0  0  0  0  0  0  0  0
   -4.7585   21.3705  -31.1458 H   0  0  0  0  0  0  0  0  0  0  0  0
   -4.5520   22.5660  -33.3540 H   0  0  0  0  0  0  0  0  0  0  0  0
   -2.8860   22.3300  -33.1990 H   0  0  0  0  0  0  0  0  0  0  0  0
   -3.8957   20.6102  -34.5467 H   0  0  0  0  0  0  0  0  0  0  0  0
   -3.1119   19.9757  -33.0521 H   0  0  0  0  0  0  0  0  0  0  0  0
   -4.3056   18.4327  -31.7994 H   0  0  0  0  0  0  0  0  0  0  0  0
   -6.4689   17.4463  -31.0428 H   0  0  0  0  0  0  0  0  0  0  0  0
   -8.6293   20.4087  -33.3402 H   0  0  0  0  0  0  0  0  0  0  0  0
   -6.4686   21.3991  -34.1014 H   0  0  0  0  0  0  0  0  0  0  0  0
  1  2  1  0
  2  3  1  0
  3  4  1  0
  4  5  1  0
  5  6  1  0
  6  7  1  0
  7  8  1  0
  8  9  1  0
  9 10  1  0
 10 11  1  0
 11 12  2  0
 12 13  1  0
 13 14  2  0
 14 15  1  0
 14 16  1  0
 16 17  2  0
  7  3  1  0
 17 11  1  0
  1 18  1  0
  1 19  1  0
  1 20  1  0
  2 21  1  0
  2 22  1  0
  4 23  1  0
  4 24  1  0
  5 25  1  0
  5 26  1  0
  6 27  1  0
  6 28  1  0
  7 29  1  1
  8 30  1  0
  8 31  1  0
  9 32  1  0
  9 33  1  0
 10 34  1  0
 10 35  1  0
 12 36  1  0
 13 37  1  0
 16 38  1  0
 17 39  1  0
M  CHG  1   9   1
M  END
>  <UniqueID>  (41) 
41

>  <SMILES>  (41) 
CCN1CCC[C@H]1C[NH2+]Cc1ccc(Cl)cc1

>  <Energy>  (41) 
48.0563225316479

>  <Genealogy>  (41) 
CCN1CCCC1C[NH2+]Cc1ccc(Cl)cc1 (protonated)
CCN1CCC[C@H]1C[NH2+]Cc1ccc(Cl)cc1 (chirality)
CCN1CCC[C@H]1C[NH2+]Cc1ccc(Cl)cc1 (3D coordinates assigned)
CCN1CCC[C@H]1C[NH2+]Cc1ccc(Cl)cc1 (nonaromatic ring conformer: 48.0563225316479 kcal/mol)

>  <smiles>  (41) 
CCN1CCCC1CNCc1ccc(Cl)cc1

>  <score_type>  (41) 
oracle

>  <origin>  (41) 
adg

>  <m_score__min__energy>  (41) 
-6.5199999999999996

>  <m_primary>  (41) 
energy

$$$$
42:0
     RDKit          3D

 39 42  0  0  0  0  0  0  0  0999 V2000
   -5.0816   24.3083  -32.5834 H   0  0  0  0  0  0  0  0  0  0  0  0
   -5.3550   23.6520  -31.7440 C   0  0  0  0  0  0  0  0  0  0  0  0
   -6.3150   22.7370  -31.9320 C   0  0  0  0  0  0  0  0  0  0  0  0
   -8.0940   23.0600  -31.7740 S   0  0  0  0  0  0  0  0  0  0  0  0
   -8.3340   21.3690  -32.3160 C   0  0  0  0  0  0  0  0  0  0  0  0
   -9.7170   20.4220  -32.2720 S   0  0  0  0  0  0  0  0  0  0  0  0
   -8.8720   19.0150  -32.7050 C   0  0  0  0  0  0  0  0  0  0  0  0
   -9.3168   18.0199  -32.8534 H   0  0  0  0  0  0  0  0  0  0  0  0
   -7.5150   19.3310  -32.8420 C   0  0  0  0  0  0  0  0  0  0  0  0
   -6.4900   18.3290  -33.2020 C   0  0  0  0  0  0  0  0  0  0  0  0
   -5.7540   18.4660  -34.3880 C   0  0  0  0  0  0  0  0  0  0  0  0
   -5.9516   19.3133  -35.0611 H   0  0  0  0  0  0  0  0  0  0  0  0
   -4.7710   17.5300  -34.7170 C   0  0  0  0  0  0  0  0  0  0  0  0
   -4.2050   17.6363  -35.6542 H   0  0  0  0  0  0  0  0  0  0  0  0
   -4.5040   16.4600  -33.8610 C   0  0  0  0  0  0  0  0  0  0  0  0
   -3.7305   15.7246  -34.1274 H   0  0  0  0  0  0  0  0  0  0  0  0
   -5.2220   16.3190  -32.6570 C   0  0  0  0  0  0  0  0  0  0  0  0
   -4.9860   15.2690  -31.7590 O   0  0  0  0  0  0  0  0  0  0  0  0
   -4.5690   13.9620  -32.1410 C   0  0  0  0  0  0  0  0  0  0  0  0
   -4.3771   13.3605  -31.2403 H   0  0  0  0  0  0  0  0  0  0  0  0
   -5.3596   13.4850  -32.7389 H   0  0  0  0  0  0  0  0  0  0  0  0
   -3.6483   14.0310  -32.7389 H   0  0  0  0  0  0  0  0  0  0  0  0
   -6.2070   17.2610  -32.3360 C   0  0  0  0  0  0  0  0  0  0  0  0
   -6.7659   17.1630  -31.3937 H   0  0  0  0  0  0  0  0  0  0  0  0
   -7.2510   20.6470  -32.6050 N   0  0  0  0  0  0  0  0  0  0  0  0
   -6.0510   21.3710  -32.3920 C   0  0  0  0  0  0  0  0  0  0  0  0
   -4.9010   20.8720  -32.5180 O   0  0  0  0  0  0  0  0  0  0  0  0
   -4.6500   23.8170  -30.4620 C   0  0  0  0  0  0  0  0  0  0  0  0
   -3.5660   23.0570  -30.0710 C   0  0  0  0  0  0  0  0  0  0  0  0
   -3.0710   22.2663  -30.6539 H   0  0  0  0  0  0  0  0  0  0  0  0
   -3.2260   23.4860  -28.8030 C   0  0  0  0  0  0  0  0  0  0  0  0
   -2.3979   23.1112  -28.1836 H   0  0  0  0  0  0  0  0  0  0  0  0
   -4.1260   24.4760  -28.4630 C   0  0  0  0  0  0  0  0  0  0  0  0
   -4.1264   25.0295  -27.5124 H   0  0  0  0  0  0  0  0  0  0  0  0
   -5.0040   24.6640  -29.4680 N   0  0  0  0  0  0  0  0  0  0  0  0
   -6.1340   25.5900  -29.4300 C   0  0  0  0  0  0  0  0  0  0  0  0
   -6.3966   25.8052  -28.3837 H   0  0  0  0  0  0  0  0  0  0  0  0
   -5.8587   26.5256  -29.9388 H   0  0  0  0  0  0  0  0  0  0  0  0
   -6.9972   25.1362  -29.9388 H   0  0  0  0  0  0  0  0  0  0  0  0
  1  2  1  0
  2  3  2  0
  3  4  1  0
  4  5  1  0
  5  6  1  0
  6  7  1  0
  7  8  1  0
  7  9  2  0
  9 10  1  0
 10 11  2  0
 11 12  1  0
 11 13  1  0
 13 14  1  0
 13 15  2  0
 15 16  1  0
 15 17  1  0
 17 18  1  0
 18 19  1  0
 19 20  1  0
 19 21  1  0
 19 22  1  0
 17 23  2  0
 23 24  1  0
  9 25  1  0
 25 26  1  0
 26 27  2  0
  2 28  1  0
 28 29  2  0
 29 30  1  0
 29 31  1  0
 31 32  1  0
 31 33  2  0
 33 34  1  0
 33 35  1  0
 35 36  1  0
 36 37  1  0
 36 38  1  0
 36 39  1  0
 26  3  1  0
 35 28  1  0
 25  5  2  0
 23 10  1  0
M  CHG  1  25   1
M  END
>  <UniqueID>  (42) 
42

>  <SMILES>  (42) 
COc1cccc(-c2csc3[n+]2C(=O)/C(=C/c2cccn2C)S3)c1

>  <Energy>  (42) 
138.0783498682009

>  <Genealogy>  (42) 
COc1cccc(-c2csc3[n+]2C(=O)/C(=C/c2cccn2C)S3)c1 (cis-trans isomerization)
COc1cccc(-c2csc3[n+]2C(=O)/C(=C/c2cccn2C)S3)c1 (3D coordinates assigned)
COc1cccc(-c2csc3[n+]2C(=O)/C(=C/c2cccn2C)S3)c1 (nonaromatic ring conformer: 138.0783498682009 kcal/mol)

>  <smiles>  (42) 
COc1cccc(-c2csc3[n+]2C(=O)C(=Cc2cccn2C)S3)c1

>  <score_type>  (42) 
oracle

>  <origin>  (42) 
adg

>  <m_score__min__energy>  (42) 
-8.1300000000000008

>  <m_primary>  (42) 
energy

$$$$
43:0
     RDKit          3D

 52 54  0  0  1  0  0  0  0  0999 V2000
   -6.3850   25.6010  -29.4960 C   0  0  0  0  0  0  0  0  0  0  0  0
   -5.3640   26.1120  -30.4770 C   0  0  0  0  0  0  0  0  0  0  0  0
   -4.3320   25.1400  -30.7730 N   0  0  0  0  0  0  0  0  0  0  0  0
   -4.5680   23.8800  -30.8880 C   0  0  0  0  0  0  0  0  0  0  0  0
   -3.6180   23.0200  -30.3780 C   0  0  0  0  0  0  0  0  0  0  0  0
   -3.8460   21.6640  -30.4890 C   0  0  0  0  0  0  0  0  0  0  0  0
   -4.9670   21.2080  -31.0780 N   0  0  0  0  0  0  0  0  0  0  0  0
   -5.9120   22.0470  -31.5840 C   0  0  0  0  0  0  0  0  0  0  0  0
   -7.1490   21.5310  -32.2330 C   0  0  2  0  0  0  0  0  0  0  0  0
   -8.1750   22.6030  -31.9520 C   0  0  0  0  0  0  0  0  0  0  0  0
   -9.4480   22.3300  -32.3620 O   0  0  0  0  0  0  0  0  0  0  0  0
   -9.8360   21.1870  -31.6210 C   0  0  0  0  0  0  0  0  0  0  0  0
   -8.9590   20.0860  -32.1810 C   0  0  0  0  0  0  0  0  0  0  0  0
   -7.5620   20.2350  -31.8270 N   0  0  0  0  0  0  0  0  0  0  0  0
   -6.8390   19.1690  -32.4170 C   0  0  0  0  0  0  0  0  0  0  0  0
   -6.3770   19.3700  -33.8090 C   0  0  0  0  0  0  0  0  0  0  0  0
   -5.1580   18.4560  -33.9940 C   0  0  0  0  0  0  0  0  0  0  0  0
   -5.4540   17.1370  -33.5260 N   0  0  0  0  0  0  0  0  0  0  0  0
   -4.9930   16.2290  -34.5840 C   0  0  0  0  0  0  0  0  0  0  0  0
   -3.8160   16.7510  -35.3410 C   0  0  0  0  0  0  0  0  0  0  0  0
   -6.8570   16.8690  -33.3770 C   0  0  0  0  0  0  0  0  0  0  0  0
   -7.5460   17.8320  -32.4190 C   0  0  0  0  0  0  0  0  0  0  0  0
   -5.6470   23.3620  -31.4550 N   0  0  0  0  0  0  0  0  0  0  0  0
   -6.0293   25.7790  -28.4704 H   0  0  0  0  0  0  0  0  0  0  0  0
   -7.3379   26.1284  -29.6503 H   0  0  0  0  0  0  0  0  0  0  0  0
   -6.5339   24.5221  -29.6503 H   0  0  0  0  0  0  0  0  0  0  0  0
   -5.8777   26.3749  -31.4135 H   0  0  0  0  0  0  0  0  0  0  0  0
   -4.8746   26.9847  -30.0200 H   0  0  0  0  0  0  0  0  0  0  0  0
   -2.7061   23.4038  -29.8973 H   0  0  0  0  0  0  0  0  0  0  0  0
   -3.1073   20.9512  -30.0938 H   0  0  0  0  0  0  0  0  0  0  0  0
   -5.1270   20.1720  -31.1540 H   0  0  0  0  0  0  0  0  0  0  0  0
   -6.9838   21.3614  -33.3072 H   0  0  0  0  0  0  0  0  0  0  0  0
   -8.1992   22.7701  -30.8650 H   0  0  0  0  0  0  0  0  0  0  0  0
   -7.8562   23.4809  -32.5331 H   0  0  0  0  0  0  0  0  0  0  0  0
   -9.6468   21.3321  -30.5471 H   0  0  0  0  0  0  0  0  0  0  0  0
  -10.9098   20.9647  -31.7084 H   0  0  0  0  0  0  0  0  0  0  0  0
   -9.3174   19.1214  -31.7923 H   0  0  0  0  0  0  0  0  0  0  0  0
   -9.0264   20.1396  -33.2776 H   0  0  0  0  0  0  0  0  0  0  0  0
   -5.9754   19.1636  -31.7357 H   0  0  0  0  0  0  0  0  0  0  0  0
   -7.1715   19.0935  -34.5178 H   0  0  0  0  0  0  0  0  0  0  0  0
   -6.1197   20.4228  -33.9970 H   0  0  0  0  0  0  0  0  0  0  0  0
   -4.8952   18.4124  -35.0612 H   0  0  0  0  0  0  0  0  0  0  0  0
   -4.3145   18.8612  -33.4158 H   0  0  0  0  0  0  0  0  0  0  0  0
   -4.7141   15.2698  -34.1235 H   0  0  0  0  0  0  0  0  0  0  0  0
   -5.8192   16.1202  -35.3020 H   0  0  0  0  0  0  0  0  0  0  0  0
   -3.0466   17.0922  -34.6328 H   0  0  0  0  0  0  0  0  0  0  0  0
   -3.4032   15.9516  -35.9738 H   0  0  0  0  0  0  0  0  0  0  0  0
   -4.1314   17.5936  -35.9738 H   0  0  0  0  0  0  0  0  0  0  0  0
   -7.3368   16.9518  -34.3634 H   0  0  0  0  0  0  0  0  0  0  0  0
   -6.9570   15.8574  -32.9567 H   0  0  0  0  0  0  0  0  0  0  0  0
   -8.5896   17.9742  -32.7362 H   0  0  0  0  0  0  0  0  0  0  0  0
   -7.5139   17.4097  -31.4038 H   0  0  0  0  0  0  0  0  0  0  0  0
  1  2  1  0
  2  3  1  0
  3  4  2  0
  4  5  1  0
  5  6  2  0
  6  7  1  0
  7  8  1  0
  8  9  1  0
  9 10  1  0
 10 11  1  0
 11 12  1  0
 12 13  1  0
 13 14  1  0
 14 15  1  0
 15 16  1  0
 16 17  1  0
 17 18  1  0
 18 19  1  0
 19 20  1  0
 18 21  1  0
 21 22  1  0
  8 23  2  0
 23  4  1  0
 14  9  1  0
 22 15  1  0
  1 24  1  0
  1 25  1  0
  1 26  1  0
  2 27  1  0
  2 28  1  0
  5 29  1  0
  6 30  1  0
  7 31  1  0
  9 32  1  6
 10 33  1  0
 10 34  1  0
 12 35  1  0
 12 36  1  0
 13 37  1  0
 13 38  1  0
 15 39  1  0
 16 40  1  0
 16 41  1  0
 17 42  1  0
 17 43  1  0
 19 44  1  0
 19 45  1  0
 20 46  1  0
 20 47  1  0
 20 48  1  0
 21 49  1  0
 21 50  1  0
 22 51  1  0
 22 52  1  0
M  END
>  <smiles>  (43) 
CCN=c1cc[nH]c(C2COCCN2C2CCN(CC)CC2)n1

>  <score_type>  (43) 
oracle

>  <origin>  (43) 
adg

>  <m_score__min__energy>  (43) 
-8.0099999999999998

>  <m_primary>  (43) 
energy

$$$$
44:0
     RDKit          3D

 40 43  0  0  0  0  0  0  0  0999 V2000
   -1.2180   25.2380  -28.2930 C   0  0  0  0  0  0  0  0  0  0  0  0
   -2.1880   25.2920  -29.3350 O   0  0  0  0  0  0  0  0  0  0  0  0
   -3.3160   24.4620  -29.4080 C   0  0  0  0  0  0  0  0  0  0  0  0
   -3.5890   23.4700  -28.4450 C   0  0  0  0  0  0  0  0  0  0  0  0
   -4.7290   22.6690  -28.5640 C   0  0  0  0  0  0  0  0  0  0  0  0
   -5.6020   22.8470  -29.6400 C   0  0  0  0  0  0  0  0  0  0  0  0
   -5.3380   23.8260  -30.6020 C   0  0  0  0  0  0  0  0  0  0  0  0
   -6.4510   24.0480  -31.9890 S   0  0  0  0  0  0  0  0  0  0  0  0
   -7.2200   22.4490  -31.7420 C   0  0  0  0  0  0  0  0  0  0  0  0
   -8.4420   22.3460  -31.0420 C   0  0  0  0  0  0  0  0  0  0  0  0
   -9.0630   21.0970  -30.8750 C   0  0  0  0  0  0  0  0  0  0  0  0
   -8.4180   19.9860  -31.4110 C   0  0  0  0  0  0  0  0  0  0  0  0
   -8.8540   18.7160  -31.4160 N   0  0  0  0  0  0  0  0  0  0  0  0
   -7.9550   17.9890  -32.0710 N   0  0  0  0  0  0  0  0  0  0  0  0
   -6.9670   18.8380  -32.4460 C   0  0  0  0  0  0  0  0  0  0  0  0
   -5.7810   18.4170  -33.2170 C   0  0  0  0  0  0  0  0  0  0  0  0
   -4.5970   19.1650  -33.1230 C   0  0  0  0  0  0  0  0  0  0  0  0
   -3.4640   18.7850  -33.8490 C   0  0  0  0  0  0  0  0  0  0  0  0
   -3.5100   17.6660  -34.6840 C   0  0  0  0  0  0  0  0  0  0  0  0
   -4.6920   16.9300  -34.8030 C   0  0  0  0  0  0  0  0  0  0  0  0
   -5.8290   17.3050  -34.0780 C   0  0  0  0  0  0  0  0  0  0  0  0
   -6.9830   16.6130  -34.2590 F   0  0  0  0  0  0  0  0  0  0  0  0
   -7.2440   20.0990  -32.0480 N   0  0  0  0  0  0  0  0  0  0  0  0
   -6.6210   21.2880  -32.2590 C   0  0  0  0  0  0  0  0  0  0  0  0
   -4.1990   24.6330  -30.4830 C   0  0  0  0  0  0  0  0  0  0  0  0
   -1.7257   25.2663  -27.3176 H   0  0  0  0  0  0  0  0  0  0  0  0
   -0.6396   24.3063  -28.3784 H   0  0  0  0  0  0  0  0  0  0  0  0
   -0.5397   26.0998  -28.3784 H   0  0  0  0  0  0  0  0  0  0  0  0
   -2.9033   23.3254  -27.5972 H   0  0  0  0  0  0  0  0  0  0  0  0
   -4.9388   21.8972  -27.8088 H   0  0  0  0  0  0  0  0  0  0  0  0
   -6.4984   22.2158  -29.7303 H   0  0  0  0  0  0  0  0  0  0  0  0
   -8.9107   23.2495  -30.6248 H   0  0  0  0  0  0  0  0  0  0  0  0
  -10.0205   21.0008  -30.3421 H   0  0  0  0  0  0  0  0  0  0  0  0
   -9.7400   18.3460  -31.0070 H   0  0  0  0  0  0  0  0  0  0  0  0
   -4.5603   20.0536  -32.4757 H   0  0  0  0  0  0  0  0  0  0  0  0
   -2.5352   19.3680  -33.7625 H   0  0  0  0  0  0  0  0  0  0  0  0
   -2.6153   17.3640  -35.2482 H   0  0  0  0  0  0  0  0  0  0  0  0
   -4.7289   16.0543  -35.4677 H   0  0  0  0  0  0  0  0  0  0  0  0
   -5.6752   21.3400  -32.8183 H   0  0  0  0  0  0  0  0  0  0  0  0
   -3.9962   25.4063  -31.2386 H   0  0  0  0  0  0  0  0  0  0  0  0
  1  2  1  0
  2  3  1  0
  3  4  2  0
  4  5  1  0
  5  6  2  0
  6  7  1  0
  7  8  1  0
  8  9  1  0
  9 10  1  0
 10 11  2  0
 11 12  1  0
 12 13  2  0
 13 14  1  0
 14 15  2  0
 15 16  1  0
 16 17  2  0
 17 18  1  0
 18 19  2  0
 19 20  1  0
 20 21  2  0
 21 22  1  0
 15 23  1  0
 23 24  1  0
  7 25  2  0
 25  3  1  0
 24  9  2  0
 23 12  1  0
 21 16  1  0
  1 26  1  0
  1 27  1  0
  1 28  1  0
  4 29  1  0
  5 30  1  0
  6 31  1  0
 10 32  1  0
 11 33  1  0
 13 34  1  0
 17 35  1  0
 18 36  1  0
 19 37  1  0
 20 38  1  0
 24 39  1  0
 25 40  1  0
M  CHG  1  13   1
M  END
>  <UniqueID>  (44) 
43

>  <SMILES>  (44) 
COc1cccc(Sc2ccc3[nH+]nc(-c4ccccc4F)n3c2)c1

>  <Energy>  (44) 
86.79009902228356

>  <Genealogy>  (44) 
COc1cccc(Sc2ccc3[nH+]nc(-c4ccccc4F)n3c2)c1 (protonated)
COc1cccc(Sc2ccc3[nH+]nc(-c4ccccc4F)n3c2)c1 (3D coordinates assigned)
COc1cccc(Sc2ccc3[nH+]nc(-c4ccccc4F)n3c2)c1 (optimized conformer: 86.79009902228356 kcal/mol)

>  <smiles>  (44) 
COc1cccc(Sc2ccc3nnc(-c4ccccc4F)n3c2)c1

>  <score_type>  (44) 
oracle

>  <origin>  (44) 
adg

>  <m_score__min__energy>  (44) 
-9.0700000000000003

>  <m_primary>  (44) 
energy

$$$$
45:0
     RDKit          3D

 36 37  0  0  0  0  0  0  0  0999 V2000
   -3.4300   22.1990  -27.8840 C   0  0  0  0  0  0  0  0  0  0  0  0
   -3.8440   23.6240  -28.2660 C   0  0  0  0  0  0  0  0  0  0  0  0
   -4.9710   23.6420  -29.2110 N   0  0  0  0  0  0  0  0  0  0  0  0
   -4.5980   24.2630  -30.4520 C   0  0  0  0  0  0  0  0  0  0  0  0
   -3.8740   25.2950  -30.4470 O   0  0  0  0  0  0  0  0  0  0  0  0
   -5.0310   23.6930  -31.6890 N   0  0  0  0  0  0  0  0  0  0  0  0
   -5.2450   21.9900  -31.9170 S   0  0  0  0  0  0  0  0  0  0  0  0
   -4.6350   21.5640  -33.2220 O   0  0  0  0  0  0  0  0  0  0  0  0
   -4.5680   21.2670  -30.7860 O   0  0  0  0  0  0  0  0  0  0  0  0
   -6.9730   21.6030  -31.9340 C   0  0  0  0  0  0  0  0  0  0  0  0
   -7.8860   22.5810  -31.5060 C   0  0  0  0  0  0  0  0  0  0  0  0
   -9.2600   22.3360  -31.5450 C   0  0  0  0  0  0  0  0  0  0  0  0
   -9.7410   21.1130  -32.0130 C   0  0  0  0  0  0  0  0  0  0  0  0
   -8.8480   20.1260  -32.4320 C   0  0  0  0  0  0  0  0  0  0  0  0
   -7.4620   20.3500  -32.3860 C   0  0  0  0  0  0  0  0  0  0  0  0
   -6.5600   19.2650  -32.8190 C   0  0  0  0  0  0  0  0  0  0  0  0
   -6.0920   19.2160  -34.1400 C   0  0  0  0  0  0  0  0  0  0  0  0
   -5.2190   18.2000  -34.5330 C   0  0  0  0  0  0  0  0  0  0  0  0
   -4.8320   17.2330  -33.6020 C   0  0  0  0  0  0  0  0  0  0  0  0
   -5.3090   17.2830  -32.3300 N   0  0  0  0  0  0  0  0  0  0  0  0
   -6.1580   18.2630  -31.9230 C   0  0  0  0  0  0  0  0  0  0  0  0
   -3.4031   22.1063  -26.7882 H   0  0  0  0  0  0  0  0  0  0  0  0
   -4.1574   21.4833  -28.2948 H   0  0  0  0  0  0  0  0  0  0  0  0
   -2.4324   21.9844  -28.2948 H   0  0  0  0  0  0  0  0  0  0  0  0
   -4.1382   24.1637  -27.3538 H   0  0  0  0  0  0  0  0  0  0  0  0
   -2.9848   24.1046  -28.7567 H   0  0  0  0  0  0  0  0  0  0  0  0
   -5.3110   22.6680  -29.3910 H   0  0  0  0  0  0  0  0  0  0  0  0
   -5.7590   24.1850  -28.7890 H   0  0  0  0  0  0  0  0  0  0  0  0
   -7.5151   23.5485  -31.1368 H   0  0  0  0  0  0  0  0  0  0  0  0
   -9.9650   23.1093  -31.2058 H   0  0  0  0  0  0  0  0  0  0  0  0
  -10.8244   20.9267  -32.0517 H   0  0  0  0  0  0  0  0  0  0  0  0
   -9.2328   19.1640  -32.8016 H   0  0  0  0  0  0  0  0  0  0  0  0
   -6.4126   19.9776  -34.8661 H   0  0  0  0  0  0  0  0  0  0  0  0
   -4.8398   18.1613  -35.5649 H   0  0  0  0  0  0  0  0  0  0  0  0
   -4.1407   16.4304  -33.8985 H   0  0  0  0  0  0  0  0  0  0  0  0
   -6.5310   18.2707  -30.8882 H   0  0  0  0  0  0  0  0  0  0  0  0
  1  2  1  0
  2  3  1  0
  3  4  1  0
  4  5  2  0
  4  6  1  0
  6  7  1  0
  7  8  2  0
  7  9  2  0
  7 10  1  0
 10 11  2  0
 11 12  1  0
 12 13  2  0
 13 14  1  0
 14 15  2  0
 15 16  1  0
 16 17  2  0
 17 18  1  0
 18 19  2  0
 19 20  1  0
 20 21  2  0
 15 10  1  0
 21 16  1  0
  1 22  1  0
  1 23  1  0
  1 24  1  0
  2 25  1  0
  2 26  1  0
  3 27  1  0
  3 28  1  0
 11 29  1  0
 12 30  1  0
 13 31  1  0
 14 32  1  0
 17 33  1  0
 18 34  1  0
 19 35  1  0
 21 36  1  0
M  CHG  2   3   1   6  -1
M  END
>  <UniqueID>  (45) 
44

>  <SMILES>  (45) 
CC[NH2+]C(=O)[N-]S(=O)(=O)c1ccccc1-c1cccnc1

>  <Energy>  (45) 
44.5825750651476

>  <Genealogy>  (45) 
CC[NH2+]C(=O)[N-]S(=O)(=O)c1ccccc1-c1cccnc1 (protonated)
CC[NH2+]C(=O)[N-]S(=O)(=O)c1ccccc1-c1cccnc1 (3D coordinates assigned)
CC[NH2+]C(=O)[N-]S(=O)(=O)c1ccccc1-c1cccnc1 (optimized conformer: 44.5825750651476 kcal/mol)

>  <smiles>  (45) 
CCNC(=O)NS(=O)(=O)c1ccccc1-c1cccnc1

>  <score_type>  (45) 
oracle

>  <origin>  (45) 
adg

>  <m_score__min__energy>  (45) 
-8.1999999999999993

>  <m_primary>  (45) 
energy

$$$$
46:0
     RDKit          3D

 40 41  0  0  0  0  0  0  0  0999 V2000
   -1.1785   23.3399  -27.2699 H   0  0  0  0  0  0  0  0  0  0  0  0
   -1.8610   24.1220  -27.6340 C   0  0  0  0  0  0  0  0  0  0  0  0
   -2.9540   23.7270  -28.5540 C   0  0  0  0  0  0  0  0  0  0  0  0
   -2.6832   23.2886  -29.5258 H   0  0  0  0  0  0  0  0  0  0  0  0
   -4.2530   23.8750  -28.2660 C   0  0  0  0  0  0  0  0  0  0  0  0
   -4.5529   23.8907  -27.2078 H   0  0  0  0  0  0  0  0  0  0  0  0
   -5.3250   24.0210  -29.3120 C   0  0  0  0  0  0  0  0  0  0  0  0
   -5.8631   23.0669  -29.4128 H   0  0  0  0  0  0  0  0  0  0  0  0
   -6.0157   24.8185  -29.0007 H   0  0  0  0  0  0  0  0  0  0  0  0
   -4.7300   24.3900  -30.6320 C   0  0  0  0  0  0  0  0  0  0  0  0
   -3.8900   25.3280  -30.6960 O   0  0  0  0  0  0  0  0  0  0  0  0
   -5.1960   23.7570  -31.7920 O   0  0  0  0  0  0  0  0  0  0  0  0
   -6.2780   22.8660  -31.8500 C   0  0  0  0  0  0  0  0  0  0  0  0
   -6.0340   21.5440  -32.2440 C   0  0  0  0  0  0  0  0  0  0  0  0
   -5.0098   21.2282  -32.4914 H   0  0  0  0  0  0  0  0  0  0  0  0
   -7.0830   20.6230  -32.3250 C   0  0  0  0  0  0  0  0  0  0  0  0
   -6.8808   19.5850  -32.6276 H   0  0  0  0  0  0  0  0  0  0  0  0
   -8.3870   21.0200  -32.0220 C   0  0  0  0  0  0  0  0  0  0  0  0
   -9.2105   20.2930  -32.0797 H   0  0  0  0  0  0  0  0  0  0  0  0
   -8.6460   22.3390  -31.6460 C   0  0  0  0  0  0  0  0  0  0  0  0
   -9.6747   22.6520  -31.4138 H   0  0  0  0  0  0  0  0  0  0  0  0
   -7.6000   23.2630  -31.5640 C   0  0  0  0  0  0  0  0  0  0  0  0
   -7.8094   24.3036  -31.2753 H   0  0  0  0  0  0  0  0  0  0  0  0
   -1.6600   25.3820  -27.2220 C   0  0  0  0  0  0  0  0  0  0  0  0
   -1.8738   26.1960  -27.9304 H   0  0  0  0  0  0  0  0  0  0  0  0
   -1.1700   25.7460  -25.8780 C   0  0  0  0  0  0  0  0  0  0  0  0
   -1.4110   27.0470  -25.4100 C   0  0  0  0  0  0  0  0  0  0  0  0
   -2.0448   27.7296  -25.9951 H   0  0  0  0  0  0  0  0  0  0  0  0
   -0.8530   27.4790  -24.2100 C   0  0  0  0  0  0  0  0  0  0  0  0
   -1.0575   28.4927  -23.8350 H   0  0  0  0  0  0  0  0  0  0  0  0
   -0.0340   26.6150  -23.4900 C   0  0  0  0  0  0  0  0  0  0  0  0
    0.4215   26.9501  -22.5465 H   0  0  0  0  0  0  0  0  0  0  0  0
    0.2050   25.3580  -23.9490 N   0  0  0  0  0  0  0  0  0  0  0  0
    0.8170   24.7290  -23.3840 H   0  0  0  0  0  0  0  0  0  0  0  0
   -0.3470   24.8850  -25.1030 C   0  0  0  0  0  0  0  0  0  0  0  0
   -0.0680   23.5490  -25.4480 O   0  0  0  0  0  0  0  0  0  0  0  0
   -0.4920   22.3930  -24.7310 C   0  0  0  0  0  0  0  0  0  0  0  0
   -0.4214   22.5855  -23.6503 H   0  0  0  0  0  0  0  0  0  0  0  0
   -1.5342   22.1598  -24.9946 H   0  0  0  0  0  0  0  0  0  0  0  0
    0.1523   21.5413  -24.9946 H   0  0  0  0  0  0  0  0  0  0  0  0
  1  2  1  0
  2  3  1  0
  3  4  1  0
  3  5  2  0
  5  6  1  0
  5  7  1  0
  7  8  1  0
  7  9  1  0
  7 10  1  0
 10 11  2  0
 10 12  1  0
 12 13  1  0
 13 14  2  0
 14 15  1  0
 14 16  1  0
 16 17  1  0
 16 18  2  0
 18 19  1  0
 18 20  1  0
 20 21  1  0
 20 22  2  0
 22 23  1  0
  2 24  2  0
 24 25  1  0
 24 26  1  0
 26 27  2  0
 27 28  1  0
 27 29  1  0
 29 30  1  0
 29 31  2  0
 31 32  1  0
 31 33  1  0
 33 34  1  0
 33 35  2  0
 35 36  1  0
 36 37  1  0
 37 38  1  0
 37 39  1  0
 37 40  1  0
 22 13  1  0
 35 26  1  0
M  CHG  1  33   1
M  END
>  <UniqueID>  (46) 
45

>  <SMILES>  (46) 
COc1[nH+]cccc1/C=C\C=C/CC(=O)Oc1ccccc1

>  <Energy>  (46) 
53.519344141103566

>  <Genealogy>  (46) 
COc1[nH+]cccc1C=CC=CCC(=O)Oc1ccccc1 (protonated)
COc1[nH+]cccc1/C=C\C=C/CC(=O)Oc1ccccc1 (cis-trans isomerization)
COc1[nH+]cccc1/C=C\C=C/CC(=O)Oc1ccccc1 (3D coordinates assigned)
COc1[nH+]cccc1/C=C\C=C/CC(=O)Oc1ccccc1 (optimized conformer: 53.519344141103566 kcal/mol)

>  <smiles>  (46) 
COc1ncccc1C=CC=CCC(=O)Oc1ccccc1

>  <score_type>  (46) 
oracle

>  <origin>  (46) 
adg

>  <m_score__min__energy>  (46) 
-8.3800000000000008

>  <m_primary>  (46) 
energy

$$$$
