0:0
     RDKit          3D

 46 49  0  0  0  0  0  0  0  0999 V2000
   -9.9876   19.7123  -31.8435 H   0  0  0  0  0  0  0  0  0  0  0  0
   -9.0870   20.3400  -31.9130 C   0  0  0  0  0  0  0  0  0  0  0  0
   -9.0760   21.6210  -31.3230 C   0  0  0  0  0  0  0  0  0  0  0  0
   -9.9689   21.9877  -30.7955 H   0  0  0  0  0  0  0  0  0  0  0  0
   -7.9320   22.4310  -31.4050 C   0  0  0  0  0  0  0  0  0  0  0  0
   -7.9135   23.4296  -30.9441 H   0  0  0  0  0  0  0  0  0  0  0  0
   -6.8180   21.9360  -32.0870 C   0  0  0  0  0  0  0  0  0  0  0  0
   -6.8280   20.6880  -32.6590 C   0  0  0  0  0  0  0  0  0  0  0  0
   -7.9520   19.8630  -32.5890 C   0  0  0  0  0  0  0  0  0  0  0  0
   -7.9488   18.8649  -33.0514 H   0  0  0  0  0  0  0  0  0  0  0  0
   -5.5350   20.4350  -33.2760 C   0  0  0  0  0  0  0  0  0  0  0  0
   -5.2300   19.3830  -33.8970 O   0  0  0  0  0  0  0  0  0  0  0  0
   -4.6220   21.6150  -33.0880 C   0  0  2  0  0  0  0  0  0  0  0  0
   -4.2332   22.0439  -34.0233 H   0  0  0  0  0  0  0  0  0  0  0  0
   -3.3770   21.2360  -32.3160 C   0  0  0  0  0  0  0  0  0  0  0  0
   -3.4600   20.7270  -31.0070 C   0  0  0  0  0  0  0  0  0  0  0  0
   -4.4451   20.5664  -30.5447 H   0  0  0  0  0  0  0  0  0  0  0  0
   -2.2990   20.4240  -30.2900 C   0  0  0  0  0  0  0  0  0  0  0  0
   -2.3756   20.0271  -29.2670 H   0  0  0  0  0  0  0  0  0  0  0  0
   -1.0330   20.6240  -30.8700 C   0  0  0  0  0  0  0  0  0  0  0  0
    0.1610   20.3430  -30.1890 O   0  0  0  0  0  0  0  0  0  0  0  0
    0.2400   20.0340  -28.8010 C   0  0  0  0  0  0  0  0  0  0  0  0
    0.0100   20.9337  -28.2114 H   0  0  0  0  0  0  0  0  0  0  0  0
   -0.4846   19.2424  -28.5598 H   0  0  0  0  0  0  0  0  0  0  0  0
    1.2557   19.6873  -28.5598 H   0  0  0  0  0  0  0  0  0  0  0  0
   -0.9520   21.1240  -32.1740 C   0  0  0  0  0  0  0  0  0  0  0  0
    0.0333   21.2817  -32.6369 H   0  0  0  0  0  0  0  0  0  0  0  0
   -2.1110   21.4250  -32.8940 C   0  0  0  0  0  0  0  0  0  0  0  0
   -2.0314   21.8126  -33.9204 H   0  0  0  0  0  0  0  0  0  0  0  0
   -5.5170   22.5600  -32.3070 C   0  0  0  0  0  0  0  0  0  0  0  0
   -5.1710   23.7000  -31.7800 N   0  0  0  0  0  0  0  0  0  0  0  0
   -4.5150   23.8540  -30.5150 C   0  0  0  0  0  0  0  0  0  0  0  0
   -5.2480   24.0400  -29.3340 C   0  0  0  0  0  0  0  0  0  0  0  0
   -6.3475   24.0483  -29.3673 H   0  0  0  0  0  0  0  0  0  0  0  0
   -4.5870   24.2150  -28.1140 C   0  0  0  0  0  0  0  0  0  0  0  0
   -5.1676   24.3749  -27.1935 H   0  0  0  0  0  0  0  0  0  0  0  0
   -3.1800   24.1870  -28.0610 C   0  0  0  0  0  0  0  0  0  0  0  0
   -2.4690   24.3680  -26.8660 O   0  0  0  0  0  0  0  0  0  0  0  0
   -2.6540   25.4680  -25.9800 C   0  0  0  0  0  0  0  0  0  0  0  0
   -2.5946   25.1150  -24.9399 H   0  0  0  0  0  0  0  0  0  0  0  0
   -1.8694   26.2182  -26.1580 H   0  0  0  0  0  0  0  0  0  0  0  0
   -3.6408   25.9202  -26.1580 H   0  0  0  0  0  0  0  0  0  0  0  0
   -2.4560   23.9680  -29.2390 C   0  0  0  0  0  0  0  0  0  0  0  0
   -1.3570   23.9334  -29.2058 H   0  0  0  0  0  0  0  0  0  0  0  0
   -3.1190   23.7930  -30.4570 C   0  0  0  0  0  0  0  0  0  0  0  0
   -2.5404   23.6065  -31.3737 H   0  0  0  0  0  0  0  0  0  0  0  0
  1  2  1  0
  2  3  2  0
  3  4  1  0
  3  5  1  0
  5  6  1  0
  5  7  2  0
  7  8  1  0
  8  9  2  0
  9 10  1  0
  8 11  1  0
 11 12  2  0
 11 13  1  0
 13 14  1  6
 13 15  1  0
 15 16  2  0
 16 17  1  0
 16 18  1  0
 18 19  1  0
 18 20  2  0
 20 21  1  0
 21 22  1  0
 22 23  1  0
 22 24  1  0
 22 25  1  0
 20 26  1  0
 26 27  1  0
 26 28  2  0
 28 29  1  0
 13 30  1  0
 30 31  2  0
 31 32  1  0
 32 33  2  0
 33 34  1  0
 33 35  1  0
 35 36  1  0
 35 37  2  0
 37 38  1  0
 38 39  1  0
 39 40  1  0
 39 41  1  0
 39 42  1  0
 37 43  1  0
 43 44  1  0
 43 45  2  0
 45 46  1  0
  9  2  1  0
 28 15  1  0
 45 32  1  0
 30  7  1  0
M  END
>  <UniqueID>  (1) 
1

>  <SMILES>  (1) 
COc1ccc(/N=C2/c3ccccc3C(=O)[C@@H]2c2ccc(OC)cc2)cc1

>  <Energy>  (1) 
73.44687936968054

>  <Genealogy>  (1) 
COc1ccc(N=C2c3ccccc3C(=O)[C@@H]2c2ccc(OC)cc2)cc1 (chirality)
COc1ccc(/N=C2/c3ccccc3C(=O)[C@@H]2c2ccc(OC)cc2)cc1 (cis-trans isomerization)
COc1ccc(/N=C2/c3ccccc3C(=O)[C@@H]2c2ccc(OC)cc2)cc1 (3D coordinates assigned)
COc1ccc(/N=C2/c3ccccc3C(=O)[C@@H]2c2ccc(OC)cc2)cc1 (nonaromatic ring conformer: 73.44687936968054 kcal/mol)

>  <smiles>  (1) 
COc1ccc(N=C2c3ccccc3C(=O)C2c2ccc(OC)cc2)cc1

>  <score_type>  (1) 
oracle

>  <origin>  (1) 
adg

>  <m_score__min__energy>  (1) 
-7.96

>  <m_primary>  (1) 
energy

$$$$
1:0
     RDKit          3D

 44 46  0  0  0  0  0  0  0  0999 V2000
   -7.2220   17.8720  -32.7030 C   0  0  0  0  0  0  0  0  0  0  0  0
   -7.3410   19.1860  -32.0860 N   0  0  0  0  0  0  0  0  0  0  0  0
   -8.4890   19.7810  -31.7040 C   0  0  0  0  0  0  0  0  0  0  0  0
   -8.2250   21.0490  -31.2260 C   0  0  0  0  0  0  0  0  0  0  0  0
   -6.8570   21.2250  -31.3500 C   0  0  0  0  0  0  0  0  0  0  0  0
   -6.1110   22.3970  -30.9670 N   0  0  0  0  0  0  0  0  0  0  0  0
   -4.9600   22.3170  -30.0670 C   0  0  0  0  0  0  0  0  0  0  0  0
   -3.8250   23.3070  -30.5250 C   0  0  2  0  0  0  0  0  0  0  0  0
   -2.8900   22.5640  -31.5270 C   0  0  0  0  0  0  0  0  0  0  0  0
   -1.7230   21.8680  -30.8230 C   0  0  0  0  0  0  0  0  0  0  0  0
   -0.8690   22.8730  -30.0190 C   0  0  0  0  0  0  0  0  0  0  0  0
   -1.6190   24.0940  -29.6330 N   0  0  2  0  0  0  0  0  0  0  0  0
   -0.8170   24.8840  -28.2980 S   0  0  0  0  0  0  0  0  0  0  0  0
   -1.5450   24.3800  -26.7520 C   0  0  0  0  0  0  0  0  0  0  0  0
   -0.9690   26.3750  -28.4300 O   0  0  0  0  0  0  0  0  0  0  0  0
    0.6470   24.5390  -28.2920 O   0  0  0  0  0  0  0  0  0  0  0  0
   -3.0150   23.7740  -29.2770 C   0  0  0  0  0  0  0  0  0  0  0  0
   -4.2950   24.4740  -31.2180 O   0  0  0  0  0  0  0  0  0  0  0  0
   -5.6270   24.8400  -30.9140 C   0  0  0  0  0  0  0  0  0  0  0  0
   -6.5420   23.7220  -31.2840 C   0  0  0  0  0  0  0  0  0  0  0  0
   -7.6740   23.9510  -31.7910 O   0  0  0  0  0  0  0  0  0  0  0  0
   -6.3380   20.0610  -31.8870 C   0  0  0  0  0  0  0  0  0  0  0  0
   -7.1524   17.1037  -31.9189 H   0  0  0  0  0  0  0  0  0  0  0  0
   -8.1063   17.6790  -33.3280 H   0  0  0  0  0  0  0  0  0  0  0  0
   -6.3174   17.8410  -33.3280 H   0  0  0  0  0  0  0  0  0  0  0  0
   -9.4877   19.3240  -31.7643 H   0  0  0  0  0  0  0  0  0  0  0  0
   -8.9525   21.7717  -30.8280 H   0  0  0  0  0  0  0  0  0  0  0  0
   -5.2795   22.5807  -29.0480 H   0  0  0  0  0  0  0  0  0  0  0  0
   -4.5643   21.2909  -30.0896 H   0  0  0  0  0  0  0  0  0  0  0  0
   -3.4791   21.8083  -32.0672 H   0  0  0  0  0  0  0  0  0  0  0  0
   -2.4706   23.3125  -32.2153 H   0  0  0  0  0  0  0  0  0  0  0  0
   -2.1220   21.1074  -30.1358 H   0  0  0  0  0  0  0  0  0  0  0  0
   -1.0832   21.4053  -31.5889 H   0  0  0  0  0  0  0  0  0  0  0  0
   -0.5127   22.3768  -29.1042 H   0  0  0  0  0  0  0  0  0  0  0  0
   -0.0373   23.1889  -30.6659 H   0  0  0  0  0  0  0  0  0  0  0  0
   -1.6140   24.7690  -30.4330 H   0  0  0  0  0  0  0  0  0  0  0  0
   -0.9549   24.7885  -25.9184 H   0  0  0  0  0  0  0  0  0  0  0  0
   -2.5760   24.7586  -26.6915 H   0  0  0  0  0  0  0  0  0  0  0  0
   -1.5536   23.2817  -26.6915 H   0  0  0  0  0  0  0  0  0  0  0  0
   -3.0181   22.9699  -28.5263 H   0  0  0  0  0  0  0  0  0  0  0  0
   -3.4881   24.6825  -28.8760 H   0  0  0  0  0  0  0  0  0  0  0  0
   -5.7149   25.0456  -29.8370 H   0  0  0  0  0  0  0  0  0  0  0  0
   -5.8997   25.7424  -31.4809 H   0  0  0  0  0  0  0  0  0  0  0  0
   -5.2772   19.8797  -32.1146 H   0  0  0  0  0  0  0  0  0  0  0  0
  1  2  1  0
  2  3  1  0
  3  4  2  0
  4  5  1  0
  5  6  1  0
  6  7  1  0
  7  8  1  0
  8  9  1  0
  9 10  1  0
 10 11  1  0
 11 12  1  0
 12 13  1  0
 13 14  1  0
 13 15  2  0
 13 16  2  0
 12 17  1  0
  8 18  1  6
 18 19  1  0
 19 20  1  0
 20 21  2  0
  5 22  2  0
 22  2  1  0
 20  6  1  0
 17  8  1  0
  1 23  1  0
  1 24  1  0
  1 25  1  0
  3 26  1  0
  4 27  1  0
  7 28  1  0
  7 29  1  0
  9 30  1  0
  9 31  1  0
 10 32  1  0
 10 33  1  0
 11 34  1  0
 11 35  1  0
 12 36  1  6
 14 37  1  0
 14 38  1  0
 14 39  1  0
 17 40  1  0
 17 41  1  0
 19 42  1  0
 19 43  1  0
 22 44  1  0
M  CHG  1  12   1
M  END
>  <UniqueID>  (2) 
2

>  <SMILES>  (2) 
Cn1ccc(N2C[C@@]3(CCC[N@H+](S(C)(=O)=O)C3)OCC2=O)c1

>  <Energy>  (2) 
85.68103690709735

>  <Genealogy>  (2) 
Cn1ccc(N2CC3(CCC[NH+](S(C)(=O)=O)C3)OCC2=O)c1 (protonated)
Cn1ccc(N2C[C@@]3(CCC[N@H+](S(C)(=O)=O)C3)OCC2=O)c1 (chirality)
Cn1ccc(N2C[C@@]3(CCC[N@H+](S(C)(=O)=O)C3)OCC2=O)c1 (3D coordinates assigned)
Cn1ccc(N2C[C@@]3(CCC[N@H+](S(C)(=O)=O)C3)OCC2=O)c1 (nonaromatic ring conformer: 85.68103690709735 kcal/mol)

>  <smiles>  (2) 
Cn1ccc(N2CC3(CCCN(S(C)(=O)=O)C3)OCC2=O)c1

>  <score_type>  (2) 
oracle

>  <origin>  (2) 
adg

>  <m_score__min__energy>  (2) 
-7.0999999999999996

>  <m_primary>  (2) 
energy

$$$$
2:0
     RDKit          3D

 63 67  0  0  0  0  0  0  0  0999 V2000
   -4.9846   20.8651  -34.4867 H   0  0  0  0  0  0  0  0  0  0  0  0
   -4.9600   20.5340  -33.4380 C   0  0  0  0  0  0  0  0  0  0  0  0
   -3.7600   20.4270  -32.8480 C   0  0  0  0  0  0  0  0  0  0  0  0
   -2.9580   21.8590  -32.1100 S   0  0  0  0  0  0  0  0  0  0  0  0
   -1.5110   20.8280  -31.8440 C   0  0  0  0  0  0  0  0  0  0  0  0
   -0.4040   21.3080  -31.4860 O   0  0  0  0  0  0  0  0  0  0  0  0
   -1.6820   19.4380  -32.1140 N   0  0  0  0  0  0  0  0  0  0  0  0
   -0.6360   18.4240  -31.9880 C   0  0  0  0  0  0  0  0  0  0  0  0
   -1.0636   17.5140  -31.5419 H   0  0  0  0  0  0  0  0  0  0  0  0
   -0.2322   18.1982  -32.9860 H   0  0  0  0  0  0  0  0  0  0  0  0
    0.4990   18.9430  -31.0930 C   0  0  0  0  0  0  0  0  0  0  0  0
    1.3317   19.2661  -31.7351 H   0  0  0  0  0  0  0  0  0  0  0  0
    0.0936   19.7736  -30.4966 H   0  0  0  0  0  0  0  0  0  0  0  0
    1.0230   17.8810  -30.1070 C   0  0  0  0  0  0  0  0  0  0  0  0
    1.0575   16.9112  -30.6250 H   0  0  0  0  0  0  0  0  0  0  0  0
    2.0183   18.2104  -29.7740 H   0  0  0  0  0  0  0  0  0  0  0  0
    0.1500   17.7310  -28.8490 C   0  0  0  0  0  0  0  0  0  0  0  0
   -0.7012   17.0729  -29.0778 H   0  0  0  0  0  0  0  0  0  0  0  0
    0.7640   17.2996  -28.0447 H   0  0  0  0  0  0  0  0  0  0  0  0
   -0.3590   19.0410  -28.4020 N   0  0  0  0  0  0  0  0  0  0  0  0
    0.6600   19.8240  -27.6750 C   0  0  0  0  0  0  0  0  0  0  0  0
    0.7831   19.4184  -26.6599 H   0  0  0  0  0  0  0  0  0  0  0  0
    1.6230   19.7662  -28.2035 H   0  0  0  0  0  0  0  0  0  0  0  0
    0.1960   21.2860  -27.5940 C   0  0  0  0  0  0  0  0  0  0  0  0
    0.6094   21.7486  -26.6857 H   0  0  0  0  0  0  0  0  0  0  0  0
    0.5508   21.8251  -28.4848 H   0  0  0  0  0  0  0  0  0  0  0  0
   -1.2740   21.3510  -27.5470 N   0  0  0  0  0  0  0  0  0  0  0  0
   -1.9750   22.3590  -28.3020 C   0  0  0  0  0  0  0  0  0  0  0  0
   -1.3400   23.5650  -28.6560 C   0  0  0  0  0  0  0  0  0  0  0  0
   -0.2830   23.7213  -28.3947 H   0  0  0  0  0  0  0  0  0  0  0  0
   -2.0400   24.5650  -29.3360 C   0  0  0  0  0  0  0  0  0  0  0  0
   -1.5369   25.5063  -29.6021 H   0  0  0  0  0  0  0  0  0  0  0  0
   -3.3790   24.3670  -29.6770 C   0  0  0  0  0  0  0  0  0  0  0  0
   -4.0280   23.1820  -29.3110 C   0  0  0  0  0  0  0  0  0  0  0  0
   -3.3290   22.1760  -28.6370 C   0  0  0  0  0  0  0  0  0  0  0  0
   -3.8390   21.2392  -28.3680 H   0  0  0  0  0  0  0  0  0  0  0  0
   -5.3830   23.0250  -29.6220 O   0  0  0  0  0  0  0  0  0  0  0  0
   -6.1760   24.1360  -30.0460 C   0  0  0  0  0  0  0  0  0  0  0  0
   -7.0587   23.7659  -30.5881 H   0  0  0  0  0  0  0  0  0  0  0  0
   -6.4902   24.7097  -29.1616 H   0  0  0  0  0  0  0  0  0  0  0  0
   -5.3610   25.0500  -30.9700 C   0  0  0  0  0  0  0  0  0  0  0  0
   -5.2072   24.5462  -31.9357 H   0  0  0  0  0  0  0  0  0  0  0  0
   -5.9112   25.9906  -31.1200 H   0  0  0  0  0  0  0  0  0  0  0  0
   -4.0900   25.3420  -30.3820 O   0  0  0  0  0  0  0  0  0  0  0  0
   -1.9820   20.2320  -26.9120 C   0  0  0  0  0  0  0  0  0  0  0  0
   -1.7079   20.1842  -25.8478 H   0  0  0  0  0  0  0  0  0  0  0  0
   -3.0664   20.3876  -27.0109 H   0  0  0  0  0  0  0  0  0  0  0  0
   -1.5950   18.9050  -27.6000 C   0  0  0  0  0  0  0  0  0  0  0  0
   -1.4360   18.1373  -26.8285 H   0  0  0  0  0  0  0  0  0  0  0  0
   -2.4129   18.6208  -28.2785 H   0  0  0  0  0  0  0  0  0  0  0  0
   -2.9570   19.2070  -32.6940 C   0  0  0  0  0  0  0  0  0  0  0  0
   -3.3540   18.0520  -33.0020 O   0  0  0  0  0  0  0  0  0  0  0  0
   -6.2500   20.2400  -32.7830 C   0  0  0  0  0  0  0  0  0  0  0  0
   -6.7840   18.9390  -32.7860 C   0  0  0  0  0  0  0  0  0  0  0  0
   -6.2246   18.1172  -33.2568 H   0  0  0  0  0  0  0  0  0  0  0  0
   -8.0240   18.6880  -32.1920 C   0  0  0  0  0  0  0  0  0  0  0  0
   -8.4285   17.6652  -32.1770 H   0  0  0  0  0  0  0  0  0  0  0  0
   -8.7510   19.7340  -31.6170 C   0  0  0  0  0  0  0  0  0  0  0  0
   -9.7241   19.5333  -31.1449 H   0  0  0  0  0  0  0  0  0  0  0  0
   -8.2410   21.0360  -31.6420 C   0  0  0  0  0  0  0  0  0  0  0  0
   -8.8173   21.8607  -31.1973 H   0  0  0  0  0  0  0  0  0  0  0  0
   -6.9990   21.2900  -32.2320 C   0  0  0  0  0  0  0  0  0  0  0  0
   -6.6078   22.3176  -32.2641 H   0  0  0  0  0  0  0  0  0  0  0  0
  1  2  1  0
  2  3  2  0
  3  4  1  0
  4  5  1  0
  5  6  2  0
  5  7  1  0
  7  8  1  0
  8  9  1  0
  8 10  1  0
  8 11  1  0
 11 12  1  0
 11 13  1  0
 11 14  1  0
 14 15  1  0
 14 16  1  0
 14 17  1  0
 17 18  1  0
 17 19  1  0
 17 20  1  0
 20 21  1  0
 21 22  1  0
 21 23  1  0
 21 24  1  0
 24 25  1  0
 24 26  1  0
 24 27  1  0
 27 28  1  0
 28 29  2  0
 29 30  1  0
 29 31  1  0
 31 32  1  0
 31 33  2  0
 33 34  1  0
 34 35  2  0
 35 36  1  0
 34 37  1  0
 37 38  1  0
 38 39  1  0
 38 40  1  0
 38 41  1  0
 41 42  1  0
 41 43  1  0
 41 44  1  0
 27 45  1  0
 45 46  1  0
 45 47  1  0
 45 48  1  0
 48 49  1  0
 48 50  1  0
  7 51  1  0
 51 52  2  0
  2 53  1  0
 53 54  2  0
 54 55  1  0
 54 56  1  0
 56 57  1  0
 56 58  2  0
 58 59  1  0
 58 60  1  0
 60 61  1  0
 60 62  2  0
 62 63  1  0
 51  3  1  0
 62 53  1  0
 48 20  1  0
 35 28  1  0
 44 33  1  0
M  END
>  <UniqueID>  (3) 
3

>  <SMILES>  (3) 
O=C1S/C(=C/c2ccccc2)C(=O)N1CCCCN1CCN(c2ccc3c(c2)OCCO3)CC1

>  <Energy>  (3) 
98.19562070155362

>  <Genealogy>  (3) 
O=C1S/C(=C/c2ccccc2)C(=O)N1CCCCN1CCN(c2ccc3c(c2)OCCO3)CC1 (cis-trans isomerization)
O=C1S/C(=C/c2ccccc2)C(=O)N1CCCCN1CCN(c2ccc3c(c2)OCCO3)CC1 (3D coordinates assigned)
O=C1S/C(=C/c2ccccc2)C(=O)N1CCCCN1CCN(c2ccc3c(c2)OCCO3)CC1 (nonaromatic ring conformer: 98.19562070155362 kcal/mol)

>  <smiles>  (3) 
O=C1SC(=Cc2ccccc2)C(=O)N1CCCCN1CCN(c2ccc3c(c2)OCCO3)CC1

>  <score_type>  (3) 
oracle

>  <origin>  (3) 
adg

>  <m_score__min__energy>  (3) 
-9.8399999999999999

>  <m_primary>  (3) 
energy

$$$$
3:0
     RDKit          3D

 77 79  0  0  0  0  0  0  0  0999 V2000
   -1.8070   19.2110  -26.6880 C   0  0  0  0  0  0  0  0  0  0  0  0
   -1.0500   18.5590  -27.5750 C   0  0  0  0  0  0  0  0  0  0  0  0
    0.3650   18.9920  -27.8520 C   0  0  0  0  0  0  0  0  0  0  0  0
    0.3890   20.1800  -28.7740 C   0  0  0  0  0  0  0  0  0  0  0  0
    0.2760   21.6780  -28.1200 S   0  0  0  0  0  0  0  0  0  0  0  0
    0.3100   20.0440  -30.2050 N   0  0  0  0  0  0  0  0  0  0  0  0
    0.7230   18.8510  -30.9460 C   0  0  0  0  0  0  0  0  0  0  0  0
    0.8870   19.1370  -32.4430 C   0  0  0  0  0  0  0  0  0  0  0  0
    0.7000   20.5650  -32.7220 N   0  0  0  0  0  0  0  0  0  0  0  0
   -0.1470   20.7450  -33.9060 C   0  0  0  0  0  0  0  0  0  0  0  0
   -1.4200   21.5040  -33.5340 C   0  0  0  0  0  0  0  0  0  0  0  0
   -1.5780   21.5510  -32.0750 N   0  0  0  0  0  0  0  0  0  0  0  0
   -2.2180   20.3180  -31.5990 C   0  0  0  0  0  0  0  0  0  0  0  0
   -2.8610   20.5310  -30.2280 C   0  0  0  0  0  0  0  0  0  0  0  0
   -3.1210   21.9520  -29.9890 N   0  0  0  0  0  0  0  0  0  0  0  0
   -3.0310   22.5420  -28.6810 C   0  0  0  0  0  0  0  0  0  0  0  0
   -2.9640   21.7990  -27.6610 O   0  0  0  0  0  0  0  0  0  0  0  0
   -2.8960   24.0470  -28.5140 C   0  0  1  0  0  0  0  0  0  0  0  0
   -3.7670   24.5540  -27.3410 C   0  0  0  0  0  0  0  0  0  0  0  0
   -1.4160   24.3840  -28.1870 C   0  0  0  0  0  0  0  0  0  0  0  0
   -1.2120   24.8910  -26.7770 C   0  0  0  0  0  0  0  0  0  0  0  0
   -0.8480   24.0050  -25.7490 C   0  0  0  0  0  0  0  0  0  0  0  0
   -0.6300   24.4820  -24.4520 C   0  0  0  0  0  0  0  0  0  0  0  0
   -0.7770   25.8420  -24.1720 C   0  0  0  0  0  0  0  0  0  0  0  0
   -1.1460   26.7290  -25.1880 C   0  0  0  0  0  0  0  0  0  0  0  0
   -1.3610   26.2570  -26.4850 C   0  0  0  0  0  0  0  0  0  0  0  0
   -3.2660   24.7570  -29.7470 N   0  0  0  0  0  0  0  0  0  0  0  0
   -4.5430   24.9050  -30.3910 C   0  0  0  0  0  0  0  0  0  0  0  0
   -4.8570   26.0490  -30.8130 O   0  0  0  0  0  0  0  0  0  0  0  0
   -5.5120   23.8040  -30.5710 C   0  0  0  0  0  0  0  0  0  0  0  0
   -6.7980   23.8570  -30.0380 C   0  0  0  0  0  0  0  0  0  0  0  0
   -7.6120   22.4670  -30.5090 S   0  0  0  0  0  0  0  0  0  0  0  0
   -6.3110   21.8570  -31.3890 C   0  0  0  0  0  0  0  0  0  0  0  0
   -6.3200   20.6020  -32.1780 C   0  0  0  0  0  0  0  0  0  0  0  0
   -7.3590   19.6620  -32.0330 C   0  0  0  0  0  0  0  0  0  0  0  0
   -7.3780   18.5030  -32.8160 C   0  0  0  0  0  0  0  0  0  0  0  0
   -6.3630   18.2690  -33.7470 C   0  0  0  0  0  0  0  0  0  0  0  0
   -5.3220   19.1880  -33.8910 C   0  0  0  0  0  0  0  0  0  0  0  0
   -5.2970   20.3460  -33.1100 C   0  0  0  0  0  0  0  0  0  0  0  0
   -5.2530   22.7000  -31.3260 N   0  0  0  0  0  0  0  0  0  0  0  0
   -2.8390   18.8811  -26.4978 H   0  0  0  0  0  0  0  0  0  0  0  0
   -1.3983   20.0777  -26.1479 H   0  0  0  0  0  0  0  0  0  0  0  0
   -1.4666   17.6933  -28.1107 H   0  0  0  0  0  0  0  0  0  0  0  0
    0.8519   19.2619  -26.9032 H   0  0  0  0  0  0  0  0  0  0  0  0
    0.9003   18.1606  -28.3340 H   0  0  0  0  0  0  0  0  0  0  0  0
    0.1130   20.9040  -30.7670 H   0  0  0  0  0  0  0  0  0  0  0  0
    1.6839   18.4975  -30.5440 H   0  0  0  0  0  0  0  0  0  0  0  0
   -0.0605   18.0880  -30.8283 H   0  0  0  0  0  0  0  0  0  0  0  0
    1.8967   18.8365  -32.7595 H   0  0  0  0  0  0  0  0  0  0  0  0
    0.1274   18.5661  -32.9972 H   0  0  0  0  0  0  0  0  0  0  0  0
    1.6410   20.9750  -32.9330 H   0  0  0  0  0  0  0  0  0  0  0  0
    0.4072   21.3155  -34.6658 H   0  0  0  0  0  0  0  0  0  0  0  0
   -0.4217   19.7571  -34.3042 H   0  0  0  0  0  0  0  0  0  0  0  0
   -1.3580   22.5301  -33.9254 H   0  0  0  0  0  0  0  0  0  0  0  0
   -2.2861   20.9854  -33.9709 H   0  0  0  0  0  0  0  0  0  0  0  0
   -0.6200   21.6060  -31.6540 H   0  0  0  0  0  0  0  0  0  0  0  0
   -2.9938   20.0144  -32.3174 H   0  0  0  0  0  0  0  0  0  0  0  0
   -1.4501   19.5355  -31.5092 H   0  0  0  0  0  0  0  0  0  0  0  0
   -3.8114   19.9788  -30.1860 H   0  0  0  0  0  0  0  0  0  0  0  0
   -2.1699   20.1648  -29.4545 H   0  0  0  0  0  0  0  0  0  0  0  0
   -3.1460   22.5780  -30.8240 H   0  0  0  0  0  0  0  0  0  0  0  0
   -3.2937   24.2785  -26.3870 H   0  0  0  0  0  0  0  0  0  0  0  0
   -3.8616   25.6483  -27.4008 H   0  0  0  0  0  0  0  0  0  0  0  0
   -4.7653   24.0959  -27.4008 H   0  0  0  0  0  0  0  0  0  0  0  0
   -0.8135   23.4734  -28.3205 H   0  0  0  0  0  0  0  0  0  0  0  0
   -1.1086   25.1903  -28.8692 H   0  0  0  0  0  0  0  0  0  0  0  0
   -0.7340   22.9324  -25.9648 H   0  0  0  0  0  0  0  0  0  0  0  0
   -0.3423   23.7845  -23.6515 H   0  0  0  0  0  0  0  0  0  0  0  0
   -0.6025   26.2156  -23.1522 H   0  0  0  0  0  0  0  0  0  0  0  0
   -1.2671   27.7995  -24.9657 H   0  0  0  0  0  0  0  0  0  0  0  0
   -1.6485   26.9586  -27.2819 H   0  0  0  0  0  0  0  0  0  0  0  0
   -7.2079   24.6675  -29.4175 H   0  0  0  0  0  0  0  0  0  0  0  0
   -8.1597   19.8403  -31.3001 H   0  0  0  0  0  0  0  0  0  0  0  0
   -8.1937   17.7744  -32.6985 H   0  0  0  0  0  0  0  0  0  0  0  0
   -6.3841   17.3604  -34.3667 H   0  0  0  0  0  0  0  0  0  0  0  0
   -4.5204   19.0000  -34.6204 H   0  0  0  0  0  0  0  0  0  0  0  0
   -4.4711   21.0635  -33.2244 H   0  0  0  0  0  0  0  0  0  0  0  0
  1  2  2  0
  2  3  1  0
  3  4  1  0
  4  5  2  0
  4  6  1  0
  6  7  1  0
  7  8  1  0
  8  9  1  0
  9 10  1  0
 10 11  1  0
 11 12  1  0
 12 13  1  0
 13 14  1  0
 14 15  1  0
 15 16  1  0
 16 17  2  0
 16 18  1  0
 18 19  1  0
 18 20  1  0
 20 21  1  0
 21 22  2  0
 22 23  1  0
 23 24  2  0
 24 25  1  0
 25 26  2  0
 18 27  1  6
 27 28  1  0
 28 29  2  0
 28 30  1  0
 30 31  2  0
 31 32  1  0
 32 33  1  0
 33 34  1  0
 34 35  2  0
 35 36  1  0
 36 37  2  0
 37 38  1  0
 38 39  2  0
 33 40  2  0
 26 21  1  0
 40 30  1  0
 39 34  1  0
  1 41  1  0
  1 42  1  0
  2 43  1  0
  3 44  1  0
  3 45  1  0
  6 46  1  0
  7 47  1  0
  7 48  1  0
  8 49  1  0
  8 50  1  0
  9 51  1  0
 10 52  1  0
 10 53  1  0
 11 54  1  0
 11 55  1  0
 12 56  1  0
 13 57  1  0
 13 58  1  0
 14 59  1  0
 14 60  1  0
 15 61  1  0
 19 62  1  0
 19 63  1  0
 19 64  1  0
 20 65  1  0
 20 66  1  0
 22 67  1  0
 23 68  1  0
 24 69  1  0
 25 70  1  0
 26 71  1  0
 31 72  1  0
 35 73  1  0
 36 74  1  0
 37 75  1  0
 38 76  1  0
 39 77  1  0
M  CHG  1  27  -1
M  END
>  <UniqueID>  (4) 
4

>  <SMILES>  (4) 
C=CCC(=S)NCCNCCNCCNC(=O)[C@@](C)(Cc1ccccc1)[N-]C(=O)c1csc(-c2ccccc2)n1

>  <Energy>  (4) 
87.41857776053386

>  <Genealogy>  (4) 
C=CCC(=S)NCCNCCNCCNC(=O)C(C)(Cc1ccccc1)[N-]C(=O)c1csc(-c2ccccc2)n1 (protonated)
C=CCC(=S)NCCNCCNCCNC(=O)[C@@](C)(Cc1ccccc1)[N-]C(=O)c1csc(-c2ccccc2)n1 (chirality)
C=CCC(=S)NCCNCCNCCNC(=O)[C@@](C)(Cc1ccccc1)[N-]C(=O)c1csc(-c2ccccc2)n1 (3D coordinates assigned)
C=CCC(=S)NCCNCCNCCNC(=O)[C@@](C)(Cc1ccccc1)[N-]C(=O)c1csc(-c2ccccc2)n1 (optimized conformer: 87.41857776053386 kcal/mol)

>  <smiles>  (4) 
C=CCC(=S)NCCNCCNCCNC(=O)C(C)(Cc1ccccc1)NC(=O)c1csc(-c2ccccc2)n1

>  <score_type>  (4) 
oracle

>  <origin>  (4) 
adg

>  <m_score__min__energy>  (4) 
-14.18

>  <m_primary>  (4) 
energy

$$$$
4:0
     RDKit          3D

 36 37  0  0  0  0  0  0  0  0999 V2000
   -8.7380   18.7160  -31.9410 C   0  0  0  0  0  0  0  0  0  0  0  0
   -8.5770   20.2330  -32.0000 C   0  0  0  0  0  0  0  0  0  0  0  0
   -7.2360   20.6210  -32.6380 C   0  0  0  0  0  0  0  0  0  0  0  0
   -6.9330   22.1250  -32.5100 C   0  0  0  0  0  0  0  0  0  0  0  0
   -5.5050   22.4190  -32.7170 N   0  0  0  0  0  0  0  0  0  0  0  0
   -4.7120   21.9610  -31.5660 C   0  0  0  0  0  0  0  0  0  0  0  0
   -4.2010   23.1320  -30.7820 C   0  0  0  0  0  0  0  0  0  0  0  0
   -3.5280   23.0690  -29.5810 C   0  0  0  0  0  0  0  0  0  0  0  0
   -3.2120   24.3910  -29.3170 C   0  0  0  0  0  0  0  0  0  0  0  0
   -2.4850   24.9270  -28.1450 C   0  0  0  0  0  0  0  0  0  0  0  0
   -3.0940   24.9030  -26.8780 C   0  0  0  0  0  0  0  0  0  0  0  0
   -2.4230   25.4050  -25.7580 C   0  0  0  0  0  0  0  0  0  0  0  0
   -1.1370   25.9360  -25.8910 C   0  0  0  0  0  0  0  0  0  0  0  0
   -0.2970   26.5640  -24.4860 Cl  0  0  0  0  0  0  0  0  0  0  0  0
   -0.5210   25.9640  -27.1450 C   0  0  0  0  0  0  0  0  0  0  0  0
   -1.1890   25.4630  -28.2680 C   0  0  0  0  0  0  0  0  0  0  0  0
   -3.6660   25.1310  -30.3050 O   0  0  0  0  0  0  0  0  0  0  0  0
   -4.2600   24.4070  -31.2080 N   0  0  0  0  0  0  0  0  0  0  0  0
   -8.7724   18.3915  -30.8905 H   0  0  0  0  0  0  0  0  0  0  0  0
   -9.6719   18.4265  -32.4450 H   0  0  0  0  0  0  0  0  0  0  0  0
   -7.8857   18.2369  -32.4450 H   0  0  0  0  0  0  0  0  0  0  0  0
   -9.3962   20.6584  -32.5984 H   0  0  0  0  0  0  0  0  0  0  0  0
   -8.6032   20.6277  -30.9736 H   0  0  0  0  0  0  0  0  0  0  0  0
   -6.4331   20.0563  -32.1415 H   0  0  0  0  0  0  0  0  0  0  0  0
   -7.2959   20.3831  -33.7103 H   0  0  0  0  0  0  0  0  0  0  0  0
   -7.5208   22.6711  -33.2625 H   0  0  0  0  0  0  0  0  0  0  0  0
   -7.2008   22.4403  -31.4907 H   0  0  0  0  0  0  0  0  0  0  0  0
   -5.1690   21.9290  -33.5800 H   0  0  0  0  0  0  0  0  0  0  0  0
   -5.3730   23.4510  -32.8250 H   0  0  0  0  0  0  0  0  0  0  0  0
   -5.3438   21.3379  -30.9159 H   0  0  0  0  0  0  0  0  0  0  0  0
   -3.8551   21.3774  -31.9336 H   0  0  0  0  0  0  0  0  0  0  0  0
   -3.2968   22.1799  -28.9760 H   0  0  0  0  0  0  0  0  0  0  0  0
   -4.1059   24.4863  -26.7666 H   0  0  0  0  0  0  0  0  0  0  0  0
   -2.9082   25.3818  -24.7711 H   0  0  0  0  0  0  0  0  0  0  0  0
    0.4915   26.3809  -27.2496 H   0  0  0  0  0  0  0  0  0  0  0  0
   -0.6987   25.4881  -29.2524 H   0  0  0  0  0  0  0  0  0  0  0  0
  1  2  1  0
  2  3  1  0
  3  4  1  0
  4  5  1  0
  5  6  1  0
  6  7  1  0
  7  8  1  0
  8  9  2  0
  9 10  1  0
 10 11  2  0
 11 12  1  0
 12 13  2  0
 13 14  1  0
 13 15  1  0
 15 16  2  0
  9 17  1  0
 17 18  1  0
 18  7  2  0
 16 10  1  0
  1 19  1  0
  1 20  1  0
  1 21  1  0
  2 22  1  0
  2 23  1  0
  3 24  1  0
  3 25  1  0
  4 26  1  0
  4 27  1  0
  5 28  1  0
  5 29  1  0
  6 30  1  0
  6 31  1  0
  8 32  1  0
 11 33  1  0
 12 34  1  0
 15 35  1  0
 16 36  1  0
M  CHG  1   5   1
M  END
>  <UniqueID>  (5) 
5

>  <SMILES>  (5) 
CCCC[NH2+]Cc1cc(-c2ccc(Cl)cc2)on1

>  <Energy>  (5) 
58.91942425329905

>  <Genealogy>  (5) 
CCCC[NH2+]Cc1cc(-c2ccc(Cl)cc2)on1 (protonated)
CCCC[NH2+]Cc1cc(-c2ccc(Cl)cc2)on1 (3D coordinates assigned)
CCCC[NH2+]Cc1cc(-c2ccc(Cl)cc2)on1 (optimized conformer: 58.91942425329905 kcal/mol)

>  <smiles>  (5) 
CCCCNCc1cc(-c2ccc(Cl)cc2)on1

>  <score_type>  (5) 
oracle

>  <origin>  (5) 
adg

>  <m_score__min__energy>  (5) 
-7.2699999999999996

>  <m_primary>  (5) 
energy

$$$$
5:0
     RDKit          3D

 49 51  0  0  1  0  0  0  0  0999 V2000
   -1.7590   21.2840  -30.0920 C   0  0  0  0  0  0  0  0  0  0  0  0
   -0.7650   21.5470  -31.1760 C   0  0  0  0  0  0  0  0  0  0  0  0
   -1.4110   21.7260  -32.4140 O   0  0  0  0  0  0  0  0  0  0  0  0
   -0.9280   20.8070  -33.3360 C   0  0  0  0  0  0  0  0  0  0  0  0
   -0.9760   19.3870  -32.7750 C   0  0  0  0  0  0  0  0  0  0  0  0
   -1.7340   18.5080  -33.7510 C   0  0  0  0  0  0  0  0  0  0  0  0
   -2.9130   19.0520  -34.2870 N   0  0  0  0  0  0  0  0  0  0  0  0
   -4.1030   18.9120  -33.9020 C   0  0  0  0  0  0  0  0  0  0  0  0
   -4.7780   17.7610  -34.2470 C   0  0  0  0  0  0  0  0  0  0  0  0
   -6.0870   17.5570  -33.8590 C   0  0  0  0  0  0  0  0  0  0  0  0
   -6.8480   16.3300  -34.2120 C   0  0  0  0  0  0  0  0  0  0  0  0
   -6.6540   18.5380  -33.1320 N   0  0  0  0  0  0  0  0  0  0  0  0
   -5.9660   19.6450  -32.8130 C   0  0  0  0  0  0  0  0  0  0  0  0
   -6.3690   20.7060  -32.1040 N   0  0  0  0  0  0  0  0  0  0  0  0
   -5.3460   21.5770  -32.0340 C   0  0  0  0  0  0  0  0  0  0  0  0
   -5.3780   22.8730  -31.3430 C   0  0  0  0  0  0  0  0  0  0  0  0
   -6.5910   23.4810  -31.2150 C   0  0  0  0  0  0  0  0  0  0  0  0
   -6.7100   24.7020  -30.5790 C   0  0  0  0  0  0  0  0  0  0  0  0
   -5.5490   25.2660  -30.0860 C   0  0  0  0  0  0  0  0  0  0  0  0
   -4.3110   24.6760  -30.1990 C   0  0  0  0  0  0  0  0  0  0  0  0
   -3.1430   25.2140  -29.7200 O   0  0  0  0  0  0  0  0  0  0  0  0
   -2.3630   24.5870  -28.7210 C   0  0  0  0  0  0  0  0  0  0  0  0
   -4.2250   23.4450  -30.8480 C   0  0  0  0  0  0  0  0  0  0  0  0
   -4.2450   21.0370  -32.7340 C   0  0  0  0  0  0  0  0  0  0  0  0
   -4.6870   19.8690  -33.1790 N   0  0  0  0  0  0  0  0  0  0  0  0
   -1.2755   21.4119  -29.1123 H   0  0  0  0  0  0  0  0  0  0  0  0
   -2.5964   21.9915  -30.1828 H   0  0  0  0  0  0  0  0  0  0  0  0
   -2.1369   20.2550  -30.1828 H   0  0  0  0  0  0  0  0  0  0  0  0
   -0.1965   22.4563  -30.9311 H   0  0  0  0  0  0  0  0  0  0  0  0
   -0.0896   20.6821  -31.2525 H   0  0  0  0  0  0  0  0  0  0  0  0
   -1.5434   20.8544  -34.2465 H   0  0  0  0  0  0  0  0  0  0  0  0
    0.1188   21.0575  -33.5630 H   0  0  0  0  0  0  0  0  0  0  0  0
    0.0472   19.0036  -32.6482 H   0  0  0  0  0  0  0  0  0  0  0  0
   -1.4801   19.3854  -31.7973 H   0  0  0  0  0  0  0  0  0  0  0  0
   -1.0595   18.2771  -34.5887 H   0  0  0  0  0  0  0  0  0  0  0  0
   -2.0518   17.6291  -33.1709 H   0  0  0  0  0  0  0  0  0  0  0  0
   -4.2646   16.9913  -34.8420 H   0  0  0  0  0  0  0  0  0  0  0  0
   -7.1655   15.8180  -33.2917 H   0  0  0  0  0  0  0  0  0  0  0  0
   -7.7341   16.6054  -34.8028 H   0  0  0  0  0  0  0  0  0  0  0  0
   -6.2076   15.6586  -34.8028 H   0  0  0  0  0  0  0  0  0  0  0  0
   -7.6590   18.4250  -32.8120 H   0  0  0  0  0  0  0  0  0  0  0  0
   -7.4880   22.9929  -31.6238 H   0  0  0  0  0  0  0  0  0  0  0  0
   -7.6839   25.2018  -30.4703 H   0  0  0  0  0  0  0  0  0  0  0  0
   -5.6180   26.2382  -29.5761 H   0  0  0  0  0  0  0  0  0  0  0  0
   -2.7318   24.8835  -27.7280 H   0  0  0  0  0  0  0  0  0  0  0  0
   -2.4379   23.4949  -28.8289 H   0  0  0  0  0  0  0  0  0  0  0  0
   -1.3125   24.8949  -28.8289 H   0  0  0  0  0  0  0  0  0  0  0  0
   -3.2550   22.9392  -30.9631 H   0  0  0  0  0  0  0  0  0  0  0  0
   -3.2496   21.4828  -32.8771 H   0  0  0  0  0  0  0  0  0  0  0  0
  1  2  1  0
  2  3  1  0
  3  4  1  0
  4  5  1  0
  5  6  1  0
  6  7  1  0
  7  8  2  0
  8  9  1  0
  9 10  2  0
 10 11  1  0
 10 12  1  0
 12 13  1  0
 13 14  2  0
 14 15  1  0
 15 16  1  0
 16 17  2  0
 17 18  1  0
 18 19  2  0
 19 20  1  0
 20 21  1  0
 21 22  1  0
 20 23  2  0
 15 24  2  0
 24 25  1  0
 25  8  1  0
 25 13  1  0
 23 16  1  0
  1 26  1  0
  1 27  1  0
  1 28  1  0
  2 29  1  0
  2 30  1  0
  4 31  1  0
  4 32  1  0
  5 33  1  0
  5 34  1  0
  6 35  1  0
  6 36  1  0
  9 37  1  0
 11 38  1  0
 11 39  1  0
 11 40  1  0
 12 41  1  0
 17 42  1  0
 18 43  1  0
 19 44  1  0
 22 45  1  0
 22 46  1  0
 22 47  1  0
 23 48  1  0
 24 49  1  0
M  END
>  <smiles>  (6) 
CCOCCCN=c1cc(C)[nH]c2nc(-c3cccc(OC)c3)cn12

>  <score_type>  (6) 
oracle

>  <origin>  (6) 
adg

>  <m_score__min__energy>  (6) 
-8.0500000000000007

>  <m_primary>  (6) 
energy

$$$$
6:0
     RDKit          3D

 42 44  0  0  1  0  0  0  0  0999 V2000
   -1.3140   20.7120  -30.2140 C   0  0  0  0  0  0  0  0  0  0  0  0
   -0.6860   21.5480  -31.2980 C   0  0  0  0  0  0  0  0  0  0  0  0
   -0.7120   20.7510  -32.6010 C   0  0  0  0  0  0  0  0  0  0  0  0
   -1.7380   21.3130  -33.4260 N   0  0  0  0  0  0  0  0  0  0  0  0
   -2.9810   21.2590  -33.1100 C   0  0  0  0  0  0  0  0  0  0  0  0
   -3.4770   22.2810  -32.3930 N   0  0  0  0  0  0  0  0  0  0  0  0
   -4.7680   22.3140  -32.0150 C   0  0  0  0  0  0  0  0  0  0  0  0
   -5.2790   23.4310  -31.2400 C   0  0  0  0  0  0  0  0  0  0  0  0
   -6.4700   23.4320  -30.5690 C   0  0  0  0  0  0  0  0  0  0  0  0
   -6.9280   24.5150  -29.8380 C   0  0  0  0  0  0  0  0  0  0  0  0
   -6.1660   25.6550  -29.7710 C   0  0  0  0  0  0  0  0  0  0  0  0
   -4.9600   25.6380  -30.4580 C   0  0  0  0  0  0  0  0  0  0  0  0
   -4.5390   24.5720  -31.1600 N   0  0  0  0  0  0  0  0  0  0  0  0
   -5.5630   21.2660  -32.3870 C   0  0  0  0  0  0  0  0  0  0  0  0
   -5.0660   20.2020  -33.1290 C   0  0  0  0  0  0  0  0  0  0  0  0
   -5.9150   19.1280  -33.5020 N   0  0  0  0  0  0  0  0  0  0  0  0
   -5.6260   18.1610  -34.5380 C   0  0  0  0  0  0  0  0  0  0  0  0
   -6.4840   16.9540  -34.1900 C   0  0  0  0  0  0  0  0  0  0  0  0
   -7.1900   17.2910  -32.9010 C   0  0  0  0  0  0  0  0  0  0  0  0
   -7.1920   18.8060  -32.9330 C   0  0  0  0  0  0  0  0  0  0  0  0
   -3.7670   20.2340  -33.4730 N   0  0  0  0  0  0  0  0  0  0  0  0
   -1.0186   21.1053  -29.2301 H   0  0  0  0  0  0  0  0  0  0  0  0
   -2.4092   20.7495  -30.3101 H   0  0  0  0  0  0  0  0  0  0  0  0
   -0.9729   19.6706  -30.3101 H   0  0  0  0  0  0  0  0  0  0  0  0
   -1.2541   22.4816  -31.4227 H   0  0  0  0  0  0  0  0  0  0  0  0
    0.3512   21.7968  -31.0290 H   0  0  0  0  0  0  0  0  0  0  0  0
    0.2615   20.8268  -33.1076 H   0  0  0  0  0  0  0  0  0  0  0  0
   -0.9123   19.6878  -32.4021 H   0  0  0  0  0  0  0  0  0  0  0  0
   -7.0952   22.5280  -30.6119 H   0  0  0  0  0  0  0  0  0  0  0  0
   -7.8944   24.4624  -29.3152 H   0  0  0  0  0  0  0  0  0  0  0  0
   -6.4945   26.5371  -29.2018 H   0  0  0  0  0  0  0  0  0  0  0  0
   -4.3226   26.5339  -30.4266 H   0  0  0  0  0  0  0  0  0  0  0  0
   -6.6226   21.2652  -32.0914 H   0  0  0  0  0  0  0  0  0  0  0  0
   -5.8986   18.5586  -35.5267 H   0  0  0  0  0  0  0  0  0  0  0  0
   -4.5560   17.9107  -34.5869 H   0  0  0  0  0  0  0  0  0  0  0  0
   -7.2177   16.7661  -34.9877 H   0  0  0  0  0  0  0  0  0  0  0  0
   -5.8714   16.0466  -34.0837 H   0  0  0  0  0  0  0  0  0  0  0  0
   -8.2141   16.8897  -32.8889 H   0  0  0  0  0  0  0  0  0  0  0  0
   -6.7104   16.8658  -32.0070 H   0  0  0  0  0  0  0  0  0  0  0  0
   -8.0104   19.1854  -33.5625 H   0  0  0  0  0  0  0  0  0  0  0  0
   -7.3463   19.2564  -31.9413 H   0  0  0  0  0  0  0  0  0  0  0  0
   -3.3870   19.4410  -34.0280 H   0  0  0  0  0  0  0  0  0  0  0  0
  1  2  1  0
  2  3  1  0
  3  4  1  0
  4  5  2  0
  5  6  1  0
  6  7  2  0
  7  8  1  0
  8  9  2  0
  9 10  1  0
 10 11  2  0
 11 12  1  0
 12 13  2  0
  7 14  1  0
 14 15  2  0
 15 16  1  0
 16 17  1  0
 17 18  1  0
 18 19  1  0
 19 20  1  0
 15 21  1  0
 21  5  1  0
 13  8  1  0
 20 16  1  0
  1 22  1  0
  1 23  1  0
  1 24  1  0
  2 25  1  0
  2 26  1  0
  3 27  1  0
  3 28  1  0
  9 29  1  0
 10 30  1  0
 11 31  1  0
 12 32  1  0
 14 33  1  0
 17 34  1  0
 17 35  1  0
 18 36  1  0
 18 37  1  0
 19 38  1  0
 19 39  1  0
 20 40  1  0
 20 41  1  0
 21 42  1  0
M  END
>  <smiles>  (7) 
CCCN=c1nc(-c2ccccn2)cc(N2CCCC2)[nH]1

>  <score_type>  (7) 
oracle

>  <origin>  (7) 
adg

>  <m_score__min__energy>  (7) 
-7.1600000000000001

>  <m_primary>  (7) 
energy

$$$$
7:0
     RDKit          3D

 43 46  0  0  0  0  0  0  0  0999 V2000
   -1.8810   25.3190  -27.5580 C   0  0  0  0  0  0  0  0  0  0  0  0
   -2.3180   25.3420  -28.9140 O   0  0  0  0  0  0  0  0  0  0  0  0
   -2.5570   24.1990  -29.6910 C   0  0  0  0  0  0  0  0  0  0  0  0
   -1.5850   23.1920  -29.7020 C   0  0  0  0  0  0  0  0  0  0  0  0
   -1.7660   22.0370  -30.4660 C   0  0  0  0  0  0  0  0  0  0  0  0
   -2.9280   21.8710  -31.2230 C   0  0  0  0  0  0  0  0  0  0  0  0
   -3.0960   20.7460  -31.9630 N   0  0  0  0  0  0  0  0  0  0  0  0
   -4.2170   20.5480  -32.7090 C   0  0  0  0  0  0  0  0  0  0  0  0
   -4.3740   19.3090  -33.5100 C   0  0  0  0  0  0  0  0  0  0  0  0
   -5.6360   18.9370  -34.0160 C   0  0  0  0  0  0  0  0  0  0  0  0
   -5.7800   17.7690  -34.7710 C   0  0  0  0  0  0  0  0  0  0  0  0
   -4.6720   16.9590  -35.0300 C   0  0  0  0  0  0  0  0  0  0  0  0
   -3.4170   17.3160  -34.5340 C   0  0  0  0  0  0  0  0  0  0  0  0
   -3.2660   18.4830  -33.7790 C   0  0  0  0  0  0  0  0  0  0  0  0
   -5.1950   21.4920  -32.7050 N   0  0  0  0  0  0  0  0  0  0  0  0
   -5.0890   22.6350  -31.9790 C   0  0  0  0  0  0  0  0  0  0  0  0
   -6.4690   23.7910  -32.0130 S   0  0  0  0  0  0  0  0  0  0  0  0
   -7.4190   22.9390  -30.7020 C   0  0  0  0  0  0  0  0  0  0  0  0
   -8.1380   21.7370  -31.2490 C   0  0  0  0  0  0  0  0  0  0  0  0
   -7.5200   20.4790  -31.2500 C   0  0  0  0  0  0  0  0  0  0  0  0
   -8.1810   19.3780  -31.7990 C   0  0  0  0  0  0  0  0  0  0  0  0
   -9.4510   19.5470  -32.3500 C   0  0  0  0  0  0  0  0  0  0  0  0
  -10.0390   20.7730  -32.3440 N   0  0  0  0  0  0  0  0  0  0  0  0
   -9.4200   21.8590  -31.8090 C   0  0  0  0  0  0  0  0  0  0  0  0
   -3.9260   22.8680  -31.2160 C   0  0  0  0  0  0  0  0  0  0  0  0
   -3.7300   24.0350  -30.4540 C   0  0  0  0  0  0  0  0  0  0  0  0
   -2.7542   25.3650  -26.8905 H   0  0  0  0  0  0  0  0  0  0  0  0
   -1.3229   24.3902  -27.3683 H   0  0  0  0  0  0  0  0  0  0  0  0
   -1.2285   26.1840  -27.3683 H   0  0  0  0  0  0  0  0  0  0  0  0
   -0.6700   23.3114  -29.1033 H   0  0  0  0  0  0  0  0  0  0  0  0
   -0.9914   21.2560  -30.4716 H   0  0  0  0  0  0  0  0  0  0  0  0
   -6.5132   19.5697  -33.8156 H   0  0  0  0  0  0  0  0  0  0  0  0
   -6.7687   17.4872  -35.1621 H   0  0  0  0  0  0  0  0  0  0  0  0
   -4.7883   16.0407  -35.6243 H   0  0  0  0  0  0  0  0  0  0  0  0
   -2.5447   16.6776  -34.7377 H   0  0  0  0  0  0  0  0  0  0  0  0
   -2.2737   18.7580  -33.3921 H   0  0  0  0  0  0  0  0  0  0  0  0
   -6.7276   22.6146  -29.9104 H   0  0  0  0  0  0  0  0  0  0  0  0
   -8.1655   23.6397  -30.2999 H   0  0  0  0  0  0  0  0  0  0  0  0
   -6.5152   20.3590  -30.8187 H   0  0  0  0  0  0  0  0  0  0  0  0
   -7.7043   18.3867  -31.7968 H   0  0  0  0  0  0  0  0  0  0  0  0
   -9.9777   18.6874  -32.7900 H   0  0  0  0  0  0  0  0  0  0  0  0
   -9.9250   22.8362  -31.8149 H   0  0  0  0  0  0  0  0  0  0  0  0
   -4.4970   24.8235  -30.4542 H   0  0  0  0  0  0  0  0  0  0  0  0
  1  2  1  0
  2  3  1  0
  3  4  2  0
  4  5  1  0
  5  6  2  0
  6  7  1  0
  7  8  2  0
  8  9  1  0
  9 10  2  0
 10 11  1  0
 11 12  2  0
 12 13  1  0
 13 14  2  0
  8 15  1  0
 15 16  2  0
 16 17  1  0
 17 18  1  0
 18 19  1  0
 19 20  2  0
 20 21  1  0
 21 22  2  0
 22 23  1  0
 23 24  2  0
 16 25  1  0
 25 26  2  0
 26  3  1  0
 25  6  1  0
 14  9  1  0
 24 19  1  0
  1 27  1  0
  1 28  1  0
  1 29  1  0
  4 30  1  0
  5 31  1  0
 10 32  1  0
 11 33  1  0
 12 34  1  0
 13 35  1  0
 14 36  1  0
 18 37  1  0
 18 38  1  0
 20 39  1  0
 21 40  1  0
 22 41  1  0
 24 42  1  0
 26 43  1  0
M  END
>  <UniqueID>  (8) 
6

>  <SMILES>  (8) 
COc1ccc2nc(-c3ccccc3)nc(SCc3cccnc3)c2c1

>  <Energy>  (8) 
46.906844508887445

>  <Genealogy>  (8) 
COc1ccc2nc(-c3ccccc3)nc(SCc3cccnc3)c2c1 (3D coordinates assigned)
COc1ccc2nc(-c3ccccc3)nc(SCc3cccnc3)c2c1 (optimized conformer: 46.906844508887445 kcal/mol)

>  <smiles>  (8) 
COc1ccc2nc(-c3ccccc3)nc(SCc3cccnc3)c2c1

>  <score_type>  (8) 
oracle

>  <origin>  (8) 
adg

>  <m_score__min__energy>  (8) 
-8.8699999999999992

>  <m_primary>  (8) 
energy

$$$$
8:0
     RDKit          3D

 52 54  0  0  0  0  0  0  0  0999 V2000
   -6.9050   17.1480  -33.0330 C   0  0  0  0  0  0  0  0  0  0  0  0
   -7.2260   18.5870  -32.7620 C   0  0  0  0  0  0  0  0  0  0  0  0
   -8.4870   18.9720  -32.2900 C   0  0  0  0  0  0  0  0  0  0  0  0
   -8.7550   20.3170  -32.0310 C   0  0  0  0  0  0  0  0  0  0  0  0
   -7.7530   21.2730  -32.2430 C   0  0  0  0  0  0  0  0  0  0  0  0
   -7.9930   22.7270  -31.9290 C   0  0  0  0  0  0  0  0  0  0  0  0
   -6.7330   23.4620  -31.7370 N   0  0  0  0  0  0  0  0  0  0  0  0
   -6.4680   23.7330  -30.3140 C   0  0  0  0  0  0  0  0  0  0  0  0
   -4.9770   24.0400  -30.0600 C   0  0  0  0  0  0  0  0  0  0  0  0
   -4.0750   22.8520  -30.4520 C   0  0  0  0  0  0  0  0  0  0  0  0
   -2.5980   23.2450  -30.3150 C   0  0  0  0  0  0  0  0  0  0  0  0
   -2.3490   23.9570  -29.0540 N   0  0  0  0  0  0  0  0  0  0  0  0
   -1.1880   24.7920  -28.9350 C   0  0  0  0  0  0  0  0  0  0  0  0
   -1.3190   26.0430  -28.9670 O   0  0  0  0  0  0  0  0  0  0  0  0
    0.1170   24.2330  -28.7470 N   0  0  0  0  0  0  0  0  0  0  0  0
    0.5590   23.5050  -27.5600 C   0  0  0  0  0  0  0  0  0  0  0  0
   -0.2460   22.2470  -27.3680 C   0  0  0  0  0  0  0  0  0  0  0  0
   -0.4080   21.3370  -28.4240 C   0  0  0  0  0  0  0  0  0  0  0  0
   -1.1360   20.1630  -28.2310 C   0  0  0  0  0  0  0  0  0  0  0  0
   -1.7080   19.9110  -26.9820 C   0  0  0  0  0  0  0  0  0  0  0  0
   -1.5530   20.8070  -25.9700 N   0  0  0  0  0  0  0  0  0  0  0  0
   -0.8470   21.9580  -26.1330 C   0  0  0  0  0  0  0  0  0  0  0  0
   -3.3880   24.0180  -28.0220 C   0  0  0  0  0  0  0  0  0  0  0  0
   -4.7080   24.5400  -28.6100 C   0  0  0  0  0  0  0  0  0  0  0  0
   -6.5310   20.8760  -32.6920 N   0  0  0  0  0  0  0  0  0  0  0  0
   -6.2500   19.5720  -32.9540 C   0  0  0  0  0  0  0  0  0  0  0  0
   -6.7857   16.6130  -32.0793 H   0  0  0  0  0  0  0  0  0  0  0  0
   -7.7235   16.6920  -33.6093 H   0  0  0  0  0  0  0  0  0  0  0  0
   -5.9703   17.0831  -33.6093 H   0  0  0  0  0  0  0  0  0  0  0  0
   -9.2666   18.2141  -32.1233 H   0  0  0  0  0  0  0  0  0  0  0  0
   -9.7452   20.6241  -31.6633 H   0  0  0  0  0  0  0  0  0  0  0  0
   -8.5478   23.1838  -32.7618 H   0  0  0  0  0  0  0  0  0  0  0  0
   -8.5667   22.7833  -30.9921 H   0  0  0  0  0  0  0  0  0  0  0  0
   -5.9500   22.8960  -32.1400 H   0  0  0  0  0  0  0  0  0  0  0  0
   -7.0691   24.5983  -29.9978 H   0  0  0  0  0  0  0  0  0  0  0  0
   -6.7365   22.8352  -29.7379 H   0  0  0  0  0  0  0  0  0  0  0  0
   -4.7078   24.8767  -30.7215 H   0  0  0  0  0  0  0  0  0  0  0  0
   -4.2877   21.9995  -29.7902 H   0  0  0  0  0  0  0  0  0  0  0  0
   -4.2787   22.5741  -31.4966 H   0  0  0  0  0  0  0  0  0  0  0  0
   -1.9813   22.3345  -30.3401 H   0  0  0  0  0  0  0  0  0  0  0  0
   -2.3384   23.9144  -31.1484 H   0  0  0  0  0  0  0  0  0  0  0  0
    1.6201   23.2390  -27.6754 H   0  0  0  0  0  0  0  0  0  0  0  0
    0.4170   24.1498  -26.6802 H   0  0  0  0  0  0  0  0  0  0  0  0
    0.0400   21.5500  -29.4058 H   0  0  0  0  0  0  0  0  0  0  0  0
   -1.2583   19.4432  -29.0538 H   0  0  0  0  0  0  0  0  0  0  0  0
   -2.2837   18.9884  -26.8166 H   0  0  0  0  0  0  0  0  0  0  0  0
   -0.7468   22.6638  -25.2953 H   0  0  0  0  0  0  0  0  0  0  0  0
   -3.5491   23.0101  -27.6118 H   0  0  0  0  0  0  0  0  0  0  0  0
   -3.0583   24.7049  -27.2286 H   0  0  0  0  0  0  0  0  0  0  0  0
   -5.5341   24.2040  -27.9660 H   0  0  0  0  0  0  0  0  0  0  0  0
   -4.6347   25.6368  -28.6520 H   0  0  0  0  0  0  0  0  0  0  0  0
   -5.2513   19.2896  -33.3185 H   0  0  0  0  0  0  0  0  0  0  0  0
  1  2  1  0
  2  3  2  0
  3  4  1  0
  4  5  2  0
  5  6  1  0
  6  7  1  0
  7  8  1  0
  8  9  1  0
  9 10  1  0
 10 11  1  0
 11 12  1  0
 12 13  1  0
 13 14  2  0
 13 15  1  0
 15 16  1  0
 16 17  1  0
 17 18  2  0
 18 19  1  0
 19 20  2  0
 20 21  1  0
 21 22  2  0
 12 23  1  0
 23 24  1  0
  5 25  1  0
 25 26  2  0
 26  2  1  0
 24  9  1  0
 22 17  1  0
  1 27  1  0
  1 28  1  0
  1 29  1  0
  3 30  1  0
  4 31  1  0
  6 32  1  0
  6 33  1  0
  7 34  1  0
  8 35  1  0
  8 36  1  0
  9 37  1  0
 10 38  1  0
 10 39  1  0
 11 40  1  0
 11 41  1  0
 16 42  1  0
 16 43  1  0
 18 44  1  0
 19 45  1  0
 20 46  1  0
 22 47  1  0
 23 48  1  0
 23 49  1  0
 24 50  1  0
 24 51  1  0
 26 52  1  0
M  CHG  1  15  -1
M  END
>  <UniqueID>  (9) 
7

>  <SMILES>  (9) 
Cc1ccc(CNCC2CCN(C(=O)[N-]Cc3cccnc3)CC2)nc1

>  <Energy>  (9) 
56.704126293865066

>  <Genealogy>  (9) 
Cc1ccc(CNCC2CCN(C(=O)[N-]Cc3cccnc3)CC2)nc1 (protonated)
Cc1ccc(CNCC2CCN(C(=O)[N-]Cc3cccnc3)CC2)nc1 (3D coordinates assigned)
Cc1ccc(CNCC2CCN(C(=O)[N-]Cc3cccnc3)CC2)nc1 (nonaromatic ring conformer: 56.704126293865066 kcal/mol)

>  <smiles>  (9) 
Cc1ccc(CNCC2CCN(C(=O)NCc3cccnc3)CC2)nc1

>  <score_type>  (9) 
oracle

>  <origin>  (9) 
adg

>  <m_score__min__energy>  (9) 
-9.9299999999999997

>  <m_primary>  (9) 
energy

$$$$
9:0
     RDKit          3D

 57 60  0  0  0  0  0  0  0  0999 V2000
   -5.7570   18.5350  -34.2460 C   0  0  0  0  0  0  0  0  0  0  0  0
   -6.1640   18.0500  -32.9150 N   0  0  0  0  0  0  0  0  0  0  0  0
   -5.3160   16.9250  -32.4840 C   0  0  0  0  0  0  0  0  0  0  0  0
   -7.6130   17.7380  -32.8380 C   0  0  0  0  0  0  0  0  0  0  0  0
   -8.3890   18.5600  -31.7860 C   0  0  0  0  0  0  0  0  0  0  0  0
   -9.4310   19.4930  -32.4200 C   0  0  0  0  0  0  0  0  0  0  0  0
   -8.9010   20.8040  -32.6270 O   0  0  0  0  0  0  0  0  0  0  0  0
   -7.8610   21.4120  -31.9020 C   0  0  0  0  0  0  0  0  0  0  0  0
   -8.0660   22.1170  -30.7000 C   0  0  0  0  0  0  0  0  0  0  0  0
   -6.9860   22.6900  -30.0250 C   0  0  0  0  0  0  0  0  0  0  0  0
   -5.6810   22.5840  -30.5350 C   0  0  0  0  0  0  0  0  0  0  0  0
   -4.5480   23.1980  -29.8010 C   0  0  0  0  0  0  0  0  0  0  0  0
   -3.2210   23.2630  -30.2160 C   0  0  0  0  0  0  0  0  0  0  0  0
   -2.5420   23.9010  -29.2530 N   0  0  0  0  0  0  0  0  0  0  0  0
   -1.2270   24.2120  -29.1760 C   0  0  0  0  0  0  0  0  0  0  0  0
   -0.7700   24.8900  -28.0380 C   0  0  0  0  0  0  0  0  0  0  0  0
   -1.6750   25.2420  -26.9930 C   0  0  0  0  0  0  0  0  0  0  0  0
   -1.2110   25.9470  -25.7990 N   0  0  0  0  0  0  0  0  0  0  0  0
   -0.9980   25.1900  -24.5490 C   0  0  0  0  0  0  0  0  0  0  0  0
   -0.4360   26.0410  -23.4070 C   0  0  0  0  0  0  0  0  0  0  0  0
   -1.0150   27.3230  -23.4050 O   0  0  0  0  0  0  0  0  0  0  0  0
   -0.5450   28.0220  -24.5320 C   0  0  0  0  0  0  0  0  0  0  0  0
   -1.1070   27.4210  -25.8250 C   0  0  0  0  0  0  0  0  0  0  0  0
   -3.0400   24.8780  -27.1440 C   0  0  0  0  0  0  0  0  0  0  0  0
   -3.4300   24.2060  -28.2990 C   0  0  0  0  0  0  0  0  0  0  0  0
   -4.6800   23.7960  -28.5880 N   0  0  0  0  0  0  0  0  0  0  0  0
   -5.4820   21.8880  -31.7400 C   0  0  0  0  0  0  0  0  0  0  0  0
   -6.5630   21.3100  -32.4130 C   0  0  0  0  0  0  0  0  0  0  0  0
   -5.0537   19.3730  -34.1316 H   0  0  0  0  0  0  0  0  0  0  0  0
   -5.2688   17.7196  -34.7999 H   0  0  0  0  0  0  0  0  0  0  0  0
   -6.6448   18.8743  -34.7999 H   0  0  0  0  0  0  0  0  0  0  0  0
   -5.9930   18.8340  -32.2410 H   0  0  0  0  0  0  0  0  0  0  0  0
   -5.2876   16.8873  -31.3850 H   0  0  0  0  0  0  0  0  0  0  0  0
   -5.7308   15.9832  -32.8726 H   0  0  0  0  0  0  0  0  0  0  0  0
   -4.2964   17.0645  -32.8726 H   0  0  0  0  0  0  0  0  0  0  0  0
   -8.0595   17.9329  -33.8242 H   0  0  0  0  0  0  0  0  0  0  0  0
   -7.6907   16.6843  -32.5319 H   0  0  0  0  0  0  0  0  0  0  0  0
   -8.9045   17.8658  -31.1061 H   0  0  0  0  0  0  0  0  0  0  0  0
   -7.6619   19.1870  -31.2491 H   0  0  0  0  0  0  0  0  0  0  0  0
   -9.7421   19.0758  -33.3891 H   0  0  0  0  0  0  0  0  0  0  0  0
  -10.2880   19.5707  -31.7347 H   0  0  0  0  0  0  0  0  0  0  0  0
   -9.0822   22.2168  -30.2908 H   0  0  0  0  0  0  0  0  0  0  0  0
   -7.1590   23.2308  -29.0828 H   0  0  0  0  0  0  0  0  0  0  0  0
   -2.8084   22.8663  -31.1553 H   0  0  0  0  0  0  0  0  0  0  0  0
   -0.5346   23.9395  -29.9861 H   0  0  0  0  0  0  0  0  0  0  0  0
    0.2945   25.1528  -27.9498 H   0  0  0  0  0  0  0  0  0  0  0  0
   -1.9626   24.7699  -24.2279 H   0  0  0  0  0  0  0  0  0  0  0  0
   -0.2542   24.4093  -24.7666 H   0  0  0  0  0  0  0  0  0  0  0  0
   -0.6528   25.5463  -22.4487 H   0  0  0  0  0  0  0  0  0  0  0  0
    0.6499   26.1458  -23.5480 H   0  0  0  0  0  0  0  0  0  0  0  0
   -0.8576   29.0741  -24.4588 H   0  0  0  0  0  0  0  0  0  0  0  0
    0.5521   27.9468  -24.5586 H   0  0  0  0  0  0  0  0  0  0  0  0
   -2.1112   27.8371  -25.9935 H   0  0  0  0  0  0  0  0  0  0  0  0
   -0.4048   27.6795  -26.6313 H   0  0  0  0  0  0  0  0  0  0  0  0
   -3.7749   25.1226  -26.3629 H   0  0  0  0  0  0  0  0  0  0  0  0
   -4.4681   21.7973  -32.1568 H   0  0  0  0  0  0  0  0  0  0  0  0
   -6.3905   20.7689  -33.3551 H   0  0  0  0  0  0  0  0  0  0  0  0
  1  2  1  0
  2  3  1  0
  2  4  1  0
  4  5  1  0
  5  6  1  0
  6  7  1  0
  7  8  1  0
  8  9  2  0
  9 10  1  0
 10 11  2  0
 11 12  1  0
 12 13  2  0
 13 14  1  0
 14 15  1  0
 15 16  2  0
 16 17  1  0
 17 18  1  0
 18 19  1  0
 19 20  1  0
 20 21  1  0
 21 22  1  0
 22 23  1  0
 17 24  2  0
 24 25  1  0
 25 26  2  0
 11 27  1  0
 27 28  2  0
 28  8  1  0
 26 12  1  0
 25 14  1  0
 23 18  1  0
  1 29  1  0
  1 30  1  0
  1 31  1  0
  2 32  1  0
  3 33  1  0
  3 34  1  0
  3 35  1  0
  4 36  1  0
  4 37  1  0
  5 38  1  0
  5 39  1  0
  6 40  1  0
  6 41  1  0
  9 42  1  0
 10 43  1  0
 13 44  1  0
 15 45  1  0
 16 46  1  0
 19 47  1  0
 19 48  1  0
 20 49  1  0
 20 50  1  0
 22 51  1  0
 22 52  1  0
 23 53  1  0
 23 54  1  0
 24 55  1  0
 27 56  1  0
 28 57  1  0
M  CHG  1   2   1
M  END
>  <UniqueID>  (10) 
8

>  <SMILES>  (10) 
C[NH+](C)CCCOc1ccc(-c2cn3ccc(N4CCOCC4)cc3n2)cc1

>  <Energy>  (10) 
105.11868216358654

>  <Genealogy>  (10) 
C[NH+](C)CCCOc1ccc(-c2cn3ccc(N4CCOCC4)cc3n2)cc1 (protonated)
C[NH+](C)CCCOc1ccc(-c2cn3ccc(N4CCOCC4)cc3n2)cc1 (3D coordinates assigned)
C[NH+](C)CCCOc1ccc(-c2cn3ccc(N4CCOCC4)cc3n2)cc1 (nonaromatic ring conformer: 105.11868216358654 kcal/mol)

>  <smiles>  (10) 
CN(C)CCCOc1ccc(-c2cn3ccc(N4CCOCC4)cc3n2)cc1

>  <score_type>  (10) 
oracle

>  <origin>  (10) 
adg

>  <m_score__min__energy>  (10) 
-7.2000000000000002

>  <m_primary>  (10) 
energy

$$$$
10:0
     RDKit          3D

 35 37  0  0  0  0  0  0  0  0999 V2000
   -6.1490   26.0440  -29.4850 C   0  0  0  0  0  0  0  0  0  0  0  0
   -5.4350   24.9670  -30.2260 C   0  0  0  0  0  0  0  0  0  0  0  0
   -6.0220   23.8400  -30.6700 N   0  0  0  0  0  0  0  0  0  0  0  0
   -4.9910   23.2250  -31.2870 C   0  0  0  0  0  0  0  0  0  0  0  0
   -5.0990   21.9020  -31.9440 C   0  0  0  0  0  0  0  0  0  0  0  0
   -4.0550   21.3140  -32.6750 C   0  0  0  0  0  0  0  0  0  0  0  0
   -2.7060   21.7980  -32.7490 N   0  0  0  0  0  0  0  0  0  0  0  0
   -1.4410   20.9200  -33.5460 S   0  0  0  0  0  0  0  0  0  0  0  0
   -0.5240   19.9640  -32.3590 C   0  0  0  0  0  0  0  0  0  0  0  0
   -2.0290   20.0180  -34.5940 O   0  0  0  0  0  0  0  0  0  0  0  0
   -0.5140   21.8970  -34.2130 O   0  0  0  0  0  0  0  0  0  0  0  0
   -4.5990   19.8800  -33.3750 S   0  0  0  0  0  0  0  0  0  0  0  0
   -6.1620   19.9880  -32.7780 C   0  0  0  0  0  0  0  0  0  0  0  0
   -6.2810   21.1230  -31.9790 C   0  0  0  0  0  0  0  0  0  0  0  0
   -7.6100   21.5150  -31.3750 C   0  0  0  0  0  0  0  0  0  0  0  0
   -8.6180   20.3500  -31.3740 C   0  0  0  0  0  0  0  0  0  0  0  0
   -8.6220   19.6030  -32.7160 C   0  0  0  0  0  0  0  0  0  0  0  0
   -7.2480   18.9810  -32.9990 C   0  0  0  0  0  0  0  0  0  0  0  0
   -3.8520   23.9430  -31.2150 N   0  0  0  0  0  0  0  0  0  0  0  0
   -4.1700   25.0150  -30.5560 O   0  0  0  0  0  0  0  0  0  0  0  0
   -6.0397   25.8791  -28.4029 H   0  0  0  0  0  0  0  0  0  0  0  0
   -5.7187   27.0204  -29.7524 H   0  0  0  0  0  0  0  0  0  0  0  0
   -7.2159   26.0278  -29.7524 H   0  0  0  0  0  0  0  0  0  0  0  0
   -2.4380   22.6790  -32.2600 H   0  0  0  0  0  0  0  0  0  0  0  0
   -0.8141   20.2664  -31.3419 H   0  0  0  0  0  0  0  0  0  0  0  0
   -0.7436   18.8955  -32.5005 H   0  0  0  0  0  0  0  0  0  0  0  0
    0.5527   20.1389  -32.5005 H   0  0  0  0  0  0  0  0  0  0  0  0
   -7.4447   21.8407  -30.3374 H   0  0  0  0  0  0  0  0  0  0  0  0
   -8.0324   22.3250  -31.9878 H   0  0  0  0  0  0  0  0  0  0  0  0
   -8.3476   19.6450  -30.5741 H   0  0  0  0  0  0  0  0  0  0  0  0
   -9.6231   20.7655  -31.2091 H   0  0  0  0  0  0  0  0  0  0  0  0
   -9.3787   18.8053  -32.6822 H   0  0  0  0  0  0  0  0  0  0  0  0
   -8.8558   20.3196  -33.5171 H   0  0  0  0  0  0  0  0  0  0  0  0
   -7.0917   18.1260  -32.3249 H   0  0  0  0  0  0  0  0  0  0  0  0
   -7.2169   18.6477  -34.0468 H   0  0  0  0  0  0  0  0  0  0  0  0
  1  2  1  0
  2  3  2  0
  3  4  1  0
  4  5  1  0
  5  6  2  0
  6  7  1  0
  7  8  1  0
  8  9  1  0
  8 10  2  0
  8 11  2  0
  6 12  1  0
 12 13  1  0
 13 14  2  0
 14 15  1  0
 15 16  1  0
 16 17  1  0
 17 18  1  0
  4 19  2  0
 19 20  1  0
 20  2  1  0
 14  5  1  0
 18 13  1  0
  1 21  1  0
  1 22  1  0
  1 23  1  0
  7 24  1  0
  9 25  1  0
  9 26  1  0
  9 27  1  0
 15 28  1  0
 15 29  1  0
 16 30  1  0
 16 31  1  0
 17 32  1  0
 17 33  1  0
 18 34  1  0
 18 35  1  0
M  END
>  <UniqueID>  (11) 
9

>  <SMILES>  (11) 
Cc1nc(-c2c(NS(C)(=O)=O)sc3c2CCCC3)no1

>  <Energy>  (11) 
94.12884947270172

>  <Genealogy>  (11) 
Cc1nc(-c2c(NS(C)(=O)=O)sc3c2CCCC3)no1 (3D coordinates assigned)
Cc1nc(-c2c(NS(C)(=O)=O)sc3c2CCCC3)no1 (nonaromatic ring conformer: 94.12884947270172 kcal/mol)

>  <smiles>  (11) 
Cc1nc(-c2c(NS(C)(=O)=O)sc3c2CCCC3)no1

>  <score_type>  (11) 
oracle

>  <origin>  (11) 
adg

>  <m_score__min__energy>  (11) 
-9.0700000000000003

>  <m_primary>  (11) 
energy

$$$$
11:0
     RDKit          3D

 23 25  0  0  0  0  0  0  0  0999 V2000
   -6.1010   25.7970  -29.7540 C   0  0  0  0  0  0  0  0  0  0  0  0
   -5.7120   24.5380  -30.4520 C   0  0  0  0  0  0  0  0  0  0  0  0
   -6.6080   23.5890  -30.8300 N   0  0  0  0  0  0  0  0  0  0  0  0
   -5.8070   22.7050  -31.4540 C   0  0  0  0  0  0  0  0  0  0  0  0
   -6.1840   21.5000  -32.0560 C   0  0  0  0  0  0  0  0  0  0  0  0
   -7.5120   21.0490  -32.0730 C   0  0  0  0  0  0  0  0  0  0  0  0
   -7.8270   19.8340  -32.6910 C   0  0  0  0  0  0  0  0  0  0  0  0
   -9.4870   19.2680  -32.7140 Cl  0  0  0  0  0  0  0  0  0  0  0  0
   -6.8210   19.0690  -33.2930 C   0  0  0  0  0  0  0  0  0  0  0  0
   -5.4940   19.5120  -33.2830 C   0  0  0  0  0  0  0  0  0  0  0  0
   -5.1600   20.7270  -32.6660 C   0  0  0  0  0  0  0  0  0  0  0  0
   -3.8240   21.1860  -32.6490 C   0  0  0  0  0  0  0  0  0  0  0  0
   -3.5190   22.4050  -32.0280 C   0  0  0  0  0  0  0  0  0  0  0  0
   -4.5310   23.1060  -31.4580 N   0  0  0  0  0  0  0  0  0  0  0  0
   -4.4430   24.2650  -30.8380 N   0  0  0  0  0  0  0  0  0  0  0  0
   -6.0533   25.6428  -28.6659 H   0  0  0  0  0  0  0  0  0  0  0  0
   -5.4102   26.6036  -30.0406 H   0  0  0  0  0  0  0  0  0  0  0  0
   -7.1264   26.0733  -30.0406 H   0  0  0  0  0  0  0  0  0  0  0  0
   -8.3041   21.6492  -31.6015 H   0  0  0  0  0  0  0  0  0  0  0  0
   -7.0753   18.1143  -33.7766 H   0  0  0  0  0  0  0  0  0  0  0  0
   -4.7100   18.9058  -33.7604 H   0  0  0  0  0  0  0  0  0  0  0  0
   -3.0281   20.5905  -33.1201 H   0  0  0  0  0  0  0  0  0  0  0  0
   -2.4864   22.7833  -32.0035 H   0  0  0  0  0  0  0  0  0  0  0  0
  1  2  1  0
  2  3  1  0
  3  4  2  0
  4  5  1  0
  5  6  2  0
  6  7  1  0
  7  8  1  0
  7  9  2  0
  9 10  1  0
 10 11  2  0
 11 12  1  0
 12 13  2  0
 13 14  1  0
 14 15  1  0
 15  2  2  0
 14  4  1  0
 11  5  1  0
  1 16  1  0
  1 17  1  0
  1 18  1  0
  6 19  1  0
  9 20  1  0
 10 21  1  0
 12 22  1  0
 13 23  1  0
M  END
>  <UniqueID>  (12) 
10

>  <SMILES>  (12) 
Cc1nc2c3cc(Cl)ccc3ccn2n1

>  <Energy>  (12) 
65.20329124565374

>  <Genealogy>  (12) 
Cc1nc2c3cc(Cl)ccc3ccn2n1 (3D coordinates assigned)
Cc1nc2c3cc(Cl)ccc3ccn2n1 (optimized conformer: 65.20329124565374 kcal/mol)

>  <smiles>  (12) 
Cc1nc2c3cc(Cl)ccc3ccn2n1

>  <score_type>  (12) 
oracle

>  <origin>  (12) 
adg

>  <m_score__min__energy>  (12) 
-7.1200000000000001

>  <m_primary>  (12) 
energy

$$$$
12:0
     RDKit          3D

 69 72  0  0  0  0  0  0  0  0999 V2000
   -3.1190   18.5590  -33.5130 H   0  0  0  0  0  0  0  0  0  0  0  0
   -3.2680   19.4960  -33.8620 O   0  0  0  0  0  0  0  0  0  0  0  0
   -3.9890   20.4580  -33.1550 C   0  0  0  0  0  0  0  0  0  0  0  0
   -3.4070   21.5280  -32.4860 C   0  0  0  0  0  0  0  0  0  0  0  0
   -1.9590   21.9250  -32.5040 C   0  0  0  0  0  0  0  0  0  0  0  0
   -1.8545   22.9447  -32.1050 H   0  0  0  0  0  0  0  0  0  0  0  0
   -1.5853   21.8928  -33.5381 H   0  0  0  0  0  0  0  0  0  0  0  0
   -1.1620   20.9730  -31.6570 C   0  0  0  0  0  0  0  0  0  0  0  0
   -0.5940   21.2270  -30.4100 C   0  0  0  0  0  0  0  0  0  0  0  0
   -0.5510   22.5380  -29.6810 C   0  0  0  0  0  0  0  0  0  0  0  0
   -0.5570   22.3548  -28.5964 H   0  0  0  0  0  0  0  0  0  0  0  0
    0.3654   23.0806  -29.9561 H   0  0  0  0  0  0  0  0  0  0  0  0
   -1.4299   23.1395  -29.9561 H   0  0  0  0  0  0  0  0  0  0  0  0
   -0.1300   20.0030  -29.9310 C   0  0  0  0  0  0  0  0  0  0  0  0
    0.4480   19.7360  -28.5920 C   0  0  0  0  0  0  0  0  0  0  0  0
    1.4280   20.4160  -28.1950 O   0  0  0  0  0  0  0  0  0  0  0  0
   -0.1620   18.7570  -27.7360 N   0  0  0  0  0  0  0  0  0  0  0  0
   -1.2990   18.8140  -27.1040 C   0  0  0  0  0  0  0  0  0  0  0  0
   -1.9003   17.8940  -27.0580 H   0  0  0  0  0  0  0  0  0  0  0  0
   -1.8560   20.0430  -26.4300 C   0  0  0  0  0  0  0  0  0  0  0  0
   -1.2288   20.2877  -25.5601 H   0  0  0  0  0  0  0  0  0  0  0  0
   -2.8897   19.8266  -26.1222 H   0  0  0  0  0  0  0  0  0  0  0  0
   -1.8810   21.2060  -27.3460 N   0  0  0  0  0  0  0  0  0  0  0  0
   -3.2080   21.3100  -28.0060 C   0  0  0  0  0  0  0  0  0  0  0  0
   -3.8961   20.5857  -27.5456 H   0  0  0  0  0  0  0  0  0  0  0  0
   -3.0832   21.0967  -29.0779 H   0  0  0  0  0  0  0  0  0  0  0  0
   -3.7870   22.7130  -27.8550 C   0  0  0  0  0  0  0  0  0  0  0  0
   -3.8870   22.9554  -26.7867 H   0  0  0  0  0  0  0  0  0  0  0  0
   -3.1155   23.4404  -28.3347 H   0  0  0  0  0  0  0  0  0  0  0  0
   -4.7760   22.7551  -28.3347 H   0  0  0  0  0  0  0  0  0  0  0  0
   -1.5730   22.4570  -26.6120 C   0  0  0  0  0  0  0  0  0  0  0  0
   -1.6823   23.3125  -27.2947 H   0  0  0  0  0  0  0  0  0  0  0  0
   -2.2704   22.5521  -25.7666 H   0  0  0  0  0  0  0  0  0  0  0  0
   -0.1450   22.4270  -26.0700 C   0  0  0  0  0  0  0  0  0  0  0  0
   -0.1701   22.4275  -24.9703 H   0  0  0  0  0  0  0  0  0  0  0  0
    0.3628   21.5180  -26.4247 H   0  0  0  0  0  0  0  0  0  0  0  0
    0.4005   23.3139  -26.4247 H   0  0  0  0  0  0  0  0  0  0  0  0
   -0.4080   19.0710  -30.9290 C   0  0  0  0  0  0  0  0  0  0  0  0
   -0.1160   17.6020  -30.8980 C   0  0  0  0  0  0  0  0  0  0  0  0
   -0.0487   17.2635  -29.8535 H   0  0  0  0  0  0  0  0  0  0  0  0
   -0.9233   17.0568  -31.4088 H   0  0  0  0  0  0  0  0  0  0  0  0
    0.8385   17.4070  -31.4088 H   0  0  0  0  0  0  0  0  0  0  0  0
   -1.0440   19.6660  -31.9560 N   0  0  0  0  0  0  0  0  0  0  0  0
   -1.4070   19.1940  -32.8120 H   0  0  0  0  0  0  0  0  0  0  0  0
   -4.4610   22.2250  -31.9260 C   0  0  0  0  0  0  0  0  0  0  0  0
   -4.4820   23.3880  -31.1550 C   0  0  0  0  0  0  0  0  0  0  0  0
   -3.5513   23.9174  -30.9028 H   0  0  0  0  0  0  0  0  0  0  0  0
   -5.7290   23.8630  -30.7100 C   0  0  0  0  0  0  0  0  0  0  0  0
   -5.8130   25.3160  -29.7320 Cl  0  0  0  0  0  0  0  0  0  0  0  0
   -6.9150   23.1750  -31.0480 C   0  0  0  0  0  0  0  0  0  0  0  0
   -7.8850   23.5526  -30.6923 H   0  0  0  0  0  0  0  0  0  0  0  0
   -6.8660   22.0120  -31.8350 C   0  0  0  0  0  0  0  0  0  0  0  0
   -7.7859   21.4737  -32.1071 H   0  0  0  0  0  0  0  0  0  0  0  0
   -5.6150   21.5590  -32.2620 C   0  0  0  0  0  0  0  0  0  0  0  0
   -5.3410   20.4760  -33.0240 N   0  0  0  0  0  0  0  0  0  0  0  0
   -6.3160   19.5340  -33.5860 C   0  0  0  0  0  0  0  0  0  0  0  0
   -7.2886   19.6850  -33.0948 H   0  0  0  0  0  0  0  0  0  0  0  0
   -6.4022   19.7170  -34.6672 H   0  0  0  0  0  0  0  0  0  0  0  0
   -5.8670   18.1090  -33.3690 C   0  0  0  0  0  0  0  0  0  0  0  0
   -5.8540   17.5700  -32.0720 C   0  0  0  0  0  0  0  0  0  0  0  0
   -6.1768   18.1865  -31.2201 H   0  0  0  0  0  0  0  0  0  0  0  0
   -5.4330   16.2540  -31.8580 C   0  0  0  0  0  0  0  0  0  0  0  0
   -5.4340   15.8359  -30.8406 H   0  0  0  0  0  0  0  0  0  0  0  0
   -5.0110   15.4690  -32.9340 C   0  0  0  0  0  0  0  0  0  0  0  0
   -4.6770   14.4351  -32.7624 H   0  0  0  0  0  0  0  0  0  0  0  0
   -5.0130   15.9960  -34.2270 C   0  0  0  0  0  0  0  0  0  0  0  0
   -4.6820   15.3757  -35.0729 H   0  0  0  0  0  0  0  0  0  0  0  0
   -5.4350   17.3110  -34.4490 C   0  0  0  0  0  0  0  0  0  0  0  0
   -5.4250   17.7980  -35.7170 F   0  0  0  0  0  0  0  0  0  0  0  0
  1  2  1  0
  2  3  1  0
  3  4  2  0
  4  5  1  0
  5  6  1  0
  5  7  1  0
  5  8  1  0
  8  9  2  0
  9 10  1  0
 10 11  1  0
 10 12  1  0
 10 13  1  0
  9 14  1  0
 14 15  1  0
 15 16  2  0
 15 17  1  0
 17 18  2  0
 18 19  1  0
 18 20  1  0
 20 21  1  0
 20 22  1  0
 20 23  1  0
 23 24  1  0
 24 25  1  0
 24 26  1  0
 24 27  1  0
 27 28  1  0
 27 29  1  0
 27 30  1  0
 23 31  1  0
 31 32  1  0
 31 33  1  0
 31 34  1  0
 34 35  1  0
 34 36  1  0
 34 37  1  0
 14 38  2  0
 38 39  1  0
 39 40  1  0
 39 41  1  0
 39 42  1  0
 38 43  1  0
 43 44  1  0
  4 45  1  0
 45 46  2  0
 46 47  1  0
 46 48  1  0
 48 49  1  0
 48 50  2  0
 50 51  1  0
 50 52  1  0
 52 53  1  0
 52 54  2  0
 54 55  1  0
 55 56  1  0
 56 57  1  0
 56 58  1  0
 56 59  1  0
 59 60  2  0
 60 61  1  0
 60 62  1  0
 62 63  1  0
 62 64  2  0
 64 65  1  0
 64 66  1  0
 66 67  1  0
 66 68  2  0
 68 69  1  0
 55  3  1  0
 68 59  1  0
 43  8  1  0
 54 45  1  0
M  END
>  <UniqueID>  (13) 
11

>  <SMILES>  (13) 
CCN(CC)C/C=N\C(=O)c1c(C)[nH]c(Cc2c(O)n(Cc3ccccc3F)c3ccc(Cl)cc23)c1C

>  <Energy>  (13) 
131.8310075638811

>  <Genealogy>  (13) 
CCN(CC)C/C=N\C(=O)c1c(C)[nH]c(Cc2c(O)n(Cc3ccccc3F)c3ccc(Cl)cc23)c1C (cis-trans isomerization)
CCN(CC)C/C=N\C(=O)c1c(C)[nH]c(Cc2c(O)n(Cc3ccccc3F)c3ccc(Cl)cc23)c1C (3D coordinates assigned)
CCN(CC)C/C=N\C(=O)c1c(C)[nH]c(Cc2c(O)n(Cc3ccccc3F)c3ccc(Cl)cc23)c1C (optimized conformer: 131.8310075638811 kcal/mol)

>  <smiles>  (13) 
CCN(CC)CC=NC(=O)c1c(C)[nH]c(Cc2c(O)n(Cc3ccccc3F)c3ccc(Cl)cc23)c1C

>  <score_type>  (13) 
oracle

>  <origin>  (13) 
adg

>  <m_score__min__energy>  (13) 
-10.34

>  <m_primary>  (13) 
energy

$$$$
13:0
     RDKit          3D

 58 61  0  0  0  0  0  0  0  0999 V2000
   -2.3021   18.7698  -33.7286 H   0  0  0  0  0  0  0  0  0  0  0  0
   -2.8710   19.5690  -33.2310 C   0  0  0  0  0  0  0  0  0  0  0  0
   -2.3190   20.7300  -32.7940 N   0  0  0  0  0  0  0  0  0  0  0  0
   -0.9400   21.1830  -32.9520 C   0  0  0  0  0  0  0  0  0  0  0  0
   -0.9388   22.2268  -33.2992 H   0  0  0  0  0  0  0  0  0  0  0  0
   -0.4349   20.5397  -33.6876 H   0  0  0  0  0  0  0  0  0  0  0  0
   -0.1940   21.0940  -31.6190 C   0  0  0  0  0  0  0  0  0  0  0  0
    0.6342   21.8180  -31.6130 H   0  0  0  0  0  0  0  0  0  0  0  0
    0.2071   20.0779  -31.4898 H   0  0  0  0  0  0  0  0  0  0  0  0
   -1.1280   21.4020  -30.5100 N   0  0  0  0  0  0  0  0  0  0  0  0
   -0.8020   22.6590  -29.8000 C   0  0  0  0  0  0  0  0  0  0  0  0
   -0.5750   23.4408  -30.5397 H   0  0  0  0  0  0  0  0  0  0  0  0
    0.0666   22.4776  -29.1499 H   0  0  0  0  0  0  0  0  0  0  0  0
   -1.9700   23.1190  -28.9310 C   0  0  0  0  0  0  0  0  0  0  0  0
   -1.7013   23.0132  -27.8696 H   0  0  0  0  0  0  0  0  0  0  0  0
   -2.1960   24.1733  -29.1487 H   0  0  0  0  0  0  0  0  0  0  0  0
   -2.8542   22.5020  -29.1487 H   0  0  0  0  0  0  0  0  0  0  0  0
   -1.3240   20.2620  -29.5870 C   0  0  0  0  0  0  0  0  0  0  0  0
   -2.1181   20.5254  -28.8728 H   0  0  0  0  0  0  0  0  0  0  0  0
   -1.5878   19.3899  -30.2033 H   0  0  0  0  0  0  0  0  0  0  0  0
   -0.0620   19.8880  -28.7940 C   0  0  0  0  0  0  0  0  0  0  0  0
   -0.2740   19.9508  -27.7165 H   0  0  0  0  0  0  0  0  0  0  0  0
    0.2405   18.8616  -29.0489 H   0  0  0  0  0  0  0  0  0  0  0  0
    0.7509   20.5839  -29.0489 H   0  0  0  0  0  0  0  0  0  0  0  0
   -3.3530   21.4100  -32.2760 C   0  0  0  0  0  0  0  0  0  0  0  0
   -3.3470   22.6700  -31.7800 N   0  0  0  0  0  0  0  0  0  0  0  0
   -4.5340   23.2030  -31.3520 C   0  0  0  0  0  0  0  0  0  0  0  0
   -4.5810   24.4070  -30.8680 N   0  0  0  0  0  0  0  0  0  0  0  0
   -5.2880   24.7510  -29.6380 C   0  0  0  0  0  0  0  0  0  0  0  0
   -4.5409   24.3665  -28.9281 H   0  0  0  0  0  0  0  0  0  0  0  0
   -6.7990   24.6620  -29.7540 C   0  0  0  0  0  0  0  0  0  0  0  0
   -7.2584   24.2725  -30.6744 H   0  0  0  0  0  0  0  0  0  0  0  0
   -7.5998   24.1987  -29.1590 H   0  0  0  0  0  0  0  0  0  0  0  0
   -6.1100   26.0190  -29.7620 C   0  0  0  0  0  0  0  0  0  0  0  0
   -6.0717   26.6111  -30.6883 H   0  0  0  0  0  0  0  0  0  0  0  0
   -6.2066   26.9442  -29.1749 H   0  0  0  0  0  0  0  0  0  0  0  0
   -5.6900   22.4680  -31.4400 N   0  0  0  0  0  0  0  0  0  0  0  0
   -5.6980   21.2010  -31.9540 C   0  0  0  0  0  0  0  0  0  0  0  0
   -6.9200   20.4510  -32.0510 N   0  0  0  0  0  0  0  0  0  0  0  0
   -6.8030   18.9890  -32.0130 C   0  0  0  0  0  0  0  0  0  0  0  0
   -5.9606   18.6762  -32.6475 H   0  0  0  0  0  0  0  0  0  0  0  0
   -6.6317   18.6717  -30.9738 H   0  0  0  0  0  0  0  0  0  0  0  0
   -8.0860   18.3390  -32.5240 C   0  0  0  0  0  0  0  0  0  0  0  0
   -8.1972   18.5512  -33.5976 H   0  0  0  0  0  0  0  0  0  0  0  0
   -8.0269   17.2532  -32.3578 H   0  0  0  0  0  0  0  0  0  0  0  0
   -9.2060   18.8490  -31.8300 O   0  0  0  0  0  0  0  0  0  0  0  0
   -9.3780   20.2130  -32.1540 C   0  0  0  0  0  0  0  0  0  0  0  0
   -9.4442   20.3165  -33.2471 H   0  0  0  0  0  0  0  0  0  0  0  0
  -10.3005   20.5713  -31.6737 H   0  0  0  0  0  0  0  0  0  0  0  0
   -8.1980   21.0620  -31.6390 C   0  0  2  0  0  0  0  0  0  0  0  0
   -8.2111   21.0969  -30.5396 H   0  0  0  0  0  0  0  0  0  0  0  0
   -8.3360   22.4990  -32.1700 C   0  0  0  0  0  0  0  0  0  0  0  0
   -8.4031   23.1979  -31.3232 H   0  0  0  0  0  0  0  0  0  0  0  0
   -7.4578   22.7492  -32.7832 H   0  0  0  0  0  0  0  0  0  0  0  0
   -9.2458   22.5775  -32.7832 H   0  0  0  0  0  0  0  0  0  0  0  0
   -4.4840   20.6750  -32.3810 C   0  0  0  0  0  0  0  0  0  0  0  0
   -4.2060   19.5060  -32.9840 N   0  0  0  0  0  0  0  0  0  0  0  0
   -4.8660   18.7380  -33.2410 H   0  0  0  0  0  0  0  0  0  0  0  0
  1  2  1  0
  2  3  1  0
  3  4  1  0
  4  5  1  0
  4  6  1  0
  4  7  1  0
  7  8  1  0
  7  9  1  0
  7 10  1  0
 10 11  1  0
 11 12  1  0
 11 13  1  0
 11 14  1  0
 14 15  1  0
 14 16  1  0
 14 17  1  0
 10 18  1  0
 18 19  1  0
 18 20  1  0
 18 21  1  0
 21 22  1  0
 21 23  1  0
 21 24  1  0
  3 25  1  0
 25 26  1  0
 26 27  1  0
 27 28  2  0
 28 29  1  0
 29 30  1  0
 29 31  1  0
 31 32  1  0
 31 33  1  0
 31 34  1  0
 34 35  1  0
 34 36  1  0
 27 37  1  0
 37 38  2  0
 38 39  1  0
 39 40  1  0
 40 41  1  0
 40 42  1  0
 40 43  1  0
 43 44  1  0
 43 45  1  0
 43 46  1  0
 46 47  1  0
 47 48  1  0
 47 49  1  0
 47 50  1  0
 50 51  1  1
 50 52  1  0
 52 53  1  0
 52 54  1  0
 52 55  1  0
 38 56  1  0
 56 57  1  0
 57 58  1  0
 57  2  2  0
 56 25  2  0
 34 29  1  0
 50 39  1  0
M  CHG  2  26  -1  57   1
M  END
>  <UniqueID>  (14) 
12

>  <SMILES>  (14) 
CCN(CC)CCn1c[nH+]c2c(N3CCOC[C@@H]3C)n/c(=N/C3CC3)[n-]c21

>  <Energy>  (14) 
367.27229388228295

>  <Genealogy>  (14) 
CCN(CC)CCn1c[nH+]c2c(N3CCOCC3C)nc(=NC3CC3)[n-]c21 (protonated)
CCN(CC)CCn1c[nH+]c2c(N3CCOC[C@@H]3C)nc(=NC3CC3)[n-]c21 (chirality)
CCN(CC)CCn1c[nH+]c2c(N3CCOC[C@@H]3C)n/c(=N/C3CC3)[n-]c21 (cis-trans isomerization)
CCN(CC)CCn1c[nH+]c2c(N3CCOC[C@@H]3C)n/c(=N/C3CC3)[n-]c21 (3D coordinates assigned)
CCN(CC)CCn1c[nH+]c2c(N3CCOC[C@@H]3C)n/c(=N/C3CC3)[n-]c21 (nonaromatic ring conformer: 367.27229388228295 kcal/mol)

>  <smiles>  (14) 
CCN(CC)CCn1cnc2c(N3CCOCC3C)nc(=NC3CC3)[nH]c21

>  <score_type>  (14) 
oracle

>  <origin>  (14) 
adg

>  <m_score__min__energy>  (14) 
-7.6399999999999997

>  <m_primary>  (14) 
energy

$$$$
14:0
     RDKit          3D

 41 43  0  0  0  0  0  0  0  0999 V2000
   -3.4270   20.8250  -33.1050 C   0  0  0  0  0  0  0  0  0  0  0  0
   -4.7480   20.5560  -33.5650 O   0  0  0  0  0  0  0  0  0  0  0  0
   -5.3250   19.2780  -33.6350 C   0  0  0  0  0  0  0  0  0  0  0  0
   -4.6620   18.2000  -34.2580 C   0  0  0  0  0  0  0  0  0  0  0  0
   -5.2440   16.9310  -34.2840 C   0  0  0  0  0  0  0  0  0  0  0  0
   -6.4880   16.7180  -33.6910 C   0  0  0  0  0  0  0  0  0  0  0  0
   -7.1590   17.7760  -33.0750 C   0  0  0  0  0  0  0  0  0  0  0  0
   -6.5930   19.0620  -33.0480 C   0  0  0  0  0  0  0  0  0  0  0  0
   -7.3350   20.1690  -32.3960 C   0  0  0  0  0  0  0  0  0  0  0  0
   -8.7120   20.3280  -32.6100 C   0  0  0  0  0  0  0  0  0  0  0  0
   -9.4080   21.3610  -31.9800 C   0  0  0  0  0  0  0  0  0  0  0  0
   -8.7390   22.2420  -31.1280 C   0  0  0  0  0  0  0  0  0  0  0  0
   -7.3580   22.1050  -30.8990 C   0  0  0  0  0  0  0  0  0  0  0  0
   -6.6550   23.0490  -29.9330 C   0  0  0  0  0  0  0  0  0  0  0  0
   -6.8940   24.5440  -30.2740 C   0  0  0  0  0  0  0  0  0  0  0  0
   -5.5890   25.3500  -30.2960 C   0  0  0  0  0  0  0  0  0  0  0  0
   -4.6100   24.7390  -31.2040 N   0  0  0  0  0  0  0  0  0  0  0  0
   -4.2780   23.3340  -30.8830 C   0  0  0  0  0  0  0  0  0  0  0  0
   -5.1590   22.6960  -29.7900 C   0  0  0  0  0  0  0  0  0  0  0  0
   -6.6660   21.0560  -31.5340 C   0  0  0  0  0  0  0  0  0  0  0  0
   -3.4151   20.8274  -32.0051 H   0  0  0  0  0  0  0  0  0  0  0  0
   -2.7437   20.0476  -33.4774 H   0  0  0  0  0  0  0  0  0  0  0  0
   -3.1021   21.8077  -33.4774 H   0  0  0  0  0  0  0  0  0  0  0  0
   -3.6798   18.3601  -34.7266 H   0  0  0  0  0  0  0  0  0  0  0  0
   -4.7198   16.0971  -34.7736 H   0  0  0  0  0  0  0  0  0  0  0  0
   -6.9409   15.7157  -33.7086 H   0  0  0  0  0  0  0  0  0  0  0  0
   -8.1390   17.6015  -32.6068 H   0  0  0  0  0  0  0  0  0  0  0  0
   -9.2459   19.6355  -33.2774 H   0  0  0  0  0  0  0  0  0  0  0  0
  -10.4872   21.4814  -32.1553 H   0  0  0  0  0  0  0  0  0  0  0  0
   -9.2966   23.0499  -30.6317 H   0  0  0  0  0  0  0  0  0  0  0  0
   -7.1138   22.9001  -28.9444 H   0  0  0  0  0  0  0  0  0  0  0  0
   -7.3676   24.6099  -31.2646 H   0  0  0  0  0  0  0  0  0  0  0  0
   -7.5400   24.9693  -29.4918 H   0  0  0  0  0  0  0  0  0  0  0  0
   -5.8041   26.3741  -30.6349 H   0  0  0  0  0  0  0  0  0  0  0  0
   -5.1664   25.3617  -29.2805 H   0  0  0  0  0  0  0  0  0  0  0  0
   -4.9870   24.7890  -32.1790 H   0  0  0  0  0  0  0  0  0  0  0  0
   -4.3864   22.7382  -31.8013 H   0  0  0  0  0  0  0  0  0  0  0  0
   -3.2510   23.3402  -30.4891 H   0  0  0  0  0  0  0  0  0  0  0  0
   -5.0506   21.6029  -29.8472 H   0  0  0  0  0  0  0  0  0  0  0  0
   -4.8198   23.0944  -28.8224 H   0  0  0  0  0  0  0  0  0  0  0  0
   -5.5884   20.9287  -31.3535 H   0  0  0  0  0  0  0  0  0  0  0  0
  1  2  1  0
  2  3  1  0
  3  4  2  0
  4  5  1  0
  5  6  2  0
  6  7  1  0
  7  8  2  0
  8  9  1  0
  9 10  2  0
 10 11  1  0
 11 12  2  0
 12 13  1  0
 13 14  1  0
 14 15  1  0
 15 16  1  0
 16 17  1  0
 17 18  1  0
 18 19  1  0
 13 20  2  0
  8  3  1  0
 20  9  1  0
 19 14  1  0
  1 21  1  0
  1 22  1  0
  1 23  1  0
  4 24  1  0
  5 25  1  0
  6 26  1  0
  7 27  1  0
 10 28  1  0
 11 29  1  0
 12 30  1  0
 14 31  1  0
 15 32  1  0
 15 33  1  0
 16 34  1  0
 16 35  1  0
 17 36  1  0
 18 37  1  0
 18 38  1  0
 19 39  1  0
 19 40  1  0
 20 41  1  0
M  END
>  <UniqueID>  (15) 
13

>  <SMILES>  (15) 
COc1ccccc1-c1cccc(C2CCNCC2)c1

>  <Energy>  (15) 
56.48660499970509

>  <Genealogy>  (15) 
COc1ccccc1-c1cccc(C2CCNCC2)c1 (3D coordinates assigned)
COc1ccccc1-c1cccc(C2CCNCC2)c1 (nonaromatic ring conformer: 56.48660499970509 kcal/mol)

>  <smiles>  (15) 
COc1ccccc1-c1cccc(C2CCNCC2)c1

>  <score_type>  (15) 
oracle

>  <origin>  (15) 
adg

>  <m_score__min__energy>  (15) 
-8.6500000000000004

>  <m_primary>  (15) 
energy

$$$$
15:0
     RDKit          3D

 57 61  0  0  0  0  0  0  0  0999 V2000
    0.0079   18.7380  -33.2026 H   0  0  0  0  0  0  0  0  0  0  0  0
   -1.0270   18.8060  -32.8360 C   0  0  0  0  0  0  0  0  0  0  0  0
   -5.4900   17.9570  -34.7600 C   0  0  0  0  0  0  0  0  0  0  0  0
   -3.3770   18.3600  -33.5740 C   0  0  0  0  0  0  0  0  0  0  0  0
   -3.8930   19.2770  -32.8750 O   0  0  0  0  0  0  0  0  0  0  0  0
   -4.2220   17.5720  -34.5010 C   0  0  0  0  0  0  0  0  0  0  0  0
   -1.9430   18.0000  -33.4160 C   0  0  0  0  0  0  0  0  0  0  0  0
   -5.8714   17.8049  -35.7805 H   0  0  0  0  0  0  0  0  0  0  0  0
   -6.4020   18.5680  -33.7710 C   0  0  0  0  0  0  0  0  0  0  0  0
   -7.1920   17.7340  -32.9650 C   0  0  0  0  0  0  0  0  0  0  0  0
   -7.1401   16.6427  -33.0931 H   0  0  0  0  0  0  0  0  0  0  0  0
   -8.0440   18.2790  -32.0010 C   0  0  0  0  0  0  0  0  0  0  0  0
   -8.6690   17.6164  -31.3843 H   0  0  0  0  0  0  0  0  0  0  0  0
   -8.1050   19.6680  -31.8170 C   0  0  0  0  0  0  0  0  0  0  0  0
   -7.2900   20.5120  -32.6050 C   0  0  0  0  0  0  0  0  0  0  0  0
   -7.3500   21.8960  -32.4030 C   0  0  0  0  0  0  0  0  0  0  0  0
   -6.7222   22.5692  -33.0052 H   0  0  0  0  0  0  0  0  0  0  0  0
   -8.2090   22.4190  -31.4350 C   0  0  0  0  0  0  0  0  0  0  0  0
   -8.2627   23.5054  -31.2709 H   0  0  0  0  0  0  0  0  0  0  0  0
   -8.9990   21.5540  -30.6770 C   0  0  0  0  0  0  0  0  0  0  0  0
   -9.6780   21.9617  -29.9136 H   0  0  0  0  0  0  0  0  0  0  0  0
   -8.9350   20.2090  -30.8760 N   0  0  0  0  0  0  0  0  0  0  0  0
   -9.5390   19.5890  -30.2890 H   0  0  0  0  0  0  0  0  0  0  0  0
   -6.4370   19.9580  -33.5700 C   0  0  0  0  0  0  0  0  0  0  0  0
   -5.7922   20.6147  -34.1725 H   0  0  0  0  0  0  0  0  0  0  0  0
   -3.6030   16.3420  -35.1360 C   0  0  0  0  0  0  0  0  0  0  0  0
   -3.1497   16.6293  -36.0962 H   0  0  0  0  0  0  0  0  0  0  0  0
   -4.4002   15.5972  -35.2763 H   0  0  0  0  0  0  0  0  0  0  0  0
   -2.5620   15.7360  -34.2810 N   0  0  0  0  0  0  0  0  0  0  0  0
   -3.1210   15.1260  -33.0600 C   0  0  0  0  0  0  0  0  0  0  0  0
   -2.6799   15.6073  -32.1747 H   0  0  0  0  0  0  0  0  0  0  0  0
   -4.2122   15.2647  -33.0474 H   0  0  0  0  0  0  0  0  0  0  0  0
   -2.8878   14.0511  -33.0474 H   0  0  0  0  0  0  0  0  0  0  0  0
   -1.4640   16.6790  -33.9840 C   0  0  0  0  0  0  0  0  0  0  0  0
   -0.9142   16.8787  -34.9156 H   0  0  0  0  0  0  0  0  0  0  0  0
   -0.8287   16.2078  -33.2195 H   0  0  0  0  0  0  0  0  0  0  0  0
   -1.2980   19.7700  -31.7520 C   0  0  0  0  0  0  0  0  0  0  0  0
   -0.7670   19.5370  -30.4760 C   0  0  0  0  0  0  0  0  0  0  0  0
   -0.1848   18.6234  -30.2851 H   0  0  0  0  0  0  0  0  0  0  0  0
   -0.9720   20.4570  -29.4450 C   0  0  0  0  0  0  0  0  0  0  0  0
   -0.5660   20.2564  -28.4425 H   0  0  0  0  0  0  0  0  0  0  0  0
   -1.6940   21.6360  -29.6840 C   0  0  0  0  0  0  0  0  0  0  0  0
   -1.9070   22.5650  -28.6570 C   0  0  0  0  0  0  0  0  0  0  0  0
   -1.5103   22.3684  -27.6500 H   0  0  0  0  0  0  0  0  0  0  0  0
   -2.6210   23.7400  -28.9060 C   0  0  0  0  0  0  0  0  0  0  0  0
   -2.7833   24.4634  -28.0934 H   0  0  0  0  0  0  0  0  0  0  0  0
   -3.1340   24.0040  -30.1900 C   0  0  0  0  0  0  0  0  0  0  0  0
   -3.8560   25.1700  -30.4860 O   0  0  0  0  0  0  0  0  0  0  0  0
   -5.2760   25.2680  -30.4510 C   0  0  0  0  0  0  0  0  0  0  0  0
   -5.6162   25.2915  -29.4052 H   0  0  0  0  0  0  0  0  0  0  0  0
   -5.5926   26.1901  -30.9604 H   0  0  0  0  0  0  0  0  0  0  0  0
   -5.7162   24.3981  -30.9604 H   0  0  0  0  0  0  0  0  0  0  0  0
   -2.9210   23.0770  -31.2180 C   0  0  0  0  0  0  0  0  0  0  0  0
   -3.3172   23.2784  -32.2242 H   0  0  0  0  0  0  0  0  0  0  0  0
   -2.2070   21.8940  -30.9760 C   0  0  0  0  0  0  0  0  0  0  0  0
   -1.9950   20.9640  -32.0070 C   0  0  0  0  0  0  0  0  0  0  0  0
   -2.3759   21.1707  -33.0180 H   0  0  0  0  0  0  0  0  0  0  0  0
  1  2  1  0
  2  3  2  0
  3  4  1  0
  4  5  2  0
  4  6  1  0
  6  7  2  0
  7  8  1  0
  7  9  1  0
  9 10  2  0
 10 11  1  0
 10 12  1  0
 12 13  1  0
 12 14  2  0
 14 15  1  0
 15 16  1  0
 16 17  1  0
 16 18  2  0
 18 19  1  0
 18 20  1  0
 20 21  1  0
 20 22  2  0
 22 23  1  0
 15 24  2  0
 24 25  1  0
  6 26  1  0
 26 27  1  0
 26 28  1  0
 26 29  1  0
 29 30  1  0
 30 31  1  0
 30 32  1  0
 30 33  1  0
 29 34  1  0
 34 35  1  0
 34 36  1  0
  2 37  1  0
 37 38  2  0
 38 39  1  0
 38 40  1  0
 40 41  1  0
 40 42  2  0
 42 43  1  0
 43 44  1  0
 43 45  2  0
 45 46  1  0
 45 47  1  0
 47 48  1  0
 48 49  1  0
 49 50  1  0
 49 51  1  0
 49 52  1  0
 47 53  2  0
 53 54  1  0
 53 55  1  0
 55 56  2  0
 56 57  1  0
 34  3  1  0
 56 37  1  0
 24  9  1  0
 55 42  1  0
 22 14  1  0
M  CHG  1  22   1
M  END
>  <UniqueID>  (16) 
14

>  <SMILES>  (16) 
COc1ccc2ccc(/C=C3/CN(C)C/C(=C\c4ccc5[nH+]cccc5c4)C3=O)cc2c1

>  <Energy>  (16) 
89.77474443132172

>  <Genealogy>  (16) 
COc1ccc2ccc(C=C3CN(C)CC(=Cc4ccc5[nH+]cccc5c4)C3=O)cc2c1 (protonated)
COc1ccc2ccc(/C=C3/CN(C)C/C(=C\c4ccc5[nH+]cccc5c4)C3=O)cc2c1 (cis-trans isomerization)
COc1ccc2ccc(/C=C3/CN(C)C/C(=C\c4ccc5[nH+]cccc5c4)C3=O)cc2c1 (3D coordinates assigned)
COc1ccc2ccc(/C=C3/CN(C)C/C(=C\c4ccc5[nH+]cccc5c4)C3=O)cc2c1 (nonaromatic ring conformer: 89.77474443132172 kcal/mol)

>  <smiles>  (16) 
COc1ccc2ccc(C=C3CN(C)CC(=Cc4ccc5ncccc5c4)C3=O)cc2c1

>  <score_type>  (16) 
oracle

>  <origin>  (16) 
adg

>  <m_score__min__energy>  (16) 
-10.699999999999999

>  <m_primary>  (16) 
energy

$$$$
16:0
     RDKit          3D

 35 35  0  0  0  0  0  0  0  0999 V2000
   -5.6537   24.3962  -28.3435 H   0  0  0  0  0  0  0  0  0  0  0  0
   -5.6340   24.3700  -29.4430 C   0  0  0  0  0  0  0  0  0  0  0  0
   -4.3420   24.6810  -30.0830 C   0  0  0  0  0  0  0  0  0  0  0  0
   -4.2430   25.6720  -30.8520 O   0  0  0  0  0  0  0  0  0  0  0  0
   -3.1870   23.7630  -29.9200 C   0  0  0  0  0  0  0  0  0  0  0  0
   -3.2850   22.4130  -30.3320 C   0  0  0  0  0  0  0  0  0  0  0  0
   -4.4970   21.9480  -30.8730 O   0  0  0  0  0  0  0  0  0  0  0  0
   -4.6050   20.9870  -31.9170 C   0  0  0  0  0  0  0  0  0  0  0  0
   -4.7178   19.9833  -31.4812 H   0  0  0  0  0  0  0  0  0  0  0  0
   -5.4829   21.2177  -32.5384 H   0  0  0  0  0  0  0  0  0  0  0  0
   -3.6978   21.0171  -32.5384 H   0  0  0  0  0  0  0  0  0  0  0  0
   -2.1790   21.5580  -30.1730 C   0  0  0  0  0  0  0  0  0  0  0  0
   -2.2466   20.5105  -30.5018 H   0  0  0  0  0  0  0  0  0  0  0  0
   -0.9990   22.0290  -29.6020 C   0  0  0  0  0  0  0  0  0  0  0  0
   -0.1405   21.3518  -29.4823 H   0  0  0  0  0  0  0  0  0  0  0  0
   -0.9010   23.3530  -29.1820 C   0  0  0  0  0  0  0  0  0  0  0  0
    0.0325   23.7132  -28.7250 H   0  0  0  0  0  0  0  0  0  0  0  0
   -1.9880   24.2340  -29.3380 C   0  0  0  0  0  0  0  0  0  0  0  0
   -1.9010   25.5800  -28.9410 O   0  0  0  0  0  0  0  0  0  0  0  0
   -1.2030   26.0430  -27.7900 C   0  0  0  0  0  0  0  0  0  0  0  0
   -1.7220   25.6987  -26.8833 H   0  0  0  0  0  0  0  0  0  0  0  0
   -0.1773   25.6456  -27.7986 H   0  0  0  0  0  0  0  0  0  0  0  0
   -1.1703   27.1425  -27.7986 H   0  0  0  0  0  0  0  0  0  0  0  0
   -6.7940   24.0570  -30.0560 C   0  0  0  0  0  0  0  0  0  0  0  0
   -7.6573   24.7021  -29.8356 H   0  0  0  0  0  0  0  0  0  0  0  0
   -7.0220   22.9580  -30.9760 N   0  0  0  0  0  0  0  0  0  0  0  0
   -6.1310   22.4030  -30.9750 H   0  0  0  0  0  0  0  0  0  0  0  0
   -8.0710   22.0320  -30.5130 C   0  0  0  0  0  0  0  0  0  0  0  0
   -8.0877   22.0172  -29.4132 H   0  0  0  0  0  0  0  0  0  0  0  0
   -9.0485   22.3672  -30.8901 H   0  0  0  0  0  0  0  0  0  0  0  0
   -7.8597   21.0205  -30.8901 H   0  0  0  0  0  0  0  0  0  0  0  0
   -7.2280   23.3980  -32.3690 C   0  0  0  0  0  0  0  0  0  0  0  0
   -7.6944   24.3942  -32.3737 H   0  0  0  0  0  0  0  0  0  0  0  0
   -6.2582   23.4448  -32.8860 H   0  0  0  0  0  0  0  0  0  0  0  0
   -7.8850   22.6831  -32.8860 H   0  0  0  0  0  0  0  0  0  0  0  0
  1  2  1  0
  2  3  1  0
  3  4  2  0
  3  5  1  0
  5  6  2  0
  6  7  1  0
  7  8  1  0
  8  9  1  0
  8 10  1  0
  8 11  1  0
  6 12  1  0
 12 13  1  0
 12 14  2  0
 14 15  1  0
 14 16  1  0
 16 17  1  0
 16 18  2  0
 18 19  1  0
 19 20  1  0
 20 21  1  0
 20 22  1  0
 20 23  1  0
  2 24  2  0
 24 25  1  0
 24 26  1  0
 26 27  1  0
 26 28  1  0
 28 29  1  0
 28 30  1  0
 28 31  1  0
 26 32  1  0
 32 33  1  0
 32 34  1  0
 32 35  1  0
 18  5  1  0
M  CHG  1  26   1
M  END
>  <UniqueID>  (17) 
15

>  <SMILES>  (17) 
COc1cccc(OC)c1C(=O)/C=C\[NH+](C)C

>  <Energy>  (17) 
48.346368301805754

>  <Genealogy>  (17) 
COc1cccc(OC)c1C(=O)C=C[NH+](C)C (protonated)
COc1cccc(OC)c1C(=O)/C=C\[NH+](C)C (cis-trans isomerization)
COc1cccc(OC)c1C(=O)/C=C\[NH+](C)C (3D coordinates assigned)
COc1cccc(OC)c1C(=O)/C=C\[NH+](C)C (optimized conformer: 48.346368301805754 kcal/mol)

>  <smiles>  (17) 
COc1cccc(OC)c1C(=O)C=CN(C)C

>  <score_type>  (17) 
oracle

>  <origin>  (17) 
adg

>  <m_score__min__energy>  (17) 
-5.4900000000000002

>  <m_primary>  (17) 
energy

$$$$
17:0
     RDKit          3D

 29 31  0  0  0  0  0  0  0  0999 V2000
   -8.9380   19.7270  -32.5580 C   0  0  0  0  0  0  0  0  0  0  0  0
   -8.2730   20.9750  -32.2010 N   0  0  0  0  0  0  0  0  0  0  0  0
   -8.9390   22.0750  -31.8670 N   0  0  0  0  0  0  0  0  0  0  0  0
   -8.0460   23.0510  -31.5880 C   0  0  0  0  0  0  0  0  0  0  0  0
   -6.7760   22.5400  -31.7550 C   0  0  0  0  0  0  0  0  0  0  0  0
   -5.5150   23.1150  -31.5910 C   0  0  0  0  0  0  0  0  0  0  0  0
   -5.3610   24.4870  -31.1790 C   0  0  0  0  0  0  0  0  0  0  0  0
   -5.2360   25.5880  -30.8490 N   0  0  0  0  0  0  0  0  0  0  0  0
   -4.3920   22.3050  -31.8380 C   0  0  0  0  0  0  0  0  0  0  0  0
   -4.5520   20.9620  -32.2390 C   0  0  0  0  0  0  0  0  0  0  0  0
   -5.8380   20.4040  -32.4030 C   0  0  0  0  0  0  0  0  0  0  0  0
   -5.9650   19.0050  -32.8350 C   0  0  0  0  0  0  0  0  0  0  0  0
   -6.0150   18.6840  -34.1970 C   0  0  0  0  0  0  0  0  0  0  0  0
   -6.1190   17.3490  -34.5920 C   0  0  0  0  0  0  0  0  0  0  0  0
   -6.1580   16.3480  -33.6180 C   0  0  0  0  0  0  0  0  0  0  0  0
   -6.0930   16.6750  -32.2980 N   0  0  0  0  0  0  0  0  0  0  0  0
   -5.9930   17.9690  -31.8900 C   0  0  0  0  0  0  0  0  0  0  0  0
   -6.9460   21.2350  -32.1450 C   0  0  0  0  0  0  0  0  0  0  0  0
   -9.2246   19.1892  -31.6422 H   0  0  0  0  0  0  0  0  0  0  0  0
   -9.8381   19.9476  -33.1505 H   0  0  0  0  0  0  0  0  0  0  0  0
   -8.2529   19.1029  -33.1505 H   0  0  0  0  0  0  0  0  0  0  0  0
   -8.2908   24.0782  -31.2801 H   0  0  0  0  0  0  0  0  0  0  0  0
   -3.3812   22.7219  -31.7176 H   0  0  0  0  0  0  0  0  0  0  0  0
   -3.6631   20.3417  -32.4263 H   0  0  0  0  0  0  0  0  0  0  0  0
   -5.9725   19.4814  -34.9536 H   0  0  0  0  0  0  0  0  0  0  0  0
   -6.1697   17.0878  -35.6593 H   0  0  0  0  0  0  0  0  0  0  0  0
   -6.2414   15.2931  -33.9184 H   0  0  0  0  0  0  0  0  0  0  0  0
   -6.1200   15.9150  -31.5830 H   0  0  0  0  0  0  0  0  0  0  0  0
   -5.9340   18.2032  -30.8168 H   0  0  0  0  0  0  0  0  0  0  0  0
  1  2  1  0
  2  3  1  0
  3  4  2  0
  4  5  1  0
  5  6  2  0
  6  7  1  0
  7  8  3  0
  6  9  1  0
  9 10  2  0
 10 11  1  0
 11 12  1  0
 12 13  2  0
 13 14  1  0
 14 15  2  0
 15 16  1  0
 16 17  2  0
 11 18  2  0
 18  2  1  0
 18  5  1  0
 17 12  1  0
  1 19  1  0
  1 20  1  0
  1 21  1  0
  4 22  1  0
  9 23  1  0
 10 24  1  0
 13 25  1  0
 14 26  1  0
 15 27  1  0
 16 28  1  0
 17 29  1  0
M  CHG  1  16   1
M  END
>  <UniqueID>  (18) 
16

>  <SMILES>  (18) 
Cn1ncc2c(C#N)ccc(-c3ccc[nH+]c3)c21

>  <Energy>  (18) 
77.98459952811241

>  <Genealogy>  (18) 
Cn1ncc2c(C#N)ccc(-c3ccc[nH+]c3)c21 (protonated)
Cn1ncc2c(C#N)ccc(-c3ccc[nH+]c3)c21 (3D coordinates assigned)
Cn1ncc2c(C#N)ccc(-c3ccc[nH+]c3)c21 (optimized conformer: 77.98459952811241 kcal/mol)

>  <smiles>  (18) 
Cn1ncc2c(C#N)ccc(-c3cccnc3)c21

>  <score_type>  (18) 
oracle

>  <origin>  (18) 
adg

>  <m_score__min__energy>  (18) 
-6.6600000000000001

>  <m_primary>  (18) 
energy

$$$$
18:0
     RDKit          3D

 37 40  0  0  0  0  0  0  0  0999 V2000
   -6.1130   26.0480  -29.6560 C   0  0  0  0  0  0  0  0  0  0  0  0
   -5.9800   24.6980  -30.3080 C   0  0  0  0  0  0  0  0  0  0  0  0
   -7.1380   23.9390  -30.5310 C   0  0  0  0  0  0  0  0  0  0  0  0
   -7.0680   22.7050  -31.1820 C   0  0  0  0  0  0  0  0  0  0  0  0
   -5.8360   22.2040  -31.6280 C   0  0  0  0  0  0  0  0  0  0  0  0
   -5.7520   20.9030  -32.3330 C   0  0  0  0  0  0  0  0  0  0  0  0
   -6.6920   19.9310  -32.2140 N   0  0  0  0  0  0  0  0  0  0  0  0
   -6.3800   18.8420  -32.9620 C   0  0  0  0  0  0  0  0  0  0  0  0
   -7.1590   17.6870  -33.0380 C   0  0  0  0  0  0  0  0  0  0  0  0
   -6.7200   16.6280  -33.8530 C   0  0  0  0  0  0  0  0  0  0  0  0
   -5.5150   16.7370  -34.5760 C   0  0  0  0  0  0  0  0  0  0  0  0
   -4.7390   17.9040  -34.4910 C   0  0  0  0  0  0  0  0  0  0  0  0
   -5.1970   18.9360  -33.6770 C   0  0  0  0  0  0  0  0  0  0  0  0
   -4.4970   20.4310  -33.3790 S   0  0  0  0  0  0  0  0  0  0  0  0
   -4.6720   22.9530  -31.3900 C   0  0  0  0  0  0  0  0  0  0  0  0
   -4.7260   24.1720  -30.7040 C   0  0  0  0  0  0  0  0  0  0  0  0
   -3.4950   24.8680  -30.4620 N   0  0  0  0  0  0  0  0  0  0  0  0
   -2.5790   24.6100  -29.3880 C   0  0  0  0  0  0  0  0  0  0  0  0
   -1.8710   25.5570  -28.9590 O   0  0  0  0  0  0  0  0  0  0  0  0
   -2.4100   23.2710  -28.7910 C   0  0  0  0  0  0  0  0  0  0  0  0
   -3.2770   22.6270  -27.9270 C   0  0  0  0  0  0  0  0  0  0  0  0
   -2.6980   21.4070  -27.6580 C   0  0  0  0  0  0  0  0  0  0  0  0
   -1.5220   21.3750  -28.3770 C   0  0  0  0  0  0  0  0  0  0  0  0
   -1.3800   22.4970  -29.0440 O   0  0  0  0  0  0  0  0  0  0  0  0
   -6.1014   25.9298  -28.5624 H   0  0  0  0  0  0  0  0  0  0  0  0
   -5.2736   26.6885  -29.9645 H   0  0  0  0  0  0  0  0  0  0  0  0
   -7.0612   26.5124  -29.9645 H   0  0  0  0  0  0  0  0  0  0  0  0
   -8.1120   24.3195  -30.1896 H   0  0  0  0  0  0  0  0  0  0  0  0
   -7.9860   22.1217  -31.3461 H   0  0  0  0  0  0  0  0  0  0  0  0
   -8.0984   17.6061  -32.4714 H   0  0  0  0  0  0  0  0  0  0  0  0
   -7.3206   15.7094  -33.9265 H   0  0  0  0  0  0  0  0  0  0  0  0
   -5.1806   15.9030  -35.2105 H   0  0  0  0  0  0  0  0  0  0  0  0
   -3.7971   17.9999  -35.0510 H   0  0  0  0  0  0  0  0  0  0  0  0
   -3.7028   22.5758  -31.7483 H   0  0  0  0  0  0  0  0  0  0  0  0
   -4.2311   23.0100  -27.5359 H   0  0  0  0  0  0  0  0  0  0  0  0
   -3.0937   20.6175  -27.0021 H   0  0  0  0  0  0  0  0  0  0  0  0
   -0.8104   20.5363  -28.3899 H   0  0  0  0  0  0  0  0  0  0  0  0
  1  2  1  0
  2  3  2  0
  3  4  1  0
  4  5  2  0
  5  6  1  0
  6  7  2  0
  7  8  1  0
  8  9  2  0
  9 10  1  0
 10 11  2  0
 11 12  1  0
 12 13  2  0
 13 14  1  0
  5 15  1  0
 15 16  2  0
 16 17  1  0
 17 18  1  0
 18 19  2  0
 18 20  1  0
 20 21  2  0
 21 22  1  0
 22 23  2  0
 23 24  1  0
 16  2  1  0
 24 20  1  0
 14  6  1  0
 13  8  1  0
  1 25  1  0
  1 26  1  0
  1 27  1  0
  3 28  1  0
  4 29  1  0
  9 30  1  0
 10 31  1  0
 11 32  1  0
 12 33  1  0
 15 34  1  0
 21 35  1  0
 22 36  1  0
 23 37  1  0
M  CHG  1  17  -1
M  END
>  <UniqueID>  (19) 
17

>  <SMILES>  (19) 
Cc1ccc(-c2nc3ccccc3s2)cc1[N-]C(=O)c1ccco1

>  <Energy>  (19) 
110.43976767501026

>  <Genealogy>  (19) 
Cc1ccc(-c2nc3ccccc3s2)cc1[N-]C(=O)c1ccco1 (protonated)
Cc1ccc(-c2nc3ccccc3s2)cc1[N-]C(=O)c1ccco1 (3D coordinates assigned)
Cc1ccc(-c2nc3ccccc3s2)cc1[N-]C(=O)c1ccco1 (optimized conformer: 110.43976767501026 kcal/mol)

>  <smiles>  (19) 
Cc1ccc(-c2nc3ccccc3s2)cc1NC(=O)c1ccco1

>  <score_type>  (19) 
oracle

>  <origin>  (19) 
adg

>  <m_score__min__energy>  (19) 
-10.65

>  <m_primary>  (19) 
energy

$$$$
19:0
     RDKit          3D

 70 71  0  0  0  0  0  0  0  0999 V2000
   -0.8680   21.8410  -30.7110 C   0  0  0  0  0  0  0  0  0  0  0  0
   -0.3860   20.7680  -31.7000 C   0  0  0  0  0  0  0  0  0  0  0  0
   -1.1830   20.7340  -32.9580 N   0  0  0  0  0  0  0  0  0  0  0  0
   -0.5340   21.5150  -34.0540 C   0  0  0  0  0  0  0  0  0  0  0  0
   -0.0830   20.6880  -35.2680 C   0  0  0  0  0  0  0  0  0  0  0  0
   -2.5820   21.1500  -32.6690 C   0  0  0  0  0  0  0  0  0  0  0  0
   -3.6620   20.3470  -33.4210 C   0  0  0  0  0  0  0  0  0  0  0  0
   -3.0970   19.3350  -34.2550 O   0  0  0  0  0  0  0  0  0  0  0  0
   -2.8450   18.0220  -33.8350 C   0  0  0  0  0  0  0  0  0  0  0  0
   -1.7120   17.6930  -33.3890 O   0  0  0  0  0  0  0  0  0  0  0  0
   -3.9000   16.9720  -34.0080 C   0  0  0  0  0  0  0  0  0  0  0  0
   -4.2350   16.2290  -32.7050 C   0  0  0  0  0  0  0  0  0  0  0  0
   -5.5330   16.7130  -32.0280 C   0  0  0  0  0  0  0  0  0  0  0  0
   -6.1540   17.9800  -32.6420 C   0  0  0  0  0  0  0  0  0  0  0  0
   -7.6100   17.7690  -33.0840 C   0  0  0  0  0  0  0  0  0  0  0  0
   -8.5930   18.2610  -32.0150 C   0  0  0  0  0  0  0  0  0  0  0  0
   -9.7770   19.0360  -32.6100 C   0  0  0  0  0  0  0  0  0  0  0  0
   -9.5940   20.4470  -32.4740 O   0  0  0  0  0  0  0  0  0  0  0  0
   -8.4420   21.0980  -32.0010 C   0  0  0  0  0  0  0  0  0  0  0  0
   -7.2240   21.1200  -32.7090 C   0  0  0  0  0  0  0  0  0  0  0  0
   -6.1240   21.8140  -32.1980 C   0  0  0  0  0  0  0  0  0  0  0  0
   -6.2110   22.4860  -30.9660 C   0  0  0  0  0  0  0  0  0  0  0  0
   -5.0470   23.2380  -30.4320 C   0  0  0  0  0  0  0  0  0  0  0  0
   -4.8400   24.5870  -30.7590 C   0  0  0  0  0  0  0  0  0  0  0  0
   -3.7680   25.2540  -30.2590 N   0  0  0  0  0  0  0  0  0  0  0  0
   -2.8740   24.6380  -29.4430 C   0  0  0  0  0  0  0  0  0  0  0  0
   -1.8570   25.3100  -28.9920 N   0  0  0  0  0  0  0  0  0  0  0  0
   -1.4720   25.3620  -27.5850 C   0  0  0  0  0  0  0  0  0  0  0  0
   -3.0510   23.3300  -29.1130 N   0  0  0  0  0  0  0  0  0  0  0  0
   -4.1110   22.6240  -29.5850 C   0  0  0  0  0  0  0  0  0  0  0  0
   -7.4200   22.4400  -30.2510 C   0  0  0  0  0  0  0  0  0  0  0  0
   -8.5200   21.7500  -30.7660 C   0  0  0  0  0  0  0  0  0  0  0  0
   -0.7095   21.4882  -29.6812 H   0  0  0  0  0  0  0  0  0  0  0  0
   -0.3005   22.7694  -30.8719 H   0  0  0  0  0  0  0  0  0  0  0  0
   -1.9390   22.0334  -30.8719 H   0  0  0  0  0  0  0  0  0  0  0  0
    0.6638   20.9738  -31.9559 H   0  0  0  0  0  0  0  0  0  0  0  0
   -0.5057   19.7911  -31.2088 H   0  0  0  0  0  0  0  0  0  0  0  0
   -1.2270   19.7340  -33.2660 H   0  0  0  0  0  0  0  0  0  0  0  0
   -1.2523   22.2706  -34.4048 H   0  0  0  0  0  0  0  0  0  0  0  0
    0.3809   21.9460  -33.6213 H   0  0  0  0  0  0  0  0  0  0  0  0
    0.4169   19.7713  -34.9219 H   0  0  0  0  0  0  0  0  0  0  0  0
   -0.9600   20.4203  -35.8756 H   0  0  0  0  0  0  0  0  0  0  0  0
    0.6170   21.2803  -35.8756 H   0  0  0  0  0  0  0  0  0  0  0  0
   -2.7580   21.0332  -31.5895 H   0  0  0  0  0  0  0  0  0  0  0  0
   -2.6736   22.1909  -33.0127 H   0  0  0  0  0  0  0  0  0  0  0  0
   -4.3259   19.8700  -32.6850 H   0  0  0  0  0  0  0  0  0  0  0  0
   -4.2160   21.0458  -34.0651 H   0  0  0  0  0  0  0  0  0  0  0  0
   -4.8156   17.4546  -34.3805 H   0  0  0  0  0  0  0  0  0  0  0  0
   -3.5072   16.2279  -34.7165 H   0  0  0  0  0  0  0  0  0  0  0  0
   -4.3418   15.1584  -32.9340 H   0  0  0  0  0  0  0  0  0  0  0  0
   -3.4132   16.4295  -32.0018 H   0  0  0  0  0  0  0  0  0  0  0  0
   -6.2746   15.9032  -32.0940 H   0  0  0  0  0  0  0  0  0  0  0  0
   -5.2615   16.9739  -30.9944 H   0  0  0  0  0  0  0  0  0  0  0  0
   -6.1263   18.7847  -31.8926 H   0  0  0  0  0  0  0  0  0  0  0  0
   -5.5682   18.2386  -33.5364 H   0  0  0  0  0  0  0  0  0  0  0  0
   -7.7859   18.3259  -34.0162 H   0  0  0  0  0  0  0  0  0  0  0  0
   -7.7739   16.6922  -33.2375 H   0  0  0  0  0  0  0  0  0  0  0  0
   -8.9822   17.3900  -31.4674 H   0  0  0  0  0  0  0  0  0  0  0  0
   -8.0462   18.9476  -31.3520 H   0  0  0  0  0  0  0  0  0  0  0  0
   -9.8678   18.7876  -33.6777 H   0  0  0  0  0  0  0  0  0  0  0  0
  -10.6888   18.7497  -32.0653 H   0  0  0  0  0  0  0  0  0  0  0  0
   -7.1386   20.5885  -33.6683 H   0  0  0  0  0  0  0  0  0  0  0  0
   -5.1815   21.8348  -32.7648 H   0  0  0  0  0  0  0  0  0  0  0  0
   -5.5481   25.1055  -31.4222 H   0  0  0  0  0  0  0  0  0  0  0  0
   -2.3660   25.2413  -26.9555 H   0  0  0  0  0  0  0  0  0  0  0  0
   -0.7597   24.5519  -27.3696 H   0  0  0  0  0  0  0  0  0  0  0  0
   -1.0002   26.3320  -27.3696 H   0  0  0  0  0  0  0  0  0  0  0  0
   -4.2363   21.5682  -29.3028 H   0  0  0  0  0  0  0  0  0  0  0  0
   -7.5006   22.9504  -29.2799 H   0  0  0  0  0  0  0  0  0  0  0  0
   -9.4587   21.7190  -30.1935 H   0  0  0  0  0  0  0  0  0  0  0  0
  1  2  1  0
  2  3  1  0
  3  4  1  0
  4  5  1  0
  3  6  1  0
  6  7  1  0
  7  8  1  0
  8  9  1  0
  9 10  2  0
  9 11  1  0
 11 12  1  0
 12 13  1  0
 13 14  1  0
 14 15  1  0
 15 16  1  0
 16 17  1  0
 17 18  1  0
 18 19  1  0
 19 20  2  0
 20 21  1  0
 21 22  2  0
 22 23  1  0
 23 24  1  0
 24 25  2  0
 25 26  1  0
 26 27  2  3
 27 28  1  0
 26 29  1  0
 29 30  1  0
 22 31  1  0
 31 32  2  0
 32 19  1  0
 30 23  2  0
  1 33  1  0
  1 34  1  0
  1 35  1  0
  2 36  1  0
  2 37  1  0
  3 38  1  0
  4 39  1  0
  4 40  1  0
  5 41  1  0
  5 42  1  0
  5 43  1  0
  6 44  1  0
  6 45  1  0
  7 46  1  0
  7 47  1  0
 11 48  1  0
 11 49  1  0
 12 50  1  0
 12 51  1  0
 13 52  1  0
 13 53  1  0
 14 54  1  0
 14 55  1  0
 15 56  1  0
 15 57  1  0
 16 58  1  0
 16 59  1  0
 17 60  1  0
 17 61  1  0
 20 62  1  0
 21 63  1  0
 24 64  1  0
 28 65  1  0
 28 66  1  0
 28 67  1  0
 30 68  1  0
 31 69  1  0
 32 70  1  0
M  CHG  2   3   1  29  -1
M  END
>  <UniqueID>  (20) 
18

>  <SMILES>  (20) 
CC[NH+](CC)CCOC(=O)CCCCCCCOc1ccc(-c2cnc(=NC)[n-]c2)cc1

>  <Energy>  (20) 
67.6771960106431

>  <Genealogy>  (20) 
CC[NH+](CC)CCOC(=O)CCCCCCCOc1ccc(-c2cnc(=NC)[n-]c2)cc1 (protonated)
CC[NH+](CC)CCOC(=O)CCCCCCCOc1ccc(-c2cnc(=NC)[n-]c2)cc1 (3D coordinates assigned)
CC[NH+](CC)CCOC(=O)CCCCCCCOc1ccc(-c2cnc(=NC)[n-]c2)cc1 (optimized conformer: 67.6771960106431 kcal/mol)

>  <smiles>  (20) 
CCN(CC)CCOC(=O)CCCCCCCOc1ccc(-c2cnc(=NC)[nH]c2)cc1

>  <score_type>  (20) 
oracle

>  <origin>  (20) 
adg

>  <m_score__min__energy>  (20) 
-7.8499999999999996

>  <m_primary>  (20) 
energy

$$$$
20:0
     RDKit          3D

 54 58  0  0  0  0  0  0  0  0999 V2000
   -1.2070   26.1770  -24.0310 C   0  0  0  0  0  0  0  0  0  0  0  0
   -0.8880   24.7190  -24.3500 C   0  0  0  0  0  0  0  0  0  0  0  0
   -0.2080   24.6100  -25.6460 N   0  0  0  0  0  0  0  0  0  0  0  0
    0.9080   25.2570  -26.0960 C   0  0  0  0  0  0  0  0  0  0  0  0
    1.7270   26.2130  -25.3200 C   0  0  0  0  0  0  0  0  0  0  0  0
    2.3540   27.3350  -25.8610 C   0  0  0  0  0  0  0  0  0  0  0  0
    3.1030   28.1620  -24.6030 S   0  0  0  0  0  0  0  0  0  0  0  0
    2.5970   27.0830  -23.4200 C   0  0  0  0  0  0  0  0  0  0  0  0
    1.8590   26.0960  -23.9690 N   0  0  0  0  0  0  0  0  0  0  0  0
    1.1930   24.9830  -27.3970 N   0  0  0  0  0  0  0  0  0  0  0  0
    0.2260   24.1210  -27.7520 C   0  0  0  0  0  0  0  0  0  0  0  0
    0.0380   23.5310  -28.9980 C   0  0  0  0  0  0  0  0  0  0  0  0
   -1.0680   22.6650  -29.1660 C   0  0  0  0  0  0  0  0  0  0  0  0
   -1.3220   22.0190  -30.4740 C   0  0  0  0  0  0  0  0  0  0  0  0
   -0.3660   21.4670  -31.0850 O   0  0  0  0  0  0  0  0  0  0  0  0
   -2.6390   21.9900  -31.0520 N   0  0  0  0  0  0  0  0  0  0  0  0
   -3.1110   20.7520  -31.6890 C   0  0  0  0  0  0  0  0  0  0  0  0
   -4.4230   20.9660  -32.4560 C   0  0  0  0  0  0  0  0  0  0  0  0
   -5.3730   21.7590  -31.6600 N   0  0  0  0  0  0  0  0  0  0  0  0
   -6.7920   21.5090  -31.7650 C   0  0  0  0  0  0  0  0  0  0  0  0
   -7.7180   22.5470  -31.5430 C   0  0  0  0  0  0  0  0  0  0  0  0
   -9.0910   22.3050  -31.6490 C   0  0  0  0  0  0  0  0  0  0  0  0
   -9.5550   21.0300  -31.9800 C   0  0  0  0  0  0  0  0  0  0  0  0
   -8.6470   19.9940  -32.2080 C   0  0  0  0  0  0  0  0  0  0  0  0
   -7.2740   20.2290  -32.1010 C   0  0  0  0  0  0  0  0  0  0  0  0
   -4.9020   22.9260  -30.8950 C   0  0  0  0  0  0  0  0  0  0  0  0
   -3.4260   23.2220  -31.1720 C   0  0  0  0  0  0  0  0  0  0  0  0
   -1.9580   22.4520  -28.0800 C   0  0  0  0  0  0  0  0  0  0  0  0
   -1.7380   23.0700  -26.8360 C   0  0  0  0  0  0  0  0  0  0  0  0
   -0.6200   23.8960  -26.7090 C   0  0  0  0  0  0  0  0  0  0  0  0
   -1.2373   26.3155  -22.9402 H   0  0  0  0  0  0  0  0  0  0  0  0
   -0.4294   26.8251  -24.4615 H   0  0  0  0  0  0  0  0  0  0  0  0
   -2.1842   26.4412  -24.4615 H   0  0  0  0  0  0  0  0  0  0  0  0
   -0.2352   24.3115  -23.5640 H   0  0  0  0  0  0  0  0  0  0  0  0
   -1.8295   24.1519  -24.3950 H   0  0  0  0  0  0  0  0  0  0  0  0
    2.3579   27.6270  -26.9215 H   0  0  0  0  0  0  0  0  0  0  0  0
    2.8337   27.1688  -22.3492 H   0  0  0  0  0  0  0  0  0  0  0  0
    1.4370   25.3230  -23.4060 H   0  0  0  0  0  0  0  0  0  0  0  0
    0.7299   23.7323  -29.8291 H   0  0  0  0  0  0  0  0  0  0  0  0
   -2.3421   20.3984  -32.3917 H   0  0  0  0  0  0  0  0  0  0  0  0
   -3.2964   20.0111  -30.8974 H   0  0  0  0  0  0  0  0  0  0  0  0
   -4.2087   21.4971  -33.3951 H   0  0  0  0  0  0  0  0  0  0  0  0
   -4.8727   19.9839  -32.6641 H   0  0  0  0  0  0  0  0  0  0  0  0
   -7.3588   23.5541  -31.2847 H   0  0  0  0  0  0  0  0  0  0  0  0
   -9.8073   23.1207  -31.4713 H   0  0  0  0  0  0  0  0  0  0  0  0
  -10.6358   20.8419  -32.0611 H   0  0  0  0  0  0  0  0  0  0  0  0
   -9.0134   18.9911  -32.4723 H   0  0  0  0  0  0  0  0  0  0  0  0
   -6.5641   19.4082  -32.2805 H   0  0  0  0  0  0  0  0  0  0  0  0
   -5.5015   23.8039  -31.1777 H   0  0  0  0  0  0  0  0  0  0  0  0
   -5.0134   22.7032  -29.8236 H   0  0  0  0  0  0  0  0  0  0  0  0
   -3.3196   23.6252  -32.1899 H   0  0  0  0  0  0  0  0  0  0  0  0
   -3.0606   23.9580  -30.4407 H   0  0  0  0  0  0  0  0  0  0  0  0
   -2.8304   21.7954  -28.2135 H   0  0  0  0  0  0  0  0  0  0  0  0
   -2.4239   22.9079  -25.9915 H   0  0  0  0  0  0  0  0  0  0  0  0
  1  2  1  0
  2  3  1  0
  3  4  1  0
  4  5  1  0
  5  6  2  0
  6  7  1  0
  7  8  1  0
  8  9  2  0
  4 10  2  0
 10 11  1  0
 11 12  2  0
 12 13  1  0
 13 14  1  0
 14 15  2  0
 14 16  1  0
 16 17  1  0
 17 18  1  0
 18 19  1  0
 19 20  1  0
 20 21  2  0
 21 22  1  0
 22 23  2  0
 23 24  1  0
 24 25  2  0
 19 26  1  0
 26 27  1  0
 13 28  2  0
 28 29  1  0
 29 30  2  0
 30  3  1  0
  9  5  1  0
 30 11  1  0
 27 16  1  0
 25 20  1  0
  1 31  1  0
  1 32  1  0
  1 33  1  0
  2 34  1  0
  2 35  1  0
  6 36  1  0
  8 37  1  0
  9 38  1  0
 12 39  1  0
 17 40  1  0
 17 41  1  0
 18 42  1  0
 18 43  1  0
 21 44  1  0
 22 45  1  0
 23 46  1  0
 24 47  1  0
 25 48  1  0
 26 49  1  0
 26 50  1  0
 27 51  1  0
 27 52  1  0
 28 53  1  0
 29 54  1  0
M  CHG  1   9   1
M  END
>  <UniqueID>  (21) 
19

>  <SMILES>  (21) 
CCn1c(-c2csc[nH+]2)nc2cc(C(=O)N3CCN(c4ccccc4)CC3)ccc21

>  <Energy>  (21) 
135.2805020457224

>  <Genealogy>  (21) 
CCn1c(-c2csc[nH+]2)nc2cc(C(=O)N3CCN(c4ccccc4)CC3)ccc21 (protonated)
CCn1c(-c2csc[nH+]2)nc2cc(C(=O)N3CCN(c4ccccc4)CC3)ccc21 (3D coordinates assigned)
CCn1c(-c2csc[nH+]2)nc2cc(C(=O)N3CCN(c4ccccc4)CC3)ccc21 (nonaromatic ring conformer: 135.2805020457224 kcal/mol)

>  <smiles>  (21) 
CCn1c(-c2cscn2)nc2cc(C(=O)N3CCN(c4ccccc4)CC3)ccc21

>  <score_type>  (21) 
oracle

>  <origin>  (21) 
adg

>  <m_score__min__energy>  (21) 
-8.8499999999999996

>  <m_primary>  (21) 
energy

$$$$
21:0
     RDKit          3D

 44 47  0  0  0  0  0  0  0  0999 V2000
   -1.2258   16.2702  -35.2195 H   0  0  0  0  0  0  0  0  0  0  0  0
   -1.7050   17.1280  -34.7250 C   0  0  0  0  0  0  0  0  0  0  0  0
   -1.0540   18.3190  -34.6490 N   0  0  0  0  0  0  0  0  0  0  0  0
   -1.6070   19.3980  -34.0340 C   0  0  0  0  0  0  0  0  0  0  0  0
   -1.0557   20.3490  -33.9935 H   0  0  0  0  0  0  0  0  0  0  0  0
   -2.8790   19.3010  -33.4510 C   0  0  0  0  0  0  0  0  0  0  0  0
   -3.4980   20.4560  -32.7790 C   0  0  0  0  0  0  0  0  0  0  0  0
   -2.8040   21.3050  -31.9930 N   0  0  0  0  0  0  0  0  0  0  0  0
   -3.6600   22.2390  -31.6120 N   0  0  0  0  0  0  0  0  0  0  0  0
   -3.4220   23.0500  -31.0000 H   0  0  0  0  0  0  0  0  0  0  0  0
   -4.8500   21.9700  -32.1720 C   0  0  0  0  0  0  0  0  0  0  0  0
   -6.2950   23.0160  -31.9770 S   0  0  0  0  0  0  0  0  0  0  0  0
   -5.7540   23.6580  -30.3590 C   0  0  0  0  0  0  0  0  0  0  0  0
   -5.1331   22.9018  -29.8563 H   0  0  0  0  0  0  0  0  0  0  0  0
   -6.6390   23.8822  -29.7455 H   0  0  0  0  0  0  0  0  0  0  0  0
   -4.9540   24.9130  -30.5460 C   0  0  0  0  0  0  0  0  0  0  0  0
   -5.5510   25.9660  -30.8890 O   0  0  0  0  0  0  0  0  0  0  0  0
   -3.5200   24.9310  -30.4630 N   0  0  0  0  0  0  0  0  0  0  0  0
   -2.7800   24.4590  -29.5030 C   0  0  0  0  0  0  0  0  0  0  0  0
   -2.8330   23.1620  -29.1330 N   0  0  0  0  0  0  0  0  0  0  0  0
   -1.9400   22.8820  -28.1460 C   0  0  0  0  0  0  0  0  0  0  0  0
   -1.8432   21.8783  -27.7065 H   0  0  0  0  0  0  0  0  0  0  0  0
   -1.1580   23.9550  -27.7320 C   0  0  0  0  0  0  0  0  0  0  0  0
   -0.3852   23.9284  -26.9497 H   0  0  0  0  0  0  0  0  0  0  0  0
   -1.6020   25.3000  -28.6380 S   0  0  0  0  0  0  0  0  0  0  0  0
   -4.7910   20.8440  -32.9130 N   0  0  0  0  0  0  0  0  0  0  0  0
   -5.8100   20.3210  -33.8290 C   0  0  0  0  0  0  0  0  0  0  0  0
   -6.2023   21.1447  -34.4435 H   0  0  0  0  0  0  0  0  0  0  0  0
   -5.3526   19.5548  -34.4721 H   0  0  0  0  0  0  0  0  0  0  0  0
   -6.9400   19.6980  -33.0550 C   0  0  0  0  0  0  0  0  0  0  0  0
   -8.0770   20.4510  -32.7160 C   0  0  0  0  0  0  0  0  0  0  0  0
   -8.1590   21.4972  -33.0457 H   0  0  0  0  0  0  0  0  0  0  0  0
   -9.1040   19.8770  -31.9620 C   0  0  0  0  0  0  0  0  0  0  0  0
   -9.9917   20.4714  -31.6999 H   0  0  0  0  0  0  0  0  0  0  0  0
   -9.0040   18.5490  -31.5410 C   0  0  0  0  0  0  0  0  0  0  0  0
   -9.8132   18.0978  -30.9480 H   0  0  0  0  0  0  0  0  0  0  0  0
   -7.8760   17.7930  -31.8730 C   0  0  0  0  0  0  0  0  0  0  0  0
   -7.7988   16.7470  -31.5415 H   0  0  0  0  0  0  0  0  0  0  0  0
   -6.8470   18.3640  -32.6250 C   0  0  0  0  0  0  0  0  0  0  0  0
   -5.9598   17.7665  -32.8817 H   0  0  0  0  0  0  0  0  0  0  0  0
   -3.5730   18.0870  -33.5440 C   0  0  0  0  0  0  0  0  0  0  0  0
   -4.5836   17.9967  -33.1191 H   0  0  0  0  0  0  0  0  0  0  0  0
   -2.9810   16.9930  -34.1760 C   0  0  0  0  0  0  0  0  0  0  0  0
   -3.5148   16.0334  -34.2409 H   0  0  0  0  0  0  0  0  0  0  0  0
  1  2  1  0
  2  3  2  0
  3  4  1  0
  4  5  1  0
  4  6  2  0
  6  7  1  0
  7  8  2  0
  8  9  1  0
  9 10  1  0
  9 11  2  0
 11 12  1  0
 12 13  1  0
 13 14  1  0
 13 15  1  0
 13 16  1  0
 16 17  2  0
 16 18  1  0
 18 19  2  0
 19 20  1  0
 20 21  1  0
 21 22  1  0
 21 23  2  0
 23 24  1  0
 23 25  1  0
 11 26  1  0
 26 27  1  0
 27 28  1  0
 27 29  1  0
 27 30  1  0
 30 31  2  0
 31 32  1  0
 31 33  1  0
 33 34  1  0
 33 35  2  0
 35 36  1  0
 35 37  1  0
 37 38  1  0
 37 39  2  0
 39 40  1  0
  6 41  1  0
 41 42  1  0
 41 43  2  0
 43 44  1  0
 43  2  1  0
 26  7  1  0
 39 30  1  0
 25 19  1  0
M  CHG  2   9   1  20  -1
M  END
>  <UniqueID>  (22) 
20

>  <SMILES>  (22) 
O=C(CSc1[nH+]nc(-c2cccnc2)n1Cc1ccccc1)/N=c1/[n-]ccs1

>  <Energy>  (22) 
118.95842887869351

>  <Genealogy>  (22) 
O=C(CSc1[nH+]nc(-c2cccnc2)n1Cc1ccccc1)N=c1[n-]ccs1 (protonated)
O=C(CSc1[nH+]nc(-c2cccnc2)n1Cc1ccccc1)/N=c1/[n-]ccs1 (cis-trans isomerization)
O=C(CSc1[nH+]nc(-c2cccnc2)n1Cc1ccccc1)/N=c1/[n-]ccs1 (3D coordinates assigned)
O=C(CSc1[nH+]nc(-c2cccnc2)n1Cc1ccccc1)/N=c1/[n-]ccs1 (optimized conformer: 118.95842887869351 kcal/mol)

>  <smiles>  (22) 
O=C(CSc1nnc(-c2cccnc2)n1Cc1ccccc1)N=c1[nH]ccs1

>  <score_type>  (22) 
oracle

>  <origin>  (22) 
adg

>  <m_score__min__energy>  (22) 
-9.9299999999999997

>  <m_primary>  (22) 
energy

$$$$
22:0
     RDKit          3D

 44 47  0  0  0  0  0  0  0  0999 V2000
    0.7710   21.0730  -33.5510 C   0  0  0  0  0  0  0  0  0  0  0  0
   -0.6880   20.8710  -33.2650 C   0  0  0  0  0  0  0  0  0  0  0  0
   -1.2960   21.5460  -32.1980 C   0  0  0  0  0  0  0  0  0  0  0  0
   -2.6620   21.3870  -31.9500 C   0  0  0  0  0  0  0  0  0  0  0  0
   -3.4450   20.5640  -32.7740 C   0  0  0  0  0  0  0  0  0  0  0  0
   -4.8900   20.3810  -32.5130 C   0  0  0  0  0  0  0  0  0  0  0  0
   -5.4790   19.1730  -32.3460 N   0  0  0  0  0  0  0  0  0  0  0  0
   -6.7870   19.4430  -32.1740 C   0  0  0  0  0  0  0  0  0  0  0  0
   -7.8030   18.5030  -32.0120 C   0  0  0  0  0  0  0  0  0  0  0  0
   -9.1210   18.9770  -31.9270 C   0  0  0  0  0  0  0  0  0  0  0  0
   -9.3890   20.3550  -32.0260 C   0  0  0  0  0  0  0  0  0  0  0  0
   -8.3260   21.2550  -32.1940 C   0  0  0  0  0  0  0  0  0  0  0  0
   -7.0600   20.7600  -32.2280 N   0  0  0  0  0  0  0  0  0  0  0  0
   -5.8700   21.3660  -32.4190 C   0  0  0  0  0  0  0  0  0  0  0  0
   -5.6910   22.7670  -32.6680 N   0  0  0  0  0  0  0  0  0  0  0  0
   -6.0640   23.7880  -31.6890 C   0  0  0  0  0  0  0  0  0  0  0  0
   -5.1170   23.7450  -30.5230 C   0  0  0  0  0  0  0  0  0  0  0  0
   -5.2710   22.7730  -29.5190 C   0  0  0  0  0  0  0  0  0  0  0  0
   -4.3500   22.6950  -28.4700 C   0  0  0  0  0  0  0  0  0  0  0  0
   -3.2680   23.5780  -28.4190 C   0  0  0  0  0  0  0  0  0  0  0  0
   -3.1040   24.5400  -29.4200 C   0  0  0  0  0  0  0  0  0  0  0  0
   -4.0230   24.6230  -30.4710 C   0  0  0  0  0  0  0  0  0  0  0  0
   -2.8340   19.8920  -33.8450 C   0  0  0  0  0  0  0  0  0  0  0  0
   -1.4690   20.0520  -34.0960 C   0  0  0  0  0  0  0  0  0  0  0  0
    1.3234   21.1495  -32.6028 H   0  0  0  0  0  0  0  0  0  0  0  0
    1.1528   20.2191  -34.1299 H   0  0  0  0  0  0  0  0  0  0  0  0
    0.9065   21.9985  -34.1299 H   0  0  0  0  0  0  0  0  0  0  0  0
   -0.6953   22.2039  -31.5528 H   0  0  0  0  0  0  0  0  0  0  0  0
   -3.1272   21.9111  -31.1021 H   0  0  0  0  0  0  0  0  0  0  0  0
   -5.0230   18.2320  -32.3580 H   0  0  0  0  0  0  0  0  0  0  0  0
   -7.5797   17.4275  -31.9529 H   0  0  0  0  0  0  0  0  0  0  0  0
   -9.9492   18.2677  -31.7822 H   0  0  0  0  0  0  0  0  0  0  0  0
  -10.4240   20.7236  -31.9721 H   0  0  0  0  0  0  0  0  0  0  0  0
   -8.5121   22.3344  -32.2957 H   0  0  0  0  0  0  0  0  0  0  0  0
   -5.0660   23.0520  -33.4550 H   0  0  0  0  0  0  0  0  0  0  0  0
   -6.0176   24.7806  -32.1608 H   0  0  0  0  0  0  0  0  0  0  0  0
   -7.0868   23.5941  -31.3336 H   0  0  0  0  0  0  0  0  0  0  0  0
   -6.1180   22.0723  -29.5589 H   0  0  0  0  0  0  0  0  0  0  0  0
   -4.4773   21.9370  -27.6831 H   0  0  0  0  0  0  0  0  0  0  0  0
   -2.5457   23.5161  -27.5916 H   0  0  0  0  0  0  0  0  0  0  0  0
   -2.2506   25.2329  -29.3809 H   0  0  0  0  0  0  0  0  0  0  0  0
   -3.8881   25.3784  -31.2591 H   0  0  0  0  0  0  0  0  0  0  0  0
   -3.4345   19.2348  -34.4911 H   0  0  0  0  0  0  0  0  0  0  0  0
   -1.0043   19.5343  -34.9481 H   0  0  0  0  0  0  0  0  0  0  0  0
  1  2  1  0
  2  3  2  0
  3  4  1  0
  4  5  2  0
  5  6  1  0
  6  7  1  0
  7  8  2  0
  8  9  1  0
  9 10  2  0
 10 11  1  0
 11 12  2  0
 12 13  1  0
 13 14  1  0
 14 15  1  0
 15 16  1  0
 16 17  1  0
 17 18  2  0
 18 19  1  0
 19 20  2  0
 20 21  1  0
 21 22  2  0
  5 23  1  0
 23 24  2  0
 24  2  1  0
 14  6  2  0
 22 17  1  0
 13  8  1  0
  1 25  1  0
  1 26  1  0
  1 27  1  0
  3 28  1  0
  4 29  1  0
  7 30  1  0
  9 31  1  0
 10 32  1  0
 11 33  1  0
 12 34  1  0
 15 35  1  0
 16 36  1  0
 16 37  1  0
 18 38  1  0
 19 39  1  0
 20 40  1  0
 21 41  1  0
 22 42  1  0
 23 43  1  0
 24 44  1  0
M  CHG  1   7   1
M  END
>  <UniqueID>  (23) 
21

>  <SMILES>  (23) 
Cc1ccc(-c2[nH+]c3ccccn3c2NCc2ccccc2)cc1

>  <Energy>  (23) 
89.91572323603921

>  <Genealogy>  (23) 
Cc1ccc(-c2[nH+]c3ccccn3c2NCc2ccccc2)cc1 (protonated)
Cc1ccc(-c2[nH+]c3ccccn3c2NCc2ccccc2)cc1 (3D coordinates assigned)
Cc1ccc(-c2[nH+]c3ccccn3c2NCc2ccccc2)cc1 (optimized conformer: 89.91572323603921 kcal/mol)

>  <smiles>  (23) 
Cc1ccc(-c2nc3ccccn3c2NCc2ccccc2)cc1

>  <score_type>  (23) 
oracle

>  <origin>  (23) 
adg

>  <m_score__min__energy>  (23) 
-7.7800000000000002

>  <m_primary>  (23) 
energy

$$$$
23:0
     RDKit          3D

 38 39  0  0  0  0  0  0  0  0999 V2000
   -1.2980   20.5170  -28.8590 H   0  0  0  0  0  0  0  0  0  0  0  0
   -1.8210   20.8620  -29.6560 O   0  0  0  0  0  0  0  0  0  0  0  0
   -2.4830   22.0860  -29.6170 C   0  0  0  0  0  0  0  0  0  0  0  0
   -1.7420   23.2680  -29.5070 C   0  0  0  0  0  0  0  0  0  0  0  0
   -0.6440   23.2243  -29.4566 H   0  0  0  0  0  0  0  0  0  0  0  0
   -2.3930   24.5040  -29.4610 C   0  0  0  0  0  0  0  0  0  0  0  0
   -1.6530   25.6750  -29.3460 O   0  0  0  0  0  0  0  0  0  0  0  0
   -3.7880   24.5640  -29.5290 C   0  0  0  0  0  0  0  0  0  0  0  0
   -4.2971   25.5383  -29.4892 H   0  0  0  0  0  0  0  0  0  0  0  0
   -4.5420   23.3850  -29.6480 C   0  0  0  0  0  0  0  0  0  0  0  0
   -6.0460   23.4420  -29.6840 C   0  0  0  0  0  0  0  0  0  0  0  0
   -6.4119   23.9055  -28.7559 H   0  0  0  0  0  0  0  0  0  0  0  0
   -6.4362   22.4180  -29.7793 H   0  0  0  0  0  0  0  0  0  0  0  0
   -6.5190   24.2490  -30.8570 C   0  0  0  0  0  0  0  0  0  0  0  0
   -6.7287   25.3207  -30.7245 H   0  0  0  0  0  0  0  0  0  0  0  0
   -6.6910   23.6910  -32.0620 C   0  0  0  0  0  0  0  0  0  0  0  0
   -6.6112   24.3343  -32.9507 H   0  0  0  0  0  0  0  0  0  0  0  0
   -6.9840   22.2480  -32.2610 C   0  0  0  0  0  0  0  0  0  0  0  0
   -8.2590   21.7180  -31.9880 C   0  0  0  0  0  0  0  0  0  0  0  0
   -9.0605   22.3823  -31.6326 H   0  0  0  0  0  0  0  0  0  0  0  0
   -8.5160   20.3570  -32.1640 C   0  0  0  0  0  0  0  0  0  0  0  0
   -9.5198   19.9600  -31.9523 H   0  0  0  0  0  0  0  0  0  0  0  0
   -7.5110   19.4960  -32.6060 C   0  0  0  0  0  0  0  0  0  0  0  0
   -7.8230   18.1370  -32.7650 O   0  0  0  0  0  0  0  0  0  0  0  0
   -6.8810   17.1280  -33.1090 C   0  0  0  0  0  0  0  0  0  0  0  0
   -6.4671   16.6846  -32.1914 H   0  0  0  0  0  0  0  0  0  0  0  0
   -7.3803   16.3467  -33.7008 H   0  0  0  0  0  0  0  0  0  0  0  0
   -6.0673   17.5725  -33.7008 H   0  0  0  0  0  0  0  0  0  0  0  0
   -6.2290   20.0120  -32.8690 C   0  0  0  0  0  0  0  0  0  0  0  0
   -5.4307   19.3379  -33.2130 H   0  0  0  0  0  0  0  0  0  0  0  0
   -5.9570   21.3850  -32.6960 C   0  0  0  0  0  0  0  0  0  0  0  0
   -4.6840   21.9220  -32.9590 O   0  0  0  0  0  0  0  0  0  0  0  0
   -3.4920   21.1570  -33.0950 C   0  0  0  0  0  0  0  0  0  0  0  0
   -3.1014   20.9063  -32.0977 H   0  0  0  0  0  0  0  0  0  0  0  0
   -3.7116   20.2308  -33.6462 H   0  0  0  0  0  0  0  0  0  0  0  0
   -2.7414   21.7425  -33.6462 H   0  0  0  0  0  0  0  0  0  0  0  0
   -3.8820   22.1450  -29.6830 C   0  0  0  0  0  0  0  0  0  0  0  0
   -4.4659   21.2162  -29.7626 H   0  0  0  0  0  0  0  0  0  0  0  0
  1  2  1  0
  2  3  1  0
  3  4  2  0
  4  5  1  0
  4  6  1  0
  6  7  1  0
  6  8  2  0
  8  9  1  0
  8 10  1  0
 10 11  1  0
 11 12  1  0
 11 13  1  0
 11 14  1  0
 14 15  1  0
 14 16  2  0
 16 17  1  0
 16 18  1  0
 18 19  2  0
 19 20  1  0
 19 21  1  0
 21 22  1  0
 21 23  2  0
 23 24  1  0
 24 25  1  0
 25 26  1  0
 25 27  1  0
 25 28  1  0
 23 29  1  0
 29 30  1  0
 29 31  2  0
 31 32  1  0
 32 33  1  0
 33 34  1  0
 33 35  1  0
 33 36  1  0
 10 37  2  0
 37 38  1  0
 37  3  1  0
 31 18  1  0
M  CHG  1   7  -1
M  END
>  <UniqueID>  (24) 
22

>  <SMILES>  (24) 
COc1ccc(/C=C/Cc2cc([O-])cc(O)c2)c(OC)c1

>  <Energy>  (24) 
37.26310609253445

>  <Genealogy>  (24) 
COc1ccc(C=CCc2cc([O-])cc(O)c2)c(OC)c1 (protonated)
COc1ccc(/C=C/Cc2cc([O-])cc(O)c2)c(OC)c1 (cis-trans isomerization)
COc1ccc(/C=C/Cc2cc([O-])cc(O)c2)c(OC)c1 (3D coordinates assigned)
COc1ccc(/C=C/Cc2cc([O-])cc(O)c2)c(OC)c1 (optimized conformer: 37.26310609253445 kcal/mol)

>  <smiles>  (24) 
COc1ccc(C=CCc2cc(O)cc(O)c2)c(OC)c1

>  <score_type>  (24) 
oracle

>  <origin>  (24) 
adg

>  <m_score__min__energy>  (24) 
-9.1500000000000004

>  <m_primary>  (24) 
energy

$$$$
24:0
     RDKit          3D

 58 60  0  0  0  0  0  0  0  0999 V2000
   -3.4880   18.9350  -26.3630 C   0  0  0  0  0  0  0  0  0  0  0  0
   -2.1630   19.6960  -26.4990 C   0  0  0  0  0  0  0  0  0  0  0  0
   -2.2730   20.8580  -27.4280 N   0  0  0  0  0  0  0  0  0  0  0  0
   -1.0890   21.7520  -27.3380 C   0  0  0  0  0  0  0  0  0  0  0  0
   -0.8150   22.2900  -25.9240 C   0  0  0  0  0  0  0  0  0  0  0  0
   -2.5300   20.4520  -28.8340 C   0  0  0  0  0  0  0  0  0  0  0  0
   -3.4300   21.4600  -29.5840 C   0  0  0  0  0  0  0  0  0  0  0  0
   -3.8220   22.5970  -28.7320 N   0  0  0  0  0  0  0  0  0  0  0  0
   -3.2120   23.8630  -29.1700 C   0  0  0  0  0  0  0  0  0  0  0  0
   -4.2980   24.8140  -29.7020 C   0  0  0  0  0  0  0  0  0  0  0  0
   -4.4720   24.7330  -31.1620 N   0  0  0  0  0  0  0  0  0  0  0  0
   -5.8180   24.3180  -31.5990 C   0  0  0  0  0  0  0  0  0  0  0  0
   -5.8690   22.8640  -32.0380 C   0  0  0  0  0  0  0  0  0  0  0  0
   -4.6790   22.2720  -32.4750 C   0  0  0  0  0  0  0  0  0  0  0  0
   -4.6510   20.9610  -32.9500 C   0  0  0  0  0  0  0  0  0  0  0  0
   -3.4280   20.4130  -33.3720 C   0  0  0  0  0  0  0  0  0  0  0  0
   -3.3730   19.1210  -33.8860 C   0  0  0  0  0  0  0  0  0  0  0  0
   -4.5330   18.3580  -33.9740 C   0  0  0  0  0  0  0  0  0  0  0  0
   -5.7560   18.8790  -33.5420 C   0  0  0  0  0  0  0  0  0  0  0  0
   -5.8440   20.1920  -33.0130 C   0  0  0  0  0  0  0  0  0  0  0  0
   -7.0660   20.7670  -32.5460 C   0  0  0  0  0  0  0  0  0  0  0  0
   -8.2900   20.0500  -32.5490 C   0  0  0  0  0  0  0  0  0  0  0  0
   -9.4670   20.6330  -32.0840 C   0  0  0  0  0  0  0  0  0  0  0  0
   -9.4630   21.9350  -31.6020 C   0  0  0  0  0  0  0  0  0  0  0  0
   -8.2800   22.6680  -31.5820 C   0  0  0  0  0  0  0  0  0  0  0  0
   -7.0700   22.1090  -32.0510 C   0  0  0  0  0  0  0  0  0  0  0  0
   -3.7250   18.7989  -25.2975 H   0  0  0  0  0  0  0  0  0  0  0  0
   -4.2919   19.5090  -26.8470 H   0  0  0  0  0  0  0  0  0  0  0  0
   -3.3973   17.9514  -26.8470 H   0  0  0  0  0  0  0  0  0  0  0  0
   -1.8619   20.0631  -25.5067 H   0  0  0  0  0  0  0  0  0  0  0  0
   -1.4163   19.0024  -26.9129 H   0  0  0  0  0  0  0  0  0  0  0  0
   -3.0790   21.4580  -27.1330 H   0  0  0  0  0  0  0  0  0  0  0  0
   -0.2047   21.1887  -27.6707 H   0  0  0  0  0  0  0  0  0  0  0  0
   -1.3009   22.6242  -27.9738 H   0  0  0  0  0  0  0  0  0  0  0  0
   -1.1825   21.5684  -25.1795 H   0  0  0  0  0  0  0  0  0  0  0  0
    0.2671   22.4357  -25.7904 H   0  0  0  0  0  0  0  0  0  0  0  0
   -1.3336   23.2509  -25.7904 H   0  0  0  0  0  0  0  0  0  0  0  0
   -1.5676   20.3774  -29.3615 H   0  0  0  0  0  0  0  0  0  0  0  0
   -3.0547   19.4854  -28.8131 H   0  0  0  0  0  0  0  0  0  0  0  0
   -2.8813   21.8438  -30.4567 H   0  0  0  0  0  0  0  0  0  0  0  0
   -4.3468   20.9335  -29.8876 H   0  0  0  0  0  0  0  0  0  0  0  0
   -4.8640   22.6990  -28.7380 H   0  0  0  0  0  0  0  0  0  0  0  0
   -2.7002   24.3347  -28.3182 H   0  0  0  0  0  0  0  0  0  0  0  0
   -2.4883   23.6566  -29.9723 H   0  0  0  0  0  0  0  0  0  0  0  0
   -5.2536   24.5583  -29.2208 H   0  0  0  0  0  0  0  0  0  0  0  0
   -3.9797   25.8401  -29.4660 H   0  0  0  0  0  0  0  0  0  0  0  0
   -4.2620   25.6690  -31.5820 H   0  0  0  0  0  0  0  0  0  0  0  0
   -6.5185   24.4579  -30.7625 H   0  0  0  0  0  0  0  0  0  0  0  0
   -6.0917   24.9370  -32.4662 H   0  0  0  0  0  0  0  0  0  0  0  0
   -3.7455   22.8530  -32.4433 H   0  0  0  0  0  0  0  0  0  0  0  0
   -2.5071   21.0097  -33.2955 H   0  0  0  0  0  0  0  0  0  0  0  0
   -2.4127   18.7032  -34.2226 H   0  0  0  0  0  0  0  0  0  0  0  0
   -4.4875   17.3390  -34.3858 H   0  0  0  0  0  0  0  0  0  0  0  0
   -6.6636   18.2616  -33.6134 H   0  0  0  0  0  0  0  0  0  0  0  0
   -8.3103   19.0164  -32.9247 H   0  0  0  0  0  0  0  0  0  0  0  0
  -10.4048   20.0583  -32.0989 H   0  0  0  0  0  0  0  0  0  0  0  0
  -10.3960   22.3879  -31.2354 H   0  0  0  0  0  0  0  0  0  0  0  0
   -8.2871   23.6978  -31.1953 H   0  0  0  0  0  0  0  0  0  0  0  0
  1  2  1  0
  2  3  1  0
  3  4  1  0
  4  5  1  0
  3  6  1  0
  6  7  1  0
  7  8  1  0
  8  9  1  0
  9 10  1  0
 10 11  1  0
 11 12  1  0
 12 13  1  0
 13 14  2  0
 14 15  1  0
 15 16  2  0
 16 17  1  0
 17 18  2  0
 18 19  1  0
 19 20  2  0
 20 21  1  0
 21 22  2  0
 22 23  1  0
 23 24  2  0
 24 25  1  0
 25 26  2  0
 26 13  1  0
 20 15  1  0
 26 21  1  0
  1 27  1  0
  1 28  1  0
  1 29  1  0
  2 30  1  0
  2 31  1  0
  3 32  1  0
  4 33  1  0
  4 34  1  0
  5 35  1  0
  5 36  1  0
  5 37  1  0
  6 38  1  0
  6 39  1  0
  7 40  1  0
  7 41  1  0
  8 42  1  0
  9 43  1  0
  9 44  1  0
 10 45  1  0
 10 46  1  0
 11 47  1  0
 12 48  1  0
 12 49  1  0
 14 50  1  0
 16 51  1  0
 17 52  1  0
 18 53  1  0
 19 54  1  0
 22 55  1  0
 23 56  1  0
 24 57  1  0
 25 58  1  0
M  CHG  1   3   1
M  END
>  <UniqueID>  (25) 
23

>  <SMILES>  (25) 
CC[NH+](CC)CCNCCNCc1cc2ccccc2c2ccccc12

>  <Energy>  (25) 
74.39199640550335

>  <Genealogy>  (25) 
CC[NH+](CC)CCNCCNCc1cc2ccccc2c2ccccc12 (protonated)
CC[NH+](CC)CCNCCNCc1cc2ccccc2c2ccccc12 (3D coordinates assigned)
CC[NH+](CC)CCNCCNCc1cc2ccccc2c2ccccc12 (optimized conformer: 74.39199640550335 kcal/mol)

>  <smiles>  (25) 
CCN(CC)CCNCCNCc1cc2ccccc2c2ccccc12

>  <score_type>  (25) 
oracle

>  <origin>  (25) 
adg

>  <m_score__min__energy>  (25) 
-8.9900000000000002

>  <m_primary>  (25) 
energy

$$$$
25:0
     RDKit          3D

 47 50  0  0  0  0  0  0  0  0999 V2000
   -5.6350   20.2190  -31.2060 O   0  0  0  0  0  0  0  0  0  0  0  0
   -6.1990   21.2630  -31.6350 C   0  0  0  0  0  0  0  0  0  0  0  0
   -5.9960   22.5320  -30.9110 C   0  0  0  0  0  0  0  0  0  0  0  0
   -4.8300   22.7790  -30.1700 C   0  0  0  0  0  0  0  0  0  0  0  0
   -4.6690   23.9930  -29.4770 C   0  0  0  0  0  0  0  0  0  0  0  0
   -3.4310   24.2580  -28.7020 C   0  0  0  0  0  0  0  0  0  0  0  0
   -3.4950   24.5410  -27.3240 C   0  0  0  0  0  0  0  0  0  0  0  0
   -2.3280   24.7920  -26.5970 C   0  0  0  0  0  0  0  0  0  0  0  0
   -1.0850   24.7640  -27.2340 C   0  0  0  0  0  0  0  0  0  0  0  0
   -1.0070   24.4840  -28.6000 C   0  0  0  0  0  0  0  0  0  0  0  0
   -2.1720   24.2340  -29.3330 C   0  0  0  0  0  0  0  0  0  0  0  0
   -5.6980   24.9510  -29.5320 C   0  0  0  0  0  0  0  0  0  0  0  0
   -6.8660   24.6990  -30.2560 C   0  0  0  0  0  0  0  0  0  0  0  0
   -7.0300   23.4850  -30.9370 C   0  0  0  0  0  0  0  0  0  0  0  0
   -8.2980   23.2240  -31.7160 C   0  0  0  0  0  0  0  0  0  0  0  0
   -8.4400   21.7410  -32.1230 C   0  0  0  0  0  0  0  0  0  0  0  0
   -7.1740   21.2330  -32.7190 N   0  0  2  0  0  0  0  0  0  0  0  0
   -7.3450   19.9080  -33.4080 C   0  0  0  0  0  0  0  0  0  0  0  0
   -6.0640   19.5060  -34.2220 C   0  0  0  0  0  0  0  0  0  0  0  0
   -5.0790   18.6720  -33.3920 C   0  0  0  0  0  0  0  0  0  0  0  0
   -5.6920   17.3280  -32.9640 C   0  0  0  0  0  0  0  0  0  0  0  0
   -7.2240   17.3740  -32.8670 C   0  0  0  0  0  0  0  0  0  0  0  0
   -7.7170   18.7530  -32.4120 C   0  0  0  0  0  0  0  0  0  0  0  0
   -4.0364   22.0183  -30.1307 H   0  0  0  0  0  0  0  0  0  0  0  0
   -4.4705   24.5647  -26.8161 H   0  0  0  0  0  0  0  0  0  0  0  0
   -2.3884   25.0121  -25.5209 H   0  0  0  0  0  0  0  0  0  0  0  0
   -0.1680   24.9624  -26.6598 H   0  0  0  0  0  0  0  0  0  0  0  0
   -0.0277   24.4600  -29.1005 H   0  0  0  0  0  0  0  0  0  0  0  0
   -2.1043   24.0172  -30.4093 H   0  0  0  0  0  0  0  0  0  0  0  0
   -5.5818   25.9069  -29.0002 H   0  0  0  0  0  0  0  0  0  0  0  0
   -7.6616   25.4578  -30.2918 H   0  0  0  0  0  0  0  0  0  0  0  0
   -9.1602   23.5041  -31.0929 H   0  0  0  0  0  0  0  0  0  0  0  0
   -8.2569   23.8237  -32.6372 H   0  0  0  0  0  0  0  0  0  0  0  0
   -8.6840   21.1442  -31.2318 H   0  0  0  0  0  0  0  0  0  0  0  0
   -9.2413   21.6560  -32.8718 H   0  0  0  0  0  0  0  0  0  0  0  0
   -6.8470   21.9190  -33.4410 H   0  0  0  0  0  0  0  0  0  0  0  0
   -8.1855   20.0419  -34.1049 H   0  0  0  0  0  0  0  0  0  0  0  0
   -6.3731   18.9178  -35.0986 H   0  0  0  0  0  0  0  0  0  0  0  0
   -5.5510   20.4330  -34.5178 H   0  0  0  0  0  0  0  0  0  0  0  0
   -4.1798   18.4778  -33.9951 H   0  0  0  0  0  0  0  0  0  0  0  0
   -4.8292   19.2399  -32.4836 H   0  0  0  0  0  0  0  0  0  0  0  0
   -5.4098   16.5626  -33.7019 H   0  0  0  0  0  0  0  0  0  0  0  0
   -5.3046   17.0927  -31.9617 H   0  0  0  0  0  0  0  0  0  0  0  0
   -7.6517   17.1497  -33.8553 H   0  0  0  0  0  0  0  0  0  0  0  0
   -7.5453   16.6299  -32.1233 H   0  0  0  0  0  0  0  0  0  0  0  0
   -8.8120   18.7168  -32.3134 H   0  0  0  0  0  0  0  0  0  0  0  0
   -7.2206   18.9761  -31.4561 H   0  0  0  0  0  0  0  0  0  0  0  0
  1  2  2  0
  2  3  1  0
  3  4  2  0
  4  5  1  0
  5  6  1  0
  6  7  2  0
  7  8  1  0
  8  9  2  0
  9 10  1  0
 10 11  2  0
  5 12  2  0
 12 13  1  0
 13 14  2  0
 14 15  1  0
 15 16  1  0
 16 17  1  0
 17 18  1  0
 18 19  1  0
 19 20  1  0
 20 21  1  0
 21 22  1  0
 22 23  1  0
 17  2  1  0
 23 18  1  0
 14  3  1  0
 11  6  1  0
  4 24  1  0
  7 25  1  0
  8 26  1  0
  9 27  1  0
 10 28  1  0
 11 29  1  0
 12 30  1  0
 13 31  1  0
 15 32  1  0
 15 33  1  0
 16 34  1  0
 16 35  1  0
 17 36  1  6
 18 37  1  0
 19 38  1  0
 19 39  1  0
 20 40  1  0
 20 41  1  0
 21 42  1  0
 21 43  1  0
 22 44  1  0
 22 45  1  0
 23 46  1  0
 23 47  1  0
M  CHG  1  17   1
M  END
>  <UniqueID>  (26) 
24

>  <SMILES>  (26) 
O=C1c2cc(-c3ccccc3)ccc2CC[N@@H+]1C1CCCCC1

>  <Energy>  (26) 
76.90004553236749

>  <Genealogy>  (26) 
O=C1c2cc(-c3ccccc3)ccc2CC[NH+]1C1CCCCC1 (protonated)
O=C1c2cc(-c3ccccc3)ccc2CC[N@@H+]1C1CCCCC1 (chirality)
O=C1c2cc(-c3ccccc3)ccc2CC[N@@H+]1C1CCCCC1 (3D coordinates assigned)
O=C1c2cc(-c3ccccc3)ccc2CC[N@@H+]1C1CCCCC1 (nonaromatic ring conformer: 76.90004553236749 kcal/mol)

>  <smiles>  (26) 
O=C1c2cc(-c3ccccc3)ccc2CCN1C1CCCCC1

>  <score_type>  (26) 
oracle

>  <origin>  (26) 
adg

>  <m_score__min__energy>  (26) 
-8.6300000000000008

>  <m_primary>  (26) 
energy

$$$$
26:0
     RDKit          3D

 44 45  0  0  0  0  0  0  0  0999 V2000
   -5.3696   23.9752  -32.7574 H   0  0  0  0  0  0  0  0  0  0  0  0
   -5.4730   23.0680  -32.1440 C   0  0  0  0  0  0  0  0  0  0  0  0
   -4.3750   22.5980  -31.5310 C   0  0  0  0  0  0  0  0  0  0  0  0
   -3.7400   20.9170  -31.6990 S   0  0  0  0  0  0  0  0  0  0  0  0
   -2.3330   21.4120  -30.7000 C   0  0  0  0  0  0  0  0  0  0  0  0
   -1.4260   20.5990  -30.3810 O   0  0  0  0  0  0  0  0  0  0  0  0
   -2.3140   22.7750  -30.2820 N   0  0  0  0  0  0  0  0  0  0  0  0
   -1.2990   23.3760  -29.4160 C   0  0  0  0  0  0  0  0  0  0  0  0
   -1.4006   24.4709  -29.4437 H   0  0  0  0  0  0  0  0  0  0  0  0
   -0.3021   23.0808  -29.7751 H   0  0  0  0  0  0  0  0  0  0  0  0
   -1.4700   22.8990  -28.0050 C   0  0  0  0  0  0  0  0  0  0  0  0
   -1.8320   23.7140  -27.1130 O   0  0  0  0  0  0  0  0  0  0  0  0
   -1.2190   21.5280  -27.6730 N   0  0  0  0  0  0  0  0  0  0  0  0
   -0.8600   20.8930  -28.4210 H   0  0  0  0  0  0  0  0  0  0  0  0
   -1.4530   21.0050  -26.3260 C   0  0  0  0  0  0  0  0  0  0  0  0
   -2.0400   21.7389  -25.7542 H   0  0  0  0  0  0  0  0  0  0  0  0
   -0.4776   20.8282  -25.8493 H   0  0  0  0  0  0  0  0  0  0  0  0
   -2.2190   19.6750  -26.3660 C   0  0  0  0  0  0  0  0  0  0  0  0
   -3.1756   19.8343  -26.8853 H   0  0  0  0  0  0  0  0  0  0  0  0
   -2.3725   19.3462  -25.3276 H   0  0  0  0  0  0  0  0  0  0  0  0
   -1.4420   18.5720  -27.0940 C   0  0  0  0  0  0  0  0  0  0  0  0
   -2.0107   18.2501  -27.9789 H   0  0  0  0  0  0  0  0  0  0  0  0
   -1.2991   17.7221  -26.4105 H   0  0  0  0  0  0  0  0  0  0  0  0
   -0.1790   19.0540  -27.5010 O   0  0  0  0  0  0  0  0  0  0  0  0
    0.2570   18.3880  -28.6710 C   0  0  0  0  0  0  0  0  0  0  0  0
   -0.6110   18.1678  -29.3098 H   0  0  0  0  0  0  0  0  0  0  0  0
    0.7586   17.4509  -28.3878 H   0  0  0  0  0  0  0  0  0  0  0  0
    1.2360   19.2680  -29.4360 C   0  0  0  0  0  0  0  0  0  0  0  0
    1.8593   19.8283  -28.7236 H   0  0  0  0  0  0  0  0  0  0  0  0
    1.8784   18.6378  -30.0686 H   0  0  0  0  0  0  0  0  0  0  0  0
    0.6776   19.9737  -30.0686 H   0  0  0  0  0  0  0  0  0  0  0  0
   -3.4790   23.4440  -30.7420 C   0  0  0  0  0  0  0  0  0  0  0  0
   -3.7090   24.6570  -30.4840 O   0  0  0  0  0  0  0  0  0  0  0  0
   -6.8120   22.4480  -32.0500 C   0  0  0  0  0  0  0  0  0  0  0  0
   -7.9840   23.2230  -31.9830 C   0  0  0  0  0  0  0  0  0  0  0  0
   -7.9141   24.3207  -31.9691 H   0  0  0  0  0  0  0  0  0  0  0  0
   -9.2360   22.6060  -31.9340 C   0  0  0  0  0  0  0  0  0  0  0  0
  -10.1475   23.2183  -31.8685 H   0  0  0  0  0  0  0  0  0  0  0  0
   -9.3330   21.2130  -31.9680 C   0  0  0  0  0  0  0  0  0  0  0  0
  -10.3197   20.7290  -31.9208 H   0  0  0  0  0  0  0  0  0  0  0  0
   -8.1760   20.4340  -32.0620 C   0  0  0  0  0  0  0  0  0  0  0  0
   -8.3090   18.5300  -32.1280 Br  0  0  0  0  0  0  0  0  0  0  0  0
   -6.9200   21.0500  -32.1130 C   0  0  0  0  0  0  0  0  0  0  0  0
   -6.0125   20.4349  -32.2030 H   0  0  0  0  0  0  0  0  0  0  0  0
  1  2  1  0
  2  3  2  0
  3  4  1  0
  4  5  1  0
  5  6  2  0
  5  7  1  0
  7  8  1  0
  8  9  1  0
  8 10  1  0
  8 11  1  0
 11 12  2  0
 11 13  1  0
 13 14  1  0
 13 15  1  0
 15 16  1  0
 15 17  1  0
 15 18  1  0
 18 19  1  0
 18 20  1  0
 18 21  1  0
 21 22  1  0
 21 23  1  0
 21 24  1  0
 24 25  1  0
 25 26  1  0
 25 27  1  0
 25 28  1  0
 28 29  1  0
 28 30  1  0
 28 31  1  0
  7 32  1  0
 32 33  2  0
  2 34  1  0
 34 35  2  0
 35 36  1  0
 35 37  1  0
 37 38  1  0
 37 39  2  0
 39 40  1  0
 39 41  1  0
 41 42  1  0
 41 43  2  0
 43 44  1  0
 32  3  1  0
 43 34  1  0
M  END
>  <UniqueID>  (27) 
25

>  <SMILES>  (27) 
CCOCCCNC(=O)CN1C(=O)S/C(=C\c2cccc(Br)c2)C1=O

>  <Energy>  (27) 
57.421439756093136

>  <Genealogy>  (27) 
CCOCCCNC(=O)CN1C(=O)S/C(=C\c2cccc(Br)c2)C1=O (cis-trans isomerization)
CCOCCCNC(=O)CN1C(=O)S/C(=C\c2cccc(Br)c2)C1=O (3D coordinates assigned)
CCOCCCNC(=O)CN1C(=O)S/C(=C\c2cccc(Br)c2)C1=O (nonaromatic ring conformer: 57.421439756093136 kcal/mol)

>  <smiles>  (27) 
CCOCCCNC(=O)CN1C(=O)SC(=Cc2cccc(Br)c2)C1=O

>  <score_type>  (27) 
oracle

>  <origin>  (27) 
adg

>  <m_score__min__energy>  (27) 
-8.8000000000000007

>  <m_primary>  (27) 
energy

$$$$
27:0
     RDKit          3D

 49 52  0  0  0  0  0  0  0  0999 V2000
   -9.1160   22.4730  -31.5980 C   0  0  0  0  0  0  0  0  0  0  0  0
   -7.9250   21.6790  -32.0670 C   0  0  0  0  0  0  0  0  0  0  0  0
   -8.1120   20.3610  -32.3830 N   0  0  0  0  0  0  0  0  0  0  0  0
   -7.0610   19.6220  -32.8030 C   0  0  0  0  0  0  0  0  0  0  0  0
   -7.0560   18.3020  -33.1890 C   0  0  0  0  0  0  0  0  0  0  0  0
   -5.7210   18.0780  -33.5300 C   0  0  0  0  0  0  0  0  0  0  0  0
   -5.1350   16.8070  -34.0250 C   0  0  0  0  0  0  0  0  0  0  0  0
   -5.7280   15.5790  -33.6770 C   0  0  0  0  0  0  0  0  0  0  0  0
   -5.1870   14.3750  -34.1360 C   0  0  0  0  0  0  0  0  0  0  0  0
   -4.0480   14.3810  -34.9450 C   0  0  0  0  0  0  0  0  0  0  0  0
   -3.5250   13.2110  -35.3890 F   0  0  0  0  0  0  0  0  0  0  0  0
   -3.4500   15.5920  -35.2970 C   0  0  0  0  0  0  0  0  0  0  0  0
   -3.9870   16.8000  -34.8410 C   0  0  0  0  0  0  0  0  0  0  0  0
   -5.0000   19.2110  -33.3470 N   0  0  0  0  0  0  0  0  0  0  0  0
   -5.8350   20.1350  -32.9030 N   0  0  0  0  0  0  0  0  0  0  0  0
   -5.5430   21.4270  -32.5940 C   0  0  0  0  0  0  0  0  0  0  0  0
   -4.1290   21.9240  -32.7750 C   0  0  0  0  0  0  0  0  0  0  0  0
   -6.6200   22.2670  -32.1790 C   0  0  0  0  0  0  0  0  0  0  0  0
   -6.4100   23.7600  -31.9370 C   0  0  0  0  0  0  0  0  0  0  0  0
   -5.9340   24.0680  -30.5060 C   0  0  0  0  0  0  0  0  0  0  0  0
   -5.0840   25.3010  -30.4540 C   0  0  0  0  0  0  0  0  0  0  0  0
   -5.6300   26.4360  -30.4680 O   0  0  0  0  0  0  0  0  0  0  0  0
   -3.6580   25.1670  -30.5020 N   0  0  0  0  0  0  0  0  0  0  0  0
   -2.8420   24.3150  -29.6880 C   0  0  0  0  0  0  0  0  0  0  0  0
   -2.0060   24.9000  -28.7300 C   0  0  0  0  0  0  0  0  0  0  0  0
   -1.1910   24.0980  -27.9290 C   0  0  0  0  0  0  0  0  0  0  0  0
   -1.2060   22.7140  -28.1080 C   0  0  0  0  0  0  0  0  0  0  0  0
   -2.0020   22.1610  -29.0610 N   0  0  0  0  0  0  0  0  0  0  0  0
   -2.8090   22.9190  -29.8490 C   0  0  0  0  0  0  0  0  0  0  0  0
   -9.1372   22.4872  -30.4983 H   0  0  0  0  0  0  0  0  0  0  0  0
   -9.0421   23.5031  -31.9766 H   0  0  0  0  0  0  0  0  0  0  0  0
  -10.0385   22.0085  -31.9766 H   0  0  0  0  0  0  0  0  0  0  0  0
   -9.0550   19.9170  -32.3150 H   0  0  0  0  0  0  0  0  0  0  0  0
   -7.8983   17.5953  -33.2212 H   0  0  0  0  0  0  0  0  0  0  0  0
   -6.6240   15.5668  -33.0390 H   0  0  0  0  0  0  0  0  0  0  0  0
   -5.6590   13.4206  -33.8597 H   0  0  0  0  0  0  0  0  0  0  0  0
   -2.5538   15.5962  -35.9349 H   0  0  0  0  0  0  0  0  0  0  0  0
   -3.5099   17.7507  -35.1213 H   0  0  0  0  0  0  0  0  0  0  0  0
   -3.6683   22.0859  -31.7894 H   0  0  0  0  0  0  0  0  0  0  0  0
   -3.5464   21.1768  -33.3338 H   0  0  0  0  0  0  0  0  0  0  0  0
   -4.1420   22.8714  -33.3338 H   0  0  0  0  0  0  0  0  0  0  0  0
   -5.6544   24.1287  -32.6463 H   0  0  0  0  0  0  0  0  0  0  0  0
   -7.3796   24.2596  -32.0797 H   0  0  0  0  0  0  0  0  0  0  0  0
   -6.8138   24.2150  -29.8623 H   0  0  0  0  0  0  0  0  0  0  0  0
   -5.3262   23.2196  -30.1585 H   0  0  0  0  0  0  0  0  0  0  0  0
   -1.9911   25.9931  -28.6080 H   0  0  0  0  0  0  0  0  0  0  0  0
   -0.5436   24.5523  -27.1645 H   0  0  0  0  0  0  0  0  0  0  0  0
   -0.5739   22.0709  -27.4781 H   0  0  0  0  0  0  0  0  0  0  0  0
   -3.4373   22.4394  -30.6140 H   0  0  0  0  0  0  0  0  0  0  0  0
  1  2  1  0
  2  3  2  0
  3  4  1  0
  4  5  2  0
  5  6  1  0
  6  7  1  0
  7  8  2  0
  8  9  1  0
  9 10  2  0
 10 11  1  0
 10 12  1  0
 12 13  2  0
  6 14  2  0
 14 15  1  0
 15 16  1  0
 16 17  1  0
 16 18  2  0
 18 19  1  0
 19 20  1  0
 20 21  1  0
 21 22  2  0
 21 23  1  0
 23 24  1  0
 24 25  2  0
 25 26  1  0
 26 27  2  0
 27 28  1  0
 28 29  2  0
 18  2  1  0
 29 24  1  0
 15  4  1  0
 13  7  1  0
  1 30  1  0
  1 31  1  0
  1 32  1  0
  3 33  1  0
  5 34  1  0
  8 35  1  0
  9 36  1  0
 12 37  1  0
 13 38  1  0
 17 39  1  0
 17 40  1  0
 17 41  1  0
 19 42  1  0
 19 43  1  0
 20 44  1  0
 20 45  1  0
 25 46  1  0
 26 47  1  0
 27 48  1  0
 29 49  1  0
M  CHG  2   3   1  23  -1
M  END
>  <UniqueID>  (28) 
26

>  <SMILES>  (28) 
Cc1[nH+]c2cc(-c3ccc(F)cc3)nn2c(C)c1CCC(=O)[N-]c1cccnc1

>  <Energy>  (28) 
93.87393778187966

>  <Genealogy>  (28) 
Cc1[nH+]c2cc(-c3ccc(F)cc3)nn2c(C)c1CCC(=O)[N-]c1cccnc1 (protonated)
Cc1[nH+]c2cc(-c3ccc(F)cc3)nn2c(C)c1CCC(=O)[N-]c1cccnc1 (3D coordinates assigned)
Cc1[nH+]c2cc(-c3ccc(F)cc3)nn2c(C)c1CCC(=O)[N-]c1cccnc1 (optimized conformer: 93.87393778187966 kcal/mol)

>  <smiles>  (28) 
Cc1nc2cc(-c3ccc(F)cc3)nn2c(C)c1CCC(=O)Nc1cccnc1

>  <score_type>  (28) 
oracle

>  <origin>  (28) 
adg

>  <m_score__min__energy>  (28) 
-10.51

>  <m_primary>  (28) 
energy

$$$$
28:0
     RDKit          3D

 40 42  0  0  0  0  0  0  0  0999 V2000
   -0.7630   24.2050  -29.3430 O   0  0  0  0  0  0  0  0  0  0  0  0
   -1.9250   23.8670  -28.9890 C   0  0  0  0  0  0  0  0  0  0  0  0
   -2.6490   22.8110  -29.7640 C   0  0  0  0  0  0  0  0  0  0  0  0
   -4.1210   22.9850  -29.6880 N   0  0  2  0  0  0  0  0  0  0  0  0
   -4.6200   24.1320  -30.4500 C   0  0  0  0  0  0  0  0  0  0  0  0
   -3.8700   25.0570  -30.7470 O   0  0  0  0  0  0  0  0  0  0  0  0
   -6.0900   24.3100  -30.7600 C   0  0  0  0  0  0  0  0  0  0  0  0
   -6.6720   23.0350  -31.3160 C   0  0  0  0  0  0  0  0  0  0  0  0
   -7.9950   22.6530  -30.9940 C   0  0  0  0  0  0  0  0  0  0  0  0
   -8.5240   21.4710  -31.5290 C   0  0  0  0  0  0  0  0  0  0  0  0
   -7.7690   20.6980  -32.3510 N   0  0  0  0  0  0  0  0  0  0  0  0
   -6.4930   21.0520  -32.6900 C   0  0  0  0  0  0  0  0  0  0  0  0
   -5.9170   22.2290  -32.1840 C   0  0  0  0  0  0  0  0  0  0  0  0
   -4.5360   22.9940  -28.2620 C   0  0  0  0  0  0  0  0  0  0  0  0
   -3.9230   24.1700  -27.4590 C   0  0  0  0  0  0  0  0  0  0  0  0
   -2.5010   24.3910  -27.7790 N   0  0  0  0  0  0  0  0  0  0  0  0
   -1.7590   25.3400  -26.9910 C   0  0  0  0  0  0  0  0  0  0  0  0
   -1.6890   25.1800  -25.5930 C   0  0  0  0  0  0  0  0  0  0  0  0
   -0.9330   26.0740  -24.8200 C   0  0  0  0  0  0  0  0  0  0  0  0
   -0.2520   27.1350  -25.4350 C   0  0  0  0  0  0  0  0  0  0  0  0
   -0.3470   27.3200  -26.8240 C   0  0  0  0  0  0  0  0  0  0  0  0
   -1.1000   26.4280  -27.6020 C   0  0  0  0  0  0  0  0  0  0  0  0
   -1.2200   26.6320  -28.9390 F   0  0  0  0  0  0  0  0  0  0  0  0
   -2.3377   22.8658  -30.8176 H   0  0  0  0  0  0  0  0  0  0  0  0
   -2.3968   21.8330  -29.3283 H   0  0  0  0  0  0  0  0  0  0  0  0
   -4.5560   22.1330  -30.1210 H   0  0  0  0  0  0  0  0  0  0  0  0
   -6.6243   24.5792  -29.8370 H   0  0  0  0  0  0  0  0  0  0  0  0
   -6.2009   25.1075  -31.5095 H   0  0  0  0  0  0  0  0  0  0  0  0
   -8.6052   23.2802  -30.3274 H   0  0  0  0  0  0  0  0  0  0  0  0
   -9.5526   21.1689  -31.2826 H   0  0  0  0  0  0  0  0  0  0  0  0
   -5.9111   20.4084  -33.3662 H   0  0  0  0  0  0  0  0  0  0  0  0
   -4.8920   22.5147  -32.4628 H   0  0  0  0  0  0  0  0  0  0  0  0
   -5.6322   23.0726  -28.2167 H   0  0  0  0  0  0  0  0  0  0  0  0
   -4.1716   22.0608  -27.8078 H   0  0  0  0  0  0  0  0  0  0  0  0
   -4.4839   25.0870  -27.6926 H   0  0  0  0  0  0  0  0  0  0  0  0
   -3.9899   23.9163  -26.3907 H   0  0  0  0  0  0  0  0  0  0  0  0
   -2.2277   24.3532  -25.1070 H   0  0  0  0  0  0  0  0  0  0  0  0
   -0.8742   25.9427  -23.7295 H   0  0  0  0  0  0  0  0  0  0  0  0
    0.3567   27.8224  -24.8292 H   0  0  0  0  0  0  0  0  0  0  0  0
    0.1696   28.1652  -27.3023 H   0  0  0  0  0  0  0  0  0  0  0  0
  1  2  2  0
  2  3  1  0
  3  4  1  0
  4  5  1  0
  5  6  2  0
  5  7  1  0
  7  8  1  0
  8  9  2  0
  9 10  1  0
 10 11  2  0
 11 12  1  0
 12 13  2  0
  4 14  1  0
 14 15  1  0
 15 16  1  0
 16 17  1  0
 17 18  2  0
 18 19  1  0
 19 20  2  0
 20 21  1  0
 21 22  2  0
 22 23  1  0
 16  2  1  0
 22 17  1  0
 13  8  1  0
  3 24  1  0
  3 25  1  0
  4 26  1  6
  7 27  1  0
  7 28  1  0
  9 29  1  0
 10 30  1  0
 12 31  1  0
 13 32  1  0
 14 33  1  0
 14 34  1  0
 15 35  1  0
 15 36  1  0
 18 37  1  0
 19 38  1  0
 20 39  1  0
 21 40  1  0
M  CHG  1   4   1
M  END
>  <UniqueID>  (29) 
27

>  <SMILES>  (29) 
O=C1C[N@H+](C(=O)Cc2ccncc2)CCN1c1ccccc1F

>  <Energy>  (29) 
59.205551764014

>  <Genealogy>  (29) 
O=C1C[NH+](C(=O)Cc2ccncc2)CCN1c1ccccc1F (protonated)
O=C1C[N@H+](C(=O)Cc2ccncc2)CCN1c1ccccc1F (chirality)
O=C1C[N@H+](C(=O)Cc2ccncc2)CCN1c1ccccc1F (3D coordinates assigned)
O=C1C[N@H+](C(=O)Cc2ccncc2)CCN1c1ccccc1F (nonaromatic ring conformer: 59.205551764014 kcal/mol)

>  <smiles>  (29) 
O=C(Cc1ccncc1)N1CCN(c2ccccc2F)C(=O)C1

>  <score_type>  (29) 
oracle

>  <origin>  (29) 
adg

>  <m_score__min__energy>  (29) 
-7.4100000000000001

>  <m_primary>  (29) 
energy

$$$$
29:0
     RDKit          3D

 21 21  0  0  0  0  0  0  0  0999 V2000
   -6.0620   25.6470  -28.8390 N   0  0  0  0  0  0  0  0  0  0  0  0
   -5.9600   25.0030  -30.1490 C   0  0  0  0  0  0  0  0  0  0  0  0
   -7.2160   24.1780  -30.4540 C   0  0  0  0  0  0  0  0  0  0  0  0
   -6.8580   22.9340  -31.2220 C   0  0  0  0  0  0  0  0  0  0  0  0
   -5.6090   22.8260  -31.8560 C   0  0  0  0  0  0  0  0  0  0  0  0
   -5.2910   21.6830  -32.5950 C   0  0  0  0  0  0  0  0  0  0  0  0
   -6.2190   20.6450  -32.7160 C   0  0  0  0  0  0  0  0  0  0  0  0
   -7.4700   20.7490  -32.1000 C   0  0  0  0  0  0  0  0  0  0  0  0
   -8.7420   19.3350  -32.2750 Br  0  0  0  0  0  0  0  0  0  0  0  0
   -7.7920   21.8920  -31.3580 C   0  0  0  0  0  0  0  0  0  0  0  0
   -6.4070   26.6280  -28.9460 H   0  0  0  0  0  0  0  0  0  0  0  0
   -5.1180   25.6660  -28.3930 H   0  0  0  0  0  0  0  0  0  0  0  0
   -6.7160   25.1080  -28.2250 H   0  0  0  0  0  0  0  0  0  0  0  0
   -5.8410   25.7765  -30.9220 H   0  0  0  0  0  0  0  0  0  0  0  0
   -5.0907   24.3290  -30.1419 H   0  0  0  0  0  0  0  0  0  0  0  0
   -7.6997   23.8925  -29.5082 H   0  0  0  0  0  0  0  0  0  0  0  0
   -7.9011   24.7863  -31.0628 H   0  0  0  0  0  0  0  0  0  0  0  0
   -4.8786   23.6440  -31.7705 H   0  0  0  0  0  0  0  0  0  0  0  0
   -4.3083   21.6003  -33.0823 H   0  0  0  0  0  0  0  0  0  0  0  0
   -5.9651   19.7456  -33.2962 H   0  0  0  0  0  0  0  0  0  0  0  0
   -8.7792   21.9749  -30.8798 H   0  0  0  0  0  0  0  0  0  0  0  0
  1  2  1  0
  2  3  1  0
  3  4  1  0
  4  5  2  0
  5  6  1  0
  6  7  2  0
  7  8  1  0
  8  9  1  0
  8 10  2  0
 10  4  1  0
  1 11  1  0
  1 12  1  0
  1 13  1  0
  2 14  1  0
  2 15  1  0
  3 16  1  0
  3 17  1  0
  5 18  1  0
  6 19  1  0
  7 20  1  0
 10 21  1  0
M  CHG  1   1   1
M  END
>  <UniqueID>  (30) 
28

>  <SMILES>  (30) 
[NH3+]CCc1cccc(Br)c1

>  <Energy>  (30) 
14.926855606699874

>  <Genealogy>  (30) 
[NH3+]CCc1cccc(Br)c1 (protonated)
[NH3+]CCc1cccc(Br)c1 (3D coordinates assigned)
[NH3+]CCc1cccc(Br)c1 (optimized conformer: 14.926855606699874 kcal/mol)

>  <smiles>  (30) 
NCCc1cccc(Br)c1

>  <score_type>  (30) 
oracle

>  <origin>  (30) 
adg

>  <m_score__min__energy>  (30) 
-5.1699999999999999

>  <m_primary>  (30) 
energy

$$$$
30:0
     RDKit          3D

 43 45  0  0  0  0  0  0  0  0999 V2000
   -0.6480   27.1970  -23.9910 C   0  0  0  0  0  0  0  0  0  0  0  0
   -0.9760   26.6810  -25.3670 C   0  0  0  0  0  0  0  0  0  0  0  0
   -1.9900   25.7220  -25.5190 C   0  0  0  0  0  0  0  0  0  0  0  0
   -2.3110   25.2190  -26.7810 C   0  0  0  0  0  0  0  0  0  0  0  0
   -1.6250   25.6710  -27.9180 C   0  0  0  0  0  0  0  0  0  0  0  0
   -1.9120   25.1830  -29.2020 O   0  0  0  0  0  0  0  0  0  0  0  0
   -2.8570   24.1870  -29.4950 C   0  0  0  0  0  0  0  0  0  0  0  0
   -2.5610   22.8570  -29.1950 C   0  0  0  0  0  0  0  0  0  0  0  0
   -1.0360   22.4200  -28.4390 Cl  0  0  0  0  0  0  0  0  0  0  0  0
   -3.4960   21.8690  -29.4850 C   0  0  0  0  0  0  0  0  0  0  0  0
   -4.6730   22.2100  -30.0680 N   0  0  0  0  0  0  0  0  0  0  0  0
   -4.9720   23.4750  -30.3810 N   0  0  0  0  0  0  0  0  0  0  0  0
   -6.2480   23.7370  -31.0580 C   0  0  0  0  0  0  0  0  0  0  0  0
   -6.3360   22.9720  -32.3850 C   0  0  0  0  0  0  0  0  0  0  0  0
   -7.2810   21.8080  -32.2870 C   0  0  0  0  0  0  0  0  0  0  0  0
   -6.8610   20.5120  -32.6210 C   0  0  0  0  0  0  0  0  0  0  0  0
   -7.7760   19.4610  -32.5680 C   0  0  0  0  0  0  0  0  0  0  0  0
   -9.0980   19.7080  -32.1920 C   0  0  0  0  0  0  0  0  0  0  0  0
   -9.4850   21.0120  -31.8750 C   0  0  0  0  0  0  0  0  0  0  0  0
   -8.5780   22.0230  -31.9320 N   0  0  0  0  0  0  0  0  0  0  0  0
   -4.0800   24.4840  -30.1230 C   0  0  0  0  0  0  0  0  0  0  0  0
   -4.3400   25.6700  -30.4690 O   0  0  0  0  0  0  0  0  0  0  0  0
   -0.5960   26.6060  -27.7720 C   0  0  0  0  0  0  0  0  0  0  0  0
   -0.2570   27.1160  -26.5070 C   0  0  0  0  0  0  0  0  0  0  0  0
    0.8480   28.1330  -26.3930 C   0  0  0  0  0  0  0  0  0  0  0  0
   -1.0765   26.5228  -23.2348 H   0  0  0  0  0  0  0  0  0  0  0  0
    0.4441   27.2408  -23.8665 H   0  0  0  0  0  0  0  0  0  0  0  0
   -1.0719   28.2044  -23.8665 H   0  0  0  0  0  0  0  0  0  0  0  0
   -2.5371   25.3633  -24.6347 H   0  0  0  0  0  0  0  0  0  0  0  0
   -3.1052   24.4650  -26.8843 H   0  0  0  0  0  0  0  0  0  0  0  0
   -3.2826   20.8173  -29.2432 H   0  0  0  0  0  0  0  0  0  0  0  0
   -7.0735   23.4188  -30.4044 H   0  0  0  0  0  0  0  0  0  0  0  0
   -6.3164   24.8142  -31.2703 H   0  0  0  0  0  0  0  0  0  0  0  0
   -6.6917   23.6563  -33.1693 H   0  0  0  0  0  0  0  0  0  0  0  0
   -5.3353   22.5851  -32.6278 H   0  0  0  0  0  0  0  0  0  0  0  0
   -5.8194   20.3264  -32.9220 H   0  0  0  0  0  0  0  0  0  0  0  0
   -7.4570   18.4393  -32.8219 H   0  0  0  0  0  0  0  0  0  0  0  0
   -9.8263   18.8849  -32.1460 H   0  0  0  0  0  0  0  0  0  0  0  0
  -10.5237   21.2209  -31.5792 H   0  0  0  0  0  0  0  0  0  0  0  0
   -0.0437   26.9474  -28.6599 H   0  0  0  0  0  0  0  0  0  0  0  0
    1.0593   28.3274  -25.3311 H   0  0  0  0  0  0  0  0  0  0  0  0
    1.7541   27.7463  -26.8823 H   0  0  0  0  0  0  0  0  0  0  0  0
    0.5377   29.0680  -26.8823 H   0  0  0  0  0  0  0  0  0  0  0  0
  1  2  1  0
  2  3  2  0
  3  4  1  0
  4  5  2  0
  5  6  1  0
  6  7  1  0
  7  8  2  0
  8  9  1  0
  8 10  1  0
 10 11  2  0
 11 12  1  0
 12 13  1  0
 13 14  1  0
 14 15  1  0
 15 16  2  0
 16 17  1  0
 17 18  2  0
 18 19  1  0
 19 20  2  0
 12 21  1  0
 21 22  2  0
  5 23  1  0
 23 24  2  0
 24 25  1  0
 24  2  1  0
 21  7  1  0
 20 15  1  0
  1 26  1  0
  1 27  1  0
  1 28  1  0
  3 29  1  0
  4 30  1  0
 10 31  1  0
 13 32  1  0
 13 33  1  0
 14 34  1  0
 14 35  1  0
 16 36  1  0
 17 37  1  0
 18 38  1  0
 19 39  1  0
 23 40  1  0
 25 41  1  0
 25 42  1  0
 25 43  1  0
M  END
>  <UniqueID>  (31) 
29

>  <SMILES>  (31) 
Cc1ccc(Oc2c(Cl)cnn(CCc3ccccn3)c2=O)cc1C

>  <Energy>  (31) 
52.322176188702834

>  <Genealogy>  (31) 
Cc1ccc(Oc2c(Cl)cnn(CCc3ccccn3)c2=O)cc1C (3D coordinates assigned)
Cc1ccc(Oc2c(Cl)cnn(CCc3ccccn3)c2=O)cc1C (optimized conformer: 52.322176188702834 kcal/mol)

>  <smiles>  (31) 
Cc1ccc(Oc2c(Cl)cnn(CCc3ccccn3)c2=O)cc1C

>  <score_type>  (31) 
oracle

>  <origin>  (31) 
adg

>  <m_score__min__energy>  (31) 
-9.0999999999999996

>  <m_primary>  (31) 
energy

$$$$
31:0
     RDKit          3D

 47 49  0  0  0  0  0  0  0  0999 V2000
   -5.7680   20.0260  -33.2970 C   0  0  0  0  0  0  0  0  0  0  0  0
   -6.9870   20.6950  -32.7220 C   0  0  0  0  0  0  0  0  0  0  0  0
   -8.1760   19.9570  -32.5970 C   0  0  0  0  0  0  0  0  0  0  0  0
   -9.3140   20.5370  -32.0300 C   0  0  0  0  0  0  0  0  0  0  0  0
   -9.2770   21.8590  -31.5850 C   0  0  0  0  0  0  0  0  0  0  0  0
   -8.1070   22.6110  -31.7210 C   0  0  0  0  0  0  0  0  0  0  0  0
   -6.9680   22.0510  -32.3110 C   0  0  0  0  0  0  0  0  0  0  0  0
   -5.8290   22.8530  -32.4500 O   0  0  0  0  0  0  0  0  0  0  0  0
   -4.8700   23.0440  -31.4440 C   0  0  0  0  0  0  0  0  0  0  0  0
   -5.0920   24.0370  -30.4850 C   0  0  0  0  0  0  0  0  0  0  0  0
   -4.1810   24.2290  -29.4430 C   0  0  0  0  0  0  0  0  0  0  0  0
   -3.0240   23.4380  -29.3570 C   0  0  0  0  0  0  0  0  0  0  0  0
   -2.1340   23.5740  -28.2350 N   0  0  0  0  0  0  0  0  0  0  0  0
   -2.2530   22.6860  -27.0730 C   0  0  0  0  0  0  0  0  0  0  0  0
   -1.6630   21.3340  -27.3790 C   0  0  0  0  0  0  0  0  0  0  0  0
   -0.4550   21.2360  -28.0890 C   0  0  0  0  0  0  0  0  0  0  0  0
    0.1290   19.9860  -28.3190 C   0  0  0  0  0  0  0  0  0  0  0  0
   -0.4850   18.8270  -27.8350 C   0  0  0  0  0  0  0  0  0  0  0  0
   -1.6830   18.9160  -27.1220 C   0  0  0  0  0  0  0  0  0  0  0  0
   -2.2710   20.1630  -26.8930 C   0  0  0  0  0  0  0  0  0  0  0  0
   -0.9060   24.8060  -28.2440 S   0  0  0  0  0  0  0  0  0  0  0  0
   -0.8010   25.5700  -26.6420 C   0  0  0  0  0  0  0  0  0  0  0  0
   -1.2370   25.8510  -29.2730 O   0  0  0  0  0  0  0  0  0  0  0  0
    0.4180   24.1880  -28.5970 O   0  0  0  0  0  0  0  0  0  0  0  0
   -2.7810   22.4710  -30.3450 C   0  0  0  0  0  0  0  0  0  0  0  0
   -3.6930   22.2780  -31.3840 C   0  0  0  0  0  0  0  0  0  0  0  0
   -5.1235   19.6723  -32.4787 H   0  0  0  0  0  0  0  0  0  0  0  0
   -6.0768   19.1709  -33.9163 H   0  0  0  0  0  0  0  0  0  0  0  0
   -5.2126   20.7457  -33.9163 H   0  0  0  0  0  0  0  0  0  0  0  0
   -8.2114   18.9151  -32.9480 H   0  0  0  0  0  0  0  0  0  0  0  0
  -10.2399   19.9508  -31.9344 H   0  0  0  0  0  0  0  0  0  0  0  0
  -10.1697   22.3097  -31.1267 H   0  0  0  0  0  0  0  0  0  0  0  0
   -8.0810   23.6504  -31.3618 H   0  0  0  0  0  0  0  0  0  0  0  0
   -5.9888   24.6706  -30.5512 H   0  0  0  0  0  0  0  0  0  0  0  0
   -4.3713   25.0040  -28.6860 H   0  0  0  0  0  0  0  0  0  0  0  0
   -1.7170   23.1305  -26.2214 H   0  0  0  0  0  0  0  0  0  0  0  0
   -3.3181   22.5619  -26.8279 H   0  0  0  0  0  0  0  0  0  0  0  0
    0.0340   22.1464  -28.4659 H   0  0  0  0  0  0  0  0  0  0  0  0
    1.0719   19.9148  -28.8810 H   0  0  0  0  0  0  0  0  0  0  0  0
   -0.0245   17.8445  -28.0157 H   0  0  0  0  0  0  0  0  0  0  0  0
   -2.1642   18.0034  -26.7403 H   0  0  0  0  0  0  0  0  0  0  0  0
   -3.2137   20.2287  -26.3300 H   0  0  0  0  0  0  0  0  0  0  0  0
   -0.9066   24.8018  -25.8618 H   0  0  0  0  0  0  0  0  0  0  0  0
    0.1741   26.0681  -26.5365 H   0  0  0  0  0  0  0  0  0  0  0  0
   -1.6055   26.3127  -26.5365 H   0  0  0  0  0  0  0  0  0  0  0  0
   -1.8663   21.8616  -30.3002 H   0  0  0  0  0  0  0  0  0  0  0  0
   -3.4899   21.5238  -32.1585 H   0  0  0  0  0  0  0  0  0  0  0  0
  1  2  1  0
  2  3  2  0
  3  4  1  0
  4  5  2  0
  5  6  1  0
  6  7  2  0
  7  8  1  0
  8  9  1  0
  9 10  2  0
 10 11  1  0
 11 12  2  0
 12 13  1  0
 13 14  1  0
 14 15  1  0
 15 16  2  0
 16 17  1  0
 17 18  2  0
 18 19  1  0
 19 20  2  0
 13 21  1  0
 21 22  1  0
 21 23  2  0
 21 24  2  0
 12 25  1  0
 25 26  2  0
  7  2  1  0
 26  9  1  0
 20 15  1  0
  1 27  1  0
  1 28  1  0
  1 29  1  0
  3 30  1  0
  4 31  1  0
  5 32  1  0
  6 33  1  0
 10 34  1  0
 11 35  1  0
 14 36  1  0
 14 37  1  0
 16 38  1  0
 17 39  1  0
 18 40  1  0
 19 41  1  0
 20 42  1  0
 22 43  1  0
 22 44  1  0
 22 45  1  0
 25 46  1  0
 26 47  1  0
M  END
>  <UniqueID>  (32) 
30

>  <SMILES>  (32) 
Cc1ccccc1Oc1ccc(N(Cc2ccccc2)S(C)(=O)=O)cc1

>  <Energy>  (32) 
55.398298770611504

>  <Genealogy>  (32) 
Cc1ccccc1Oc1ccc(N(Cc2ccccc2)S(C)(=O)=O)cc1 (3D coordinates assigned)
Cc1ccccc1Oc1ccc(N(Cc2ccccc2)S(C)(=O)=O)cc1 (optimized conformer: 55.398298770611504 kcal/mol)

>  <smiles>  (32) 
Cc1ccccc1Oc1ccc(N(Cc2ccccc2)S(C)(=O)=O)cc1

>  <score_type>  (32) 
oracle

>  <origin>  (32) 
adg

>  <m_score__min__energy>  (32) 
-9.3300000000000001

>  <m_primary>  (32) 
energy

$$$$
32:0
     RDKit          3D

 28 29  0  0  0  0  0  0  0  0999 V2000
   -2.5320   24.5340  -29.3480 C   0  0  0  0  0  0  0  0  0  0  0  0
   -3.4860   25.0040  -30.2940 O   0  0  0  0  0  0  0  0  0  0  0  0
   -4.6910   24.3510  -30.5960 C   0  0  0  0  0  0  0  0  0  0  0  0
   -4.6360   23.1610  -31.3300 C   0  0  0  0  0  0  0  0  0  0  0  0
   -5.8070   22.4710  -31.6530 C   0  0  0  0  0  0  0  0  0  0  0  0
   -7.0540   22.9580  -31.2350 C   0  0  0  0  0  0  0  0  0  0  0  0
   -8.5390   22.0870  -31.6500 S   0  0  0  0  0  0  0  0  0  0  0  0
   -9.2010   21.6240  -30.3810 O   0  0  0  0  0  0  0  0  0  0  0  0
   -9.4790   23.0340  -32.3430 O   0  0  0  0  0  0  0  0  0  0  0  0
   -8.2740   20.6980  -32.6860 N   0  0  0  0  0  0  0  0  0  0  0  0
   -9.4450   19.8130  -32.7090 C   0  0  0  0  0  0  0  0  0  0  0  0
   -8.7290   18.7090  -31.9570 C   0  0  0  0  0  0  0  0  0  0  0  0
   -7.5340   19.6410  -31.9870 C   0  0  0  0  0  0  0  0  0  0  0  0
   -7.1140   24.1600  -30.5150 C   0  0  0  0  0  0  0  0  0  0  0  0
   -5.9430   24.8500  -30.1910 C   0  0  0  0  0  0  0  0  0  0  0  0
   -2.9046   24.7175  -28.3294 H   0  0  0  0  0  0  0  0  0  0  0  0
   -2.3740   23.4549  -29.4917 H   0  0  0  0  0  0  0  0  0  0  0  0
   -1.5802   25.0663  -29.4917 H   0  0  0  0  0  0  0  0  0  0  0  0
   -3.6625   22.7655  -31.6554 H   0  0  0  0  0  0  0  0  0  0  0  0
   -5.7507   21.5412  -32.2380 H   0  0  0  0  0  0  0  0  0  0  0  0
  -10.3109   20.2203  -32.1666 H   0  0  0  0  0  0  0  0  0  0  0  0
   -9.9103   19.5772  -33.6774 H   0  0  0  0  0  0  0  0  0  0  0  0
   -9.1272   18.4910  -30.9551 H   0  0  0  0  0  0  0  0  0  0  0  0
   -8.6872   17.6698  -32.3153 H   0  0  0  0  0  0  0  0  0  0  0  0
   -7.1876   19.9391  -30.9864 H   0  0  0  0  0  0  0  0  0  0  0  0
   -6.5918   19.2783  -32.4236 H   0  0  0  0  0  0  0  0  0  0  0  0
   -8.0892   24.5622  -30.2033 H   0  0  0  0  0  0  0  0  0  0  0  0
   -5.9999   25.7868  -29.6172 H   0  0  0  0  0  0  0  0  0  0  0  0
  1  2  1  0
  2  3  1  0
  3  4  2  0
  4  5  1  0
  5  6  2  0
  6  7  1  0
  7  8  2  0
  7  9  2  0
  7 10  1  0
 10 11  1  0
 11 12  1  0
 12 13  1  0
  6 14  1  0
 14 15  2  0
 15  3  1  0
 13 10  1  0
  1 16  1  0
  1 17  1  0
  1 18  1  0
  4 19  1  0
  5 20  1  0
 11 21  1  0
 11 22  1  0
 12 23  1  0
 12 24  1  0
 13 25  1  0
 13 26  1  0
 14 27  1  0
 15 28  1  0
M  END
>  <UniqueID>  (33) 
31

>  <SMILES>  (33) 
COc1ccc(S(=O)(=O)N2CCC2)cc1

>  <Energy>  (33) 
94.33985304526028

>  <Genealogy>  (33) 
COc1ccc(S(=O)(=O)N2CCC2)cc1 (3D coordinates assigned)
COc1ccc(S(=O)(=O)N2CCC2)cc1 (nonaromatic ring conformer: 94.33985304526028 kcal/mol)

>  <smiles>  (33) 
COc1ccc(S(=O)(=O)N2CCC2)cc1

>  <score_type>  (33) 
oracle

>  <origin>  (33) 
adg

>  <m_score__min__energy>  (33) 
-7.0499999999999998

>  <m_primary>  (33) 
energy

$$$$
33:0
     RDKit          3D

 28 30  0  0  0  0  0  0  0  0999 V2000
   -6.5950   14.7850  -34.2050 C   0  0  0  0  0  0  0  0  0  0  0  0
   -6.2910   16.2310  -33.9470 C   0  0  0  0  0  0  0  0  0  0  0  0
   -5.0370   16.7590  -34.2700 C   0  0  0  0  0  0  0  0  0  0  0  0
   -4.7420   18.0950  -33.9950 C   0  0  0  0  0  0  0  0  0  0  0  0
   -5.6920   18.9360  -33.3780 C   0  0  0  0  0  0  0  0  0  0  0  0
   -6.9470   18.3920  -33.0380 C   0  0  0  0  0  0  0  0  0  0  0  0
   -7.2370   17.0490  -33.3160 C   0  0  0  0  0  0  0  0  0  0  0  0
   -8.1690   19.3630  -32.2520 S   0  0  0  0  0  0  0  0  0  0  0  0
   -8.4560   18.8000  -30.8890 O   0  0  0  0  0  0  0  0  0  0  0  0
   -9.4180   19.3610  -33.0870 O   0  0  0  0  0  0  0  0  0  0  0  0
   -7.5810   21.0000  -32.0940 C   0  0  0  0  0  0  0  0  0  0  0  0
   -8.4320   21.9670  -31.5370 C   0  0  0  0  0  0  0  0  0  0  0  0
   -8.0010   23.2840  -31.3870 C   0  0  0  0  0  0  0  0  0  0  0  0
   -6.7170   23.6450  -31.7900 C   0  0  0  0  0  0  0  0  0  0  0  0
   -5.8620   22.6900  -32.3440 C   0  0  0  0  0  0  0  0  0  0  0  0
   -6.2790   21.3520  -32.5060 C   0  0  0  0  0  0  0  0  0  0  0  0
   -5.3360   20.3590  -33.1020 C   0  0  0  0  0  0  0  0  0  0  0  0
   -4.1710   20.7490  -33.3940 O   0  0  0  0  0  0  0  0  0  0  0  0
   -6.7060   14.2570  -33.2464 H   0  0  0  0  0  0  0  0  0  0  0  0
   -7.5299   14.7036  -34.7789 H   0  0  0  0  0  0  0  0  0  0  0  0
   -5.7720   14.3340  -34.7789 H   0  0  0  0  0  0  0  0  0  0  0  0
   -4.2790   16.1177  -34.7434 H   0  0  0  0  0  0  0  0  0  0  0  0
   -3.7544   18.4982  -34.2632 H   0  0  0  0  0  0  0  0  0  0  0  0
   -8.2164   16.6337  -33.0361 H   0  0  0  0  0  0  0  0  0  0  0  0
   -9.4455   21.6838  -31.2168 H   0  0  0  0  0  0  0  0  0  0  0  0
   -8.6736   24.0373  -30.9511 H   0  0  0  0  0  0  0  0  0  0  0  0
   -6.3762   24.6842  -31.6715 H   0  0  0  0  0  0  0  0  0  0  0  0
   -4.8499   22.9849  -32.6583 H   0  0  0  0  0  0  0  0  0  0  0  0
  1  2  1  0
  2  3  2  0
  3  4  1  0
  4  5  2  0
  5  6  1  0
  6  7  2  0
  6  8  1  0
  8  9  2  0
  8 10  2  0
  8 11  1  0
 11 12  2  0
 12 13  1  0
 13 14  2  0
 14 15  1  0
 15 16  2  0
 16 17  1  0
 17 18  2  0
  7  2  1  0
 16 11  1  0
 17  5  1  0
  1 19  1  0
  1 20  1  0
  1 21  1  0
  3 22  1  0
  4 23  1  0
  7 24  1  0
 12 25  1  0
 13 26  1  0
 14 27  1  0
 15 28  1  0
M  END
>  <UniqueID>  (34) 
32

>  <SMILES>  (34) 
Cc1ccc2c(c1)S(=O)(=O)c1ccccc1C2=O

>  <Energy>  (34) 
38.40573149818274

>  <Genealogy>  (34) 
Cc1ccc2c(c1)S(=O)(=O)c1ccccc1C2=O (3D coordinates assigned)
Cc1ccc2c(c1)S(=O)(=O)c1ccccc1C2=O (nonaromatic ring conformer: 38.40573149818274 kcal/mol)

>  <smiles>  (34) 
Cc1ccc2c(c1)S(=O)(=O)c1ccccc1C2=O

>  <score_type>  (34) 
oracle

>  <origin>  (34) 
adg

>  <m_score__min__energy>  (34) 
-7.9199999999999999

>  <m_primary>  (34) 
energy

$$$$
34:0
     RDKit          3D

 35 37  0  0  0  0  0  0  0  0999 V2000
   -6.1755   23.5635  -29.3256 H   0  0  0  0  0  0  0  0  0  0  0  0
   -5.8660   23.8220  -30.3490 C   0  0  0  0  0  0  0  0  0  0  0  0
   -4.4850   24.3310  -30.5420 C   0  0  0  0  0  0  0  0  0  0  0  0
   -4.3110   25.5470  -30.8310 O   0  0  0  0  0  0  0  0  0  0  0  0
   -3.3400   23.4500  -30.4610 N   0  0  0  0  0  0  0  0  0  0  0  0
   -3.2880   22.2660  -31.2940 C   0  0  0  0  0  0  0  0  0  0  0  0
   -3.7300   22.3000  -32.6310 C   0  0  0  0  0  0  0  0  0  0  0  0
   -4.1863   23.2166  -33.0331 H   0  0  0  0  0  0  0  0  0  0  0  0
   -3.5920   21.1750  -33.4500 C   0  0  0  0  0  0  0  0  0  0  0  0
   -3.9559   21.2035  -34.4877 H   0  0  0  0  0  0  0  0  0  0  0  0
   -2.9930   20.0150  -32.9530 C   0  0  0  0  0  0  0  0  0  0  0  0
   -2.8813   19.1329  -33.6007 H   0  0  0  0  0  0  0  0  0  0  0  0
   -2.5360   19.9750  -31.6340 C   0  0  0  0  0  0  0  0  0  0  0  0
   -2.0479   19.0675  -31.2491 H   0  0  0  0  0  0  0  0  0  0  0  0
   -2.6980   21.0870  -30.8020 C   0  0  0  0  0  0  0  0  0  0  0  0
   -2.0890   21.0410  -29.1200 S   0  0  0  0  0  0  0  0  0  0  0  0
   -1.2280   22.6250  -29.3500 C   0  0  0  0  0  0  0  0  0  0  0  0
   -0.6046   22.5745  -30.2549 H   0  0  0  0  0  0  0  0  0  0  0  0
   -0.5923   22.8251  -28.4749 H   0  0  0  0  0  0  0  0  0  0  0  0
   -2.2570   23.7550  -29.5010 C   0  0  0  0  0  0  0  0  0  0  0  0
   -1.7323   24.6585  -29.8452 H   0  0  0  0  0  0  0  0  0  0  0  0
   -2.7295   23.8925  -28.5172 H   0  0  0  0  0  0  0  0  0  0  0  0
   -6.7650   23.6540  -31.3320 C   0  0  0  0  0  0  0  0  0  0  0  0
   -7.0146   24.5322  -31.9456 H   0  0  0  0  0  0  0  0  0  0  0  0
   -7.4460   22.3820  -31.6550 C   0  0  0  0  0  0  0  0  0  0  0  0
   -8.8480   22.3250  -31.6220 C   0  0  0  0  0  0  0  0  0  0  0  0
   -9.4255   23.2144  -31.3299 H   0  0  0  0  0  0  0  0  0  0  0  0
   -9.5140   21.1420  -31.9590 C   0  0  0  0  0  0  0  0  0  0  0  0
  -10.6123   21.0985  -31.9155 H   0  0  0  0  0  0  0  0  0  0  0  0
   -8.7860   20.0150  -32.3510 C   0  0  0  0  0  0  0  0  0  0  0  0
   -9.4330   18.8700  -32.6790 F   0  0  0  0  0  0  0  0  0  0  0  0
   -7.3900   20.0730  -32.4160 C   0  0  0  0  0  0  0  0  0  0  0  0
   -6.8175   19.1885  -32.7320 H   0  0  0  0  0  0  0  0  0  0  0  0
   -6.7220   21.2530  -32.0800 C   0  0  0  0  0  0  0  0  0  0  0  0
   -5.6251   21.2997  -32.1480 H   0  0  0  0  0  0  0  0  0  0  0  0
  1  2  1  0
  2  3  1  0
  3  4  2  0
  3  5  1  0
  5  6  1  0
  6  7  2  0
  7  8  1  0
  7  9  1  0
  9 10  1  0
  9 11  2  0
 11 12  1  0
 11 13  1  0
 13 14  1  0
 13 15  2  0
 15 16  1  0
 16 17  1  0
 17 18  1  0
 17 19  1  0
 17 20  1  0
 20 21  1  0
 20 22  1  0
  2 23  2  0
 23 24  1  0
 23 25  1  0
 25 26  2  0
 26 27  1  0
 26 28  1  0
 28 29  1  0
 28 30  2  0
 30 31  1  0
 30 32  1  0
 32 33  1  0
 32 34  2  0
 34 35  1  0
 20  5  1  0
 34 25  1  0
 15  6  1  0
M  END
>  <UniqueID>  (35) 
33

>  <SMILES>  (35) 
O=C(/C=C\c1ccc(F)cc1)N1CCSc2ccccc21

>  <Energy>  (35) 
54.6673213230047

>  <Genealogy>  (35) 
O=C(/C=C\c1ccc(F)cc1)N1CCSc2ccccc21 (cis-trans isomerization)
O=C(/C=C\c1ccc(F)cc1)N1CCSc2ccccc21 (3D coordinates assigned)
O=C(/C=C\c1ccc(F)cc1)N1CCSc2ccccc21 (nonaromatic ring conformer: 54.6673213230047 kcal/mol)

>  <smiles>  (35) 
O=C(C=Cc1ccc(F)cc1)N1CCSc2ccccc21

>  <score_type>  (35) 
oracle

>  <origin>  (35) 
adg

>  <m_score__min__energy>  (35) 
-8.1099999999999994

>  <m_primary>  (35) 
energy

$$$$
35:0
     RDKit          3D

 43 44  0  0  0  0  0  0  0  0999 V2000
   -5.7540   25.6650  -30.3770 C   0  0  0  0  0  0  0  0  0  0  0  0
   -4.9940   24.7040  -31.1970 N   0  0  0  0  0  0  0  0  0  0  0  0
   -4.0030   24.0180  -30.3520 C   0  0  0  0  0  0  0  0  0  0  0  0
   -5.8970   23.7180  -31.8310 C   0  0  0  0  0  0  0  0  0  0  0  0
   -6.4600   22.7510  -30.7820 C   0  0  0  0  0  0  0  0  0  0  0  0
   -7.4290   21.7830  -31.4150 C   0  0  0  0  0  0  0  0  0  0  0  0
   -8.8050   22.0610  -31.3860 C   0  0  0  0  0  0  0  0  0  0  0  0
   -9.7170   21.1800  -31.9690 C   0  0  0  0  0  0  0  0  0  0  0  0
   -9.2630   20.0220  -32.6000 C   0  0  0  0  0  0  0  0  0  0  0  0
   -7.8960   19.7410  -32.6530 C   0  0  0  0  0  0  0  0  0  0  0  0
   -6.9640   20.6130  -32.0550 C   0  0  0  0  0  0  0  0  0  0  0  0
   -5.5790   20.3620  -32.0780 O   0  0  0  0  0  0  0  0  0  0  0  0
   -4.6580   20.7930  -33.0820 C   0  0  0  0  0  0  0  0  0  0  0  0
   -3.7550   19.6410  -33.5380 C   0  0  0  0  0  0  0  0  0  0  0  0
   -4.5090   18.3460  -33.6760 C   0  0  0  0  0  0  0  0  0  0  0  0
   -4.1020   17.2060  -32.9610 C   0  0  0  0  0  0  0  0  0  0  0  0
   -4.8400   16.0220  -33.0430 C   0  0  0  0  0  0  0  0  0  0  0  0
   -5.9870   15.9650  -33.8400 C   0  0  0  0  0  0  0  0  0  0  0  0
   -6.3960   17.0920  -34.5580 C   0  0  0  0  0  0  0  0  0  0  0  0
   -5.6610   18.2800  -34.4760 C   0  0  0  0  0  0  0  0  0  0  0  0
   -5.5852   25.4516  -29.3112 H   0  0  0  0  0  0  0  0  0  0  0  0
   -5.4175   26.6874  -30.6040 H   0  0  0  0  0  0  0  0  0  0  0  0
   -6.8264   25.5731  -30.6040 H   0  0  0  0  0  0  0  0  0  0  0  0
   -4.2457   24.1860  -29.2923 H   0  0  0  0  0  0  0  0  0  0  0  0
   -4.0226   22.9392  -30.5661 H   0  0  0  0  0  0  0  0  0  0  0  0
   -3.0002   24.4162  -30.5661 H   0  0  0  0  0  0  0  0  0  0  0  0
   -6.7288   24.2492  -32.3167 H   0  0  0  0  0  0  0  0  0  0  0  0
   -5.3276   23.1422  -32.5755 H   0  0  0  0  0  0  0  0  0  0  0  0
   -5.6312   22.1877  -30.3284 H   0  0  0  0  0  0  0  0  0  0  0  0
   -6.9915   23.3323  -30.0141 H   0  0  0  0  0  0  0  0  0  0  0  0
   -9.1666   22.9794  -30.9005 H   0  0  0  0  0  0  0  0  0  0  0  0
  -10.7943   21.3990  -31.9308 H   0  0  0  0  0  0  0  0  0  0  0  0
   -9.9837   19.3280  -33.0572 H   0  0  0  0  0  0  0  0  0  0  0  0
   -7.5443   18.8331  -33.1649 H   0  0  0  0  0  0  0  0  0  0  0  0
   -5.2219   21.1710  -33.9475 H   0  0  0  0  0  0  0  0  0  0  0  0
   -4.0240   21.5846  -32.6561 H   0  0  0  0  0  0  0  0  0  0  0  0
   -3.3155   19.9002  -34.5125 H   0  0  0  0  0  0  0  0  0  0  0  0
   -2.9780   19.4986  -32.7725 H   0  0  0  0  0  0  0  0  0  0  0  0
   -3.1988   17.2461  -32.3343 H   0  0  0  0  0  0  0  0  0  0  0  0
   -4.5179   15.1338  -32.4797 H   0  0  0  0  0  0  0  0  0  0  0  0
   -6.5678   15.0329  -33.9020 H   0  0  0  0  0  0  0  0  0  0  0  0
   -7.2964   17.0452  -35.1881 H   0  0  0  0  0  0  0  0  0  0  0  0
   -5.9871   19.1659  -35.0407 H   0  0  0  0  0  0  0  0  0  0  0  0
  1  2  1  0
  2  3  1  0
  2  4  1  0
  4  5  1  0
  5  6  1  0
  6  7  2  0
  7  8  1  0
  8  9  2  0
  9 10  1  0
 10 11  2  0
 11 12  1  0
 12 13  1  0
 13 14  1  0
 14 15  1  0
 15 16  2  0
 16 17  1  0
 17 18  2  0
 18 19  1  0
 19 20  2  0
 11  6  1  0
 20 15  1  0
  1 21  1  0
  1 22  1  0
  1 23  1  0
  3 24  1  0
  3 25  1  0
  3 26  1  0
  4 27  1  0
  4 28  1  0
  5 29  1  0
  5 30  1  0
  7 31  1  0
  8 32  1  0
  9 33  1  0
 10 34  1  0
 13 35  1  0
 13 36  1  0
 14 37  1  0
 14 38  1  0
 16 39  1  0
 17 40  1  0
 18 41  1  0
 19 42  1  0
 20 43  1  0
M  END
>  <UniqueID>  (36) 
34

>  <SMILES>  (36) 
CN(C)CCc1ccccc1OCCc1ccccc1

>  <Energy>  (36) 
38.70456858332459

>  <Genealogy>  (36) 
CN(C)CCc1ccccc1OCCc1ccccc1 (3D coordinates assigned)
CN(C)CCc1ccccc1OCCc1ccccc1 (optimized conformer: 38.70456858332459 kcal/mol)

>  <smiles>  (36) 
CN(C)CCc1ccccc1OCCc1ccccc1

>  <score_type>  (36) 
oracle

>  <origin>  (36) 
adg

>  <m_score__min__energy>  (36) 
-7.2000000000000002

>  <m_primary>  (36) 
energy

$$$$
36:0
     RDKit          3D

 38 41  0  0  0  0  0  0  0  0999 V2000
   -5.6600   18.5410  -34.5930 C   0  0  0  0  0  0  0  0  0  0  0  0
   -5.0990   19.0940  -33.2890 C   0  0  0  0  0  0  0  0  0  0  0  0
   -5.8210   20.3090  -32.8980 N   0  0  0  0  0  0  0  0  0  0  0  0
   -5.3110   21.5460  -32.6460 C   0  0  0  0  0  0  0  0  0  0  0  0
   -3.8700   21.9290  -32.8270 C   0  0  0  0  0  0  0  0  0  0  0  0
   -3.3020   22.3650  -31.5540 N   0  0  0  0  0  0  0  0  0  0  0  0
   -2.3040   21.7470  -30.9280 N   0  0  0  0  0  0  0  0  0  0  0  0
   -2.0680   22.4820  -29.8210 C   0  0  0  0  0  0  0  0  0  0  0  0
   -1.1100   22.2320  -28.8420 C   0  0  0  0  0  0  0  0  0  0  0  0
   -1.0330   23.1350  -27.7670 C   0  0  0  0  0  0  0  0  0  0  0  0
   -1.8990   24.2470  -27.7020 C   0  0  0  0  0  0  0  0  0  0  0  0
   -2.8440   24.4480  -28.7200 C   0  0  0  0  0  0  0  0  0  0  0  0
   -2.8810   23.5480  -29.7340 N   0  0  0  0  0  0  0  0  0  0  0  0
   -3.6410   23.4570  -30.8330 C   0  0  0  0  0  0  0  0  0  0  0  0
   -4.5430   24.2790  -31.1510 O   0  0  0  0  0  0  0  0  0  0  0  0
   -6.2620   22.4320  -32.2620 N   0  0  0  0  0  0  0  0  0  0  0  0
   -7.3980   21.7170  -32.2500 C   0  0  0  0  0  0  0  0  0  0  0  0
   -8.6800   22.1410  -31.9070 C   0  0  0  0  0  0  0  0  0  0  0  0
   -9.7170   21.1910  -31.9580 C   0  0  0  0  0  0  0  0  0  0  0  0
   -9.4490   19.8570  -32.3430 C   0  0  0  0  0  0  0  0  0  0  0  0
   -8.1410   19.4620  -32.6830 C   0  0  0  0  0  0  0  0  0  0  0  0
   -7.1350   20.4300  -32.6270 C   0  0  0  0  0  0  0  0  0  0  0  0
   -6.4272   17.7847  -34.3706 H   0  0  0  0  0  0  0  0  0  0  0  0
   -6.1094   19.3591  -35.1750 H   0  0  0  0  0  0  0  0  0  0  0  0
   -4.8484   18.0799  -35.1750 H   0  0  0  0  0  0  0  0  0  0  0  0
   -5.2071   18.3374  -32.4979 H   0  0  0  0  0  0  0  0  0  0  0  0
   -4.0366   19.3402  -33.4329 H   0  0  0  0  0  0  0  0  0  0  0  0
   -3.3066   21.0601  -33.1980 H   0  0  0  0  0  0  0  0  0  0  0  0
   -3.8055   22.7545  -33.5512 H   0  0  0  0  0  0  0  0  0  0  0  0
   -0.4397   21.3622  -28.9070 H   0  0  0  0  0  0  0  0  0  0  0  0
   -0.2918   22.9732  -26.9705 H   0  0  0  0  0  0  0  0  0  0  0  0
   -1.8340   24.9513  -26.8595 H   0  0  0  0  0  0  0  0  0  0  0  0
   -3.5314   25.3064  -28.6963 H   0  0  0  0  0  0  0  0  0  0  0  0
   -6.1420   23.4430  -32.0260 H   0  0  0  0  0  0  0  0  0  0  0  0
   -8.8747   23.1812  -31.6070 H   0  0  0  0  0  0  0  0  0  0  0  0
  -10.7433   21.4883  -31.6965 H   0  0  0  0  0  0  0  0  0  0  0  0
  -10.2677   19.1231  -32.3771 H   0  0  0  0  0  0  0  0  0  0  0  0
   -7.9188   18.4271  -32.9824 H   0  0  0  0  0  0  0  0  0  0  0  0
  1  2  1  0
  2  3  1  0
  3  4  1  0
  4  5  1  0
  5  6  1  0
  6  7  1  0
  7  8  2  0
  8  9  1  0
  9 10  2  0
 10 11  1  0
 11 12  2  0
 12 13  1  0
 13 14  1  0
 14 15  2  0
  4 16  2  0
 16 17  1  0
 17 18  2  0
 18 19  1  0
 19 20  2  0
 20 21  1  0
 21 22  2  0
 22  3  1  0
 14  6  1  0
 22 17  1  0
 13  8  1  0
  1 23  1  0
  1 24  1  0
  1 25  1  0
  2 26  1  0
  2 27  1  0
  5 28  1  0
  5 29  1  0
  9 30  1  0
 10 31  1  0
 11 32  1  0
 12 33  1  0
 16 34  1  0
 18 35  1  0
 19 36  1  0
 20 37  1  0
 21 38  1  0
M  CHG  1  16   1
M  END
>  <UniqueID>  (37) 
35

>  <SMILES>  (37) 
CCn1c(Cn2nc3ccccn3c2=O)[nH+]c2ccccc21

>  <Energy>  (37) 
119.98204267298433

>  <Genealogy>  (37) 
CCn1c(Cn2nc3ccccn3c2=O)[nH+]c2ccccc21 (protonated)
CCn1c(Cn2nc3ccccn3c2=O)[nH+]c2ccccc21 (3D coordinates assigned)
CCn1c(Cn2nc3ccccn3c2=O)[nH+]c2ccccc21 (optimized conformer: 119.98204267298433 kcal/mol)

>  <smiles>  (37) 
CCn1c(Cn2nc3ccccn3c2=O)nc2ccccc21

>  <score_type>  (37) 
oracle

>  <origin>  (37) 
adg

>  <m_score__min__energy>  (37) 
-7.0800000000000001

>  <m_primary>  (37) 
energy

$$$$
37:0
     RDKit          3D

 44 46  0  0  0  0  0  0  0  0999 V2000
   -4.0380   24.1560  -28.8360 C   0  0  0  0  0  0  0  0  0  0  0  0
   -4.3110   24.9570  -30.4460 S   0  0  0  0  0  0  0  0  0  0  0  0
   -5.7480   23.9630  -30.8250 C   0  0  0  0  0  0  0  0  0  0  0  0
   -6.4280   24.1650  -31.9830 N   0  0  0  0  0  0  0  0  0  0  0  0
   -7.5220   23.4210  -32.2910 C   0  0  0  0  0  0  0  0  0  0  0  0
   -7.9660   22.4290  -31.4070 C   0  0  0  0  0  0  0  0  0  0  0  0
   -9.1610   21.5770  -31.7440 C   0  0  0  0  0  0  0  0  0  0  0  0
   -8.8000   20.5160  -32.7090 N   0  0  0  0  0  0  0  0  0  0  0  0
   -7.3660   20.5950  -33.0870 C   0  0  0  0  0  0  0  0  0  0  0  0
   -6.8450   19.2510  -33.6160 C   0  0  0  0  0  0  0  0  0  0  0  0
   -6.9420   18.1730  -32.5980 N   0  0  0  0  0  0  0  0  0  0  0  0
   -5.6420   17.9330  -31.9380 C   0  0  0  0  0  0  0  0  0  0  0  0
   -4.6420   18.9990  -32.3100 C   0  0  0  0  0  0  0  0  0  0  0  0
   -3.7460   18.7820  -33.3690 C   0  0  0  0  0  0  0  0  0  0  0  0
   -2.8000   19.7570  -33.7020 C   0  0  0  0  0  0  0  0  0  0  0  0
   -2.7400   20.9500  -32.9780 C   0  0  0  0  0  0  0  0  0  0  0  0
   -1.8210   21.8930  -33.3010 F   0  0  0  0  0  0  0  0  0  0  0  0
   -3.6230   21.1700  -31.9170 C   0  0  0  0  0  0  0  0  0  0  0  0
   -4.5710   20.1980  -31.5810 C   0  0  0  0  0  0  0  0  0  0  0  0
   -8.0200   18.4070  -31.6020 C   0  0  0  0  0  0  0  0  0  0  0  0
   -9.2000   19.1740  -32.2150 C   0  0  0  0  0  0  0  0  0  0  0  0
   -7.2430   22.2320  -30.2240 C   0  0  0  0  0  0  0  0  0  0  0  0
   -6.1540   22.9990  -29.9570 N   0  0  0  0  0  0  0  0  0  0  0  0
   -4.2791   24.8634  -28.0289 H   0  0  0  0  0  0  0  0  0  0  0  0
   -4.6850   23.2703  -28.7527 H   0  0  0  0  0  0  0  0  0  0  0  0
   -2.9848   23.8498  -28.7527 H   0  0  0  0  0  0  0  0  0  0  0  0
   -8.0593   23.5974  -33.2345 H   0  0  0  0  0  0  0  0  0  0  0  0
   -9.5420   21.1113  -30.8231 H   0  0  0  0  0  0  0  0  0  0  0  0
   -9.9310   22.2174  -32.1989 H   0  0  0  0  0  0  0  0  0  0  0  0
   -7.2450   21.3578  -33.8702 H   0  0  0  0  0  0  0  0  0  0  0  0
   -6.7879   20.8582  -32.1889 H   0  0  0  0  0  0  0  0  0  0  0  0
   -7.4387   18.9622  -34.4958 H   0  0  0  0  0  0  0  0  0  0  0  0
   -5.7833   19.3778  -33.8744 H   0  0  0  0  0  0  0  0  0  0  0  0
   -5.7856   17.9394  -30.8474 H   0  0  0  0  0  0  0  0  0  0  0  0
   -5.2551   16.9583  -32.2700 H   0  0  0  0  0  0  0  0  0  0  0  0
   -3.7881   17.8420  -33.9387 H   0  0  0  0  0  0  0  0  0  0  0  0
   -2.1026   19.5841  -34.5349 H   0  0  0  0  0  0  0  0  0  0  0  0
   -3.5723   22.1086  -31.3456 H   0  0  0  0  0  0  0  0  0  0  0  0
   -5.2628   20.3727  -30.7438 H   0  0  0  0  0  0  0  0  0  0  0  0
   -8.3798   17.4360  -31.2308 H   0  0  0  0  0  0  0  0  0  0  0  0
   -7.6053   19.0122  -30.7824 H   0  0  0  0  0  0  0  0  0  0  0  0
   -9.6020   18.5917  -33.0572 H   0  0  0  0  0  0  0  0  0  0  0  0
   -9.9564   19.3149  -31.4289 H   0  0  0  0  0  0  0  0  0  0  0  0
   -7.5570   21.4558  -29.5106 H   0  0  0  0  0  0  0  0  0  0  0  0
  1  2  1  0
  2  3  1  0
  3  4  2  0
  4  5  1  0
  5  6  2  0
  6  7  1  0
  7  8  1  0
  8  9  1  0
  9 10  1  0
 10 11  1  0
 11 12  1  0
 12 13  1  0
 13 14  2  0
 14 15  1  0
 15 16  2  0
 16 17  1  0
 16 18  1  0
 18 19  2  0
 11 20  1  0
 20 21  1  0
  6 22  1  0
 22 23  2  0
 23  3  1  0
 21  8  1  0
 19 13  1  0
  1 24  1  0
  1 25  1  0
  1 26  1  0
  5 27  1  0
  7 28  1  0
  7 29  1  0
  9 30  1  0
  9 31  1  0
 10 32  1  0
 10 33  1  0
 12 34  1  0
 12 35  1  0
 14 36  1  0
 15 37  1  0
 18 38  1  0
 19 39  1  0
 20 40  1  0
 20 41  1  0
 21 42  1  0
 21 43  1  0
 22 44  1  0
M  END
>  <UniqueID>  (38) 
36

>  <SMILES>  (38) 
CSc1ncc(CN2CCN(Cc3ccc(F)cc3)CC2)cn1

>  <Energy>  (38) 
55.24750040272265

>  <Genealogy>  (38) 
CSc1ncc(CN2CCN(Cc3ccc(F)cc3)CC2)cn1 (3D coordinates assigned)
CSc1ncc(CN2CCN(Cc3ccc(F)cc3)CC2)cn1 (nonaromatic ring conformer: 55.24750040272265 kcal/mol)

>  <smiles>  (38) 
CSc1ncc(CN2CCN(Cc3ccc(F)cc3)CC2)cn1

>  <score_type>  (38) 
oracle

>  <origin>  (38) 
adg

>  <m_score__min__energy>  (38) 
-8.0899999999999999

>  <m_primary>  (38) 
energy

$$$$
38:0
     RDKit          3D

 44 46  0  0  0  0  0  0  0  0999 V2000
    0.8860   24.0540  -27.7980 C   0  0  0  0  0  0  0  0  0  0  0  0
   -0.1860   24.5250  -28.6080 O   0  0  0  0  0  0  0  0  0  0  0  0
   -1.5410   24.4540  -28.2500 C   0  0  0  0  0  0  0  0  0  0  0  0
   -1.9790   24.6310  -26.9240 C   0  0  0  0  0  0  0  0  0  0  0  0
   -3.3380   24.5520  -26.6190 C   0  0  0  0  0  0  0  0  0  0  0  0
   -4.2720   24.2970  -27.6260 C   0  0  0  0  0  0  0  0  0  0  0  0
   -3.8550   24.1160  -28.9560 C   0  0  0  0  0  0  0  0  0  0  0  0
   -4.8660   23.8470  -30.0060 C   0  0  0  0  0  0  0  0  0  0  0  0
   -6.0860   23.3080  -29.7920 N   0  0  0  0  0  0  0  0  0  0  0  0
   -6.6440   23.2490  -31.0130 C   0  0  0  0  0  0  0  0  0  0  0  0
   -8.0140   22.7090  -31.2970 C   0  0  0  0  0  0  0  0  0  0  0  0
   -7.9350   21.2760  -31.6550 N   0  0  0  0  0  0  0  0  0  0  0  0
   -6.7500   20.9800  -32.4990 C   0  0  0  0  0  0  0  0  0  0  0  0
   -6.0300   19.6510  -32.1670 C   0  0  0  0  0  0  0  0  0  0  0  0
   -6.8990   18.3700  -32.2200 C   0  0  0  0  0  0  0  0  0  0  0  0
   -8.2610   18.4720  -31.5130 C   0  0  0  0  0  0  0  0  0  0  0  0
   -9.3380   19.2730  -32.2850 C   0  0  0  0  0  0  0  0  0  0  0  0
   -9.2280   20.8090  -32.2020 C   0  0  0  0  0  0  0  0  0  0  0  0
   -5.7520   23.7520  -31.9350 C   0  0  0  0  0  0  0  0  0  0  0  0
   -4.6700   24.1110  -31.2830 O   0  0  0  0  0  0  0  0  0  0  0  0
   -2.4820   24.1980  -29.2560 C   0  0  0  0  0  0  0  0  0  0  0  0
    0.6219   24.1700  -26.7365 H   0  0  0  0  0  0  0  0  0  0  0  0
    1.0709   22.9918  -28.0158 H   0  0  0  0  0  0  0  0  0  0  0  0
    1.7934   24.6363  -28.0158 H   0  0  0  0  0  0  0  0  0  0  0  0
   -1.2483   24.8320  -26.1267 H   0  0  0  0  0  0  0  0  0  0  0  0
   -3.6755   24.6911  -25.5813 H   0  0  0  0  0  0  0  0  0  0  0  0
   -5.3416   24.2374  -27.3762 H   0  0  0  0  0  0  0  0  0  0  0  0
   -6.5200   22.9970  -28.8960 H   0  0  0  0  0  0  0  0  0  0  0  0
   -8.6431   22.8257  -30.4022 H   0  0  0  0  0  0  0  0  0  0  0  0
   -8.4513   23.2654  -32.1391 H   0  0  0  0  0  0  0  0  0  0  0  0
   -7.0792   20.9377  -33.5477 H   0  0  0  0  0  0  0  0  0  0  0  0
   -6.0233   21.7822  -32.3032 H   0  0  0  0  0  0  0  0  0  0  0  0
   -5.2060   19.5274  -32.8851 H   0  0  0  0  0  0  0  0  0  0  0  0
   -5.7079   19.7447  -31.1194 H   0  0  0  0  0  0  0  0  0  0  0  0
   -7.0818   18.1265  -33.2770 H   0  0  0  0  0  0  0  0  0  0  0  0
   -6.3333   17.5953  -31.6817 H   0  0  0  0  0  0  0  0  0  0  0  0
   -8.6414   17.4520  -31.3554 H   0  0  0  0  0  0  0  0  0  0  0  0
   -8.0819   19.0196  -30.5760 H   0  0  0  0  0  0  0  0  0  0  0  0
   -9.2735   18.9879  -33.3455 H   0  0  0  0  0  0  0  0  0  0  0  0
  -10.2956   19.0183  -31.8074 H   0  0  0  0  0  0  0  0  0  0  0  0
   -9.3483   21.2225  -33.2142 H   0  0  0  0  0  0  0  0  0  0  0  0
  -10.0152   21.1547  -31.5158 H   0  0  0  0  0  0  0  0  0  0  0  0
   -5.9162   23.8373  -33.0193 H   0  0  0  0  0  0  0  0  0  0  0  0
   -2.1437   24.0593  -30.2934 H   0  0  0  0  0  0  0  0  0  0  0  0
  1  2  1  0
  2  3  1  0
  3  4  2  0
  4  5  1  0
  5  6  2  0
  6  7  1  0
  7  8  1  0
  8  9  2  0
  9 10  1  0
 10 11  1  0
 11 12  1  0
 12 13  1  0
 13 14  1  0
 14 15  1  0
 15 16  1  0
 16 17  1  0
 17 18  1  0
 10 19  2  0
 19 20  1  0
  7 21  2  0
 21  3  1  0
 20  8  1  0
 18 12  1  0
  1 22  1  0
  1 23  1  0
  1 24  1  0
  4 25  1  0
  5 26  1  0
  6 27  1  0
  9 28  1  0
 11 29  1  0
 11 30  1  0
 13 31  1  0
 13 32  1  0
 14 33  1  0
 14 34  1  0
 15 35  1  0
 15 36  1  0
 16 37  1  0
 16 38  1  0
 17 39  1  0
 17 40  1  0
 18 41  1  0
 18 42  1  0
 19 43  1  0
 21 44  1  0
M  CHG  1   9   1
M  END
>  <UniqueID>  (39) 
37

>  <SMILES>  (39) 
COc1cccc(-c2[nH+]c(CN3CCCCCC3)co2)c1

>  <Energy>  (39) 
90.00691760534347

>  <Genealogy>  (39) 
COc1cccc(-c2[nH+]c(CN3CCCCCC3)co2)c1 (protonated)
COc1cccc(-c2[nH+]c(CN3CCCCCC3)co2)c1 (3D coordinates assigned)
COc1cccc(-c2[nH+]c(CN3CCCCCC3)co2)c1 (nonaromatic ring conformer: 90.00691760534347 kcal/mol)

>  <smiles>  (39) 
COc1cccc(-c2nc(CN3CCCCCC3)co2)c1

>  <score_type>  (39) 
oracle

>  <origin>  (39) 
adg

>  <m_score__min__energy>  (39) 
-5.7199999999999998

>  <m_primary>  (39) 
energy

$$$$
39:0
     RDKit          3D

 43 46  0  0  0  0  0  0  0  0999 V2000
   -0.5630   20.8630  -32.0850 C   0  0  0  0  0  0  0  0  0  0  0  0
   -1.4040   21.5610  -31.2150 C   0  0  0  0  0  0  0  0  0  0  0  0
   -2.7090   21.8770  -31.6030 C   0  0  0  0  0  0  0  0  0  0  0  0
   -3.1830   21.5030  -32.8750 C   0  0  0  0  0  0  0  0  0  0  0  0
   -4.5410   21.8030  -33.2640 N   0  0  0  0  0  0  0  0  0  0  0  0
   -5.4780   20.7800  -32.7660 C   0  0  0  0  0  0  0  0  0  0  0  0
   -6.6760   21.3980  -32.0870 C   0  0  0  0  0  0  0  0  0  0  0  0
   -7.9740   20.9960  -32.3430 C   0  0  0  0  0  0  0  0  0  0  0  0
   -8.7950   21.8020  -31.5880 C   0  0  0  0  0  0  0  0  0  0  0  0
   -7.9720   22.6680  -30.9020 C   0  0  0  0  0  0  0  0  0  0  0  0
   -6.6770   22.4330  -31.2050 N   0  0  0  0  0  0  0  0  0  0  0  0
   -5.5820   23.1820  -30.6380 C   0  0  0  0  0  0  0  0  0  0  0  0
   -4.9780   24.1990  -31.2990 N   0  0  0  0  0  0  0  0  0  0  0  0
   -3.9790   24.7630  -30.6200 N   0  0  0  0  0  0  0  0  0  0  0  0
   -3.7760   24.1980  -29.4090 C   0  0  0  0  0  0  0  0  0  0  0  0
   -2.7540   24.6270  -28.5000 N   0  0  0  0  0  0  0  0  0  0  0  0
   -1.3880   24.8900  -28.9110 C   0  0  0  0  0  0  0  0  0  0  0  0
   -0.6180   25.1480  -27.6220 C   0  0  0  0  0  0  0  0  0  0  0  0
   -1.6710   25.4110  -26.5460 C   0  0  0  0  0  0  0  0  0  0  0  0
   -2.9720   24.8290  -27.0800 C   0  0  0  0  0  0  0  0  0  0  0  0
   -4.8600   22.9390  -29.1290 S   0  0  0  0  0  0  0  0  0  0  0  0
   -2.3290   20.7970  -33.7430 C   0  0  0  0  0  0  0  0  0  0  0  0
   -1.0260   20.4790  -33.3470 C   0  0  0  0  0  0  0  0  0  0  0  0
    0.4636   20.6155  -31.7771 H   0  0  0  0  0  0  0  0  0  0  0  0
   -1.0384   21.8626  -30.2224 H   0  0  0  0  0  0  0  0  0  0  0  0
   -3.3691   22.4206  -30.9111 H   0  0  0  0  0  0  0  0  0  0  0  0
   -4.6070   21.8840  -34.3050 H   0  0  0  0  0  0  0  0  0  0  0  0
   -4.8140   22.7310  -32.8630 H   0  0  0  0  0  0  0  0  0  0  0  0
   -5.8245   20.1717  -33.6145 H   0  0  0  0  0  0  0  0  0  0  0  0
   -4.9474   20.1624  -32.0263 H   0  0  0  0  0  0  0  0  0  0  0  0
   -8.2894   20.1880  -33.0195 H   0  0  0  0  0  0  0  0  0  0  0  0
   -9.8933   21.7625  -31.5414 H   0  0  0  0  0  0  0  0  0  0  0  0
   -8.3212   23.4434  -30.2042 H   0  0  0  0  0  0  0  0  0  0  0  0
   -0.9715   24.0202  -29.4402 H   0  0  0  0  0  0  0  0  0  0  0  0
   -1.3266   25.7444  -29.6011 H   0  0  0  0  0  0  0  0  0  0  0  0
   -0.0120   24.2692  -27.3567 H   0  0  0  0  0  0  0  0  0  0  0  0
    0.0702   25.9995  -27.7281 H   0  0  0  0  0  0  0  0  0  0  0  0
   -1.3883   24.9154  -25.6055 H   0  0  0  0  0  0  0  0  0  0  0  0
   -1.7685   26.4856  -26.3322 H   0  0  0  0  0  0  0  0  0  0  0  0
   -3.1962   23.8722  -26.5858 H   0  0  0  0  0  0  0  0  0  0  0  0
   -3.8254   25.4965  -26.8897 H   0  0  0  0  0  0  0  0  0  0  0  0
   -2.6882   20.4939  -34.7376 H   0  0  0  0  0  0  0  0  0  0  0  0
   -0.3643   19.9258  -34.0297 H   0  0  0  0  0  0  0  0  0  0  0  0
  1  2  2  0
  2  3  1  0
  3  4  2  0
  4  5  1  0
  5  6  1  0
  6  7  1  0
  7  8  2  0
  8  9  1  0
  9 10  2  0
 10 11  1  0
 11 12  1  0
 12 13  2  0
 13 14  1  0
 14 15  2  0
 15 16  1  0
 16 17  1  0
 17 18  1  0
 18 19  1  0
 19 20  1  0
 15 21  1  0
  4 22  1  0
 22 23  2  0
 23  1  1  0
 11  7  1  0
 21 12  1  0
 20 16  1  0
  1 24  1  0
  2 25  1  0
  3 26  1  0
  5 27  1  0
  5 28  1  0
  6 29  1  0
  6 30  1  0
  8 31  1  0
  9 32  1  0
 10 33  1  0
 17 34  1  0
 17 35  1  0
 18 36  1  0
 18 37  1  0
 19 38  1  0
 19 39  1  0
 20 40  1  0
 20 41  1  0
 22 42  1  0
 23 43  1  0
M  CHG  1   5   1
M  END
>  <UniqueID>  (40) 
38

>  <SMILES>  (40) 
c1ccc([NH2+]Cc2cccn2-c2nnc(N3CCCC3)s2)cc1

>  <Energy>  (40) 
108.48579824396658

>  <Genealogy>  (40) 
c1ccc([NH2+]Cc2cccn2-c2nnc(N3CCCC3)s2)cc1 (protonated)
c1ccc([NH2+]Cc2cccn2-c2nnc(N3CCCC3)s2)cc1 (3D coordinates assigned)
c1ccc([NH2+]Cc2cccn2-c2nnc(N3CCCC3)s2)cc1 (nonaromatic ring conformer: 108.48579824396658 kcal/mol)

>  <smiles>  (40) 
c1ccc(NCc2cccn2-c2nnc(N3CCCC3)s2)cc1

>  <score_type>  (40) 
oracle

>  <origin>  (40) 
adg

>  <m_score__min__energy>  (40) 
-7.7199999999999998

>  <m_primary>  (40) 
energy

$$$$
40:0
     RDKit          3D

 37 38  0  0  0  0  0  0  0  0999 V2000
   -2.2810   24.3790  -29.0460 C   0  0  0  0  0  0  0  0  0  0  0  0
   -3.1280   24.9310  -30.0480 O   0  0  0  0  0  0  0  0  0  0  0  0
   -4.4020   24.4360  -30.3690 C   0  0  0  0  0  0  0  0  0  0  0  0
   -5.5780   25.1650  -30.1180 C   0  0  0  0  0  0  0  0  0  0  0  0
   -6.8230   24.6260  -30.4540 C   0  0  0  0  0  0  0  0  0  0  0  0
   -6.9060   23.3620  -31.0400 C   0  0  0  0  0  0  0  0  0  0  0  0
   -5.7420   22.6180  -31.3000 C   0  0  0  0  0  0  0  0  0  0  0  0
   -5.8260   21.3090  -31.9070 N   0  0  0  0  0  0  0  0  0  0  0  0
   -6.9750   20.9420  -32.7460 C   0  0  0  0  0  0  0  0  0  0  0  0
   -7.1960   19.4250  -32.6940 C   0  0  0  0  0  0  0  0  0  0  0  0
   -5.9960   18.6410  -33.1420 N   0  0  0  0  0  0  0  0  0  0  0  0
   -5.9820   17.3420  -32.4230 C   0  0  0  0  0  0  0  0  0  0  0  0
   -6.1130   18.3550  -34.5930 C   0  0  0  0  0  0  0  0  0  0  0  0
   -4.7020   19.3570  -32.8940 C   0  0  0  0  0  0  0  0  0  0  0  0
   -4.7630   20.3160  -31.6970 C   0  0  0  0  0  0  0  0  0  0  0  0
   -4.4930   23.1690  -30.9580 C   0  0  0  0  0  0  0  0  0  0  0  0
   -2.6744   24.6354  -28.0513 H   0  0  0  0  0  0  0  0  0  0  0  0
   -2.2474   23.2850  -29.1562 H   0  0  0  0  0  0  0  0  0  0  0  0
   -1.2666   24.7900  -29.1562 H   0  0  0  0  0  0  0  0  0  0  0  0
   -5.5179   26.1616  -29.6562 H   0  0  0  0  0  0  0  0  0  0  0  0
   -7.7403   25.1998  -30.2560 H   0  0  0  0  0  0  0  0  0  0  0  0
   -7.8899   22.9448  -31.3004 H   0  0  0  0  0  0  0  0  0  0  0  0
   -7.8752   21.4546  -32.3761 H   0  0  0  0  0  0  0  0  0  0  0  0
   -6.7758   21.2436  -33.7849 H   0  0  0  0  0  0  0  0  0  0  0  0
   -7.4336   19.1408  -31.6583 H   0  0  0  0  0  0  0  0  0  0  0  0
   -8.0194   19.1888  -33.3841 H   0  0  0  0  0  0  0  0  0  0  0  0
   -5.9840   17.5234  -31.3381 H   0  0  0  0  0  0  0  0  0  0  0  0
   -6.8739   16.7604  -32.6991 H   0  0  0  0  0  0  0  0  0  0  0  0
   -5.0777   16.7798  -32.6991 H   0  0  0  0  0  0  0  0  0  0  0  0
   -6.5260   17.3455  -34.7356 H   0  0  0  0  0  0  0  0  0  0  0  0
   -6.7812   19.0938  -35.0596 H   0  0  0  0  0  0  0  0  0  0  0  0
   -5.1186   18.4137  -35.0596 H   0  0  0  0  0  0  0  0  0  0  0  0
   -3.9189   18.6084  -32.7030 H   0  0  0  0  0  0  0  0  0  0  0  0
   -4.4857   19.9614  -33.7872 H   0  0  0  0  0  0  0  0  0  0  0  0
   -4.9736   19.7439  -30.7814 H   0  0  0  0  0  0  0  0  0  0  0  0
   -3.7976   20.8337  -31.5974 H   0  0  0  0  0  0  0  0  0  0  0  0
   -3.5751   22.5961  -31.1562 H   0  0  0  0  0  0  0  0  0  0  0  0
  1  2  1  0
  2  3  1  0
  3  4  2  0
  4  5  1  0
  5  6  2  0
  6  7  1  0
  7  8  1  0
  8  9  1  0
  9 10  1  0
 10 11  1  0
 11 12  1  0
 11 13  1  0
 11 14  1  0
 14 15  1  0
  7 16  2  0
 16  3  1  0
 15  8  1  0
  1 17  1  0
  1 18  1  0
  1 19  1  0
  4 20  1  0
  5 21  1  0
  6 22  1  0
  9 23  1  0
  9 24  1  0
 10 25  1  0
 10 26  1  0
 12 27  1  0
 12 28  1  0
 12 29  1  0
 13 30  1  0
 13 31  1  0
 13 32  1  0
 14 33  1  0
 14 34  1  0
 15 35  1  0
 15 36  1  0
 16 37  1  0
M  CHG  1  11   1
M  END
>  <UniqueID>  (41) 
39

>  <SMILES>  (41) 
COc1cccc(N2CC[N+](C)(C)CC2)c1

>  <Energy>  (41) 
49.755819100600114

>  <Genealogy>  (41) 
COc1cccc(N2CC[N+](C)(C)CC2)c1 (3D coordinates assigned)
COc1cccc(N2CC[N+](C)(C)CC2)c1 (nonaromatic ring conformer: 49.755819100600114 kcal/mol)

>  <smiles>  (41) 
COc1cccc(N2CC[N+](C)(C)CC2)c1

>  <score_type>  (41) 
oracle

>  <origin>  (41) 
adg

>  <m_score__min__energy>  (41) 
-5.9400000000000004

>  <m_primary>  (41) 
energy

$$$$
41:0
     RDKit          3D

 62 64  0  0  0  0  0  0  0  0999 V2000
   -2.4180   20.7050  -29.5700 C   0  0  0  0  0  0  0  0  0  0  0  0
   -1.0270   20.1080  -29.7480 C   0  0  0  0  0  0  0  0  0  0  0  0
   -0.3860   20.5870  -31.0530 C   0  0  0  0  0  0  0  0  0  0  0  0
   -1.3150   20.3720  -32.2040 C   0  0  0  0  0  0  0  0  0  0  0  0
   -1.8950   19.1880  -32.4900 N   0  0  0  0  0  0  0  0  0  0  0  0
   -2.6240   19.5140  -33.5810 C   0  0  0  0  0  0  0  0  0  0  0  0
   -3.5190   18.5500  -34.2950 C   0  0  0  0  0  0  0  0  0  0  0  0
   -3.8500   17.3240  -33.4330 C   0  0  0  0  0  0  0  0  0  0  0  0
   -5.4630   16.5540  -33.8490 S   0  0  0  0  0  0  0  0  0  0  0  0
   -6.5160   18.0540  -33.8300 C   0  0  0  0  0  0  0  0  0  0  0  0
   -7.1130   18.3180  -32.4380 C   0  0  0  0  0  0  0  0  0  0  0  0
   -6.2040   19.2280  -31.5920 C   0  0  0  0  0  0  0  0  0  0  0  0
   -5.9630   20.5340  -32.2470 N   0  0  0  0  0  0  0  0  0  0  0  0
   -4.7060   21.1650  -31.7690 C   0  0  0  0  0  0  0  0  0  0  0  0
   -4.7580   22.6940  -31.8750 C   0  0  0  0  0  0  0  0  0  0  0  0
   -5.8190   23.2430  -31.0030 N   0  0  0  0  0  0  0  0  0  0  0  0
   -6.1200   24.6400  -31.3730 C   0  0  0  0  0  0  0  0  0  0  0  0
   -5.2260   25.5890  -30.6350 C   0  0  0  0  0  0  0  0  0  0  0  0
   -5.7120   26.6320  -30.1210 O   0  0  0  0  0  0  0  0  0  0  0  0
   -3.8320   25.2790  -30.4900 N   0  0  0  0  0  0  0  0  0  0  0  0
   -3.2200   24.5680  -29.4050 C   0  0  0  0  0  0  0  0  0  0  0  0
   -1.8240   24.5450  -29.2200 C   0  0  0  0  0  0  0  0  0  0  0  0
   -1.2660   23.8190  -28.1630 C   0  0  0  0  0  0  0  0  0  0  0  0
   -2.0930   23.0980  -27.2940 C   0  0  0  0  0  0  0  0  0  0  0  0
   -1.5490   22.3920  -26.2730 F   0  0  0  0  0  0  0  0  0  0  0  0
   -3.4800   23.1050  -27.4810 C   0  0  0  0  0  0  0  0  0  0  0  0
   -4.0390   23.8310  -28.5370 C   0  0  0  0  0  0  0  0  0  0  0  0
   -7.0410   22.3950  -30.9510 C   0  0  0  0  0  0  0  0  0  0  0  0
   -7.1450   21.4270  -32.1430 C   0  0  0  0  0  0  0  0  0  0  0  0
   -2.5210   20.8180  -33.9040 N   0  0  0  0  0  0  0  0  0  0  0  0
   -1.6970   21.3130  -33.0310 O   0  0  0  0  0  0  0  0  0  0  0  0
   -2.6413   20.8009  -28.4972 H   0  0  0  0  0  0  0  0  0  0  0  0
   -2.4541   21.6978  -30.0422 H   0  0  0  0  0  0  0  0  0  0  0  0
   -3.1625   20.0472  -30.0422 H   0  0  0  0  0  0  0  0  0  0  0  0
   -0.3934   20.4144  -28.9026 H   0  0  0  0  0  0  0  0  0  0  0  0
   -1.1185   19.0124  -29.7846 H   0  0  0  0  0  0  0  0  0  0  0  0
   -0.1548   21.6592  -30.9702 H   0  0  0  0  0  0  0  0  0  0  0  0
    0.5353   20.0121  -31.2281 H   0  0  0  0  0  0  0  0  0  0  0  0
   -4.4561   19.0631  -34.5570 H   0  0  0  0  0  0  0  0  0  0  0  0
   -2.9914   18.1998  -35.1944 H   0  0  0  0  0  0  0  0  0  0  0  0
   -3.0584   16.5736  -33.5756 H   0  0  0  0  0  0  0  0  0  0  0  0
   -3.9140   17.6682  -32.3902 H   0  0  0  0  0  0  0  0  0  0  0  0
   -5.9061   18.9204  -34.1255 H   0  0  0  0  0  0  0  0  0  0  0  0
   -7.3472   17.8958  -34.5329 H   0  0  0  0  0  0  0  0  0  0  0  0
   -8.0928   18.8038  -32.5566 H   0  0  0  0  0  0  0  0  0  0  0  0
   -7.2116   17.3534  -31.9186 H   0  0  0  0  0  0  0  0  0  0  0  0
   -6.6838   19.4025  -30.6177 H   0  0  0  0  0  0  0  0  0  0  0  0
   -5.2339   18.7233  -31.4729 H   0  0  0  0  0  0  0  0  0  0  0  0
   -4.5460   20.8866  -30.7169 H   0  0  0  0  0  0  0  0  0  0  0  0
   -3.8819   20.8069  -32.4035 H   0  0  0  0  0  0  0  0  0  0  0  0
   -3.7872   23.1104  -31.5683 H   0  0  0  0  0  0  0  0  0  0  0  0
   -4.9793   22.9688  -32.9169 H   0  0  0  0  0  0  0  0  0  0  0  0
   -5.9672   24.7677  -32.4548 H   0  0  0  0  0  0  0  0  0  0  0  0
   -7.1644   24.8588  -31.1060 H   0  0  0  0  0  0  0  0  0  0  0  0
   -1.1705   25.0999  -29.9092 H   0  0  0  0  0  0  0  0  0  0  0  0
   -0.1761   23.8146  -28.0144 H   0  0  0  0  0  0  0  0  0  0  0  0
   -4.1302   22.5394  -26.7973 H   0  0  0  0  0  0  0  0  0  0  0  0
   -5.1285   23.8242  -28.6881 H   0  0  0  0  0  0  0  0  0  0  0  0
   -7.0219   21.8073  -30.0214 H   0  0  0  0  0  0  0  0  0  0  0  0
   -7.9120   23.0656  -30.9913 H   0  0  0  0  0  0  0  0  0  0  0  0
   -8.0461   20.8085  -32.0191 H   0  0  0  0  0  0  0  0  0  0  0  0
   -7.1948   22.0287  -33.0625 H   0  0  0  0  0  0  0  0  0  0  0  0
  1  2  1  0
  2  3  1  0
  3  4  1  0
  4  5  2  0
  5  6  1  0
  6  7  1  0
  7  8  1  0
  8  9  1  0
  9 10  1  0
 10 11  1  0
 11 12  1  0
 12 13  1  0
 13 14  1  0
 14 15  1  0
 15 16  1  0
 16 17  1  0
 17 18  1  0
 18 19  2  0
 18 20  1  0
 20 21  1  0
 21 22  2  0
 22 23  1  0
 23 24  2  0
 24 25  1  0
 24 26  1  0
 26 27  2  0
 16 28  1  0
 28 29  1  0
  6 30  2  0
 30 31  1  0
 31  4  1  0
 29 13  1  0
 27 21  1  0
  1 32  1  0
  1 33  1  0
  1 34  1  0
  2 35  1  0
  2 36  1  0
  3 37  1  0
  3 38  1  0
  7 39  1  0
  7 40  1  0
  8 41  1  0
  8 42  1  0
 10 43  1  0
 10 44  1  0
 11 45  1  0
 11 46  1  0
 12 47  1  0
 12 48  1  0
 14 49  1  0
 14 50  1  0
 15 51  1  0
 15 52  1  0
 17 53  1  0
 17 54  1  0
 22 55  1  0
 23 56  1  0
 26 57  1  0
 27 58  1  0
 28 59  1  0
 28 60  1  0
 29 61  1  0
 29 62  1  0
M  CHG  1  20  -1
M  END
>  <UniqueID>  (42) 
40

>  <SMILES>  (42) 
CCCc1nc(CCSCCCN2CCN(CC(=O)[N-]c3ccc(F)cc3)CC2)no1

>  <Energy>  (42) 
98.4431143776527

>  <Genealogy>  (42) 
CCCc1nc(CCSCCCN2CCN(CC(=O)[N-]c3ccc(F)cc3)CC2)no1 (protonated)
CCCc1nc(CCSCCCN2CCN(CC(=O)[N-]c3ccc(F)cc3)CC2)no1 (3D coordinates assigned)
CCCc1nc(CCSCCCN2CCN(CC(=O)[N-]c3ccc(F)cc3)CC2)no1 (nonaromatic ring conformer: 98.4431143776527 kcal/mol)

>  <smiles>  (42) 
CCCc1nc(CCSCCCN2CCN(CC(=O)Nc3ccc(F)cc3)CC2)no1

>  <score_type>  (42) 
oracle

>  <origin>  (42) 
adg

>  <m_score__min__energy>  (42) 
-9.9600000000000009

>  <m_primary>  (42) 
energy

$$$$
42:0
     RDKit          3D

 58 61  0  0  0  0  0  0  0  0999 V2000
    0.5510   20.7810  -33.9310 C   0  0  0  0  0  0  0  0  0  0  0  0
   -0.7080   19.9650  -33.9160 C   0  0  0  0  0  0  0  0  0  0  0  0
   -1.8440   20.4300  -33.2390 C   0  0  0  0  0  0  0  0  0  0  0  0
   -3.0050   19.6530  -33.1930 C   0  0  0  0  0  0  0  0  0  0  0  0
   -3.0460   18.3960  -33.8180 C   0  0  0  0  0  0  0  0  0  0  0  0
   -4.2370   17.5870  -33.7560 N   0  0  0  0  0  0  0  0  0  0  0  0
   -4.2570   16.3140  -33.0300 C   0  0  0  0  0  0  0  0  0  0  0  0
   -5.3820   16.3140  -31.9770 C   0  0  0  0  0  0  0  0  0  0  0  0
   -6.5480   17.1650  -32.3390 N   0  0  0  0  0  0  0  0  0  0  0  0
   -6.5480   18.4630  -31.6260 C   0  0  0  0  0  0  0  0  0  0  0  0
   -7.6930   19.3600  -32.1130 C   0  0  0  0  0  0  0  0  0  0  0  0
   -7.3330   20.7820  -31.9910 N   0  0  0  0  0  0  0  0  0  0  0  0
   -6.2140   21.3180  -32.7310 C   0  0  0  0  0  0  0  0  0  0  0  0
   -5.5950   20.6010  -33.5620 O   0  0  0  0  0  0  0  0  0  0  0  0
   -5.8030   22.7520  -32.5650 C   0  0  0  0  0  0  0  0  0  0  0  0
   -6.1060   23.2660  -31.1390 C   0  0  0  0  0  0  0  0  0  0  0  0
   -5.7460   24.7520  -31.0080 C   0  0  0  0  0  0  0  0  0  0  0  0
   -5.4060   24.9760  -29.5390 C   0  0  0  0  0  0  0  0  0  0  0  0
   -5.0270   23.6130  -28.9640 C   0  0  0  0  0  0  0  0  0  0  0  0
   -5.2160   22.5900  -30.0790 C   0  0  0  0  0  0  0  0  0  0  0  0
   -7.6110   23.0500  -30.8300 C   0  0  0  0  0  0  0  0  0  0  0  0
   -8.0270   21.6210  -31.0450 C   0  0  0  0  0  0  0  0  0  0  0  0
   -9.0230   21.1780  -30.4110 O   0  0  0  0  0  0  0  0  0  0  0  0
   -6.6950   17.3340  -33.8010 C   0  0  0  0  0  0  0  0  0  0  0  0
   -5.4700   18.0370  -34.4110 C   0  0  0  0  0  0  0  0  0  0  0  0
   -1.8960   17.9210  -34.4720 C   0  0  0  0  0  0  0  0  0  0  0  0
   -0.7350   18.6980  -34.5180 C   0  0  0  0  0  0  0  0  0  0  0  0
    0.8674   20.9861  -32.8976 H   0  0  0  0  0  0  0  0  0  0  0  0
    1.3428   20.2239  -34.4532 H   0  0  0  0  0  0  0  0  0  0  0  0
    0.3658   21.7313  -34.4532 H   0  0  0  0  0  0  0  0  0  0  0  0
   -1.8217   21.4109  -32.7417 H   0  0  0  0  0  0  0  0  0  0  0  0
   -3.8929   20.0288  -32.6635 H   0  0  0  0  0  0  0  0  0  0  0  0
   -4.4272   15.4932  -33.7422 H   0  0  0  0  0  0  0  0  0  0  0  0
   -3.2915   16.1784  -32.5207 H   0  0  0  0  0  0  0  0  0  0  0  0
   -5.7349   15.2802  -31.8474 H   0  0  0  0  0  0  0  0  0  0  0  0
   -4.9551   16.7338  -31.0542 H   0  0  0  0  0  0  0  0  0  0  0  0
   -6.6679   18.2808  -30.5479 H   0  0  0  0  0  0  0  0  0  0  0  0
   -5.5944   18.9728  -31.8280 H   0  0  0  0  0  0  0  0  0  0  0  0
   -7.9062   19.1315  -33.1677 H   0  0  0  0  0  0  0  0  0  0  0  0
   -8.5800   19.1669  -31.4917 H   0  0  0  0  0  0  0  0  0  0  0  0
   -4.7229   22.8386  -32.7543 H   0  0  0  0  0  0  0  0  0  0  0  0
   -6.3756   23.3605  -33.2804 H   0  0  0  0  0  0  0  0  0  0  0  0
   -4.8794   24.9923  -31.6415 H   0  0  0  0  0  0  0  0  0  0  0  0
   -6.5763   25.3970  -31.3315 H   0  0  0  0  0  0  0  0  0  0  0  0
   -4.5610   25.6744  -29.4476 H   0  0  0  0  0  0  0  0  0  0  0  0
   -6.2588   25.4110  -28.9972 H   0  0  0  0  0  0  0  0  0  0  0  0
   -3.9781   23.6212  -28.6328 H   0  0  0  0  0  0  0  0  0  0  0  0
   -5.6538   23.3659  -28.0945 H   0  0  0  0  0  0  0  0  0  0  0  0
   -4.2436   22.3180  -30.5153 H   0  0  0  0  0  0  0  0  0  0  0  0
   -5.6769   21.6659  -29.7001 H   0  0  0  0  0  0  0  0  0  0  0  0
   -7.8016   23.3222  -29.7814 H   0  0  0  0  0  0  0  0  0  0  0  0
   -8.1944   23.6822  -31.5155 H   0  0  0  0  0  0  0  0  0  0  0  0
   -6.8077   16.3436  -34.2662 H   0  0  0  0  0  0  0  0  0  0  0  0
   -7.5815   17.9573  -33.9900 H   0  0  0  0  0  0  0  0  0  0  0  0
   -5.4156   17.8021  -35.4843 H   0  0  0  0  0  0  0  0  0  0  0  0
   -5.5741   19.1221  -34.2637 H   0  0  0  0  0  0  0  0  0  0  0  0
   -1.9098   16.9308  -34.9510 H   0  0  0  0  0  0  0  0  0  0  0  0
    0.1610   18.3146  -35.0282 H   0  0  0  0  0  0  0  0  0  0  0  0
  1  2  1  0
  2  3  2  0
  3  4  1  0
  4  5  2  0
  5  6  1  0
  6  7  1  0
  7  8  1  0
  8  9  1  0
  9 10  1  0
 10 11  1  0
 11 12  1  0
 12 13  1  0
 13 14  2  0
 13 15  1  0
 15 16  1  0
 16 17  1  0
 17 18  1  0
 18 19  1  0
 19 20  1  0
 16 21  1  0
 21 22  1  0
 22 23  2  0
  9 24  1  0
 24 25  1  0
  5 26  1  0
 26 27  2  0
 27  2  1  0
 25  6  1  0
 22 12  1  0
 20 16  1  0
  1 28  1  0
  1 29  1  0
  1 30  1  0
  3 31  1  0
  4 32  1  0
  7 33  1  0
  7 34  1  0
  8 35  1  0
  8 36  1  0
 10 37  1  0
 10 38  1  0
 11 39  1  0
 11 40  1  0
 15 41  1  0
 15 42  1  0
 17 43  1  0
 17 44  1  0
 18 45  1  0
 18 46  1  0
 19 47  1  0
 19 48  1  0
 20 49  1  0
 20 50  1  0
 21 51  1  0
 21 52  1  0
 24 53  1  0
 24 54  1  0
 25 55  1  0
 25 56  1  0
 26 57  1  0
 27 58  1  0
M  END
>  <UniqueID>  (43) 
41

>  <SMILES>  (43) 
Cc1ccc(N2CCN(CCN3C(=O)CC4(CCCC4)CC3=O)CC2)cc1

>  <Energy>  (43) 
68.47379610832064

>  <Genealogy>  (43) 
Cc1ccc(N2CCN(CCN3C(=O)CC4(CCCC4)CC3=O)CC2)cc1 (3D coordinates assigned)
Cc1ccc(N2CCN(CCN3C(=O)CC4(CCCC4)CC3=O)CC2)cc1 (nonaromatic ring conformer: 68.47379610832064 kcal/mol)

>  <smiles>  (43) 
Cc1ccc(N2CCN(CCN3C(=O)CC4(CCCC4)CC3=O)CC2)cc1

>  <score_type>  (43) 
oracle

>  <origin>  (43) 
adg

>  <m_score__min__energy>  (43) 
-9.0600000000000005

>  <m_primary>  (43) 
energy

$$$$
43:0
     RDKit          3D

 32 33  0  0  0  0  0  0  0  0999 V2000
   -1.9600   21.5090  -31.5410 C   0  0  0  0  0  0  0  0  0  0  0  0
   -3.1160   21.5640  -32.5340 C   0  0  0  0  0  0  0  0  0  0  0  0
   -4.0250   22.6070  -32.1890 O   0  0  0  0  0  0  0  0  0  0  0  0
   -5.3800   22.4390  -31.8540 C   0  0  0  0  0  0  0  0  0  0  0  0
   -6.2110   21.5220  -32.5280 C   0  0  0  0  0  0  0  0  0  0  0  0
   -7.5500   21.3760  -32.1570 C   0  0  0  0  0  0  0  0  0  0  0  0
   -8.0740   22.1390  -31.1130 C   0  0  0  0  0  0  0  0  0  0  0  0
   -7.2640   23.0550  -30.4400 C   0  0  0  0  0  0  0  0  0  0  0  0
   -5.9180   23.2120  -30.8050 C   0  0  0  0  0  0  0  0  0  0  0  0
   -4.9150   24.4040  -29.9740 S   0  0  0  0  0  0  0  0  0  0  0  0
   -5.7930   25.2720  -29.1180 O   0  0  0  0  0  0  0  0  0  0  0  0
   -4.2090   25.2820  -30.9710 O   0  0  0  0  0  0  0  0  0  0  0  0
   -3.6920   23.5570  -29.0170 C   0  0  0  0  0  0  0  0  0  0  0  0
   -4.0370   22.3330  -28.4280 C   0  0  0  0  0  0  0  0  0  0  0  0
   -3.1100   21.6610  -27.6330 C   0  0  0  0  0  0  0  0  0  0  0  0
   -1.8480   22.2140  -27.4270 C   0  0  0  0  0  0  0  0  0  0  0  0
   -1.5320   23.4370  -28.0220 C   0  0  0  0  0  0  0  0  0  0  0  0
   -2.4450   24.0860  -28.7980 N   0  0  0  0  0  0  0  0  0  0  0  0
   -2.0890   25.2960  -29.3470 O   0  0  0  0  0  0  0  0  0  0  0  0
   -2.3566   21.5279  -30.5152 H   0  0  0  0  0  0  0  0  0  0  0  0
   -1.3874   20.5826  -31.6958 H   0  0  0  0  0  0  0  0  0  0  0  0
   -1.3021   22.3769  -31.6958 H   0  0  0  0  0  0  0  0  0  0  0  0
   -2.7178   21.7504  -33.5423 H   0  0  0  0  0  0  0  0  0  0  0  0
   -3.6518   20.6037  -32.5079 H   0  0  0  0  0  0  0  0  0  0  0  0
   -5.8029   20.9174  -33.3513 H   0  0  0  0  0  0  0  0  0  0  0  0
   -8.1921   20.6584  -32.6888 H   0  0  0  0  0  0  0  0  0  0  0  0
   -9.1273   22.0184  -30.8198 H   0  0  0  0  0  0  0  0  0  0  0  0
   -7.6826   23.6566  -29.6197 H   0  0  0  0  0  0  0  0  0  0  0  0
   -5.0364   21.9039  -28.5926 H   0  0  0  0  0  0  0  0  0  0  0  0
   -3.3737   20.6985  -27.1704 H   0  0  0  0  0  0  0  0  0  0  0  0
   -1.1081   21.6925  -26.8020 H   0  0  0  0  0  0  0  0  0  0  0  0
   -0.5379   23.8802  -27.8630 H   0  0  0  0  0  0  0  0  0  0  0  0
  1  2  1  0
  2  3  1  0
  3  4  1  0
  4  5  2  0
  5  6  1  0
  6  7  2  0
  7  8  1  0
  8  9  2  0
  9 10  1  0
 10 11  2  0
 10 12  2  0
 10 13  1  0
 13 14  2  0
 14 15  1  0
 15 16  2  0
 16 17  1  0
 17 18  2  0
 18 19  1  0
  9  4  1  0
 18 13  1  0
  1 20  1  0
  1 21  1  0
  1 22  1  0
  2 23  1  0
  2 24  1  0
  5 25  1  0
  6 26  1  0
  7 27  1  0
  8 28  1  0
 14 29  1  0
 15 30  1  0
 16 31  1  0
 17 32  1  0
M  CHG  2  18   1  19  -1
M  END
>  <UniqueID>  (44) 
42

>  <SMILES>  (44) 
CCOc1ccccc1S(=O)(=O)c1cccc[n+]1[O-]

>  <Energy>  (44) 
33.8267042869375

>  <Genealogy>  (44) 
CCOc1ccccc1S(=O)(=O)c1cccc[n+]1[O-] (3D coordinates assigned)
CCOc1ccccc1S(=O)(=O)c1cccc[n+]1[O-] (optimized conformer: 33.8267042869375 kcal/mol)

>  <smiles>  (44) 
CCOc1ccccc1S(=O)(=O)c1cccc[n+]1[O-]

>  <score_type>  (44) 
oracle

>  <origin>  (44) 
adg

>  <m_score__min__energy>  (44) 
-8.3100000000000005

>  <m_primary>  (44) 
energy

$$$$
44:0
     RDKit          3D

 47 49  0  0  0  0  0  0  0  0999 V2000
   -7.5830   23.3860  -31.9430 C   0  0  0  0  0  0  0  0  0  0  0  0
   -6.9530   22.2420  -32.5070 O   0  0  0  0  0  0  0  0  0  0  0  0
   -7.4170   20.9240  -32.3630 C   0  0  0  0  0  0  0  0  0  0  0  0
   -8.6650   20.6400  -31.7730 C   0  0  0  0  0  0  0  0  0  0  0  0
   -9.0910   19.3200  -31.6190 C   0  0  0  0  0  0  0  0  0  0  0  0
   -8.2890   18.2690  -32.0620 C   0  0  0  0  0  0  0  0  0  0  0  0
   -7.0600   18.5340  -32.6670 C   0  0  0  0  0  0  0  0  0  0  0  0
   -6.6100   19.8580  -32.8200 C   0  0  0  0  0  0  0  0  0  0  0  0
   -5.2860   20.1230  -33.5040 C   0  0  0  0  0  0  0  0  0  0  0  0
   -4.6990   21.4280  -33.1300 N   0  0  0  0  0  0  0  0  0  0  0  0
   -3.3410   21.3510  -32.6180 C   0  0  0  0  0  0  0  0  0  0  0  0
   -2.2600   21.1470  -33.5090 C   0  0  0  0  0  0  0  0  0  0  0  0
   -0.9440   21.1260  -33.0510 C   0  0  0  0  0  0  0  0  0  0  0  0
   -0.6670   21.3690  -31.7100 C   0  0  0  0  0  0  0  0  0  0  0  0
   -1.7050   21.6600  -30.8290 C   0  0  0  0  0  0  0  0  0  0  0  0
   -3.0400   21.6570  -31.2610 C   0  0  0  0  0  0  0  0  0  0  0  0
   -4.2870   22.2360  -30.0880 S   0  0  0  0  0  0  0  0  0  0  0  0
   -3.1460   23.1880  -29.0750 C   0  0  0  0  0  0  0  0  0  0  0  0
   -2.5860   22.5920  -27.9390 C   0  0  0  0  0  0  0  0  0  0  0  0
   -1.7300   23.3190  -27.1100 C   0  0  0  0  0  0  0  0  0  0  0  0
   -1.4260   24.6460  -27.4110 C   0  0  0  0  0  0  0  0  0  0  0  0
   -1.9980   25.2590  -28.5300 C   0  0  0  0  0  0  0  0  0  0  0  0
   -2.8800   24.5410  -29.3610 C   0  0  0  0  0  0  0  0  0  0  0  0
   -3.5150   25.1410  -30.4580 O   0  0  0  0  0  0  0  0  0  0  0  0
   -4.9210   25.3230  -30.5780 C   0  0  0  0  0  0  0  0  0  0  0  0
   -7.5470   23.3207  -30.8455 H   0  0  0  0  0  0  0  0  0  0  0  0
   -7.0578   24.2942  -32.2737 H   0  0  0  0  0  0  0  0  0  0  0  0
   -8.6313   23.4277  -32.2737 H   0  0  0  0  0  0  0  0  0  0  0  0
   -9.3079   21.4647  -31.4315 H   0  0  0  0  0  0  0  0  0  0  0  0
  -10.0618   19.1082  -31.1470 H   0  0  0  0  0  0  0  0  0  0  0  0
   -8.6256   17.2296  -31.9344 H   0  0  0  0  0  0  0  0  0  0  0  0
   -6.4381   17.7012  -33.0271 H   0  0  0  0  0  0  0  0  0  0  0  0
   -4.5803   19.3270  -33.2242 H   0  0  0  0  0  0  0  0  0  0  0  0
   -5.4711   20.1415  -34.5882 H   0  0  0  0  0  0  0  0  0  0  0  0
   -5.3460   21.8770  -32.4440 H   0  0  0  0  0  0  0  0  0  0  0  0
   -4.6820   22.0360  -33.9820 H   0  0  0  0  0  0  0  0  0  0  0  0
   -2.4621   21.0027  -34.5806 H   0  0  0  0  0  0  0  0  0  0  0  0
   -0.1224   20.9167  -33.7518 H   0  0  0  0  0  0  0  0  0  0  0  0
    0.3704   21.3314  -31.3460 H   0  0  0  0  0  0  0  0  0  0  0  0
   -1.4753   21.8956  -29.7794 H   0  0  0  0  0  0  0  0  0  0  0  0
   -2.8218   21.5449  -27.6982 H   0  0  0  0  0  0  0  0  0  0  0  0
   -1.2948   22.8444  -26.2182 H   0  0  0  0  0  0  0  0  0  0  0  0
   -0.7356   25.2112  -26.7676 H   0  0  0  0  0  0  0  0  0  0  0  0
   -1.7580   26.3070  -28.7625 H   0  0  0  0  0  0  0  0  0  0  0  0
   -5.3701   25.3811  -29.5755 H   0  0  0  0  0  0  0  0  0  0  0  0
   -5.1247   26.2550  -31.1256 H   0  0  0  0  0  0  0  0  0  0  0  0
   -5.3553   24.4736  -31.1256 H   0  0  0  0  0  0  0  0  0  0  0  0
  1  2  1  0
  2  3  1  0
  3  4  2  0
  4  5  1  0
  5  6  2  0
  6  7  1  0
  7  8  2  0
  8  9  1  0
  9 10  1  0
 10 11  1  0
 11 12  2  0
 12 13  1  0
 13 14  2  0
 14 15  1  0
 15 16  2  0
 16 17  1  0
 17 18  1  0
 18 19  2  0
 19 20  1  0
 20 21  2  0
 21 22  1  0
 22 23  2  0
 23 24  1  0
 24 25  1  0
  8  3  1  0
 16 11  1  0
 23 18  1  0
  1 26  1  0
  1 27  1  0
  1 28  1  0
  4 29  1  0
  5 30  1  0
  6 31  1  0
  7 32  1  0
  9 33  1  0
  9 34  1  0
 10 35  1  0
 10 36  1  0
 12 37  1  0
 13 38  1  0
 14 39  1  0
 15 40  1  0
 19 41  1  0
 20 42  1  0
 21 43  1  0
 22 44  1  0
 25 45  1  0
 25 46  1  0
 25 47  1  0
M  CHG  1  10   1
M  END
>  <UniqueID>  (45) 
43

>  <SMILES>  (45) 
COc1ccccc1C[NH2+]c1ccccc1Sc1ccccc1OC

>  <Energy>  (45) 
48.81095522670326

>  <Genealogy>  (45) 
COc1ccccc1C[NH2+]c1ccccc1Sc1ccccc1OC (protonated)
COc1ccccc1C[NH2+]c1ccccc1Sc1ccccc1OC (3D coordinates assigned)
COc1ccccc1C[NH2+]c1ccccc1Sc1ccccc1OC (optimized conformer: 48.81095522670326 kcal/mol)

>  <smiles>  (45) 
COc1ccccc1CNc1ccccc1Sc1ccccc1OC

>  <score_type>  (45) 
oracle

>  <origin>  (45) 
adg

>  <m_score__min__energy>  (45) 
-8.0600000000000005

>  <m_primary>  (45) 
energy

$$$$
45:0
     RDKit          3D

 33 33  0  0  0  0  0  0  0  0999 V2000
   -8.9640   19.1330  -31.6010 C   0  0  0  0  0  0  0  0  0  0  0  0
   -8.9370   20.4770  -32.3290 C   0  0  0  0  0  0  0  0  0  0  0  0
   -8.6890   21.6470  -31.3660 C   0  0  0  0  0  0  0  0  0  0  0  0
   -7.2570   22.0070  -31.3110 N   0  0  0  0  0  0  0  0  0  0  0  0
   -6.4020   21.0320  -32.0480 C   0  0  0  0  0  0  0  0  0  0  0  0
   -5.1000   21.6400  -32.6370 C   0  0  0  0  0  0  0  0  0  0  0  0
   -4.6770   22.8860  -31.9150 C   0  0  0  0  0  0  0  0  0  0  0  0
   -5.6060   23.7500  -31.5010 C   0  0  0  0  0  0  0  0  0  0  0  0
   -5.2240   24.9670  -30.7620 C   0  0  0  0  0  0  0  0  0  0  0  0
   -6.1250   25.7640  -30.3920 O   0  0  0  0  0  0  0  0  0  0  0  0
   -3.8560   25.2830  -30.4700 N   0  0  0  0  0  0  0  0  0  0  0  0
   -2.9980   24.5830  -29.5150 C   0  0  0  0  0  0  0  0  0  0  0  0
   -3.8250   23.9320  -28.4120 C   0  0  0  0  0  0  0  0  0  0  0  0
   -7.0430   23.3980  -31.7530 C   0  0  0  0  0  0  0  0  0  0  0  0
   -8.9606   19.3044  -30.5144 H   0  0  0  0  0  0  0  0  0  0  0  0
   -9.8734   18.5818  -31.8824 H   0  0  0  0  0  0  0  0  0  0  0  0
   -8.0775   18.5457  -31.8824 H   0  0  0  0  0  0  0  0  0  0  0  0
   -8.1333   20.4583  -33.0798 H   0  0  0  0  0  0  0  0  0  0  0  0
   -9.9189   20.6277  -32.8015 H   0  0  0  0  0  0  0  0  0  0  0  0
   -9.2644   22.5199  -31.7080 H   0  0  0  0  0  0  0  0  0  0  0  0
   -9.0071   21.3393  -30.3589 H   0  0  0  0  0  0  0  0  0  0  0  0
   -6.1222   20.2258  -31.3538 H   0  0  0  0  0  0  0  0  0  0  0  0
   -6.9966   20.6746  -32.9017 H   0  0  0  0  0  0  0  0  0  0  0  0
   -4.2945   20.8949  -32.5588 H   0  0  0  0  0  0  0  0  0  0  0  0
   -5.2977   21.9086  -33.6852 H   0  0  0  0  0  0  0  0  0  0  0  0
   -3.6113   23.0851  -31.7289 H   0  0  0  0  0  0  0  0  0  0  0  0
   -2.4297   23.8047  -30.0454 H   0  0  0  0  0  0  0  0  0  0  0  0
   -2.3156   25.3136  -29.0563 H   0  0  0  0  0  0  0  0  0  0  0  0
   -3.4343   24.2395  -27.4308 H   0  0  0  0  0  0  0  0  0  0  0  0
   -4.8742   24.2491  -28.5047 H   0  0  0  0  0  0  0  0  0  0  0  0
   -3.7631   22.8377  -28.5047 H   0  0  0  0  0  0  0  0  0  0  0  0
   -7.6981   24.0749  -31.1850 H   0  0  0  0  0  0  0  0  0  0  0  0
   -7.2788   23.4991  -32.8227 H   0  0  0  0  0  0  0  0  0  0  0  0
  1  2  1  0
  2  3  1  0
  3  4  1  0
  4  5  1  0
  5  6  1  0
  6  7  1  0
  7  8  2  0
  8  9  1  0
  9 10  2  0
  9 11  1  0
 11 12  1  0
 12 13  1  0
  8 14  1  0
 14  4  1  0
  1 15  1  0
  1 16  1  0
  1 17  1  0
  2 18  1  0
  2 19  1  0
  3 20  1  0
  3 21  1  0
  5 22  1  0
  5 23  1  0
  6 24  1  0
  6 25  1  0
  7 26  1  0
 12 27  1  0
 12 28  1  0
 13 29  1  0
 13 30  1  0
 13 31  1  0
 14 32  1  0
 14 33  1  0
M  CHG  1  11  -1
M  END
>  <UniqueID>  (46) 
44

>  <SMILES>  (46) 
CCCN1CCC=C(C(=O)[N-]CC)C1

>  <Energy>  (46) 
33.812259126324946

>  <Genealogy>  (46) 
CCCN1CCC=C(C(=O)[N-]CC)C1 (protonated)
CCCN1CCC=C(C(=O)[N-]CC)C1 (3D coordinates assigned)
CCCN1CCC=C(C(=O)[N-]CC)C1 (nonaromatic ring conformer: 33.812259126324946 kcal/mol)

>  <smiles>  (46) 
CCCN1CCC=C(C(=O)NCC)C1

>  <score_type>  (46) 
oracle

>  <origin>  (46) 
adg

>  <m_score__min__energy>  (46) 
-7.7999999999999998

>  <m_primary>  (46) 
energy

$$$$
46:0
     RDKit          3D

 36 38  0  0  0  0  0  0  0  0999 V2000
   -2.0390   24.9080  -27.8520 C   0  0  0  0  0  0  0  0  0  0  0  0
   -2.3690   24.9520  -29.2360 O   0  0  0  0  0  0  0  0  0  0  0  0
   -2.5990   23.8210  -30.0360 C   0  0  0  0  0  0  0  0  0  0  0  0
   -1.7200   22.7210  -30.0430 C   0  0  0  0  0  0  0  0  0  0  0  0
   -1.9770   21.6140  -30.8570 C   0  0  0  0  0  0  0  0  0  0  0  0
   -1.1340   20.5510  -30.8390 N   0  0  0  0  0  0  0  0  0  0  0  0
   -1.3670   19.4580  -31.6080 C   0  0  0  0  0  0  0  0  0  0  0  0
   -2.4530   19.4160  -32.4240 N   0  0  0  0  0  0  0  0  0  0  0  0
   -3.3190   20.4610  -32.5020 C   0  0  0  0  0  0  0  0  0  0  0  0
   -4.4040   20.3730  -33.3850 O   0  0  0  0  0  0  0  0  0  0  0  0
   -5.6970   19.9670  -33.0150 C   0  0  0  0  0  0  0  0  0  0  0  0
   -6.1050   18.6200  -33.0700 C   0  0  0  0  0  0  0  0  0  0  0  0
   -7.4060   18.2640  -32.6990 C   0  0  0  0  0  0  0  0  0  0  0  0
   -8.3040   19.2430  -32.2670 C   0  0  0  0  0  0  0  0  0  0  0  0
   -7.9020   20.5810  -32.2000 C   0  0  0  0  0  0  0  0  0  0  0  0
   -9.1290   21.9180  -31.6070 Br  0  0  0  0  0  0  0  0  0  0  0  0
   -6.6010   20.9400  -32.5700 C   0  0  0  0  0  0  0  0  0  0  0  0
   -3.1150   21.5940  -31.6870 C   0  0  0  0  0  0  0  0  0  0  0  0
   -4.0070   22.6800  -31.6600 C   0  0  0  0  0  0  0  0  0  0  0  0
   -3.7460   23.7990  -30.8440 C   0  0  0  0  0  0  0  0  0  0  0  0
   -4.6040   24.9100  -30.8110 O   0  0  0  0  0  0  0  0  0  0  0  0
   -5.7690   25.0070  -29.9980 C   0  0  0  0  0  0  0  0  0  0  0  0
   -2.9535   25.0299  -27.2530 H   0  0  0  0  0  0  0  0  0  0  0  0
   -1.5730   23.9398  -27.6168 H   0  0  0  0  0  0  0  0  0  0  0  0
   -1.3356   25.7203  -27.6168 H   0  0  0  0  0  0  0  0  0  0  0  0
   -0.8250   22.7329  -29.4036 H   0  0  0  0  0  0  0  0  0  0  0  0
   -0.6752   18.6036  -31.5710 H   0  0  0  0  0  0  0  0  0  0  0  0
   -2.6120   18.5690  -33.0150 H   0  0  0  0  0  0  0  0  0  0  0  0
   -5.3989   17.8461  -33.4055 H   0  0  0  0  0  0  0  0  0  0  0  0
   -7.7224   17.2116  -32.7475 H   0  0  0  0  0  0  0  0  0  0  0  0
   -9.3277   18.9615  -31.9794 H   0  0  0  0  0  0  0  0  0  0  0  0
   -6.2865   21.9924  -32.5110 H   0  0  0  0  0  0  0  0  0  0  0  0
   -4.9152   22.6563  -32.2802 H   0  0  0  0  0  0  0  0  0  0  0  0
   -5.4789   24.9828  -28.9372 H   0  0  0  0  0  0  0  0  0  0  0  0
   -6.2895   25.9516  -30.2144 H   0  0  0  0  0  0  0  0  0  0  0  0
   -6.4386   24.1615  -30.2144 H   0  0  0  0  0  0  0  0  0  0  0  0
  1  2  1  0
  2  3  1  0
  3  4  2  0
  4  5  1  0
  5  6  2  0
  6  7  1  0
  7  8  2  0
  8  9  1  0
  9 10  1  0
 10 11  1  0
 11 12  2  0
 12 13  1  0
 13 14  2  0
 14 15  1  0
 15 16  1  0
 15 17  2  0
  9 18  2  0
 18 19  1  0
 19 20  2  0
 20 21  1  0
 21 22  1  0
 20  3  1  0
 18  5  1  0
 17 11  1  0
  1 23  1  0
  1 24  1  0
  1 25  1  0
  4 26  1  0
  7 27  1  0
  8 28  1  0
 12 29  1  0
 13 30  1  0
 14 31  1  0
 17 32  1  0
 19 33  1  0
 22 34  1  0
 22 35  1  0
 22 36  1  0
M  CHG  1   8   1
M  END
>  <UniqueID>  (47) 
45

>  <SMILES>  (47) 
COc1cc2nc[nH+]c(Oc3cccc(Br)c3)c2cc1OC

>  <Energy>  (47) 
49.108249470244495

>  <Genealogy>  (47) 
COc1cc2nc[nH+]c(Oc3cccc(Br)c3)c2cc1OC (protonated)
COc1cc2nc[nH+]c(Oc3cccc(Br)c3)c2cc1OC (3D coordinates assigned)
COc1cc2nc[nH+]c(Oc3cccc(Br)c3)c2cc1OC (optimized conformer: 49.108249470244495 kcal/mol)

>  <smiles>  (47) 
COc1cc2ncnc(Oc3cccc(Br)c3)c2cc1OC

>  <score_type>  (47) 
oracle

>  <origin>  (47) 
adg

>  <m_score__min__energy>  (47) 
-7.5999999999999996

>  <m_primary>  (47) 
energy

$$$$
