0:0
     RDKit          3D

 34 35  0  0  0  0  0  0  0  0999 V2000
   -7.2070   23.4090  -32.2550 C   0  0  0  0  0  0  0  0  0  0  0  0
   -6.9430   23.8350  -30.8130 C   0  0  0  0  0  0  0  0  0  0  0  0
   -6.0740   25.0950  -30.7590 C   0  0  0  0  0  0  0  0  0  0  0  0
   -4.8800   24.8990  -29.8180 C   0  0  0  0  0  0  0  0  0  0  0  0
   -3.7050   24.5720  -30.5580 O   0  0  0  0  0  0  0  0  0  0  0  0
   -3.2310   23.2760  -30.8270 C   0  0  0  0  0  0  0  0  0  0  0  0
   -3.8750   22.4260  -31.7520 C   0  0  0  0  0  0  0  0  0  0  0  0
   -3.3550   21.1620  -32.0350 C   0  0  0  0  0  0  0  0  0  0  0  0
   -2.1920   20.7270  -31.4050 C   0  0  0  0  0  0  0  0  0  0  0  0
   -1.5490   21.5480  -30.4790 C   0  0  0  0  0  0  0  0  0  0  0  0
   -2.0670   22.8180  -30.1680 C   0  0  0  0  0  0  0  0  0  0  0  0
   -1.3640   23.6560  -29.1670 C   0  0  0  0  0  0  0  0  0  0  0  0
   -0.6860   23.1510  -28.1950 N   0  0  0  0  0  0  0  0  0  0  0  0
   -0.1380   24.2160  -27.3660 C   0  0  0  0  0  0  0  0  0  0  0  0
   -0.6560   25.5190  -27.9930 C   0  0  0  0  0  0  0  0  0  0  0  0
   -1.4110   25.0720  -29.1460 N   0  0  0  0  0  0  0  0  0  0  0  0
   -7.7864   22.4740  -32.2609 H   0  0  0  0  0  0  0  0  0  0  0  0
   -7.7758   24.1961  -32.7716 H   0  0  0  0  0  0  0  0  0  0  0  0
   -6.2490   23.2499  -32.7716 H   0  0  0  0  0  0  0  0  0  0  0  0
   -7.9035   24.0399  -30.3176 H   0  0  0  0  0  0  0  0  0  0  0  0
   -6.4090   23.0209  -30.3011 H   0  0  0  0  0  0  0  0  0  0  0  0
   -5.7024   25.3192  -31.7698 H   0  0  0  0  0  0  0  0  0  0  0  0
   -6.6860   25.9268  -30.3800 H   0  0  0  0  0  0  0  0  0  0  0  0
   -4.7062   25.8286  -29.2562 H   0  0  0  0  0  0  0  0  0  0  0  0
   -5.1051   24.0730  -29.1273 H   0  0  0  0  0  0  0  0  0  0  0  0
   -4.7942   22.7626  -32.2539 H   0  0  0  0  0  0  0  0  0  0  0  0
   -3.8652   20.5080  -32.7575 H   0  0  0  0  0  0  0  0  0  0  0  0
   -1.7797   19.7342  -31.6380 H   0  0  0  0  0  0  0  0  0  0  0  0
   -0.6287   21.1992  -29.9876 H   0  0  0  0  0  0  0  0  0  0  0  0
   -0.4922   24.1191  -26.3291 H   0  0  0  0  0  0  0  0  0  0  0  0
    0.9610   24.1851  -27.3292 H   0  0  0  0  0  0  0  0  0  0  0  0
   -1.3022   26.0630  -27.2884 H   0  0  0  0  0  0  0  0  0  0  0  0
    0.1539   26.2144  -28.2586 H   0  0  0  0  0  0  0  0  0  0  0  0
   -2.0130   25.6840  -29.7400 H   0  0  0  0  0  0  0  0  0  0  0  0
  1  2  1  0
  2  3  1  0
  3  4  1  0
  4  5  1  0
  5  6  1  0
  6  7  2  0
  7  8  1  0
  8  9  2  0
  9 10  1  0
 10 11  2  0
 11 12  1  0
 12 13  2  0
 13 14  1  0
 14 15  1  0
 15 16  1  0
 11  6  1  0
 16 12  1  0
  1 17  1  0
  1 18  1  0
  1 19  1  0
  2 20  1  0
  2 21  1  0
  3 22  1  0
  3 23  1  0
  4 24  1  0
  4 25  1  0
  7 26  1  0
  8 27  1  0
  9 28  1  0
 10 29  1  0
 14 30  1  0
 14 31  1  0
 15 32  1  0
 15 33  1  0
 16 34  1  0
M  END
>  <UniqueID>  (1) 
1

>  <SMILES>  (1) 
CCCCOc1ccccc1C1=NCCN1

>  <Energy>  (1) 
42.24240046196313

>  <Genealogy>  (1) 
CCCCOc1ccccc1C1=NCCN1 (3D coordinates assigned)
CCCCOc1ccccc1C1=NCCN1 (nonaromatic ring conformer: 42.24240046196313 kcal/mol)

>  <smiles>  (1) 
CCCCOc1ccccc1C1=NCCN1

>  <score_type>  (1) 
oracle

>  <origin>  (1) 
adg

>  <m_score__min__energy>  (1) 
-6.3600000000000003

>  <m_primary>  (1) 
energy

$$$$
1:0
     RDKit          3D

 37 37  0  0  0  0  0  0  0  0999 V2000
   -4.4980   17.3020  -34.8230 C   0  0  0  0  0  0  0  0  0  0  0  0
   -5.7420   18.1700  -34.9860 C   0  0  0  0  0  0  0  0  0  0  0  0
   -6.2240   18.6330  -33.6790 N   0  0  0  0  0  0  0  0  0  0  0  0
   -7.1150   17.8060  -32.8580 C   0  0  0  0  0  0  0  0  0  0  0  0
   -6.4800   17.5180  -31.5020 C   0  0  0  0  0  0  0  0  0  0  0  0
   -5.7090   19.8580  -33.1380 C   0  0  0  0  0  0  0  0  0  0  0  0
   -4.3770   20.1000  -33.1880 N   0  0  0  0  0  0  0  0  0  0  0  0
   -3.8600   21.2430  -32.6880 C   0  0  0  0  0  0  0  0  0  0  0  0
   -2.1320   21.5210  -32.7720 Cl  0  0  0  0  0  0  0  0  0  0  0  0
   -4.7040   22.1930  -32.1110 C   0  0  0  0  0  0  0  0  0  0  0  0
   -6.0670   21.9880  -32.0370 N   0  0  0  0  0  0  0  0  0  0  0  0
   -6.9830   23.0110  -31.4150 C   0  0  0  0  0  0  0  0  0  0  0  0
   -6.2000   24.3070  -31.0980 C   0  0  0  0  0  0  0  0  0  0  0  0
   -7.6140   22.4440  -30.1200 C   0  0  0  0  0  0  0  0  0  0  0  0
   -8.1650   23.4220  -32.3380 C   0  0  0  0  0  0  0  0  0  0  0  0
   -6.5680   20.8060  -32.5570 C   0  0  0  0  0  0  0  0  0  0  0  0
   -7.8010   20.5470  -32.5240 O   0  0  0  0  0  0  0  0  0  0  0  0
   -4.2899   17.1568  -33.7527 H   0  0  0  0  0  0  0  0  0  0  0  0
   -4.6675   16.3251  -35.2994 H   0  0  0  0  0  0  0  0  0  0  0  0
   -3.6396   17.7982  -35.2994 H   0  0  0  0  0  0  0  0  0  0  0  0
   -5.4953   19.0418  -35.6098 H   0  0  0  0  0  0  0  0  0  0  0  0
   -6.5318   17.5716  -35.4635 H   0  0  0  0  0  0  0  0  0  0  0  0
   -8.0654   18.3387  -32.7065 H   0  0  0  0  0  0  0  0  0  0  0  0
   -7.2924   16.8524  -33.3767 H   0  0  0  0  0  0  0  0  0  0  0  0
   -7.1673   17.8297  -30.7017 H   0  0  0  0  0  0  0  0  0  0  0  0
   -6.2783   16.4403  -31.4130 H   0  0  0  0  0  0  0  0  0  0  0  0
   -5.5363   18.0762  -31.4130 H   0  0  0  0  0  0  0  0  0  0  0  0
   -4.2751   23.1222  -31.7078 H   0  0  0  0  0  0  0  0  0  0  0  0
   -6.1243   24.4323  -30.0078 H   0  0  0  0  0  0  0  0  0  0  0  0
   -5.1907   24.2407  -31.5304 H   0  0  0  0  0  0  0  0  0  0  0  0
   -6.7282   25.1696  -31.5304 H   0  0  0  0  0  0  0  0  0  0  0  0
   -7.1182   22.8895  -29.2450 H   0  0  0  0  0  0  0  0  0  0  0  0
   -8.6864   22.6879  -30.0974 H   0  0  0  0  0  0  0  0  0  0  0  0
   -7.4858   21.3517  -30.0974 H   0  0  0  0  0  0  0  0  0  0  0  0
   -9.0252   23.7211  -31.7210 H   0  0  0  0  0  0  0  0  0  0  0  0
   -7.8580   24.2662  -32.9730 H   0  0  0  0  0  0  0  0  0  0  0  0
   -8.4480   22.5695  -32.9730 H   0  0  0  0  0  0  0  0  0  0  0  0
  1  2  1  0
  2  3  1  0
  3  4  1  0
  4  5  1  0
  3  6  1  0
  6  7  2  0
  7  8  1  0
  8  9  1  0
  8 10  2  0
 10 11  1  0
 11 12  1  0
 12 13  1  0
 12 14  1  0
 12 15  1  0
 11 16  1  0
 16 17  2  0
 16  6  1  0
  1 18  1  0
  1 19  1  0
  1 20  1  0
  2 21  1  0
  2 22  1  0
  4 23  1  0
  4 24  1  0
  5 25  1  0
  5 26  1  0
  5 27  1  0
 10 28  1  0
 13 29  1  0
 13 30  1  0
 13 31  1  0
 14 32  1  0
 14 33  1  0
 14 34  1  0
 15 35  1  0
 15 36  1  0
 15 37  1  0
M  END
>  <UniqueID>  (2) 
2

>  <SMILES>  (2) 
CCN(CC)c1nc(Cl)cn(C(C)(C)C)c1=O

>  <Energy>  (2) 
43.75956972001021

>  <Genealogy>  (2) 
CCN(CC)c1nc(Cl)cn(C(C)(C)C)c1=O (3D coordinates assigned)
CCN(CC)c1nc(Cl)cn(C(C)(C)C)c1=O (optimized conformer: 43.75956972001021 kcal/mol)

>  <smiles>  (2) 
CCN(CC)c1nc(Cl)cn(C(C)(C)C)c1=O

>  <score_type>  (2) 
oracle

>  <origin>  (2) 
adg

>  <m_score__min__energy>  (2) 
-5.5700000000000003

>  <m_primary>  (2) 
energy

$$$$
2:0
     RDKit          3D

 53 56  0  0  0  0  0  0  0  0999 V2000
   -5.3700   25.7700  -30.4750 C   0  0  0  0  0  0  0  0  0  0  0  0
   -4.0770   25.1840  -30.5880 O   0  0  0  0  0  0  0  0  0  0  0  0
   -3.7760   23.8580  -30.2430 C   0  0  0  0  0  0  0  0  0  0  0  0
   -3.7640   23.4090  -28.9100 C   0  0  0  0  0  0  0  0  0  0  0  0
   -3.4890   22.0720  -28.6220 C   0  0  0  0  0  0  0  0  0  0  0  0
   -3.2230   21.1710  -29.6540 C   0  0  0  0  0  0  0  0  0  0  0  0
   -3.2120   21.6020  -30.9920 C   0  0  0  0  0  0  0  0  0  0  0  0
   -2.9660   20.6270  -32.0790 C   0  0  0  0  0  0  0  0  0  0  0  0
   -2.1800   20.9410  -33.1930 C   0  0  0  0  0  0  0  0  0  0  0  0
   -1.9970   19.9860  -34.1880 C   0  0  0  0  0  0  0  0  0  0  0  0
   -2.6080   18.7400  -34.0640 C   0  0  0  0  0  0  0  0  0  0  0  0
   -2.4320   17.8740  -34.9630 O   0  0  0  0  0  0  0  0  0  0  0  0
   -3.3910   18.4730  -32.9680 N   0  0  0  0  0  0  0  0  0  0  0  0
   -4.0600   17.1730  -32.7940 C   0  0  0  0  0  0  0  0  0  0  0  0
   -5.2660   16.9860  -33.6600 N   0  0  0  0  0  0  0  0  0  0  0  0
   -5.4660   17.9590  -34.7490 C   0  0  0  0  0  0  0  0  0  0  0  0
   -6.0580   19.3140  -34.3030 C   0  0  0  0  0  0  0  0  0  0  0  0
   -6.8080   19.3180  -33.0230 N   0  0  0  0  0  0  0  0  0  0  0  0
   -7.3290   20.5950  -32.5200 C   0  0  0  0  0  0  0  0  0  0  0  0
   -6.4630   21.7070  -32.3470 C   0  0  0  0  0  0  0  0  0  0  0  0
   -6.9320   22.9290  -31.8610 C   0  0  0  0  0  0  0  0  0  0  0  0
   -8.2740   23.0860  -31.5360 C   0  0  0  0  0  0  0  0  0  0  0  0
   -9.1530   22.0180  -31.6910 C   0  0  0  0  0  0  0  0  0  0  0  0
   -8.6990   20.7840  -32.1690 C   0  0  0  0  0  0  0  0  0  0  0  0
   -9.6200   19.7940  -32.2520 F   0  0  0  0  0  0  0  0  0  0  0  0
   -6.9700   18.0920  -32.2160 C   0  0  0  0  0  0  0  0  0  0  0  0
   -6.5230   16.8130  -32.9180 C   0  0  0  0  0  0  0  0  0  0  0  0
   -3.5290   19.3900  -32.0060 N   0  0  0  0  0  0  0  0  0  0  0  0
   -3.4950   22.9520  -31.2730 C   0  0  0  0  0  0  0  0  0  0  0  0
   -5.6280   25.8869  -29.4121 H   0  0  0  0  0  0  0  0  0  0  0  0
   -5.3696   26.7559  -30.9628 H   0  0  0  0  0  0  0  0  0  0  0  0
   -6.1111   25.1198  -30.9628 H   0  0  0  0  0  0  0  0  0  0  0  0
   -3.9721   24.1144  -28.0920 H   0  0  0  0  0  0  0  0  0  0  0  0
   -3.4818   21.7267  -27.5776 H   0  0  0  0  0  0  0  0  0  0  0  0
   -3.0204   20.1157  -29.4187 H   0  0  0  0  0  0  0  0  0  0  0  0
   -1.7117   21.9324  -33.2812 H   0  0  0  0  0  0  0  0  0  0  0  0
   -1.3745   20.2130  -35.0661 H   0  0  0  0  0  0  0  0  0  0  0  0
   -3.3376   16.3782  -33.0314 H   0  0  0  0  0  0  0  0  0  0  0  0
   -4.4086   17.1326  -31.7515 H   0  0  0  0  0  0  0  0  0  0  0  0
   -5.1150   16.0660  -34.1400 H   0  0  0  0  0  0  0  0  0  0  0  0
   -4.4911   18.1498  -35.2213 H   0  0  0  0  0  0  0  0  0  0  0  0
   -6.1991   17.5105  -35.4356 H   0  0  0  0  0  0  0  0  0  0  0  0
   -5.2258   20.0267  -34.2053 H   0  0  0  0  0  0  0  0  0  0  0  0
   -6.7963   19.5779  -35.0745 H   0  0  0  0  0  0  0  0  0  0  0  0
   -5.3980   21.6033  -32.6018 H   0  0  0  0  0  0  0  0  0  0  0  0
   -6.2360   23.7714  -31.7348 H   0  0  0  0  0  0  0  0  0  0  0  0
   -8.6405   24.0515  -31.1573 H   0  0  0  0  0  0  0  0  0  0  0  0
  -10.2152   22.1454  -31.4351 H   0  0  0  0  0  0  0  0  0  0  0  0
   -6.3777   18.2047  -31.2959 H   0  0  0  0  0  0  0  0  0  0  0  0
   -8.0472   17.9838  -32.0213 H   0  0  0  0  0  0  0  0  0  0  0  0
   -6.3805   16.0272  -32.1616 H   0  0  0  0  0  0  0  0  0  0  0  0
   -7.3037   16.5405  -33.6435 H   0  0  0  0  0  0  0  0  0  0  0  0
   -3.4954   23.3001  -32.3165 H   0  0  0  0  0  0  0  0  0  0  0  0
  1  2  1  0
  2  3  1  0
  3  4  2  0
  4  5  1  0
  5  6  2  0
  6  7  1  0
  7  8  1  0
  8  9  1  0
  9 10  2  0
 10 11  1  0
 11 12  2  0
 11 13  1  0
 13 14  1  0
 14 15  1  0
 15 16  1  0
 16 17  1  0
 17 18  1  0
 18 19  1  0
 19 20  2  0
 20 21  1  0
 21 22  2  0
 22 23  1  0
 23 24  2  0
 24 25  1  0
 18 26  1  0
 26 27  1  0
 13 28  1  0
  7 29  2  0
 29  3  1  0
 28  8  2  0
 27 15  1  0
 24 19  1  0
  1 30  1  0
  1 31  1  0
  1 32  1  0
  4 33  1  0
  5 34  1  0
  6 35  1  0
  9 36  1  0
 10 37  1  0
 14 38  1  0
 14 39  1  0
 15 40  1  0
 16 41  1  0
 16 42  1  0
 17 43  1  0
 17 44  1  0
 20 45  1  0
 21 46  1  0
 22 47  1  0
 23 48  1  0
 26 49  1  0
 26 50  1  0
 27 51  1  0
 27 52  1  0
 29 53  1  0
M  CHG  1  15   1
M  END
>  <UniqueID>  (3) 
3

>  <SMILES>  (3) 
COc1cccc(-c2ccc(=O)n(C[NH+]3CCN(c4ccccc4F)CC3)n2)c1

>  <Energy>  (3) 
77.16103151005792

>  <Genealogy>  (3) 
COc1cccc(-c2ccc(=O)n(C[NH+]3CCN(c4ccccc4F)CC3)n2)c1 (protonated)
COc1cccc(-c2ccc(=O)n(C[NH+]3CCN(c4ccccc4F)CC3)n2)c1 (3D coordinates assigned)
COc1cccc(-c2ccc(=O)n(C[NH+]3CCN(c4ccccc4F)CC3)n2)c1 (nonaromatic ring conformer: 77.16103151005792 kcal/mol)

>  <smiles>  (3) 
COc1cccc(-c2ccc(=O)n(CN3CCN(c4ccccc4F)CC3)n2)c1

>  <score_type>  (3) 
oracle

>  <origin>  (3) 
adg

>  <m_score__min__energy>  (3) 
-9.0399999999999991

>  <m_primary>  (3) 
energy

$$$$
3:0
     RDKit          3D

 59 63  0  0  0  0  0  0  0  0999 V2000
   -2.5500   21.9430  -34.0595 H   0  0  0  0  0  0  0  0  0  0  0  0
   -2.0920   21.1610  -33.4360 C   0  0  0  0  0  0  0  0  0  0  0  0
   -1.5290   21.4940  -32.2030 C   0  0  0  0  0  0  0  0  0  0  0  0
   -1.5232   22.5411  -31.8660 H   0  0  0  0  0  0  0  0  0  0  0  0
   -0.9730   20.4980  -31.3970 C   0  0  0  0  0  0  0  0  0  0  0  0
   -0.5464   20.7621  -30.4181 H   0  0  0  0  0  0  0  0  0  0  0  0
   -0.9550   19.1560  -31.8300 C   0  0  0  0  0  0  0  0  0  0  0  0
   -0.4530   18.1200  -31.0260 O   0  0  0  0  0  0  0  0  0  0  0  0
    0.7080   17.3560  -31.3330 C   0  0  0  0  0  0  0  0  0  0  0  0
    1.1939   17.0362  -30.3994 H   0  0  0  0  0  0  0  0  0  0  0  0
    0.4199   16.4704  -31.9184 H   0  0  0  0  0  0  0  0  0  0  0  0
    1.4074   17.9709  -31.9184 H   0  0  0  0  0  0  0  0  0  0  0  0
   -1.4630   18.8340  -33.1010 C   0  0  0  0  0  0  0  0  0  0  0  0
   -1.4730   17.4550  -33.5160 N   0  0  0  0  0  0  0  0  0  0  0  0
   -2.4370   16.5830  -33.4070 C   0  0  0  0  0  0  0  0  0  0  0  0
   -2.1240   15.3440  -32.9400 N   0  0  0  0  0  0  0  0  0  0  0  0
   -3.0550   14.3700  -32.7700 C   0  0  0  0  0  0  0  0  0  0  0  0
   -2.6630   13.1260  -32.2650 C   0  0  0  0  0  0  0  0  0  0  0  0
   -1.6023   12.9333  -32.0462 H   0  0  0  0  0  0  0  0  0  0  0  0
   -3.6140   12.1260  -32.0370 C   0  0  0  0  0  0  0  0  0  0  0  0
   -3.3006   11.1505  -31.6368 H   0  0  0  0  0  0  0  0  0  0  0  0
   -4.9610   12.3650  -32.3170 C   0  0  0  0  0  0  0  0  0  0  0  0
   -5.7073   11.5782  -32.1327 H   0  0  0  0  0  0  0  0  0  0  0  0
   -5.3650   13.6040  -32.8320 C   0  0  0  0  0  0  0  0  0  0  0  0
   -6.4287   13.7865  -33.0448 H   0  0  0  0  0  0  0  0  0  0  0  0
   -4.4150   14.6210  -33.0800 C   0  0  0  0  0  0  0  0  0  0  0  0
   -4.7690   15.8910  -33.6010 C   0  0  0  0  0  0  0  0  0  0  0  0
   -6.1680   16.2410  -33.9560 C   0  0  0  0  0  0  0  0  0  0  0  0
   -6.8880   15.3900  -34.5510 O   0  0  0  0  0  0  0  0  0  0  0  0
   -6.7310   17.5160  -33.5590 N   0  0  0  0  0  0  0  0  0  0  0  0
   -7.7510   17.5060  -33.7940 H   0  0  0  0  0  0  0  0  0  0  0  0
   -6.6480   17.6840  -32.0890 C   0  0  0  0  0  0  0  0  0  0  0  0
   -7.2937   16.9373  -31.6036 H   0  0  0  0  0  0  0  0  0  0  0  0
   -5.6022   17.5465  -31.7769 H   0  0  0  0  0  0  0  0  0  0  0  0
   -7.1040   19.0880  -31.6750 C   0  0  0  0  0  0  0  0  0  0  0  0
   -8.1621   19.2203  -31.9450 H   0  0  0  0  0  0  0  0  0  0  0  0
   -6.9759   19.2002  -30.5883 H   0  0  0  0  0  0  0  0  0  0  0  0
   -6.2960   20.1100  -32.3610 N   0  0  0  0  0  0  0  0  0  0  0  0
   -6.2250   21.4510  -31.8220 C   0  0  0  0  0  0  0  0  0  0  0  0
   -4.9910   22.0090  -31.4380 C   0  0  0  0  0  0  0  0  0  0  0  0
   -4.0676   21.4236  -31.5592 H   0  0  0  0  0  0  0  0  0  0  0  0
   -4.9270   23.3000  -30.9040 C   0  0  0  0  0  0  0  0  0  0  0  0
   -3.9560   23.7234  -30.6076 H   0  0  0  0  0  0  0  0  0  0  0  0
   -6.0920   24.0530  -30.7460 C   0  0  0  0  0  0  0  0  0  0  0  0
   -6.0060   25.6750  -30.0790 Cl  0  0  0  0  0  0  0  0  0  0  0  0
   -7.3220   23.5120  -31.1230 C   0  0  0  0  0  0  0  0  0  0  0  0
   -8.2411   24.1033  -30.9985 H   0  0  0  0  0  0  0  0  0  0  0  0
   -7.3920   22.2200  -31.6590 C   0  0  0  0  0  0  0  0  0  0  0  0
   -8.3662   21.8035  -31.9547 H   0  0  0  0  0  0  0  0  0  0  0  0
   -5.4240   19.7030  -33.4720 C   0  0  0  0  0  0  0  0  0  0  0  0
   -5.2026   20.5809  -34.0967 H   0  0  0  0  0  0  0  0  0  0  0  0
   -4.4956   19.2846  -33.0560 H   0  0  0  0  0  0  0  0  0  0  0  0
   -6.1060   18.6260  -34.3380 C   0  0  0  0  0  0  0  0  0  0  0  0
   -6.8910   19.1114  -34.9365 H   0  0  0  0  0  0  0  0  0  0  0  0
   -5.3169   18.1720  -34.9554 H   0  0  0  0  0  0  0  0  0  0  0  0
   -3.7680   16.8580  -33.7810 C   0  0  0  0  0  0  0  0  0  0  0  0
   -4.0233   17.8355  -34.2161 H   0  0  0  0  0  0  0  0  0  0  0  0
   -2.0750   19.8360  -33.8800 C   0  0  0  0  0  0  0  0  0  0  0  0
   -2.5412   19.5743  -34.8413 H   0  0  0  0  0  0  0  0  0  0  0  0
  1  2  1  0
  2  3  2  0
  3  4  1  0
  3  5  1  0
  5  6  1  0
  5  7  2  0
  7  8  1  0
  8  9  1  0
  9 10  1  0
  9 11  1  0
  9 12  1  0
  7 13  1  0
 13 14  1  0
 14 15  2  0
 15 16  1  0
 16 17  1  0
 17 18  2  0
 18 19  1  0
 18 20  1  0
 20 21  1  0
 20 22  2  0
 22 23  1  0
 22 24  1  0
 24 25  1  0
 24 26  2  0
 26 27  1  0
 27 28  1  0
 28 29  2  0
 28 30  1  0
 30 31  1  0
 30 32  1  0
 32 33  1  0
 32 34  1  0
 32 35  1  0
 35 36  1  0
 35 37  1  0
 35 38  1  0
 38 39  1  0
 39 40  2  0
 40 41  1  0
 40 42  1  0
 42 43  1  0
 42 44  2  0
 44 45  1  0
 44 46  1  0
 46 47  1  0
 46 48  2  0
 48 49  1  0
 38 50  1  0
 50 51  1  0
 50 52  1  0
 50 53  1  0
 53 54  1  0
 53 55  1  0
 27 56  2  0
 56 57  1  0
 13 58  2  0
 58 59  1  0
 58  2  1  0
 56 15  1  0
 26 17  1  0
 53 30  1  0
 48 39  1  0
M  CHG  2  16  -1  30   1
M  END
>  <UniqueID>  (4) 
4

>  <SMILES>  (4) 
COc1ccccc1/N=c1\cc(C(=O)[NH+]2CCN(c3ccc(Cl)cc3)CC2)c2ccccc2[n-]1

>  <Energy>  (4) 
96.78114082453214

>  <Genealogy>  (4) 
COc1ccccc1N=c1cc(C(=O)[NH+]2CCN(c3ccc(Cl)cc3)CC2)c2ccccc2[n-]1 (protonated)
COc1ccccc1/N=c1\cc(C(=O)[NH+]2CCN(c3ccc(Cl)cc3)CC2)c2ccccc2[n-]1 (cis-trans isomerization)
COc1ccccc1/N=c1\cc(C(=O)[NH+]2CCN(c3ccc(Cl)cc3)CC2)c2ccccc2[n-]1 (3D coordinates assigned)
COc1ccccc1/N=c1\cc(C(=O)[NH+]2CCN(c3ccc(Cl)cc3)CC2)c2ccccc2[n-]1 (nonaromatic ring conformer: 96.78114082453214 kcal/mol)

>  <smiles>  (4) 
COc1ccccc1N=c1cc(C(=O)N2CCN(c3ccc(Cl)cc3)CC2)c2ccccc2[nH]1

>  <score_type>  (4) 
oracle

>  <origin>  (4) 
adg

>  <m_score__min__energy>  (4) 
-9.8699999999999992

>  <m_primary>  (4) 
energy

$$$$
4:0
     RDKit          3D

 43 45  0  0  0  0  0  0  0  0999 V2000
   -9.0940   22.8430  -31.9730 C   0  0  0  0  0  0  0  0  0  0  0  0
   -9.5440   21.3890  -32.0790 C   0  0  0  0  0  0  0  0  0  0  0  0
   -8.7160   20.4860  -31.1530 C   0  0  0  0  0  0  0  0  0  0  0  0
   -8.4010   19.1230  -31.7780 C   0  0  0  0  0  0  0  0  0  0  0  0
   -7.6640   19.2640  -33.0360 N   0  0  0  0  0  0  0  0  0  0  0  0
   -6.3330   18.7610  -33.2180 C   0  0  0  0  0  0  0  0  0  0  0  0
   -5.1530   19.4100  -32.8660 C   0  0  0  0  0  0  0  0  0  0  0  0
   -4.9950   20.7870  -32.3440 C   0  0  0  0  0  0  0  0  0  0  0  0
   -5.9590   21.7620  -32.6490 C   0  0  0  0  0  0  0  0  0  0  0  0
   -5.8280   23.0660  -32.1640 C   0  0  0  0  0  0  0  0  0  0  0  0
   -4.7410   23.4190  -31.3570 C   0  0  0  0  0  0  0  0  0  0  0  0
   -4.6520   24.7410  -30.8980 O   0  0  0  0  0  0  0  0  0  0  0  0
   -5.6800   25.4130  -30.1780 C   0  0  0  0  0  0  0  0  0  0  0  0
   -3.7820   22.4410  -31.0340 C   0  0  0  0  0  0  0  0  0  0  0  0
   -3.9140   21.1370  -31.5190 C   0  0  0  0  0  0  0  0  0  0  0  0
   -4.1070   18.5630  -33.0320 N   0  0  0  0  0  0  0  0  0  0  0  0
   -4.6810   17.4230  -33.4670 C   0  0  0  0  0  0  0  0  0  0  0  0
   -4.0080   16.2320  -33.7340 C   0  0  0  0  0  0  0  0  0  0  0  0
   -4.7740   15.1150  -34.0970 C   0  0  0  0  0  0  0  0  0  0  0  0
   -6.1770   15.2070  -34.1600 C   0  0  0  0  0  0  0  0  0  0  0  0
   -7.2230   13.6730  -34.6070 Br  0  0  0  0  0  0  0  0  0  0  0  0
   -6.8030   16.4300  -33.8750 C   0  0  0  0  0  0  0  0  0  0  0  0
   -6.0210   17.5010  -33.5720 N   0  0  0  0  0  0  0  0  0  0  0  0
   -9.0072   23.1236  -30.9129 H   0  0  0  0  0  0  0  0  0  0  0  0
   -8.1172   22.9613  -32.4648 H   0  0  0  0  0  0  0  0  0  0  0  0
   -9.8332   23.4924  -32.4648 H   0  0  0  0  0  0  0  0  0  0  0  0
  -10.6044   21.3193  -31.7949 H   0  0  0  0  0  0  0  0  0  0  0  0
   -9.3992   21.0528  -33.1163 H   0  0  0  0  0  0  0  0  0  0  0  0
   -7.7681   20.9942  -30.9223 H   0  0  0  0  0  0  0  0  0  0  0  0
   -9.3131   20.3046  -30.2472 H   0  0  0  0  0  0  0  0  0  0  0  0
   -7.7932   18.5384  -31.0718 H   0  0  0  0  0  0  0  0  0  0  0  0
   -9.3526   18.6144  -31.9919 H   0  0  0  0  0  0  0  0  0  0  0  0
   -8.1500   19.6750  -33.8650 H   0  0  0  0  0  0  0  0  0  0  0  0
   -6.8240   21.4970  -33.2747 H   0  0  0  0  0  0  0  0  0  0  0  0
   -6.5860   23.8213  -32.4189 H   0  0  0  0  0  0  0  0  0  0  0  0
   -5.5057   25.2991  -29.0979 H   0  0  0  0  0  0  0  0  0  0  0  0
   -5.6728   26.4813  -30.4399 H   0  0  0  0  0  0  0  0  0  0  0  0
   -6.6557   24.9778  -30.4399 H   0  0  0  0  0  0  0  0  0  0  0  0
   -2.9247   22.7041  -30.3970 H   0  0  0  0  0  0  0  0  0  0  0  0
   -3.1641   20.3778  -31.2520 H   0  0  0  0  0  0  0  0  0  0  0  0
   -2.9121   16.1703  -33.6623 H   0  0  0  0  0  0  0  0  0  0  0  0
   -4.2763   14.1630  -34.3335 H   0  0  0  0  0  0  0  0  0  0  0  0
   -7.8991   16.5205  -33.8961 H   0  0  0  0  0  0  0  0  0  0  0  0
  1  2  1  0
  2  3  1  0
  3  4  1  0
  4  5  1  0
  5  6  1  0
  6  7  2  0
  7  8  1  0
  8  9  2  0
  9 10  1  0
 10 11  2  0
 11 12  1  0
 12 13  1  0
 11 14  1  0
 14 15  2  0
  7 16  1  0
 16 17  2  0
 17 18  1  0
 18 19  2  0
 19 20  1  0
 20 21  1  0
 20 22  2  0
 22 23  1  0
 23  6  1  0
 15  8  1  0
 23 17  1  0
  1 24  1  0
  1 25  1  0
  1 26  1  0
  2 27  1  0
  2 28  1  0
  3 29  1  0
  3 30  1  0
  4 31  1  0
  4 32  1  0
  5 33  1  0
  9 34  1  0
 10 35  1  0
 13 36  1  0
 13 37  1  0
 13 38  1  0
 14 39  1  0
 15 40  1  0
 18 41  1  0
 19 42  1  0
 22 43  1  0
M  END
>  <UniqueID>  (5) 
5

>  <SMILES>  (5) 
CCCCNc1c(-c2ccc(OC)cc2)nc2ccc(Br)cn12

>  <Energy>  (5) 
79.97630923633781

>  <Genealogy>  (5) 
CCCCNc1c(-c2ccc(OC)cc2)nc2ccc(Br)cn12 (3D coordinates assigned)
CCCCNc1c(-c2ccc(OC)cc2)nc2ccc(Br)cn12 (optimized conformer: 79.97630923633781 kcal/mol)

>  <smiles>  (5) 
CCCCNc1c(-c2ccc(OC)cc2)nc2ccc(Br)cn12

>  <score_type>  (5) 
oracle

>  <origin>  (5) 
adg

>  <m_score__min__energy>  (5) 
-8.1999999999999993

>  <m_primary>  (5) 
energy

$$$$
5:0
     RDKit          3D

 49 50  0  0  0  0  0  0  0  0999 V2000
   -3.2440   19.0760  -33.3360 C   0  0  0  0  0  0  0  0  0  0  0  0
   -2.5430   20.4290  -33.4480 C   0  0  0  0  0  0  0  0  0  0  0  0
   -3.5260   21.6060  -33.4520 C   0  0  0  0  0  0  0  0  0  0  0  0
   -4.0330   22.0940  -31.8050 S   0  0  0  0  0  0  0  0  0  0  0  0
   -3.3640   23.3860  -31.4240 O   0  0  0  0  0  0  0  0  0  0  0  0
   -3.6330   21.0390  -30.8120 O   0  0  0  0  0  0  0  0  0  0  0  0
   -5.7590   22.3200  -31.7900 N   0  0  0  0  0  0  0  0  0  0  0  0
   -6.4570   23.4610  -31.5480 C   0  0  0  0  0  0  0  0  0  0  0  0
   -5.7400   25.0760  -31.2170 S   0  0  0  0  0  0  0  0  0  0  0  0
   -5.7800   24.9050  -29.3990 C   0  0  0  0  0  0  0  0  0  0  0  0
   -4.9390   23.7110  -28.9340 C   0  0  0  0  0  0  0  0  0  0  0  0
   -3.6490   24.1680  -28.3710 N   0  0  0  0  0  0  0  0  0  0  0  0
   -2.6250   23.1130  -28.4750 C   0  0  0  0  0  0  0  0  0  0  0  0
   -3.8190   24.5450  -26.9590 C   0  0  0  0  0  0  0  0  0  0  0  0
   -7.8260   23.2240  -31.5940 C   0  0  0  0  0  0  0  0  0  0  0  0
   -7.9450   21.8780  -31.8600 C   0  0  0  0  0  0  0  0  0  0  0  0
   -9.0600   21.0590  -32.0030 C   0  0  0  0  0  0  0  0  0  0  0  0
  -10.2260   21.5240  -31.9020 O   0  0  0  0  0  0  0  0  0  0  0  0
   -8.8710   19.7600  -32.2500 O   0  0  0  0  0  0  0  0  0  0  0  0
   -7.6510   19.2100  -32.3650 C   0  0  0  0  0  0  0  0  0  0  0  0
   -7.5110   17.8420  -32.6220 O   0  0  0  0  0  0  0  0  0  0  0  0
   -6.3130   17.2630  -33.1300 C   0  0  0  0  0  0  0  0  0  0  0  0
   -6.0940   17.6660  -34.5850 C   0  0  0  0  0  0  0  0  0  0  0  0
   -6.4960   20.0010  -32.2250 C   0  0  0  0  0  0  0  0  0  0  0  0
   -6.6870   21.3590  -31.9710 C   0  0  0  0  0  0  0  0  0  0  0  0
   -3.3772   18.8188  -32.2748 H   0  0  0  0  0  0  0  0  0  0  0  0
   -4.2272   19.1307  -33.8263 H   0  0  0  0  0  0  0  0  0  0  0  0
   -2.6322   18.3044  -33.8263 H   0  0  0  0  0  0  0  0  0  0  0  0
   -1.8603   20.5435  -32.5931 H   0  0  0  0  0  0  0  0  0  0  0  0
   -2.0018   20.4447  -34.4055 H   0  0  0  0  0  0  0  0  0  0  0  0
   -3.0430   22.4654  -33.9399 H   0  0  0  0  0  0  0  0  0  0  0  0
   -4.4273   21.2823  -33.9932 H   0  0  0  0  0  0  0  0  0  0  0  0
   -5.3810   25.8234  -28.9437 H   0  0  0  0  0  0  0  0  0  0  0  0
   -6.8220   24.7380  -29.0885 H   0  0  0  0  0  0  0  0  0  0  0  0
   -5.4938   23.1571  -28.1624 H   0  0  0  0  0  0  0  0  0  0  0  0
   -4.7375   23.0619  -29.7989 H   0  0  0  0  0  0  0  0  0  0  0  0
   -2.3193   22.7980  -27.4664 H   0  0  0  0  0  0  0  0  0  0  0  0
   -3.0402   22.2513  -29.0181 H   0  0  0  0  0  0  0  0  0  0  0  0
   -1.7513   23.5023  -29.0181 H   0  0  0  0  0  0  0  0  0  0  0  0
   -3.4522   23.7316  -26.3156 H   0  0  0  0  0  0  0  0  0  0  0  0
   -3.2472   25.4618  -26.7529 H   0  0  0  0  0  0  0  0  0  0  0  0
   -4.8847   24.7234  -26.7529 H   0  0  0  0  0  0  0  0  0  0  0  0
   -8.6373   23.9526  -31.4495 H   0  0  0  0  0  0  0  0  0  0  0  0
   -5.4606   17.6095  -32.5272 H   0  0  0  0  0  0  0  0  0  0  0  0
   -6.3989   16.1677  -33.0755 H   0  0  0  0  0  0  0  0  0  0  0  0
   -5.5691   18.6319  -34.6229 H   0  0  0  0  0  0  0  0  0  0  0  0
   -5.4884   16.8995  -35.0906 H   0  0  0  0  0  0  0  0  0  0  0  0
   -7.0667   17.7572  -35.0906 H   0  0  0  0  0  0  0  0  0  0  0  0
   -5.4885   19.5682  -32.3119 H   0  0  0  0  0  0  0  0  0  0  0  0
  1  2  1  0
  2  3  1  0
  3  4  1  0
  4  5  2  0
  4  6  2  0
  4  7  1  0
  7  8  1  0
  8  9  1  0
  9 10  1  0
 10 11  1  0
 11 12  1  0
 12 13  1  0
 12 14  1  0
  8 15  2  0
 15 16  1  0
 16 17  1  0
 17 18  2  0
 17 19  1  0
 19 20  1  0
 20 21  1  0
 21 22  1  0
 22 23  1  0
 20 24  2  0
 24 25  1  0
 25  7  1  0
 25 16  2  0
  1 26  1  0
  1 27  1  0
  1 28  1  0
  2 29  1  0
  2 30  1  0
  3 31  1  0
  3 32  1  0
 10 33  1  0
 10 34  1  0
 11 35  1  0
 11 36  1  0
 13 37  1  0
 13 38  1  0
 13 39  1  0
 14 40  1  0
 14 41  1  0
 14 42  1  0
 15 43  1  0
 22 44  1  0
 22 45  1  0
 23 46  1  0
 23 47  1  0
 23 48  1  0
 24 49  1  0
M  END
>  <UniqueID>  (6) 
6

>  <SMILES>  (6) 
CCCS(=O)(=O)n1c(SCCN(C)C)cc2c(=O)oc(OCC)cc21

>  <Energy>  (6) 
69.61293173599971

>  <Genealogy>  (6) 
CCCS(=O)(=O)n1c(SCCN(C)C)cc2c(=O)oc(OCC)cc21 (3D coordinates assigned)
CCCS(=O)(=O)n1c(SCCN(C)C)cc2c(=O)oc(OCC)cc21 (optimized conformer: 69.61293173599971 kcal/mol)

>  <smiles>  (6) 
CCCS(=O)(=O)n1c(SCCN(C)C)cc2c(=O)oc(OCC)cc21

>  <score_type>  (6) 
oracle

>  <origin>  (6) 
adg

>  <m_score__min__energy>  (6) 
-7.6100000000000003

>  <m_primary>  (6) 
energy

$$$$
6:0
     RDKit          3D

 42 44  0  0  0  0  0  0  0  0999 V2000
   -3.2100   18.9150  -26.3100 C   0  0  0  0  0  0  0  0  0  0  0  0
   -2.1730   19.5560  -27.0440 O   0  0  0  0  0  0  0  0  0  0  0  0
   -2.2870   20.8200  -27.6420 C   0  0  0  0  0  0  0  0  0  0  0  0
   -1.6130   21.8940  -27.0540 C   0  0  0  0  0  0  0  0  0  0  0  0
   -1.7010   23.1760  -27.6010 C   0  0  0  0  0  0  0  0  0  0  0  0
   -2.4620   23.3960  -28.7570 C   0  0  0  0  0  0  0  0  0  0  0  0
   -3.1240   22.3200  -29.3810 C   0  0  0  0  0  0  0  0  0  0  0  0
   -3.0530   21.0380  -28.8050 C   0  0  0  0  0  0  0  0  0  0  0  0
   -3.8570   22.5630  -30.6040 N   0  0  0  0  0  0  0  0  0  0  0  0
   -3.8040   21.6320  -31.7430 C   0  0  0  0  0  0  0  0  0  0  0  0
   -5.0000   21.8200  -32.7000 C   0  0  0  0  0  0  0  0  0  0  0  0
   -6.3160   21.5150  -32.0830 N   0  0  0  0  0  0  0  0  0  0  0  0
   -6.9030   20.3180  -32.7260 C   0  0  0  0  0  0  0  0  0  0  0  0
   -8.3690   20.0990  -32.2950 C   0  0  0  0  0  0  0  0  0  0  0  0
   -8.7130   20.9330  -31.2080 O   0  0  0  0  0  0  0  0  0  0  0  0
   -8.6400   22.2880  -31.6080 C   0  0  0  0  0  0  0  0  0  0  0  0
   -7.2560   22.6530  -32.1930 C   0  0  0  0  0  0  0  0  0  0  0  0
   -4.4600   23.8910  -30.7850 C   0  0  0  0  0  0  0  0  0  0  0  0
   -3.4920   24.9280  -30.4490 N   0  0  0  0  0  0  0  0  0  0  0  0
   -2.5790   24.7350  -29.3650 C   0  0  0  0  0  0  0  0  0  0  0  0
   -1.8740   25.6990  -28.9620 O   0  0  0  0  0  0  0  0  0  0  0  0
   -3.0222   19.0311  -25.2324 H   0  0  0  0  0  0  0  0  0  0  0  0
   -4.1769   19.3732  -26.5651 H   0  0  0  0  0  0  0  0  0  0  0  0
   -3.2325   17.8452  -26.5651 H   0  0  0  0  0  0  0  0  0  0  0  0
   -1.0070   21.7278  -26.1511 H   0  0  0  0  0  0  0  0  0  0  0  0
   -1.1722   24.0142  -27.1238 H   0  0  0  0  0  0  0  0  0  0  0  0
   -3.5986   20.2010  -29.2651 H   0  0  0  0  0  0  0  0  0  0  0  0
   -2.8721   21.8062  -32.3009 H   0  0  0  0  0  0  0  0  0  0  0  0
   -3.8447   20.6070  -31.3459 H   0  0  0  0  0  0  0  0  0  0  0  0
   -5.0107   22.8660  -33.0402 H   0  0  0  0  0  0  0  0  0  0  0  0
   -4.8622   21.1090  -33.5279 H   0  0  0  0  0  0  0  0  0  0  0  0
   -6.1730   21.2880  -31.0730 H   0  0  0  0  0  0  0  0  0  0  0  0
   -6.8679   20.4466  -33.8179 H   0  0  0  0  0  0  0  0  0  0  0  0
   -6.3190   19.4398  -32.4134 H   0  0  0  0  0  0  0  0  0  0  0  0
   -9.0302   20.3259  -33.1443 H   0  0  0  0  0  0  0  0  0  0  0  0
   -8.4863   19.0515  -31.9804 H   0  0  0  0  0  0  0  0  0  0  0  0
   -9.4077   22.4727  -32.3738 H   0  0  0  0  0  0  0  0  0  0  0  0
   -8.8038   22.9115  -30.7167 H   0  0  0  0  0  0  0  0  0  0  0  0
   -7.3732   22.9214  -33.2533 H   0  0  0  0  0  0  0  0  0  0  0  0
   -6.8476   23.5008  -31.6234 H   0  0  0  0  0  0  0  0  0  0  0  0
   -4.7719   24.0097  -31.8331 H   0  0  0  0  0  0  0  0  0  0  0  0
   -5.3335   23.9842  -30.1230 H   0  0  0  0  0  0  0  0  0  0  0  0
  1  2  1  0
  2  3  1  0
  3  4  2  0
  4  5  1  0
  5  6  2  0
  6  7  1  0
  7  8  2  0
  7  9  1  0
  9 10  1  0
 10 11  1  0
 11 12  1  0
 12 13  1  0
 13 14  1  0
 14 15  1  0
 15 16  1  0
 16 17  1  0
  9 18  1  0
 18 19  1  0
 19 20  1  0
 20 21  2  0
  8  3  1  0
 17 12  1  0
 20  6  1  0
  1 22  1  0
  1 23  1  0
  1 24  1  0
  4 25  1  0
  5 26  1  0
  8 27  1  0
 10 28  1  0
 10 29  1  0
 11 30  1  0
 11 31  1  0
 12 32  1  0
 13 33  1  0
 13 34  1  0
 14 35  1  0
 14 36  1  0
 16 37  1  0
 16 38  1  0
 17 39  1  0
 17 40  1  0
 18 41  1  0
 18 42  1  0
M  CHG  2  12   1  19  -1
M  END
>  <UniqueID>  (7) 
7

>  <SMILES>  (7) 
COc1ccc2c(c1)N(CC[NH+]1CCOCC1)C[N-]C2=O

>  <Energy>  (7) 
54.496488342480745

>  <Genealogy>  (7) 
COc1ccc2c(c1)N(CC[NH+]1CCOCC1)C[N-]C2=O (protonated)
COc1ccc2c(c1)N(CC[NH+]1CCOCC1)C[N-]C2=O (3D coordinates assigned)
COc1ccc2c(c1)N(CC[NH+]1CCOCC1)C[N-]C2=O (nonaromatic ring conformer: 54.496488342480745 kcal/mol)

>  <smiles>  (7) 
COc1ccc2c(c1)N(CCN1CCOCC1)CNC2=O

>  <score_type>  (7) 
oracle

>  <origin>  (7) 
adg

>  <m_score__min__energy>  (7) 
-8.1500000000000004

>  <m_primary>  (7) 
energy

$$$$
7:0
     RDKit          3D

 57 60  0  0  0  0  0  0  0  0999 V2000
    2.1740   29.0790  -21.4690 C   0  0  0  0  0  0  0  0  0  0  0  0
    2.9350   28.4070  -22.6210 C   0  0  0  0  0  0  0  0  0  0  0  0
    2.3120   27.1340  -23.0700 N   0  0  0  0  0  0  0  0  0  0  0  0
    3.2980   26.0380  -23.2810 C   0  0  0  0  0  0  0  0  0  0  0  0
    2.7630   24.8420  -24.0850 C   0  0  0  0  0  0  0  0  0  0  0  0
    1.4800   27.3400  -24.2890 C   0  0  0  0  0  0  0  0  0  0  0  0
    0.2740   28.2750  -24.0580 C   0  0  0  0  0  0  0  0  0  0  0  0
   -0.9890   27.5670  -24.3430 N   0  0  0  0  0  0  0  0  0  0  0  0
   -0.8200   26.1080  -24.3740 C   0  0  0  0  0  0  0  0  0  0  0  0
   -1.5090   25.5160  -25.5760 C   0  0  0  0  0  0  0  0  0  0  0  0
   -2.9090   25.4560  -25.6280 C   0  0  0  0  0  0  0  0  0  0  0  0
   -3.5510   24.9020  -26.7390 C   0  0  0  0  0  0  0  0  0  0  0  0
   -2.8050   24.4020  -27.8230 C   0  0  0  0  0  0  0  0  0  0  0  0
   -3.4940   23.7940  -28.9910 C   0  0  0  0  0  0  0  0  0  0  0  0
   -4.4200   24.4150  -29.8320 C   0  0  0  0  0  0  0  0  0  0  0  0
   -4.8820   23.5930  -30.8680 C   0  0  0  0  0  0  0  0  0  0  0  0
   -4.3240   22.3210  -30.8510 C   0  0  0  0  0  0  0  0  0  0  0  0
   -4.5990   21.2470  -31.8140 C   0  0  0  0  0  0  0  0  0  0  0  0
   -3.6180   20.6230  -32.5180 N   0  0  0  0  0  0  0  0  0  0  0  0
   -4.3060   19.7310  -33.2450 C   0  0  0  0  0  0  0  0  0  0  0  0
   -3.8050   18.8050  -34.1570 C   0  0  0  0  0  0  0  0  0  0  0  0
   -4.7260   17.9610  -34.8050 C   0  0  0  0  0  0  0  0  0  0  0  0
   -6.1090   18.0640  -34.5260 C   0  0  0  0  0  0  0  0  0  0  0  0
   -6.5790   19.0130  -33.5970 C   0  0  0  0  0  0  0  0  0  0  0  0
   -5.6370   19.8310  -32.9760 C   0  0  0  0  0  0  0  0  0  0  0  0
   -5.8540   20.7890  -32.0650 N   0  0  0  0  0  0  0  0  0  0  0  0
   -3.2650   22.2170  -29.5510 S   0  0  0  0  0  0  0  0  0  0  0  0
   -1.4000   24.4730  -27.7680 C   0  0  0  0  0  0  0  0  0  0  0  0
   -0.7590   25.0240  -26.6550 C   0  0  0  0  0  0  0  0  0  0  0  0
    2.5755   28.7245  -20.5082 H   0  0  0  0  0  0  0  0  0  0  0  0
    2.2952   30.1702  -21.5368 H   0  0  0  0  0  0  0  0  0  0  0  0
    1.1062   28.8237  -21.5368 H   0  0  0  0  0  0  0  0  0  0  0  0
    2.9640   29.1018  -23.4733 H   0  0  0  0  0  0  0  0  0  0  0  0
    3.9422   28.1654  -22.2507 H   0  0  0  0  0  0  0  0  0  0  0  0
    1.6810   26.8020  -22.3020 H   0  0  0  0  0  0  0  0  0  0  0  0
    4.1630   26.4535  -23.8187 H   0  0  0  0  0  0  0  0  0  0  0  0
    3.5546   25.6531  -22.2830 H   0  0  0  0  0  0  0  0  0  0  0  0
    2.4139   24.0616  -23.3928 H   0  0  0  0  0  0  0  0  0  0  0  0
    1.9263   25.1710  -24.7187 H   0  0  0  0  0  0  0  0  0  0  0  0
    3.5660   24.4375  -24.7187 H   0  0  0  0  0  0  0  0  0  0  0  0
    2.1144   27.7769  -25.0742 H   0  0  0  0  0  0  0  0  0  0  0  0
    1.0782   26.3575  -24.5774 H   0  0  0  0  0  0  0  0  0  0  0  0
    0.2721   28.6119  -23.0109 H   0  0  0  0  0  0  0  0  0  0  0  0
    0.3584   29.1391  -24.7334 H   0  0  0  0  0  0  0  0  0  0  0  0
   -1.6640   27.7810  -23.5730 H   0  0  0  0  0  0  0  0  0  0  0  0
    0.2530   25.8699  -24.4195 H   0  0  0  0  0  0  0  0  0  0  0  0
   -1.2681   25.6813  -23.4645 H   0  0  0  0  0  0  0  0  0  0  0  0
   -3.5050   25.8469  -24.7902 H   0  0  0  0  0  0  0  0  0  0  0  0
   -4.6497   24.8563  -26.7666 H   0  0  0  0  0  0  0  0  0  0  0  0
   -4.7555   25.4534  -29.6937 H   0  0  0  0  0  0  0  0  0  0  0  0
   -5.6140   23.9221  -31.6203 H   0  0  0  0  0  0  0  0  0  0  0  0
   -2.7268   18.7358  -34.3636 H   0  0  0  0  0  0  0  0  0  0  0  0
   -4.3686   17.2172  -35.5323 H   0  0  0  0  0  0  0  0  0  0  0  0
   -6.8212   17.3996  -35.0372 H   0  0  0  0  0  0  0  0  0  0  0  0
   -7.6513   19.1051  -33.3699 H   0  0  0  0  0  0  0  0  0  0  0  0
   -0.8015   24.0915  -28.6084 H   0  0  0  0  0  0  0  0  0  0  0  0
    0.3395   25.0722  -26.6247 H   0  0  0  0  0  0  0  0  0  0  0  0
  1  2  1  0
  2  3  1  0
  3  4  1  0
  4  5  1  0
  3  6  1  0
  6  7  1  0
  7  8  1  0
  8  9  1  0
  9 10  1  0
 10 11  2  0
 11 12  1  0
 12 13  2  0
 13 14  1  0
 14 15  2  0
 15 16  1  0
 16 17  2  0
 17 18  1  0
 18 19  2  0
 19 20  1  0
 20 21  2  0
 21 22  1  0
 22 23  2  0
 23 24  1  0
 24 25  2  0
 25 26  1  0
 17 27  1  0
 13 28  1  0
 28 29  2  0
 29 10  1  0
 27 14  1  0
 26 18  1  0
 25 20  1  0
  1 30  1  0
  1 31  1  0
  1 32  1  0
  2 33  1  0
  2 34  1  0
  3 35  1  0
  4 36  1  0
  4 37  1  0
  5 38  1  0
  5 39  1  0
  5 40  1  0
  6 41  1  0
  6 42  1  0
  7 43  1  0
  7 44  1  0
  8 45  1  0
  9 46  1  0
  9 47  1  0
 11 48  1  0
 12 49  1  0
 15 50  1  0
 16 51  1  0
 21 52  1  0
 22 53  1  0
 23 54  1  0
 24 55  1  0
 28 56  1  0
 29 57  1  0
M  CHG  2   3   1  26  -1
M  END
>  <UniqueID>  (8) 
8

>  <SMILES>  (8) 
CC[NH+](CC)CCNCc1ccc(-c2ccc(-c3nc4ccccc4[n-]3)s2)cc1

>  <Energy>  (8) 
127.53248514288607

>  <Genealogy>  (8) 
CC[NH+](CC)CCNCc1ccc(-c2ccc(-c3nc4ccccc4[n-]3)s2)cc1 (protonated)
CC[NH+](CC)CCNCc1ccc(-c2ccc(-c3nc4ccccc4[n-]3)s2)cc1 (3D coordinates assigned)
CC[NH+](CC)CCNCc1ccc(-c2ccc(-c3nc4ccccc4[n-]3)s2)cc1 (optimized conformer: 127.53248514288607 kcal/mol)

>  <smiles>  (8) 
CCN(CC)CCNCc1ccc(-c2ccc(-c3nc4ccccc4[nH]3)s2)cc1

>  <score_type>  (8) 
oracle

>  <origin>  (8) 
adg

>  <m_score__min__energy>  (8) 
-8.2200000000000006

>  <m_primary>  (8) 
energy

$$$$
8:0
     RDKit          3D

 53 54  0  0  0  0  0  0  0  0999 V2000
   -1.9570   25.9710  -25.4570 C   0  0  0  0  0  0  0  0  0  0  0  0
   -3.2300   25.3090  -25.9850 C   0  0  0  0  0  0  0  0  0  0  0  0
   -2.9710   24.3460  -27.1550 C   0  0  0  0  0  0  0  0  0  0  0  0
   -2.0230   24.9180  -28.2130 C   0  0  0  0  0  0  0  0  0  0  0  0
   -2.7550   25.2810  -29.3810 O   0  0  0  0  0  0  0  0  0  0  0  0
   -3.8620   24.5800  -29.8830 C   0  0  0  0  0  0  0  0  0  0  0  0
   -5.1760   25.0640  -29.7490 C   0  0  0  0  0  0  0  0  0  0  0  0
   -6.2520   24.3380  -30.2610 C   0  0  0  0  0  0  0  0  0  0  0  0
   -6.0390   23.1150  -30.9160 C   0  0  0  0  0  0  0  0  0  0  0  0
   -7.1870   22.3520  -31.4560 C   0  0  0  0  0  0  0  0  0  0  0  0
   -7.4450   22.3840  -32.6910 O   0  0  0  0  0  0  0  0  0  0  0  0
   -7.9880   21.5940  -30.5920 O   0  0  0  0  0  0  0  0  0  0  0  0
   -9.1100   20.8310  -31.0300 C   0  0  0  0  0  0  0  0  0  0  0  0
   -8.6560   19.6400  -31.8170 C   0  0  0  0  0  0  0  0  0  0  0  0
   -9.4320   18.6560  -31.9600 O   0  0  0  0  0  0  0  0  0  0  0  0
   -7.3430   19.6230  -32.3960 N   0  0  0  0  0  0  0  0  0  0  0  0
   -6.8560   18.5230  -33.2300 C   0  0  0  0  0  0  0  0  0  0  0  0
   -5.5980   18.9250  -34.0200 C   0  0  2  0  0  0  0  0  0  0  0  0
   -4.4220   17.9840  -33.7770 C   0  0  0  0  0  0  0  0  0  0  0  0
   -3.2450   18.9070  -33.8080 C   0  0  0  0  0  0  0  0  0  0  0  0
   -3.8440   20.2290  -33.3780 C   0  0  0  0  0  0  0  0  0  0  0  0
   -5.2130   20.2470  -33.7090 O   0  0  0  0  0  0  0  0  0  0  0  0
   -4.7260   22.6310  -31.0490 C   0  0  0  0  0  0  0  0  0  0  0  0
   -3.6360   23.3590  -30.5350 C   0  0  0  0  0  0  0  0  0  0  0  0
   -2.3130   22.9030  -30.6500 O   0  0  0  0  0  0  0  0  0  0  0  0
   -1.9200   21.5370  -30.5870 C   0  0  0  0  0  0  0  0  0  0  0  0
   -1.9695   25.9645  -24.3571 H   0  0  0  0  0  0  0  0  0  0  0  0
   -1.0784   25.4155  -25.8170 H   0  0  0  0  0  0  0  0  0  0  0  0
   -1.9072   27.0092  -25.8170 H   0  0  0  0  0  0  0  0  0  0  0  0
   -3.6968   24.7446  -25.1643 H   0  0  0  0  0  0  0  0  0  0  0  0
   -3.8840   26.1102  -26.3596 H   0  0  0  0  0  0  0  0  0  0  0  0
   -2.5300   23.4212  -26.7547 H   0  0  0  0  0  0  0  0  0  0  0  0
   -3.9377   24.1653  -27.6478 H   0  0  0  0  0  0  0  0  0  0  0  0
   -1.5198   25.8082  -27.8076 H   0  0  0  0  0  0  0  0  0  0  0  0
   -1.2767   24.1547  -28.4783 H   0  0  0  0  0  0  0  0  0  0  0  0
   -5.3564   26.0209  -29.2373 H   0  0  0  0  0  0  0  0  0  0  0  0
   -7.2749   24.7271  -30.1505 H   0  0  0  0  0  0  0  0  0  0  0  0
   -9.6810   20.4903  -30.1537 H   0  0  0  0  0  0  0  0  0  0  0  0
   -9.7427   21.4624  -31.6711 H   0  0  0  0  0  0  0  0  0  0  0  0
   -6.6830   20.3980  -32.1630 H   0  0  0  0  0  0  0  0  0  0  0  0
   -6.6135   17.6660  -32.5845 H   0  0  0  0  0  0  0  0  0  0  0  0
   -7.6455   18.2616  -33.9500 H   0  0  0  0  0  0  0  0  0  0  0  0
   -5.8675   18.8553  -35.0842 H   0  0  0  0  0  0  0  0  0  0  0  0
   -4.5089   17.4858  -32.8002 H   0  0  0  0  0  0  0  0  0  0  0  0
   -4.3563   17.1706  -34.5146 H   0  0  0  0  0  0  0  0  0  0  0  0
   -2.4651   18.5782  -33.1054 H   0  0  0  0  0  0  0  0  0  0  0  0
   -2.7521   18.9513  -34.7904 H   0  0  0  0  0  0  0  0  0  0  0  0
   -3.7268   20.3498  -32.2910 H   0  0  0  0  0  0  0  0  0  0  0  0
   -3.3285   21.0531  -33.8930 H   0  0  0  0  0  0  0  0  0  0  0  0
   -4.5482   21.6733  -31.5601 H   0  0  0  0  0  0  0  0  0  0  0  0
   -1.8314   21.2291  -29.5347 H   0  0  0  0  0  0  0  0  0  0  0  0
   -2.6755   20.9146  -31.0888 H   0  0  0  0  0  0  0  0  0  0  0  0
   -0.9492   21.4112  -31.0888 H   0  0  0  0  0  0  0  0  0  0  0  0
  1  2  1  0
  2  3  1  0
  3  4  1  0
  4  5  1  0
  5  6  1  0
  6  7  2  0
  7  8  1  0
  8  9  2  0
  9 10  1  0
 10 11  2  0
 10 12  1  0
 12 13  1  0
 13 14  1  0
 14 15  2  0
 14 16  1  0
 16 17  1  0
 17 18  1  0
 18 19  1  0
 19 20  1  0
 20 21  1  0
 21 22  1  0
  9 23  1  0
 23 24  2  0
 24 25  1  0
 25 26  1  0
 24  6  1  0
 22 18  1  0
  1 27  1  0
  1 28  1  0
  1 29  1  0
  2 30  1  0
  2 31  1  0
  3 32  1  0
  3 33  1  0
  4 34  1  0
  4 35  1  0
  7 36  1  0
  8 37  1  0
 13 38  1  0
 13 39  1  0
 16 40  1  0
 17 41  1  0
 17 42  1  0
 18 43  1  6
 19 44  1  0
 19 45  1  0
 20 46  1  0
 20 47  1  0
 21 48  1  0
 21 49  1  0
 23 50  1  0
 26 51  1  0
 26 52  1  0
 26 53  1  0
M  END
>  <UniqueID>  (9) 
9

>  <SMILES>  (9) 
CCCCOc1ccc(C(=O)OCC(=O)NC[C@@H]2CCCO2)cc1OC

>  <Energy>  (9) 
39.101523291998916

>  <Genealogy>  (9) 
CCCCOc1ccc(C(=O)OCC(=O)NC[C@@H]2CCCO2)cc1OC (chirality)
CCCCOc1ccc(C(=O)OCC(=O)NC[C@@H]2CCCO2)cc1OC (3D coordinates assigned)
CCCCOc1ccc(C(=O)OCC(=O)NC[C@@H]2CCCO2)cc1OC (nonaromatic ring conformer: 39.101523291998916 kcal/mol)

>  <smiles>  (9) 
CCCCOc1ccc(C(=O)OCC(=O)NCC2CCCO2)cc1OC

>  <score_type>  (9) 
oracle

>  <origin>  (9) 
adg

>  <m_score__min__energy>  (9) 
-7.3700000000000001

>  <m_primary>  (9) 
energy

$$$$
9:0
     RDKit          3D

 51 54  0  0  0  0  0  0  0  0999 V2000
   -5.3890   24.7020  -30.0150 C   0  0  0  0  0  0  0  0  0  0  0  0
   -4.2180   24.2920  -30.7130 O   0  0  0  0  0  0  0  0  0  0  0  0
   -4.0670   23.0490  -31.3440 C   0  0  0  0  0  0  0  0  0  0  0  0
   -4.9080   22.7430  -32.4210 C   0  0  0  0  0  0  0  0  0  0  0  0
   -4.7940   21.5180  -33.0840 C   0  0  0  0  0  0  0  0  0  0  0  0
   -3.8270   20.5880  -32.6850 C   0  0  0  0  0  0  0  0  0  0  0  0
   -3.7170   19.2890  -33.3820 C   0  0  0  0  0  0  0  0  0  0  0  0
   -2.4720   18.8540  -33.7210 N   0  0  0  0  0  0  0  0  0  0  0  0
   -2.2830   17.6660  -34.3520 C   0  0  0  0  0  0  0  0  0  0  0  0
   -0.9890   17.2410  -34.6980 C   0  0  0  0  0  0  0  0  0  0  0  0
   -0.8000   16.0160  -35.3410 C   0  0  0  0  0  0  0  0  0  0  0  0
   -1.8970   15.2070  -35.6430 C   0  0  0  0  0  0  0  0  0  0  0  0
   -3.1880   15.6190  -35.3030 C   0  0  0  0  0  0  0  0  0  0  0  0
   -3.3900   16.8540  -34.6550 C   0  0  0  0  0  0  0  0  0  0  0  0
   -4.6700   17.3060  -34.2920 C   0  0  0  0  0  0  0  0  0  0  0  0
   -5.6760   16.5810  -34.5330 O   0  0  0  0  0  0  0  0  0  0  0  0
   -4.8260   18.5240  -33.6730 N   0  0  0  0  0  0  0  0  0  0  0  0
   -6.1800   18.9510  -33.2520 C   0  0  0  0  0  0  0  0  0  0  0  0
   -6.5510   18.3070  -31.9080 C   0  0  0  0  0  0  0  0  0  0  0  0
   -7.6130   19.0710  -31.2180 N   0  0  0  0  0  0  0  0  0  0  0  0
   -7.3750   20.5340  -31.2990 C   0  0  0  0  0  0  0  0  0  0  0  0
   -8.6890   21.3210  -31.1760 C   0  0  0  0  0  0  0  0  0  0  0  0
   -9.6260   21.0280  -32.2050 O   0  0  0  0  0  0  0  0  0  0  0  0
   -9.5110   19.7090  -32.7220 C   0  0  0  0  0  0  0  0  0  0  0  0
   -8.9610   18.6910  -31.7060 C   0  0  0  0  0  0  0  0  0  0  0  0
   -2.9930   20.8800  -31.5980 C   0  0  0  0  0  0  0  0  0  0  0  0
   -3.1050   22.1050  -30.9330 C   0  0  0  0  0  0  0  0  0  0  0  0
   -5.2107   24.6396  -28.9313 H   0  0  0  0  0  0  0  0  0  0  0  0
   -5.6338   25.7393  -30.2872 H   0  0  0  0  0  0  0  0  0  0  0  0
   -6.2274   24.0439  -30.2872 H   0  0  0  0  0  0  0  0  0  0  0  0
   -5.6640   23.4722  -32.7476 H   0  0  0  0  0  0  0  0  0  0  0  0
   -5.4666   21.2839  -33.9223 H   0  0  0  0  0  0  0  0  0  0  0  0
   -1.6440   19.4520  -33.4910 H   0  0  0  0  0  0  0  0  0  0  0  0
   -0.1221   17.8755  -34.4615 H   0  0  0  0  0  0  0  0  0  0  0  0
    0.2149   15.6879  -35.6100 H   0  0  0  0  0  0  0  0  0  0  0  0
   -1.7445   14.2428  -36.1499 H   0  0  0  0  0  0  0  0  0  0  0  0
   -4.0491   14.9776  -35.5418 H   0  0  0  0  0  0  0  0  0  0  0  0
   -6.1983   20.0458  -33.1466 H   0  0  0  0  0  0  0  0  0  0  0  0
   -6.9073   18.6322  -34.0132 H   0  0  0  0  0  0  0  0  0  0  0  0
   -6.9073   17.2821  -32.0886 H   0  0  0  0  0  0  0  0  0  0  0  0
   -5.6565   18.3024  -31.2679 H   0  0  0  0  0  0  0  0  0  0  0  0
   -6.7005   20.8330  -30.4831 H   0  0  0  0  0  0  0  0  0  0  0  0
   -6.9258   20.7591  -32.2775 H   0  0  0  0  0  0  0  0  0  0  0  0
   -9.1498   21.0794  -30.2068 H   0  0  0  0  0  0  0  0  0  0  0  0
   -8.4358   22.3878  -31.2642 H   0  0  0  0  0  0  0  0  0  0  0  0
  -10.5081   19.3741  -33.0439 H   0  0  0  0  0  0  0  0  0  0  0  0
   -8.7932   19.7518  -33.5545 H   0  0  0  0  0  0  0  0  0  0  0  0
   -9.6478   18.6376  -30.8484 H   0  0  0  0  0  0  0  0  0  0  0  0
   -8.8795   17.7164  -32.2095 H   0  0  0  0  0  0  0  0  0  0  0  0
   -2.2471   20.1427  -31.2663 H   0  0  0  0  0  0  0  0  0  0  0  0
   -2.4402   22.3323  -30.0866 H   0  0  0  0  0  0  0  0  0  0  0  0
  1  2  1  0
  2  3  1  0
  3  4  2  0
  4  5  1  0
  5  6  2  0
  6  7  1  0
  7  8  2  0
  8  9  1  0
  9 10  2  0
 10 11  1  0
 11 12  2  0
 12 13  1  0
 13 14  2  0
 14 15  1  0
 15 16  2  0
 15 17  1  0
 17 18  1  0
 18 19  1  0
 19 20  1  0
 20 21  1  0
 21 22  1  0
 22 23  1  0
 23 24  1  0
 24 25  1  0
  6 26  1  0
 26 27  2  0
 27  3  1  0
 17  7  1  0
 25 20  1  0
 14  9  1  0
  1 28  1  0
  1 29  1  0
  1 30  1  0
  4 31  1  0
  5 32  1  0
  8 33  1  0
 10 34  1  0
 11 35  1  0
 12 36  1  0
 13 37  1  0
 18 38  1  0
 18 39  1  0
 19 40  1  0
 19 41  1  0
 21 42  1  0
 21 43  1  0
 22 44  1  0
 22 45  1  0
 24 46  1  0
 24 47  1  0
 25 48  1  0
 25 49  1  0
 26 50  1  0
 27 51  1  0
M  CHG  1   8   1
M  END
>  <UniqueID>  (10) 
10

>  <SMILES>  (10) 
COc1ccc(-c2[nH+]c3ccccc3c(=O)n2CCN2CCOCC2)cc1

>  <Energy>  (10) 
82.36939172726314

>  <Genealogy>  (10) 
COc1ccc(-c2[nH+]c3ccccc3c(=O)n2CCN2CCOCC2)cc1 (protonated)
COc1ccc(-c2[nH+]c3ccccc3c(=O)n2CCN2CCOCC2)cc1 (3D coordinates assigned)
COc1ccc(-c2[nH+]c3ccccc3c(=O)n2CCN2CCOCC2)cc1 (nonaromatic ring conformer: 82.36939172726314 kcal/mol)

>  <smiles>  (10) 
COc1ccc(-c2nc3ccccc3c(=O)n2CCN2CCOCC2)cc1

>  <score_type>  (10) 
oracle

>  <origin>  (10) 
adg

>  <m_score__min__energy>  (10) 
-7.1900000000000004

>  <m_primary>  (10) 
energy

$$$$
10:0
     RDKit          3D

 65 68  0  0  0  0  0  0  0  0999 V2000
   -2.9860   15.8230  -34.4830 C   0  0  0  0  0  0  0  0  0  0  0  0
   -4.0900   16.4500  -35.1260 O   0  0  0  0  0  0  0  0  0  0  0  0
   -5.1170   17.1310  -34.4540 C   0  0  0  0  0  0  0  0  0  0  0  0
   -6.0440   16.3810  -33.7220 C   0  0  0  0  0  0  0  0  0  0  0  0
   -7.0930   17.0110  -33.0490 C   0  0  0  0  0  0  0  0  0  0  0  0
   -7.2260   18.4050  -33.0960 C   0  0  0  0  0  0  0  0  0  0  0  0
   -8.5660   19.1980  -32.2640 S   0  0  0  0  0  0  0  0  0  0  0  0
   -9.8400   18.9310  -33.0160 O   0  0  0  0  0  0  0  0  0  0  0  0
   -8.7090   18.6120  -30.8850 O   0  0  0  0  0  0  0  0  0  0  0  0
   -8.3150   20.9240  -32.1420 N   0  0  1  0  0  0  0  0  0  0  0  0
   -9.6150   21.6250  -32.0890 C   0  0  0  0  0  0  0  0  0  0  0  0
   -9.4580   23.1620  -31.9930 C   0  0  0  0  0  0  0  0  0  0  0  0
   -7.9990   23.6100  -31.8430 C   0  0  0  0  0  0  0  0  0  0  0  0
   -7.2710   22.7710  -30.7740 C   0  0  2  0  0  0  0  0  0  0  0  0
   -5.8430   23.1700  -30.6750 N   0  0  0  0  0  0  0  0  0  0  0  0
   -5.5410   24.5880  -30.9530 C   0  0  0  0  0  0  0  0  0  0  0  0
   -4.1380   24.9230  -30.4120 C   0  0  0  0  0  0  0  0  0  0  0  0
   -3.2070   23.7640  -30.4390 N   0  0  0  0  0  0  0  0  0  0  0  0
   -3.1240   23.0690  -29.1350 C   0  0  0  0  0  0  0  0  0  0  0  0
   -2.7010   24.0280  -28.0540 C   0  0  0  0  0  0  0  0  0  0  0  0
   -1.3960   24.5460  -28.0280 C   0  0  0  0  0  0  0  0  0  0  0  0
   -1.0120   25.4400  -27.0230 C   0  0  0  0  0  0  0  0  0  0  0  0
   -1.9230   25.8150  -26.0230 C   0  0  0  0  0  0  0  0  0  0  0  0
   -1.5250   26.8080  -24.9720 C   0  0  0  0  0  0  0  0  0  0  0  0
   -3.2320   25.3090  -26.0580 C   0  0  0  0  0  0  0  0  0  0  0  0
   -3.6160   24.4160  -27.0620 C   0  0  0  0  0  0  0  0  0  0  0  0
   -3.5180   22.8330  -31.5410 C   0  0  0  0  0  0  0  0  0  0  0  0
   -4.9560   22.2750  -31.4470 C   0  0  0  0  0  0  0  0  0  0  0  0
   -7.5000   21.2360  -30.9500 C   0  0  0  0  0  0  0  0  0  0  0  0
   -6.2920   19.1630  -33.8150 C   0  0  0  0  0  0  0  0  0  0  0  0
   -5.2460   18.5330  -34.4940 C   0  0  0  0  0  0  0  0  0  0  0  0
   -3.1090   15.8929  -33.3921 H   0  0  0  0  0  0  0  0  0  0  0  0
   -2.9414   14.7648  -34.7799 H   0  0  0  0  0  0  0  0  0  0  0  0
   -2.0543   16.3267  -34.7799 H   0  0  0  0  0  0  0  0  0  0  0  0
   -5.9457   15.2864  -33.6763 H   0  0  0  0  0  0  0  0  0  0  0  0
   -7.8177   16.4104  -32.4797 H   0  0  0  0  0  0  0  0  0  0  0  0
   -7.7960   21.2120  -33.0050 H   0  0  0  0  0  0  0  0  0  0  0  0
  -10.1823   21.3849  -33.0003 H   0  0  0  0  0  0  0  0  0  0  0  0
  -10.1400   21.2862  -31.1837 H   0  0  0  0  0  0  0  0  0  0  0  0
   -9.8706   23.6137  -32.9072 H   0  0  0  0  0  0  0  0  0  0  0  0
   -9.9961   23.4908  -31.0917 H   0  0  0  0  0  0  0  0  0  0  0  0
   -7.4844   23.4886  -32.8076 H   0  0  0  0  0  0  0  0  0  0  0  0
   -7.9864   24.6644  -31.5297 H   0  0  0  0  0  0  0  0  0  0  0  0
   -7.7232   22.9957  -29.7967 H   0  0  0  0  0  0  0  0  0  0  0  0
   -5.5684   24.7640  -32.0385 H   0  0  0  0  0  0  0  0  0  0  0  0
   -6.2888   25.2281  -30.4620 H   0  0  0  0  0  0  0  0  0  0  0  0
   -3.7101   25.7294  -31.0258 H   0  0  0  0  0  0  0  0  0  0  0  0
   -4.2564   25.2223  -29.3602 H   0  0  0  0  0  0  0  0  0  0  0  0
   -4.1102   22.6517  -28.8835 H   0  0  0  0  0  0  0  0  0  0  0  0
   -2.3792   22.2628  -29.2076 H   0  0  0  0  0  0  0  0  0  0  0  0
   -0.6727   24.2475  -28.8012 H   0  0  0  0  0  0  0  0  0  0  0  0
    0.0083   25.8510  -27.0163 H   0  0  0  0  0  0  0  0  0  0  0  0
   -1.6981   26.3761  -23.9752 H   0  0  0  0  0  0  0  0  0  0  0  0
   -0.4588   27.0540  -25.0849 H   0  0  0  0  0  0  0  0  0  0  0  0
   -2.1262   27.7222  -25.0849 H   0  0  0  0  0  0  0  0  0  0  0  0
   -3.9587   25.6168  -25.2917 H   0  0  0  0  0  0  0  0  0  0  0  0
   -4.6402   24.0150  -27.0753 H   0  0  0  0  0  0  0  0  0  0  0  0
   -3.4068   23.3660  -32.4968 H   0  0  0  0  0  0  0  0  0  0  0  0
   -2.8217   21.9842  -31.4720 H   0  0  0  0  0  0  0  0  0  0  0  0
   -5.3613   22.1623  -32.4634 H   0  0  0  0  0  0  0  0  0  0  0  0
   -4.9133   21.3058  -30.9285 H   0  0  0  0  0  0  0  0  0  0  0  0
   -6.5225   20.7417  -31.0505 H   0  0  0  0  0  0  0  0  0  0  0  0
   -8.0444   20.8733  -30.0657 H   0  0  0  0  0  0  0  0  0  0  0  0
   -6.3828   20.2588  -33.8449 H   0  0  0  0  0  0  0  0  0  0  0  0
   -4.5206   19.1341  -35.0619 H   0  0  0  0  0  0  0  0  0  0  0  0
  1  2  1  0
  2  3  1  0
  3  4  2  0
  4  5  1  0
  5  6  2  0
  6  7  1  0
  7  8  2  0
  7  9  2  0
  7 10  1  0
 10 11  1  0
 11 12  1  0
 12 13  1  0
 13 14  1  0
 14 15  1  0
 15 16  1  0
 16 17  1  0
 17 18  1  0
 18 19  1  0
 19 20  1  0
 20 21  2  0
 21 22  1  0
 22 23  2  0
 23 24  1  0
 23 25  1  0
 25 26  2  0
 18 27  1  0
 27 28  1  0
 14 29  1  0
  6 30  1  0
 30 31  2  0
 31  3  1  0
 29 10  1  0
 28 15  1  0
 26 20  1  0
  1 32  1  0
  1 33  1  0
  1 34  1  0
  4 35  1  0
  5 36  1  0
 10 37  1  6
 11 38  1  0
 11 39  1  0
 12 40  1  0
 12 41  1  0
 13 42  1  0
 13 43  1  0
 14 44  1  1
 16 45  1  0
 16 46  1  0
 17 47  1  0
 17 48  1  0
 19 49  1  0
 19 50  1  0
 21 51  1  0
 22 52  1  0
 24 53  1  0
 24 54  1  0
 24 55  1  0
 25 56  1  0
 26 57  1  0
 27 58  1  0
 27 59  1  0
 28 60  1  0
 28 61  1  0
 29 62  1  0
 29 63  1  0
 30 64  1  0
 31 65  1  0
M  CHG  1  10   1
M  END
>  <UniqueID>  (11) 
11

>  <SMILES>  (11) 
COc1ccc(S(=O)(=O)[N@H+]2CCC[C@H](N3CCN(Cc4ccc(C)cc4)CC3)C2)cc1

>  <Energy>  (11) 
86.47130796160671

>  <Genealogy>  (11) 
COc1ccc(S(=O)(=O)[NH+]2CCCC(N3CCN(Cc4ccc(C)cc4)CC3)C2)cc1 (protonated)
COc1ccc(S(=O)(=O)[N@H+]2CCC[C@H](N3CCN(Cc4ccc(C)cc4)CC3)C2)cc1 (chirality)
COc1ccc(S(=O)(=O)[N@H+]2CCC[C@H](N3CCN(Cc4ccc(C)cc4)CC3)C2)cc1 (3D coordinates assigned)
COc1ccc(S(=O)(=O)[N@H+]2CCC[C@H](N3CCN(Cc4ccc(C)cc4)CC3)C2)cc1 (nonaromatic ring conformer: 86.47130796160671 kcal/mol)

>  <smiles>  (11) 
COc1ccc(S(=O)(=O)N2CCCC(N3CCN(Cc4ccc(C)cc4)CC3)C2)cc1

>  <score_type>  (11) 
oracle

>  <origin>  (11) 
adg

>  <m_score__min__energy>  (11) 
-9.5899999999999999

>  <m_primary>  (11) 
energy

$$$$
11:0
     RDKit          3D

 42 44  0  0  0  0  0  0  0  0999 V2000
   -1.8920   24.9370  -28.2020 C   0  0  0  0  0  0  0  0  0  0  0  0
   -2.6760   25.2870  -29.3370 O   0  0  0  0  0  0  0  0  0  0  0  0
   -3.7110   24.4980  -29.8590 C   0  0  0  0  0  0  0  0  0  0  0  0
   -5.0150   24.9930  -30.0490 C   0  0  0  0  0  0  0  0  0  0  0  0
   -6.0140   24.1680  -30.5750 C   0  0  0  0  0  0  0  0  0  0  0  0
   -5.7300   22.8340  -30.9270 C   0  0  0  0  0  0  0  0  0  0  0  0
   -6.7770   21.9370  -31.4790 C   0  0  0  0  0  0  0  0  0  0  0  0
   -8.1460   22.2420  -31.3740 C   0  0  0  0  0  0  0  0  0  0  0  0
   -9.0880   21.3750  -31.9250 C   0  0  0  0  0  0  0  0  0  0  0  0
   -8.6730   20.2120  -32.5740 C   0  0  0  0  0  0  0  0  0  0  0  0
   -7.3030   19.9230  -32.6600 C   0  0  0  0  0  0  0  0  0  0  0  0
   -6.8300   18.7490  -33.3470 N   0  0  0  0  0  0  0  0  0  0  0  0
   -6.1070   18.8500  -34.6230 C   0  0  0  0  0  0  0  0  0  0  0  0
   -4.9460   17.8340  -34.6870 C   0  0  0  0  0  0  0  0  0  0  0  0
   -5.1040   16.7120  -33.7330 N   0  0  0  0  0  0  0  0  0  0  0  0
   -4.2770   15.5670  -34.1440 C   0  0  0  0  0  0  0  0  0  0  0  0
   -6.5140   16.3100  -33.6010 C   0  0  0  0  0  0  0  0  0  0  0  0
   -7.2870   17.4280  -32.8950 C   0  0  0  0  0  0  0  0  0  0  0  0
   -6.4040   20.7970  -32.1260 N   0  0  0  0  0  0  0  0  0  0  0  0
   -4.4280   22.3440  -30.7220 C   0  0  0  0  0  0  0  0  0  0  0  0
   -3.4300   23.1710  -30.1980 C   0  0  0  0  0  0  0  0  0  0  0  0
   -2.4453   25.1840  -27.2839 H   0  0  0  0  0  0  0  0  0  0  0  0
   -1.6785   23.8581  -28.2224 H   0  0  0  0  0  0  0  0  0  0  0  0
   -0.9462   25.4984  -28.2224 H   0  0  0  0  0  0  0  0  0  0  0  0
   -5.2493   26.0341  -29.7823 H   0  0  0  0  0  0  0  0  0  0  0  0
   -7.0305   24.5642  -30.7151 H   0  0  0  0  0  0  0  0  0  0  0  0
   -8.4711   23.1588  -30.8604 H   0  0  0  0  0  0  0  0  0  0  0  0
  -10.1602   21.6082  -31.8480 H   0  0  0  0  0  0  0  0  0  0  0  0
   -9.4133   19.5278  -33.0143 H   0  0  0  0  0  0  0  0  0  0  0  0
   -6.8057   18.6493  -35.4485 H   0  0  0  0  0  0  0  0  0  0  0  0
   -5.6887   19.8638  -34.7078 H   0  0  0  0  0  0  0  0  0  0  0  0
   -4.8960   17.4229  -35.7061 H   0  0  0  0  0  0  0  0  0  0  0  0
   -4.0250   18.3700  -34.4141 H   0  0  0  0  0  0  0  0  0  0  0  0
   -3.9012   15.0467  -33.2507 H   0  0  0  0  0  0  0  0  0  0  0  0
   -4.8838   14.8732  -34.7443 H   0  0  0  0  0  0  0  0  0  0  0  0
   -3.4276   15.9249  -34.7443 H   0  0  0  0  0  0  0  0  0  0  0  0
   -6.9435   16.1380  -34.5990 H   0  0  0  0  0  0  0  0  0  0  0  0
   -6.5827   15.3824  -33.0138 H   0  0  0  0  0  0  0  0  0  0  0  0
   -8.3587   17.3217  -33.1192 H   0  0  0  0  0  0  0  0  0  0  0  0
   -7.1106   17.3471  -31.8123 H   0  0  0  0  0  0  0  0  0  0  0  0
   -4.1925   21.3000  -30.9764 H   0  0  0  0  0  0  0  0  0  0  0  0
   -2.4147   22.7741  -30.0511 H   0  0  0  0  0  0  0  0  0  0  0  0
  1  2  1  0
  2  3  1  0
  3  4  2  0
  4  5  1  0
  5  6  2  0
  6  7  1  0
  7  8  2  0
  8  9  1  0
  9 10  2  0
 10 11  1  0
 11 12  1  0
 12 13  1  0
 13 14  1  0
 14 15  1  0
 15 16  1  0
 15 17  1  0
 17 18  1  0
 11 19  2  0
  6 20  1  0
 20 21  2  0
 21  3  1  0
 19  7  1  0
 18 12  1  0
  1 22  1  0
  1 23  1  0
  1 24  1  0
  4 25  1  0
  5 26  1  0
  8 27  1  0
  9 28  1  0
 10 29  1  0
 13 30  1  0
 13 31  1  0
 14 32  1  0
 14 33  1  0
 16 34  1  0
 16 35  1  0
 16 36  1  0
 17 37  1  0
 17 38  1  0
 18 39  1  0
 18 40  1  0
 20 41  1  0
 21 42  1  0
M  END
>  <UniqueID>  (12) 
12

>  <SMILES>  (12) 
COc1ccc(-c2cccc(N3CCN(C)CC3)n2)cc1

>  <Energy>  (12) 
54.87388403244533

>  <Genealogy>  (12) 
COc1ccc(-c2cccc(N3CCN(C)CC3)n2)cc1 (3D coordinates assigned)
COc1ccc(-c2cccc(N3CCN(C)CC3)n2)cc1 (nonaromatic ring conformer: 54.87388403244533 kcal/mol)

>  <smiles>  (12) 
COc1ccc(-c2cccc(N3CCN(C)CC3)n2)cc1

>  <score_type>  (12) 
oracle

>  <origin>  (12) 
adg

>  <m_score__min__energy>  (12) 
-8.4299999999999997

>  <m_primary>  (12) 
energy

$$$$
12:0
     RDKit          3D

 43 45  0  0  0  0  0  0  0  0999 V2000
   -1.4759   19.7547  -33.9696 H   0  0  0  0  0  0  0  0  0  0  0  0
   -2.3280   20.1270  -33.3820 C   0  0  0  0  0  0  0  0  0  0  0  0
   -2.7230   21.4620  -33.4930 C   0  0  0  0  0  0  0  0  0  0  0  0
   -2.1835   22.1399  -34.1708 H   0  0  0  0  0  0  0  0  0  0  0  0
   -3.8030   21.9380  -32.7440 C   0  0  0  0  0  0  0  0  0  0  0  0
   -4.1158   22.9879  -32.8429 H   0  0  0  0  0  0  0  0  0  0  0  0
   -4.4930   21.0830  -31.8640 C   0  0  0  0  0  0  0  0  0  0  0  0
   -5.6490   21.6260  -31.0400 C   0  0  2  0  0  0  0  0  0  0  0  0
   -6.0667   20.7893  -30.4609 H   0  0  0  0  0  0  0  0  0  0  0  0
   -6.7890   22.1460  -31.9150 C   0  0  0  0  0  0  0  0  0  0  0  0
   -7.4400   21.3750  -32.7440 N   0  0  0  0  0  0  0  0  0  0  0  0
   -7.1290   20.0030  -33.0120 C   0  0  0  0  0  0  0  0  0  0  0  0
   -6.2260   19.7010  -34.0400 C   0  0  0  0  0  0  0  0  0  0  0  0
   -5.8058   20.5116  -34.6535 H   0  0  0  0  0  0  0  0  0  0  0  0
   -5.8560   18.3790  -34.2910 C   0  0  0  0  0  0  0  0  0  0  0  0
   -5.1425   18.1538  -35.0973 H   0  0  0  0  0  0  0  0  0  0  0  0
   -6.3890   17.3380  -33.5210 C   0  0  0  0  0  0  0  0  0  0  0  0
   -6.0040   15.9170  -33.8070 C   0  0  0  0  0  0  0  0  0  0  0  0
   -5.8582   15.3787  -32.8589 H   0  0  0  0  0  0  0  0  0  0  0  0
   -6.8026   15.4302  -34.3860 H   0  0  0  0  0  0  0  0  0  0  0  0
   -5.0688   15.8999  -34.3860 H   0  0  0  0  0  0  0  0  0  0  0  0
   -7.3380   17.6300  -32.5300 C   0  0  0  0  0  0  0  0  0  0  0  0
   -7.7825   16.8116  -31.9445 H   0  0  0  0  0  0  0  0  0  0  0  0
   -7.7270   18.9560  -32.2770 C   0  0  0  0  0  0  0  0  0  0  0  0
   -8.7400   19.2240  -31.1970 C   0  0  0  0  0  0  0  0  0  0  0  0
   -8.2673   19.0989  -30.2117 H   0  0  0  0  0  0  0  0  0  0  0  0
   -9.1169   20.2528  -31.2949 H   0  0  0  0  0  0  0  0  0  0  0  0
   -9.5763   18.5162  -31.2949 H   0  0  0  0  0  0  0  0  0  0  0  0
   -7.2680   23.5640  -31.7400 C   0  0  0  0  0  0  0  0  0  0  0  0
   -7.8810   23.8433  -32.6096 H   0  0  0  0  0  0  0  0  0  0  0  0
   -7.8553   23.6159  -30.8114 H   0  0  0  0  0  0  0  0  0  0  0  0
   -6.0950   24.5480  -31.6210 C   0  0  0  0  0  0  0  0  0  0  0  0
   -5.6511   24.6935  -32.6169 H   0  0  0  0  0  0  0  0  0  0  0  0
   -6.4848   25.4939  -31.2170 H   0  0  0  0  0  0  0  0  0  0  0  0
   -5.0290   24.0450  -30.6820 C   0  0  0  0  0  0  0  0  0  0  0  0
   -4.0660   24.7540  -30.4290 O   0  0  0  0  0  0  0  0  0  0  0  0
   -5.1530   22.6910  -30.0370 C   0  0  0  0  0  0  0  0  0  0  0  0
   -4.1682   22.3875  -29.6521 H   0  0  0  0  0  0  0  0  0  0  0  0
   -5.8881   22.7644  -29.2220 H   0  0  0  0  0  0  0  0  0  0  0  0
   -4.0940   19.7360  -31.7720 C   0  0  0  0  0  0  0  0  0  0  0  0
   -4.6348   19.0501  -31.1034 H   0  0  0  0  0  0  0  0  0  0  0  0
   -3.0150   19.2650  -32.5250 C   0  0  0  0  0  0  0  0  0  0  0  0
   -2.7062   18.2125  -32.4423 H   0  0  0  0  0  0  0  0  0  0  0  0
  1  2  1  0
  2  3  2  0
  3  4  1  0
  3  5  1  0
  5  6  1  0
  5  7  2  0
  7  8  1  0
  8  9  1  1
  8 10  1  0
 10 11  2  0
 11 12  1  0
 12 13  2  0
 13 14  1  0
 13 15  1  0
 15 16  1  0
 15 17  2  0
 17 18  1  0
 18 19  1  0
 18 20  1  0
 18 21  1  0
 17 22  1  0
 22 23  1  0
 22 24  2  0
 24 25  1  0
 25 26  1  0
 25 27  1  0
 25 28  1  0
 10 29  1  0
 29 30  1  0
 29 31  1  0
 29 32  1  0
 32 33  1  0
 32 34  1  0
 32 35  1  0
 35 36  2  0
 35 37  1  0
 37 38  1  0
 37 39  1  0
  7 40  1  0
 40 41  1  0
 40 42  2  0
 42 43  1  0
 42  2  1  0
 37  8  1  0
 24 12  1  0
M  END
>  <UniqueID>  (13) 
13

>  <SMILES>  (13) 
Cc1ccc(/N=C2/CCC(=O)C[C@@H]2c2ccccc2)c(C)c1

>  <Energy>  (13) 
49.91632251854765

>  <Genealogy>  (13) 
Cc1ccc(N=C2CCC(=O)C[C@@H]2c2ccccc2)c(C)c1 (chirality)
Cc1ccc(/N=C2/CCC(=O)C[C@@H]2c2ccccc2)c(C)c1 (cis-trans isomerization)
Cc1ccc(/N=C2/CCC(=O)C[C@@H]2c2ccccc2)c(C)c1 (3D coordinates assigned)
Cc1ccc(/N=C2/CCC(=O)C[C@@H]2c2ccccc2)c(C)c1 (nonaromatic ring conformer: 49.91632251854765 kcal/mol)

>  <smiles>  (13) 
Cc1ccc(N=C2CCC(=O)CC2c2ccccc2)c(C)c1

>  <score_type>  (13) 
oracle

>  <origin>  (13) 
adg

>  <m_score__min__energy>  (13) 
-8.9199999999999999

>  <m_primary>  (13) 
energy

$$$$
13:0
     RDKit          3D

 34 36  0  0  0  0  0  0  0  0999 V2000
   -2.5040   25.3120  -26.0010 C   0  0  0  0  0  0  0  0  0  0  0  0
   -1.8380   23.7720  -26.7010 S   0  0  0  0  0  0  0  0  0  0  0  0
   -3.1190   23.6530  -27.9460 C   0  0  0  0  0  0  0  0  0  0  0  0
   -4.1210   24.5540  -28.0780 N   0  0  0  0  0  0  0  0  0  0  0  0
   -4.9540   24.2250  -29.0990 C   0  0  0  0  0  0  0  0  0  0  0  0
   -6.0780   24.9580  -29.4790 C   0  0  0  0  0  0  0  0  0  0  0  0
   -6.8530   24.5000  -30.5580 C   0  0  0  0  0  0  0  0  0  0  0  0
   -6.5020   23.3120  -31.2520 C   0  0  0  0  0  0  0  0  0  0  0  0
   -7.2810   22.8250  -32.3600 N   0  0  0  0  0  0  0  0  0  0  0  0
   -8.4510   21.9590  -32.1990 C   0  0  0  0  0  0  0  0  0  0  0  0
   -8.0610   20.5110  -32.3320 C   0  0  0  0  0  0  0  0  0  0  0  0
   -8.7780   19.5180  -31.6440 C   0  0  0  0  0  0  0  0  0  0  0  0
   -8.3900   18.1770  -31.7390 C   0  0  0  0  0  0  0  0  0  0  0  0
   -7.2810   17.8210  -32.5110 C   0  0  0  0  0  0  0  0  0  0  0  0
   -6.5550   18.8060  -33.1860 C   0  0  0  0  0  0  0  0  0  0  0  0
   -6.9380   20.1480  -33.0930 C   0  0  0  0  0  0  0  0  0  0  0  0
   -5.3600   22.5890  -30.8490 C   0  0  0  0  0  0  0  0  0  0  0  0
   -4.6120   23.0670  -29.7770 C   0  0  0  0  0  0  0  0  0  0  0  0
   -3.2220   22.4130  -29.0930 S   0  0  0  0  0  0  0  0  0  0  0  0
   -2.4798   25.2561  -24.9027 H   0  0  0  0  0  0  0  0  0  0  0  0
   -1.8932   26.1624  -26.3384 H   0  0  0  0  0  0  0  0  0  0  0  0
   -3.5419   25.4493  -26.3384 H   0  0  0  0  0  0  0  0  0  0  0  0
   -4.2370   25.3930  -27.4680 H   0  0  0  0  0  0  0  0  0  0  0  0
   -6.3531   25.8786  -28.9434 H   0  0  0  0  0  0  0  0  0  0  0  0
   -7.7420   25.0685  -30.8686 H   0  0  0  0  0  0  0  0  0  0  0  0
   -6.9940   23.1080  -33.3250 H   0  0  0  0  0  0  0  0  0  0  0  0
   -8.8896   22.1253  -31.2040 H   0  0  0  0  0  0  0  0  0  0  0  0
   -9.1830   22.2025  -32.9832 H   0  0  0  0  0  0  0  0  0  0  0  0
   -9.6468   19.7954  -31.0290 H   0  0  0  0  0  0  0  0  0  0  0  0
   -8.9590   17.4017  -31.2050 H   0  0  0  0  0  0  0  0  0  0  0  0
   -6.9796   16.7659  -32.5874 H   0  0  0  0  0  0  0  0  0  0  0  0
   -5.6807   18.5254  -33.7916 H   0  0  0  0  0  0  0  0  0  0  0  0
   -6.3578   20.9214  -33.6176 H   0  0  0  0  0  0  0  0  0  0  0  0
   -5.0666   21.6664  -31.3712 H   0  0  0  0  0  0  0  0  0  0  0  0
  1  2  1  0
  2  3  1  0
  3  4  2  0
  4  5  1  0
  5  6  2  0
  6  7  1  0
  7  8  2  0
  8  9  1  0
  9 10  1  0
 10 11  1  0
 11 12  2  0
 12 13  1  0
 13 14  2  0
 14 15  1  0
 15 16  2  0
  8 17  1  0
 17 18  2  0
 18 19  1  0
 19  3  1  0
 18  5  1  0
 16 11  1  0
  1 20  1  0
  1 21  1  0
  1 22  1  0
  4 23  1  0
  6 24  1  0
  7 25  1  0
  9 26  1  0
 10 27  1  0
 10 28  1  0
 12 29  1  0
 13 30  1  0
 14 31  1  0
 15 32  1  0
 16 33  1  0
 17 34  1  0
M  CHG  1   4   1
M  END
>  <UniqueID>  (14) 
14

>  <SMILES>  (14) 
CSc1[nH+]c2ccc(NCc3ccccc3)cc2s1

>  <Energy>  (14) 
65.83551955532381

>  <Genealogy>  (14) 
CSc1[nH+]c2ccc(NCc3ccccc3)cc2s1 (protonated)
CSc1[nH+]c2ccc(NCc3ccccc3)cc2s1 (3D coordinates assigned)
CSc1[nH+]c2ccc(NCc3ccccc3)cc2s1 (optimized conformer: 65.83551955532381 kcal/mol)

>  <smiles>  (14) 
CSc1nc2ccc(NCc3ccccc3)cc2s1

>  <score_type>  (14) 
oracle

>  <origin>  (14) 
adg

>  <m_score__min__energy>  (14) 
-7.25

>  <m_primary>  (14) 
energy

$$$$
14:0
     RDKit          3D

 58 61  0  0  0  0  0  0  0  0999 V2000
   -2.4800   16.4080  -33.1180 C   0  0  0  0  0  0  0  0  0  0  0  0
   -2.7700   17.6970  -33.7530 N   0  0  0  0  0  0  0  0  0  0  0  0
   -3.9140   17.8290  -34.6650 C   0  0  0  0  0  0  0  0  0  0  0  0
   -5.1340   18.2770  -33.9060 C   0  0  0  0  0  0  0  0  0  0  0  0
   -6.0160   17.3340  -33.3580 C   0  0  0  0  0  0  0  0  0  0  0  0
   -7.1800   17.7490  -32.7040 C   0  0  0  0  0  0  0  0  0  0  0  0
   -7.4750   19.1180  -32.5670 C   0  0  0  0  0  0  0  0  0  0  0  0
   -8.7040   19.5880  -31.8710 C   0  0  0  0  0  0  0  0  0  0  0  0
   -9.1040   18.9680  -30.8440 O   0  0  0  0  0  0  0  0  0  0  0  0
   -9.4970   20.7850  -32.3350 C   0  0  0  0  0  0  0  0  0  0  0  0
   -9.4850   21.9190  -31.3030 C   0  0  0  0  0  0  0  0  0  0  0  0
   -8.1290   22.5710  -31.2060 C   0  0  0  0  0  0  0  0  0  0  0  0
   -7.5490   23.1760  -32.3320 C   0  0  0  0  0  0  0  0  0  0  0  0
   -6.2880   23.7740  -32.2390 C   0  0  0  0  0  0  0  0  0  0  0  0
   -5.5890   23.7710  -31.0200 C   0  0  0  0  0  0  0  0  0  0  0  0
   -4.3190   24.3530  -30.8980 O   0  0  0  0  0  0  0  0  0  0  0  0
   -3.2280   23.7730  -30.2360 C   0  0  0  0  0  0  0  0  0  0  0  0
   -2.5420   24.4470  -29.2060 C   0  0  0  0  0  0  0  0  0  0  0  0
   -1.4720   23.8270  -28.5510 C   0  0  0  0  0  0  0  0  0  0  0  0
   -1.0830   22.5340  -28.9140 C   0  0  0  0  0  0  0  0  0  0  0  0
   -1.7680   21.8560  -29.9260 C   0  0  0  0  0  0  0  0  0  0  0  0
   -2.8420   22.4710  -30.5800 C   0  0  0  0  0  0  0  0  0  0  0  0
   -6.1530   23.1360  -29.9090 C   0  0  0  0  0  0  0  0  0  0  0  0
   -7.4180   22.5470  -29.9950 C   0  0  0  0  0  0  0  0  0  0  0  0
   -6.5960   20.0580  -33.1360 C   0  0  0  0  0  0  0  0  0  0  0  0
   -5.4410   19.6410  -33.8060 C   0  0  0  0  0  0  0  0  0  0  0  0
   -1.9530   18.8440  -33.4340 C   0  0  0  0  0  0  0  0  0  0  0  0
   -2.1630   20.0760  -34.0760 C   0  0  0  0  0  0  0  0  0  0  0  0
   -1.3640   21.1780  -33.7590 C   0  0  0  0  0  0  0  0  0  0  0  0
   -0.3590   21.0420  -32.8010 C   0  0  0  0  0  0  0  0  0  0  0  0
   -0.1700   19.8450  -32.1790 N   0  0  0  0  0  0  0  0  0  0  0  0
   -0.9340   18.7550  -32.4690 C   0  0  0  0  0  0  0  0  0  0  0  0
   -2.5061   16.5239  -32.0244 H   0  0  0  0  0  0  0  0  0  0  0  0
   -3.2344   15.6693  -33.4265 H   0  0  0  0  0  0  0  0  0  0  0  0
   -1.4819   16.0636  -33.4265 H   0  0  0  0  0  0  0  0  0  0  0  0
   -3.6761   18.5710  -35.4414 H   0  0  0  0  0  0  0  0  0  0  0  0
   -4.1180   16.8527  -35.1289 H   0  0  0  0  0  0  0  0  0  0  0  0
   -5.7904   16.2608  -33.4434 H   0  0  0  0  0  0  0  0  0  0  0  0
   -7.8713   16.9986  -32.2929 H   0  0  0  0  0  0  0  0  0  0  0  0
   -9.0623   21.1560  -33.2749 H   0  0  0  0  0  0  0  0  0  0  0  0
  -10.5403   20.4664  -32.4766 H   0  0  0  0  0  0  0  0  0  0  0  0
  -10.2249   22.6775  -31.5984 H   0  0  0  0  0  0  0  0  0  0  0  0
   -9.7303   21.4905  -30.3201 H   0  0  0  0  0  0  0  0  0  0  0  0
   -8.0880   23.1798  -33.2909 H   0  0  0  0  0  0  0  0  0  0  0  0
   -5.8411   24.2491  -33.1248 H   0  0  0  0  0  0  0  0  0  0  0  0
   -2.8483   25.4629  -28.9161 H   0  0  0  0  0  0  0  0  0  0  0  0
   -0.9365   24.3574  -27.7498 H   0  0  0  0  0  0  0  0  0  0  0  0
   -0.2376   22.0503  -28.4029 H   0  0  0  0  0  0  0  0  0  0  0  0
   -1.4628   20.8378  -30.2090 H   0  0  0  0  0  0  0  0  0  0  0  0
   -3.3856   21.9292  -31.3680 H   0  0  0  0  0  0  0  0  0  0  0  0
   -5.5972   23.0997  -28.9604 H   0  0  0  0  0  0  0  0  0  0  0  0
   -7.8582   22.0629  -29.1108 H   0  0  0  0  0  0  0  0  0  0  0  0
   -6.8194   21.1319  -33.0531 H   0  0  0  0  0  0  0  0  0  0  0  0
   -4.7703   20.3873  -34.2567 H   0  0  0  0  0  0  0  0  0  0  0  0
   -2.9581   20.1734  -34.8299 H   0  0  0  0  0  0  0  0  0  0  0  0
   -1.5261   22.1437  -34.2602 H   0  0  0  0  0  0  0  0  0  0  0  0
    0.2803   21.9007  -32.5481 H   0  0  0  0  0  0  0  0  0  0  0  0
   -0.7535   17.8035  -31.9474 H   0  0  0  0  0  0  0  0  0  0  0  0
  1  2  1  0
  2  3  1  0
  3  4  1  0
  4  5  2  0
  5  6  1  0
  6  7  2  0
  7  8  1  0
  8  9  2  0
  8 10  1  0
 10 11  1  0
 11 12  1  0
 12 13  2  0
 13 14  1  0
 14 15  2  0
 15 16  1  0
 16 17  1  0
 17 18  2  0
 18 19  1  0
 19 20  2  0
 20 21  1  0
 21 22  2  0
 15 23  1  0
 23 24  2  0
  7 25  1  0
 25 26  2  0
  2 27  1  0
 27 28  2  0
 28 29  1  0
 29 30  2  0
 30 31  1  0
 31 32  2  0
 26  4  1  0
 32 27  1  0
 24 12  1  0
 22 17  1  0
  1 33  1  0
  1 34  1  0
  1 35  1  0
  3 36  1  0
  3 37  1  0
  5 38  1  0
  6 39  1  0
 10 40  1  0
 10 41  1  0
 11 42  1  0
 11 43  1  0
 13 44  1  0
 14 45  1  0
 18 46  1  0
 19 47  1  0
 20 48  1  0
 21 49  1  0
 22 50  1  0
 23 51  1  0
 24 52  1  0
 25 53  1  0
 26 54  1  0
 28 55  1  0
 29 56  1  0
 30 57  1  0
 32 58  1  0
M  END
>  <UniqueID>  (15) 
15

>  <SMILES>  (15) 
CN(Cc1ccc(C(=O)CCc2ccc(Oc3ccccc3)cc2)cc1)c1cccnc1

>  <Energy>  (15) 
71.55207091377876

>  <Genealogy>  (15) 
CN(Cc1ccc(C(=O)CCc2ccc(Oc3ccccc3)cc2)cc1)c1cccnc1 (3D coordinates assigned)
CN(Cc1ccc(C(=O)CCc2ccc(Oc3ccccc3)cc2)cc1)c1cccnc1 (optimized conformer: 71.55207091377876 kcal/mol)

>  <smiles>  (15) 
CN(Cc1ccc(C(=O)CCc2ccc(Oc3ccccc3)cc2)cc1)c1cccnc1

>  <score_type>  (15) 
oracle

>  <origin>  (15) 
adg

>  <m_score__min__energy>  (15) 
-10.220000000000001

>  <m_primary>  (15) 
energy

$$$$
15:0
     RDKit          3D

 41 43  0  0  0  0  0  0  0  0999 V2000
   -0.3526   25.8327  -28.0689 H   0  0  0  0  0  0  0  0  0  0  0  0
   -1.0590   25.0350  -28.3420 C   0  0  0  0  0  0  0  0  0  0  0  0
   -2.0500   25.2820  -29.2380 N   0  0  0  0  0  0  0  0  0  0  0  0
   -2.9380   24.3140  -29.5880 C   0  0  0  0  0  0  0  0  0  0  0  0
   -3.8580   24.5850  -30.4680 N   0  0  0  0  0  0  0  0  0  0  0  0
   -4.9150   23.7140  -30.9050 C   0  0  0  0  0  0  0  0  0  0  0  0
   -4.5830   22.5700  -31.6380 C   0  0  0  0  0  0  0  0  0  0  0  0
   -3.5273   22.3455  -31.8501 H   0  0  0  0  0  0  0  0  0  0  0  0
   -5.5810   21.7100  -32.1030 C   0  0  0  0  0  0  0  0  0  0  0  0
   -5.3032   20.8093  -32.6700 H   0  0  0  0  0  0  0  0  0  0  0  0
   -6.9380   21.9850  -31.8530 C   0  0  0  0  0  0  0  0  0  0  0  0
   -7.9840   21.0550  -32.3600 C   0  0  0  0  0  0  0  0  0  0  0  0
   -9.1920   21.4240  -32.3190 O   0  0  0  0  0  0  0  0  0  0  0  0
   -7.6530   19.7370  -32.8660 N   0  0  0  0  0  0  0  0  0  0  0  0
   -8.5080   19.3030  -33.2880 H   0  0  0  0  0  0  0  0  0  0  0  0
   -7.2160   18.8450  -31.7730 C   0  0  0  0  0  0  0  0  0  0  0  0
   -6.3286   19.2765  -31.2868 H   0  0  0  0  0  0  0  0  0  0  0  0
   -8.0362   18.7450  -31.0469 H   0  0  0  0  0  0  0  0  0  0  0  0
   -6.8630   17.4430  -32.3240 C   0  0  0  0  0  0  0  0  0  0  0  0
   -5.8822   17.1446  -31.9254 H   0  0  0  0  0  0  0  0  0  0  0  0
   -7.6574   16.7511  -32.0074 H   0  0  0  0  0  0  0  0  0  0  0  0
   -6.8060   17.4120  -33.7400 O   0  0  0  0  0  0  0  0  0  0  0  0
   -5.9800   18.4580  -34.2120 C   0  0  0  0  0  0  0  0  0  0  0  0
   -4.9970   18.3886  -33.7231 H   0  0  0  0  0  0  0  0  0  0  0  0
   -5.8760   18.3576  -35.3025 H   0  0  0  0  0  0  0  0  0  0  0  0
   -6.6020   19.8370  -33.9020 C   0  0  0  0  0  0  0  0  0  0  0  0
   -5.8115   20.5136  -33.5451 H   0  0  0  0  0  0  0  0  0  0  0  0
   -7.0615   20.2234  -34.8237 H   0  0  0  0  0  0  0  0  0  0  0  0
   -7.2720   23.1590  -31.1530 C   0  0  0  0  0  0  0  0  0  0  0  0
   -8.3288   23.4023  -30.9685 H   0  0  0  0  0  0  0  0  0  0  0  0
   -6.2710   24.0190  -30.6900 C   0  0  0  0  0  0  0  0  0  0  0  0
   -6.5460   24.9396  -30.1544 H   0  0  0  0  0  0  0  0  0  0  0  0
   -2.8230   23.0720  -29.0440 N   0  0  0  0  0  0  0  0  0  0  0  0
   -1.8480   22.7800  -28.1410 C   0  0  0  0  0  0  0  0  0  0  0  0
   -1.7480   21.5030  -27.5830 O   0  0  0  0  0  0  0  0  0  0  0  0
   -2.7430   20.5040  -27.7690 C   0  0  0  0  0  0  0  0  0  0  0  0
   -3.0952   20.1503  -26.7888 H   0  0  0  0  0  0  0  0  0  0  0  0
   -3.5880   20.9283  -28.3310 H   0  0  0  0  0  0  0  0  0  0  0  0
   -2.3153   19.6607  -28.3310 H   0  0  0  0  0  0  0  0  0  0  0  0
   -0.9380   23.7700  -27.7690 C   0  0  0  0  0  0  0  0  0  0  0  0
   -0.1426   23.5570  -27.0396 H   0  0  0  0  0  0  0  0  0  0  0  0
  1  2  1  0
  2  3  1  0
  3  4  1  0
  4  5  2  0
  5  6  1  0
  6  7  2  0
  7  8  1  0
  7  9  1  0
  9 10  1  0
  9 11  2  0
 11 12  1  0
 12 13  2  0
 12 14  1  0
 14 15  1  0
 14 16  1  0
 16 17  1  0
 16 18  1  0
 16 19  1  0
 19 20  1  0
 19 21  1  0
 19 22  1  0
 22 23  1  0
 23 24  1  0
 23 25  1  0
 23 26  1  0
 26 27  1  0
 26 28  1  0
 11 29  1  0
 29 30  1  0
 29 31  2  0
 31 32  1  0
  4 33  1  0
 33 34  2  0
 34 35  1  0
 35 36  1  0
 36 37  1  0
 36 38  1  0
 36 39  1  0
 34 40  1  0
 40 41  1  0
 40  2  2  0
 31  6  1  0
 26 14  1  0
M  CHG  2   3  -1  14   1
M  END
>  <UniqueID>  (16) 
16

>  <SMILES>  (16) 
COc1cc[n-]/c(=N/c2ccc(C(=O)[NH+]3CCOCC3)cc2)n1

>  <Energy>  (16) 
61.05091977336601

>  <Genealogy>  (16) 
COc1cc[n-]c(=Nc2ccc(C(=O)[NH+]3CCOCC3)cc2)n1 (protonated)
COc1cc[n-]/c(=N/c2ccc(C(=O)[NH+]3CCOCC3)cc2)n1 (cis-trans isomerization)
COc1cc[n-]/c(=N/c2ccc(C(=O)[NH+]3CCOCC3)cc2)n1 (3D coordinates assigned)
COc1cc[n-]/c(=N/c2ccc(C(=O)[NH+]3CCOCC3)cc2)n1 (nonaromatic ring conformer: 61.05091977336601 kcal/mol)

>  <smiles>  (16) 
COc1cc[nH]c(=Nc2ccc(C(=O)N3CCOCC3)cc2)n1

>  <score_type>  (16) 
oracle

>  <origin>  (16) 
adg

>  <m_score__min__energy>  (16) 
-9.1999999999999993

>  <m_primary>  (16) 
energy

$$$$
16:0
     RDKit          3D

 55 57  0  0  0  0  0  0  0  0999 V2000
   -6.4640   25.1960  -29.4820 C   0  0  0  0  0  0  0  0  0  0  0  0
   -5.6230   25.9470  -30.5080 C   0  0  0  0  0  0  0  0  0  0  0  0
   -4.2320   25.6850  -30.3190 O   0  0  0  0  0  0  0  0  0  0  0  0
   -3.6270   24.4150  -30.2990 C   0  0  0  0  0  0  0  0  0  0  0  0
   -4.2530   23.2740  -30.8340 C   0  0  0  0  0  0  0  0  0  0  0  0
   -3.6200   22.0230  -30.7860 C   0  0  0  0  0  0  0  0  0  0  0  0
   -2.3650   21.9010  -30.1830 C   0  0  0  0  0  0  0  0  0  0  0  0
   -1.7360   23.0320  -29.6420 C   0  0  0  0  0  0  0  0  0  0  0  0
   -2.3580   24.2970  -29.7110 C   0  0  0  0  0  0  0  0  0  0  0  0
   -1.7560   25.4520  -29.1910 O   0  0  0  0  0  0  0  0  0  0  0  0
   -1.2660   25.5870  -27.8620 C   0  0  0  0  0  0  0  0  0  0  0  0
   -1.7570   20.5330  -30.0480 C   0  0  0  0  0  0  0  0  0  0  0  0
   -1.9650   19.7060  -31.3260 C   0  0  0  0  0  0  0  0  0  0  0  0
   -3.3190   19.8470  -31.8920 N   0  0  0  0  0  0  0  0  0  0  0  0
   -3.7200   19.0290  -33.0100 C   0  0  0  0  0  0  0  0  0  0  0  0
   -3.1690   17.9090  -33.1920 O   0  0  0  0  0  0  0  0  0  0  0  0
   -4.7570   19.4990  -34.0040 C   0  0  0  0  0  0  0  0  0  0  0  0
   -6.1470   19.3290  -33.5140 N   0  0  0  0  0  0  0  0  0  0  0  0
   -6.7450   20.6300  -33.1000 C   0  0  0  0  0  0  0  0  0  0  0  0
   -7.6210   20.5370  -31.8300 C   0  0  0  0  0  0  0  0  0  0  0  0
   -8.4110   19.2930  -31.7780 N   0  0  0  0  0  0  0  0  0  0  0  0
   -9.5510   19.3250  -32.7090 C   0  0  0  0  0  0  0  0  0  0  0  0
   -7.5930   18.0660  -31.9290 C   0  0  0  0  0  0  0  0  0  0  0  0
   -6.1590   18.3340  -32.4210 C   0  0  0  0  0  0  0  0  0  0  0  0
   -4.2990   20.7870  -31.3150 C   0  0  0  0  0  0  0  0  0  0  0  0
   -6.1457   25.4803  -28.4682 H   0  0  0  0  0  0  0  0  0  0  0  0
   -7.5248   25.4528  -29.6187 H   0  0  0  0  0  0  0  0  0  0  0  0
   -6.3284   24.1130  -29.6187 H   0  0  0  0  0  0  0  0  0  0  0  0
   -5.9158   25.6251  -31.5183 H   0  0  0  0  0  0  0  0  0  0  0  0
   -5.7970   27.0258  -30.3821 H   0  0  0  0  0  0  0  0  0  0  0  0
   -5.2481   23.3638  -31.2942 H   0  0  0  0  0  0  0  0  0  0  0  0
   -0.7518   22.9324  -29.1610 H   0  0  0  0  0  0  0  0  0  0  0  0
   -2.0736   25.3645  -27.1491 H   0  0  0  0  0  0  0  0  0  0  0  0
   -0.4342   24.8846  -27.7047 H   0  0  0  0  0  0  0  0  0  0  0  0
   -0.9114   26.6163  -27.7047 H   0  0  0  0  0  0  0  0  0  0  0  0
   -0.6784   20.6365  -29.8588 H   0  0  0  0  0  0  0  0  0  0  0  0
   -2.2484   20.0135  -29.2122 H   0  0  0  0  0  0  0  0  0  0  0  0
   -1.2345   20.0360  -32.0793 H   0  0  0  0  0  0  0  0  0  0  0  0
   -1.8302   18.6478  -31.0575 H   0  0  0  0  0  0  0  0  0  0  0  0
   -4.5861   20.5657  -34.2112 H   0  0  0  0  0  0  0  0  0  0  0  0
   -4.6490   18.8831  -34.9090 H   0  0  0  0  0  0  0  0  0  0  0  0
   -6.7270   18.9370  -34.2920 H   0  0  0  0  0  0  0  0  0  0  0  0
   -5.9285   21.3414  -32.9070 H   0  0  0  0  0  0  0  0  0  0  0  0
   -7.4021   20.9562  -33.9196 H   0  0  0  0  0  0  0  0  0  0  0  0
   -6.9667   20.5764  -30.9466 H   0  0  0  0  0  0  0  0  0  0  0  0
   -8.3270   21.3804  -31.8488 H   0  0  0  0  0  0  0  0  0  0  0  0
  -10.4905   19.3514  -32.1375 H   0  0  0  0  0  0  0  0  0  0  0  0
   -9.4819   20.2216  -33.3426 H   0  0  0  0  0  0  0  0  0  0  0  0
   -9.5323   18.4260  -33.3426 H   0  0  0  0  0  0  0  0  0  0  0  0
   -7.5366   17.5639  -30.9519 H   0  0  0  0  0  0  0  0  0  0  0  0
   -8.0837   17.4448  -32.6928 H   0  0  0  0  0  0  0  0  0  0  0  0
   -5.5571   18.7145  -31.5826 H   0  0  0  0  0  0  0  0  0  0  0  0
   -5.7395   17.3915  -32.8028 H   0  0  0  0  0  0  0  0  0  0  0  0
   -5.0188   21.0783  -32.0941 H   0  0  0  0  0  0  0  0  0  0  0  0
   -4.8127   20.2870  -30.4807 H   0  0  0  0  0  0  0  0  0  0  0  0
  1  2  1  0
  2  3  1  0
  3  4  1  0
  4  5  2  0
  5  6  1  0
  6  7  2  0
  7  8  1  0
  8  9  2  0
  9 10  1  0
 10 11  1  0
  7 12  1  0
 12 13  1  0
 13 14  1  0
 14 15  1  0
 15 16  2  0
 15 17  1  0
 17 18  1  0
 18 19  1  0
 19 20  1  0
 20 21  1  0
 21 22  1  0
 21 23  1  0
 23 24  1  0
 14 25  1  0
  9  4  1  0
 24 18  1  0
 25  6  1  0
  1 26  1  0
  1 27  1  0
  1 28  1  0
  2 29  1  0
  2 30  1  0
  5 31  1  0
  8 32  1  0
 11 33  1  0
 11 34  1  0
 11 35  1  0
 12 36  1  0
 12 37  1  0
 13 38  1  0
 13 39  1  0
 17 40  1  0
 17 41  1  0
 18 42  1  0
 19 43  1  0
 19 44  1  0
 20 45  1  0
 20 46  1  0
 22 47  1  0
 22 48  1  0
 22 49  1  0
 23 50  1  0
 23 51  1  0
 24 52  1  0
 24 53  1  0
 25 54  1  0
 25 55  1  0
M  CHG  1  18   1
M  END
>  <UniqueID>  (17) 
17

>  <SMILES>  (17) 
CCOc1cc2c(cc1OC)CCN(C(=O)C[NH+]1CCN(C)CC1)C2

>  <Energy>  (17) 
70.99688856553783

>  <Genealogy>  (17) 
CCOc1cc2c(cc1OC)CCN(C(=O)C[NH+]1CCN(C)CC1)C2 (protonated)
CCOc1cc2c(cc1OC)CCN(C(=O)C[NH+]1CCN(C)CC1)C2 (3D coordinates assigned)
CCOc1cc2c(cc1OC)CCN(C(=O)C[NH+]1CCN(C)CC1)C2 (nonaromatic ring conformer: 70.99688856553783 kcal/mol)

>  <smiles>  (17) 
CCOc1cc2c(cc1OC)CCN(C(=O)CN1CCN(C)CC1)C2

>  <score_type>  (17) 
oracle

>  <origin>  (17) 
adg

>  <m_score__min__energy>  (17) 
-7.3399999999999999

>  <m_primary>  (17) 
energy

$$$$
17:0
     RDKit          3D

 56 59  0  0  0  0  0  0  0  0999 V2000
   -5.9730   14.6380  -34.1960 C   0  0  0  0  0  0  0  0  0  0  0  0
   -6.8580   15.7310  -33.9780 O   0  0  0  0  0  0  0  0  0  0  0  0
   -6.4460   17.0520  -33.7500 C   0  0  0  0  0  0  0  0  0  0  0  0
   -5.2480   17.5710  -34.2790 C   0  0  0  0  0  0  0  0  0  0  0  0
   -4.8810   18.8950  -34.0220 C   0  0  0  0  0  0  0  0  0  0  0  0
   -5.6940   19.7210  -33.2380 C   0  0  0  0  0  0  0  0  0  0  0  0
   -5.2790   21.0400  -33.0100 O   0  0  0  0  0  0  0  0  0  0  0  0
   -3.9710   21.5340  -33.2920 C   0  0  0  0  0  0  0  0  0  0  0  0
   -3.3160   22.0730  -31.9940 C   0  0  2  0  0  0  0  0  0  0  0  0
   -2.0910   21.2730  -31.5480 C   0  0  0  0  0  0  0  0  0  0  0  0
   -1.4490   20.2890  -32.3280 C   0  0  0  0  0  0  0  0  0  0  0  0
   -0.2930   19.6590  -31.8590 C   0  0  0  0  0  0  0  0  0  0  0  0
    0.2520   19.9980  -30.6180 C   0  0  0  0  0  0  0  0  0  0  0  0
    1.4170   19.3380  -30.1990 O   0  0  0  0  0  0  0  0  0  0  0  0
    1.5050   18.5210  -29.0360 C   0  0  0  0  0  0  0  0  0  0  0  0
   -0.3810   20.9810  -29.8350 C   0  0  0  0  0  0  0  0  0  0  0  0
   -1.5480   21.6060  -30.2980 C   0  0  0  0  0  0  0  0  0  0  0  0
   -2.2520   22.6450  -29.4830 C   0  0  0  0  0  0  0  0  0  0  0  0
   -3.7610   22.3640  -29.5120 C   0  0  0  0  0  0  0  0  0  0  0  0
   -4.3230   22.1580  -30.8860 N   0  0  1  0  0  0  0  0  0  0  0  0
   -5.3080   23.1920  -31.1620 C   0  0  0  0  0  0  0  0  0  0  0  0
   -4.9440   24.4000  -31.2260 O   0  0  0  0  0  0  0  0  0  0  0  0
   -6.7460   22.8700  -31.3390 C   0  0  0  0  0  0  0  0  0  0  0  0
   -7.3380   21.7740  -30.6820 C   0  0  0  0  0  0  0  0  0  0  0  0
   -8.6950   21.4910  -30.8590 C   0  0  0  0  0  0  0  0  0  0  0  0
   -9.4780   22.3000  -31.6870 C   0  0  0  0  0  0  0  0  0  0  0  0
   -8.9050   23.3980  -32.3330 C   0  0  0  0  0  0  0  0  0  0  0  0
   -7.5480   23.6850  -32.1580 C   0  0  0  0  0  0  0  0  0  0  0  0
   -6.8920   19.2030  -32.7100 C   0  0  0  0  0  0  0  0  0  0  0  0
   -7.2590   17.8790  -32.9660 C   0  0  0  0  0  0  0  0  0  0  0  0
   -5.6450   14.2329  -33.2273 H   0  0  0  0  0  0  0  0  0  0  0  0
   -6.4930   13.8529  -34.7646 H   0  0  0  0  0  0  0  0  0  0  0  0
   -5.0970   14.9833  -34.7646 H   0  0  0  0  0  0  0  0  0  0  0  0
   -4.5992   16.9322  -34.8963 H   0  0  0  0  0  0  0  0  0  0  0  0
   -3.9440   19.2914  -34.4401 H   0  0  0  0  0  0  0  0  0  0  0  0
   -3.3543   20.7197  -33.7001 H   0  0  0  0  0  0  0  0  0  0  0  0
   -4.0439   22.3506  -34.0254 H   0  0  0  0  0  0  0  0  0  0  0  0
   -2.9524   23.0831  -32.2339 H   0  0  0  0  0  0  0  0  0  0  0  0
   -1.8604   20.0158  -33.3109 H   0  0  0  0  0  0  0  0  0  0  0  0
    0.1933   18.8874  -32.4739 H   0  0  0  0  0  0  0  0  0  0  0  0
    1.4370   19.1528  -28.1381 H   0  0  0  0  0  0  0  0  0  0  0  0
    0.6800   17.7934  -29.0358 H   0  0  0  0  0  0  0  0  0  0  0  0
    2.4660   17.9857  -29.0358 H   0  0  0  0  0  0  0  0  0  0  0  0
    0.0403   21.2598  -28.8579 H   0  0  0  0  0  0  0  0  0  0  0  0
   -1.8897   22.6077  -28.4451 H   0  0  0  0  0  0  0  0  0  0  0  0
   -2.0515   23.6432  -29.8993 H   0  0  0  0  0  0  0  0  0  0  0  0
   -3.9540   21.4565  -28.9211 H   0  0  0  0  0  0  0  0  0  0  0  0
   -4.2557   23.2556  -29.0994 H   0  0  0  0  0  0  0  0  0  0  0  0
   -4.8110   21.2310  -30.8780 H   0  0  0  0  0  0  0  0  0  0  0  0
   -6.7281   21.1364  -30.0251 H   0  0  0  0  0  0  0  0  0  0  0  0
   -9.1477   20.6299  -30.3457 H   0  0  0  0  0  0  0  0  0  0  0  0
  -10.5446   22.0723  -31.8299 H   0  0  0  0  0  0  0  0  0  0  0  0
   -9.5225   24.0379  -32.9805 H   0  0  0  0  0  0  0  0  0  0  0  0
   -7.1042   24.5547  -32.6646 H   0  0  0  0  0  0  0  0  0  0  0  0
   -7.5413   19.8425  -32.0940 H   0  0  0  0  0  0  0  0  0  0  0  0
   -8.1959   17.4829  -32.5473 H   0  0  0  0  0  0  0  0  0  0  0  0
  1  2  1  0
  2  3  1  0
  3  4  2  0
  4  5  1  0
  5  6  2  0
  6  7  1  0
  7  8  1  0
  8  9  1  0
  9 10  1  0
 10 11  2  0
 11 12  1  0
 12 13  2  0
 13 14  1  0
 14 15  1  0
 13 16  1  0
 16 17  2  0
 17 18  1  0
 18 19  1  0
 19 20  1  0
 20 21  1  0
 21 22  2  0
 21 23  1  0
 23 24  2  0
 24 25  1  0
 25 26  2  0
 26 27  1  0
 27 28  2  0
  6 29  1  0
 29 30  2  0
 30  3  1  0
 20  9  1  0
 28 23  1  0
 17 10  1  0
  1 31  1  0
  1 32  1  0
  1 33  1  0
  4 34  1  0
  5 35  1  0
  8 36  1  0
  8 37  1  0
  9 38  1  6
 11 39  1  0
 12 40  1  0
 15 41  1  0
 15 42  1  0
 15 43  1  0
 16 44  1  0
 18 45  1  0
 18 46  1  0
 19 47  1  0
 19 48  1  0
 20 49  1  1
 24 50  1  0
 25 51  1  0
 26 52  1  0
 27 53  1  0
 28 54  1  0
 29 55  1  0
 30 56  1  0
M  CHG  1  20   1
M  END
>  <UniqueID>  (18) 
18

>  <SMILES>  (18) 
COc1ccc(OC[C@@H]2c3ccc(OC)cc3CC[N@H+]2C(=O)c2ccccc2)cc1

>  <Energy>  (18) 
77.79865529222164

>  <Genealogy>  (18) 
COc1ccc(OCC2c3ccc(OC)cc3CC[NH+]2C(=O)c2ccccc2)cc1 (protonated)
COc1ccc(OC[C@@H]2c3ccc(OC)cc3CC[N@H+]2C(=O)c2ccccc2)cc1 (chirality)
COc1ccc(OC[C@@H]2c3ccc(OC)cc3CC[N@H+]2C(=O)c2ccccc2)cc1 (3D coordinates assigned)
COc1ccc(OC[C@@H]2c3ccc(OC)cc3CC[N@H+]2C(=O)c2ccccc2)cc1 (nonaromatic ring conformer: 77.79865529222164 kcal/mol)

>  <smiles>  (18) 
COc1ccc(OCC2c3ccc(OC)cc3CCN2C(=O)c2ccccc2)cc1

>  <score_type>  (18) 
oracle

>  <origin>  (18) 
adg

>  <m_score__min__energy>  (18) 
-7.3799999999999999

>  <m_primary>  (18) 
energy

$$$$
18:0
     RDKit          3D

 55 57  0  0  0  0  0  0  0  0999 V2000
    0.6840   22.7690  -35.9330 C   0  0  0  0  0  0  0  0  0  0  0  0
    0.6140   22.2610  -34.6050 O   0  0  0  0  0  0  0  0  0  0  0  0
   -0.2900   21.2750  -34.1810 C   0  0  0  0  0  0  0  0  0  0  0  0
   -0.6060   20.1550  -34.9680 C   0  0  0  0  0  0  0  0  0  0  0  0
   -1.5130   19.2010  -34.5040 C   0  0  0  0  0  0  0  0  0  0  0  0
   -2.1180   19.3460  -33.2450 C   0  0  0  0  0  0  0  0  0  0  0  0
   -3.1110   18.3150  -32.7660 C   0  0  0  0  0  0  0  0  0  0  0  0
   -4.4740   18.6520  -33.2280 N   0  0  0  0  0  0  0  0  0  0  0  0
   -5.4760   17.8090  -32.5580 C   0  0  0  0  0  0  0  0  0  0  0  0
   -6.8660   18.0780  -33.1470 C   0  0  0  0  0  0  0  0  0  0  0  0
   -7.2510   19.5120  -33.1310 N   0  0  0  0  0  0  0  0  0  0  0  0
   -8.0790   19.9310  -31.9650 C   0  0  0  0  0  0  0  0  0  0  0  0
   -8.5120   21.4030  -31.9380 C   0  0  0  0  0  0  0  0  0  0  0  0
   -8.0450   22.0360  -30.7480 O   0  0  0  0  0  0  0  0  0  0  0  0
   -6.8870   22.8220  -30.6690 C   0  0  0  0  0  0  0  0  0  0  0  0
   -5.5920   22.2740  -30.7640 C   0  0  0  0  0  0  0  0  0  0  0  0
   -4.4700   23.1030  -30.6700 C   0  0  0  0  0  0  0  0  0  0  0  0
   -4.6280   24.4790  -30.4820 C   0  0  0  0  0  0  0  0  0  0  0  0
   -3.5380   25.2810  -30.3910 F   0  0  0  0  0  0  0  0  0  0  0  0
   -5.9100   25.0280  -30.3890 C   0  0  0  0  0  0  0  0  0  0  0  0
   -7.0330   24.2030  -30.4830 C   0  0  0  0  0  0  0  0  0  0  0  0
   -6.1530   20.4530  -33.4860 C   0  0  0  0  0  0  0  0  0  0  0  0
   -4.7710   20.0630  -32.9390 C   0  0  0  0  0  0  0  0  0  0  0  0
   -1.8120   20.4670  -32.4490 C   0  0  0  0  0  0  0  0  0  0  0  0
   -2.4350   20.5990  -31.1970 O   0  0  0  0  0  0  0  0  0  0  0  0
   -1.7670   20.9700  -29.9960 C   0  0  0  0  0  0  0  0  0  0  0  0
   -0.8950   21.4240  -32.9280 C   0  0  0  0  0  0  0  0  0  0  0  0
    0.8341   23.8583  -35.9015 H   0  0  0  0  0  0  0  0  0  0  0  0
    1.5257   22.2980  -36.4618 H   0  0  0  0  0  0  0  0  0  0  0  0
   -0.2537   22.5432  -36.4618 H   0  0  0  0  0  0  0  0  0  0  0  0
   -0.1363   20.0293  -35.9547 H   0  0  0  0  0  0  0  0  0  0  0  0
   -1.7557   18.3291  -35.1291 H   0  0  0  0  0  0  0  0  0  0  0  0
   -2.8282   17.3288  -33.1629 H   0  0  0  0  0  0  0  0  0  0  0  0
   -3.1030   18.2989  -31.6661 H   0  0  0  0  0  0  0  0  0  0  0  0
   -5.2173   16.7499  -32.7039 H   0  0  0  0  0  0  0  0  0  0  0  0
   -5.4870   18.0458  -31.4838 H   0  0  0  0  0  0  0  0  0  0  0  0
   -6.8759   17.7269  -34.1894 H   0  0  0  0  0  0  0  0  0  0  0  0
   -7.5921   17.5420  -32.5181 H   0  0  0  0  0  0  0  0  0  0  0  0
   -7.9270   19.6020  -33.9290 H   0  0  0  0  0  0  0  0  0  0  0  0
   -8.9889   19.3130  -31.9597 H   0  0  0  0  0  0  0  0  0  0  0  0
   -7.4361   19.7961  -31.0827 H   0  0  0  0  0  0  0  0  0  0  0  0
   -8.0919   21.9207  -32.8129 H   0  0  0  0  0  0  0  0  0  0  0  0
   -9.6106   21.4527  -31.9615 H   0  0  0  0  0  0  0  0  0  0  0  0
   -5.4637   21.1916  -30.9124 H   0  0  0  0  0  0  0  0  0  0  0  0
   -3.4609   22.6714  -30.7442 H   0  0  0  0  0  0  0  0  0  0  0  0
   -6.0346   26.1109  -30.2416 H   0  0  0  0  0  0  0  0  0  0  0  0
   -8.0396   24.6407  -30.4105 H   0  0  0  0  0  0  0  0  0  0  0  0
   -6.0857   20.5029  -34.5828 H   0  0  0  0  0  0  0  0  0  0  0  0
   -6.4091   21.4177  -33.0237 H   0  0  0  0  0  0  0  0  0  0  0  0
   -4.0049   20.6965  -33.4099 H   0  0  0  0  0  0  0  0  0  0  0  0
   -4.7699   20.2073  -31.8485 H   0  0  0  0  0  0  0  0  0  0  0  0
   -2.3599   20.6407  -29.1299 H   0  0  0  0  0  0  0  0  0  0  0  0
   -0.7764   20.4928  -29.9650 H   0  0  0  0  0  0  0  0  0  0  0  0
   -1.6485   22.0632  -29.9650 H   0  0  0  0  0  0  0  0  0  0  0  0
   -0.6516   22.2998  -32.3086 H   0  0  0  0  0  0  0  0  0  0  0  0
  1  2  1  0
  2  3  1  0
  3  4  2  0
  4  5  1  0
  5  6  2  0
  6  7  1  0
  7  8  1  0
  8  9  1  0
  9 10  1  0
 10 11  1  0
 11 12  1  0
 12 13  1  0
 13 14  1  0
 14 15  1  0
 15 16  2  0
 16 17  1  0
 17 18  2  0
 18 19  1  0
 18 20  1  0
 20 21  2  0
 11 22  1  0
 22 23  1  0
  6 24  1  0
 24 25  1  0
 25 26  1  0
 24 27  2  0
 27  3  1  0
 23  8  1  0
 21 15  1  0
  1 28  1  0
  1 29  1  0
  1 30  1  0
  4 31  1  0
  5 32  1  0
  7 33  1  0
  7 34  1  0
  9 35  1  0
  9 36  1  0
 10 37  1  0
 10 38  1  0
 11 39  1  0
 12 40  1  0
 12 41  1  0
 13 42  1  0
 13 43  1  0
 16 44  1  0
 17 45  1  0
 20 46  1  0
 21 47  1  0
 22 48  1  0
 22 49  1  0
 23 50  1  0
 23 51  1  0
 26 52  1  0
 26 53  1  0
 26 54  1  0
 27 55  1  0
M  CHG  1  11   1
M  END
>  <UniqueID>  (19) 
19

>  <SMILES>  (19) 
COc1ccc(CN2CC[NH+](CCOc3ccc(F)cc3)CC2)c(OC)c1

>  <Energy>  (19) 
66.12734451227352

>  <Genealogy>  (19) 
COc1ccc(CN2CC[NH+](CCOc3ccc(F)cc3)CC2)c(OC)c1 (protonated)
COc1ccc(CN2CC[NH+](CCOc3ccc(F)cc3)CC2)c(OC)c1 (3D coordinates assigned)
COc1ccc(CN2CC[NH+](CCOc3ccc(F)cc3)CC2)c(OC)c1 (nonaromatic ring conformer: 66.12734451227352 kcal/mol)

>  <smiles>  (19) 
COc1ccc(CN2CCN(CCOc3ccc(F)cc3)CC2)c(OC)c1

>  <score_type>  (19) 
oracle

>  <origin>  (19) 
adg

>  <m_score__min__energy>  (19) 
-7.0199999999999996

>  <m_primary>  (19) 
energy

$$$$
19:0
     RDKit          3D

 54 56  0  0  0  0  0  0  0  0999 V2000
    0.2940   22.2860  -35.6620 C   0  0  0  0  0  0  0  0  0  0  0  0
    0.5630   20.7930  -35.5000 C   0  0  0  0  0  0  0  0  0  0  0  0
    0.0780   20.3250  -34.2410 O   0  0  0  0  0  0  0  0  0  0  0  0
   -1.2740   20.1570  -33.8980 C   0  0  0  0  0  0  0  0  0  0  0  0
   -2.0530   21.1760  -33.3290 C   0  0  0  0  0  0  0  0  0  0  0  0
   -3.3910   20.9400  -33.0160 C   0  0  0  0  0  0  0  0  0  0  0  0
   -3.9620   19.6810  -33.2780 C   0  0  0  0  0  0  0  0  0  0  0  0
   -5.3500   19.4230  -32.9670 N   0  0  0  0  0  0  0  0  0  0  0  0
   -5.7980   18.7830  -31.7400 C   0  0  0  0  0  0  0  0  0  0  0  0
   -7.2880   18.5340  -31.9240 C   0  0  0  0  0  0  0  0  0  0  0  0
   -7.7320   19.4660  -33.0490 C   0  0  1  0  0  0  0  0  0  0  0  0
   -8.2680   20.6640  -32.4830 O   0  0  0  0  0  0  0  0  0  0  0  0
   -7.5180   21.6670  -31.8460 C   0  0  0  0  0  0  0  0  0  0  0  0
   -7.7760   21.9300  -30.4970 C   0  0  0  0  0  0  0  0  0  0  0  0
   -7.0660   22.9210  -29.8150 C   0  0  0  0  0  0  0  0  0  0  0  0
   -6.0710   23.6630  -30.4740 C   0  0  0  0  0  0  0  0  0  0  0  0
   -5.3300   24.7600  -29.7420 C   0  0  2  0  0  0  0  0  0  0  0  0
   -6.1230   26.0690  -29.8110 C   0  0  0  0  0  0  0  0  0  0  0  0
   -4.0040   24.9360  -30.3290 N   0  0  0  0  0  0  0  0  0  0  0  0
   -2.7930   24.4770  -29.7160 C   0  0  0  0  0  0  0  0  0  0  0  0
   -2.5740   23.0150  -29.5210 C   0  0  0  0  0  0  0  0  0  0  0  0
   -1.9370   25.2990  -29.2940 O   0  0  0  0  0  0  0  0  0  0  0  0
   -5.8140   23.4040  -31.8320 C   0  0  0  0  0  0  0  0  0  0  0  0
   -6.5270   22.4120  -32.5120 C   0  0  0  0  0  0  0  0  0  0  0  0
   -6.4600   19.7650  -33.8440 C   0  0  0  0  0  0  0  0  0  0  0  0
   -3.1810   18.7050  -33.8340 N   0  0  0  0  0  0  0  0  0  0  0  0
   -1.8730   18.9190  -34.1430 C   0  0  0  0  0  0  0  0  0  0  0  0
    0.2098   22.7532  -34.6697 H   0  0  0  0  0  0  0  0  0  0  0  0
    1.1230   22.7499  -36.2165 H   0  0  0  0  0  0  0  0  0  0  0  0
   -0.6448   22.4314  -36.2165 H   0  0  0  0  0  0  0  0  0  0  0  0
    0.0561   20.2453  -36.3081 H   0  0  0  0  0  0  0  0  0  0  0  0
    1.6488   20.6230  -35.5453 H   0  0  0  0  0  0  0  0  0  0  0  0
   -1.6077   22.1619  -33.1297 H   0  0  0  0  0  0  0  0  0  0  0  0
   -3.9997   21.7374  -32.5646 H   0  0  0  0  0  0  0  0  0  0  0  0
   -5.2665   17.8321  -31.5875 H   0  0  0  0  0  0  0  0  0  0  0  0
   -5.5976   19.4104  -30.8590 H   0  0  0  0  0  0  0  0  0  0  0  0
   -7.4692   17.4852  -32.2019 H   0  0  0  0  0  0  0  0  0  0  0  0
   -7.8472   18.7256  -30.9963 H   0  0  0  0  0  0  0  0  0  0  0  0
   -8.5111   19.0248  -33.6880 H   0  0  0  0  0  0  0  0  0  0  0  0
   -8.5463   21.3503  -29.9673 H   0  0  0  0  0  0  0  0  0  0  0  0
   -7.2870   23.1217  -28.7563 H   0  0  0  0  0  0  0  0  0  0  0  0
   -5.2168   24.4765  -28.6852 H   0  0  0  0  0  0  0  0  0  0  0  0
   -6.3370   26.4222  -28.7915 H   0  0  0  0  0  0  0  0  0  0  0  0
   -5.5325   26.8277  -30.3455 H   0  0  0  0  0  0  0  0  0  0  0  0
   -7.0689   25.8969  -30.3455 H   0  0  0  0  0  0  0  0  0  0  0  0
   -2.5402   22.7896  -28.4449 H   0  0  0  0  0  0  0  0  0  0  0  0
   -3.3983   22.4554  -29.9871 H   0  0  0  0  0  0  0  0  0  0  0  0
   -1.6219   22.7215  -29.9871 H   0  0  0  0  0  0  0  0  0  0  0  0
   -5.0465   23.9860  -32.3632 H   0  0  0  0  0  0  0  0  0  0  0  0
   -6.3124   22.2129  -33.5723 H   0  0  0  0  0  0  0  0  0  0  0  0
   -6.4277   19.1536  -34.7578 H   0  0  0  0  0  0  0  0  0  0  0  0
   -6.4177   20.8191  -34.1556 H   0  0  0  0  0  0  0  0  0  0  0  0
   -3.5750   17.7590  -34.0300 H   0  0  0  0  0  0  0  0  0  0  0  0
   -1.2805   18.1076  -34.5909 H   0  0  0  0  0  0  0  0  0  0  0  0
  1  2  1  0
  2  3  1  0
  3  4  1  0
  4  5  2  0
  5  6  1  0
  6  7  2  0
  7  8  1  0
  8  9  1  0
  9 10  1  0
 10 11  1  0
 11 12  1  0
 12 13  1  0
 13 14  2  0
 14 15  1  0
 15 16  2  0
 16 17  1  0
 17 18  1  0
 17 19  1  0
 19 20  1  0
 20 21  1  0
 20 22  2  0
 16 23  1  0
 23 24  2  0
 11 25  1  0
  7 26  1  0
 26 27  2  0
 27  4  1  0
 25  8  1  0
 24 13  1  0
  1 28  1  0
  1 29  1  0
  1 30  1  0
  2 31  1  0
  2 32  1  0
  5 33  1  0
  6 34  1  0
  9 35  1  0
  9 36  1  0
 10 37  1  0
 10 38  1  0
 11 39  1  6
 14 40  1  0
 15 41  1  0
 17 42  1  1
 18 43  1  0
 18 44  1  0
 18 45  1  0
 21 46  1  0
 21 47  1  0
 21 48  1  0
 23 49  1  0
 24 50  1  0
 25 51  1  0
 25 52  1  0
 26 53  1  0
 27 54  1  0
M  CHG  2  19  -1  26   1
M  END
>  <UniqueID>  (20) 
20

>  <SMILES>  (20) 
CCOc1ccc(N2CC[C@@H](Oc3ccc([C@H](C)[N-]C(C)=O)cc3)C2)[nH+]c1

>  <Energy>  (20) 
49.37145487411489

>  <Genealogy>  (20) 
CCOc1ccc(N2CCC(Oc3ccc(C(C)[N-]C(C)=O)cc3)C2)[nH+]c1 (protonated)
CCOc1ccc(N2CC[C@@H](Oc3ccc([C@H](C)[N-]C(C)=O)cc3)C2)[nH+]c1 (chirality)
CCOc1ccc(N2CC[C@@H](Oc3ccc([C@H](C)[N-]C(C)=O)cc3)C2)[nH+]c1 (3D coordinates assigned)
CCOc1ccc(N2CC[C@@H](Oc3ccc([C@H](C)[N-]C(C)=O)cc3)C2)[nH+]c1 (nonaromatic ring conformer: 49.37145487411489 kcal/mol)

>  <smiles>  (20) 
CCOc1ccc(N2CCC(Oc3ccc(C(C)NC(C)=O)cc3)C2)nc1

>  <score_type>  (20) 
oracle

>  <origin>  (20) 
adg

>  <m_score__min__energy>  (20) 
-9.3699999999999992

>  <m_primary>  (20) 
energy

$$$$
20:0
     RDKit          3D

 41 42  0  0  0  0  0  0  0  0999 V2000
   -2.6920   24.5170  -29.3490 C   0  0  0  0  0  0  0  0  0  0  0  0
   -3.5130   24.8330  -30.4680 O   0  0  0  0  0  0  0  0  0  0  0  0
   -4.8190   24.3520  -30.6610 C   0  0  0  0  0  0  0  0  0  0  0  0
   -5.9480   25.0800  -30.2380 C   0  0  0  0  0  0  0  0  0  0  0  0
   -7.2300   24.5780  -30.4530 C   0  0  0  0  0  0  0  0  0  0  0  0
   -7.4060   23.3460  -31.0820 C   0  0  0  0  0  0  0  0  0  0  0  0
   -6.2960   22.5910  -31.4980 C   0  0  0  0  0  0  0  0  0  0  0  0
   -6.5310   21.2770  -32.2020 C   0  0  0  0  0  0  0  0  0  0  0  0
   -8.0380   21.0220  -32.3840 C   0  0  0  0  0  0  0  0  0  0  0  0
   -8.3230   19.7580  -33.0890 N   0  0  0  0  0  0  0  0  0  0  0  0
   -8.3480   18.5560  -32.2300 C   0  0  0  0  0  0  0  0  0  0  0  0
   -7.2570   17.5270  -32.5770 C   0  0  0  0  0  0  0  0  0  0  0  0
   -6.6050   17.8440  -33.8070 O   0  0  0  0  0  0  0  0  0  0  0  0
   -5.2160   17.9530  -33.9910 C   0  0  0  0  0  0  0  0  0  0  0  0
   -4.4760   19.0770  -33.5800 C   0  0  0  0  0  0  0  0  0  0  0  0
   -3.0970   19.1100  -33.8000 C   0  0  0  0  0  0  0  0  0  0  0  0
   -2.4750   18.0620  -34.4030 N   0  0  0  0  0  0  0  0  0  0  0  0
   -3.1650   16.9630  -34.8060 C   0  0  0  0  0  0  0  0  0  0  0  0
   -4.5460   16.8890  -34.6050 C   0  0  0  0  0  0  0  0  0  0  0  0
   -4.9940   23.1090  -31.2950 C   0  0  0  0  0  0  0  0  0  0  0  0
   -3.4330   22.1520  -31.8860 Br  0  0  0  0  0  0  0  0  0  0  0  0
   -3.2414   24.7285  -28.4198 H   0  0  0  0  0  0  0  0  0  0  0  0
   -2.4227   23.4510  -29.3812 H   0  0  0  0  0  0  0  0  0  0  0  0
   -1.7774   25.1274  -29.3812 H   0  0  0  0  0  0  0  0  0  0  0  0
   -5.8171   26.0497  -29.7354 H   0  0  0  0  0  0  0  0  0  0  0  0
   -8.1067   25.1559  -30.1252 H   0  0  0  0  0  0  0  0  0  0  0  0
   -8.4223   22.9618  -31.2541 H   0  0  0  0  0  0  0  0  0  0  0  0
   -6.0471   21.3043  -33.1895 H   0  0  0  0  0  0  0  0  0  0  0  0
   -6.1053   20.4667  -31.5920 H   0  0  0  0  0  0  0  0  0  0  0  0
   -8.5106   20.9850  -31.3914 H   0  0  0  0  0  0  0  0  0  0  0  0
   -8.4407   21.8414  -32.9975 H   0  0  0  0  0  0  0  0  0  0  0  0
   -9.2440   19.8490  -33.5770 H   0  0  0  0  0  0  0  0  0  0  0  0
   -7.5990   19.6170  -33.8320 H   0  0  0  0  0  0  0  0  0  0  0  0
   -8.2082   18.8721  -31.1857 H   0  0  0  0  0  0  0  0  0  0  0  0
   -9.3184   18.0640  -32.3923 H   0  0  0  0  0  0  0  0  0  0  0  0
   -6.5095   17.5140  -31.7701 H   0  0  0  0  0  0  0  0  0  0  0  0
   -7.7358   16.5427  -32.6861 H   0  0  0  0  0  0  0  0  0  0  0  0
   -4.9795   19.9230  -33.0893 H   0  0  0  0  0  0  0  0  0  0  0  0
   -2.5123   19.9867  -33.4844 H   0  0  0  0  0  0  0  0  0  0  0  0
   -2.6355   16.1299  -35.2914 H   0  0  0  0  0  0  0  0  0  0  0  0
   -5.1041   15.9979  -34.9282 H   0  0  0  0  0  0  0  0  0  0  0  0
  1  2  1  0
  2  3  1  0
  3  4  2  0
  4  5  1  0
  5  6  2  0
  6  7  1  0
  7  8  1  0
  8  9  1  0
  9 10  1  0
 10 11  1  0
 11 12  1  0
 12 13  1  0
 13 14  1  0
 14 15  2  0
 15 16  1  0
 16 17  2  0
 17 18  1  0
 18 19  2  0
  7 20  2  0
 20 21  1  0
 20  3  1  0
 19 14  1  0
  1 22  1  0
  1 23  1  0
  1 24  1  0
  4 25  1  0
  5 26  1  0
  6 27  1  0
  8 28  1  0
  8 29  1  0
  9 30  1  0
  9 31  1  0
 10 32  1  0
 10 33  1  0
 11 34  1  0
 11 35  1  0
 12 36  1  0
 12 37  1  0
 15 38  1  0
 16 39  1  0
 18 40  1  0
 19 41  1  0
M  CHG  1  10   1
M  END
>  <UniqueID>  (21) 
21

>  <SMILES>  (21) 
COc1cccc(CC[NH2+]CCOc2ccncc2)c1Br

>  <Energy>  (21) 
42.347698602150516

>  <Genealogy>  (21) 
COc1cccc(CC[NH2+]CCOc2ccncc2)c1Br (protonated)
COc1cccc(CC[NH2+]CCOc2ccncc2)c1Br (3D coordinates assigned)
COc1cccc(CC[NH2+]CCOc2ccncc2)c1Br (optimized conformer: 42.347698602150516 kcal/mol)

>  <smiles>  (21) 
COc1cccc(CCNCCOc2ccncc2)c1Br

>  <score_type>  (21) 
oracle

>  <origin>  (21) 
adg

>  <m_score__min__energy>  (21) 
-6.6100000000000003

>  <m_primary>  (21) 
energy

$$$$
21:0
     RDKit          3D

 27 27  0  0  0  0  0  0  0  0999 V2000
   -8.7500   18.4610  -31.6170 C   0  0  0  0  0  0  0  0  0  0  0  0
   -7.6720   18.5460  -32.6990 C   0  0  0  0  0  0  0  0  0  0  0  0
   -7.7390   19.8040  -33.4680 N   0  0  0  0  0  0  0  0  0  0  0  0
   -7.2330   20.9440  -32.7170 C   0  0  0  0  0  0  0  0  0  0  0  0
   -8.1280   21.8150  -32.0240 C   0  0  0  0  0  0  0  0  0  0  0  0
   -9.6130   21.5560  -31.9520 C   0  0  0  0  0  0  0  0  0  0  0  0
   -7.6250   22.9360  -31.3460 C   0  0  0  0  0  0  0  0  0  0  0  0
   -6.2630   23.2090  -31.3320 C   0  0  0  0  0  0  0  0  0  0  0  0
   -5.3740   22.3560  -31.9740 C   0  0  0  0  0  0  0  0  0  0  0  0
   -5.8290   21.2120  -32.6470 C   0  0  0  0  0  0  0  0  0  0  0  0
   -4.7830   20.3510  -33.3150 C   0  0  0  0  0  0  0  0  0  0  0  0
   -8.2771   18.4983  -30.6245 H   0  0  0  0  0  0  0  0  0  0  0  0
   -9.4446   19.3072  -31.7242 H   0  0  0  0  0  0  0  0  0  0  0  0
   -9.3034   17.5164  -31.7242 H   0  0  0  0  0  0  0  0  0  0  0  0
   -6.6846   18.4785  -32.2189 H   0  0  0  0  0  0  0  0  0  0  0  0
   -7.8385   17.7162  -33.4017 H   0  0  0  0  0  0  0  0  0  0  0  0
   -7.2360   19.6710  -34.3730 H   0  0  0  0  0  0  0  0  0  0  0  0
   -8.7270   19.9830  -33.7500 H   0  0  0  0  0  0  0  0  0  0  0  0
   -9.9251   21.5016  -30.8986 H   0  0  0  0  0  0  0  0  0  0  0  0
  -10.1525   22.3736  -32.4525 H   0  0  0  0  0  0  0  0  0  0  0  0
   -9.8439   20.6040  -32.4525 H   0  0  0  0  0  0  0  0  0  0  0  0
   -8.3185   23.6075  -30.8186 H   0  0  0  0  0  0  0  0  0  0  0  0
   -5.8876   24.1024  -30.8115 H   0  0  0  0  0  0  0  0  0  0  0  0
   -4.2974   22.5808  -31.9544 H   0  0  0  0  0  0  0  0  0  0  0  0
   -4.1750   19.8505  -32.5470 H   0  0  0  0  0  0  0  0  0  0  0  0
   -5.2769   19.5943  -33.9422 H   0  0  0  0  0  0  0  0  0  0  0  0
   -4.1353   20.9812  -33.9422 H   0  0  0  0  0  0  0  0  0  0  0  0
  1  2  1  0
  2  3  1  0
  3  4  1  0
  4  5  2  0
  5  6  1  0
  5  7  1  0
  7  8  2  0
  8  9  1  0
  9 10  2  0
 10 11  1  0
 10  4  1  0
  1 12  1  0
  1 13  1  0
  1 14  1  0
  2 15  1  0
  2 16  1  0
  3 17  1  0
  3 18  1  0
  6 19  1  0
  6 20  1  0
  6 21  1  0
  7 22  1  0
  8 23  1  0
  9 24  1  0
 11 25  1  0
 11 26  1  0
 11 27  1  0
M  CHG  1   3   1
M  END
>  <UniqueID>  (22) 
22

>  <SMILES>  (22) 
CC[NH2+]c1c(C)cccc1C

>  <Energy>  (22) 
29.27204531330477

>  <Genealogy>  (22) 
CC[NH2+]c1c(C)cccc1C (protonated)
CC[NH2+]c1c(C)cccc1C (3D coordinates assigned)
CC[NH2+]c1c(C)cccc1C (optimized conformer: 29.27204531330477 kcal/mol)

>  <smiles>  (22) 
CCNc1c(C)cccc1C

>  <score_type>  (22) 
oracle

>  <origin>  (22) 
adg

>  <m_score__min__energy>  (22) 
-5

>  <m_primary>  (22) 
energy

$$$$
22:0
     RDKit          3D

 50 52  0  0  0  0  0  0  0  0999 V2000
   -2.3300   24.1990  -29.1640 C   0  0  0  0  0  0  0  0  0  0  0  0
   -3.1630   24.8700  -30.1070 O   0  0  0  0  0  0  0  0  0  0  0  0
   -4.5370   24.6110  -30.2910 C   0  0  0  0  0  0  0  0  0  0  0  0
   -5.5210   25.4510  -29.7420 C   0  0  0  0  0  0  0  0  0  0  0  0
   -6.8730   25.2070  -29.9780 C   0  0  0  0  0  0  0  0  0  0  0  0
   -7.2640   24.1290  -30.7710 C   0  0  0  0  0  0  0  0  0  0  0  0
   -6.3120   23.2380  -31.2980 C   0  0  0  0  0  0  0  0  0  0  0  0
   -4.9330   23.4840  -31.0470 C   0  0  0  0  0  0  0  0  0  0  0  0
   -3.8720   22.5940  -31.6500 C   0  0  0  0  0  0  0  0  0  0  0  0
   -4.3970   21.1760  -31.8240 C   0  0  0  0  0  0  0  0  0  0  0  0
   -5.6290   21.1840  -32.7330 C   0  0  0  0  0  0  0  0  0  0  0  0
   -6.7770   22.0910  -32.2000 C   0  0  1  0  0  0  0  0  0  0  0  0
   -7.9640   21.2690  -31.6130 C   0  0  0  0  0  0  0  0  0  0  0  0
   -8.0840   19.9180  -32.2300 N   0  0  0  0  0  0  0  0  0  0  0  0
   -9.4410   19.7110  -32.7750 C   0  0  0  0  0  0  0  0  0  0  0  0
   -7.7380   18.8140  -31.2860 C   0  0  0  0  0  0  0  0  0  0  0  0
   -7.6170   17.4820  -32.0350 C   0  0  0  0  0  0  0  0  0  0  0  0
   -6.4990   17.5030  -33.0410 C   0  0  0  0  0  0  0  0  0  0  0  0
   -5.4940   16.5210  -32.9910 C   0  0  0  0  0  0  0  0  0  0  0  0
   -4.4760   16.5350  -33.9460 C   0  0  0  0  0  0  0  0  0  0  0  0
   -4.4700   17.5190  -34.9430 C   0  0  0  0  0  0  0  0  0  0  0  0
   -5.4940   18.4740  -34.9730 C   0  0  0  0  0  0  0  0  0  0  0  0
   -6.4810   18.4470  -34.0340 N   0  0  0  0  0  0  0  0  0  0  0  0
   -2.6499   24.4567  -28.1436 H   0  0  0  0  0  0  0  0  0  0  0  0
   -2.4122   23.1119  -29.3105 H   0  0  0  0  0  0  0  0  0  0  0  0
   -1.2853   24.5108  -29.3105 H   0  0  0  0  0  0  0  0  0  0  0  0
   -5.2218   26.3081  -29.1209 H   0  0  0  0  0  0  0  0  0  0  0  0
   -7.6342   25.8674  -29.5370 H   0  0  0  0  0  0  0  0  0  0  0  0
   -8.3312   23.9733  -30.9873 H   0  0  0  0  0  0  0  0  0  0  0  0
   -3.5799   22.9943  -32.6321 H   0  0  0  0  0  0  0  0  0  0  0  0
   -3.0038   22.5701  -30.9750 H   0  0  0  0  0  0  0  0  0  0  0  0
   -3.6138   20.5502  -32.2767 H   0  0  0  0  0  0  0  0  0  0  0  0
   -4.6755   20.7698  -30.8404 H   0  0  0  0  0  0  0  0  0  0  0  0
   -5.3283   21.5478  -33.7266 H   0  0  0  0  0  0  0  0  0  0  0  0
   -6.0153   20.1547  -32.7701 H   0  0  0  0  0  0  0  0  0  0  0  0
   -7.1747   22.6049  -33.0875 H   0  0  0  0  0  0  0  0  0  0  0  0
   -7.8091   21.1497  -30.5305 H   0  0  0  0  0  0  0  0  0  0  0  0
   -8.8912   21.8192  -31.8312 H   0  0  0  0  0  0  0  0  0  0  0  0
  -10.1562   19.6019  -31.9464 H   0  0  0  0  0  0  0  0  0  0  0  0
   -9.7242   20.5763  -33.3923 H   0  0  0  0  0  0  0  0  0  0  0  0
   -9.4533   18.8006  -33.3923 H   0  0  0  0  0  0  0  0  0  0  0  0
   -6.7791   19.0428  -30.7980 H   0  0  0  0  0  0  0  0  0  0  0  0
   -8.5362   18.7269  -30.5342 H   0  0  0  0  0  0  0  0  0  0  0  0
   -7.4246   16.6807  -31.3064 H   0  0  0  0  0  0  0  0  0  0  0  0
   -8.5589   17.3087  -32.5761 H   0  0  0  0  0  0  0  0  0  0  0  0
   -5.5098   15.7494  -32.2072 H   0  0  0  0  0  0  0  0  0  0  0  0
   -3.6808   15.7755  -33.9157 H   0  0  0  0  0  0  0  0  0  0  0  0
   -3.6681   17.5414  -35.6957 H   0  0  0  0  0  0  0  0  0  0  0  0
   -5.5015   19.2469  -35.7557 H   0  0  0  0  0  0  0  0  0  0  0  0
   -7.2380   19.1680  -34.0820 H   0  0  0  0  0  0  0  0  0  0  0  0
  1  2  1  0
  2  3  1  0
  3  4  2  0
  4  5  1  0
  5  6  2  0
  6  7  1  0
  7  8  2  0
  8  9  1  0
  9 10  1  0
 10 11  1  0
 11 12  1  0
 12 13  1  0
 13 14  1  0
 14 15  1  0
 14 16  1  0
 16 17  1  0
 17 18  1  0
 18 19  2  0
 19 20  1  0
 20 21  2  0
 21 22  1  0
 22 23  2  0
  8  3  1  0
 23 18  1  0
 12  7  1  0
  1 24  1  0
  1 25  1  0
  1 26  1  0
  4 27  1  0
  5 28  1  0
  6 29  1  0
  9 30  1  0
  9 31  1  0
 10 32  1  0
 10 33  1  0
 11 34  1  0
 11 35  1  0
 12 36  1  6
 13 37  1  0
 13 38  1  0
 15 39  1  0
 15 40  1  0
 15 41  1  0
 16 42  1  0
 16 43  1  0
 17 44  1  0
 17 45  1  0
 19 46  1  0
 20 47  1  0
 21 48  1  0
 22 49  1  0
 23 50  1  0
M  CHG  1  23   1
M  END
>  <UniqueID>  (23) 
23

>  <SMILES>  (23) 
COc1cccc2c1CCC[C@H]2CN(C)CCc1cccc[nH+]1

>  <Energy>  (23) 
57.70528684346489

>  <Genealogy>  (23) 
COc1cccc2c1CCCC2CN(C)CCc1cccc[nH+]1 (protonated)
COc1cccc2c1CCC[C@H]2CN(C)CCc1cccc[nH+]1 (chirality)
COc1cccc2c1CCC[C@H]2CN(C)CCc1cccc[nH+]1 (3D coordinates assigned)
COc1cccc2c1CCC[C@H]2CN(C)CCc1cccc[nH+]1 (nonaromatic ring conformer: 57.70528684346489 kcal/mol)

>  <smiles>  (23) 
COc1cccc2c1CCCC2CN(C)CCc1ccccn1

>  <score_type>  (23) 
oracle

>  <origin>  (23) 
adg

>  <m_score__min__energy>  (23) 
-8.9100000000000001

>  <m_primary>  (23) 
energy

$$$$
23:0
     RDKit          3D

 52 55  0  0  0  0  0  0  0  0999 V2000
   -6.3650   24.3310  -30.8510 C   0  0  0  0  0  0  0  0  0  0  0  0
   -5.0050   24.2150  -31.2600 O   0  0  0  0  0  0  0  0  0  0  0  0
   -4.3250   22.9990  -31.4410 C   0  0  0  0  0  0  0  0  0  0  0  0
   -4.7030   22.0800  -32.4410 C   0  0  0  0  0  0  0  0  0  0  0  0
   -4.0280   20.8550  -32.5840 C   0  0  0  0  0  0  0  0  0  0  0  0
   -2.9520   20.5650  -31.7340 C   0  0  0  0  0  0  0  0  0  0  0  0
   -2.5720   21.4690  -30.7390 C   0  0  0  0  0  0  0  0  0  0  0  0
   -3.2520   22.6870  -30.5850 C   0  0  0  0  0  0  0  0  0  0  0  0
   -2.8380   23.6060  -29.5580 N   0  0  0  0  0  0  0  0  0  0  0  0
   -1.4140   23.8790  -29.3400 C   0  0  0  0  0  0  0  0  0  0  0  0
   -1.1680   24.3580  -27.8990 C   0  0  0  0  0  0  0  0  0  0  0  0
   -2.0080   23.6280  -26.9240 N   0  0  0  0  0  0  0  0  0  0  0  0
   -1.6100   22.2120  -26.8100 C   0  0  0  0  0  0  0  0  0  0  0  0
   -3.4660   23.7750  -27.1740 C   0  0  0  0  0  0  0  0  0  0  0  0
   -3.8170   24.1670  -28.6220 C   0  0  0  0  0  0  0  0  0  0  0  0
   -2.2570   19.3200  -31.8680 N   0  0  0  0  0  0  0  0  0  0  0  0
   -2.4810   18.5020  -32.8500 C   0  0  0  0  0  0  0  0  0  0  0  0
   -3.4080   18.8650  -33.9800 C   0  0  0  0  0  0  0  0  0  0  0  0
   -4.4080   19.8650  -33.5680 N   0  0  0  0  0  0  0  0  0  0  0  0
   -5.7540   19.8180  -34.1660 C   0  0  0  0  0  0  0  0  0  0  0  0
   -6.7990   19.4650  -33.1340 C   0  0  0  0  0  0  0  0  0  0  0  0
   -7.7450   20.4160  -32.7130 C   0  0  0  0  0  0  0  0  0  0  0  0
   -8.7130   20.0760  -31.7620 C   0  0  0  0  0  0  0  0  0  0  0  0
   -8.7400   18.7910  -31.2150 C   0  0  0  0  0  0  0  0  0  0  0  0
   -7.7930   17.8450  -31.6120 C   0  0  0  0  0  0  0  0  0  0  0  0
   -6.8240   18.1790  -32.5640 C   0  0  0  0  0  0  0  0  0  0  0  0
   -6.4184   24.3356  -29.7523 H   0  0  0  0  0  0  0  0  0  0  0  0
   -6.7869   25.2684  -31.2425 H   0  0  0  0  0  0  0  0  0  0  0  0
   -6.9396   23.4786  -31.2425 H   0  0  0  0  0  0  0  0  0  0  0  0
   -5.5356   22.3242  -33.1171 H   0  0  0  0  0  0  0  0  0  0  0  0
   -1.7331   21.2242  -30.0709 H   0  0  0  0  0  0  0  0  0  0  0  0
   -0.8383   22.9588  -29.5182 H   0  0  0  0  0  0  0  0  0  0  0  0
   -1.0943   24.6691  -30.0354 H   0  0  0  0  0  0  0  0  0  0  0  0
   -0.1094   24.1976  -27.6467 H   0  0  0  0  0  0  0  0  0  0  0  0
   -1.4314   25.4246  -27.8446 H   0  0  0  0  0  0  0  0  0  0  0  0
   -1.5328   21.9372  -25.7477 H   0  0  0  0  0  0  0  0  0  0  0  0
   -2.3649   21.5785  -27.2987 H   0  0  0  0  0  0  0  0  0  0  0  0
   -0.6356   22.0645  -27.2987 H   0  0  0  0  0  0  0  0  0  0  0  0
   -3.9543   22.8157  -26.9473 H   0  0  0  0  0  0  0  0  0  0  0  0
   -3.8188   24.5928  -26.5284 H   0  0  0  0  0  0  0  0  0  0  0  0
   -4.8168   23.7806  -28.8693 H   0  0  0  0  0  0  0  0  0  0  0  0
   -3.8023   25.2636  -28.7070 H   0  0  0  0  0  0  0  0  0  0  0  0
   -1.9826   17.5214  -32.8573 H   0  0  0  0  0  0  0  0  0  0  0  0
   -2.8141   19.2763  -34.8095 H   0  0  0  0  0  0  0  0  0  0  0  0
   -3.9424   17.9547  -34.2894 H   0  0  0  0  0  0  0  0  0  0  0  0
   -5.9910   20.8033  -34.5939 H   0  0  0  0  0  0  0  0  0  0  0  0
   -5.7609   19.0436  -34.9472 H   0  0  0  0  0  0  0  0  0  0  0  0
   -7.7239   21.4323  -33.1334 H   0  0  0  0  0  0  0  0  0  0  0  0
   -9.4552   20.8229  -31.4440 H   0  0  0  0  0  0  0  0  0  0  0  0
   -9.5065   18.5247  -30.4723 H   0  0  0  0  0  0  0  0  0  0  0  0
   -7.8089   16.8354  -31.1755 H   0  0  0  0  0  0  0  0  0  0  0  0
   -6.0769   17.4314  -32.8689 H   0  0  0  0  0  0  0  0  0  0  0  0
  1  2  1  0
  2  3  1  0
  3  4  2  0
  4  5  1  0
  5  6  2  0
  6  7  1  0
  7  8  2  0
  8  9  1  0
  9 10  1  0
 10 11  1  0
 11 12  1  0
 12 13  1  0
 12 14  1  0
 14 15  1  0
  6 16  1  0
 16 17  2  0
 17 18  1  0
 18 19  1  0
 19 20  1  0
 20 21  1  0
 21 22  2  0
 22 23  1  0
 23 24  2  0
 24 25  1  0
 25 26  2  0
  8  3  1  0
 15  9  1  0
 26 21  1  0
 19  5  1  0
  1 27  1  0
  1 28  1  0
  1 29  1  0
  4 30  1  0
  7 31  1  0
 10 32  1  0
 10 33  1  0
 11 34  1  0
 11 35  1  0
 13 36  1  0
 13 37  1  0
 13 38  1  0
 14 39  1  0
 14 40  1  0
 15 41  1  0
 15 42  1  0
 17 43  1  0
 18 44  1  0
 18 45  1  0
 20 46  1  0
 20 47  1  0
 22 48  1  0
 23 49  1  0
 24 50  1  0
 25 51  1  0
 26 52  1  0
M  END
>  <UniqueID>  (24) 
24

>  <SMILES>  (24) 
COc1cc2c(cc1N1CCN(C)CC1)N=CCN2Cc1ccccc1

>  <Energy>  (24) 
70.60241369198312

>  <Genealogy>  (24) 
COc1cc2c(cc1N1CCN(C)CC1)N=CCN2Cc1ccccc1 (3D coordinates assigned)
COc1cc2c(cc1N1CCN(C)CC1)N=CCN2Cc1ccccc1 (nonaromatic ring conformer: 70.60241369198312 kcal/mol)

>  <smiles>  (24) 
COc1cc2c(cc1N1CCN(C)CC1)N=CCN2Cc1ccccc1

>  <score_type>  (24) 
oracle

>  <origin>  (24) 
adg

>  <m_score__min__energy>  (24) 
-7.8600000000000003

>  <m_primary>  (24) 
energy

$$$$
24:0
     RDKit          3D

 51 53  0  0  0  0  0  0  0  0999 V2000
   -8.8720   18.5200  -31.5360 C   0  0  0  0  0  0  0  0  0  0  0  0
   -8.7250   19.5000  -32.6960 C   0  0  0  0  0  0  0  0  0  0  0  0
   -7.3250   19.9740  -32.8100 N   0  0  0  0  0  0  0  0  0  0  0  0
   -6.4160   19.1830  -33.4770 C   0  0  0  0  0  0  0  0  0  0  0  0
   -6.8010   18.1040  -34.0130 O   0  0  0  0  0  0  0  0  0  0  0  0
   -5.0960   19.5470  -33.5730 N   0  0  0  0  0  0  0  0  0  0  0  0
   -4.1370   18.6400  -34.2460 C   0  0  0  0  0  0  0  0  0  0  0  0
   -3.6270   17.5430  -33.2930 C   0  0  0  0  0  0  0  0  0  0  0  0
   -2.2590   16.9680  -33.6990 C   0  0  0  0  0  0  0  0  0  0  0  0
   -1.1420   17.8630  -33.3180 N   0  0  0  0  0  0  0  0  0  0  0  0
   -0.3960   18.3420  -34.5100 C   0  0  0  0  0  0  0  0  0  0  0  0
   -0.8570   19.7390  -34.9580 C   0  0  0  0  0  0  0  0  0  0  0  0
   -0.6780   20.7610  -33.8910 N   0  0  0  0  0  0  0  0  0  0  0  0
    0.5480   21.5490  -34.1110 C   0  0  0  0  0  0  0  0  0  0  0  0
   -0.6750   20.1850  -32.5230 C   0  0  0  0  0  0  0  0  0  0  0  0
   -1.5990   18.9640  -32.4310 C   0  0  0  0  0  0  0  0  0  0  0  0
   -4.6660   20.7270  -33.0330 C   0  0  0  0  0  0  0  0  0  0  0  0
   -3.4510   21.0630  -33.1230 O   0  0  0  0  0  0  0  0  0  0  0  0
   -5.5690   21.5770  -32.3830 C   0  0  0  0  0  0  0  0  0  0  0  0
   -5.1430   22.8050  -31.8360 C   0  0  0  0  0  0  0  0  0  0  0  0
   -6.0540   23.6550  -31.2110 C   0  0  0  0  0  0  0  0  0  0  0  0
   -5.4630   25.3170  -30.4760 Br  0  0  0  0  0  0  0  0  0  0  0  0
   -7.3970   23.2970  -31.1330 C   0  0  0  0  0  0  0  0  0  0  0  0
   -7.8340   22.0840  -31.6660 C   0  0  0  0  0  0  0  0  0  0  0  0
   -6.9270   21.1900  -32.2890 C   0  0  0  0  0  0  0  0  0  0  0  0
   -8.7904   19.0643  -30.5836 H   0  0  0  0  0  0  0  0  0  0  0  0
   -9.8540   18.0278  -31.5940 H   0  0  0  0  0  0  0  0  0  0  0  0
   -8.0776   17.7613  -31.5940 H   0  0  0  0  0  0  0  0  0  0  0  0
   -9.0130   18.9977  -33.6313 H   0  0  0  0  0  0  0  0  0  0  0  0
   -9.3768   20.3665  -32.5105 H   0  0  0  0  0  0  0  0  0  0  0  0
   -4.6371   18.1642  -35.1024 H   0  0  0  0  0  0  0  0  0  0  0  0
   -3.2738   19.2367  -34.5758 H   0  0  0  0  0  0  0  0  0  0  0  0
   -3.5395   17.9712  -32.2836 H   0  0  0  0  0  0  0  0  0  0  0  0
   -4.3513   16.7161  -33.3327 H   0  0  0  0  0  0  0  0  0  0  0  0
   -2.1208   15.9969  -33.2012 H   0  0  0  0  0  0  0  0  0  0  0  0
   -2.2484   16.8610  -34.7937 H   0  0  0  0  0  0  0  0  0  0  0  0
    0.6755   18.3838  -34.2647 H   0  0  0  0  0  0  0  0  0  0  0  0
   -0.5894   17.6407  -35.3351 H   0  0  0  0  0  0  0  0  0  0  0  0
   -0.2701   20.0399  -35.8383 H   0  0  0  0  0  0  0  0  0  0  0  0
   -1.9302   19.6807  -35.1920 H   0  0  0  0  0  0  0  0  0  0  0  0
   -1.4840   21.4280  -33.9530 H   0  0  0  0  0  0  0  0  0  0  0  0
    0.9832   21.8287  -33.1403 H   0  0  0  0  0  0  0  0  0  0  0  0
    1.2735   20.9476  -34.6785 H   0  0  0  0  0  0  0  0  0  0  0  0
    0.3023   22.4587  -34.6785 H   0  0  0  0  0  0  0  0  0  0  0  0
    0.3497   19.8793  -32.2651 H   0  0  0  0  0  0  0  0  0  0  0  0
   -1.0403   20.9507  -31.8228 H   0  0  0  0  0  0  0  0  0  0  0  0
   -1.6112   18.6033  -31.3919 H   0  0  0  0  0  0  0  0  0  0  0  0
   -2.6054   19.2696  -32.7532 H   0  0  0  0  0  0  0  0  0  0  0  0
   -4.0838   23.0943  -31.9030 H   0  0  0  0  0  0  0  0  0  0  0  0
   -8.1168   23.9735  -30.6490 H   0  0  0  0  0  0  0  0  0  0  0  0
   -8.8992   21.8170  -31.6019 H   0  0  0  0  0  0  0  0  0  0  0  0
  1  2  1  0
  2  3  1  0
  3  4  1  0
  4  5  2  0
  4  6  1  0
  6  7  1  0
  7  8  1  0
  8  9  1  0
  9 10  1  0
 10 11  1  0
 11 12  1  0
 12 13  1  0
 13 14  1  0
 13 15  1  0
 15 16  1  0
  6 17  1  0
 17 18  2  0
 17 19  1  0
 19 20  2  0
 20 21  1  0
 21 22  1  0
 21 23  2  0
 23 24  1  0
 24 25  2  0
 25  3  1  0
 16 10  1  0
 25 19  1  0
  1 26  1  0
  1 27  1  0
  1 28  1  0
  2 29  1  0
  2 30  1  0
  7 31  1  0
  7 32  1  0
  8 33  1  0
  8 34  1  0
  9 35  1  0
  9 36  1  0
 11 37  1  0
 11 38  1  0
 12 39  1  0
 12 40  1  0
 13 41  1  0
 14 42  1  0
 14 43  1  0
 14 44  1  0
 15 45  1  0
 15 46  1  0
 16 47  1  0
 16 48  1  0
 20 49  1  0
 23 50  1  0
 24 51  1  0
M  CHG  1  13   1
M  END
>  <UniqueID>  (25) 
25

>  <SMILES>  (25) 
CCn1c(=O)n(CCCN2CC[NH+](C)CC2)c(=O)c2cc(Br)ccc21

>  <Energy>  (25) 
74.08928386253503

>  <Genealogy>  (25) 
CCn1c(=O)n(CCCN2CC[NH+](C)CC2)c(=O)c2cc(Br)ccc21 (protonated)
CCn1c(=O)n(CCCN2CC[NH+](C)CC2)c(=O)c2cc(Br)ccc21 (3D coordinates assigned)
CCn1c(=O)n(CCCN2CC[NH+](C)CC2)c(=O)c2cc(Br)ccc21 (nonaromatic ring conformer: 74.08928386253503 kcal/mol)

>  <smiles>  (25) 
CCn1c(=O)n(CCCN2CCN(C)CC2)c(=O)c2cc(Br)ccc21

>  <score_type>  (25) 
oracle

>  <origin>  (25) 
adg

>  <m_score__min__energy>  (25) 
-8.3699999999999992

>  <m_primary>  (25) 
energy

$$$$
25:0
     RDKit          3D

 38 40  0  0  0  0  0  0  0  0999 V2000
   -4.5420   25.6660  -30.9180 O   0  0  0  0  0  0  0  0  0  0  0  0
   -3.9030   24.6630  -30.5020 C   0  0  0  0  0  0  0  0  0  0  0  0
   -4.5090   23.2880  -30.6410 C   0  0  0  0  0  0  0  0  0  0  0  0
   -5.7170   23.3020  -31.5020 N   0  0  0  0  0  0  0  0  0  0  0  0
   -6.9910   23.2270  -30.7500 C   0  0  0  0  0  0  0  0  0  0  0  0
   -8.2500   23.3410  -31.6190 C   0  0  0  0  0  0  0  0  0  0  0  0
   -8.6040   22.0960  -32.2060 O   0  0  0  0  0  0  0  0  0  0  0  0
   -7.7490   20.9890  -32.2690 C   0  0  0  0  0  0  0  0  0  0  0  0
   -8.3080   19.7260  -32.0330 C   0  0  0  0  0  0  0  0  0  0  0  0
   -7.5290   18.5730  -32.1240 C   0  0  0  0  0  0  0  0  0  0  0  0
   -6.1760   18.6690  -32.4530 C   0  0  0  0  0  0  0  0  0  0  0  0
   -5.1980   17.2180  -32.5720 Cl  0  0  0  0  0  0  0  0  0  0  0  0
   -5.5970   19.9240  -32.6650 C   0  0  0  0  0  0  0  0  0  0  0  0
   -6.3610   21.1000  -32.5400 C   0  0  0  0  0  0  0  0  0  0  0  0
   -5.6570   22.4340  -32.7020 C   0  0  0  0  0  0  0  0  0  0  0  0
   -2.7140   24.8820  -29.7300 N   0  0  0  0  0  0  0  0  0  0  0  0
   -1.8530   23.8690  -29.1960 C   0  0  0  0  0  0  0  0  0  0  0  0
   -1.4840   23.8680  -27.8420 C   0  0  0  0  0  0  0  0  0  0  0  0
   -0.6710   22.8510  -27.3340 C   0  0  0  0  0  0  0  0  0  0  0  0
   -0.2410   21.8160  -28.1690 C   0  0  0  0  0  0  0  0  0  0  0  0
   -0.6340   21.7940  -29.5100 C   0  0  0  0  0  0  0  0  0  0  0  0
   -1.4480   22.8110  -30.0210 C   0  0  0  0  0  0  0  0  0  0  0  0
   -3.7626   22.6134  -31.0859 H   0  0  0  0  0  0  0  0  0  0  0  0
   -4.8071   22.9433  -29.6398 H   0  0  0  0  0  0  0  0  0  0  0  0
   -7.0230   22.2616  -30.2237 H   0  0  0  0  0  0  0  0  0  0  0  0
   -7.0027   24.0895  -30.0674 H   0  0  0  0  0  0  0  0  0  0  0  0
   -9.0844   23.6885  -30.9921 H   0  0  0  0  0  0  0  0  0  0  0  0
   -8.0402   24.0530  -32.4308 H   0  0  0  0  0  0  0  0  0  0  0  0
   -9.3736   19.6431  -31.7730 H   0  0  0  0  0  0  0  0  0  0  0  0
   -7.9808   17.5878  -31.9365 H   0  0  0  0  0  0  0  0  0  0  0  0
   -4.5323   19.9933  -32.9325 H   0  0  0  0  0  0  0  0  0  0  0  0
   -4.5996   22.2400  -32.9350 H   0  0  0  0  0  0  0  0  0  0  0  0
   -6.1791   22.9713  -33.5074 H   0  0  0  0  0  0  0  0  0  0  0  0
   -1.8361   24.6710  -27.1778 H   0  0  0  0  0  0  0  0  0  0  0  0
   -0.3693   22.8652  -26.2763 H   0  0  0  0  0  0  0  0  0  0  0  0
    0.4057   21.0200  -27.7714 H   0  0  0  0  0  0  0  0  0  0  0  0
   -0.3026   20.9751  -30.1654 H   0  0  0  0  0  0  0  0  0  0  0  0
   -1.7706   22.7800  -31.0722 H   0  0  0  0  0  0  0  0  0  0  0  0
  1  2  2  0
  2  3  1  0
  3  4  1  0
  4  5  1  0
  5  6  1  0
  6  7  1  0
  7  8  1  0
  8  9  2  0
  9 10  1  0
 10 11  2  0
 11 12  1  0
 11 13  1  0
 13 14  2  0
 14 15  1  0
  2 16  1  0
 16 17  1  0
 17 18  2  0
 18 19  1  0
 19 20  2  0
 20 21  1  0
 21 22  2  0
 15  4  1  0
 22 17  1  0
 14  8  1  0
  3 23  1  0
  3 24  1  0
  5 25  1  0
  5 26  1  0
  6 27  1  0
  6 28  1  0
  9 29  1  0
 10 30  1  0
 13 31  1  0
 15 32  1  0
 15 33  1  0
 18 34  1  0
 19 35  1  0
 20 36  1  0
 21 37  1  0
 22 38  1  0
M  CHG  1  16  -1
M  END
>  <UniqueID>  (26) 
26

>  <SMILES>  (26) 
O=C(CN1CCOc2ccc(Cl)cc2C1)[N-]c1ccccc1

>  <Energy>  (26) 
59.205600497088035

>  <Genealogy>  (26) 
O=C(CN1CCOc2ccc(Cl)cc2C1)[N-]c1ccccc1 (protonated)
O=C(CN1CCOc2ccc(Cl)cc2C1)[N-]c1ccccc1 (3D coordinates assigned)
O=C(CN1CCOc2ccc(Cl)cc2C1)[N-]c1ccccc1 (nonaromatic ring conformer: 59.205600497088035 kcal/mol)

>  <smiles>  (26) 
O=C(CN1CCOc2ccc(Cl)cc2C1)Nc1ccccc1

>  <score_type>  (26) 
oracle

>  <origin>  (26) 
adg

>  <m_score__min__energy>  (26) 
-7.9699999999999998

>  <m_primary>  (26) 
energy

$$$$
26:0
     RDKit          3D

 45 47  0  0  0  0  0  0  0  0999 V2000
   -8.7530   19.1460  -31.5570 C   0  0  0  0  0  0  0  0  0  0  0  0
   -7.9900   20.3390  -31.9550 N   0  0  0  0  0  0  0  0  0  0  0  0
   -7.2340   20.1030  -33.1960 C   0  0  0  0  0  0  0  0  0  0  0  0
   -8.7970   21.5820  -31.9840 C   0  0  0  0  0  0  0  0  0  0  0  0
   -8.0420   22.8680  -31.5850 C   0  0  0  0  0  0  0  0  0  0  0  0
   -6.6140   22.6120  -31.3990 N   0  0  0  0  0  0  0  0  0  0  0  0
   -5.6390   23.6620  -31.3460 C   0  0  0  0  0  0  0  0  0  0  0  0
   -5.9780   24.8530  -31.5850 O   0  0  0  0  0  0  0  0  0  0  0  0
   -4.2600   23.3490  -30.9180 C   0  0  0  0  0  0  0  0  0  0  0  0
   -3.7800   24.0270  -29.8460 N   0  0  0  0  0  0  0  0  0  0  0  0
   -2.5370   23.8840  -29.3840 N   0  0  0  0  0  0  0  0  0  0  0  0
   -2.1540   24.6760  -28.2420 C   0  0  0  0  0  0  0  0  0  0  0  0
   -2.8280   24.5480  -27.0120 C   0  0  0  0  0  0  0  0  0  0  0  0
   -2.4220   25.2970  -25.9040 C   0  0  0  0  0  0  0  0  0  0  0  0
   -1.3360   26.1700  -26.0060 C   0  0  0  0  0  0  0  0  0  0  0  0
   -0.7820   27.1890  -24.4880 Br  0  0  0  0  0  0  0  0  0  0  0  0
   -0.6490   26.2900  -27.2170 C   0  0  0  0  0  0  0  0  0  0  0  0
   -1.0520   25.5430  -28.3290 C   0  0  0  0  0  0  0  0  0  0  0  0
   -1.6730   23.0050  -29.9790 C   0  0  0  0  0  0  0  0  0  0  0  0
   -0.5100   22.8390  -29.5130 O   0  0  0  0  0  0  0  0  0  0  0  0
   -2.0960   22.2600  -31.0940 C   0  0  0  0  0  0  0  0  0  0  0  0
   -1.2320   21.3430  -31.7270 C   0  0  0  0  0  0  0  0  0  0  0  0
   -1.6790   20.5820  -32.8070 C   0  0  0  0  0  0  0  0  0  0  0  0
   -2.9900   20.7130  -33.2610 C   0  0  0  0  0  0  0  0  0  0  0  0
   -3.8600   21.6170  -32.6470 C   0  0  0  0  0  0  0  0  0  0  0  0
   -3.4190   22.4210  -31.5720 C   0  0  0  0  0  0  0  0  0  0  0  0
   -8.7920   19.0850  -30.4594 H   0  0  0  0  0  0  0  0  0  0  0  0
   -9.7754   19.2143  -31.9570 H   0  0  0  0  0  0  0  0  0  0  0  0
   -8.2622   18.2465  -31.9570 H   0  0  0  0  0  0  0  0  0  0  0  0
   -6.2112   19.7837  -32.9472 H   0  0  0  0  0  0  0  0  0  0  0  0
   -7.7306   19.3171  -33.7840 H   0  0  0  0  0  0  0  0  0  0  0  0
   -7.1953   21.0318  -33.7840 H   0  0  0  0  0  0  0  0  0  0  0  0
   -9.1788   21.7156  -33.0069 H   0  0  0  0  0  0  0  0  0  0  0  0
   -9.5887   21.4483  -31.2321 H   0  0  0  0  0  0  0  0  0  0  0  0
   -8.1707   23.6193  -32.3781 H   0  0  0  0  0  0  0  0  0  0  0  0
   -8.4557   23.2312  -30.6327 H   0  0  0  0  0  0  0  0  0  0  0  0
   -6.2790   21.6220  -31.4120 H   0  0  0  0  0  0  0  0  0  0  0  0
   -3.6779   23.8553  -26.9229 H   0  0  0  0  0  0  0  0  0  0  0  0
   -2.9590   25.1989  -24.9490 H   0  0  0  0  0  0  0  0  0  0  0  0
    0.2098   26.9728  -27.2959 H   0  0  0  0  0  0  0  0  0  0  0  0
   -0.5026   25.6350  -29.2775 H   0  0  0  0  0  0  0  0  0  0  0  0
   -0.1991   21.2271  -31.3669 H   0  0  0  0  0  0  0  0  0  0  0  0
   -0.9950   19.8767  -33.3016 H   0  0  0  0  0  0  0  0  0  0  0  0
   -3.3410   20.1023  -34.1059 H   0  0  0  0  0  0  0  0  0  0  0  0
   -4.8971   21.7037  -33.0033 H   0  0  0  0  0  0  0  0  0  0  0  0
  1  2  1  0
  2  3  1  0
  2  4  1  0
  4  5  1  0
  5  6  1  0
  6  7  1  0
  7  8  2  0
  7  9  1  0
  9 10  2  0
 10 11  1  0
 11 12  1  0
 12 13  2  0
 13 14  1  0
 14 15  2  0
 15 16  1  0
 15 17  1  0
 17 18  2  0
 11 19  1  0
 19 20  2  0
 19 21  1  0
 21 22  2  0
 22 23  1  0
 23 24  2  0
 24 25  1  0
 25 26  2  0
 26  9  1  0
 18 12  1  0
 26 21  1  0
  1 27  1  0
  1 28  1  0
  1 29  1  0
  3 30  1  0
  3 31  1  0
  3 32  1  0
  4 33  1  0
  4 34  1  0
  5 35  1  0
  5 36  1  0
  6 37  1  0
 13 38  1  0
 14 39  1  0
 17 40  1  0
 18 41  1  0
 22 42  1  0
 23 43  1  0
 24 44  1  0
 25 45  1  0
M  END
>  <UniqueID>  (27) 
27

>  <SMILES>  (27) 
CN(C)CCNC(=O)c1nn(-c2ccc(Br)cc2)c(=O)c2ccccc12

>  <Energy>  (27) 
66.26889765089865

>  <Genealogy>  (27) 
CN(C)CCNC(=O)c1nn(-c2ccc(Br)cc2)c(=O)c2ccccc12 (3D coordinates assigned)
CN(C)CCNC(=O)c1nn(-c2ccc(Br)cc2)c(=O)c2ccccc12 (optimized conformer: 66.26889765089865 kcal/mol)

>  <smiles>  (27) 
CN(C)CCNC(=O)c1nn(-c2ccc(Br)cc2)c(=O)c2ccccc12

>  <score_type>  (27) 
oracle

>  <origin>  (27) 
adg

>  <m_score__min__energy>  (27) 
-8.3800000000000008

>  <m_primary>  (27) 
energy

$$$$
27:0
     RDKit          3D

 47 49  0  0  0  0  0  0  0  0999 V2000
   -5.7690   18.0160  -34.6070 C   0  0  0  0  0  0  0  0  0  0  0  0
   -6.8310   17.1820  -33.8830 C   0  0  0  0  0  0  0  0  0  0  0  0
   -7.7170   18.0110  -33.0480 N   0  0  0  0  0  0  0  0  0  0  0  0
   -7.0640   18.4800  -31.8160 C   0  0  0  0  0  0  0  0  0  0  0  0
   -7.7760   19.7290  -31.2850 C   0  0  0  0  0  0  0  0  0  0  0  0
   -7.9930   20.7010  -32.3810 N   0  0  0  0  0  0  0  0  0  0  0  0
   -6.8380   20.7710  -33.2990 C   0  0  0  0  0  0  0  0  0  0  0  0
   -5.6140   21.3800  -32.6040 C   0  0  0  0  0  0  0  0  0  0  0  0
   -5.9920   22.5600  -31.8210 N   0  0  0  0  0  0  0  0  0  0  0  0
   -4.9830   23.2330  -31.0500 C   0  0  0  0  0  0  0  0  0  0  0  0
   -4.6400   24.5250  -31.2070 N   0  0  0  0  0  0  0  0  0  0  0  0
   -3.6850   24.7590  -30.3190 N   0  0  0  0  0  0  0  0  0  0  0  0
   -3.4800   23.6000  -29.6590 C   0  0  0  0  0  0  0  0  0  0  0  0
   -2.5050   23.4340  -28.5570 C   0  0  0  0  0  0  0  0  0  0  0  0
   -2.4430   22.1900  -27.9000 C   0  0  0  0  0  0  0  0  0  0  0  0
   -1.4890   21.9530  -26.9100 C   0  0  0  0  0  0  0  0  0  0  0  0
   -0.5810   22.9510  -26.5610 C   0  0  0  0  0  0  0  0  0  0  0  0
   -0.6380   24.1960  -27.1870 C   0  0  0  0  0  0  0  0  0  0  0  0
   -1.6030   24.4600  -28.1730 C   0  0  0  0  0  0  0  0  0  0  0  0
   -1.6750   25.7830  -28.7220 N   0  0  0  0  0  0  0  0  0  0  0  0
   -4.2820   22.6610  -30.1020 O   0  0  0  0  0  0  0  0  0  0  0  0
   -7.3350   23.1320  -31.9750 C   0  0  0  0  0  0  0  0  0  0  0  0
   -8.4200   22.0380  -31.8830 C   0  0  0  0  0  0  0  0  0  0  0  0
   -5.1294   18.5183  -33.8663 H   0  0  0  0  0  0  0  0  0  0  0  0
   -5.1528   17.3579  -35.2373 H   0  0  0  0  0  0  0  0  0  0  0  0
   -6.2623   18.7706  -35.2373 H   0  0  0  0  0  0  0  0  0  0  0  0
   -7.4407   16.6568  -34.6330 H   0  0  0  0  0  0  0  0  0  0  0  0
   -6.3104   16.4734  -33.2220 H   0  0  0  0  0  0  0  0  0  0  0  0
   -8.0490   18.8370  -33.6000 H   0  0  0  0  0  0  0  0  0  0  0  0
   -7.1075   17.6858  -31.0562 H   0  0  0  0  0  0  0  0  0  0  0  0
   -6.0157   18.7298  -32.0369 H   0  0  0  0  0  0  0  0  0  0  0  0
   -8.7479   19.4393  -30.8590 H   0  0  0  0  0  0  0  0  0  0  0  0
   -7.1498   20.1962  -30.5107 H   0  0  0  0  0  0  0  0  0  0  0  0
   -6.5887   19.7554  -33.6402 H   0  0  0  0  0  0  0  0  0  0  0  0
   -7.1088   21.4108  -34.1518 H   0  0  0  0  0  0  0  0  0  0  0  0
   -5.1699   20.6296  -31.9334 H   0  0  0  0  0  0  0  0  0  0  0  0
   -4.8884   21.6850  -33.3724 H   0  0  0  0  0  0  0  0  0  0  0  0
   -3.1548   21.3962  -28.1704 H   0  0  0  0  0  0  0  0  0  0  0  0
   -1.4534   20.9769  -26.4041 H   0  0  0  0  0  0  0  0  0  0  0  0
    0.1808   22.7567  -25.7916 H   0  0  0  0  0  0  0  0  0  0  0  0
    0.0806   24.9798  -26.9055 H   0  0  0  0  0  0  0  0  0  0  0  0
   -0.8790   26.4520  -28.6600 H   0  0  0  0  0  0  0  0  0  0  0  0
   -2.4730   26.0540  -29.3390 H   0  0  0  0  0  0  0  0  0  0  0  0
   -7.5033   23.8725  -31.1792 H   0  0  0  0  0  0  0  0  0  0  0  0
   -7.4008   23.6063  -32.9653 H   0  0  0  0  0  0  0  0  0  0  0  0
   -8.7142   21.9338  -30.8282 H   0  0  0  0  0  0  0  0  0  0  0  0
   -9.2477   22.3632  -32.5304 H   0  0  0  0  0  0  0  0  0  0  0  0
  1  2  1  0
  2  3  1  0
  3  4  1  0
  4  5  1  0
  5  6  1  0
  6  7  1  0
  7  8  1  0
  8  9  1  0
  9 10  1  0
 10 11  2  0
 11 12  1  0
 12 13  2  0
 13 14  1  0
 14 15  2  0
 15 16  1  0
 16 17  2  0
 17 18  1  0
 18 19  2  0
 19 20  1  0
 13 21  1  0
  9 22  1  0
 22 23  1  0
 23  6  1  0
 21 10  1  0
 19 14  1  0
  1 24  1  0
  1 25  1  0
  1 26  1  0
  2 27  1  0
  2 28  1  0
  3 29  1  0
  4 30  1  0
  4 31  1  0
  5 32  1  0
  5 33  1  0
  7 34  1  0
  7 35  1  0
  8 36  1  0
  8 37  1  0
 15 38  1  0
 16 39  1  0
 17 40  1  0
 18 41  1  0
 20 42  1  0
 20 43  1  0
 22 44  1  0
 22 45  1  0
 23 46  1  0
 23 47  1  0
M  END
>  <UniqueID>  (28) 
28

>  <SMILES>  (28) 
CCNCCN1CCN(c2nnc(-c3ccccc3N)o2)CC1

>  <Energy>  (28) 
91.92226569665716

>  <Genealogy>  (28) 
CCNCCN1CCN(c2nnc(-c3ccccc3N)o2)CC1 (3D coordinates assigned)
CCNCCN1CCN(c2nnc(-c3ccccc3N)o2)CC1 (nonaromatic ring conformer: 91.92226569665716 kcal/mol)

>  <smiles>  (28) 
CCNCCN1CCN(c2nnc(-c3ccccc3N)o2)CC1

>  <score_type>  (28) 
oracle

>  <origin>  (28) 
adg

>  <m_score__min__energy>  (28) 
-8.2100000000000009

>  <m_primary>  (28) 
energy

$$$$
28:0
     RDKit          3D

 50 52  0  0  0  0  0  0  0  0999 V2000
   -3.5850   17.1370  -34.5910 C   0  0  0  0  0  0  0  0  0  0  0  0
   -3.0790   18.3300  -34.2630 C   0  0  0  0  0  0  0  0  0  0  0  0
   -2.8510   18.7310  -32.8300 C   0  0  0  0  0  0  0  0  0  0  0  0
   -2.0900   19.9960  -32.7700 N   0  0  0  0  0  0  0  0  0  0  0  0
   -2.9340   21.1710  -33.1180 C   0  0  0  0  0  0  0  0  0  0  0  0
   -3.3580   21.9760  -31.8820 C   0  0  0  0  0  0  0  0  0  0  0  0
   -2.1760   22.4840  -31.1510 N   0  0  0  0  0  0  0  0  0  0  0  0
   -2.5080   23.0000  -29.8050 C   0  0  0  0  0  0  0  0  0  0  0  0
   -2.8340   24.4710  -29.7960 C   0  0  0  0  0  0  0  0  0  0  0  0
   -1.9990   25.2890  -29.3260 O   0  0  0  0  0  0  0  0  0  0  0  0
   -4.0620   24.9270  -30.3800 N   0  0  0  0  0  0  0  0  0  0  0  0
   -5.2250   24.1390  -30.6750 C   0  0  0  0  0  0  0  0  0  0  0  0
   -5.8330   23.3060  -29.7160 C   0  0  0  0  0  0  0  0  0  0  0  0
   -6.9650   22.5570  -30.0530 C   0  0  0  0  0  0  0  0  0  0  0  0
   -7.4940   22.6240  -31.3470 C   0  0  0  0  0  0  0  0  0  0  0  0
   -8.9550   21.6760  -31.7700 S   0  0  0  0  0  0  0  0  0  0  0  0
   -7.9940   20.2570  -32.3040 C   0  0  0  0  0  0  0  0  0  0  0  0
   -7.0320   20.4080  -33.3130 C   0  0  0  0  0  0  0  0  0  0  0  0
   -6.2750   19.3090  -33.7280 C   0  0  0  0  0  0  0  0  0  0  0  0
   -6.4770   18.0560  -33.1420 C   0  0  0  0  0  0  0  0  0  0  0  0
   -7.4410   17.9000  -32.1400 C   0  0  0  0  0  0  0  0  0  0  0  0
   -8.2010   18.9970  -31.7210 C   0  0  0  0  0  0  0  0  0  0  0  0
   -9.1340   18.8330  -30.7510 F   0  0  0  0  0  0  0  0  0  0  0  0
   -6.8710   23.4230  -32.3120 C   0  0  0  0  0  0  0  0  0  0  0  0
   -5.7390   24.1730  -31.9770 C   0  0  0  0  0  0  0  0  0  0  0  0
   -1.0010   21.5770  -31.1790 C   0  0  0  0  0  0  0  0  0  0  0  0
   -1.4040   20.1240  -31.4630 C   0  0  0  0  0  0  0  0  0  0  0  0
   -3.7386   16.8767  -35.6487 H   0  0  0  0  0  0  0  0  0  0  0  0
   -3.8478   16.4156  -33.8033 H   0  0  0  0  0  0  0  0  0  0  0  0
   -2.8217   19.0393  -35.0634 H   0  0  0  0  0  0  0  0  0  0  0  0
   -3.8222   18.8670  -32.3317 H   0  0  0  0  0  0  0  0  0  0  0  0
   -2.2765   17.9417  -32.3230 H   0  0  0  0  0  0  0  0  0  0  0  0
   -2.3628   21.8294  -33.7890 H   0  0  0  0  0  0  0  0  0  0  0  0
   -3.8475   20.7951  -33.6019 H   0  0  0  0  0  0  0  0  0  0  0  0
   -3.9769   22.8273  -32.2017 H   0  0  0  0  0  0  0  0  0  0  0  0
   -3.9285   21.3161  -31.2119 H   0  0  0  0  0  0  0  0  0  0  0  0
   -3.3789   22.4467  -29.4237 H   0  0  0  0  0  0  0  0  0  0  0  0
   -1.6190   22.8588  -29.1728 H   0  0  0  0  0  0  0  0  0  0  0  0
   -5.4167   23.2443  -28.6997 H   0  0  0  0  0  0  0  0  0  0  0  0
   -7.4410   21.9132  -29.2987 H   0  0  0  0  0  0  0  0  0  0  0  0
   -6.8731   21.3921  -33.7781 H   0  0  0  0  0  0  0  0  0  0  0  0
   -5.5186   19.4302  -34.5174 H   0  0  0  0  0  0  0  0  0  0  0  0
   -5.8782   17.1929  -33.4685 H   0  0  0  0  0  0  0  0  0  0  0  0
   -7.6014   16.9133  -31.6811 H   0  0  0  0  0  0  0  0  0  0  0  0
   -7.2721   23.4613  -33.3356 H   0  0  0  0  0  0  0  0  0  0  0  0
   -5.2491   24.7938  -32.7416 H   0  0  0  0  0  0  0  0  0  0  0  0
   -0.3104   21.9144  -31.9659 H   0  0  0  0  0  0  0  0  0  0  0  0
   -0.5224   21.6099  -30.1891 H   0  0  0  0  0  0  0  0  0  0  0  0
   -0.4999   19.4974  -31.4710 H   0  0  0  0  0  0  0  0  0  0  0  0
   -2.0992   19.7985  -30.6751 H   0  0  0  0  0  0  0  0  0  0  0  0
  1  2  2  0
  2  3  1  0
  3  4  1  0
  4  5  1  0
  5  6  1  0
  6  7  1  0
  7  8  1  0
  8  9  1  0
  9 10  2  0
  9 11  1  0
 11 12  1  0
 12 13  2  0
 13 14  1  0
 14 15  2  0
 15 16  1  0
 16 17  1  0
 17 18  2  0
 18 19  1  0
 19 20  2  0
 20 21  1  0
 21 22  2  0
 22 23  1  0
 15 24  1  0
 24 25  2  0
  7 26  1  0
 26 27  1  0
 27  4  1  0
 25 12  1  0
 22 17  1  0
  1 28  1  0
  1 29  1  0
  2 30  1  0
  3 31  1  0
  3 32  1  0
  5 33  1  0
  5 34  1  0
  6 35  1  0
  6 36  1  0
  8 37  1  0
  8 38  1  0
 13 39  1  0
 14 40  1  0
 18 41  1  0
 19 42  1  0
 20 43  1  0
 21 44  1  0
 24 45  1  0
 25 46  1  0
 26 47  1  0
 26 48  1  0
 27 49  1  0
 27 50  1  0
M  CHG  1  11  -1
M  END
>  <UniqueID>  (29) 
29

>  <SMILES>  (29) 
C=CCN1CCN(CC(=O)[N-]c2ccc(Sc3ccccc3F)cc2)CC1

>  <Energy>  (29) 
62.140662664033265

>  <Genealogy>  (29) 
C=CCN1CCN(CC(=O)[N-]c2ccc(Sc3ccccc3F)cc2)CC1 (protonated)
C=CCN1CCN(CC(=O)[N-]c2ccc(Sc3ccccc3F)cc2)CC1 (3D coordinates assigned)
C=CCN1CCN(CC(=O)[N-]c2ccc(Sc3ccccc3F)cc2)CC1 (nonaromatic ring conformer: 62.140662664033265 kcal/mol)

>  <smiles>  (29) 
C=CCN1CCN(CC(=O)Nc2ccc(Sc3ccccc3F)cc2)CC1

>  <score_type>  (29) 
oracle

>  <origin>  (29) 
adg

>  <m_score__min__energy>  (29) 
-10.23

>  <m_primary>  (29) 
energy

$$$$
29:0
     RDKit          3D

 65 67  0  0  0  0  0  0  0  0999 V2000
   -3.7730   14.6380  -35.1860 C   0  0  0  0  0  0  0  0  0  0  0  0
   -3.4670   16.0340  -35.7200 C   0  0  0  0  0  0  0  0  0  0  0  0
   -4.5650   17.0350  -35.3520 C   0  0  0  0  0  0  0  0  0  0  0  0
   -4.6830   17.2010  -33.8890 N   0  0  0  0  0  0  0  0  0  0  0  0
   -3.4500   17.1730  -33.0800 C   0  0  0  0  0  0  0  0  0  0  0  0
   -2.4300   18.2280  -33.5360 C   0  0  0  0  0  0  0  0  0  0  0  0
   -2.2820   19.3720  -32.5310 C   0  0  0  0  0  0  0  0  0  0  0  0
   -5.9670   16.9400  -33.2770 C   0  0  0  0  0  0  0  0  0  0  0  0
   -6.5720   15.8760  -33.5870 O   0  0  0  0  0  0  0  0  0  0  0  0
   -6.6690   17.8970  -32.3170 C   0  0  0  0  0  0  0  0  0  0  0  0
   -5.7580   18.4960  -31.2220 C   0  0  0  0  0  0  0  0  0  0  0  0
   -5.4250   19.9770  -31.4460 C   0  0  0  0  0  0  0  0  0  0  0  0
   -5.3850   20.2910  -32.8880 N   0  0  0  0  0  0  0  0  0  0  0  0
   -4.7920   21.6250  -33.1340 C   0  0  0  0  0  0  0  0  0  0  0  0
   -5.1570   22.5980  -32.0380 C   0  0  0  0  0  0  0  0  0  0  0  0
   -6.4830   22.6950  -31.5850 C   0  0  0  0  0  0  0  0  0  0  0  0
   -6.8180   23.5970  -30.5700 C   0  0  0  0  0  0  0  0  0  0  0  0
   -5.8380   24.4160  -30.0080 C   0  0  0  0  0  0  0  0  0  0  0  0
   -4.5180   24.3530  -30.4690 C   0  0  0  0  0  0  0  0  0  0  0  0
   -3.5350   25.2290  -29.9040 N   0  0  0  0  0  0  0  0  0  0  0  0
   -2.3890   24.7980  -29.1560 C   0  0  0  0  0  0  0  0  0  0  0  0
   -1.4630   25.6230  -28.9380 O   0  0  0  0  0  0  0  0  0  0  0  0
   -2.2490   23.3990  -28.6800 C   0  0  0  0  0  0  0  0  0  0  0  0
   -1.0480   22.6910  -28.8720 C   0  0  0  0  0  0  0  0  0  0  0  0
   -0.9180   21.3800  -28.4000 C   0  0  0  0  0  0  0  0  0  0  0  0
   -1.9810   20.7650  -27.7350 C   0  0  0  0  0  0  0  0  0  0  0  0
   -1.8120   19.1250  -27.1380 Cl  0  0  0  0  0  0  0  0  0  0  0  0
   -3.1840   21.4590  -27.5480 C   0  0  0  0  0  0  0  0  0  0  0  0
   -3.3160   22.7720  -28.0110 C   0  0  0  0  0  0  0  0  0  0  0  0
   -4.1760   23.4220  -31.4650 C   0  0  0  0  0  0  0  0  0  0  0  0
   -6.7500   20.2340  -33.4500 C   0  0  0  0  0  0  0  0  0  0  0  0
   -7.5230   18.9640  -33.0310 C   0  0  0  0  0  0  0  0  0  0  0  0
   -3.7688   14.6571  -34.0862 H   0  0  0  0  0  0  0  0  0  0  0  0
   -4.7627   14.3175  -35.5434 H   0  0  0  0  0  0  0  0  0  0  0  0
   -3.0081   13.9329  -35.5434 H   0  0  0  0  0  0  0  0  0  0  0  0
   -2.5135   16.3779  -35.2927 H   0  0  0  0  0  0  0  0  0  0  0  0
   -3.4098   15.9762  -36.8170 H   0  0  0  0  0  0  0  0  0  0  0  0
   -4.3256   18.0091  -35.8034 H   0  0  0  0  0  0  0  0  0  0  0  0
   -5.5226   16.6498  -35.7324 H   0  0  0  0  0  0  0  0  0  0  0  0
   -3.7119   17.3650  -32.0290 H   0  0  0  0  0  0  0  0  0  0  0  0
   -2.9882   16.1824  -33.2040 H   0  0  0  0  0  0  0  0  0  0  0  0
   -1.4518   17.7412  -33.6631 H   0  0  0  0  0  0  0  0  0  0  0  0
   -2.7934   18.6580  -34.4810 H   0  0  0  0  0  0  0  0  0  0  0  0
   -2.3339   18.9705  -31.5082 H   0  0  0  0  0  0  0  0  0  0  0  0
   -1.3121   19.8688  -32.6811 H   0  0  0  0  0  0  0  0  0  0  0  0
   -3.0935   20.0992  -32.6811 H   0  0  0  0  0  0  0  0  0  0  0  0
   -7.3743   17.2527  -31.7715 H   0  0  0  0  0  0  0  0  0  0  0  0
   -6.2675   18.3964  -30.2522 H   0  0  0  0  0  0  0  0  0  0  0  0
   -4.8080   17.9424  -31.2527 H   0  0  0  0  0  0  0  0  0  0  0  0
   -6.1943   20.5971  -30.9627 H   0  0  0  0  0  0  0  0  0  0  0  0
   -4.4367   20.1868  -31.0110 H   0  0  0  0  0  0  0  0  0  0  0  0
   -3.6971   21.5281  -33.1772 H   0  0  0  0  0  0  0  0  0  0  0  0
   -5.1863   22.0102  -34.0859 H   0  0  0  0  0  0  0  0  0  0  0  0
   -7.2617   22.0585  -32.0306 H   0  0  0  0  0  0  0  0  0  0  0  0
   -7.8568   23.6610  -30.2138 H   0  0  0  0  0  0  0  0  0  0  0  0
   -6.1038   25.1135  -29.2000 H   0  0  0  0  0  0  0  0  0  0  0  0
   -0.2076   23.1703  -29.3955 H   0  0  0  0  0  0  0  0  0  0  0  0
    0.0237   20.8326  -28.5531 H   0  0  0  0  0  0  0  0  0  0  0  0
   -4.0260   20.9701  -27.0361 H   0  0  0  0  0  0  0  0  0  0  0  0
   -4.2582   23.3169  -27.8514 H   0  0  0  0  0  0  0  0  0  0  0  0
   -3.1310   23.3386  -31.7981 H   0  0  0  0  0  0  0  0  0  0  0  0
   -7.3092   21.1152  -33.1025 H   0  0  0  0  0  0  0  0  0  0  0  0
   -6.6540   20.2141  -34.5456 H   0  0  0  0  0  0  0  0  0  0  0  0
   -8.3340   19.2649  -32.3515 H   0  0  0  0  0  0  0  0  0  0  0  0
   -7.8868   18.5007  -33.9600 H   0  0  0  0  0  0  0  0  0  0  0  0
  1  2  1  0
  2  3  1  0
  3  4  1  0
  4  5  1  0
  5  6  1  0
  6  7  1  0
  4  8  1  0
  8  9  2  0
  8 10  1  0
 10 11  1  0
 11 12  1  0
 12 13  1  0
 13 14  1  0
 14 15  1  0
 15 16  2  0
 16 17  1  0
 17 18  2  0
 18 19  1  0
 19 20  1  0
 20 21  1  0
 21 22  2  0
 21 23  1  0
 23 24  2  0
 24 25  1  0
 25 26  2  0
 26 27  1  0
 26 28  1  0
 28 29  2  0
 19 30  2  0
 13 31  1  0
 31 32  1  0
 32 10  1  0
 30 15  1  0
 29 23  1  0
  1 33  1  0
  1 34  1  0
  1 35  1  0
  2 36  1  0
  2 37  1  0
  3 38  1  0
  3 39  1  0
  5 40  1  0
  5 41  1  0
  6 42  1  0
  6 43  1  0
  7 44  1  0
  7 45  1  0
  7 46  1  0
 10 47  1  0
 11 48  1  0
 11 49  1  0
 12 50  1  0
 12 51  1  0
 14 52  1  0
 14 53  1  0
 16 54  1  0
 17 55  1  0
 18 56  1  0
 24 57  1  0
 25 58  1  0
 28 59  1  0
 29 60  1  0
 30 61  1  0
 31 62  1  0
 31 63  1  0
 32 64  1  0
 32 65  1  0
M  CHG  1  20  -1
M  END
>  <UniqueID>  (30) 
30

>  <SMILES>  (30) 
CCCN(CCC)C(=O)C1CCN(Cc2cccc([N-]C(=O)c3ccc(Cl)cc3)c2)CC1

>  <Energy>  (30) 
71.12825917124282

>  <Genealogy>  (30) 
CCCN(CCC)C(=O)C1CCN(Cc2cccc([N-]C(=O)c3ccc(Cl)cc3)c2)CC1 (protonated)
CCCN(CCC)C(=O)C1CCN(Cc2cccc([N-]C(=O)c3ccc(Cl)cc3)c2)CC1 (3D coordinates assigned)
CCCN(CCC)C(=O)C1CCN(Cc2cccc([N-]C(=O)c3ccc(Cl)cc3)c2)CC1 (nonaromatic ring conformer: 71.12825917124282 kcal/mol)

>  <smiles>  (30) 
CCCN(CCC)C(=O)C1CCN(Cc2cccc(NC(=O)c3ccc(Cl)cc3)c2)CC1

>  <score_type>  (30) 
oracle

>  <origin>  (30) 
adg

>  <m_score__min__energy>  (30) 
-10.83

>  <m_primary>  (30) 
energy

$$$$
30:0
     RDKit          3D

 45 48  0  0  0  0  0  0  0  0999 V2000
   -2.0730   25.2880  -29.3380 O   0  0  0  0  0  0  0  0  0  0  0  0
   -2.0410   24.1720  -28.7500 C   0  0  0  0  0  0  0  0  0  0  0  0
   -1.5630   24.0960  -27.4400 C   0  0  0  0  0  0  0  0  0  0  0  0
   -1.5320   22.8570  -26.8000 C   0  0  0  0  0  0  0  0  0  0  0  0
   -1.9490   21.7610  -27.4270 O   0  0  0  0  0  0  0  0  0  0  0  0
   -2.4130   21.7830  -28.6750 C   0  0  0  0  0  0  0  0  0  0  0  0
   -2.8360   20.5960  -29.2770 C   0  0  0  0  0  0  0  0  0  0  0  0
   -3.3210   20.6080  -30.5880 C   0  0  0  0  0  0  0  0  0  0  0  0
   -3.3880   21.8020  -31.3150 C   0  0  0  0  0  0  0  0  0  0  0  0
   -3.8760   21.7470  -32.6310 O   0  0  0  0  0  0  0  0  0  0  0  0
   -3.9600   20.5660  -33.4310 C   0  0  0  0  0  0  0  0  0  0  0  0
   -5.1390   19.7210  -33.0230 C   0  0  0  0  0  0  0  0  0  0  0  0
   -4.9550   18.3900  -32.6210 C   0  0  0  0  0  0  0  0  0  0  0  0
   -6.0530   17.6090  -32.2530 C   0  0  0  0  0  0  0  0  0  0  0  0
   -7.3420   18.1450  -32.2970 C   0  0  0  0  0  0  0  0  0  0  0  0
   -7.5480   19.4650  -32.7120 C   0  0  0  0  0  0  0  0  0  0  0  0
   -8.8660   19.9500  -32.7450 O   0  0  0  0  0  0  0  0  0  0  0  0
   -9.4360   20.8560  -31.7990 C   0  0  0  0  0  0  0  0  0  0  0  0
   -8.4410   21.9190  -31.4070 C   0  0  0  0  0  0  0  0  0  0  0  0
   -7.9730   22.0060  -30.0860 C   0  0  0  0  0  0  0  0  0  0  0  0
   -7.0550   22.9980  -29.7280 C   0  0  0  0  0  0  0  0  0  0  0  0
   -6.6060   23.9150  -30.6840 C   0  0  0  0  0  0  0  0  0  0  0  0
   -5.3510   25.2690  -30.1930 Br  0  0  0  0  0  0  0  0  0  0  0  0
   -7.0790   23.8420  -31.9980 C   0  0  0  0  0  0  0  0  0  0  0  0
   -7.9970   22.8510  -32.3580 C   0  0  0  0  0  0  0  0  0  0  0  0
   -6.4390   20.2520  -33.0780 C   0  0  0  0  0  0  0  0  0  0  0  0
   -2.9690   23.0030  -30.7090 C   0  0  0  0  0  0  0  0  0  0  0  0
   -2.4770   22.9990  -29.3920 C   0  0  0  0  0  0  0  0  0  0  0  0
   -1.2157   25.0009  -26.9199 H   0  0  0  0  0  0  0  0  0  0  0  0
   -1.1593   22.7859  -25.7675 H   0  0  0  0  0  0  0  0  0  0  0  0
   -2.7874   19.6496  -28.7184 H   0  0  0  0  0  0  0  0  0  0  0  0
   -3.6537   19.6685  -31.0534 H   0  0  0  0  0  0  0  0  0  0  0  0
   -4.0717   20.8537  -34.4868 H   0  0  0  0  0  0  0  0  0  0  0  0
   -3.0410   19.9788  -33.2871 H   0  0  0  0  0  0  0  0  0  0  0  0
   -3.9429   17.9598  -32.5954 H   0  0  0  0  0  0  0  0  0  0  0  0
   -5.9021   16.5691  -31.9277 H   0  0  0  0  0  0  0  0  0  0  0  0
   -8.2015   17.5246  -32.0032 H   0  0  0  0  0  0  0  0  0  0  0  0
  -10.3188   21.3361  -32.2465 H   0  0  0  0  0  0  0  0  0  0  0  0
   -9.7212   20.2917  -30.8989 H   0  0  0  0  0  0  0  0  0  0  0  0
   -8.3299   21.2911  -29.3300 H   0  0  0  0  0  0  0  0  0  0  0  0
   -6.6856   23.0573  -28.6936 H   0  0  0  0  0  0  0  0  0  0  0  0
   -6.7284   24.5651  -32.7491 H   0  0  0  0  0  0  0  0  0  0  0  0
   -8.3728   22.8014  -33.3906 H   0  0  0  0  0  0  0  0  0  0  0  0
   -6.5914   21.2898  -33.4093 H   0  0  0  0  0  0  0  0  0  0  0  0
   -3.0271   23.9481  -31.2689 H   0  0  0  0  0  0  0  0  0  0  0  0
  1  2  2  0
  2  3  1  0
  3  4  2  0
  4  5  1  0
  5  6  1  0
  6  7  2  0
  7  8  1  0
  8  9  2  0
  9 10  1  0
 10 11  1  0
 11 12  1  0
 12 13  2  0
 13 14  1  0
 14 15  2  0
 15 16  1  0
 16 17  1  0
 17 18  1  0
 18 19  1  0
 19 20  2  0
 20 21  1  0
 21 22  2  0
 22 23  1  0
 22 24  1  0
 24 25  2  0
 16 26  2  0
  9 27  1  0
 27 28  2  0
 28  2  1  0
 28  6  1  0
 26 12  1  0
 25 19  1  0
  3 29  1  0
  4 30  1  0
  7 31  1  0
  8 32  1  0
 11 33  1  0
 11 34  1  0
 13 35  1  0
 14 36  1  0
 15 37  1  0
 18 38  1  0
 18 39  1  0
 20 40  1  0
 21 41  1  0
 24 42  1  0
 25 43  1  0
 26 44  1  0
 27 45  1  0
M  END
>  <UniqueID>  (31) 
31

>  <SMILES>  (31) 
O=c1ccoc2ccc(OCc3cccc(OCc4ccc(Br)cc4)c3)cc12

>  <Energy>  (31) 
53.96141141189013

>  <Genealogy>  (31) 
O=c1ccoc2ccc(OCc3cccc(OCc4ccc(Br)cc4)c3)cc12 (3D coordinates assigned)
O=c1ccoc2ccc(OCc3cccc(OCc4ccc(Br)cc4)c3)cc12 (optimized conformer: 53.96141141189013 kcal/mol)

>  <smiles>  (31) 
O=c1ccoc2ccc(OCc3cccc(OCc4ccc(Br)cc4)c3)cc12

>  <score_type>  (31) 
oracle

>  <origin>  (31) 
adg

>  <m_score__min__energy>  (31) 
-9.4299999999999997

>  <m_primary>  (31) 
energy

$$$$
31:0
     RDKit          3D

 58 60  0  0  0  0  0  0  0  0999 V2000
    0.2760   18.1380  -30.2450 C   0  0  0  0  0  0  0  0  0  0  0  0
    0.1600   18.8720  -31.4590 O   0  0  0  0  0  0  0  0  0  0  0  0
   -0.9340   19.6840  -31.7920 C   0  0  0  0  0  0  0  0  0  0  0  0
   -0.8660   21.0480  -31.4920 C   0  0  0  0  0  0  0  0  0  0  0  0
   -1.9310   21.9000  -31.8020 C   0  0  0  0  0  0  0  0  0  0  0  0
   -3.0950   21.3910  -32.4020 C   0  0  0  0  0  0  0  0  0  0  0  0
   -4.2350   22.3160  -32.7620 C   0  0  0  0  0  0  0  0  0  0  0  0
   -5.0810   22.6780  -31.5960 N   0  0  2  0  0  0  0  0  0  0  0  0
   -4.4760   22.2890  -30.2980 C   0  0  0  0  0  0  0  0  0  0  0  0
   -5.2040   22.9080  -29.0830 C   0  0  0  0  0  0  0  0  0  0  0  0
   -4.8410   24.3880  -28.8370 C   0  0  1  0  0  0  0  0  0  0  0  0
   -4.2350   24.5660  -27.5150 N   0  0  0  0  0  0  0  0  0  0  0  0
   -3.9210   24.9070  -29.9090 C   0  0  0  0  0  0  0  0  0  0  0  0
   -2.7380   25.2280  -29.6210 O   0  0  0  0  0  0  0  0  0  0  0  0
   -4.3840   25.0900  -31.2070 O   0  0  0  0  0  0  0  0  0  0  0  0
   -6.6340   21.8830  -31.7500 S   0  0  0  0  0  0  0  0  0  0  0  0
   -7.3390   21.8840  -30.4220 O   0  0  0  0  0  0  0  0  0  0  0  0
   -7.4980   22.6280  -32.7310 O   0  0  0  0  0  0  0  0  0  0  0  0
   -6.4280   20.2190  -32.3010 C   0  0  0  0  0  0  0  0  0  0  0  0
   -6.4610   19.1640  -31.3830 C   0  0  0  0  0  0  0  0  0  0  0  0
   -6.3240   17.8440  -31.8200 C   0  0  0  0  0  0  0  0  0  0  0  0
   -6.1490   17.5600  -33.1870 C   0  0  0  0  0  0  0  0  0  0  0  0
   -5.9990   16.1570  -33.6530 C   0  0  0  0  0  0  0  0  0  0  0  0
   -7.1110   15.4410  -34.1340 C   0  0  0  0  0  0  0  0  0  0  0  0
   -6.9670   14.1230  -34.5770 C   0  0  0  0  0  0  0  0  0  0  0  0
   -5.7150   13.5050  -34.5420 C   0  0  0  0  0  0  0  0  0  0  0  0
   -4.6040   14.2040  -34.0660 C   0  0  0  0  0  0  0  0  0  0  0  0
   -4.7420   15.5230  -33.6240 C   0  0  0  0  0  0  0  0  0  0  0  0
   -6.1180   18.6250  -34.1050 C   0  0  0  0  0  0  0  0  0  0  0  0
   -6.2590   19.9440  -33.6650 C   0  0  0  0  0  0  0  0  0  0  0  0
   -3.1540   20.0270  -32.7290 C   0  0  0  0  0  0  0  0  0  0  0  0
   -2.0890   19.1770  -32.4190 C   0  0  0  0  0  0  0  0  0  0  0  0
    0.1678   18.8226  -29.3908 H   0  0  0  0  0  0  0  0  0  0  0  0
   -0.5122   17.3719  -30.2030 H   0  0  0  0  0  0  0  0  0  0  0  0
    1.2621   17.6523  -30.2030 H   0  0  0  0  0  0  0  0  0  0  0  0
    0.0338   21.4549  -31.0075 H   0  0  0  0  0  0  0  0  0  0  0  0
   -1.8569   22.9738  -31.5750 H   0  0  0  0  0  0  0  0  0  0  0  0
   -3.8157   23.2384  -33.1903 H   0  0  0  0  0  0  0  0  0  0  0  0
   -4.8759   21.7833  -33.4799 H   0  0  0  0  0  0  0  0  0  0  0  0
   -5.2860   23.7040  -31.5930 H   0  0  0  0  0  0  0  0  0  0  0  0
   -4.5133   21.1933  -30.2082 H   0  0  0  0  0  0  0  0  0  0  0  0
   -3.4429   22.6666  -30.2901 H   0  0  0  0  0  0  0  0  0  0  0  0
   -6.2884   22.8392  -29.2546 H   0  0  0  0  0  0  0  0  0  0  0  0
   -4.8861   22.3444  -28.1934 H   0  0  0  0  0  0  0  0  0  0  0  0
   -5.7739   24.9697  -28.8732 H   0  0  0  0  0  0  0  0  0  0  0  0
   -4.5500   25.4880  -27.1310 H   0  0  0  0  0  0  0  0  0  0  0  0
   -3.1990   24.6430  -27.6360 H   0  0  0  0  0  0  0  0  0  0  0  0
   -6.5955   19.3747  -30.3118 H   0  0  0  0  0  0  0  0  0  0  0  0
   -6.3531   17.0212  -31.0905 H   0  0  0  0  0  0  0  0  0  0  0  0
   -8.1000   15.9217  -34.1615 H   0  0  0  0  0  0  0  0  0  0  0  0
   -7.8412   13.5717  -34.9538 H   0  0  0  0  0  0  0  0  0  0  0  0
   -5.6042   12.4672  -34.8895 H   0  0  0  0  0  0  0  0  0  0  0  0
   -3.6185   13.7160  -34.0388 H   0  0  0  0  0  0  0  0  0  0  0  0
   -3.8630   16.0692  -33.2511 H   0  0  0  0  0  0  0  0  0  0  0  0
   -5.9818   18.4184  -35.1768 H   0  0  0  0  0  0  0  0  0  0  0  0
   -6.2373   20.7694  -34.3918 H   0  0  0  0  0  0  0  0  0  0  0  0
   -4.0451   19.6244  -33.2329 H   0  0  0  0  0  0  0  0  0  0  0  0
   -2.1529   18.1069  -32.6658 H   0  0  0  0  0  0  0  0  0  0  0  0
  1  2  1  0
  2  3  1  0
  3  4  2  0
  4  5  1  0
  5  6  2  0
  6  7  1  0
  7  8  1  0
  8  9  1  0
  9 10  1  0
 10 11  1  0
 11 12  1  0
 11 13  1  0
 13 14  2  0
 13 15  1  0
  8 16  1  0
 16 17  2  0
 16 18  2  0
 16 19  1  0
 19 20  2  0
 20 21  1  0
 21 22  2  0
 22 23  1  0
 23 24  2  0
 24 25  1  0
 25 26  2  0
 26 27  1  0
 27 28  2  0
 22 29  1  0
 29 30  2  0
  6 31  1  0
 31 32  2  0
 32  3  1  0
 30 19  1  0
 28 23  1  0
  1 33  1  0
  1 34  1  0
  1 35  1  0
  4 36  1  0
  5 37  1  0
  7 38  1  0
  7 39  1  0
  8 40  1  1
  9 41  1  0
  9 42  1  0
 10 43  1  0
 10 44  1  0
 11 45  1  1
 12 46  1  0
 12 47  1  0
 20 48  1  0
 21 49  1  0
 24 50  1  0
 25 51  1  0
 26 52  1  0
 27 53  1  0
 28 54  1  0
 29 55  1  0
 30 56  1  0
 31 57  1  0
 32 58  1  0
M  CHG  2   8   1  15  -1
M  END
>  <UniqueID>  (32) 
32

>  <SMILES>  (32) 
COc1ccc(C[N@H+](CC[C@@H](N)C(=O)[O-])S(=O)(=O)c2ccc(-c3ccccc3)cc2)cc1

>  <Energy>  (32) 
63.260791528662985

>  <Genealogy>  (32) 
COc1ccc(C[NH+](CCC(N)C(=O)[O-])S(=O)(=O)c2ccc(-c3ccccc3)cc2)cc1 (protonated)
COc1ccc(C[N@H+](CC[C@@H](N)C(=O)[O-])S(=O)(=O)c2ccc(-c3ccccc3)cc2)cc1 (chirality)
COc1ccc(C[N@H+](CC[C@@H](N)C(=O)[O-])S(=O)(=O)c2ccc(-c3ccccc3)cc2)cc1 (3D coordinates assigned)
COc1ccc(C[N@H+](CC[C@@H](N)C(=O)[O-])S(=O)(=O)c2ccc(-c3ccccc3)cc2)cc1 (optimized conformer: 63.260791528662985 kcal/mol)

>  <smiles>  (32) 
COc1ccc(CN(CCC(N)C(=O)O)S(=O)(=O)c2ccc(-c3ccccc3)cc2)cc1

>  <score_type>  (32) 
oracle

>  <origin>  (32) 
adg

>  <m_score__min__energy>  (32) 
-10.49

>  <m_primary>  (32) 
energy

$$$$
32:0
     RDKit          3D

 55 58  0  0  0  0  0  0  0  0999 V2000
   -0.4880   26.6020  -23.2070 C   0  0  0  0  0  0  0  0  0  0  0  0
   -0.8350   25.5750  -24.2840 C   0  0  0  0  0  0  0  0  0  0  0  0
   -1.3170   26.2400  -25.5070 N   0  0  0  0  0  0  0  0  0  0  0  0
   -1.2300   27.7100  -25.5530 C   0  0  0  0  0  0  0  0  0  0  0  0
   -0.1720   28.1610  -26.5570 C   0  0  0  0  0  0  0  0  0  0  0  0
   -1.8540   25.4750  -26.6250 C   0  0  0  0  0  0  0  0  0  0  0  0
   -1.1030   25.2800  -27.8050 C   0  0  0  0  0  0  0  0  0  0  0  0
   -1.6190   24.5470  -28.8760 C   0  0  0  0  0  0  0  0  0  0  0  0
   -2.9070   23.9880  -28.8090 C   0  0  0  0  0  0  0  0  0  0  0  0
   -3.4670   23.1950  -29.9330 C   0  0  0  0  0  0  0  0  0  0  0  0
   -4.8520   23.0730  -30.1350 C   0  0  0  0  0  0  0  0  0  0  0  0
   -5.3180   22.3110  -31.2180 C   0  0  0  0  0  0  0  0  0  0  0  0
   -6.7700   22.1410  -31.4890 C   0  0  0  0  0  0  0  0  0  0  0  0
   -7.3250   20.8510  -31.5530 C   0  0  0  0  0  0  0  0  0  0  0  0
   -8.6880   20.6930  -31.8160 C   0  0  0  0  0  0  0  0  0  0  0  0
   -9.4740   21.7830  -32.0170 N   0  0  0  0  0  0  0  0  0  0  0  0
   -8.9690   23.0430  -31.9730 C   0  0  0  0  0  0  0  0  0  0  0  0
   -7.6120   23.2470  -31.7130 C   0  0  0  0  0  0  0  0  0  0  0  0
   -4.4150   21.6920  -32.0240 N   0  0  0  0  0  0  0  0  0  0  0  0
   -3.0780   21.8020  -31.8160 C   0  0  0  0  0  0  0  0  0  0  0  0
   -2.1540   21.1330  -32.6860 N   0  0  0  0  0  0  0  0  0  0  0  0
   -0.7130   21.1850  -32.5180 C   0  0  0  0  0  0  0  0  0  0  0  0
   -0.1460   20.2210  -33.5520 C   0  0  0  0  0  0  0  0  0  0  0  0
   -1.2750   19.9590  -34.5480 C   0  0  0  0  0  0  0  0  0  0  0  0
   -2.5640   20.3380  -33.8290 C   0  0  0  0  0  0  0  0  0  0  0  0
   -2.6190   22.5490  -30.7780 N   0  0  0  0  0  0  0  0  0  0  0  0
   -3.6560   24.1650  -27.6360 C   0  0  0  0  0  0  0  0  0  0  0  0
   -3.1430   24.8990  -26.5640 C   0  0  0  0  0  0  0  0  0  0  0  0
   -0.6387   26.1559  -22.2129 H   0  0  0  0  0  0  0  0  0  0  0  0
    0.5631   26.9072  -23.3164 H   0  0  0  0  0  0  0  0  0  0  0  0
   -1.1386   27.4822  -23.3164 H   0  0  0  0  0  0  0  0  0  0  0  0
    0.0630   24.9867  -24.5237 H   0  0  0  0  0  0  0  0  0  0  0  0
   -1.6320   24.9200  -23.9021 H   0  0  0  0  0  0  0  0  0  0  0  0
   -2.2066   28.1196  -25.8503 H   0  0  0  0  0  0  0  0  0  0  0  0
   -0.9475   28.0771  -24.5553 H   0  0  0  0  0  0  0  0  0  0  0  0
    0.7095   28.5368  -26.0168 H   0  0  0  0  0  0  0  0  0  0  0  0
    0.1206   27.3094  -27.1888 H   0  0  0  0  0  0  0  0  0  0  0  0
   -0.5838   28.9618  -27.1888 H   0  0  0  0  0  0  0  0  0  0  0  0
   -0.0946   25.7127  -27.8819 H   0  0  0  0  0  0  0  0  0  0  0  0
   -1.0110   24.4056  -29.7817 H   0  0  0  0  0  0  0  0  0  0  0  0
   -5.5609   23.5674  -29.4545 H   0  0  0  0  0  0  0  0  0  0  0  0
   -6.6877   19.9682  -31.3964 H   0  0  0  0  0  0  0  0  0  0  0  0
   -9.1255   19.6847  -31.8604 H   0  0  0  0  0  0  0  0  0  0  0  0
   -9.6306   23.9053  -32.1426 H   0  0  0  0  0  0  0  0  0  0  0  0
   -7.2027   24.2676  -31.6833 H   0  0  0  0  0  0  0  0  0  0  0  0
   -0.3417   22.2045  -32.6990 H   0  0  0  0  0  0  0  0  0  0  0  0
   -0.4118   20.9101  -31.4964 H   0  0  0  0  0  0  0  0  0  0  0  0
    0.7171   20.6728  -34.0629 H   0  0  0  0  0  0  0  0  0  0  0  0
    0.2030   19.2885  -33.0844 H   0  0  0  0  0  0  0  0  0  0  0  0
   -1.1427   20.5780  -35.4476 H   0  0  0  0  0  0  0  0  0  0  0  0
   -1.2891   18.9087  -34.8747 H   0  0  0  0  0  0  0  0  0  0  0  0
   -3.2150   20.9264  -34.4923 H   0  0  0  0  0  0  0  0  0  0  0  0
   -3.1357   19.4495  -33.5228 H   0  0  0  0  0  0  0  0  0  0  0  0
   -4.6593   23.7204  -27.5596 H   0  0  0  0  0  0  0  0  0  0  0  0
   -3.7522   25.0308  -25.6576 H   0  0  0  0  0  0  0  0  0  0  0  0
  1  2  1  0
  2  3  1  0
  3  4  1  0
  4  5  1  0
  3  6  1  0
  6  7  2  0
  7  8  1  0
  8  9  2  0
  9 10  1  0
 10 11  2  0
 11 12  1  0
 12 13  1  0
 13 14  2  0
 14 15  1  0
 15 16  2  0
 16 17  1  0
 17 18  2  0
 12 19  2  0
 19 20  1  0
 20 21  1  0
 21 22  1  0
 22 23  1  0
 23 24  1  0
 24 25  1  0
 20 26  2  0
  9 27  1  0
 27 28  2  0
 28  6  1  0
 26 10  1  0
 18 13  1  0
 25 21  1  0
  1 29  1  0
  1 30  1  0
  1 31  1  0
  2 32  1  0
  2 33  1  0
  4 34  1  0
  4 35  1  0
  5 36  1  0
  5 37  1  0
  5 38  1  0
  7 39  1  0
  8 40  1  0
 11 41  1  0
 14 42  1  0
 15 43  1  0
 17 44  1  0
 18 45  1  0
 22 46  1  0
 22 47  1  0
 23 48  1  0
 23 49  1  0
 24 50  1  0
 24 51  1  0
 25 52  1  0
 25 53  1  0
 27 54  1  0
 28 55  1  0
M  END
>  <UniqueID>  (33) 
33

>  <SMILES>  (33) 
CCN(CC)c1ccc(-c2cc(-c3ccncc3)nc(N3CCCC3)n2)cc1

>  <Energy>  (33) 
64.39892159066201

>  <Genealogy>  (33) 
CCN(CC)c1ccc(-c2cc(-c3ccncc3)nc(N3CCCC3)n2)cc1 (3D coordinates assigned)
CCN(CC)c1ccc(-c2cc(-c3ccncc3)nc(N3CCCC3)n2)cc1 (nonaromatic ring conformer: 64.39892159066201 kcal/mol)

>  <smiles>  (33) 
CCN(CC)c1ccc(-c2cc(-c3ccncc3)nc(N3CCCC3)n2)cc1

>  <score_type>  (33) 
oracle

>  <origin>  (33) 
adg

>  <m_score__min__energy>  (33) 
-7.79

>  <m_primary>  (33) 
energy

$$$$
33:0
     RDKit          3D

 41 43  0  0  0  0  0  0  0  0999 V2000
   -9.0380   18.2380  -31.9060 C   0  0  0  0  0  0  0  0  0  0  0  0
   -7.6850   18.1930  -32.5540 C   0  0  0  0  0  0  0  0  0  0  0  0
   -7.2010   16.9940  -33.0970 C   0  0  0  0  0  0  0  0  0  0  0  0
   -5.9220   16.9400  -33.6700 C   0  0  0  0  0  0  0  0  0  0  0  0
   -5.3920   15.6460  -34.2160 C   0  0  0  0  0  0  0  0  0  0  0  0
   -5.1130   18.0850  -33.6670 C   0  0  0  0  0  0  0  0  0  0  0  0
   -5.5860   19.2880  -33.1300 C   0  0  0  0  0  0  0  0  0  0  0  0
   -4.7430   20.4070  -33.1420 O   0  0  0  0  0  0  0  0  0  0  0  0
   -4.6840   21.3710  -32.1280 C   0  0  0  0  0  0  0  0  0  0  0  0
   -3.5720   21.6510  -31.3440 C   0  0  0  0  0  0  0  0  0  0  0  0
   -2.2490   20.9520  -31.4440 C   0  0  0  0  0  0  0  0  0  0  0  0
   -3.8510   22.6610  -30.4770 N   0  0  0  0  0  0  0  0  0  0  0  0
   -2.9590   23.2160  -29.4540 C   0  0  0  0  0  0  0  0  0  0  0  0
   -2.7600   24.6790  -29.6850 C   0  0  0  0  0  0  0  0  0  0  0  0
   -3.4880   25.2950  -30.5060 O   0  0  0  0  0  0  0  0  0  0  0  0
   -1.8040   25.3750  -28.9570 O   0  0  0  0  0  0  0  0  0  0  0  0
   -5.1370   23.0110  -30.7130 C   0  0  0  0  0  0  0  0  0  0  0  0
   -5.8850   24.0110  -30.0830 C   0  0  0  0  0  0  0  0  0  0  0  0
   -7.2010   24.2310  -30.5250 C   0  0  0  0  0  0  0  0  0  0  0  0
   -7.7380   23.4690  -31.5830 C   0  0  0  0  0  0  0  0  0  0  0  0
   -6.9680   22.4700  -32.2030 C   0  0  0  0  0  0  0  0  0  0  0  0
   -5.6730   22.2520  -31.7270 C   0  0  0  0  0  0  0  0  0  0  0  0
   -6.8670   19.3320  -32.5540 C   0  0  0  0  0  0  0  0  0  0  0  0
   -8.9210   18.2341  -30.8122 H   0  0  0  0  0  0  0  0  0  0  0  0
   -9.5625   19.1541  -32.2154 H   0  0  0  0  0  0  0  0  0  0  0  0
   -9.6222   17.3588  -32.2154 H   0  0  0  0  0  0  0  0  0  0  0  0
   -7.8281   16.0906  -33.0734 H   0  0  0  0  0  0  0  0  0  0  0  0
   -5.1196   14.9809  -33.3833 H   0  0  0  0  0  0  0  0  0  0  0  0
   -6.1652   15.1640  -34.8324 H   0  0  0  0  0  0  0  0  0  0  0  0
   -4.5029   15.8449  -34.8324 H   0  0  0  0  0  0  0  0  0  0  0  0
   -4.0987   18.0376  -34.0899 H   0  0  0  0  0  0  0  0  0  0  0  0
   -1.8644   20.7488  -30.4337 H   0  0  0  0  0  0  0  0  0  0  0  0
   -2.3757   20.0031  -31.9858 H   0  0  0  0  0  0  0  0  0  0  0  0
   -1.5365   21.5914  -31.9858 H   0  0  0  0  0  0  0  0  0  0  0  0
   -3.4048   23.0619  -28.4602 H   0  0  0  0  0  0  0  0  0  0  0  0
   -1.9855   22.7069  -29.5106 H   0  0  0  0  0  0  0  0  0  0  0  0
   -5.4556   24.6082  -29.2651 H   0  0  0  0  0  0  0  0  0  0  0  0
   -7.8169   25.0037  -30.0417 H   0  0  0  0  0  0  0  0  0  0  0  0
   -8.7662   23.6577  -31.9253 H   0  0  0  0  0  0  0  0  0  0  0  0
   -7.3726   21.8781  -33.0372 H   0  0  0  0  0  0  0  0  0  0  0  0
   -7.2304   20.2658  -32.1002 H   0  0  0  0  0  0  0  0  0  0  0  0
  1  2  1  0
  2  3  2  0
  3  4  1  0
  4  5  1  0
  4  6  2  0
  6  7  1  0
  7  8  1  0
  8  9  1  0
  9 10  2  0
 10 11  1  0
 10 12  1  0
 12 13  1  0
 13 14  1  0
 14 15  2  0
 14 16  1  0
 12 17  1  0
 17 18  2  0
 18 19  1  0
 19 20  2  0
 20 21  1  0
 21 22  2  0
  7 23  2  0
 23  2  1  0
 22  9  1  0
 22 17  1  0
  1 24  1  0
  1 25  1  0
  1 26  1  0
  3 27  1  0
  5 28  1  0
  5 29  1  0
  5 30  1  0
  6 31  1  0
 11 32  1  0
 11 33  1  0
 11 34  1  0
 13 35  1  0
 13 36  1  0
 18 37  1  0
 19 38  1  0
 20 39  1  0
 21 40  1  0
 23 41  1  0
M  CHG  1  16  -1
M  END
>  <UniqueID>  (34) 
34

>  <SMILES>  (34) 
Cc1cc(C)cc(Oc2c(C)n(CC(=O)[O-])c3ccccc23)c1

>  <Energy>  (34) 
80.3151107986628

>  <Genealogy>  (34) 
Cc1cc(C)cc(Oc2c(C)n(CC(=O)[O-])c3ccccc23)c1 (protonated)
Cc1cc(C)cc(Oc2c(C)n(CC(=O)[O-])c3ccccc23)c1 (3D coordinates assigned)
Cc1cc(C)cc(Oc2c(C)n(CC(=O)[O-])c3ccccc23)c1 (optimized conformer: 80.3151107986628 kcal/mol)

>  <smiles>  (34) 
Cc1cc(C)cc(Oc2c(C)n(CC(=O)O)c3ccccc23)c1

>  <score_type>  (34) 
oracle

>  <origin>  (34) 
adg

>  <m_score__min__energy>  (34) 
-10.91

>  <m_primary>  (34) 
energy

$$$$
34:0
     RDKit          3D

 51 53  0  0  0  0  0  0  0  0999 V2000
   -8.4640   20.3790  -32.2990 C   0  0  0  0  0  0  0  0  0  0  0  0
   -7.2610   19.9810  -33.1470 C   0  0  0  0  0  0  0  0  0  0  0  0
   -6.1600   19.5200  -32.2620 N   0  0  0  0  0  0  0  0  0  0  0  0
   -6.3960   18.1470  -31.7610 C   0  0  0  0  0  0  0  0  0  0  0  0
   -6.8570   17.2210  -32.8880 C   0  0  0  0  0  0  0  0  0  0  0  0
   -4.8430   19.6080  -32.9330 C   0  0  0  0  0  0  0  0  0  0  0  0
   -4.4320   21.0790  -33.1420 C   0  0  0  0  0  0  0  0  0  0  0  0
   -5.0720   21.9820  -32.1700 N   0  0  0  0  0  0  0  0  0  0  0  0
   -4.1080   22.5590  -31.2590 C   0  0  0  0  0  0  0  0  0  0  0  0
   -2.9940   21.8050  -30.8490 C   0  0  0  0  0  0  0  0  0  0  0  0
   -2.0430   22.3520  -29.9880 C   0  0  0  0  0  0  0  0  0  0  0  0
   -2.1900   23.6580  -29.5070 C   0  0  0  0  0  0  0  0  0  0  0  0
   -1.1940   24.2130  -28.6340 N   0  0  0  0  0  0  0  0  0  0  0  0
    0.1150   24.1610  -28.8680 N   0  0  0  0  0  0  0  0  0  0  0  0
    0.8020   24.7540  -27.8940 N   0  0  0  0  0  0  0  0  0  0  0  0
   -0.1160   25.1900  -27.0130 C   0  0  0  0  0  0  0  0  0  0  0  0
    0.0850   25.8400  -25.8000 C   0  0  0  0  0  0  0  0  0  0  0  0
   -1.0550   26.1380  -25.0280 C   0  0  0  0  0  0  0  0  0  0  0  0
   -2.3440   25.7680  -25.4790 C   0  0  0  0  0  0  0  0  0  0  0  0
   -2.5080   25.1050  -26.7120 C   0  0  0  0  0  0  0  0  0  0  0  0
   -1.3570   24.8550  -27.4620 C   0  0  0  0  0  0  0  0  0  0  0  0
   -3.2850   24.4280  -29.9300 C   0  0  0  0  0  0  0  0  0  0  0  0
   -4.2530   23.8860  -30.7990 C   0  0  0  0  0  0  0  0  0  0  0  0
   -5.3630   24.6330  -31.2260 O   0  0  0  0  0  0  0  0  0  0  0  0
   -6.4920   24.9430  -30.4150 C   0  0  0  0  0  0  0  0  0  0  0  0
   -8.2057   20.2935  -31.2332 H   0  0  0  0  0  0  0  0  0  0  0  0
   -8.7450   21.4180  -32.5260 H   0  0  0  0  0  0  0  0  0  0  0  0
   -9.3092   19.7126  -32.5260 H   0  0  0  0  0  0  0  0  0  0  0  0
   -7.5472   19.1675  -33.8299 H   0  0  0  0  0  0  0  0  0  0  0  0
   -6.9218   20.8491  -33.7313 H   0  0  0  0  0  0  0  0  0  0  0  0
   -5.4613   17.7549  -31.3336 H   0  0  0  0  0  0  0  0  0  0  0  0
   -7.1851   18.1853  -30.9955 H   0  0  0  0  0  0  0  0  0  0  0  0
   -7.3080   16.3151  -32.4569 H   0  0  0  0  0  0  0  0  0  0  0  0
   -7.6013   17.7413  -33.5088 H   0  0  0  0  0  0  0  0  0  0  0  0
   -5.9932   16.9408  -33.5088 H   0  0  0  0  0  0  0  0  0  0  0  0
   -4.0869   19.1073  -32.3104 H   0  0  0  0  0  0  0  0  0  0  0  0
   -4.9147   19.1190  -33.9157 H   0  0  0  0  0  0  0  0  0  0  0  0
   -3.3403   21.1599  -33.0344 H   0  0  0  0  0  0  0  0  0  0  0  0
   -4.7601   21.3803  -34.1478 H   0  0  0  0  0  0  0  0  0  0  0  0
   -5.5540   22.7510  -32.6910 H   0  0  0  0  0  0  0  0  0  0  0  0
   -5.8170   21.4670  -31.6430 H   0  0  0  0  0  0  0  0  0  0  0  0
   -2.8715   20.7735  -31.2110 H   0  0  0  0  0  0  0  0  0  0  0  0
   -1.1716   21.7530  -29.6849 H   0  0  0  0  0  0  0  0  0  0  0  0
    1.0945   26.1107  -25.4569 H   0  0  0  0  0  0  0  0  0  0  0  0
   -0.9422   26.6622  -24.0675 H   0  0  0  0  0  0  0  0  0  0  0  0
   -3.2251   25.9996  -24.8625 H   0  0  0  0  0  0  0  0  0  0  0  0
   -3.5019   24.7972  -27.0688 H   0  0  0  0  0  0  0  0  0  0  0  0
   -3.3885   25.4655  -29.5794 H   0  0  0  0  0  0  0  0  0  0  0  0
   -6.2132   24.8664  -29.3537 H   0  0  0  0  0  0  0  0  0  0  0  0
   -6.8296   25.9671  -30.6325 H   0  0  0  0  0  0  0  0  0  0  0  0
   -7.3052   24.2349  -30.6325 H   0  0  0  0  0  0  0  0  0  0  0  0
  1  2  1  0
  2  3  1  0
  3  4  1  0
  4  5  1  0
  3  6  1  0
  6  7  1  0
  7  8  1  0
  8  9  1  0
  9 10  2  0
 10 11  1  0
 11 12  2  0
 12 13  1  0
 13 14  1  0
 14 15  2  0
 15 16  1  0
 16 17  2  0
 17 18  1  0
 18 19  2  0
 19 20  1  0
 20 21  2  0
 12 22  1  0
 22 23  2  0
 23 24  1  0
 24 25  1  0
 23  9  1  0
 21 13  1  0
 21 16  1  0
  1 26  1  0
  1 27  1  0
  1 28  1  0
  2 29  1  0
  2 30  1  0
  4 31  1  0
  4 32  1  0
  5 33  1  0
  5 34  1  0
  5 35  1  0
  6 36  1  0
  6 37  1  0
  7 38  1  0
  7 39  1  0
  8 40  1  0
  8 41  1  0
 10 42  1  0
 11 43  1  0
 17 44  1  0
 18 45  1  0
 19 46  1  0
 20 47  1  0
 22 48  1  0
 25 49  1  0
 25 50  1  0
 25 51  1  0
M  CHG  1   8   1
M  END
>  <UniqueID>  (35) 
35

>  <SMILES>  (35) 
CCN(CC)CC[NH2+]c1ccc(-n2nnc3ccccc32)cc1OC

>  <Energy>  (35) 
101.49293690732182

>  <Genealogy>  (35) 
CCN(CC)CC[NH2+]c1ccc(-n2nnc3ccccc32)cc1OC (protonated)
CCN(CC)CC[NH2+]c1ccc(-n2nnc3ccccc32)cc1OC (3D coordinates assigned)
CCN(CC)CC[NH2+]c1ccc(-n2nnc3ccccc32)cc1OC (optimized conformer: 101.49293690732182 kcal/mol)

>  <smiles>  (35) 
CCN(CC)CCNc1ccc(-n2nnc3ccccc32)cc1OC

>  <score_type>  (35) 
oracle

>  <origin>  (35) 
adg

>  <m_score__min__energy>  (35) 
-7.2999999999999998

>  <m_primary>  (35) 
energy

$$$$
35:0
     RDKit          3D

 47 46  0  0  0  0  0  0  0  0999 V2000
   -6.2275   19.5949  -34.5516 H   0  0  0  0  0  0  0  0  0  0  0  0
   -5.7340   19.2750  -33.6220 C   0  0  0  0  0  0  0  0  0  0  0  0
   -6.1960   18.1790  -33.0050 C   0  0  0  0  0  0  0  0  0  0  0  0
   -6.0530   16.4900  -33.8970 Br  0  0  0  0  0  0  0  0  0  0  0  0
   -6.9080   18.2460  -31.7140 C   0  0  0  0  0  0  0  0  0  0  0  0
   -6.3059   18.2765  -30.7939 H   0  0  0  0  0  0  0  0  0  0  0  0
   -8.2400   18.2720  -31.5930 C   0  0  0  0  0  0  0  0  0  0  0  0
   -8.7104   17.5678  -30.8910 H   0  0  0  0  0  0  0  0  0  0  0  0
   -9.1150   19.1910  -32.3470 C   0  0  0  0  0  0  0  0  0  0  0  0
  -10.1227   18.8630  -32.6418 H   0  0  0  0  0  0  0  0  0  0  0  0
   -8.6990   20.4110  -32.6740 C   0  0  0  0  0  0  0  0  0  0  0  0
   -8.1414   20.5644  -33.6097 H   0  0  0  0  0  0  0  0  0  0  0  0
   -9.0610   21.8980  -31.5340 Br  0  0  0  0  0  0  0  0  0  0  0  0
   -4.5780   20.0920  -33.1140 C   0  0  0  0  0  0  0  0  0  0  0  0
   -3.8327   20.2082  -33.9146 H   0  0  0  0  0  0  0  0  0  0  0  0
   -4.1204   19.5803  -32.2545 H   0  0  0  0  0  0  0  0  0  0  0  0
   -5.0530   21.4140  -32.6950 C   0  0  0  0  0  0  0  0  0  0  0  0
   -5.4700   22.4840  -32.3310 C   0  0  0  0  0  0  0  0  0  0  0  0
   -5.9910   23.7930  -31.9230 C   0  0  0  0  0  0  0  0  0  0  0  0
   -6.8563   23.6489  -31.2593 H   0  0  0  0  0  0  0  0  0  0  0  0
   -6.2946   24.3539  -32.8192 H   0  0  0  0  0  0  0  0  0  0  0  0
   -4.9470   24.5570  -31.2060 N   0  0  0  0  0  0  0  0  0  0  0  0
   -5.5550   25.6710  -30.4540 C   0  0  0  0  0  0  0  0  0  0  0  0
   -5.4528   25.4838  -29.3749 H   0  0  0  0  0  0  0  0  0  0  0  0
   -5.0444   26.6102  -30.7132 H   0  0  0  0  0  0  0  0  0  0  0  0
   -6.6211   25.7496  -30.7132 H   0  0  0  0  0  0  0  0  0  0  0  0
   -4.1730   23.6840  -30.2920 C   0  0  0  0  0  0  0  0  0  0  0  0
   -3.2814   24.2257  -29.9432 H   0  0  0  0  0  0  0  0  0  0  0  0
   -3.8770   22.7748  -30.8357 H   0  0  0  0  0  0  0  0  0  0  0  0
   -5.0250   23.2810  -29.0800 C   0  0  0  0  0  0  0  0  0  0  0  0
   -5.4640   22.2889  -29.2619 H   0  0  0  0  0  0  0  0  0  0  0  0
   -5.8173   24.0314  -28.9415 H   0  0  0  0  0  0  0  0  0  0  0  0
   -4.2010   23.2290  -27.8500 N   0  0  0  0  0  0  0  0  0  0  0  0
   -4.2120   24.5280  -27.1390 C   0  0  0  0  0  0  0  0  0  0  0  0
   -4.8247   24.4390  -26.2298 H   0  0  0  0  0  0  0  0  0  0  0  0
   -4.6339   25.2964  -27.8035 H   0  0  0  0  0  0  0  0  0  0  0  0
   -2.7920   24.9310  -26.7520 C   0  0  0  0  0  0  0  0  0  0  0  0
   -2.7038   24.9560  -25.6558 H   0  0  0  0  0  0  0  0  0  0  0  0
   -2.0791   24.1997  -27.1606 H   0  0  0  0  0  0  0  0  0  0  0  0
   -2.5695   25.9278  -27.1606 H   0  0  0  0  0  0  0  0  0  0  0  0
   -2.8210   22.7790  -28.1410 C   0  0  0  0  0  0  0  0  0  0  0  0
   -2.5728   23.0162  -29.1860 H   0  0  0  0  0  0  0  0  0  0  0  0
   -2.1221   23.2951  -27.4663 H   0  0  0  0  0  0  0  0  0  0  0  0
   -2.7090   21.2740  -27.9240 C   0  0  0  0  0  0  0  0  0  0  0  0
   -2.6930   21.0593  -26.8453 H   0  0  0  0  0  0  0  0  0  0  0  0
   -3.5723   20.7718  -28.3851 H   0  0  0  0  0  0  0  0  0  0  0  0
   -1.7809   20.9051  -28.3851 H   0  0  0  0  0  0  0  0  0  0  0  0
  1  2  1  0
  2  3  2  0
  3  4  1  0
  3  5  1  0
  5  6  1  0
  5  7  2  0
  7  8  1  0
  7  9  1  0
  9 10  1  0
  9 11  2  0
 11 12  1  0
 11 13  1  0
  2 14  1  0
 14 15  1  0
 14 16  1  0
 14 17  1  0
 17 18  3  0
 18 19  1  0
 19 20  1  0
 19 21  1  0
 19 22  1  0
 22 23  1  0
 23 24  1  0
 23 25  1  0
 23 26  1  0
 22 27  1  0
 27 28  1  0
 27 29  1  0
 27 30  1  0
 30 31  1  0
 30 32  1  0
 30 33  1  0
 33 34  1  0
 34 35  1  0
 34 36  1  0
 34 37  1  0
 37 38  1  0
 37 39  1  0
 37 40  1  0
 33 41  1  0
 41 42  1  0
 41 43  1  0
 41 44  1  0
 44 45  1  0
 44 46  1  0
 44 47  1  0
M  END
>  <UniqueID>  (36) 
36

>  <SMILES>  (36) 
CCN(CC)CCN(C)CC#CCC=C(Br)/C=C\C=C\Br

>  <Energy>  (36) 
33.22906473918791

>  <Genealogy>  (36) 
CCN(CC)CCN(C)CC#CCC=C(Br)/C=C\C=C\Br (cis-trans isomerization)
CCN(CC)CCN(C)CC#CCC=C(Br)/C=C\C=C\Br (3D coordinates assigned)
CCN(CC)CCN(C)CC#CCC=C(Br)/C=C\C=C\Br (optimized conformer: 33.22906473918791 kcal/mol)

>  <smiles>  (36) 
CCN(CC)CCN(C)CC#CCC=C(Br)C=CC=CBr

>  <score_type>  (36) 
oracle

>  <origin>  (36) 
adg

>  <m_score__min__energy>  (36) 
-7.1299999999999999

>  <m_primary>  (36) 
energy

$$$$
36:0
     RDKit          3D

 49 52  0  0  0  0  0  0  0  0999 V2000
    2.0690   24.4720  -27.8400 C   0  0  0  0  0  0  0  0  0  0  0  0
    0.7220   24.9310  -27.8990 O   0  0  0  0  0  0  0  0  0  0  0  0
    0.0530   25.5810  -26.8490 C   0  0  0  0  0  0  0  0  0  0  0  0
    0.7180   26.4870  -25.9960 C   0  0  0  0  0  0  0  0  0  0  0  0
    0.0300   27.1120  -24.9540 C   0  0  0  0  0  0  0  0  0  0  0  0
   -1.3230   26.8470  -24.7490 C   0  0  0  0  0  0  0  0  0  0  0  0
   -1.9960   25.9560  -25.5870 C   0  0  0  0  0  0  0  0  0  0  0  0
   -1.3160   25.3100  -26.6360 C   0  0  0  0  0  0  0  0  0  0  0  0
   -2.0490   24.3860  -27.5350 C   0  0  0  0  0  0  0  0  0  0  0  0
   -2.7920   24.9070  -28.5450 N   0  0  0  0  0  0  0  0  0  0  0  0
   -3.4940   24.1130  -29.3870 C   0  0  0  0  0  0  0  0  0  0  0  0
   -4.2610   24.6560  -30.4160 C   0  0  0  0  0  0  0  0  0  0  0  0
   -4.9650   23.8340  -31.2360 N   0  0  0  0  0  0  0  0  0  0  0  0
   -4.9380   22.4810  -31.0780 C   0  0  0  0  0  0  0  0  0  0  0  0
   -5.6980   21.6250  -31.9570 N   0  0  0  0  0  0  0  0  0  0  0  0
   -5.0150   20.8990  -33.0370 C   0  0  0  0  0  0  0  0  0  0  0  0
   -5.8390   19.6820  -33.4700 C   0  0  0  0  0  0  0  0  0  0  0  0
   -7.1750   20.0520  -33.7440 O   0  0  0  0  0  0  0  0  0  0  0  0
   -7.7990   20.4770  -32.5490 C   0  0  0  0  0  0  0  0  0  0  0  0
   -7.1590   21.7660  -32.0290 C   0  0  0  0  0  0  0  0  0  0  0  0
   -4.1870   21.9420  -30.0760 N   0  0  0  0  0  0  0  0  0  0  0  0
   -3.4630   22.7190  -29.2260 C   0  0  0  0  0  0  0  0  0  0  0  0
   -2.7080   22.1660  -28.2210 N   0  0  0  0  0  0  0  0  0  0  0  0
   -2.6870   20.6980  -28.0380 C   0  0  0  0  0  0  0  0  0  0  0  0
   -1.3830   20.0870  -28.5660 C   0  0  0  0  0  0  0  0  0  0  0  0
   -0.8800   20.8250  -29.7300 C   0  0  0  0  0  0  0  0  0  0  0  0
   -0.4830   21.4070  -30.6490 N   0  0  0  0  0  0  0  0  0  0  0  0
   -1.9970   22.9840  -27.3730 C   0  0  0  0  0  0  0  0  0  0  0  0
   -1.2820   22.4870  -26.4590 O   0  0  0  0  0  0  0  0  0  0  0  0
    2.3751   24.3677  -26.7886 H   0  0  0  0  0  0  0  0  0  0  0  0
    2.1464   23.4968  -28.3429 H   0  0  0  0  0  0  0  0  0  0  0  0
    2.7258   25.1970  -28.3429 H   0  0  0  0  0  0  0  0  0  0  0  0
    1.7853   26.7024  -26.1528 H   0  0  0  0  0  0  0  0  0  0  0  0
    0.5573   27.8156  -24.2930 H   0  0  0  0  0  0  0  0  0  0  0  0
   -1.8610   27.3404  -23.9261 H   0  0  0  0  0  0  0  0  0  0  0  0
   -3.0659   25.7575  -25.4260 H   0  0  0  0  0  0  0  0  0  0  0  0
   -4.2960   25.7455  -30.5633 H   0  0  0  0  0  0  0  0  0  0  0  0
   -4.8823   21.5712  -33.8976 H   0  0  0  0  0  0  0  0  0  0  0  0
   -4.0367   20.5543  -32.6708 H   0  0  0  0  0  0  0  0  0  0  0  0
   -5.3919   19.2479  -34.3765 H   0  0  0  0  0  0  0  0  0  0  0  0
   -5.8376   18.9464  -32.6522 H   0  0  0  0  0  0  0  0  0  0  0  0
   -8.8663   20.6579  -32.7443 H   0  0  0  0  0  0  0  0  0  0  0  0
   -7.6760   19.6914  -31.7889 H   0  0  0  0  0  0  0  0  0  0  0  0
   -7.4093   22.5938  -32.7088 H   0  0  0  0  0  0  0  0  0  0  0  0
   -7.5457   21.9722  -31.0201 H   0  0  0  0  0  0  0  0  0  0  0  0
   -2.7810   20.4695  -26.9661 H   0  0  0  0  0  0  0  0  0  0  0  0
   -3.5257   20.2665  -28.6040 H   0  0  0  0  0  0  0  0  0  0  0  0
   -0.6255   20.1160  -27.7689 H   0  0  0  0  0  0  0  0  0  0  0  0
   -1.5856   19.0505  -28.8738 H   0  0  0  0  0  0  0  0  0  0  0  0
  1  2  1  0
  2  3  1  0
  3  4  2  0
  4  5  1  0
  5  6  2  0
  6  7  1  0
  7  8  2  0
  8  9  1  0
  9 10  2  0
 10 11  1  0
 11 12  2  0
 12 13  1  0
 13 14  2  0
 14 15  1  0
 15 16  1  0
 16 17  1  0
 17 18  1  0
 18 19  1  0
 19 20  1  0
 14 21  1  0
 21 22  2  0
 22 23  1  0
 23 24  1  0
 24 25  1  0
 25 26  1  0
 26 27  3  0
 23 28  1  0
 28 29  2  0
  8  3  1  0
 28  9  1  0
 22 11  1  0
 20 15  1  0
  1 30  1  0
  1 31  1  0
  1 32  1  0
  4 33  1  0
  5 34  1  0
  6 35  1  0
  7 36  1  0
 12 37  1  0
 16 38  1  0
 16 39  1  0
 17 40  1  0
 17 41  1  0
 19 42  1  0
 19 43  1  0
 20 44  1  0
 20 45  1  0
 24 46  1  0
 24 47  1  0
 25 48  1  0
 25 49  1  0
M  END
>  <UniqueID>  (37) 
37

>  <SMILES>  (37) 
COc1ccccc1-c1nc2cnc(N3CCOCC3)nc2n(CCC#N)c1=O

>  <Energy>  (37) 
64.62044697565237

>  <Genealogy>  (37) 
COc1ccccc1-c1nc2cnc(N3CCOCC3)nc2n(CCC#N)c1=O (3D coordinates assigned)
COc1ccccc1-c1nc2cnc(N3CCOCC3)nc2n(CCC#N)c1=O (nonaromatic ring conformer: 64.62044697565237 kcal/mol)

>  <smiles>  (37) 
COc1ccccc1-c1nc2cnc(N3CCOCC3)nc2n(CCC#N)c1=O

>  <score_type>  (37) 
oracle

>  <origin>  (37) 
adg

>  <m_score__min__energy>  (37) 
-7.5099999999999998

>  <m_primary>  (37) 
energy

$$$$
37:0
     RDKit          3D

 63 66  0  0  0  0  0  0  0  0999 V2000
   -6.7560   25.3550  -29.4820 C   0  0  0  0  0  0  0  0  0  0  0  0
   -6.9070   24.8870  -30.8180 O   0  0  0  0  0  0  0  0  0  0  0  0
   -7.3260   23.5920  -31.1650 C   0  0  0  0  0  0  0  0  0  0  0  0
   -8.4530   23.3680  -31.9790 C   0  0  0  0  0  0  0  0  0  0  0  0
   -8.8420   22.0690  -32.3090 C   0  0  0  0  0  0  0  0  0  0  0  0
   -8.1110   20.9740  -31.8390 C   0  0  0  0  0  0  0  0  0  0  0  0
   -8.5710   19.3350  -32.3030 S   0  0  0  0  0  0  0  0  0  0  0  0
   -9.8700   19.3930  -33.0590 O   0  0  0  0  0  0  0  0  0  0  0  0
   -8.7990   18.5170  -31.0610 O   0  0  0  0  0  0  0  0  0  0  0  0
   -7.3610   18.5550  -33.3020 N   0  0  0  0  0  0  0  0  0  0  0  0
   -6.2820   19.4760  -33.7170 C   0  0  0  0  0  0  0  0  0  0  0  0
   -4.9940   19.3010  -32.8950 C   0  0  0  0  0  0  0  0  0  0  0  0
   -5.2960   18.8400  -31.5990 O   0  0  0  0  0  0  0  0  0  0  0  0
   -5.7540   17.5050  -31.6640 C   0  0  0  0  0  0  0  0  0  0  0  0
   -6.8680   17.2930  -32.7170 C   0  0  0  0  0  0  0  0  0  0  0  0
   -6.9970   21.1870  -31.0180 C   0  0  0  0  0  0  0  0  0  0  0  0
   -6.5980   22.4900  -30.6740 C   0  0  0  0  0  0  0  0  0  0  0  0
   -5.4150   22.7100  -29.8860 N   0  0  0  0  0  0  0  0  0  0  0  0
   -4.2070   23.2810  -30.4120 C   0  0  0  0  0  0  0  0  0  0  0  0
   -3.9820   23.2600  -31.6540 O   0  0  0  0  0  0  0  0  0  0  0  0
   -3.1790   23.8700  -29.4780 C   0  0  0  0  0  0  0  0  0  0  0  0
   -3.7580   24.0030  -28.0570 C   0  0  0  0  0  0  0  0  0  0  0  0
   -2.7390   24.6900  -27.1340 C   0  0  0  0  0  0  0  0  0  0  0  0
   -1.3730   24.1830  -27.3610 N   0  0  0  0  0  0  0  0  0  0  0  0
   -0.2360   25.0160  -27.0560 C   0  0  0  0  0  0  0  0  0  0  0  0
    0.7490   25.0350  -27.8440 O   0  0  0  0  0  0  0  0  0  0  0  0
   -0.2000   25.8620  -25.8440 C   0  0  0  0  0  0  0  0  0  0  0  0
    0.0940   27.2340  -25.9300 C   0  0  0  0  0  0  0  0  0  0  0  0
    0.1180   28.0260  -24.7770 C   0  0  0  0  0  0  0  0  0  0  0  0
   -0.1630   27.4590  -23.5310 C   0  0  0  0  0  0  0  0  0  0  0  0
   -0.4760   26.1010  -23.4370 C   0  0  0  0  0  0  0  0  0  0  0  0
   -0.5010   25.3060  -24.5870 C   0  0  0  0  0  0  0  0  0  0  0  0
   -1.1930   22.9400  -28.1210 C   0  0  0  0  0  0  0  0  0  0  0  0
   -1.8590   23.0480  -29.5030 C   0  0  0  0  0  0  0  0  0  0  0  0
   -7.0160   24.5493  -28.7797 H   0  0  0  0  0  0  0  0  0  0  0  0
   -5.7129   25.6629  -29.3170 H   0  0  0  0  0  0  0  0  0  0  0  0
   -7.4224   26.2144  -29.3170 H   0  0  0  0  0  0  0  0  0  0  0  0
   -9.0313   24.2236  -32.3577 H   0  0  0  0  0  0  0  0  0  0  0  0
   -9.7272   21.9061  -32.9414 H   0  0  0  0  0  0  0  0  0  0  0  0
   -6.0501   19.2898  -34.7760 H   0  0  0  0  0  0  0  0  0  0  0  0
   -6.6423   20.5018  -33.5500 H   0  0  0  0  0  0  0  0  0  0  0  0
   -4.3410   18.5712  -33.3960 H   0  0  0  0  0  0  0  0  0  0  0  0
   -4.4858   20.2735  -32.8177 H   0  0  0  0  0  0  0  0  0  0  0  0
   -4.9036   16.8557  -31.9193 H   0  0  0  0  0  0  0  0  0  0  0  0
   -6.1821   17.2582  -30.6812 H   0  0  0  0  0  0  0  0  0  0  0  0
   -6.4690   16.6644  -33.5267 H   0  0  0  0  0  0  0  0  0  0  0  0
   -7.7165   16.8161  -32.2046 H   0  0  0  0  0  0  0  0  0  0  0  0
   -6.4281   20.3255  -30.6382 H   0  0  0  0  0  0  0  0  0  0  0  0
   -5.4200   22.4120  -28.8840 H   0  0  0  0  0  0  0  0  0  0  0  0
   -2.9255   24.8818  -29.8273 H   0  0  0  0  0  0  0  0  0  0  0  0
   -4.6786   24.6040  -28.0939 H   0  0  0  0  0  0  0  0  0  0  0  0
   -3.9814   23.0003  -27.6638 H   0  0  0  0  0  0  0  0  0  0  0  0
   -2.7548   25.7727  -27.3279 H   0  0  0  0  0  0  0  0  0  0  0  0
   -3.0177   24.4735  -26.0922 H   0  0  0  0  0  0  0  0  0  0  0  0
    0.3064   27.6874  -26.9094 H   0  0  0  0  0  0  0  0  0  0  0  0
    0.3585   29.0968  -24.8513 H   0  0  0  0  0  0  0  0  0  0  0  0
   -0.1377   28.0819  -22.6247 H   0  0  0  0  0  0  0  0  0  0  0  0
   -0.7032   25.6563  -22.4569 H   0  0  0  0  0  0  0  0  0  0  0  0
   -0.7576   24.2392  -24.5085 H   0  0  0  0  0  0  0  0  0  0  0  0
   -0.1176   22.7491  -28.2521 H   0  0  0  0  0  0  0  0  0  0  0  0
   -1.6616   22.1142  -27.5656 H   0  0  0  0  0  0  0  0  0  0  0  0
   -1.1555   23.5352  -30.1942 H   0  0  0  0  0  0  0  0  0  0  0  0
   -2.1124   22.0278  -29.8271 H   0  0  0  0  0  0  0  0  0  0  0  0
  1  2  1  0
  2  3  1  0
  3  4  2  0
  4  5  1  0
  5  6  2  0
  6  7  1  0
  7  8  2  0
  7  9  2  0
  7 10  1  0
 10 11  1  0
 11 12  1  0
 12 13  1  0
 13 14  1  0
 14 15  1  0
  6 16  1  0
 16 17  2  0
 17 18  1  0
 18 19  1  0
 19 20  2  0
 19 21  1  0
 21 22  1  0
 22 23  1  0
 23 24  1  0
 24 25  1  0
 25 26  2  0
 25 27  1  0
 27 28  2  0
 28 29  1  0
 29 30  2  0
 30 31  1  0
 31 32  2  0
 24 33  1  0
 33 34  1  0
 17  3  1  0
 34 21  1  0
 15 10  1  0
 32 27  1  0
  1 35  1  0
  1 36  1  0
  1 37  1  0
  4 38  1  0
  5 39  1  0
 11 40  1  0
 11 41  1  0
 12 42  1  0
 12 43  1  0
 14 44  1  0
 14 45  1  0
 15 46  1  0
 15 47  1  0
 16 48  1  0
 18 49  1  0
 21 50  1  0
 22 51  1  0
 22 52  1  0
 23 53  1  0
 23 54  1  0
 28 55  1  0
 29 56  1  0
 30 57  1  0
 31 58  1  0
 32 59  1  0
 33 60  1  0
 33 61  1  0
 34 62  1  0
 34 63  1  0
M  END
>  <UniqueID>  (38) 
38

>  <SMILES>  (38) 
COc1ccc(S(=O)(=O)N2CCOCC2)cc1NC(=O)C1CCN(C(=O)c2ccccc2)CC1

>  <Energy>  (38) 
86.11958402215225

>  <Genealogy>  (38) 
COc1ccc(S(=O)(=O)N2CCOCC2)cc1NC(=O)C1CCN(C(=O)c2ccccc2)CC1 (3D coordinates assigned)
COc1ccc(S(=O)(=O)N2CCOCC2)cc1NC(=O)C1CCN(C(=O)c2ccccc2)CC1 (nonaromatic ring conformer: 86.11958402215225 kcal/mol)

>  <smiles>  (38) 
COc1ccc(S(=O)(=O)N2CCOCC2)cc1NC(=O)C1CCN(C(=O)c2ccccc2)CC1

>  <score_type>  (38) 
oracle

>  <origin>  (38) 
adg

>  <m_score__min__energy>  (38) 
-10.289999999999999

>  <m_primary>  (38) 
energy

$$$$
38:0
     RDKit          3D

 55 58  0  0  1  0  0  0  0  0999 V2000
   -3.1030   18.8590  -26.3590 C   0  0  0  0  0  0  0  0  0  0  0  0
   -1.9840   19.8760  -26.3950 C   0  0  0  0  0  0  0  0  0  0  0  0
   -1.1130   19.6440  -27.6360 C   0  0  0  0  0  0  0  0  0  0  0  0
   -1.7350   20.2650  -28.8060 C   0  0  0  0  0  0  0  0  0  0  0  0
   -2.2420   20.7610  -29.7820 C   0  0  0  0  0  0  0  0  0  0  0  0
   -2.8630   21.3370  -30.9610 C   0  0  0  0  0  0  0  0  0  0  0  0
   -3.7230   22.4460  -30.5770 N   0  0  0  0  0  0  0  0  0  0  0  0
   -3.4060   23.1960  -29.5290 C   0  0  0  0  0  0  0  0  0  0  0  0
   -4.1620   24.2720  -29.0910 C   0  0  0  0  0  0  0  0  0  0  0  0
   -5.3080   24.5460  -29.8150 C   0  0  0  0  0  0  0  0  0  0  0  0
   -6.1310   25.7040  -29.3490 C   0  0  0  0  0  0  0  0  0  0  0  0
   -5.6870   23.7940  -30.9170 C   0  0  0  0  0  0  0  0  0  0  0  0
   -4.8650   22.7170  -31.3010 C   0  0  0  0  0  0  0  0  0  0  0  0
   -5.1520   22.0300  -32.4270 N   0  0  0  0  0  0  0  0  0  0  0  0
   -5.8690   21.0510  -32.6320 C   0  0  0  0  0  0  0  0  0  0  0  0
   -5.2610   19.9180  -33.0980 N   0  0  0  0  0  0  0  0  0  0  0  0
   -5.9130   18.7860  -33.3630 C   0  0  0  0  0  0  0  0  0  0  0  0
   -5.1550   17.6340  -33.8590 C   0  0  0  0  0  0  0  0  0  0  0  0
   -3.9410   17.8250  -34.5330 C   0  0  0  0  0  0  0  0  0  0  0  0
   -3.1960   16.7810  -35.0150 C   0  0  0  0  0  0  0  0  0  0  0  0
   -3.6230   15.5020  -34.8490 C   0  0  0  0  0  0  0  0  0  0  0  0
   -4.8230   15.2590  -34.1870 C   0  0  0  0  0  0  0  0  0  0  0  0
   -5.2760   13.9870  -34.0060 F   0  0  0  0  0  0  0  0  0  0  0  0
   -5.5600   16.3380  -33.7060 C   0  0  0  0  0  0  0  0  0  0  0  0
   -7.2370   18.7630  -33.1600 N   0  0  0  0  0  0  0  0  0  0  0  0
   -7.8700   19.8550  -32.7030 C   0  0  0  0  0  0  0  0  0  0  0  0
   -9.2200   19.7680  -32.5160 C   0  0  0  0  0  0  0  0  0  0  0  0
   -9.8670   20.8860  -32.0490 C   0  0  0  0  0  0  0  0  0  0  0  0
   -9.2710   22.0740  -31.7570 C   0  0  0  0  0  0  0  0  0  0  0  0
   -7.8800   22.1430  -31.9560 C   0  0  0  0  0  0  0  0  0  0  0  0
   -7.2040   21.0510  -32.4190 C   0  0  0  0  0  0  0  0  0  0  0  0
   -3.3560   18.6291  -25.3135 H   0  0  0  0  0  0  0  0  0  0  0  0
   -3.9875   19.2688  -26.8687 H   0  0  0  0  0  0  0  0  0  0  0  0
   -2.7793   17.9395  -26.8687 H   0  0  0  0  0  0  0  0  0  0  0  0
   -2.4117   20.8888  -26.4328 H   0  0  0  0  0  0  0  0  0  0  0  0
   -1.3659   19.7690  -25.4914 H   0  0  0  0  0  0  0  0  0  0  0  0
   -0.1199   20.0879  -27.4725 H   0  0  0  0  0  0  0  0  0  0  0  0
   -1.0135   18.5625  -27.8108 H   0  0  0  0  0  0  0  0  0  0  0  0
   -2.0812   21.7013  -31.6437 H   0  0  0  0  0  0  0  0  0  0  0  0
   -3.4674   20.5678  -31.4639 H   0  0  0  0  0  0  0  0  0  0  0  0
   -2.4885   22.9489  -28.9749 H   0  0  0  0  0  0  0  0  0  0  0  0
   -3.8675   24.8731  -28.2181 H   0  0  0  0  0  0  0  0  0  0  0  0
   -6.1456   25.7245  -28.2493 H   0  0  0  0  0  0  0  0  0  0  0  0
   -5.6944   26.6400  -29.7274 H   0  0  0  0  0  0  0  0  0  0  0  0
   -7.1585   25.5994  -29.7274 H   0  0  0  0  0  0  0  0  0  0  0  0
   -6.6042   24.0322  -31.4756 H   0  0  0  0  0  0  0  0  0  0  0  0
   -3.5727   18.8510  -34.6804 H   0  0  0  0  0  0  0  0  0  0  0  0
   -2.2489   16.9791  -35.5382 H   0  0  0  0  0  0  0  0  0  0  0  0
   -3.0243   14.6639  -35.2353 H   0  0  0  0  0  0  0  0  0  0  0  0
   -6.5064   16.1391  -33.1817 H   0  0  0  0  0  0  0  0  0  0  0  0
   -7.7770   17.8930  -33.3560 H   0  0  0  0  0  0  0  0  0  0  0  0
   -9.7679   18.8387  -32.7310 H   0  0  0  0  0  0  0  0  0  0  0  0
  -10.9544   20.8154  -31.8990 H   0  0  0  0  0  0  0  0  0  0  0  0
   -9.8463   22.9347  -31.3851 H   0  0  0  0  0  0  0  0  0  0  0  0
   -7.3380   23.0752  -31.7389 H   0  0  0  0  0  0  0  0  0  0  0  0
  1  2  1  0
  2  3  1  0
  3  4  1  0
  4  5  3  0
  5  6  1  0
  6  7  1  0
  7  8  2  0
  8  9  1  0
  9 10  2  0
 10 11  1  0
 10 12  1  0
 12 13  2  0
 13 14  1  0
 14 15  2  0
 15 16  1  0
 16 17  2  0
 17 18  1  0
 18 19  2  0
 19 20  1  0
 20 21  2  0
 21 22  1  0
 22 23  1  0
 22 24  2  0
 17 25  1  0
 25 26  1  0
 26 27  2  0
 27 28  1  0
 28 29  2  0
 29 30  1  0
 30 31  2  0
 13  7  1  0
 31 15  1  0
 24 18  1  0
 31 26  1  0
  1 32  1  0
  1 33  1  0
  1 34  1  0
  2 35  1  0
  2 36  1  0
  3 37  1  0
  3 38  1  0
  6 39  1  0
  6 40  1  0
  8 41  1  0
  9 42  1  0
 11 43  1  0
 11 44  1  0
 11 45  1  0
 12 46  1  0
 19 47  1  0
 20 48  1  0
 21 49  1  0
 24 50  1  0
 25 51  1  0
 27 52  1  0
 28 53  1  0
 29 54  1  0
 30 55  1  0
M  CHG  1   7   1
M  END
>  <smiles>  (39) 
CCCC#CC[n+]1ccc(C)cc1N=c1nc(-c2cccc(F)c2)[nH]c2ccccc12

>  <score_type>  (39) 
oracle

>  <origin>  (39) 
adg

>  <m_score__min__energy>  (39) 
-8.5800000000000001

>  <m_primary>  (39) 
energy

$$$$
39:0
     RDKit          3D

 43 45  0  0  0  0  0  0  0  0999 V2000
   -3.4210   20.0570  -32.7820 C   0  0  0  0  0  0  0  0  0  0  0  0
   -4.0420   19.1630  -33.8480 C   0  0  0  0  0  0  0  0  0  0  0  0
   -5.2910   18.5840  -33.3580 N   0  0  0  0  0  0  0  0  0  0  0  0
   -5.6020   17.2690  -33.2930 C   0  0  0  0  0  0  0  0  0  0  0  0
   -6.8620   17.0680  -32.8500 N   0  0  0  0  0  0  0  0  0  0  0  0
   -7.3610   18.3020  -32.6560 C   0  0  0  0  0  0  0  0  0  0  0  0
   -6.4040   19.2300  -32.9560 C   0  0  0  0  0  0  0  0  0  0  0  0
   -6.6090   20.7090  -32.8340 C   0  0  0  0  0  0  0  0  0  0  0  0
   -7.9640   21.0240  -32.3310 N   0  0  0  0  0  0  0  0  0  0  0  0
   -8.2800   22.3840  -31.9660 C   0  0  0  0  0  0  0  0  0  0  0  0
   -9.4850   22.7330  -31.8320 O   0  0  0  0  0  0  0  0  0  0  0  0
   -7.1960   23.4180  -31.7940 C   0  0  0  0  0  0  0  0  0  0  0  0
   -6.8440   23.5900  -30.3650 N   0  0  0  0  0  0  0  0  0  0  0  0
   -6.7930   25.0120  -29.9550 C   0  0  0  0  0  0  0  0  0  0  0  0
   -5.3860   25.6270  -30.1020 C   0  0  0  0  0  0  0  0  0  0  0  0
   -4.6220   24.9090  -31.0450 O   0  0  0  0  0  0  0  0  0  0  0  0
   -4.3370   23.6140  -30.5450 C   0  0  0  0  0  0  0  0  0  0  0  0
   -5.5930   22.8880  -30.0050 C   0  0  0  0  0  0  0  0  0  0  0  0
   -9.0780   20.0730  -32.5480 C   0  0  0  0  0  0  0  0  0  0  0  0
   -8.7020   18.6490  -32.1100 C   0  0  0  0  0  0  0  0  0  0  0  0
   -3.6855   19.6762  -31.7845 H   0  0  0  0  0  0  0  0  0  0  0  0
   -2.3269   20.0577  -32.8959 H   0  0  0  0  0  0  0  0  0  0  0  0
   -3.8022   21.0825  -32.8959 H   0  0  0  0  0  0  0  0  0  0  0  0
   -4.2474   19.7606  -34.7484 H   0  0  0  0  0  0  0  0  0  0  0  0
   -3.3402   18.3506  -34.0876 H   0  0  0  0  0  0  0  0  0  0  0  0
   -4.9104   16.4591  -33.5684 H   0  0  0  0  0  0  0  0  0  0  0  0
   -7.3420   16.1540  -32.6940 H   0  0  0  0  0  0  0  0  0  0  0  0
   -5.8636   21.1177  -32.1359 H   0  0  0  0  0  0  0  0  0  0  0  0
   -6.4956   21.1587  -33.8314 H   0  0  0  0  0  0  0  0  0  0  0  0
   -6.3017   23.0964  -32.3480 H   0  0  0  0  0  0  0  0  0  0  0  0
   -7.5658   24.3791  -32.1806 H   0  0  0  0  0  0  0  0  0  0  0  0
   -7.4935   25.5836  -30.5815 H   0  0  0  0  0  0  0  0  0  0  0  0
   -7.0653   25.0594  -28.8903 H   0  0  0  0  0  0  0  0  0  0  0  0
   -5.4817   26.6710  -30.4351 H   0  0  0  0  0  0  0  0  0  0  0  0
   -4.8775   25.5812  -29.1277 H   0  0  0  0  0  0  0  0  0  0  0  0
   -3.9050   23.0111  -31.3574 H   0  0  0  0  0  0  0  0  0  0  0  0
   -3.6361   23.7308  -29.7053 H   0  0  0  0  0  0  0  0  0  0  0  0
   -5.6233   21.8723  -30.4263 H   0  0  0  0  0  0  0  0  0  0  0  0
   -5.5233   22.8651  -28.9075 H   0  0  0  0  0  0  0  0  0  0  0  0
   -9.9500   20.4065  -31.9663 H   0  0  0  0  0  0  0  0  0  0  0  0
   -9.3068   20.0521  -33.6237 H   0  0  0  0  0  0  0  0  0  0  0  0
   -8.6756   18.5978  -31.0115 H   0  0  0  0  0  0  0  0  0  0  0  0
   -9.4495   17.9377  -32.4913 H   0  0  0  0  0  0  0  0  0  0  0  0
  1  2  1  0
  2  3  1  0
  3  4  1  0
  4  5  2  0
  5  6  1  0
  6  7  2  0
  7  8  1  0
  8  9  1  0
  9 10  1  0
 10 11  2  0
 10 12  1  0
 12 13  1  0
 13 14  1  0
 14 15  1  0
 15 16  1  0
 16 17  1  0
 17 18  1  0
  9 19  1  0
 19 20  1  0
  7  3  1  0
 18 13  1  0
 20  6  1  0
  1 21  1  0
  1 22  1  0
  1 23  1  0
  2 24  1  0
  2 25  1  0
  4 26  1  0
  5 27  1  0
  8 28  1  0
  8 29  1  0
 12 30  1  0
 12 31  1  0
 14 32  1  0
 14 33  1  0
 15 34  1  0
 15 35  1  0
 17 36  1  0
 17 37  1  0
 18 38  1  0
 18 39  1  0
 19 40  1  0
 19 41  1  0
 20 42  1  0
 20 43  1  0
M  CHG  1   5   1
M  END
>  <UniqueID>  (40) 
39

>  <SMILES>  (40) 
CCn1c[nH+]c2c1CN(C(=O)CN1CCOCC1)CC2

>  <Energy>  (40) 
86.83073727903158

>  <Genealogy>  (40) 
CCn1c[nH+]c2c1CN(C(=O)CN1CCOCC1)CC2 (protonated)
CCn1c[nH+]c2c1CN(C(=O)CN1CCOCC1)CC2 (3D coordinates assigned)
CCn1c[nH+]c2c1CN(C(=O)CN1CCOCC1)CC2 (nonaromatic ring conformer: 86.83073727903158 kcal/mol)

>  <smiles>  (40) 
CCn1cnc2c1CN(C(=O)CN1CCOCC1)CC2

>  <score_type>  (40) 
oracle

>  <origin>  (40) 
adg

>  <m_score__min__energy>  (40) 
-7.1100000000000003

>  <m_primary>  (40) 
energy

$$$$
40:0
     RDKit          3D

 65 68  0  0  0  0  0  0  0  0999 V2000
    0.1870   20.1560  -30.0140 C   0  0  0  0  0  0  0  0  0  0  0  0
   -0.2290   20.6070  -28.7270 O   0  0  0  0  0  0  0  0  0  0  0  0
   -1.1130   19.9090  -27.8890 C   0  0  0  0  0  0  0  0  0  0  0  0
   -0.7170   18.7650  -27.1720 C   0  0  0  0  0  0  0  0  0  0  0  0
   -1.6310   18.0950  -26.3520 C   0  0  0  0  0  0  0  0  0  0  0  0
   -2.9450   18.5520  -26.2480 C   0  0  0  0  0  0  0  0  0  0  0  0
   -3.3480   19.6870  -26.9560 C   0  0  0  0  0  0  0  0  0  0  0  0
   -2.4340   20.3730  -27.7670 C   0  0  0  0  0  0  0  0  0  0  0  0
   -2.8250   21.6050  -28.3850 N   0  0  0  0  0  0  0  0  0  0  0  0
   -2.3930   21.9050  -29.7550 C   0  0  0  0  0  0  0  0  0  0  0  0
   -2.7010   23.3590  -30.1350 C   0  0  0  0  0  0  0  0  0  0  0  0
   -4.0680   23.7200  -29.7380 N   0  0  0  0  0  0  0  0  0  0  0  0
   -4.7590   24.7400  -30.4710 C   0  0  0  0  0  0  0  0  0  0  0  0
   -4.1350   25.7710  -30.8430 O   0  0  0  0  0  0  0  0  0  0  0  0
   -6.2140   24.5850  -30.8270 C   0  0  0  0  0  0  0  0  0  0  0  0
   -6.4450   23.9680  -32.2210 C   0  0  0  0  0  0  0  0  0  0  0  0
   -6.6100   22.4470  -32.2250 C   0  0  0  0  0  0  0  0  0  0  0  0
   -7.8660   21.8680  -31.9220 C   0  0  0  0  0  0  0  0  0  0  0  0
   -9.0630   22.6590  -31.4680 C   0  0  0  0  0  0  0  0  0  0  0  0
   -8.0170   20.5240  -31.9740 N   0  0  0  0  0  0  0  0  0  0  0  0
   -7.0490   19.6690  -32.3860 C   0  0  0  0  0  0  0  0  0  0  0  0
   -5.7950   20.1780  -32.7730 C   0  0  0  0  0  0  0  0  0  0  0  0
   -5.5330   21.5740  -32.5800 C   0  0  0  0  0  0  0  0  0  0  0  0
   -4.1230   22.1170  -32.7400 C   0  0  0  0  0  0  0  0  0  0  0  0
   -4.8830   19.2640  -33.3660 C   0  0  0  0  0  0  0  0  0  0  0  0
   -3.7820   19.6670  -33.8370 O   0  0  0  0  0  0  0  0  0  0  0  0
   -5.2060   17.9370  -33.4790 N   0  0  0  0  0  0  0  0  0  0  0  0
   -4.2340   16.9950  -34.0720 C   0  0  0  0  0  0  0  0  0  0  0  0
   -6.3950   17.4660  -32.9880 C   0  0  0  0  0  0  0  0  0  0  0  0
   -6.6560   16.2300  -33.0540 O   0  0  0  0  0  0  0  0  0  0  0  0
   -7.3080   18.3250  -32.4380 N   0  0  0  0  0  0  0  0  0  0  0  0
   -8.6100   17.8090  -31.9730 C   0  0  0  0  0  0  0  0  0  0  0  0
   -4.6200   23.2750  -28.4490 C   0  0  0  0  0  0  0  0  0  0  0  0
   -3.5550   22.5940  -27.5870 C   0  0  0  0  0  0  0  0  0  0  0  0
    0.9287   19.3519  -29.8987 H   0  0  0  0  0  0  0  0  0  0  0  0
   -0.6836   19.7751  -30.5681 H   0  0  0  0  0  0  0  0  0  0  0  0
    0.6368   20.9930  -30.5681 H   0  0  0  0  0  0  0  0  0  0  0  0
    0.3158   18.3959  -27.2566 H   0  0  0  0  0  0  0  0  0  0  0  0
   -1.3130   17.2058  -25.7879 H   0  0  0  0  0  0  0  0  0  0  0  0
   -3.6638   18.0187  -25.6085 H   0  0  0  0  0  0  0  0  0  0  0  0
   -4.3857   20.0432  -26.8766 H   0  0  0  0  0  0  0  0  0  0  0  0
   -1.3087   21.7370  -29.8329 H   0  0  0  0  0  0  0  0  0  0  0  0
   -2.9415   21.2445  -30.4427 H   0  0  0  0  0  0  0  0  0  0  0  0
   -1.9890   24.0243  -29.6247 H   0  0  0  0  0  0  0  0  0  0  0  0
   -2.6090   23.4669  -31.2258 H   0  0  0  0  0  0  0  0  0  0  0  0
   -6.6887   23.9361  -30.0763 H   0  0  0  0  0  0  0  0  0  0  0  0
   -6.6517   25.5940  -30.8438 H   0  0  0  0  0  0  0  0  0  0  0  0
   -7.3565   24.4131  -32.6464 H   0  0  0  0  0  0  0  0  0  0  0  0
   -5.5427   24.1852  -32.8114 H   0  0  0  0  0  0  0  0  0  0  0  0
   -9.0936   22.6792  -30.3686 H   0  0  0  0  0  0  0  0  0  0  0  0
   -8.9900   23.6873  -31.8518 H   0  0  0  0  0  0  0  0  0  0  0  0
   -9.9803   22.1887  -31.8518 H   0  0  0  0  0  0  0  0  0  0  0  0
   -3.6808   22.2873  -31.7473 H   0  0  0  0  0  0  0  0  0  0  0  0
   -3.5109   21.3903  -33.2943 H   0  0  0  0  0  0  0  0  0  0  0  0
   -4.1565   23.0666  -33.2943 H   0  0  0  0  0  0  0  0  0  0  0  0
   -3.6940   16.4716  -33.2692 H   0  0  0  0  0  0  0  0  0  0  0  0
   -4.7673   16.2611  -34.6941 H   0  0  0  0  0  0  0  0  0  0  0  0
   -3.5172   17.5510  -34.6941 H   0  0  0  0  0  0  0  0  0  0  0  0
   -8.6297   17.8012  -30.8732 H   0  0  0  0  0  0  0  0  0  0  0  0
   -9.4163   18.4556  -32.3496 H   0  0  0  0  0  0  0  0  0  0  0  0
   -8.7545   16.7856  -32.3496 H   0  0  0  0  0  0  0  0  0  0  0  0
   -5.0127   24.1485  -27.9079 H   0  0  0  0  0  0  0  0  0  0  0  0
   -5.4191   22.5461  -28.6494 H   0  0  0  0  0  0  0  0  0  0  0  0
   -2.8509   23.3511  -27.2113 H   0  0  0  0  0  0  0  0  0  0  0  0
   -4.0430   22.0879  -26.7410 H   0  0  0  0  0  0  0  0  0  0  0  0
  1  2  1  0
  2  3  1  0
  3  4  2  0
  4  5  1  0
  5  6  2  0
  6  7  1  0
  7  8  2  0
  8  9  1  0
  9 10  1  0
 10 11  1  0
 11 12  1  0
 12 13  1  0
 13 14  2  0
 13 15  1  0
 15 16  1  0
 16 17  1  0
 17 18  2  0
 18 19  1  0
 18 20  1  0
 20 21  2  0
 21 22  1  0
 22 23  2  0
 23 24  1  0
 22 25  1  0
 25 26  2  0
 25 27  1  0
 27 28  1  0
 27 29  1  0
 29 30  2  0
 29 31  1  0
 31 32  1  0
 12 33  1  0
 33 34  1  0
  8  3  1  0
 34  9  1  0
 23 17  1  0
 31 21  1  0
  1 35  1  0
  1 36  1  0
  1 37  1  0
  4 38  1  0
  5 39  1  0
  6 40  1  0
  7 41  1  0
 10 42  1  0
 10 43  1  0
 11 44  1  0
 11 45  1  0
 15 46  1  0
 15 47  1  0
 16 48  1  0
 16 49  1  0
 19 50  1  0
 19 51  1  0
 19 52  1  0
 24 53  1  0
 24 54  1  0
 24 55  1  0
 28 56  1  0
 28 57  1  0
 28 58  1  0
 32 59  1  0
 32 60  1  0
 32 61  1  0
 33 62  1  0
 33 63  1  0
 34 64  1  0
 34 65  1  0
M  END
>  <UniqueID>  (41) 
40

>  <SMILES>  (41) 
COc1ccccc1N1CCN(C(=O)CCc2c(C)nc3c(c2C)c(=O)n(C)c(=O)n3C)CC1

>  <Energy>  (41) 
97.12989654216926

>  <Genealogy>  (41) 
COc1ccccc1N1CCN(C(=O)CCc2c(C)nc3c(c2C)c(=O)n(C)c(=O)n3C)CC1 (3D coordinates assigned)
COc1ccccc1N1CCN(C(=O)CCc2c(C)nc3c(c2C)c(=O)n(C)c(=O)n3C)CC1 (nonaromatic ring conformer: 97.12989654216926 kcal/mol)

>  <smiles>  (41) 
COc1ccccc1N1CCN(C(=O)CCc2c(C)nc3c(c2C)c(=O)n(C)c(=O)n3C)CC1

>  <score_type>  (41) 
oracle

>  <origin>  (41) 
adg

>  <m_score__min__energy>  (41) 
-10.039999999999999

>  <m_primary>  (41) 
energy

$$$$
41:0
     RDKit          3D

 52 52  0  0  0  0  0  0  0  0999 V2000
   -5.8030   18.3640  -34.5110 C   0  0  0  0  0  0  0  0  0  0  0  0
   -6.4330   19.6320  -33.9300 C   0  0  0  0  0  0  0  0  0  0  0  0
   -7.2020   19.3240  -32.7020 N   0  0  0  0  0  0  0  0  0  0  0  0
   -7.1740   17.8660  -32.4120 C   0  0  0  0  0  0  0  0  0  0  0  0
   -6.2300   17.5660  -31.2470 C   0  0  0  0  0  0  0  0  0  0  0  0
   -8.5970   19.8240  -32.8110 C   0  0  0  0  0  0  0  0  0  0  0  0
   -9.0820   20.3730  -31.4590 C   0  0  0  0  0  0  0  0  0  0  0  0
   -8.0640   21.3530  -30.8480 C   0  0  0  0  0  0  0  0  0  0  0  0
   -8.0170   22.7010  -31.5900 C   0  0  0  0  0  0  0  0  0  0  0  0
   -6.8730   22.8240  -32.6140 C   0  0  0  0  0  0  0  0  0  0  0  0
   -5.6680   23.3960  -32.0080 N   0  0  0  0  0  0  0  0  0  0  0  0
   -4.4360   22.6760  -31.8200 C   0  0  0  0  0  0  0  0  0  0  0  0
   -4.1720   21.5210  -32.5780 C   0  0  0  0  0  0  0  0  0  0  0  0
   -2.9820   20.8140  -32.4140 C   0  0  0  0  0  0  0  0  0  0  0  0
   -2.0060   21.2610  -31.5120 C   0  0  0  0  0  0  0  0  0  0  0  0
   -0.7730   20.5340  -31.3550 N   0  0  0  0  0  0  0  0  0  0  0  0
    0.2110   20.7860  -32.0810 O   0  0  0  0  0  0  0  0  0  0  0  0
   -0.6650   19.5330  -30.4180 O   0  0  0  0  0  0  0  0  0  0  0  0
   -2.2470   22.4340  -30.7750 C   0  0  0  0  0  0  0  0  0  0  0  0
   -3.4520   23.1420  -30.9150 C   0  0  0  0  0  0  0  0  0  0  0  0
   -3.6950   24.6130  -29.9550 S   0  0  0  0  0  0  0  0  0  0  0  0
   -4.3050   25.6710  -30.8360 O   0  0  0  0  0  0  0  0  0  0  0  0
   -4.6210   24.3350  -28.8020 O   0  0  0  0  0  0  0  0  0  0  0  0
   -2.1800   25.2080  -29.3420 N   0  0  0  0  0  0  0  0  0  0  0  0
   -1.8950   24.6080  -28.0420 C   0  0  0  0  0  0  0  0  0  0  0  0
   -5.4769   17.7076  -33.6907 H   0  0  0  0  0  0  0  0  0  0  0  0
   -6.5440   17.8369  -35.1299 H   0  0  0  0  0  0  0  0  0  0  0  0
   -4.9353   18.6361  -35.1299 H   0  0  0  0  0  0  0  0  0  0  0  0
   -5.6368   20.3506  -33.6858 H   0  0  0  0  0  0  0  0  0  0  0  0
   -7.1188   20.0583  -34.6770 H   0  0  0  0  0  0  0  0  0  0  0  0
   -8.1884   17.5300  -32.1509 H   0  0  0  0  0  0  0  0  0  0  0  0
   -6.8145   17.3340  -33.3052 H   0  0  0  0  0  0  0  0  0  0  0  0
   -6.7566   17.7334  -30.2959 H   0  0  0  0  0  0  0  0  0  0  0  0
   -5.8992   16.5185  -31.3035 H   0  0  0  0  0  0  0  0  0  0  0  0
   -5.3551   18.2304  -31.3035 H   0  0  0  0  0  0  0  0  0  0  0  0
   -8.6357   20.6267  -33.5621 H   0  0  0  0  0  0  0  0  0  0  0  0
   -9.2500   18.9910  -33.1105 H   0  0  0  0  0  0  0  0  0  0  0  0
  -10.0373   20.8975  -31.6085 H   0  0  0  0  0  0  0  0  0  0  0  0
   -9.2031   19.5265  -30.7671 H   0  0  0  0  0  0  0  0  0  0  0  0
   -8.3396   21.5381  -29.7993 H   0  0  0  0  0  0  0  0  0  0  0  0
   -7.0684   20.8928  -30.9322 H   0  0  0  0  0  0  0  0  0  0  0  0
   -8.9706   22.8344  -32.1218 H   0  0  0  0  0  0  0  0  0  0  0  0
   -7.8398   23.4733  -30.8270 H   0  0  0  0  0  0  0  0  0  0  0  0
   -6.6355   21.8241  -33.0062 H   0  0  0  0  0  0  0  0  0  0  0  0
   -7.2038   23.4935  -33.4217 H   0  0  0  0  0  0  0  0  0  0  0  0
   -5.7320   24.3840  -31.6670 H   0  0  0  0  0  0  0  0  0  0  0  0
   -4.9146   21.1709  -33.3101 H   0  0  0  0  0  0  0  0  0  0  0  0
   -2.8071   19.8978  -32.9970 H   0  0  0  0  0  0  0  0  0  0  0  0
   -1.4800   22.8028  -30.0781 H   0  0  0  0  0  0  0  0  0  0  0  0
   -2.2197   25.2915  -27.2436 H   0  0  0  0  0  0  0  0  0  0  0  0
   -2.4366   23.6548  -27.9514 H   0  0  0  0  0  0  0  0  0  0  0  0
   -0.8140   24.4256  -27.9514 H   0  0  0  0  0  0  0  0  0  0  0  0
  1  2  1  0
  2  3  1  0
  3  4  1  0
  4  5  1  0
  3  6  1  0
  6  7  1  0
  7  8  1  0
  8  9  1  0
  9 10  1  0
 10 11  1  0
 11 12  1  0
 12 13  2  0
 13 14  1  0
 14 15  2  0
 15 16  1  0
 16 17  2  0
 16 18  1  0
 15 19  1  0
 19 20  2  0
 20 21  1  0
 21 22  2  0
 21 23  2  0
 21 24  1  0
 24 25  1  0
 20 12  1  0
  1 26  1  0
  1 27  1  0
  1 28  1  0
  2 29  1  0
  2 30  1  0
  4 31  1  0
  4 32  1  0
  5 33  1  0
  5 34  1  0
  5 35  1  0
  6 36  1  0
  6 37  1  0
  7 38  1  0
  7 39  1  0
  8 40  1  0
  8 41  1  0
  9 42  1  0
  9 43  1  0
 10 44  1  0
 10 45  1  0
 11 46  1  0
 13 47  1  0
 14 48  1  0
 19 49  1  0
 25 50  1  0
 25 51  1  0
 25 52  1  0
M  CHG  3  16   1  18  -1  24  -1
M  END
>  <UniqueID>  (42) 
41

>  <SMILES>  (42) 
CCN(CC)CCCCCNc1ccc([N+](=O)[O-])cc1S(=O)(=O)[N-]C

>  <Energy>  (42) 
43.295019503909806

>  <Genealogy>  (42) 
CCN(CC)CCCCCNc1ccc([N+](=O)[O-])cc1S(=O)(=O)[N-]C (protonated)
CCN(CC)CCCCCNc1ccc([N+](=O)[O-])cc1S(=O)(=O)[N-]C (3D coordinates assigned)
CCN(CC)CCCCCNc1ccc([N+](=O)[O-])cc1S(=O)(=O)[N-]C (optimized conformer: 43.295019503909806 kcal/mol)

>  <smiles>  (42) 
CCN(CC)CCCCCNc1ccc([N+](=O)[O-])cc1S(=O)(=O)NC

>  <score_type>  (42) 
oracle

>  <origin>  (42) 
adg

>  <m_score__min__energy>  (42) 
-9.1799999999999997

>  <m_primary>  (42) 
energy

$$$$
42:0
     RDKit          3D

 41 43  0  0  0  0  0  0  0  0999 V2000
   -1.6410   24.9240  -28.3470 C   0  0  0  0  0  0  0  0  0  0  0  0
   -2.5830   25.2830  -29.3530 O   0  0  0  0  0  0  0  0  0  0  0  0
   -3.8030   24.6250  -29.5660 C   0  0  0  0  0  0  0  0  0  0  0  0
   -4.0470   23.3180  -29.1020 C   0  0  0  0  0  0  0  0  0  0  0  0
   -5.2810   22.7050  -29.3400 C   0  0  0  0  0  0  0  0  0  0  0  0
   -6.2880   23.3850  -30.0410 C   0  0  0  0  0  0  0  0  0  0  0  0
   -7.6130   22.7120  -30.3090 C   0  0  0  0  0  0  0  0  0  0  0  0
   -7.7510   22.3260  -31.7290 N   0  0  2  0  0  0  0  0  0  0  0  0
   -8.6510   21.2110  -31.9040 C   0  0  0  0  0  0  0  0  0  0  0  0
   -9.8410   21.2670  -31.6310 O   0  0  0  0  0  0  0  0  0  0  0  0
   -8.0380   20.0760  -32.6500 C   0  0  2  0  0  0  0  0  0  0  0  0
   -8.4090   18.6630  -32.3420 C   0  0  0  0  0  0  0  0  0  0  0  0
   -7.5690   17.6910  -32.7570 C   0  0  0  0  0  0  0  0  0  0  0  0
   -6.1830   17.9830  -33.3470 C   0  0  0  0  0  0  0  0  0  0  0  0
   -5.7740   19.4990  -33.4180 C   0  0  2  0  0  0  0  0  0  0  0  0
   -4.2590   19.6570  -33.2340 C   0  0  0  0  0  0  0  0  0  0  0  0
   -6.5660   20.2690  -32.3470 C   0  0  1  0  0  0  0  0  0  0  0  0
   -6.5150   21.7560  -32.2070 C   0  0  0  0  0  0  0  0  0  0  0  0
   -5.5130   22.4280  -32.4060 O   0  0  0  0  0  0  0  0  0  0  0  0
   -6.0440   24.6880  -30.5040 C   0  0  0  0  0  0  0  0  0  0  0  0
   -4.8100   25.3000  -30.2660 C   0  0  0  0  0  0  0  0  0  0  0  0
   -2.0830   25.0925  -27.3539 H   0  0  0  0  0  0  0  0  0  0  0  0
   -1.3760   23.8619  -28.4550 H   0  0  0  0  0  0  0  0  0  0  0  0
   -0.7364   25.5404  -28.4550 H   0  0  0  0  0  0  0  0  0  0  0  0
   -3.2639   22.7773  -28.5503 H   0  0  0  0  0  0  0  0  0  0  0  0
   -5.4632   21.6833  -28.9753 H   0  0  0  0  0  0  0  0  0  0  0  0
   -7.6872   21.8091  -29.6850 H   0  0  0  0  0  0  0  0  0  0  0  0
   -8.4154   23.4245  -30.0671 H   0  0  0  0  0  0  0  0  0  0  0  0
   -8.0360   23.1280  -32.3380 H   0  0  0  0  0  0  0  0  0  0  0  0
   -8.3948   20.1417  -33.6884 H   0  0  0  0  0  0  0  0  0  0  0  0
   -9.3335   18.4226  -31.7966 H   0  0  0  0  0  0  0  0  0  0  0  0
   -7.8925   16.6434  -32.6682 H   0  0  0  0  0  0  0  0  0  0  0  0
   -6.1600   17.5792  -34.3699 H   0  0  0  0  0  0  0  0  0  0  0  0
   -5.4622   17.5114  -32.6628 H   0  0  0  0  0  0  0  0  0  0  0  0
   -6.0180   19.9137  -34.4072 H   0  0  0  0  0  0  0  0  0  0  0  0
   -4.0206   19.6819  -32.1604 H   0  0  0  0  0  0  0  0  0  0  0  0
   -3.7419   18.8079  -33.7048 H   0  0  0  0  0  0  0  0  0  0  0  0
   -3.9283   20.5945  -33.7048 H   0  0  0  0  0  0  0  0  0  0  0  0
   -6.0909   19.8562  -31.4449 H   0  0  0  0  0  0  0  0  0  0  0  0
   -6.8267   25.2291  -31.0559 H   0  0  0  0  0  0  0  0  0  0  0  0
   -4.6286   26.3213  -30.6321 H   0  0  0  0  0  0  0  0  0  0  0  0
  1  2  1  0
  2  3  1  0
  3  4  2  0
  4  5  1  0
  5  6  2  0
  6  7  1  0
  7  8  1  0
  8  9  1  0
  9 10  2  0
  9 11  1  0
 11 12  1  0
 12 13  2  0
 13 14  1  0
 14 15  1  0
 15 16  1  0
 15 17  1  0
 17 18  1  0
 18 19  2  0
  6 20  1  0
 20 21  2  0
 21  3  1  0
 18  8  1  0
 17 11  1  0
  1 22  1  0
  1 23  1  0
  1 24  1  0
  4 25  1  0
  5 26  1  0
  7 27  1  0
  7 28  1  0
  8 29  1  6
 11 30  1  6
 12 31  1  0
 13 32  1  0
 14 33  1  0
 14 34  1  0
 15 35  1  6
 16 36  1  0
 16 37  1  0
 16 38  1  0
 17 39  1  1
 20 40  1  0
 21 41  1  0
M  CHG  1   8   1
M  END
>  <UniqueID>  (43) 
42

>  <SMILES>  (43) 
COc1ccc(C[N@H+]2C(=O)C3C(C)CC=C[C@H]3C2=O)cc1

>  <Energy>  (43) 
65.67238477202223

>  <Genealogy>  (43) 
COc1ccc(C[NH+]2C(=O)C3C=CCC(C)C3C2=O)cc1 (protonated)
COc1ccc(C[N@H+]2C(=O)C3C(C)CC=C[C@H]3C2=O)cc1 (chirality)
COc1ccc(C[N@H+]2C(=O)C3C(C)CC=C[C@H]3C2=O)cc1 (3D coordinates assigned)
COc1ccc(C[N@H+]2C(=O)C3C(C)CC=C[C@H]3C2=O)cc1 (nonaromatic ring conformer: 65.67238477202223 kcal/mol)

>  <smiles>  (43) 
COc1ccc(CN2C(=O)C3C=CCC(C)C3C2=O)cc1

>  <score_type>  (43) 
oracle

>  <origin>  (43) 
adg

>  <m_score__min__energy>  (43) 
-8.75

>  <m_primary>  (43) 
energy

$$$$
43:0
     RDKit          3D

 45 48  0  0  0  0  0  0  0  0999 V2000
   -1.5410   21.9030  -31.7550 O   0  0  0  0  0  0  0  0  0  0  0  0
   -2.7610   21.8220  -32.0650 C   0  0  0  0  0  0  0  0  0  0  0  0
   -3.1350   21.4190  -33.4550 C   0  0  0  0  0  0  0  0  0  0  0  0
   -3.5230   19.6400  -33.4780 S   0  0  0  0  0  0  0  0  0  0  0  0
   -5.2430   19.8770  -33.0010 C   0  0  0  0  0  0  0  0  0  0  0  0
   -5.6860   21.1480  -32.8170 N   0  0  0  0  0  0  0  0  0  0  0  0
   -6.9740   21.4070  -32.4870 C   0  0  0  0  0  0  0  0  0  0  0  0
   -7.3980   22.7290  -32.3080 C   0  0  0  0  0  0  0  0  0  0  0  0
   -8.7300   22.9990  -31.9690 C   0  0  0  0  0  0  0  0  0  0  0  0
   -9.6400   21.9480  -31.8130 C   0  0  0  0  0  0  0  0  0  0  0  0
   -9.2240   20.6240  -31.9910 C   0  0  0  0  0  0  0  0  0  0  0  0
   -7.8850   20.3450  -32.3300 C   0  0  0  0  0  0  0  0  0  0  0  0
   -7.4160   19.0340  -32.5190 C   0  0  0  0  0  0  0  0  0  0  0  0
   -8.2050   18.0560  -32.3800 O   0  0  0  0  0  0  0  0  0  0  0  0
   -6.1020   18.8160  -32.8510 N   0  0  0  0  0  0  0  0  0  0  0  0
   -5.6340   17.4700  -33.0570 C   0  0  0  0  0  0  0  0  0  0  0  0
   -5.3660   17.0090  -34.3550 C   0  0  0  0  0  0  0  0  0  0  0  0
   -4.8900   15.7110  -34.5540 C   0  0  0  0  0  0  0  0  0  0  0  0
   -4.6860   14.8640  -33.4590 C   0  0  0  0  0  0  0  0  0  0  0  0
   -4.0830   13.2390  -33.7070 Cl  0  0  0  0  0  0  0  0  0  0  0  0
   -4.9590   15.3160  -32.1640 C   0  0  0  0  0  0  0  0  0  0  0  0
   -5.4340   16.6130  -31.9630 C   0  0  0  0  0  0  0  0  0  0  0  0
   -3.7800   22.0290  -31.0750 N   0  0  0  0  0  0  0  0  0  0  0  0
   -3.5040   22.5250  -29.7530 C   0  0  0  0  0  0  0  0  0  0  0  0
   -2.6770   21.7980  -28.8770 C   0  0  0  0  0  0  0  0  0  0  0  0
   -2.3880   22.2900  -27.6000 C   0  0  0  0  0  0  0  0  0  0  0  0
   -2.9160   23.5120  -27.1880 C   0  0  0  0  0  0  0  0  0  0  0  0
   -3.7270   24.2500  -28.0530 C   0  0  0  0  0  0  0  0  0  0  0  0
   -4.0180   23.7680  -29.3350 C   0  0  0  0  0  0  0  0  0  0  0  0
   -5.1610   24.8090  -30.4680 Br  0  0  0  0  0  0  0  0  0  0  0  0
   -4.0160   21.9920  -33.7799 H   0  0  0  0  0  0  0  0  0  0  0  0
   -2.2969   21.6236  -34.1375 H   0  0  0  0  0  0  0  0  0  0  0  0
   -6.6844   23.5567  -32.4337 H   0  0  0  0  0  0  0  0  0  0  0  0
   -9.0607   24.0382  -31.8253 H   0  0  0  0  0  0  0  0  0  0  0  0
  -10.6861   22.1632  -31.5495 H   0  0  0  0  0  0  0  0  0  0  0  0
   -9.9425   19.8005  -31.8662 H   0  0  0  0  0  0  0  0  0  0  0  0
   -5.5311   17.6713  -35.2176 H   0  0  0  0  0  0  0  0  0  0  0  0
   -4.6754   15.3544  -35.5722 H   0  0  0  0  0  0  0  0  0  0  0  0
   -4.7994   14.6493  -31.3037 H   0  0  0  0  0  0  0  0  0  0  0  0
   -5.6524   16.9649  -30.9440 H   0  0  0  0  0  0  0  0  0  0  0  0
   -4.7550   21.7410  -31.3090 H   0  0  0  0  0  0  0  0  0  0  0  0
   -2.2543   20.8349  -29.1991 H   0  0  0  0  0  0  0  0  0  0  0  0
   -1.7438   21.7122  -26.9208 H   0  0  0  0  0  0  0  0  0  0  0  0
   -2.6940   23.8955  -26.1812 H   0  0  0  0  0  0  0  0  0  0  0  0
   -4.1396   25.2156  -27.7252 H   0  0  0  0  0  0  0  0  0  0  0  0
  1  2  2  0
  2  3  1  0
  3  4  1  0
  4  5  1  0
  5  6  2  0
  6  7  1  0
  7  8  2  0
  8  9  1  0
  9 10  2  0
 10 11  1  0
 11 12  2  0
 12 13  1  0
 13 14  2  0
 13 15  1  0
 15 16  1  0
 16 17  2  0
 17 18  1  0
 18 19  2  0
 19 20  1  0
 19 21  1  0
 21 22  2  0
  2 23  1  0
 23 24  1  0
 24 25  2  0
 25 26  1  0
 26 27  2  0
 27 28  1  0
 28 29  2  0
 29 30  1  0
 15  5  1  0
 22 16  1  0
 29 24  1  0
 12  7  1  0
  3 31  1  0
  3 32  1  0
  8 33  1  0
  9 34  1  0
 10 35  1  0
 11 36  1  0
 17 37  1  0
 18 38  1  0
 21 39  1  0
 22 40  1  0
 23 41  1  0
 25 42  1  0
 26 43  1  0
 27 44  1  0
 28 45  1  0
M  END
>  <UniqueID>  (44) 
43

>  <SMILES>  (44) 
O=C(CSc1nc2ccccc2c(=O)n1-c1ccc(Cl)cc1)Nc1ccccc1Br

>  <Energy>  (44) 
62.774469588246234

>  <Genealogy>  (44) 
O=C(CSc1nc2ccccc2c(=O)n1-c1ccc(Cl)cc1)Nc1ccccc1Br (3D coordinates assigned)
O=C(CSc1nc2ccccc2c(=O)n1-c1ccc(Cl)cc1)Nc1ccccc1Br (optimized conformer: 62.774469588246234 kcal/mol)

>  <smiles>  (44) 
O=C(CSc1nc2ccccc2c(=O)n1-c1ccc(Cl)cc1)Nc1ccccc1Br

>  <score_type>  (44) 
oracle

>  <origin>  (44) 
adg

>  <m_score__min__energy>  (44) 
-9.5700000000000003

>  <m_primary>  (44) 
energy

$$$$
44:0
     RDKit          3D

 51 54  0  0  0  0  0  0  0  0999 V2000
   -3.3210   21.5110  -30.4400 C   0  0  0  0  0  0  0  0  0  0  0  0
   -3.5330   22.7890  -31.2660 C   0  0  0  0  0  0  0  0  0  0  0  0
   -4.2680   23.8750  -30.5720 N   0  0  0  0  0  0  0  0  0  0  0  0
   -3.5230   24.5530  -29.4890 C   0  0  0  0  0  0  0  0  0  0  0  0
   -3.9900   24.1590  -28.0870 C   0  0  0  0  0  0  0  0  0  0  0  0
   -5.7090   23.6670  -30.3040 C   0  0  0  0  0  0  0  0  0  0  0  0
   -6.5480   24.0000  -31.5460 C   0  0  0  0  0  0  0  0  0  0  0  0
   -6.5040   22.9220  -32.5350 N   0  0  0  0  0  0  0  0  0  0  0  0
   -7.1000   21.6200  -32.3500 C   0  0  0  0  0  0  0  0  0  0  0  0
   -8.2750   21.4640  -31.5940 C   0  0  0  0  0  0  0  0  0  0  0  0
   -8.8350   20.2040  -31.4120 C   0  0  0  0  0  0  0  0  0  0  0  0
   -8.2370   19.0820  -31.9760 C   0  0  0  0  0  0  0  0  0  0  0  0
   -8.8050   17.8670  -31.7620 F   0  0  0  0  0  0  0  0  0  0  0  0
   -7.0530   19.2020  -32.7300 C   0  0  0  0  0  0  0  0  0  0  0  0
   -6.4800   20.4830  -32.9160 C   0  0  0  0  0  0  0  0  0  0  0  0
   -5.3210   20.6920  -33.6740 O   0  0  0  0  0  0  0  0  0  0  0  0
   -4.1090   20.0170  -33.5180 C   0  0  0  0  0  0  0  0  0  0  0  0
   -2.9120   20.7380  -33.6690 C   0  0  0  0  0  0  0  0  0  0  0  0
   -1.6660   20.1000  -33.5250 C   0  0  0  0  0  0  0  0  0  0  0  0
   -1.6070   18.7250  -33.2590 C   0  0  0  0  0  0  0  0  0  0  0  0
   -2.8050   18.0200  -33.1340 C   0  0  0  0  0  0  0  0  0  0  0  0
   -4.0190   18.6480  -33.2390 C   0  0  0  0  0  0  0  0  0  0  0  0
   -5.0710   17.7080  -33.2330 N   0  0  0  0  0  0  0  0  0  0  0  0
   -4.5080   16.3600  -33.1360 C   0  0  0  0  0  0  0  0  0  0  0  0
   -2.9800   16.5480  -33.0010 C   0  0  0  0  0  0  0  0  0  0  0  0
   -6.4710   17.9830  -33.3230 C   0  0  0  0  0  0  0  0  0  0  0  0
   -7.2350   17.1140  -33.8260 O   0  0  0  0  0  0  0  0  0  0  0  0
   -3.3617   21.7561  -29.3684 H   0  0  0  0  0  0  0  0  0  0  0  0
   -4.1108   20.7840  -30.6801 H   0  0  0  0  0  0  0  0  0  0  0  0
   -2.3387   21.0780  -30.6801 H   0  0  0  0  0  0  0  0  0  0  0  0
   -2.5444   23.1766  -31.5530 H   0  0  0  0  0  0  0  0  0  0  0  0
   -4.1569   22.4980  -32.1240 H   0  0  0  0  0  0  0  0  0  0  0  0
   -2.4577   24.2965  -29.5859 H   0  0  0  0  0  0  0  0  0  0  0  0
   -3.7042   25.6324  -29.5986 H   0  0  0  0  0  0  0  0  0  0  0  0
   -3.3753   24.6776  -27.3365 H   0  0  0  0  0  0  0  0  0  0  0  0
   -5.0445   24.4445  -27.9580 H   0  0  0  0  0  0  0  0  0  0  0  0
   -3.8861   23.0715  -27.9580 H   0  0  0  0  0  0  0  0  0  0  0  0
   -5.8763   22.6157  -30.0270 H   0  0  0  0  0  0  0  0  0  0  0  0
   -6.0147   24.3324  -29.4831 H   0  0  0  0  0  0  0  0  0  0  0  0
   -7.5921   24.1591  -31.2385 H   0  0  0  0  0  0  0  0  0  0  0  0
   -6.1303   24.9064  -32.0085 H   0  0  0  0  0  0  0  0  0  0  0  0
   -5.9850   23.1190  -33.4200 H   0  0  0  0  0  0  0  0  0  0  0  0
   -8.7550   22.3451  -31.1431 H   0  0  0  0  0  0  0  0  0  0  0  0
   -9.7551   20.0943  -30.8193 H   0  0  0  0  0  0  0  0  0  0  0  0
   -2.9496   21.8123  -33.9022 H   0  0  0  0  0  0  0  0  0  0  0  0
   -0.7370   20.6811  -33.6213 H   0  0  0  0  0  0  0  0  0  0  0  0
   -0.6391   18.2136  -33.1513 H   0  0  0  0  0  0  0  0  0  0  0  0
   -4.9091   15.8404  -32.2533 H   0  0  0  0  0  0  0  0  0  0  0  0
   -4.7639   15.7511  -34.0157 H   0  0  0  0  0  0  0  0  0  0  0  0
   -2.6243   16.1954  -32.0216 H   0  0  0  0  0  0  0  0  0  0  0  0
   -2.4077   15.9766  -33.7466 H   0  0  0  0  0  0  0  0  0  0  0  0
  1  2  1  0
  2  3  1  0
  3  4  1  0
  4  5  1  0
  3  6  1  0
  6  7  1  0
  7  8  1  0
  8  9  1  0
  9 10  2  0
 10 11  1  0
 11 12  2  0
 12 13  1  0
 12 14  1  0
 14 15  2  0
 15 16  1  0
 16 17  1  0
 17 18  2  0
 18 19  1  0
 19 20  2  0
 20 21  1  0
 21 22  2  0
 22 23  1  0
 23 24  1  0
 24 25  1  0
 23 26  1  0
 26 27  2  0
 15  9  1  0
 22 17  1  0
 26 14  1  0
 25 21  1  0
  1 28  1  0
  1 29  1  0
  1 30  1  0
  2 31  1  0
  2 32  1  0
  4 33  1  0
  4 34  1  0
  5 35  1  0
  5 36  1  0
  5 37  1  0
  6 38  1  0
  6 39  1  0
  7 40  1  0
  7 41  1  0
  8 42  1  0
 10 43  1  0
 11 44  1  0
 18 45  1  0
 19 46  1  0
 20 47  1  0
 24 48  1  0
 24 49  1  0
 25 50  1  0
 25 51  1  0
M  END
>  <UniqueID>  (45) 
44

>  <SMILES>  (45) 
CCN(CC)CCNc1ccc(F)c2c1Oc1cccc3c1N(CC3)C2=O

>  <Energy>  (45) 
92.95677928403336

>  <Genealogy>  (45) 
CCN(CC)CCNc1ccc(F)c2c1Oc1cccc3c1N(CC3)C2=O (3D coordinates assigned)
CCN(CC)CCNc1ccc(F)c2c1Oc1cccc3c1N(CC3)C2=O (nonaromatic ring conformer: 92.95677928403336 kcal/mol)

>  <smiles>  (45) 
CCN(CC)CCNc1ccc(F)c2c1Oc1cccc3c1N(CC3)C2=O

>  <score_type>  (45) 
oracle

>  <origin>  (45) 
adg

>  <m_score__min__energy>  (45) 
-7.7599999999999998

>  <m_primary>  (45) 
energy

$$$$
45:0
     RDKit          3D

 71 75  0  0  0  0  0  0  0  0999 V2000
    1.3410   24.1370  -27.4890 C   0  0  0  0  0  0  0  0  0  0  0  0
    0.1950   24.6020  -28.1950 O   0  0  0  0  0  0  0  0  0  0  0  0
   -1.1200   24.5440  -27.7080 C   0  0  0  0  0  0  0  0  0  0  0  0
   -1.6190   25.4920  -26.7910 C   0  0  0  0  0  0  0  0  0  0  0  0
   -2.9290   25.3920  -26.3140 C   0  0  0  0  0  0  0  0  0  0  0  0
   -3.7530   24.3510  -26.7440 C   0  0  0  0  0  0  0  0  0  0  0  0
   -3.2710   23.4070  -27.6520 C   0  0  0  0  0  0  0  0  0  0  0  0
   -1.9610   23.4980  -28.1420 C   0  0  0  0  0  0  0  0  0  0  0  0
   -1.4880   22.5080  -29.0670 N   0  0  0  0  0  0  0  0  0  0  0  0
   -1.1880   22.8920  -30.4560 C   0  0  0  0  0  0  0  0  0  0  0  0
   -0.9240   21.6560  -31.3130 C   0  0  0  0  0  0  0  0  0  0  0  0
   -1.9060   20.6220  -30.9440 N   0  0  0  0  0  0  0  0  0  0  0  0
   -2.2190   19.6320  -32.0020 C   0  0  0  0  0  0  0  0  0  0  0  0
   -3.3300   20.0200  -33.0050 C   0  0  0  0  0  0  0  0  0  0  0  0
   -3.4000   21.5110  -33.3680 C   0  0  0  0  0  0  0  0  0  0  0  0
   -4.5730   22.1710  -32.7650 N   0  0  0  0  0  0  0  0  0  0  0  0
   -5.1730   21.4000  -31.6610 C   0  0  0  0  0  0  0  0  0  0  0  0
   -6.6840   21.3010  -31.7780 C   0  0  0  0  0  0  0  0  0  0  0  0
   -7.4640   22.3970  -31.3690 C   0  0  0  0  0  0  0  0  0  0  0  0
   -8.8530   22.3790  -31.5190 C   0  0  0  0  0  0  0  0  0  0  0  0
   -9.4830   21.2670  -32.0780 C   0  0  0  0  0  0  0  0  0  0  0  0
   -8.7280   20.1650  -32.4810 C   0  0  0  0  0  0  0  0  0  0  0  0
   -7.3330   20.1640  -32.3260 C   0  0  0  0  0  0  0  0  0  0  0  0
   -6.5920   18.9510  -32.7190 C   0  0  0  0  0  0  0  0  0  0  0  0
   -6.1460   18.7910  -34.0570 C   0  0  0  0  0  0  0  0  0  0  0  0
   -5.4490   17.6320  -34.4440 C   0  0  0  0  0  0  0  0  0  0  0  0
   -5.2580   16.6390  -33.4780 C   0  0  0  0  0  0  0  0  0  0  0  0
   -5.6940   16.7880  -32.1930 C   0  0  0  0  0  0  0  0  0  0  0  0
   -6.3650   17.9310  -31.7680 C   0  0  0  0  0  0  0  0  0  0  0  0
   -5.3100   15.7290  -31.4590 N   0  0  0  0  0  0  0  0  0  0  0  0
   -4.6360   14.9400  -32.3330 C   0  0  0  0  0  0  0  0  0  0  0  0
   -4.6020   15.4690  -33.5820 N   0  0  0  0  0  0  0  0  0  0  0  0
   -3.9020   14.9320  -34.7440 C   0  0  0  0  0  0  0  0  0  0  0  0
   -1.7130   20.0790  -29.5810 C   0  0  0  0  0  0  0  0  0  0  0  0
   -1.2060   21.1500  -28.5890 C   0  0  0  0  0  0  0  0  0  0  0  0
    1.1596   24.2106  -26.4066 H   0  0  0  0  0  0  0  0  0  0  0  0
    1.5366   23.0884  -27.7576 H   0  0  0  0  0  0  0  0  0  0  0  0
    2.2120   24.7529  -27.7576 H   0  0  0  0  0  0  0  0  0  0  0  0
   -0.9737   26.3147  -26.4492 H   0  0  0  0  0  0  0  0  0  0  0  0
   -3.3111   26.1350  -25.5985 H   0  0  0  0  0  0  0  0  0  0  0  0
   -4.7835   24.2744  -26.3669 H   0  0  0  0  0  0  0  0  0  0  0  0
   -3.9234   22.5864  -27.9852 H   0  0  0  0  0  0  0  0  0  0  0  0
   -2.0447   23.4430  -30.8713 H   0  0  0  0  0  0  0  0  0  0  0  0
   -0.2882   23.5247  -30.4614 H   0  0  0  0  0  0  0  0  0  0  0  0
   -1.0335   21.9106  -32.3775 H   0  0  0  0  0  0  0  0  0  0  0  0
    0.0983   21.2871  -31.1432 H   0  0  0  0  0  0  0  0  0  0  0  0
   -1.2978   19.4545  -32.5763 H   0  0  0  0  0  0  0  0  0  0  0  0
   -2.6036   18.7496  -31.4695 H   0  0  0  0  0  0  0  0  0  0  0  0
   -3.1629   19.4526  -33.9324 H   0  0  0  0  0  0  0  0  0  0  0  0
   -4.2825   19.7846  -32.5076 H   0  0  0  0  0  0  0  0  0  0  0  0
   -2.4877   22.0080  -33.0063 H   0  0  0  0  0  0  0  0  0  0  0  0
   -3.4893   21.5911  -34.4614 H   0  0  0  0  0  0  0  0  0  0  0  0
   -5.2920   22.3220  -33.5110 H   0  0  0  0  0  0  0  0  0  0  0  0
   -4.7508   20.3843  -31.6692 H   0  0  0  0  0  0  0  0  0  0  0  0
   -4.9431   21.9246  -30.7219 H   0  0  0  0  0  0  0  0  0  0  0  0
   -6.9757   23.2777  -30.9264 H   0  0  0  0  0  0  0  0  0  0  0  0
   -9.4511   23.2437  -31.1956 H   0  0  0  0  0  0  0  0  0  0  0  0
  -10.5760   21.2589  -32.2012 H   0  0  0  0  0  0  0  0  0  0  0  0
   -9.2293   19.2913  -32.9231 H   0  0  0  0  0  0  0  0  0  0  0  0
   -6.3470   19.5795  -34.7971 H   0  0  0  0  0  0  0  0  0  0  0  0
   -5.0682   17.5112  -35.4689 H   0  0  0  0  0  0  0  0  0  0  0  0
   -6.7067   18.0366  -30.7278 H   0  0  0  0  0  0  0  0  0  0  0  0
   -5.4530   15.5710  -30.4380 H   0  0  0  0  0  0  0  0  0  0  0  0
   -4.1705   13.9814  -32.0603 H   0  0  0  0  0  0  0  0  0  0  0  0
   -3.0707   14.2943  -34.4089 H   0  0  0  0  0  0  0  0  0  0  0  0
   -4.6004   14.3358  -35.3496 H   0  0  0  0  0  0  0  0  0  0  0  0
   -3.5071   15.7610  -35.3496 H   0  0  0  0  0  0  0  0  0  0  0  0
   -2.6741   19.6867  -29.2172 H   0  0  0  0  0  0  0  0  0  0  0  0
   -0.9518   19.2871  -29.6391 H   0  0  0  0  0  0  0  0  0  0  0  0
   -1.7043   21.0025  -27.6195 H   0  0  0  0  0  0  0  0  0  0  0  0
   -0.1158   21.0396  -28.4922 H   0  0  0  0  0  0  0  0  0  0  0  0
  1  2  1  0
  2  3  1  0
  3  4  2  0
  4  5  1  0
  5  6  2  0
  6  7  1  0
  7  8  2  0
  8  9  1  0
  9 10  1  0
 10 11  1  0
 11 12  1  0
 12 13  1  0
 13 14  1  0
 14 15  1  0
 15 16  1  0
 16 17  1  0
 17 18  1  0
 18 19  2  0
 19 20  1  0
 20 21  2  0
 21 22  1  0
 22 23  2  0
 23 24  1  0
 24 25  2  0
 25 26  1  0
 26 27  2  0
 27 28  1  0
 28 29  2  0
 28 30  1  0
 30 31  2  0
 31 32  1  0
 32 33  1  0
 12 34  1  0
 34 35  1  0
  8  3  1  0
 35  9  1  0
 23 18  1  0
 29 24  1  0
 32 27  1  0
  1 36  1  0
  1 37  1  0
  1 38  1  0
  4 39  1  0
  5 40  1  0
  6 41  1  0
  7 42  1  0
 10 43  1  0
 10 44  1  0
 11 45  1  0
 11 46  1  0
 13 47  1  0
 13 48  1  0
 14 49  1  0
 14 50  1  0
 15 51  1  0
 15 52  1  0
 16 53  1  0
 17 54  1  0
 17 55  1  0
 19 56  1  0
 20 57  1  0
 21 58  1  0
 22 59  1  0
 25 60  1  0
 26 61  1  0
 29 62  1  0
 30 63  1  0
 31 64  1  0
 33 65  1  0
 33 66  1  0
 33 67  1  0
 34 68  1  0
 34 69  1  0
 35 70  1  0
 35 71  1  0
M  CHG  1  30   1
M  END
>  <UniqueID>  (46) 
45

>  <SMILES>  (46) 
COc1ccccc1N1CCN(CCCNCc2ccccc2-c2ccc3c(c2)[nH+]cn3C)CC1

>  <Energy>  (46) 
137.23200274741967

>  <Genealogy>  (46) 
COc1ccccc1N1CCN(CCCNCc2ccccc2-c2ccc3c(c2)[nH+]cn3C)CC1 (protonated)
COc1ccccc1N1CCN(CCCNCc2ccccc2-c2ccc3c(c2)[nH+]cn3C)CC1 (3D coordinates assigned)
COc1ccccc1N1CCN(CCCNCc2ccccc2-c2ccc3c(c2)[nH+]cn3C)CC1 (nonaromatic ring conformer: 137.23200274741967 kcal/mol)

>  <smiles>  (46) 
COc1ccccc1N1CCN(CCCNCc2ccccc2-c2ccc3c(c2)ncn3C)CC1

>  <score_type>  (46) 
oracle

>  <origin>  (46) 
adg

>  <m_score__min__energy>  (46) 
-10.02

>  <m_primary>  (46) 
energy

$$$$
46:0
     RDKit          3D

 37 39  0  0  0  0  0  0  0  0999 V2000
   -1.9080   25.6490  -28.9030 O   0  0  0  0  0  0  0  0  0  0  0  0
   -2.5540   24.6890  -29.4060 C   0  0  0  0  0  0  0  0  0  0  0  0
   -2.2880   23.2900  -28.9490 C   0  0  0  0  0  0  0  0  0  0  0  0
   -2.2980   22.3760  -30.1030 N   0  0  0  0  0  0  0  0  0  0  0  0
   -1.1590   22.2390  -30.8460 C   0  0  0  0  0  0  0  0  0  0  0  0
   -1.1330   21.4330  -31.9390 N   0  0  0  0  0  0  0  0  0  0  0  0
   -2.2390   20.7470  -32.3310 C   0  0  0  0  0  0  0  0  0  0  0  0
   -2.1980   19.9190  -33.4640 C   0  0  0  0  0  0  0  0  0  0  0  0
   -3.3400   19.2200  -33.8650 C   0  0  0  0  0  0  0  0  0  0  0  0
   -4.5290   19.3430  -33.1410 C   0  0  0  0  0  0  0  0  0  0  0  0
   -6.0860   18.3860  -33.6970 Br  0  0  0  0  0  0  0  0  0  0  0  0
   -4.5810   20.1650  -32.0110 C   0  0  0  0  0  0  0  0  0  0  0  0
   -3.4360   20.8720  -31.5980 C   0  0  0  0  0  0  0  0  0  0  0  0
   -3.4410   21.7110  -30.4690 C   0  0  0  0  0  0  0  0  0  0  0  0
   -4.5020   21.8520  -29.7960 O   0  0  0  0  0  0  0  0  0  0  0  0
   -3.5040   24.9230  -30.4480 N   0  0  0  0  0  0  0  0  0  0  0  0
   -4.8720   25.3470  -30.1920 C   0  0  0  0  0  0  0  0  0  0  0  0
   -5.8170   24.2770  -30.6550 C   0  0  0  0  0  0  0  0  0  0  0  0
   -5.7450   23.7940  -31.9720 C   0  0  0  0  0  0  0  0  0  0  0  0
   -6.5980   22.7700  -32.3940 C   0  0  0  0  0  0  0  0  0  0  0  0
   -7.5200   22.2140  -31.5020 C   0  0  0  0  0  0  0  0  0  0  0  0
   -8.3460   21.2200  -31.9120 F   0  0  0  0  0  0  0  0  0  0  0  0
   -7.5870   22.6780  -30.1850 C   0  0  0  0  0  0  0  0  0  0  0  0
   -6.7350   23.7030  -29.7600 C   0  0  0  0  0  0  0  0  0  0  0  0
   -1.3044   23.2473  -28.4583 H   0  0  0  0  0  0  0  0  0  0  0  0
   -3.0711   22.9857  -28.2389 H   0  0  0  0  0  0  0  0  0  0  0  0
   -0.2516   22.7886  -30.5550 H   0  0  0  0  0  0  0  0  0  0  0  0
   -0.2410   21.3530  -32.4780 H   0  0  0  0  0  0  0  0  0  0  0  0
   -1.2647   19.8201  -34.0377 H   0  0  0  0  0  0  0  0  0  0  0  0
   -3.3028   18.5714  -34.7527 H   0  0  0  0  0  0  0  0  0  0  0  0
   -5.5186   20.2594  -31.4436 H   0  0  0  0  0  0  0  0  0  0  0  0
   -5.0086   25.5166  -29.1138 H   0  0  0  0  0  0  0  0  0  0  0  0
   -5.0767   26.2807  -30.7364 H   0  0  0  0  0  0  0  0  0  0  0  0
   -5.0148   24.2231  -32.6739 H   0  0  0  0  0  0  0  0  0  0  0  0
   -6.5438   22.4013  -33.4289 H   0  0  0  0  0  0  0  0  0  0  0  0
   -8.3098   22.2371  -29.4827 H   0  0  0  0  0  0  0  0  0  0  0  0
   -6.7841   24.0608  -28.7210 H   0  0  0  0  0  0  0  0  0  0  0  0
  1  2  2  0
  2  3  1  0
  3  4  1  0
  4  5  1  0
  5  6  2  0
  6  7  1  0
  7  8  2  0
  8  9  1  0
  9 10  2  0
 10 11  1  0
 10 12  1  0
 12 13  2  0
 13 14  1  0
 14 15  2  0
  2 16  1  0
 16 17  1  0
 17 18  1  0
 18 19  2  0
 19 20  1  0
 20 21  2  0
 21 22  1  0
 21 23  1  0
 23 24  2  0
 14  4  1  0
 24 18  1  0
 13  7  1  0
  3 25  1  0
  3 26  1  0
  5 27  1  0
  6 28  1  0
  8 29  1  0
  9 30  1  0
 12 31  1  0
 17 32  1  0
 17 33  1  0
 19 34  1  0
 20 35  1  0
 23 36  1  0
 24 37  1  0
M  CHG  2   6   1  16  -1
M  END
>  <UniqueID>  (47) 
46

>  <SMILES>  (47) 
O=C(Cn1c[nH+]c2ccc(Br)cc2c1=O)[N-]Cc1ccc(F)cc1

>  <Energy>  (47) 
41.17227854079678

>  <Genealogy>  (47) 
O=C(Cn1c[nH+]c2ccc(Br)cc2c1=O)[N-]Cc1ccc(F)cc1 (protonated)
O=C(Cn1c[nH+]c2ccc(Br)cc2c1=O)[N-]Cc1ccc(F)cc1 (3D coordinates assigned)
O=C(Cn1c[nH+]c2ccc(Br)cc2c1=O)[N-]Cc1ccc(F)cc1 (optimized conformer: 41.17227854079678 kcal/mol)

>  <smiles>  (47) 
O=C(Cn1cnc2ccc(Br)cc2c1=O)NCc1ccc(F)cc1

>  <score_type>  (47) 
oracle

>  <origin>  (47) 
adg

>  <m_score__min__energy>  (47) 
-9.2100000000000009

>  <m_primary>  (47) 
energy

$$$$
47:0
     RDKit          3D

 68 71  0  0  0  0  0  0  0  0999 V2000
   -1.1550   18.9600  -33.3280 C   0  0  0  0  0  0  0  0  0  0  0  0
   -2.4330   18.3490  -32.7380 C   0  0  0  0  0  0  0  0  0  0  0  0
   -3.6710   18.9890  -33.2770 N   0  0  0  0  0  0  0  0  0  0  0  0
   -4.1310   18.3110  -34.5210 C   0  0  0  0  0  0  0  0  0  0  0  0
   -5.6560   18.2330  -34.6410 C   0  0  0  0  0  0  0  0  0  0  0  0
   -4.7390   18.9550  -32.2390 C   0  0  0  0  0  0  0  0  0  0  0  0
   -4.6550   20.0790  -31.1830 C   0  0  0  0  0  0  0  0  0  0  0  0
   -3.5120   20.9740  -31.4080 N   0  0  0  0  0  0  0  0  0  0  0  0
   -2.4240   21.0450  -30.4270 C   0  0  0  0  0  0  0  0  0  0  0  0
   -2.7590   22.0130  -29.3350 C   0  0  0  0  0  0  0  0  0  0  0  0
   -3.8530   21.9420  -28.4950 C   0  0  0  0  0  0  0  0  0  0  0  0
   -3.7400   23.0180  -27.6410 C   0  0  0  0  0  0  0  0  0  0  0  0
   -2.5780   23.6770  -28.0120 C   0  0  0  0  0  0  0  0  0  0  0  0
   -1.9970   24.8860  -27.3870 C   0  0  0  0  0  0  0  0  0  0  0  0
   -2.3980   25.2540  -26.0920 C   0  0  0  0  0  0  0  0  0  0  0  0
   -1.8620   26.3890  -25.4770 C   0  0  0  0  0  0  0  0  0  0  0  0
   -0.9010   27.1710  -26.1380 C   0  0  0  0  0  0  0  0  0  0  0  0
   -0.3540   28.4130  -25.4810 C   0  0  0  0  0  0  0  0  0  0  0  0
    0.5500   29.0210  -26.3320 F   0  0  0  0  0  0  0  0  0  0  0  0
   -1.3810   29.2990  -25.2030 F   0  0  0  0  0  0  0  0  0  0  0  0
    0.2840   28.1060  -24.2900 F   0  0  0  0  0  0  0  0  0  0  0  0
   -0.5250   26.8230  -27.4470 C   0  0  0  0  0  0  0  0  0  0  0  0
   -1.0590   25.6870  -28.0620 C   0  0  0  0  0  0  0  0  0  0  0  0
   -2.0250   23.0540  -29.0290 O   0  0  0  0  0  0  0  0  0  0  0  0
   -3.4400   21.7900  -32.5890 C   0  0  0  0  0  0  0  0  0  0  0  0
   -2.3550   21.8630  -33.2270 O   0  0  0  0  0  0  0  0  0  0  0  0
   -4.6090   22.6340  -33.0210 C   0  0  0  0  0  0  0  0  0  0  0  0
   -5.5620   22.8570  -31.9100 N   0  0  0  0  0  0  0  0  0  0  0  0
   -5.2670   23.8050  -30.9540 C   0  0  0  0  0  0  0  0  0  0  0  0
   -4.2220   24.5100  -31.0340 O   0  0  0  0  0  0  0  0  0  0  0  0
   -6.1140   23.9960  -29.8620 C   0  0  0  0  0  0  0  0  0  0  0  0
   -7.2320   23.2460  -29.7350 N   0  0  0  0  0  0  0  0  0  0  0  0
   -7.5650   22.3180  -30.6630 C   0  0  0  0  0  0  0  0  0  0  0  0
   -8.7340   21.5680  -30.4960 C   0  0  0  0  0  0  0  0  0  0  0  0
   -9.1020   20.6220  -31.4500 C   0  0  0  0  0  0  0  0  0  0  0  0
   -8.3060   20.4240  -32.5790 C   0  0  0  0  0  0  0  0  0  0  0  0
   -7.1340   21.1620  -32.7560 C   0  0  0  0  0  0  0  0  0  0  0  0
   -6.7290   22.1180  -31.7920 C   0  0  0  0  0  0  0  0  0  0  0  0
   -0.4899   19.2780  -32.5116 H   0  0  0  0  0  0  0  0  0  0  0  0
   -0.6421   18.2097  -33.9477 H   0  0  0  0  0  0  0  0  0  0  0  0
   -1.4169   19.8303  -33.9477 H   0  0  0  0  0  0  0  0  0  0  0  0
   -2.4559   17.2761  -32.9796 H   0  0  0  0  0  0  0  0  0  0  0  0
   -2.4144   18.5167  -31.6510 H   0  0  0  0  0  0  0  0  0  0  0  0
   -3.4740   19.9920  -33.4940 H   0  0  0  0  0  0  0  0  0  0  0  0
   -3.7408   18.8670  -35.3862 H   0  0  0  0  0  0  0  0  0  0  0  0
   -3.7540   17.2782  -34.4872 H   0  0  0  0  0  0  0  0  0  0  0  0
   -6.1022   18.2102  -33.6358 H   0  0  0  0  0  0  0  0  0  0  0  0
   -6.0264   19.1134  -35.1867 H   0  0  0  0  0  0  0  0  0  0  0  0
   -5.9346   17.3194  -35.1867 H   0  0  0  0  0  0  0  0  0  0  0  0
   -5.7116   19.0349  -32.7466 H   0  0  0  0  0  0  0  0  0  0  0  0
   -4.6092   18.0086  -31.6935 H   0  0  0  0  0  0  0  0  0  0  0  0
   -5.5809   20.6715  -31.2232 H   0  0  0  0  0  0  0  0  0  0  0  0
   -4.5219   19.6057  -30.1990 H   0  0  0  0  0  0  0  0  0  0  0  0
   -2.2661   20.0480  -29.9900 H   0  0  0  0  0  0  0  0  0  0  0  0
   -1.5107   21.3875  -30.9356 H   0  0  0  0  0  0  0  0  0  0  0  0
   -4.6497   21.1836  -28.5054 H   0  0  0  0  0  0  0  0  0  0  0  0
   -4.4303   23.2967  -26.8311 H   0  0  0  0  0  0  0  0  0  0  0  0
   -3.1404   24.6435  -25.5571 H   0  0  0  0  0  0  0  0  0  0  0  0
   -2.1955   26.6718  -24.4676 H   0  0  0  0  0  0  0  0  0  0  0  0
    0.1958   27.4501  -27.9921 H   0  0  0  0  0  0  0  0  0  0  0  0
   -0.7433   25.4179  -29.0808 H   0  0  0  0  0  0  0  0  0  0  0  0
   -4.2358   23.6075  -33.3717 H   0  0  0  0  0  0  0  0  0  0  0  0
   -5.1379   22.1022  -33.8257 H   0  0  0  0  0  0  0  0  0  0  0  0
   -5.8725   24.7563  -29.1047 H   0  0  0  0  0  0  0  0  0  0  0  0
   -9.3646   21.7258  -29.6086 H   0  0  0  0  0  0  0  0  0  0  0  0
  -10.0198   20.0312  -31.3135 H   0  0  0  0  0  0  0  0  0  0  0  0
   -8.6038   19.6818  -33.3343 H   0  0  0  0  0  0  0  0  0  0  0  0
   -6.5187   20.9995  -33.6532 H   0  0  0  0  0  0  0  0  0  0  0  0
  1  2  1  0
  2  3  1  0
  3  4  1  0
  4  5  1  0
  3  6  1  0
  6  7  1  0
  7  8  1  0
  8  9  1  0
  9 10  1  0
 10 11  2  0
 11 12  1  0
 12 13  2  0
 13 14  1  0
 14 15  2  0
 15 16  1  0
 16 17  2  0
 17 18  1  0
 18 19  1  0
 18 20  1  0
 18 21  1  0
 17 22  1  0
 22 23  2  0
 13 24  1  0
  8 25  1  0
 25 26  2  0
 25 27  1  0
 27 28  1  0
 28 29  1  0
 29 30  2  0
 29 31  1  0
 31 32  2  0
 32 33  1  0
 33 34  2  0
 34 35  1  0
 35 36  2  0
 36 37  1  0
 37 38  2  0
 24 10  1  0
 38 28  1  0
 23 14  1  0
 38 33  1  0
  1 39  1  0
  1 40  1  0
  1 41  1  0
  2 42  1  0
  2 43  1  0
  3 44  1  0
  4 45  1  0
  4 46  1  0
  5 47  1  0
  5 48  1  0
  5 49  1  0
  6 50  1  0
  6 51  1  0
  7 52  1  0
  7 53  1  0
  9 54  1  0
  9 55  1  0
 11 56  1  0
 12 57  1  0
 15 58  1  0
 16 59  1  0
 22 60  1  0
 23 61  1  0
 27 62  1  0
 27 63  1  0
 31 64  1  0
 34 65  1  0
 35 66  1  0
 36 67  1  0
 37 68  1  0
M  CHG  1   3   1
M  END
>  <UniqueID>  (48) 
47

>  <SMILES>  (48) 
CC[NH+](CC)CCN(Cc1ccc(-c2ccc(C(F)(F)F)cc2)o1)C(=O)Cn1c(=O)cnc2ccccc21

>  <Energy>  (48) 
110.13076703413927

>  <Genealogy>  (48) 
CC[NH+](CC)CCN(Cc1ccc(-c2ccc(C(F)(F)F)cc2)o1)C(=O)Cn1c(=O)cnc2ccccc21 (protonated)
CC[NH+](CC)CCN(Cc1ccc(-c2ccc(C(F)(F)F)cc2)o1)C(=O)Cn1c(=O)cnc2ccccc21 (3D coordinates assigned)
CC[NH+](CC)CCN(Cc1ccc(-c2ccc(C(F)(F)F)cc2)o1)C(=O)Cn1c(=O)cnc2ccccc21 (optimized conformer: 110.13076703413927 kcal/mol)

>  <smiles>  (48) 
CCN(CC)CCN(Cc1ccc(-c2ccc(C(F)(F)F)cc2)o1)C(=O)Cn1c(=O)cnc2ccccc21

>  <score_type>  (48) 
oracle

>  <origin>  (48) 
adg

>  <m_score__min__energy>  (48) 
-8.6300000000000008

>  <m_primary>  (48) 
energy

$$$$
48:0
     RDKit          3D

 57 61  0  0  0  0  0  0  0  0999 V2000
   -1.7260   20.5910  -30.1320 C   0  0  0  0  0  0  0  0  0  0  0  0
   -2.5870   21.3910  -31.0010 N   0  0  0  0  0  0  0  0  0  0  0  0
   -3.5070   22.3090  -30.6400 C   0  0  0  0  0  0  0  0  0  0  0  0
   -3.9110   22.7650  -28.9470 S   0  0  0  0  0  0  0  0  0  0  0  0
   -4.2270   24.5280  -29.3200 C   0  0  0  0  0  0  0  0  0  0  0  0
   -5.7220   24.8040  -29.5000 C   0  0  0  0  0  0  0  0  0  0  0  0
   -6.1350   24.7560  -30.9780 C   0  0  0  0  0  0  0  0  0  0  0  0
   -7.3140   23.8930  -31.1850 N   0  0  0  0  0  0  0  0  0  0  0  0
   -7.5660   23.0410  -30.0110 C   0  0  0  0  0  0  0  0  0  0  0  0
   -8.0280   21.6760  -30.4960 C   0  0  1  0  0  0  0  0  0  0  0  0
   -9.2130   21.6470  -31.4540 C   0  0  0  0  0  0  0  0  0  0  0  0
   -7.7840   21.6600  -31.9860 C   0  0  2  0  0  0  0  0  0  0  0  0
   -7.1960   20.3830  -32.5220 C   0  0  0  0  0  0  0  0  0  0  0  0
   -7.7550   19.1470  -32.1660 C   0  0  0  0  0  0  0  0  0  0  0  0
   -7.2320   17.9600  -32.6910 C   0  0  0  0  0  0  0  0  0  0  0  0
   -6.1380   17.9920  -33.5760 C   0  0  0  0  0  0  0  0  0  0  0  0
   -5.6020   16.7130  -34.1720 C   0  0  0  0  0  0  0  0  0  0  0  0
   -4.7940   16.9790  -35.2610 F   0  0  0  0  0  0  0  0  0  0  0  0
   -4.8520   16.0200  -33.2330 F   0  0  0  0  0  0  0  0  0  0  0  0
   -6.6600   15.9230  -34.5820 F   0  0  0  0  0  0  0  0  0  0  0  0
   -5.6150   19.2360  -33.9690 C   0  0  0  0  0  0  0  0  0  0  0  0
   -6.1370   20.4210  -33.4440 C   0  0  0  0  0  0  0  0  0  0  0  0
   -7.1650   23.0000  -32.3450 C   0  0  0  0  0  0  0  0  0  0  0  0
   -4.1210   22.8460  -31.7100 N   0  0  0  0  0  0  0  0  0  0  0  0
   -3.6010   22.2640  -32.7840 N   0  0  0  0  0  0  0  0  0  0  0  0
   -2.6640   21.3940  -32.3530 C   0  0  0  0  0  0  0  0  0  0  0  0
   -1.9240   20.4980  -33.2640 C   0  0  0  0  0  0  0  0  0  0  0  0
   -2.3200   19.1560  -33.3850 C   0  0  0  0  0  0  0  0  0  0  0  0
   -1.6100   18.2800  -34.2090 C   0  0  0  0  0  0  0  0  0  0  0  0
   -0.5100   18.7420  -34.9360 C   0  0  0  0  0  0  0  0  0  0  0  0
   -0.1260   20.0840  -34.8480 C   0  0  0  0  0  0  0  0  0  0  0  0
   -0.8320   20.9610  -34.0210 C   0  0  0  0  0  0  0  0  0  0  0  0
   -1.9617   20.8100  -29.0801 H   0  0  0  0  0  0  0  0  0  0  0  0
   -1.8955   19.5225  -30.3310 H   0  0  0  0  0  0  0  0  0  0  0  0
   -0.6728   20.8384  -30.3310 H   0  0  0  0  0  0  0  0  0  0  0  0
   -3.8474   25.1425  -28.4904 H   0  0  0  0  0  0  0  0  0  0  0  0
   -3.7139   24.7793  -30.2600 H   0  0  0  0  0  0  0  0  0  0  0  0
   -6.2938   24.0454  -28.9454 H   0  0  0  0  0  0  0  0  0  0  0  0
   -5.9324   25.8139  -29.1180 H   0  0  0  0  0  0  0  0  0  0  0  0
   -6.3752   25.7753  -31.3148 H   0  0  0  0  0  0  0  0  0  0  0  0
   -5.2973   24.3384  -31.5558 H   0  0  0  0  0  0  0  0  0  0  0  0
   -6.6411   22.9332  -29.4253 H   0  0  0  0  0  0  0  0  0  0  0  0
   -8.3386   23.4960  -29.3738 H   0  0  0  0  0  0  0  0  0  0  0  0
   -7.8123   21.0758  -29.5998 H   0  0  0  0  0  0  0  0  0  0  0  0
   -9.8272   20.7389  -31.5445 H   0  0  0  0  0  0  0  0  0  0  0  0
  -10.1095   22.2657  -31.6070 H   0  0  0  0  0  0  0  0  0  0  0  0
   -8.6074   19.1105  -31.4717 H   0  0  0  0  0  0  0  0  0  0  0  0
   -7.6791   16.9950  -32.4100 H   0  0  0  0  0  0  0  0  0  0  0  0
   -4.7893   19.2770  -34.6947 H   0  0  0  0  0  0  0  0  0  0  0  0
   -5.7164   21.3888  -33.7544 H   0  0  0  0  0  0  0  0  0  0  0  0
   -6.0986   22.8679  -32.5803 H   0  0  0  0  0  0  0  0  0  0  0  0
   -7.6654   23.4293  -33.2255 H   0  0  0  0  0  0  0  0  0  0  0  0
   -3.1954   18.7924  -32.8269 H   0  0  0  0  0  0  0  0  0  0  0  0
   -1.9168   17.2264  -34.2856 H   0  0  0  0  0  0  0  0  0  0  0  0
    0.0545   18.0498  -35.5781 H   0  0  0  0  0  0  0  0  0  0  0  0
    0.7327   20.4492  -35.4305 H   0  0  0  0  0  0  0  0  0  0  0  0
   -0.5330   22.0179  -33.9613 H   0  0  0  0  0  0  0  0  0  0  0  0
  1  2  1  0
  2  3  1  0
  3  4  1  0
  4  5  1  0
  5  6  1  0
  6  7  1  0
  7  8  1  0
  8  9  1  0
  9 10  1  0
 10 11  1  0
 11 12  1  0
 12 13  1  1
 13 14  2  0
 14 15  1  0
 15 16  2  0
 16 17  1  0
 17 18  1  0
 17 19  1  0
 17 20  1  0
 16 21  1  0
 21 22  2  0
 12 23  1  0
  3 24  2  0
 24 25  1  0
 25 26  2  0
 26 27  1  0
 27 28  2  0
 28 29  1  0
 29 30  2  0
 30 31  1  0
 31 32  2  0
 26  2  1  0
 32 27  1  0
 23  8  1  0
 12 10  1  0
 22 13  1  0
  1 33  1  0
  1 34  1  0
  1 35  1  0
  5 36  1  0
  5 37  1  0
  6 38  1  0
  6 39  1  0
  7 40  1  0
  7 41  1  0
  9 42  1  0
  9 43  1  0
 10 44  1  1
 11 45  1  0
 11 46  1  0
 14 47  1  0
 15 48  1  0
 21 49  1  0
 22 50  1  0
 23 51  1  0
 23 52  1  0
 28 53  1  0
 29 54  1  0
 30 55  1  0
 31 56  1  0
 32 57  1  0
M  END
>  <UniqueID>  (49) 
48

>  <SMILES>  (49) 
Cn1c(SCCCN2C[C@H]3C[C@@]3(c3ccc(C(F)(F)F)cc3)C2)nnc1-c1ccccc1

>  <Energy>  (49) 
365.7324153947153

>  <Genealogy>  (49) 
Cn1c(SCCCN2C[C@H]3C[C@@]3(c3ccc(C(F)(F)F)cc3)C2)nnc1-c1ccccc1 (chirality)
Cn1c(SCCCN2C[C@H]3C[C@@]3(c3ccc(C(F)(F)F)cc3)C2)nnc1-c1ccccc1 (3D coordinates assigned)
Cn1c(SCCCN2C[C@H]3C[C@@]3(c3ccc(C(F)(F)F)cc3)C2)nnc1-c1ccccc1 (nonaromatic ring conformer: 365.7324153947153 kcal/mol)

>  <smiles>  (49) 
Cn1c(SCCCN2CC3CC3(c3ccc(C(F)(F)F)cc3)C2)nnc1-c1ccccc1

>  <score_type>  (49) 
oracle

>  <origin>  (49) 
adg

>  <m_score__min__energy>  (49) 
-10.19

>  <m_primary>  (49) 
energy

$$$$
