0:0
     RDKit          3D

 37 39  0  0  0  0  0  0  0  0999 V2000
   -5.3850   25.5100  -30.6400 C   0  0  0  0  0  0  0  0  0  0  0  0
   -4.2490   24.6930  -30.9050 O   0  0  0  0  0  0  0  0  0  0  0  0
   -3.7520   23.7100  -30.0350 C   0  0  0  0  0  0  0  0  0  0  0  0
   -3.7270   23.9100  -28.6390 C   0  0  0  0  0  0  0  0  0  0  0  0
   -3.2410   22.9160  -27.7890 C   0  0  0  0  0  0  0  0  0  0  0  0
   -2.7850   21.7090  -28.3140 C   0  0  0  0  0  0  0  0  0  0  0  0
   -2.8040   21.4910  -29.6930 C   0  0  0  0  0  0  0  0  0  0  0  0
   -3.2680   22.4920  -30.5710 C   0  0  0  0  0  0  0  0  0  0  0  0
   -3.3130   22.2290  -32.0670 C   0  0  0  0  0  0  0  0  0  0  0  0
   -4.4750   22.8730  -32.7110 N   0  0  0  0  0  0  0  0  0  0  0  0
   -5.6640   22.0810  -32.4950 C   0  0  0  0  0  0  0  0  0  0  0  0
   -6.8600   22.6880  -32.0770 C   0  0  0  0  0  0  0  0  0  0  0  0
   -7.9680   21.9330  -31.8500 N   0  0  0  0  0  0  0  0  0  0  0  0
   -7.9620   20.5800  -32.0020 C   0  0  0  0  0  0  0  0  0  0  0  0
   -9.1270   19.8390  -31.7670 C   0  0  0  0  0  0  0  0  0  0  0  0
   -9.1110   18.4460  -31.9060 C   0  0  0  0  0  0  0  0  0  0  0  0
   -7.9290   17.7880  -32.2630 C   0  0  0  0  0  0  0  0  0  0  0  0
   -6.7610   18.5200  -32.5060 C   0  0  0  0  0  0  0  0  0  0  0  0
   -6.7750   19.9190  -32.3870 C   0  0  0  0  0  0  0  0  0  0  0  0
   -5.6280   20.6830  -32.6390 C   0  0  0  0  0  0  0  0  0  0  0  0
   -5.5208   25.6077  -29.5528 H   0  0  0  0  0  0  0  0  0  0  0  0
   -5.2314   26.5058  -31.0813 H   0  0  0  0  0  0  0  0  0  0  0  0
   -6.2802   25.0475  -31.0813 H   0  0  0  0  0  0  0  0  0  0  0  0
   -4.0936   24.8573  -28.2170 H   0  0  0  0  0  0  0  0  0  0  0  0
   -3.2179   23.0858  -26.7024 H   0  0  0  0  0  0  0  0  0  0  0  0
   -2.4088   20.9252  -27.6401 H   0  0  0  0  0  0  0  0  0  0  0  0
   -2.4540   20.5300  -30.0980 H   0  0  0  0  0  0  0  0  0  0  0  0
   -2.3923   22.6212  -32.5236 H   0  0  0  0  0  0  0  0  0  0  0  0
   -3.4025   21.1429  -32.2167 H   0  0  0  0  0  0  0  0  0  0  0  0
   -4.3140   22.9490  -33.7450 H   0  0  0  0  0  0  0  0  0  0  0  0
   -4.6140   23.8400  -32.3300 H   0  0  0  0  0  0  0  0  0  0  0  0
   -6.9003   23.7778  -31.9328 H   0  0  0  0  0  0  0  0  0  0  0  0
  -10.0548   20.3516  -31.4731 H   0  0  0  0  0  0  0  0  0  0  0  0
  -10.0304   17.8671  -31.7340 H   0  0  0  0  0  0  0  0  0  0  0  0
   -7.9176   16.6917  -32.3530 H   0  0  0  0  0  0  0  0  0  0  0  0
   -5.8339   18.0003  -32.7896 H   0  0  0  0  0  0  0  0  0  0  0  0
   -4.6966   20.1876  -32.9504 H   0  0  0  0  0  0  0  0  0  0  0  0
  1  2  1  0
  2  3  1  0
  3  4  2  0
  4  5  1  0
  5  6  2  0
  6  7  1  0
  7  8  2  0
  8  9  1  0
  9 10  1  0
 10 11  1  0
 11 12  2  0
 12 13  1  0
 13 14  2  0
 14 15  1  0
 15 16  2  0
 16 17  1  0
 17 18  2  0
 18 19  1  0
 19 20  2  0
  8  3  1  0
 20 11  1  0
 19 14  1  0
  1 21  1  0
  1 22  1  0
  1 23  1  0
  4 24  1  0
  5 25  1  0
  6 26  1  0
  7 27  1  0
  9 28  1  0
  9 29  1  0
 10 30  1  0
 10 31  1  0
 12 32  1  0
 15 33  1  0
 16 34  1  0
 17 35  1  0
 18 36  1  0
 20 37  1  0
M  CHG  1  10   1
M  END
>  <UniqueID>  (1) 
1

>  <SMILES>  (1) 
COc1ccccc1C[NH2+]c1cnc2ccccc2c1

>  <Energy>  (1) 
45.843776506102664

>  <Genealogy>  (1) 
COc1ccccc1C[NH2+]c1cnc2ccccc2c1 (protonated)
COc1ccccc1C[NH2+]c1cnc2ccccc2c1 (3D coordinates assigned)
COc1ccccc1C[NH2+]c1cnc2ccccc2c1 (optimized conformer: 45.843776506102664 kcal/mol)

>  <smiles>  (1) 
COc1ccccc1CNc1cnc2ccccc2c1

>  <score_type>  (1) 
oracle

>  <origin>  (1) 
adg

>  <m_score__min__energy>  (1) 
-6.9900000000000002

>  <m_primary>  (1) 
energy

$$$$
1:0
     RDKit          3D

 39 41  0  0  0  0  0  0  0  0999 V2000
   -2.5910   22.7180  -27.8400 C   0  0  0  0  0  0  0  0  0  0  0  0
   -3.0550   24.0340  -27.3720 N   0  0  0  0  0  0  0  0  0  0  0  0
   -2.0260   25.0970  -27.4040 C   0  0  0  0  0  0  0  0  0  0  0  0
   -1.2890   25.2810  -26.0980 C   0  0  0  0  0  0  0  0  0  0  0  0
   -0.2470   24.4100  -25.7450 C   0  0  0  0  0  0  0  0  0  0  0  0
    0.4370   24.6020  -24.5420 C   0  0  0  0  0  0  0  0  0  0  0  0
    0.0950   25.6270  -23.7170 N   0  0  0  0  0  0  0  0  0  0  0  0
   -0.8970   26.4990  -24.0440 C   0  0  0  0  0  0  0  0  0  0  0  0
   -1.5970   26.3500  -25.2440 C   0  0  0  0  0  0  0  0  0  0  0  0
   -4.4090   24.4270  -27.8280 C   0  0  0  0  0  0  0  0  0  0  0  0
   -4.7080   24.0560  -29.2590 C   0  0  0  0  0  0  0  0  0  0  0  0
   -4.7700   24.9210  -30.3300 C   0  0  0  0  0  0  0  0  0  0  0  0
   -5.0590   24.2100  -31.3920 O   0  0  0  0  0  0  0  0  0  0  0  0
   -5.1630   22.9570  -31.0070 C   0  0  0  0  0  0  0  0  0  0  0  0
   -5.4930   21.8440  -31.9190 C   0  0  0  0  0  0  0  0  0  0  0  0
   -4.4790   21.1640  -32.6160 C   0  0  0  0  0  0  0  0  0  0  0  0
   -4.7970   20.1020  -33.4670 C   0  0  0  0  0  0  0  0  0  0  0  0
   -6.1280   19.7110  -33.6330 C   0  0  0  0  0  0  0  0  0  0  0  0
   -6.4350   18.6810  -34.4590 F   0  0  0  0  0  0  0  0  0  0  0  0
   -7.1440   20.3860  -32.9490 C   0  0  0  0  0  0  0  0  0  0  0  0
   -6.8300   21.4480  -32.0960 C   0  0  0  0  0  0  0  0  0  0  0  0
   -4.9450   22.8010  -29.6830 N   0  0  0  0  0  0  0  0  0  0  0  0
   -2.3657   22.0791  -26.9733 H   0  0  0  0  0  0  0  0  0  0  0  0
   -3.3773   22.2470  -28.4482 H   0  0  0  0  0  0  0  0  0  0  0  0
   -1.6832   22.8443  -28.4482 H   0  0  0  0  0  0  0  0  0  0  0  0
   -1.2914   24.8435  -28.1825 H   0  0  0  0  0  0  0  0  0  0  0  0
   -2.5517   26.0416  -27.6076 H   0  0  0  0  0  0  0  0  0  0  0  0
    0.0299   23.5803  -26.4120 H   0  0  0  0  0  0  0  0  0  0  0  0
    1.2547   23.9218  -24.2615 H   0  0  0  0  0  0  0  0  0  0  0  0
    0.6080   25.7520  -22.8160 H   0  0  0  0  0  0  0  0  0  0  0  0
   -1.1487   27.3240  -23.3614 H   0  0  0  0  0  0  0  0  0  0  0  0
   -2.3851   27.0670  -25.5174 H   0  0  0  0  0  0  0  0  0  0  0  0
   -5.1486   23.9325  -27.1811 H   0  0  0  0  0  0  0  0  0  0  0  0
   -4.4583   25.5242  -27.7676 H   0  0  0  0  0  0  0  0  0  0  0  0
   -4.6069   26.0084  -30.2990 H   0  0  0  0  0  0  0  0  0  0  0  0
   -3.4297   21.4695  -32.4909 H   0  0  0  0  0  0  0  0  0  0  0  0
   -3.9979   19.5730  -34.0071 H   0  0  0  0  0  0  0  0  0  0  0  0
   -8.1923   20.0806  -33.0825 H   0  0  0  0  0  0  0  0  0  0  0  0
   -7.6329   21.9762  -31.5608 H   0  0  0  0  0  0  0  0  0  0  0  0
  1  2  1  0
  2  3  1  0
  3  4  1  0
  4  5  2  0
  5  6  1  0
  6  7  2  0
  7  8  1  0
  8  9  2  0
  2 10  1  0
 10 11  1  0
 11 12  2  0
 12 13  1  0
 13 14  1  0
 14 15  1  0
 15 16  2  0
 16 17  1  0
 17 18  2  0
 18 19  1  0
 18 20  1  0
 20 21  2  0
 14 22  2  0
  9  4  1  0
 22 11  1  0
 21 15  1  0
  1 23  1  0
  1 24  1  0
  1 25  1  0
  3 26  1  0
  3 27  1  0
  5 28  1  0
  6 29  1  0
  7 30  1  0
  8 31  1  0
  9 32  1  0
 10 33  1  0
 10 34  1  0
 12 35  1  0
 16 36  1  0
 17 37  1  0
 20 38  1  0
 21 39  1  0
M  CHG  1   7   1
M  END
>  <UniqueID>  (2) 
2

>  <SMILES>  (2) 
CN(Cc1cc[nH+]cc1)Cc1coc(-c2ccc(F)cc2)n1

>  <Energy>  (2) 
75.94398513704697

>  <Genealogy>  (2) 
CN(Cc1cc[nH+]cc1)Cc1coc(-c2ccc(F)cc2)n1 (protonated)
CN(Cc1cc[nH+]cc1)Cc1coc(-c2ccc(F)cc2)n1 (3D coordinates assigned)
CN(Cc1cc[nH+]cc1)Cc1coc(-c2ccc(F)cc2)n1 (optimized conformer: 75.94398513704697 kcal/mol)

>  <smiles>  (2) 
CN(Cc1ccncc1)Cc1coc(-c2ccc(F)cc2)n1

>  <score_type>  (2) 
oracle

>  <origin>  (2) 
adg

>  <m_score__min__energy>  (2) 
-7.2199999999999998

>  <m_primary>  (2) 
energy

$$$$
2:0
     RDKit          3D

 40 42  0  0  0  0  0  0  0  0999 V2000
   -7.1360   23.8270  -30.7220 C   0  0  0  0  0  0  0  0  0  0  0  0
   -6.9810   22.6690  -31.3910 C   0  0  0  0  0  0  0  0  0  0  0  0
   -8.1500   22.0100  -31.8170 C   0  0  0  0  0  0  0  0  0  0  0  0
   -8.1150   20.6960  -32.3010 C   0  0  0  0  0  0  0  0  0  0  0  0
   -9.4030   20.0290  -32.7120 C   0  0  0  0  0  0  0  0  0  0  0  0
   -6.8910   19.9980  -32.3160 C   0  0  0  0  0  0  0  0  0  0  0  0
   -6.8120   18.5640  -32.7730 C   0  0  0  0  0  0  0  0  0  0  0  0
   -5.7120   20.6690  -31.9640 C   0  0  0  0  0  0  0  0  0  0  0  0
   -5.7160   22.0260  -31.5770 C   0  0  0  0  0  0  0  0  0  0  0  0
   -4.5040   22.6230  -31.4310 C   0  0  0  0  0  0  0  0  0  0  0  0
   -3.7590   22.7860  -30.1700 C   0  0  0  0  0  0  0  0  0  0  0  0
   -3.1500   21.5100  -29.2590 S   0  0  0  0  0  0  0  0  0  0  0  0
   -2.3990   22.5190  -28.1450 C   0  0  0  0  0  0  0  0  0  0  0  0
   -1.5010   21.9660  -26.8890 S   0  0  0  0  0  0  0  0  0  0  0  0
   -2.5670   23.8300  -28.4660 N   0  0  0  0  0  0  0  0  0  0  0  0
   -2.0000   24.9230  -27.7250 C   0  0  0  0  0  0  0  0  0  0  0  0
   -2.4490   25.2040  -26.4250 C   0  0  0  0  0  0  0  0  0  0  0  0
   -1.8990   26.2700  -25.7070 C   0  0  0  0  0  0  0  0  0  0  0  0
   -0.9000   27.0610  -26.2840 C   0  0  0  0  0  0  0  0  0  0  0  0
   -0.4520   26.7870  -27.5800 C   0  0  0  0  0  0  0  0  0  0  0  0
   -1.0000   25.7220  -28.3000 C   0  0  0  0  0  0  0  0  0  0  0  0
   -3.3130   23.9810  -29.6020 C   0  0  0  0  0  0  0  0  0  0  0  0
   -3.6050   25.2260  -30.1630 O   0  0  0  0  0  0  0  0  0  0  0  0
   -6.2535   24.3801  -30.3680 H   0  0  0  0  0  0  0  0  0  0  0  0
   -8.1452   24.2201  -30.5294 H   0  0  0  0  0  0  0  0  0  0  0  0
   -9.1131   22.5393  -31.7686 H   0  0  0  0  0  0  0  0  0  0  0  0
   -9.9673   19.7368  -31.8142 H   0  0  0  0  0  0  0  0  0  0  0  0
  -10.0037   20.7293  -33.3109 H   0  0  0  0  0  0  0  0  0  0  0  0
   -9.1777   19.1342  -33.3109 H   0  0  0  0  0  0  0  0  0  0  0  0
   -6.7755   17.9011  -31.8959 H   0  0  0  0  0  0  0  0  0  0  0  0
   -7.6982   18.3227  -33.3783 H   0  0  0  0  0  0  0  0  0  0  0  0
   -5.9046   18.4215  -33.3783 H   0  0  0  0  0  0  0  0  0  0  0  0
   -4.7575   20.1229  -31.9901 H   0  0  0  0  0  0  0  0  0  0  0  0
   -4.0339   23.0230  -32.3415 H   0  0  0  0  0  0  0  0  0  0  0  0
   -3.2355   24.5839  -25.9702 H   0  0  0  0  0  0  0  0  0  0  0  0
   -2.2520   26.4868  -24.6880 H   0  0  0  0  0  0  0  0  0  0  0  0
   -0.4667   27.8988  -25.7181 H   0  0  0  0  0  0  0  0  0  0  0  0
    0.3327   27.4105  -28.0333 H   0  0  0  0  0  0  0  0  0  0  0  0
   -0.6466   25.5096  -29.3198 H   0  0  0  0  0  0  0  0  0  0  0  0
   -2.9970   25.6720  -30.8360 H   0  0  0  0  0  0  0  0  0  0  0  0
  1  2  2  0
  2  3  1  0
  3  4  2  0
  4  5  1  0
  4  6  1  0
  6  7  1  0
  6  8  2  0
  8  9  1  0
  9 10  2  3
 10 11  1  0
 11 12  1  0
 12 13  1  0
 13 14  2  0
 13 15  1  0
 15 16  1  0
 16 17  2  0
 17 18  1  0
 18 19  2  0
 19 20  1  0
 20 21  2  0
 15 22  1  0
 22 23  1  0
  9  2  1  0
 22 11  2  0
 21 16  1  0
  1 24  1  0
  1 25  1  0
  3 26  1  0
  5 27  1  0
  5 28  1  0
  5 29  1  0
  7 30  1  0
  7 31  1  0
  7 32  1  0
  8 33  1  0
 10 34  1  0
 17 35  1  0
 18 36  1  0
 19 37  1  0
 20 38  1  0
 21 39  1  0
 23 40  1  0
M  END
>  <UniqueID>  (3) 
3

>  <SMILES>  (3) 
C=c1cc(C)c(C)cc1=Cc1sc(=S)n(-c2ccccc2)c1O

>  <Energy>  (3) 
102.03039654961478

>  <Genealogy>  (3) 
C=c1cc(C)c(C)cc1=Cc1sc(=S)n(-c2ccccc2)c1O (3D coordinates assigned)
C=c1cc(C)c(C)cc1=Cc1sc(=S)n(-c2ccccc2)c1O (optimized conformer: 102.03039654961478 kcal/mol)

>  <smiles>  (3) 
C=c1cc(C)c(C)cc1=Cc1sc(=S)n(-c2ccccc2)c1O

>  <score_type>  (3) 
oracle

>  <origin>  (3) 
adg

>  <m_score__min__energy>  (3) 
-9.8100000000000005

>  <m_primary>  (3) 
energy

$$$$
3:0
     RDKit          3D

 39 42  0  0  0  0  0  0  0  0999 V2000
   -0.8080   26.8370  -26.9100 C   0  0  0  0  0  0  0  0  0  0  0  0
   -0.8440   25.6110  -27.7670 C   0  0  0  0  0  0  0  0  0  0  0  0
   -1.9990   25.2880  -28.4910 C   0  0  0  0  0  0  0  0  0  0  0  0
   -2.0180   24.1400  -29.3020 C   0  0  0  0  0  0  0  0  0  0  0  0
   -3.2450   23.7920  -30.0630 C   0  0  0  0  0  0  0  0  0  0  0  0
   -3.4620   22.4930  -30.5600 C   0  0  0  0  0  0  0  0  0  0  0  0
   -4.6340   22.2090  -31.2750 C   0  0  0  0  0  0  0  0  0  0  0  0
   -4.8660   20.9550  -31.7640 N   0  0  0  0  0  0  0  0  0  0  0  0
   -6.0010   20.6560  -32.4680 C   0  0  0  0  0  0  0  0  0  0  0  0
   -6.2250   19.2790  -32.9750 C   0  0  0  0  0  0  0  0  0  0  0  0
   -7.0180   18.3670  -32.2530 C   0  0  0  0  0  0  0  0  0  0  0  0
   -7.2270   17.0720  -32.7370 C   0  0  0  0  0  0  0  0  0  0  0  0
   -6.6460   16.6720  -33.9430 C   0  0  0  0  0  0  0  0  0  0  0  0
   -5.8560   17.5670  -34.6680 C   0  0  0  0  0  0  0  0  0  0  0  0
   -5.6450   18.8640  -34.1890 C   0  0  0  0  0  0  0  0  0  0  0  0
   -6.9560   21.6610  -32.7000 C   0  0  0  0  0  0  0  0  0  0  0  0
   -6.7410   22.9490  -32.2120 C   0  0  0  0  0  0  0  0  0  0  0  0
   -5.5750   23.2340  -31.4950 C   0  0  0  0  0  0  0  0  0  0  0  0
   -5.3190   24.5160  -30.9960 C   0  0  0  0  0  0  0  0  0  0  0  0
   -4.1760   24.7580  -30.3040 N   0  0  0  0  0  0  0  0  0  0  0  0
   -0.8690   23.3300  -29.3500 C   0  0  0  0  0  0  0  0  0  0  0  0
    0.2620   23.6870  -28.6120 C   0  0  0  0  0  0  0  0  0  0  0  0
    0.2510   24.8080  -27.8460 N   0  0  0  0  0  0  0  0  0  0  0  0
   -0.8166   26.5437  -25.8499 H   0  0  0  0  0  0  0  0  0  0  0  0
    0.1073   27.4079  -27.1251 H   0  0  0  0  0  0  0  0  0  0  0  0
   -1.6882   27.4607  -27.1251 H   0  0  0  0  0  0  0  0  0  0  0  0
   -2.8889   25.9312  -28.4250 H   0  0  0  0  0  0  0  0  0  0  0  0
   -2.7151   21.7040  -30.3881 H   0  0  0  0  0  0  0  0  0  0  0  0
   -4.1470   20.2110  -31.6110 H   0  0  0  0  0  0  0  0  0  0  0  0
   -7.4763   18.6753  -31.3017 H   0  0  0  0  0  0  0  0  0  0  0  0
   -7.8500   16.3668  -32.1672 H   0  0  0  0  0  0  0  0  0  0  0  0
   -6.8107   15.6524  -34.3215 H   0  0  0  0  0  0  0  0  0  0  0  0
   -5.3989   17.2512  -35.6174 H   0  0  0  0  0  0  0  0  0  0  0  0
   -5.0219   19.5644  -34.7645 H   0  0  0  0  0  0  0  0  0  0  0  0
   -7.8712   21.4316  -33.2655 H   0  0  0  0  0  0  0  0  0  0  0  0
   -7.4861   23.7383  -32.3904 H   0  0  0  0  0  0  0  0  0  0  0  0
   -6.0430   25.3269  -31.1641 H   0  0  0  0  0  0  0  0  0  0  0  0
   -0.8611   22.4189  -29.9663 H   0  0  0  0  0  0  0  0  0  0  0  0
    1.1638   23.0584  -28.6515 H   0  0  0  0  0  0  0  0  0  0  0  0
  1  2  1  0
  2  3  2  0
  3  4  1  0
  4  5  1  0
  5  6  2  0
  6  7  1  0
  7  8  2  0
  8  9  1  0
  9 10  1  0
 10 11  2  0
 11 12  1  0
 12 13  2  0
 13 14  1  0
 14 15  2  0
  9 16  2  0
 16 17  1  0
 17 18  2  0
 18 19  1  0
 19 20  2  0
  4 21  2  0
 21 22  1  0
 22 23  2  0
 23  2  1  0
 20  5  1  0
 18  7  1  0
 15 10  1  0
  1 24  1  0
  1 25  1  0
  1 26  1  0
  3 27  1  0
  6 28  1  0
  8 29  1  0
 11 30  1  0
 12 31  1  0
 13 32  1  0
 14 33  1  0
 15 34  1  0
 16 35  1  0
 17 36  1  0
 19 37  1  0
 21 38  1  0
 22 39  1  0
M  CHG  1   8   1
M  END
>  <UniqueID>  (4) 
4

>  <SMILES>  (4) 
Cc1cc(-c2cc3[nH+]c(-c4ccccc4)ccc3cn2)ccn1

>  <Energy>  (4) 
56.2562265722284

>  <Genealogy>  (4) 
Cc1cc(-c2cc3[nH+]c(-c4ccccc4)ccc3cn2)ccn1 (protonated)
Cc1cc(-c2cc3[nH+]c(-c4ccccc4)ccc3cn2)ccn1 (3D coordinates assigned)
Cc1cc(-c2cc3[nH+]c(-c4ccccc4)ccc3cn2)ccn1 (optimized conformer: 56.2562265722284 kcal/mol)

>  <smiles>  (4) 
Cc1cc(-c2cc3nc(-c4ccccc4)ccc3cn2)ccn1

>  <score_type>  (4) 
oracle

>  <origin>  (4) 
adg

>  <m_score__min__energy>  (4) 
-8.1899999999999995

>  <m_primary>  (4) 
energy

$$$$
4:0
     RDKit          3D

 48 51  0  0  0  0  0  0  0  0999 V2000
   -1.5390   19.2490  -27.1880 C   0  0  0  0  0  0  0  0  0  0  0  0
   -1.9400   20.3770  -28.0920 C   0  0  0  0  0  0  0  0  0  0  0  0
   -2.9250   21.2860  -27.6880 C   0  0  0  0  0  0  0  0  0  0  0  0
   -3.3260   22.3170  -28.5410 C   0  0  0  0  0  0  0  0  0  0  0  0
   -2.7500   22.4540  -29.8160 C   0  0  0  0  0  0  0  0  0  0  0  0
   -3.1680   23.4930  -30.7150 N   0  0  0  0  0  0  0  0  0  0  0  0
   -4.1900   24.4680  -30.4750 C   0  0  0  0  0  0  0  0  0  0  0  0
   -4.0400   25.6660  -30.8330 O   0  0  0  0  0  0  0  0  0  0  0  0
   -5.4530   24.0530  -29.7970 C   0  0  0  0  0  0  0  0  0  0  0  0
   -6.8500   24.2810  -30.9420 S   0  0  0  0  0  0  0  0  0  0  0  0
   -6.6220   22.6790  -31.7230 C   0  0  0  0  0  0  0  0  0  0  0  0
   -5.3740   22.2810  -32.1080 N   0  0  0  0  0  0  0  0  0  0  0  0
   -5.1590   21.0670  -32.7030 C   0  0  0  0  0  0  0  0  0  0  0  0
   -3.8650   20.6800  -33.0870 C   0  0  0  0  0  0  0  0  0  0  0  0
   -3.6510   19.4380  -33.6910 C   0  0  0  0  0  0  0  0  0  0  0  0
   -4.7240   18.5710  -33.9170 C   0  0  0  0  0  0  0  0  0  0  0  0
   -6.0200   18.9400  -33.5430 C   0  0  0  0  0  0  0  0  0  0  0  0
   -6.2480   20.1860  -32.9340 C   0  0  0  0  0  0  0  0  0  0  0  0
   -7.5260   20.6050  -32.5390 C   0  0  0  0  0  0  0  0  0  0  0  0
   -7.7090   21.8270  -31.9460 C   0  0  0  0  0  0  0  0  0  0  0  0
   -9.1310   22.0790  -31.6060 C   0  0  0  0  0  0  0  0  0  0  0  0
   -9.8640   20.8160  -32.0910 C   0  0  0  0  0  0  0  0  0  0  0  0
   -8.8060   19.8640  -32.6770 C   0  0  0  0  0  0  0  0  0  0  0  0
   -1.7930   21.5110  -30.2460 C   0  0  0  0  0  0  0  0  0  0  0  0
   -1.1920   21.6090  -31.6210 C   0  0  0  0  0  0  0  0  0  0  0  0
   -1.3920   20.4810  -29.3780 C   0  0  0  0  0  0  0  0  0  0  0  0
   -1.6503   19.5622  -26.1394 H   0  0  0  0  0  0  0  0  0  0  0  0
   -2.1826   18.3780  -27.3809 H   0  0  0  0  0  0  0  0  0  0  0  0
   -0.4901   18.9797  -27.3809 H   0  0  0  0  0  0  0  0  0  0  0  0
   -3.3855   21.1879  -26.6939 H   0  0  0  0  0  0  0  0  0  0  0  0
   -4.0988   23.0275  -28.2123 H   0  0  0  0  0  0  0  0  0  0  0  0
   -5.3841   22.9942  -29.5070 H   0  0  0  0  0  0  0  0  0  0  0  0
   -5.6085   24.6668  -28.8975 H   0  0  0  0  0  0  0  0  0  0  0  0
   -4.5680   22.9260  -31.9390 H   0  0  0  0  0  0  0  0  0  0  0  0
   -3.0161   21.3573  -32.9117 H   0  0  0  0  0  0  0  0  0  0  0  0
   -2.6346   19.1416  -33.9896 H   0  0  0  0  0  0  0  0  0  0  0  0
   -4.5481   17.5941  -34.3911 H   0  0  0  0  0  0  0  0  0  0  0  0
   -6.8611   18.2550  -33.7255 H   0  0  0  0  0  0  0  0  0  0  0  0
   -9.2555   22.2100  -30.5209 H   0  0  0  0  0  0  0  0  0  0  0  0
   -9.5195   22.9968  -32.0715 H   0  0  0  0  0  0  0  0  0  0  0  0
  -10.3781   20.3326  -31.2471 H   0  0  0  0  0  0  0  0  0  0  0  0
  -10.6175   21.0726  -32.8502 H   0  0  0  0  0  0  0  0  0  0  0  0
   -8.7735   18.9218  -32.1102 H   0  0  0  0  0  0  0  0  0  0  0  0
   -9.0211   19.5889  -33.7201 H   0  0  0  0  0  0  0  0  0  0  0  0
   -0.1096   21.7855  -31.5363 H   0  0  0  0  0  0  0  0  0  0  0  0
   -1.3689   20.6702  -32.1662 H   0  0  0  0  0  0  0  0  0  0  0  0
   -1.6580   22.4430  -32.1662 H   0  0  0  0  0  0  0  0  0  0  0  0
   -0.6410   19.7495  -29.7109 H   0  0  0  0  0  0  0  0  0  0  0  0
  1  2  1  0
  2  3  2  0
  3  4  1  0
  4  5  2  0
  5  6  1  0
  6  7  1  0
  7  8  2  0
  7  9  1  0
  9 10  1  0
 10 11  1  0
 11 12  2  0
 12 13  1  0
 13 14  2  0
 14 15  1  0
 15 16  2  0
 16 17  1  0
 17 18  2  0
 18 19  1  0
 19 20  2  0
 20 21  1  0
 21 22  1  0
 22 23  1  0
  5 24  1  0
 24 25  1  0
 24 26  2  0
 26  2  1  0
 20 11  1  0
 18 13  1  0
 23 19  1  0
  1 27  1  0
  1 28  1  0
  1 29  1  0
  3 30  1  0
  4 31  1  0
  9 32  1  0
  9 33  1  0
 12 34  1  0
 14 35  1  0
 15 36  1  0
 16 37  1  0
 17 38  1  0
 21 39  1  0
 21 40  1  0
 22 41  1  0
 22 42  1  0
 23 43  1  0
 23 44  1  0
 25 45  1  0
 25 46  1  0
 25 47  1  0
 26 48  1  0
M  CHG  2   6  -1  12   1
M  END
>  <UniqueID>  (5) 
5

>  <SMILES>  (5) 
Cc1ccc([N-]C(=O)CSc2[nH+]c3ccccc3c3c2CCC3)c(C)c1

>  <Energy>  (5) 
59.30404204676198

>  <Genealogy>  (5) 
Cc1ccc([N-]C(=O)CSc2[nH+]c3ccccc3c3c2CCC3)c(C)c1 (protonated)
Cc1ccc([N-]C(=O)CSc2[nH+]c3ccccc3c3c2CCC3)c(C)c1 (3D coordinates assigned)
Cc1ccc([N-]C(=O)CSc2[nH+]c3ccccc3c3c2CCC3)c(C)c1 (nonaromatic ring conformer: 59.30404204676198 kcal/mol)

>  <smiles>  (5) 
Cc1ccc(NC(=O)CSc2nc3ccccc3c3c2CCC3)c(C)c1

>  <score_type>  (5) 
oracle

>  <origin>  (5) 
adg

>  <m_score__min__energy>  (5) 
-10.82

>  <m_primary>  (5) 
energy

$$$$
5:0
     RDKit          3D

 54 57  0  0  0  0  0  0  0  0999 V2000
   -1.9110   24.9380  -28.1390 C   0  0  0  0  0  0  0  0  0  0  0  0
   -2.6000   25.2980  -29.3320 O   0  0  0  0  0  0  0  0  0  0  0  0
   -3.7510   24.6500  -29.8050 C   0  0  0  0  0  0  0  0  0  0  0  0
   -4.8890   25.3540  -30.2400 C   0  0  0  0  0  0  0  0  0  0  0  0
   -6.0060   24.6650  -30.7190 C   0  0  0  0  0  0  0  0  0  0  0  0
   -6.0140   23.2590  -30.7610 C   0  0  0  0  0  0  0  0  0  0  0  0
   -7.1480   22.5420  -31.2940 N   0  0  0  0  0  0  0  0  0  0  0  0
   -7.2880   22.2750  -32.7260 C   0  0  0  0  0  0  0  0  0  0  0  0
   -7.1990   20.7660  -32.9660 C   0  0  0  0  0  0  0  0  0  0  0  0
   -7.9330   19.9720  -31.9490 N   0  0  0  0  0  0  0  0  0  0  0  0
   -7.1630   18.8590  -31.3520 C   0  0  0  0  0  0  0  0  0  0  0  0
   -6.9970   17.6400  -32.2810 C   0  0  0  0  0  0  0  0  0  0  0  0
   -6.8770   18.0670  -33.6820 N   0  0  0  0  0  0  0  0  0  0  0  0
   -6.0500   17.1410  -34.4710 C   0  0  0  0  0  0  0  0  0  0  0  0
   -4.5870   17.4610  -34.3710 C   0  0  0  0  0  0  0  0  0  0  0  0
   -3.5100   16.6580  -34.7440 C   0  0  0  0  0  0  0  0  0  0  0  0
   -2.3590   17.3460  -34.5580 N   0  0  0  0  0  0  0  0  0  0  0  0
   -2.6730   18.5430  -34.0930 N   0  0  0  0  0  0  0  0  0  0  0  0
   -1.8330   19.5610  -33.7830 C   0  0  0  0  0  0  0  0  0  0  0  0
   -2.4010   20.7560  -33.3180 C   0  0  0  0  0  0  0  0  0  0  0  0
   -3.8030   20.8410  -33.2000 C   0  0  0  0  0  0  0  0  0  0  0  0
   -4.5940   19.7780  -33.5310 N   0  0  0  0  0  0  0  0  0  0  0  0
   -4.0000   18.6420  -33.9720 C   0  0  0  0  0  0  0  0  0  0  0  0
   -8.8150   20.7160  -31.0200 C   0  0  0  0  0  0  0  0  0  0  0  0
   -8.1320   21.9440  -30.3870 C   0  0  0  0  0  0  0  0  0  0  0  0
   -4.8760   22.5610  -30.3220 C   0  0  0  0  0  0  0  0  0  0  0  0
   -3.7590   23.2520  -29.8470 C   0  0  0  0  0  0  0  0  0  0  0  0
   -2.5037   25.2477  -27.2656 H   0  0  0  0  0  0  0  0  0  0  0  0
   -1.7644   23.8481  -28.1149 H   0  0  0  0  0  0  0  0  0  0  0  0
   -0.9326   25.4401  -28.1149 H   0  0  0  0  0  0  0  0  0  0  0  0
   -4.8992   26.4533  -30.2027 H   0  0  0  0  0  0  0  0  0  0  0  0
   -6.8860   25.2264  -31.0660 H   0  0  0  0  0  0  0  0  0  0  0  0
   -8.2622   22.6467  -33.0763 H   0  0  0  0  0  0  0  0  0  0  0  0
   -6.4852   22.7857  -33.2781 H   0  0  0  0  0  0  0  0  0  0  0  0
   -7.6220   20.5432  -33.9567 H   0  0  0  0  0  0  0  0  0  0  0  0
   -6.1377   20.4846  -32.8995 H   0  0  0  0  0  0  0  0  0  0  0  0
   -6.1621   19.2327  -31.0900 H   0  0  0  0  0  0  0  0  0  0  0  0
   -7.7306   18.5148  -30.4749 H   0  0  0  0  0  0  0  0  0  0  0  0
   -6.0905   17.0874  -31.9931 H   0  0  0  0  0  0  0  0  0  0  0  0
   -7.8838   16.9967  -32.1821 H   0  0  0  0  0  0  0  0  0  0  0  0
   -6.4430   19.0200  -33.7110 H   0  0  0  0  0  0  0  0  0  0  0  0
   -6.2147   16.1176  -34.1028 H   0  0  0  0  0  0  0  0  0  0  0  0
   -6.3457   17.2396  -35.5259 H   0  0  0  0  0  0  0  0  0  0  0  0
   -3.5837   15.6298  -35.1280 H   0  0  0  0  0  0  0  0  0  0  0  0
   -1.3890   17.0080  -34.7550 H   0  0  0  0  0  0  0  0  0  0  0  0
   -0.7438   19.4534  -33.8924 H   0  0  0  0  0  0  0  0  0  0  0  0
   -1.7638   21.6117  -33.0502 H   0  0  0  0  0  0  0  0  0  0  0  0
   -4.2641   21.7718  -32.8381 H   0  0  0  0  0  0  0  0  0  0  0  0
   -9.7008   21.0566  -31.5762 H   0  0  0  0  0  0  0  0  0  0  0  0
   -9.0796   20.0308  -30.2012 H   0  0  0  0  0  0  0  0  0  0  0  0
   -8.8991   22.6950  -30.1473 H   0  0  0  0  0  0  0  0  0  0  0  0
   -7.6066   21.6149  -29.4783 H   0  0  0  0  0  0  0  0  0  0  0  0
   -4.8649   21.4615  -30.3527 H   0  0  0  0  0  0  0  0  0  0  0  0
   -2.8774   22.6915  -29.5027 H   0  0  0  0  0  0  0  0  0  0  0  0
  1  2  1  0
  2  3  1  0
  3  4  2  0
  4  5  1  0
  5  6  2  0
  6  7  1  0
  7  8  1  0
  8  9  1  0
  9 10  1  0
 10 11  1  0
 11 12  1  0
 12 13  1  0
 13 14  1  0
 14 15  1  0
 15 16  1  0
 16 17  2  0
 17 18  1  0
 18 19  1  0
 19 20  2  0
 20 21  1  0
 21 22  2  0
 22 23  1  0
 10 24  1  0
 24 25  1  0
  6 26  1  0
 26 27  2  0
 27  3  1  0
 25  7  1  0
 23 15  2  0
 23 18  1  0
  1 28  1  0
  1 29  1  0
  1 30  1  0
  4 31  1  0
  5 32  1  0
  8 33  1  0
  8 34  1  0
  9 35  1  0
  9 36  1  0
 11 37  1  0
 11 38  1  0
 12 39  1  0
 12 40  1  0
 13 41  1  0
 14 42  1  0
 14 43  1  0
 16 44  1  0
 17 45  1  0
 19 46  1  0
 20 47  1  0
 21 48  1  0
 24 49  1  0
 24 50  1  0
 25 51  1  0
 25 52  1  0
 26 53  1  0
 27 54  1  0
M  CHG  1  17   1
M  END
>  <UniqueID>  (6) 
6

>  <SMILES>  (6) 
COc1ccc(N2CCN(CCNCc3c[nH+]n4cccnc34)CC2)cc1

>  <Energy>  (6) 
106.01815553214826

>  <Genealogy>  (6) 
COc1ccc(N2CCN(CCNCc3c[nH+]n4cccnc34)CC2)cc1 (protonated)
COc1ccc(N2CCN(CCNCc3c[nH+]n4cccnc34)CC2)cc1 (3D coordinates assigned)
COc1ccc(N2CCN(CCNCc3c[nH+]n4cccnc34)CC2)cc1 (nonaromatic ring conformer: 106.01815553214826 kcal/mol)

>  <smiles>  (6) 
COc1ccc(N2CCN(CCNCc3cnn4cccnc34)CC2)cc1

>  <score_type>  (6) 
oracle

>  <origin>  (6) 
adg

>  <m_score__min__energy>  (6) 
-7.9900000000000002

>  <m_primary>  (6) 
energy

$$$$
6:0
     RDKit          3D

 25 26  0  0  0  0  0  0  0  0999 V2000
   -9.4860   19.7440  -32.4350 C   0  0  0  0  0  0  0  0  0  0  0  0
   -8.3060   20.6440  -32.2470 C   0  0  0  0  0  0  0  0  0  0  0  0
   -8.4560   21.8830  -31.6160 C   0  0  0  0  0  0  0  0  0  0  0  0
   -7.3440   22.7080  -31.4530 C   0  0  0  0  0  0  0  0  0  0  0  0
   -6.0870   22.2920  -31.9240 C   0  0  0  0  0  0  0  0  0  0  0  0
   -4.9380   23.0730  -31.7760 C   0  0  0  0  0  0  0  0  0  0  0  0
   -4.9860   24.2020  -31.2180 O   0  0  0  0  0  0  0  0  0  0  0  0
   -3.7520   22.6070  -32.2310 N   0  0  0  0  0  0  0  0  0  0  0  0
   -3.6370   21.3990  -32.8430 C   0  0  0  0  0  0  0  0  0  0  0  0
   -2.2680   20.9730  -33.2970 C   0  0  0  0  0  0  0  0  0  0  0  0
   -4.7530   20.6170  -33.0460 N   0  0  0  0  0  0  0  0  0  0  0  0
   -4.6300   19.3040  -33.7070 C   0  0  0  0  0  0  0  0  0  0  0  0
   -5.9710   21.0400  -32.5670 C   0  0  0  0  0  0  0  0  0  0  0  0
   -7.0830   20.2610  -32.7020 N   0  0  0  0  0  0  0  0  0  0  0  0
   -9.8789   19.4444  -31.4522 H   0  0  0  0  0  0  0  0  0  0  0  0
  -10.2681   20.2771  -32.9955 H   0  0  0  0  0  0  0  0  0  0  0  0
   -9.1787   18.8488  -32.9955 H   0  0  0  0  0  0  0  0  0  0  0  0
   -9.4430   22.2039  -31.2514 H   0  0  0  0  0  0  0  0  0  0  0  0
   -7.4504   23.6836  -30.9562 H   0  0  0  0  0  0  0  0  0  0  0  0
   -1.6353   20.7761  -32.4190 H   0  0  0  0  0  0  0  0  0  0  0  0
   -2.3506   20.0581  -33.9020 H   0  0  0  0  0  0  0  0  0  0  0  0
   -1.8168   21.7732  -33.9020 H   0  0  0  0  0  0  0  0  0  0  0  0
   -4.5561   18.5149  -32.9442 H   0  0  0  0  0  0  0  0  0  0  0  0
   -5.5153   19.1252  -34.3349 H   0  0  0  0  0  0  0  0  0  0  0  0
   -3.7269   19.2927  -34.3349 H   0  0  0  0  0  0  0  0  0  0  0  0
  1  2  1  0
  2  3  2  0
  3  4  1  0
  4  5  2  0
  5  6  1  0
  6  7  2  0
  6  8  1  0
  8  9  2  0
  9 10  1  0
  9 11  1  0
 11 12  1  0
 11 13  1  0
 13 14  2  0
 14  2  1  0
 13  5  1  0
  1 15  1  0
  1 16  1  0
  1 17  1  0
  3 18  1  0
  4 19  1  0
 10 20  1  0
 10 21  1  0
 10 22  1  0
 12 23  1  0
 12 24  1  0
 12 25  1  0
M  END
>  <UniqueID>  (7) 
7

>  <SMILES>  (7) 
Cc1ccc2c(=O)nc(C)n(C)c2n1

>  <Energy>  (7) 
32.35365737148809

>  <Genealogy>  (7) 
Cc1ccc2c(=O)nc(C)n(C)c2n1 (3D coordinates assigned)
Cc1ccc2c(=O)nc(C)n(C)c2n1 (optimized conformer: 32.35365737148809 kcal/mol)

>  <smiles>  (7) 
Cc1ccc2c(=O)nc(C)n(C)c2n1

>  <score_type>  (7) 
oracle

>  <origin>  (7) 
adg

>  <m_score__min__energy>  (7) 
-6

>  <m_primary>  (7) 
energy

$$$$
7:0
     RDKit          3D

 37 39  0  0  0  0  0  0  0  0999 V2000
   -7.0346   23.6978  -29.0320 H   0  0  0  0  0  0  0  0  0  0  0  0
   -6.2480   23.5630  -29.7890 C   0  0  0  0  0  0  0  0  0  0  0  0
   -6.6220   23.4190  -31.0700 C   0  0  0  0  0  0  0  0  0  0  0  0
   -6.4605   24.2641  -31.7553 H   0  0  0  0  0  0  0  0  0  0  0  0
   -7.2400   22.1870  -31.6140 C   0  0  0  0  0  0  0  0  0  0  0  0
   -8.6200   22.0160  -31.4440 C   0  0  0  0  0  0  0  0  0  0  0  0
   -9.1983   22.7523  -30.8665 H   0  0  0  0  0  0  0  0  0  0  0  0
   -9.2610   20.9120  -32.0070 C   0  0  0  0  0  0  0  0  0  0  0  0
  -10.3470   20.7872  -31.8845 H   0  0  0  0  0  0  0  0  0  0  0  0
   -8.5490   19.9920  -32.7050 N   0  0  0  0  0  0  0  0  0  0  0  0
   -7.2030   20.0960  -32.8630 C   0  0  0  0  0  0  0  0  0  0  0  0
   -6.5120   19.1080  -33.5740 C   0  0  0  0  0  0  0  0  0  0  0  0
   -7.0633   18.2695  -34.0245 H   0  0  0  0  0  0  0  0  0  0  0  0
   -5.1240   19.1840  -33.7130 C   0  0  0  0  0  0  0  0  0  0  0  0
   -4.5860   18.4135  -34.2847 H   0  0  0  0  0  0  0  0  0  0  0  0
   -4.4190   20.2370  -33.1270 C   0  0  0  0  0  0  0  0  0  0  0  0
   -3.3247   20.2859  -33.2271 H   0  0  0  0  0  0  0  0  0  0  0  0
   -5.0970   21.2290  -32.4140 C   0  0  0  0  0  0  0  0  0  0  0  0
   -4.5317   22.0452  -31.9405 H   0  0  0  0  0  0  0  0  0  0  0  0
   -6.5010   21.1900  -32.2980 C   0  0  0  0  0  0  0  0  0  0  0  0
   -4.8410   23.5510  -29.3360 C   0  0  0  0  0  0  0  0  0  0  0  0
   -4.4350   22.5320  -28.4600 C   0  0  0  0  0  0  0  0  0  0  0  0
   -5.1760   21.8129  -28.0808 H   0  0  0  0  0  0  0  0  0  0  0  0
   -3.0900   22.4210  -28.0620 C   0  0  0  0  0  0  0  0  0  0  0  0
   -2.6380   21.3950  -27.2200 O   0  0  0  0  0  0  0  0  0  0  0  0
   -2.7350   20.0060  -27.5190 C   0  0  0  0  0  0  0  0  0  0  0  0
   -2.7751   19.4312  -26.5820 H   0  0  0  0  0  0  0  0  0  0  0  0
   -3.6484   19.8196  -28.1030 H   0  0  0  0  0  0  0  0  0  0  0  0
   -1.8564   19.6944  -28.1030 H   0  0  0  0  0  0  0  0  0  0  0  0
   -2.1630   23.3570  -28.5240 C   0  0  0  0  0  0  0  0  0  0  0  0
   -1.1078   23.2725  -28.2249 H   0  0  0  0  0  0  0  0  0  0  0  0
   -2.5630   24.3990  -29.3620 C   0  0  0  0  0  0  0  0  0  0  0  0
   -1.8218   25.1335  -29.7101 H   0  0  0  0  0  0  0  0  0  0  0  0
   -3.9000   24.5180  -29.7640 C   0  0  0  0  0  0  0  0  0  0  0  0
   -4.2910   25.6430  -30.5620 N   0  0  0  0  0  0  0  0  0  0  0  0
   -4.8260   26.4340  -30.1380 H   0  0  0  0  0  0  0  0  0  0  0  0
   -4.1160   25.6740  -31.5890 H   0  0  0  0  0  0  0  0  0  0  0  0
  1  2  1  0
  2  3  2  0
  3  4  1  0
  3  5  1  0
  5  6  2  0
  6  7  1  0
  6  8  1  0
  8  9  1  0
  8 10  2  0
 10 11  1  0
 11 12  2  0
 12 13  1  0
 12 14  1  0
 14 15  1  0
 14 16  2  0
 16 17  1  0
 16 18  1  0
 18 19  1  0
 18 20  2  0
  2 21  1  0
 21 22  2  0
 22 23  1  0
 22 24  1  0
 24 25  1  0
 25 26  1  0
 26 27  1  0
 26 28  1  0
 26 29  1  0
 24 30  2  0
 30 31  1  0
 30 32  1  0
 32 33  1  0
 32 34  2  0
 34 35  1  0
 35 36  1  0
 35 37  1  0
 20  5  1  0
 34 21  1  0
 20 11  1  0
M  END
>  <UniqueID>  (8) 
8

>  <SMILES>  (8) 
COc1ccc(N)c(/C=C\c2ccnc3ccccc23)c1

>  <Energy>  (8) 
55.79675746815875

>  <Genealogy>  (8) 
COc1ccc(N)c(/C=C\c2ccnc3ccccc23)c1 (cis-trans isomerization)
COc1ccc(N)c(/C=C\c2ccnc3ccccc23)c1 (3D coordinates assigned)
COc1ccc(N)c(/C=C\c2ccnc3ccccc23)c1 (optimized conformer: 55.79675746815875 kcal/mol)

>  <smiles>  (8) 
COc1ccc(N)c(C=Cc2ccnc3ccccc23)c1

>  <score_type>  (8) 
oracle

>  <origin>  (8) 
adg

>  <m_score__min__energy>  (8) 
-8.1999999999999993

>  <m_primary>  (8) 
energy

$$$$
8:0
     RDKit          3D

 52 56  0  0  0  0  0  0  0  0999 V2000
   -0.8500   26.3900  -27.7570 C   0  0  0  0  0  0  0  0  0  0  0  0
   -1.6090   25.9720  -28.8890 O   0  0  0  0  0  0  0  0  0  0  0  0
   -1.8740   24.6330  -29.2410 C   0  0  0  0  0  0  0  0  0  0  0  0
   -1.0740   23.5710  -28.7870 C   0  0  0  0  0  0  0  0  0  0  0  0
   -1.3770   22.2500  -29.1330 C   0  0  0  0  0  0  0  0  0  0  0  0
   -2.4810   21.9600  -29.9530 C   0  0  0  0  0  0  0  0  0  0  0  0
   -2.7380   20.5030  -30.3520 C   0  0  2  0  0  0  0  0  0  0  0  0
   -1.5650   19.6990  -29.9720 N   0  0  0  0  0  0  0  0  0  0  0  0
   -0.4490   19.5470  -30.8710 C   0  0  0  0  0  0  0  0  0  0  0  0
    0.8100   19.1780  -30.3840 C   0  0  0  0  0  0  0  0  0  0  0  0
    1.8850   19.0300  -31.2600 C   0  0  0  0  0  0  0  0  0  0  0  0
    1.7120   19.2380  -32.6310 C   0  0  0  0  0  0  0  0  0  0  0  0
    0.4480   19.5920  -33.1480 C   0  0  0  0  0  0  0  0  0  0  0  0
    0.2410   19.7920  -34.5250 O   0  0  0  0  0  0  0  0  0  0  0  0
    0.2750   21.0580  -35.1770 C   0  0  0  0  0  0  0  0  0  0  0  0
   -0.6330   19.7490  -32.2550 C   0  0  0  0  0  0  0  0  0  0  0  0
   -2.0030   20.0720  -32.6850 C   0  0  0  0  0  0  0  0  0  0  0  0
   -2.4870   19.9640  -33.9390 N   0  0  0  0  0  0  0  0  0  0  0  0
   -3.7920   20.1730  -33.8570 N   0  0  0  0  0  0  0  0  0  0  0  0
   -4.0940   20.4110  -32.5590 C   0  0  0  0  0  0  0  0  0  0  0  0
   -5.4860   20.5750  -32.0790 C   0  0  0  0  0  0  0  0  0  0  0  0
   -6.3350   19.4520  -32.0380 C   0  0  0  0  0  0  0  0  0  0  0  0
   -7.6520   19.5930  -31.5960 C   0  0  0  0  0  0  0  0  0  0  0  0
   -8.1210   20.8140  -31.2270 N   0  0  0  0  0  0  0  0  0  0  0  0
   -7.3370   21.9220  -31.2750 C   0  0  0  0  0  0  0  0  0  0  0  0
   -6.0130   21.8250  -31.7100 C   0  0  0  0  0  0  0  0  0  0  0  0
   -2.9720   20.3550  -31.7990 N   0  0  0  0  0  0  0  0  0  0  0  0
   -3.2990   23.0240  -30.3820 C   0  0  0  0  0  0  0  0  0  0  0  0
   -3.0040   24.3550  -30.0340 C   0  0  0  0  0  0  0  0  0  0  0  0
   -3.8700   25.3560  -30.4870 O   0  0  0  0  0  0  0  0  0  0  0  0
   -5.2880   25.2670  -30.4600 C   0  0  0  0  0  0  0  0  0  0  0  0
   -1.3761   26.1002  -26.8355 H   0  0  0  0  0  0  0  0  0  0  0  0
    0.1392   25.9094  -27.7810 H   0  0  0  0  0  0  0  0  0  0  0  0
   -0.7274   27.4829  -27.7810 H   0  0  0  0  0  0  0  0  0  0  0  0
   -0.2001   23.7806  -28.1527 H   0  0  0  0  0  0  0  0  0  0  0  0
   -0.7453   21.4304  -28.7598 H   0  0  0  0  0  0  0  0  0  0  0  0
   -3.6442   20.1609  -29.8306 H   0  0  0  0  0  0  0  0  0  0  0  0
   -1.4710   19.3830  -28.9770 H   0  0  0  0  0  0  0  0  0  0  0  0
    0.9521   19.0042  -29.3072 H   0  0  0  0  0  0  0  0  0  0  0  0
    2.8741   18.7481  -30.8698 H   0  0  0  0  0  0  0  0  0  0  0  0
    2.5681   19.1248  -33.3124 H   0  0  0  0  0  0  0  0  0  0  0  0
    0.2965   21.8584  -34.4228 H   0  0  0  0  0  0  0  0  0  0  0  0
    1.1752   21.1225  -35.8059 H   0  0  0  0  0  0  0  0  0  0  0  0
   -0.6204   21.1707  -35.8059 H   0  0  0  0  0  0  0  0  0  0  0  0
   -5.9616   18.4665  -32.3533 H   0  0  0  0  0  0  0  0  0  0  0  0
   -8.3113   18.7139  -31.5464 H   0  0  0  0  0  0  0  0  0  0  0  0
   -7.7451   22.8972  -30.9709 H   0  0  0  0  0  0  0  0  0  0  0  0
   -5.3836   22.7256  -31.7637 H   0  0  0  0  0  0  0  0  0  0  0  0
   -4.1837   22.8104  -30.9998 H   0  0  0  0  0  0  0  0  0  0  0  0
   -5.6342   25.2453  -29.4161 H   0  0  0  0  0  0  0  0  0  0  0  0
   -5.7200   26.1398  -30.9715 H   0  0  0  0  0  0  0  0  0  0  0  0
   -5.6075   24.3470  -30.9715 H   0  0  0  0  0  0  0  0  0  0  0  0
  1  2  1  0
  2  3  1  0
  3  4  2  0
  4  5  1  0
  5  6  2  0
  6  7  1  0
  7  8  1  0
  8  9  1  0
  9 10  2  0
 10 11  1  0
 11 12  2  0
 12 13  1  0
 13 14  1  0
 14 15  1  0
 13 16  2  0
 16 17  1  0
 17 18  2  0
 18 19  1  0
 19 20  2  0
 20 21  1  0
 21 22  2  0
 22 23  1  0
 23 24  2  0
 24 25  1  0
 25 26  2  0
 20 27  1  0
  6 28  1  0
 28 29  2  0
 29 30  1  0
 30 31  1  0
 29  3  1  0
 27  7  1  0
 16  9  1  0
 27 17  1  0
 26 21  1  0
  1 32  1  0
  1 33  1  0
  1 34  1  0
  4 35  1  0
  5 36  1  0
  7 37  1  1
  8 38  1  0
 10 39  1  0
 11 40  1  0
 12 41  1  0
 15 42  1  0
 15 43  1  0
 15 44  1  0
 22 45  1  0
 23 46  1  0
 25 47  1  0
 26 48  1  0
 28 49  1  0
 31 50  1  0
 31 51  1  0
 31 52  1  0
M  END
>  <UniqueID>  (9) 
9

>  <SMILES>  (9) 
COc1ccc([C@@H]2Nc3cccc(OC)c3-c3nnc(-c4ccncc4)n32)cc1OC

>  <Energy>  (9) 
110.13124979219612

>  <Genealogy>  (9) 
COc1ccc([C@@H]2Nc3cccc(OC)c3-c3nnc(-c4ccncc4)n32)cc1OC (chirality)
COc1ccc([C@@H]2Nc3cccc(OC)c3-c3nnc(-c4ccncc4)n32)cc1OC (3D coordinates assigned)
COc1ccc([C@@H]2Nc3cccc(OC)c3-c3nnc(-c4ccncc4)n32)cc1OC (nonaromatic ring conformer: 110.13124979219612 kcal/mol)

>  <smiles>  (9) 
COc1ccc(C2Nc3cccc(OC)c3-c3nnc(-c4ccncc4)n32)cc1OC

>  <score_type>  (9) 
oracle

>  <origin>  (9) 
adg

>  <m_score__min__energy>  (9) 
-8.2899999999999991

>  <m_primary>  (9) 
energy

$$$$
9:0
     RDKit          3D

 33 34  0  0  0  0  0  0  0  0999 V2000
   -3.9280   22.2770  -33.0800 C   0  0  0  0  0  0  0  0  0  0  0  0
   -5.0950   22.1620  -32.1920 N   0  0  0  0  0  0  0  0  0  0  0  0
   -4.8930   21.0970  -31.1970 C   0  0  0  0  0  0  0  0  0  0  0  0
   -5.3510   23.4250  -31.5300 C   0  0  0  0  0  0  0  0  0  0  0  0
   -4.4220   24.1170  -31.1320 O   0  0  0  0  0  0  0  0  0  0  0  0
   -6.7610   23.8900  -31.3090 C   0  0  0  0  0  0  0  0  0  0  0  0
   -7.5760   23.3740  -32.3420 O   0  0  0  0  0  0  0  0  0  0  0  0
   -8.4280   22.3650  -31.8410 C   0  0  0  0  0  0  0  0  0  0  0  0
   -7.9530   21.0160  -32.2850 C   0  0  0  0  0  0  0  0  0  0  0  0
   -8.3460   19.8030  -31.7290 C   0  0  0  0  0  0  0  0  0  0  0  0
   -7.6440   18.8610  -32.4450 C   0  0  0  0  0  0  0  0  0  0  0  0
   -7.6160   17.4720  -32.3440 C   0  0  0  0  0  0  0  0  0  0  0  0
   -6.7800   16.7700  -33.2320 C   0  0  0  0  0  0  0  0  0  0  0  0
   -6.0030   17.4650  -34.1870 C   0  0  0  0  0  0  0  0  0  0  0  0
   -6.0540   18.8700  -34.2600 C   0  0  0  0  0  0  0  0  0  0  0  0
   -6.8910   19.5370  -33.3680 C   0  0  0  0  0  0  0  0  0  0  0  0
   -7.0840   20.8280  -33.2630 O   0  0  0  0  0  0  0  0  0  0  0  0
   -3.0140   22.3671  -32.4746 H   0  0  0  0  0  0  0  0  0  0  0  0
   -3.8606   21.3812  -33.7148 H   0  0  0  0  0  0  0  0  0  0  0  0
   -4.0367   23.1688  -33.7148 H   0  0  0  0  0  0  0  0  0  0  0  0
   -5.9220   21.9010  -32.7800 H   0  0  0  0  0  0  0  0  0  0  0  0
   -4.9734   21.5206  -30.1850 H   0  0  0  0  0  0  0  0  0  0  0  0
   -5.6597   20.3197  -31.3311 H   0  0  0  0  0  0  0  0  0  0  0  0
   -3.8949   20.6545  -31.3311 H   0  0  0  0  0  0  0  0  0  0  0  0
   -7.1224   23.5262  -30.3358 H   0  0  0  0  0  0  0  0  0  0  0  0
   -6.7983   24.9893  -31.3162 H   0  0  0  0  0  0  0  0  0  0  0  0
   -8.4307   22.4051  -30.7417 H   0  0  0  0  0  0  0  0  0  0  0  0
   -9.4447   22.5311  -32.2266 H   0  0  0  0  0  0  0  0  0  0  0  0
   -9.0556   19.6353  -30.9054 H   0  0  0  0  0  0  0  0  0  0  0  0
   -8.2256   16.9428  -31.5968 H   0  0  0  0  0  0  0  0  0  0  0  0
   -6.7307   15.6722  -33.1827 H   0  0  0  0  0  0  0  0  0  0  0  0
   -5.3549   16.9047  -34.8770 H   0  0  0  0  0  0  0  0  0  0  0  0
   -5.4529   19.4229  -34.9969 H   0  0  0  0  0  0  0  0  0  0  0  0
  1  2  1  0
  2  3  1  0
  2  4  1  0
  4  5  2  0
  4  6  1  0
  6  7  1  0
  7  8  1  0
  8  9  1  0
  9 10  2  0
 10 11  1  0
 11 12  2  0
 12 13  1  0
 13 14  2  0
 14 15  1  0
 15 16  2  0
 16 17  1  0
 17  9  1  0
 16 11  1  0
  1 18  1  0
  1 19  1  0
  1 20  1  0
  2 21  1  0
  3 22  1  0
  3 23  1  0
  3 24  1  0
  6 25  1  0
  6 26  1  0
  8 27  1  0
  8 28  1  0
 10 29  1  0
 12 30  1  0
 13 31  1  0
 14 32  1  0
 15 33  1  0
M  CHG  1   2   1
M  END
>  <UniqueID>  (10) 
10

>  <SMILES>  (10) 
C[NH+](C)C(=O)COCc1cc2ccccc2o1

>  <Energy>  (10) 
65.38826038660166

>  <Genealogy>  (10) 
C[NH+](C)C(=O)COCc1cc2ccccc2o1 (protonated)
C[NH+](C)C(=O)COCc1cc2ccccc2o1 (3D coordinates assigned)
C[NH+](C)C(=O)COCc1cc2ccccc2o1 (optimized conformer: 65.38826038660166 kcal/mol)

>  <smiles>  (10) 
CN(C)C(=O)COCc1cc2ccccc2o1

>  <score_type>  (10) 
oracle

>  <origin>  (10) 
adg

>  <m_score__min__energy>  (10) 
-5.2199999999999998

>  <m_primary>  (10) 
energy

$$$$
10:0
     RDKit          3D

 45 47  0  0  0  0  0  0  0  0999 V2000
   -0.4820   24.4000  -24.4430 C   0  0  0  0  0  0  0  0  0  0  0  0
    0.0930   23.8600  -25.6280 O   0  0  0  0  0  0  0  0  0  0  0  0
   -0.4420   22.7840  -26.3560 C   0  0  0  0  0  0  0  0  0  0  0  0
   -0.9210   21.6220  -25.7190 C   0  0  0  0  0  0  0  0  0  0  0  0
   -1.4580   20.5740  -26.4690 C   0  0  0  0  0  0  0  0  0  0  0  0
   -1.5300   20.6710  -27.8590 C   0  0  0  0  0  0  0  0  0  0  0  0
   -1.0610   21.8180  -28.5050 C   0  0  0  0  0  0  0  0  0  0  0  0
   -0.5030   22.8740  -27.7650 C   0  0  0  0  0  0  0  0  0  0  0  0
   -0.0370   24.1160  -28.4810 C   0  0  0  0  0  0  0  0  0  0  0  0
   -0.9210   25.3110  -28.1120 C   0  0  0  0  0  0  0  0  0  0  0  0
   -2.1110   25.3450  -28.9530 N   0  0  0  0  0  0  0  0  0  0  0  0
   -3.1770   24.3950  -28.8550 C   0  0  0  0  0  0  0  0  0  0  0  0
   -3.5880   24.0130  -27.7250 O   0  0  0  0  0  0  0  0  0  0  0  0
   -3.7890   23.8590  -30.0760 C   0  0  0  0  0  0  0  0  0  0  0  0
   -3.6670   22.5690  -30.5510 C   0  0  0  0  0  0  0  0  0  0  0  0
   -4.4190   22.5840  -31.7060 C   0  0  0  0  0  0  0  0  0  0  0  0
   -4.6400   21.4330  -32.6350 C   0  0  0  0  0  0  0  0  0  0  0  0
   -5.9990   21.3910  -33.0680 O   0  0  0  0  0  0  0  0  0  0  0  0
   -6.9440   20.4220  -32.6900 C   0  0  0  0  0  0  0  0  0  0  0  0
   -6.7660   19.0500  -32.9610 C   0  0  0  0  0  0  0  0  0  0  0  0
   -7.7330   18.1210  -32.5650 C   0  0  0  0  0  0  0  0  0  0  0  0
   -8.8840   18.5470  -31.8990 C   0  0  0  0  0  0  0  0  0  0  0  0
   -9.8200   17.6430  -31.5180 F   0  0  0  0  0  0  0  0  0  0  0  0
   -9.0690   19.9040  -31.6250 C   0  0  0  0  0  0  0  0  0  0  0  0
   -8.1050   20.8410  -32.0180 C   0  0  0  0  0  0  0  0  0  0  0  0
   -8.3660   22.5410  -31.6660 Cl  0  0  0  0  0  0  0  0  0  0  0  0
   -4.9220   23.7850  -31.8740 O   0  0  0  0  0  0  0  0  0  0  0  0
   -4.5640   24.5820  -30.9090 N   0  0  0  0  0  0  0  0  0  0  0  0
   -0.0008   23.9481  -23.5631 H   0  0  0  0  0  0  0  0  0  0  0  0
   -0.3299   25.4893  -24.4251 H   0  0  0  0  0  0  0  0  0  0  0  0
   -1.5596   24.1799  -24.4251 H   0  0  0  0  0  0  0  0  0  0  0  0
   -0.8715   21.5400  -24.6232 H   0  0  0  0  0  0  0  0  0  0  0  0
   -1.8254   19.6692  -25.9626 H   0  0  0  0  0  0  0  0  0  0  0  0
   -1.9561   19.8444  -28.4465 H   0  0  0  0  0  0  0  0  0  0  0  0
   -1.1291   21.8946  -29.6002 H   0  0  0  0  0  0  0  0  0  0  0  0
    1.0023   24.3318  -28.1925 H   0  0  0  0  0  0  0  0  0  0  0  0
   -0.1019   23.9469  -29.5660 H   0  0  0  0  0  0  0  0  0  0  0  0
   -1.2248   25.2248  -27.0583 H   0  0  0  0  0  0  0  0  0  0  0  0
   -0.3492   26.2378  -28.2673 H   0  0  0  0  0  0  0  0  0  0  0  0
   -3.1050   21.7308  -30.1133 H   0  0  0  0  0  0  0  0  0  0  0  0
   -3.9846   21.5447  -33.5114 H   0  0  0  0  0  0  0  0  0  0  0  0
   -4.4081   20.4984  -32.1032 H   0  0  0  0  0  0  0  0  0  0  0  0
   -5.8619   18.7087  -33.4865 H   0  0  0  0  0  0  0  0  0  0  0  0
   -7.5867   17.0519  -32.7786 H   0  0  0  0  0  0  0  0  0  0  0  0
   -9.9752   20.2381  -31.0986 H   0  0  0  0  0  0  0  0  0  0  0  0
  1  2  1  0
  2  3  1  0
  3  4  2  0
  4  5  1  0
  5  6  2  0
  6  7  1  0
  7  8  2  0
  8  9  1  0
  9 10  1  0
 10 11  1  0
 11 12  1  0
 12 13  2  0
 12 14  1  0
 14 15  1  0
 15 16  2  0
 16 17  1  0
 17 18  1  0
 18 19  1  0
 19 20  2  0
 20 21  1  0
 21 22  2  0
 22 23  1  0
 22 24  1  0
 24 25  2  0
 25 26  1  0
 16 27  1  0
 27 28  1  0
  8  3  1  0
 28 14  2  0
 25 19  1  0
  1 29  1  0
  1 30  1  0
  1 31  1  0
  4 32  1  0
  5 33  1  0
  6 34  1  0
  7 35  1  0
  9 36  1  0
  9 37  1  0
 10 38  1  0
 10 39  1  0
 15 40  1  0
 17 41  1  0
 17 42  1  0
 20 43  1  0
 21 44  1  0
 24 45  1  0
M  CHG  1  11  -1
M  END
>  <UniqueID>  (11) 
11

>  <SMILES>  (11) 
COc1ccccc1CC[N-]C(=O)c1cc(COc2ccc(F)cc2Cl)on1

>  <Energy>  (11) 
71.43461076287183

>  <Genealogy>  (11) 
COc1ccccc1CC[N-]C(=O)c1cc(COc2ccc(F)cc2Cl)on1 (protonated)
COc1ccccc1CC[N-]C(=O)c1cc(COc2ccc(F)cc2Cl)on1 (3D coordinates assigned)
COc1ccccc1CC[N-]C(=O)c1cc(COc2ccc(F)cc2Cl)on1 (optimized conformer: 71.43461076287183 kcal/mol)

>  <smiles>  (11) 
COc1ccccc1CCNC(=O)c1cc(COc2ccc(F)cc2Cl)on1

>  <score_type>  (11) 
oracle

>  <origin>  (11) 
adg

>  <m_score__min__energy>  (11) 
-10.390000000000001

>  <m_primary>  (11) 
energy

$$$$
11:0
     RDKit          3D

 43 45  0  0  0  0  0  0  0  0999 V2000
   -2.4790   12.6860  -31.4700 C   0  0  0  0  0  0  0  0  0  0  0  0
   -3.5590   12.5470  -32.3880 O   0  0  0  0  0  0  0  0  0  0  0  0
   -4.3890   13.6000  -32.8000 C   0  0  0  0  0  0  0  0  0  0  0  0
   -5.3640   13.4450  -33.8040 C   0  0  0  0  0  0  0  0  0  0  0  0
   -6.1650   14.5270  -34.1810 C   0  0  0  0  0  0  0  0  0  0  0  0
   -5.9980   15.7820  -33.5780 C   0  0  0  0  0  0  0  0  0  0  0  0
   -6.8530   16.8720  -33.9630 N   0  0  0  0  0  0  0  0  0  0  0  0
   -6.7420   18.2110  -33.4490 C   0  0  0  0  0  0  0  0  0  0  0  0
   -5.6910   19.0550  -33.8360 C   0  0  0  0  0  0  0  0  0  0  0  0
   -5.6200   20.3610  -33.3500 C   0  0  0  0  0  0  0  0  0  0  0  0
   -6.5960   20.8500  -32.4670 C   0  0  0  0  0  0  0  0  0  0  0  0
   -6.5300   22.2090  -32.0060 N   0  0  0  0  0  0  0  0  0  0  0  0
   -5.3210   22.8120  -31.5150 C   0  0  0  0  0  0  0  0  0  0  0  0
   -3.7690   22.2240  -31.7000 S   0  0  0  0  0  0  0  0  0  0  0  0
   -2.9080   23.3990  -30.9060 N   0  0  0  0  0  0  0  0  0  0  0  0
   -3.8400   24.2850  -30.4690 C   0  0  0  0  0  0  0  0  0  0  0  0
   -3.5020   25.2950  -29.7980 O   0  0  0  0  0  0  0  0  0  0  0  0
   -5.1960   23.9980  -30.7840 C   0  0  0  0  0  0  0  0  0  0  0  0
   -6.3300   24.8500  -30.3670 C   0  0  0  0  0  0  0  0  0  0  0  0
   -6.1140   26.0190  -29.5760 N   0  0  0  0  0  0  0  0  0  0  0  0
   -7.5050   24.5420  -30.6970 O   0  0  0  0  0  0  0  0  0  0  0  0
   -7.6730   20.0170  -32.0950 C   0  0  0  0  0  0  0  0  0  0  0  0
   -8.7580   20.5160  -31.1810 C   0  0  0  0  0  0  0  0  0  0  0  0
   -7.7420   18.7060  -32.6010 C   0  0  0  0  0  0  0  0  0  0  0  0
   -5.0390   15.9280  -32.5600 C   0  0  0  0  0  0  0  0  0  0  0  0
   -4.2380   14.8460  -32.1830 C   0  0  0  0  0  0  0  0  0  0  0  0
   -2.8640   12.6365  -30.4407 H   0  0  0  0  0  0  0  0  0  0  0  0
   -1.7548   11.8737  -31.6301 H   0  0  0  0  0  0  0  0  0  0  0  0
   -1.9841   13.6552  -31.6301 H   0  0  0  0  0  0  0  0  0  0  0  0
   -5.4959   12.4688  -34.2936 H   0  0  0  0  0  0  0  0  0  0  0  0
   -6.9328   14.3928  -34.9572 H   0  0  0  0  0  0  0  0  0  0  0  0
   -7.6050   16.6780  -34.6620 H   0  0  0  0  0  0  0  0  0  0  0  0
   -4.9185   18.6854  -34.5264 H   0  0  0  0  0  0  0  0  0  0  0  0
   -4.7913   21.0138  -33.6617 H   0  0  0  0  0  0  0  0  0  0  0  0
   -7.4180   22.7540  -31.9750 H   0  0  0  0  0  0  0  0  0  0  0  0
   -5.1490   26.3630  -29.3720 H   0  0  0  0  0  0  0  0  0  0  0  0
   -6.9260   26.5860  -29.2450 H   0  0  0  0  0  0  0  0  0  0  0  0
   -8.4499   20.3743  -30.1346 H   0  0  0  0  0  0  0  0  0  0  0  0
   -8.9336   21.5853  -31.3699 H   0  0  0  0  0  0  0  0  0  0  0  0
   -9.6841   19.9534  -31.3699 H   0  0  0  0  0  0  0  0  0  0  0  0
   -8.5909   18.0619  -32.3278 H   0  0  0  0  0  0  0  0  0  0  0  0
   -4.9184   16.8990  -32.0575 H   0  0  0  0  0  0  0  0  0  0  0  0
   -3.4824   14.9758  -31.3942 H   0  0  0  0  0  0  0  0  0  0  0  0
  1  2  1  0
  2  3  1  0
  3  4  2  0
  4  5  1  0
  5  6  2  0
  6  7  1  0
  7  8  1  0
  8  9  2  0
  9 10  1  0
 10 11  2  0
 11 12  1  0
 12 13  1  0
 13 14  1  0
 14 15  1  0
 15 16  1  0
 16 17  2  0
 16 18  1  0
 18 19  1  0
 19 20  1  0
 19 21  2  0
 11 22  1  0
 22 23  1  0
 22 24  2  0
  6 25  1  0
 25 26  2  0
 26  3  1  0
 24  8  1  0
 18 13  2  0
  1 27  1  0
  1 28  1  0
  1 29  1  0
  4 30  1  0
  5 31  1  0
  7 32  1  0
  9 33  1  0
 10 34  1  0
 12 35  1  0
 20 36  1  0
 20 37  1  0
 23 38  1  0
 23 39  1  0
 23 40  1  0
 24 41  1  0
 25 42  1  0
 26 43  1  0
M  CHG  1  15  -1
M  END
>  <UniqueID>  (12) 
12

>  <SMILES>  (12) 
COc1ccc(Nc2ccc(Nc3s[n-]c(=O)c3C(N)=O)c(C)c2)cc1

>  <Energy>  (12) 
91.41302493573339

>  <Genealogy>  (12) 
COc1ccc(Nc2ccc(Nc3s[n-]c(=O)c3C(N)=O)c(C)c2)cc1 (protonated)
COc1ccc(Nc2ccc(Nc3s[n-]c(=O)c3C(N)=O)c(C)c2)cc1 (3D coordinates assigned)
COc1ccc(Nc2ccc(Nc3s[n-]c(=O)c3C(N)=O)c(C)c2)cc1 (optimized conformer: 91.41302493573339 kcal/mol)

>  <smiles>  (12) 
COc1ccc(Nc2ccc(Nc3s[nH]c(=O)c3C(N)=O)c(C)c2)cc1

>  <score_type>  (12) 
oracle

>  <origin>  (12) 
adg

>  <m_score__min__energy>  (12) 
-9.1199999999999992

>  <m_primary>  (12) 
energy

$$$$
12:0
     RDKit          3D

 47 49  0  0  0  0  0  0  0  0999 V2000
   -6.3180   25.6400  -29.3490 C   0  0  0  0  0  0  0  0  0  0  0  0
   -5.3800   26.0460  -30.4800 C   0  0  0  0  0  0  0  0  0  0  0  0
   -4.3000   25.1200  -30.5990 O   0  0  0  0  0  0  0  0  0  0  0  0
   -4.4100   23.7890  -31.0330 C   0  0  0  0  0  0  0  0  0  0  0  0
   -3.3940   22.8350  -30.8370 C   0  0  0  0  0  0  0  0  0  0  0  0
   -3.5600   21.5230  -31.2900 C   0  0  0  0  0  0  0  0  0  0  0  0
   -4.7440   21.1280  -31.9340 C   0  0  0  0  0  0  0  0  0  0  0  0
   -4.9090   19.7650  -32.4020 N   0  0  0  0  0  0  0  0  0  0  0  0
   -5.6220   18.7780  -31.5820 C   0  0  0  0  0  0  0  0  0  0  0  0
   -7.0560   18.5820  -32.1180 C   0  0  0  0  0  0  0  0  0  0  0  0
   -7.2560   19.2120  -33.4390 N   0  0  0  0  0  0  0  0  0  0  0  0
   -6.1530   18.9020  -34.3630 C   0  0  0  0  0  0  0  0  0  0  0  0
   -4.7970   19.4550  -33.8420 C   0  0  2  0  0  0  0  0  0  0  0  0
   -3.6650   18.4370  -34.1150 C   0  0  0  0  0  0  0  0  0  0  0  0
   -2.3130   18.9530  -33.6990 C   0  0  0  0  0  0  0  0  0  0  0  0
   -1.9060   20.2460  -34.0650 C   0  0  0  0  0  0  0  0  0  0  0  0
   -0.6670   20.7390  -33.6450 C   0  0  0  0  0  0  0  0  0  0  0  0
    0.1720   19.9470  -32.8550 C   0  0  0  0  0  0  0  0  0  0  0  0
    1.3710   20.4280  -32.4460 F   0  0  0  0  0  0  0  0  0  0  0  0
   -0.2280   18.6590  -32.4860 C   0  0  0  0  0  0  0  0  0  0  0  0
   -1.4660   18.1620  -32.9040 C   0  0  0  0  0  0  0  0  0  0  0  0
   -5.7530   22.0890  -32.1330 C   0  0  0  0  0  0  0  0  0  0  0  0
   -5.5860   23.4010  -31.6820 C   0  0  0  0  0  0  0  0  0  0  0  0
   -5.8375   25.8480  -28.3816 H   0  0  0  0  0  0  0  0  0  0  0  0
   -7.2534   26.2138  -29.4246 H   0  0  0  0  0  0  0  0  0  0  0  0
   -6.5399   24.5653  -29.4246 H   0  0  0  0  0  0  0  0  0  0  0  0
   -5.9425   26.0676  -31.4250 H   0  0  0  0  0  0  0  0  0  0  0  0
   -4.9684   27.0414  -30.2570 H   0  0  0  0  0  0  0  0  0  0  0  0
   -2.4643   23.1233  -30.3246 H   0  0  0  0  0  0  0  0  0  0  0  0
   -2.7530   20.7906  -31.1402 H   0  0  0  0  0  0  0  0  0  0  0  0
   -5.0853   17.8185  -31.6185 H   0  0  0  0  0  0  0  0  0  0  0  0
   -5.6711   19.1393  -30.5442 H   0  0  0  0  0  0  0  0  0  0  0  0
   -7.2551   17.5039  -32.2073 H   0  0  0  0  0  0  0  0  0  0  0  0
   -7.7467   19.0630  -31.4098 H   0  0  0  0  0  0  0  0  0  0  0  0
   -8.1510   18.8580  -33.8490 H   0  0  0  0  0  0  0  0  0  0  0  0
   -7.3410   20.2510  -33.3290 H   0  0  0  0  0  0  0  0  0  0  0  0
   -6.0749   17.8102  -34.4721 H   0  0  0  0  0  0  0  0  0  0  0  0
   -6.3702   19.3791  -35.3301 H   0  0  0  0  0  0  0  0  0  0  0  0
   -4.5473   20.3833  -34.3766 H   0  0  0  0  0  0  0  0  0  0  0  0
   -3.8779   17.5142  -33.5554 H   0  0  0  0  0  0  0  0  0  0  0  0
   -3.6340   18.2544  -35.1993 H   0  0  0  0  0  0  0  0  0  0  0  0
   -2.5642   20.8732  -34.6842 H   0  0  0  0  0  0  0  0  0  0  0  0
   -0.3516   21.7517  -33.9365 H   0  0  0  0  0  0  0  0  0  0  0  0
    0.4327   18.0356  -31.8656 H   0  0  0  0  0  0  0  0  0  0  0  0
   -1.7780   17.1490  -32.6098 H   0  0  0  0  0  0  0  0  0  0  0  0
   -6.6821   21.8044  -32.6486 H   0  0  0  0  0  0  0  0  0  0  0  0
   -6.3886   24.1366  -31.8393 H   0  0  0  0  0  0  0  0  0  0  0  0
  1  2  1  0
  2  3  1  0
  3  4  1  0
  4  5  2  0
  5  6  1  0
  6  7  2  0
  7  8  1  0
  8  9  1  0
  9 10  1  0
 10 11  1  0
 11 12  1  0
 12 13  1  0
 13 14  1  0
 14 15  1  0
 15 16  2  0
 16 17  1  0
 17 18  2  0
 18 19  1  0
 18 20  1  0
 20 21  2  0
  7 22  1  0
 22 23  2  0
 23  4  1  0
 13  8  1  0
 21 15  1  0
  1 24  1  0
  1 25  1  0
  1 26  1  0
  2 27  1  0
  2 28  1  0
  5 29  1  0
  6 30  1  0
  9 31  1  0
  9 32  1  0
 10 33  1  0
 10 34  1  0
 11 35  1  0
 11 36  1  0
 12 37  1  0
 12 38  1  0
 13 39  1  6
 14 40  1  0
 14 41  1  0
 16 42  1  0
 17 43  1  0
 20 44  1  0
 21 45  1  0
 22 46  1  0
 23 47  1  0
M  CHG  1  11   1
M  END
>  <UniqueID>  (13) 
13

>  <SMILES>  (13) 
CCOc1ccc(N2CC[NH2+]C[C@@H]2Cc2ccc(F)cc2)cc1

>  <Energy>  (13) 
54.51519306712831

>  <Genealogy>  (13) 
CCOc1ccc(N2CC[NH2+]CC2Cc2ccc(F)cc2)cc1 (protonated)
CCOc1ccc(N2CC[NH2+]C[C@@H]2Cc2ccc(F)cc2)cc1 (chirality)
CCOc1ccc(N2CC[NH2+]C[C@@H]2Cc2ccc(F)cc2)cc1 (3D coordinates assigned)
CCOc1ccc(N2CC[NH2+]C[C@@H]2Cc2ccc(F)cc2)cc1 (nonaromatic ring conformer: 54.51519306712831 kcal/mol)

>  <smiles>  (13) 
CCOc1ccc(N2CCNCC2Cc2ccc(F)cc2)cc1

>  <score_type>  (13) 
oracle

>  <origin>  (13) 
adg

>  <m_score__min__energy>  (13) 
-6.4000000000000004

>  <m_primary>  (13) 
energy

$$$$
13:0
     RDKit          3D

 37 40  0  0  0  0  0  0  0  0999 V2000
   -7.3402   26.1891  -29.2982 H   0  0  0  0  0  0  0  0  0  0  0  0
   -6.8530   25.3560  -29.8260 C   0  0  0  0  0  0  0  0  0  0  0  0
   -7.6090   24.3950  -30.4150 N   0  0  0  0  0  0  0  0  0  0  0  0
   -7.0460   23.3490  -31.0780 C   0  0  0  0  0  0  0  0  0  0  0  0
   -7.8650   22.3890  -31.6800 C   0  0  0  0  0  0  0  0  0  0  0  0
   -8.9590   22.4797  -31.6096 H   0  0  0  0  0  0  0  0  0  0  0  0
   -7.2990   21.3160  -32.3700 C   0  0  0  0  0  0  0  0  0  0  0  0
   -7.9515   20.5665  -32.8416 H   0  0  0  0  0  0  0  0  0  0  0  0
   -5.9020   21.1840  -32.4680 C   0  0  0  0  0  0  0  0  0  0  0  0
   -5.3050   20.0370  -33.2000 C   0  0  0  0  0  0  0  0  0  0  0  0
   -6.1210   19.1410  -33.9160 C   0  0  0  0  0  0  0  0  0  0  0  0
   -7.2107   19.2903  -33.9354 H   0  0  0  0  0  0  0  0  0  0  0  0
   -5.5550   18.0620  -34.6030 C   0  0  0  0  0  0  0  0  0  0  0  0
   -6.2001   17.3666  -35.1601 H   0  0  0  0  0  0  0  0  0  0  0  0
   -4.1730   17.8660  -34.5830 C   0  0  0  0  0  0  0  0  0  0  0  0
   -3.6270   16.8200  -35.2500 F   0  0  0  0  0  0  0  0  0  0  0  0
   -3.3530   18.7480  -33.8760 C   0  0  0  0  0  0  0  0  0  0  0  0
   -2.2642   18.5923  -33.8609 H   0  0  0  0  0  0  0  0  0  0  0  0
   -3.9130   19.8290  -33.1870 C   0  0  0  0  0  0  0  0  0  0  0  0
   -3.2618   20.5203  -32.6320 H   0  0  0  0  0  0  0  0  0  0  0  0
   -5.0780   22.1510  -31.8630 C   0  0  0  0  0  0  0  0  0  0  0  0
   -3.9844   22.0576  -31.9361 H   0  0  0  0  0  0  0  0  0  0  0  0
   -5.6400   23.2370  -31.1650 C   0  0  0  0  0  0  0  0  0  0  0  0
   -4.8400   24.2140  -30.5380 C   0  0  0  0  0  0  0  0  0  0  0  0
   -3.4060   24.1660  -30.6550 N   0  0  0  0  0  0  0  0  0  0  0  0
   -2.5350   24.1260  -29.6870 C   0  0  0  0  0  0  0  0  0  0  0  0
   -2.0130   25.2960  -29.2320 N   0  0  0  0  0  0  0  0  0  0  0  0
   -1.0900   25.3300  -28.2360 C   0  0  0  0  0  0  0  0  0  0  0  0
   -0.6907   26.2919  -27.8820 H   0  0  0  0  0  0  0  0  0  0  0  0
   -0.6530   24.1340  -27.6660 C   0  0  0  0  0  0  0  0  0  0  0  0
    0.0897   24.1454  -26.8546 H   0  0  0  0  0  0  0  0  0  0  0  0
   -1.1520   22.9550  -28.1210 N   0  0  0  0  0  0  0  0  0  0  0  0
   -0.8130   22.0600  -27.7020 H   0  0  0  0  0  0  0  0  0  0  0  0
   -2.0760   22.9190  -29.1190 C   0  0  0  0  0  0  0  0  0  0  0  0
   -2.4627   21.9548  -29.4807 H   0  0  0  0  0  0  0  0  0  0  0  0
   -5.4610   25.2920  -29.8870 C   0  0  0  0  0  0  0  0  0  0  0  0
   -4.8516   26.0836  -29.4265 H   0  0  0  0  0  0  0  0  0  0  0  0
  1  2  1  0
  2  3  2  0
  3  4  1  0
  4  5  2  0
  5  6  1  0
  5  7  1  0
  7  8  1  0
  7  9  2  0
  9 10  1  0
 10 11  2  0
 11 12  1  0
 11 13  1  0
 13 14  1  0
 13 15  2  0
 15 16  1  0
 15 17  1  0
 17 18  1  0
 17 19  2  0
 19 20  1  0
  9 21  1  0
 21 22  1  0
 21 23  2  0
 23 24  1  0
 24 25  1  0
 25 26  2  0
 26 27  1  0
 27 28  1  0
 28 29  1  0
 28 30  2  0
 30 31  1  0
 30 32  1  0
 32 33  1  0
 32 34  2  0
 34 35  1  0
 24 36  2  0
 36 37  1  0
 36  2  1  0
 23  4  1  0
 34 26  1  0
 19 10  1  0
M  CHG  2  27  -1  32   1
M  END
>  <UniqueID>  (14) 
14

>  <SMILES>  (14) 
Fc1ccc(-c2ccc3nccc(/N=c4\c[nH+]cc[n-]4)c3c2)cc1

>  <Energy>  (14) 
62.293975753306185

>  <Genealogy>  (14) 
Fc1ccc(-c2ccc3nccc(N=c4c[nH+]cc[n-]4)c3c2)cc1 (protonated)
Fc1ccc(-c2ccc3nccc(/N=c4\c[nH+]cc[n-]4)c3c2)cc1 (cis-trans isomerization)
Fc1ccc(-c2ccc3nccc(/N=c4\c[nH+]cc[n-]4)c3c2)cc1 (3D coordinates assigned)
Fc1ccc(-c2ccc3nccc(/N=c4\c[nH+]cc[n-]4)c3c2)cc1 (optimized conformer: 62.293975753306185 kcal/mol)

>  <smiles>  (14) 
Fc1ccc(-c2ccc3nccc(N=c4cncc[nH]4)c3c2)cc1

>  <score_type>  (14) 
oracle

>  <origin>  (14) 
adg

>  <m_score__min__energy>  (14) 
-8.7300000000000004

>  <m_primary>  (14) 
energy

$$$$
14:0
     RDKit          3D

 47 49  0  0  0  0  0  0  0  0999 V2000
   -2.8500   22.3930  -29.4700 C   0  0  0  0  0  0  0  0  0  0  0  0
   -2.9970   23.8980  -29.6970 C   0  0  0  0  0  0  0  0  0  0  0  0
   -4.0800   24.4910  -29.0120 N   0  0  0  0  0  0  0  0  0  0  0  0
   -4.2520   24.1720  -27.6380 C   0  0  0  0  0  0  0  0  0  0  0  0
   -3.2870   24.8370  -26.7130 C   0  0  0  0  0  0  0  0  0  0  0  0
   -5.2540   24.8060  -29.7200 C   0  0  0  0  0  0  0  0  0  0  0  0
   -6.3630   23.8450  -29.8390 C   0  0  0  0  0  0  0  0  0  0  0  0
   -7.2550   23.9100  -31.0140 C   0  0  0  0  0  0  0  0  0  0  0  0
   -7.4160   22.5570  -31.5860 N   0  0  0  0  0  0  0  0  0  0  0  0
   -8.5780   21.8870  -31.6230 N   0  0  0  0  0  0  0  0  0  0  0  0
   -8.4270   20.7060  -32.1690 N   0  0  0  0  0  0  0  0  0  0  0  0
   -9.4590   19.6990  -32.3730 C   0  0  0  0  0  0  0  0  0  0  0  0
   -7.1390   20.5870  -32.5030 C   0  0  0  0  0  0  0  0  0  0  0  0
   -6.4870   21.7710  -32.1330 C   0  0  0  0  0  0  0  0  0  0  0  0
   -5.0660   21.9600  -32.3600 C   0  0  0  0  0  0  0  0  0  0  0  0
   -4.5050   23.0310  -32.0200 O   0  0  0  0  0  0  0  0  0  0  0  0
   -4.3370   20.8610  -32.9930 C   0  0  0  0  0  0  0  0  0  0  0  0
   -3.0030   21.0280  -33.2060 C   0  0  0  0  0  0  0  0  0  0  0  0
   -2.2630   20.0450  -33.7870 C   0  0  0  0  0  0  0  0  0  0  0  0
   -2.8660   18.8600  -34.1670 C   0  0  0  0  0  0  0  0  0  0  0  0
   -4.2160   18.6700  -33.9610 C   0  0  0  0  0  0  0  0  0  0  0  0
   -4.9320   19.6890  -33.3700 C   0  0  0  0  0  0  0  0  0  0  0  0
   -6.3680   19.5360  -33.1240 C   0  0  0  0  0  0  0  0  0  0  0  0
   -6.9080   18.4630  -33.4690 O   0  0  0  0  0  0  0  0  0  0  0  0
   -2.8297   22.1853  -28.3900 H   0  0  0  0  0  0  0  0  0  0  0  0
   -3.7012   21.8682  -29.9284 H   0  0  0  0  0  0  0  0  0  0  0  0
   -1.9134   22.0428  -29.9284 H   0  0  0  0  0  0  0  0  0  0  0  0
   -2.0702   24.3878  -29.3636 H   0  0  0  0  0  0  0  0  0  0  0  0
   -3.1938   24.0344  -30.7706 H   0  0  0  0  0  0  0  0  0  0  0  0
   -5.2689   24.4697  -27.3427 H   0  0  0  0  0  0  0  0  0  0  0  0
   -4.0714   23.0907  -27.5472 H   0  0  0  0  0  0  0  0  0  0  0  0
   -3.5791   24.6357  -25.6718 H   0  0  0  0  0  0  0  0  0  0  0  0
   -2.2758   24.4431  -26.8929 H   0  0  0  0  0  0  0  0  0  0  0  0
   -3.2951   25.9222  -26.8929 H   0  0  0  0  0  0  0  0  0  0  0  0
   -5.6722   25.7046  -29.2429 H   0  0  0  0  0  0  0  0  0  0  0  0
   -4.8923   24.8783  -30.7563 H   0  0  0  0  0  0  0  0  0  0  0  0
   -5.9179   22.8391  -29.8298 H   0  0  0  0  0  0  0  0  0  0  0  0
   -7.0226   24.1042  -28.9977 H   0  0  0  0  0  0  0  0  0  0  0  0
   -8.2377   24.2977  -30.7073 H   0  0  0  0  0  0  0  0  0  0  0  0
   -6.8169   24.5779  -31.7703 H   0  0  0  0  0  0  0  0  0  0  0  0
   -9.8228   19.3440  -31.3975 H   0  0  0  0  0  0  0  0  0  0  0  0
  -10.2941   20.1390  -32.9378 H   0  0  0  0  0  0  0  0  0  0  0  0
   -9.0396   18.8534  -32.9378 H   0  0  0  0  0  0  0  0  0  0  0  0
   -2.5177   21.9682  -32.9051 H   0  0  0  0  0  0  0  0  0  0  0  0
   -1.1859   20.1928  -33.9543 H   0  0  0  0  0  0  0  0  0  0  0  0
   -2.2662   18.0658  -34.6355 H   0  0  0  0  0  0  0  0  0  0  0  0
   -4.7075   17.7323  -34.2596 H   0  0  0  0  0  0  0  0  0  0  0  0
  1  2  1  0
  2  3  1  0
  3  4  1  0
  4  5  1  0
  3  6  1  0
  6  7  1  0
  7  8  1  0
  8  9  1  0
  9 10  1  0
 10 11  2  0
 11 12  1  0
 11 13  1  0
 13 14  2  0
 14 15  1  0
 15 16  2  0
 15 17  1  0
 17 18  2  0
 18 19  1  0
 19 20  2  0
 20 21  1  0
 21 22  2  0
 22 23  1  0
 23 24  2  0
 14  9  1  0
 22 17  1  0
 23 13  1  0
  1 25  1  0
  1 26  1  0
  1 27  1  0
  2 28  1  0
  2 29  1  0
  4 30  1  0
  4 31  1  0
  5 32  1  0
  5 33  1  0
  5 34  1  0
  6 35  1  0
  6 36  1  0
  7 37  1  0
  7 38  1  0
  8 39  1  0
  8 40  1  0
 12 41  1  0
 12 42  1  0
 12 43  1  0
 18 44  1  0
 19 45  1  0
 20 46  1  0
 21 47  1  0
M  CHG  1  11   1
M  END
>  <smiles>  (15) 
CCN(CC)CCCn1n[n+](C)c2c1C(=O)c1ccccc1C2=O

>  <score_type>  (15) 
oracle

>  <origin>  (15) 
adg

>  <m_score__min__energy>  (15) 
-7.79

>  <m_primary>  (15) 
energy

$$$$
15:0
     RDKit          3D

 69 74  0  0  0  0  0  0  0  0999 V2000
   -1.5510   24.4170  -26.1440 C   0  0  0  0  0  0  0  0  0  0  0  0
   -2.0980   24.7270  -27.5510 C   0  0  1  0  0  0  0  0  0  0  0  0
   -1.0150   25.1900  -28.5020 C   0  0  0  0  0  0  0  0  0  0  0  0
   -1.2320   26.1030  -29.3420 O   0  0  0  0  0  0  0  0  0  0  0  0
    0.2290   24.5700  -28.4900 O   0  0  0  0  0  0  0  0  0  0  0  0
   -3.0520   23.6040  -28.0990 C   0  0  1  0  0  0  0  0  0  0  0  0
   -4.0170   24.1520  -29.1910 C   0  0  0  0  0  0  0  0  0  0  0  0
   -3.7030   23.4210  -30.5070 C   0  0  0  0  0  0  0  0  0  0  0  0
   -2.4120   22.6710  -30.2200 C   0  0  2  0  0  0  0  0  0  0  0  0
   -1.9090   21.5900  -31.2100 C   0  0  2  0  0  0  0  0  0  0  0  0
   -2.8830   20.4740  -31.6160 C   0  0  0  0  0  0  0  0  0  0  0  0
   -2.3900   19.8300  -32.9150 C   0  0  0  0  0  0  0  0  0  0  0  0
   -0.8880   19.6320  -32.9460 C   0  0  0  0  0  0  0  0  0  0  0  0
   -0.3590   19.1240  -34.0830 C   0  0  0  0  0  0  0  0  0  0  0  0
    1.0820   18.8620  -34.1570 C   0  0  0  0  0  0  0  0  0  0  0  0
    1.9240   19.2150  -33.1470 C   0  0  0  0  0  0  0  0  0  0  0  0
    3.1790   18.7960  -33.5380 C   0  0  0  0  0  0  0  0  0  0  0  0
    3.0560   18.1830  -34.7340 N   0  0  0  0  0  0  0  0  0  0  0  0
    1.7870   18.2290  -35.1190 N   0  0  0  0  0  0  0  0  0  0  0  0
    1.3040   17.6960  -36.3630 C   0  0  0  0  0  0  0  0  0  0  0  0
    1.4610   18.4130  -37.5610 C   0  0  0  0  0  0  0  0  0  0  0  0
    1.0050   17.8760  -38.7690 C   0  0  0  0  0  0  0  0  0  0  0  0
    0.4000   16.6170  -38.7910 C   0  0  0  0  0  0  0  0  0  0  0  0
    0.2580   15.8890  -37.6060 C   0  0  0  0  0  0  0  0  0  0  0  0
    0.7130   16.4230  -36.3980 C   0  0  0  0  0  0  0  0  0  0  0  0
    1.4830   20.0570  -31.9990 C   0  0  0  0  0  0  0  0  0  0  0  0
   -0.0290   19.7900  -31.6550 C   0  0  2  0  0  0  0  0  0  0  0  0
   -0.1070   18.4120  -30.9420 C   0  0  0  0  0  0  0  0  0  0  0  0
   -0.5480   20.9950  -30.7360 C   0  0  2  0  0  0  0  0  0  0  0  0
   -0.5040   20.6980  -29.2010 C   0  0  0  0  0  0  0  0  0  0  0  0
   -1.0360   21.8510  -28.3170 C   0  0  0  0  0  0  0  0  0  0  0  0
   -2.4580   22.2950  -28.7360 C   0  0  1  0  0  0  0  0  0  0  0  0
   -3.4710   21.1500  -28.4140 C   0  0  0  0  0  0  0  0  0  0  0  0
   -2.2446   24.8101  -25.3861 H   0  0  0  0  0  0  0  0  0  0  0  0
   -1.4518   23.3284  -26.0208 H   0  0  0  0  0  0  0  0  0  0  0  0
   -0.5661   24.8912  -26.0208 H   0  0  0  0  0  0  0  0  0  0  0  0
   -2.7615   25.5996  -27.4597 H   0  0  0  0  0  0  0  0  0  0  0  0
   -3.5116   23.3095  -27.1440 H   0  0  0  0  0  0  0  0  0  0  0  0
   -5.0601   23.9625  -28.8976 H   0  0  0  0  0  0  0  0  0  0  0  0
   -3.8822   25.2369  -29.3129 H   0  0  0  0  0  0  0  0  0  0  0  0
   -4.5110   22.7212  -30.7666 H   0  0  0  0  0  0  0  0  0  0  0  0
   -3.6086   24.1103  -31.3590 H   0  0  0  0  0  0  0  0  0  0  0  0
   -1.5739   23.3507  -30.4336 H   0  0  0  0  0  0  0  0  0  0  0  0
   -1.7906   22.1563  -32.1456 H   0  0  0  0  0  0  0  0  0  0  0  0
   -2.9260   19.7148  -30.8212 H   0  0  0  0  0  0  0  0  0  0  0  0
   -3.8879   20.8949  -31.7680 H   0  0  0  0  0  0  0  0  0  0  0  0
   -2.8751   18.8489  -33.0257 H   0  0  0  0  0  0  0  0  0  0  0  0
   -2.6486   20.5118  -33.7385 H   0  0  0  0  0  0  0  0  0  0  0  0
   -1.0057   18.9089  -34.9464 H   0  0  0  0  0  0  0  0  0  0  0  0
    4.1135   18.9366  -32.9751 H   0  0  0  0  0  0  0  0  0  0  0  0
    3.8370   17.7720  -35.2940 H   0  0  0  0  0  0  0  0  0  0  0  0
    1.9446   19.4009  -37.5487 H   0  0  0  0  0  0  0  0  0  0  0  0
    1.1228   18.4454  -39.7027 H   0  0  0  0  0  0  0  0  0  0  0  0
    0.0354   16.1985  -39.7407 H   0  0  0  0  0  0  0  0  0  0  0  0
   -0.2124   14.8948  -37.6248 H   0  0  0  0  0  0  0  0  0  0  0  0
    0.6077   15.8430  -35.4693 H   0  0  0  0  0  0  0  0  0  0  0  0
    2.0998   19.8189  -31.1199 H   0  0  0  0  0  0  0  0  0  0  0  0
    1.5991   21.1156  -32.2746 H   0  0  0  0  0  0  0  0  0  0  0  0
   -0.0985   18.5620  -29.8523 H   0  0  0  0  0  0  0  0  0  0  0  0
   -1.0356   17.8999  -31.2344 H   0  0  0  0  0  0  0  0  0  0  0  0
    0.7578   17.7984  -31.2344 H   0  0  0  0  0  0  0  0  0  0  0  0
    0.1939   21.7936  -30.8837 H   0  0  0  0  0  0  0  0  0  0  0  0
   -1.1134   19.8035  -29.0050 H   0  0  0  0  0  0  0  0  0  0  0  0
    0.5545   20.5587  -28.9360 H   0  0  0  0  0  0  0  0  0  0  0  0
   -1.0636   21.5125  -27.2708 H   0  0  0  0  0  0  0  0  0  0  0  0
   -0.3618   22.7115  -28.4395 H   0  0  0  0  0  0  0  0  0  0  0  0
   -3.5671   21.0414  -27.3236 H   0  0  0  0  0  0  0  0  0  0  0  0
   -4.4522   21.3964  -28.8458 H   0  0  0  0  0  0  0  0  0  0  0  0
   -3.1069   20.2061  -28.8458 H   0  0  0  0  0  0  0  0  0  0  0  0
  1  2  1  0
  2  3  1  0
  3  4  2  0
  3  5  1  0
  2  6  1  0
  6  7  1  0
  7  8  1  0
  8  9  1  0
  9 10  1  0
 10 11  1  0
 11 12  1  0
 12 13  1  0
 13 14  2  0
 14 15  1  0
 15 16  2  0
 16 17  1  0
 17 18  2  0
 18 19  1  0
 19 20  1  0
 20 21  2  0
 21 22  1  0
 22 23  2  0
 23 24  1  0
 24 25  2  0
 16 26  1  0
 26 27  1  0
 27 28  1  1
 27 29  1  0
 29 30  1  0
 30 31  1  0
 31 32  1  0
 32 33  1  6
 32  6  1  0
 32  9  1  0
 29 10  1  0
 27 13  1  0
 19 15  1  0
 25 20  1  0
  1 34  1  0
  1 35  1  0
  1 36  1  0
  2 37  1  1
  6 38  1  1
  7 39  1  0
  7 40  1  0
  8 41  1  0
  8 42  1  0
  9 43  1  1
 10 44  1  6
 11 45  1  0
 11 46  1  0
 12 47  1  0
 12 48  1  0
 14 49  1  0
 17 50  1  0
 18 51  1  0
 21 52  1  0
 22 53  1  0
 23 54  1  0
 24 55  1  0
 25 56  1  0
 26 57  1  0
 26 58  1  0
 28 59  1  0
 28 60  1  0
 28 61  1  0
 29 62  1  1
 30 63  1  0
 30 64  1  0
 31 65  1  0
 31 66  1  0
 33 67  1  0
 33 68  1  0
 33 69  1  0
M  CHG  2   5  -1  18   1
M  END
>  <UniqueID>  (16) 
15

>  <SMILES>  (16) 
C[C@@H](C(=O)[O-])[C@H]1CCC2C3CCC4=Cc5c(c[nH+]n5-c5ccccc5)CC4(C)C3CCC21C

>  <Energy>  (16) 
156.17600554069884

>  <Genealogy>  (16) 
CC(C(=O)[O-])C1CCC2C3CCC4=Cc5c(c[nH+]n5-c5ccccc5)CC4(C)C3CCC12C (protonated)
C[C@@H](C(=O)[O-])[C@H]1CCC2C3CCC4=Cc5c(c[nH+]n5-c5ccccc5)CC4(C)C3CCC21C (chirality)
C[C@@H](C(=O)[O-])[C@H]1CCC2C3CCC4=Cc5c(c[nH+]n5-c5ccccc5)CC4(C)C3CCC21C (3D coordinates assigned)
C[C@@H](C(=O)[O-])[C@H]1CCC2C3CCC4=Cc5c(c[nH+]n5-c5ccccc5)CC4(C)C3CCC21C (nonaromatic ring conformer: 156.17600554069884 kcal/mol)

>  <smiles>  (16) 
CC(C(=O)O)C1CCC2C3CCC4=Cc5c(cnn5-c5ccccc5)CC4(C)C3CCC12C

>  <score_type>  (16) 
oracle

>  <origin>  (16) 
adg

>  <m_score__min__energy>  (16) 
-10.6

>  <m_primary>  (16) 
energy

$$$$
16:0
     RDKit          3D

 31 33  0  0  0  0  0  0  0  0999 V2000
   -9.5452   20.0042  -32.6249 H   0  0  0  0  0  0  0  0  0  0  0  0
   -8.7240   20.5760  -32.1680 C   0  0  0  0  0  0  0  0  0  0  0  0
   -8.9830   21.4390  -31.1010 C   0  0  0  0  0  0  0  0  0  0  0  0
  -10.0066   21.5386  -30.7106 H   0  0  0  0  0  0  0  0  0  0  0  0
   -7.9430   22.1760  -30.5290 C   0  0  0  0  0  0  0  0  0  0  0  0
   -8.1495   22.8464  -29.6817 H   0  0  0  0  0  0  0  0  0  0  0  0
   -6.6370   22.0660  -31.0290 C   0  0  0  0  0  0  0  0  0  0  0  0
   -5.5920   22.8370  -30.4220 N   0  0  0  0  0  0  0  0  0  0  0  0
   -5.3020   22.5840  -29.4500 H   0  0  0  0  0  0  0  0  0  0  0  0
   -5.1350   24.0830  -30.9740 C   0  0  0  0  0  0  0  0  0  0  0  0
   -5.7110   24.5800  -31.9790 O   0  0  0  0  0  0  0  0  0  0  0  0
   -4.0400   24.7880  -30.3860 N   0  0  0  0  0  0  0  0  0  0  0  0
   -3.7250   24.6290  -29.1640 N   0  0  0  0  0  0  0  0  0  0  0  0
   -2.3870   24.3160  -28.7720 C   0  0  0  0  0  0  0  0  0  0  0  0
   -1.2580   25.1210  -28.8520 C   0  0  0  0  0  0  0  0  0  0  0  0
   -1.2340   26.4200  -29.3460 O   0  0  0  0  0  0  0  0  0  0  0  0
   -0.1560   24.4880  -28.3840 N   0  0  0  0  0  0  0  0  0  0  0  0
   -0.6100   23.2730  -28.0090 C   0  0  0  0  0  0  0  0  0  0  0  0
    0.1450   22.2390  -27.4580 C   0  0  0  0  0  0  0  0  0  0  0  0
    1.2246   22.3568  -27.2831 H   0  0  0  0  0  0  0  0  0  0  0  0
   -0.5160   21.0390  -27.1320 C   0  0  0  0  0  0  0  0  0  0  0  0
    0.0518   20.2038  -26.6960 H   0  0  0  0  0  0  0  0  0  0  0  0
   -1.9040   20.9000  -27.3610 C   0  0  0  0  0  0  0  0  0  0  0  0
   -2.7830   19.2650  -26.9110 Br  0  0  0  0  0  0  0  0  0  0  0  0
   -2.6430   21.9600  -27.9190 C   0  0  0  0  0  0  0  0  0  0  0  0
   -3.7234   21.8658  -28.1031 H   0  0  0  0  0  0  0  0  0  0  0  0
   -1.9580   23.1330  -28.2300 C   0  0  0  0  0  0  0  0  0  0  0  0
   -6.3730   21.1730  -32.0890 C   0  0  0  0  0  0  0  0  0  0  0  0
   -4.5940   20.8570  -32.7290 Br  0  0  0  0  0  0  0  0  0  0  0  0
   -7.4220   20.4390  -32.6550 C   0  0  0  0  0  0  0  0  0  0  0  0
   -7.2198   19.7501  -33.4884 H   0  0  0  0  0  0  0  0  0  0  0  0
  1  2  1  0
  2  3  2  0
  3  4  1  0
  3  5  1  0
  5  6  1  0
  5  7  2  0
  7  8  1  0
  8  9  1  0
  8 10  1  0
 10 11  2  0
 10 12  1  0
 12 13  2  0
 13 14  1  0
 14 15  2  0
 15 16  1  0
 15 17  1  0
 17 18  1  0
 18 19  2  0
 19 20  1  0
 19 21  1  0
 21 22  1  0
 21 23  2  0
 23 24  1  0
 23 25  1  0
 25 26  1  0
 25 27  2  0
  7 28  1  0
 28 29  1  0
 28 30  2  0
 30 31  1  0
 30  2  1  0
 27 14  1  0
 27 18  1  0
M  CHG  2  16  -1  17  -1
M  END
>  <UniqueID>  (17) 
16

>  <SMILES>  (17) 
O=C(/N=N/c1c([O-])[n-]c2ccc(Br)cc12)Nc1ccccc1Br

>  <Energy>  (17) 
73.00097285110962

>  <Genealogy>  (17) 
O=C(N=Nc1c([O-])[n-]c2ccc(Br)cc12)Nc1ccccc1Br (protonated)
O=C(/N=N/c1c([O-])[n-]c2ccc(Br)cc12)Nc1ccccc1Br (cis-trans isomerization)
O=C(/N=N/c1c([O-])[n-]c2ccc(Br)cc12)Nc1ccccc1Br (3D coordinates assigned)
O=C(/N=N/c1c([O-])[n-]c2ccc(Br)cc12)Nc1ccccc1Br (optimized conformer: 73.00097285110962 kcal/mol)

>  <smiles>  (17) 
O=C(N=Nc1c(O)[nH]c2ccc(Br)cc12)Nc1ccccc1Br

>  <score_type>  (17) 
oracle

>  <origin>  (17) 
adg

>  <m_score__min__energy>  (17) 
-13.4

>  <m_primary>  (17) 
energy

$$$$
17:0
     RDKit          3D

 32 34  0  0  0  0  0  0  0  0999 V2000
   -6.0510   18.0660  -34.4930 C   0  0  0  0  0  0  0  0  0  0  0  0
   -5.9890   19.3720  -33.7730 C   0  0  0  0  0  0  0  0  0  0  0  0
   -7.0850   20.0960  -33.4370 N   0  0  0  0  0  0  0  0  0  0  0  0
   -6.7530   21.2070  -32.7290 C   0  0  0  0  0  0  0  0  0  0  0  0
   -7.6640   22.1490  -32.2480 C   0  0  0  0  0  0  0  0  0  0  0  0
   -7.1780   23.2510  -31.5250 C   0  0  0  0  0  0  0  0  0  0  0  0
   -5.7930   23.4030  -31.2890 C   0  0  0  0  0  0  0  0  0  0  0  0
   -5.1940   24.7950  -30.3940 S   0  0  0  0  0  0  0  0  0  0  0  0
   -5.6470   24.6850  -28.9660 O   0  0  0  0  0  0  0  0  0  0  0  0
   -5.7280   26.0710  -30.9830 O   0  0  0  0  0  0  0  0  0  0  0  0
   -3.4610   24.8330  -30.4390 N   0  0  0  0  0  0  0  0  0  0  0  0
   -2.5950   24.2640  -29.4480 C   0  0  0  0  0  0  0  0  0  0  0  0
   -1.9270   23.0410  -29.6500 C   0  0  0  0  0  0  0  0  0  0  0  0
   -1.1010   22.5190  -28.6500 C   0  0  0  0  0  0  0  0  0  0  0  0
   -0.9310   23.2090  -27.4470 C   0  0  0  0  0  0  0  0  0  0  0  0
   -1.5880   24.4260  -27.2420 C   0  0  0  0  0  0  0  0  0  0  0  0
   -1.3570   25.3720  -25.5990 Br  0  0  0  0  0  0  0  0  0  0  0  0
   -2.4160   24.9520  -28.2410 C   0  0  0  0  0  0  0  0  0  0  0  0
   -4.8890   22.4390  -31.7720 C   0  0  0  0  0  0  0  0  0  0  0  0
   -5.3970   21.3590  -32.4890 C   0  0  0  0  0  0  0  0  0  0  0  0
   -4.5660   20.0710  -33.1770 S   0  0  0  0  0  0  0  0  0  0  0  0
   -6.0900   17.2455  -33.7614 H   0  0  0  0  0  0  0  0  0  0  0  0
   -6.9515   18.0376  -35.1241 H   0  0  0  0  0  0  0  0  0  0  0  0
   -5.1572   17.9524  -35.1241 H   0  0  0  0  0  0  0  0  0  0  0  0
   -8.0630   19.8290  -33.6870 H   0  0  0  0  0  0  0  0  0  0  0  0
   -8.7421   22.0306  -32.4317 H   0  0  0  0  0  0  0  0  0  0  0  0
   -7.8822   24.0027  -31.1389 H   0  0  0  0  0  0  0  0  0  0  0  0
   -2.0553   22.4952  -30.5964 H   0  0  0  0  0  0  0  0  0  0  0  0
   -0.5832   21.5619  -28.8109 H   0  0  0  0  0  0  0  0  0  0  0  0
   -0.2810   22.7952  -26.6620 H   0  0  0  0  0  0  0  0  0  0  0  0
   -2.9290   25.9112  -28.0771 H   0  0  0  0  0  0  0  0  0  0  0  0
   -3.8089   22.5361  -31.5879 H   0  0  0  0  0  0  0  0  0  0  0  0
  1  2  1  0
  2  3  2  0
  3  4  1  0
  4  5  2  0
  5  6  1  0
  6  7  2  0
  7  8  1  0
  8  9  2  0
  8 10  2  0
  8 11  1  0
 11 12  1  0
 12 13  2  0
 13 14  1  0
 14 15  2  0
 15 16  1  0
 16 17  1  0
 16 18  2  0
  7 19  1  0
 19 20  2  0
 20 21  1  0
 21  2  1  0
 20  4  1  0
 18 12  1  0
  1 22  1  0
  1 23  1  0
  1 24  1  0
  3 25  1  0
  5 26  1  0
  6 27  1  0
 13 28  1  0
 14 29  1  0
 15 30  1  0
 18 31  1  0
 19 32  1  0
M  CHG  2   3   1  11  -1
M  END
>  <UniqueID>  (18) 
17

>  <SMILES>  (18) 
Cc1[nH+]c2ccc(S(=O)(=O)[N-]c3cccc(Br)c3)cc2s1

>  <Energy>  (18) 
69.73000576729237

>  <Genealogy>  (18) 
Cc1[nH+]c2ccc(S(=O)(=O)[N-]c3cccc(Br)c3)cc2s1 (protonated)
Cc1[nH+]c2ccc(S(=O)(=O)[N-]c3cccc(Br)c3)cc2s1 (3D coordinates assigned)
Cc1[nH+]c2ccc(S(=O)(=O)[N-]c3cccc(Br)c3)cc2s1 (optimized conformer: 69.73000576729237 kcal/mol)

>  <smiles>  (18) 
Cc1nc2ccc(S(=O)(=O)Nc3cccc(Br)c3)cc2s1

>  <score_type>  (18) 
oracle

>  <origin>  (18) 
adg

>  <m_score__min__energy>  (18) 
-9.6699999999999999

>  <m_primary>  (18) 
energy

$$$$
18:0
     RDKit          3D

 36 38  0  0  0  0  0  0  0  0999 V2000
   -5.7240   26.1550  -30.3990 C   0  0  0  0  0  0  0  0  0  0  0  0
   -5.5280   24.7550  -30.8730 C   0  0  0  0  0  0  0  0  0  0  0  0
   -6.5990   24.0080  -31.2350 N   0  0  0  0  0  0  0  0  0  0  0  0
   -6.4470   22.7360  -31.6860 C   0  0  0  0  0  0  0  0  0  0  0  0
   -5.1530   22.1930  -31.8030 C   0  0  0  0  0  0  0  0  0  0  0  0
   -4.0820   23.0130  -31.3890 C   0  0  0  0  0  0  0  0  0  0  0  0
   -2.8970   22.5890  -31.4280 O   0  0  0  0  0  0  0  0  0  0  0  0
   -4.3060   24.2470  -30.9540 O   0  0  0  0  0  0  0  0  0  0  0  0
   -4.8640   20.7850  -32.3070 C   0  0  0  0  0  0  0  0  0  0  0  0
   -5.5610   19.5890  -31.6060 C   0  0  0  0  0  0  0  0  0  0  0  0
   -7.0320   19.4910  -31.7940 N   0  0  2  0  0  0  0  0  0  0  0  0
   -7.4150   19.1440  -33.1880 C   0  0  0  0  0  0  0  0  0  0  0  0
   -6.4520   18.1630  -33.8090 C   0  0  0  0  0  0  0  0  0  0  0  0
   -6.4870   16.7840  -33.5480 C   0  0  0  0  0  0  0  0  0  0  0  0
   -5.5210   16.0650  -34.2350 C   0  0  0  0  0  0  0  0  0  0  0  0
   -4.6290   17.1440  -35.1640 S   0  0  0  0  0  0  0  0  0  0  0  0
   -5.4550   18.5330  -34.7060 C   0  0  0  0  0  0  0  0  0  0  0  0
   -7.7900   20.6540  -31.2450 C   0  0  0  0  0  0  0  0  0  0  0  0
   -7.6750   21.9630  -32.0470 C   0  0  0  0  0  0  0  0  0  0  0  0
   -5.7265   26.1728  -29.2991 H   0  0  0  0  0  0  0  0  0  0  0  0
   -4.9056   26.7871  -30.7741 H   0  0  0  0  0  0  0  0  0  0  0  0
   -6.6845   26.5380  -30.7741 H   0  0  0  0  0  0  0  0  0  0  0  0
   -5.1547   20.7539  -33.3674 H   0  0  0  0  0  0  0  0  0  0  0  0
   -3.7954   20.6367  -32.0924 H   0  0  0  0  0  0  0  0  0  0  0  0
   -5.1099   18.6631  -31.9922 H   0  0  0  0  0  0  0  0  0  0  0  0
   -5.4097   19.7478  -30.5281 H   0  0  0  0  0  0  0  0  0  0  0  0
   -7.3090   18.6710  -31.2010 H   0  0  0  0  0  0  0  0  0  0  0  0
   -8.4206   18.6983  -33.1799 H   0  0  0  0  0  0  0  0  0  0  0  0
   -7.3946   20.0667  -33.7865 H   0  0  0  0  0  0  0  0  0  0  0  0
   -7.2117   16.3185  -32.8638 H   0  0  0  0  0  0  0  0  0  0  0  0
   -5.3656   14.9774  -34.1812 H   0  0  0  0  0  0  0  0  0  0  0  0
   -5.2447   19.5551  -35.0540 H   0  0  0  0  0  0  0  0  0  0  0  0
   -8.8533   20.3753  -31.2032 H   0  0  0  0  0  0  0  0  0  0  0  0
   -7.3457   20.8646  -30.2610 H   0  0  0  0  0  0  0  0  0  0  0  0
   -7.6393   21.7204  -33.1193 H   0  0  0  0  0  0  0  0  0  0  0  0
   -8.5501   22.5853  -31.8084 H   0  0  0  0  0  0  0  0  0  0  0  0
  1  2  1  0
  2  3  2  0
  3  4  1  0
  4  5  2  0
  5  6  1  0
  6  7  2  0
  6  8  1  0
  5  9  1  0
  9 10  1  0
 10 11  1  0
 11 12  1  0
 12 13  1  0
 13 14  1  0
 14 15  2  0
 15 16  1  0
 16 17  1  0
 11 18  1  0
 18 19  1  0
  8  2  1  0
 17 13  2  0
 19  4  1  0
  1 20  1  0
  1 21  1  0
  1 22  1  0
  9 23  1  0
  9 24  1  0
 10 25  1  0
 10 26  1  0
 11 27  1  1
 12 28  1  0
 12 29  1  0
 14 30  1  0
 15 31  1  0
 17 32  1  0
 18 33  1  0
 18 34  1  0
 19 35  1  0
 19 36  1  0
M  CHG  1  11   1
M  END
>  <UniqueID>  (19) 
18

>  <SMILES>  (19) 
Cc1nc2c(c(=O)o1)CC[N@H+](Cc1ccsc1)CC2

>  <Energy>  (19) 
81.80682615678961

>  <Genealogy>  (19) 
Cc1nc2c(c(=O)o1)CC[NH+](Cc1ccsc1)CC2 (protonated)
Cc1nc2c(c(=O)o1)CC[N@H+](Cc1ccsc1)CC2 (chirality)
Cc1nc2c(c(=O)o1)CC[N@H+](Cc1ccsc1)CC2 (3D coordinates assigned)
Cc1nc2c(c(=O)o1)CC[N@H+](Cc1ccsc1)CC2 (nonaromatic ring conformer: 81.80682615678961 kcal/mol)

>  <smiles>  (19) 
Cc1nc2c(c(=O)o1)CCN(Cc1ccsc1)CC2

>  <score_type>  (19) 
oracle

>  <origin>  (19) 
adg

>  <m_score__min__energy>  (19) 
-4.8099999999999996

>  <m_primary>  (19) 
energy

$$$$
19:0
     RDKit          3D

 29 31  0  0  0  0  0  0  0  0999 V2000
   -2.6030   24.1950  -29.5050 C   0  0  0  0  0  0  0  0  0  0  0  0
   -3.4740   24.7790  -30.4680 O   0  0  0  0  0  0  0  0  0  0  0  0
   -4.8400   24.4810  -30.5720 C   0  0  0  0  0  0  0  0  0  0  0  0
   -5.8580   25.2910  -30.0080 C   0  0  0  0  0  0  0  0  0  0  0  0
   -7.2190   24.9330  -30.1490 C   0  0  0  0  0  0  0  0  0  0  0  0
   -7.5840   23.7710  -30.8520 C   0  0  0  0  0  0  0  0  0  0  0  0
   -6.5610   22.9990  -31.3940 C   0  0  0  0  0  0  0  0  0  0  0  0
   -6.6470   21.8890  -32.0810 O   0  0  0  0  0  0  0  0  0  0  0  0
   -5.4030   21.5370  -32.3730 C   0  0  0  0  0  0  0  0  0  0  0  0
   -5.0700   20.3200  -33.1510 C   0  0  0  0  0  0  0  0  0  0  0  0
   -3.7460   19.8490  -33.2550 C   0  0  0  0  0  0  0  0  0  0  0  0
   -3.4620   18.6980  -33.9950 C   0  0  0  0  0  0  0  0  0  0  0  0
   -4.4880   18.0050  -34.6400 C   0  0  0  0  0  0  0  0  0  0  0  0
   -5.8040   18.4620  -34.5450 C   0  0  0  0  0  0  0  0  0  0  0  0
   -6.0950   19.6140  -33.8050 C   0  0  0  0  0  0  0  0  0  0  0  0
   -4.4930   22.4180  -31.8780 N   0  0  0  0  0  0  0  0  0  0  0  0
   -5.2490   23.3390  -31.2600 C   0  0  0  0  0  0  0  0  0  0  0  0
   -2.9613   24.4352  -28.4931 H   0  0  0  0  0  0  0  0  0  0  0  0
   -2.5875   23.1033  -29.6389 H   0  0  0  0  0  0  0  0  0  0  0  0
   -1.5872   24.5953  -29.6389 H   0  0  0  0  0  0  0  0  0  0  0  0
   -5.5874   26.2039  -29.4571 H   0  0  0  0  0  0  0  0  0  0  0  0
   -7.9989   25.5691  -29.7049 H   0  0  0  0  0  0  0  0  0  0  0  0
   -8.6392   23.4830  -30.9691 H   0  0  0  0  0  0  0  0  0  0  0  0
   -2.9317   20.3902  -32.7510 H   0  0  0  0  0  0  0  0  0  0  0  0
   -2.4257   18.3366  -34.0695 H   0  0  0  0  0  0  0  0  0  0  0  0
   -4.2600   17.1001  -35.2223 H   0  0  0  0  0  0  0  0  0  0  0  0
   -6.6131   17.9160  -35.0523 H   0  0  0  0  0  0  0  0  0  0  0  0
   -7.1335   19.9696  -33.7346 H   0  0  0  0  0  0  0  0  0  0  0  0
   -3.4520   22.4030  -31.9490 H   0  0  0  0  0  0  0  0  0  0  0  0
  1  2  1  0
  2  3  1  0
  3  4  2  0
  4  5  1  0
  5  6  2  0
  6  7  1  0
  7  8  1  0
  8  9  1  0
  9 10  1  0
 10 11  2  0
 11 12  1  0
 12 13  2  0
 13 14  1  0
 14 15  2  0
  9 16  2  0
 16 17  1  0
 17  3  1  0
 17  7  2  0
 15 10  1  0
  1 18  1  0
  1 19  1  0
  1 20  1  0
  4 21  1  0
  5 22  1  0
  6 23  1  0
 11 24  1  0
 12 25  1  0
 13 26  1  0
 14 27  1  0
 15 28  1  0
 16 29  1  0
M  CHG  1  16   1
M  END
>  <UniqueID>  (20) 
19

>  <SMILES>  (20) 
COc1cccc2oc(-c3ccccc3)[nH+]c12

>  <Energy>  (20) 
70.78330739099111

>  <Genealogy>  (20) 
COc1cccc2oc(-c3ccccc3)[nH+]c12 (protonated)
COc1cccc2oc(-c3ccccc3)[nH+]c12 (3D coordinates assigned)
COc1cccc2oc(-c3ccccc3)[nH+]c12 (optimized conformer: 70.78330739099111 kcal/mol)

>  <smiles>  (20) 
COc1cccc2oc(-c3ccccc3)nc12

>  <score_type>  (20) 
oracle

>  <origin>  (20) 
adg

>  <m_score__min__energy>  (20) 
-5.5599999999999996

>  <m_primary>  (20) 
energy

$$$$
20:0
     RDKit          3D

 28 29  0  0  0  0  0  0  0  0999 V2000
   -2.9040   23.9580  -29.7130 C   0  0  0  0  0  0  0  0  0  0  0  0
   -3.5800   24.9540  -30.4700 O   0  0  0  0  0  0  0  0  0  0  0  0
   -4.9650   24.9460  -30.6590 C   0  0  0  0  0  0  0  0  0  0  0  0
   -5.5960   26.0240  -30.8360 O   0  0  0  0  0  0  0  0  0  0  0  0
   -5.6940   23.6400  -30.7080 C   0  0  0  0  0  0  0  0  0  0  0  0
   -6.1260   23.2930  -32.1360 C   0  0  0  0  0  0  0  0  0  0  0  0
   -7.3310   22.4600  -32.1340 N   0  0  0  0  0  0  0  0  0  0  0  0
   -8.5950   22.9030  -31.9200 C   0  0  0  0  0  0  0  0  0  0  0  0
   -9.4910   21.8410  -31.9030 C   0  0  0  0  0  0  0  0  0  0  0  0
   -8.7230   20.7130  -32.1070 C   0  0  0  0  0  0  0  0  0  0  0  0
   -9.0900   19.3700  -32.1590 C   0  0  0  0  0  0  0  0  0  0  0  0
   -8.0730   18.4190  -32.3550 C   0  0  0  0  0  0  0  0  0  0  0  0
   -6.7290   18.8270  -32.4930 C   0  0  0  0  0  0  0  0  0  0  0  0
   -6.3880   20.1910  -32.4360 C   0  0  0  0  0  0  0  0  0  0  0  0
   -7.4180   21.1170  -32.2420 C   0  0  0  0  0  0  0  0  0  0  0  0
   -3.0397   24.1580  -28.6399 H   0  0  0  0  0  0  0  0  0  0  0  0
   -3.3178   22.9684  -29.9568 H   0  0  0  0  0  0  0  0  0  0  0  0
   -1.8315   23.9771  -29.9568 H   0  0  0  0  0  0  0  0  0  0  0  0
   -5.0317   22.8464  -30.3318 H   0  0  0  0  0  0  0  0  0  0  0  0
   -6.5964   23.7242  -30.0847 H   0  0  0  0  0  0  0  0  0  0  0  0
   -6.3332   24.2235  -32.6849 H   0  0  0  0  0  0  0  0  0  0  0  0
   -5.3136   22.7315  -32.6204 H   0  0  0  0  0  0  0  0  0  0  0  0
   -8.8727   23.9580  -31.7792 H   0  0  0  0  0  0  0  0  0  0  0  0
  -10.5803   21.8893  -31.7579 H   0  0  0  0  0  0  0  0  0  0  0  0
  -10.1409   19.0637  -32.0503 H   0  0  0  0  0  0  0  0  0  0  0  0
   -8.3267   17.3496  -32.4011 H   0  0  0  0  0  0  0  0  0  0  0  0
   -5.9425   18.0734  -32.6462 H   0  0  0  0  0  0  0  0  0  0  0  0
   -5.3433   20.5189  -32.5408 H   0  0  0  0  0  0  0  0  0  0  0  0
  1  2  1  0
  2  3  1  0
  3  4  2  0
  3  5  1  0
  5  6  1  0
  6  7  1  0
  7  8  1  0
  8  9  2  0
  9 10  1  0
 10 11  2  0
 11 12  1  0
 12 13  2  0
 13 14  1  0
 14 15  2  0
 15  7  1  0
 15 10  1  0
  1 16  1  0
  1 17  1  0
  1 18  1  0
  5 19  1  0
  5 20  1  0
  6 21  1  0
  6 22  1  0
  8 23  1  0
  9 24  1  0
 11 25  1  0
 12 26  1  0
 13 27  1  0
 14 28  1  0
M  END
>  <UniqueID>  (21) 
20

>  <SMILES>  (21) 
COC(=O)CCn1ccc2ccccc21

>  <Energy>  (21) 
54.054620025433785

>  <Genealogy>  (21) 
COC(=O)CCn1ccc2ccccc21 (3D coordinates assigned)
COC(=O)CCn1ccc2ccccc21 (optimized conformer: 54.054620025433785 kcal/mol)

>  <smiles>  (21) 
COC(=O)CCn1ccc2ccccc21

>  <score_type>  (21) 
oracle

>  <origin>  (21) 
adg

>  <m_score__min__energy>  (21) 
-6.9699999999999998

>  <m_primary>  (21) 
energy

$$$$
21:0
     RDKit          3D

 34 35  0  0  0  0  0  0  0  0999 V2000
   -2.7510   21.2990  -32.9330 C   0  0  0  0  0  0  0  0  0  0  0  0
   -3.5180   22.2630  -32.2220 O   0  0  0  0  0  0  0  0  0  0  0  0
   -4.9130   22.2150  -32.0700 C   0  0  0  0  0  0  0  0  0  0  0  0
   -5.6650   21.0760  -32.4200 C   0  0  0  0  0  0  0  0  0  0  0  0
   -7.0520   21.0650  -32.2450 C   0  0  0  0  0  0  0  0  0  0  0  0
   -7.9790   19.6410  -32.6810 Cl  0  0  0  0  0  0  0  0  0  0  0  0
   -7.6980   22.1860  -31.7230 C   0  0  0  0  0  0  0  0  0  0  0  0
   -6.9640   23.3210  -31.3740 C   0  0  0  0  0  0  0  0  0  0  0  0
   -5.5650   23.3430  -31.5430 C   0  0  0  0  0  0  0  0  0  0  0  0
   -4.7830   24.4590  -31.2000 O   0  0  0  0  0  0  0  0  0  0  0  0
   -4.9800   25.2970  -30.0620 C   0  0  0  0  0  0  0  0  0  0  0  0
   -4.7910   24.5140  -28.7560 C   0  0  0  0  0  0  0  0  0  0  0  0
   -3.5840   23.6710  -28.8220 N   0  0  0  0  0  0  0  0  0  0  0  0
   -3.7340   22.3120  -28.7640 C   0  0  0  0  0  0  0  0  0  0  0  0
   -2.6220   21.4690  -28.7860 C   0  0  0  0  0  0  0  0  0  0  0  0
   -1.3470   22.0200  -28.8620 C   0  0  0  0  0  0  0  0  0  0  0  0
   -1.1880   23.4040  -28.9170 C   0  0  0  0  0  0  0  0  0  0  0  0
    0.0980   23.9400  -28.9880 O   0  0  0  0  0  0  0  0  0  0  0  0
   -2.3280   24.2270  -28.8990 C   0  0  0  0  0  0  0  0  0  0  0  0
   -2.1850   25.4800  -28.9520 O   0  0  0  0  0  0  0  0  0  0  0  0
   -2.2305   20.6448  -32.2181 H   0  0  0  0  0  0  0  0  0  0  0  0
   -3.4175   20.6941  -33.5654 H   0  0  0  0  0  0  0  0  0  0  0  0
   -2.0118   21.8125  -33.5654 H   0  0  0  0  0  0  0  0  0  0  0  0
   -5.1583   20.1912  -32.8329 H   0  0  0  0  0  0  0  0  0  0  0  0
   -8.7894   22.1755  -31.5860 H   0  0  0  0  0  0  0  0  0  0  0  0
   -7.4800   24.2023  -30.9652 H   0  0  0  0  0  0  0  0  0  0  0  0
   -4.2531   26.1220  -30.0940 H   0  0  0  0  0  0  0  0  0  0  0  0
   -6.0090   25.6849  -30.0894 H   0  0  0  0  0  0  0  0  0  0  0  0
   -4.6904   25.2234  -27.9214 H   0  0  0  0  0  0  0  0  0  0  0  0
   -5.6664   23.8656  -28.6035 H   0  0  0  0  0  0  0  0  0  0  0  0
   -4.7431   21.8789  -28.6993 H   0  0  0  0  0  0  0  0  0  0  0  0
   -2.7527   20.3776  -28.7436 H   0  0  0  0  0  0  0  0  0  0  0  0
   -0.4643   21.3638  -28.8787 H   0  0  0  0  0  0  0  0  0  0  0  0
    0.2650   24.9380  -29.0170 H   0  0  0  0  0  0  0  0  0  0  0  0
  1  2  1  0
  2  3  1  0
  3  4  2  0
  4  5  1  0
  5  6  1  0
  5  7  2  0
  7  8  1  0
  8  9  2  0
  9 10  1  0
 10 11  1  0
 11 12  1  0
 12 13  1  0
 13 14  1  0
 14 15  2  0
 15 16  1  0
 16 17  2  0
 17 18  1  0
 17 19  1  0
 19 20  2  0
  9  3  1  0
 19 13  1  0
  1 21  1  0
  1 22  1  0
  1 23  1  0
  4 24  1  0
  7 25  1  0
  8 26  1  0
 11 27  1  0
 11 28  1  0
 12 29  1  0
 12 30  1  0
 14 31  1  0
 15 32  1  0
 16 33  1  0
 18 34  1  0
M  END
>  <UniqueID>  (22) 
21

>  <SMILES>  (22) 
COc1cc(Cl)ccc1OCCn1cccc(O)c1=O

>  <Energy>  (22) 
34.27327213894435

>  <Genealogy>  (22) 
COc1cc(Cl)ccc1OCCn1cccc(O)c1=O (3D coordinates assigned)
COc1cc(Cl)ccc1OCCn1cccc(O)c1=O (optimized conformer: 34.27327213894435 kcal/mol)

>  <smiles>  (22) 
COc1cc(Cl)ccc1OCCn1cccc(O)c1=O

>  <score_type>  (22) 
oracle

>  <origin>  (22) 
adg

>  <m_score__min__energy>  (22) 
-7.1299999999999999

>  <m_primary>  (22) 
energy

$$$$
22:0
     RDKit          3D

 47 50  0  0  0  0  0  0  0  0999 V2000
   -0.3717   25.9095  -27.5864 H   0  0  0  0  0  0  0  0  0  0  0  0
   -1.0310   25.1420  -28.0180 C   0  0  0  0  0  0  0  0  0  0  0  0
   -1.9330   25.4830  -28.9740 N   0  0  0  0  0  0  0  0  0  0  0  0
   -2.7620   24.5630  -29.5440 C   0  0  0  0  0  0  0  0  0  0  0  0
   -3.6360   24.9100  -30.4450 N   0  0  0  0  0  0  0  0  0  0  0  0
   -4.8470   24.2140  -30.7850 C   0  0  0  0  0  0  0  0  0  0  0  0
   -6.0670   24.7320  -30.3340 C   0  0  0  0  0  0  0  0  0  0  0  0
   -6.0797   25.6658  -29.7527 H   0  0  0  0  0  0  0  0  0  0  0  0
   -7.2690   24.0760  -30.6140 C   0  0  0  0  0  0  0  0  0  0  0  0
   -8.2216   24.5048  -30.2694 H   0  0  0  0  0  0  0  0  0  0  0  0
   -7.2630   22.8730  -31.3330 C   0  0  0  0  0  0  0  0  0  0  0  0
   -8.4630   22.2040  -31.6190 C   0  0  0  0  0  0  0  0  0  0  0  0
   -9.4213   22.6290  -31.2857 H   0  0  0  0  0  0  0  0  0  0  0  0
   -8.4430   20.9980  -32.3270 C   0  0  0  0  0  0  0  0  0  0  0  0
   -9.3858   20.4770  -32.5500 H   0  0  0  0  0  0  0  0  0  0  0  0
   -7.2280   20.4530  -32.7520 C   0  0  0  0  0  0  0  0  0  0  0  0
   -7.2179   19.5041  -33.3082 H   0  0  0  0  0  0  0  0  0  0  0  0
   -6.0260   21.1090  -32.4730 C   0  0  0  0  0  0  0  0  0  0  0  0
   -5.0726   20.6739  -32.8073 H   0  0  0  0  0  0  0  0  0  0  0  0
   -6.0330   22.3220  -31.7670 C   0  0  0  0  0  0  0  0  0  0  0  0
   -4.8320   22.9910  -31.4810 C   0  0  0  0  0  0  0  0  0  0  0  0
   -3.8740   22.5566  -31.8028 H   0  0  0  0  0  0  0  0  0  0  0  0
   -2.7050   23.2290  -29.1240 C   0  0  0  0  0  0  0  0  0  0  0  0
   -3.3774   22.4816  -29.5703 H   0  0  0  0  0  0  0  0  0  0  0  0
   -1.7860   22.8460  -28.1300 C   0  0  0  0  0  0  0  0  0  0  0  0
   -1.6910   21.4870  -27.6600 N   0  0  0  0  0  0  0  0  0  0  0  0
   -2.2590   21.2060  -26.8300 H   0  0  0  0  0  0  0  0  0  0  0  0
   -0.8940   20.4420  -28.3070 C   0  0  0  0  0  0  0  0  0  0  0  0
   -1.2382   19.4573  -27.9578 H   0  0  0  0  0  0  0  0  0  0  0  0
    0.1639   20.5917  -28.0455 H   0  0  0  0  0  0  0  0  0  0  0  0
   -1.0370   20.5130  -29.8050 C   0  0  0  0  0  0  0  0  0  0  0  0
    0.0960   20.6240  -30.6270 C   0  0  0  0  0  0  0  0  0  0  0  0
    1.0979   20.6608  -30.1745 H   0  0  0  0  0  0  0  0  0  0  0  0
   -0.0410   20.6880  -32.0160 C   0  0  0  0  0  0  0  0  0  0  0  0
    0.8524   20.7809  -32.6510 H   0  0  0  0  0  0  0  0  0  0  0  0
   -1.3180   20.6340  -32.6060 C   0  0  0  0  0  0  0  0  0  0  0  0
   -1.5090   20.6980  -33.9950 O   0  0  0  0  0  0  0  0  0  0  0  0
   -0.4540   20.7770  -34.9490 C   0  0  0  0  0  0  0  0  0  0  0  0
    0.5101   20.8492  -34.4244 H   0  0  0  0  0  0  0  0  0  0  0  0
   -0.4617   19.8758  -35.5796 H   0  0  0  0  0  0  0  0  0  0  0  0
   -0.5958   21.6670  -35.5796 H   0  0  0  0  0  0  0  0  0  0  0  0
   -2.4450   20.5120  -31.7850 C   0  0  0  0  0  0  0  0  0  0  0  0
   -3.4468   20.4669  -32.2370 H   0  0  0  0  0  0  0  0  0  0  0  0
   -2.3080   20.4470  -30.3950 C   0  0  0  0  0  0  0  0  0  0  0  0
   -3.2011   20.3436  -29.7612 H   0  0  0  0  0  0  0  0  0  0  0  0
   -0.9390   23.8190  -27.5820 C   0  0  0  0  0  0  0  0  0  0  0  0
   -0.2047   23.5413  -26.8115 H   0  0  0  0  0  0  0  0  0  0  0  0
  1  2  1  0
  2  3  1  0
  3  4  1  0
  4  5  2  0
  5  6  1  0
  6  7  2  0
  7  8  1  0
  7  9  1  0
  9 10  1  0
  9 11  2  0
 11 12  1  0
 12 13  1  0
 12 14  2  0
 14 15  1  0
 14 16  1  0
 16 17  1  0
 16 18  2  0
 18 19  1  0
 18 20  1  0
 20 21  2  0
 21 22  1  0
  4 23  1  0
 23 24  1  0
 23 25  2  0
 25 26  1  0
 26 27  1  0
 26 28  1  0
 28 29  1  0
 28 30  1  0
 28 31  1  0
 31 32  2  0
 32 33  1  0
 32 34  1  0
 34 35  1  0
 34 36  2  0
 36 37  1  0
 37 38  1  0
 38 39  1  0
 38 40  1  0
 38 41  1  0
 36 42  1  0
 42 43  1  0
 42 44  2  0
 44 45  1  0
 25 46  1  0
 46 47  1  0
 46  2  2  0
 21  6  1  0
 44 31  1  0
 20 11  1  0
M  CHG  1   3  -1
M  END
>  <UniqueID>  (23) 
22

>  <SMILES>  (23) 
COc1ccc(CNc2cc[n-]/c(=N\c3ccc4ccccc4c3)c2)cc1

>  <Energy>  (23) 
60.21495832828456

>  <Genealogy>  (23) 
COc1ccc(CNc2cc[n-]c(=Nc3ccc4ccccc4c3)c2)cc1 (protonated)
COc1ccc(CNc2cc[n-]/c(=N\c3ccc4ccccc4c3)c2)cc1 (cis-trans isomerization)
COc1ccc(CNc2cc[n-]/c(=N\c3ccc4ccccc4c3)c2)cc1 (3D coordinates assigned)
COc1ccc(CNc2cc[n-]/c(=N\c3ccc4ccccc4c3)c2)cc1 (optimized conformer: 60.21495832828456 kcal/mol)

>  <smiles>  (23) 
COc1ccc(CNc2cc[nH]c(=Nc3ccc4ccccc4c3)c2)cc1

>  <score_type>  (23) 
oracle

>  <origin>  (23) 
adg

>  <m_score__min__energy>  (23) 
-10.539999999999999

>  <m_primary>  (23) 
energy

$$$$
23:0
     RDKit          3D

 40 42  0  0  0  0  0  0  0  0999 V2000
   -1.7476   24.1598  -29.8036 H   0  0  0  0  0  0  0  0  0  0  0  0
   -2.7700   23.9260  -29.4720 C   0  0  0  0  0  0  0  0  0  0  0  0
   -3.8640   24.1140  -30.4550 C   0  0  0  0  0  0  0  0  0  0  0  0
   -4.1420   25.2910  -30.8040 O   0  0  0  0  0  0  0  0  0  0  0  0
   -4.6040   22.9800  -31.0750 C   0  0  0  0  0  0  0  0  0  0  0  0
   -5.7260   23.2210  -31.7870 C   0  0  0  0  0  0  0  0  0  0  0  0
   -5.7861   24.1788  -32.3246 H   0  0  0  0  0  0  0  0  0  0  0  0
   -6.8810   22.3040  -31.9040 C   0  0  0  0  0  0  0  0  0  0  0  0
   -6.7360   21.1150  -32.6350 C   0  0  0  0  0  0  0  0  0  0  0  0
   -5.7897   20.9035  -33.1545 H   0  0  0  0  0  0  0  0  0  0  0  0
   -7.7900   20.1970  -32.7060 C   0  0  0  0  0  0  0  0  0  0  0  0
   -7.6771   19.2761  -33.2969 H   0  0  0  0  0  0  0  0  0  0  0  0
   -8.9850   20.4480  -32.0280 C   0  0  0  0  0  0  0  0  0  0  0  0
   -9.8137   19.7272  -32.0890 H   0  0  0  0  0  0  0  0  0  0  0  0
   -9.1280   21.6150  -31.2720 C   0  0  0  0  0  0  0  0  0  0  0  0
  -10.0659   21.8084  -30.7307 H   0  0  0  0  0  0  0  0  0  0  0  0
   -8.0790   22.5360  -31.2040 C   0  0  0  0  0  0  0  0  0  0  0  0
   -8.1908   23.4481  -30.5993 H   0  0  0  0  0  0  0  0  0  0  0  0
   -4.0740   21.5820  -30.8670 C   0  0  0  0  0  0  0  0  0  0  0  0
   -3.9959   21.3760  -29.7893 H   0  0  0  0  0  0  0  0  0  0  0  0
   -4.7597   20.8572  -31.3301 H   0  0  0  0  0  0  0  0  0  0  0  0
   -3.0801   21.4940  -31.3301 H   0  0  0  0  0  0  0  0  0  0  0  0
   -2.9250   23.4940  -28.2110 C   0  0  0  0  0  0  0  0  0  0  0  0
   -3.6958   22.7319  -28.0240 H   0  0  0  0  0  0  0  0  0  0  0  0
   -2.1350   23.9680  -27.0550 C   0  0  0  0  0  0  0  0  0  0  0  0
   -1.2610   23.1060  -26.3700 C   0  0  0  0  0  0  0  0  0  0  0  0
   -1.1698   22.0562  -26.6856 H   0  0  0  0  0  0  0  0  0  0  0  0
   -0.5070   23.5750  -25.2900 C   0  0  0  0  0  0  0  0  0  0  0  0
    0.1766   22.8948  -24.7608 H   0  0  0  0  0  0  0  0  0  0  0  0
   -0.6210   24.9100  -24.8810 C   0  0  0  0  0  0  0  0  0  0  0  0
   -1.5180   25.7700  -25.5520 C   0  0  0  0  0  0  0  0  0  0  0  0
   -1.6170   27.0670  -25.1590 N   0  0  0  0  0  0  0  0  0  0  0  0
   -0.8680   27.5490  -24.1330 C   0  0  0  0  0  0  0  0  0  0  0  0
   -0.9610   28.6015  -23.8269 H   0  0  0  0  0  0  0  0  0  0  0  0
    0.0210   26.7000  -23.4690 C   0  0  0  0  0  0  0  0  0  0  0  0
    0.6333   27.0824  -22.6391 H   0  0  0  0  0  0  0  0  0  0  0  0
    0.1270   25.3990  -23.8520 N   0  0  0  0  0  0  0  0  0  0  0  0
    0.7980   24.7790  -23.3460 H   0  0  0  0  0  0  0  0  0  0  0  0
   -2.2830   25.2930  -26.6210 C   0  0  0  0  0  0  0  0  0  0  0  0
   -3.0018   25.9581  -27.1220 H   0  0  0  0  0  0  0  0  0  0  0  0
  1  2  1  0
  2  3  1  0
  3  4  2  0
  3  5  1  0
  5  6  2  0
  6  7  1  0
  6  8  1  0
  8  9  2  0
  9 10  1  0
  9 11  1  0
 11 12  1  0
 11 13  2  0
 13 14  1  0
 13 15  1  0
 15 16  1  0
 15 17  2  0
 17 18  1  0
  5 19  1  0
 19 20  1  0
 19 21  1  0
 19 22  1  0
  2 23  2  3
 23 24  1  0
 23 25  1  0
 25 26  2  0
 26 27  1  0
 26 28  1  0
 28 29  1  0
 28 30  2  0
 30 31  1  0
 31 32  1  0
 32 33  2  0
 33 34  1  0
 33 35  1  0
 35 36  1  0
 35 37  2  0
 37 38  1  0
 31 39  2  0
 39 40  1  0
 17  8  1  0
 39 25  1  0
 37 30  1  0
M  CHG  1  37   1
M  END
>  <UniqueID>  (24) 
23

>  <SMILES>  (24) 
C/C(=C\c1ccccc1)C(=O)C=Cc1ccc2[nH+]ccnc2c1

>  <Energy>  (24) 
60.081242248980324

>  <Genealogy>  (24) 
CC(=Cc1ccccc1)C(=O)C=Cc1ccc2[nH+]ccnc2c1 (protonated)
C/C(=C\c1ccccc1)C(=O)C=Cc1ccc2[nH+]ccnc2c1 (cis-trans isomerization)
C/C(=C\c1ccccc1)C(=O)C=Cc1ccc2[nH+]ccnc2c1 (3D coordinates assigned)
C/C(=C\c1ccccc1)C(=O)C=Cc1ccc2[nH+]ccnc2c1 (optimized conformer: 60.081242248980324 kcal/mol)

>  <smiles>  (24) 
CC(=Cc1ccccc1)C(=O)C=Cc1ccc2nccnc2c1

>  <score_type>  (24) 
oracle

>  <origin>  (24) 
adg

>  <m_score__min__energy>  (24) 
-9.9800000000000004

>  <m_primary>  (24) 
energy

$$$$
24:0
     RDKit          3D

 42 44  0  0  0  0  0  0  0  0999 V2000
   -2.4280   24.5190  -27.6060 C   0  0  0  0  0  0  0  0  0  0  0  0
   -2.1090   24.5300  -29.0970 C   0  0  0  0  0  0  0  0  0  0  0  0
   -3.1790   23.8340  -29.8620 N   0  0  0  0  0  0  0  0  0  0  0  0
   -4.4370   23.7230  -29.0860 C   0  0  0  0  0  0  0  0  0  0  0  0
   -5.3580   24.9180  -29.3270 C   0  0  0  0  0  0  0  0  0  0  0  0
   -2.7330   22.4990  -30.3290 C   0  0  0  0  0  0  0  0  0  0  0  0
   -3.0680   22.3130  -31.8120 C   0  0  0  0  0  0  0  0  0  0  0  0
   -4.4450   21.8200  -31.9730 N   0  0  0  0  0  0  0  0  0  0  0  0
   -4.7050   20.4020  -32.0080 C   0  0  0  0  0  0  0  0  0  0  0  0
   -3.7450   19.5840  -32.0010 O   0  0  0  0  0  0  0  0  0  0  0  0
   -6.1000   19.9040  -32.0430 C   0  0  0  0  0  0  0  0  0  0  0  0
   -6.3630   18.5240  -32.0840 C   0  0  0  0  0  0  0  0  0  0  0  0
   -7.6780   18.0530  -32.1060 C   0  0  0  0  0  0  0  0  0  0  0  0
   -8.7460   18.9490  -32.0880 C   0  0  0  0  0  0  0  0  0  0  0  0
   -8.5100   20.3290  -32.0470 C   0  0  0  0  0  0  0  0  0  0  0  0
   -9.5840   21.2290  -32.0260 C   0  0  0  0  0  0  0  0  0  0  0  0
   -9.3480   22.6030  -31.9860 C   0  0  0  0  0  0  0  0  0  0  0  0
   -8.0420   23.0930  -31.9710 C   0  0  0  0  0  0  0  0  0  0  0  0
   -6.9460   22.2110  -31.9920 C   0  0  0  0  0  0  0  0  0  0  0  0
   -7.1760   20.8180  -32.0270 C   0  0  0  0  0  0  0  0  0  0  0  0
   -5.5600   22.7330  -31.9780 C   0  0  0  0  0  0  0  0  0  0  0  0
   -5.3600   23.9780  -31.9760 O   0  0  0  0  0  0  0  0  0  0  0  0
   -1.4912   24.5513  -27.0304 H   0  0  0  0  0  0  0  0  0  0  0  0
   -3.0424   25.3965  -27.3560 H   0  0  0  0  0  0  0  0  0  0  0  0
   -2.9805   23.6013  -27.3560 H   0  0  0  0  0  0  0  0  0  0  0  0
   -2.0343   25.5712  -29.4439 H   0  0  0  0  0  0  0  0  0  0  0  0
   -1.1553   24.0072  -29.2615 H   0  0  0  0  0  0  0  0  0  0  0  0
   -4.9607   22.8033  -29.3859 H   0  0  0  0  0  0  0  0  0  0  0  0
   -4.1790   23.6995  -28.0169 H   0  0  0  0  0  0  0  0  0  0  0  0
   -5.6789   25.3344  -28.3607 H   0  0  0  0  0  0  0  0  0  0  0  0
   -4.8177   25.6883  -29.8969 H   0  0  0  0  0  0  0  0  0  0  0  0
   -6.2405   24.5917  -29.8969 H   0  0  0  0  0  0  0  0  0  0  0  0
   -1.6455   22.4107  -30.1892 H   0  0  0  0  0  0  0  0  0  0  0  0
   -3.2530   21.7248  -29.7458 H   0  0  0  0  0  0  0  0  0  0  0  0
   -2.9666   23.2783  -32.3295 H   0  0  0  0  0  0  0  0  0  0  0  0
   -2.3744   21.5760  -32.2430 H   0  0  0  0  0  0  0  0  0  0  0  0
   -5.5270   17.8093  -32.0989 H   0  0  0  0  0  0  0  0  0  0  0  0
   -7.8716   16.9706  -32.1377 H   0  0  0  0  0  0  0  0  0  0  0  0
   -9.7786   18.5704  -32.1061 H   0  0  0  0  0  0  0  0  0  0  0  0
  -10.6167   20.8505  -32.0411 H   0  0  0  0  0  0  0  0  0  0  0  0
  -10.1958   23.3036  -31.9662 H   0  0  0  0  0  0  0  0  0  0  0  0
   -7.8675   24.1787  -31.9425 H   0  0  0  0  0  0  0  0  0  0  0  0
  1  2  1  0
  2  3  1  0
  3  4  1  0
  4  5  1  0
  3  6  1  0
  6  7  1  0
  7  8  1  0
  8  9  1  0
  9 10  2  0
  9 11  1  0
 11 12  1  0
 12 13  2  0
 13 14  1  0
 14 15  2  0
 15 16  1  0
 16 17  2  0
 17 18  1  0
 18 19  2  0
 19 20  1  0
 19 21  1  0
 21 22  2  0
 21  8  1  0
 20 11  2  0
 20 15  1  0
  1 23  1  0
  1 24  1  0
  1 25  1  0
  2 26  1  0
  2 27  1  0
  4 28  1  0
  4 29  1  0
  5 30  1  0
  5 31  1  0
  5 32  1  0
  6 33  1  0
  6 34  1  0
  7 35  1  0
  7 36  1  0
 12 37  1  0
 13 38  1  0
 14 39  1  0
 16 40  1  0
 17 41  1  0
 18 42  1  0
M  END
>  <UniqueID>  (25) 
24

>  <SMILES>  (25) 
CCN(CC)CCN1C(=O)c2cccc3cccc(c23)C1=O

>  <Energy>  (25) 
48.673432434726905

>  <Genealogy>  (25) 
CCN(CC)CCN1C(=O)c2cccc3cccc(c23)C1=O (3D coordinates assigned)
CCN(CC)CCN1C(=O)c2cccc3cccc(c23)C1=O (nonaromatic ring conformer: 48.673432434726905 kcal/mol)

>  <smiles>  (25) 
CCN(CC)CCN1C(=O)c2cccc3cccc(c23)C1=O

>  <score_type>  (25) 
oracle

>  <origin>  (25) 
adg

>  <m_score__min__energy>  (25) 
-8.0199999999999996

>  <m_primary>  (25) 
energy

$$$$
25:0
     RDKit          3D

 26 26  0  0  0  0  0  0  0  0999 V2000
   -8.7400   20.7860  -31.1960 C   0  0  0  0  0  0  0  0  0  0  0  0
   -7.9330   22.0090  -31.4280 N   0  0  0  0  0  0  0  0  0  0  0  0
   -8.8240   23.0610  -31.9750 C   0  0  0  0  0  0  0  0  0  0  0  0
   -6.8760   21.6910  -32.4170 C   0  0  0  0  0  0  0  0  0  0  0  0
   -7.3400   22.4310  -30.1220 C   0  0  0  0  0  0  0  0  0  0  0  0
   -6.1900   23.4140  -30.2420 C   0  0  0  0  0  0  0  0  0  0  0  0
   -6.4380   24.7910  -30.3520 C   0  0  0  0  0  0  0  0  0  0  0  0
   -5.3660   25.6780  -30.4690 C   0  0  0  0  0  0  0  0  0  0  0  0
   -4.0900   25.2090  -30.4860 N   0  0  0  0  0  0  0  0  0  0  0  0
   -3.8190   23.8800  -30.3920 C   0  0  0  0  0  0  0  0  0  0  0  0
   -4.8620   22.9580  -30.2730 C   0  0  0  0  0  0  0  0  0  0  0  0
   -8.8501   20.6191  -30.1143 H   0  0  0  0  0  0  0  0  0  0  0  0
   -9.7338   20.9107  -31.6508 H   0  0  0  0  0  0  0  0  0  0  0  0
   -8.2345   19.9214  -31.6508 H   0  0  0  0  0  0  0  0  0  0  0  0
   -9.2915   23.6129  -31.1462 H   0  0  0  0  0  0  0  0  0  0  0  0
   -8.2353   23.7556  -32.5922 H   0  0  0  0  0  0  0  0  0  0  0  0
   -9.6060   22.5947  -32.5922 H   0  0  0  0  0  0  0  0  0  0  0  0
   -5.9518   21.4129  -31.8893 H   0  0  0  0  0  0  0  0  0  0  0  0
   -7.2046   20.8520  -33.0479 H   0  0  0  0  0  0  0  0  0  0  0  0
   -6.6871   22.5721  -33.0479 H   0  0  0  0  0  0  0  0  0  0  0  0
   -8.1323   22.9007  -29.5206 H   0  0  0  0  0  0  0  0  0  0  0  0
   -6.9285   21.5230  -29.6570 H   0  0  0  0  0  0  0  0  0  0  0  0
   -7.4709   25.1693  -30.3461 H   0  0  0  0  0  0  0  0  0  0  0  0
   -5.5543   26.7589  -30.5476 H   0  0  0  0  0  0  0  0  0  0  0  0
   -2.7764   23.5299  -30.4097 H   0  0  0  0  0  0  0  0  0  0  0  0
   -4.6444   21.8819  -30.2040 H   0  0  0  0  0  0  0  0  0  0  0  0
  1  2  1  0
  2  3  1  0
  2  4  1  0
  2  5  1  0
  5  6  1  0
  6  7  2  0
  7  8  1  0
  8  9  2  0
  9 10  1  0
 10 11  2  0
 11  6  1  0
  1 12  1  0
  1 13  1  0
  1 14  1  0
  3 15  1  0
  3 16  1  0
  3 17  1  0
  4 18  1  0
  4 19  1  0
  4 20  1  0
  5 21  1  0
  5 22  1  0
  7 23  1  0
  8 24  1  0
 10 25  1  0
 11 26  1  0
M  CHG  1   2   1
M  END
>  <UniqueID>  (26) 
25

>  <SMILES>  (26) 
C[N+](C)(C)Cc1ccncc1

>  <Energy>  (26) 
30.168714263702558

>  <Genealogy>  (26) 
C[N+](C)(C)Cc1ccncc1 (3D coordinates assigned)
C[N+](C)(C)Cc1ccncc1 (optimized conformer: 30.168714263702558 kcal/mol)

>  <smiles>  (26) 
C[N+](C)(C)Cc1ccncc1

>  <score_type>  (26) 
oracle

>  <origin>  (26) 
adg

>  <m_score__min__energy>  (26) 
-4.2599999999999998

>  <m_primary>  (26) 
energy

$$$$
26:0
     RDKit          3D

 41 42  0  0  0  0  0  0  0  0999 V2000
   -3.4580   17.5510  -34.3450 C   0  0  0  0  0  0  0  0  0  0  0  0
   -4.9500   17.3990  -34.0240 C   0  0  0  0  0  0  0  0  0  0  0  0
   -5.7850   18.2570  -34.9830 C   0  0  0  0  0  0  0  0  0  0  0  0
   -5.2690   17.7750  -32.5590 C   0  0  0  0  0  0  0  0  0  0  0  0
   -5.8410   19.1360  -32.4600 N   0  0  0  0  0  0  0  0  0  0  0  0
   -4.9970   20.2290  -32.4730 C   0  0  0  0  0  0  0  0  0  0  0  0
   -3.7480   20.0480  -32.5350 O   0  0  0  0  0  0  0  0  0  0  0  0
   -5.4970   21.5170  -32.4360 N   0  0  0  0  0  0  0  0  0  0  0  0
   -4.5830   22.6740  -32.5410 C   0  0  0  0  0  0  0  0  0  0  0  0
   -3.8520   22.9210  -31.2160 C   0  0  0  0  0  0  0  0  0  0  0  0
   -4.0220   24.3310  -30.7930 N   0  0  0  0  0  0  0  0  0  0  0  0
   -3.5520   24.5410  -29.4150 C   0  0  0  0  0  0  0  0  0  0  0  0
   -5.4260   24.7620  -30.9110 C   0  0  0  0  0  0  0  0  0  0  0  0
   -6.8510   21.7280  -32.3740 C   0  0  0  0  0  0  0  0  0  0  0  0
   -7.3310   22.8950  -32.3530 O   0  0  0  0  0  0  0  0  0  0  0  0
   -7.6960   20.6350  -32.3470 C   0  0  0  0  0  0  0  0  0  0  0  0
   -9.3740   20.6060  -32.2970 S   0  0  0  0  0  0  0  0  0  0  0  0
   -9.4940   18.9240  -32.3380 C   0  0  0  0  0  0  0  0  0  0  0  0
   -8.2140   18.3760  -32.3950 C   0  0  0  0  0  0  0  0  0  0  0  0
   -7.1960   19.3520  -32.3960 C   0  0  0  0  0  0  0  0  0  0  0  0
   -2.8854   17.6093  -33.4076 H   0  0  0  0  0  0  0  0  0  0  0  0
   -3.1182   16.6828  -34.9288 H   0  0  0  0  0  0  0  0  0  0  0  0
   -3.3003   18.4699  -34.9288 H   0  0  0  0  0  0  0  0  0  0  0  0
   -5.2112   16.3388  -34.1572 H   0  0  0  0  0  0  0  0  0  0  0  0
   -6.4368   18.9267  -34.4028 H   0  0  0  0  0  0  0  0  0  0  0  0
   -5.1148   18.8562  -35.6170 H   0  0  0  0  0  0  0  0  0  0  0  0
   -6.4021   17.6034  -35.6170 H   0  0  0  0  0  0  0  0  0  0  0  0
   -5.9933   17.0527  -32.1543 H   0  0  0  0  0  0  0  0  0  0  0  0
   -4.3308   17.7527  -31.9851 H   0  0  0  0  0  0  0  0  0  0  0  0
   -3.8415   22.4759  -33.3290 H   0  0  0  0  0  0  0  0  0  0  0  0
   -5.1765   23.5675  -32.7848 H   0  0  0  0  0  0  0  0  0  0  0  0
   -4.2666   22.2572  -30.4430 H   0  0  0  0  0  0  0  0  0  0  0  0
   -2.7804   22.7141  -31.3532 H   0  0  0  0  0  0  0  0  0  0  0  0
   -4.3218   24.1970  -28.7086 H   0  0  0  0  0  0  0  0  0  0  0  0
   -2.6250   23.9715  -29.2530 H   0  0  0  0  0  0  0  0  0  0  0  0
   -3.3577   25.6115  -29.2530 H   0  0  0  0  0  0  0  0  0  0  0  0
   -5.8548   24.8936  -29.9066 H   0  0  0  0  0  0  0  0  0  0  0  0
   -5.4721   25.7157  -31.4572 H   0  0  0  0  0  0  0  0  0  0  0  0
   -5.9993   23.9985  -31.4572 H   0  0  0  0  0  0  0  0  0  0  0  0
  -10.4329   18.3511  -32.3223 H   0  0  0  0  0  0  0  0  0  0  0  0
   -8.0180   17.2943  -32.4351 H   0  0  0  0  0  0  0  0  0  0  0  0
  1  2  1  0
  2  3  1  0
  2  4  1  0
  4  5  1  0
  5  6  1  0
  6  7  2  0
  6  8  1  0
  8  9  1  0
  9 10  1  0
 10 11  1  0
 11 12  1  0
 11 13  1  0
  8 14  1  0
 14 15  2  0
 14 16  1  0
 16 17  1  0
 17 18  1  0
 18 19  2  0
 19 20  1  0
 20  5  1  0
 20 16  2  0
  1 21  1  0
  1 22  1  0
  1 23  1  0
  2 24  1  0
  3 25  1  0
  3 26  1  0
  3 27  1  0
  4 28  1  0
  4 29  1  0
  9 30  1  0
  9 31  1  0
 10 32  1  0
 10 33  1  0
 12 34  1  0
 12 35  1  0
 12 36  1  0
 13 37  1  0
 13 38  1  0
 13 39  1  0
 18 40  1  0
 19 41  1  0
M  END
>  <UniqueID>  (27) 
26

>  <SMILES>  (27) 
CC(C)Cn1c(=O)n(CCN(C)C)c(=O)c2sccc21

>  <Energy>  (27) 
73.31256504967128

>  <Genealogy>  (27) 
CC(C)Cn1c(=O)n(CCN(C)C)c(=O)c2sccc21 (3D coordinates assigned)
CC(C)Cn1c(=O)n(CCN(C)C)c(=O)c2sccc21 (optimized conformer: 73.31256504967128 kcal/mol)

>  <smiles>  (27) 
CC(C)Cn1c(=O)n(CCN(C)C)c(=O)c2sccc21

>  <score_type>  (27) 
oracle

>  <origin>  (27) 
adg

>  <m_score__min__energy>  (27) 
-6.9800000000000004

>  <m_primary>  (27) 
energy

$$$$
27:0
     RDKit          3D

 27 28  0  0  0  0  0  0  0  0999 V2000
   -4.1250   24.1870  -28.3410 C   0  0  0  0  0  0  0  0  0  0  0  0
   -4.8840   24.0520  -29.6180 C   0  0  0  0  0  0  0  0  0  0  0  0
   -4.3880   24.3850  -30.8270 N   0  0  0  0  0  0  0  0  0  0  0  0
   -5.3650   24.1770  -31.6610 O   0  0  0  0  0  0  0  0  0  0  0  0
   -6.4220   23.7500  -31.0120 C   0  0  0  0  0  0  0  0  0  0  0  0
   -7.7250   23.3880  -31.6550 C   0  0  0  0  0  0  0  0  0  0  0  0
   -7.8940   21.9210  -31.7030 N   0  0  0  0  0  0  0  0  0  0  0  0
   -6.9930   21.3290  -32.7130 C   0  0  0  0  0  0  0  0  0  0  0  0
   -6.8020   19.8250  -32.4540 C   0  0  0  0  0  0  0  0  0  0  0  0
   -8.2160   19.0380  -31.5900 S   0  0  0  0  0  0  0  0  0  0  0  0
   -9.4850   20.0820  -32.3720 C   0  0  0  0  0  0  0  0  0  0  0  0
   -9.3080   21.5570  -31.9740 C   0  0  0  0  0  0  0  0  0  0  0  0
   -6.1670   23.6560  -29.6950 N   0  0  0  0  0  0  0  0  0  0  0  0
   -4.8126   24.0647  -27.4911 H   0  0  0  0  0  0  0  0  0  0  0  0
   -3.3441   23.4137  -28.2951 H   0  0  0  0  0  0  0  0  0  0  0  0
   -3.6586   25.1822  -28.2951 H   0  0  0  0  0  0  0  0  0  0  0  0
   -8.5489   23.8276  -31.0737 H   0  0  0  0  0  0  0  0  0  0  0  0
   -7.7325   23.7787  -32.6833 H   0  0  0  0  0  0  0  0  0  0  0  0
   -7.4283   21.4710  -33.7132 H   0  0  0  0  0  0  0  0  0  0  0  0
   -6.0140   21.8266  -32.6495 H   0  0  0  0  0  0  0  0  0  0  0  0
   -6.6629   19.3212  -33.4219 H   0  0  0  0  0  0  0  0  0  0  0  0
   -5.9264   19.7215  -31.7962 H   0  0  0  0  0  0  0  0  0  0  0  0
   -9.4012   19.9919  -33.4651 H   0  0  0  0  0  0  0  0  0  0  0  0
  -10.4750   19.7439  -32.0319 H   0  0  0  0  0  0  0  0  0  0  0  0
   -9.6811   22.1882  -32.7940 H   0  0  0  0  0  0  0  0  0  0  0  0
   -9.8720   21.7158  -31.0431 H   0  0  0  0  0  0  0  0  0  0  0  0
   -6.8050   23.3520  -28.9270 H   0  0  0  0  0  0  0  0  0  0  0  0
  1  2  1  0
  2  3  2  0
  3  4  1  0
  4  5  1  0
  5  6  1  0
  6  7  1  0
  7  8  1  0
  8  9  1  0
  9 10  1  0
 10 11  1  0
 11 12  1  0
  5 13  2  0
 13  2  1  0
 12  7  1  0
  1 14  1  0
  1 15  1  0
  1 16  1  0
  6 17  1  0
  6 18  1  0
  8 19  1  0
  8 20  1  0
  9 21  1  0
  9 22  1  0
 11 23  1  0
 11 24  1  0
 12 25  1  0
 12 26  1  0
 13 27  1  0
M  CHG  1  13   1
M  END
>  <UniqueID>  (28) 
27

>  <SMILES>  (28) 
Cc1noc(CN2CCSCC2)[nH+]1

>  <Energy>  (28) 
63.396199737776044

>  <Genealogy>  (28) 
Cc1noc(CN2CCSCC2)[nH+]1 (protonated)
Cc1noc(CN2CCSCC2)[nH+]1 (3D coordinates assigned)
Cc1noc(CN2CCSCC2)[nH+]1 (nonaromatic ring conformer: 63.396199737776044 kcal/mol)

>  <smiles>  (28) 
Cc1noc(CN2CCSCC2)n1

>  <score_type>  (28) 
oracle

>  <origin>  (28) 
adg

>  <m_score__min__energy>  (28) 
-5.5300000000000002

>  <m_primary>  (28) 
energy

$$$$
28:0
     RDKit          3D

 52 53  0  0  0  0  0  0  0  0999 V2000
   -4.6320   22.6290  -32.7730 C   0  0  0  0  0  0  0  0  0  0  0  0
   -5.9450   22.2050  -32.1170 C   0  0  0  0  0  0  0  0  0  0  0  0
   -6.4100   23.2210  -31.1470 N   0  0  0  0  0  0  0  0  0  0  0  0
   -7.8800   23.4290  -31.2210 C   0  0  0  0  0  0  0  0  0  0  0  0
   -8.5650   22.1130  -31.5710 C   0  0  0  0  0  0  0  0  0  0  0  0
   -5.6660   24.4900  -31.3250 C   0  0  0  0  0  0  0  0  0  0  0  0
   -4.9550   24.9080  -30.0310 C   0  0  0  0  0  0  0  0  0  0  0  0
   -3.5110   25.0200  -30.2220 N   0  0  0  0  0  0  0  0  0  0  0  0
   -2.4740   24.7320  -29.2730 C   0  0  0  0  0  0  0  0  0  0  0  0
   -1.6760   25.6560  -28.9650 O   0  0  0  0  0  0  0  0  0  0  0  0
   -2.2890   23.3790  -28.6310 C   0  0  0  0  0  0  0  0  0  0  0  0
   -2.0820   22.3140  -29.6300 N   0  0  0  0  0  0  0  0  0  0  0  0
   -0.8210   22.1010  -30.1200 C   0  0  0  0  0  0  0  0  0  0  0  0
   -0.5820   21.1100  -31.0700 C   0  0  0  0  0  0  0  0  0  0  0  0
   -1.6420   20.3460  -31.5460 C   0  0  0  0  0  0  0  0  0  0  0  0
   -2.9440   20.5890  -31.0900 C   0  0  0  0  0  0  0  0  0  0  0  0
   -4.0520   19.8000  -31.5610 N   0  0  0  0  0  0  0  0  0  0  0  0
   -4.1500   19.2910  -32.9020 C   0  0  0  0  0  0  0  0  0  0  0  0
   -3.4930   19.8420  -33.8280 O   0  0  0  0  0  0  0  0  0  0  0  0
   -5.0480   18.1540  -33.2220 C   0  0  0  0  0  0  0  0  0  0  0  0
   -6.3980   18.1640  -32.8230 C   0  0  0  0  0  0  0  0  0  0  0  0
   -7.2330   17.0820  -33.1230 C   0  0  0  0  0  0  0  0  0  0  0  0
   -6.7310   15.9800  -33.8180 C   0  0  0  0  0  0  0  0  0  0  0  0
   -5.3910   15.9540  -34.2100 C   0  0  0  0  0  0  0  0  0  0  0  0
   -4.5510   17.0320  -33.9120 C   0  0  0  0  0  0  0  0  0  0  0  0
   -3.1450   21.5900  -30.1180 C   0  0  0  0  0  0  0  0  0  0  0  0
   -4.3150   21.8250  -29.7080 O   0  0  0  0  0  0  0  0  0  0  0  0
   -3.8931   22.8676  -31.9938 H   0  0  0  0  0  0  0  0  0  0  0  0
   -4.2528   21.8077  -33.3988 H   0  0  0  0  0  0  0  0  0  0  0  0
   -4.8048   23.5170  -33.3988 H   0  0  0  0  0  0  0  0  0  0  0  0
   -6.7104   22.0760  -32.8964 H   0  0  0  0  0  0  0  0  0  0  0  0
   -5.7769   21.2604  -31.5790 H   0  0  0  0  0  0  0  0  0  0  0  0
   -8.2487   23.7864  -30.2482 H   0  0  0  0  0  0  0  0  0  0  0  0
   -8.1050   24.1758  -31.9966 H   0  0  0  0  0  0  0  0  0  0  0  0
   -8.8397   21.5852  -30.6458 H   0  0  0  0  0  0  0  0  0  0  0  0
   -9.4715   22.3167  -32.1599 H   0  0  0  0  0  0  0  0  0  0  0  0
   -7.8781   21.4874  -32.1599 H   0  0  0  0  0  0  0  0  0  0  0  0
   -4.9160   24.3569  -32.1186 H   0  0  0  0  0  0  0  0  0  0  0  0
   -6.3846   25.2778  -31.5954 H   0  0  0  0  0  0  0  0  0  0  0  0
   -5.3486   25.8825  -29.7064 H   0  0  0  0  0  0  0  0  0  0  0  0
   -5.1423   24.1352  -29.2709 H   0  0  0  0  0  0  0  0  0  0  0  0
   -1.4124   23.4182  -27.9676 H   0  0  0  0  0  0  0  0  0  0  0  0
   -3.2048   23.1428  -28.0692 H   0  0  0  0  0  0  0  0  0  0  0  0
    0.0136   22.7200  -29.7591 H   0  0  0  0  0  0  0  0  0  0  0  0
    0.4384   20.9332  -31.4410 H   0  0  0  0  0  0  0  0  0  0  0  0
   -1.4577   19.5495  -32.2819 H   0  0  0  0  0  0  0  0  0  0  0  0
   -4.8730   19.6720  -30.9270 H   0  0  0  0  0  0  0  0  0  0  0  0
   -6.7989   19.0276  -32.2721 H   0  0  0  0  0  0  0  0  0  0  0  0
   -8.2875   17.0997  -32.8105 H   0  0  0  0  0  0  0  0  0  0  0  0
   -7.3907   15.1327  -34.0566 H   0  0  0  0  0  0  0  0  0  0  0  0
   -4.9952   15.0839  -34.7543 H   0  0  0  0  0  0  0  0  0  0  0  0
   -3.4951   17.0029  -34.2188 H   0  0  0  0  0  0  0  0  0  0  0  0
  1  2  1  0
  2  3  1  0
  3  4  1  0
  4  5  1  0
  3  6  1  0
  6  7  1  0
  7  8  1  0
  8  9  1  0
  9 10  2  0
  9 11  1  0
 11 12  1  0
 12 13  1  0
 13 14  2  0
 14 15  1  0
 15 16  2  0
 16 17  1  0
 17 18  1  0
 18 19  2  0
 18 20  1  0
 20 21  2  0
 21 22  1  0
 22 23  2  0
 23 24  1  0
 24 25  2  0
 16 26  1  0
 26 27  2  0
 26 12  1  0
 25 20  1  0
  1 28  1  0
  1 29  1  0
  1 30  1  0
  2 31  1  0
  2 32  1  0
  4 33  1  0
  4 34  1  0
  5 35  1  0
  5 36  1  0
  5 37  1  0
  6 38  1  0
  6 39  1  0
  7 40  1  0
  7 41  1  0
 11 42  1  0
 11 43  1  0
 13 44  1  0
 14 45  1  0
 15 46  1  0
 17 47  1  0
 21 48  1  0
 22 49  1  0
 23 50  1  0
 24 51  1  0
 25 52  1  0
M  CHG  1   8  -1
M  END
>  <UniqueID>  (29) 
28

>  <SMILES>  (29) 
CCN(CC)CC[N-]C(=O)Cn1cccc(NC(=O)c2ccccc2)c1=O

>  <Energy>  (29) 
58.26631937797219

>  <Genealogy>  (29) 
CCN(CC)CC[N-]C(=O)Cn1cccc(NC(=O)c2ccccc2)c1=O (protonated)
CCN(CC)CC[N-]C(=O)Cn1cccc(NC(=O)c2ccccc2)c1=O (3D coordinates assigned)
CCN(CC)CC[N-]C(=O)Cn1cccc(NC(=O)c2ccccc2)c1=O (optimized conformer: 58.26631937797219 kcal/mol)

>  <smiles>  (29) 
CCN(CC)CCNC(=O)Cn1cccc(NC(=O)c2ccccc2)c1=O

>  <score_type>  (29) 
oracle

>  <origin>  (29) 
adg

>  <m_score__min__energy>  (29) 
-9.2799999999999994

>  <m_primary>  (29) 
energy

$$$$
29:0
     RDKit          3D

 48 50  0  0  0  0  0  0  0  0999 V2000
   -4.0970   20.9990  -32.8790 C   0  0  0  0  0  0  0  0  0  0  0  0
   -3.1740   21.6630  -31.8940 C   0  0  0  0  0  0  0  0  0  0  0  0
   -1.8140   21.3170  -31.8950 C   0  0  0  0  0  0  0  0  0  0  0  0
   -0.9300   21.9120  -30.9990 C   0  0  0  0  0  0  0  0  0  0  0  0
   -1.3940   22.8490  -30.0780 C   0  0  0  0  0  0  0  0  0  0  0  0
   -2.7560   23.1880  -30.0280 C   0  0  0  0  0  0  0  0  0  0  0  0
   -3.2270   24.2090  -29.0290 C   0  0  0  0  0  0  0  0  0  0  0  0
   -3.6550   22.5930  -30.9440 C   0  0  0  0  0  0  0  0  0  0  0  0
   -5.0500   22.9400  -30.9170 N   0  0  0  0  0  0  0  0  0  0  0  0
   -5.6640   23.6090  -32.0640 C   0  0  0  0  0  0  0  0  0  0  0  0
   -7.0570   23.0150  -32.3270 C   0  0  0  0  0  0  0  0  0  0  0  0
   -7.8840   22.8260  -31.1000 N   0  0  0  0  0  0  0  0  0  0  0  0
   -8.3840   21.4390  -30.9650 C   0  0  0  0  0  0  0  0  0  0  0  0
   -8.6620   20.8280  -32.3430 C   0  0  0  0  0  0  0  0  0  0  0  0
   -7.7420   19.6630  -32.6020 C   0  0  0  0  0  0  0  0  0  0  0  0
   -7.7100   18.5730  -31.7130 C   0  0  0  0  0  0  0  0  0  0  0  0
   -6.8380   17.5040  -31.9380 C   0  0  0  0  0  0  0  0  0  0  0  0
   -5.9850   17.5170  -33.0470 C   0  0  0  0  0  0  0  0  0  0  0  0
   -5.1400   16.4780  -33.2650 F   0  0  0  0  0  0  0  0  0  0  0  0
   -6.0000   18.6040  -33.9290 C   0  0  0  0  0  0  0  0  0  0  0  0
   -6.8720   19.6770  -33.7050 C   0  0  0  0  0  0  0  0  0  0  0  0
   -7.2430   23.3010  -29.8520 C   0  0  0  0  0  0  0  0  0  0  0  0
   -5.8250   22.7350  -29.6910 C   0  0  0  0  0  0  0  0  0  0  0  0
   -4.8732   20.4406  -32.3352 H   0  0  0  0  0  0  0  0  0  0  0  0
   -4.5709   21.7645  -33.5110 H   0  0  0  0  0  0  0  0  0  0  0  0
   -3.5219   20.3064  -33.5110 H   0  0  0  0  0  0  0  0  0  0  0  0
   -1.4429   20.5685  -32.6106 H   0  0  0  0  0  0  0  0  0  0  0  0
    0.1362   21.6420  -31.0182 H   0  0  0  0  0  0  0  0  0  0  0  0
   -0.6873   23.3274  -29.3840 H   0  0  0  0  0  0  0  0  0  0  0  0
   -3.0533   23.8324  -28.0102 H   0  0  0  0  0  0  0  0  0  0  0  0
   -2.6705   25.1469  -29.1731 H   0  0  0  0  0  0  0  0  0  0  0  0
   -4.3016   24.3944  -29.1731 H   0  0  0  0  0  0  0  0  0  0  0  0
   -5.7593   24.6842  -31.8520 H   0  0  0  0  0  0  0  0  0  0  0  0
   -5.0321   23.4616  -32.9522 H   0  0  0  0  0  0  0  0  0  0  0  0
   -7.5973   23.6908  -33.0062 H   0  0  0  0  0  0  0  0  0  0  0  0
   -6.8977   22.0153  -32.7573 H   0  0  0  0  0  0  0  0  0  0  0  0
   -7.6280   20.8313  -30.4462 H   0  0  0  0  0  0  0  0  0  0  0  0
   -9.3210   21.4548  -30.3890 H   0  0  0  0  0  0  0  0  0  0  0  0
   -9.7049   20.4803  -32.3806 H   0  0  0  0  0  0  0  0  0  0  0  0
   -8.4885   21.5947  -33.1124 H   0  0  0  0  0  0  0  0  0  0  0  0
   -8.3745   18.5620  -30.8365 H   0  0  0  0  0  0  0  0  0  0  0  0
   -6.8224   16.6518  -31.2426 H   0  0  0  0  0  0  0  0  0  0  0  0
   -5.3265   18.6155  -34.7986 H   0  0  0  0  0  0  0  0  0  0  0  0
   -6.8756   20.5336  -34.3951 H   0  0  0  0  0  0  0  0  0  0  0  0
   -7.1879   24.3994  -29.8752 H   0  0  0  0  0  0  0  0  0  0  0  0
   -7.8491   22.9546  -29.0019 H   0  0  0  0  0  0  0  0  0  0  0  0
   -5.3237   23.2460  -28.8558 H   0  0  0  0  0  0  0  0  0  0  0  0
   -5.8929   21.6559  -29.4886 H   0  0  0  0  0  0  0  0  0  0  0  0
  1  2  1  0
  2  3  2  0
  3  4  1  0
  4  5  2  0
  5  6  1  0
  6  7  1  0
  6  8  2  0
  8  9  1  0
  9 10  1  0
 10 11  1  0
 11 12  1  0
 12 13  1  0
 13 14  1  0
 14 15  1  0
 15 16  2  0
 16 17  1  0
 17 18  2  0
 18 19  1  0
 18 20  1  0
 20 21  2  0
 12 22  1  0
 22 23  1  0
  8  2  1  0
 23  9  1  0
 21 15  1  0
  1 24  1  0
  1 25  1  0
  1 26  1  0
  3 27  1  0
  4 28  1  0
  5 29  1  0
  7 30  1  0
  7 31  1  0
  7 32  1  0
 10 33  1  0
 10 34  1  0
 11 35  1  0
 11 36  1  0
 13 37  1  0
 13 38  1  0
 14 39  1  0
 14 40  1  0
 16 41  1  0
 17 42  1  0
 20 43  1  0
 21 44  1  0
 22 45  1  0
 22 46  1  0
 23 47  1  0
 23 48  1  0
M  END
>  <UniqueID>  (30) 
29

>  <SMILES>  (30) 
Cc1cccc(C)c1N1CCN(CCc2ccc(F)cc2)CC1

>  <Energy>  (30) 
59.510808783476804

>  <Genealogy>  (30) 
Cc1cccc(C)c1N1CCN(CCc2ccc(F)cc2)CC1 (3D coordinates assigned)
Cc1cccc(C)c1N1CCN(CCc2ccc(F)cc2)CC1 (nonaromatic ring conformer: 59.510808783476804 kcal/mol)

>  <smiles>  (30) 
Cc1cccc(C)c1N1CCN(CCc2ccc(F)cc2)CC1

>  <score_type>  (30) 
oracle

>  <origin>  (30) 
adg

>  <m_score__min__energy>  (30) 
-8.3499999999999996

>  <m_primary>  (30) 
energy

$$$$
30:0
     RDKit          3D

 70 73  0  0  0  0  0  0  0  0999 V2000
   -5.5170   25.0300  -30.1710 C   0  0  0  0  0  0  0  0  0  0  0  0
   -4.6450   24.1730  -29.2900 C   0  0  0  0  0  0  0  0  0  0  0  0
   -4.5790   24.5250  -27.9310 C   0  0  0  0  0  0  0  0  0  0  0  0
   -3.5550   24.0450  -27.1180 C   0  0  0  0  0  0  0  0  0  0  0  0
   -2.5440   23.2550  -27.6610 C   0  0  0  0  0  0  0  0  0  0  0  0
   -2.6040   22.8620  -29.0030 C   0  0  0  0  0  0  0  0  0  0  0  0
   -1.5350   22.1580  -29.5850 C   0  0  0  0  0  0  0  0  0  0  0  0
   -1.5750   21.7960  -30.9340 C   0  0  0  0  0  0  0  0  0  0  0  0
   -2.7390   22.0680  -31.6520 C   0  0  0  0  0  0  0  0  0  0  0  0
   -3.1140   21.6330  -32.9140 C   0  0  0  0  0  0  0  0  0  0  0  0
   -2.3270   20.9480  -33.9020 N   0  0  0  0  0  0  0  0  0  0  0  0
   -1.7030   19.6360  -33.7180 C   0  0  0  0  0  0  0  0  0  0  0  0
   -0.1710   19.7240  -33.8030 C   0  0  0  0  0  0  0  0  0  0  0  0
    0.3260   21.1720  -33.7010 C   0  0  0  0  0  0  0  0  0  0  0  0
    0.1910   21.8820  -34.9930 N   0  0  0  0  0  0  0  0  0  0  0  0
   -0.0310   20.9190  -36.0840 C   0  0  0  0  0  0  0  0  0  0  0  0
    1.3920   22.6850  -35.2870 C   0  0  0  0  0  0  0  0  0  0  0  0
   -4.4340   21.8470  -33.0580 N   0  0  0  0  0  0  0  0  0  0  0  0
   -4.8500   22.4170  -31.9030 C   0  0  0  0  0  0  0  0  0  0  0  0
   -6.3040   22.3760  -31.4990 C   0  0  0  0  0  0  0  0  0  0  0  0
   -7.1580   22.0850  -32.6590 N   0  0  0  0  0  0  0  0  0  0  0  0
   -8.1440   21.0380  -32.3470 C   0  0  0  0  0  0  0  0  0  0  0  0
   -7.7780   19.7280  -33.0570 C   0  0  0  0  0  0  0  0  0  0  0  0
   -6.3220   19.6150  -33.3020 N   0  0  0  0  0  0  0  0  0  0  0  0
   -5.6190   19.0250  -32.1300 C   0  0  0  0  0  0  0  0  0  0  0  0
   -5.3680   17.5200  -32.2870 C   0  0  0  0  0  0  0  0  0  0  0  0
   -4.4880   17.2290  -33.5140 C   0  0  0  0  0  0  0  0  0  0  0  0
   -4.6370   18.2970  -34.6120 C   0  0  0  0  0  0  0  0  0  0  0  0
   -6.0370   18.9190  -34.5870 C   0  0  0  0  0  0  0  0  0  0  0  0
   -3.8050   22.6560  -31.0590 N   0  0  0  0  0  0  0  0  0  0  0  0
   -3.7350   23.2010  -29.7990 C   0  0  0  0  0  0  0  0  0  0  0  0
   -6.1616   25.6635  -29.5439 H   0  0  0  0  0  0  0  0  0  0  0  0
   -4.8834   25.6666  -30.8061 H   0  0  0  0  0  0  0  0  0  0  0  0
   -6.1425   24.3855  -30.8061 H   0  0  0  0  0  0  0  0  0  0  0  0
   -5.3458   25.1880  -27.5040 H   0  0  0  0  0  0  0  0  0  0  0  0
   -3.5445   24.2900  -26.0457 H   0  0  0  0  0  0  0  0  0  0  0  0
   -1.6971   22.9396  -27.0339 H   0  0  0  0  0  0  0  0  0  0  0  0
   -0.6606   21.8902  -28.9737 H   0  0  0  0  0  0  0  0  0  0  0  0
   -0.7133   21.3106  -31.4156 H   0  0  0  0  0  0  0  0  0  0  0  0
   -1.9950   21.5170  -34.7140 H   0  0  0  0  0  0  0  0  0  0  0  0
   -1.9841   19.2419  -32.7303 H   0  0  0  0  0  0  0  0  0  0  0  0
   -2.0555   18.9707  -34.5199 H   0  0  0  0  0  0  0  0  0  0  0  0
    0.2649   19.1396  -32.9793 H   0  0  0  0  0  0  0  0  0  0  0  0
    0.1394   19.3253  -34.7801 H   0  0  0  0  0  0  0  0  0  0  0  0
   -0.2654   21.7005  -32.9388 H   0  0  0  0  0  0  0  0  0  0  0  0
    1.3908   21.1538  -33.4257 H   0  0  0  0  0  0  0  0  0  0  0  0
   -0.2590   19.9301  -35.6595 H   0  0  0  0  0  0  0  0  0  0  0  0
   -0.8752   21.2554  -36.7039 H   0  0  0  0  0  0  0  0  0  0  0  0
    0.8752   20.8519  -36.7039 H   0  0  0  0  0  0  0  0  0  0  0  0
    1.8626   22.9997  -34.3439 H   0  0  0  0  0  0  0  0  0  0  0  0
    2.1039   22.0806  -35.8682 H   0  0  0  0  0  0  0  0  0  0  0  0
    1.1055   23.5739  -35.8682 H   0  0  0  0  0  0  0  0  0  0  0  0
   -5.0320   21.5170  -33.8480 H   0  0  0  0  0  0  0  0  0  0  0  0
   -6.4459   21.5921  -30.7405 H   0  0  0  0  0  0  0  0  0  0  0  0
   -6.5851   23.3579  -31.0906 H   0  0  0  0  0  0  0  0  0  0  0  0
   -7.6830   22.9610  -32.8870 H   0  0  0  0  0  0  0  0  0  0  0  0
   -8.1608   20.8685  -31.2603 H   0  0  0  0  0  0  0  0  0  0  0  0
   -9.1346   21.3667  -32.6943 H   0  0  0  0  0  0  0  0  0  0  0  0
   -8.0988   18.8831  -32.4299 H   0  0  0  0  0  0  0  0  0  0  0  0
   -8.2873   19.7174  -34.0319 H   0  0  0  0  0  0  0  0  0  0  0  0
   -4.6507   19.5325  -32.0082 H   0  0  0  0  0  0  0  0  0  0  0  0
   -6.2645   19.1644  -31.2503 H   0  0  0  0  0  0  0  0  0  0  0  0
   -4.8622   17.1444  -31.3853 H   0  0  0  0  0  0  0  0  0  0  0  0
   -6.3367   17.0175  -32.4255 H   0  0  0  0  0  0  0  0  0  0  0  0
   -3.4361   17.1962  -33.1940 H   0  0  0  0  0  0  0  0  0  0  0  0
   -4.8118   16.2667  -33.9372 H   0  0  0  0  0  0  0  0  0  0  0  0
   -3.8894   19.0872  -34.4489 H   0  0  0  0  0  0  0  0  0  0  0  0
   -4.4841   17.8175  -35.5901 H   0  0  0  0  0  0  0  0  0  0  0  0
   -6.1159   19.6462  -35.4085 H   0  0  0  0  0  0  0  0  0  0  0  0
   -6.7691   18.1058  -34.6994 H   0  0  0  0  0  0  0  0  0  0  0  0
  1  2  1  0
  2  3  2  0
  3  4  1  0
  4  5  2  0
  5  6  1  0
  6  7  1  0
  7  8  2  0
  8  9  1  0
  9 10  2  0
 10 11  1  0
 11 12  1  0
 12 13  1  0
 13 14  1  0
 14 15  1  0
 15 16  1  0
 15 17  1  0
 10 18  1  0
 18 19  2  0
 19 20  1  0
 20 21  1  0
 21 22  1  0
 22 23  1  0
 23 24  1  0
 24 25  1  0
 25 26  1  0
 26 27  1  0
 27 28  1  0
 28 29  1  0
 19 30  1  0
 30 31  1  0
 31  2  1  0
 31  6  2  0
 30  9  1  0
 29 24  1  0
  1 32  1  0
  1 33  1  0
  1 34  1  0
  3 35  1  0
  4 36  1  0
  5 37  1  0
  7 38  1  0
  8 39  1  0
 11 40  1  0
 12 41  1  0
 12 42  1  0
 13 43  1  0
 13 44  1  0
 14 45  1  0
 14 46  1  0
 16 47  1  0
 16 48  1  0
 16 49  1  0
 17 50  1  0
 17 51  1  0
 17 52  1  0
 18 53  1  0
 20 54  1  0
 20 55  1  0
 21 56  1  0
 22 57  1  0
 22 58  1  0
 23 59  1  0
 23 60  1  0
 25 61  1  0
 25 62  1  0
 26 63  1  0
 26 64  1  0
 27 65  1  0
 27 66  1  0
 28 67  1  0
 28 68  1  0
 29 69  1  0
 29 70  1  0
M  CHG  1  18   1
M  END
>  <UniqueID>  (31) 
30

>  <SMILES>  (31) 
Cc1cccc2ccc3c(NCCCN(C)C)[nH+]c(CNCCN4CCCCC4)n3c12

>  <Energy>  (31) 
136.4169915308133

>  <Genealogy>  (31) 
Cc1cccc2ccc3c(NCCCN(C)C)[nH+]c(CNCCN4CCCCC4)n3c12 (protonated)
Cc1cccc2ccc3c(NCCCN(C)C)[nH+]c(CNCCN4CCCCC4)n3c12 (3D coordinates assigned)
Cc1cccc2ccc3c(NCCCN(C)C)[nH+]c(CNCCN4CCCCC4)n3c12 (nonaromatic ring conformer: 136.4169915308133 kcal/mol)

>  <smiles>  (31) 
Cc1cccc2ccc3c(NCCCN(C)C)nc(CNCCN4CCCCC4)n3c12

>  <score_type>  (31) 
oracle

>  <origin>  (31) 
adg

>  <m_score__min__energy>  (31) 
-8.6600000000000001

>  <m_primary>  (31) 
energy

$$$$
31:0
     RDKit          3D

 56 58  0  0  0  0  0  0  0  0999 V2000
   -6.3780   24.2850  -30.0800 C   0  0  0  0  0  0  0  0  0  0  0  0
   -7.0650   22.9240  -30.1300 C   0  0  0  0  0  0  0  0  0  0  0  0
   -7.2920   22.5150  -31.5200 N   0  0  0  0  0  0  0  0  0  0  0  0
   -7.0790   23.4700  -32.6060 C   0  0  0  0  0  0  0  0  0  0  0  0
   -7.6970   21.1690  -31.8160 C   0  0  0  0  0  0  0  0  0  0  0  0
   -9.0550   20.9040  -32.0460 C   0  0  0  0  0  0  0  0  0  0  0  0
   -9.4840   19.6050  -32.3250 C   0  0  0  0  0  0  0  0  0  0  0  0
   -8.5610   18.5600  -32.3780 C   0  0  0  0  0  0  0  0  0  0  0  0
   -7.2040   18.8130  -32.1640 C   0  0  0  0  0  0  0  0  0  0  0  0
   -6.7540   20.1170  -31.8940 C   0  0  0  0  0  0  0  0  0  0  0  0
   -5.2720   20.3520  -31.7050 C   0  0  0  0  0  0  0  0  0  0  0  0
   -4.5880   20.5180  -33.0050 N   0  0  0  0  0  0  0  0  0  0  0  0
   -3.8970   21.8310  -33.1080 C   0  0  0  0  0  0  0  0  0  0  0  0
   -2.4060   21.7180  -32.7680 C   0  0  0  0  0  0  0  0  0  0  0  0
   -1.7070   20.8350  -33.7350 N   0  0  0  0  0  0  0  0  0  0  0  0
   -0.3680   20.3980  -33.2520 C   0  0  0  0  0  0  0  0  0  0  0  0
    0.5920   19.9520  -34.3510 C   0  0  0  0  0  0  0  0  0  0  0  0
    0.7790   18.5730  -34.5700 C   0  0  0  0  0  0  0  0  0  0  0  0
    1.7210   18.1140  -35.4920 C   0  0  0  0  0  0  0  0  0  0  0  0
    2.4790   19.0230  -36.2250 C   0  0  0  0  0  0  0  0  0  0  0  0
    2.2780   20.3930  -36.0610 C   0  0  0  0  0  0  0  0  0  0  0  0
    1.3210   20.8740  -35.1510 C   0  0  0  0  0  0  0  0  0  0  0  0
    1.1130   22.2910  -35.0550 N   0  0  0  0  0  0  0  0  0  0  0  0
    2.0940   23.0580  -34.9740 O   0  0  0  0  0  0  0  0  0  0  0  0
   -0.1210   22.8240  -35.3420 O   0  0  0  0  0  0  0  0  0  0  0  0
   -2.5580   19.7190  -34.2350 C   0  0  0  0  0  0  0  0  0  0  0  0
   -3.6890   19.3630  -33.2580 C   0  0  0  0  0  0  0  0  0  0  0  0
   -6.2282   24.5818  -29.0314 H   0  0  0  0  0  0  0  0  0  0  0  0
   -5.4034   24.2226  -30.5862 H   0  0  0  0  0  0  0  0  0  0  0  0
   -7.0070   25.0321  -30.5862 H   0  0  0  0  0  0  0  0  0  0  0  0
   -6.4277   22.1781  -29.6325 H   0  0  0  0  0  0  0  0  0  0  0  0
   -8.0353   22.9958  -29.6169 H   0  0  0  0  0  0  0  0  0  0  0  0
   -6.8578   24.4616  -32.1842 H   0  0  0  0  0  0  0  0  0  0  0  0
   -6.2328   23.1380  -33.2255 H   0  0  0  0  0  0  0  0  0  0  0  0
   -7.9860   23.5291  -33.2255 H   0  0  0  0  0  0  0  0  0  0  0  0
   -9.7865   21.7246  -32.0063 H   0  0  0  0  0  0  0  0  0  0  0  0
  -10.5509   19.4052  -32.5032 H   0  0  0  0  0  0  0  0  0  0  0  0
   -8.9023   17.5357  -32.5885 H   0  0  0  0  0  0  0  0  0  0  0  0
   -6.4814   17.9847  -32.2071 H   0  0  0  0  0  0  0  0  0  0  0  0
   -5.1266   21.2618  -31.1041 H   0  0  0  0  0  0  0  0  0  0  0  0
   -4.8426   19.4776  -31.1941 H   0  0  0  0  0  0  0  0  0  0  0  0
   -4.0002   22.2080  -34.1362 H   0  0  0  0  0  0  0  0  0  0  0  0
   -4.3611   22.5192  -32.3862 H   0  0  0  0  0  0  0  0  0  0  0  0
   -1.9521   22.7194  -32.8017 H   0  0  0  0  0  0  0  0  0  0  0  0
   -2.3071   21.2847  -31.7618 H   0  0  0  0  0  0  0  0  0  0  0  0
   -1.5080   21.4360  -34.5710 H   0  0  0  0  0  0  0  0  0  0  0  0
    0.0937   21.2394  -32.7144 H   0  0  0  0  0  0  0  0  0  0  0  0
   -0.5397   19.5186  -32.6138 H   0  0  0  0  0  0  0  0  0  0  0  0
    0.1740   17.8476  -34.0063 H   0  0  0  0  0  0  0  0  0  0  0  0
    1.8646   17.0334  -35.6395 H   0  0  0  0  0  0  0  0  0  0  0  0
    3.2373   18.6600  -36.9343 H   0  0  0  0  0  0  0  0  0  0  0  0
    2.8748   21.1049  -36.6501 H   0  0  0  0  0  0  0  0  0  0  0  0
   -3.0021   20.0165  -35.1964 H   0  0  0  0  0  0  0  0  0  0  0  0
   -1.9174   18.8315  -34.3449 H   0  0  0  0  0  0  0  0  0  0  0  0
   -4.2803   18.5390  -33.6839 H   0  0  0  0  0  0  0  0  0  0  0  0
   -3.2325   19.0709  -32.3008 H   0  0  0  0  0  0  0  0  0  0  0  0
  1  2  1  0
  2  3  1  0
  3  4  1  0
  3  5  1  0
  5  6  2  0
  6  7  1  0
  7  8  2  0
  8  9  1  0
  9 10  2  0
 10 11  1  0
 11 12  1  0
 12 13  1  0
 13 14  1  0
 14 15  1  0
 15 16  1  0
 16 17  1  0
 17 18  2  0
 18 19  1  0
 19 20  2  0
 20 21  1  0
 21 22  2  0
 22 23  1  0
 23 24  2  0
 23 25  1  0
 15 26  1  0
 26 27  1  0
 10  5  1  0
 27 12  1  0
 22 17  1  0
  1 28  1  0
  1 29  1  0
  1 30  1  0
  2 31  1  0
  2 32  1  0
  4 33  1  0
  4 34  1  0
  4 35  1  0
  6 36  1  0
  7 37  1  0
  8 38  1  0
  9 39  1  0
 11 40  1  0
 11 41  1  0
 13 42  1  0
 13 43  1  0
 14 44  1  0
 14 45  1  0
 15 46  1  0
 16 47  1  0
 16 48  1  0
 18 49  1  0
 19 50  1  0
 20 51  1  0
 21 52  1  0
 26 53  1  0
 26 54  1  0
 27 55  1  0
 27 56  1  0
M  CHG  3  15   1  23   1  25  -1
M  END
>  <UniqueID>  (32) 
31

>  <SMILES>  (32) 
CCN(C)c1ccccc1CN1CC[NH+](Cc2ccccc2[N+](=O)[O-])CC1

>  <Energy>  (32) 
81.72091829619474

>  <Genealogy>  (32) 
CCN(C)c1ccccc1CN1CC[NH+](Cc2ccccc2[N+](=O)[O-])CC1 (protonated)
CCN(C)c1ccccc1CN1CC[NH+](Cc2ccccc2[N+](=O)[O-])CC1 (3D coordinates assigned)
CCN(C)c1ccccc1CN1CC[NH+](Cc2ccccc2[N+](=O)[O-])CC1 (nonaromatic ring conformer: 81.72091829619474 kcal/mol)

>  <smiles>  (32) 
CCN(C)c1ccccc1CN1CCN(Cc2ccccc2[N+](=O)[O-])CC1

>  <score_type>  (32) 
oracle

>  <origin>  (32) 
adg

>  <m_score__min__energy>  (32) 
-7.7199999999999998

>  <m_primary>  (32) 
energy

$$$$
32:0
     RDKit          3D

 57 60  0  0  0  0  0  0  0  0999 V2000
   -0.5284   22.1998  -30.0896 H   0  0  0  0  0  0  0  0  0  0  0  0
   -1.3900   21.5170  -30.1280 C   0  0  0  0  0  0  0  0  0  0  0  0
   -2.2590   21.6580  -31.1540 C   0  0  0  0  0  0  0  0  0  0  0  0
   -3.6160   22.1990  -30.9050 C   0  0  0  0  0  0  0  0  0  0  0  0
   -3.9500   22.5710  -29.7460 O   0  0  0  0  0  0  0  0  0  0  0  0
   -4.5840   22.2930  -32.0240 C   0  0  0  0  0  0  0  0  0  0  0  0
   -5.8020   22.8370  -31.8200 C   0  0  0  0  0  0  0  0  0  0  0  0
   -5.8676   23.9278  -31.6942 H   0  0  0  0  0  0  0  0  0  0  0  0
   -7.0490   22.0550  -31.7560 C   0  0  0  0  0  0  0  0  0  0  0  0
   -8.0000   22.3010  -30.7500 C   0  0  0  0  0  0  0  0  0  0  0  0
   -7.8131   23.0793  -29.9955 H   0  0  0  0  0  0  0  0  0  0  0  0
   -9.1830   21.5570  -30.7080 C   0  0  0  0  0  0  0  0  0  0  0  0
   -9.9214   21.7439  -29.9144 H   0  0  0  0  0  0  0  0  0  0  0  0
   -9.4290   20.5750  -31.6740 C   0  0  0  0  0  0  0  0  0  0  0  0
  -10.3565   19.9849  -31.6340 H   0  0  0  0  0  0  0  0  0  0  0  0
   -8.4960   20.3430  -32.6910 C   0  0  0  0  0  0  0  0  0  0  0  0
   -8.6939   19.5761  -33.4543 H   0  0  0  0  0  0  0  0  0  0  0  0
   -7.3120   21.0860  -32.7370 C   0  0  0  0  0  0  0  0  0  0  0  0
   -6.5851   20.9106  -33.5438 H   0  0  0  0  0  0  0  0  0  0  0  0
   -4.1080   21.9110  -33.4130 C   0  0  0  0  0  0  0  0  0  0  0  0
   -3.7194   22.8119  -33.9105 H   0  0  0  0  0  0  0  0  0  0  0  0
   -4.9681   21.4842  -33.9498 H   0  0  0  0  0  0  0  0  0  0  0  0
   -3.0430   20.8850  -33.3970 N   0  0  2  0  0  0  0  0  0  0  0  0
   -2.6960   20.8220  -34.3810 H   0  0  0  0  0  0  0  0  0  0  0  0
   -3.5470   19.5740  -33.0090 C   0  0  0  0  0  0  0  0  0  0  0  0
   -2.7800   18.7250  -32.5750 O   0  0  0  0  0  0  0  0  0  0  0  0
   -5.0170   19.2100  -33.1400 C   0  0  0  0  0  0  0  0  0  0  0  0
   -5.5944   20.1444  -33.0809 H   0  0  0  0  0  0  0  0  0  0  0  0
   -5.4910   18.3300  -31.9570 C   0  0  0  0  0  0  0  0  0  0  0  0
   -4.7422   17.5472  -31.7658 H   0  0  0  0  0  0  0  0  0  0  0  0
   -5.6118   18.9660  -31.0676 H   0  0  0  0  0  0  0  0  0  0  0  0
   -6.8340   17.6730  -32.2800 C   0  0  0  0  0  0  0  0  0  0  0  0
   -7.1749   17.1067  -31.4007 H   0  0  0  0  0  0  0  0  0  0  0  0
   -7.5511   18.4658  -32.5392 H   0  0  0  0  0  0  0  0  0  0  0  0
   -6.7220   16.7110  -33.4830 C   0  0  0  0  0  0  0  0  0  0  0  0
   -6.5131   15.7010  -33.1006 H   0  0  0  0  0  0  0  0  0  0  0  0
   -7.6764   16.7674  -34.0270 H   0  0  0  0  0  0  0  0  0  0  0  0
   -5.6100   17.0910  -34.4870 C   0  0  0  0  0  0  0  0  0  0  0  0
   -4.6789   16.5854  -34.1912 H   0  0  0  0  0  0  0  0  0  0  0  0
   -5.9392   16.7752  -35.4880 H   0  0  0  0  0  0  0  0  0  0  0  0
   -5.3560   18.6060  -34.5330 C   0  0  0  0  0  0  0  0  0  0  0  0
   -4.5132   18.7993  -35.2130 H   0  0  0  0  0  0  0  0  0  0  0  0
   -6.2836   19.0839  -34.8810 H   0  0  0  0  0  0  0  0  0  0  0  0
   -1.8820   21.2980  -32.5790 C   0  0  0  0  0  0  0  0  0  0  0  0
   -1.4153   22.1755  -33.0505 H   0  0  0  0  0  0  0  0  0  0  0  0
   -1.1923   20.4424  -32.5308 H   0  0  0  0  0  0  0  0  0  0  0  0
   -1.5170   20.5100  -29.0550 C   0  0  0  0  0  0  0  0  0  0  0  0
   -0.5330   19.5260  -28.8600 C   0  0  0  0  0  0  0  0  0  0  0  0
    0.3360   19.4789  -29.5327 H   0  0  0  0  0  0  0  0  0  0  0  0
   -0.6550   18.6060  -27.8130 C   0  0  0  0  0  0  0  0  0  0  0  0
    0.1131   17.8317  -27.6703 H   0  0  0  0  0  0  0  0  0  0  0  0
   -1.7500   18.6690  -26.9490 C   0  0  0  0  0  0  0  0  0  0  0  0
   -1.8484   17.9395  -26.1316 H   0  0  0  0  0  0  0  0  0  0  0  0
   -2.7220   19.6600  -27.1230 C   0  0  0  0  0  0  0  0  0  0  0  0
   -3.5820   19.7126  -26.4391 H   0  0  0  0  0  0  0  0  0  0  0  0
   -2.6010   20.5840  -28.1660 C   0  0  0  0  0  0  0  0  0  0  0  0
   -3.3584   21.3720  -28.2902 H   0  0  0  0  0  0  0  0  0  0  0  0
  1  2  1  0
  2  3  2  3
  3  4  1  0
  4  5  2  0
  4  6  1  0
  6  7  2  0
  7  8  1  0
  7  9  1  0
  9 10  2  0
 10 11  1  0
 10 12  1  0
 12 13  1  0
 12 14  2  0
 14 15  1  0
 14 16  1  0
 16 17  1  0
 16 18  2  0
 18 19  1  0
  6 20  1  0
 20 21  1  0
 20 22  1  0
 20 23  1  0
 23 24  1  6
 23 25  1  0
 25 26  2  0
 25 27  1  0
 27 28  1  0
 27 29  1  0
 29 30  1  0
 29 31  1  0
 29 32  1  0
 32 33  1  0
 32 34  1  0
 32 35  1  0
 35 36  1  0
 35 37  1  0
 35 38  1  0
 38 39  1  0
 38 40  1  0
 38 41  1  0
 41 42  1  0
 41 43  1  0
 23 44  1  0
 44 45  1  0
 44 46  1  0
  2 47  1  0
 47 48  2  0
 48 49  1  0
 48 50  1  0
 50 51  1  0
 50 52  2  0
 52 53  1  0
 52 54  1  0
 54 55  1  0
 54 56  2  0
 56 57  1  0
 44  3  1  0
 56 47  1  0
 18  9  1  0
 41 27  1  0
M  CHG  1  23   1
M  END
>  <UniqueID>  (33) 
32

>  <SMILES>  (33) 
O=C1C(=Cc2ccccc2)C[NH+](C(=O)C2CCCCC2)C/C1=C\c1ccccc1

>  <Energy>  (33) 
83.2849127898197

>  <Genealogy>  (33) 
O=C1C(=Cc2ccccc2)C[NH+](C(=O)C2CCCCC2)CC1=Cc1ccccc1 (protonated)
O=C1C(=Cc2ccccc2)C[NH+](C(=O)C2CCCCC2)C/C1=C\c1ccccc1 (cis-trans isomerization)
O=C1C(=Cc2ccccc2)C[NH+](C(=O)C2CCCCC2)C/C1=C\c1ccccc1 (3D coordinates assigned)
O=C1C(=Cc2ccccc2)C[NH+](C(=O)C2CCCCC2)C/C1=C\c1ccccc1 (nonaromatic ring conformer: 83.2849127898197 kcal/mol)

>  <smiles>  (33) 
O=C1C(=Cc2ccccc2)CN(C(=O)C2CCCCC2)CC1=Cc1ccccc1

>  <score_type>  (33) 
oracle

>  <origin>  (33) 
adg

>  <m_score__min__energy>  (33) 
-9.5600000000000005

>  <m_primary>  (33) 
energy

$$$$
33:0
     RDKit          3D

 38 40  0  0  0  0  0  0  0  0999 V2000
   -4.7055   19.3233  -34.0940 H   0  0  0  0  0  0  0  0  0  0  0  0
   -5.0950   20.1310  -33.4570 C   0  0  0  0  0  0  0  0  0  0  0  0
   -6.4700   20.2320  -33.2290 C   0  0  0  0  0  0  0  0  0  0  0  0
   -7.1558   19.5033  -33.6857 H   0  0  0  0  0  0  0  0  0  0  0  0
   -6.9770   21.2540  -32.4240 C   0  0  0  0  0  0  0  0  0  0  0  0
   -8.0603   21.3286  -32.2479 H   0  0  0  0  0  0  0  0  0  0  0  0
   -6.1070   22.1850  -31.8400 C   0  0  0  0  0  0  0  0  0  0  0  0
   -6.5920   23.2190  -31.0300 C   0  0  0  0  0  0  0  0  0  0  0  0
   -7.6724   23.3109  -30.8449 H   0  0  0  0  0  0  0  0  0  0  0  0
   -5.7050   24.1350  -30.4560 C   0  0  0  0  0  0  0  0  0  0  0  0
   -6.2200   25.1930  -29.6190 C   0  0  0  0  0  0  0  0  0  0  0  0
   -6.6320   26.0400  -28.9460 N   0  0  0  0  0  0  0  0  0  0  0  0
   -4.3260   24.0090  -30.7060 C   0  0  0  0  0  0  0  0  0  0  0  0
   -3.4860   24.8540  -30.1800 N   0  0  0  0  0  0  0  0  0  0  0  0
   -2.3470   24.4930  -29.3290 C   0  0  0  0  0  0  0  0  0  0  0  0
   -1.4493   25.0250  -29.6771 H   0  0  0  0  0  0  0  0  0  0  0  0
   -2.6480   24.9110  -27.8820 C   0  0  0  0  0  0  0  0  0  0  0  0
   -1.7646   24.6988  -27.2619 H   0  0  0  0  0  0  0  0  0  0  0  0
   -2.8890   25.9843  -27.8860 H   0  0  0  0  0  0  0  0  0  0  0  0
   -3.8590   24.1590  -27.2930 C   0  0  0  0  0  0  0  0  0  0  0  0
   -3.7285   24.0883  -26.2031 H   0  0  0  0  0  0  0  0  0  0  0  0
   -4.7589   24.7280  -27.5693 H   0  0  0  0  0  0  0  0  0  0  0  0
   -4.0320   22.7350  -27.8570 C   0  0  0  0  0  0  0  0  0  0  0  0
   -4.4670   22.0931  -27.0768 H   0  0  0  0  0  0  0  0  0  0  0  0
   -4.6926   22.7921  -28.7347 H   0  0  0  0  0  0  0  0  0  0  0  0
   -2.6960   22.1360  -28.3040 C   0  0  0  0  0  0  0  0  0  0  0  0
   -2.0143   22.1011  -27.4414 H   0  0  0  0  0  0  0  0  0  0  0  0
   -2.8864   21.1261  -28.6962 H   0  0  0  0  0  0  0  0  0  0  0  0
   -2.0440   22.9720  -29.4230 C   0  0  0  0  0  0  0  0  0  0  0  0
   -0.9542   22.8318  -29.3701 H   0  0  0  0  0  0  0  0  0  0  0  0
   -2.4689   22.6195  -30.3744 H   0  0  0  0  0  0  0  0  0  0  0  0
   -3.8790   22.9950  -31.5000 N   0  0  0  0  0  0  0  0  0  0  0  0
   -4.7170   22.0870  -32.0690 C   0  0  0  0  0  0  0  0  0  0  0  0
   -4.2060   21.0530  -32.8790 C   0  0  0  0  0  0  0  0  0  0  0  0
   -2.7280   20.9360  -33.1310 C   0  0  0  0  0  0  0  0  0  0  0  0
   -2.1944   20.8938  -32.1700 H   0  0  0  0  0  0  0  0  0  0  0  0
   -2.5251   20.0190  -33.7037 H   0  0  0  0  0  0  0  0  0  0  0  0
   -2.3834   21.8097  -33.7037 H   0  0  0  0  0  0  0  0  0  0  0  0
  1  2  1  0
  2  3  2  0
  3  4  1  0
  3  5  1  0
  5  6  1  0
  5  7  2  0
  7  8  1  0
  8  9  1  0
  8 10  2  0
 10 11  1  0
 11 12  3  0
 10 13  1  0
 13 14  2  0
 14 15  1  0
 15 16  1  0
 15 17  1  0
 17 18  1  0
 17 19  1  0
 17 20  1  0
 20 21  1  0
 20 22  1  0
 20 23  1  0
 23 24  1  0
 23 25  1  0
 23 26  1  0
 26 27  1  0
 26 28  1  0
 26 29  1  0
 29 30  1  0
 29 31  1  0
 13 32  1  0
 32 33  1  0
 33 34  2  0
 34 35  1  0
 35 36  1  0
 35 37  1  0
 35 38  1  0
 34  2  1  0
 33  7  1  0
 29 15  1  0
M  CHG  1  32  -1
M  END
>  <UniqueID>  (34) 
33

>  <SMILES>  (34) 
Cc1cccc2cc(C#N)/c(=N/C3CCCCC3)[n-]c12

>  <Energy>  (34) 
43.81954485529842

>  <Genealogy>  (34) 
Cc1cccc2cc(C#N)c(=NC3CCCCC3)[n-]c12 (protonated)
Cc1cccc2cc(C#N)/c(=N/C3CCCCC3)[n-]c12 (cis-trans isomerization)
Cc1cccc2cc(C#N)/c(=N/C3CCCCC3)[n-]c12 (3D coordinates assigned)
Cc1cccc2cc(C#N)/c(=N/C3CCCCC3)[n-]c12 (nonaromatic ring conformer: 43.81954485529842 kcal/mol)

>  <smiles>  (34) 
Cc1cccc2cc(C#N)c(=NC3CCCCC3)[nH]c12

>  <score_type>  (34) 
oracle

>  <origin>  (34) 
adg

>  <m_score__min__energy>  (34) 
-8.9600000000000009

>  <m_primary>  (34) 
energy

$$$$
34:0
     RDKit          3D

 35 36  0  0  0  0  0  0  0  0999 V2000
   -2.3420   24.3680  -29.0480 C   0  0  0  0  0  0  0  0  0  0  0  0
   -3.1540   24.9270  -30.0770 O   0  0  0  0  0  0  0  0  0  0  0  0
   -4.4280   24.4520  -30.4250 C   0  0  0  0  0  0  0  0  0  0  0  0
   -4.5160   23.2750  -31.1770 C   0  0  0  0  0  0  0  0  0  0  0  0
   -5.7610   22.7610  -31.5480 C   0  0  0  0  0  0  0  0  0  0  0  0
   -6.9410   23.4210  -31.1700 C   0  0  0  0  0  0  0  0  0  0  0  0
   -8.2880   22.8850  -31.5950 C   0  0  0  0  0  0  0  0  0  0  0  0
   -8.5100   21.4990  -31.1390 N   0  0  0  0  0  0  0  0  0  0  0  0
   -9.3970   20.7070  -32.0120 C   0  0  0  0  0  0  0  0  0  0  0  0
   -9.1080   19.1990  -31.9390 C   0  0  0  0  0  0  0  0  0  0  0  0
   -7.8570   18.8710  -32.6910 C   0  0  0  0  0  0  0  0  0  0  0  0
   -7.2690   17.6160  -32.7810 C   0  0  0  0  0  0  0  0  0  0  0  0
   -6.0620   17.6250  -33.4890 C   0  0  0  0  0  0  0  0  0  0  0  0
   -5.6900   18.8840  -33.9440 C   0  0  0  0  0  0  0  0  0  0  0  0
   -6.8650   19.9890  -33.4620 S   0  0  0  0  0  0  0  0  0  0  0  0
   -6.8560   24.6030  -30.4200 C   0  0  0  0  0  0  0  0  0  0  0  0
   -5.6100   25.1170  -30.0470 C   0  0  0  0  0  0  0  0  0  0  0  0
   -2.7499   24.6488  -28.0658 H   0  0  0  0  0  0  0  0  0  0  0  0
   -2.3339   23.2720  -29.1420 H   0  0  0  0  0  0  0  0  0  0  0  0
   -1.3154   24.7516  -29.1420 H   0  0  0  0  0  0  0  0  0  0  0  0
   -3.5974   22.7503  -31.4784 H   0  0  0  0  0  0  0  0  0  0  0  0
   -5.8169   21.8349  -32.1390 H   0  0  0  0  0  0  0  0  0  0  0  0
   -9.0739   23.5270  -31.1704 H   0  0  0  0  0  0  0  0  0  0  0  0
   -8.3181   22.8858  -32.6946 H   0  0  0  0  0  0  0  0  0  0  0  0
   -8.9260   21.5230  -30.1780 H   0  0  0  0  0  0  0  0  0  0  0  0
   -7.5830   21.0190  -31.0630 H   0  0  0  0  0  0  0  0  0  0  0  0
  -10.4391   20.8809  -31.7058 H   0  0  0  0  0  0  0  0  0  0  0  0
   -9.2185   21.0300  -33.0483 H   0  0  0  0  0  0  0  0  0  0  0  0
   -8.9861   18.9038  -30.8864 H   0  0  0  0  0  0  0  0  0  0  0  0
   -9.9492   18.6521  -32.3898 H   0  0  0  0  0  0  0  0  0  0  0  0
   -7.7071   16.7081  -32.3409 H   0  0  0  0  0  0  0  0  0  0  0  0
   -5.4635   16.7197  -33.6686 H   0  0  0  0  0  0  0  0  0  0  0  0
   -4.7830   19.1186  -34.5205 H   0  0  0  0  0  0  0  0  0  0  0  0
   -7.7753   25.1292  -30.1232 H   0  0  0  0  0  0  0  0  0  0  0  0
   -5.5533   26.0434  -29.4566 H   0  0  0  0  0  0  0  0  0  0  0  0
  1  2  1  0
  2  3  1  0
  3  4  2  0
  4  5  1  0
  5  6  2  0
  6  7  1  0
  7  8  1  0
  8  9  1  0
  9 10  1  0
 10 11  1  0
 11 12  2  0
 12 13  1  0
 13 14  2  0
 14 15  1  0
  6 16  1  0
 16 17  2  0
 17  3  1  0
 15 11  1  0
  1 18  1  0
  1 19  1  0
  1 20  1  0
  4 21  1  0
  5 22  1  0
  7 23  1  0
  7 24  1  0
  8 25  1  0
  8 26  1  0
  9 27  1  0
  9 28  1  0
 10 29  1  0
 10 30  1  0
 12 31  1  0
 13 32  1  0
 14 33  1  0
 16 34  1  0
 17 35  1  0
M  CHG  1   8   1
M  END
>  <UniqueID>  (35) 
34

>  <SMILES>  (35) 
COc1ccc(C[NH2+]CCc2cccs2)cc1

>  <Energy>  (35) 
57.77619682823681

>  <Genealogy>  (35) 
COc1ccc(C[NH2+]CCc2cccs2)cc1 (protonated)
COc1ccc(C[NH2+]CCc2cccs2)cc1 (3D coordinates assigned)
COc1ccc(C[NH2+]CCc2cccs2)cc1 (optimized conformer: 57.77619682823681 kcal/mol)

>  <smiles>  (35) 
COc1ccc(CNCCc2cccs2)cc1

>  <score_type>  (35) 
oracle

>  <origin>  (35) 
adg

>  <m_score__min__energy>  (35) 
-6.4500000000000002

>  <m_primary>  (35) 
energy

$$$$
35:0
     RDKit          3D

 39 41  0  0  0  0  0  0  0  0999 V2000
   -1.1300   19.8410  -31.9770 C   0  0  0  0  0  0  0  0  0  0  0  0
   -2.4130   19.9140  -32.7910 C   0  0  0  0  0  0  0  0  0  0  0  0
   -2.8720   21.6560  -33.0740 S   0  0  0  0  0  0  0  0  0  0  0  0
   -4.5880   21.3970  -32.6070 C   0  0  0  0  0  0  0  0  0  0  0  0
   -5.1240   20.1660  -32.7710 N   0  0  0  0  0  0  0  0  0  0  0  0
   -6.4060   19.8970  -32.4280 C   0  0  0  0  0  0  0  0  0  0  0  0
   -6.9000   18.6040  -32.6170 C   0  0  0  0  0  0  0  0  0  0  0  0
   -8.2130   18.2990  -32.2780 C   0  0  0  0  0  0  0  0  0  0  0  0
   -9.0450   19.2810  -31.7450 C   0  0  0  0  0  0  0  0  0  0  0  0
   -8.5770   20.5930  -31.5410 C   0  0  0  0  0  0  0  0  0  0  0  0
   -9.5340   21.5940  -30.9400 C   0  0  0  0  0  0  0  0  0  0  0  0
   -7.2320   20.9160  -31.8960 C   0  0  0  0  0  0  0  0  0  0  0  0
   -6.6520   22.2040  -31.7560 C   0  0  0  0  0  0  0  0  0  0  0  0
   -7.3480   23.1810  -31.3670 O   0  0  0  0  0  0  0  0  0  0  0  0
   -5.3310   22.4070  -32.0690 N   0  0  0  0  0  0  0  0  0  0  0  0
   -4.7300   23.6720  -31.9000 N   0  0  0  0  0  0  0  0  0  0  0  0
   -3.9400   24.0500  -30.7640 C   0  0  0  0  0  0  0  0  0  0  0  0
   -3.8590   25.2710  -30.4670 O   0  0  0  0  0  0  0  0  0  0  0  0
   -3.2000   23.0540  -29.9550 C   0  0  0  0  0  0  0  0  0  0  0  0
   -1.8010   22.9800  -30.0350 C   0  0  0  0  0  0  0  0  0  0  0  0
   -1.1130   22.0410  -29.2630 C   0  0  0  0  0  0  0  0  0  0  0  0
   -1.7960   21.1980  -28.4460 N   0  0  0  0  0  0  0  0  0  0  0  0
   -3.1510   21.2350  -28.3570 C   0  0  0  0  0  0  0  0  0  0  0  0
   -3.8790   22.1580  -29.1120 C   0  0  0  0  0  0  0  0  0  0  0  0
   -1.3748   19.8549  -30.9047 H   0  0  0  0  0  0  0  0  0  0  0  0
   -0.5947   18.9109  -32.2189 H   0  0  0  0  0  0  0  0  0  0  0  0
   -0.4927   20.7043  -32.2189 H   0  0  0  0  0  0  0  0  0  0  0  0
   -2.2591   19.4157  -33.7595 H   0  0  0  0  0  0  0  0  0  0  0  0
   -3.2210   19.4124  -32.2383 H   0  0  0  0  0  0  0  0  0  0  0  0
   -6.2472   17.8240  -33.0358 H   0  0  0  0  0  0  0  0  0  0  0  0
   -8.5962   17.2793  -32.4310 H   0  0  0  0  0  0  0  0  0  0  0  0
  -10.0821   19.0278  -31.4798 H   0  0  0  0  0  0  0  0  0  0  0  0
   -9.4811   21.5387  -29.8427 H   0  0  0  0  0  0  0  0  0  0  0  0
   -9.2599   22.6070  -31.2697 H   0  0  0  0  0  0  0  0  0  0  0  0
  -10.5583   21.3657  -31.2697 H   0  0  0  0  0  0  0  0  0  0  0  0
   -1.2489   23.6581  -30.7024 H   0  0  0  0  0  0  0  0  0  0  0  0
   -0.0158   21.9842  -29.3168 H   0  0  0  0  0  0  0  0  0  0  0  0
   -3.6763   20.5366  -27.6889 H   0  0  0  0  0  0  0  0  0  0  0  0
   -4.9768   22.1831  -29.0469 H   0  0  0  0  0  0  0  0  0  0  0  0
  1  2  1  0
  2  3  1  0
  3  4  1  0
  4  5  2  0
  5  6  1  0
  6  7  2  0
  7  8  1  0
  8  9  2  0
  9 10  1  0
 10 11  1  0
 10 12  2  0
 12 13  1  0
 13 14  2  0
 13 15  1  0
 15 16  1  0
 16 17  1  0
 17 18  2  0
 17 19  1  0
 19 20  2  0
 20 21  1  0
 21 22  2  0
 22 23  1  0
 23 24  2  0
 15  4  1  0
 24 19  1  0
 12  6  1  0
  1 25  1  0
  1 26  1  0
  1 27  1  0
  2 28  1  0
  2 29  1  0
  7 30  1  0
  8 31  1  0
  9 32  1  0
 11 33  1  0
 11 34  1  0
 11 35  1  0
 20 36  1  0
 21 37  1  0
 23 38  1  0
 24 39  1  0
M  CHG  1  16  -1
M  END
>  <UniqueID>  (36) 
35

>  <SMILES>  (36) 
CCSc1nc2cccc(C)c2c(=O)n1[N-]C(=O)c1ccncc1

>  <Energy>  (36) 
53.31322994175298

>  <Genealogy>  (36) 
CCSc1nc2cccc(C)c2c(=O)n1[N-]C(=O)c1ccncc1 (protonated)
CCSc1nc2cccc(C)c2c(=O)n1[N-]C(=O)c1ccncc1 (3D coordinates assigned)
CCSc1nc2cccc(C)c2c(=O)n1[N-]C(=O)c1ccncc1 (optimized conformer: 53.31322994175298 kcal/mol)

>  <smiles>  (36) 
CCSc1nc2cccc(C)c2c(=O)n1NC(=O)c1ccncc1

>  <score_type>  (36) 
oracle

>  <origin>  (36) 
adg

>  <m_score__min__energy>  (36) 
-8.7200000000000006

>  <m_primary>  (36) 
energy

$$$$
36:0
     RDKit          3D

 31 32  0  0  0  0  0  0  0  0999 V2000
    0.6120   23.0200  -27.4310 C   0  0  0  0  0  0  0  0  0  0  0  0
    1.0180   24.4890  -27.4650 C   0  0  0  0  0  0  0  0  0  0  0  0
   -0.0860   25.3080  -27.8520 O   0  0  0  0  0  0  0  0  0  0  0  0
   -1.4380   25.0580  -27.5560 C   0  0  0  0  0  0  0  0  0  0  0  0
   -2.3020   24.4050  -28.4550 C   0  0  0  0  0  0  0  0  0  0  0  0
   -3.6260   24.1530  -28.0950 C   0  0  0  0  0  0  0  0  0  0  0  0
   -4.0830   24.5530  -26.8400 C   0  0  0  0  0  0  0  0  0  0  0  0
   -3.2450   25.1950  -25.9860 N   0  0  0  0  0  0  0  0  0  0  0  0
   -1.9520   25.4690  -26.3110 C   0  0  0  0  0  0  0  0  0  0  0  0
   -1.1010   26.1640  -25.3250 C   0  0  0  0  0  0  0  0  0  0  0  0
   -0.9540   27.5540  -25.4240 C   0  0  0  0  0  0  0  0  0  0  0  0
   -0.1750   28.2430  -24.4970 C   0  0  0  0  0  0  0  0  0  0  0  0
    0.4590   27.5370  -23.4770 C   0  0  0  0  0  0  0  0  0  0  0  0
    0.3290   26.1850  -23.3950 N   0  0  0  0  0  0  0  0  0  0  0  0
   -0.4120   25.4760  -24.2970 C   0  0  0  0  0  0  0  0  0  0  0  0
   -0.4920   23.9780  -24.1610 C   0  0  0  0  0  0  0  0  0  0  0  0
    0.5205   22.6890  -26.3860 H   0  0  0  0  0  0  0  0  0  0  0  0
   -0.3544   22.8948  -27.9412 H   0  0  0  0  0  0  0  0  0  0  0  0
    1.3770   22.4163  -27.9412 H   0  0  0  0  0  0  0  0  0  0  0  0
    1.3598   24.7926  -26.4645 H   0  0  0  0  0  0  0  0  0  0  0  0
    1.8274   24.6158  -28.1991 H   0  0  0  0  0  0  0  0  0  0  0  0
   -1.9326   24.0929  -29.4430 H   0  0  0  0  0  0  0  0  0  0  0  0
   -4.3037   23.6430  -28.7954 H   0  0  0  0  0  0  0  0  0  0  0  0
   -5.1219   24.3486  -26.5418 H   0  0  0  0  0  0  0  0  0  0  0  0
   -1.4548   28.1024  -26.2355 H   0  0  0  0  0  0  0  0  0  0  0  0
   -0.0615   29.3347  -24.5698 H   0  0  0  0  0  0  0  0  0  0  0  0
    1.0672   28.0748  -22.7348 H   0  0  0  0  0  0  0  0  0  0  0  0
    0.8220   25.6880  -22.6200 H   0  0  0  0  0  0  0  0  0  0  0  0
   -0.5065   23.7069  -23.0950 H   0  0  0  0  0  0  0  0  0  0  0  0
   -1.4108   23.6145  -24.6443 H   0  0  0  0  0  0  0  0  0  0  0  0
    0.3829   23.5187  -24.6443 H   0  0  0  0  0  0  0  0  0  0  0  0
  1  2  1  0
  2  3  1  0
  3  4  1  0
  4  5  2  0
  5  6  1  0
  6  7  2  0
  7  8  1  0
  8  9  2  0
  9 10  1  0
 10 11  2  0
 11 12  1  0
 12 13  2  0
 13 14  1  0
 14 15  2  0
 15 16  1  0
  9  4  1  0
 15 10  1  0
  1 17  1  0
  1 18  1  0
  1 19  1  0
  2 20  1  0
  2 21  1  0
  5 22  1  0
  6 23  1  0
  7 24  1  0
 11 25  1  0
 12 26  1  0
 13 27  1  0
 14 28  1  0
 16 29  1  0
 16 30  1  0
 16 31  1  0
M  CHG  1  14   1
M  END
>  <UniqueID>  (37) 
36

>  <SMILES>  (37) 
CCOc1cccnc1-c1ccc[nH+]c1C

>  <Energy>  (37) 
37.291844432363696

>  <Genealogy>  (37) 
CCOc1cccnc1-c1ccc[nH+]c1C (protonated)
CCOc1cccnc1-c1ccc[nH+]c1C (3D coordinates assigned)
CCOc1cccnc1-c1ccc[nH+]c1C (optimized conformer: 37.291844432363696 kcal/mol)

>  <smiles>  (37) 
CCOc1cccnc1-c1cccnc1C

>  <score_type>  (37) 
oracle

>  <origin>  (37) 
adg

>  <m_score__min__energy>  (37) 
-5.7699999999999996

>  <m_primary>  (37) 
energy

$$$$
37:0
     RDKit          3D

 63 65  0  0  0  0  0  0  0  0999 V2000
   -6.3380   16.4460  -33.4270 C   0  0  0  0  0  0  0  0  0  0  0  0
   -7.4590   16.8970  -32.6920 O   0  0  0  0  0  0  0  0  0  0  0  0
   -7.5450   18.3100  -32.7240 C   0  0  2  0  0  0  0  0  0  0  0  0
   -6.3510   18.8460  -33.5220 C   0  0  0  0  0  0  0  0  0  0  0  0
   -6.3710   20.3780  -33.5690 C   0  0  0  0  0  0  0  0  0  0  0  0
   -6.3370   21.0270  -32.1530 C   0  0  0  0  0  0  0  0  0  0  0  0
   -6.6380   22.5570  -32.2990 C   0  0  0  0  0  0  0  0  0  0  0  0
   -5.3640   23.3830  -32.5120 C   0  0  0  0  0  0  0  0  0  0  0  0
   -4.4350   23.3130  -31.2710 C   0  0  1  0  0  0  0  0  0  0  0  0
   -4.7230   24.4860  -30.3120 C   0  0  0  0  0  0  0  0  0  0  0  0
   -3.4810   25.0250  -29.7700 N   0  0  0  0  0  0  0  0  0  0  0  0
   -2.9280   24.5780  -28.5270 C   0  0  0  0  0  0  0  0  0  0  0  0
   -3.6140   24.6480  -27.4730 O   0  0  0  0  0  0  0  0  0  0  0  0
   -1.4970   24.0990  -28.4840 C   0  0  0  0  0  0  0  0  0  0  0  0
   -0.9250   23.9750  -27.1140 N   0  0  0  0  0  0  0  0  0  0  0  0
   -0.4270   22.5980  -26.8510 C   0  0  0  0  0  0  0  0  0  0  0  0
   -0.4800   22.2380  -25.3550 C   0  0  0  0  0  0  0  0  0  0  0  0
    0.1500   23.2930  -24.4280 C   0  0  0  0  0  0  0  0  0  0  0  0
   -0.5380   24.6710  -24.4040 C   0  0  0  0  0  0  0  0  0  0  0  0
   -0.0250   25.6620  -25.4610 C   0  0  0  0  0  0  0  0  0  0  0  0
    0.1020   25.0160  -26.8560 C   0  0  0  0  0  0  0  0  0  0  0  0
   -4.5430   21.9470  -30.5350 C   0  0  0  0  0  0  0  0  0  0  0  0
   -4.9270   20.8110  -31.4960 C   0  0  0  0  0  0  0  0  0  0  0  0
   -7.4660   20.4020  -31.2740 C   0  0  0  0  0  0  0  0  0  0  0  0
   -7.4980   18.8660  -31.2890 C   0  0  0  0  0  0  0  0  0  0  0  0
   -5.5474   16.1279  -32.7315 H   0  0  0  0  0  0  0  0  0  0  0  0
   -6.6326   15.5964  -34.0606 H   0  0  0  0  0  0  0  0  0  0  0  0
   -5.9622   17.2629  -34.0606 H   0  0  0  0  0  0  0  0  0  0  0  0
   -8.4891   18.6215  -33.1949 H   0  0  0  0  0  0  0  0  0  0  0  0
   -5.4185   18.5121  -33.0436 H   0  0  0  0  0  0  0  0  0  0  0  0
   -6.4131   18.4610  -34.5505 H   0  0  0  0  0  0  0  0  0  0  0  0
   -5.4933   20.7236  -34.1349 H   0  0  0  0  0  0  0  0  0  0  0  0
   -7.3126   20.6819  -34.0496 H   0  0  0  0  0  0  0  0  0  0  0  0
   -7.3043   22.7057  -33.1615 H   0  0  0  0  0  0  0  0  0  0  0  0
   -7.1079   22.8981  -31.3648 H   0  0  0  0  0  0  0  0  0  0  0  0
   -4.8243   22.9909  -33.3866 H   0  0  0  0  0  0  0  0  0  0  0  0
   -5.6523   24.4324  -32.6722 H   0  0  0  0  0  0  0  0  0  0  0  0
   -3.3986   23.4009  -31.6290 H   0  0  0  0  0  0  0  0  0  0  0  0
   -5.2521   25.2793  -30.8604 H   0  0  0  0  0  0  0  0  0  0  0  0
   -5.3423   24.1191  -29.4802 H   0  0  0  0  0  0  0  0  0  0  0  0
   -1.4514   23.1110  -28.9655 H   0  0  0  0  0  0  0  0  0  0  0  0
   -0.8977   24.8608  -29.0041 H   0  0  0  0  0  0  0  0  0  0  0  0
   -1.7310   24.1660  -26.4730 H   0  0  0  0  0  0  0  0  0  0  0  0
   -1.0489   21.8833  -27.4099 H   0  0  0  0  0  0  0  0  0  0  0  0
    0.6236   22.5508  -27.1734 H   0  0  0  0  0  0  0  0  0  0  0  0
   -1.5344   22.1124  -25.0678 H   0  0  0  0  0  0  0  0  0  0  0  0
    0.1089   21.3172  -25.2311 H   0  0  0  0  0  0  0  0  0  0  0  0
    0.1354   22.8921  -23.4037 H   0  0  0  0  0  0  0  0  0  0  0  0
    1.1588   23.4732  -24.8278 H   0  0  0  0  0  0  0  0  0  0  0  0
   -1.6148   24.5196  -24.5700 H   0  0  0  0  0  0  0  0  0  0  0  0
   -0.3102   25.1156  -23.4240 H   0  0  0  0  0  0  0  0  0  0  0  0
   -0.7272   26.5063  -25.5247 H   0  0  0  0  0  0  0  0  0  0  0  0
    0.9767   25.9952  -25.1519 H   0  0  0  0  0  0  0  0  0  0  0  0
    0.0000   25.8039  -27.6168 H   0  0  0  0  0  0  0  0  0  0  0  0
    1.0848   24.5238  -26.9002 H   0  0  0  0  0  0  0  0  0  0  0  0
   -3.5715   21.7120  -30.0757 H   0  0  0  0  0  0  0  0  0  0  0  0
   -5.3306   22.0307  -29.7717 H   0  0  0  0  0  0  0  0  0  0  0  0
   -4.1716   20.7537  -32.2936 H   0  0  0  0  0  0  0  0  0  0  0  0
   -4.9707   19.8803  -30.9113 H   0  0  0  0  0  0  0  0  0  0  0  0
   -7.3185   20.7339  -30.2357 H   0  0  0  0  0  0  0  0  0  0  0  0
   -8.4221   20.7424  -31.6983 H   0  0  0  0  0  0  0  0  0  0  0  0
   -6.5948   18.4860  -30.7891 H   0  0  0  0  0  0  0  0  0  0  0  0
   -8.4074   18.5374  -30.7646 H   0  0  0  0  0  0  0  0  0  0  0  0
  1  2  1  0
  2  3  1  0
  3  4  1  0
  4  5  1  0
  5  6  1  0
  6  7  1  0
  7  8  1  0
  8  9  1  0
  9 10  1  0
 10 11  1  0
 11 12  1  0
 12 13  2  0
 12 14  1  0
 14 15  1  0
 15 16  1  0
 16 17  1  0
 17 18  1  0
 18 19  1  0
 19 20  1  0
 20 21  1  0
  9 22  1  0
 22 23  1  0
  6 24  1  0
 24 25  1  0
 25  3  1  0
 23  6  1  0
 21 15  1  0
  1 26  1  0
  1 27  1  0
  1 28  1  0
  3 29  1  6
  4 30  1  0
  4 31  1  0
  5 32  1  0
  5 33  1  0
  7 34  1  0
  7 35  1  0
  8 36  1  0
  8 37  1  0
  9 38  1  6
 10 39  1  0
 10 40  1  0
 14 41  1  0
 14 42  1  0
 15 43  1  0
 16 44  1  0
 16 45  1  0
 17 46  1  0
 17 47  1  0
 18 48  1  0
 18 49  1  0
 19 50  1  0
 19 51  1  0
 20 52  1  0
 20 53  1  0
 21 54  1  0
 21 55  1  0
 22 56  1  0
 22 57  1  0
 23 58  1  0
 23 59  1  0
 24 60  1  0
 24 61  1  0
 25 62  1  0
 25 63  1  0
M  CHG  2  11  -1  15   1
M  END
>  <UniqueID>  (38) 
37

>  <SMILES>  (38) 
COC1CCC2(CCC(C[N-]C(=O)C[NH+]3CCCCCC3)CC2)CC1

>  <Energy>  (38) 
72.03347481931307

>  <Genealogy>  (38) 
COC1CCC2(CCC(C[N-]C(=O)C[NH+]3CCCCCC3)CC2)CC1 (protonated)
COC1CCC2(CCC(C[N-]C(=O)C[NH+]3CCCCCC3)CC2)CC1 (3D coordinates assigned)
COC1CCC2(CCC(C[N-]C(=O)C[NH+]3CCCCCC3)CC2)CC1 (nonaromatic ring conformer: 72.03347481931307 kcal/mol)

>  <smiles>  (38) 
COC1CCC2(CCC(CNC(=O)CN3CCCCCC3)CC2)CC1

>  <score_type>  (38) 
oracle

>  <origin>  (38) 
adg

>  <m_score__min__energy>  (38) 
-7.2800000000000002

>  <m_primary>  (38) 
energy

$$$$
38:0
     RDKit          3D

 38 40  0  0  0  0  0  0  0  0999 V2000
   -4.9780   17.4550  -35.3330 C   0  0  0  0  0  0  0  0  0  0  0  0
   -5.4030   17.3310  -33.9050 C   0  0  0  0  0  0  0  0  0  0  0  0
   -4.8950   16.3070  -33.0970 C   0  0  0  0  0  0  0  0  0  0  0  0
   -5.3420   16.1880  -31.7810 C   0  0  0  0  0  0  0  0  0  0  0  0
   -6.3020   17.0730  -31.2900 C   0  0  0  0  0  0  0  0  0  0  0  0
   -6.8170   18.0710  -32.1340 C   0  0  0  0  0  0  0  0  0  0  0  0
   -7.9100   18.9990  -31.6570 C   0  0  0  0  0  0  0  0  0  0  0  0
   -8.2720   20.0710  -32.6200 N   0  0  0  0  0  0  0  0  0  0  0  0
   -9.4830   20.8480  -32.2890 C   0  0  0  0  0  0  0  0  0  0  0  0
   -9.2420   21.9110  -31.2060 C   0  0  0  0  0  0  0  0  0  0  0  0
   -7.8790   22.5450  -31.2800 C   0  0  0  0  0  0  0  0  0  0  0  0
   -7.5810   23.5570  -30.4240 N   0  0  0  0  0  0  0  0  0  0  0  0
   -6.3720   24.1240  -30.3810 N   0  0  0  0  0  0  0  0  0  0  0  0
   -6.1340   25.1980  -29.4180 C   0  0  0  0  0  0  0  0  0  0  0  0
   -5.3740   23.6970  -31.2130 C   0  0  0  0  0  0  0  0  0  0  0  0
   -4.2300   24.2280  -31.1770 O   0  0  0  0  0  0  0  0  0  0  0  0
   -5.6220   22.6570  -32.1100 C   0  0  0  0  0  0  0  0  0  0  0  0
   -6.8820   22.0560  -32.1360 C   0  0  0  0  0  0  0  0  0  0  0  0
   -7.1650   20.9260  -33.0910 C   0  0  0  0  0  0  0  0  0  0  0  0
   -6.3460   18.1770  -33.4060 N   0  0  0  0  0  0  0  0  0  0  0  0
   -3.9228   17.7629  -35.3761 H   0  0  0  0  0  0  0  0  0  0  0  0
   -5.0977   16.4845  -35.8368 H   0  0  0  0  0  0  0  0  0  0  0  0
   -5.6008   18.2089  -35.8368 H   0  0  0  0  0  0  0  0  0  0  0  0
   -4.1502   15.6027  -33.4961 H   0  0  0  0  0  0  0  0  0  0  0  0
   -4.9381   15.3975  -31.1314 H   0  0  0  0  0  0  0  0  0  0  0  0
   -6.6528   16.9901  -30.2507 H   0  0  0  0  0  0  0  0  0  0  0  0
   -8.8093   18.3973  -31.4587 H   0  0  0  0  0  0  0  0  0  0  0  0
   -7.5228   19.5028  -30.7591 H   0  0  0  0  0  0  0  0  0  0  0  0
   -9.8355   21.3517  -33.2011 H   0  0  0  0  0  0  0  0  0  0  0  0
  -10.2274   20.1412  -31.8938 H   0  0  0  0  0  0  0  0  0  0  0  0
   -9.9998   22.7004  -31.3182 H   0  0  0  0  0  0  0  0  0  0  0  0
   -9.3101   21.4027  -30.2328 H   0  0  0  0  0  0  0  0  0  0  0  0
   -6.2221   24.8004  -28.3962 H   0  0  0  0  0  0  0  0  0  0  0  0
   -5.1235   25.6065  -29.5666 H   0  0  0  0  0  0  0  0  0  0  0  0
   -6.8773   25.9951  -29.5666 H   0  0  0  0  0  0  0  0  0  0  0  0
   -4.8303   22.3131  -32.7918 H   0  0  0  0  0  0  0  0  0  0  0  0
   -7.4334   21.3475  -34.0710 H   0  0  0  0  0  0  0  0  0  0  0  0
   -6.2603   20.3043  -33.1609 H   0  0  0  0  0  0  0  0  0  0  0  0
  1  2  1  0
  2  3  2  0
  3  4  1  0
  4  5  2  0
  5  6  1  0
  6  7  1  0
  7  8  1  0
  8  9  1  0
  9 10  1  0
 10 11  1  0
 11 12  2  0
 12 13  1  0
 13 14  1  0
 13 15  1  0
 15 16  2  0
 15 17  1  0
 17 18  2  0
 18 19  1  0
  6 20  2  0
 20  2  1  0
 19  8  1  0
 18 11  1  0
  1 21  1  0
  1 22  1  0
  1 23  1  0
  3 24  1  0
  4 25  1  0
  5 26  1  0
  7 27  1  0
  7 28  1  0
  9 29  1  0
  9 30  1  0
 10 31  1  0
 10 32  1  0
 14 33  1  0
 14 34  1  0
 14 35  1  0
 17 36  1  0
 19 37  1  0
 19 38  1  0
M  END
>  <UniqueID>  (39) 
38

>  <SMILES>  (39) 
Cc1cccc(CN2CCc3nn(C)c(=O)cc3C2)n1

>  <Energy>  (39) 
48.02430854016867

>  <Genealogy>  (39) 
Cc1cccc(CN2CCc3nn(C)c(=O)cc3C2)n1 (3D coordinates assigned)
Cc1cccc(CN2CCc3nn(C)c(=O)cc3C2)n1 (nonaromatic ring conformer: 48.02430854016867 kcal/mol)

>  <smiles>  (39) 
Cc1cccc(CN2CCc3nn(C)c(=O)cc3C2)n1

>  <score_type>  (39) 
oracle

>  <origin>  (39) 
adg

>  <m_score__min__energy>  (39) 
-8.0899999999999999

>  <m_primary>  (39) 
energy

$$$$
39:0
     RDKit          3D

 25 27  0  0  0  0  0  0  0  0999 V2000
   -8.4080   17.9630  -32.3190 O   0  0  0  0  0  0  0  0  0  0  0  0
   -7.6110   18.8650  -32.7020 C   0  0  0  0  0  0  0  0  0  0  0  0
   -7.8200   20.1980  -32.3060 C   0  0  0  0  0  0  0  0  0  0  0  0
   -8.9200   20.5830  -31.5160 C   0  0  0  0  0  0  0  0  0  0  0  0
   -9.0860   21.9210  -31.1490 C   0  0  0  0  0  0  0  0  0  0  0  0
   -8.1610   22.8830  -31.5620 C   0  0  0  0  0  0  0  0  0  0  0  0
   -7.0640   22.5120  -32.3430 C   0  0  0  0  0  0  0  0  0  0  0  0
   -6.8860   21.1710  -32.7200 C   0  0  0  0  0  0  0  0  0  0  0  0
   -5.8140   20.8010  -33.4700 N   0  0  0  0  0  0  0  0  0  0  0  0
   -5.6330   19.5080  -33.8420 C   0  0  0  0  0  0  0  0  0  0  0  0
   -6.5380   18.5450  -33.4940 N   0  0  0  0  0  0  0  0  0  0  0  0
   -6.2810   17.1480  -33.8780 C   0  0  0  0  0  0  0  0  0  0  0  0
   -4.8170   16.8390  -34.1710 C   0  0  0  0  0  0  0  0  0  0  0  0
   -5.4460   16.3550  -32.8780 C   0  0  0  0  0  0  0  0  0  0  0  0
   -9.6502   19.8290  -31.1870 H   0  0  0  0  0  0  0  0  0  0  0  0
   -9.9477   22.2177  -30.5330 H   0  0  0  0  0  0  0  0  0  0  0  0
   -8.2969   23.9352  -31.2714 H   0  0  0  0  0  0  0  0  0  0  0  0
   -6.3371   23.2727  -32.6638 H   0  0  0  0  0  0  0  0  0  0  0  0
   -5.1070   21.5110  -33.7670 H   0  0  0  0  0  0  0  0  0  0  0  0
   -4.7462   19.2318  -34.4313 H   0  0  0  0  0  0  0  0  0  0  0  0
   -7.2369   16.9854  -34.3975 H   0  0  0  0  0  0  0  0  0  0  0  0
   -4.5547   16.1171  -34.9584 H   0  0  0  0  0  0  0  0  0  0  0  0
   -3.9323   17.4406  -34.4268 H   0  0  0  0  0  0  0  0  0  0  0  0
   -5.6395   15.2825  -32.7287 H   0  0  0  0  0  0  0  0  0  0  0  0
   -5.2056   16.4609  -31.8098 H   0  0  0  0  0  0  0  0  0  0  0  0
  1  2  2  0
  2  3  1  0
  3  4  2  0
  4  5  1  0
  5  6  2  0
  6  7  1  0
  7  8  2  0
  8  9  1  0
  9 10  2  0
 10 11  1  0
 11 12  1  0
 12 13  1  0
 13 14  1  0
 11  2  1  0
 14 12  1  0
  8  3  1  0
  4 15  1  0
  5 16  1  0
  6 17  1  0
  7 18  1  0
  9 19  1  0
 10 20  1  0
 12 21  1  0
 13 22  1  0
 13 23  1  0
 14 24  1  0
 14 25  1  0
M  CHG  1   9   1
M  END
>  <UniqueID>  (40) 
39

>  <SMILES>  (40) 
O=c1c2ccccc2[nH+]cn1C1CC1

>  <Energy>  (40) 
297.8288276852944

>  <Genealogy>  (40) 
O=c1c2ccccc2[nH+]cn1C1CC1 (protonated)
O=c1c2ccccc2[nH+]cn1C1CC1 (3D coordinates assigned)
O=c1c2ccccc2[nH+]cn1C1CC1 (nonaromatic ring conformer: 297.8288276852944 kcal/mol)

>  <smiles>  (40) 
O=c1c2ccccc2ncn1C1CC1

>  <score_type>  (40) 
oracle

>  <origin>  (40) 
adg

>  <m_score__min__energy>  (40) 
-5.5800000000000001

>  <m_primary>  (40) 
energy

$$$$
40:0
     RDKit          3D

 42 44  0  0  0  0  0  0  0  0999 V2000
   -0.8960   26.2380  -27.7370 C   0  0  0  0  0  0  0  0  0  0  0  0
   -1.3910   25.7650  -28.9710 O   0  0  0  0  0  0  0  0  0  0  0  0
   -1.8160   24.4230  -28.8440 C   0  0  0  0  0  0  0  0  0  0  0  0
   -3.0960   24.2110  -29.5890 C   0  0  0  0  0  0  0  0  0  0  0  0
   -3.9080   23.1530  -29.4040 N   0  0  0  0  0  0  0  0  0  0  0  0
   -4.9060   23.4390  -30.2660 C   0  0  0  0  0  0  0  0  0  0  0  0
   -6.1150   22.5740  -30.4520 C   0  0  0  0  0  0  0  0  0  0  0  0
   -6.7710   22.8630  -31.7500 N   0  0  0  0  0  0  0  0  0  0  0  0
   -8.2070   23.1510  -31.5620 C   0  0  0  0  0  0  0  0  0  0  0  0
   -8.9990   21.8690  -31.8300 C   0  0  0  0  0  0  0  0  0  0  0  0
   -7.9910   20.8660  -32.3600 C   0  0  0  0  0  0  0  0  0  0  0  0
   -6.7680   21.7190  -32.6850 C   0  0  2  0  0  0  0  0  0  0  0  0
   -5.4370   20.9780  -32.8040 C   0  0  0  0  0  0  0  0  0  0  0  0
   -5.4460   19.5730  -32.8490 C   0  0  0  0  0  0  0  0  0  0  0  0
   -4.2460   18.8720  -32.9800 C   0  0  0  0  0  0  0  0  0  0  0  0
   -3.0720   19.5450  -33.0820 N   0  0  0  0  0  0  0  0  0  0  0  0
   -3.0210   20.9060  -33.0640 C   0  0  0  0  0  0  0  0  0  0  0  0
   -1.8010   21.5770  -33.1840 O   0  0  0  0  0  0  0  0  0  0  0  0
   -0.7110   21.0660  -33.9410 C   0  0  0  0  0  0  0  0  0  0  0  0
   -4.2010   21.6440  -32.9310 C   0  0  0  0  0  0  0  0  0  0  0  0
   -4.7090   24.5960  -30.9260 N   0  0  0  0  0  0  0  0  0  0  0  0
   -3.5770   25.0440  -30.4780 O   0  0  0  0  0  0  0  0  0  0  0  0
   -1.4230   25.7344  -26.9132 H   0  0  0  0  0  0  0  0  0  0  0  0
    0.1809   26.0248  -27.6679 H   0  0  0  0  0  0  0  0  0  0  0  0
   -1.0601   27.3235  -27.6679 H   0  0  0  0  0  0  0  0  0  0  0  0
   -1.0427   23.7571  -29.2545 H   0  0  0  0  0  0  0  0  0  0  0  0
   -1.9801   24.1988  -27.7797 H   0  0  0  0  0  0  0  0  0  0  0  0
   -5.8101   21.5173  -30.4288 H   0  0  0  0  0  0  0  0  0  0  0  0
   -6.8280   22.7832  -29.6409 H   0  0  0  0  0  0  0  0  0  0  0  0
   -8.3857   23.4887  -30.5305 H   0  0  0  0  0  0  0  0  0  0  0  0
   -8.5263   23.9430  -32.2554 H   0  0  0  0  0  0  0  0  0  0  0  0
   -9.4556   21.4989  -30.9002 H   0  0  0  0  0  0  0  0  0  0  0  0
   -9.8166   22.0394  -32.5458 H   0  0  0  0  0  0  0  0  0  0  0  0
   -7.7509   20.1108  -31.5971 H   0  0  0  0  0  0  0  0  0  0  0  0
   -8.3639   20.3065  -33.2306 H   0  0  0  0  0  0  0  0  0  0  0  0
   -6.8591   22.0821  -33.7193 H   0  0  0  0  0  0  0  0  0  0  0  0
   -6.3981   19.0263  -32.7810 H   0  0  0  0  0  0  0  0  0  0  0  0
   -4.2520   17.7722  -33.0006 H   0  0  0  0  0  0  0  0  0  0  0  0
    0.0699   20.6999  -33.2582 H   0  0  0  0  0  0  0  0  0  0  0  0
   -1.0611   20.2382  -34.5752 H   0  0  0  0  0  0  0  0  0  0  0  0
   -0.2986   21.8646  -34.5752 H   0  0  0  0  0  0  0  0  0  0  0  0
   -4.1650   22.7434  -32.9255 H   0  0  0  0  0  0  0  0  0  0  0  0
  1  2  1  0
  2  3  1  0
  3  4  1  0
  4  5  2  0
  5  6  1  0
  6  7  1  0
  7  8  1  0
  8  9  1  0
  9 10  1  0
 10 11  1  0
 11 12  1  0
 12 13  1  0
 13 14  2  0
 14 15  1  0
 15 16  2  0
 16 17  1  0
 17 18  1  0
 18 19  1  0
 17 20  2  0
  6 21  2  0
 21 22  1  0
 22  4  1  0
 12  8  1  0
 20 13  1  0
  1 23  1  0
  1 24  1  0
  1 25  1  0
  3 26  1  0
  3 27  1  0
  7 28  1  0
  7 29  1  0
  9 30  1  0
  9 31  1  0
 10 32  1  0
 10 33  1  0
 11 34  1  0
 11 35  1  0
 12 36  1  6
 14 37  1  0
 15 38  1  0
 19 39  1  0
 19 40  1  0
 19 41  1  0
 20 42  1  0
M  END
>  <UniqueID>  (41) 
40

>  <SMILES>  (41) 
COCc1nc(CN2CCC[C@@H]2c2ccnc(OC)c2)no1

>  <Energy>  (41) 
85.80132502542202

>  <Genealogy>  (41) 
COCc1nc(CN2CCC[C@@H]2c2ccnc(OC)c2)no1 (chirality)
COCc1nc(CN2CCC[C@@H]2c2ccnc(OC)c2)no1 (3D coordinates assigned)
COCc1nc(CN2CCC[C@@H]2c2ccnc(OC)c2)no1 (nonaromatic ring conformer: 85.80132502542202 kcal/mol)

>  <smiles>  (41) 
COCc1nc(CN2CCCC2c2ccnc(OC)c2)no1

>  <score_type>  (41) 
oracle

>  <origin>  (41) 
adg

>  <m_score__min__energy>  (41) 
-8.2799999999999994

>  <m_primary>  (41) 
energy

$$$$
41:0
     RDKit          3D

 39 41  0  0  0  0  0  0  0  0999 V2000
   -8.7840   18.5360  -31.6280 C   0  0  0  0  0  0  0  0  0  0  0  0
   -7.7070   19.1510  -32.5150 C   0  0  0  0  0  0  0  0  0  0  0  0
   -7.9530   20.5440  -32.7160 O   0  0  0  0  0  0  0  0  0  0  0  0
   -7.2370   21.5950  -32.1170 C   0  0  0  0  0  0  0  0  0  0  0  0
   -5.8910   21.8730  -32.4230 C   0  0  0  0  0  0  0  0  0  0  0  0
   -5.2290   22.9320  -31.7940 C   0  0  0  0  0  0  0  0  0  0  0  0
   -5.8990   23.7220  -30.8520 C   0  0  0  0  0  0  0  0  0  0  0  0
   -5.0470   25.0380  -30.0500 S   0  0  0  0  0  0  0  0  0  0  0  0
   -3.8620   25.4270  -30.8870 O   0  0  0  0  0  0  0  0  0  0  0  0
   -5.9440   26.2340  -29.8860 O   0  0  0  0  0  0  0  0  0  0  0  0
   -4.5000   24.5210  -28.4860 N   0  0  0  0  0  0  0  0  0  0  0  0
   -3.6780   23.3600  -28.2700 C   0  0  0  0  0  0  0  0  0  0  0  0
   -2.6710   23.3350  -27.2880 C   0  0  0  0  0  0  0  0  0  0  0  0
   -1.8960   22.1880  -27.0990 C   0  0  0  0  0  0  0  0  0  0  0  0
   -2.1010   21.0440  -27.8870 C   0  0  0  0  0  0  0  0  0  0  0  0
   -1.2900   19.8700  -27.6780 N   0  0  0  0  0  0  0  0  0  0  0  0
   -0.0080   19.6500  -28.0280 C   0  0  0  0  0  0  0  0  0  0  0  0
    0.3640   18.4160  -27.6400 N   0  0  0  0  0  0  0  0  0  0  0  0
   -0.7040   17.8960  -27.0530 N   0  0  0  0  0  0  0  0  0  0  0  0
   -1.7000   18.7680  -27.0740 N   0  0  0  0  0  0  0  0  0  0  0  0
   -3.1000   21.0760  -28.8770 C   0  0  0  0  0  0  0  0  0  0  0  0
   -3.8760   22.2230  -29.0650 C   0  0  0  0  0  0  0  0  0  0  0  0
   -7.2410   23.4540  -30.5530 C   0  0  0  0  0  0  0  0  0  0  0  0
   -7.9020   22.3960  -31.1820 C   0  0  0  0  0  0  0  0  0  0  0  0
   -8.5191   18.6873  -30.5711 H   0  0  0  0  0  0  0  0  0  0  0  0
   -9.7503   19.0185  -31.8365 H   0  0  0  0  0  0  0  0  0  0  0  0
   -8.8596   17.4586  -31.8365 H   0  0  0  0  0  0  0  0  0  0  0  0
   -6.7263   19.0233  -32.0335 H   0  0  0  0  0  0  0  0  0  0  0  0
   -7.7215   18.6448  -33.4915 H   0  0  0  0  0  0  0  0  0  0  0  0
   -5.3579   21.2544  -33.1600 H   0  0  0  0  0  0  0  0  0  0  0  0
   -4.1783   23.1451  -32.0401 H   0  0  0  0  0  0  0  0  0  0  0  0
   -4.7070   25.1540  -27.6810 H   0  0  0  0  0  0  0  0  0  0  0  0
   -2.4927   24.2240  -26.6651 H   0  0  0  0  0  0  0  0  0  0  0  0
   -1.1158   22.1810  -26.3236 H   0  0  0  0  0  0  0  0  0  0  0  0
    0.6376   20.3702  -28.5519 H   0  0  0  0  0  0  0  0  0  0  0  0
   -3.2717   20.1914  -29.5080 H   0  0  0  0  0  0  0  0  0  0  0  0
   -4.6509   22.2335  -29.8457 H   0  0  0  0  0  0  0  0  0  0  0  0
   -7.7755   24.0778  -29.8215 H   0  0  0  0  0  0  0  0  0  0  0  0
   -8.9552   22.1907  -30.9399 H   0  0  0  0  0  0  0  0  0  0  0  0
  1  2  1  0
  2  3  1  0
  3  4  1  0
  4  5  2  0
  5  6  1  0
  6  7  2  0
  7  8  1  0
  8  9  2  0
  8 10  2  0
  8 11  1  0
 11 12  1  0
 12 13  2  0
 13 14  1  0
 14 15  2  0
 15 16  1  0
 16 17  1  0
 17 18  2  0
 18 19  1  0
 19 20  2  0
 15 21  1  0
 21 22  2  0
  7 23  1  0
 23 24  2  0
 24  4  1  0
 22 12  1  0
 20 16  1  0
  1 25  1  0
  1 26  1  0
  1 27  1  0
  2 28  1  0
  2 29  1  0
  5 30  1  0
  6 31  1  0
 11 32  1  0
 13 33  1  0
 14 34  1  0
 17 35  1  0
 21 36  1  0
 22 37  1  0
 23 38  1  0
 24 39  1  0
M  END
>  <UniqueID>  (42) 
41

>  <SMILES>  (42) 
CCOc1ccc(S(=O)(=O)Nc2ccc(-n3cnnn3)cc2)cc1

>  <Energy>  (42) 
83.63336898618766

>  <Genealogy>  (42) 
CCOc1ccc(S(=O)(=O)Nc2ccc(-n3cnnn3)cc2)cc1 (3D coordinates assigned)
CCOc1ccc(S(=O)(=O)Nc2ccc(-n3cnnn3)cc2)cc1 (optimized conformer: 83.63336898618766 kcal/mol)

>  <smiles>  (42) 
CCOc1ccc(S(=O)(=O)Nc2ccc(-n3cnnn3)cc2)cc1

>  <score_type>  (42) 
oracle

>  <origin>  (42) 
adg

>  <m_score__min__energy>  (42) 
-8.9000000000000004

>  <m_primary>  (42) 
energy

$$$$
42:0
     RDKit          3D

 39 41  0  0  0  0  0  0  0  0999 V2000
   -0.6680   24.3130  -25.3530 C   0  0  0  0  0  0  0  0  0  0  0  0
   -1.3480   23.9430  -26.6460 C   0  0  0  0  0  0  0  0  0  0  0  0
   -0.6450   23.1580  -27.5740 C   0  0  0  0  0  0  0  0  0  0  0  0
   -1.2360   22.7810  -28.7770 C   0  0  0  0  0  0  0  0  0  0  0  0
   -2.5390   23.1730  -29.0690 C   0  0  0  0  0  0  0  0  0  0  0  0
   -3.2670   23.9680  -28.1690 C   0  0  0  0  0  0  0  0  0  0  0  0
   -4.6230   24.3340  -28.4810 N   0  0  0  0  0  0  0  0  0  0  0  0
   -5.1150   24.7780  -30.0840 S   0  0  0  0  0  0  0  0  0  0  0  0
   -6.1610   25.8540  -29.9990 O   0  0  0  0  0  0  0  0  0  0  0  0
   -3.9290   25.3020  -30.8440 O   0  0  0  0  0  0  0  0  0  0  0  0
   -5.7420   23.3620  -30.9240 C   0  0  0  0  0  0  0  0  0  0  0  0
   -4.9120   22.6020  -31.7590 C   0  0  0  0  0  0  0  0  0  0  0  0
   -5.4220   21.4970  -32.4460 C   0  0  0  0  0  0  0  0  0  0  0  0
   -6.7710   21.1410  -32.3070 C   0  0  0  0  0  0  0  0  0  0  0  0
   -7.2970   20.0380  -32.9970 C   0  0  0  0  0  0  0  0  0  0  0  0
   -8.6440   19.6960  -32.8510 C   0  0  0  0  0  0  0  0  0  0  0  0
   -9.4740   20.4500  -32.0170 C   0  0  0  0  0  0  0  0  0  0  0  0
   -8.9640   21.5500  -31.3230 C   0  0  0  0  0  0  0  0  0  0  0  0
   -7.6130   21.9040  -31.4600 C   0  0  0  0  0  0  0  0  0  0  0  0
   -7.0890   23.0070  -30.7710 C   0  0  0  0  0  0  0  0  0  0  0  0
   -2.6610   24.3910  -26.9590 C   0  0  0  0  0  0  0  0  0  0  0  0
   -3.4220   25.2900  -26.0120 C   0  0  0  0  0  0  0  0  0  0  0  0
   -1.2841   23.9777  -24.5057 H   0  0  0  0  0  0  0  0  0  0  0  0
    0.3175   23.8267  -25.3048 H   0  0  0  0  0  0  0  0  0  0  0  0
   -0.5410   25.4046  -25.3048 H   0  0  0  0  0  0  0  0  0  0  0  0
    0.3829   22.8377  -27.3483 H   0  0  0  0  0  0  0  0  0  0  0  0
   -0.6716   22.1718  -29.4984 H   0  0  0  0  0  0  0  0  0  0  0  0
   -3.0035   22.8568  -30.0147 H   0  0  0  0  0  0  0  0  0  0  0  0
   -5.3230   24.4510  -27.7170 H   0  0  0  0  0  0  0  0  0  0  0  0
   -3.8531   22.8767  -31.8744 H   0  0  0  0  0  0  0  0  0  0  0  0
   -4.7630   20.9047  -33.0978 H   0  0  0  0  0  0  0  0  0  0  0  0
   -6.6475   19.4413  -33.6543 H   0  0  0  0  0  0  0  0  0  0  0  0
   -9.0522   18.8309  -33.3941 H   0  0  0  0  0  0  0  0  0  0  0  0
  -10.5336   20.1762  -31.9065 H   0  0  0  0  0  0  0  0  0  0  0  0
   -9.6225   22.1396  -30.6681 H   0  0  0  0  0  0  0  0  0  0  0  0
   -7.7384   23.5966  -30.1071 H   0  0  0  0  0  0  0  0  0  0  0  0
   -3.1868   25.0121  -24.9740 H   0  0  0  0  0  0  0  0  0  0  0  0
   -3.1310   26.3364  -26.1864 H   0  0  0  0  0  0  0  0  0  0  0  0
   -4.5021   25.1758  -26.1864 H   0  0  0  0  0  0  0  0  0  0  0  0
  1  2  1  0
  2  3  2  0
  3  4  1  0
  4  5  2  0
  5  6  1  0
  6  7  1  0
  7  8  1  0
  8  9  2  0
  8 10  2  0
  8 11  1  0
 11 12  2  0
 12 13  1  0
 13 14  2  0
 14 15  1  0
 15 16  2  0
 16 17  1  0
 17 18  2  0
 18 19  1  0
 19 20  2  0
  6 21  2  0
 21 22  1  0
 21  2  1  0
 20 11  1  0
 19 14  1  0
  1 23  1  0
  1 24  1  0
  1 25  1  0
  3 26  1  0
  4 27  1  0
  5 28  1  0
  7 29  1  0
 12 30  1  0
 13 31  1  0
 15 32  1  0
 16 33  1  0
 17 34  1  0
 18 35  1  0
 20 36  1  0
 22 37  1  0
 22 38  1  0
 22 39  1  0
M  END
>  <UniqueID>  (43) 
42

>  <SMILES>  (43) 
Cc1cccc(NS(=O)(=O)c2ccc3ccccc3c2)c1C

>  <Energy>  (43) 
50.04894882665692

>  <Genealogy>  (43) 
Cc1cccc(NS(=O)(=O)c2ccc3ccccc3c2)c1C (3D coordinates assigned)
Cc1cccc(NS(=O)(=O)c2ccc3ccccc3c2)c1C (optimized conformer: 50.04894882665692 kcal/mol)

>  <smiles>  (43) 
Cc1cccc(NS(=O)(=O)c2ccc3ccccc3c2)c1C

>  <score_type>  (43) 
oracle

>  <origin>  (43) 
adg

>  <m_score__min__energy>  (43) 
-9.8499999999999996

>  <m_primary>  (43) 
energy

$$$$
43:0
     RDKit          3D

 36 39  0  0  0  0  0  0  0  0999 V2000
   -4.2390   22.9120  -27.8250 C   0  0  0  0  0  0  0  0  0  0  0  0
   -4.6290   23.4550  -29.1490 C   0  0  0  0  0  0  0  0  0  0  0  0
   -5.1600   24.7360  -29.2560 C   0  0  0  0  0  0  0  0  0  0  0  0
   -5.5380   25.2850  -30.4590 C   0  0  0  0  0  0  0  0  0  0  0  0
   -5.3870   24.5490  -31.5950 N   0  0  0  0  0  0  0  0  0  0  0  0
   -4.8750   23.3070  -31.5150 C   0  0  0  0  0  0  0  0  0  0  0  0
   -4.6330   22.4000  -32.4730 N   0  0  0  0  0  0  0  0  0  0  0  0
   -4.1090   21.2870  -31.9020 C   0  0  0  0  0  0  0  0  0  0  0  0
   -3.6230   19.8150  -32.7480 S   0  0  0  0  0  0  0  0  0  0  0  0
   -4.6710   19.4760  -34.2160 C   0  0  0  0  0  0  0  0  0  0  0  0
   -5.6670   18.4980  -33.7780 C   0  0  0  0  0  0  0  0  0  0  0  0
   -5.5570   17.1360  -34.0180 C   0  0  0  0  0  0  0  0  0  0  0  0
   -6.5600   16.2860  -33.5610 C   0  0  0  0  0  0  0  0  0  0  0  0
   -6.4950   15.0410  -33.7590 O   0  0  0  0  0  0  0  0  0  0  0  0
   -7.6090   16.7280  -32.9080 O   0  0  0  0  0  0  0  0  0  0  0  0
   -7.7280   18.0180  -32.6720 C   0  0  0  0  0  0  0  0  0  0  0  0
   -8.8230   18.5100  -31.9890 C   0  0  0  0  0  0  0  0  0  0  0  0
   -9.0000   19.8510  -31.7140 C   0  0  0  0  0  0  0  0  0  0  0  0
   -8.0210   20.7440  -32.1530 C   0  0  0  0  0  0  0  0  0  0  0  0
   -8.1430   22.4660  -31.8590 Cl  0  0  0  0  0  0  0  0  0  0  0  0
   -6.9150   20.2810  -32.8400 C   0  0  0  0  0  0  0  0  0  0  0  0
   -6.7890   18.9390  -33.0860 C   0  0  0  0  0  0  0  0  0  0  0  0
   -4.0130   21.4830  -30.5560 N   0  0  0  0  0  0  0  0  0  0  0  0
   -4.4850   22.7210  -30.3280 C   0  0  0  0  0  0  0  0  0  0  0  0
   -4.6826   23.5297  -27.0302 H   0  0  0  0  0  0  0  0  0  0  0  0
   -4.6020   21.8779  -27.7314 H   0  0  0  0  0  0  0  0  0  0  0  0
   -3.1431   22.9257  -27.7314 H   0  0  0  0  0  0  0  0  0  0  0  0
   -5.2826   25.3344  -28.3412 H   0  0  0  0  0  0  0  0  0  0  0  0
   -5.9554   26.3018  -30.5030 H   0  0  0  0  0  0  0  0  0  0  0  0
   -4.8190   22.5320  -33.5020 H   0  0  0  0  0  0  0  0  0  0  0  0
   -5.1640   20.3987  -34.5559 H   0  0  0  0  0  0  0  0  0  0  0  0
   -4.0754   19.0970  -35.0596 H   0  0  0  0  0  0  0  0  0  0  0  0
   -4.6895   16.7336  -34.5617 H   0  0  0  0  0  0  0  0  0  0  0  0
   -9.5904   17.7995  -31.6480 H   0  0  0  0  0  0  0  0  0  0  0  0
   -9.8854   20.2051  -31.1657 H   0  0  0  0  0  0  0  0  0  0  0  0
   -6.1427   20.9836  -33.1863 H   0  0  0  0  0  0  0  0  0  0  0  0
  1  2  1  0
  2  3  2  0
  3  4  1  0
  4  5  2  0
  5  6  1  0
  6  7  1  0
  7  8  1  0
  8  9  1  0
  9 10  1  0
 10 11  1  0
 11 12  2  0
 12 13  1  0
 13 14  2  0
 13 15  1  0
 15 16  1  0
 16 17  2  0
 17 18  1  0
 18 19  2  0
 19 20  1  0
 19 21  1  0
 21 22  2  0
  8 23  2  0
 23 24  1  0
 24  2  1  0
 24  6  2  0
 22 11  1  0
 22 16  1  0
  1 25  1  0
  1 26  1  0
  1 27  1  0
  3 28  1  0
  4 29  1  0
  7 30  1  0
 10 31  1  0
 10 32  1  0
 12 33  1  0
 17 34  1  0
 18 35  1  0
 21 36  1  0
M  END
>  <smiles>  (44) 
Cc1ccnc2[nH]c(SCc3cc(=O)oc4ccc(Cl)cc34)nc12

>  <score_type>  (44) 
oracle

>  <origin>  (44) 
adg

>  <m_score__min__energy>  (44) 
-9.2400000000000002

>  <m_primary>  (44) 
energy

$$$$
44:0
     RDKit          3D

 58 61  0  0  0  0  0  0  0  0999 V2000
   -4.8220   17.5950  -32.8340 C   0  0  0  0  0  0  0  0  0  0  0  0
   -5.4370   18.5700  -32.0000 O   0  0  0  0  0  0  0  0  0  0  0  0
   -6.7900   18.9420  -32.0710 C   0  0  0  0  0  0  0  0  0  0  0  0
   -7.8270   18.0070  -31.8800 C   0  0  0  0  0  0  0  0  0  0  0  0
   -9.1630   18.4080  -31.9430 C   0  0  0  0  0  0  0  0  0  0  0  0
   -9.4830   19.7430  -32.1920 C   0  0  0  0  0  0  0  0  0  0  0  0
   -8.4670   20.6800  -32.3850 C   0  0  0  0  0  0  0  0  0  0  0  0
   -7.1160   20.2910  -32.3360 C   0  0  0  0  0  0  0  0  0  0  0  0
   -6.0260   21.3240  -32.5590 C   0  0  0  0  0  0  0  0  0  0  0  0
   -4.9780   21.2830  -31.5050 N   0  0  1  0  0  0  0  0  0  0  0  0
   -3.6090   21.0600  -32.0640 C   0  0  0  0  0  0  0  0  0  0  0  0
   -2.6980   22.3020  -32.0160 C   0  0  0  0  0  0  0  0  0  0  0  0
   -2.6350   22.9520  -30.6790 N   0  0  0  0  0  0  0  0  0  0  0  0
   -1.3070   22.7900  -30.0520 C   0  0  0  0  0  0  0  0  0  0  0  0
   -1.2900   23.3840  -28.6650 C   0  0  0  0  0  0  0  0  0  0  0  0
   -1.3170   24.7460  -28.4300 C   0  0  0  0  0  0  0  0  0  0  0  0
   -1.5040   24.9120  -27.0740 C   0  0  0  0  0  0  0  0  0  0  0  0
   -1.5990   23.6470  -26.5320 C   0  0  0  0  0  0  0  0  0  0  0  0
   -1.4630   22.7150  -27.4980 N   0  0  0  0  0  0  0  0  0  0  0  0
   -1.5630   21.3010  -27.2660 C   0  0  0  0  0  0  0  0  0  0  0  0
   -0.4860   20.4860  -27.2490 N   0  0  0  0  0  0  0  0  0  0  0  0
   -0.8410   19.1810  -27.1000 C   0  0  0  0  0  0  0  0  0  0  0  0
   -2.2080   18.9450  -27.0210 C   0  0  0  0  0  0  0  0  0  0  0  0
   -2.9960   20.4250  -27.1470 S   0  0  0  0  0  0  0  0  0  0  0  0
   -3.7190   22.5220  -29.7690 C   0  0  0  0  0  0  0  0  0  0  0  0
   -5.0590   22.4160  -30.5260 C   0  0  1  0  0  0  0  0  0  0  0  0
   -5.4980   23.7860  -31.1460 C   0  0  0  0  0  0  0  0  0  0  0  0
   -5.1560   24.9990  -30.2670 C   0  0  0  0  0  0  0  0  0  0  0  0
   -3.9490   25.5780  -30.6860 O   0  0  0  0  0  0  0  0  0  0  0  0
   -4.3392   16.8296  -32.2087 H   0  0  0  0  0  0  0  0  0  0  0  0
   -5.5853   17.1217  -33.4690 H   0  0  0  0  0  0  0  0  0  0  0  0
   -4.0660   18.0800  -33.4690 H   0  0  0  0  0  0  0  0  0  0  0  0
   -7.5821   16.9535  -31.6798 H   0  0  0  0  0  0  0  0  0  0  0  0
   -9.9650   17.6697  -31.7960 H   0  0  0  0  0  0  0  0  0  0  0  0
  -10.5363   20.0570  -32.2362 H   0  0  0  0  0  0  0  0  0  0  0  0
   -8.7248   21.7320  -32.5771 H   0  0  0  0  0  0  0  0  0  0  0  0
   -5.5534   21.1333  -33.5338 H   0  0  0  0  0  0  0  0  0  0  0  0
   -6.4957   22.3181  -32.5246 H   0  0  0  0  0  0  0  0  0  0  0  0
   -5.1830   20.4270  -30.9330 H   0  0  0  0  0  0  0  0  0  0  0  0
   -3.1275   20.2563  -31.4875 H   0  0  0  0  0  0  0  0  0  0  0  0
   -3.7386   20.8035  -33.1258 H   0  0  0  0  0  0  0  0  0  0  0  0
   -1.6804   21.9964  -32.3009 H   0  0  0  0  0  0  0  0  0  0  0  0
   -3.1271   23.0398  -32.7099 H   0  0  0  0  0  0  0  0  0  0  0  0
   -1.0675   21.7183  -29.9877 H   0  0  0  0  0  0  0  0  0  0  0  0
   -0.5614   23.3142  -30.6679 H   0  0  0  0  0  0  0  0  0  0  0  0
   -1.2100   25.5435  -29.1800 H   0  0  0  0  0  0  0  0  0  0  0  0
   -1.5654   25.8665  -26.5307 H   0  0  0  0  0  0  0  0  0  0  0  0
   -1.7621   23.4296  -25.4661 H   0  0  0  0  0  0  0  0  0  0  0  0
   -0.0989   18.3708  -27.0460 H   0  0  0  0  0  0  0  0  0  0  0  0
   -2.6895   17.9637  -26.8978 H   0  0  0  0  0  0  0  0  0  0  0  0
   -3.4655   21.5392  -29.3450 H   0  0  0  0  0  0  0  0  0  0  0  0
   -3.8243   23.2686  -28.9680 H   0  0  0  0  0  0  0  0  0  0  0  0
   -5.8700   22.1790  -29.8216 H   0  0  0  0  0  0  0  0  0  0  0  0
   -4.9928   23.9062  -32.1157 H   0  0  0  0  0  0  0  0  0  0  0  0
   -6.5933   23.7585  -31.2442 H   0  0  0  0  0  0  0  0  0  0  0  0
   -5.9622   25.7432  -30.3457 H   0  0  0  0  0  0  0  0  0  0  0  0
   -5.0508   24.6670  -29.2236 H   0  0  0  0  0  0  0  0  0  0  0  0
   -3.4940   24.9040  -31.2550 H   0  0  0  0  0  0  0  0  0  0  0  0
  1  2  1  0
  2  3  1  0
  3  4  2  0
  4  5  1  0
  5  6  2  0
  6  7  1  0
  7  8  2  0
  8  9  1  0
  9 10  1  0
 10 11  1  0
 11 12  1  0
 12 13  1  0
 13 14  1  0
 14 15  1  0
 15 16  2  0
 16 17  1  0
 17 18  2  0
 18 19  1  0
 19 20  1  0
 20 21  2  0
 21 22  1  0
 22 23  2  0
 23 24  1  0
 13 25  1  0
 25 26  1  0
 26 27  1  0
 27 28  1  0
 28 29  1  0
  8  3  1  0
 26 10  1  0
 19 15  1  0
 24 20  1  0
  1 30  1  0
  1 31  1  0
  1 32  1  0
  4 33  1  0
  5 34  1  0
  6 35  1  0
  7 36  1  0
  9 37  1  0
  9 38  1  0
 10 39  1  1
 11 40  1  0
 11 41  1  0
 12 42  1  0
 12 43  1  0
 14 44  1  0
 14 45  1  0
 16 46  1  0
 17 47  1  0
 18 48  1  0
 22 49  1  0
 23 50  1  0
 25 51  1  0
 25 52  1  0
 26 53  1  1
 27 54  1  0
 27 55  1  0
 28 56  1  0
 28 57  1  0
 29 58  1  0
M  CHG  1  10   1
M  END
>  <UniqueID>  (45) 
43

>  <SMILES>  (45) 
COc1ccccc1C[N@H+]1CCN(Cc2cccn2-c2nccs2)C[C@H]1CCO

>  <Energy>  (45) 
141.32174397906854

>  <Genealogy>  (45) 
COc1ccccc1C[NH+]1CCN(Cc2cccn2-c2nccs2)CC1CCO (protonated)
COc1ccccc1C[N@H+]1CCN(Cc2cccn2-c2nccs2)C[C@H]1CCO (chirality)
COc1ccccc1C[N@H+]1CCN(Cc2cccn2-c2nccs2)C[C@H]1CCO (3D coordinates assigned)
COc1ccccc1C[N@H+]1CCN(Cc2cccn2-c2nccs2)C[C@H]1CCO (nonaromatic ring conformer: 141.32174397906854 kcal/mol)

>  <smiles>  (45) 
COc1ccccc1CN1CCN(Cc2cccn2-c2nccs2)CC1CCO

>  <score_type>  (45) 
oracle

>  <origin>  (45) 
adg

>  <m_score__min__energy>  (45) 
-8.1500000000000004

>  <m_primary>  (45) 
energy

$$$$
