0:0
     RDKit          3D

 31 32  0  0  1  0  0  0  0  0999 V2000
   -6.1420   24.5780  -31.7130 O   0  0  0  0  0  0  0  0  0  0  0  0
   -6.4800   23.8440  -30.3790 S   0  0  0  0  0  0  0  0  0  0  0  0
   -7.2330   24.9760  -29.7850 O   0  0  0  0  0  0  0  0  0  0  0  0
   -4.9090   23.5240  -29.8870 N   0  0  0  0  0  0  0  0  0  0  0  0
   -3.8540   23.9650  -30.4520 C   0  0  0  0  0  0  0  0  0  0  0  0
   -3.6760   25.3340  -30.7750 O   0  0  0  0  0  0  0  0  0  0  0  0
   -2.8510   23.0020  -30.7510 N   0  0  0  0  0  0  0  0  0  0  0  0
   -3.1910   21.9040  -31.5680 C   0  0  0  0  0  0  0  0  0  0  0  0
   -2.7900   20.6030  -31.4340 C   0  0  0  0  0  0  0  0  0  0  0  0
   -3.2210   19.5730  -32.2450 C   0  0  0  0  0  0  0  0  0  0  0  0
   -4.1090   19.8120  -33.2700 C   0  0  0  0  0  0  0  0  0  0  0  0
   -4.6300   18.4990  -34.2700 Cl  0  0  0  0  0  0  0  0  0  0  0  0
   -4.5340   21.1140  -33.4360 C   0  0  0  0  0  0  0  0  0  0  0  0
   -4.1050   22.1420  -32.6260 C   0  0  0  0  0  0  0  0  0  0  0  0
   -7.4260   22.5490  -31.0320 C   0  0  0  0  0  0  0  0  0  0  0  0
   -6.8680   21.2640  -31.1660 C   0  0  0  0  0  0  0  0  0  0  0  0
   -7.5930   20.2200  -31.7140 C   0  0  0  0  0  0  0  0  0  0  0  0
   -8.8810   20.3750  -32.1520 C   0  0  0  0  0  0  0  0  0  0  0  0
   -9.4420   21.6270  -32.0300 C   0  0  0  0  0  0  0  0  0  0  0  0
   -8.7170   22.6670  -31.4840 C   0  0  0  0  0  0  0  0  0  0  0  0
   -4.2120   25.6690  -31.5920 H   0  0  0  0  0  0  0  0  0  0  0  0
   -1.8630   23.1620  -30.3760 H   0  0  0  0  0  0  0  0  0  0  0  0
   -2.0795   20.3628  -30.6294 H   0  0  0  0  0  0  0  0  0  0  0  0
   -2.8518   18.5515  -32.0711 H   0  0  0  0  0  0  0  0  0  0  0  0
   -5.2427   21.3397  -34.2464 H   0  0  0  0  0  0  0  0  0  0  0  0
   -4.4766   23.1622  -32.8022 H   0  0  0  0  0  0  0  0  0  0  0  0
   -5.8362   21.0859  -30.8289 H   0  0  0  0  0  0  0  0  0  0  0  0
   -7.1180   19.2316  -31.8006 H   0  0  0  0  0  0  0  0  0  0  0  0
   -9.4444   19.5345  -32.5834 H   0  0  0  0  0  0  0  0  0  0  0  0
  -10.4740   21.7991  -32.3697 H   0  0  0  0  0  0  0  0  0  0  0  0
   -9.2034   23.6506  -31.4063 H   0  0  0  0  0  0  0  0  0  0  0  0
  1  2  2  0
  2  3  2  0
  2  4  1  0
  4  5  2  0
  5  6  1  0
  5  7  1  0
  7  8  1  0
  8  9  2  0
  9 10  1  0
 10 11  2  0
 11 12  1  0
 11 13  1  0
 13 14  2  0
  2 15  1  0
 15 16  2  0
 16 17  1  0
 17 18  2  0
 18 19  1  0
 19 20  2  0
 14  8  1  0
 20 15  1  0
  6 21  1  0
  7 22  1  0
  9 23  1  0
 10 24  1  0
 13 25  1  0
 14 26  1  0
 16 27  1  0
 17 28  1  0
 18 29  1  0
 19 30  1  0
 20 31  1  0
M  END
>  <smiles>  (1) 
O=S(=O)(N=C(O)Nc1ccc(Cl)cc1)c1ccccc1

>  <score_type>  (1) 
oracle

>  <origin>  (1) 
adg

>  <m_score__min__energy>  (1) 
-8.7699999999999996

>  <m_primary>  (1) 
energy

$$$$
1:0
     RDKit          3D

 46 48  0  0  0  0  0  0  0  0999 V2000
   -2.6860   20.1800  -28.2210 C   0  0  0  0  0  0  0  0  0  0  0  0
   -2.0610   21.5110  -28.3150 N   0  0  0  0  0  0  0  0  0  0  0  0
   -2.9930   22.5900  -27.8840 C   0  0  0  0  0  0  0  0  0  0  0  0
   -3.4360   23.5290  -29.0200 C   0  0  0  0  0  0  0  0  0  0  0  0
   -3.5990   22.7790  -30.2660 N   0  0  0  0  0  0  0  0  0  0  0  0
   -4.8770   22.7240  -30.9160 C   0  0  0  0  0  0  0  0  0  0  0  0
   -5.3150   21.4980  -31.4400 C   0  0  0  0  0  0  0  0  0  0  0  0
   -6.5150   21.4100  -32.1590 C   0  0  0  0  0  0  0  0  0  0  0  0
   -6.9440   20.1490  -32.7110 N   0  0  0  0  0  0  0  0  0  0  0  0
   -8.2820   19.6160  -32.4210 C   0  0  0  0  0  0  0  0  0  0  0  0
   -8.1770   18.2340  -31.7600 C   0  0  0  0  0  0  0  0  0  0  0  0
   -7.0170   17.3770  -32.3140 C   0  0  0  0  0  0  0  0  0  0  0  0
   -6.4880   17.8960  -33.6570 C   0  0  0  0  0  0  0  0  0  0  0  0
   -6.0100   19.3490  -33.5180 C   0  0  0  0  0  0  0  0  0  0  0  0
   -7.2710   22.5730  -32.3680 C   0  0  0  0  0  0  0  0  0  0  0  0
   -6.8490   23.7960  -31.8440 C   0  0  0  0  0  0  0  0  0  0  0  0
   -5.6580   23.8860  -31.1020 C   0  0  0  0  0  0  0  0  0  0  0  0
   -5.2730   25.1470  -30.5230 N   0  0  0  0  0  0  0  0  0  0  0  0
   -4.1850   25.6750  -30.8310 O   0  0  0  0  0  0  0  0  0  0  0  0
   -6.1570   25.8570  -29.7430 O   0  0  0  0  0  0  0  0  0  0  0  0
   -2.5130   21.9150  -30.7360 C   0  0  0  0  0  0  0  0  0  0  0  0
   -1.4490   21.7380  -29.6410 C   0  0  0  0  0  0  0  0  0  0  0  0
   -2.8134   19.9087  -27.1626 H   0  0  0  0  0  0  0  0  0  0  0  0
   -3.6686   20.2006  -28.7151 H   0  0  0  0  0  0  0  0  0  0  0  0
   -2.0426   19.4371  -28.7151 H   0  0  0  0  0  0  0  0  0  0  0  0
   -3.8902   22.1203  -27.4545 H   0  0  0  0  0  0  0  0  0  0  0  0
   -2.4472   23.2084  -27.1562 H   0  0  0  0  0  0  0  0  0  0  0  0
   -4.3942   23.9973  -28.7506 H   0  0  0  0  0  0  0  0  0  0  0  0
   -2.6663   24.3012  -29.1659 H   0  0  0  0  0  0  0  0  0  0  0  0
   -4.7083   20.5937  -31.2843 H   0  0  0  0  0  0  0  0  0  0  0  0
   -8.8064   20.3038  -31.7413 H   0  0  0  0  0  0  0  0  0  0  0  0
   -8.8390   19.5184  -33.3645 H   0  0  0  0  0  0  0  0  0  0  0  0
   -8.0221   18.3746  -30.6801 H   0  0  0  0  0  0  0  0  0  0  0  0
   -9.1117   17.6968  -31.9788 H   0  0  0  0  0  0  0  0  0  0  0  0
   -6.1937   17.3850  -31.5845 H   0  0  0  0  0  0  0  0  0  0  0  0
   -7.4037   16.3605  -32.4791 H   0  0  0  0  0  0  0  0  0  0  0  0
   -5.6464   17.2670  -33.9826 H   0  0  0  0  0  0  0  0  0  0  0  0
   -7.2986   17.8562  -34.3995 H   0  0  0  0  0  0  0  0  0  0  0  0
   -5.0226   19.3556  -33.0332 H   0  0  0  0  0  0  0  0  0  0  0  0
   -5.9557   19.7921  -34.5234 H   0  0  0  0  0  0  0  0  0  0  0  0
   -8.2034   22.5208  -32.9492 H   0  0  0  0  0  0  0  0  0  0  0  0
   -7.4544   24.6987  -32.0133 H   0  0  0  0  0  0  0  0  0  0  0  0
   -2.9243   20.9303  -31.0027 H   0  0  0  0  0  0  0  0  0  0  0  0
   -2.0433   22.3822  -31.6142 H   0  0  0  0  0  0  0  0  0  0  0  0
   -0.8171   20.8741  -29.8945 H   0  0  0  0  0  0  0  0  0  0  0  0
   -0.8530   22.6612  -29.5899 H   0  0  0  0  0  0  0  0  0  0  0  0
  1  2  1  0
  2  3  1  0
  3  4  1  0
  4  5  1  0
  5  6  1  0
  6  7  2  0
  7  8  1  0
  8  9  1  0
  9 10  1  0
 10 11  1  0
 11 12  1  0
 12 13  1  0
 13 14  1  0
  8 15  2  0
 15 16  1  0
 16 17  2  0
 17 18  1  0
 18 19  2  0
 18 20  1  0
  5 21  1  0
 21 22  1  0
 22  2  1  0
 17  6  1  0
 14  9  1  0
  1 23  1  0
  1 24  1  0
  1 25  1  0
  3 26  1  0
  3 27  1  0
  4 28  1  0
  4 29  1  0
  7 30  1  0
 10 31  1  0
 10 32  1  0
 11 33  1  0
 11 34  1  0
 12 35  1  0
 12 36  1  0
 13 37  1  0
 13 38  1  0
 14 39  1  0
 14 40  1  0
 15 41  1  0
 16 42  1  0
 21 43  1  0
 21 44  1  0
 22 45  1  0
 22 46  1  0
M  CHG  2  18   1  20  -1
M  END
>  <UniqueID>  (2) 
1

>  <SMILES>  (2) 
CN1CCN(c2cc(N3CCCCC3)ccc2[N+](=O)[O-])CC1

>  <Energy>  (2) 
66.72678316069864

>  <Genealogy>  (2) 
CN1CCN(c2cc(N3CCCCC3)ccc2[N+](=O)[O-])CC1 (3D coordinates assigned)
CN1CCN(c2cc(N3CCCCC3)ccc2[N+](=O)[O-])CC1 (nonaromatic ring conformer: 66.72678316069864 kcal/mol)

>  <smiles>  (2) 
CN1CCN(c2cc(N3CCCCC3)ccc2[N+](=O)[O-])CC1

>  <score_type>  (2) 
oracle

>  <origin>  (2) 
adg

>  <m_score__min__energy>  (2) 
-8.6099999999999994

>  <m_primary>  (2) 
energy

$$$$
2:0
     RDKit          3D

 56 55  0  0  0  0  0  0  0  0999 V2000
   -8.0050   23.2450  -31.9430 C   0  0  0  0  0  0  0  0  0  0  0  0
   -8.0980   21.8620  -31.3010 C   0  0  0  0  0  0  0  0  0  0  0  0
   -8.5510   20.7690  -32.2850 C   0  0  0  0  0  0  0  0  0  0  0  0
   -9.0430   19.4830  -31.5900 C   0  0  0  0  0  0  0  0  0  0  0  0
   -8.3350   18.2280  -32.1280 C   0  0  0  0  0  0  0  0  0  0  0  0
   -6.9580   18.0040  -31.4830 C   0  0  0  0  0  0  0  0  0  0  0  0
   -5.9080   17.4460  -32.4700 C   0  0  0  0  0  0  0  0  0  0  0  0
   -6.3420   17.6180  -33.9340 C   0  0  0  0  0  0  0  0  0  0  0  0
   -5.8290   18.9260  -34.5620 C   0  0  0  0  0  0  0  0  0  0  0  0
   -5.6600   20.0740  -33.5430 C   0  0  0  0  0  0  0  0  0  0  0  0
   -4.1840   20.4370  -33.2580 C   0  0  0  0  0  0  0  0  0  0  0  0
   -3.7310   20.1020  -31.8240 C   0  0  0  0  0  0  0  0  0  0  0  0
   -3.1370   21.2890  -31.0440 C   0  0  0  0  0  0  0  0  0  0  0  0
   -3.5950   22.6810  -31.5240 C   0  0  0  0  0  0  0  0  0  0  0  0
   -4.9210   23.1550  -30.8900 C   0  0  0  0  0  0  0  0  0  0  0  0
   -4.9070   24.6510  -30.5660 C   0  0  0  0  0  0  0  0  0  0  0  0
   -3.5290   25.1180  -30.4670 N   0  0  0  0  0  0  0  0  0  0  0  0
   -2.6800   24.8700  -29.3420 C   0  0  0  0  0  0  0  0  0  0  0  0
   -1.5970   25.5070  -29.2470 O   0  0  0  0  0  0  0  0  0  0  0  0
   -3.0420   23.8370  -28.3100 C   0  0  0  0  0  0  0  0  0  0  0  0
   -3.9210   24.5440  -26.9260 Cl  0  0  0  0  0  0  0  0  0  0  0  0
   -7.9534   24.0118  -31.1560 H   0  0  0  0  0  0  0  0  0  0  0  0
   -7.1012   23.2993  -32.5676 H   0  0  0  0  0  0  0  0  0  0  0  0
   -8.8934   23.4198  -32.5676 H   0  0  0  0  0  0  0  0  0  0  0  0
   -7.1068   21.5908  -30.9086 H   0  0  0  0  0  0  0  0  0  0  0  0
   -8.8544   21.9203  -30.5045 H   0  0  0  0  0  0  0  0  0  0  0  0
   -9.3720   21.1700  -32.8974 H   0  0  0  0  0  0  0  0  0  0  0  0
   -7.6748   20.4951  -32.8910 H   0  0  0  0  0  0  0  0  0  0  0  0
   -8.8470   19.5658  -30.5108 H   0  0  0  0  0  0  0  0  0  0  0  0
  -10.1190   19.3784  -31.7931 H   0  0  0  0  0  0  0  0  0  0  0  0
   -8.9671   17.3515  -31.9225 H   0  0  0  0  0  0  0  0  0  0  0  0
   -8.1781   18.3709  -33.2073 H   0  0  0  0  0  0  0  0  0  0  0  0
   -6.5942   18.9657  -31.0921 H   0  0  0  0  0  0  0  0  0  0  0  0
   -7.0875   17.2570  -30.6860 H   0  0  0  0  0  0  0  0  0  0  0  0
   -4.9583   17.9794  -32.3166 H   0  0  0  0  0  0  0  0  0  0  0  0
   -5.7972   16.3693  -32.2738 H   0  0  0  0  0  0  0  0  0  0  0  0
   -5.9508   16.7716  -34.5176 H   0  0  0  0  0  0  0  0  0  0  0  0
   -7.4413   17.6536  -33.9500 H   0  0  0  0  0  0  0  0  0  0  0  0
   -4.8528   18.7285  -35.0290 H   0  0  0  0  0  0  0  0  0  0  0  0
   -6.5834   19.2512  -35.2935 H   0  0  0  0  0  0  0  0  0  0  0  0
   -6.1676   20.9666  -33.9375 H   0  0  0  0  0  0  0  0  0  0  0  0
   -6.0964   19.7295  -32.5938 H   0  0  0  0  0  0  0  0  0  0  0  0
   -3.5473   19.8815  -33.9623 H   0  0  0  0  0  0  0  0  0  0  0  0
   -4.0912   21.5264  -33.3788 H   0  0  0  0  0  0  0  0  0  0  0  0
   -4.6031   19.7282  -31.2675 H   0  0  0  0  0  0  0  0  0  0  0  0
   -2.9265   19.3577  -31.9178 H   0  0  0  0  0  0  0  0  0  0  0  0
   -3.4245   21.1810  -29.9878 H   0  0  0  0  0  0  0  0  0  0  0  0
   -2.0500   21.2504  -31.2078 H   0  0  0  0  0  0  0  0  0  0  0  0
   -2.8105   23.4098  -31.2724 H   0  0  0  0  0  0  0  0  0  0  0  0
   -3.7678   22.6048  -32.6077 H   0  0  0  0  0  0  0  0  0  0  0  0
   -5.7419   22.9530  -31.5938 H   0  0  0  0  0  0  0  0  0  0  0  0
   -5.0578   22.6072  -29.9460 H   0  0  0  0  0  0  0  0  0  0  0  0
   -5.4241   25.2032  -31.3646 H   0  0  0  0  0  0  0  0  0  0  0  0
   -5.4200   24.8218  -29.6080 H   0  0  0  0  0  0  0  0  0  0  0  0
   -3.6786   23.0737  -28.7812 H   0  0  0  0  0  0  0  0  0  0  0  0
   -2.1076   23.3996  -27.9283 H   0  0  0  0  0  0  0  0  0  0  0  0
  1  2  1  0
  2  3  1  0
  3  4  1  0
  4  5  1  0
  5  6  1  0
  6  7  1  0
  7  8  1  0
  8  9  1  0
  9 10  1  0
 10 11  1  0
 11 12  1  0
 12 13  1  0
 13 14  1  0
 14 15  1  0
 15 16  1  0
 16 17  1  0
 17 18  1  0
 18 19  2  0
 18 20  1  0
 20 21  1  0
  1 22  1  0
  1 23  1  0
  1 24  1  0
  2 25  1  0
  2 26  1  0
  3 27  1  0
  3 28  1  0
  4 29  1  0
  4 30  1  0
  5 31  1  0
  5 32  1  0
  6 33  1  0
  6 34  1  0
  7 35  1  0
  7 36  1  0
  8 37  1  0
  8 38  1  0
  9 39  1  0
  9 40  1  0
 10 41  1  0
 10 42  1  0
 11 43  1  0
 11 44  1  0
 12 45  1  0
 12 46  1  0
 13 47  1  0
 13 48  1  0
 14 49  1  0
 14 50  1  0
 15 51  1  0
 15 52  1  0
 16 53  1  0
 16 54  1  0
 20 55  1  0
 20 56  1  0
M  CHG  1  17  -1
M  END
>  <UniqueID>  (3) 
2

>  <SMILES>  (3) 
CCCCCCCCCCCCCCCC[N-]C(=O)CCl

>  <Energy>  (3) 
33.00501163745666

>  <Genealogy>  (3) 
CCCCCCCCCCCCCCCC[N-]C(=O)CCl (protonated)
CCCCCCCCCCCCCCCC[N-]C(=O)CCl (3D coordinates assigned)
CCCCCCCCCCCCCCCC[N-]C(=O)CCl (optimized conformer: 33.00501163745666 kcal/mol)

>  <smiles>  (3) 
CCCCCCCCCCCCCCCCNC(=O)CCl

>  <score_type>  (3) 
oracle

>  <origin>  (3) 
adg

>  <m_score__min__energy>  (3) 
-8.75

>  <m_primary>  (3) 
energy

$$$$
3:0
     RDKit          3D

 51 54  0  0  0  0  0  0  0  0999 V2000
   -8.3990   18.3940  -31.6360 C   0  0  0  0  0  0  0  0  0  0  0  0
   -7.3980   19.3600  -31.3250 O   0  0  0  0  0  0  0  0  0  0  0  0
   -7.5700   20.7450  -31.4510 C   0  0  0  0  0  0  0  0  0  0  0  0
   -8.7900   21.3220  -31.8540 C   0  0  0  0  0  0  0  0  0  0  0  0
   -8.9130   22.7100  -31.9470 C   0  0  0  0  0  0  0  0  0  0  0  0
   -7.8250   23.5340  -31.6520 C   0  0  0  0  0  0  0  0  0  0  0  0
   -6.5950   22.9750  -31.2730 C   0  0  0  0  0  0  0  0  0  0  0  0
   -5.4500   23.8540  -30.9610 C   0  0  0  0  0  0  0  0  0  0  0  0
   -5.4910   25.2240  -30.8160 C   0  0  0  0  0  0  0  0  0  0  0  0
   -4.2560   25.6790  -30.5330 N   0  0  0  0  0  0  0  0  0  0  0  0
   -3.4220   24.6500  -30.5050 N   0  0  0  0  0  0  0  0  0  0  0  0
   -4.1160   23.5250  -30.7660 C   0  0  0  0  0  0  0  0  0  0  0  0
   -3.4740   22.1660  -30.8920 C   0  0  2  0  0  0  0  0  0  0  0  0
   -1.9410   22.2570  -30.6990 C   0  0  0  0  0  0  0  0  0  0  0  0
   -1.1800   21.1580  -31.4650 C   0  0  0  0  0  0  0  0  0  0  0  0
   -2.0280   19.8840  -31.6010 C   0  0  0  0  0  0  0  0  0  0  0  0
   -3.3180   20.1190  -32.3150 N   0  0  2  0  0  0  0  0  0  0  0  0
   -3.3360   19.5730  -33.6980 C   0  0  0  0  0  0  0  0  0  0  0  0
   -4.2400   18.3700  -33.8890 C   0  0  0  0  0  0  0  0  0  0  0  0
   -5.6350   18.5360  -33.9670 C   0  0  0  0  0  0  0  0  0  0  0  0
   -6.4710   17.4300  -34.1470 C   0  0  0  0  0  0  0  0  0  0  0  0
   -5.9270   16.1460  -34.2330 C   0  0  0  0  0  0  0  0  0  0  0  0
   -6.7390   15.0750  -34.4090 F   0  0  0  0  0  0  0  0  0  0  0  0
   -4.5460   15.9660  -34.1230 C   0  0  0  0  0  0  0  0  0  0  0  0
   -3.7060   17.0700  -33.9430 C   0  0  0  0  0  0  0  0  0  0  0  0
   -3.8020   21.5260  -32.2530 C   0  0  0  0  0  0  0  0  0  0  0  0
   -6.4830   21.5790  -31.1580 C   0  0  0  0  0  0  0  0  0  0  0  0
   -8.8193   17.9884  -30.7039 H   0  0  0  0  0  0  0  0  0  0  0  0
   -9.1988   18.8704  -32.2221 H   0  0  0  0  0  0  0  0  0  0  0  0
   -7.9514   17.5778  -32.2221 H   0  0  0  0  0  0  0  0  0  0  0  0
   -9.6481   20.6777  -32.0961 H   0  0  0  0  0  0  0  0  0  0  0  0
   -9.8706   23.1558  -32.2538 H   0  0  0  0  0  0  0  0  0  0  0  0
   -7.9326   24.6268  -31.7170 H   0  0  0  0  0  0  0  0  0  0  0  0
   -6.3915   25.8478  -30.9158 H   0  0  0  0  0  0  0  0  0  0  0  0
   -3.8872   21.5268  -30.0979 H   0  0  0  0  0  0  0  0  0  0  0  0
   -1.5985   23.2385  -31.0587 H   0  0  0  0  0  0  0  0  0  0  0  0
   -1.7320   22.1214  -29.6276 H   0  0  0  0  0  0  0  0  0  0  0  0
   -0.9281   21.5298  -32.4691 H   0  0  0  0  0  0  0  0  0  0  0  0
   -0.2681   20.9100  -30.9021 H   0  0  0  0  0  0  0  0  0  0  0  0
   -1.4486   19.1346  -32.1602 H   0  0  0  0  0  0  0  0  0  0  0  0
   -2.2707   19.5387  -30.5852 H   0  0  0  0  0  0  0  0  0  0  0  0
   -4.0340   19.5550  -31.7960 H   0  0  0  0  0  0  0  0  0  0  0  0
   -3.6757   20.3690  -34.3770 H   0  0  0  0  0  0  0  0  0  0  0  0
   -2.3125   19.2316  -33.9123 H   0  0  0  0  0  0  0  0  0  0  0  0
   -6.0708   19.5427  -33.8858 H   0  0  0  0  0  0  0  0  0  0  0  0
   -7.5594   17.5710  -34.2211 H   0  0  0  0  0  0  0  0  0  0  0  0
   -4.1183   14.9541  -34.1780 H   0  0  0  0  0  0  0  0  0  0  0  0
   -2.6208   16.9204  -33.8430 H   0  0  0  0  0  0  0  0  0  0  0  0
   -3.3165   22.1083  -33.0500 H   0  0  0  0  0  0  0  0  0  0  0  0
   -4.8941   21.5257  -32.3845 H   0  0  0  0  0  0  0  0  0  0  0  0
   -5.5300   21.1355  -30.8339 H   0  0  0  0  0  0  0  0  0  0  0  0
  1  2  1  0
  2  3  1  0
  3  4  2  0
  4  5  1  0
  5  6  2  0
  6  7  1  0
  7  8  1  0
  8  9  2  0
  9 10  1  0
 10 11  1  0
 11 12  2  0
 12 13  1  0
 13 14  1  0
 14 15  1  0
 15 16  1  0
 16 17  1  0
 17 18  1  0
 18 19  1  0
 19 20  2  0
 20 21  1  0
 21 22  2  0
 22 23  1  0
 22 24  1  0
 24 25  2  0
 17 26  1  0
  7 27  2  0
 27  3  1  0
 12  8  1  0
 26 13  1  0
 25 19  1  0
  1 28  1  0
  1 29  1  0
  1 30  1  0
  4 31  1  0
  5 32  1  0
  6 33  1  0
  9 34  1  0
 13 35  1  1
 14 36  1  0
 14 37  1  0
 15 38  1  0
 15 39  1  0
 16 40  1  0
 16 41  1  0
 17 42  1  1
 18 43  1  0
 18 44  1  0
 20 45  1  0
 21 46  1  0
 24 47  1  0
 25 48  1  0
 26 49  1  0
 26 50  1  0
 27 51  1  0
M  CHG  2  10  -1  17   1
M  END
>  <UniqueID>  (4) 
3

>  <SMILES>  (4) 
COc1cccc(-c2c[n-]nc2[C@@H]2CCC[N@H+](Cc3ccc(F)cc3)C2)c1

>  <Energy>  (4) 
99.01271130356028

>  <Genealogy>  (4) 
COc1cccc(-c2c[n-]nc2C2CCC[NH+](Cc3ccc(F)cc3)C2)c1 (protonated)
COc1cccc(-c2c[n-]nc2[C@@H]2CCC[N@H+](Cc3ccc(F)cc3)C2)c1 (chirality)
COc1cccc(-c2c[n-]nc2[C@@H]2CCC[N@H+](Cc3ccc(F)cc3)C2)c1 (3D coordinates assigned)
COc1cccc(-c2c[n-]nc2[C@@H]2CCC[N@H+](Cc3ccc(F)cc3)C2)c1 (nonaromatic ring conformer: 99.01271130356028 kcal/mol)

>  <smiles>  (4) 
COc1cccc(-c2c[nH]nc2C2CCCN(Cc3ccc(F)cc3)C2)c1

>  <score_type>  (4) 
oracle

>  <origin>  (4) 
adg

>  <m_score__min__energy>  (4) 
-10.27

>  <m_primary>  (4) 
energy

$$$$
4:0
     RDKit          3D

 43 45  0  0  0  0  0  0  0  0999 V2000
   -6.9370   24.7400  -30.1410 O   0  0  0  0  0  0  0  0  0  0  0  0
   -6.3490   23.8480  -31.1990 S   0  0  0  0  0  0  0  0  0  0  0  0
   -4.9980   24.3710  -31.6010 O   0  0  0  0  0  0  0  0  0  0  0  0
   -6.1920   22.1950  -30.5700 C   0  0  0  0  0  0  0  0  0  0  0  0
   -7.5660   21.5340  -30.4590 C   0  0  0  0  0  0  0  0  0  0  0  0
   -8.4640   21.5470  -31.7390 C   0  0  0  0  0  0  0  0  0  0  0  0
   -8.2020   20.4850  -32.7680 N   0  0  0  0  0  0  0  0  0  0  0  0
   -6.7810   20.3470  -33.1880 C   0  0  0  0  0  0  0  0  0  0  0  0
   -6.4870   18.9970  -33.8530 C   0  0  0  0  0  0  0  0  0  0  0  0
   -6.8310   17.8990  -32.9410 N   0  0  0  0  0  0  0  0  0  0  0  0
   -6.1370   16.6340  -33.0150 C   0  0  0  0  0  0  0  0  0  0  0  0
   -6.3220   15.7780  -34.1180 C   0  0  0  0  0  0  0  0  0  0  0  0
   -5.6500   14.5540  -34.1860 C   0  0  0  0  0  0  0  0  0  0  0  0
   -4.7880   14.1700  -33.1570 C   0  0  0  0  0  0  0  0  0  0  0  0
   -4.5950   15.0080  -32.0580 C   0  0  0  0  0  0  0  0  0  0  0  0
   -5.2660   16.2330  -31.9840 C   0  0  0  0  0  0  0  0  0  0  0  0
   -7.9030   18.1070  -31.9590 C   0  0  0  0  0  0  0  0  0  0  0  0
   -8.8750   19.1890  -32.4540 C   0  0  0  0  0  0  0  0  0  0  0  0
   -8.6840   22.9720  -32.3330 C   0  0  0  0  0  0  0  0  0  0  0  0
   -7.4250   23.8070  -32.6110 C   0  0  0  0  0  0  0  0  0  0  0  0
   -5.5606   21.6063  -31.2518 H   0  0  0  0  0  0  0  0  0  0  0  0
   -5.7339   22.2356  -29.5707 H   0  0  0  0  0  0  0  0  0  0  0  0
   -7.4070   20.4831  -30.1755 H   0  0  0  0  0  0  0  0  0  0  0  0
   -8.1140   22.1354  -29.7187 H   0  0  0  0  0  0  0  0  0  0  0  0
   -9.4392   21.2288  -31.3418 H   0  0  0  0  0  0  0  0  0  0  0  0
   -8.6930   20.8300  -33.6300 H   0  0  0  0  0  0  0  0  0  0  0  0
   -6.5461   21.1495  -33.9027 H   0  0  0  0  0  0  0  0  0  0  0  0
   -6.1599   20.4127  -32.2825 H   0  0  0  0  0  0  0  0  0  0  0  0
   -7.0841   18.9068  -34.7724 H   0  0  0  0  0  0  0  0  0  0  0  0
   -5.4155   18.9411  -34.0952 H   0  0  0  0  0  0  0  0  0  0  0  0
   -7.0001   16.0746  -34.9318 H   0  0  0  0  0  0  0  0  0  0  0  0
   -5.8006   13.8923  -35.0517 H   0  0  0  0  0  0  0  0  0  0  0  0
   -4.2607   13.2063  -33.2126 H   0  0  0  0  0  0  0  0  0  0  0  0
   -3.9143   14.7048  -31.2489 H   0  0  0  0  0  0  0  0  0  0  0  0
   -5.1121   16.8880  -31.1138 H   0  0  0  0  0  0  0  0  0  0  0  0
   -8.4515   17.1644  -31.8151 H   0  0  0  0  0  0  0  0  0  0  0  0
   -7.4587   18.4328  -31.0069 H   0  0  0  0  0  0  0  0  0  0  0  0
   -9.3713   18.8230  -33.3649 H   0  0  0  0  0  0  0  0  0  0  0  0
   -9.5917   19.3810  -31.6419 H   0  0  0  0  0  0  0  0  0  0  0  0
   -9.2238   22.8565  -33.2844 H   0  0  0  0  0  0  0  0  0  0  0  0
   -9.2323   23.5264  -31.5571 H   0  0  0  0  0  0  0  0  0  0  0  0
   -6.8835   23.3658  -33.4608 H   0  0  0  0  0  0  0  0  0  0  0  0
   -7.7364   24.8371  -32.8386 H   0  0  0  0  0  0  0  0  0  0  0  0
  1  2  2  0
  2  3  2  0
  2  4  1  0
  4  5  1  0
  5  6  1  0
  6  7  1  0
  7  8  1  0
  8  9  1  0
  9 10  1  0
 10 11  1  0
 11 12  2  0
 12 13  1  0
 13 14  2  0
 14 15  1  0
 15 16  2  0
 10 17  1  0
 17 18  1  0
  6 19  1  0
 19 20  1  0
 20  2  1  0
 18  7  1  0
 16 11  1  0
  4 21  1  0
  4 22  1  0
  5 23  1  0
  5 24  1  0
  6 25  1  0
  7 26  1  0
  8 27  1  0
  8 28  1  0
  9 29  1  0
  9 30  1  0
 12 31  1  0
 13 32  1  0
 14 33  1  0
 15 34  1  0
 16 35  1  0
 17 36  1  0
 17 37  1  0
 18 38  1  0
 18 39  1  0
 19 40  1  0
 19 41  1  0
 20 42  1  0
 20 43  1  0
M  CHG  1   7   1
M  END
>  <UniqueID>  (5) 
4

>  <SMILES>  (5) 
O=S1(=O)CCC([NH+]2CCN(c3ccccc3)CC2)CC1

>  <Energy>  (5) 
61.00388668877382

>  <Genealogy>  (5) 
O=S1(=O)CCC([NH+]2CCN(c3ccccc3)CC2)CC1 (protonated)
O=S1(=O)CCC([NH+]2CCN(c3ccccc3)CC2)CC1 (3D coordinates assigned)
O=S1(=O)CCC([NH+]2CCN(c3ccccc3)CC2)CC1 (nonaromatic ring conformer: 61.00388668877382 kcal/mol)

>  <smiles>  (5) 
O=S1(=O)CCC(N2CCN(c3ccccc3)CC2)CC1

>  <score_type>  (5) 
oracle

>  <origin>  (5) 
adg

>  <m_score__min__energy>  (5) 
-7.0700000000000003

>  <m_primary>  (5) 
energy

$$$$
5:0
     RDKit          3D

 36 38  0  0  0  0  0  0  0  0999 V2000
    0.9646   23.3320  -24.0633 H   0  0  0  0  0  0  0  0  0  0  0  0
    0.5330   23.6970  -25.0070 C   0  0  0  0  0  0  0  0  0  0  0  0
    0.9270   24.9090  -25.4570 C   0  0  0  0  0  0  0  0  0  0  0  0
    1.6605   25.4685  -24.8580 H   0  0  0  0  0  0  0  0  0  0  0  0
    0.4200   25.5450  -26.7370 C   0  0  0  0  0  0  0  0  0  0  0  0
   -0.0003   26.5340  -26.5018 H   0  0  0  0  0  0  0  0  0  0  0  0
    1.2654   25.6327  -27.4353 H   0  0  0  0  0  0  0  0  0  0  0  0
   -0.6370   24.7110  -27.3860 C   0  0  0  0  0  0  0  0  0  0  0  0
   -1.0360   23.4800  -26.9300 C   0  0  0  0  0  0  0  0  0  0  0  0
   -1.9850   23.0180  -27.8190 C   0  0  0  0  0  0  0  0  0  0  0  0
   -2.6310   21.7890  -27.7430 O   0  0  0  0  0  0  0  0  0  0  0  0
   -2.1950   23.9280  -28.7960 N   0  0  0  0  0  0  0  0  0  0  0  0
   -3.0670   23.7770  -29.9590 C   0  0  0  0  0  0  0  0  0  0  0  0
   -3.6019   22.8183  -29.8900 H   0  0  0  0  0  0  0  0  0  0  0  0
   -2.4543   23.8005  -30.8723 H   0  0  0  0  0  0  0  0  0  0  0  0
   -4.0830   24.9200  -30.0100 C   0  0  0  0  0  0  0  0  0  0  0  0
   -3.5462   25.8800  -30.0238 H   0  0  0  0  0  0  0  0  0  0  0  0
   -4.7305   24.8577  -29.1229 H   0  0  0  0  0  0  0  0  0  0  0  0
   -4.9160   24.8180  -31.2090 N   0  0  0  0  0  0  0  0  0  0  0  0
   -5.5380   23.7430  -31.5930 C   0  0  0  0  0  0  0  0  0  0  0  0
   -4.8740   22.7360  -32.2280 N   0  0  0  0  0  0  0  0  0  0  0  0
   -5.5020   21.6040  -32.6410 C   0  0  0  0  0  0  0  0  0  0  0  0
   -4.9294   20.8144  -33.1496 H   0  0  0  0  0  0  0  0  0  0  0  0
   -6.8800   21.4380  -32.4210 C   0  0  0  0  0  0  0  0  0  0  0  0
   -7.5600   20.2450  -32.8510 N   0  0  0  0  0  0  0  0  0  0  0  0
   -8.7850   20.1050  -32.6570 O   0  0  0  0  0  0  0  0  0  0  0  0
   -6.8700   19.2380  -33.4860 O   0  0  0  0  0  0  0  0  0  0  0  0
   -7.5800   22.4670  -31.7710 C   0  0  0  0  0  0  0  0  0  0  0  0
   -8.6597   22.3645  -31.5873 H   0  0  0  0  0  0  0  0  0  0  0  0
   -6.9100   23.6200  -31.3570 C   0  0  0  0  0  0  0  0  0  0  0  0
   -7.4586   24.4264  -30.8483 H   0  0  0  0  0  0  0  0  0  0  0  0
   -1.3570   24.9560  -28.5390 C   0  0  0  0  0  0  0  0  0  0  0  0
   -1.2370   26.0870  -29.3380 O   0  0  0  0  0  0  0  0  0  0  0  0
   -0.4670   22.8090  -25.7220 C   0  0  0  0  0  0  0  0  0  0  0  0
   -1.2866   22.5657  -25.0299 H   0  0  0  0  0  0  0  0  0  0  0  0
    0.0554   21.8980  -26.0494 H   0  0  0  0  0  0  0  0  0  0  0  0
  1  2  1  0
  2  3  2  0
  3  4  1  0
  3  5  1  0
  5  6  1  0
  5  7  1  0
  5  8  1  0
  8  9  1  0
  9 10  2  0
 10 11  1  0
 10 12  1  0
 12 13  1  0
 13 14  1  0
 13 15  1  0
 13 16  1  0
 16 17  1  0
 16 18  1  0
 16 19  1  0
 19 20  2  0
 20 21  1  0
 21 22  1  0
 22 23  1  0
 22 24  2  0
 24 25  1  0
 25 26  2  0
 25 27  1  0
 24 28  1  0
 28 29  1  0
 28 30  2  0
 30 31  1  0
 12 32  1  0
 32 33  1  0
  9 34  1  0
 34 35  1  0
 34 36  1  0
 34  2  1  0
 32  8  2  0
 30 20  1  0
M  CHG  5  11  -1  21  -1  25   1  27  -1  33  -1
M  END
>  <UniqueID>  (6) 
5

>  <SMILES>  (6) 
O=[N+]([O-])c1cc/c(=N/CCn2c([O-])c3c(c2[O-])CC=CC3)[n-]c1

>  <Energy>  (6) 
69.41801217518778

>  <Genealogy>  (6) 
O=[N+]([O-])c1ccc(=NCCn2c([O-])c3c(c2[O-])CC=CC3)[n-]c1 (protonated)
O=[N+]([O-])c1cc/c(=N/CCn2c([O-])c3c(c2[O-])CC=CC3)[n-]c1 (cis-trans isomerization)
O=[N+]([O-])c1cc/c(=N/CCn2c([O-])c3c(c2[O-])CC=CC3)[n-]c1 (3D coordinates assigned)
O=[N+]([O-])c1cc/c(=N/CCn2c([O-])c3c(c2[O-])CC=CC3)[n-]c1 (nonaromatic ring conformer: 69.41801217518778 kcal/mol)

>  <smiles>  (6) 
O=[N+]([O-])c1ccc(=NCCn2c(O)c3c(c2O)CC=CC3)[nH]c1

>  <score_type>  (6) 
oracle

>  <origin>  (6) 
adg

>  <m_score__min__energy>  (6) 
-10.789999999999999

>  <m_primary>  (6) 
energy

$$$$
6:0
     RDKit          3D

 33 34  0  0  1  0  0  0  0  0999 V2000
   -8.7250   23.0600  -31.9690 C   0  0  0  0  0  0  0  0  0  0  0  0
   -8.9050   21.6770  -31.4110 C   0  0  0  0  0  0  0  0  0  0  0  0
   -8.6370   20.7400  -32.4090 O   0  0  0  0  0  0  0  0  0  0  0  0
   -7.3930   20.3310  -32.8030 C   0  0  0  0  0  0  0  0  0  0  0  0
   -6.2250   21.0340  -32.5940 C   0  0  0  0  0  0  0  0  0  0  0  0
   -4.9890   20.5720  -33.0150 C   0  0  0  0  0  0  0  0  0  0  0  0
   -3.9060   21.2460  -32.8110 N   0  0  0  0  0  0  0  0  0  0  0  0
   -3.5360   21.5840  -31.4510 C   0  0  0  0  0  0  0  0  0  0  0  0
   -4.0820   22.9080  -31.0640 C   0  0  0  0  0  0  0  0  0  0  0  0
   -3.8560   24.0750  -31.2000 N   0  0  0  0  0  0  0  0  0  0  0  0
   -4.5620   25.0400  -30.7120 N   0  0  0  0  0  0  0  0  0  0  0  0
   -5.5650   24.8670  -30.0410 C   0  0  0  0  0  0  0  0  0  0  0  0
   -6.5860   25.6800  -29.3440 C   0  0  0  0  0  0  0  0  0  0  0  0
   -5.6370   22.9990  -30.0190 S   0  0  0  0  0  0  0  0  0  0  0  0
   -4.9770   19.3790  -33.6510 N   0  0  0  0  0  0  0  0  0  0  0  0
   -6.1150   18.6770  -33.8630 C   0  0  0  0  0  0  0  0  0  0  0  0
   -5.9560   17.3770  -34.5760 C   0  0  0  0  0  0  0  0  0  0  0  0
   -7.2920   19.1490  -33.4460 N   0  0  0  0  0  0  0  0  0  0  0  0
   -8.6313   23.7796  -31.1423 H   0  0  0  0  0  0  0  0  0  0  0  0
   -7.8153   23.0907  -32.5866 H   0  0  0  0  0  0  0  0  0  0  0  0
   -9.5966   23.3225  -32.5866 H   0  0  0  0  0  0  0  0  0  0  0  0
   -8.2121   21.5268  -30.5700 H   0  0  0  0  0  0  0  0  0  0  0  0
   -9.9392   21.5536  -31.0570 H   0  0  0  0  0  0  0  0  0  0  0  0
   -6.2772   22.0007  -32.0718 H   0  0  0  0  0  0  0  0  0  0  0  0
   -3.9337   20.8178  -30.7692 H   0  0  0  0  0  0  0  0  0  0  0  0
   -2.4387   21.6255  -31.3868 H   0  0  0  0  0  0  0  0  0  0  0  0
   -6.4568   25.5771  -28.2565 H   0  0  0  0  0  0  0  0  0  0  0  0
   -6.4706   26.7362  -29.6287 H   0  0  0  0  0  0  0  0  0  0  0  0
   -7.5896   25.3310  -29.6287 H   0  0  0  0  0  0  0  0  0  0  0  0
   -5.8567   16.5651  -33.8405 H   0  0  0  0  0  0  0  0  0  0  0  0
   -6.8385   17.1944  -35.2067 H   0  0  0  0  0  0  0  0  0  0  0  0
   -5.0555   17.4125  -35.2067 H   0  0  0  0  0  0  0  0  0  0  0  0
   -8.1380   18.5870  -33.6240 H   0  0  0  0  0  0  0  0  0  0  0  0
  1  2  1  0
  2  3  1  0
  3  4  1  0
  4  5  2  0
  5  6  1  0
  6  7  2  0
  7  8  1  0
  8  9  1  0
  9 10  2  0
 10 11  1  0
 11 12  2  0
 12 13  1  0
 12 14  1  0
  6 15  1  0
 15 16  2  0
 16 17  1  0
 16 18  1  0
 18  4  1  0
 14  9  1  0
  1 19  1  0
  1 20  1  0
  1 21  1  0
  2 22  1  0
  2 23  1  0
  5 24  1  0
  8 25  1  0
  8 26  1  0
 13 27  1  0
 13 28  1  0
 13 29  1  0
 17 30  1  0
 17 31  1  0
 17 32  1  0
 18 33  1  0
M  END
>  <smiles>  (7) 
CCOc1cc(=NCc2nnc(C)s2)nc(C)[nH]1

>  <score_type>  (7) 
oracle

>  <origin>  (7) 
adg

>  <m_score__min__energy>  (7) 
-6.8300000000000001

>  <m_primary>  (7) 
energy

$$$$
7:0
     RDKit          3D

 29 31  0  0  1  0  0  0  0  0999 V2000
   -5.1640   25.0230  -29.7820 C   0  0  0  0  0  0  0  0  0  0  0  0
   -4.5280   24.4930  -30.8420 N   0  0  0  0  0  0  0  0  0  0  0  0
   -5.2490   23.7360  -31.6890 C   0  0  0  0  0  0  0  0  0  0  0  0
   -6.5950   23.5180  -31.4660 C   0  0  0  0  0  0  0  0  0  0  0  0
   -7.2620   22.6890  -32.4410 N   0  0  0  0  0  0  0  0  0  0  0  0
   -6.8450   21.5070  -32.7220 C   0  0  0  0  0  0  0  0  0  0  0  0
   -5.6250   21.2210  -33.2230 N   0  0  0  0  0  0  0  0  0  0  0  0
   -5.4890   19.9180  -33.4090 N   0  0  0  0  0  0  0  0  0  0  0  0
   -6.6100   19.3020  -33.0380 C   0  0  0  0  0  0  0  0  0  0  0  0
   -7.4740   20.2850  -32.6030 C   0  0  0  0  0  0  0  0  0  0  0  0
   -8.8440   20.0030  -32.1020 C   0  0  0  0  0  0  0  0  0  0  0  0
   -9.0630   18.5830  -31.6900 C   0  0  0  0  0  0  0  0  0  0  0  0
   -7.7940   17.7980  -31.6150 C   0  0  0  0  0  0  0  0  0  0  0  0
   -7.1170   17.9000  -32.9850 C   0  0  0  0  0  0  0  0  0  0  0  0
   -7.2260   24.0570  -30.3930 C   0  0  0  0  0  0  0  0  0  0  0  0
   -6.4780   24.8200  -29.5500 N   0  0  0  0  0  0  0  0  0  0  0  0
   -4.5919   25.6451  -29.0779 H   0  0  0  0  0  0  0  0  0  0  0  0
   -4.7623   23.2865  -32.5671 H   0  0  0  0  0  0  0  0  0  0  0  0
   -4.8950   21.9430  -33.4330 H   0  0  0  0  0  0  0  0  0  0  0  0
   -4.6560   19.3870  -33.7850 H   0  0  0  0  0  0  0  0  0  0  0  0
   -9.0331   20.6483  -31.2315 H   0  0  0  0  0  0  0  0  0  0  0  0
   -9.5336   20.2013  -32.9357 H   0  0  0  0  0  0  0  0  0  0  0  0
   -9.5403   18.5745  -30.6990 H   0  0  0  0  0  0  0  0  0  0  0  0
   -9.6986   18.1115  -32.4540 H   0  0  0  0  0  0  0  0  0  0  0  0
   -7.1373   18.2164  -30.8380 H   0  0  0  0  0  0  0  0  0  0  0  0
   -7.9987   16.7483  -31.3577 H   0  0  0  0  0  0  0  0  0  0  0  0
   -6.2877   17.1818  -33.0650 H   0  0  0  0  0  0  0  0  0  0  0  0
   -7.8032   17.6681  -33.8129 H   0  0  0  0  0  0  0  0  0  0  0  0
   -8.2972   23.8847  -30.2118 H   0  0  0  0  0  0  0  0  0  0  0  0
  1  2  2  0
  2  3  1  0
  3  4  2  0
  4  5  1  0
  5  6  2  0
  6  7  1  0
  7  8  1  0
  8  9  1  0
  9 10  2  0
 10 11  1  0
 11 12  1  0
 12 13  1  0
 13 14  1  0
  4 15  1  0
 15 16  2  0
 16  1  1  0
 10  6  1  0
 14  9  1  0
  1 17  1  0
  3 18  1  0
  7 19  1  0
  8 20  1  0
 11 21  1  0
 11 22  1  0
 12 23  1  0
 12 24  1  0
 13 25  1  0
 13 26  1  0
 14 27  1  0
 14 28  1  0
 15 29  1  0
M  END
>  <smiles>  (8) 
c1ncc(N=c2[nH][nH]c3c2CCCC3)cn1

>  <score_type>  (8) 
oracle

>  <origin>  (8) 
adg

>  <m_score__min__energy>  (8) 
-6.6299999999999999

>  <m_primary>  (8) 
energy

$$$$
8:0
     RDKit          3D

 48 50  0  0  0  0  0  0  0  0999 V2000
   -4.8260   16.6420  -34.5760 C   0  0  0  0  0  0  0  0  0  0  0  0
   -4.8570   16.0540  -33.3090 C   0  0  0  0  0  0  0  0  0  0  0  0
   -5.7020   16.5640  -32.3180 C   0  0  0  0  0  0  0  0  0  0  0  0
   -6.5330   17.6620  -32.5960 C   0  0  0  0  0  0  0  0  0  0  0  0
   -7.4190   18.2360  -31.5220 C   0  0  0  0  0  0  0  0  0  0  0  0
   -8.8660   18.3520  -32.0250 C   0  0  0  0  0  0  0  0  0  0  0  0
   -9.2670   19.8040  -32.3320 C   0  0  0  0  0  0  0  0  0  0  0  0
   -8.9340   20.7700  -31.1810 C   0  0  0  0  0  0  0  0  0  0  0  0
   -7.5900   21.3640  -31.3540 N   0  0  0  0  0  0  0  0  0  0  0  0
   -7.0760   21.0850  -32.7100 C   0  0  0  0  0  0  0  0  0  0  0  0
   -5.5830   21.4510  -32.8090 C   0  0  0  0  0  0  0  0  0  0  0  0
   -5.1870   22.5770  -31.8400 C   0  0  0  0  0  0  0  0  0  0  0  0
   -6.3550   23.5580  -31.6460 C   0  0  2  0  0  0  0  0  0  0  0  0
   -5.9610   24.8060  -30.8230 C   0  0  0  0  0  0  0  0  0  0  0  0
   -4.7260   24.6180  -29.9880 C   0  0  0  0  0  0  0  0  0  0  0  0
   -4.6770   24.1150  -28.7100 C   0  0  0  0  0  0  0  0  0  0  0  0
   -3.3980   24.0950  -28.2990 N   0  0  0  0  0  0  0  0  0  0  0  0
   -2.7070   24.5900  -29.3470 C   0  0  0  0  0  0  0  0  0  0  0  0
   -3.4830   24.9230  -30.4000 N   0  0  0  0  0  0  0  0  0  0  0  0
   -7.6020   22.8250  -31.0780 C   0  0  0  0  0  0  0  0  0  0  0  0
   -6.4870   18.2580  -33.8680 C   0  0  0  0  0  0  0  0  0  0  0  0
   -5.6390   17.7440  -34.8540 C   0  0  0  0  0  0  0  0  0  0  0  0
   -4.1620   16.2377  -35.3542 H   0  0  0  0  0  0  0  0  0  0  0  0
   -4.2152   15.1878  -33.0903 H   0  0  0  0  0  0  0  0  0  0  0  0
   -5.7159   16.1043  -31.3187 H   0  0  0  0  0  0  0  0  0  0  0  0
   -7.3934   17.5777  -30.6411 H   0  0  0  0  0  0  0  0  0  0  0  0
   -7.0528   19.2386  -31.2561 H   0  0  0  0  0  0  0  0  0  0  0  0
   -8.9692   17.7556  -32.9435 H   0  0  0  0  0  0  0  0  0  0  0  0
   -9.5280   17.9835  -31.2275 H   0  0  0  0  0  0  0  0  0  0  0  0
   -8.7306   20.1337  -33.2340 H   0  0  0  0  0  0  0  0  0  0  0  0
  -10.3573   19.8234  -32.4761 H   0  0  0  0  0  0  0  0  0  0  0  0
   -9.6826   21.5757  -31.1606 H   0  0  0  0  0  0  0  0  0  0  0  0
   -8.9468   20.2053  -30.2371 H   0  0  0  0  0  0  0  0  0  0  0  0
   -7.2014   20.0148  -32.9312 H   0  0  0  0  0  0  0  0  0  0  0  0
   -7.6389   21.6915  -33.4347 H   0  0  0  0  0  0  0  0  0  0  0  0
   -4.9847   20.5580  -32.5754 H   0  0  0  0  0  0  0  0  0  0  0  0
   -5.3938   21.8086  -33.8319 H   0  0  0  0  0  0  0  0  0  0  0  0
   -4.9170   22.1392  -30.8677 H   0  0  0  0  0  0  0  0  0  0  0  0
   -4.3305   23.1235  -32.2616 H   0  0  0  0  0  0  0  0  0  0  0  0
   -6.6276   23.9469  -32.6382 H   0  0  0  0  0  0  0  0  0  0  0  0
   -5.7850   25.6391  -31.5194 H   0  0  0  0  0  0  0  0  0  0  0  0
   -6.7898   25.0055  -30.1279 H   0  0  0  0  0  0  0  0  0  0  0  0
   -5.5437   23.7829  -28.1197 H   0  0  0  0  0  0  0  0  0  0  0  0
   -1.6137   24.7108  -29.3435 H   0  0  0  0  0  0  0  0  0  0  0  0
   -7.6322   22.9762  -29.9889 H   0  0  0  0  0  0  0  0  0  0  0  0
   -8.4879   23.2475  -31.5746 H   0  0  0  0  0  0  0  0  0  0  0  0
   -7.1194   19.1306  -34.0884 H   0  0  0  0  0  0  0  0  0  0  0  0
   -5.6119   18.2083  -35.8508 H   0  0  0  0  0  0  0  0  0  0  0  0
  1  2  2  0
  2  3  1  0
  3  4  2  0
  4  5  1  0
  5  6  1  0
  6  7  1  0
  7  8  1  0
  8  9  1  0
  9 10  1  0
 10 11  1  0
 11 12  1  0
 12 13  1  0
 13 14  1  0
 14 15  1  0
 15 16  2  0
 16 17  1  0
 17 18  1  0
 18 19  2  0
 13 20  1  0
  4 21  1  0
 21 22  2  0
 22  1  1  0
 20  9  1  0
 19 15  1  0
  1 23  1  0
  2 24  1  0
  3 25  1  0
  5 26  1  0
  5 27  1  0
  6 28  1  0
  6 29  1  0
  7 30  1  0
  7 31  1  0
  8 32  1  0
  8 33  1  0
 10 34  1  0
 10 35  1  0
 11 36  1  0
 11 37  1  0
 12 38  1  0
 12 39  1  0
 13 40  1  6
 14 41  1  0
 14 42  1  0
 16 43  1  0
 18 44  1  0
 20 45  1  0
 20 46  1  0
 21 47  1  0
 22 48  1  0
M  CHG  1  17  -1
M  END
>  <UniqueID>  (9) 
6

>  <SMILES>  (9) 
c1ccc(CCCCN2CCC[C@H](Cc3c[n-]cn3)C2)cc1

>  <Energy>  (9) 
75.92529449533545

>  <Genealogy>  (9) 
c1ccc(CCCCN2CCCC(Cc3c[n-]cn3)C2)cc1 (protonated)
c1ccc(CCCCN2CCC[C@H](Cc3c[n-]cn3)C2)cc1 (chirality)
c1ccc(CCCCN2CCC[C@H](Cc3c[n-]cn3)C2)cc1 (3D coordinates assigned)
c1ccc(CCCCN2CCC[C@H](Cc3c[n-]cn3)C2)cc1 (nonaromatic ring conformer: 75.92529449533545 kcal/mol)

>  <smiles>  (9) 
c1ccc(CCCCN2CCCC(Cc3c[nH]cn3)C2)cc1

>  <score_type>  (9) 
oracle

>  <origin>  (9) 
adg

>  <m_score__min__energy>  (9) 
-10.210000000000001

>  <m_primary>  (9) 
energy

$$$$
9:0
     RDKit          3D

 49 51  0  0  0  0  0  0  0  0999 V2000
   -6.0560   18.3530  -33.9430 C   0  0  0  0  0  0  0  0  0  0  0  0
   -6.8830   19.2740  -33.0940 C   0  0  0  0  0  0  0  0  0  0  0  0
   -7.9980   18.7850  -32.3970 C   0  0  0  0  0  0  0  0  0  0  0  0
   -8.7400   19.6370  -31.5750 C   0  0  0  0  0  0  0  0  0  0  0  0
   -8.3720   20.9770  -31.4350 C   0  0  0  0  0  0  0  0  0  0  0  0
   -7.2550   21.4850  -32.1240 C   0  0  0  0  0  0  0  0  0  0  0  0
   -6.8320   22.8970  -31.9570 C   0  0  0  0  0  0  0  0  0  0  0  0
   -7.3630   23.7820  -32.6820 O   0  0  0  0  0  0  0  0  0  0  0  0
   -5.8000   23.3050  -30.9730 C   0  0  0  0  0  0  0  0  0  0  0  0
   -5.8870   24.5500  -30.3350 C   0  0  0  0  0  0  0  0  0  0  0  0
   -4.9400   24.9320  -29.4360 N   0  0  0  0  0  0  0  0  0  0  0  0
   -3.8890   24.1260  -29.1090 C   0  0  0  0  0  0  0  0  0  0  0  0
   -2.9080   24.5990  -28.1750 N   0  0  0  0  0  0  0  0  0  0  0  0
   -3.2420   24.6330  -26.7450 C   0  0  0  0  0  0  0  0  0  0  0  0
   -2.0910   25.2310  -25.9220 C   0  0  0  0  0  0  0  0  0  0  0  0
   -0.7330   24.5260  -26.1940 C   0  0  0  0  0  0  0  0  0  0  0  0
   -0.5030   23.3470  -25.2260 C   0  0  0  0  0  0  0  0  0  0  0  0
    0.7580   23.4600  -24.6190 O   0  0  0  0  0  0  0  0  0  0  0  0
   -0.5800   24.0550  -27.6680 C   0  0  0  0  0  0  0  0  0  0  0  0
   -1.5220   24.7970  -28.6170 C   0  0  0  0  0  0  0  0  0  0  0  0
   -3.7870   22.8420  -29.6820 C   0  0  0  0  0  0  0  0  0  0  0  0
   -2.6590   21.9070  -29.3370 C   0  0  0  0  0  0  0  0  0  0  0  0
   -4.7440   22.4480  -30.6270 C   0  0  0  0  0  0  0  0  0  0  0  0
   -6.5050   20.6180  -32.9390 C   0  0  0  0  0  0  0  0  0  0  0  0
   -5.4621   17.6915  -33.2951 H   0  0  0  0  0  0  0  0  0  0  0  0
   -6.7182   17.7462  -34.5780 H   0  0  0  0  0  0  0  0  0  0  0  0
   -5.3817   18.9463  -34.5780 H   0  0  0  0  0  0  0  0  0  0  0  0
   -8.2886   17.7289  -32.4978 H   0  0  0  0  0  0  0  0  0  0  0  0
   -9.6176   19.2508  -31.0359 H   0  0  0  0  0  0  0  0  0  0  0  0
   -8.9590   21.6396  -30.7820 H   0  0  0  0  0  0  0  0  0  0  0  0
   -6.7268   25.2229  -30.5628 H   0  0  0  0  0  0  0  0  0  0  0  0
   -5.0190   25.8770  -28.9950 H   0  0  0  0  0  0  0  0  0  0  0  0
   -4.1433   25.2470  -26.6011 H   0  0  0  0  0  0  0  0  0  0  0  0
   -3.4174   23.6024  -26.4027 H   0  0  0  0  0  0  0  0  0  0  0  0
   -1.9921   26.2965  -26.1768 H   0  0  0  0  0  0  0  0  0  0  0  0
   -2.3330   25.0891  -24.8584 H   0  0  0  0  0  0  0  0  0  0  0  0
    0.0422   25.2853  -26.0140 H   0  0  0  0  0  0  0  0  0  0  0  0
   -1.2825   23.3561  -24.4499 H   0  0  0  0  0  0  0  0  0  0  0  0
   -0.5477   22.4039  -25.7903 H   0  0  0  0  0  0  0  0  0  0  0  0
    0.5920   23.8050  -23.7010 H   0  0  0  0  0  0  0  0  0  0  0  0
    0.4570   24.2317  -27.9897 H   0  0  0  0  0  0  0  0  0  0  0  0
   -0.8372   22.9862  -27.7074 H   0  0  0  0  0  0  0  0  0  0  0  0
   -1.2828   25.8706  -28.6076 H   0  0  0  0  0  0  0  0  0  0  0  0
   -1.4006   24.4062  -29.6381 H   0  0  0  0  0  0  0  0  0  0  0  0
   -2.5672   21.8309  -28.2435 H   0  0  0  0  0  0  0  0  0  0  0  0
   -2.8659   20.9119  -29.7577 H   0  0  0  0  0  0  0  0  0  0  0  0
   -1.7195   22.2949  -29.7577 H   0  0  0  0  0  0  0  0  0  0  0  0
   -4.6667   21.4586  -31.1015 H   0  0  0  0  0  0  0  0  0  0  0  0
   -5.6133   20.9963  -33.4603 H   0  0  0  0  0  0  0  0  0  0  0  0
  1  2  1  0
  2  3  2  0
  3  4  1  0
  4  5  2  0
  5  6  1  0
  6  7  1  0
  7  8  2  0
  7  9  1  0
  9 10  2  0
 10 11  1  0
 11 12  2  0
 12 13  1  0
 13 14  1  0
 14 15  1  0
 15 16  1  0
 16 17  1  0
 17 18  1  0
 16 19  1  0
 19 20  1  0
 12 21  1  0
 21 22  1  0
 21 23  2  0
  6 24  2  0
 24  2  1  0
 23  9  1  0
 20 13  1  0
  1 25  1  0
  1 26  1  0
  1 27  1  0
  3 28  1  0
  4 29  1  0
  5 30  1  0
 10 31  1  0
 11 32  1  0
 14 33  1  0
 14 34  1  0
 15 35  1  0
 15 36  1  0
 16 37  1  0
 17 38  1  0
 17 39  1  0
 18 40  1  0
 19 41  1  0
 19 42  1  0
 20 43  1  0
 20 44  1  0
 22 45  1  0
 22 46  1  0
 22 47  1  0
 23 48  1  0
 24 49  1  0
M  CHG  1  11   1
M  END
>  <UniqueID>  (10) 
7

>  <SMILES>  (10) 
Cc1cccc(C(=O)c2c[nH+]c(N3CCC(CO)CC3)c(C)c2)c1

>  <Energy>  (10) 
61.212448286035524

>  <Genealogy>  (10) 
Cc1cccc(C(=O)c2c[nH+]c(N3CCC(CO)CC3)c(C)c2)c1 (protonated)
Cc1cccc(C(=O)c2c[nH+]c(N3CCC(CO)CC3)c(C)c2)c1 (3D coordinates assigned)
Cc1cccc(C(=O)c2c[nH+]c(N3CCC(CO)CC3)c(C)c2)c1 (nonaromatic ring conformer: 61.212448286035524 kcal/mol)

>  <smiles>  (10) 
Cc1cccc(C(=O)c2cnc(N3CCC(CO)CC3)c(C)c2)c1

>  <score_type>  (10) 
oracle

>  <origin>  (10) 
adg

>  <m_score__min__energy>  (10) 
-8.4100000000000001

>  <m_primary>  (10) 
energy

$$$$
10:0
     RDKit          3D

 30 32  0  0  0  0  0  0  0  0999 V2000
   -4.2070   25.6740  -31.7550 H   0  0  0  0  0  0  0  0  0  0  0  0
   -4.5930   25.3440  -30.8450 N   0  0  0  0  0  0  0  0  0  0  0  0
   -4.1040   24.3330  -30.1980 C   0  0  0  0  0  0  0  0  0  0  0  0
   -3.5600   24.4580  -28.9640 N   0  0  0  0  0  0  0  0  0  0  0  0
   -3.4630   25.3230  -28.3870 H   0  0  0  0  0  0  0  0  0  0  0  0
   -3.1660   23.2110  -28.6570 C   0  0  0  0  0  0  0  0  0  0  0  0
   -2.5310   22.7750  -27.4960 C   0  0  0  0  0  0  0  0  0  0  0  0
   -2.2961   23.4726  -26.6786 H   0  0  0  0  0  0  0  0  0  0  0  0
   -2.2010   21.4100  -27.4070 C   0  0  0  0  0  0  0  0  0  0  0  0
   -1.6985   21.0274  -26.5064 H   0  0  0  0  0  0  0  0  0  0  0  0
   -2.5100   20.5280  -28.4650 C   0  0  0  0  0  0  0  0  0  0  0  0
   -2.2471   19.4631  -28.3818 H   0  0  0  0  0  0  0  0  0  0  0  0
   -3.1520   21.0000  -29.6260 C   0  0  0  0  0  0  0  0  0  0  0  0
   -3.3958   20.3218  -30.4570 H   0  0  0  0  0  0  0  0  0  0  0  0
   -3.4690   22.3610  -29.6860 C   0  0  0  0  0  0  0  0  0  0  0  0
   -4.0720   23.0570  -30.6750 N   0  0  0  0  0  0  0  0  0  0  0  0
   -4.5100   22.5640  -31.9860 C   0  0  0  0  0  0  0  0  0  0  0  0
   -4.3957   23.3651  -32.7311 H   0  0  0  0  0  0  0  0  0  0  0  0
   -3.8933   21.6970  -32.2652 H   0  0  0  0  0  0  0  0  0  0  0  0
   -5.9540   22.1390  -31.9320 C   0  0  0  0  0  0  0  0  0  0  0  0
   -6.9600   23.0610  -31.5950 C   0  0  0  0  0  0  0  0  0  0  0  0
   -6.6925   24.1013  -31.3578 H   0  0  0  0  0  0  0  0  0  0  0  0
   -8.3000   22.6610  -31.5600 C   0  0  0  0  0  0  0  0  0  0  0  0
   -9.0831   23.3869  -31.2959 H   0  0  0  0  0  0  0  0  0  0  0  0
   -8.6450   21.3410  -31.8600 C   0  0  0  0  0  0  0  0  0  0  0  0
   -9.6993   21.0284  -31.8332 H   0  0  0  0  0  0  0  0  0  0  0  0
   -7.6510   20.4180  -32.1940 C   0  0  0  0  0  0  0  0  0  0  0  0
   -7.9239   19.3788  -32.4299 H   0  0  0  0  0  0  0  0  0  0  0  0
   -6.3110   20.8120  -32.2290 C   0  0  0  0  0  0  0  0  0  0  0  0
   -5.5319   20.0807  -32.4901 H   0  0  0  0  0  0  0  0  0  0  0  0
  1  2  1  0
  2  3  2  0
  3  4  1  0
  4  5  1  0
  4  6  1  0
  6  7  2  0
  7  8  1  0
  7  9  1  0
  9 10  1  0
  9 11  2  0
 11 12  1  0
 11 13  1  0
 13 14  1  0
 13 15  2  0
 15 16  1  0
 16 17  1  0
 17 18  1  0
 17 19  1  0
 17 20  1  0
 20 21  2  0
 21 22  1  0
 21 23  1  0
 23 24  1  0
 23 25  2  0
 25 26  1  0
 25 27  1  0
 27 28  1  0
 27 29  2  0
 29 30  1  0
 16  3  1  0
 29 20  1  0
 15  6  1  0
M  END
>  <UniqueID>  (11) 
8

>  <SMILES>  (11) 
[H]/N=c1/[nH]c2ccccc2n1Cc1ccccc1

>  <Energy>  (11) 
72.09522782587493

>  <Genealogy>  (11) 
[H]/N=c1/[nH]c2ccccc2n1Cc1ccccc1 (cis-trans isomerization)
[H]/N=c1/[nH]c2ccccc2n1Cc1ccccc1 (3D coordinates assigned)
[H]/N=c1/[nH]c2ccccc2n1Cc1ccccc1 (optimized conformer: 72.09522782587493 kcal/mol)

>  <smiles>  (11) 
N=c1[nH]c2ccccc2n1Cc1ccccc1

>  <score_type>  (11) 
oracle

>  <origin>  (11) 
adg

>  <m_score__min__energy>  (11) 
-6.8600000000000003

>  <m_primary>  (11) 
energy

$$$$
11:0
     RDKit          3D

 30 31  0  0  0  0  0  0  0  0999 V2000
   -4.2270   25.6380  -30.8430 O   0  0  0  0  0  0  0  0  0  0  0  0
   -4.6510   24.4660  -30.6560 C   0  0  0  0  0  0  0  0  0  0  0  0
   -5.4860   23.8440  -31.6350 N   0  0  0  0  0  0  0  0  0  0  0  0
   -6.9330   22.9880  -31.2150 S   0  0  0  0  0  0  0  0  0  0  0  0
   -7.0230   22.8910  -29.7170 O   0  0  0  0  0  0  0  0  0  0  0  0
   -8.1230   23.7460  -31.7320 O   0  0  0  0  0  0  0  0  0  0  0  0
   -6.9140   21.3840  -31.9380 C   0  0  0  0  0  0  0  0  0  0  0  0
   -8.0210   20.5330  -31.8070 C   0  0  0  0  0  0  0  0  0  0  0  0
   -7.9990   19.2590  -32.3840 C   0  0  0  0  0  0  0  0  0  0  0  0
   -6.8740   18.8310  -33.0960 C   0  0  0  0  0  0  0  0  0  0  0  0
   -6.8540   17.5950  -33.6540 F   0  0  0  0  0  0  0  0  0  0  0  0
   -5.7700   19.6770  -33.2330 C   0  0  0  0  0  0  0  0  0  0  0  0
   -5.7900   20.9520  -32.6560 C   0  0  0  0  0  0  0  0  0  0  0  0
   -4.3430   23.7600  -29.4470 N   0  0  0  0  0  0  0  0  0  0  0  0
   -3.3850   24.2050  -28.4720 C   0  0  0  0  0  0  0  0  0  0  0  0
   -2.0420   24.3640  -28.8510 C   0  0  0  0  0  0  0  0  0  0  0  0
   -1.0930   24.8160  -27.9280 C   0  0  0  0  0  0  0  0  0  0  0  0
   -1.4810   25.1270  -26.6230 C   0  0  0  0  0  0  0  0  0  0  0  0
   -2.8190   24.9950  -26.2410 C   0  0  0  0  0  0  0  0  0  0  0  0
   -3.7700   24.5430  -27.1610 C   0  0  0  0  0  0  0  0  0  0  0  0
   -8.9081   20.8680  -31.2495 H   0  0  0  0  0  0  0  0  0  0  0  0
   -8.8678   18.5928  -32.2776 H   0  0  0  0  0  0  0  0  0  0  0  0
   -4.8856   19.3409  -33.7942 H   0  0  0  0  0  0  0  0  0  0  0  0
   -4.9210   21.6173  -32.7662 H   0  0  0  0  0  0  0  0  0  0  0  0
   -4.9190   22.9170  -29.2240 H   0  0  0  0  0  0  0  0  0  0  0  0
   -1.7342   24.1314  -29.8811 H   0  0  0  0  0  0  0  0  0  0  0  0
   -0.0411   24.9265  -28.2301 H   0  0  0  0  0  0  0  0  0  0  0  0
   -0.7334   25.4760  -25.8955 H   0  0  0  0  0  0  0  0  0  0  0  0
   -3.1244   25.2472  -25.2148 H   0  0  0  0  0  0  0  0  0  0  0  0
   -4.8237   24.4512  -26.8589 H   0  0  0  0  0  0  0  0  0  0  0  0
  1  2  2  0
  2  3  1  0
  3  4  1  0
  4  5  2  0
  4  6  2  0
  4  7  1  0
  7  8  2  0
  8  9  1  0
  9 10  2  0
 10 11  1  0
 10 12  1  0
 12 13  2  0
  2 14  1  0
 14 15  1  0
 15 16  2  0
 16 17  1  0
 17 18  2  0
 18 19  1  0
 19 20  2  0
 13  7  1  0
 20 15  1  0
  8 21  1  0
  9 22  1  0
 12 23  1  0
 13 24  1  0
 14 25  1  0
 16 26  1  0
 17 27  1  0
 18 28  1  0
 19 29  1  0
 20 30  1  0
M  CHG  1   3  -1
M  END
>  <UniqueID>  (12) 
9

>  <SMILES>  (12) 
O=C([N-]S(=O)(=O)c1ccc(F)cc1)Nc1ccccc1

>  <Energy>  (12) 
35.77113814168852

>  <Genealogy>  (12) 
O=C([N-]S(=O)(=O)c1ccc(F)cc1)Nc1ccccc1 (protonated)
O=C([N-]S(=O)(=O)c1ccc(F)cc1)Nc1ccccc1 (3D coordinates assigned)
O=C([N-]S(=O)(=O)c1ccc(F)cc1)Nc1ccccc1 (optimized conformer: 35.77113814168852 kcal/mol)

>  <smiles>  (12) 
O=C(Nc1ccccc1)NS(=O)(=O)c1ccc(F)cc1

>  <score_type>  (12) 
oracle

>  <origin>  (12) 
adg

>  <m_score__min__energy>  (12) 
-8.3000000000000007

>  <m_primary>  (12) 
energy

$$$$
12:0
     RDKit          3D

 35 36  0  0  0  0  0  0  0  0999 V2000
   -4.1890   24.1560  -27.3340 C   0  0  0  0  0  0  0  0  0  0  0  0
   -3.5690   23.8300  -28.4660 C   0  0  0  0  0  0  0  0  0  0  0  0
   -3.0570   24.8370  -29.4080 C   0  0  0  0  0  0  0  0  0  0  0  0
   -1.8940   25.2960  -29.2450 O   0  0  0  0  0  0  0  0  0  0  0  0
   -3.8630   25.2950  -30.4990 N   0  0  0  0  0  0  0  0  0  0  0  0
   -5.1740   24.7340  -30.8010 C   0  0  0  0  0  0  0  0  0  0  0  0
   -5.0070   23.4390  -31.5940 C   0  0  0  0  0  0  0  0  0  0  0  0
   -6.3320   22.7210  -31.7410 C   0  0  0  0  0  0  0  0  0  0  0  0
   -7.5080   23.4510  -31.4880 C   0  0  0  0  0  0  0  0  0  0  0  0
   -8.7610   22.8500  -31.5940 C   0  0  0  0  0  0  0  0  0  0  0  0
   -8.8680   21.5070  -31.9450 C   0  0  0  0  0  0  0  0  0  0  0  0
   -7.7180   20.7450  -32.1870 C   0  0  0  0  0  0  0  0  0  0  0  0
   -7.8400   19.3880  -32.5280 C   0  0  0  0  0  0  0  0  0  0  0  0
   -6.6970   18.6040  -32.7620 C   0  0  0  0  0  0  0  0  0  0  0  0
   -6.7720   17.2460  -33.1040 O   0  0  0  0  0  0  0  0  0  0  0  0
   -6.0790   16.6490  -34.1950 C   0  0  0  0  0  0  0  0  0  0  0  0
   -5.4350   19.1890  -32.6490 C   0  0  0  0  0  0  0  0  0  0  0  0
   -5.2970   20.5370  -32.3130 C   0  0  0  0  0  0  0  0  0  0  0  0
   -6.4330   21.3420  -32.0800 C   0  0  0  0  0  0  0  0  0  0  0  0
   -4.5549   23.3671  -26.6604 H   0  0  0  0  0  0  0  0  0  0  0  0
   -4.3354   25.2143  -27.0722 H   0  0  0  0  0  0  0  0  0  0  0  0
   -3.4342   22.7651  -28.7065 H   0  0  0  0  0  0  0  0  0  0  0  0
   -5.7067   24.5222  -29.8622 H   0  0  0  0  0  0  0  0  0  0  0  0
   -5.7516   25.4556  -31.3974 H   0  0  0  0  0  0  0  0  0  0  0  0
   -4.6134   23.6768  -32.5933 H   0  0  0  0  0  0  0  0  0  0  0  0
   -4.3097   22.7827  -31.0526 H   0  0  0  0  0  0  0  0  0  0  0  0
   -7.4374   24.5110  -31.2025 H   0  0  0  0  0  0  0  0  0  0  0  0
   -9.6693   23.4393  -31.3995 H   0  0  0  0  0  0  0  0  0  0  0  0
   -9.8610   21.0419  -32.0327 H   0  0  0  0  0  0  0  0  0  0  0  0
   -8.8387   18.9348  -32.6127 H   0  0  0  0  0  0  0  0  0  0  0  0
   -5.2984   15.9765  -33.8097 H   0  0  0  0  0  0  0  0  0  0  0  0
   -6.7878   16.0741  -34.8091 H   0  0  0  0  0  0  0  0  0  0  0  0
   -5.6154   17.4351  -34.8091 H   0  0  0  0  0  0  0  0  0  0  0  0
   -4.5367   18.5796  -32.8271 H   0  0  0  0  0  0  0  0  0  0  0  0
   -4.2922   20.9766  -32.2289 H   0  0  0  0  0  0  0  0  0  0  0  0
  1  2  2  0
  2  3  1  0
  3  4  2  0
  3  5  1  0
  5  6  1  0
  6  7  1  0
  7  8  1  0
  8  9  2  0
  9 10  1  0
 10 11  2  0
 11 12  1  0
 12 13  2  0
 13 14  1  0
 14 15  1  0
 15 16  1  0
 14 17  2  0
 17 18  1  0
 18 19  2  0
 19  8  1  0
 19 12  1  0
  1 20  1  0
  1 21  1  0
  2 22  1  0
  6 23  1  0
  6 24  1  0
  7 25  1  0
  7 26  1  0
  9 27  1  0
 10 28  1  0
 11 29  1  0
 13 30  1  0
 16 31  1  0
 16 32  1  0
 16 33  1  0
 17 34  1  0
 18 35  1  0
M  CHG  1   5  -1
M  END
>  <UniqueID>  (13) 
10

>  <SMILES>  (13) 
C=CC(=O)[N-]CCc1cccc2cc(OC)ccc12

>  <Energy>  (13) 
33.30930259524415

>  <Genealogy>  (13) 
C=CC(=O)[N-]CCc1cccc2cc(OC)ccc12 (protonated)
C=CC(=O)[N-]CCc1cccc2cc(OC)ccc12 (3D coordinates assigned)
C=CC(=O)[N-]CCc1cccc2cc(OC)ccc12 (optimized conformer: 33.30930259524415 kcal/mol)

>  <smiles>  (13) 
C=CC(=O)NCCc1cccc2cc(OC)ccc12

>  <score_type>  (13) 
oracle

>  <origin>  (13) 
adg

>  <m_score__min__energy>  (13) 
-9.4800000000000004

>  <m_primary>  (13) 
energy

$$$$
13:0
     RDKit          3D

 27 28  0  0  0  0  0  0  0  0999 V2000
   -2.4610   21.5450  -33.2700 N   0  0  0  0  0  0  0  0  0  0  0  0
   -3.3760   22.0960  -32.3190 C   0  0  0  0  0  0  0  0  0  0  0  0
   -2.9330   22.4350  -31.0380 C   0  0  0  0  0  0  0  0  0  0  0  0
   -3.8340   22.9690  -30.1160 C   0  0  0  0  0  0  0  0  0  0  0  0
   -3.4300   23.2670  -28.9600 O   0  0  0  0  0  0  0  0  0  0  0  0
   -5.1780   23.1690  -30.4770 C   0  0  0  0  0  0  0  0  0  0  0  0
   -6.1090   23.7010  -29.5230 N   0  0  0  0  0  0  0  0  0  0  0  0
   -5.5810   22.8270  -31.7870 C   0  0  0  0  0  0  0  0  0  0  0  0
   -7.2720   23.0840  -32.3480 S   0  0  0  0  0  0  0  0  0  0  0  0
   -7.6420   21.3300  -32.3350 C   0  0  0  0  0  0  0  0  0  0  0  0
   -6.8400   20.4390  -33.0610 C   0  0  0  0  0  0  0  0  0  0  0  0
   -7.1290   19.0720  -33.0560 C   0  0  0  0  0  0  0  0  0  0  0  0
   -8.2160   18.5880  -32.3220 C   0  0  0  0  0  0  0  0  0  0  0  0
   -9.0140   19.4730  -31.5910 C   0  0  0  0  0  0  0  0  0  0  0  0
   -8.7280   20.8430  -31.5950 C   0  0  0  0  0  0  0  0  0  0  0  0
   -4.6790   22.2950  -32.6600 N   0  0  0  0  0  0  0  0  0  0  0  0
   -2.4260   21.9020  -34.2510 H   0  0  0  0  0  0  0  0  0  0  0  0
   -1.8120   20.7730  -32.9970 H   0  0  0  0  0  0  0  0  0  0  0  0
   -1.8803   22.2819  -30.7580 H   0  0  0  0  0  0  0  0  0  0  0  0
   -5.7880   24.0520  -28.5940 H   0  0  0  0  0  0  0  0  0  0  0  0
   -7.1350   23.7290  -29.7080 H   0  0  0  0  0  0  0  0  0  0  0  0
   -5.9815   20.8165  -33.6358 H   0  0  0  0  0  0  0  0  0  0  0  0
   -6.5004   18.3756  -33.6304 H   0  0  0  0  0  0  0  0  0  0  0  0
   -8.4432   17.5117  -32.3197 H   0  0  0  0  0  0  0  0  0  0  0  0
   -9.8680   19.0920  -31.0118 H   0  0  0  0  0  0  0  0  0  0  0  0
   -9.3556   21.5376  -31.0173 H   0  0  0  0  0  0  0  0  0  0  0  0
   -4.9970   22.0420  -33.6230 H   0  0  0  0  0  0  0  0  0  0  0  0
  1  2  1  0
  2  3  2  0
  3  4  1  0
  4  5  2  0
  4  6  1  0
  6  7  1  0
  6  8  2  0
  8  9  1  0
  9 10  1  0
 10 11  2  0
 11 12  1  0
 12 13  2  0
 13 14  1  0
 14 15  2  0
  8 16  1  0
 16  2  1  0
 15 10  1  0
  1 17  1  0
  1 18  1  0
  3 19  1  0
  7 20  1  0
  7 21  1  0
 11 22  1  0
 12 23  1  0
 13 24  1  0
 14 25  1  0
 15 26  1  0
 16 27  1  0
M  END
>  <UniqueID>  (14) 
11

>  <SMILES>  (14) 
Nc1cc(=O)c(N)c(Sc2ccccc2)[nH]1

>  <Energy>  (14) 
23.727876508957056

>  <Genealogy>  (14) 
Nc1cc(=O)c(N)c(Sc2ccccc2)[nH]1 (3D coordinates assigned)
Nc1cc(=O)c(N)c(Sc2ccccc2)[nH]1 (optimized conformer: 23.727876508957056 kcal/mol)

>  <smiles>  (14) 
Nc1cc(=O)c(N)c(Sc2ccccc2)[nH]1

>  <score_type>  (14) 
oracle

>  <origin>  (14) 
adg

>  <m_score__min__energy>  (14) 
-6.0999999999999996

>  <m_primary>  (14) 
energy

$$$$
14:0
     RDKit          3D

 43 46  0  0  0  0  0  0  0  0999 V2000
    0.2560   20.9860  -27.0980 C   0  0  0  0  0  0  0  0  0  0  0  0
   -0.2300   22.2780  -27.5980 N   0  0  0  0  0  0  0  0  0  0  0  0
    0.6130   23.3510  -27.8120 C   0  0  0  0  0  0  0  0  0  0  0  0
    1.8490   23.2540  -27.5860 O   0  0  0  0  0  0  0  0  0  0  0  0
    0.1160   24.5420  -28.2750 N   0  0  0  0  0  0  0  0  0  0  0  0
   -1.2100   24.7170  -28.5350 C   0  0  0  0  0  0  0  0  0  0  0  0
   -1.6330   25.8210  -28.9670 O   0  0  0  0  0  0  0  0  0  0  0  0
   -2.0610   23.6400  -28.3100 C   0  0  0  0  0  0  0  0  0  0  0  0
   -1.5570   22.4630  -27.8540 C   0  0  0  0  0  0  0  0  0  0  0  0
   -2.5500   21.5650  -27.7130 N   0  0  0  0  0  0  0  0  0  0  0  0
   -3.6630   22.2370  -28.0980 C   0  0  0  0  0  0  0  0  0  0  0  0
   -3.3960   23.5160  -28.4700 N   0  0  0  0  0  0  0  0  0  0  0  0
   -4.3700   24.5230  -28.8970 C   0  0  0  0  0  0  0  0  0  0  0  0
   -4.5940   24.4440  -30.3840 C   0  0  0  0  0  0  0  0  0  0  0  0
   -4.5330   25.5080  -31.0590 O   0  0  0  0  0  0  0  0  0  0  0  0
   -4.9140   23.1670  -31.0710 C   0  0  0  0  0  0  0  0  0  0  0  0
   -6.2460   22.7210  -31.1330 C   0  0  0  0  0  0  0  0  0  0  0  0
   -6.5640   21.5090  -31.7500 C   0  0  0  0  0  0  0  0  0  0  0  0
   -5.5580   20.7180  -32.3320 C   0  0  0  0  0  0  0  0  0  0  0  0
   -5.8920   19.4220  -32.9780 C   0  0  0  0  0  0  0  0  0  0  0  0
   -6.8520   18.5650  -32.4100 C   0  0  0  0  0  0  0  0  0  0  0  0
   -7.1600   17.3430  -33.0180 C   0  0  0  0  0  0  0  0  0  0  0  0
   -6.5150   16.9650  -34.1960 C   0  0  0  0  0  0  0  0  0  0  0  0
   -5.5600   17.8060  -34.7700 C   0  0  0  0  0  0  0  0  0  0  0  0
   -5.2480   19.0280  -34.1680 C   0  0  0  0  0  0  0  0  0  0  0  0
   -4.2280   21.1730  -32.2890 C   0  0  0  0  0  0  0  0  0  0  0  0
   -3.9110   22.3840  -31.6680 C   0  0  0  0  0  0  0  0  0  0  0  0
    0.2530   20.9939  -25.9980 H   0  0  0  0  0  0  0  0  0  0  0  0
   -0.4011   20.1818  -27.4607 H   0  0  0  0  0  0  0  0  0  0  0  0
    1.2802   20.8142  -27.4607 H   0  0  0  0  0  0  0  0  0  0  0  0
   -2.4930   20.5770  -27.3840 H   0  0  0  0  0  0  0  0  0  0  0  0
   -4.6704   21.7955  -28.1080 H   0  0  0  0  0  0  0  0  0  0  0  0
   -5.3236   24.3472  -28.3776 H   0  0  0  0  0  0  0  0  0  0  0  0
   -3.9809   25.5215  -28.6487 H   0  0  0  0  0  0  0  0  0  0  0  0
   -7.0460   23.3330  -30.6909 H   0  0  0  0  0  0  0  0  0  0  0  0
   -7.6102   21.1706  -31.7808 H   0  0  0  0  0  0  0  0  0  0  0  0
   -7.3641   18.8575  -31.4815 H   0  0  0  0  0  0  0  0  0  0  0  0
   -7.9120   16.6792  -32.5664 H   0  0  0  0  0  0  0  0  0  0  0  0
   -6.7590   16.0041  -34.6726 H   0  0  0  0  0  0  0  0  0  0  0  0
   -5.0519   17.5061  -35.6984 H   0  0  0  0  0  0  0  0  0  0  0  0
   -4.4951   19.6864  -34.6258 H   0  0  0  0  0  0  0  0  0  0  0  0
   -3.4304   20.5705  -32.7481 H   0  0  0  0  0  0  0  0  0  0  0  0
   -2.8663   22.7278  -31.6462 H   0  0  0  0  0  0  0  0  0  0  0  0
  1  2  1  0
  2  3  1  0
  3  4  2  0
  3  5  1  0
  5  6  1  0
  6  7  2  0
  6  8  1  0
  8  9  2  0
  9 10  1  0
 10 11  2  0
 11 12  1  0
 12 13  1  0
 13 14  1  0
 14 15  2  0
 14 16  1  0
 16 17  2  0
 17 18  1  0
 18 19  2  0
 19 20  1  0
 20 21  2  0
 21 22  1  0
 22 23  2  0
 23 24  1  0
 24 25  2  0
 19 26  1  0
 26 27  2  0
  9  2  1  0
 27 16  1  0
 12  8  1  0
 25 20  1  0
  1 28  1  0
  1 29  1  0
  1 30  1  0
 10 31  1  0
 11 32  1  0
 13 33  1  0
 13 34  1  0
 17 35  1  0
 18 36  1  0
 21 37  1  0
 22 38  1  0
 23 39  1  0
 24 40  1  0
 25 41  1  0
 26 42  1  0
 27 43  1  0
M  CHG  2   5  -1  10   1
M  END
>  <UniqueID>  (15) 
12

>  <SMILES>  (15) 
Cn1c(=O)[n-]c(=O)c2c1[nH+]cn2CC(=O)c1ccc(-c2ccccc2)cc1

>  <Energy>  (15) 
98.43408691791362

>  <Genealogy>  (15) 
Cn1c(=O)[n-]c(=O)c2c1[nH+]cn2CC(=O)c1ccc(-c2ccccc2)cc1 (protonated)
Cn1c(=O)[n-]c(=O)c2c1[nH+]cn2CC(=O)c1ccc(-c2ccccc2)cc1 (3D coordinates assigned)
Cn1c(=O)[n-]c(=O)c2c1[nH+]cn2CC(=O)c1ccc(-c2ccccc2)cc1 (optimized conformer: 98.43408691791362 kcal/mol)

>  <smiles>  (15) 
Cn1c(=O)[nH]c(=O)c2c1ncn2CC(=O)c1ccc(-c2ccccc2)cc1

>  <score_type>  (15) 
oracle

>  <origin>  (15) 
adg

>  <m_score__min__energy>  (15) 
-8.9000000000000004

>  <m_primary>  (15) 
energy

$$$$
15:0
     RDKit          3D

 56 59  0  0  0  0  0  0  0  0999 V2000
   -5.0480   25.1510  -30.4880 C   0  0  0  0  0  0  0  0  0  0  0  0
   -3.8100   24.4500  -30.4910 O   0  0  0  0  0  0  0  0  0  0  0  0
   -3.5270   23.3270  -29.6970 C   0  0  0  0  0  0  0  0  0  0  0  0
   -3.6390   23.3690  -28.2920 C   0  0  0  0  0  0  0  0  0  0  0  0
   -3.3700   22.2300  -27.5290 C   0  0  0  0  0  0  0  0  0  0  0  0
   -2.9900   21.0430  -28.1520 C   0  0  0  0  0  0  0  0  0  0  0  0
   -2.8740   20.9880  -29.5420 C   0  0  0  0  0  0  0  0  0  0  0  0
   -3.1390   22.1250  -30.3270 C   0  0  0  0  0  0  0  0  0  0  0  0
   -2.9810   22.0600  -31.7590 N   0  0  0  0  0  0  0  0  0  0  0  0
   -4.0900   22.4010  -32.6540 C   0  0  0  0  0  0  0  0  0  0  0  0
   -4.5280   21.1640  -33.4670 C   0  0  0  0  0  0  0  0  0  0  0  0
   -3.4460   20.1620  -33.6710 N   0  0  0  0  0  0  0  0  0  0  0  0
   -3.5190   19.0490  -32.6980 C   0  0  0  0  0  0  0  0  0  0  0  0
   -4.1260   17.7970  -33.3460 C   0  0  0  0  0  0  0  0  0  0  0  0
   -5.5260   17.6530  -32.9520 N   0  0  0  0  0  0  0  0  0  0  0  0
   -6.0090   17.0130  -31.7720 C   0  0  0  0  0  0  0  0  0  0  0  0
   -5.3660   16.1250  -31.1510 O   0  0  0  0  0  0  0  0  0  0  0  0
   -7.2750   17.5060  -31.3310 N   0  0  0  0  0  0  0  0  0  0  0  0
   -7.5920   18.4470  -32.1620 C   0  0  0  0  0  0  0  0  0  0  0  0
   -8.8460   19.2610  -32.0510 C   0  0  0  0  0  0  0  0  0  0  0  0
   -8.5120   20.7140  -31.8510 C   0  0  0  0  0  0  0  0  0  0  0  0
   -7.2790   21.0890  -31.2920 C   0  0  0  0  0  0  0  0  0  0  0  0
   -6.9830   22.4390  -31.0790 C   0  0  0  0  0  0  0  0  0  0  0  0
   -7.9190   23.4210  -31.4120 C   0  0  0  0  0  0  0  0  0  0  0  0
   -9.1540   23.0550  -31.9550 C   0  0  0  0  0  0  0  0  0  0  0  0
   -9.4530   21.7060  -32.1720 C   0  0  0  0  0  0  0  0  0  0  0  0
   -6.5520   18.6090  -33.1730 C   0  0  0  0  0  0  0  0  0  0  0  0
   -6.5240   19.4860  -34.0760 O   0  0  0  0  0  0  0  0  0  0  0  0
   -2.1060   20.7890  -33.6900 C   0  0  0  0  0  0  0  0  0  0  0  0
   -1.7760   21.4620  -32.3440 C   0  0  0  0  0  0  0  0  0  0  0  0
   -5.3652   25.3306  -29.4501 H   0  0  0  0  0  0  0  0  0  0  0  0
   -4.9255   26.1138  -31.0058 H   0  0  0  0  0  0  0  0  0  0  0  0
   -5.8106   24.5507  -31.0058 H   0  0  0  0  0  0  0  0  0  0  0  0
   -3.9396   24.3029  -27.7944 H   0  0  0  0  0  0  0  0  0  0  0  0
   -3.4584   22.2704  -26.4333 H   0  0  0  0  0  0  0  0  0  0  0  0
   -2.7811   20.1480  -27.5476 H   0  0  0  0  0  0  0  0  0  0  0  0
   -2.5729   20.0480  -30.0275 H   0  0  0  0  0  0  0  0  0  0  0  0
   -4.9403   22.7609  -32.0561 H   0  0  0  0  0  0  0  0  0  0  0  0
   -3.7574   23.1850  -33.3502 H   0  0  0  0  0  0  0  0  0  0  0  0
   -5.3568   20.6751  -32.9341 H   0  0  0  0  0  0  0  0  0  0  0  0
   -4.8212   21.5247  -34.4640 H   0  0  0  0  0  0  0  0  0  0  0  0
   -2.5051   18.8149  -32.3413 H   0  0  0  0  0  0  0  0  0  0  0  0
   -4.1591   19.3566  -31.8580 H   0  0  0  0  0  0  0  0  0  0  0  0
   -4.0641   17.8880  -34.4405 H   0  0  0  0  0  0  0  0  0  0  0  0
   -3.5659   16.9118  -33.0104 H   0  0  0  0  0  0  0  0  0  0  0  0
   -9.4343   19.1480  -32.9736 H   0  0  0  0  0  0  0  0  0  0  0  0
   -9.4265   18.9061  -31.1867 H   0  0  0  0  0  0  0  0  0  0  0  0
   -6.5433   20.3175  -31.0207 H   0  0  0  0  0  0  0  0  0  0  0  0
   -6.0126   22.7278  -30.6490 H   0  0  0  0  0  0  0  0  0  0  0  0
   -7.6841   24.4829  -31.2468 H   0  0  0  0  0  0  0  0  0  0  0  0
   -9.8919   23.8292  -32.2121 H   0  0  0  0  0  0  0  0  0  0  0  0
  -10.4276   21.4213  -32.5951 H   0  0  0  0  0  0  0  0  0  0  0  0
   -1.3524   20.0147  -33.8963 H   0  0  0  0  0  0  0  0  0  0  0  0
   -2.0988   21.5622  -34.4723 H   0  0  0  0  0  0  0  0  0  0  0  0
   -1.3734   20.7081  -31.6515 H   0  0  0  0  0  0  0  0  0  0  0  0
   -1.0330   22.2548  -32.5156 H   0  0  0  0  0  0  0  0  0  0  0  0
  1  2  1  0
  2  3  1  0
  3  4  2  0
  4  5  1  0
  5  6  2  0
  6  7  1  0
  7  8  2  0
  8  9  1  0
  9 10  1  0
 10 11  1  0
 11 12  1  0
 12 13  1  0
 13 14  1  0
 14 15  1  0
 15 16  1  0
 16 17  2  0
 16 18  1  0
 18 19  2  0
 19 20  1  0
 20 21  1  0
 21 22  2  0
 22 23  1  0
 23 24  2  0
 24 25  1  0
 25 26  2  0
 19 27  1  0
 27 28  2  0
 12 29  1  0
 29 30  1  0
  8  3  1  0
 30  9  1  0
 27 15  1  0
 26 21  1  0
  1 31  1  0
  1 32  1  0
  1 33  1  0
  4 34  1  0
  5 35  1  0
  6 36  1  0
  7 37  1  0
 10 38  1  0
 10 39  1  0
 11 40  1  0
 11 41  1  0
 13 42  1  0
 13 43  1  0
 14 44  1  0
 14 45  1  0
 20 46  1  0
 20 47  1  0
 22 48  1  0
 23 49  1  0
 24 50  1  0
 25 51  1  0
 26 52  1  0
 29 53  1  0
 29 54  1  0
 30 55  1  0
 30 56  1  0
M  END
>  <UniqueID>  (16) 
13

>  <SMILES>  (16) 
COc1ccccc1N1CCN(CCN2C(=O)N=C(Cc3ccccc3)C2=O)CC1

>  <Energy>  (16) 
96.12223913842898

>  <Genealogy>  (16) 
COc1ccccc1N1CCN(CCN2C(=O)N=C(Cc3ccccc3)C2=O)CC1 (3D coordinates assigned)
COc1ccccc1N1CCN(CCN2C(=O)N=C(Cc3ccccc3)C2=O)CC1 (nonaromatic ring conformer: 96.12223913842898 kcal/mol)

>  <smiles>  (16) 
COc1ccccc1N1CCN(CCN2C(=O)N=C(Cc3ccccc3)C2=O)CC1

>  <score_type>  (16) 
oracle

>  <origin>  (16) 
adg

>  <m_score__min__energy>  (16) 
-9.2400000000000002

>  <m_primary>  (16) 
energy

$$$$
16:0
     RDKit          3D

 52 54  0  0  0  0  0  0  0  0999 V2000
   -1.4140   26.4070  -26.4790 C   0  0  0  0  0  0  0  0  0  0  0  0
   -0.7920   26.7340  -27.8330 C   0  0  0  0  0  0  0  0  0  0  0  0
   -1.4430   26.0110  -28.8770 O   0  0  0  0  0  0  0  0  0  0  0  0
   -1.6060   24.6150  -28.9330 C   0  0  0  0  0  0  0  0  0  0  0  0
   -0.7800   23.7300  -28.2120 C   0  0  0  0  0  0  0  0  0  0  0  0
   -0.9750   22.3490  -28.3030 C   0  0  0  0  0  0  0  0  0  0  0  0
   -1.9860   21.8380  -29.1150 C   0  0  0  0  0  0  0  0  0  0  0  0
   -2.8140   22.7040  -29.8320 C   0  0  0  0  0  0  0  0  0  0  0  0
   -2.6440   24.0970  -29.7290 C   0  0  0  0  0  0  0  0  0  0  0  0
   -3.4680   25.0130  -30.4680 N   0  0  0  0  0  0  0  0  0  0  0  0
   -4.8990   25.0190  -30.5300 C   0  0  0  0  0  0  0  0  0  0  0  0
   -5.5350   26.0920  -30.7260 O   0  0  0  0  0  0  0  0  0  0  0  0
   -5.6440   23.7230  -30.4610 C   0  0  0  0  0  0  0  0  0  0  0  0
   -7.1390   23.9530  -30.7100 C   0  0  0  0  0  0  0  0  0  0  0  0
   -7.5850   23.3000  -31.9440 N   0  0  0  0  0  0  0  0  0  0  0  0
   -8.6450   21.9530  -31.6370 S   0  0  0  0  0  0  0  0  0  0  0  0
   -9.9440   22.1640  -32.3640 O   0  0  0  0  0  0  0  0  0  0  0  0
   -8.9390   21.8940  -30.1650 O   0  0  0  0  0  0  0  0  0  0  0  0
   -7.9220   20.4190  -32.1240 C   0  0  0  0  0  0  0  0  0  0  0  0
   -8.5370   19.2180  -31.7660 C   0  0  0  0  0  0  0  0  0  0  0  0
   -7.9570   18.0000  -32.1220 C   0  0  0  0  0  0  0  0  0  0  0  0
   -6.7600   17.9550  -32.8500 C   0  0  0  0  0  0  0  0  0  0  0  0
   -6.1310   19.1690  -33.2160 C   0  0  0  0  0  0  0  0  0  0  0  0
   -6.7200   20.3920  -32.8410 C   0  0  0  0  0  0  0  0  0  0  0  0
   -4.8460   19.1980  -33.9930 C   0  0  0  0  0  0  0  0  0  0  0  0
   -3.7650   18.3840  -33.2700 C   0  0  0  0  0  0  0  0  0  0  0  0
   -3.7110   16.9540  -33.7880 C   0  0  0  0  0  0  0  0  0  0  0  0
   -5.0010   16.1780  -33.7140 C   0  0  0  0  0  0  0  0  0  0  0  0
   -5.0140   15.0400  -34.2530 O   0  0  0  0  0  0  0  0  0  0  0  0
   -6.2240   16.6500  -33.1280 N   0  0  0  0  0  0  0  0  0  0  0  0
   -0.7487   26.7567  -25.6758 H   0  0  0  0  0  0  0  0  0  0  0  0
   -2.3888   26.9092  -26.3924 H   0  0  0  0  0  0  0  0  0  0  0  0
   -1.5530   25.3193  -26.3924 H   0  0  0  0  0  0  0  0  0  0  0  0
   -0.8916   27.8126  -28.0247 H   0  0  0  0  0  0  0  0  0  0  0  0
    0.2693   26.4454  -27.8127 H   0  0  0  0  0  0  0  0  0  0  0  0
    0.0227   24.1282  -27.5740 H   0  0  0  0  0  0  0  0  0  0  0  0
   -0.3297   21.6645  -27.7330 H   0  0  0  0  0  0  0  0  0  0  0  0
   -2.1319   20.7504  -29.1911 H   0  0  0  0  0  0  0  0  0  0  0  0
   -3.6030   22.2953  -30.4805 H   0  0  0  0  0  0  0  0  0  0  0  0
   -5.2503   23.0373  -31.2258 H   0  0  0  0  0  0  0  0  0  0  0  0
   -5.5116   23.2878  -29.4595 H   0  0  0  0  0  0  0  0  0  0  0  0
   -7.7094   23.5441  -29.8630 H   0  0  0  0  0  0  0  0  0  0  0  0
   -7.3094   25.0350  -30.8112 H   0  0  0  0  0  0  0  0  0  0  0  0
   -9.4812   19.2320  -31.2018 H   0  0  0  0  0  0  0  0  0  0  0  0
   -8.4467   17.0603  -31.8268 H   0  0  0  0  0  0  0  0  0  0  0  0
   -6.2295   21.3377  -33.1149 H   0  0  0  0  0  0  0  0  0  0  0  0
   -5.0163   18.7683  -34.9912 H   0  0  0  0  0  0  0  0  0  0  0  0
   -4.5070   20.2406  -34.0830 H   0  0  0  0  0  0  0  0  0  0  0  0
   -2.7876   18.8615  -33.4333 H   0  0  0  0  0  0  0  0  0  0  0  0
   -4.0100   18.3561  -32.1980 H   0  0  0  0  0  0  0  0  0  0  0  0
   -3.3987   16.9889  -34.8421 H   0  0  0  0  0  0  0  0  0  0  0  0
   -3.0071   16.4249  -33.1288 H   0  0  0  0  0  0  0  0  0  0  0  0
  1  2  1  0
  2  3  1  0
  3  4  1  0
  4  5  2  0
  5  6  1  0
  6  7  2  0
  7  8  1  0
  8  9  2  0
  9 10  1  0
 10 11  1  0
 11 12  2  0
 11 13  1  0
 13 14  1  0
 14 15  1  0
 15 16  1  0
 16 17  2  0
 16 18  2  0
 16 19  1  0
 19 20  2  0
 20 21  1  0
 21 22  2  0
 22 23  1  0
 23 24  2  0
 23 25  1  0
 25 26  1  0
 26 27  1  0
 27 28  1  0
 28 29  2  0
 28 30  1  0
  9  4  1  0
 24 19  1  0
 30 22  1  0
  1 31  1  0
  1 32  1  0
  1 33  1  0
  2 34  1  0
  2 35  1  0
  5 36  1  0
  6 37  1  0
  7 38  1  0
  8 39  1  0
 13 40  1  0
 13 41  1  0
 14 42  1  0
 14 43  1  0
 20 44  1  0
 21 45  1  0
 24 46  1  0
 25 47  1  0
 25 48  1  0
 26 49  1  0
 26 50  1  0
 27 51  1  0
 27 52  1  0
M  CHG  3  10  -1  15  -1  30  -1
M  END
>  <UniqueID>  (17) 
14

>  <SMILES>  (17) 
CCOc1ccccc1[N-]C(=O)CC[N-]S(=O)(=O)c1ccc2c(c1)CCCC(=O)[N-]2

>  <Energy>  (17) 
62.103208525485805

>  <Genealogy>  (17) 
CCOc1ccccc1[N-]C(=O)CC[N-]S(=O)(=O)c1ccc2c(c1)CCCC(=O)[N-]2 (protonated)
CCOc1ccccc1[N-]C(=O)CC[N-]S(=O)(=O)c1ccc2c(c1)CCCC(=O)[N-]2 (3D coordinates assigned)
CCOc1ccccc1[N-]C(=O)CC[N-]S(=O)(=O)c1ccc2c(c1)CCCC(=O)[N-]2 (nonaromatic ring conformer: 62.103208525485805 kcal/mol)

>  <smiles>  (17) 
CCOc1ccccc1NC(=O)CCNS(=O)(=O)c1ccc2c(c1)CCCC(=O)N2

>  <score_type>  (17) 
oracle

>  <origin>  (17) 
adg

>  <m_score__min__energy>  (17) 
-9.5899999999999999

>  <m_primary>  (17) 
energy

$$$$
17:0
     RDKit          3D

 36 37  0  0  0  0  0  0  0  0999 V2000
   -5.8560   24.8710  -30.4120 C   0  0  0  0  0  0  0  0  0  0  0  0
   -5.3440   24.2680  -31.5940 O   0  0  0  0  0  0  0  0  0  0  0  0
   -5.5280   22.9130  -31.8890 C   0  0  0  0  0  0  0  0  0  0  0  0
   -4.5370   22.1380  -31.9850 O   0  0  0  0  0  0  0  0  0  0  0  0
   -6.9190   22.3710  -32.0760 C   0  0  2  0  0  0  0  0  0  0  0  0
   -7.5720   22.0700  -30.7220 C   0  0  0  0  0  0  0  0  0  0  0  0
   -9.0030   21.5290  -30.8870 C   0  0  0  0  0  0  0  0  0  0  0  0
   -9.2910   20.9920  -32.3040 C   0  0  0  0  0  0  0  0  0  0  0  0
   -8.1370   20.2790  -32.8920 N   0  0  2  0  0  0  0  0  0  0  0  0
   -7.9210   19.0160  -32.2070 C   0  0  0  0  0  0  0  0  0  0  0  0
   -8.7140   18.6310  -31.3040 O   0  0  0  0  0  0  0  0  0  0  0  0
   -6.8100   18.1290  -32.6040 C   0  0  0  0  0  0  0  0  0  0  0  0
   -6.2330   17.1520  -31.8140 C   0  0  0  0  0  0  0  0  0  0  0  0
   -5.2470   16.5750  -32.5880 C   0  0  0  0  0  0  0  0  0  0  0  0
   -5.2910   17.2370  -33.7990 C   0  0  0  0  0  0  0  0  0  0  0  0
   -4.3980   16.9750  -34.9650 C   0  0  0  0  0  0  0  0  0  0  0  0
   -6.2270   18.1570  -33.7810 O   0  0  0  0  0  0  0  0  0  0  0  0
   -6.8970   21.1090  -32.9740 C   0  0  0  0  0  0  0  0  0  0  0  0
   -5.4301   24.3695  -29.5305 H   0  0  0  0  0  0  0  0  0  0  0  0
   -5.5823   25.9363  -30.3957 H   0  0  0  0  0  0  0  0  0  0  0  0
   -6.9516   24.7736  -30.3957 H   0  0  0  0  0  0  0  0  0  0  0  0
   -7.5239   23.1387  -32.5806 H   0  0  0  0  0  0  0  0  0  0  0  0
   -6.9661   21.3195  -30.1932 H   0  0  0  0  0  0  0  0  0  0  0  0
   -7.6244   23.0086  -30.1508 H   0  0  0  0  0  0  0  0  0  0  0  0
   -9.1528   20.7115  -30.1664 H   0  0  0  0  0  0  0  0  0  0  0  0
   -9.6917   22.3682  -30.7097 H   0  0  0  0  0  0  0  0  0  0  0  0
  -10.1428   20.2980  -32.2505 H   0  0  0  0  0  0  0  0  0  0  0  0
   -9.5091   21.8568  -32.9479 H   0  0  0  0  0  0  0  0  0  0  0  0
   -8.4040   20.0520  -33.8790 H   0  0  0  0  0  0  0  0  0  0  0  0
   -6.5041   16.8888  -30.7809 H   0  0  0  0  0  0  0  0  0  0  0  0
   -4.5681   15.7586  -32.3005 H   0  0  0  0  0  0  0  0  0  0  0  0
   -3.4007   16.6824  -34.6046 H   0  0  0  0  0  0  0  0  0  0  0  0
   -4.8203   16.1629  -35.5751 H   0  0  0  0  0  0  0  0  0  0  0  0
   -4.3146   17.8865  -35.5751 H   0  0  0  0  0  0  0  0  0  0  0  0
   -6.0432   20.4849  -32.6716 H   0  0  0  0  0  0  0  0  0  0  0  0
   -6.8196   21.4610  -34.0133 H   0  0  0  0  0  0  0  0  0  0  0  0
  1  2  1  0
  2  3  1  0
  3  4  2  0
  3  5  1  0
  5  6  1  0
  6  7  1  0
  7  8  1  0
  8  9  1  0
  9 10  1  0
 10 11  2  0
 10 12  1  0
 12 13  2  0
 13 14  1  0
 14 15  2  0
 15 16  1  0
 15 17  1  0
  9 18  1  0
 18  5  1  0
 17 12  1  0
  1 19  1  0
  1 20  1  0
  1 21  1  0
  5 22  1  6
  6 23  1  0
  6 24  1  0
  7 25  1  0
  7 26  1  0
  8 27  1  0
  8 28  1  0
  9 29  1  6
 13 30  1  0
 14 31  1  0
 16 32  1  0
 16 33  1  0
 16 34  1  0
 18 35  1  0
 18 36  1  0
M  CHG  1   9   1
M  END
>  <UniqueID>  (18) 
15

>  <SMILES>  (18) 
COC(=O)[C@@H]1CCC[N@H+](C(=O)c2ccc(C)o2)C1

>  <Energy>  (18) 
66.87981755415971

>  <Genealogy>  (18) 
COC(=O)C1CCC[NH+](C(=O)c2ccc(C)o2)C1 (protonated)
COC(=O)[C@@H]1CCC[N@H+](C(=O)c2ccc(C)o2)C1 (chirality)
COC(=O)[C@@H]1CCC[N@H+](C(=O)c2ccc(C)o2)C1 (3D coordinates assigned)
COC(=O)[C@@H]1CCC[N@H+](C(=O)c2ccc(C)o2)C1 (nonaromatic ring conformer: 66.87981755415971 kcal/mol)

>  <smiles>  (18) 
COC(=O)C1CCCN(C(=O)c2ccc(C)o2)C1

>  <score_type>  (18) 
oracle

>  <origin>  (18) 
adg

>  <m_score__min__energy>  (18) 
-6.6299999999999999

>  <m_primary>  (18) 
energy

$$$$
18:0
     RDKit          3D

 35 37  0  0  0  0  0  0  0  0999 V2000
   -9.7990   21.1200  -31.9490 C   0  0  0  0  0  0  0  0  0  0  0  0
   -8.3260   20.8750  -32.1710 C   0  0  0  0  0  0  0  0  0  0  0  0
   -7.5540   21.6440  -31.5610 O   0  0  0  0  0  0  0  0  0  0  0  0
   -7.9000   19.8360  -33.0220 N   0  0  0  0  0  0  0  0  0  0  0  0
   -6.5600   19.4980  -33.3190 C   0  0  0  0  0  0  0  0  0  0  0  0
   -6.3340   18.2660  -33.8950 C   0  0  0  0  0  0  0  0  0  0  0  0
   -5.0790   17.8510  -34.2170 C   0  0  0  0  0  0  0  0  0  0  0  0
   -4.0080   18.6720  -33.9670 C   0  0  0  0  0  0  0  0  0  0  0  0
   -4.1600   19.9140  -33.3950 C   0  0  0  0  0  0  0  0  0  0  0  0
   -3.1570   20.7900  -33.1120 O   0  0  0  0  0  0  0  0  0  0  0  0
   -3.0280   21.6540  -32.0610 C   0  0  0  0  0  0  0  0  0  0  0  0
   -1.9020   21.4790  -31.2430 C   0  0  0  0  0  0  0  0  0  0  0  0
   -1.6650   22.2900  -30.1530 C   0  0  0  0  0  0  0  0  0  0  0  0
   -2.5400   23.3160  -29.8260 C   0  0  0  0  0  0  0  0  0  0  0  0
   -2.2400   24.1190  -28.6880 N   0  0  0  0  0  0  0  0  0  0  0  0
   -2.2930   23.6820  -27.5270 O   0  0  0  0  0  0  0  0  0  0  0  0
   -1.8810   25.4320  -28.9540 O   0  0  0  0  0  0  0  0  0  0  0  0
   -3.6450   23.4970  -30.6170 C   0  0  0  0  0  0  0  0  0  0  0  0
   -4.6670   24.4110  -30.5370 C   0  0  0  0  0  0  0  0  0  0  0  0
   -5.4810   24.1260  -31.5720 N   0  0  0  0  0  0  0  0  0  0  0  0
   -5.0090   23.1050  -32.2570 N   0  0  0  0  0  0  0  0  0  0  0  0
   -3.8690   22.6690  -31.7150 C   0  0  0  0  0  0  0  0  0  0  0  0
   -5.4680   20.2890  -33.0850 C   0  0  0  0  0  0  0  0  0  0  0  0
  -10.0063   21.1545  -30.8693 H   0  0  0  0  0  0  0  0  0  0  0  0
  -10.0846   22.0780  -32.4080 H   0  0  0  0  0  0  0  0  0  0  0  0
  -10.3794   20.3060  -32.4080 H   0  0  0  0  0  0  0  0  0  0  0  0
   -8.6860   19.2700  -33.4690 H   0  0  0  0  0  0  0  0  0  0  0  0
   -7.1880   17.6033  -34.0989 H   0  0  0  0  0  0  0  0  0  0  0  0
   -4.9236   16.8631  -34.6751 H   0  0  0  0  0  0  0  0  0  0  0  0
   -2.9978   18.3267  -34.2319 H   0  0  0  0  0  0  0  0  0  0  0  0
   -1.1896   20.6741  -31.4770 H   0  0  0  0  0  0  0  0  0  0  0  0
   -0.7708   22.1213  -29.5349 H   0  0  0  0  0  0  0  0  0  0  0  0
   -4.7939   25.2062  -29.7876 H   0  0  0  0  0  0  0  0  0  0  0  0
   -5.4740   22.7100  -33.0940 H   0  0  0  0  0  0  0  0  0  0  0  0
   -5.6304   21.2758  -32.6268 H   0  0  0  0  0  0  0  0  0  0  0  0
  1  2  1  0
  2  3  2  0
  2  4  1  0
  4  5  1  0
  5  6  2  0
  6  7  1  0
  7  8  2  0
  8  9  1  0
  9 10  1  0
 10 11  1  0
 11 12  2  0
 12 13  1  0
 13 14  2  0
 14 15  1  0
 15 16  2  0
 15 17  1  0
 14 18  1  0
 18 19  1  0
 19 20  2  0
 20 21  1  0
 21 22  1  0
  9 23  2  0
 23  5  1  0
 22 11  1  0
 22 18  2  0
  1 24  1  0
  1 25  1  0
  1 26  1  0
  4 27  1  0
  6 28  1  0
  7 29  1  0
  8 30  1  0
 12 31  1  0
 13 32  1  0
 19 33  1  0
 21 34  1  0
 23 35  1  0
M  CHG  2  15   1  17  -1
M  END
>  <smiles>  (19) 
CC(=O)Nc1cccc(Oc2ccc([N+](=O)[O-])c3cn[nH]c23)c1

>  <score_type>  (19) 
oracle

>  <origin>  (19) 
adg

>  <m_score__min__energy>  (19) 
-7.7599999999999998

>  <m_primary>  (19) 
energy

$$$$
19:0
     RDKit          3D

 52 55  0  0  0  0  0  0  0  0999 V2000
   -1.2000   26.3060  -26.1240 C   0  0  0  0  0  0  0  0  0  0  0  0
   -0.7580   25.7480  -27.7560 S   0  0  0  0  0  0  0  0  0  0  0  0
    0.7350   25.6060  -27.8430 O   0  0  0  0  0  0  0  0  0  0  0  0
   -1.2180   26.7460  -28.7830 O   0  0  0  0  0  0  0  0  0  0  0  0
   -1.4940   24.2120  -28.0620 N   0  0  0  0  0  0  0  0  0  0  0  0
   -1.5620   23.6420  -29.3700 C   0  0  0  0  0  0  0  0  0  0  0  0
   -0.5260   23.5890  -30.0900 O   0  0  0  0  0  0  0  0  0  0  0  0
   -2.8510   23.1080  -29.8750 C   0  0  0  0  0  0  0  0  0  0  0  0
   -3.1920   21.8000  -29.7600 C   0  0  0  0  0  0  0  0  0  0  0  0
   -2.2550   20.7820  -29.2210 C   0  0  0  0  0  0  0  0  0  0  0  0
   -1.2100   20.2810  -30.0170 C   0  0  0  0  0  0  0  0  0  0  0  0
   -0.3430   19.3080  -29.5110 C   0  0  0  0  0  0  0  0  0  0  0  0
   -0.5200   18.8180  -28.2120 C   0  0  0  0  0  0  0  0  0  0  0  0
    0.5690   17.5960  -27.5790 Cl  0  0  0  0  0  0  0  0  0  0  0  0
   -1.5680   19.3000  -27.4210 C   0  0  0  0  0  0  0  0  0  0  0  0
   -2.4360   20.2740  -27.9240 C   0  0  0  0  0  0  0  0  0  0  0  0
   -4.5770   21.3280  -30.1740 C   0  0  0  0  0  0  0  0  0  0  0  0
   -5.1510   22.0830  -31.4220 C   0  0  2  0  0  0  0  0  0  0  0  0
   -6.6590   21.7490  -31.6850 C   0  0  0  0  0  0  0  0  0  0  0  0
   -7.6000   22.8130  -31.7410 C   0  0  0  0  0  0  0  0  0  0  0  0
   -8.9490   22.5940  -31.9910 C   0  0  0  0  0  0  0  0  0  0  0  0
   -9.4320   21.3120  -32.1740 C   0  0  0  0  0  0  0  0  0  0  0  0
   -8.5720   20.2170  -32.0800 C   0  0  0  0  0  0  0  0  0  0  0  0
   -9.1050   18.9270  -32.2350 C   0  0  0  0  0  0  0  0  0  0  0  0
   -8.2890   17.8070  -32.1180 C   0  0  0  0  0  0  0  0  0  0  0  0
   -6.9370   17.9610  -31.8390 C   0  0  0  0  0  0  0  0  0  0  0  0
   -6.3870   19.2350  -31.6850 C   0  0  0  0  0  0  0  0  0  0  0  0
   -7.1800   20.4060  -31.8160 C   0  0  0  0  0  0  0  0  0  0  0  0
   -4.3150   21.6610  -32.6800 C   0  0  0  0  0  0  0  0  0  0  0  0
   -4.2370   22.6850  -33.6070 F   0  0  0  0  0  0  0  0  0  0  0  0
   -3.0270   21.3280  -32.2970 F   0  0  0  0  0  0  0  0  0  0  0  0
   -4.8480   20.5640  -33.3240 F   0  0  0  0  0  0  0  0  0  0  0  0
   -4.9970   23.5210  -31.1230 N   0  0  0  0  0  0  0  0  0  0  0  0
   -3.8080   24.0350  -30.5150 C   0  0  0  0  0  0  0  0  0  0  0  0
   -3.6230   25.2810  -30.4720 O   0  0  0  0  0  0  0  0  0  0  0  0
   -0.7008   25.6758  -25.3733 H   0  0  0  0  0  0  0  0  0  0  0  0
   -0.8821   27.3512  -25.9952 H   0  0  0  0  0  0  0  0  0  0  0  0
   -2.2902   26.2358  -25.9952 H   0  0  0  0  0  0  0  0  0  0  0  0
   -1.0740   20.6561  -31.0421 H   0  0  0  0  0  0  0  0  0  0  0  0
    0.4793   18.9271  -30.1345 H   0  0  0  0  0  0  0  0  0  0  0  0
   -1.7096   18.9122  -26.4014 H   0  0  0  0  0  0  0  0  0  0  0  0
   -3.2640   20.6439  -27.3015 H   0  0  0  0  0  0  0  0  0  0  0  0
   -4.5221   20.2554  -30.4115 H   0  0  0  0  0  0  0  0  0  0  0  0
   -5.2535   21.5363  -29.3320 H   0  0  0  0  0  0  0  0  0  0  0  0
   -7.2487   23.8431  -31.5812 H   0  0  0  0  0  0  0  0  0  0  0  0
   -9.6391   23.4489  -32.0438 H   0  0  0  0  0  0  0  0  0  0  0  0
  -10.4981   21.1543  -32.3945 H   0  0  0  0  0  0  0  0  0  0  0  0
  -10.1763   18.8015  -32.4506 H   0  0  0  0  0  0  0  0  0  0  0  0
   -8.7137   16.8004  -32.2462 H   0  0  0  0  0  0  0  0  0  0  0  0
   -6.2953   17.0732  -31.7387 H   0  0  0  0  0  0  0  0  0  0  0  0
   -5.3154   19.3340  -31.4571 H   0  0  0  0  0  0  0  0  0  0  0  0
   -5.8320   24.1420  -31.0510 H   0  0  0  0  0  0  0  0  0  0  0  0
  1  2  1  0
  2  3  2  0
  2  4  2  0
  2  5  1  0
  5  6  1  0
  6  7  2  0
  6  8  1  0
  8  9  2  0
  9 10  1  0
 10 11  2  0
 11 12  1  0
 12 13  2  0
 13 14  1  0
 13 15  1  0
 15 16  2  0
  9 17  1  0
 17 18  1  0
 18 19  1  0
 19 20  2  0
 20 21  1  0
 21 22  2  0
 22 23  1  0
 23 24  2  0
 24 25  1  0
 25 26  2  0
 26 27  1  0
 27 28  2  0
 18 29  1  6
 29 30  1  0
 29 31  1  0
 29 32  1  0
 18 33  1  0
 33 34  1  0
 34 35  2  0
 34  8  1  0
 16 10  1  0
 28 19  1  0
 28 23  1  0
  1 36  1  0
  1 37  1  0
  1 38  1  0
 11 39  1  0
 12 40  1  0
 15 41  1  0
 16 42  1  0
 17 43  1  0
 17 44  1  0
 20 45  1  0
 21 46  1  0
 22 47  1  0
 24 48  1  0
 25 49  1  0
 26 50  1  0
 27 51  1  0
 33 52  1  0
M  CHG  1   5  -1
M  END
>  <UniqueID>  (20) 
16

>  <SMILES>  (20) 
CS(=O)(=O)[N-]C(=O)C1=C(c2ccc(Cl)cc2)C[C@](c2cccc3ccccc23)(C(F)(F)F)NC1=O

>  <Energy>  (20) 
87.94160820111475

>  <Genealogy>  (20) 
CS(=O)(=O)[N-]C(=O)C1=C(c2ccc(Cl)cc2)CC(c2cccc3ccccc23)(C(F)(F)F)NC1=O (protonated)
CS(=O)(=O)[N-]C(=O)C1=C(c2ccc(Cl)cc2)C[C@](c2cccc3ccccc23)(C(F)(F)F)NC1=O (chirality)
CS(=O)(=O)[N-]C(=O)C1=C(c2ccc(Cl)cc2)C[C@](c2cccc3ccccc23)(C(F)(F)F)NC1=O (3D coordinates assigned)
CS(=O)(=O)[N-]C(=O)C1=C(c2ccc(Cl)cc2)C[C@](c2cccc3ccccc23)(C(F)(F)F)NC1=O (nonaromatic ring conformer: 87.94160820111475 kcal/mol)

>  <smiles>  (20) 
CS(=O)(=O)NC(=O)C1=C(c2ccc(Cl)cc2)CC(c2cccc3ccccc23)(C(F)(F)F)NC1=O

>  <score_type>  (20) 
oracle

>  <origin>  (20) 
adg

>  <m_score__min__energy>  (20) 
-12.6

>  <m_primary>  (20) 
energy

$$$$
20:0
     RDKit          3D

 37 40  0  0  0  0  0  0  0  0999 V2000
   -9.9252   17.8606  -31.9305 H   0  0  0  0  0  0  0  0  0  0  0  0
   -9.0520   18.5230  -32.0240 C   0  0  0  0  0  0  0  0  0  0  0  0
   -7.7620   17.9890  -31.9850 C   0  0  0  0  0  0  0  0  0  0  0  0
   -7.6194   16.9063  -31.8533 H   0  0  0  0  0  0  0  0  0  0  0  0
   -6.6530   18.8280  -32.1130 C   0  0  0  0  0  0  0  0  0  0  0  0
   -5.6391   18.4041  -32.0648 H   0  0  0  0  0  0  0  0  0  0  0  0
   -6.8230   20.2100  -32.3030 C   0  0  0  0  0  0  0  0  0  0  0  0
   -5.6690   21.0550  -32.4500 N   0  0  0  0  0  0  0  0  0  0  0  0
   -4.7820   20.9380  -33.4270 N   0  0  0  0  0  0  0  0  0  0  0  0
   -3.8920   21.9150  -33.3280 N   0  0  0  0  0  0  0  0  0  0  0  0
   -4.2010   22.6810  -32.2940 N   0  0  0  0  0  0  0  0  0  0  0  0
   -3.6870   23.5390  -32.0000 H   0  0  0  0  0  0  0  0  0  0  0  0
   -5.3080   22.1530  -31.7500 C   0  0  0  0  0  0  0  0  0  0  0  0
   -6.2050   22.9080  -30.3830 S   0  0  0  0  0  0  0  0  0  0  0  0
   -6.3750   24.5470  -31.1670 C   0  0  0  0  0  0  0  0  0  0  0  0
   -7.3771   24.9458  -30.9511 H   0  0  0  0  0  0  0  0  0  0  0  0
   -6.2289   24.4315  -32.2511 H   0  0  0  0  0  0  0  0  0  0  0  0
   -5.3400   25.5100  -30.6460 C   0  0  0  0  0  0  0  0  0  0  0  0
   -5.7320   26.5630  -30.0800 O   0  0  0  0  0  0  0  0  0  0  0  0
   -3.9370   25.2010  -30.6240 N   0  0  0  0  0  0  0  0  0  0  0  0
   -3.3480   24.2760  -29.9260 C   0  0  0  0  0  0  0  0  0  0  0  0
   -2.4250   23.4170  -30.4220 N   0  0  0  0  0  0  0  0  0  0  0  0
   -1.9800   22.5780  -29.4530 C   0  0  0  0  0  0  0  0  0  0  0  0
   -1.0450   21.5630  -29.6570 C   0  0  0  0  0  0  0  0  0  0  0  0
   -0.5973   21.4042  -30.6492 H   0  0  0  0  0  0  0  0  0  0  0  0
   -0.6860   20.7470  -28.5700 C   0  0  0  0  0  0  0  0  0  0  0  0
    0.0467   19.9389  -28.7117 H   0  0  0  0  0  0  0  0  0  0  0  0
   -1.2590   20.9580  -27.3000 C   0  0  0  0  0  0  0  0  0  0  0  0
   -0.9695   20.3150  -26.4557 H   0  0  0  0  0  0  0  0  0  0  0  0
   -2.1980   21.9850  -27.1060 C   0  0  0  0  0  0  0  0  0  0  0  0
   -2.6511   22.1589  -26.1189 H   0  0  0  0  0  0  0  0  0  0  0  0
   -2.5380   22.7760  -28.2000 C   0  0  0  0  0  0  0  0  0  0  0  0
   -3.6300   24.0500  -28.2740 S   0  0  0  0  0  0  0  0  0  0  0  0
   -8.1230   20.7420  -32.3150 C   0  0  0  0  0  0  0  0  0  0  0  0
   -8.2696   21.8262  -32.4296 H   0  0  0  0  0  0  0  0  0  0  0  0
   -9.2320   19.9000  -32.1820 C   0  0  0  0  0  0  0  0  0  0  0  0
  -10.2475   20.3223  -32.2018 H   0  0  0  0  0  0  0  0  0  0  0  0
  1  2  1  0
  2  3  2  0
  3  4  1  0
  3  5  1  0
  5  6  1  0
  5  7  2  0
  7  8  1  0
  8  9  1  0
  9 10  2  0
 10 11  1  0
 11 12  1  0
 11 13  2  0
 13 14  1  0
 14 15  1  0
 15 16  1  0
 15 17  1  0
 15 18  1  0
 18 19  2  0
 18 20  1  0
 20 21  2  0
 21 22  1  0
 22 23  1  0
 23 24  2  0
 24 25  1  0
 24 26  1  0
 26 27  1  0
 26 28  2  0
 28 29  1  0
 28 30  1  0
 30 31  1  0
 30 32  2  0
 32 33  1  0
  7 34  1  0
 34 35  1  0
 34 36  2  0
 36 37  1  0
 36  2  1  0
 13  8  1  0
 33 21  1  0
 32 23  1  0
M  CHG  2  11   1  22  -1
M  END
>  <UniqueID>  (21) 
17

>  <SMILES>  (21) 
O=C(CSc1[nH+]nnn1-c1ccccc1)/N=c1\[n-]c2ccccc2s1

>  <Energy>  (21) 
119.81785595544932

>  <Genealogy>  (21) 
O=C(CSc1[nH+]nnn1-c1ccccc1)N=c1[n-]c2ccccc2s1 (protonated)
O=C(CSc1[nH+]nnn1-c1ccccc1)/N=c1\[n-]c2ccccc2s1 (cis-trans isomerization)
O=C(CSc1[nH+]nnn1-c1ccccc1)/N=c1\[n-]c2ccccc2s1 (3D coordinates assigned)
O=C(CSc1[nH+]nnn1-c1ccccc1)/N=c1\[n-]c2ccccc2s1 (optimized conformer: 119.81785595544932 kcal/mol)

>  <smiles>  (21) 
O=C(CSc1nnnn1-c1ccccc1)N=c1[nH]c2ccccc2s1

>  <score_type>  (21) 
oracle

>  <origin>  (21) 
adg

>  <m_score__min__energy>  (21) 
-10.41

>  <m_primary>  (21) 
energy

$$$$
21:0
     RDKit          3D

 33 34  0  0  0  0  0  0  0  0999 V2000
   -0.8650   21.4080  -28.0590 C   0  0  0  0  0  0  0  0  0  0  0  0
   -1.9140   21.9870  -28.9720 C   0  0  0  0  0  0  0  0  0  0  0  0
   -2.7690   21.1130  -29.6630 C   0  0  0  0  0  0  0  0  0  0  0  0
   -3.7490   21.6060  -30.5240 C   0  0  0  0  0  0  0  0  0  0  0  0
   -3.8910   22.9880  -30.7180 C   0  0  0  0  0  0  0  0  0  0  0  0
   -4.8820   23.5380  -31.5950 N   0  0  0  0  0  0  0  0  0  0  0  0
   -6.5060   22.9530  -31.7610 S   0  0  0  0  0  0  0  0  0  0  0  0
   -7.2040   23.0600  -30.4340 O   0  0  0  0  0  0  0  0  0  0  0  0
   -7.2330   23.7990  -32.7670 O   0  0  0  0  0  0  0  0  0  0  0  0
   -6.4930   21.2840  -32.3230 C   0  0  0  0  0  0  0  0  0  0  0  0
   -5.4320   20.8080  -33.1070 C   0  0  0  0  0  0  0  0  0  0  0  0
   -5.4320   19.4850  -33.5590 C   0  0  0  0  0  0  0  0  0  0  0  0
   -6.4880   18.6300  -33.2270 C   0  0  0  0  0  0  0  0  0  0  0  0
   -6.4870   16.8230  -33.8460 Br  0  0  0  0  0  0  0  0  0  0  0  0
   -7.5450   19.1010  -32.4400 C   0  0  0  0  0  0  0  0  0  0  0  0
   -7.5470   20.4220  -31.9870 C   0  0  0  0  0  0  0  0  0  0  0  0
   -3.0370   23.8640  -30.0400 C   0  0  0  0  0  0  0  0  0  0  0  0
   -2.0380   23.3830  -29.1770 C   0  0  0  0  0  0  0  0  0  0  0  0
   -0.9810   24.5450  -28.3570 S   0  0  0  0  0  0  0  0  0  0  0  0
   -1.2390   26.1440  -28.9660 N   0  0  0  0  0  0  0  0  0  0  0  0
   -1.2760   24.5350  -26.8840 O   0  0  0  0  0  0  0  0  0  0  0  0
    0.4590   24.1790  -28.5860 O   0  0  0  0  0  0  0  0  0  0  0  0
   -1.1600   21.5708  -27.0119 H   0  0  0  0  0  0  0  0  0  0  0  0
   -0.7685   20.3289  -28.2492 H   0  0  0  0  0  0  0  0  0  0  0  0
    0.0995   21.9015  -28.2492 H   0  0  0  0  0  0  0  0  0  0  0  0
   -2.6644   20.0269  -29.5235 H   0  0  0  0  0  0  0  0  0  0  0  0
   -4.4139   20.9078  -31.0536 H   0  0  0  0  0  0  0  0  0  0  0  0
   -4.5982   21.4769  -33.3668 H   0  0  0  0  0  0  0  0  0  0  0  0
   -4.6001   19.1158  -34.1768 H   0  0  0  0  0  0  0  0  0  0  0  0
   -8.3758   18.4294  -32.1777 H   0  0  0  0  0  0  0  0  0  0  0  0
   -8.3774   20.7874  -31.3650 H   0  0  0  0  0  0  0  0  0  0  0  0
   -3.1495   24.9486  -30.1850 H   0  0  0  0  0  0  0  0  0  0  0  0
   -1.2050   26.0840  -30.0080 H   0  0  0  0  0  0  0  0  0  0  0  0
  1  2  1  0
  2  3  2  0
  3  4  1  0
  4  5  2  0
  5  6  1  0
  6  7  1  0
  7  8  2  0
  7  9  2  0
  7 10  1  0
 10 11  2  0
 11 12  1  0
 12 13  2  0
 13 14  1  0
 13 15  1  0
 15 16  2  0
  5 17  1  0
 17 18  2  0
 18 19  1  0
 19 20  1  0
 19 21  2  0
 19 22  2  0
 18  2  1  0
 16 10  1  0
  1 23  1  0
  1 24  1  0
  1 25  1  0
  3 26  1  0
  4 27  1  0
 11 28  1  0
 12 29  1  0
 15 30  1  0
 16 31  1  0
 17 32  1  0
 20 33  1  0
M  CHG  2   6  -1  20  -1
M  END
>  <UniqueID>  (22) 
18

>  <SMILES>  (22) 
Cc1ccc([N-]S(=O)(=O)c2ccc(Br)cc2)cc1S([NH-])(=O)=O

>  <Energy>  (22) 
37.69965772254051

>  <Genealogy>  (22) 
Cc1ccc([N-]S(=O)(=O)c2ccc(Br)cc2)cc1S([NH-])(=O)=O (protonated)
Cc1ccc([N-]S(=O)(=O)c2ccc(Br)cc2)cc1S([NH-])(=O)=O (3D coordinates assigned)
Cc1ccc([N-]S(=O)(=O)c2ccc(Br)cc2)cc1S([NH-])(=O)=O (optimized conformer: 37.69965772254051 kcal/mol)

>  <smiles>  (22) 
Cc1ccc(NS(=O)(=O)c2ccc(Br)cc2)cc1S(N)(=O)=O

>  <score_type>  (22) 
oracle

>  <origin>  (22) 
adg

>  <m_score__min__energy>  (22) 
-11.199999999999999

>  <m_primary>  (22) 
energy

$$$$
22:0
     RDKit          3D

 48 51  0  0  0  0  0  0  0  0999 V2000
   -2.3580   20.3180  -27.0720 C   0  0  0  0  0  0  0  0  0  0  0  0
   -2.8870   21.5510  -27.7120 C   0  0  0  0  0  0  0  0  0  0  0  0
   -4.1940   21.9090  -27.6400 N   0  0  0  0  0  0  0  0  0  0  0  0
   -4.3450   23.0780  -28.3260 C   0  0  0  0  0  0  0  0  0  0  0  0
   -3.0800   23.4280  -28.8230 C   0  0  0  0  0  0  0  0  0  0  0  0
   -2.8350   24.6050  -29.5780 N   0  0  0  0  0  0  0  0  0  0  0  0
   -1.8210   25.3120  -29.3270 O   0  0  0  0  0  0  0  0  0  0  0  0
   -3.6350   25.0550  -30.5960 O   0  0  0  0  0  0  0  0  0  0  0  0
   -2.2100   22.4840  -28.4380 N   0  0  0  0  0  0  0  0  0  0  0  0
   -0.8170   22.3730  -28.7280 C   0  0  0  0  0  0  0  0  0  0  0  0
   -0.5020   21.3940  -29.8050 C   0  0  0  0  0  0  0  0  0  0  0  0
   -0.9550   21.8910  -31.4710 S   0  0  0  0  0  0  0  0  0  0  0  0
   -2.6160   21.2880  -31.8320 C   0  0  0  0  0  0  0  0  0  0  0  0
   -2.9910   20.1060  -32.3150 N   0  0  0  0  0  0  0  0  0  0  0  0
   -4.3510   20.0620  -32.4380 C   0  0  0  0  0  0  0  0  0  0  0  0
   -5.1470   18.9470  -32.9260 C   0  0  0  0  0  0  0  0  0  0  0  0
   -5.3110   18.6370  -34.2540 C   0  0  0  0  0  0  0  0  0  0  0  0
   -6.1020   17.5520  -34.5860 C   0  0  0  0  0  0  0  0  0  0  0  0
   -6.7240   16.7820  -33.6210 C   0  0  0  0  0  0  0  0  0  0  0  0
   -6.5630   17.0910  -32.2860 C   0  0  0  0  0  0  0  0  0  0  0  0
   -5.7760   18.1690  -31.9480 C   0  0  0  0  0  0  0  0  0  0  0  0
   -4.8190   21.2810  -32.0050 C   0  0  0  0  0  0  0  0  0  0  0  0
   -6.1750   21.7900  -31.9140 C   0  0  0  0  0  0  0  0  0  0  0  0
   -7.3070   21.0250  -32.0550 C   0  0  0  0  0  0  0  0  0  0  0  0
   -8.5850   21.5480  -31.9580 C   0  0  0  0  0  0  0  0  0  0  0  0
   -8.7660   22.8890  -31.7100 C   0  0  0  0  0  0  0  0  0  0  0  0
   -7.6470   23.6850  -31.5640 C   0  0  0  0  0  0  0  0  0  0  0  0
   -6.3800   23.1500  -31.6630 C   0  0  0  0  0  0  0  0  0  0  0  0
   -3.7360   22.0120  -31.6420 N   0  0  0  0  0  0  0  0  0  0  0  0
   -2.4036   20.4242  -25.9781 H   0  0  0  0  0  0  0  0  0  0  0  0
   -2.9649   19.4546  -27.3822 H   0  0  0  0  0  0  0  0  0  0  0  0
   -1.3141   20.1628  -27.3822 H   0  0  0  0  0  0  0  0  0  0  0  0
   -5.2806   23.6399  -28.4636 H   0  0  0  0  0  0  0  0  0  0  0  0
   -0.4480   23.3614  -29.0394 H   0  0  0  0  0  0  0  0  0  0  0  0
   -0.3278   22.0094  -27.8123 H   0  0  0  0  0  0  0  0  0  0  0  0
    0.5830   21.2134  -29.7900 H   0  0  0  0  0  0  0  0  0  0  0  0
   -1.1073   20.5024  -29.5844 H   0  0  0  0  0  0  0  0  0  0  0  0
   -4.8242   19.2382  -35.0360 H   0  0  0  0  0  0  0  0  0  0  0  0
   -6.2399   17.2949  -35.6466 H   0  0  0  0  0  0  0  0  0  0  0  0
   -7.3462   15.9245  -33.9169 H   0  0  0  0  0  0  0  0  0  0  0  0
   -7.0535   16.4883  -31.5074 H   0  0  0  0  0  0  0  0  0  0  0  0
   -5.6389   18.4239  -30.8868 H   0  0  0  0  0  0  0  0  0  0  0  0
   -7.1930   19.9491  -32.2538 H   0  0  0  0  0  0  0  0  0  0  0  0
   -9.4579   20.8898  -32.0795 H   0  0  0  0  0  0  0  0  0  0  0  0
   -9.7764   23.3164  -31.6300 H   0  0  0  0  0  0  0  0  0  0  0  0
   -7.7680   24.7603  -31.3661 H   0  0  0  0  0  0  0  0  0  0  0  0
   -5.5084   23.8100  -31.5414 H   0  0  0  0  0  0  0  0  0  0  0  0
   -3.7430   22.9990  -31.2610 H   0  0  0  0  0  0  0  0  0  0  0  0
  1  2  1  0
  2  3  2  0
  3  4  1  0
  4  5  2  0
  5  6  1  0
  6  7  2  0
  6  8  1  0
  5  9  1  0
  9 10  1  0
 10 11  1  0
 11 12  1  0
 12 13  1  0
 13 14  2  0
 14 15  1  0
 15 16  1  0
 16 17  2  0
 17 18  1  0
 18 19  2  0
 19 20  1  0
 20 21  2  0
 15 22  2  0
 22 23  1  0
 23 24  2  0
 24 25  1  0
 25 26  2  0
 26 27  1  0
 27 28  2  0
 22 29  1  0
  9  2  1  0
 29 13  1  0
 21 16  1  0
 28 23  1  0
  1 30  1  0
  1 31  1  0
  1 32  1  0
  4 33  1  0
 10 34  1  0
 10 35  1  0
 11 36  1  0
 11 37  1  0
 17 38  1  0
 18 39  1  0
 19 40  1  0
 20 41  1  0
 21 42  1  0
 24 43  1  0
 25 44  1  0
 26 45  1  0
 27 46  1  0
 28 47  1  0
 29 48  1  0
M  CHG  2   6   1   8  -1
M  END
>  <smiles>  (23) 
Cc1ncc([N+](=O)[O-])n1CCSc1nc(-c2ccccc2)c(-c2ccccc2)[nH]1

>  <score_type>  (23) 
oracle

>  <origin>  (23) 
adg

>  <m_score__min__energy>  (23) 
-10.06

>  <m_primary>  (23) 
energy

$$$$
23:0
     RDKit          3D

 27 28  0  0  1  0  0  0  0  0999 V2000
   -9.0950   18.1790  -31.6140 C   0  0  0  0  0  0  0  0  0  0  0  0
   -8.4670   19.5130  -31.9070 C   0  0  0  0  0  0  0  0  0  0  0  0
   -8.8740   20.7480  -31.4340 C   0  0  0  0  0  0  0  0  0  0  0  0
   -7.9920   21.6600  -31.9750 C   0  0  0  0  0  0  0  0  0  0  0  0
   -7.9450   23.0750  -31.8190 N   0  0  0  0  0  0  0  0  0  0  0  0
   -6.9670   23.8010  -32.1400 N   0  0  0  0  0  0  0  0  0  0  0  0
   -5.7820   23.8850  -31.3930 N   0  0  0  0  0  0  0  0  0  0  0  0
   -4.6110   23.2480  -31.5880 C   0  0  0  0  0  0  0  0  0  0  0  0
   -4.3210   22.2840  -32.6840 C   0  0  0  0  0  0  0  0  0  0  0  0
   -3.7720   23.6630  -30.5970 N   0  0  0  0  0  0  0  0  0  0  0  0
   -4.4040   24.5320  -29.8090 N   0  0  0  0  0  0  0  0  0  0  0  0
   -5.6690   24.6820  -30.2970 C   0  0  0  0  0  0  0  0  0  0  0  0
   -6.8420   25.6570  -29.6630 S   0  0  0  0  0  0  0  0  0  0  0  0
   -7.1120   21.0150  -32.7220 O   0  0  0  0  0  0  0  0  0  0  0  0
   -7.3520   19.7230  -32.7160 C   0  0  0  0  0  0  0  0  0  0  0  0
   -6.6010   18.6460  -33.4270 C   0  0  0  0  0  0  0  0  0  0  0  0
   -9.1621   18.0365  -30.5253 H   0  0  0  0  0  0  0  0  0  0  0  0
  -10.1038   18.1447  -32.0511 H   0  0  0  0  0  0  0  0  0  0  0  0
   -8.4786   17.3796  -32.0511 H   0  0  0  0  0  0  0  0  0  0  0  0
   -9.7228   20.9583  -30.7666 H   0  0  0  0  0  0  0  0  0  0  0  0
   -4.0295   21.3151  -32.2525 H   0  0  0  0  0  0  0  0  0  0  0  0
   -5.2196   22.1535  -33.3048 H   0  0  0  0  0  0  0  0  0  0  0  0
   -3.4995   22.6709  -33.3048 H   0  0  0  0  0  0  0  0  0  0  0  0
   -3.9940   25.0160  -28.9590 H   0  0  0  0  0  0  0  0  0  0  0  0
   -6.1341   17.9764  -32.6896 H   0  0  0  0  0  0  0  0  0  0  0  0
   -7.2945   18.0703  -34.0576 H   0  0  0  0  0  0  0  0  0  0  0  0
   -5.8211   19.0978  -34.0576 H   0  0  0  0  0  0  0  0  0  0  0  0
  1  2  1  0
  2  3  1  0
  3  4  2  0
  4  5  1  0
  5  6  2  0
  6  7  1  0
  7  8  1  0
  8  9  1  0
  8 10  2  0
 10 11  1  0
 11 12  1  0
 12 13  2  0
  4 14  1  0
 14 15  1  0
 15 16  1  0
 15  2  2  0
 12  7  1  0
  1 17  1  0
  1 18  1  0
  1 19  1  0
  3 20  1  0
  9 21  1  0
  9 22  1  0
  9 23  1  0
 11 24  1  0
 16 25  1  0
 16 26  1  0
 16 27  1  0
M  END
>  <smiles>  (24) 
Cc1cc(N=Nn2c(C)n[nH]c2=S)oc1C

>  <score_type>  (24) 
oracle

>  <origin>  (24) 
adg

>  <m_score__min__energy>  (24) 
-7.21

>  <m_primary>  (24) 
energy

$$$$
24:0
     RDKit          3D

 48 50  0  0  0  0  0  0  0  0999 V2000
   -6.3560   17.8600  -33.6600 C   0  0  0  0  0  0  0  0  0  0  0  0
   -6.0830   19.3470  -33.8650 C   0  0  0  0  0  0  0  0  0  0  0  0
   -6.8610   20.1730  -32.8760 C   0  0  0  0  0  0  0  0  0  0  0  0
   -8.2210   19.9130  -32.6510 C   0  0  0  0  0  0  0  0  0  0  0  0
   -8.9510   20.7030  -31.7600 C   0  0  0  0  0  0  0  0  0  0  0  0
   -8.3330   21.7630  -31.0930 C   0  0  0  0  0  0  0  0  0  0  0  0
   -6.9730   22.0430  -31.3120 C   0  0  0  0  0  0  0  0  0  0  0  0
   -6.3330   23.1460  -30.6380 N   0  0  0  0  0  0  0  0  0  0  0  0
   -7.0490   24.4200  -30.4670 C   0  0  0  0  0  0  0  0  0  0  0  0
   -6.1190   25.6560  -30.4970 C   0  0  0  0  0  0  0  0  0  0  0  0
   -4.6170   25.3250  -30.4550 C   0  0  0  0  0  0  0  0  0  0  0  0
   -4.2860   24.1530  -29.5080 C   0  0  1  0  0  0  0  0  0  0  0  0
   -4.5910   24.4390  -28.0870 N   0  0  0  0  0  0  0  0  0  0  0  0
   -3.5590   23.9230  -27.1720 C   0  0  0  0  0  0  0  0  0  0  0  0
   -2.5280   24.9860  -26.8900 C   0  0  0  0  0  0  0  0  0  0  0  0
   -2.5020   25.6340  -25.6440 C   0  0  0  0  0  0  0  0  0  0  0  0
   -1.5230   26.5930  -25.3690 C   0  0  0  0  0  0  0  0  0  0  0  0
   -0.5570   26.9040  -26.3310 C   0  0  0  0  0  0  0  0  0  0  0  0
   -0.5670   26.2530  -27.5680 C   0  0  0  0  0  0  0  0  0  0  0  0
   -1.5450   25.2920  -27.8460 C   0  0  0  0  0  0  0  0  0  0  0  0
   -5.0680   22.9580  -29.9740 C   0  0  0  0  0  0  0  0  0  0  0  0
   -4.6230   21.7990  -29.7550 O   0  0  0  0  0  0  0  0  0  0  0  0
   -6.2460   21.2470  -32.2130 C   0  0  0  0  0  0  0  0  0  0  0  0
   -6.3964   17.6397  -32.5830 H   0  0  0  0  0  0  0  0  0  0  0  0
   -7.3176   17.5963  -34.1246 H   0  0  0  0  0  0  0  0  0  0  0  0
   -5.5508   17.2719  -34.1246 H   0  0  0  0  0  0  0  0  0  0  0  0
   -5.0084   19.5388  -33.7291 H   0  0  0  0  0  0  0  0  0  0  0  0
   -6.3954   19.6266  -34.8820 H   0  0  0  0  0  0  0  0  0  0  0  0
   -8.7146   19.0835  -33.1785 H   0  0  0  0  0  0  0  0  0  0  0  0
  -10.0155   20.4897  -31.5832 H   0  0  0  0  0  0  0  0  0  0  0  0
   -8.9133   22.3818  -30.3928 H   0  0  0  0  0  0  0  0  0  0  0  0
   -7.7853   24.5178  -31.2783 H   0  0  0  0  0  0  0  0  0  0  0  0
   -7.5242   24.3950  -29.4752 H   0  0  0  0  0  0  0  0  0  0  0  0
   -6.3217   26.2162  -31.4217 H   0  0  0  0  0  0  0  0  0  0  0  0
   -6.3376   26.2344  -29.5872 H   0  0  0  0  0  0  0  0  0  0  0  0
   -4.2878   25.0593  -31.4704 H   0  0  0  0  0  0  0  0  0  0  0  0
   -4.0938   26.2145  -30.0742 H   0  0  0  0  0  0  0  0  0  0  0  0
   -3.2018   23.9718  -29.5486 H   0  0  0  0  0  0  0  0  0  0  0  0
   -4.7110   25.4660  -27.9330 H   0  0  0  0  0  0  0  0  0  0  0  0
   -5.5000   23.9720  -27.8480 H   0  0  0  0  0  0  0  0  0  0  0  0
   -4.0323   23.6173  -26.2272 H   0  0  0  0  0  0  0  0  0  0  0  0
   -3.0634   23.0611  -27.6426 H   0  0  0  0  0  0  0  0  0  0  0  0
   -3.2551   25.3858  -24.8816 H   0  0  0  0  0  0  0  0  0  0  0  0
   -1.5125   27.1036  -24.3948 H   0  0  0  0  0  0  0  0  0  0  0  0
    0.2110   27.6611  -26.1143 H   0  0  0  0  0  0  0  0  0  0  0  0
    0.1947   26.4965  -28.3234 H   0  0  0  0  0  0  0  0  0  0  0  0
   -1.5443   24.7742  -28.8165 H   0  0  0  0  0  0  0  0  0  0  0  0
   -5.1848   21.4673  -32.4008 H   0  0  0  0  0  0  0  0  0  0  0  0
  1  2  1  0
  2  3  1  0
  3  4  2  0
  4  5  1  0
  5  6  2  0
  6  7  1  0
  7  8  1  0
  8  9  1  0
  9 10  1  0
 10 11  1  0
 11 12  1  0
 12 13  1  0
 13 14  1  0
 14 15  1  0
 15 16  2  0
 16 17  1  0
 17 18  2  0
 18 19  1  0
 19 20  2  0
 12 21  1  0
 21 22  2  0
  7 23  2  0
 23  3  1  0
 21  8  1  0
 20 15  1  0
  1 24  1  0
  1 25  1  0
  1 26  1  0
  2 27  1  0
  2 28  1  0
  4 29  1  0
  5 30  1  0
  6 31  1  0
  9 32  1  0
  9 33  1  0
 10 34  1  0
 10 35  1  0
 11 36  1  0
 11 37  1  0
 12 38  1  1
 13 39  1  0
 13 40  1  0
 14 41  1  0
 14 42  1  0
 16 43  1  0
 17 44  1  0
 18 45  1  0
 19 46  1  0
 20 47  1  0
 23 48  1  0
M  CHG  1  13   1
M  END
>  <UniqueID>  (25) 
19

>  <SMILES>  (25) 
CCc1cccc(N2CCC[C@@H]([NH2+]Cc3ccccc3)C2=O)c1

>  <Energy>  (25) 
54.79497313701061

>  <Genealogy>  (25) 
CCc1cccc(N2CCCC([NH2+]Cc3ccccc3)C2=O)c1 (protonated)
CCc1cccc(N2CCC[C@@H]([NH2+]Cc3ccccc3)C2=O)c1 (chirality)
CCc1cccc(N2CCC[C@@H]([NH2+]Cc3ccccc3)C2=O)c1 (3D coordinates assigned)
CCc1cccc(N2CCC[C@@H]([NH2+]Cc3ccccc3)C2=O)c1 (nonaromatic ring conformer: 54.79497313701061 kcal/mol)

>  <smiles>  (25) 
CCc1cccc(N2CCCC(NCc3ccccc3)C2=O)c1

>  <score_type>  (25) 
oracle

>  <origin>  (25) 
adg

>  <m_score__min__energy>  (25) 
-8.0299999999999994

>  <m_primary>  (25) 
energy

$$$$
25:0
     RDKit          3D

 29 31  0  0  0  0  0  0  0  0999 V2000
   -2.9250   24.8700  -29.2550 F   0  0  0  0  0  0  0  0  0  0  0  0
   -3.9460   24.5070  -30.0710 C   0  0  0  0  0  0  0  0  0  0  0  0
   -3.8460   23.3440  -30.8390 C   0  0  0  0  0  0  0  0  0  0  0  0
   -4.8980   22.9690  -31.6820 C   0  0  0  0  0  0  0  0  0  0  0  0
   -6.0580   23.7580  -31.7630 C   0  0  0  0  0  0  0  0  0  0  0  0
   -7.2060   23.3460  -32.6430 C   0  0  0  0  0  0  0  0  0  0  0  0
   -7.8350   22.1340  -32.1170 N   0  0  0  0  0  0  0  0  0  0  0  0
   -8.7960   22.0890  -31.1620 C   0  0  0  0  0  0  0  0  0  0  0  0
   -9.1100   20.7720  -30.8460 C   0  0  0  0  0  0  0  0  0  0  0  0
   -8.2910   20.0010  -31.6420 C   0  0  0  0  0  0  0  0  0  0  0  0
   -8.1670   18.6160  -31.7350 C   0  0  0  0  0  0  0  0  0  0  0  0
   -7.2230   18.1000  -32.6400 C   0  0  0  0  0  0  0  0  0  0  0  0
   -6.4330   18.9710  -33.4220 C   0  0  0  0  0  0  0  0  0  0  0  0
   -6.5800   20.3650  -33.3060 C   0  0  0  0  0  0  0  0  0  0  0  0
   -7.5260   20.8510  -32.4000 C   0  0  0  0  0  0  0  0  0  0  0  0
   -6.1500   24.9240  -30.9850 C   0  0  0  0  0  0  0  0  0  0  0  0
   -5.0980   25.2960  -30.1430 C   0  0  0  0  0  0  0  0  0  0  0  0
   -2.9399   22.7230  -30.7809 H   0  0  0  0  0  0  0  0  0  0  0  0
   -4.8166   22.0521  -32.2842 H   0  0  0  0  0  0  0  0  0  0  0  0
   -7.9489   24.1567  -32.6748 H   0  0  0  0  0  0  0  0  0  0  0  0
   -6.8278   23.1440  -33.6560 H   0  0  0  0  0  0  0  0  0  0  0  0
   -9.2627   22.9720  -30.7010 H   0  0  0  0  0  0  0  0  0  0  0  0
   -9.8539   20.4203  -30.1160 H   0  0  0  0  0  0  0  0  0  0  0  0
   -8.7879   17.9480  -31.1200 H   0  0  0  0  0  0  0  0  0  0  0  0
   -7.0990   17.0116  -32.7396 H   0  0  0  0  0  0  0  0  0  0  0  0
   -5.6974   18.5563  -34.1269 H   0  0  0  0  0  0  0  0  0  0  0  0
   -5.9688   21.0516  -33.9102 H   0  0  0  0  0  0  0  0  0  0  0  0
   -7.0546   25.5476  -31.0386 H   0  0  0  0  0  0  0  0  0  0  0  0
   -5.1766   26.2103  -29.5365 H   0  0  0  0  0  0  0  0  0  0  0  0
  1  2  1  0
  2  3  2  0
  3  4  1  0
  4  5  2  0
  5  6  1  0
  6  7  1  0
  7  8  1  0
  8  9  2  0
  9 10  1  0
 10 11  2  0
 11 12  1  0
 12 13  2  0
 13 14  1  0
 14 15  2  0
  5 16  1  0
 16 17  2  0
 17  2  1  0
 15  7  1  0
 15 10  1  0
  3 18  1  0
  4 19  1  0
  6 20  1  0
  6 21  1  0
  8 22  1  0
  9 23  1  0
 11 24  1  0
 12 25  1  0
 13 26  1  0
 14 27  1  0
 16 28  1  0
 17 29  1  0
M  END
>  <UniqueID>  (26) 
20

>  <SMILES>  (26) 
Fc1ccc(Cn2ccc3ccccc32)cc1

>  <Energy>  (26) 
63.475071933596205

>  <Genealogy>  (26) 
Fc1ccc(Cn2ccc3ccccc32)cc1 (3D coordinates assigned)
Fc1ccc(Cn2ccc3ccccc32)cc1 (optimized conformer: 63.475071933596205 kcal/mol)

>  <smiles>  (26) 
Fc1ccc(Cn2ccc3ccccc32)cc1

>  <score_type>  (26) 
oracle

>  <origin>  (26) 
adg

>  <m_score__min__energy>  (26) 
-7.1299999999999999

>  <m_primary>  (26) 
energy

$$$$
26:0
     RDKit          3D

 29 30  0  0  0  0  0  0  0  0999 V2000
  -10.3814   20.1122  -32.7898 H   0  0  0  0  0  0  0  0  0  0  0  0
   -9.4340   20.4370  -32.3350 C   0  0  0  0  0  0  0  0  0  0  0  0
   -9.4300   21.5760  -31.6250 C   0  0  0  0  0  0  0  0  0  0  0  0
  -10.3875   21.9418  -31.2257 H   0  0  0  0  0  0  0  0  0  0  0  0
   -8.2070   22.3700  -31.3480 C   0  0  0  0  0  0  0  0  0  0  0  0
   -7.6190   23.2180  -32.3090 C   0  0  0  0  0  0  0  0  0  0  0  0
   -8.0649   23.3011  -33.3111 H   0  0  0  0  0  0  0  0  0  0  0  0
   -6.4720   23.9540  -31.9950 C   0  0  0  0  0  0  0  0  0  0  0  0
   -6.0227   24.6143  -32.7513 H   0  0  0  0  0  0  0  0  0  0  0  0
   -5.8910   23.8560  -30.7230 C   0  0  0  0  0  0  0  0  0  0  0  0
   -4.6860   24.6780  -30.3760 C   0  0  0  0  0  0  0  0  0  0  0  0
   -4.5896   24.7438  -29.2822 H   0  0  0  0  0  0  0  0  0  0  0  0
   -3.7861   24.2047  -30.7956 H   0  0  0  0  0  0  0  0  0  0  0  0
   -4.7983   25.6886  -30.7956 H   0  0  0  0  0  0  0  0  0  0  0  0
   -6.4940   23.0420  -29.7540 C   0  0  0  0  0  0  0  0  0  0  0  0
   -6.0630   22.9830  -28.7437 H   0  0  0  0  0  0  0  0  0  0  0  0
   -7.6400   22.3050  -30.0650 C   0  0  0  0  0  0  0  0  0  0  0  0
   -8.1025   21.6676  -29.2970 H   0  0  0  0  0  0  0  0  0  0  0  0
   -8.2320   19.5910  -32.5410 C   0  0  0  0  0  0  0  0  0  0  0  0
   -7.2530   20.0260  -33.4510 C   0  0  0  0  0  0  0  0  0  0  0  0
   -7.3954   20.9720  -33.9940 H   0  0  0  0  0  0  0  0  0  0  0  0
   -6.1000   19.2670  -33.6720 C   0  0  0  0  0  0  0  0  0  0  0  0
   -5.3457   19.6123  -34.3943 H   0  0  0  0  0  0  0  0  0  0  0  0
   -5.9040   18.0720  -32.9780 C   0  0  0  0  0  0  0  0  0  0  0  0
   -4.9981   17.4741  -33.1563 H   0  0  0  0  0  0  0  0  0  0  0  0
   -6.8590   17.6360  -32.0570 C   0  0  0  0  0  0  0  0  0  0  0  0
   -6.7008   16.6972  -31.5059 H   0  0  0  0  0  0  0  0  0  0  0  0
   -8.0170   18.3900  -31.8330 C   0  0  0  0  0  0  0  0  0  0  0  0
   -8.7625   18.0444  -31.1017 H   0  0  0  0  0  0  0  0  0  0  0  0
  1  2  1  0
  2  3  2  0
  3  4  1  0
  3  5  1  0
  5  6  2  0
  6  7  1  0
  6  8  1  0
  8  9  1  0
  8 10  2  0
 10 11  1  0
 11 12  1  0
 11 13  1  0
 11 14  1  0
 10 15  1  0
 15 16  1  0
 15 17  2  0
 17 18  1  0
  2 19  1  0
 19 20  2  0
 20 21  1  0
 20 22  1  0
 22 23  1  0
 22 24  2  0
 24 25  1  0
 24 26  1  0
 26 27  1  0
 26 28  2  0
 28 29  1  0
 17  5  1  0
 28 19  1  0
M  END
>  <UniqueID>  (27) 
21

>  <SMILES>  (27) 
Cc1ccc(/C=C/c2ccccc2)cc1

>  <Energy>  (27) 
33.81100353763143

>  <Genealogy>  (27) 
Cc1ccc(/C=C/c2ccccc2)cc1 (cis-trans isomerization)
Cc1ccc(/C=C/c2ccccc2)cc1 (3D coordinates assigned)
Cc1ccc(/C=C/c2ccccc2)cc1 (optimized conformer: 33.81100353763143 kcal/mol)

>  <smiles>  (27) 
Cc1ccc(C=Cc2ccccc2)cc1

>  <score_type>  (27) 
oracle

>  <origin>  (27) 
adg

>  <m_score__min__energy>  (27) 
-7.1600000000000001

>  <m_primary>  (27) 
energy

$$$$
27:0
     RDKit          3D

 23 25  0  0  0  0  0  0  0  0999 V2000
   -8.8270   17.9050  -31.9700 O   0  0  0  0  0  0  0  0  0  0  0  0
   -7.9040   18.6480  -32.4110 C   0  0  0  0  0  0  0  0  0  0  0  0
   -6.8380   18.0230  -33.1330 C   0  0  0  0  0  0  0  0  0  0  0  0
   -6.8480   16.6210  -33.3310 C   0  0  0  0  0  0  0  0  0  0  0  0
   -5.8210   15.9840  -34.0330 C   0  0  0  0  0  0  0  0  0  0  0  0
   -4.7620   16.7240  -34.5550 C   0  0  0  0  0  0  0  0  0  0  0  0
   -4.7240   18.1060  -34.3770 C   0  0  0  0  0  0  0  0  0  0  0  0
   -5.7500   18.7480  -33.6750 C   0  0  0  0  0  0  0  0  0  0  0  0
   -5.7050   20.4170  -33.4610 S   0  0  0  0  0  0  0  0  0  0  0  0
   -7.0300   20.9830  -32.5920 C   0  0  0  0  0  0  0  0  0  0  0  0
   -7.1550   22.3490  -32.3190 C   0  0  0  0  0  0  0  0  0  0  0  0
   -8.2520   22.8180  -31.6000 C   0  0  0  0  0  0  0  0  0  0  0  0
   -9.2240   21.9240  -31.1510 C   0  0  0  0  0  0  0  0  0  0  0  0
   -9.1030   20.5580  -31.4220 C   0  0  0  0  0  0  0  0  0  0  0  0
   -8.0000   20.0520  -32.1500 C   0  0  0  0  0  0  0  0  0  0  0  0
   -7.6777   16.0233  -32.9256 H   0  0  0  0  0  0  0  0  0  0  0  0
   -5.8488   14.8934  -34.1741 H   0  0  0  0  0  0  0  0  0  0  0  0
   -3.9565   16.2179  -35.1072 H   0  0  0  0  0  0  0  0  0  0  0  0
   -3.8882   18.6913  -34.7880 H   0  0  0  0  0  0  0  0  0  0  0  0
   -6.3870   23.0530  -32.6721 H   0  0  0  0  0  0  0  0  0  0  0  0
   -8.3517   23.8925  -31.3865 H   0  0  0  0  0  0  0  0  0  0  0  0
  -10.0889   22.2952  -30.5816 H   0  0  0  0  0  0  0  0  0  0  0  0
   -9.8781   19.8648  -31.0634 H   0  0  0  0  0  0  0  0  0  0  0  0
  1  2  2  0
  2  3  1  0
  3  4  2  0
  4  5  1  0
  5  6  2  0
  6  7  1  0
  7  8  2  0
  8  9  1  0
  9 10  1  0
 10 11  2  0
 11 12  1  0
 12 13  2  0
 13 14  1  0
 14 15  2  0
 15  2  1  0
  8  3  1  0
 15 10  1  0
  4 16  1  0
  5 17  1  0
  6 18  1  0
  7 19  1  0
 11 20  1  0
 12 21  1  0
 13 22  1  0
 14 23  1  0
M  END
>  <UniqueID>  (28) 
22

>  <SMILES>  (28) 
O=c1c2ccccc2sc2ccccc12

>  <Energy>  (28) 
38.064170816555276

>  <Genealogy>  (28) 
O=c1c2ccccc2sc2ccccc12 (3D coordinates assigned)
O=c1c2ccccc2sc2ccccc12 (optimized conformer: 38.064170816555276 kcal/mol)

>  <smiles>  (28) 
O=c1c2ccccc2sc2ccccc12

>  <score_type>  (28) 
oracle

>  <origin>  (28) 
adg

>  <m_score__min__energy>  (28) 
-7.1200000000000001

>  <m_primary>  (28) 
energy

$$$$
28:0
     RDKit          3D

 41 43  0  0  0  0  0  0  0  0999 V2000
    1.2910   24.2390  -26.9300 C   0  0  0  0  0  0  0  0  0  0  0  0
    0.9020   24.1530  -28.2960 O   0  0  0  0  0  0  0  0  0  0  0  0
   -0.4280   24.1130  -28.7400 C   0  0  0  0  0  0  0  0  0  0  0  0
   -1.4080   25.0090  -28.2740 C   0  0  0  0  0  0  0  0  0  0  0  0
   -2.7210   24.9290  -28.7470 C   0  0  0  0  0  0  0  0  0  0  0  0
   -3.0800   23.9540  -29.6940 C   0  0  0  0  0  0  0  0  0  0  0  0
   -4.4760   23.8670  -30.1970 C   0  0  0  0  0  0  0  0  0  0  0  0
   -5.4920   24.6520  -29.6250 C   0  0  0  0  0  0  0  0  0  0  0  0
   -6.8030   24.5660  -30.1010 C   0  0  0  0  0  0  0  0  0  0  0  0
   -7.1160   23.6940  -31.1440 C   0  0  0  0  0  0  0  0  0  0  0  0
   -6.1240   22.8940  -31.7200 C   0  0  0  0  0  0  0  0  0  0  0  0
   -6.4830   22.0280  -32.7640 O   0  0  0  0  0  0  0  0  0  0  0  0
   -6.7190   20.6540  -32.6160 C   0  0  0  0  0  0  0  0  0  0  0  0
   -7.9710   20.2460  -32.1420 C   0  0  0  0  0  0  0  0  0  0  0  0
   -8.2720   18.8900  -32.0140 C   0  0  0  0  0  0  0  0  0  0  0  0
   -7.3170   17.9280  -32.3420 C   0  0  0  0  0  0  0  0  0  0  0  0
   -6.0510   18.3170  -32.7890 C   0  0  0  0  0  0  0  0  0  0  0  0
   -5.1230   17.3570  -33.0340 F   0  0  0  0  0  0  0  0  0  0  0  0
   -5.7320   19.6830  -32.9240 C   0  0  0  0  0  0  0  0  0  0  0  0
   -4.3630   20.0840  -33.3200 C   0  0  0  0  0  0  0  0  0  0  0  0
   -4.1010   21.3930  -33.8270 N   0  0  0  0  0  0  0  0  0  0  0  0
   -3.4110   19.2660  -33.2010 O   0  0  0  0  0  0  0  0  0  0  0  0
   -4.7990   22.9950  -31.2530 C   0  0  0  0  0  0  0  0  0  0  0  0
   -2.0970   23.0610  -30.1570 C   0  0  0  0  0  0  0  0  0  0  0  0
   -0.7850   23.1430  -29.6820 C   0  0  0  0  0  0  0  0  0  0  0  0
    0.4191   24.0462  -26.2876 H   0  0  0  0  0  0  0  0  0  0  0  0
    2.0712   23.4917  -26.7232 H   0  0  0  0  0  0  0  0  0  0  0  0
    1.6834   25.2456  -26.7232 H   0  0  0  0  0  0  0  0  0  0  0  0
   -1.1393   25.7766  -27.5334 H   0  0  0  0  0  0  0  0  0  0  0  0
   -3.4790   25.6343  -28.3754 H   0  0  0  0  0  0  0  0  0  0  0  0
   -5.2539   25.3376  -28.7984 H   0  0  0  0  0  0  0  0  0  0  0  0
   -7.5911   25.1881  -29.6517 H   0  0  0  0  0  0  0  0  0  0  0  0
   -8.1496   23.6353  -31.5157 H   0  0  0  0  0  0  0  0  0  0  0  0
   -8.7234   21.0003  -31.8683 H   0  0  0  0  0  0  0  0  0  0  0  0
   -9.2638   18.5790  -31.6539 H   0  0  0  0  0  0  0  0  0  0  0  0
   -7.5609   16.8594  -32.2486 H   0  0  0  0  0  0  0  0  0  0  0  0
   -3.1360   21.6550  -34.1270 H   0  0  0  0  0  0  0  0  0  0  0  0
   -4.8450   22.1260  -33.8390 H   0  0  0  0  0  0  0  0  0  0  0  0
   -4.0094   22.3865  -31.7181 H   0  0  0  0  0  0  0  0  0  0  0  0
   -2.3626   22.2927  -30.8981 H   0  0  0  0  0  0  0  0  0  0  0  0
   -0.0263   22.4380  -30.0526 H   0  0  0  0  0  0  0  0  0  0  0  0
  1  2  1  0
  2  3  1  0
  3  4  2  0
  4  5  1  0
  5  6  2  0
  6  7  1  0
  7  8  2  0
  8  9  1  0
  9 10  2  0
 10 11  1  0
 11 12  1  0
 12 13  1  0
 13 14  2  0
 14 15  1  0
 15 16  2  0
 16 17  1  0
 17 18  1  0
 17 19  2  0
 19 20  1  0
 20 21  1  0
 20 22  2  0
 11 23  2  0
  6 24  1  0
 24 25  2  0
 25  3  1  0
 23  7  1  0
 19 13  1  0
  1 26  1  0
  1 27  1  0
  1 28  1  0
  4 29  1  0
  5 30  1  0
  8 31  1  0
  9 32  1  0
 10 33  1  0
 14 34  1  0
 15 35  1  0
 16 36  1  0
 21 37  1  0
 21 38  1  0
 23 39  1  0
 24 40  1  0
 25 41  1  0
M  END
>  <UniqueID>  (29) 
23

>  <SMILES>  (29) 
COc1ccc(-c2cccc(Oc3cccc(F)c3C(N)=O)c2)cc1

>  <Energy>  (29) 
59.23421238234543

>  <Genealogy>  (29) 
COc1ccc(-c2cccc(Oc3cccc(F)c3C(N)=O)c2)cc1 (3D coordinates assigned)
COc1ccc(-c2cccc(Oc3cccc(F)c3C(N)=O)c2)cc1 (optimized conformer: 59.23421238234543 kcal/mol)

>  <smiles>  (29) 
COc1ccc(-c2cccc(Oc3cccc(F)c3C(N)=O)c2)cc1

>  <score_type>  (29) 
oracle

>  <origin>  (29) 
adg

>  <m_score__min__energy>  (29) 
-8.5600000000000005

>  <m_primary>  (29) 
energy

$$$$
29:0
     RDKit          3D

 32 34  0  0  0  0  0  0  0  0999 V2000
   -0.2240   20.2460  -34.9350 C   0  0  0  0  0  0  0  0  0  0  0  0
   -1.3180   19.6180  -34.3020 O   0  0  0  0  0  0  0  0  0  0  0  0
   -2.0210   20.5490  -33.5040 C   0  0  0  0  0  0  0  0  0  0  0  0
   -3.4900   20.2140  -33.4740 C   0  0  0  0  0  0  0  0  0  0  0  0
   -3.9450   19.0490  -34.0330 N   0  0  0  0  0  0  0  0  0  0  0  0
   -5.2720   18.6980  -33.9950 C   0  0  0  0  0  0  0  0  0  0  0  0
   -5.7410   17.4360  -34.6540 C   0  0  0  0  0  0  0  0  0  0  0  0
   -6.1980   19.5650  -33.3870 C   0  0  0  0  0  0  0  0  0  0  0  0
   -5.7220   20.7060  -32.8350 N   0  0  0  0  0  0  0  0  0  0  0  0
   -6.3650   21.6860  -32.1880 C   0  0  0  0  0  0  0  0  0  0  0  0
   -5.4050   22.6200  -31.8250 C   0  0  0  0  0  0  0  0  0  0  0  0
   -5.6450   23.8690  -31.0900 C   0  0  0  0  0  0  0  0  0  0  0  0
   -6.6660   24.1080  -30.1910 C   0  0  0  0  0  0  0  0  0  0  0  0
   -6.4840   25.4050  -29.7620 C   0  0  0  0  0  0  0  0  0  0  0  0
   -5.3680   25.8750  -30.4230 C   0  0  0  0  0  0  0  0  0  0  0  0
   -4.8890   24.9360  -31.2060 O   0  0  0  0  0  0  0  0  0  0  0  0
   -4.1780   22.2260  -32.2430 N   0  0  0  0  0  0  0  0  0  0  0  0
   -4.4260   21.0480  -32.8560 C   0  0  0  0  0  0  0  0  0  0  0  0
    0.4636   20.6407  -34.1725 H   0  0  0  0  0  0  0  0  0  0  0  0
    0.3057   19.5144  -35.5629 H   0  0  0  0  0  0  0  0  0  0  0  0
   -0.5886   21.0723  -35.5629 H   0  0  0  0  0  0  0  0  0  0  0  0
   -1.6223   20.5215  -32.4792 H   0  0  0  0  0  0  0  0  0  0  0  0
   -1.8935   21.5538  -33.9332 H   0  0  0  0  0  0  0  0  0  0  0  0
   -3.2610   18.4110  -34.4990 H   0  0  0  0  0  0  0  0  0  0  0  0
   -6.0146   16.6999  -33.8837 H   0  0  0  0  0  0  0  0  0  0  0  0
   -6.6182   17.6539  -35.2809 H   0  0  0  0  0  0  0  0  0  0  0  0
   -4.9344   17.0281  -35.2809 H   0  0  0  0  0  0  0  0  0  0  0  0
   -7.2711   19.3244  -33.3610 H   0  0  0  0  0  0  0  0  0  0  0  0
   -7.4445   21.7403  -31.9838 H   0  0  0  0  0  0  0  0  0  0  0  0
   -7.4580   23.4098  -29.8823 H   0  0  0  0  0  0  0  0  0  0  0  0
   -7.1037   25.9547  -29.0383 H   0  0  0  0  0  0  0  0  0  0  0  0
   -4.9437   26.8837  -30.3111 H   0  0  0  0  0  0  0  0  0  0  0  0
  1  2  1  0
  2  3  1  0
  3  4  1  0
  4  5  2  0
  5  6  1  0
  6  7  1  0
  6  8  2  0
  8  9  1  0
  9 10  1  0
 10 11  2  0
 11 12  1  0
 12 13  2  0
 13 14  1  0
 14 15  2  0
 15 16  1  0
 11 17  1  0
 17 18  2  0
 18  4  1  0
 18  9  1  0
 16 12  1  0
  1 19  1  0
  1 20  1  0
  1 21  1  0
  3 22  1  0
  3 23  1  0
  5 24  1  0
  7 25  1  0
  7 26  1  0
  7 27  1  0
  8 28  1  0
 10 29  1  0
 13 30  1  0
 14 31  1  0
 15 32  1  0
M  CHG  1   5   1
M  END
>  <UniqueID>  (30) 
24

>  <SMILES>  (30) 
COCc1[nH+]c(C)cn2cc(-c3ccco3)nc12

>  <Energy>  (30) 
95.12060860084567

>  <Genealogy>  (30) 
COCc1[nH+]c(C)cn2cc(-c3ccco3)nc12 (protonated)
COCc1[nH+]c(C)cn2cc(-c3ccco3)nc12 (3D coordinates assigned)
COCc1[nH+]c(C)cn2cc(-c3ccco3)nc12 (optimized conformer: 95.12060860084567 kcal/mol)

>  <smiles>  (30) 
COCc1nc(C)cn2cc(-c3ccco3)nc12

>  <score_type>  (30) 
oracle

>  <origin>  (30) 
adg

>  <m_score__min__energy>  (30) 
-5.4500000000000002

>  <m_primary>  (30) 
energy

$$$$
30:0
     RDKit          3D

 30 32  0  0  0  0  0  0  0  0999 V2000
   -2.3460   24.7330  -28.6590 C   0  0  0  0  0  0  0  0  0  0  0  0
   -3.1140   25.2890  -29.7190 O   0  0  0  0  0  0  0  0  0  0  0  0
   -4.2110   24.6310  -30.2840 C   0  0  0  0  0  0  0  0  0  0  0  0
   -5.4840   25.1990  -30.1750 C   0  0  0  0  0  0  0  0  0  0  0  0
   -6.5790   24.5400  -30.7400 C   0  0  0  0  0  0  0  0  0  0  0  0
   -6.3940   23.3270  -31.4050 C   0  0  0  0  0  0  0  0  0  0  0  0
   -5.1050   22.7870  -31.4950 C   0  0  0  0  0  0  0  0  0  0  0  0
   -4.8840   21.5410  -32.1740 C   0  0  0  0  0  0  0  0  0  0  0  0
   -4.7030   20.4940  -32.7430 C   0  0  0  0  0  0  0  0  0  0  0  0
   -4.4870   19.2420  -33.4190 C   0  0  0  0  0  0  0  0  0  0  0  0
   -3.3120   19.0110  -34.0740 N   0  0  0  0  0  0  0  0  0  0  0  0
   -3.0720   17.8340  -34.7250 C   0  0  0  0  0  0  0  0  0  0  0  0
   -4.0510   16.8300  -34.7280 C   0  0  0  0  0  0  0  0  0  0  0  0
   -5.2120   17.0790  -34.0710 N   0  0  0  0  0  0  0  0  0  0  0  0
   -6.2920   16.2910  -33.9270 C   0  0  0  0  0  0  0  0  0  0  0  0
   -7.2420   16.9650  -33.1750 C   0  0  0  0  0  0  0  0  0  0  0  0
   -6.7100   18.2080  -32.8540 C   0  0  0  0  0  0  0  0  0  0  0  0
   -5.4540   18.2330  -33.4290 C   0  0  0  0  0  0  0  0  0  0  0  0
   -4.0530   23.4450  -30.9380 N   0  0  0  0  0  0  0  0  0  0  0  0
   -2.7741   25.0429  -27.6943 H   0  0  0  0  0  0  0  0  0  0  0  0
   -2.3616   23.6355  -28.7314 H   0  0  0  0  0  0  0  0  0  0  0  0
   -1.3082   25.0905  -28.7314 H   0  0  0  0  0  0  0  0  0  0  0  0
   -5.6222   26.1554  -29.6495 H   0  0  0  0  0  0  0  0  0  0  0  0
   -7.5855   24.9767  -30.6608 H   0  0  0  0  0  0  0  0  0  0  0  0
   -7.2502   22.8015  -31.8530 H   0  0  0  0  0  0  0  0  0  0  0  0
   -2.1154   17.6747  -35.2443 H   0  0  0  0  0  0  0  0  0  0  0  0
   -3.8836   15.8736  -35.2451 H   0  0  0  0  0  0  0  0  0  0  0  0
   -6.4036   15.2771  -34.3387 H   0  0  0  0  0  0  0  0  0  0  0  0
   -8.2334   16.5860  -32.8860 H   0  0  0  0  0  0  0  0  0  0  0  0
   -7.1885   19.0048  -32.2656 H   0  0  0  0  0  0  0  0  0  0  0  0
  1  2  1  0
  2  3  1  0
  3  4  2  0
  4  5  1  0
  5  6  2  0
  6  7  1  0
  7  8  1  0
  8  9  3  0
  9 10  1  0
 10 11  2  0
 11 12  1  0
 12 13  2  0
 13 14  1  0
 14 15  1  0
 15 16  2  0
 16 17  1  0
 17 18  2  0
  7 19  2  0
 19  3  1  0
 18 10  1  0
 18 14  1  0
  1 20  1  0
  1 21  1  0
  1 22  1  0
  4 23  1  0
  5 24  1  0
  6 25  1  0
 12 26  1  0
 13 27  1  0
 15 28  1  0
 16 29  1  0
 17 30  1  0
M  END
>  <UniqueID>  (31) 
25

>  <SMILES>  (31) 
COc1cccc(C#Cc2nccn3cccc23)n1

>  <Energy>  (31) 
59.6273705708619

>  <Genealogy>  (31) 
COc1cccc(C#Cc2nccn3cccc23)n1 (3D coordinates assigned)
COc1cccc(C#Cc2nccn3cccc23)n1 (optimized conformer: 59.6273705708619 kcal/mol)

>  <smiles>  (31) 
COc1cccc(C#Cc2nccn3cccc23)n1

>  <score_type>  (31) 
oracle

>  <origin>  (31) 
adg

>  <m_score__min__energy>  (31) 
-6.7599999999999998

>  <m_primary>  (31) 
energy

$$$$
31:0
     RDKit          3D

 32 34  0  0  0  0  0  0  0  0999 V2000
   -9.8953   18.9084  -32.1856 H   0  0  0  0  0  0  0  0  0  0  0  0
   -9.0420   19.6020  -32.2160 C   0  0  0  0  0  0  0  0  0  0  0  0
   -7.7660   19.1280  -32.5410 C   0  0  0  0  0  0  0  0  0  0  0  0
   -7.6162   18.0614  -32.7643 H   0  0  0  0  0  0  0  0  0  0  0  0
   -6.6820   20.0090  -32.5820 C   0  0  0  0  0  0  0  0  0  0  0  0
   -5.6802   19.6329  -32.8368 H   0  0  0  0  0  0  0  0  0  0  0  0
   -6.8660   21.3740  -32.2990 C   0  0  0  0  0  0  0  0  0  0  0  0
   -5.6970   22.3220  -32.3150 C   0  0  0  0  0  0  0  0  0  0  0  0
   -5.5119   22.6517  -33.3480 H   0  0  0  0  0  0  0  0  0  0  0  0
   -4.8116   21.8030  -31.9192 H   0  0  0  0  0  0  0  0  0  0  0  0
   -5.9830   23.5220  -31.4560 C   0  0  0  0  0  0  0  0  0  0  0  0
   -6.4850   24.5520  -31.9790 O   0  0  0  0  0  0  0  0  0  0  0  0
   -5.7320   23.5120  -30.0470 N   0  0  0  0  0  0  0  0  0  0  0  0
   -4.7040   22.9480  -29.5570 N   0  0  0  0  0  0  0  0  0  0  0  0
   -3.5180   23.6850  -29.2530 C   0  0  0  0  0  0  0  0  0  0  0  0
   -3.1160   24.9120  -29.7640 C   0  0  0  0  0  0  0  0  0  0  0  0
   -3.8200   25.6590  -30.7000 O   0  0  0  0  0  0  0  0  0  0  0  0
   -1.9340   25.3120  -29.2370 N   0  0  0  0  0  0  0  0  0  0  0  0
   -1.5990   24.3180  -28.3870 C   0  0  0  0  0  0  0  0  0  0  0  0
   -0.4580   24.2540  -27.5900 C   0  0  0  0  0  0  0  0  0  0  0  0
    0.2909   25.0596  -27.6074 H   0  0  0  0  0  0  0  0  0  0  0  0
   -0.2920   23.1280  -26.7620 C   0  0  0  0  0  0  0  0  0  0  0  0
    0.5978   23.0489  -26.1201 H   0  0  0  0  0  0  0  0  0  0  0  0
   -1.2590   22.0990  -26.7490 C   0  0  0  0  0  0  0  0  0  0  0  0
   -1.1169   21.2234  -26.0985 H   0  0  0  0  0  0  0  0  0  0  0  0
   -2.4030   22.1870  -27.5630 C   0  0  0  0  0  0  0  0  0  0  0  0
   -3.1647   21.3934  -27.5616 H   0  0  0  0  0  0  0  0  0  0  0  0
   -2.5380   23.3140  -28.3710 C   0  0  0  0  0  0  0  0  0  0  0  0
   -8.1490   21.8410  -31.9700 C   0  0  0  0  0  0  0  0  0  0  0  0
   -8.3027   22.9063  -31.7429 H   0  0  0  0  0  0  0  0  0  0  0  0
   -9.2320   20.9570  -31.9300 C   0  0  0  0  0  0  0  0  0  0  0  0
  -10.2349   21.3286  -31.6731 H   0  0  0  0  0  0  0  0  0  0  0  0
  1  2  1  0
  2  3  2  0
  3  4  1  0
  3  5  1  0
  5  6  1  0
  5  7  2  0
  7  8  1  0
  8  9  1  0
  8 10  1  0
  8 11  1  0
 11 12  2  0
 11 13  1  0
 13 14  2  0
 14 15  1  0
 15 16  2  0
 16 17  1  0
 16 18  1  0
 18 19  1  0
 19 20  2  0
 20 21  1  0
 20 22  1  0
 22 23  1  0
 22 24  2  0
 24 25  1  0
 24 26  1  0
 26 27  1  0
 26 28  2  0
  7 29  1  0
 29 30  1  0
 29 31  2  0
 31 32  1  0
 31  2  1  0
 28 15  1  0
 28 19  1  0
M  CHG  2  17  -1  18  -1
M  END
>  <UniqueID>  (32) 
26

>  <SMILES>  (32) 
O=C(Cc1ccccc1)/N=N/c1c([O-])[n-]c2ccccc12

>  <Energy>  (32) 
65.56467767209152

>  <Genealogy>  (32) 
O=C(Cc1ccccc1)N=Nc1c([O-])[n-]c2ccccc12 (protonated)
O=C(Cc1ccccc1)/N=N/c1c([O-])[n-]c2ccccc12 (cis-trans isomerization)
O=C(Cc1ccccc1)/N=N/c1c([O-])[n-]c2ccccc12 (3D coordinates assigned)
O=C(Cc1ccccc1)/N=N/c1c([O-])[n-]c2ccccc12 (optimized conformer: 65.56467767209152 kcal/mol)

>  <smiles>  (32) 
O=C(Cc1ccccc1)N=Nc1c(O)[nH]c2ccccc12

>  <score_type>  (32) 
oracle

>  <origin>  (32) 
adg

>  <m_score__min__energy>  (32) 
-12.960000000000001

>  <m_primary>  (32) 
energy

$$$$
32:0
     RDKit          3D

 39 42  0  0  0  0  0  0  0  0999 V2000
   -5.2010   25.1640  -31.2220 O   0  0  0  0  0  0  0  0  0  0  0  0
   -4.6270   24.2240  -30.6110 C   0  0  0  0  0  0  0  0  0  0  0  0
   -4.0160   24.3890  -29.4140 N   0  0  0  0  0  0  0  0  0  0  0  0
   -3.5380   23.1660  -29.1280 C   0  0  0  0  0  0  0  0  0  0  0  0
   -2.8130   22.7700  -28.0060 C   0  0  0  0  0  0  0  0  0  0  0  0
   -2.4130   21.4220  -27.9290 C   0  0  0  0  0  0  0  0  0  0  0  0
   -1.4980   20.8630  -26.5420 Cl  0  0  0  0  0  0  0  0  0  0  0  0
   -2.7450   20.5180  -28.9650 C   0  0  0  0  0  0  0  0  0  0  0  0
   -3.4790   20.9510  -30.0860 C   0  0  0  0  0  0  0  0  0  0  0  0
   -3.8600   22.2940  -30.1330 C   0  0  0  0  0  0  0  0  0  0  0  0
   -4.5570   22.9530  -31.0820 N   0  0  0  0  0  0  0  0  0  0  0  0
   -5.0640   22.4530  -32.3630 C   0  0  0  0  0  0  0  0  0  0  0  0
   -6.5630   22.2570  -32.2930 C   0  0  0  0  0  0  0  0  0  0  0  0
   -7.3700   23.3880  -32.0750 C   0  0  0  0  0  0  0  0  0  0  0  0
   -8.7510   23.2610  -31.9170 C   0  0  0  0  0  0  0  0  0  0  0  0
   -9.3480   22.0040  -31.9700 C   0  0  0  0  0  0  0  0  0  0  0  0
   -8.5670   20.8680  -32.1910 C   0  0  0  0  0  0  0  0  0  0  0  0
   -7.1770   20.9770  -32.3640 C   0  0  0  0  0  0  0  0  0  0  0  0
   -6.4130   19.7410  -32.6360 C   0  0  0  0  0  0  0  0  0  0  0  0
   -6.4590   18.6700  -31.7280 C   0  0  0  0  0  0  0  0  0  0  0  0
   -5.7600   17.4900  -31.9980 C   0  0  0  0  0  0  0  0  0  0  0  0
   -5.0230   17.3650  -33.1790 C   0  0  0  0  0  0  0  0  0  0  0  0
   -4.9900   18.4200  -34.0960 C   0  0  0  0  0  0  0  0  0  0  0  0
   -5.6880   19.6020  -33.8310 C   0  0  0  0  0  0  0  0  0  0  0  0
   -3.9320   25.2640  -28.8490 H   0  0  0  0  0  0  0  0  0  0  0  0
   -2.5620   23.4850  -27.2086 H   0  0  0  0  0  0  0  0  0  0  0  0
   -2.4270   19.4673  -28.8944 H   0  0  0  0  0  0  0  0  0  0  0  0
   -3.7431   20.2558  -30.8965 H   0  0  0  0  0  0  0  0  0  0  0  0
   -4.8294   23.1796  -33.1548 H   0  0  0  0  0  0  0  0  0  0  0  0
   -4.5864   21.4873  -32.5849 H   0  0  0  0  0  0  0  0  0  0  0  0
   -6.9072   24.3848  -32.0284 H   0  0  0  0  0  0  0  0  0  0  0  0
   -9.3690   24.1556  -31.7503 H   0  0  0  0  0  0  0  0  0  0  0  0
  -10.4356   21.9060  -31.8377 H   0  0  0  0  0  0  0  0  0  0  0  0
   -9.0447   19.8779  -32.2301 H   0  0  0  0  0  0  0  0  0  0  0  0
   -7.0465   18.7602  -30.8024 H   0  0  0  0  0  0  0  0  0  0  0  0
   -5.7900   16.6578  -31.2793 H   0  0  0  0  0  0  0  0  0  0  0  0
   -4.4694   16.4375  -33.3869 H   0  0  0  0  0  0  0  0  0  0  0  0
   -4.4138   18.3198  -35.0276 H   0  0  0  0  0  0  0  0  0  0  0  0
   -5.6694   20.4253  -34.5603 H   0  0  0  0  0  0  0  0  0  0  0  0
  1  2  2  0
  2  3  1  0
  3  4  1  0
  4  5  2  0
  5  6  1  0
  6  7  1  0
  6  8  2  0
  8  9  1  0
  9 10  2  0
 10 11  1  0
 11 12  1  0
 12 13  1  0
 13 14  2  0
 14 15  1  0
 15 16  2  0
 16 17  1  0
 17 18  2  0
 18 19  1  0
 19 20  2  0
 20 21  1  0
 21 22  2  0
 22 23  1  0
 23 24  2  0
 11  2  1  0
 18 13  1  0
 24 19  1  0
 10  4  1  0
  3 25  1  0
  5 26  1  0
  8 27  1  0
  9 28  1  0
 12 29  1  0
 12 30  1  0
 14 31  1  0
 15 32  1  0
 16 33  1  0
 17 34  1  0
 20 35  1  0
 21 36  1  0
 22 37  1  0
 23 38  1  0
 24 39  1  0
M  END
>  <UniqueID>  (33) 
27

>  <SMILES>  (33) 
O=c1[nH]c2cc(Cl)ccc2n1Cc1ccccc1-c1ccccc1

>  <Energy>  (33) 
91.37937240705774

>  <Genealogy>  (33) 
O=c1[nH]c2cc(Cl)ccc2n1Cc1ccccc1-c1ccccc1 (3D coordinates assigned)
O=c1[nH]c2cc(Cl)ccc2n1Cc1ccccc1-c1ccccc1 (optimized conformer: 91.37937240705774 kcal/mol)

>  <smiles>  (33) 
O=c1[nH]c2cc(Cl)ccc2n1Cc1ccccc1-c1ccccc1

>  <score_type>  (33) 
oracle

>  <origin>  (33) 
adg

>  <m_score__min__energy>  (33) 
-9.2300000000000004

>  <m_primary>  (33) 
energy

$$$$
33:0
     RDKit          3D

 24 25  0  0  0  0  0  0  0  0999 V2000
   -6.1000   18.0740  -34.1910 C   0  0  0  0  0  0  0  0  0  0  0  0
   -5.7660   19.5200  -33.8410 C   0  0  0  0  0  0  0  0  0  0  0  0
   -6.8940   20.1510  -33.0820 C   0  0  0  0  0  0  0  0  0  0  0  0
   -8.1640   19.6880  -33.0500 N   0  0  0  0  0  0  0  0  0  0  0  0
   -8.9110   20.5390  -32.3490 N   0  0  0  0  0  0  0  0  0  0  0  0
   -8.0690   21.5210  -31.9680 C   0  0  0  0  0  0  0  0  0  0  0  0
   -8.3660   22.6580  -31.2290 C   0  0  0  0  0  0  0  0  0  0  0  0
   -7.3090   23.5500  -30.9820 C   0  0  0  0  0  0  0  0  0  0  0  0
   -6.0180   23.2740  -31.4830 C   0  0  0  0  0  0  0  0  0  0  0  0
   -4.9750   24.1720  -31.2370 O   0  0  0  0  0  0  0  0  0  0  0  0
   -5.1110   25.2870  -30.3660 C   0  0  0  0  0  0  0  0  0  0  0  0
   -5.8060   22.1320  -32.2040 N   0  0  0  0  0  0  0  0  0  0  0  0
   -6.8280   21.3070  -32.4110 N   0  0  0  0  0  0  0  0  0  0  0  0
   -6.2339   17.4943  -33.2658 H   0  0  0  0  0  0  0  0  0  0  0  0
   -7.0286   18.0444  -34.7799 H   0  0  0  0  0  0  0  0  0  0  0  0
   -5.2784   17.6401  -34.7799 H   0  0  0  0  0  0  0  0  0  0  0  0
   -4.8567   19.5418  -33.2224 H   0  0  0  0  0  0  0  0  0  0  0  0
   -5.6052   20.0831  -34.7722 H   0  0  0  0  0  0  0  0  0  0  0  0
   -8.5250   18.8190  -33.5040 H   0  0  0  0  0  0  0  0  0  0  0  0
   -9.3819   22.8516  -30.8542 H   0  0  0  0  0  0  0  0  0  0  0  0
   -7.4874   24.4646  -30.3975 H   0  0  0  0  0  0  0  0  0  0  0  0
   -5.0691   24.9438  -29.3217 H   0  0  0  0  0  0  0  0  0  0  0  0
   -4.2930   25.9988  -30.5511 H   0  0  0  0  0  0  0  0  0  0  0  0
   -6.0761   25.7813  -30.5511 H   0  0  0  0  0  0  0  0  0  0  0  0
  1  2  1  0
  2  3  1  0
  3  4  2  0
  4  5  1  0
  5  6  2  0
  6  7  1  0
  7  8  2  0
  8  9  1  0
  9 10  1  0
 10 11  1  0
  9 12  2  0
 12 13  1  0
 13  3  1  0
 13  6  1  0
  1 14  1  0
  1 15  1  0
  1 16  1  0
  2 17  1  0
  2 18  1  0
  4 19  1  0
  7 20  1  0
  8 21  1  0
 11 22  1  0
 11 23  1  0
 11 24  1  0
M  CHG  1   4   1
M  END
>  <UniqueID>  (34) 
28

>  <SMILES>  (34) 
CCc1[nH+]nc2ccc(OC)nn12

>  <Energy>  (34) 
61.54540398569493

>  <Genealogy>  (34) 
CCc1[nH+]nc2ccc(OC)nn12 (protonated)
CCc1[nH+]nc2ccc(OC)nn12 (3D coordinates assigned)
CCc1[nH+]nc2ccc(OC)nn12 (optimized conformer: 61.54540398569493 kcal/mol)

>  <smiles>  (34) 
CCc1nnc2ccc(OC)nn12

>  <score_type>  (34) 
oracle

>  <origin>  (34) 
adg

>  <m_score__min__energy>  (34) 
-5.4199999999999999

>  <m_primary>  (34) 
energy

$$$$
34:0
     RDKit          3D

 59 62  0  0  0  0  0  0  0  0999 V2000
   -2.2840   19.4110  -26.4690 C   0  0  0  0  0  0  0  0  0  0  0  0
   -2.8240   19.8010  -27.8410 C   0  0  0  0  0  0  0  0  0  0  0  0
   -2.1190   20.9830  -28.3630 N   0  0  0  0  0  0  0  0  0  0  0  0
   -1.7070   22.0800  -27.5130 C   0  0  0  0  0  0  0  0  0  0  0  0
   -0.5480   22.0790  -27.0130 O   0  0  0  0  0  0  0  0  0  0  0  0
   -2.6300   23.2150  -27.1620 C   0  0  0  0  0  0  0  0  0  0  0  0
   -3.7620   23.2340  -28.0260 O   0  0  0  0  0  0  0  0  0  0  0  0
   -3.9610   24.1980  -29.0230 C   0  0  0  0  0  0  0  0  0  0  0  0
   -3.0300   24.9840  -29.3510 O   0  0  0  0  0  0  0  0  0  0  0  0
   -5.3120   24.3330  -29.6630 C   0  0  1  0  0  0  0  0  0  0  0  0
   -5.2000   24.7440  -31.1440 C   0  0  0  0  0  0  0  0  0  0  0  0
   -6.4830   24.6790  -31.7710 O   0  0  0  0  0  0  0  0  0  0  0  0
   -7.3760   23.6430  -31.4810 C   0  0  0  0  0  0  0  0  0  0  0  0
   -8.5000   23.4190  -32.2800 C   0  0  0  0  0  0  0  0  0  0  0  0
   -9.3570   22.3490  -31.9910 C   0  0  0  0  0  0  0  0  0  0  0  0
   -9.0890   21.5080  -30.9060 C   0  0  0  0  0  0  0  0  0  0  0  0
   -7.9740   21.7460  -30.0940 C   0  0  0  0  0  0  0  0  0  0  0  0
   -7.1280   22.8230  -30.3720 C   0  0  0  0  0  0  0  0  0  0  0  0
   -6.0270   23.0990  -29.5540 O   0  0  0  0  0  0  0  0  0  0  0  0
   -1.8530   21.0540  -29.7780 C   0  0  0  0  0  0  0  0  0  0  0  0
   -2.8730   21.3510  -30.7050 C   0  0  0  0  0  0  0  0  0  0  0  0
   -4.2160   21.5390  -30.2240 N   0  0  0  0  0  0  0  0  0  0  0  0
   -2.5720   21.4450  -32.0500 N   0  0  0  0  0  0  0  0  0  0  0  0
   -3.6360   21.6540  -33.0590 C   0  0  0  0  0  0  0  0  0  0  0  0
   -4.6300   20.5210  -33.0270 C   0  0  0  0  0  0  0  0  0  0  0  0
   -6.0080   20.7950  -32.9930 C   0  0  0  0  0  0  0  0  0  0  0  0
   -6.9350   19.7500  -32.9750 C   0  0  0  0  0  0  0  0  0  0  0  0
   -6.4960   18.4210  -32.9910 C   0  0  0  0  0  0  0  0  0  0  0  0
   -5.1270   18.1380  -33.0220 C   0  0  0  0  0  0  0  0  0  0  0  0
   -4.1960   19.1810  -33.0360 C   0  0  0  0  0  0  0  0  0  0  0  0
   -1.2740   21.2620  -32.4680 C   0  0  0  0  0  0  0  0  0  0  0  0
   -0.9720   21.3440  -33.6910 O   0  0  0  0  0  0  0  0  0  0  0  0
   -0.2910   20.9840  -31.5730 N   0  0  0  0  0  0  0  0  0  0  0  0
   -0.5500   20.8790  -30.2480 C   0  0  0  0  0  0  0  0  0  0  0  0
    0.3900   20.6330  -29.4440 O   0  0  0  0  0  0  0  0  0  0  0  0
   -2.9105   19.8635  -25.6862 H   0  0  0  0  0  0  0  0  0  0  0  0
   -2.3019   18.3160  -26.3656 H   0  0  0  0  0  0  0  0  0  0  0  0
   -1.2502   19.7722  -26.3656 H   0  0  0  0  0  0  0  0  0  0  0  0
   -2.6829   18.9605  -28.5364 H   0  0  0  0  0  0  0  0  0  0  0  0
   -3.8929   20.0420  -27.7440 H   0  0  0  0  0  0  0  0  0  0  0  0
   -2.9714   23.0938  -26.1234 H   0  0  0  0  0  0  0  0  0  0  0  0
   -2.0829   24.1622  -27.2780 H   0  0  0  0  0  0  0  0  0  0  0  0
   -5.8590   25.1265  -29.1327 H   0  0  0  0  0  0  0  0  0  0  0  0
   -4.8157   25.7727  -31.2079 H   0  0  0  0  0  0  0  0  0  0  0  0
   -4.5134   24.0550  -31.6576 H   0  0  0  0  0  0  0  0  0  0  0  0
   -8.7114   24.0805  -33.1331 H   0  0  0  0  0  0  0  0  0  0  0  0
  -10.2424   22.1699  -32.6187 H   0  0  0  0  0  0  0  0  0  0  0  0
   -9.7547   20.6592  -30.6907 H   0  0  0  0  0  0  0  0  0  0  0  0
   -7.7641   21.0867  -29.2389 H   0  0  0  0  0  0  0  0  0  0  0  0
   -5.0290   21.6590  -30.8630 H   0  0  0  0  0  0  0  0  0  0  0  0
   -4.4130   21.6870  -29.2100 H   0  0  0  0  0  0  0  0  0  0  0  0
   -4.1576   22.5982  -32.8436 H   0  0  0  0  0  0  0  0  0  0  0  0
   -3.1748   21.6920  -34.0569 H   0  0  0  0  0  0  0  0  0  0  0  0
   -6.3584   21.8376  -32.9805 H   0  0  0  0  0  0  0  0  0  0  0  0
   -8.0120   19.9720  -32.9482 H   0  0  0  0  0  0  0  0  0  0  0  0
   -7.2276   17.5996  -32.9792 H   0  0  0  0  0  0  0  0  0  0  0  0
   -4.7821   17.0936  -33.0354 H   0  0  0  0  0  0  0  0  0  0  0  0
   -3.1198   18.9541  -33.0541 H   0  0  0  0  0  0  0  0  0  0  0  0
    0.6880   20.8520  -31.9130 H   0  0  0  0  0  0  0  0  0  0  0  0
  1  2  1  0
  2  3  1  0
  3  4  1  0
  4  5  2  0
  4  6  1  0
  6  7  1  0
  7  8  1  0
  8  9  2  0
  8 10  1  0
 10 11  1  0
 11 12  1  0
 12 13  1  0
 13 14  2  0
 14 15  1  0
 15 16  2  0
 16 17  1  0
 17 18  2  0
 18 19  1  0
  3 20  1  0
 20 21  2  0
 21 22  1  0
 21 23  1  0
 23 24  1  0
 24 25  1  0
 25 26  2  0
 26 27  1  0
 27 28  2  0
 28 29  1  0
 29 30  2  0
 23 31  1  0
 31 32  2  0
 31 33  1  0
 33 34  1  0
 34 35  2  0
 19 10  1  0
 34 20  1  0
 18 13  1  0
 30 25  1  0
  1 36  1  0
  1 37  1  0
  1 38  1  0
  2 39  1  0
  2 40  1  0
  6 41  1  0
  6 42  1  0
 10 43  1  1
 11 44  1  0
 11 45  1  0
 14 46  1  0
 15 47  1  0
 16 48  1  0
 17 49  1  0
 22 50  1  0
 22 51  1  0
 24 52  1  0
 24 53  1  0
 26 54  1  0
 27 55  1  0
 28 56  1  0
 29 57  1  0
 30 58  1  0
 33 59  1  0
M  END
>  <UniqueID>  (35) 
29

>  <SMILES>  (35) 
CCN(C(=O)COC(=O)[C@H]1COc2ccccc2O1)c1c(N)n(Cc2ccccc2)c(=O)[nH]c1=O

>  <Energy>  (35) 
73.35822901844755

>  <Genealogy>  (35) 
CCN(C(=O)COC(=O)[C@H]1COc2ccccc2O1)c1c(N)n(Cc2ccccc2)c(=O)[nH]c1=O (chirality)
CCN(C(=O)COC(=O)[C@H]1COc2ccccc2O1)c1c(N)n(Cc2ccccc2)c(=O)[nH]c1=O (3D coordinates assigned)
CCN(C(=O)COC(=O)[C@H]1COc2ccccc2O1)c1c(N)n(Cc2ccccc2)c(=O)[nH]c1=O (nonaromatic ring conformer: 73.35822901844755 kcal/mol)

>  <smiles>  (35) 
CCN(C(=O)COC(=O)C1COc2ccccc2O1)c1c(N)n(Cc2ccccc2)c(=O)[nH]c1=O

>  <score_type>  (35) 
oracle

>  <origin>  (35) 
adg

>  <m_score__min__energy>  (35) 
-9.2400000000000002

>  <m_primary>  (35) 
energy

$$$$
35:0
     RDKit          3D

 59 62  0  0  0  0  0  0  0  0999 V2000
   -0.4950   24.9080  -24.4370 C   0  0  0  0  0  0  0  0  0  0  0  0
   -0.0530   24.1270  -25.5400 O   0  0  0  0  0  0  0  0  0  0  0  0
   -0.8920   23.2410  -26.2220 C   0  0  0  0  0  0  0  0  0  0  0  0
   -0.8610   21.8800  -25.9160 C   0  0  0  0  0  0  0  0  0  0  0  0
   -1.6750   21.0230  -26.5890 N   0  0  0  0  0  0  0  0  0  0  0  0
   -2.5250   21.4690  -27.5520 C   0  0  0  0  0  0  0  0  0  0  0  0
   -2.5740   22.8400  -27.8560 C   0  0  0  0  0  0  0  0  0  0  0  0
   -3.4510   23.3600  -28.8750 N   0  0  0  0  0  0  0  0  0  0  0  0
   -3.2680   23.0190  -30.2920 C   0  0  0  0  0  0  0  0  0  0  0  0
   -4.6110   22.6780  -30.9570 C   0  0  0  0  0  0  0  0  0  0  0  0
   -5.8140   23.6020  -30.5340 C   0  0  0  0  0  0  0  0  0  0  0  0
   -6.5290   24.1600  -31.7930 C   0  0  0  0  0  0  0  0  0  0  0  0
   -7.2030   23.0570  -32.6450 C   0  0  0  0  0  0  0  0  0  0  0  0
   -7.2800   21.7700  -31.9250 N   0  0  0  0  0  0  0  0  0  0  0  0
   -8.0630   20.7830  -32.6940 C   0  0  0  0  0  0  0  0  0  0  0  0
   -7.2780   19.5030  -32.8460 C   0  0  0  0  0  0  0  0  0  0  0  0
   -7.9120   18.2650  -32.6430 C   0  0  0  0  0  0  0  0  0  0  0  0
   -7.1900   17.0750  -32.7600 C   0  0  0  0  0  0  0  0  0  0  0  0
   -5.8330   17.1090  -33.0810 C   0  0  0  0  0  0  0  0  0  0  0  0
   -5.1900   18.3320  -33.2880 C   0  0  0  0  0  0  0  0  0  0  0  0
   -5.9060   19.5410  -33.1740 C   0  0  0  0  0  0  0  0  0  0  0  0
   -5.2900   20.7870  -33.3720 O   0  0  0  0  0  0  0  0  0  0  0  0
   -3.8850   20.9890  -33.4660 C   0  0  0  0  0  0  0  0  0  0  0  0
   -7.8310   21.9660  -30.5720 C   0  0  0  0  0  0  0  0  0  0  0  0
   -6.8580   22.7910  -29.7010 C   0  0  0  0  0  0  0  0  0  0  0  0
   -5.3040   24.8030  -29.6910 C   0  0  0  0  0  0  0  0  0  0  0  0
   -4.4780   24.3370  -28.4850 C   0  0  0  0  0  0  0  0  0  0  0  0
   -1.7450   23.6860  -27.1850 N   0  0  0  0  0  0  0  0  0  0  0  0
   -0.2127   24.4093  -23.4981 H   0  0  0  0  0  0  0  0  0  0  0  0
   -0.0254   25.9018  -24.4798 H   0  0  0  0  0  0  0  0  0  0  0  0
   -1.5887   25.0171  -24.4798 H   0  0  0  0  0  0  0  0  0  0  0  0
   -0.1831   21.5029  -25.1361 H   0  0  0  0  0  0  0  0  0  0  0  0
   -1.6390   20.0030  -26.3680 H   0  0  0  0  0  0  0  0  0  0  0  0
   -3.1711   20.7600  -28.0904 H   0  0  0  0  0  0  0  0  0  0  0  0
   -2.8169   23.8766  -30.8125 H   0  0  0  0  0  0  0  0  0  0  0  0
   -2.6121   22.1383  -30.3575 H   0  0  0  0  0  0  0  0  0  0  0  0
   -4.4835   22.7605  -32.0465 H   0  0  0  0  0  0  0  0  0  0  0  0
   -4.8706   21.6621  -30.6246 H   0  0  0  0  0  0  0  0  0  0  0  0
   -7.3008   24.8741  -31.4701 H   0  0  0  0  0  0  0  0  0  0  0  0
   -5.7633   24.6388  -32.4210 H   0  0  0  0  0  0  0  0  0  0  0  0
   -8.2221   23.3809  -32.9031 H   0  0  0  0  0  0  0  0  0  0  0  0
   -6.5927   22.9049  -33.5475 H   0  0  0  0  0  0  0  0  0  0  0  0
   -9.0036   20.5722  -32.1640 H   0  0  0  0  0  0  0  0  0  0  0  0
   -8.2792   21.1933  -33.6914 H   0  0  0  0  0  0  0  0  0  0  0  0
   -8.9822   18.2332  -32.3907 H   0  0  0  0  0  0  0  0  0  0  0  0
   -7.6922   16.1097  -32.5988 H   0  0  0  0  0  0  0  0  0  0  0  0
   -5.2673   16.1699  -33.1715 H   0  0  0  0  0  0  0  0  0  0  0  0
   -4.1197   18.3516  -33.5412 H   0  0  0  0  0  0  0  0  0  0  0  0
   -3.4550   21.0508  -32.4554 H   0  0  0  0  0  0  0  0  0  0  0  0
   -3.4290   20.1472  -34.0076 H   0  0  0  0  0  0  0  0  0  0  0  0
   -3.6846   21.9252  -34.0076 H   0  0  0  0  0  0  0  0  0  0  0  0
   -8.7901   22.4995  -30.6464 H   0  0  0  0  0  0  0  0  0  0  0  0
   -7.9774   20.9816  -30.1035 H   0  0  0  0  0  0  0  0  0  0  0  0
   -7.4453   23.4972  -29.0956 H   0  0  0  0  0  0  0  0  0  0  0  0
   -6.2949   22.0788  -29.0800 H   0  0  0  0  0  0  0  0  0  0  0  0
   -4.6763   25.4445  -30.3270 H   0  0  0  0  0  0  0  0  0  0  0  0
   -6.1781   25.3557  -29.3161 H   0  0  0  0  0  0  0  0  0  0  0  0
   -3.9858   25.2098  -28.0312 H   0  0  0  0  0  0  0  0  0  0  0  0
   -5.1586   23.8524  -27.7695 H   0  0  0  0  0  0  0  0  0  0  0  0
  1  2  1  0
  2  3  1  0
  3  4  2  0
  4  5  1  0
  5  6  2  0
  6  7  1  0
  7  8  1  0
  8  9  1  0
  9 10  1  0
 10 11  1  0
 11 12  1  0
 12 13  1  0
 13 14  1  0
 14 15  1  0
 15 16  1  0
 16 17  2  0
 17 18  1  0
 18 19  2  0
 19 20  1  0
 20 21  2  0
 21 22  1  0
 22 23  1  0
 14 24  1  0
 24 25  1  0
 11 26  1  0
 26 27  1  0
  7 28  2  0
 28  3  1  0
 27  8  1  0
 25 11  1  0
 21 16  1  0
  1 29  1  0
  1 30  1  0
  1 31  1  0
  4 32  1  0
  5 33  1  0
  6 34  1  0
  9 35  1  0
  9 36  1  0
 10 37  1  0
 10 38  1  0
 12 39  1  0
 12 40  1  0
 13 41  1  0
 13 42  1  0
 15 43  1  0
 15 44  1  0
 17 45  1  0
 18 46  1  0
 19 47  1  0
 20 48  1  0
 23 49  1  0
 23 50  1  0
 23 51  1  0
 24 52  1  0
 24 53  1  0
 25 54  1  0
 25 55  1  0
 26 56  1  0
 26 57  1  0
 27 58  1  0
 27 59  1  0
M  CHG  1   5   1
M  END
>  <UniqueID>  (36) 
30

>  <SMILES>  (36) 
COc1c[nH+]cc(N2CCC3(CCN(Cc4ccccc4OC)CC3)CC2)n1

>  <Energy>  (36) 
72.70203157850531

>  <Genealogy>  (36) 
COc1c[nH+]cc(N2CCC3(CCN(Cc4ccccc4OC)CC3)CC2)n1 (protonated)
COc1c[nH+]cc(N2CCC3(CCN(Cc4ccccc4OC)CC3)CC2)n1 (3D coordinates assigned)
COc1c[nH+]cc(N2CCC3(CCN(Cc4ccccc4OC)CC3)CC2)n1 (nonaromatic ring conformer: 72.70203157850531 kcal/mol)

>  <smiles>  (36) 
COc1cncc(N2CCC3(CCN(Cc4ccccc4OC)CC3)CC2)n1

>  <score_type>  (36) 
oracle

>  <origin>  (36) 
adg

>  <m_score__min__energy>  (36) 
-8.4900000000000002

>  <m_primary>  (36) 
energy

$$$$
36:0
     RDKit          3D

 17 18  0  0  0  0  0  0  0  0999 V2000
   -8.0530   20.7690  -32.3440 C   0  0  0  0  0  0  0  0  0  0  0  0
   -6.6950   20.7730  -32.6680 C   0  0  0  0  0  0  0  0  0  0  0  0
   -5.8860   21.8510  -32.2930 C   0  0  0  0  0  0  0  0  0  0  0  0
   -6.4320   22.9410  -31.5880 C   0  0  0  0  0  0  0  0  0  0  0  0
   -5.5920   24.0920  -31.1820 C   0  0  0  0  0  0  0  0  0  0  0  0
   -6.0060   25.3270  -30.7240 C   0  0  0  0  0  0  0  0  0  0  0  0
   -4.9020   26.0530  -30.4770 N   0  0  0  0  0  0  0  0  0  0  0  0
   -3.8610   25.2890  -30.7730 N   0  0  0  0  0  0  0  0  0  0  0  0
   -4.2470   24.0970  -31.2020 N   0  0  0  0  0  0  0  0  0  0  0  0
   -7.8030   22.9250  -31.2690 C   0  0  0  0  0  0  0  0  0  0  0  0
   -8.6070   21.8440  -31.6460 C   0  0  0  0  0  0  0  0  0  0  0  0
   -8.6864   19.9192  -32.6385 H   0  0  0  0  0  0  0  0  0  0  0  0
   -6.2601   19.9264  -33.2195 H   0  0  0  0  0  0  0  0  0  0  0  0
   -4.8166   21.8472  -32.5505 H   0  0  0  0  0  0  0  0  0  0  0  0
   -7.0466   25.6559  -30.5867 H   0  0  0  0  0  0  0  0  0  0  0  0
   -8.2454   23.7688  -30.7192 H   0  0  0  0  0  0  0  0  0  0  0  0
   -9.6773   21.8409  -31.3922 H   0  0  0  0  0  0  0  0  0  0  0  0
  1  2  2  0
  2  3  1  0
  3  4  2  0
  4  5  1  0
  5  6  1  0
  6  7  2  0
  7  8  1  0
  8  9  1  0
  4 10  1  0
 10 11  2  0
 11  1  1  0
  9  5  2  0
  1 12  1  0
  2 13  1  0
  3 14  1  0
  6 15  1  0
 10 16  1  0
 11 17  1  0
M  CHG  1   8  -1
M  END
>  <UniqueID>  (37) 
31

>  <SMILES>  (37) 
c1ccc(-c2cn[n-]n2)cc1

>  <Energy>  (37) 
52.88266380570364

>  <Genealogy>  (37) 
c1ccc(-c2cn[n-]n2)cc1 (protonated)
c1ccc(-c2cn[n-]n2)cc1 (3D coordinates assigned)
c1ccc(-c2cn[n-]n2)cc1 (optimized conformer: 52.88266380570364 kcal/mol)

>  <smiles>  (37) 
c1ccc(-c2cn[nH]n2)cc1

>  <score_type>  (37) 
oracle

>  <origin>  (37) 
adg

>  <m_score__min__energy>  (37) 
-7.79

>  <m_primary>  (37) 
energy

$$$$
37:0
     RDKit          3D

 39 41  0  0  0  0  0  0  0  0999 V2000
   -5.9310   18.3320  -34.0890 C   0  0  0  0  0  0  0  0  0  0  0  0
   -6.9910   19.2050  -33.5600 N   0  0  1  0  0  0  0  0  0  0  0  0
   -7.8800   18.4430  -32.6580 C   0  0  0  0  0  0  0  0  0  0  0  0
   -9.1140   19.2750  -32.2540 C   0  0  0  0  0  0  0  0  0  0  0  0
   -8.8360   20.7870  -32.2560 C   0  0  0  0  0  0  0  0  0  0  0  0
   -7.3740   21.0770  -31.8850 C   0  0  2  0  0  0  0  0  0  0  0  0
   -7.1370   22.5710  -31.8020 C   0  0  0  0  0  0  0  0  0  0  0  0
   -7.9730   23.3540  -32.3320 O   0  0  0  0  0  0  0  0  0  0  0  0
   -5.9710   23.1470  -31.0860 C   0  0  0  0  0  0  0  0  0  0  0  0
   -6.1180   24.3520  -30.3760 C   0  0  0  0  0  0  0  0  0  0  0  0
   -5.0380   24.9140  -29.6900 C   0  0  0  0  0  0  0  0  0  0  0  0
   -3.7910   24.2750  -29.6930 C   0  0  0  0  0  0  0  0  0  0  0  0
   -2.7020   24.8310  -29.0040 C   0  0  0  0  0  0  0  0  0  0  0  0
   -1.4650   24.1810  -29.0090 C   0  0  0  0  0  0  0  0  0  0  0  0
   -1.3060   22.9750  -29.6960 C   0  0  0  0  0  0  0  0  0  0  0  0
   -2.3840   22.4110  -30.3850 C   0  0  0  0  0  0  0  0  0  0  0  0
   -3.6320   23.0550  -30.3900 C   0  0  0  0  0  0  0  0  0  0  0  0
   -4.7210   22.4980  -31.0780 C   0  0  0  0  0  0  0  0  0  0  0  0
   -6.3960   20.3850  -32.8780 C   0  0  0  0  0  0  0  0  0  0  0  0
   -5.3791   17.8775  -33.2530 H   0  0  0  0  0  0  0  0  0  0  0  0
   -6.3818   17.5397  -34.7047 H   0  0  0  0  0  0  0  0  0  0  0  0
   -5.2398   18.9263  -34.7047 H   0  0  0  0  0  0  0  0  0  0  0  0
   -7.5540   19.5380  -34.3800 H   0  0  0  0  0  0  0  0  0  0  0  0
   -8.2157   17.5305  -33.1725 H   0  0  0  0  0  0  0  0  0  0  0  0
   -7.3174   18.1912  -31.7469 H   0  0  0  0  0  0  0  0  0  0  0  0
   -9.9275   19.0657  -32.9642 H   0  0  0  0  0  0  0  0  0  0  0  0
   -9.3867   18.9884  -31.2276 H   0  0  0  0  0  0  0  0  0  0  0  0
   -9.0393   21.1890  -33.2595 H   0  0  0  0  0  0  0  0  0  0  0  0
   -9.4887   21.2649  -31.5106 H   0  0  0  0  0  0  0  0  0  0  0  0
   -7.1728   20.6519  -30.8906 H   0  0  0  0  0  0  0  0  0  0  0  0
   -7.0945   24.8581  -30.3605 H   0  0  0  0  0  0  0  0  0  0  0  0
   -5.1673   25.8612  -29.1458 H   0  0  0  0  0  0  0  0  0  0  0  0
   -2.8223   25.7792  -28.4596 H   0  0  0  0  0  0  0  0  0  0  0  0
   -0.6130   24.6207  -28.4698 H   0  0  0  0  0  0  0  0  0  0  0  0
   -0.3300   22.4677  -29.6949 H   0  0  0  0  0  0  0  0  0  0  0  0
   -2.2543   21.4610  -30.9242 H   0  0  0  0  0  0  0  0  0  0  0  0
   -4.5973   21.5464  -31.6156 H   0  0  0  0  0  0  0  0  0  0  0  0
   -6.0981   21.1174  -33.6428 H   0  0  0  0  0  0  0  0  0  0  0  0
   -5.5366   20.0255  -32.2931 H   0  0  0  0  0  0  0  0  0  0  0  0
  1  2  1  0
  2  3  1  0
  3  4  1  0
  4  5  1  0
  5  6  1  0
  6  7  1  0
  7  8  2  0
  7  9  1  0
  9 10  2  0
 10 11  1  0
 11 12  2  0
 12 13  1  0
 13 14  2  0
 14 15  1  0
 15 16  2  0
 16 17  1  0
 17 18  2  0
  6 19  1  0
 19  2  1  0
 18  9  1  0
 17 12  1  0
  1 20  1  0
  1 21  1  0
  1 22  1  0
  2 23  1  6
  3 24  1  0
  3 25  1  0
  4 26  1  0
  4 27  1  0
  5 28  1  0
  5 29  1  0
  6 30  1  1
 10 31  1  0
 11 32  1  0
 13 33  1  0
 14 34  1  0
 15 35  1  0
 16 36  1  0
 18 37  1  0
 19 38  1  0
 19 39  1  0
M  CHG  1   2   1
M  END
>  <UniqueID>  (38) 
32

>  <SMILES>  (38) 
C[N@H+]1CCC[C@H](C(=O)c2ccc3ccccc3c2)C1

>  <Energy>  (38) 
52.024820900255506

>  <Genealogy>  (38) 
C[NH+]1CCCC(C(=O)c2ccc3ccccc3c2)C1 (protonated)
C[N@H+]1CCC[C@H](C(=O)c2ccc3ccccc3c2)C1 (chirality)
C[N@H+]1CCC[C@H](C(=O)c2ccc3ccccc3c2)C1 (3D coordinates assigned)
C[N@H+]1CCC[C@H](C(=O)c2ccc3ccccc3c2)C1 (nonaromatic ring conformer: 52.024820900255506 kcal/mol)

>  <smiles>  (38) 
CN1CCCC(C(=O)c2ccc3ccccc3c2)C1

>  <score_type>  (38) 
oracle

>  <origin>  (38) 
adg

>  <m_score__min__energy>  (38) 
-7.6100000000000003

>  <m_primary>  (38) 
energy

$$$$
38:0
     RDKit          3D

 33 35  0  0  0  0  0  0  0  0999 V2000
   -6.1210   16.9730  -31.6200 C   0  0  0  0  0  0  0  0  0  0  0  0
   -6.0230   17.2660  -33.0600 N   0  0  0  0  0  0  0  0  0  0  0  0
   -6.8750   18.4110  -33.4610 C   0  0  0  0  0  0  0  0  0  0  0  0
   -6.1100   19.7480  -33.5210 C   0  0  0  0  0  0  0  0  0  0  0  0
   -4.9920   19.7250  -32.5700 N   0  0  0  0  0  0  0  0  0  0  0  0
   -4.2660   21.3080  -32.4530 S   0  0  0  0  0  0  0  0  0  0  0  0
   -3.8760   21.7900  -33.8230 O   0  0  0  0  0  0  0  0  0  0  0  0
   -3.0400   21.2450  -31.5840 O   0  0  0  0  0  0  0  0  0  0  0  0
   -5.4140   22.4280  -31.7270 C   0  0  0  0  0  0  0  0  0  0  0  0
   -6.7970   22.1430  -31.6800 C   0  0  0  0  0  0  0  0  0  0  0  0
   -7.6980   23.0600  -31.0860 C   0  0  0  0  0  0  0  0  0  0  0  0
   -7.2290   24.2680  -30.5350 C   0  0  0  0  0  0  0  0  0  0  0  0
   -5.8620   24.5130  -30.6050 C   0  0  0  0  0  0  0  0  0  0  0  0
   -5.1710   25.5720  -30.1620 N   0  0  0  0  0  0  0  0  0  0  0  0
   -3.9270   25.3020  -30.4750 O   0  0  0  0  0  0  0  0  0  0  0  0
   -3.7610   24.1540  -31.0860 N   0  0  0  0  0  0  0  0  0  0  0  0
   -4.9960   23.6390  -31.1740 C   0  0  0  0  0  0  0  0  0  0  0  0
   -3.9800   18.7320  -32.9780 C   0  0  0  0  0  0  0  0  0  0  0  0
   -4.6220   17.4260  -33.4990 C   0  0  0  0  0  0  0  0  0  0  0  0
   -5.8238   17.8617  -31.0439 H   0  0  0  0  0  0  0  0  0  0  0  0
   -7.1580   16.7041  -31.3703 H   0  0  0  0  0  0  0  0  0  0  0  0
   -5.4545   16.1343  -31.3703 H   0  0  0  0  0  0  0  0  0  0  0  0
   -7.2934   18.2031  -34.4568 H   0  0  0  0  0  0  0  0  0  0  0  0
   -7.6586   18.5178  -32.6965 H   0  0  0  0  0  0  0  0  0  0  0  0
   -5.7207   19.9005  -34.5384 H   0  0  0  0  0  0  0  0  0  0  0  0
   -6.7932   20.5691  -33.2582 H   0  0  0  0  0  0  0  0  0  0  0  0
   -7.1762   21.2031  -32.1074 H   0  0  0  0  0  0  0  0  0  0  0  0
   -8.7725   22.8268  -31.0548 H   0  0  0  0  0  0  0  0  0  0  0  0
   -7.9163   24.9888  -30.0680 H   0  0  0  0  0  0  0  0  0  0  0  0
   -3.3600   19.1654  -33.7766 H   0  0  0  0  0  0  0  0  0  0  0  0
   -3.3755   18.4823  -32.0936 H   0  0  0  0  0  0  0  0  0  0  0  0
   -4.5965   17.4355  -34.5987 H   0  0  0  0  0  0  0  0  0  0  0  0
   -4.0460   16.5846  -33.0864 H   0  0  0  0  0  0  0  0  0  0  0  0
  1  2  1  0
  2  3  1  0
  3  4  1  0
  4  5  1  0
  5  6  1  0
  6  7  2  0
  6  8  2  0
  6  9  1  0
  9 10  2  0
 10 11  1  0
 11 12  2  0
 12 13  1  0
 13 14  2  0
 14 15  1  0
 15 16  1  0
 16 17  2  0
  5 18  1  0
 18 19  1  0
 19  2  1  0
 17  9  1  0
 17 13  1  0
  1 20  1  0
  1 21  1  0
  1 22  1  0
  3 23  1  0
  3 24  1  0
  4 25  1  0
  4 26  1  0
 10 27  1  0
 11 28  1  0
 12 29  1  0
 18 30  1  0
 18 31  1  0
 19 32  1  0
 19 33  1  0
M  END
>  <UniqueID>  (39) 
33

>  <SMILES>  (39) 
CN1CCN(S(=O)(=O)c2cccc3nonc23)CC1

>  <Energy>  (39) 
85.63381648586267

>  <Genealogy>  (39) 
CN1CCN(S(=O)(=O)c2cccc3nonc23)CC1 (3D coordinates assigned)
CN1CCN(S(=O)(=O)c2cccc3nonc23)CC1 (nonaromatic ring conformer: 85.63381648586267 kcal/mol)

>  <smiles>  (39) 
CN1CCN(S(=O)(=O)c2cccc3nonc23)CC1

>  <score_type>  (39) 
oracle

>  <origin>  (39) 
adg

>  <m_score__min__energy>  (39) 
-8.3599999999999994

>  <m_primary>  (39) 
energy

$$$$
39:0
     RDKit          3D

 32 34  0  0  0  0  0  0  0  0999 V2000
   -9.9507   21.7425  -31.2453 H   0  0  0  0  0  0  0  0  0  0  0  0
   -8.9270   21.8170  -31.6410 C   0  0  0  0  0  0  0  0  0  0  0  0
   -8.3760   23.0380  -31.7080 C   0  0  0  0  0  0  0  0  0  0  0  0
   -9.0301   23.8769  -31.9881 H   0  0  0  0  0  0  0  0  0  0  0  0
   -6.9580   23.3400  -31.4340 C   0  0  0  0  0  0  0  0  0  0  0  0
   -6.4320   23.5300  -30.2480 O   0  0  0  0  0  0  0  0  0  0  0  0
   -5.1610   23.7820  -30.4650 C   0  0  0  0  0  0  0  0  0  0  0  0
   -4.1770   24.0440  -29.4000 C   0  0  0  0  0  0  0  0  0  0  0  0
   -4.6050   24.2090  -28.0710 C   0  0  0  0  0  0  0  0  0  0  0  0
   -5.6763   24.1458  -27.8293 H   0  0  0  0  0  0  0  0  0  0  0  0
   -3.6760   24.4530  -27.0550 C   0  0  0  0  0  0  0  0  0  0  0  0
   -4.0178   24.5798  -26.0172 H   0  0  0  0  0  0  0  0  0  0  0  0
   -2.3140   24.5360  -27.3560 C   0  0  0  0  0  0  0  0  0  0  0  0
   -1.5849   24.7298  -26.5555 H   0  0  0  0  0  0  0  0  0  0  0  0
   -1.8780   24.3730  -28.6730 C   0  0  0  0  0  0  0  0  0  0  0  0
   -0.8054   24.4373  -28.9085 H   0  0  0  0  0  0  0  0  0  0  0  0
   -2.8040   24.1280  -29.6930 C   0  0  0  0  0  0  0  0  0  0  0  0
   -2.4565   24.0005  -30.7288 H   0  0  0  0  0  0  0  0  0  0  0  0
   -4.8770   23.7640  -31.7850 N   0  0  0  0  0  0  0  0  0  0  0  0
   -6.0210   23.4850  -32.3870 N   0  0  0  0  0  0  0  0  0  0  0  0
   -6.1480   23.3990  -33.4200 H   0  0  0  0  0  0  0  0  0  0  0  0
   -8.2640   20.5650  -32.0580 C   0  0  0  0  0  0  0  0  0  0  0  0
   -7.2050   20.5790  -32.9840 C   0  0  0  0  0  0  0  0  0  0  0  0
   -6.8494   21.5349  -33.3962 H   0  0  0  0  0  0  0  0  0  0  0  0
   -6.6030   19.3810  -33.3820 C   0  0  0  0  0  0  0  0  0  0  0  0
   -5.7620   19.3976  -34.0908 H   0  0  0  0  0  0  0  0  0  0  0  0
   -7.0690   18.1630  -32.8800 C   0  0  0  0  0  0  0  0  0  0  0  0
   -6.5893   17.2220  -33.1873 H   0  0  0  0  0  0  0  0  0  0  0  0
   -8.1450   18.1400  -31.9870 C   0  0  0  0  0  0  0  0  0  0  0  0
   -8.5175   17.1799  -31.6003 H   0  0  0  0  0  0  0  0  0  0  0  0
   -8.7480   19.3360  -31.5850 C   0  0  0  0  0  0  0  0  0  0  0  0
   -9.6048   19.3131  -30.8955 H   0  0  0  0  0  0  0  0  0  0  0  0
  1  2  1  0
  2  3  2  0
  3  4  1  0
  3  5  1  0
  5  6  1  0
  6  7  1  0
  7  8  1  0
  8  9  2  0
  9 10  1  0
  9 11  1  0
 11 12  1  0
 11 13  2  0
 13 14  1  0
 13 15  1  0
 15 16  1  0
 15 17  2  0
 17 18  1  0
  7 19  2  0
 19 20  1  0
 20 21  1  0
  2 22  1  0
 22 23  2  0
 23 24  1  0
 23 25  1  0
 25 26  1  0
 25 27  2  0
 27 28  1  0
 27 29  1  0
 29 30  1  0
 29 31  2  0
 31 32  1  0
 20  5  2  0
 31 22  1  0
 17  8  1  0
M  CHG  1  20   1
M  END
>  <UniqueID>  (40) 
34

>  <SMILES>  (40) 
C(=C\c1[nH+]nc(-c2ccccc2)o1)\c1ccccc1

>  <Energy>  (40) 
75.46898941081051

>  <Genealogy>  (40) 
C(=Cc1[nH+]nc(-c2ccccc2)o1)c1ccccc1 (protonated)
C(=C\c1[nH+]nc(-c2ccccc2)o1)\c1ccccc1 (cis-trans isomerization)
C(=C\c1[nH+]nc(-c2ccccc2)o1)\c1ccccc1 (3D coordinates assigned)
C(=C\c1[nH+]nc(-c2ccccc2)o1)\c1ccccc1 (optimized conformer: 75.46898941081051 kcal/mol)

>  <smiles>  (40) 
C(=Cc1nnc(-c2ccccc2)o1)c1ccccc1

>  <score_type>  (40) 
oracle

>  <origin>  (40) 
adg

>  <m_score__min__energy>  (40) 
-7.3899999999999997

>  <m_primary>  (40) 
energy

$$$$
40:0
     RDKit          3D

 59 63  0  0  0  0  0  0  0  0999 V2000
   -2.1100   25.3080  -28.9200 O   0  0  0  0  0  0  0  0  0  0  0  0
   -2.7860   24.6130  -29.7290 C   0  0  0  0  0  0  0  0  0  0  0  0
   -3.8420   25.2310  -30.4820 N   0  0  0  0  0  0  0  0  0  0  0  0
   -5.2400   25.3170  -30.0630 C   0  0  0  0  0  0  0  0  0  0  0  0
   -6.0630   24.1950  -30.6470 C   0  0  0  0  0  0  0  0  0  0  0  0
   -6.1710   24.0450  -32.0400 C   0  0  0  0  0  0  0  0  0  0  0  0
   -6.9760   23.0380  -32.5810 C   0  0  0  0  0  0  0  0  0  0  0  0
   -7.6650   22.1630  -31.7380 C   0  0  0  0  0  0  0  0  0  0  0  0
   -7.5410   22.2860  -30.3520 C   0  0  0  0  0  0  0  0  0  0  0  0
   -6.7370   23.2930  -29.8060 C   0  0  0  0  0  0  0  0  0  0  0  0
   -2.4520   23.1980  -29.9040 C   0  0  0  0  0  0  0  0  0  0  0  0
   -1.7740   22.4260  -28.9620 C   0  0  0  0  0  0  0  0  0  0  0  0
   -1.4160   21.1700  -29.4680 C   0  0  0  0  0  0  0  0  0  0  0  0
   -0.6830   20.1840  -28.8120 C   0  0  0  0  0  0  0  0  0  0  0  0
   -0.3240   20.3450  -27.6140 O   0  0  0  0  0  0  0  0  0  0  0  0
   -0.3750   19.0020  -29.5240 C   0  0  0  0  0  0  0  0  0  0  0  0
    0.4390   17.9090  -28.9390 C   0  0  0  0  0  0  0  0  0  0  0  0
    1.5860   17.4560  -29.6060 C   0  0  0  0  0  0  0  0  0  0  0  0
    2.3780   16.4570  -29.0390 C   0  0  0  0  0  0  0  0  0  0  0  0
    2.0250   15.9220  -27.8010 C   0  0  0  0  0  0  0  0  0  0  0  0
    0.9200   16.3770  -27.1530 N   0  0  0  0  0  0  0  0  0  0  0  0
    0.1330   17.3510  -27.6840 C   0  0  0  0  0  0  0  0  0  0  0  0
   -0.8440   18.8560  -30.8010 N   0  0  0  0  0  0  0  0  0  0  0  0
   -1.5570   19.8000  -31.4270 N   0  0  0  0  0  0  0  0  0  0  0  0
   -2.0230   19.5370  -32.7940 C   0  0  0  0  0  0  0  0  0  0  0  0
   -3.3270   18.7080  -32.7940 C   0  0  0  0  0  0  0  0  0  0  0  0
   -4.5100   19.4660  -32.1280 C   0  0  0  0  0  0  0  0  0  0  0  0
   -5.3440   20.2380  -33.1580 C   0  0  0  0  0  0  0  0  0  0  0  0
   -5.9750   19.2930  -34.2010 C   0  0  0  0  0  0  0  0  0  0  0  0
   -5.1590   18.0050  -34.4330 C   0  0  0  0  0  0  0  0  0  0  0  0
   -3.6580   18.2500  -34.2400 C   0  0  0  0  0  0  0  0  0  0  0  0
   -1.8270   20.9640  -30.7690 C   0  0  0  0  0  0  0  0  0  0  0  0
   -2.6230   22.3340  -31.3450 S   0  0  0  0  0  0  0  0  0  0  0  0
   -5.2881   25.2616  -28.9654 H   0  0  0  0  0  0  0  0  0  0  0  0
   -5.6507   26.2708  -30.4256 H   0  0  0  0  0  0  0  0  0  0  0  0
   -5.6196   24.7231  -32.7080 H   0  0  0  0  0  0  0  0  0  0  0  0
   -7.0669   22.9346  -33.6724 H   0  0  0  0  0  0  0  0  0  0  0  0
   -8.3052   21.3772  -32.1654 H   0  0  0  0  0  0  0  0  0  0  0  0
   -8.0761   21.5904  -29.6888 H   0  0  0  0  0  0  0  0  0  0  0  0
   -6.6322   23.3788  -28.7144 H   0  0  0  0  0  0  0  0  0  0  0  0
   -1.5466   22.7639  -27.9402 H   0  0  0  0  0  0  0  0  0  0  0  0
    1.8622   17.8892  -30.5787 H   0  0  0  0  0  0  0  0  0  0  0  0
    3.2737   16.0945  -29.5646 H   0  0  0  0  0  0  0  0  0  0  0  0
    2.6410   15.1311  -27.3482 H   0  0  0  0  0  0  0  0  0  0  0  0
    0.6780   15.9760  -26.2200 H   0  0  0  0  0  0  0  0  0  0  0  0
   -0.7483   17.7047  -27.1288 H   0  0  0  0  0  0  0  0  0  0  0  0
   -2.2083   20.4960  -33.2999 H   0  0  0  0  0  0  0  0  0  0  0  0
   -1.2467   18.9623  -33.3204 H   0  0  0  0  0  0  0  0  0  0  0  0
   -3.1671   17.8123  -32.1759 H   0  0  0  0  0  0  0  0  0  0  0  0
   -5.1582   18.7375  -31.6190 H   0  0  0  0  0  0  0  0  0  0  0  0
   -4.0927   20.1909  -31.4136 H   0  0  0  0  0  0  0  0  0  0  0  0
   -6.1463   20.7787  -32.6346 H   0  0  0  0  0  0  0  0  0  0  0  0
   -4.6783   20.9370  -33.6854 H   0  0  0  0  0  0  0  0  0  0  0  0
   -6.9800   19.0113  -33.8535 H   0  0  0  0  0  0  0  0  0  0  0  0
   -6.0029   19.8365  -35.1569 H   0  0  0  0  0  0  0  0  0  0  0  0
   -5.4910   17.2376  -33.7182 H   0  0  0  0  0  0  0  0  0  0  0  0
   -5.3247   17.6726  -35.4684 H   0  0  0  0  0  0  0  0  0  0  0  0
   -3.1154   17.3165  -34.4503 H   0  0  0  0  0  0  0  0  0  0  0  0
   -3.3520   19.0506  -34.9295 H   0  0  0  0  0  0  0  0  0  0  0  0
  1  2  2  0
  2  3  1  0
  3  4  1  0
  4  5  1  0
  5  6  2  0
  6  7  1  0
  7  8  2  0
  8  9  1  0
  9 10  2  0
  2 11  1  0
 11 12  2  0
 12 13  1  0
 13 14  1  0
 14 15  2  0
 14 16  1  0
 16 17  1  0
 17 18  2  0
 18 19  1  0
 19 20  2  0
 20 21  1  0
 21 22  2  0
 16 23  2  0
 23 24  1  0
 24 25  1  0
 25 26  1  0
 26 27  1  0
 27 28  1  0
 28 29  1  0
 29 30  1  0
 30 31  1  0
 24 32  1  0
 32 33  1  0
 10  5  1  0
 33 11  1  0
 32 13  2  0
 22 17  1  0
 31 26  1  0
  4 34  1  0
  4 35  1  0
  6 36  1  0
  7 37  1  0
  8 38  1  0
  9 39  1  0
 10 40  1  0
 12 41  1  0
 18 42  1  0
 19 43  1  0
 20 44  1  0
 21 45  1  0
 22 46  1  0
 25 47  1  0
 25 48  1  0
 26 49  1  0
 27 50  1  0
 27 51  1  0
 28 52  1  0
 28 53  1  0
 29 54  1  0
 29 55  1  0
 30 56  1  0
 30 57  1  0
 31 58  1  0
 31 59  1  0
M  CHG  2   3  -1  21   1
M  END
>  <UniqueID>  (41) 
35

>  <SMILES>  (41) 
O=C([N-]Cc1ccccc1)c1cc2c(=O)c(-c3ccc[nH+]c3)nn(CC3CCCCC3)c2s1

>  <Energy>  (41) 
106.21331559313951

>  <Genealogy>  (41) 
O=C([N-]Cc1ccccc1)c1cc2c(=O)c(-c3ccc[nH+]c3)nn(CC3CCCCC3)c2s1 (protonated)
O=C([N-]Cc1ccccc1)c1cc2c(=O)c(-c3ccc[nH+]c3)nn(CC3CCCCC3)c2s1 (3D coordinates assigned)
O=C([N-]Cc1ccccc1)c1cc2c(=O)c(-c3ccc[nH+]c3)nn(CC3CCCCC3)c2s1 (nonaromatic ring conformer: 106.21331559313951 kcal/mol)

>  <smiles>  (41) 
O=C(NCc1ccccc1)c1cc2c(=O)c(-c3cccnc3)nn(CC3CCCCC3)c2s1

>  <score_type>  (41) 
oracle

>  <origin>  (41) 
adg

>  <m_score__min__energy>  (41) 
-10.880000000000001

>  <m_primary>  (41) 
energy

$$$$
41:0
     RDKit          3D

 30 30  0  0  0  0  0  0  0  0999 V2000
   -6.2590   25.6730  -29.6490 C   0  0  0  0  0  0  0  0  0  0  0  0
   -6.2030   24.1550  -29.7770 C   0  0  0  0  0  0  0  0  0  0  0  0
   -5.3590   23.7570  -30.9450 C   0  0  0  0  0  0  0  0  0  0  0  0
   -4.3010   24.3940  -31.1950 O   0  0  0  0  0  0  0  0  0  0  0  0
   -5.7070   22.6140  -31.6780 O   0  0  0  0  0  0  0  0  0  0  0  0
   -7.0070   22.1040  -31.8210 C   0  0  0  0  0  0  0  0  0  0  0  0
   -8.1390   22.9420  -31.8260 C   0  0  0  0  0  0  0  0  0  0  0  0
   -9.4200   22.3970  -31.9570 C   0  0  0  0  0  0  0  0  0  0  0  0
   -9.5840   21.0160  -32.0790 C   0  0  0  0  0  0  0  0  0  0  0  0
   -8.4690   20.1760  -32.0590 C   0  0  0  0  0  0  0  0  0  0  0  0
   -7.1830   20.7120  -31.9130 C   0  0  0  0  0  0  0  0  0  0  0  0
   -5.7610   19.6110  -31.9010 S   0  0  0  0  0  0  0  0  0  0  0  0
   -5.0340   20.2330  -33.4630 C   0  0  0  0  0  0  0  0  0  0  0  0
   -3.6450   20.8260  -33.2340 C   0  0  0  0  0  0  0  0  0  0  0  0
   -3.6940   22.2850  -33.2310 N   0  0  0  0  0  0  0  0  0  0  0  0
   -6.2693   25.9511  -28.5848 H   0  0  0  0  0  0  0  0  0  0  0  0
   -5.3765   26.1147  -30.1349 H   0  0  0  0  0  0  0  0  0  0  0  0
   -7.1716   26.0485  -30.1349 H   0  0  0  0  0  0  0  0  0  0  0  0
   -5.7724   23.7302  -28.8582 H   0  0  0  0  0  0  0  0  0  0  0  0
   -7.2234   23.7738  -29.9301 H   0  0  0  0  0  0  0  0  0  0  0  0
   -8.0148   24.0304  -31.7264 H   0  0  0  0  0  0  0  0  0  0  0  0
  -10.2997   23.0573  -31.9639 H   0  0  0  0  0  0  0  0  0  0  0  0
  -10.5918   20.5896  -32.1909 H   0  0  0  0  0  0  0  0  0  0  0  0
   -8.6009   19.0885  -32.1583 H   0  0  0  0  0  0  0  0  0  0  0  0
   -4.9543   19.4002  -34.1772 H   0  0  0  0  0  0  0  0  0  0  0  0
   -5.6876   21.0247  -33.8579 H   0  0  0  0  0  0  0  0  0  0  0  0
   -3.2600   20.4768  -32.2645 H   0  0  0  0  0  0  0  0  0  0  0  0
   -2.9848   20.4988  -34.0508 H   0  0  0  0  0  0  0  0  0  0  0  0
   -3.6220   22.6130  -32.2400 H   0  0  0  0  0  0  0  0  0  0  0  0
   -4.6380   22.5740  -33.5730 H   0  0  0  0  0  0  0  0  0  0  0  0
  1  2  1  0
  2  3  1  0
  3  4  2  0
  3  5  1  0
  5  6  1  0
  6  7  2  0
  7  8  1  0
  8  9  2  0
  9 10  1  0
 10 11  2  0
 11 12  1  0
 12 13  1  0
 13 14  1  0
 14 15  1  0
 11  6  1  0
  1 16  1  0
  1 17  1  0
  1 18  1  0
  2 19  1  0
  2 20  1  0
  7 21  1  0
  8 22  1  0
  9 23  1  0
 10 24  1  0
 13 25  1  0
 13 26  1  0
 14 27  1  0
 14 28  1  0
 15 29  1  0
 15 30  1  0
M  END
>  <UniqueID>  (42) 
36

>  <SMILES>  (42) 
CCC(=O)Oc1ccccc1SCCN

>  <Energy>  (42) 
21.953344485430797

>  <Genealogy>  (42) 
CCC(=O)Oc1ccccc1SCCN (3D coordinates assigned)
CCC(=O)Oc1ccccc1SCCN (optimized conformer: 21.953344485430797 kcal/mol)

>  <smiles>  (42) 
CCC(=O)Oc1ccccc1SCCN

>  <score_type>  (42) 
oracle

>  <origin>  (42) 
adg

>  <m_score__min__energy>  (42) 
-5.5499999999999998

>  <m_primary>  (42) 
energy

$$$$
42:0
     RDKit          3D

 32 35  0  0  0  0  0  0  0  0999 V2000
   -7.8870   20.5570  -31.9470 C   0  0  0  0  0  0  0  0  0  0  0  0
   -7.4060   21.7870  -31.5010 C   0  0  0  0  0  0  0  0  0  0  0  0
   -6.0680   21.9060  -31.7280 N   0  0  0  0  0  0  0  0  0  0  0  0
   -5.2330   23.0910  -31.4800 C   0  0  0  0  0  0  0  0  0  0  0  0
   -4.2560   22.8740  -30.3120 C   0  0  0  0  0  0  0  0  0  0  0  0
   -3.4200   24.1520  -30.0600 C   0  0  0  0  0  0  0  0  0  0  0  0
   -3.9380   25.3040  -30.7110 O   0  0  0  0  0  0  0  0  0  0  0  0
   -5.3260   25.4230  -30.4690 C   0  0  0  0  0  0  0  0  0  0  0  0
   -6.1100   24.3280  -31.2190 C   0  0  0  0  0  0  0  0  0  0  0  0
   -5.7090   20.7610  -32.3500 C   0  0  0  0  0  0  0  0  0  0  0  0
   -4.4710   20.4330  -32.8410 N   0  0  0  0  0  0  0  0  0  0  0  0
   -4.3110   19.2210  -33.4680 C   0  0  0  0  0  0  0  0  0  0  0  0
   -5.3940   18.3980  -33.5830 N   0  0  0  0  0  0  0  0  0  0  0  0
   -5.5600   17.1910  -34.1400 C   0  0  0  0  0  0  0  0  0  0  0  0
   -6.8490   16.7930  -34.0130 N   0  0  0  0  0  0  0  0  0  0  0  0
   -7.5130   17.7520  -33.3710 N   0  0  0  0  0  0  0  0  0  0  0  0
   -6.6090   18.7140  -33.1200 C   0  0  0  0  0  0  0  0  0  0  0  0
   -6.7900   19.9270  -32.4830 C   0  0  0  0  0  0  0  0  0  0  0  0
   -8.9167   20.1753  -31.8838 H   0  0  0  0  0  0  0  0  0  0  0  0
   -8.0267   22.5616  -31.0269 H   0  0  0  0  0  0  0  0  0  0  0  0
   -4.6338   23.2613  -32.3866 H   0  0  0  0  0  0  0  0  0  0  0  0
   -4.8263   22.6295  -29.4037 H   0  0  0  0  0  0  0  0  0  0  0  0
   -3.5754   22.0481  -30.5662 H   0  0  0  0  0  0  0  0  0  0  0  0
   -3.3960   24.3448  -28.9773 H   0  0  0  0  0  0  0  0  0  0  0  0
   -2.4168   23.9698  -30.4729 H   0  0  0  0  0  0  0  0  0  0  0  0
   -5.5133   25.3249  -29.3895 H   0  0  0  0  0  0  0  0  0  0  0  0
   -5.6629   26.4062  -30.8291 H   0  0  0  0  0  0  0  0  0  0  0  0
   -6.9782   24.0301  -30.6128 H   0  0  0  0  0  0  0  0  0  0  0  0
   -6.4331   24.7350  -32.1885 H   0  0  0  0  0  0  0  0  0  0  0  0
   -3.6560   21.0770  -32.7600 H   0  0  0  0  0  0  0  0  0  0  0  0
   -3.3316   18.9204  -33.8686 H   0  0  0  0  0  0  0  0  0  0  0  0
   -4.7657   16.6080  -34.6291 H   0  0  0  0  0  0  0  0  0  0  0  0
  1  2  2  0
  2  3  1  0
  3  4  1  0
  4  5  1  0
  5  6  1  0
  6  7  1  0
  7  8  1  0
  8  9  1  0
  3 10  1  0
 10 11  1  0
 11 12  2  0
 12 13  1  0
 13 14  1  0
 14 15  2  0
 15 16  1  0
 16 17  2  0
 17 18  1  0
 18  1  1  0
  9  4  1  0
 18 10  2  0
 17 13  1  0
  1 19  1  0
  2 20  1  0
  4 21  1  0
  5 22  1  0
  5 23  1  0
  6 24  1  0
  6 25  1  0
  8 26  1  0
  8 27  1  0
  9 28  1  0
  9 29  1  0
 11 30  1  0
 12 31  1  0
 14 32  1  0
M  CHG  1  11   1
M  END
>  <UniqueID>  (43) 
37

>  <SMILES>  (43) 
c1cn(C2CCOCC2)c2[nH+]cn3cnnc3c12

>  <Energy>  (43) 
120.5478907052351

>  <Genealogy>  (43) 
c1cn(C2CCOCC2)c2[nH+]cn3cnnc3c12 (protonated)
c1cn(C2CCOCC2)c2[nH+]cn3cnnc3c12 (3D coordinates assigned)
c1cn(C2CCOCC2)c2[nH+]cn3cnnc3c12 (nonaromatic ring conformer: 120.5478907052351 kcal/mol)

>  <smiles>  (43) 
c1cn(C2CCOCC2)c2ncn3cnnc3c12

>  <score_type>  (43) 
oracle

>  <origin>  (43) 
adg

>  <m_score__min__energy>  (43) 
-7.04

>  <m_primary>  (43) 
energy

$$$$
43:0
     RDKit          3D

 42 43  0  0  0  0  0  0  0  0999 V2000
   -3.4350   23.4750  -30.1990 C   0  0  0  0  0  0  0  0  0  0  0  0
   -3.9820   24.8810  -30.4380 C   0  0  0  0  0  0  0  0  0  0  0  0
   -5.3350   24.8160  -31.0300 N   0  0  0  0  0  0  0  0  0  0  0  0
   -6.4050   24.7990  -29.9940 C   0  0  0  0  0  0  0  0  0  0  0  0
   -6.9860   23.3970  -29.7630 C   0  0  0  0  0  0  0  0  0  0  0  0
   -7.6160   22.8350  -31.0620 C   0  0  0  0  0  0  0  0  0  0  0  0
   -7.6210   21.3680  -31.0340 N   0  0  0  0  0  0  0  0  0  0  0  0
   -8.4620   20.5890  -31.9010 C   0  0  0  0  0  0  0  0  0  0  0  0
   -9.4500   21.1330  -32.4660 O   0  0  0  0  0  0  0  0  0  0  0  0
   -8.1910   19.1900  -32.1200 N   0  0  0  0  0  0  0  0  0  0  0  0
   -9.1210   18.1840  -31.5980 C   0  0  0  0  0  0  0  0  0  0  0  0
   -6.9820   18.7730  -32.7870 C   0  0  0  0  0  0  0  0  0  0  0  0
   -6.9050   17.5160  -33.4110 C   0  0  0  0  0  0  0  0  0  0  0  0
   -5.7270   17.1130  -34.0470 C   0  0  0  0  0  0  0  0  0  0  0  0
   -4.6150   17.9600  -34.0640 C   0  0  0  0  0  0  0  0  0  0  0  0
   -4.6810   19.2140  -33.4500 C   0  0  0  0  0  0  0  0  0  0  0  0
   -3.2860   20.2770  -33.4670 Cl  0  0  0  0  0  0  0  0  0  0  0  0
   -5.8620   19.6220  -32.8190 C   0  0  0  0  0  0  0  0  0  0  0  0
   -6.8820   23.3490  -32.3240 C   0  0  0  0  0  0  0  0  0  0  0  0
   -5.4260   23.7070  -32.0100 C   0  0  0  0  0  0  0  0  0  0  0  0
   -3.3625   23.2887  -29.1173 H   0  0  0  0  0  0  0  0  0  0  0  0
   -4.1113   22.7362  -30.6538 H   0  0  0  0  0  0  0  0  0  0  0  0
   -2.4372   23.3875  -30.6538 H   0  0  0  0  0  0  0  0  0  0  0  0
   -4.0317   25.4180  -29.4793 H   0  0  0  0  0  0  0  0  0  0  0  0
   -3.3139   25.4093  -31.1341 H   0  0  0  0  0  0  0  0  0  0  0  0
   -5.9829   25.1652  -29.0465 H   0  0  0  0  0  0  0  0  0  0  0  0
   -7.2228   25.4420  -30.3514 H   0  0  0  0  0  0  0  0  0  0  0  0
   -6.1808   22.7239  -29.4335 H   0  0  0  0  0  0  0  0  0  0  0  0
   -7.7703   23.4654  -28.9948 H   0  0  0  0  0  0  0  0  0  0  0  0
   -8.6540   23.1957  -31.1119 H   0  0  0  0  0  0  0  0  0  0  0  0
   -7.0050   20.8600  -30.3600 H   0  0  0  0  0  0  0  0  0  0  0  0
   -9.1029   18.2035  -30.4983 H   0  0  0  0  0  0  0  0  0  0  0  0
  -10.1384   18.4065  -31.9520 H   0  0  0  0  0  0  0  0  0  0  0  0
   -8.8194   17.1871  -31.9520 H   0  0  0  0  0  0  0  0  0  0  0  0
   -7.7768   16.8453  -33.3989 H   0  0  0  0  0  0  0  0  0  0  0  0
   -5.6751   16.1283  -34.5346 H   0  0  0  0  0  0  0  0  0  0  0  0
   -3.6875   17.6394  -34.5609 H   0  0  0  0  0  0  0  0  0  0  0  0
   -5.9140   20.6133  -32.3451 H   0  0  0  0  0  0  0  0  0  0  0  0
   -6.9005   22.5642  -33.0946 H   0  0  0  0  0  0  0  0  0  0  0  0
   -7.3945   24.2546  -32.6808 H   0  0  0  0  0  0  0  0  0  0  0  0
   -4.9224   22.8216  -31.5947 H   0  0  0  0  0  0  0  0  0  0  0  0
   -4.9431   24.0325  -32.9432 H   0  0  0  0  0  0  0  0  0  0  0  0
  1  2  1  0
  2  3  1  0
  3  4  1  0
  4  5  1  0
  5  6  1  0
  6  7  1  0
  7  8  1  0
  8  9  2  0
  8 10  1  0
 10 11  1  0
 10 12  1  0
 12 13  2  0
 13 14  1  0
 14 15  2  0
 15 16  1  0
 16 17  1  0
 16 18  2  0
  6 19  1  0
 19 20  1  0
 20  3  1  0
 18 12  1  0
  1 21  1  0
  1 22  1  0
  1 23  1  0
  2 24  1  0
  2 25  1  0
  4 26  1  0
  4 27  1  0
  5 28  1  0
  5 29  1  0
  6 30  1  0
  7 31  1  0
 11 32  1  0
 11 33  1  0
 11 34  1  0
 13 35  1  0
 14 36  1  0
 15 37  1  0
 18 38  1  0
 19 39  1  0
 19 40  1  0
 20 41  1  0
 20 42  1  0
M  END
>  <UniqueID>  (44) 
38

>  <SMILES>  (44) 
CCN1CCC(NC(=O)N(C)c2cccc(Cl)c2)CC1

>  <Energy>  (44) 
50.49134774795056

>  <Genealogy>  (44) 
CCN1CCC(NC(=O)N(C)c2cccc(Cl)c2)CC1 (3D coordinates assigned)
CCN1CCC(NC(=O)N(C)c2cccc(Cl)c2)CC1 (nonaromatic ring conformer: 50.49134774795056 kcal/mol)

>  <smiles>  (44) 
CCN1CCC(NC(=O)N(C)c2cccc(Cl)c2)CC1

>  <score_type>  (44) 
oracle

>  <origin>  (44) 
adg

>  <m_score__min__energy>  (44) 
-7.6699999999999999

>  <m_primary>  (44) 
energy

$$$$
44:0
     RDKit          3D

 36 37  0  0  0  0  0  0  0  0999 V2000
   -5.7220   26.5140  -30.6840 O   0  0  0  0  0  0  0  0  0  0  0  0
   -5.2290   25.3610  -30.5820 C   0  0  0  0  0  0  0  0  0  0  0  0
   -6.1480   24.1720  -30.6090 C   0  0  0  0  0  0  0  0  0  0  0  0
   -6.3250   23.6900  -31.9970 N   0  0  0  0  0  0  0  0  0  0  0  0
   -5.3440   22.6390  -32.3630 C   0  0  0  0  0  0  0  0  0  0  0  0
   -5.7050   21.2270  -31.8590 C   0  0  0  0  0  0  0  0  0  0  0  0
   -6.8920   20.5620  -32.5780 C   0  0  0  0  0  0  0  0  0  0  0  0
   -8.2660   20.8950  -31.9620 C   0  0  0  0  0  0  0  0  0  0  0  0
   -8.4500   22.3560  -31.4720 C   0  0  0  0  0  0  0  0  0  0  0  0
   -7.7550   23.4360  -32.3290 C   0  0  0  0  0  0  0  0  0  0  0  0
   -3.8110   25.2320  -30.4270 N   0  0  0  0  0  0  0  0  0  0  0  0
   -3.0960   24.2650  -29.6440 C   0  0  0  0  0  0  0  0  0  0  0  0
   -3.6470   23.0120  -29.3170 C   0  0  0  0  0  0  0  0  0  0  0  0
   -2.9090   22.0940  -28.5640 C   0  0  0  0  0  0  0  0  0  0  0  0
   -1.6070   22.4010  -28.1630 C   0  0  0  0  0  0  0  0  0  0  0  0
   -0.5920   21.1410  -27.1400 Br  0  0  0  0  0  0  0  0  0  0  0  0
   -1.0440   23.6300  -28.5140 C   0  0  0  0  0  0  0  0  0  0  0  0
   -1.7830   24.5560  -29.2570 C   0  0  0  0  0  0  0  0  0  0  0  0
   -5.7164   23.3660  -29.9974 H   0  0  0  0  0  0  0  0  0  0  0  0
   -7.1276   24.4682  -30.2058 H   0  0  0  0  0  0  0  0  0  0  0  0
   -5.2703   22.6043  -33.4600 H   0  0  0  0  0  0  0  0  0  0  0  0
   -4.3954   22.9124  -31.8778 H   0  0  0  0  0  0  0  0  0  0  0  0
   -4.8231   20.5826  -31.9893 H   0  0  0  0  0  0  0  0  0  0  0  0
   -6.0095   21.3447  -30.8086 H   0  0  0  0  0  0  0  0  0  0  0  0
   -6.8928   20.8963  -33.6260 H   0  0  0  0  0  0  0  0  0  0  0  0
   -6.7546   19.4750  -32.4798 H   0  0  0  0  0  0  0  0  0  0  0  0
   -9.0346   20.6949  -32.7231 H   0  0  0  0  0  0  0  0  0  0  0  0
   -8.3513   20.2656  -31.0639 H   0  0  0  0  0  0  0  0  0  0  0  0
   -9.5277   22.5758  -31.4581 H   0  0  0  0  0  0  0  0  0  0  0  0
   -7.9753   22.4046  -30.4809 H   0  0  0  0  0  0  0  0  0  0  0  0
   -7.8086   23.1210  -33.3816 H   0  0  0  0  0  0  0  0  0  0  0  0
   -8.2867   24.3766  -32.1225 H   0  0  0  0  0  0  0  0  0  0  0  0
   -4.6615   22.7541  -29.6550 H   0  0  0  0  0  0  0  0  0  0  0  0
   -3.3550   21.1275  -28.2867 H   0  0  0  0  0  0  0  0  0  0  0  0
   -0.0160   23.8703  -28.2050 H   0  0  0  0  0  0  0  0  0  0  0  0
   -1.3299   25.5180  -29.5387 H   0  0  0  0  0  0  0  0  0  0  0  0
  1  2  2  0
  2  3  1  0
  3  4  1  0
  4  5  1  0
  5  6  1  0
  6  7  1  0
  7  8  1  0
  8  9  1  0
  9 10  1  0
  2 11  1  0
 11 12  1  0
 12 13  2  0
 13 14  1  0
 14 15  2  0
 15 16  1  0
 15 17  1  0
 17 18  2  0
 10  4  1  0
 18 12  1  0
  3 19  1  0
  3 20  1  0
  5 21  1  0
  5 22  1  0
  6 23  1  0
  6 24  1  0
  7 25  1  0
  7 26  1  0
  8 27  1  0
  8 28  1  0
  9 29  1  0
  9 30  1  0
 10 31  1  0
 10 32  1  0
 13 33  1  0
 14 34  1  0
 17 35  1  0
 18 36  1  0
M  CHG  1  11  -1
M  END
>  <UniqueID>  (45) 
39

>  <SMILES>  (45) 
O=C(CN1CCCCCC1)[N-]c1ccc(Br)cc1

>  <Energy>  (45) 
54.38133321058883

>  <Genealogy>  (45) 
O=C(CN1CCCCCC1)[N-]c1ccc(Br)cc1 (protonated)
O=C(CN1CCCCCC1)[N-]c1ccc(Br)cc1 (3D coordinates assigned)
O=C(CN1CCCCCC1)[N-]c1ccc(Br)cc1 (nonaromatic ring conformer: 54.38133321058883 kcal/mol)

>  <smiles>  (45) 
O=C(CN1CCCCCC1)Nc1ccc(Br)cc1

>  <score_type>  (45) 
oracle

>  <origin>  (45) 
adg

>  <m_score__min__energy>  (45) 
-6.9500000000000002

>  <m_primary>  (45) 
energy

$$$$
45:0
     RDKit          3D

 37 38  0  0  0  0  0  0  0  0999 V2000
   -3.8630   23.2320  -27.4990 C   0  0  0  0  0  0  0  0  0  0  0  0
   -2.5750   22.5650  -28.0040 C   0  0  0  0  0  0  0  0  0  0  0  0
   -2.7980   21.3390  -28.8300 N   0  0  0  0  0  0  0  0  0  0  0  0
   -2.1070   20.1430  -28.2580 C   0  0  0  0  0  0  0  0  0  0  0  0
   -2.6290   19.7020  -26.8810 C   0  0  0  0  0  0  0  0  0  0  0  0
   -2.4450   21.5820  -30.2740 C   0  0  1  0  0  0  0  0  0  0  0  0
   -3.1730   20.6370  -31.2660 C   0  0  0  0  0  0  0  0  0  0  0  0
   -4.7010   20.7940  -31.1970 C   0  0  0  0  0  0  0  0  0  0  0  0
   -5.1530   22.2370  -31.1080 C   0  0  0  0  0  0  0  0  0  0  0  0
   -6.5230   22.5170  -31.2250 C   0  0  0  0  0  0  0  0  0  0  0  0
   -6.9940   23.8220  -31.0890 C   0  0  0  0  0  0  0  0  0  0  0  0
   -6.1050   24.8640  -30.8310 C   0  0  0  0  0  0  0  0  0  0  0  0
   -4.7370   24.6070  -30.7030 C   0  0  0  0  0  0  0  0  0  0  0  0
   -3.8690   25.6690  -30.4640 O   0  0  0  0  0  0  0  0  0  0  0  0
   -4.2490   23.2900  -30.8170 C   0  0  0  0  0  0  0  0  0  0  0  0
   -2.7620   23.0230  -30.7550 C   0  0  0  0  0  0  0  0  0  0  0  0
   -3.8677   23.2344  -26.3990 H   0  0  0  0  0  0  0  0  0  0  0  0
   -3.9089   24.2672  -27.8682 H   0  0  0  0  0  0  0  0  0  0  0  0
   -4.7349   22.6721  -27.8682 H   0  0  0  0  0  0  0  0  0  0  0  0
   -2.0254   23.2963  -28.6149 H   0  0  0  0  0  0  0  0  0  0  0  0
   -2.0161   22.2455  -27.1121 H   0  0  0  0  0  0  0  0  0  0  0  0
   -3.8230   21.1350  -28.7770 H   0  0  0  0  0  0  0  0  0  0  0  0
   -2.2353   19.3046  -28.9585 H   0  0  0  0  0  0  0  0  0  0  0  0
   -1.0542   20.4285  -28.1163 H   0  0  0  0  0  0  0  0  0  0  0  0
   -2.0439   20.1963  -26.0915 H   0  0  0  0  0  0  0  0  0  0  0  0
   -3.6879   19.9831  -26.7831 H   0  0  0  0  0  0  0  0  0  0  0  0
   -2.5287   18.6110  -26.7831 H   0  0  0  0  0  0  0  0  0  0  0  0
   -1.3614   21.3933  -30.2851 H   0  0  0  0  0  0  0  0  0  0  0  0
   -2.8382   20.8690  -32.2878 H   0  0  0  0  0  0  0  0  0  0  0  0
   -2.9257   19.6010  -30.9911 H   0  0  0  0  0  0  0  0  0  0  0  0
   -5.1389   20.3464  -32.1014 H   0  0  0  0  0  0  0  0  0  0  0  0
   -5.0385   20.2903  -30.2792 H   0  0  0  0  0  0  0  0  0  0  0  0
   -7.2314   21.6998  -31.4258 H   0  0  0  0  0  0  0  0  0  0  0  0
   -8.0699   24.0299  -31.1855 H   0  0  0  0  0  0  0  0  0  0  0  0
   -6.4813   25.8924  -30.7277 H   0  0  0  0  0  0  0  0  0  0  0  0
   -2.3347   23.1635  -31.7588 H   0  0  0  0  0  0  0  0  0  0  0  0
   -2.3226   23.7251  -30.0311 H   0  0  0  0  0  0  0  0  0  0  0  0
  1  2  1  0
  2  3  1  0
  3  4  1  0
  4  5  1  0
  3  6  1  0
  6  7  1  0
  7  8  1  0
  8  9  1  0
  9 10  2  0
 10 11  1  0
 11 12  2  0
 12 13  1  0
 13 14  1  0
 13 15  2  0
 15 16  1  0
 16  6  1  0
 15  9  1  0
  1 17  1  0
  1 18  1  0
  1 19  1  0
  2 20  1  0
  2 21  1  0
  3 22  1  0
  4 23  1  0
  4 24  1  0
  5 25  1  0
  5 26  1  0
  5 27  1  0
  6 28  1  1
  7 29  1  0
  7 30  1  0
  8 31  1  0
  8 32  1  0
 10 33  1  0
 11 34  1  0
 12 35  1  0
 16 36  1  0
 16 37  1  0
M  CHG  2   3   1  14  -1
M  END
>  <UniqueID>  (46) 
40

>  <SMILES>  (46) 
CC[NH+](CC)[C@H]1CCc2cccc([O-])c2C1

>  <Energy>  (46) 
49.1412239161876

>  <Genealogy>  (46) 
CC[NH+](CC)C1CCc2cccc([O-])c2C1 (protonated)
CC[NH+](CC)[C@H]1CCc2cccc([O-])c2C1 (chirality)
CC[NH+](CC)[C@H]1CCc2cccc([O-])c2C1 (3D coordinates assigned)
CC[NH+](CC)[C@H]1CCc2cccc([O-])c2C1 (nonaromatic ring conformer: 49.1412239161876 kcal/mol)

>  <smiles>  (46) 
CCN(CC)C1CCc2cccc(O)c2C1

>  <score_type>  (46) 
oracle

>  <origin>  (46) 
adg

>  <m_score__min__energy>  (46) 
-7.8600000000000003

>  <m_primary>  (46) 
energy

$$$$
46:0
     RDKit          3D

 40 43  0  0  0  0  0  0  0  0999 V2000
   -1.7660   19.0260  -33.6730 C   0  0  0  0  0  0  0  0  0  0  0  0
   -3.1350   18.7470  -33.6310 C   0  0  0  0  0  0  0  0  0  0  0  0
   -4.0590   19.7840  -33.4840 C   0  0  0  0  0  0  0  0  0  0  0  0
   -3.6180   21.1170  -33.3680 C   0  0  0  0  0  0  0  0  0  0  0  0
   -4.5730   22.1910  -33.2560 N   0  0  0  0  0  0  0  0  0  0  0  0
   -4.7360   22.5690  -31.8780 C   0  0  0  0  0  0  0  0  0  0  0  0
   -3.8210   23.1800  -31.1650 O   0  0  0  0  0  0  0  0  0  0  0  0
   -4.3350   23.3760  -29.9700 C   0  0  0  0  0  0  0  0  0  0  0  0
   -3.6170   24.0520  -28.8730 C   0  0  0  0  0  0  0  0  0  0  0  0
   -4.2410   24.2330  -27.6260 C   0  0  0  0  0  0  0  0  0  0  0  0
   -3.5640   24.8720  -26.5830 C   0  0  0  0  0  0  0  0  0  0  0  0
   -2.2600   25.3360  -26.7750 C   0  0  0  0  0  0  0  0  0  0  0  0
   -1.6300   25.1620  -28.0110 C   0  0  0  0  0  0  0  0  0  0  0  0
   -2.3040   24.5220  -29.0570 C   0  0  0  0  0  0  0  0  0  0  0  0
   -5.5950   22.8920  -29.8610 N   0  0  0  0  0  0  0  0  0  0  0  0
   -5.8440   22.3620  -31.0740 C   0  0  0  0  0  0  0  0  0  0  0  0
   -7.1180   21.6930  -31.4180 C   0  0  0  0  0  0  0  0  0  0  0  0
   -8.3530   22.3330  -31.2320 C   0  0  0  0  0  0  0  0  0  0  0  0
   -9.5320   21.6730  -31.5860 C   0  0  0  0  0  0  0  0  0  0  0  0
   -9.4820   20.4250  -32.1210 N   0  0  0  0  0  0  0  0  0  0  0  0
   -8.2990   19.7870  -32.3280 C   0  0  0  0  0  0  0  0  0  0  0  0
   -7.0970   20.4120  -31.9880 C   0  0  0  0  0  0  0  0  0  0  0  0
   -2.2390   21.3900  -33.4250 C   0  0  0  0  0  0  0  0  0  0  0  0
   -1.3190   20.3470  -33.5720 C   0  0  0  0  0  0  0  0  0  0  0  0
   -1.0407   18.2067  -33.7855 H   0  0  0  0  0  0  0  0  0  0  0  0
   -3.4857   17.7077  -33.7140 H   0  0  0  0  0  0  0  0  0  0  0  0
   -5.1354   19.5590  -33.4587 H   0  0  0  0  0  0  0  0  0  0  0  0
   -4.2310   23.0080  -33.8130 H   0  0  0  0  0  0  0  0  0  0  0  0
   -5.5010   21.8930  -33.6360 H   0  0  0  0  0  0  0  0  0  0  0  0
   -5.2676   23.8698  -27.4703 H   0  0  0  0  0  0  0  0  0  0  0  0
   -4.0584   25.0097  -25.6101 H   0  0  0  0  0  0  0  0  0  0  0  0
   -1.7288   25.8385  -25.9532 H   0  0  0  0  0  0  0  0  0  0  0  0
   -0.6038   25.5285  -28.1612 H   0  0  0  0  0  0  0  0  0  0  0  0
   -1.8048   24.3858  -30.0277 H   0  0  0  0  0  0  0  0  0  0  0  0
   -8.3923   23.3481  -30.8101 H   0  0  0  0  0  0  0  0  0  0  0  0
  -10.5036   22.1649  -31.4313 H   0  0  0  0  0  0  0  0  0  0  0  0
   -8.2887   18.7771  -32.7639 H   0  0  0  0  0  0  0  0  0  0  0  0
   -6.1389   19.9019  -32.1665 H   0  0  0  0  0  0  0  0  0  0  0  0
   -1.8829   22.4283  -33.3536 H   0  0  0  0  0  0  0  0  0  0  0  0
   -0.2417   20.5663  -33.6082 H   0  0  0  0  0  0  0  0  0  0  0  0
  1  2  2  0
  2  3  1  0
  3  4  2  0
  4  5  1  0
  5  6  1  0
  6  7  1  0
  7  8  1  0
  8  9  1  0
  9 10  2  0
 10 11  1  0
 11 12  2  0
 12 13  1  0
 13 14  2  0
  8 15  2  0
 15 16  1  0
 16 17  1  0
 17 18  2  0
 18 19  1  0
 19 20  2  0
 20 21  1  0
 21 22  2  0
  4 23  1  0
 23 24  2  0
 24  1  1  0
 16  6  2  0
 22 17  1  0
 14  9  1  0
  1 25  1  0
  2 26  1  0
  3 27  1  0
  5 28  1  0
  5 29  1  0
 10 30  1  0
 11 31  1  0
 12 32  1  0
 13 33  1  0
 14 34  1  0
 18 35  1  0
 19 36  1  0
 21 37  1  0
 22 38  1  0
 23 39  1  0
 24 40  1  0
M  CHG  1   5   1
M  END
>  <UniqueID>  (47) 
41

>  <SMILES>  (47) 
c1ccc([NH2+]c2oc(-c3ccccc3)nc2-c2ccncc2)cc1

>  <Energy>  (47) 
82.37395104948747

>  <Genealogy>  (47) 
c1ccc([NH2+]c2oc(-c3ccccc3)nc2-c2ccncc2)cc1 (protonated)
c1ccc([NH2+]c2oc(-c3ccccc3)nc2-c2ccncc2)cc1 (3D coordinates assigned)
c1ccc([NH2+]c2oc(-c3ccccc3)nc2-c2ccncc2)cc1 (optimized conformer: 82.37395104948747 kcal/mol)

>  <smiles>  (47) 
c1ccc(Nc2oc(-c3ccccc3)nc2-c2ccncc2)cc1

>  <score_type>  (47) 
oracle

>  <origin>  (47) 
adg

>  <m_score__min__energy>  (47) 
-7.5800000000000001

>  <m_primary>  (47) 
energy

$$$$
47:0
     RDKit          3D

 65 69  0  0  0  0  0  0  0  0999 V2000
    1.6310   28.0620  -22.9910 C   0  0  0  0  0  0  0  0  0  0  0  0
    1.2040   26.8150  -23.7480 C   0  0  0  0  0  0  0  0  0  0  0  0
   -0.1600   26.9450  -24.1430 O   0  0  0  0  0  0  0  0  0  0  0  0
   -0.7000   26.4100  -25.3220 C   0  0  0  0  0  0  0  0  0  0  0  0
   -0.3550   26.8910  -26.5980 C   0  0  0  0  0  0  0  0  0  0  0  0
   -0.9270   26.3240  -27.7430 C   0  0  0  0  0  0  0  0  0  0  0  0
   -1.8600   25.2770  -27.6330 C   0  0  0  0  0  0  0  0  0  0  0  0
   -2.4750   24.6980  -28.8480 C   0  0  0  0  0  0  0  0  0  0  0  0
   -1.7410   24.1360  -29.7070 O   0  0  0  0  0  0  0  0  0  0  0  0
   -3.8900   24.8190  -29.0820 N   0  0  0  0  0  0  0  0  0  0  0  0
   -4.5770   24.1260  -30.1370 C   0  0  0  0  0  0  0  0  0  0  0  0
   -5.6400   24.7310  -30.8250 C   0  0  0  0  0  0  0  0  0  0  0  0
   -6.3300   24.0350  -31.8160 C   0  0  0  0  0  0  0  0  0  0  0  0
   -5.9510   22.7340  -32.1630 C   0  0  0  0  0  0  0  0  0  0  0  0
   -4.7890   22.1260  -31.5360 C   0  0  0  0  0  0  0  0  0  0  0  0
   -4.1540   22.8400  -30.5030 C   0  0  0  0  0  0  0  0  0  0  0  0
   -4.2720   20.6970  -31.9670 C   0  0  1  0  0  0  0  0  0  0  0  0
   -2.7240   20.6900  -32.0400 C   0  0  0  0  0  0  0  0  0  0  0  0
   -4.7900   19.5340  -30.9990 C   0  0  0  0  0  0  0  0  0  0  0  0
   -5.9000   18.5220  -31.5590 C   0  0  0  0  0  0  0  0  0  0  0  0
   -6.7440   19.0450  -32.6990 N   0  0  0  0  0  0  0  0  0  0  0  0
   -8.1670   18.6340  -32.7120 C   0  0  0  0  0  0  0  0  0  0  0  0
   -9.0430   19.3230  -31.6460 C   0  0  0  0  0  0  0  0  0  0  0  0
   -9.5540   20.7250  -31.9380 C   0  0  0  0  0  0  0  0  0  0  0  0
   -8.3970   20.5280  -30.9730 C   0  0  0  0  0  0  0  0  0  0  0  0
   -6.3780   20.4180  -33.0920 C   0  0  1  0  0  0  0  0  0  0  0  0
   -6.8880   21.8940  -33.0920 C   0  0  0  0  0  0  0  0  0  0  0  0
   -4.8600   20.4670  -33.3670 C   0  0  2  0  0  0  0  0  0  0  0  0
   -4.3200   19.2610  -34.1720 C   0  0  0  0  0  0  0  0  0  0  0  0
   -2.1920   24.7940  -26.3560 C   0  0  0  0  0  0  0  0  0  0  0  0
   -1.6150   25.3570  -25.2130 C   0  0  0  0  0  0  0  0  0  0  0  0
    1.5667   27.8742  -21.9091 H   0  0  0  0  0  0  0  0  0  0  0  0
    2.6674   28.3162  -23.2581 H   0  0  0  0  0  0  0  0  0  0  0  0
    0.9680   28.8981  -23.2581 H   0  0  0  0  0  0  0  0  0  0  0  0
    1.8348   26.6937  -24.6410 H   0  0  0  0  0  0  0  0  0  0  0  0
    1.3163   25.9343  -23.0986 H   0  0  0  0  0  0  0  0  0  0  0  0
    0.3666   27.7154  -26.6965 H   0  0  0  0  0  0  0  0  0  0  0  0
   -0.6445   26.7004  -28.7372 H   0  0  0  0  0  0  0  0  0  0  0  0
   -4.4090   25.5740  -28.5800 H   0  0  0  0  0  0  0  0  0  0  0  0
   -5.9311   25.7631  -30.5801 H   0  0  0  0  0  0  0  0  0  0  0  0
   -7.1783   24.5120  -32.3287 H   0  0  0  0  0  0  0  0  0  0  0  0
   -3.3081   22.3798  -29.9714 H   0  0  0  0  0  0  0  0  0  0  0  0
   -2.3089   20.6881  -31.0213 H   0  0  0  0  0  0  0  0  0  0  0  0
   -2.3862   19.7903  -32.5752 H   0  0  0  0  0  0  0  0  0  0  0  0
   -2.3781   21.5866  -32.5752 H   0  0  0  0  0  0  0  0  0  0  0  0
   -3.9143   18.9326  -30.7138 H   0  0  0  0  0  0  0  0  0  0  0  0
   -5.2944   20.0659  -30.1788 H   0  0  0  0  0  0  0  0  0  0  0  0
   -5.3856   17.6142  -31.9073 H   0  0  0  0  0  0  0  0  0  0  0  0
   -6.5956   18.3463  -30.7251 H   0  0  0  0  0  0  0  0  0  0  0  0
   -8.5832   18.8692  -33.7027 H   0  0  0  0  0  0  0  0  0  0  0  0
   -8.1834   17.5584  -32.4820 H   0  0  0  0  0  0  0  0  0  0  0  0
   -9.5263   18.3900  -31.3206 H   0  0  0  0  0  0  0  0  0  0  0  0
   -9.3763   21.1805  -32.9233 H   0  0  0  0  0  0  0  0  0  0  0  0
  -10.5342   21.2213  -31.8846 H   0  0  0  0  0  0  0  0  0  0  0  0
   -7.3820   20.8399  -31.2601 H   0  0  0  0  0  0  0  0  0  0  0  0
   -8.1928   20.8216  -29.9328 H   0  0  0  0  0  0  0  0  0  0  0  0
   -7.4468   20.2987  -33.3232 H   0  0  0  0  0  0  0  0  0  0  0  0
   -6.8585   22.2983  -34.1146 H   0  0  0  0  0  0  0  0  0  0  0  0
   -7.9246   21.9382  -32.7267 H   0  0  0  0  0  0  0  0  0  0  0  0
   -4.5553   21.2680  -34.0566 H   0  0  0  0  0  0  0  0  0  0  0  0
   -3.9715   18.4828  -33.4771 H   0  0  0  0  0  0  0  0  0  0  0  0
   -5.1220   18.8544  -34.8056 H   0  0  0  0  0  0  0  0  0  0  0  0
   -3.4826   19.5885  -34.8056 H   0  0  0  0  0  0  0  0  0  0  0  0
   -2.9106   23.9674  -26.2545 H   0  0  0  0  0  0  0  0  0  0  0  0
   -1.8830   24.9685  -24.2194 H   0  0  0  0  0  0  0  0  0  0  0  0
  1  2  1  0
  2  3  1  0
  3  4  1  0
  4  5  2  0
  5  6  1  0
  6  7  2  0
  7  8  1  0
  8  9  2  0
  8 10  1  0
 10 11  1  0
 11 12  2  0
 12 13  1  0
 13 14  2  0
 14 15  1  0
 15 16  2  0
 15 17  1  0
 17 18  1  6
 17 19  1  0
 19 20  1  0
 20 21  1  0
 21 22  1  0
 22 23  1  0
 23 24  1  0
 24 25  1  0
 21 26  1  0
 26 27  1  0
 26 28  1  0
 28 29  1  0
  7 30  1  0
 30 31  2  0
 31  4  1  0
 16 11  1  0
 28 17  1  0
 27 14  1  0
 25 23  1  0
  1 32  1  0
  1 33  1  0
  1 34  1  0
  2 35  1  0
  2 36  1  0
  5 37  1  0
  6 38  1  0
 10 39  1  0
 12 40  1  0
 13 41  1  0
 16 42  1  0
 18 43  1  0
 18 44  1  0
 18 45  1  0
 19 46  1  0
 19 47  1  0
 20 48  1  0
 20 49  1  0
 22 50  1  0
 22 51  1  0
 23 52  1  0
 24 53  1  0
 24 54  1  0
 25 55  1  0
 25 56  1  0
 26 57  1  6
 27 58  1  0
 27 59  1  0
 28 60  1  6
 29 61  1  0
 29 62  1  0
 29 63  1  0
 30 64  1  0
 31 65  1  0
M  END
>  <UniqueID>  (48) 
42

>  <SMILES>  (48) 
CCOc1ccc(C(=O)Nc2ccc3c(c2)[C@@]2(C)CCN(CC4CC4)[C@H](C3)C2C)cc1

>  <Energy>  (48) 
486.3844871211118

>  <Genealogy>  (48) 
CCOc1ccc(C(=O)Nc2ccc3c(c2)[C@@]2(C)CCN(CC4CC4)[C@H](C3)C2C)cc1 (chirality)
CCOc1ccc(C(=O)Nc2ccc3c(c2)[C@@]2(C)CCN(CC4CC4)[C@H](C3)C2C)cc1 (3D coordinates assigned)
CCOc1ccc(C(=O)Nc2ccc3c(c2)[C@@]2(C)CCN(CC4CC4)[C@H](C3)C2C)cc1 (nonaromatic ring conformer: 486.3844871211118 kcal/mol)

>  <smiles>  (48) 
CCOc1ccc(C(=O)Nc2ccc3c(c2)C2(C)CCN(CC4CC4)C(C3)C2C)cc1

>  <score_type>  (48) 
oracle

>  <origin>  (48) 
adg

>  <m_score__min__energy>  (48) 
-8.8399999999999999

>  <m_primary>  (48) 
energy

$$$$
48:0
     RDKit          3D

 42 45  0  0  0  0  0  0  0  0999 V2000
   -4.5700   24.4042  -27.1541 H   0  0  0  0  0  0  0  0  0  0  0  0
   -3.5940   24.3810  -27.6610 C   0  0  0  0  0  0  0  0  0  0  0  0
   -3.4530   23.5950  -28.7360 C   0  0  0  0  0  0  0  0  0  0  0  0
   -2.7370   21.9490  -28.7360 S   0  0  0  0  0  0  0  0  0  0  0  0
   -2.9090   21.9600  -30.5330 C   0  0  0  0  0  0  0  0  0  0  0  0
   -2.5210   20.8240  -31.3140 N   0  0  0  0  0  0  0  0  0  0  0  0
   -2.0940   20.0020  -30.8320 H   0  0  0  0  0  0  0  0  0  0  0  0
   -2.7710   20.7240  -33.0650 S   0  0  0  0  0  0  0  0  0  0  0  0
   -4.0000   19.3830  -32.9330 C   0  0  0  0  0  0  0  0  0  0  0  0
   -4.0656   18.8578  -33.8973 H   0  0  0  0  0  0  0  0  0  0  0  0
   -3.6817   18.6899  -32.1403 H   0  0  0  0  0  0  0  0  0  0  0  0
   -5.3530   19.9320  -32.5780 C   0  0  0  0  0  0  0  0  0  0  0  0
   -6.4180   19.0660  -32.2800 C   0  0  0  0  0  0  0  0  0  0  0  0
   -6.2564   17.9779  -32.2834 H   0  0  0  0  0  0  0  0  0  0  0  0
   -7.6830   19.5810  -31.9790 C   0  0  0  0  0  0  0  0  0  0  0  0
   -8.5122   18.8979  -31.7428 H   0  0  0  0  0  0  0  0  0  0  0  0
   -7.8950   20.9640  -31.9780 C   0  0  0  0  0  0  0  0  0  0  0  0
   -9.4830   21.6080  -31.6030 Cl  0  0  0  0  0  0  0  0  0  0  0  0
   -6.8400   21.8320  -32.2800 C   0  0  0  0  0  0  0  0  0  0  0  0
   -7.0064   22.9193  -32.2797 H   0  0  0  0  0  0  0  0  0  0  0  0
   -5.5750   21.3200  -32.5820 C   0  0  0  0  0  0  0  0  0  0  0  0
   -4.7498   22.0060  -32.8238 H   0  0  0  0  0  0  0  0  0  0  0  0
   -3.4190   23.0290  -31.0620 N   0  0  0  0  0  0  0  0  0  0  0  0
   -3.5770   23.1660  -32.0840 H   0  0  0  0  0  0  0  0  0  0  0  0
   -3.7500   24.0080  -30.0960 C   0  0  0  0  0  0  0  0  0  0  0  0
   -4.2510   25.1230  -30.4070 O   0  0  0  0  0  0  0  0  0  0  0  0
   -2.5030   25.2180  -27.1230 C   0  0  0  0  0  0  0  0  0  0  0  0
   -1.5570   25.8360  -27.9640 C   0  0  0  0  0  0  0  0  0  0  0  0
   -1.6150   25.6690  -29.3430 O   0  0  0  0  0  0  0  0  0  0  0  0
   -0.5590   26.5890  -27.4290 N   0  0  0  0  0  0  0  0  0  0  0  0
   -0.4240   26.7560  -26.0870 C   0  0  0  0  0  0  0  0  0  0  0  0
    0.6170   27.5420  -25.5780 C   0  0  0  0  0  0  0  0  0  0  0  0
    1.3229   28.0319  -26.2648 H   0  0  0  0  0  0  0  0  0  0  0  0
    0.7590   27.7040  -24.1960 C   0  0  0  0  0  0  0  0  0  0  0  0
    1.5764   28.3227  -23.7971 H   0  0  0  0  0  0  0  0  0  0  0  0
   -0.1360   27.0810  -23.3200 C   0  0  0  0  0  0  0  0  0  0  0  0
   -0.0193   27.2103  -22.2339 H   0  0  0  0  0  0  0  0  0  0  0  0
   -1.1790   26.2940  -23.8200 C   0  0  0  0  0  0  0  0  0  0  0  0
   -1.8808   25.8058  -23.1278 H   0  0  0  0  0  0  0  0  0  0  0  0
   -1.3290   26.1280  -25.2050 C   0  0  0  0  0  0  0  0  0  0  0  0
   -2.3640   25.3480  -25.7360 C   0  0  0  0  0  0  0  0  0  0  0  0
   -3.0682   24.8372  -25.0628 H   0  0  0  0  0  0  0  0  0  0  0  0
  1  2  1  0
  2  3  2  0
  3  4  1  0
  4  5  1  0
  5  6  1  0
  6  7  1  0
  6  8  1  0
  8  9  1  0
  9 10  1  0
  9 11  1  0
  9 12  1  0
 12 13  2  0
 13 14  1  0
 13 15  1  0
 15 16  1  0
 15 17  2  0
 17 18  1  0
 17 19  1  0
 19 20  1  0
 19 21  2  0
 21 22  1  0
  5 23  2  0
 23 24  1  0
 23 25  1  0
 25 26  2  0
  2 27  1  0
 27 28  2  0
 28 29  1  0
 28 30  1  0
 30 31  2  0
 31 32  1  0
 32 33  1  0
 32 34  2  0
 34 35  1  0
 34 36  1  0
 36 37  1  0
 36 38  2  0
 38 39  1  0
 38 40  1  0
 40 41  2  0
 41 42  1  0
 25  3  1  0
 41 27  1  0
 21 12  1  0
 40 31  1  0
M  CHG  2  23   1  29  -1
M  END
>  <UniqueID>  (49) 
43

>  <SMILES>  (49) 
O=C1[NH+]=C(NSCc2ccc(Cl)cc2)S/C1=C\c1cc2ccccc2nc1[O-]

>  <Energy>  (49) 
70.55471643215529

>  <Genealogy>  (49) 
O=C1[NH+]=C(NSCc2ccc(Cl)cc2)SC1=Cc1cc2ccccc2nc1[O-] (protonated)
O=C1[NH+]=C(NSCc2ccc(Cl)cc2)S/C1=C\c1cc2ccccc2nc1[O-] (cis-trans isomerization)
O=C1[NH+]=C(NSCc2ccc(Cl)cc2)S/C1=C\c1cc2ccccc2nc1[O-] (3D coordinates assigned)
O=C1[NH+]=C(NSCc2ccc(Cl)cc2)S/C1=C\c1cc2ccccc2nc1[O-] (nonaromatic ring conformer: 70.55471643215529 kcal/mol)

>  <smiles>  (49) 
O=C1N=C(NSCc2ccc(Cl)cc2)SC1=Cc1cc2ccccc2nc1O

>  <score_type>  (49) 
oracle

>  <origin>  (49) 
adg

>  <m_score__min__energy>  (49) 
-12.42

>  <m_primary>  (49) 
energy

$$$$
