0:0
     RDKit          3D

 38 40  0  0  0  0  0  0  0  0999 V2000
   -4.7370   15.0090  -34.3530 C   0  0  0  0  0  0  0  0  0  0  0  0
   -5.0860   16.3410  -34.7120 O   0  0  0  0  0  0  0  0  0  0  0  0
   -5.8190   17.2150  -33.8940 C   0  0  0  0  0  0  0  0  0  0  0  0
   -6.9410   16.7220  -33.2220 C   0  0  0  0  0  0  0  0  0  0  0  0
   -7.6720   17.5350  -32.4160 N   0  0  0  0  0  0  0  0  0  0  0  0
   -7.3530   18.8430  -32.2390 C   0  0  0  0  0  0  0  0  0  0  0  0
   -6.2440   19.3980  -32.8970 C   0  0  0  0  0  0  0  0  0  0  0  0
   -5.8840   20.7800  -32.7060 N   0  0  0  0  0  0  0  0  0  0  0  0
   -4.5970   21.3680  -33.0600 C   0  0  0  0  0  0  0  0  0  0  0  0
   -4.5620   22.7340  -32.3270 C   0  0  2  0  0  0  0  0  0  0  0  0
   -3.9450   22.5010  -30.9230 C   0  0  0  0  0  0  0  0  0  0  0  0
   -3.5430   23.7830  -30.1770 C   0  0  0  0  0  0  0  0  0  0  0  0
   -4.5340   24.8580  -30.2740 N   0  0  0  0  0  0  0  0  0  0  0  0
   -5.9000   24.3930  -30.0180 C   0  0  0  0  0  0  0  0  0  0  0  0
   -6.6220   24.2210  -31.3520 C   0  0  0  0  0  0  0  0  0  0  0  0
   -6.0660   23.1450  -32.3270 C   0  0  2  0  0  0  0  0  0  0  0  0
   -6.7480   21.8260  -32.2780 C   0  0  0  0  0  0  0  0  0  0  0  0
   -7.9770   21.6650  -32.0550 O   0  0  0  0  0  0  0  0  0  0  0  0
   -5.4700   18.5660  -33.7210 C   0  0  0  0  0  0  0  0  0  0  0  0
   -4.7134   14.9189  -33.2570 H   0  0  0  0  0  0  0  0  0  0  0  0
   -5.4827   14.3116  -34.7623 H   0  0  0  0  0  0  0  0  0  0  0  0
   -3.7451   14.7669  -34.7623 H   0  0  0  0  0  0  0  0  0  0  0  0
   -7.2339   15.6691  -33.3466 H   0  0  0  0  0  0  0  0  0  0  0  0
   -7.9668   19.4710  -31.5765 H   0  0  0  0  0  0  0  0  0  0  0  0
   -3.7719   20.7254  -32.7190 H   0  0  0  0  0  0  0  0  0  0  0  0
   -4.4806   21.4809  -34.1480 H   0  0  0  0  0  0  0  0  0  0  0  0
   -3.9503   23.5305  -32.7757 H   0  0  0  0  0  0  0  0  0  0  0  0
   -4.6835   21.9646  -30.3090 H   0  0  0  0  0  0  0  0  0  0  0  0
   -3.0180   21.9306  -31.0820 H   0  0  0  0  0  0  0  0  0  0  0  0
   -3.4016   23.5363  -29.1144 H   0  0  0  0  0  0  0  0  0  0  0  0
   -2.6210   24.1531  -30.6491 H   0  0  0  0  0  0  0  0  0  0  0  0
   -4.2860   25.5800  -29.5570 H   0  0  0  0  0  0  0  0  0  0  0  0
   -5.8689   23.4296  -29.4881 H   0  0  0  0  0  0  0  0  0  0  0  0
   -6.4337   25.1279  -29.3974 H   0  0  0  0  0  0  0  0  0  0  0  0
   -7.6673   23.9591  -31.1312 H   0  0  0  0  0  0  0  0  0  0  0  0
   -6.4818   25.1780  -31.8759 H   0  0  0  0  0  0  0  0  0  0  0  0
   -6.2651   23.7630  -33.2150 H   0  0  0  0  0  0  0  0  0  0  0  0
   -4.5861   18.9729  -34.2339 H   0  0  0  0  0  0  0  0  0  0  0  0
  1  2  1  0
  2  3  1  0
  3  4  2  0
  4  5  1  0
  5  6  2  0
  6  7  1  0
  7  8  1  0
  8  9  1  0
  9 10  1  0
 10 11  1  0
 11 12  1  0
 12 13  1  0
 13 14  1  0
 14 15  1  0
 15 16  1  0
 16 17  1  0
 17 18  2  0
  7 19  2  0
 19  3  1  0
 17  8  1  0
 16 10  1  0
  1 20  1  0
  1 21  1  0
  1 22  1  0
  4 23  1  0
  6 24  1  0
  9 25  1  0
  9 26  1  0
 10 27  1  6
 11 28  1  0
 11 29  1  0
 12 30  1  0
 12 31  1  0
 13 32  1  0
 14 33  1  0
 14 34  1  0
 15 35  1  0
 15 36  1  0
 16 37  1  6
 19 38  1  0
M  END
>  <UniqueID>  (1) 
1

>  <SMILES>  (1) 
COc1cncc(N2C[C@@H]3CCNCC[C@@H]3C2=O)c1

>  <Energy>  (1) 
66.56370604315629

>  <Genealogy>  (1) 
COc1cncc(N2C[C@@H]3CCNCC[C@@H]3C2=O)c1 (chirality)
COc1cncc(N2C[C@@H]3CCNCC[C@@H]3C2=O)c1 (3D coordinates assigned)
COc1cncc(N2C[C@@H]3CCNCC[C@@H]3C2=O)c1 (nonaromatic ring conformer: 66.56370604315629 kcal/mol)

>  <smiles>  (1) 
COc1cncc(N2CC3CCNCCC3C2=O)c1

>  <score_type>  (1) 
oracle

>  <origin>  (1) 
adg

>  <m_score__min__energy>  (1) 
-5.8399999999999999

>  <m_primary>  (1) 
energy

$$$$
1:0
     RDKit          3D

 33 33  0  0  0  0  0  0  0  0999 V2000
   -0.4560   27.4780  -27.1050 C   0  0  0  0  0  0  0  0  0  0  0  0
   -1.4030   26.2850  -27.0760 C   0  0  0  0  0  0  0  0  0  0  0  0
   -1.5510   25.7270  -28.3810 O   0  0  0  0  0  0  0  0  0  0  0  0
   -0.9260   24.5440  -28.7870 C   0  0  0  0  0  0  0  0  0  0  0  0
    0.3160   24.3820  -28.6310 O   0  0  0  0  0  0  0  0  0  0  0  0
   -1.7500   23.4390  -29.3600 C   0  0  0  0  0  0  0  0  0  0  0  0
   -3.4810   23.8370  -29.2170 S   0  0  0  0  0  5  0  0  0  0  0  0
   -4.3930   22.4340  -29.3900 O   0  0  0  0  0  0  0  0  0  0  0  0
   -3.7890   24.5250  -27.7130 O   0  0  0  0  0  0  0  0  0  0  0  0
   -3.8780   24.8540  -30.3490 N   0  0  0  0  0  0  0  0  0  0  0  0
   -5.1230   24.7860  -31.0480 C   0  0  0  0  0  0  0  0  0  0  0  0
   -5.9790   25.6900  -30.8600 O   0  0  0  0  0  0  0  0  0  0  0  0
   -5.3700   23.7310  -31.9900 N   0  0  0  0  0  0  0  0  0  0  0  0
   -6.4840   22.8250  -31.9980 C   0  0  0  0  0  0  0  0  0  0  0  0
   -7.7630   23.2200  -31.5600 C   0  0  0  0  0  0  0  0  0  0  0  0
   -8.8210   22.3070  -31.5590 C   0  0  0  0  0  0  0  0  0  0  0  0
   -8.6130   20.9920  -31.9790 C   0  0  0  0  0  0  0  0  0  0  0  0
   -7.3430   20.5840  -32.3920 C   0  0  0  0  0  0  0  0  0  0  0  0
   -6.2780   21.4920  -32.3950 C   0  0  0  0  0  0  0  0  0  0  0  0
   -4.6890   20.9450  -32.9140 Cl  0  0  0  0  0  0  0  0  0  0  0  0
   -0.2158   27.7806  -26.0751 H   0  0  0  0  0  0  0  0  0  0  0  0
    0.4692   27.1990  -27.6304 H   0  0  0  0  0  0  0  0  0  0  0  0
   -0.9377   28.3158  -27.6304 H   0  0  0  0  0  0  0  0  0  0  0  0
   -0.9975   25.5184  -26.3993 H   0  0  0  0  0  0  0  0  0  0  0  0
   -2.3880   26.6237  -26.7223 H   0  0  0  0  0  0  0  0  0  0  0  0
   -1.4930   23.3048  -30.4211 H   0  0  0  0  0  0  0  0  0  0  0  0
   -1.5449   22.5102  -28.8076 H   0  0  0  0  0  0  0  0  0  0  0  0
   -4.9640   22.5970  -30.1830 H   0  0  0  0  0  0  0  0  0  0  0  0
   -3.6670   25.4990  -27.8470 H   0  0  0  0  0  0  0  0  0  0  0  0
   -7.9299   24.2518  -31.2172 H   0  0  0  0  0  0  0  0  0  0  0  0
   -9.8201   22.6253  -31.2265 H   0  0  0  0  0  0  0  0  0  0  0  0
   -9.4493   20.2775  -31.9846 H   0  0  0  0  0  0  0  0  0  0  0  0
   -7.1791   19.5457  -32.7160 H   0  0  0  0  0  0  0  0  0  0  0  0
  1  2  1  0
  2  3  1  0
  3  4  1  0
  4  5  2  0
  4  6  1  0
  6  7  1  0
  7  8  1  0
  7  9  1  0
  7 10  2  0
 10 11  1  0
 11 12  2  0
 11 13  1  0
 13 14  1  0
 14 15  2  0
 15 16  1  0
 16 17  2  0
 17 18  1  0
 18 19  2  0
 19 20  1  0
 19 14  1  0
  1 21  1  0
  1 22  1  0
  1 23  1  0
  2 24  1  0
  2 25  1  0
  6 26  1  0
  6 27  1  0
  8 28  1  0
  9 29  1  0
 15 30  1  0
 16 31  1  0
 17 32  1  0
 18 33  1  0
M  CHG  2   7   1  13  -1
M  END
>  <UniqueID>  (2) 
2

>  <SMILES>  (2) 
CCOC(=O)C[S+](O)(O)=NC(=O)[N-]c1ccccc1Cl

>  <Energy>  (2) 
24.255080420957437

>  <Genealogy>  (2) 
CCOC(=O)C[S+](O)(O)=NC(=O)[N-]c1ccccc1Cl (protonated)
CCOC(=O)C[S+](O)(O)=NC(=O)[N-]c1ccccc1Cl (3D coordinates assigned)
CCOC(=O)C[S+](O)(O)=NC(=O)[N-]c1ccccc1Cl (optimized conformer: 24.255080420957437 kcal/mol)

>  <smiles>  (2) 
CCOC(=O)C[S+]([O-])([O-])=NC(=O)Nc1ccccc1Cl

>  <score_type>  (2) 
oracle

>  <origin>  (2) 
adg

>  <m_score__min__energy>  (2) 
-7.5300000000000002

>  <m_primary>  (2) 
energy

$$$$
2:0
     RDKit          3D

 29 30  0  0  0  0  0  0  0  0999 V2000
  -10.3223   22.1116  -30.8724 H   0  0  0  0  0  0  0  0  0  0  0  0
   -9.4300   21.6710  -31.3410 C   0  0  0  0  0  0  0  0  0  0  0  0
   -9.5280   20.5350  -31.9620 N   0  0  0  0  0  0  0  0  0  0  0  0
   -8.4140   19.7010  -32.3010 C   0  0  0  0  0  0  0  0  0  0  0  0
   -8.2430   18.2820  -31.5000 S   0  0  0  0  0  0  0  0  0  0  0  0
   -7.6200   19.9690  -33.4710 N   0  0  0  0  0  0  0  0  0  0  0  0
   -8.1020   20.3780  -34.3020 H   0  0  0  0  0  0  0  0  0  0  0  0
   -6.2250   19.6400  -33.5910 C   0  0  0  0  0  0  0  0  0  0  0  0
   -5.2660   20.4670  -32.9850 C   0  0  0  0  0  0  0  0  0  0  0  0
   -5.5861   21.3670  -32.4395 H   0  0  0  0  0  0  0  0  0  0  0  0
   -3.9060   20.1530  -33.0710 C   0  0  0  0  0  0  0  0  0  0  0  0
   -3.1602   20.8117  -32.6020 H   0  0  0  0  0  0  0  0  0  0  0  0
   -3.4920   19.0050  -33.7510 C   0  0  0  0  0  0  0  0  0  0  0  0
   -1.6350   18.5760  -33.8650 Br  0  0  0  0  0  0  0  0  0  0  0  0
   -4.4410   18.1630  -34.3400 C   0  0  0  0  0  0  0  0  0  0  0  0
   -4.1161   17.2552  -34.8695 H   0  0  0  0  0  0  0  0  0  0  0  0
   -5.8020   18.4730  -34.2570 C   0  0  0  0  0  0  0  0  0  0  0  0
   -6.5453   17.8029  -34.7136 H   0  0  0  0  0  0  0  0  0  0  0  0
   -8.1370   22.3800  -31.2550 C   0  0  0  0  0  0  0  0  0  0  0  0
   -7.6380   23.1310  -32.3360 C   0  0  0  0  0  0  0  0  0  0  0  0
   -8.2161   23.1983  -33.2694 H   0  0  0  0  0  0  0  0  0  0  0  0
   -6.4100   23.7920  -32.2280 C   0  0  0  0  0  0  0  0  0  0  0  0
   -6.0242   24.3763  -33.0764 H   0  0  0  0  0  0  0  0  0  0  0  0
   -5.6730   23.7110  -31.0440 C   0  0  0  0  0  0  0  0  0  0  0  0
   -4.7084   24.2330  -30.9602 H   0  0  0  0  0  0  0  0  0  0  0  0
   -6.1600   22.9680  -29.9670 C   0  0  0  0  0  0  0  0  0  0  0  0
   -5.4420   22.8890  -28.8190 F   0  0  0  0  0  0  0  0  0  0  0  0
   -7.3870   22.3050  -30.0700 C   0  0  0  0  0  0  0  0  0  0  0  0
   -7.7667   21.7216  -29.2183 H   0  0  0  0  0  0  0  0  0  0  0  0
  1  2  1  0
  2  3  2  0
  3  4  1  0
  4  5  2  0
  4  6  1  0
  6  7  1  0
  6  8  1  0
  8  9  2  0
  9 10  1  0
  9 11  1  0
 11 12  1  0
 11 13  2  0
 13 14  1  0
 13 15  1  0
 15 16  1  0
 15 17  2  0
 17 18  1  0
  2 19  1  0
 19 20  2  0
 20 21  1  0
 20 22  1  0
 22 23  1  0
 22 24  2  0
 24 25  1  0
 24 26  1  0
 26 27  1  0
 26 28  2  0
 28 29  1  0
 17  8  1  0
 28 19  1  0
M  END
>  <UniqueID>  (3) 
3

>  <SMILES>  (3) 
Fc1cccc(/C=N/C(=S)Nc2ccc(Br)cc2)c1

>  <Energy>  (3) 
34.921817076435

>  <Genealogy>  (3) 
Fc1cccc(/C=N/C(=S)Nc2ccc(Br)cc2)c1 (cis-trans isomerization)
Fc1cccc(/C=N/C(=S)Nc2ccc(Br)cc2)c1 (3D coordinates assigned)
Fc1cccc(/C=N/C(=S)Nc2ccc(Br)cc2)c1 (optimized conformer: 34.921817076435 kcal/mol)

>  <smiles>  (3) 
Fc1cccc(C=NC(=S)Nc2ccc(Br)cc2)c1

>  <score_type>  (3) 
oracle

>  <origin>  (3) 
adg

>  <m_score__min__energy>  (3) 
-7.7400000000000002

>  <m_primary>  (3) 
energy

$$$$
3:0
     RDKit          3D

 44 45  0  0  0  0  0  0  0  0999 V2000
    0.9950   21.4350  -34.8270 C   0  0  0  0  0  0  0  0  0  0  0  0
    0.3650   21.5430  -33.5560 O   0  0  0  0  0  0  0  0  0  0  0  0
   -0.9650   21.1800  -33.2980 C   0  0  0  0  0  0  0  0  0  0  0  0
   -1.6800   21.6700  -32.1880 C   0  0  0  0  0  0  0  0  0  0  0  0
   -3.0040   21.2790  -31.9740 C   0  0  0  0  0  0  0  0  0  0  0  0
   -3.6390   20.3900  -32.8580 C   0  0  0  0  0  0  0  0  0  0  0  0
   -5.0450   19.9780  -32.6250 C   0  0  0  0  0  0  0  0  0  0  0  0
   -5.5180   18.7540  -33.1100 C   0  0  0  0  0  0  0  0  0  0  0  0
   -6.8320   18.3830  -32.8600 C   0  0  0  0  0  0  0  0  0  0  0  0
   -7.6560   19.2320  -32.1270 C   0  0  0  0  0  0  0  0  0  0  0  0
   -8.8450   18.8820  -31.8930 O   0  0  0  0  0  0  0  0  0  0  0  0
   -7.1650   20.4270  -31.6660 N   0  0  0  0  0  0  0  0  0  0  0  0
   -8.0030   21.3410  -30.8720 C   0  0  0  0  0  0  0  0  0  0  0  0
   -8.3520   22.6170  -31.6540 C   0  0  0  0  0  0  0  0  0  0  0  0
   -7.3980   23.7950  -31.3730 C   0  0  0  0  0  0  0  0  0  0  0  0
   -6.1770   23.7950  -32.3010 C   0  0  0  0  0  0  0  0  0  0  0  0
   -4.9630   23.5030  -31.5470 N   0  0  0  0  0  0  0  0  0  0  0  0
   -4.5270   24.2700  -30.4190 C   0  0  0  0  0  0  0  0  0  0  0  0
   -4.8650   23.8110  -29.0420 C   0  0  0  0  0  0  0  0  0  0  0  0
   -3.8170   25.2990  -30.5800 O   0  0  0  0  0  0  0  0  0  0  0  0
   -5.8950   20.7810  -31.9190 N   0  0  0  0  0  0  0  0  0  0  0  0
   -2.9210   19.9020  -33.9630 C   0  0  0  0  0  0  0  0  0  0  0  0
   -1.5970   20.2950  -34.1780 C   0  0  0  0  0  0  0  0  0  0  0  0
    2.0706   21.2506  -34.6886 H   0  0  0  0  0  0  0  0  0  0  0  0
    0.5490   20.6002  -35.3876 H   0  0  0  0  0  0  0  0  0  0  0  0
    0.8525   22.3707  -35.3876 H   0  0  0  0  0  0  0  0  0  0  0  0
   -1.1938   22.3637  -31.4864 H   0  0  0  0  0  0  0  0  0  0  0  0
   -3.5544   21.6705  -31.1058 H   0  0  0  0  0  0  0  0  0  0  0  0
   -4.8542   18.0912  -33.6846 H   0  0  0  0  0  0  0  0  0  0  0  0
   -7.2191   17.4254  -33.2383 H   0  0  0  0  0  0  0  0  0  0  0  0
   -8.9349   20.8240  -30.5995 H   0  0  0  0  0  0  0  0  0  0  0  0
   -7.4369   21.6328  -29.9751 H   0  0  0  0  0  0  0  0  0  0  0  0
   -8.3133   22.3873  -32.7290 H   0  0  0  0  0  0  0  0  0  0  0  0
   -9.3549   22.9301  -31.3283 H   0  0  0  0  0  0  0  0  0  0  0  0
   -7.9488   24.7366  -31.5144 H   0  0  0  0  0  0  0  0  0  0  0  0
   -7.0334   23.6914  -30.3404 H   0  0  0  0  0  0  0  0  0  0  0  0
   -6.3133   23.0291  -33.0787 H   0  0  0  0  0  0  0  0  0  0  0  0
   -6.0797   24.7893  -32.7613 H   0  0  0  0  0  0  0  0  0  0  0  0
   -4.3800   24.4697  -28.3065 H   0  0  0  0  0  0  0  0  0  0  0  0
   -5.9555   23.8448  -28.9015 H   0  0  0  0  0  0  0  0  0  0  0  0
   -4.5090   22.7797  -28.9015 H   0  0  0  0  0  0  0  0  0  0  0  0
   -5.5480   21.7060  -31.5790 H   0  0  0  0  0  0  0  0  0  0  0  0
   -3.4045   19.2056  -34.6639 H   0  0  0  0  0  0  0  0  0  0  0  0
   -1.0470   19.9049  -35.0471 H   0  0  0  0  0  0  0  0  0  0  0  0
  1  2  1  0
  2  3  1  0
  3  4  2  0
  4  5  1  0
  5  6  2  0
  6  7  1  0
  7  8  1  0
  8  9  2  0
  9 10  1  0
 10 11  2  0
 10 12  1  0
 12 13  1  0
 13 14  1  0
 14 15  1  0
 15 16  1  0
 16 17  1  0
 17 18  1  0
 18 19  1  0
 18 20  2  0
 12 21  1  0
  6 22  1  0
 22 23  2  0
 23  3  1  0
 21  7  2  0
  1 24  1  0
  1 25  1  0
  1 26  1  0
  4 27  1  0
  5 28  1  0
  8 29  1  0
  9 30  1  0
 13 31  1  0
 13 32  1  0
 14 33  1  0
 14 34  1  0
 15 35  1  0
 15 36  1  0
 16 37  1  0
 16 38  1  0
 19 39  1  0
 19 40  1  0
 19 41  1  0
 21 42  1  0
 22 43  1  0
 23 44  1  0
M  CHG  2  17  -1  21   1
M  END
>  <UniqueID>  (4) 
4

>  <SMILES>  (4) 
COc1ccc(-c2ccc(=O)n(CCCC[N-]C(C)=O)[nH+]2)cc1

>  <Energy>  (4) 
42.12025617918884

>  <Genealogy>  (4) 
COc1ccc(-c2ccc(=O)n(CCCC[N-]C(C)=O)[nH+]2)cc1 (protonated)
COc1ccc(-c2ccc(=O)n(CCCC[N-]C(C)=O)[nH+]2)cc1 (3D coordinates assigned)
COc1ccc(-c2ccc(=O)n(CCCC[N-]C(C)=O)[nH+]2)cc1 (optimized conformer: 42.12025617918884 kcal/mol)

>  <smiles>  (4) 
COc1ccc(-c2ccc(=O)n(CCCCNC(C)=O)n2)cc1

>  <score_type>  (4) 
oracle

>  <origin>  (4) 
adg

>  <m_score__min__energy>  (4) 
-8.5099999999999998

>  <m_primary>  (4) 
energy

$$$$
4:0
     RDKit          3D

 66 68  0  0  0  0  0  0  0  0999 V2000
    1.9450   23.6150  -35.7210 C   0  0  0  0  0  0  0  0  0  0  0  0
    0.6730   23.0500  -35.4230 O   0  0  0  0  0  0  0  0  0  0  0  0
    0.4470   21.6900  -35.1690 C   0  0  0  0  0  0  0  0  0  0  0  0
    0.6160   20.7840  -36.2180 C   0  0  0  0  0  0  0  0  0  0  0  0
    0.4060   19.4200  -36.0200 C   0  0  0  0  0  0  0  0  0  0  0  0
    0.0420   18.9270  -34.7540 C   0  0  0  0  0  0  0  0  0  0  0  0
   -0.1690   17.4330  -34.5570 C   0  0  0  0  0  0  0  0  0  0  0  0
   -1.3730   17.0790  -33.7580 N   0  0  1  0  0  0  0  0  0  0  0  0
   -2.5780   17.8770  -34.1300 C   0  0  0  0  0  0  0  0  0  0  0  0
   -3.6370   17.0510  -34.8770 C   0  0  0  0  0  0  0  0  0  0  0  0
   -4.1090   15.8420  -34.0300 C   0  0  2  0  0  0  0  0  0  0  0  0
   -5.3380   16.1930  -33.2310 C   0  0  0  0  0  0  0  0  0  0  0  0
   -5.4110   15.8830  -32.0110 O   0  0  0  0  0  0  0  0  0  0  0  0
   -6.3970   16.9250  -33.8510 N   0  0  0  0  0  0  0  0  0  0  0  0
   -6.7640   18.2760  -33.4490 C   0  0  0  0  0  0  0  0  0  0  0  0
   -5.8390   19.2890  -34.1240 C   0  0  0  0  0  0  0  0  0  0  0  0
   -4.7260   19.6530  -33.2130 N   0  0  0  0  0  0  0  0  0  0  0  0
   -5.0370   19.2610  -31.8280 C   0  0  0  0  0  0  0  0  0  0  0  0
   -4.4230   21.1000  -33.2680 C   0  0  0  0  0  0  0  0  0  0  0  0
   -5.3700   21.8780  -32.3880 C   0  0  0  0  0  0  0  0  0  0  0  0
   -4.8800   22.8820  -31.5350 C   0  0  0  0  0  0  0  0  0  0  0  0
   -5.7550   23.5920  -30.7070 C   0  0  0  0  0  0  0  0  0  0  0  0
   -7.1270   23.3140  -30.7330 C   0  0  0  0  0  0  0  0  0  0  0  0
   -7.6210   22.3090  -31.5730 C   0  0  0  0  0  0  0  0  0  0  0  0
   -9.4860   21.8930  -31.5740 Br  0  0  0  0  0  0  0  0  0  0  0  0
   -6.7480   21.5980  -32.4040 C   0  0  0  0  0  0  0  0  0  0  0  0
   -2.9890   15.2940  -33.1120 C   0  0  0  0  0  0  0  0  0  0  0  0
   -1.6070   15.6110  -33.6960 C   0  0  0  0  0  0  0  0  0  0  0  0
   -0.1670   19.8360  -33.6920 C   0  0  0  0  0  0  0  0  0  0  0  0
   -0.5930   19.3420  -32.4490 O   0  0  0  0  0  0  0  0  0  0  0  0
   -1.2410   20.1180  -31.4450 C   0  0  0  0  0  0  0  0  0  0  0  0
    0.0490   21.2130  -33.9050 C   0  0  0  0  0  0  0  0  0  0  0  0
    2.4711   23.8487  -34.7837 H   0  0  0  0  0  0  0  0  0  0  0  0
    2.5380   22.8957  -36.3048 H   0  0  0  0  0  0  0  0  0  0  0  0
    1.8089   24.5373  -36.3048 H   0  0  0  0  0  0  0  0  0  0  0  0
    0.9178   21.1501  -37.2104 H   0  0  0  0  0  0  0  0  0  0  0  0
    0.5262   18.7226  -36.8621 H   0  0  0  0  0  0  0  0  0  0  0  0
   -0.2653   16.9662  -35.5484 H   0  0  0  0  0  0  0  0  0  0  0  0
    0.7002   17.0667  -33.9911 H   0  0  0  0  0  0  0  0  0  0  0  0
   -1.1370   17.3660  -32.7780 H   0  0  0  0  0  0  0  0  0  0  0  0
   -2.2618   18.7089  -34.7766 H   0  0  0  0  0  0  0  0  0  0  0  0
   -3.0373   18.2346  -33.1966 H   0  0  0  0  0  0  0  0  0  0  0  0
   -3.2047   16.6818  -35.8187 H   0  0  0  0  0  0  0  0  0  0  0  0
   -4.5054   17.6968  -35.0741 H   0  0  0  0  0  0  0  0  0  0  0  0
   -4.3685   15.0374  -34.7338 H   0  0  0  0  0  0  0  0  0  0  0  0
   -7.8036   18.4757  -33.7478 H   0  0  0  0  0  0  0  0  0  0  0  0
   -6.6667   18.3680  -32.3572 H   0  0  0  0  0  0  0  0  0  0  0  0
   -5.4265   18.8481  -35.0435 H   0  0  0  0  0  0  0  0  0  0  0  0
   -6.4146   20.1943  -34.3671 H   0  0  0  0  0  0  0  0  0  0  0  0
   -4.5082   19.9275  -31.1308 H   0  0  0  0  0  0  0  0  0  0  0  0
   -6.1212   19.3396  -31.6593 H   0  0  0  0  0  0  0  0  0  0  0  0
   -4.7139   18.2231  -31.6593 H   0  0  0  0  0  0  0  0  0  0  0  0
   -3.3916   21.2661  -32.9237 H   0  0  0  0  0  0  0  0  0  0  0  0
   -4.5399   21.4462  -34.3055 H   0  0  0  0  0  0  0  0  0  0  0  0
   -3.8040   23.1101  -31.5187 H   0  0  0  0  0  0  0  0  0  0  0  0
   -5.3649   24.3700  -30.0343 H   0  0  0  0  0  0  0  0  0  0  0  0
   -7.8164   23.8850  -30.0937 H   0  0  0  0  0  0  0  0  0  0  0  0
   -7.1410   20.8174  -33.0720 H   0  0  0  0  0  0  0  0  0  0  0  0
   -3.1000   14.2037  -33.0181 H   0  0  0  0  0  0  0  0  0  0  0  0
   -3.0745   15.7723  -32.1251 H   0  0  0  0  0  0  0  0  0  0  0  0
   -1.5426   15.1942  -34.7119 H   0  0  0  0  0  0  0  0  0  0  0  0
   -0.8423   15.1636  -33.0440 H   0  0  0  0  0  0  0  0  0  0  0  0
   -0.9393   19.7568  -30.4508 H   0  0  0  0  0  0  0  0  0  0  0  0
   -0.9526   21.1738  -31.5546 H   0  0  0  0  0  0  0  0  0  0  0  0
   -2.3314   20.0225  -31.5546 H   0  0  0  0  0  0  0  0  0  0  0  0
   -0.0947   21.9215  -33.0760 H   0  0  0  0  0  0  0  0  0  0  0  0
  1  2  1  0
  2  3  1  0
  3  4  2  0
  4  5  1  0
  5  6  2  0
  6  7  1  0
  7  8  1  0
  8  9  1  0
  9 10  1  0
 10 11  1  0
 11 12  1  0
 12 13  2  0
 12 14  1  0
 14 15  1  0
 15 16  1  0
 16 17  1  0
 17 18  1  0
 17 19  1  0
 19 20  1  0
 20 21  2  0
 21 22  1  0
 22 23  2  0
 23 24  1  0
 24 25  1  0
 24 26  2  0
 11 27  1  0
 27 28  1  0
  6 29  1  0
 29 30  1  0
 30 31  1  0
 29 32  2  0
 32  3  1  0
 28  8  1  0
 26 20  1  0
  1 33  1  0
  1 34  1  0
  1 35  1  0
  4 36  1  0
  5 37  1  0
  7 38  1  0
  7 39  1  0
  8 40  1  1
  9 41  1  0
  9 42  1  0
 10 43  1  0
 10 44  1  0
 11 45  1  6
 15 46  1  0
 15 47  1  0
 16 48  1  0
 16 49  1  0
 18 50  1  0
 18 51  1  0
 18 52  1  0
 19 53  1  0
 19 54  1  0
 21 55  1  0
 22 56  1  0
 23 57  1  0
 26 58  1  0
 27 59  1  0
 27 60  1  0
 28 61  1  0
 28 62  1  0
 31 63  1  0
 31 64  1  0
 31 65  1  0
 32 66  1  0
M  CHG  2   8   1  14  -1
M  END
>  <UniqueID>  (5) 
5

>  <SMILES>  (5) 
COc1ccc(C[NH+]2CCC(C(=O)[N-]CCN(C)Cc3cccc(Br)c3)CC2)c(OC)c1

>  <Energy>  (5) 
73.05320545079152

>  <Genealogy>  (5) 
COc1ccc(C[NH+]2CCC(C(=O)[N-]CCN(C)Cc3cccc(Br)c3)CC2)c(OC)c1 (protonated)
COc1ccc(C[NH+]2CCC(C(=O)[N-]CCN(C)Cc3cccc(Br)c3)CC2)c(OC)c1 (3D coordinates assigned)
COc1ccc(C[NH+]2CCC(C(=O)[N-]CCN(C)Cc3cccc(Br)c3)CC2)c(OC)c1 (nonaromatic ring conformer: 73.05320545079152 kcal/mol)

>  <smiles>  (5) 
COc1ccc(CN2CCC(C(=O)NCCN(C)Cc3cccc(Br)c3)CC2)c(OC)c1

>  <score_type>  (5) 
oracle

>  <origin>  (5) 
adg

>  <m_score__min__energy>  (5) 
-9.7899999999999991

>  <m_primary>  (5) 
energy

$$$$
5:0
     RDKit          3D

 50 52  0  0  0  0  0  0  0  0999 V2000
   -4.8710   15.5190  -32.3120 C   0  0  0  0  0  0  0  0  0  0  0  0
   -4.0910   15.4450  -33.6250 C   0  0  0  0  0  0  0  0  0  0  0  0
   -3.2780   16.7200  -33.9160 C   0  0  0  0  0  0  0  0  0  0  0  0
   -3.9800   17.6930  -34.8760 C   0  0  0  0  0  0  0  0  0  0  0  0
   -4.9730   18.5110  -34.1830 N   0  0  0  0  0  0  0  0  0  0  0  0
   -6.3100   18.1400  -33.8370 C   0  0  0  0  0  0  0  0  0  0  0  0
   -6.8790   17.0860  -34.2260 O   0  0  0  0  0  0  0  0  0  0  0  0
   -6.8900   19.1390  -32.9470 C   0  0  0  0  0  0  0  0  0  0  0  0
   -8.1510   19.2120  -32.3630 C   0  0  0  0  0  0  0  0  0  0  0  0
   -8.4300   20.3050  -31.5230 C   0  0  0  0  0  0  0  0  0  0  0  0
   -7.4500   21.3020  -31.2770 C   0  0  0  0  0  0  0  0  0  0  0  0
   -7.7580   22.4410  -30.3840 C   0  0  0  0  0  0  0  0  0  0  0  0
   -8.5780   22.2980  -29.4340 O   0  0  0  0  0  0  0  0  0  0  0  0
   -7.1380   23.6760  -30.5950 O   0  0  0  0  0  0  0  0  0  0  0  0
   -6.0820   24.1600  -29.7710 C   0  0  0  0  0  0  0  0  0  0  0  0
   -4.9240   24.5710  -30.6300 C   0  0  0  0  0  0  0  0  0  0  0  0
   -5.0500   24.5410  -31.8830 O   0  0  0  0  0  0  0  0  0  0  0  0
   -3.6870   25.0340  -30.0710 N   0  0  0  0  0  0  0  0  0  0  0  0
   -2.7870   24.2790  -29.2470 C   0  0  0  0  0  0  0  0  0  0  0  0
   -3.1010   22.9750  -28.8220 C   0  0  0  0  0  0  0  0  0  0  0  0
   -2.1970   22.2490  -28.0310 C   0  0  0  0  0  0  0  0  0  0  0  0
   -2.5210   20.8470  -27.6080 C   0  0  0  0  0  0  0  0  0  0  0  0
   -0.9550   22.8150  -27.7060 C   0  0  0  0  0  0  0  0  0  0  0  0
   -0.6300   24.0990  -28.1490 C   0  0  0  0  0  0  0  0  0  0  0  0
   -1.5390   24.8260  -28.9230 C   0  0  0  0  0  0  0  0  0  0  0  0
   -1.2090   26.0710  -29.3500 F   0  0  0  0  0  0  0  0  0  0  0  0
   -6.1770   21.1940  -31.8870 C   0  0  0  0  0  0  0  0  0  0  0  0
   -5.9320   20.1020  -32.7160 C   0  0  0  0  0  0  0  0  0  0  0  0
   -4.7360   19.7220  -33.4590 C   0  0  0  0  0  0  0  0  0  0  0  0
   -3.6470   20.3560  -33.4710 O   0  0  0  0  0  0  0  0  0  0  0  0
   -4.1714   15.4526  -31.4657 H   0  0  0  0  0  0  0  0  0  0  0  0
   -5.4165   16.4729  -32.2628 H   0  0  0  0  0  0  0  0  0  0  0  0
   -5.5862   14.6847  -32.2628 H   0  0  0  0  0  0  0  0  0  0  0  0
   -3.3983   14.5920  -33.5734 H   0  0  0  0  0  0  0  0  0  0  0  0
   -4.8244   15.3307  -34.4368 H   0  0  0  0  0  0  0  0  0  0  0  0
   -3.0964   17.2411  -32.9644 H   0  0  0  0  0  0  0  0  0  0  0  0
   -2.3450   16.4025  -34.4046 H   0  0  0  0  0  0  0  0  0  0  0  0
   -3.2261   18.3540  -35.3285 H   0  0  0  0  0  0  0  0  0  0  0  0
   -4.4980   17.1024  -35.6460 H   0  0  0  0  0  0  0  0  0  0  0  0
   -8.9080   18.4369  -32.5529 H   0  0  0  0  0  0  0  0  0  0  0  0
   -9.4200   20.3883  -31.0508 H   0  0  0  0  0  0  0  0  0  0  0  0
   -6.4357   25.0269  -29.1936 H   0  0  0  0  0  0  0  0  0  0  0  0
   -5.7621   23.3650  -29.0814 H   0  0  0  0  0  0  0  0  0  0  0  0
   -4.0606   22.5218  -29.1114 H   0  0  0  0  0  0  0  0  0  0  0  0
   -2.5343   20.7892  -26.5096 H   0  0  0  0  0  0  0  0  0  0  0  0
   -3.5082   20.5640  -28.0021 H   0  0  0  0  0  0  0  0  0  0  0  0
   -1.7581   20.1595  -28.0021 H   0  0  0  0  0  0  0  0  0  0  0  0
   -0.2348   22.2455  -27.1002 H   0  0  0  0  0  0  0  0  0  0  0  0
    0.3437   24.5393  -27.8882 H   0  0  0  0  0  0  0  0  0  0  0  0
   -5.4010   21.9534  -31.7107 H   0  0  0  0  0  0  0  0  0  0  0  0
  1  2  1  0
  2  3  1  0
  3  4  1  0
  4  5  1  0
  5  6  1  0
  6  7  2  0
  6  8  1  0
  8  9  2  0
  9 10  1  0
 10 11  2  0
 11 12  1  0
 12 13  2  0
 12 14  1  0
 14 15  1  0
 15 16  1  0
 16 17  2  0
 16 18  1  0
 18 19  1  0
 19 20  2  0
 20 21  1  0
 21 22  1  0
 21 23  2  0
 23 24  1  0
 24 25  2  0
 25 26  1  0
 11 27  1  0
 27 28  2  0
 28 29  1  0
 29 30  2  0
 29  5  1  0
 28  8  1  0
 25 19  1  0
  1 31  1  0
  1 32  1  0
  1 33  1  0
  2 34  1  0
  2 35  1  0
  3 36  1  0
  3 37  1  0
  4 38  1  0
  4 39  1  0
  9 40  1  0
 10 41  1  0
 15 42  1  0
 15 43  1  0
 20 44  1  0
 22 45  1  0
 22 46  1  0
 22 47  1  0
 23 48  1  0
 24 49  1  0
 27 50  1  0
M  CHG  1  18  -1
M  END
>  <UniqueID>  (6) 
6

>  <SMILES>  (6) 
CCCCN1C(=O)c2ccc(C(=O)OCC(=O)[N-]c3cc(C)ccc3F)cc2C1=O

>  <Energy>  (6) 
80.35140869305047

>  <Genealogy>  (6) 
CCCCN1C(=O)c2ccc(C(=O)OCC(=O)[N-]c3cc(C)ccc3F)cc2C1=O (protonated)
CCCCN1C(=O)c2ccc(C(=O)OCC(=O)[N-]c3cc(C)ccc3F)cc2C1=O (3D coordinates assigned)
CCCCN1C(=O)c2ccc(C(=O)OCC(=O)[N-]c3cc(C)ccc3F)cc2C1=O (nonaromatic ring conformer: 80.35140869305047 kcal/mol)

>  <smiles>  (6) 
CCCCN1C(=O)c2ccc(C(=O)OCC(=O)Nc3cc(C)ccc3F)cc2C1=O

>  <score_type>  (6) 
oracle

>  <origin>  (6) 
adg

>  <m_score__min__energy>  (6) 
-11.32

>  <m_primary>  (6) 
energy

$$$$
6:0
     RDKit          3D

 42 44  0  0  0  0  0  0  0  0999 V2000
   -5.2250   25.7910  -30.4850 C   0  0  0  0  0  0  0  0  0  0  0  0
   -3.8590   25.3930  -30.4550 O   0  0  0  0  0  0  0  0  0  0  0  0
   -3.2970   24.5340  -29.4950 C   0  0  0  0  0  0  0  0  0  0  0  0
   -2.1810   24.9180  -28.7240 C   0  0  0  0  0  0  0  0  0  0  0  0
   -1.6520   24.0550  -27.7640 C   0  0  0  0  0  0  0  0  0  0  0  0
   -2.2240   22.8000  -27.5600 C   0  0  0  0  0  0  0  0  0  0  0  0
   -1.7040   21.9620  -26.6290 F   0  0  0  0  0  0  0  0  0  0  0  0
   -3.3280   22.4030  -28.3170 C   0  0  0  0  0  0  0  0  0  0  0  0
   -3.8760   23.2620  -29.2860 C   0  0  0  0  0  0  0  0  0  0  0  0
   -5.0370   22.8060  -30.0880 C   0  0  0  0  0  0  0  0  0  0  0  0
   -6.0910   22.4420  -29.4990 O   0  0  0  0  0  0  0  0  0  0  0  0
   -4.9900   22.8000  -31.5290 N   0  0  0  0  0  0  0  0  0  0  0  0
   -3.8550   22.2340  -32.2420 C   0  0  0  0  0  0  0  0  0  0  0  0
   -4.1510   20.7800  -32.6150 C   0  0  0  0  0  0  0  0  0  0  0  0
   -5.5710   20.4860  -32.9400 N   0  0  0  0  0  0  0  0  0  0  0  0
   -5.9210   19.1330  -33.3790 C   0  0  0  0  0  0  0  0  0  0  0  0
   -6.8440   18.3390  -32.6520 C   0  0  0  0  0  0  0  0  0  0  0  0
   -7.1750   17.0480  -33.0750 C   0  0  0  0  0  0  0  0  0  0  0  0
   -6.5970   16.5150  -34.2240 C   0  0  0  0  0  0  0  0  0  0  0  0
   -5.6800   17.2690  -34.9530 C   0  0  0  0  0  0  0  0  0  0  0  0
   -5.3410   18.5600  -34.5380 C   0  0  0  0  0  0  0  0  0  0  0  0
   -6.6690   21.4530  -32.6810 C   0  0  0  0  0  0  0  0  0  0  0  0
   -6.2110   22.8650  -32.3150 C   0  0  0  0  0  0  0  0  0  0  0  0
   -5.5979   25.8997  -29.4559 H   0  0  0  0  0  0  0  0  0  0  0  0
   -5.3152   26.7528  -31.0112 H   0  0  0  0  0  0  0  0  0  0  0  0
   -5.8177   25.0282  -31.0112 H   0  0  0  0  0  0  0  0  0  0  0  0
   -1.7236   25.9061  -28.8806 H   0  0  0  0  0  0  0  0  0  0  0  0
   -0.7819   24.3653  -27.1668 H   0  0  0  0  0  0  0  0  0  0  0  0
   -3.7727   21.4102  -28.1540 H   0  0  0  0  0  0  0  0  0  0  0  0
   -3.6715   22.8159  -33.1573 H   0  0  0  0  0  0  0  0  0  0  0  0
   -2.9654   22.2697  -31.5960 H   0  0  0  0  0  0  0  0  0  0  0  0
   -3.5408   20.5232  -33.4934 H   0  0  0  0  0  0  0  0  0  0  0  0
   -3.9120   20.1817  -31.7234 H   0  0  0  0  0  0  0  0  0  0  0  0
   -7.3070   18.7452  -31.7406 H   0  0  0  0  0  0  0  0  0  0  0  0
   -7.8956   16.4506  -32.4972 H   0  0  0  0  0  0  0  0  0  0  0  0
   -6.8638   15.5006  -34.5555 H   0  0  0  0  0  0  0  0  0  0  0  0
   -5.2208   16.8466  -35.8590 H   0  0  0  0  0  0  0  0  0  0  0  0
   -4.6115   19.1411  -35.1211 H   0  0  0  0  0  0  0  0  0  0  0  0
   -7.2873   21.5189  -33.5884 H   0  0  0  0  0  0  0  0  0  0  0  0
   -7.2169   21.0705  -31.8072 H   0  0  0  0  0  0  0  0  0  0  0  0
   -6.0226   23.4375  -33.2352 H   0  0  0  0  0  0  0  0  0  0  0  0
   -6.9965   23.3592  -31.7244 H   0  0  0  0  0  0  0  0  0  0  0  0
  1  2  1  0
  2  3  1  0
  3  4  2  0
  4  5  1  0
  5  6  2  0
  6  7  1  0
  6  8  1  0
  8  9  2  0
  9 10  1  0
 10 11  2  0
 10 12  1  0
 12 13  1  0
 13 14  1  0
 14 15  1  0
 15 16  1  0
 16 17  2  0
 17 18  1  0
 18 19  2  0
 19 20  1  0
 20 21  2  0
 15 22  1  0
 22 23  1  0
  9  3  1  0
 23 12  1  0
 21 16  1  0
  1 24  1  0
  1 25  1  0
  1 26  1  0
  4 27  1  0
  5 28  1  0
  8 29  1  0
 13 30  1  0
 13 31  1  0
 14 32  1  0
 14 33  1  0
 17 34  1  0
 18 35  1  0
 19 36  1  0
 20 37  1  0
 21 38  1  0
 22 39  1  0
 22 40  1  0
 23 41  1  0
 23 42  1  0
M  END
>  <UniqueID>  (7) 
7

>  <SMILES>  (7) 
COc1ccc(F)cc1C(=O)N1CCN(c2ccccc2)CC1

>  <Energy>  (7) 
58.016780263547005

>  <Genealogy>  (7) 
COc1ccc(F)cc1C(=O)N1CCN(c2ccccc2)CC1 (3D coordinates assigned)
COc1ccc(F)cc1C(=O)N1CCN(c2ccccc2)CC1 (nonaromatic ring conformer: 58.016780263547005 kcal/mol)

>  <smiles>  (7) 
COc1ccc(F)cc1C(=O)N1CCN(c2ccccc2)CC1

>  <score_type>  (7) 
oracle

>  <origin>  (7) 
adg

>  <m_score__min__energy>  (7) 
-7.7400000000000002

>  <m_primary>  (7) 
energy

$$$$
7:0
     RDKit          3D

 58 59  0  0  0  0  0  0  0  0999 V2000
   -3.2280   18.6110  -25.9290 C   0  0  0  0  0  0  0  0  0  0  0  0
   -2.7210   19.5210  -27.0270 C   0  0  0  0  0  0  0  0  0  0  0  0
   -1.3780   19.8130  -26.8830 O   0  0  0  0  0  0  0  0  0  0  0  0
   -1.0880   21.1410  -26.6670 C   0  0  0  0  0  0  0  0  0  0  0  0
   -0.9200   21.8550  -27.9700 C   0  0  0  0  0  0  0  0  0  0  0  0
   -0.1670   23.1740  -27.7940 C   0  0  0  0  0  0  0  0  0  0  0  0
   -1.1400   24.2150  -27.6300 N   0  0  0  0  0  0  0  0  0  0  0  0
   -0.8280   25.4170  -26.8880 C   0  0  0  0  0  0  0  0  0  0  0  0
   -2.4350   24.0730  -28.1980 C   0  0  0  0  0  0  0  0  0  0  0  0
   -2.7780   24.7210  -29.3260 N   0  0  0  0  0  0  0  0  0  0  0  0
   -3.9860   24.6230  -29.9050 C   0  0  0  0  0  0  0  0  0  0  0  0
   -4.2580   25.2660  -30.9770 N   0  0  0  0  0  0  0  0  0  0  0  0
   -4.9490   23.8220  -29.3380 C   0  0  0  0  0  0  0  0  0  0  0  0
   -6.3020   23.6240  -29.8710 C   0  0  0  0  0  0  0  0  0  0  0  0
   -6.4640   22.4300  -30.7240 C   0  0  0  0  0  0  0  0  0  0  0  0
   -5.2840   21.8480  -31.2000 C   0  0  0  0  0  0  0  0  0  0  0  0
   -5.3530   20.7170  -32.0110 C   0  0  0  0  0  0  0  0  0  0  0  0
   -3.7370   19.9150  -32.6650 Br  0  0  0  0  0  0  0  0  0  0  0  0
   -6.5790   20.1720  -32.3460 C   0  0  0  0  0  0  0  0  0  0  0  0
   -6.6320   19.0490  -33.1540 O   0  0  0  0  0  0  0  0  0  0  0  0
   -6.7230   17.7260  -32.7260 C   0  0  0  0  0  0  0  0  0  0  0  0
   -6.5310   16.7430  -33.8810 C   0  0  0  0  0  0  0  0  0  0  0  0
   -5.3740   17.1690  -34.7740 C   0  0  0  0  0  0  0  0  0  0  0  0
   -5.7530   18.4480  -35.3630 N   0  0  0  0  0  0  0  0  0  0  0  0
   -7.7360   20.7540  -31.8720 C   0  0  0  0  0  0  0  0  0  0  0  0
   -9.4620   20.0400  -32.3050 Br  0  0  0  0  0  0  0  0  0  0  0  0
   -7.6770   21.8760  -31.0660 C   0  0  0  0  0  0  0  0  0  0  0  0
   -4.6000   23.1500  -28.1740 C   0  0  0  0  0  0  0  0  0  0  0  0
   -3.3700   23.2880  -27.6360 N   0  0  0  0  0  0  0  0  0  0  0  0
   -2.9846   19.0478  -24.9492 H   0  0  0  0  0  0  0  0  0  0  0  0
   -4.3185   18.4990  -26.0199 H   0  0  0  0  0  0  0  0  0  0  0  0
   -2.7493   17.6248  -26.0199 H   0  0  0  0  0  0  0  0  0  0  0  0
   -2.8739   19.0253  -27.9970 H   0  0  0  0  0  0  0  0  0  0  0  0
   -3.2808   20.4661  -26.9683 H   0  0  0  0  0  0  0  0  0  0  0  0
   -1.9105   21.6047  -26.1027 H   0  0  0  0  0  0  0  0  0  0  0  0
   -0.1506   21.2139  -26.0960 H   0  0  0  0  0  0  0  0  0  0  0  0
   -0.3557   21.2108  -28.6603 H   0  0  0  0  0  0  0  0  0  0  0  0
   -1.9192   22.0793  -28.3716 H   0  0  0  0  0  0  0  0  0  0  0  0
    0.4780   23.1210  -26.9045 H   0  0  0  0  0  0  0  0  0  0  0  0
    0.4670   23.3748  -28.6702 H   0  0  0  0  0  0  0  0  0  0  0  0
   -0.8826   25.2068  -25.8097 H   0  0  0  0  0  0  0  0  0  0  0  0
    0.1872   25.7535  -27.1451 H   0  0  0  0  0  0  0  0  0  0  0  0
   -1.5514   26.2048  -27.1451 H   0  0  0  0  0  0  0  0  0  0  0  0
   -3.5350   25.6790  -31.6040 H   0  0  0  0  0  0  0  0  0  0  0  0
   -6.9945   23.5336  -29.0211 H   0  0  0  0  0  0  0  0  0  0  0  0
   -6.5119   24.4928  -30.5122 H   0  0  0  0  0  0  0  0  0  0  0  0
   -4.3078   22.2806  -30.9356 H   0  0  0  0  0  0  0  0  0  0  0  0
   -5.9466   17.5422  -31.9688 H   0  0  0  0  0  0  0  0  0  0  0  0
   -7.7279   17.5699  -32.3066 H   0  0  0  0  0  0  0  0  0  0  0  0
   -6.3204   15.7439  -33.4717 H   0  0  0  0  0  0  0  0  0  0  0  0
   -7.4510   16.7268  -34.4837 H   0  0  0  0  0  0  0  0  0  0  0  0
   -4.4562   17.2823  -34.1783 H   0  0  0  0  0  0  0  0  0  0  0  0
   -5.1747   16.4170  -35.5517 H   0  0  0  0  0  0  0  0  0  0  0  0
   -6.7760   18.6430  -35.2950 H   0  0  0  0  0  0  0  0  0  0  0  0
   -5.2670   19.2240  -34.8290 H   0  0  0  0  0  0  0  0  0  0  0  0
   -8.6076   22.3300  -30.6947 H   0  0  0  0  0  0  0  0  0  0  0  0
   -5.3362   22.4962  -27.6837 H   0  0  0  0  0  0  0  0  0  0  0  0
   -3.1820   22.7510  -26.7580 H   0  0  0  0  0  0  0  0  0  0  0  0
  1  2  1  0
  2  3  1  0
  3  4  1  0
  4  5  1  0
  5  6  1  0
  6  7  1  0
  7  8  1  0
  7  9  1  0
  9 10  2  0
 10 11  1  0
 11 12  2  3
 11 13  1  0
 13 14  1  0
 14 15  1  0
 15 16  2  0
 16 17  1  0
 17 18  1  0
 17 19  2  0
 19 20  1  0
 20 21  1  0
 21 22  1  0
 22 23  1  0
 23 24  1  0
 19 25  1  0
 25 26  1  0
 25 27  2  0
 13 28  2  0
 28 29  1  0
 29  9  1  0
 27 15  1  0
  1 30  1  0
  1 31  1  0
  1 32  1  0
  2 33  1  0
  2 34  1  0
  4 35  1  0
  4 36  1  0
  5 37  1  0
  5 38  1  0
  6 39  1  0
  6 40  1  0
  8 41  1  0
  8 42  1  0
  8 43  1  0
 12 44  1  0
 14 45  1  0
 14 46  1  0
 16 47  1  0
 21 48  1  0
 21 49  1  0
 22 50  1  0
 22 51  1  0
 23 52  1  0
 23 53  1  0
 24 54  1  0
 24 55  1  0
 27 56  1  0
 28 57  1  0
 29 58  1  0
M  END
>  <smiles>  (8) 
CCOCCCN(C)c1nc(=N)c(Cc2cc(Br)c(OCCCN)c(Br)c2)c[nH]1

>  <score_type>  (8) 
oracle

>  <origin>  (8) 
adg

>  <m_score__min__energy>  (8) 
-8.4000000000000004

>  <m_primary>  (8) 
energy

$$$$
8:0
     RDKit          3D

 40 42  0  0  0  0  0  0  0  0999 V2000
   -0.8010   19.9930  -34.5850 C   0  0  0  0  0  0  0  0  0  0  0  0
   -2.0180   20.5800  -34.1740 O   0  0  0  0  0  0  0  0  0  0  0  0
   -1.8000   21.4250  -33.0620 C   0  0  0  0  0  0  0  0  0  0  0  0
   -3.0510   21.5500  -32.2460 C   0  0  0  0  0  0  0  0  0  0  0  0
   -3.1680   22.1800  -31.0300 C   0  0  0  0  0  0  0  0  0  0  0  0
   -4.5080   22.0500  -30.7070 C   0  0  0  0  0  0  0  0  0  0  0  0
   -5.1490   21.3600  -31.6790 N   0  0  0  0  0  0  0  0  0  0  0  0
   -4.2500   21.0710  -32.6150 N   0  0  0  0  0  0  0  0  0  0  0  0
   -6.5400   20.9500  -31.7560 C   0  0  0  0  0  0  0  0  0  0  0  0
   -6.8430   19.8210  -32.5550 C   0  0  0  0  0  0  0  0  0  0  0  0
   -8.1530   19.4130  -32.7810 C   0  0  0  0  0  0  0  0  0  0  0  0
   -9.2050   20.1030  -32.2010 C   0  0  0  0  0  0  0  0  0  0  0  0
   -8.9470   21.1850  -31.3660 C   0  0  0  0  0  0  0  0  0  0  0  0
   -7.6310   21.6300  -31.1130 C   0  0  0  0  0  0  0  0  0  0  0  0
   -7.5460   22.6980  -30.0290 C   0  0  0  0  0  0  0  0  0  0  0  0
   -6.3260   23.5150  -29.9830 N   0  0  0  0  0  0  0  0  0  0  0  0
   -6.1200   24.3950  -31.1580 C   0  0  0  0  0  0  0  0  0  0  0  0
   -5.3740   25.6720  -30.7570 C   0  0  0  0  0  0  0  0  0  0  0  0
   -3.9900   25.4580  -30.7000 O   0  0  0  0  0  0  0  0  0  0  0  0
   -5.1520   22.7390  -29.5570 C   0  0  0  0  0  0  0  0  0  0  0  0
   -0.2132   19.7095  -33.6995 H   0  0  0  0  0  0  0  0  0  0  0  0
   -1.0111   19.0972  -35.1878 H   0  0  0  0  0  0  0  0  0  0  0  0
   -0.2308   20.7151  -35.1878 H   0  0  0  0  0  0  0  0  0  0  0  0
   -1.0004   21.0015  -32.4365 H   0  0  0  0  0  0  0  0  0  0  0  0
   -1.5096   22.4223  -33.4239 H   0  0  0  0  0  0  0  0  0  0  0  0
   -2.3774   22.6746  -30.4466 H   0  0  0  0  0  0  0  0  0  0  0  0
   -4.4420   20.5950  -33.5240 H   0  0  0  0  0  0  0  0  0  0  0  0
   -6.0193   19.2509  -33.0095 H   0  0  0  0  0  0  0  0  0  0  0  0
   -8.3542   18.5413  -33.4211 H   0  0  0  0  0  0  0  0  0  0  0  0
  -10.2422   19.7958  -32.4004 H   0  0  0  0  0  0  0  0  0  0  0  0
   -9.7900   21.7076  -30.8904 H   0  0  0  0  0  0  0  0  0  0  0  0
   -8.3962   23.3813  -30.1709 H   0  0  0  0  0  0  0  0  0  0  0  0
   -7.5481   22.1396  -29.0813 H   0  0  0  0  0  0  0  0  0  0  0  0
   -5.5307   23.8553  -31.9139 H   0  0  0  0  0  0  0  0  0  0  0  0
   -7.1026   24.6740  -31.5663 H   0  0  0  0  0  0  0  0  0  0  0  0
   -5.5847   26.4574  -31.4978 H   0  0  0  0  0  0  0  0  0  0  0  0
   -5.7192   25.9759  -29.7578 H   0  0  0  0  0  0  0  0  0  0  0  0
   -3.6340   25.6610  -31.6040 H   0  0  0  0  0  0  0  0  0  0  0  0
   -4.4224   23.4196  -29.0938 H   0  0  0  0  0  0  0  0  0  0  0  0
   -5.4850   21.9749  -28.8391 H   0  0  0  0  0  0  0  0  0  0  0  0
  1  2  1  0
  2  3  1  0
  3  4  1  0
  4  5  1  0
  5  6  2  0
  6  7  1  0
  7  8  1  0
  7  9  1  0
  9 10  2  0
 10 11  1  0
 11 12  2  0
 12 13  1  0
 13 14  2  0
 14 15  1  0
 15 16  1  0
 16 17  1  0
 17 18  1  0
 18 19  1  0
 16 20  1  0
  8  4  2  0
 14  9  1  0
 20  6  1  0
  1 21  1  0
  1 22  1  0
  1 23  1  0
  3 24  1  0
  3 25  1  0
  5 26  1  0
  8 27  1  0
 10 28  1  0
 11 29  1  0
 12 30  1  0
 13 31  1  0
 15 32  1  0
 15 33  1  0
 17 34  1  0
 17 35  1  0
 18 36  1  0
 18 37  1  0
 19 38  1  0
 20 39  1  0
 20 40  1  0
M  CHG  1   8   1
M  END
>  <UniqueID>  (9) 
8

>  <SMILES>  (9) 
COCc1cc2n([nH+]1)-c1ccccc1CN(CCO)C2

>  <Energy>  (9) 
96.10077862067249

>  <Genealogy>  (9) 
COCc1cc2n([nH+]1)-c1ccccc1CN(CCO)C2 (protonated)
COCc1cc2n([nH+]1)-c1ccccc1CN(CCO)C2 (3D coordinates assigned)
COCc1cc2n([nH+]1)-c1ccccc1CN(CCO)C2 (nonaromatic ring conformer: 96.10077862067249 kcal/mol)

>  <smiles>  (9) 
COCc1cc2n(n1)-c1ccccc1CN(CCO)C2

>  <score_type>  (9) 
oracle

>  <origin>  (9) 
adg

>  <m_score__min__energy>  (9) 
-7.29

>  <m_primary>  (9) 
energy

$$$$
9:0
     RDKit          3D

 35 36  0  0  0  0  0  0  0  0999 V2000
   -3.9300   21.2220  -32.8860 C   0  0  0  0  0  0  0  0  0  0  0  0
   -5.4120   21.0900  -32.6600 C   0  0  0  0  0  0  0  0  0  0  0  0
   -6.0580   19.8890  -32.9970 C   0  0  0  0  0  0  0  0  0  0  0  0
   -7.4350   19.7490  -32.8150 C   0  0  0  0  0  0  0  0  0  0  0  0
   -8.1800   20.8040  -32.2900 C   0  0  0  0  0  0  0  0  0  0  0  0
   -7.5520   22.0030  -31.9460 C   0  0  0  0  0  0  0  0  0  0  0  0
   -6.1670   22.1650  -32.1340 C   0  0  0  0  0  0  0  0  0  0  0  0
   -5.5230   23.3910  -31.7390 N   0  0  0  0  0  0  0  0  0  0  0  0
   -6.0380   24.2570  -30.7150 C   0  0  0  0  0  0  0  0  0  0  0  0
   -7.2400   24.1660  -30.3470 O   0  0  0  0  0  0  0  0  0  0  0  0
   -5.1610   25.3040  -30.0990 C   0  0  0  0  0  0  0  0  0  0  0  0
   -3.7650   25.0860  -30.4670 N   0  0  0  0  0  0  0  0  0  0  0  0
   -2.7430   24.5520  -29.6140 C   0  0  0  0  0  0  0  0  0  0  0  0
   -1.8000   25.3060  -29.2580 O   0  0  0  0  0  0  0  0  0  0  0  0
   -2.7570   23.1520  -29.1430 C   0  0  0  0  0  0  0  0  0  0  0  0
   -3.3860   22.8040  -27.9350 C   0  0  0  0  0  0  0  0  0  0  0  0
   -3.3750   21.4770  -27.4930 C   0  0  0  0  0  0  0  0  0  0  0  0
   -2.7190   20.4940  -28.2370 C   0  0  0  0  0  0  0  0  0  0  0  0
   -2.7100   19.2090  -27.8060 F   0  0  0  0  0  0  0  0  0  0  0  0
   -2.0610   20.8390  -29.4210 C   0  0  0  0  0  0  0  0  0  0  0  0
   -2.0750   22.1640  -29.8700 C   0  0  0  0  0  0  0  0  0  0  0  0
   -3.4138   21.2680  -31.9157 H   0  0  0  0  0  0  0  0  0  0  0  0
   -3.5668   20.3526  -33.4537 H   0  0  0  0  0  0  0  0  0  0  0  0
   -3.7262   22.1419  -33.4537 H   0  0  0  0  0  0  0  0  0  0  0  0
   -5.4741   19.0521  -33.4076 H   0  0  0  0  0  0  0  0  0  0  0  0
   -7.9324   18.8060  -33.0859 H   0  0  0  0  0  0  0  0  0  0  0  0
   -9.2648   20.6918  -32.1464 H   0  0  0  0  0  0  0  0  0  0  0  0
   -8.1452   22.8279  -31.5244 H   0  0  0  0  0  0  0  0  0  0  0  0
   -4.6410   23.6720  -32.2200 H   0  0  0  0  0  0  0  0  0  0  0  0
   -5.4779   26.2957  -30.4540 H   0  0  0  0  0  0  0  0  0  0  0  0
   -5.2528   25.2447  -29.0044 H   0  0  0  0  0  0  0  0  0  0  0  0
   -3.8883   23.5775  -27.3356 H   0  0  0  0  0  0  0  0  0  0  0  0
   -3.8847   21.2068  -26.5564 H   0  0  0  0  0  0  0  0  0  0  0  0
   -1.5317   20.0681  -30.0002 H   0  0  0  0  0  0  0  0  0  0  0  0
   -1.5487   22.4328  -30.7978 H   0  0  0  0  0  0  0  0  0  0  0  0
  1  2  1  0
  2  3  2  0
  3  4  1  0
  4  5  2  0
  5  6  1  0
  6  7  2  0
  7  8  1  0
  8  9  1  0
  9 10  2  0
  9 11  1  0
 11 12  1  0
 12 13  1  0
 13 14  2  0
 13 15  1  0
 15 16  2  0
 16 17  1  0
 17 18  2  0
 18 19  1  0
 18 20  1  0
 20 21  2  0
  7  2  1  0
 21 15  1  0
  1 22  1  0
  1 23  1  0
  1 24  1  0
  3 25  1  0
  4 26  1  0
  5 27  1  0
  6 28  1  0
  8 29  1  0
 11 30  1  0
 11 31  1  0
 16 32  1  0
 17 33  1  0
 20 34  1  0
 21 35  1  0
M  CHG  1  12  -1
M  END
>  <UniqueID>  (10) 
9

>  <SMILES>  (10) 
Cc1ccccc1NC(=O)C[N-]C(=O)c1ccc(F)cc1

>  <Energy>  (10) 
40.418036039874444

>  <Genealogy>  (10) 
Cc1ccccc1NC(=O)C[N-]C(=O)c1ccc(F)cc1 (protonated)
Cc1ccccc1NC(=O)C[N-]C(=O)c1ccc(F)cc1 (3D coordinates assigned)
Cc1ccccc1NC(=O)C[N-]C(=O)c1ccc(F)cc1 (optimized conformer: 40.418036039874444 kcal/mol)

>  <smiles>  (10) 
Cc1ccccc1NC(=O)CNC(=O)c1ccc(F)cc1

>  <score_type>  (10) 
oracle

>  <origin>  (10) 
adg

>  <m_score__min__energy>  (10) 
-9.3200000000000003

>  <m_primary>  (10) 
energy

$$$$
10:0
     RDKit          3D

 52 55  0  0  0  0  0  0  0  0999 V2000
   -3.3780   20.6300  -33.4500 C   0  0  0  0  0  0  0  0  0  0  0  0
   -2.1640   20.5240  -32.7160 O   0  0  0  0  0  0  0  0  0  0  0  0
   -2.0180   20.8950  -31.3720 C   0  0  0  0  0  0  0  0  0  0  0  0
   -3.0870   20.6630  -30.5000 C   0  0  0  0  0  0  0  0  0  0  0  0
   -3.0020   21.0330  -29.1570 C   0  0  0  0  0  0  0  0  0  0  0  0
   -1.8480   21.6670  -28.6640 C   0  0  0  0  0  0  0  0  0  0  0  0
   -1.7700   22.1090  -27.2190 C   0  0  0  0  0  0  0  0  0  0  0  0
   -2.3550   23.4460  -26.9600 N   0  0  0  0  0  0  0  0  0  0  0  0
   -1.5900   24.6000  -27.4940 C   0  0  0  0  0  0  0  0  0  0  0  0
   -1.9050   24.9430  -28.9690 C   0  0  0  0  0  0  0  0  0  0  0  0
   -3.2750   24.6030  -29.3260 N   0  0  0  0  0  0  0  0  0  0  0  0
   -3.8370   24.8670  -30.4940 N   0  0  0  0  0  0  0  0  0  0  0  0
   -5.0880   24.3600  -30.4540 C   0  0  0  0  0  0  0  0  0  0  0  0
   -6.1140   24.6030  -31.5130 C   0  0  0  0  0  0  0  0  0  0  0  0
   -6.5570   23.3220  -32.0540 N   0  0  0  0  0  0  0  0  0  0  0  0
   -7.5530   22.5340  -31.3940 C   0  0  0  0  0  0  0  0  0  0  0  0
   -7.6600   22.5730  -30.1380 O   0  0  0  0  0  0  0  0  0  0  0  0
   -8.5190   21.7190  -32.1950 C   0  0  0  0  0  0  0  0  0  0  0  0
   -7.9870   20.3290  -32.3640 C   0  0  0  0  0  0  0  0  0  0  0  0
   -6.8460   19.9740  -33.0740 C   0  0  0  0  0  0  0  0  0  0  0  0
   -6.6320   18.5910  -33.1170 C   0  0  0  0  0  0  0  0  0  0  0  0
   -7.6040   17.8550  -32.4490 C   0  0  0  0  0  0  0  0  0  0  0  0
   -8.7350   18.9260  -31.8070 S   0  0  0  0  0  0  0  0  0  0  0  0
   -5.3310   23.7780  -29.2180 C   0  0  0  0  0  0  0  0  0  0  0  0
   -4.1380   23.9400  -28.5450 C   0  0  0  0  0  0  0  0  0  0  0  0
   -3.8150   23.5490  -27.1430 C   0  0  0  0  0  0  0  0  0  0  0  0
   -0.7560   21.8590  -29.5260 C   0  0  0  0  0  0  0  0  0  0  0  0
   -0.8420   21.4880  -30.8730 C   0  0  0  0  0  0  0  0  0  0  0  0
   -4.2240   20.7039  -32.7508 H   0  0  0  0  0  0  0  0  0  0  0  0
   -3.3462   21.5288  -34.0834 H   0  0  0  0  0  0  0  0  0  0  0  0
   -3.5025   19.7393  -34.0834 H   0  0  0  0  0  0  0  0  0  0  0  0
   -4.0032   20.1845  -30.8764 H   0  0  0  0  0  0  0  0  0  0  0  0
   -3.8438   20.8272  -28.4795 H   0  0  0  0  0  0  0  0  0  0  0  0
   -2.3071   21.3724  -26.6035 H   0  0  0  0  0  0  0  0  0  0  0  0
   -0.7015   22.1773  -26.9667 H   0  0  0  0  0  0  0  0  0  0  0  0
   -1.8212   25.4816  -26.8781 H   0  0  0  0  0  0  0  0  0  0  0  0
   -0.5272   24.3192  -27.4553 H   0  0  0  0  0  0  0  0  0  0  0  0
   -1.7549   26.0218  -29.1229 H   0  0  0  0  0  0  0  0  0  0  0  0
   -1.2306   24.3532  -29.6072 H   0  0  0  0  0  0  0  0  0  0  0  0
   -6.9727   25.1356  -31.0782 H   0  0  0  0  0  0  0  0  0  0  0  0
   -5.6777   25.2133  -32.3175 H   0  0  0  0  0  0  0  0  0  0  0  0
   -6.3470   23.1230  -33.0610 H   0  0  0  0  0  0  0  0  0  0  0  0
   -9.4859   21.6795  -31.6720 H   0  0  0  0  0  0  0  0  0  0  0  0
   -8.6531   22.1809  -33.1843 H   0  0  0  0  0  0  0  0  0  0  0  0
   -6.1788   20.7054  -33.5535 H   0  0  0  0  0  0  0  0  0  0  0  0
   -5.7755   18.1302  -33.6309 H   0  0  0  0  0  0  0  0  0  0  0  0
   -7.6302   16.7593  -32.3555 H   0  0  0  0  0  0  0  0  0  0  0  0
   -6.2553   23.3009  -28.8600 H   0  0  0  0  0  0  0  0  0  0  0  0
   -4.2137   24.3083  -26.4542 H   0  0  0  0  0  0  0  0  0  0  0  0
   -4.2704   22.5702  -26.9322 H   0  0  0  0  0  0  0  0  0  0  0  0
    0.1731   22.3039  -29.1401 H   0  0  0  0  0  0  0  0  0  0  0  0
    0.0122   21.6603  -31.5443 H   0  0  0  0  0  0  0  0  0  0  0  0
  1  2  1  0
  2  3  1  0
  3  4  2  0
  4  5  1  0
  5  6  2  0
  6  7  1  0
  7  8  1  0
  8  9  1  0
  9 10  1  0
 10 11  1  0
 11 12  1  0
 12 13  2  0
 13 14  1  0
 14 15  1  0
 15 16  1  0
 16 17  2  0
 16 18  1  0
 18 19  1  0
 19 20  2  0
 20 21  1  0
 21 22  2  0
 22 23  1  0
 13 24  1  0
 24 25  2  0
 25 26  1  0
  6 27  1  0
 27 28  2  0
 28  3  1  0
 26  8  1  0
 25 11  1  0
 23 19  1  0
  1 29  1  0
  1 30  1  0
  1 31  1  0
  4 32  1  0
  5 33  1  0
  7 34  1  0
  7 35  1  0
  9 36  1  0
  9 37  1  0
 10 38  1  0
 10 39  1  0
 14 40  1  0
 14 41  1  0
 15 42  1  0
 18 43  1  0
 18 44  1  0
 20 45  1  0
 21 46  1  0
 22 47  1  0
 24 48  1  0
 26 49  1  0
 26 50  1  0
 27 51  1  0
 28 52  1  0
M  END
>  <UniqueID>  (11) 
10

>  <SMILES>  (11) 
COc1ccc(CN2CCn3nc(CNC(=O)Cc4cccs4)cc3C2)cc1

>  <Energy>  (11) 
110.86414534443276

>  <Genealogy>  (11) 
COc1ccc(CN2CCn3nc(CNC(=O)Cc4cccs4)cc3C2)cc1 (3D coordinates assigned)
COc1ccc(CN2CCn3nc(CNC(=O)Cc4cccs4)cc3C2)cc1 (nonaromatic ring conformer: 110.86414534443276 kcal/mol)

>  <smiles>  (11) 
COc1ccc(CN2CCn3nc(CNC(=O)Cc4cccs4)cc3C2)cc1

>  <score_type>  (11) 
oracle

>  <origin>  (11) 
adg

>  <m_score__min__energy>  (11) 
-8.7100000000000009

>  <m_primary>  (11) 
energy

$$$$
11:0
     RDKit          3D

 28 29  0  0  0  0  0  0  0  0999 V2000
   -4.9010   18.5860  -34.1920 C   0  0  0  0  0  0  0  0  0  0  0  0
   -5.6520   19.6400  -33.4440 C   0  0  0  0  0  0  0  0  0  0  0  0
   -7.0080   19.4340  -33.0980 C   0  0  0  0  0  0  0  0  0  0  0  0
   -7.6900   20.4370  -32.3860 C   0  0  0  0  0  0  0  0  0  0  0  0
   -9.1270   20.2750  -31.9870 C   0  0  0  0  0  0  0  0  0  0  0  0
   -6.9930   21.5590  -32.0690 N   0  0  0  0  0  0  0  0  0  0  0  0
   -7.3890   22.6270  -31.4070 N   0  0  0  0  0  0  0  0  0  0  0  0
   -6.3130   23.4470  -31.3570 C   0  0  0  0  0  0  0  0  0  0  0  0
   -6.3010   24.7610  -30.6400 C   0  0  0  0  0  0  0  0  0  0  0  0
   -4.9960   24.9680  -29.8680 C   0  0  0  0  0  0  0  0  0  0  0  0
   -3.8660   25.1060  -30.7830 N   0  0  0  0  0  0  0  0  0  0  0  0
   -5.2200   22.9160  -31.9690 N   0  0  0  0  0  0  0  0  0  0  0  0
   -5.7110   21.7380  -32.3990 C   0  0  0  0  0  0  0  0  0  0  0  0
   -5.0180   20.7960  -33.0830 N   0  0  0  0  0  0  0  0  0  0  0  0
   -4.4156   17.9048  -33.4776 H   0  0  0  0  0  0  0  0  0  0  0  0
   -5.5988   18.0176  -34.8244 H   0  0  0  0  0  0  0  0  0  0  0  0
   -4.1359   19.0600  -34.8244 H   0  0  0  0  0  0  0  0  0  0  0  0
   -7.5213   18.5034  -33.3815 H   0  0  0  0  0  0  0  0  0  0  0  0
   -9.2041   20.2663  -30.8897 H   0  0  0  0  0  0  0  0  0  0  0  0
   -9.7159   21.1124  -32.3893 H   0  0  0  0  0  0  0  0  0  0  0  0
   -9.5147   19.3275  -32.3893 H   0  0  0  0  0  0  0  0  0  0  0  0
   -8.3370   22.7870  -30.9990 H   0  0  0  0  0  0  0  0  0  0  0  0
   -6.4129   25.5707  -31.3761 H   0  0  0  0  0  0  0  0  0  0  0  0
   -7.1324   24.7682  -29.9198 H   0  0  0  0  0  0  0  0  0  0  0  0
   -5.0790   25.8796  -29.2580 H   0  0  0  0  0  0  0  0  0  0  0  0
   -4.8240   24.0911  -29.2265 H   0  0  0  0  0  0  0  0  0  0  0  0
   -4.1890   25.6720  -31.6020 H   0  0  0  0  0  0  0  0  0  0  0  0
   -3.6280   24.1600  -31.1600 H   0  0  0  0  0  0  0  0  0  0  0  0
  1  2  1  0
  2  3  1  0
  3  4  2  0
  4  5  1  0
  4  6  1  0
  6  7  1  0
  7  8  2  0
  8  9  1  0
  9 10  1  0
 10 11  1  0
  8 12  1  0
 12 13  2  0
 13 14  1  0
 14  2  2  0
 13  6  1  0
  1 15  1  0
  1 16  1  0
  1 17  1  0
  3 18  1  0
  5 19  1  0
  5 20  1  0
  5 21  1  0
  7 22  1  0
  9 23  1  0
  9 24  1  0
 10 25  1  0
 10 26  1  0
 11 27  1  0
 11 28  1  0
M  CHG  1   7   1
M  END
>  <UniqueID>  (12) 
11

>  <SMILES>  (12) 
Cc1cc(C)n2[nH+]c(CCN)nc2n1

>  <Energy>  (12) 
62.498052126622206

>  <Genealogy>  (12) 
Cc1cc(C)n2[nH+]c(CCN)nc2n1 (protonated)
Cc1cc(C)n2[nH+]c(CCN)nc2n1 (3D coordinates assigned)
Cc1cc(C)n2[nH+]c(CCN)nc2n1 (optimized conformer: 62.498052126622206 kcal/mol)

>  <smiles>  (12) 
Cc1cc(C)n2nc(CCN)nc2n1

>  <score_type>  (12) 
oracle

>  <origin>  (12) 
adg

>  <m_score__min__energy>  (12) 
-6.25

>  <m_primary>  (12) 
energy

$$$$
12:0
     RDKit          3D

 37 39  0  0  0  0  0  0  0  0999 V2000
   -9.2800   19.3430  -32.7160 C   0  0  0  0  0  0  0  0  0  0  0  0
   -7.9510   19.9210  -32.4480 N   0  0  0  0  0  0  0  0  0  0  0  0
   -6.8000   19.2110  -32.7430 C   0  0  0  0  0  0  0  0  0  0  0  0
   -6.8450   17.5350  -33.4060 S   0  0  0  0  0  0  0  0  0  0  0  0
   -5.7440   17.8780  -34.8290 C   0  0  0  0  0  0  0  0  0  0  0  0
   -4.2820   17.5050  -34.5550 C   0  0  0  0  0  0  0  0  0  0  0  0
   -3.8010   18.0720  -33.2940 N   0  0  0  0  0  0  0  0  0  0  0  0
   -5.5750   19.7730  -32.5450 N   0  0  0  0  0  0  0  0  0  0  0  0
   -5.4880   21.0090  -32.0110 C   0  0  0  0  0  0  0  0  0  0  0  0
   -4.0760   21.8610  -31.6980 S   0  0  0  0  0  0  0  0  0  0  0  0
   -4.8880   23.2080  -31.0810 C   0  0  0  0  0  0  0  0  0  0  0  0
   -6.2680   22.9810  -31.0790 C   0  0  0  0  0  0  0  0  0  0  0  0
   -6.6000   21.7310  -31.6400 C   0  0  0  0  0  0  0  0  0  0  0  0
   -7.8610   21.1680  -31.8680 C   0  0  0  0  0  0  0  0  0  0  0  0
   -8.9040   21.8040  -31.5500 O   0  0  0  0  0  0  0  0  0  0  0  0
   -7.2430   24.0340  -30.6130 C   0  0  0  0  0  0  0  0  0  0  0  0
   -6.5540   25.1250  -29.7740 C   0  0  0  0  0  0  0  0  0  0  0  0
   -5.2380   25.5880  -30.4200 C   0  0  0  0  0  0  0  0  0  0  0  0
   -4.2340   24.4300  -30.5140 C   0  0  0  0  0  0  0  0  0  0  0  0
   -9.7836   19.1240  -31.7629 H   0  0  0  0  0  0  0  0  0  0  0  0
   -9.8824   20.0604  -33.2926 H   0  0  0  0  0  0  0  0  0  0  0  0
   -9.1660   18.4132  -33.2926 H   0  0  0  0  0  0  0  0  0  0  0  0
   -6.0979   17.2985  -35.6944 H   0  0  0  0  0  0  0  0  0  0  0  0
   -5.7785   18.9607  -35.0200 H   0  0  0  0  0  0  0  0  0  0  0  0
   -4.1975   16.4093  -34.5074 H   0  0  0  0  0  0  0  0  0  0  0  0
   -3.6671   17.9152  -35.3697 H   0  0  0  0  0  0  0  0  0  0  0  0
   -3.6910   19.1050  -33.4060 H   0  0  0  0  0  0  0  0  0  0  0  0
   -4.4860   17.8910  -32.5260 H   0  0  0  0  0  0  0  0  0  0  0  0
   -2.8730   17.6600  -33.0460 H   0  0  0  0  0  0  0  0  0  0  0  0
   -7.7074   24.5028  -31.4931 H   0  0  0  0  0  0  0  0  0  0  0  0
   -7.9970   23.5433  -29.9800 H   0  0  0  0  0  0  0  0  0  0  0  0
   -7.2308   25.9875  -29.6847 H   0  0  0  0  0  0  0  0  0  0  0  0
   -6.3224   24.7037  -28.7846 H   0  0  0  0  0  0  0  0  0  0  0  0
   -5.4473   25.9657  -31.4317 H   0  0  0  0  0  0  0  0  0  0  0  0
   -4.8009   26.3810  -29.7954 H   0  0  0  0  0  0  0  0  0  0  0  0
   -3.3990   24.7279  -31.1651 H   0  0  0  0  0  0  0  0  0  0  0  0
   -3.8658   24.1979  -29.5038 H   0  0  0  0  0  0  0  0  0  0  0  0
  1  2  1  0
  2  3  1  0
  3  4  1  0
  4  5  1  0
  5  6  1  0
  6  7  1  0
  3  8  2  0
  8  9  1  0
  9 10  1  0
 10 11  1  0
 11 12  2  0
 12 13  1  0
 13 14  1  0
 14 15  2  0
 12 16  1  0
 16 17  1  0
 17 18  1  0
 18 19  1  0
 14  2  1  0
 13  9  2  0
 19 11  1  0
  1 20  1  0
  1 21  1  0
  1 22  1  0
  5 23  1  0
  5 24  1  0
  6 25  1  0
  6 26  1  0
  7 27  1  0
  7 28  1  0
  7 29  1  0
 16 30  1  0
 16 31  1  0
 17 32  1  0
 17 33  1  0
 18 34  1  0
 18 35  1  0
 19 36  1  0
 19 37  1  0
M  CHG  1   7   1
M  END
>  <UniqueID>  (13) 
12

>  <SMILES>  (13) 
Cn1c(SCC[NH3+])nc2sc3c(c2c1=O)CCCC3

>  <Energy>  (13) 
69.27112878219765

>  <Genealogy>  (13) 
Cn1c(SCC[NH3+])nc2sc3c(c2c1=O)CCCC3 (protonated)
Cn1c(SCC[NH3+])nc2sc3c(c2c1=O)CCCC3 (3D coordinates assigned)
Cn1c(SCC[NH3+])nc2sc3c(c2c1=O)CCCC3 (nonaromatic ring conformer: 69.27112878219765 kcal/mol)

>  <smiles>  (13) 
Cn1c(SCCN)nc2sc3c(c2c1=O)CCCC3

>  <score_type>  (13) 
oracle

>  <origin>  (13) 
adg

>  <m_score__min__energy>  (13) 
-7.4400000000000004

>  <m_primary>  (13) 
energy

$$$$
13:0
     RDKit          3D

 43 46  0  0  0  0  0  0  0  0999 V2000
   -6.0240   25.2020  -29.5870 C   0  0  0  0  0  0  0  0  0  0  0  0
   -4.9250   24.1460  -29.5710 C   0  0  0  0  0  0  0  0  0  0  0  0
   -5.0680   23.2530  -30.7150 N   0  0  0  0  0  0  0  0  0  0  0  0
   -5.1980   21.9130  -30.6770 C   0  0  0  0  0  0  0  0  0  0  0  0
   -5.2240   21.4890  -31.9910 C   0  0  0  0  0  0  0  0  0  0  0  0
   -5.2920   20.0930  -32.4520 C   0  0  0  0  0  0  0  0  0  0  0  0
   -4.2230   19.2630  -32.4230 N   0  0  0  0  0  0  0  0  0  0  0  0
   -4.6980   18.1090  -32.9340 C   0  0  0  0  0  0  0  0  0  0  0  0
   -3.9590   16.9370  -33.0870 C   0  0  0  0  0  0  0  0  0  0  0  0
   -4.6190   15.8090  -33.5920 C   0  0  0  0  0  0  0  0  0  0  0  0
   -5.9870   15.8730  -33.9130 C   0  0  0  0  0  0  0  0  0  0  0  0
   -6.8950   14.3260  -34.5670 Br  0  0  0  0  0  0  0  0  0  0  0  0
   -6.6840   17.0790  -33.7360 C   0  0  0  0  0  0  0  0  0  0  0  0
   -6.0010   18.1630  -33.2750 N   0  0  0  0  0  0  0  0  0  0  0  0
   -6.3890   19.4220  -32.9840 C   0  0  0  0  0  0  0  0  0  0  0  0
   -7.7240   19.9510  -33.0950 N   0  0  0  0  0  0  0  0  0  0  0  0
   -8.6730   20.0690  -31.9730 C   0  0  0  0  0  0  0  0  0  0  0  0
   -8.0430   20.8130  -30.7970 C   0  0  0  0  0  0  0  0  0  0  0  0
   -8.3420   22.2900  -31.0190 C   0  0  0  0  0  0  0  0  0  0  0  0
   -9.5040   22.3610  -32.0080 C   0  0  0  0  0  0  0  0  0  0  0  0
   -9.8860   20.9240  -32.3390 C   0  0  0  0  0  0  0  0  0  0  0  0
   -5.0850   22.5800  -32.7710 N   0  0  0  0  0  0  0  0  0  0  0  0
   -4.9860   23.6360  -31.9800 N   0  0  0  0  0  0  0  0  0  0  0  0
   -6.2962   25.4636  -28.5538 H   0  0  0  0  0  0  0  0  0  0  0  0
   -5.6622   26.0999  -30.1094 H   0  0  0  0  0  0  0  0  0  0  0  0
   -6.9067   24.8046  -30.1094 H   0  0  0  0  0  0  0  0  0  0  0  0
   -3.9441   24.6417  -29.6173 H   0  0  0  0  0  0  0  0  0  0  0  0
   -5.0054   23.5583  -28.6446 H   0  0  0  0  0  0  0  0  0  0  0  0
   -5.2692   21.2822  -29.7786 H   0  0  0  0  0  0  0  0  0  0  0  0
   -2.8926   16.8990  -32.8200 H   0  0  0  0  0  0  0  0  0  0  0  0
   -4.0653   14.8698  -33.7380 H   0  0  0  0  0  0  0  0  0  0  0  0
   -7.7578   17.1466  -33.9647 H   0  0  0  0  0  0  0  0  0  0  0  0
   -8.0710   20.1270  -34.0640 H   0  0  0  0  0  0  0  0  0  0  0  0
   -8.9541   19.0346  -31.7261 H   0  0  0  0  0  0  0  0  0  0  0  0
   -8.4856   20.4726  -29.8493 H   0  0  0  0  0  0  0  0  0  0  0  0
   -6.9603   20.6276  -30.7392 H   0  0  0  0  0  0  0  0  0  0  0  0
   -8.6240   22.7664  -30.0685 H   0  0  0  0  0  0  0  0  0  0  0  0
   -7.4589   22.8173  -31.4089 H   0  0  0  0  0  0  0  0  0  0  0  0
  -10.3575   22.8849  -31.5530 H   0  0  0  0  0  0  0  0  0  0  0  0
   -9.2180   22.9132  -32.9153 H   0  0  0  0  0  0  0  0  0  0  0  0
  -10.7621   20.6162  -31.7494 H   0  0  0  0  0  0  0  0  0  0  0  0
  -10.1511   20.8126  -33.4008 H   0  0  0  0  0  0  0  0  0  0  0  0
   -5.0070   22.6190  -33.8090 H   0  0  0  0  0  0  0  0  0  0  0  0
  1  2  1  0
  2  3  1  0
  3  4  1  0
  4  5  2  0
  5  6  1  0
  6  7  1  0
  7  8  2  0
  8  9  1  0
  9 10  2  0
 10 11  1  0
 11 12  1  0
 11 13  2  0
 13 14  1  0
 14 15  1  0
 15 16  1  0
 16 17  1  0
 17 18  1  0
 18 19  1  0
 19 20  1  0
 20 21  1  0
  5 22  1  0
 22 23  2  0
 23  3  1  0
 15  6  2  0
 21 17  1  0
 14  8  1  0
  1 24  1  0
  1 25  1  0
  1 26  1  0
  2 27  1  0
  2 28  1  0
  4 29  1  0
  9 30  1  0
 10 31  1  0
 13 32  1  0
 16 33  1  0
 17 34  1  0
 18 35  1  0
 18 36  1  0
 19 37  1  0
 19 38  1  0
 20 39  1  0
 20 40  1  0
 21 41  1  0
 21 42  1  0
 22 43  1  0
M  CHG  1  22   1
M  END
>  <UniqueID>  (14) 
13

>  <SMILES>  (14) 
CCn1cc(-c2nc3ccc(Br)cn3c2NC2CCCC2)[nH+]n1

>  <Energy>  (14) 
119.46967290331142

>  <Genealogy>  (14) 
CCn1cc(-c2nc3ccc(Br)cn3c2NC2CCCC2)[nH+]n1 (protonated)
CCn1cc(-c2nc3ccc(Br)cn3c2NC2CCCC2)[nH+]n1 (3D coordinates assigned)
CCn1cc(-c2nc3ccc(Br)cn3c2NC2CCCC2)[nH+]n1 (nonaromatic ring conformer: 119.46967290331142 kcal/mol)

>  <smiles>  (14) 
CCn1cc(-c2nc3ccc(Br)cn3c2NC2CCCC2)nn1

>  <score_type>  (14) 
oracle

>  <origin>  (14) 
adg

>  <m_score__min__energy>  (14) 
-7.6799999999999997

>  <m_primary>  (14) 
energy

$$$$
14:0
     RDKit          3D

 57 59  0  0  0  0  0  0  0  0999 V2000
   -8.7660   19.2610  -31.6070 C   0  0  0  0  0  0  0  0  0  0  0  0
   -8.1390   20.0050  -32.6430 O   0  0  0  0  0  0  0  0  0  0  0  0
   -6.9670   20.7680  -32.4860 C   0  0  0  0  0  0  0  0  0  0  0  0
   -7.0020   22.0970  -32.0160 C   0  0  0  0  0  0  0  0  0  0  0  0
   -5.8200   22.8370  -31.8440 C   0  0  0  0  0  0  0  0  0  0  0  0
   -5.9240   24.2930  -31.4120 C   0  0  1  0  0  0  0  0  0  0  0  0
   -6.7490   24.5340  -30.1540 C   0  0  0  0  0  0  0  0  0  0  0  0
   -5.7210   24.6920  -29.0700 C   0  0  0  0  0  0  0  0  0  0  0  0
   -4.4040   24.9120  -29.8200 C   0  0  1  0  0  0  0  0  0  0  0  0
   -3.3160   23.9480  -29.3680 C   0  0  0  0  0  0  0  0  0  0  0  0
   -1.9990   24.4090  -29.2350 C   0  0  0  0  0  0  0  0  0  0  0  0
   -0.9700   23.5440  -28.8230 C   0  0  0  0  0  0  0  0  0  0  0  0
    0.3580   23.9930  -28.6730 O   0  0  0  0  0  0  0  0  0  0  0  0
    1.0420   24.1130  -27.4330 C   0  0  0  0  0  0  0  0  0  0  0  0
   -1.2500   22.1900  -28.5550 C   0  0  0  0  0  0  0  0  0  0  0  0
   -0.1600   21.3770  -28.1770 O   0  0  0  0  0  0  0  0  0  0  0  0
    0.2410   20.1630  -28.7950 C   0  0  0  0  0  0  0  0  0  0  0  0
   -2.5800   21.7070  -28.6810 C   0  0  0  0  0  0  0  0  0  0  0  0
   -2.8710   20.3620  -28.3960 O   0  0  0  0  0  0  0  0  0  0  0  0
   -2.7720   19.7610  -27.1040 C   0  0  0  0  0  0  0  0  0  0  0  0
   -3.5920   22.5970  -29.0970 C   0  0  0  0  0  0  0  0  0  0  0  0
   -4.6330   24.8190  -31.2120 O   0  0  0  0  0  0  0  0  0  0  0  0
   -4.5920   22.2430  -32.1960 C   0  0  0  0  0  0  0  0  0  0  0  0
   -4.5450   20.9280  -32.6610 C   0  0  0  0  0  0  0  0  0  0  0  0
   -5.7250   20.1830  -32.8050 C   0  0  0  0  0  0  0  0  0  0  0  0
   -5.6520   18.8290  -33.2810 N   0  0  0  0  0  0  0  0  0  0  0  0
   -5.7370   18.5300  -34.7170 C   0  0  0  0  0  0  0  0  0  0  0  0
   -5.6570   17.7330  -32.3120 C   0  0  0  0  0  0  0  0  0  0  0  0
   -8.4406   19.6471  -30.6298 H   0  0  0  0  0  0  0  0  0  0  0  0
   -9.8581   19.3588  -31.6947 H   0  0  0  0  0  0  0  0  0  0  0  0
   -8.4846   18.2012  -31.6947 H   0  0  0  0  0  0  0  0  0  0  0  0
   -7.9706   22.5621  -31.7801 H   0  0  0  0  0  0  0  0  0  0  0  0
   -6.4548   24.8013  -32.2305 H   0  0  0  0  0  0  0  0  0  0  0  0
   -7.3560   25.4460  -30.2532 H   0  0  0  0  0  0  0  0  0  0  0  0
   -7.4577   23.7179  -29.9497 H   0  0  0  0  0  0  0  0  0  0  0  0
   -5.9560   25.5585  -28.4345 H   0  0  0  0  0  0  0  0  0  0  0  0
   -5.6809   23.8197  -28.4011 H   0  0  0  0  0  0  0  0  0  0  0  0
   -4.0361   25.9212  -29.5829 H   0  0  0  0  0  0  0  0  0  0  0  0
   -1.7675   25.4614  -29.4559 H   0  0  0  0  0  0  0  0  0  0  0  0
    0.3272   23.9876  -26.6063 H   0  0  0  0  0  0  0  0  0  0  0  0
    1.8193   23.3375  -27.3665 H   0  0  0  0  0  0  0  0  0  0  0  0
    1.5089   25.1068  -27.3665 H   0  0  0  0  0  0  0  0  0  0  0  0
    0.4861   19.4210  -28.0208 H   0  0  0  0  0  0  0  0  0  0  0  0
   -0.5791   19.7821  -29.4214 H   0  0  0  0  0  0  0  0  0  0  0  0
    1.1266   20.3455  -29.4214 H   0  0  0  0  0  0  0  0  0  0  0  0
   -2.8991   20.5323  -26.3301 H   0  0  0  0  0  0  0  0  0  0  0  0
   -3.5566   18.9979  -26.9935 H   0  0  0  0  0  0  0  0  0  0  0  0
   -1.7841   19.2899  -26.9935 H   0  0  0  0  0  0  0  0  0  0  0  0
   -4.6208   22.2251  -29.2119 H   0  0  0  0  0  0  0  0  0  0  0  0
   -3.6610   22.8214  -32.1034 H   0  0  0  0  0  0  0  0  0  0  0  0
   -3.5767   20.4728  -32.9162 H   0  0  0  0  0  0  0  0  0  0  0  0
   -6.0354   17.4804  -34.8559 H   0  0  0  0  0  0  0  0  0  0  0  0
   -6.4835   19.1885  -35.1851 H   0  0  0  0  0  0  0  0  0  0  0  0
   -4.7557   18.6973  -35.1851 H   0  0  0  0  0  0  0  0  0  0  0  0
   -5.6551   18.1452  -31.2922 H   0  0  0  0  0  0  0  0  0  0  0  0
   -6.5580   17.1189  -32.4576 H   0  0  0  0  0  0  0  0  0  0  0  0
   -4.7617   17.1107  -32.4576 H   0  0  0  0  0  0  0  0  0  0  0  0
  1  2  1  0
  2  3  1  0
  3  4  2  0
  4  5  1  0
  5  6  1  0
  6  7  1  0
  7  8  1  0
  8  9  1  0
  9 10  1  0
 10 11  2  0
 11 12  1  0
 12 13  1  0
 13 14  1  0
 12 15  2  0
 15 16  1  0
 16 17  1  0
 15 18  1  0
 18 19  1  0
 19 20  1  0
 18 21  2  0
  9 22  1  0
  5 23  2  0
 23 24  1  0
 24 25  2  0
 25 26  1  0
 26 27  1  0
 26 28  1  0
 25  3  1  0
 22  6  1  0
 21 10  1  0
  1 29  1  0
  1 30  1  0
  1 31  1  0
  4 32  1  0
  6 33  1  6
  7 34  1  0
  7 35  1  0
  8 36  1  0
  8 37  1  0
  9 38  1  6
 11 39  1  0
 14 40  1  0
 14 41  1  0
 14 42  1  0
 17 43  1  0
 17 44  1  0
 17 45  1  0
 20 46  1  0
 20 47  1  0
 20 48  1  0
 21 49  1  0
 23 50  1  0
 24 51  1  0
 27 52  1  0
 27 53  1  0
 27 54  1  0
 28 55  1  0
 28 56  1  0
 28 57  1  0
M  END
>  <UniqueID>  (15) 
14

>  <SMILES>  (15) 
COc1cc([C@H]2CC[C@@H](c3cc(OC)c(OC)c(OC)c3)O2)ccc1N(C)C

>  <Energy>  (15) 
64.54971001128791

>  <Genealogy>  (15) 
COc1cc([C@H]2CC[C@@H](c3cc(OC)c(OC)c(OC)c3)O2)ccc1N(C)C (chirality)
COc1cc([C@H]2CC[C@@H](c3cc(OC)c(OC)c(OC)c3)O2)ccc1N(C)C (3D coordinates assigned)
COc1cc([C@H]2CC[C@@H](c3cc(OC)c(OC)c(OC)c3)O2)ccc1N(C)C (nonaromatic ring conformer: 64.54971001128791 kcal/mol)

>  <smiles>  (15) 
COc1cc(C2CCC(c3cc(OC)c(OC)c(OC)c3)O2)ccc1N(C)C

>  <score_type>  (15) 
oracle

>  <origin>  (15) 
adg

>  <m_score__min__energy>  (15) 
-7.8200000000000003

>  <m_primary>  (15) 
energy

$$$$
15:0
     RDKit          3D

 61 64  0  0  0  0  0  0  0  0999 V2000
   -0.6450   21.5360  -34.2010 C   0  0  0  0  0  0  0  0  0  0  0  0
   -1.0970   20.9360  -32.9420 N   0  0  0  0  0  0  0  0  0  0  0  0
   -0.1960   20.6950  -31.8330 C   0  0  0  0  0  0  0  0  0  0  0  0
    0.9760   20.2890  -32.0710 O   0  0  0  0  0  0  0  0  0  0  0  0
   -0.5610   20.9710  -30.3860 C   0  0  2  0  0  0  0  0  0  0  0  0
   -1.2110   19.7650  -29.6910 C   0  0  0  0  0  0  0  0  0  0  0  0
   -1.4590   20.0640  -28.2060 C   0  0  0  0  0  0  0  0  0  0  0  0
   -1.8700   21.5310  -27.9450 C   0  0  0  0  0  0  0  0  0  0  0  0
   -2.4210   22.1780  -29.1590 N   0  0  1  0  0  0  0  0  0  0  0  0
   -2.9480   23.5300  -28.8490 C   0  0  0  0  0  0  0  0  0  0  0  0
   -4.2910   23.7760  -29.4950 C   0  0  0  0  0  0  0  0  0  0  0  0
   -4.5270   24.9480  -30.2350 C   0  0  0  0  0  0  0  0  0  0  0  0
   -5.7790   25.1740  -30.8170 C   0  0  0  0  0  0  0  0  0  0  0  0
   -6.8020   24.2330  -30.6690 C   0  0  0  0  0  0  0  0  0  0  0  0
   -6.5740   23.0650  -29.9350 C   0  0  0  0  0  0  0  0  0  0  0  0
   -5.3250   22.8370  -29.3480 C   0  0  0  0  0  0  0  0  0  0  0  0
   -1.3800   22.2800  -30.2140 C   0  0  0  0  0  0  0  0  0  0  0  0
   -2.5070   20.7180  -32.7710 C   0  0  0  0  0  0  0  0  0  0  0  0
   -3.3960   21.8010  -32.7050 C   0  0  0  0  0  0  0  0  0  0  0  0
   -4.7700   21.5800  -32.5760 C   0  0  0  0  0  0  0  0  0  0  0  0
   -5.2790   20.2710  -32.5260 C   0  0  0  0  0  0  0  0  0  0  0  0
   -6.6990   20.0470  -32.4140 N   0  0  0  0  0  0  0  0  0  0  0  0
   -7.2640   18.7260  -32.7050 C   0  0  0  0  0  0  0  0  0  0  0  0
   -8.5730   18.5420  -31.9300 C   0  0  0  0  0  0  0  0  0  0  0  0
   -9.4550   19.6210  -32.1690 O   0  0  0  0  0  0  0  0  0  0  0  0
   -8.9000   20.8150  -31.6510 C   0  0  0  0  0  0  0  0  0  0  0  0
   -7.6190   21.1900  -32.4010 C   0  0  0  0  0  0  0  0  0  0  0  0
   -4.3840   19.1880  -32.5920 C   0  0  0  0  0  0  0  0  0  0  0  0
   -3.0100   19.4110  -32.7160 C   0  0  0  0  0  0  0  0  0  0  0  0
    0.0039   22.3974  -33.9845 H   0  0  0  0  0  0  0  0  0  0  0  0
   -0.0825   20.7900  -34.7816 H   0  0  0  0  0  0  0  0  0  0  0  0
   -1.5173   21.8708  -34.7816 H   0  0  0  0  0  0  0  0  0  0  0  0
    0.3917   21.1379  -29.8621 H   0  0  0  0  0  0  0  0  0  0  0  0
   -2.1707   19.5407  -30.1795 H   0  0  0  0  0  0  0  0  0  0  0  0
   -0.5323   18.9030  -29.7699 H   0  0  0  0  0  0  0  0  0  0  0  0
   -2.2629   19.4054  -27.8455 H   0  0  0  0  0  0  0  0  0  0  0  0
   -0.5132   19.8878  -27.6728 H   0  0  0  0  0  0  0  0  0  0  0  0
   -2.6345   21.5502  -27.1544 H   0  0  0  0  0  0  0  0  0  0  0  0
   -0.9704   22.0870  -27.6425 H   0  0  0  0  0  0  0  0  0  0  0  0
   -3.2090   21.5950  -29.5290 H   0  0  0  0  0  0  0  0  0  0  0  0
   -3.0552   23.6279  -27.7586 H   0  0  0  0  0  0  0  0  0  0  0  0
   -2.2388   24.2705  -29.2473 H   0  0  0  0  0  0  0  0  0  0  0  0
   -3.7242   25.6901  -30.3568 H   0  0  0  0  0  0  0  0  0  0  0  0
   -5.9587   26.0942  -31.3923 H   0  0  0  0  0  0  0  0  0  0  0  0
   -7.7850   24.4111  -31.1293 H   0  0  0  0  0  0  0  0  0  0  0  0
   -7.3785   22.3239  -29.8189 H   0  0  0  0  0  0  0  0  0  0  0  0
   -5.1519   21.9181  -28.7686 H   0  0  0  0  0  0  0  0  0  0  0  0
   -1.8712   22.5145  -31.1699 H   0  0  0  0  0  0  0  0  0  0  0  0
   -0.6781   23.0701  -29.9089 H   0  0  0  0  0  0  0  0  0  0  0  0
   -3.0097   22.8297  -32.7550 H   0  0  0  0  0  0  0  0  0  0  0  0
   -5.4576   22.4363  -32.5132 H   0  0  0  0  0  0  0  0  0  0  0  0
   -7.4629   18.6429  -33.7837 H   0  0  0  0  0  0  0  0  0  0  0  0
   -6.5480   17.9484  -32.4005 H   0  0  0  0  0  0  0  0  0  0  0  0
   -9.0534   17.6059  -32.2509 H   0  0  0  0  0  0  0  0  0  0  0  0
   -8.3436   18.5062  -30.8548 H   0  0  0  0  0  0  0  0  0  0  0  0
   -9.6320   21.6290  -31.7583 H   0  0  0  0  0  0  0  0  0  0  0  0
   -8.6541   20.6581  -30.5904 H   0  0  0  0  0  0  0  0  0  0  0  0
   -7.8695   21.4691  -33.4351 H   0  0  0  0  0  0  0  0  0  0  0  0
   -7.1367   22.0392  -31.8948 H   0  0  0  0  0  0  0  0  0  0  0  0
   -4.7682   18.1583  -32.5457 H   0  0  0  0  0  0  0  0  0  0  0  0
   -2.3197   18.5563  -32.7707 H   0  0  0  0  0  0  0  0  0  0  0  0
  1  2  1  0
  2  3  1  0
  3  4  2  0
  3  5  1  0
  5  6  1  0
  6  7  1  0
  7  8  1  0
  8  9  1  0
  9 10  1  0
 10 11  1  0
 11 12  2  0
 12 13  1  0
 13 14  2  0
 14 15  1  0
 15 16  2  0
  9 17  1  0
  2 18  1  0
 18 19  2  0
 19 20  1  0
 20 21  2  0
 21 22  1  0
 22 23  1  0
 23 24  1  0
 24 25  1  0
 25 26  1  0
 26 27  1  0
 21 28  1  0
 28 29  2  0
 17  5  1  0
 29 18  1  0
 16 11  1  0
 27 22  1  0
  1 30  1  0
  1 31  1  0
  1 32  1  0
  5 33  1  1
  6 34  1  0
  6 35  1  0
  7 36  1  0
  7 37  1  0
  8 38  1  0
  8 39  1  0
  9 40  1  6
 10 41  1  0
 10 42  1  0
 12 43  1  0
 13 44  1  0
 14 45  1  0
 15 46  1  0
 16 47  1  0
 17 48  1  0
 17 49  1  0
 19 50  1  0
 20 51  1  0
 23 52  1  0
 23 53  1  0
 24 54  1  0
 24 55  1  0
 26 56  1  0
 26 57  1  0
 27 58  1  0
 27 59  1  0
 28 60  1  0
 29 61  1  0
M  CHG  1   9   1
M  END
>  <UniqueID>  (16) 
15

>  <SMILES>  (16) 
CN(C(=O)[C@@H]1CCC[N@@H+](Cc2ccccc2)C1)c1ccc(N2CCOCC2)cc1

>  <Energy>  (16) 
86.00178760910447

>  <Genealogy>  (16) 
CN(C(=O)C1CCC[NH+](Cc2ccccc2)C1)c1ccc(N2CCOCC2)cc1 (protonated)
CN(C(=O)[C@@H]1CCC[N@@H+](Cc2ccccc2)C1)c1ccc(N2CCOCC2)cc1 (chirality)
CN(C(=O)[C@@H]1CCC[N@@H+](Cc2ccccc2)C1)c1ccc(N2CCOCC2)cc1 (3D coordinates assigned)
CN(C(=O)[C@@H]1CCC[N@@H+](Cc2ccccc2)C1)c1ccc(N2CCOCC2)cc1 (nonaromatic ring conformer: 86.00178760910447 kcal/mol)

>  <smiles>  (16) 
CN(C(=O)C1CCCN(Cc2ccccc2)C1)c1ccc(N2CCOCC2)cc1

>  <score_type>  (16) 
oracle

>  <origin>  (16) 
adg

>  <m_score__min__energy>  (16) 
-9.2400000000000002

>  <m_primary>  (16) 
energy

$$$$
16:0
     RDKit          3D

 47 49  0  0  0  0  0  0  0  0999 V2000
   -5.4534   25.4360  -29.3509 H   0  0  0  0  0  0  0  0  0  0  0  0
   -5.4050   24.7240  -30.1880 C   0  0  0  0  0  0  0  0  0  0  0  0
   -6.4910   24.6170  -30.9710 C   0  0  0  0  0  0  0  0  0  0  0  0
   -6.8514   25.5328  -31.4624 H   0  0  0  0  0  0  0  0  0  0  0  0
   -7.2430   23.3670  -31.2270 C   0  0  0  0  0  0  0  0  0  0  0  0
   -6.7590   22.1150  -30.8110 C   0  0  0  0  0  0  0  0  0  0  0  0
   -5.7898   22.0473  -30.2951 H   0  0  0  0  0  0  0  0  0  0  0  0
   -7.5020   20.9550  -31.0490 C   0  0  0  0  0  0  0  0  0  0  0  0
   -7.1246   19.9815  -30.7029 H   0  0  0  0  0  0  0  0  0  0  0  0
   -8.7330   21.0290  -31.7310 C   0  0  0  0  0  0  0  0  0  0  0  0
   -9.5220   19.8970  -31.9820 O   0  0  0  0  0  0  0  0  0  0  0  0
   -9.0500   18.5560  -31.9060 C   0  0  0  0  0  0  0  0  0  0  0  0
   -8.9468   18.2629  -30.8508 H   0  0  0  0  0  0  0  0  0  0  0  0
   -9.7664   17.8863  -32.4042 H   0  0  0  0  0  0  0  0  0  0  0  0
   -8.0720   18.4827  -32.4042 H   0  0  0  0  0  0  0  0  0  0  0  0
   -9.1900   22.2720  -32.1790 C   0  0  0  0  0  0  0  0  0  0  0  0
  -10.1419   22.3375  -32.7264 H   0  0  0  0  0  0  0  0  0  0  0  0
   -8.4490   23.4320  -31.9380 C   0  0  0  0  0  0  0  0  0  0  0  0
   -8.8142   24.4013  -32.3083 H   0  0  0  0  0  0  0  0  0  0  0  0
   -4.1530   23.9640  -30.3600 C   0  0  0  0  0  0  0  0  0  0  0  0
   -3.9740   23.0620  -31.3420 N   0  0  0  0  0  0  0  0  0  0  0  0
   -2.7140   22.6120  -31.1380 C   0  0  0  0  0  0  0  0  0  0  0  0
   -2.0570   21.5640  -31.9430 C   0  0  0  0  0  0  0  0  0  0  0  0
   -1.1915   21.0533  -31.4956 H   0  0  0  0  0  0  0  0  0  0  0  0
   -2.4270   21.1820  -33.1750 C   0  0  0  0  0  0  0  0  0  0  0  0
   -1.8294   21.5534  -34.0205 H   0  0  0  0  0  0  0  0  0  0  0  0
   -3.5720   20.3030  -33.4870 C   0  0  0  0  0  0  0  0  0  0  0  0
   -4.8780   20.7990  -33.3540 C   0  0  0  0  0  0  0  0  0  0  0  0
   -5.0394   21.8439  -33.0506 H   0  0  0  0  0  0  0  0  0  0  0  0
   -5.9750   19.9690  -33.6060 C   0  0  0  0  0  0  0  0  0  0  0  0
   -6.9966   20.3669  -33.5170 H   0  0  0  0  0  0  0  0  0  0  0  0
   -5.7750   18.6340  -33.9710 C   0  0  0  0  0  0  0  0  0  0  0  0
   -6.6391   17.9850  -34.1764 H   0  0  0  0  0  0  0  0  0  0  0  0
   -4.4790   18.1240  -34.0750 C   0  0  0  0  0  0  0  0  0  0  0  0
   -4.3230   17.0718  -34.3551 H   0  0  0  0  0  0  0  0  0  0  0  0
   -3.3790   18.9510  -33.8230 C   0  0  0  0  0  0  0  0  0  0  0  0
   -2.3598   18.5424  -33.8879 H   0  0  0  0  0  0  0  0  0  0  0  0
   -2.1310   23.1830  -30.1070 O   0  0  0  0  0  0  0  0  0  0  0  0
   -2.9930   24.0370  -29.6150 C   0  0  0  0  0  0  0  0  0  0  0  0
   -2.7290   24.9210  -28.5170 N   0  0  0  0  0  0  0  0  0  0  0  0
   -3.5350   25.3260  -27.9920 H   0  0  0  0  0  0  0  0  0  0  0  0
   -1.4020   25.2470  -28.0840 C   0  0  0  0  0  0  0  0  0  0  0  0
   -0.3960   24.7820  -28.6870 O   0  0  0  0  0  0  0  0  0  0  0  0
   -1.2060   26.1240  -26.8920 C   0  0  0  0  0  0  0  0  0  0  0  0
   -1.3385   25.5312  -25.9749 H   0  0  0  0  0  0  0  0  0  0  0  0
   -0.1910   26.5476  -26.9114 H   0  0  0  0  0  0  0  0  0  0  0  0
   -1.9441   26.9394  -26.9114 H   0  0  0  0  0  0  0  0  0  0  0  0
  1  2  1  0
  2  3  2  3
  3  4  1  0
  3  5  1  0
  5  6  2  0
  6  7  1  0
  6  8  1  0
  8  9  1  0
  8 10  2  0
 10 11  1  0
 11 12  1  0
 12 13  1  0
 12 14  1  0
 12 15  1  0
 10 16  1  0
 16 17  1  0
 16 18  2  0
 18 19  1  0
  2 20  1  0
 20 21  1  0
 21 22  2  0
 22 23  1  0
 23 24  1  0
 23 25  2  0
 25 26  1  0
 25 27  1  0
 27 28  2  0
 28 29  1  0
 28 30  1  0
 30 31  1  0
 30 32  2  0
 32 33  1  0
 32 34  1  0
 34 35  1  0
 34 36  2  0
 36 37  1  0
 22 38  1  0
 38 39  1  0
 39 40  1  0
 40 41  1  0
 40 42  1  0
 42 43  2  0
 42 44  1  0
 44 45  1  0
 44 46  1  0
 44 47  1  0
 18  5  1  0
 39 20  2  0
 36 27  1  0
M  END
>  <UniqueID>  (17) 
16

>  <SMILES>  (17) 
COc1ccc(C=Cc2nc(/C=C\c3ccccc3)oc2NC(C)=O)cc1

>  <Energy>  (17) 
91.98398014104829

>  <Genealogy>  (17) 
COc1ccc(C=Cc2nc(/C=C\c3ccccc3)oc2NC(C)=O)cc1 (cis-trans isomerization)
COc1ccc(C=Cc2nc(/C=C\c3ccccc3)oc2NC(C)=O)cc1 (3D coordinates assigned)
COc1ccc(C=Cc2nc(/C=C\c3ccccc3)oc2NC(C)=O)cc1 (optimized conformer: 91.98398014104829 kcal/mol)

>  <smiles>  (17) 
COc1ccc(C=Cc2nc(C=Cc3ccccc3)oc2NC(C)=O)cc1

>  <score_type>  (17) 
oracle

>  <origin>  (17) 
adg

>  <m_score__min__energy>  (17) 
-8.9700000000000006

>  <m_primary>  (17) 
energy

$$$$
17:0
     RDKit          3D

 56 58  0  0  0  0  0  0  0  0999 V2000
   -0.8560   27.2100  -27.8500 C   0  0  0  0  0  0  0  0  0  0  0  0
   -0.8300   25.8540  -28.2850 O   0  0  0  0  0  0  0  0  0  0  0  0
   -0.4150   24.7660  -27.4980 C   0  0  0  0  0  0  0  0  0  0  0  0
    0.9480   24.4410  -27.3350 C   0  0  0  0  0  0  0  0  0  0  0  0
    1.3270   23.3530  -26.5430 C   0  0  0  0  0  0  0  0  0  0  0  0
    0.3580   22.5810  -25.9010 C   0  0  0  0  0  0  0  0  0  0  0  0
   -0.9940   22.8910  -26.0490 C   0  0  0  0  0  0  0  0  0  0  0  0
   -1.3920   23.9780  -26.8500 C   0  0  0  0  0  0  0  0  0  0  0  0
   -2.8660   24.2530  -27.0600 C   0  0  0  0  0  0  0  0  0  0  0  0
   -3.3870   23.6000  -28.2860 N   0  0  0  0  0  0  0  0  0  0  0  0
   -3.4890   22.1170  -28.2140 C   0  0  0  0  0  0  0  0  0  0  0  0
   -2.7480   21.3610  -29.3420 C   0  0  0  0  0  0  0  0  0  0  0  0
   -1.4120   22.0280  -29.7070 C   0  0  0  0  0  0  0  0  0  0  0  0
   -1.6110   23.4270  -30.0890 N   0  0  0  0  0  0  0  0  0  0  0  0
   -4.6270   24.2530  -28.7630 C   0  0  0  0  0  0  0  0  0  0  0  0
   -4.6640   24.3850  -30.2650 C   0  0  0  0  0  0  0  0  0  0  0  0
   -3.9070   25.2350  -30.8190 O   0  0  0  0  0  0  0  0  0  0  0  0
   -5.3720   23.4360  -31.0850 N   0  0  0  0  0  0  0  0  0  0  0  0
   -4.6800   22.7110  -32.1560 C   0  0  0  0  0  0  0  0  0  0  0  0
   -5.2200   21.2830  -32.2740 C   0  0  0  0  0  0  0  0  0  0  0  0
   -6.7250   21.2250  -32.2200 C   0  0  0  0  0  0  0  0  0  0  0  0
   -7.3780   20.0600  -32.6570 C   0  0  0  0  0  0  0  0  0  0  0  0
   -8.7650   19.9440  -32.5600 C   0  0  0  0  0  0  0  0  0  0  0  0
   -9.5170   20.9840  -32.0140 C   0  0  0  0  0  0  0  0  0  0  0  0
   -8.8790   22.1420  -31.5560 C   0  0  0  0  0  0  0  0  0  0  0  0
   -7.4820   22.2660  -31.6360 C   0  0  0  0  0  0  0  0  0  0  0  0
   -6.8350   23.5370  -31.1410 C   0  0  0  0  0  0  0  0  0  0  0  0
   -0.8566   27.2424  -26.7505 H   0  0  0  0  0  0  0  0  0  0  0  0
    0.0323   27.7346  -28.2318 H   0  0  0  0  0  0  0  0  0  0  0  0
   -1.7637   27.7002  -28.2318 H   0  0  0  0  0  0  0  0  0  0  0  0
    1.7178   25.0477  -27.8344 H   0  0  0  0  0  0  0  0  0  0  0  0
    2.3922   23.1048  -26.4256 H   0  0  0  0  0  0  0  0  0  0  0  0
    0.6606   21.7269  -25.2774 H   0  0  0  0  0  0  0  0  0  0  0  0
   -1.7537   22.2824  -25.5367 H   0  0  0  0  0  0  0  0  0  0  0  0
   -3.4247   23.8739  -26.1916 H   0  0  0  0  0  0  0  0  0  0  0  0
   -2.9947   25.3394  -27.1744 H   0  0  0  0  0  0  0  0  0  0  0  0
   -3.0695   21.7914  -27.2507 H   0  0  0  0  0  0  0  0  0  0  0  0
   -4.5558   21.8738  -28.3267 H   0  0  0  0  0  0  0  0  0  0  0  0
   -2.5506   20.3316  -29.0083 H   0  0  0  0  0  0  0  0  0  0  0  0
   -3.3885   21.3759  -30.2362 H   0  0  0  0  0  0  0  0  0  0  0  0
   -0.7391   21.9847  -28.8379 H   0  0  0  0  0  0  0  0  0  0  0  0
   -0.9739   21.4906  -30.5609 H   0  0  0  0  0  0  0  0  0  0  0  0
   -2.6170   23.5440  -30.3420 H   0  0  0  0  0  0  0  0  0  0  0  0
   -1.4530   24.0270  -29.2480 H   0  0  0  0  0  0  0  0  0  0  0  0
   -5.4899   23.6524  -28.4395 H   0  0  0  0  0  0  0  0  0  0  0  0
   -4.6593   25.2661  -28.3356 H   0  0  0  0  0  0  0  0  0  0  0  0
   -4.8370   23.2371  -33.1092 H   0  0  0  0  0  0  0  0  0  0  0  0
   -3.6067   22.6666  -31.9192 H   0  0  0  0  0  0  0  0  0  0  0  0
   -4.8854   20.8581  -33.2319 H   0  0  0  0  0  0  0  0  0  0  0  0
   -4.8341   20.7096  -31.4182 H   0  0  0  0  0  0  0  0  0  0  0  0
   -6.7902   19.2318  -33.0795 H   0  0  0  0  0  0  0  0  0  0  0  0
   -9.2660   19.0312  -32.9146 H   0  0  0  0  0  0  0  0  0  0  0  0
  -10.6110   20.8939  -31.9435 H   0  0  0  0  0  0  0  0  0  0  0  0
   -9.4761   22.9617  -31.1299 H   0  0  0  0  0  0  0  0  0  0  0  0
   -7.1065   24.3589  -31.8198 H   0  0  0  0  0  0  0  0  0  0  0  0
   -7.1974   23.7213  -30.1189 H   0  0  0  0  0  0  0  0  0  0  0  0
  1  2  1  0
  2  3  1  0
  3  4  2  0
  4  5  1  0
  5  6  2  0
  6  7  1  0
  7  8  2  0
  8  9  1  0
  9 10  1  0
 10 11  1  0
 11 12  1  0
 12 13  1  0
 13 14  1  0
 10 15  1  0
 15 16  1  0
 16 17  2  0
 16 18  1  0
 18 19  1  0
 19 20  1  0
 20 21  1  0
 21 22  2  0
 22 23  1  0
 23 24  2  0
 24 25  1  0
 25 26  2  0
 26 27  1  0
  8  3  1  0
 27 18  1  0
 26 21  1  0
  1 28  1  0
  1 29  1  0
  1 30  1  0
  4 31  1  0
  5 32  1  0
  6 33  1  0
  7 34  1  0
  9 35  1  0
  9 36  1  0
 11 37  1  0
 11 38  1  0
 12 39  1  0
 12 40  1  0
 13 41  1  0
 13 42  1  0
 14 43  1  0
 14 44  1  0
 15 45  1  0
 15 46  1  0
 19 47  1  0
 19 48  1  0
 20 49  1  0
 20 50  1  0
 22 51  1  0
 23 52  1  0
 24 53  1  0
 25 54  1  0
 27 55  1  0
 27 56  1  0
M  END
>  <UniqueID>  (18) 
17

>  <SMILES>  (18) 
COc1ccccc1CN(CCCN)CC(=O)N1CCc2ccccc2C1

>  <Energy>  (18) 
63.126633665048125

>  <Genealogy>  (18) 
COc1ccccc1CN(CCCN)CC(=O)N1CCc2ccccc2C1 (3D coordinates assigned)
COc1ccccc1CN(CCCN)CC(=O)N1CCc2ccccc2C1 (nonaromatic ring conformer: 63.126633665048125 kcal/mol)

>  <smiles>  (18) 
COc1ccccc1CN(CCCN)CC(=O)N1CCc2ccccc2C1

>  <score_type>  (18) 
oracle

>  <origin>  (18) 
adg

>  <m_score__min__energy>  (18) 
-8.5199999999999996

>  <m_primary>  (18) 
energy

$$$$
18:0
     RDKit          3D

 22 23  0  0  1  0  0  0  0  0999 V2000
   -4.2670   25.2210  -30.8350 O   0  0  0  0  0  0  0  0  0  0  0  0
   -5.2540   24.4290  -30.9670 C   0  0  0  0  0  0  0  0  0  0  0  0
   -6.1850   24.3030  -29.9510 C   0  0  0  0  0  0  0  0  0  0  0  0
   -7.2350   23.4470  -30.1190 C   0  0  0  0  0  0  0  0  0  0  0  0
   -7.3170   22.7450  -31.2970 C   0  0  0  0  0  0  0  0  0  0  0  0
   -8.2770   21.9230  -31.5210 N   0  0  0  0  0  0  0  0  0  0  0  0
   -8.0660   20.5660  -31.9020 C   0  0  0  0  0  0  0  0  0  0  0  0
   -8.7780   19.5140  -31.3600 C   0  0  0  0  0  0  0  0  0  0  0  0
   -8.5390   18.2020  -31.7610 C   0  0  0  0  0  0  0  0  0  0  0  0
   -7.5560   18.0200  -32.7230 C   0  0  0  0  0  0  0  0  0  0  0  0
   -6.8410   19.0660  -33.2680 C   0  0  0  0  0  0  0  0  0  0  0  0
   -7.1150   20.3060  -32.8430 N   0  0  0  0  0  0  0  0  0  0  0  0
   -6.3880   22.8900  -32.2750 N   0  0  0  0  0  0  0  0  0  0  0  0
   -5.3650   23.7230  -32.1160 N   0  0  0  0  0  0  0  0  0  0  0  0
   -6.0806   24.8835  -29.0225 H   0  0  0  0  0  0  0  0  0  0  0  0
   -7.9944   23.3228  -29.3329 H   0  0  0  0  0  0  0  0  0  0  0  0
   -9.5464   19.7158  -30.5992 H   0  0  0  0  0  0  0  0  0  0  0  0
   -9.0995   17.3554  -31.3378 H   0  0  0  0  0  0  0  0  0  0  0  0
   -7.3375   16.9978  -33.0657 H   0  0  0  0  0  0  0  0  0  0  0  0
   -6.0680   18.8868  -34.0298 H   0  0  0  0  0  0  0  0  0  0  0  0
   -6.4770   22.3380  -33.1710 H   0  0  0  0  0  0  0  0  0  0  0  0
   -4.6700   23.8080  -32.8910 H   0  0  0  0  0  0  0  0  0  0  0  0
  1  2  2  0
  2  3  1  0
  3  4  2  0
  4  5  1  0
  5  6  2  0
  6  7  1  0
  7  8  2  0
  8  9  1  0
  9 10  2  0
 10 11  1  0
 11 12  2  0
  5 13  1  0
 13 14  1  0
 14  2  1  0
 12  7  1  0
  3 15  1  0
  4 16  1  0
  8 17  1  0
  9 18  1  0
 10 19  1  0
 11 20  1  0
 13 21  1  0
 14 22  1  0
M  END
>  <smiles>  (19) 
O=c1ccc(=Nc2ccccn2)[nH][nH]1

>  <score_type>  (19) 
oracle

>  <origin>  (19) 
adg

>  <m_score__min__energy>  (19) 
-6.2400000000000002

>  <m_primary>  (19) 
energy

$$$$
19:0
     RDKit          3D

 34 35  0  0  0  0  0  0  0  0999 V2000
   -0.1840   23.3410  -24.4050 C   0  0  0  0  0  0  0  0  0  0  0  0
   -0.4840   24.8110  -24.5420 C   0  0  0  0  0  0  0  0  0  0  0  0
    0.1290   25.6980  -23.7040 N   0  0  0  0  0  0  0  0  0  0  0  0
   -0.1010   27.0340  -23.7930 C   0  0  0  0  0  0  0  0  0  0  0  0
   -0.9780   27.5180  -24.7600 C   0  0  0  0  0  0  0  0  0  0  0  0
   -1.5930   26.6470  -25.5980 N   0  0  0  0  0  0  0  0  0  0  0  0
   -1.3780   25.3050  -25.5230 C   0  0  0  0  0  0  0  0  0  0  0  0
   -2.1130   24.4170  -26.4970 C   0  0  0  0  0  0  0  0  0  0  0  0
   -3.4830   24.9060  -26.7050 N   0  0  0  0  0  0  0  0  0  0  0  0
   -4.2480   24.0850  -27.6650 C   0  0  0  0  0  0  0  0  0  0  0  0
   -3.6820   24.1170  -29.1020 C   0  0  0  0  0  0  0  0  0  0  0  0
   -2.7740   23.0790  -29.2330 F   0  0  0  0  0  0  0  0  0  0  0  0
   -2.9940   25.3000  -29.3210 F   0  0  0  0  0  0  0  0  0  0  0  0
   -4.7700   23.9260  -30.1300 C   0  0  0  0  0  0  0  0  0  0  0  0
   -6.1160   24.2140  -29.8410 C   0  0  0  0  0  0  0  0  0  0  0  0
   -7.0900   23.9990  -30.8190 C   0  0  0  0  0  0  0  0  0  0  0  0
   -6.7220   23.4980  -32.0680 C   0  0  0  0  0  0  0  0  0  0  0  0
   -5.3790   23.2160  -32.3220 C   0  0  0  0  0  0  0  0  0  0  0  0
   -4.4440   23.4310  -31.3580 N   0  0  0  0  0  0  0  0  0  0  0  0
   -0.1298   23.0756  -23.3389 H   0  0  0  0  0  0  0  0  0  0  0  0
   -0.9816   22.7574  -24.8881 H   0  0  0  0  0  0  0  0  0  0  0  0
    0.7785   23.1166  -24.8881 H   0  0  0  0  0  0  0  0  0  0  0  0
    0.7950   25.3600  -22.9720 H   0  0  0  0  0  0  0  0  0  0  0  0
    0.4026   27.7292  -23.1052 H   0  0  0  0  0  0  0  0  0  0  0  0
   -1.1704   28.5978  -24.8436 H   0  0  0  0  0  0  0  0  0  0  0  0
   -1.5793   24.4148  -27.4589 H   0  0  0  0  0  0  0  0  0  0  0  0
   -2.1572   23.3976  -26.0860 H   0  0  0  0  0  0  0  0  0  0  0  0
   -3.4440   25.9030  -27.0150 H   0  0  0  0  0  0  0  0  0  0  0  0
   -4.2414   23.0430  -27.3127 H   0  0  0  0  0  0  0  0  0  0  0  0
   -5.2627   24.5074  -27.7107 H   0  0  0  0  0  0  0  0  0  0  0  0
   -6.3994   24.6054  -28.8528 H   0  0  0  0  0  0  0  0  0  0  0  0
   -8.1451   24.2243  -30.6048 H   0  0  0  0  0  0  0  0  0  0  0  0
   -7.4823   23.3271  -32.8443 H   0  0  0  0  0  0  0  0  0  0  0  0
   -5.0765   22.8196  -33.3025 H   0  0  0  0  0  0  0  0  0  0  0  0
  1  2  1  0
  2  3  2  0
  3  4  1  0
  4  5  2  0
  5  6  1  0
  6  7  2  0
  7  8  1  0
  8  9  1  0
  9 10  1  0
 10 11  1  0
 11 12  1  0
 11 13  1  0
 11 14  1  0
 14 15  2  0
 15 16  1  0
 16 17  2  0
 17 18  1  0
 18 19  2  0
  7  2  1  0
 19 14  1  0
  1 20  1  0
  1 21  1  0
  1 22  1  0
  3 23  1  0
  4 24  1  0
  5 25  1  0
  8 26  1  0
  8 27  1  0
  9 28  1  0
 10 29  1  0
 10 30  1  0
 15 31  1  0
 16 32  1  0
 17 33  1  0
 18 34  1  0
M  CHG  1   3   1
M  END
>  <UniqueID>  (20) 
18

>  <SMILES>  (20) 
Cc1[nH+]ccnc1CNCC(F)(F)c1ccccn1

>  <Energy>  (20) 
38.42338818027299

>  <Genealogy>  (20) 
Cc1[nH+]ccnc1CNCC(F)(F)c1ccccn1 (protonated)
Cc1[nH+]ccnc1CNCC(F)(F)c1ccccn1 (3D coordinates assigned)
Cc1[nH+]ccnc1CNCC(F)(F)c1ccccn1 (optimized conformer: 38.42338818027299 kcal/mol)

>  <smiles>  (20) 
Cc1nccnc1CNCC(F)(F)c1ccccn1

>  <score_type>  (20) 
oracle

>  <origin>  (20) 
adg

>  <m_score__min__energy>  (20) 
-6.9000000000000004

>  <m_primary>  (20) 
energy

$$$$
20:0
     RDKit          3D

 40 42  0  0  0  0  0  0  0  0999 V2000
   -2.9660   20.3210  -32.1760 C   0  0  0  0  0  0  0  0  0  0  0  0
   -3.9690   19.6800  -33.0860 C   0  0  0  0  0  0  0  0  0  0  0  0
   -3.6360   18.5220  -33.7190 N   0  0  0  0  0  0  0  0  0  0  0  0
   -4.5130   17.8840  -34.5350 C   0  0  0  0  0  0  0  0  0  0  0  0
   -5.7530   18.3970  -34.7350 N   0  0  0  0  0  0  0  0  0  0  0  0
   -6.1380   19.5490  -34.1260 C   0  0  0  0  0  0  0  0  0  0  0  0
   -5.2560   20.2230  -33.2740 C   0  0  0  0  0  0  0  0  0  0  0  0
   -5.6740   21.4920  -32.6450 C   0  0  0  0  0  0  0  0  0  0  0  0
   -4.8790   22.4690  -32.6930 O   0  0  0  0  0  0  0  0  0  0  0  0
   -6.9720   21.6400  -32.0200 N   0  0  0  0  0  0  0  0  0  0  0  0
   -7.7350   20.4530  -31.6010 C   0  0  0  0  0  0  0  0  0  0  0  0
   -9.1980   20.8150  -31.3490 C   0  0  0  0  0  0  0  0  0  0  0  0
   -9.6060   21.7810  -32.2930 O   0  0  0  0  0  0  0  0  0  0  0  0
   -9.0370   23.0390  -31.9730 C   0  0  0  0  0  0  0  0  0  0  0  0
   -7.5010   22.9840  -31.7080 C   0  0  1  0  0  0  0  0  0  0  0  0
   -7.1900   23.3740  -30.2440 C   0  0  0  0  0  0  0  0  0  0  0  0
   -5.7500   23.7670  -30.0450 C   0  0  0  0  0  0  0  0  0  0  0  0
   -4.9390   23.0700  -29.1370 C   0  0  0  0  0  0  0  0  0  0  0  0
   -3.6130   23.4610  -28.9430 C   0  0  0  0  0  0  0  0  0  0  0  0
   -3.1090   24.5480  -29.6600 C   0  0  0  0  0  0  0  0  0  0  0  0
   -3.9050   25.2150  -30.5360 N   0  0  0  0  0  0  0  0  0  0  0  0
   -5.2010   24.8540  -30.7410 C   0  0  0  0  0  0  0  0  0  0  0  0
   -3.2513   20.1387  -31.1294 H   0  0  0  0  0  0  0  0  0  0  0  0
   -1.9715   19.8907  -32.3653 H   0  0  0  0  0  0  0  0  0  0  0  0
   -2.9388   21.4043  -32.3653 H   0  0  0  0  0  0  0  0  0  0  0  0
   -4.2180   16.9496  -35.0349 H   0  0  0  0  0  0  0  0  0  0  0  0
   -7.1457   19.9529  -34.3032 H   0  0  0  0  0  0  0  0  0  0  0  0
   -7.6823   19.6914  -32.3929 H   0  0  0  0  0  0  0  0  0  0  0  0
   -7.3006   20.0633  -30.6686 H   0  0  0  0  0  0  0  0  0  0  0  0
   -9.8224   19.9151  -31.4501 H   0  0  0  0  0  0  0  0  0  0  0  0
   -9.3084   21.2215  -30.3328 H   0  0  0  0  0  0  0  0  0  0  0  0
   -9.2201   23.7264  -32.8120 H   0  0  0  0  0  0  0  0  0  0  0  0
   -9.5118   23.3784  -31.0406 H   0  0  0  0  0  0  0  0  0  0  0  0
   -7.0040   23.7102  -32.3681 H   0  0  0  0  0  0  0  0  0  0  0  0
   -7.8296   24.2233  -29.9618 H   0  0  0  0  0  0  0  0  0  0  0  0
   -7.3859   22.4932  -29.6148 H   0  0  0  0  0  0  0  0  0  0  0  0
   -5.3479   22.2155  -28.5779 H   0  0  0  0  0  0  0  0  0  0  0  0
   -2.9719   22.9184  -28.2327 H   0  0  0  0  0  0  0  0  0  0  0  0
   -2.0656   24.8649  -29.5153 H   0  0  0  0  0  0  0  0  0  0  0  0
   -5.8202   25.4167  -31.4551 H   0  0  0  0  0  0  0  0  0  0  0  0
  1  2  1  0
  2  3  2  0
  3  4  1  0
  4  5  2  0
  5  6  1  0
  6  7  2  0
  7  8  1  0
  8  9  2  0
  8 10  1  0
 10 11  1  0
 11 12  1  0
 12 13  1  0
 13 14  1  0
 14 15  1  0
 15 16  1  0
 16 17  1  0
 17 18  2  0
 18 19  1  0
 19 20  2  0
 20 21  1  0
 21 22  2  0
  7  2  1  0
 15 10  1  0
 22 17  1  0
  1 23  1  0
  1 24  1  0
  1 25  1  0
  4 26  1  0
  6 27  1  0
 11 28  1  0
 11 29  1  0
 12 30  1  0
 12 31  1  0
 14 32  1  0
 14 33  1  0
 15 34  1  6
 16 35  1  0
 16 36  1  0
 18 37  1  0
 19 38  1  0
 20 39  1  0
 22 40  1  0
M  END
>  <UniqueID>  (21) 
19

>  <SMILES>  (21) 
Cc1ncncc1C(=O)N1CCOC[C@H]1Cc1cccnc1

>  <Energy>  (21) 
54.298105470523645

>  <Genealogy>  (21) 
Cc1ncncc1C(=O)N1CCOC[C@H]1Cc1cccnc1 (chirality)
Cc1ncncc1C(=O)N1CCOC[C@H]1Cc1cccnc1 (3D coordinates assigned)
Cc1ncncc1C(=O)N1CCOC[C@H]1Cc1cccnc1 (nonaromatic ring conformer: 54.298105470523645 kcal/mol)

>  <smiles>  (21) 
Cc1ncncc1C(=O)N1CCOCC1Cc1cccnc1

>  <score_type>  (21) 
oracle

>  <origin>  (21) 
adg

>  <m_score__min__energy>  (21) 
-7.6600000000000001

>  <m_primary>  (21) 
energy

$$$$
21:0
     RDKit          3D

 44 47  0  0  1  0  0  0  0  0999 V2000
   -5.7580   14.4730  -34.1180 C   0  0  0  0  0  0  0  0  0  0  0  0
   -6.7370   15.4700  -34.2740 O   0  0  0  0  0  0  0  0  0  0  0  0
   -6.5540   16.7670  -33.8600 C   0  0  0  0  0  0  0  0  0  0  0  0
   -5.7590   17.6830  -34.5410 C   0  0  0  0  0  0  0  0  0  0  0  0
   -5.5920   18.9810  -34.1030 C   0  0  0  0  0  0  0  0  0  0  0  0
   -6.2450   19.3510  -32.9520 C   0  0  0  0  0  0  0  0  0  0  0  0
   -6.0990   20.6770  -32.4690 N   0  0  0  0  0  0  0  0  0  0  0  0
   -7.1160   21.5410  -32.3410 C   0  0  0  0  0  0  0  0  0  0  0  0
   -6.6550   22.7100  -31.8600 N   0  0  0  0  0  0  0  0  0  0  0  0
   -5.3430   22.6030  -31.6770 C   0  0  0  0  0  0  0  0  0  0  0  0
   -4.3230   23.4290  -31.2200 C   0  0  0  0  0  0  0  0  0  0  0  0
   -4.6420   24.6200  -30.8610 N   0  0  0  0  0  0  0  0  0  0  0  0
   -5.2480   24.9130  -29.5820 C   0  0  0  0  0  0  0  0  0  0  0  0
   -4.6110   24.0370  -28.5330 C   0  0  0  0  0  0  0  0  0  0  0  0
   -3.2910   24.5430  -28.0760 C   0  0  0  0  0  0  0  0  0  0  0  0
   -2.9700   24.7280  -26.7480 C   0  0  0  0  0  0  0  0  0  0  0  0
   -1.7340   25.2010  -26.3560 C   0  0  0  0  0  0  0  0  0  0  0  0
   -0.7690   25.5050  -27.3200 C   0  0  0  0  0  0  0  0  0  0  0  0
   -1.1370   25.3030  -28.6400 C   0  0  0  0  0  0  0  0  0  0  0  0
   -2.3470   24.8410  -28.9940 N   0  0  0  0  0  0  0  0  0  0  0  0
   -3.0580   23.0060  -31.1530 N   0  0  0  0  0  0  0  0  0  0  0  0
   -2.7870   21.7510  -31.5410 C   0  0  0  0  0  0  0  0  0  0  0  0
   -3.6970   20.8920  -31.9920 N   0  0  0  0  0  0  0  0  0  0  0  0
   -4.9820   21.3190  -32.0600 C   0  0  0  0  0  0  0  0  0  0  0  0
   -7.0410   18.4800  -32.2460 C   0  0  0  0  0  0  0  0  0  0  0  0
   -7.1810   17.2010  -32.7130 C   0  0  0  0  0  0  0  0  0  0  0  0
   -5.5833   14.2951  -33.0466 H   0  0  0  0  0  0  0  0  0  0  0  0
   -6.1032   13.5427  -34.5927 H   0  0  0  0  0  0  0  0  0  0  0  0
   -4.8215   14.8012  -34.5927 H   0  0  0  0  0  0  0  0  0  0  0  0
   -5.2461   17.3620  -35.4596 H   0  0  0  0  0  0  0  0  0  0  0  0
   -4.9600   19.6926  -34.6545 H   0  0  0  0  0  0  0  0  0  0  0  0
   -8.1657   21.3272  -32.5907 H   0  0  0  0  0  0  0  0  0  0  0  0
   -5.0854   25.9711  -29.3291 H   0  0  0  0  0  0  0  0  0  0  0  0
   -6.3297   24.7182  -29.6265 H   0  0  0  0  0  0  0  0  0  0  0  0
   -5.2850   23.9830  -27.6653 H   0  0  0  0  0  0  0  0  0  0  0  0
   -4.4449   23.0489  -28.9868 H   0  0  0  0  0  0  0  0  0  0  0  0
   -3.7203   24.4919  -25.9790 H   0  0  0  0  0  0  0  0  0  0  0  0
   -1.5092   25.3383  -25.2880 H   0  0  0  0  0  0  0  0  0  0  0  0
    0.2268   25.8834  -27.0459 H   0  0  0  0  0  0  0  0  0  0  0  0
   -0.4075   25.5306  -29.4313 H   0  0  0  0  0  0  0  0  0  0  0  0
   -2.3260   23.6340  -30.8130 H   0  0  0  0  0  0  0  0  0  0  0  0
   -1.7430   21.4095  -31.4824 H   0  0  0  0  0  0  0  0  0  0  0  0
   -7.5531   18.8034  -31.3277 H   0  0  0  0  0  0  0  0  0  0  0  0
   -7.8149   16.4968  -32.1541 H   0  0  0  0  0  0  0  0  0  0  0  0
  1  2  1  0
  2  3  1  0
  3  4  2  0
  4  5  1  0
  5  6  2  0
  6  7  1  0
  7  8  1  0
  8  9  2  0
  9 10  1  0
 10 11  1  0
 11 12  2  0
 12 13  1  0
 13 14  1  0
 14 15  1  0
 15 16  2  0
 16 17  1  0
 17 18  2  0
 18 19  1  0
 19 20  2  0
 11 21  1  0
 21 22  1  0
 22 23  2  0
 23 24  1  0
  6 25  1  0
 25 26  2  0
 26  3  1  0
 24  7  1  0
 24 10  2  0
 20 15  1  0
  1 27  1  0
  1 28  1  0
  1 29  1  0
  4 30  1  0
  5 31  1  0
  8 32  1  0
 13 33  1  0
 13 34  1  0
 14 35  1  0
 14 36  1  0
 16 37  1  0
 17 38  1  0
 18 39  1  0
 19 40  1  0
 21 41  1  0
 22 42  1  0
 25 43  1  0
 26 44  1  0
M  END
>  <smiles>  (22) 
COc1ccc(-n2cnc3c(=NCCc4ccccn4)[nH]cnc32)cc1

>  <score_type>  (22) 
oracle

>  <origin>  (22) 
adg

>  <m_score__min__energy>  (22) 
-7.8399999999999999

>  <m_primary>  (22) 
energy

$$$$
22:0
     RDKit          3D

 54 56  0  0  0  0  0  0  0  0999 V2000
   -1.5784   21.3682  -26.7802 H   0  0  0  0  0  0  0  0  0  0  0  0
   -1.1850   20.7210  -27.5780 C   0  0  0  0  0  0  0  0  0  0  0  0
   -0.4130   19.6780  -27.2580 C   0  0  0  0  0  0  0  0  0  0  0  0
   -0.2604   19.4307  -26.1971 H   0  0  0  0  0  0  0  0  0  0  0  0
    0.2570   18.8280  -28.3160 C   0  0  0  0  0  0  0  0  0  0  0  0
    0.2490   17.3590  -27.8760 C   0  0  0  0  0  0  0  0  0  0  0  0
    0.2487   17.3053  -26.7773 H   0  0  0  0  0  0  0  0  0  0  0  0
   -0.6519   16.8639  -28.2675 H   0  0  0  0  0  0  0  0  0  0  0  0
    1.1444   16.8541  -28.2675 H   0  0  0  0  0  0  0  0  0  0  0  0
    1.7010   19.3090  -28.5080 C   0  0  0  0  0  0  0  0  0  0  0  0
    2.1693   19.4650  -27.5250 H   0  0  0  0  0  0  0  0  0  0  0  0
    2.2684   18.5513  -29.0684 H   0  0  0  0  0  0  0  0  0  0  0  0
    1.7007   20.2556  -29.0684 H   0  0  0  0  0  0  0  0  0  0  0  0
   -0.4310   18.9260  -29.5690 O   0  0  0  0  0  0  0  0  0  0  0  0
   -1.1490   20.0630  -29.9560 C   0  0  0  0  0  0  0  0  0  0  0  0
   -1.5070   20.2230  -31.2950 C   0  0  0  0  0  0  0  0  0  0  0  0
   -1.2254   19.4568  -32.0324 H   0  0  0  0  0  0  0  0  0  0  0  0
   -2.2190   21.3480  -31.7020 C   0  0  0  0  0  0  0  0  0  0  0  0
   -2.4998   21.4665  -32.7589 H   0  0  0  0  0  0  0  0  0  0  0  0
   -2.5780   22.3270  -30.7720 C   0  0  0  0  0  0  0  0  0  0  0  0
   -3.2620   23.4250  -31.1920 N   0  0  0  0  0  0  0  0  0  0  0  0
   -3.6300   24.4210  -30.3410 C   0  0  0  0  0  0  0  0  0  0  0  0
   -4.2760   25.4640  -30.7730 N   0  0  0  0  0  0  0  0  0  0  0  0
   -5.7050   25.7110  -30.5740 C   0  0  0  0  0  0  0  0  0  0  0  0
   -6.2432   25.4608  -31.5002 H   0  0  0  0  0  0  0  0  0  0  0  0
   -5.8389   26.7722  -30.3171 H   0  0  0  0  0  0  0  0  0  0  0  0
   -6.2690   24.8630  -29.4250 C   0  0  0  0  0  0  0  0  0  0  0  0
   -7.0965   25.4113  -28.9511 H   0  0  0  0  0  0  0  0  0  0  0  0
   -5.4560   24.6758  -28.7080 H   0  0  0  0  0  0  0  0  0  0  0  0
   -6.7930   23.5000  -29.9210 C   0  0  0  0  0  0  0  0  0  0  0  0
   -7.8875   23.5651  -30.0095 H   0  0  0  0  0  0  0  0  0  0  0  0
   -6.4625   22.7529  -29.1844 H   0  0  0  0  0  0  0  0  0  0  0  0
   -6.2470   23.0660  -31.2340 N   0  0  0  0  0  0  0  0  0  0  0  0
   -5.3960   23.6680  -31.3530 H   0  0  0  0  0  0  0  0  0  0  0  0
   -7.1320   23.4100  -32.3860 C   0  0  0  0  0  0  0  0  0  0  0  0
   -6.8545   22.7603  -33.2291 H   0  0  0  0  0  0  0  0  0  0  0  0
   -6.9726   24.4824  -32.5722 H   0  0  0  0  0  0  0  0  0  0  0  0
   -8.6440   23.2510  -32.1470 C   0  0  0  0  0  0  0  0  0  0  0  0
   -8.8441   23.2300  -31.0655 H   0  0  0  0  0  0  0  0  0  0  0  0
   -9.1783   24.0979  -32.6023 H   0  0  0  0  0  0  0  0  0  0  0  0
   -8.9904   22.3115  -32.6023 H   0  0  0  0  0  0  0  0  0  0  0  0
   -5.7480   21.6660  -31.2040 C   0  0  0  0  0  0  0  0  0  0  0  0
   -4.7799   21.6463  -30.6821 H   0  0  0  0  0  0  0  0  0  0  0  0
   -6.4971   21.0521  -30.6825 H   0  0  0  0  0  0  0  0  0  0  0  0
   -5.5620   21.0860  -32.6110 C   0  0  0  0  0  0  0  0  0  0  0  0
   -5.2269   20.0410  -32.5355 H   0  0  0  0  0  0  0  0  0  0  0  0
   -6.5181   21.1262  -33.1535 H   0  0  0  0  0  0  0  0  0  0  0  0
   -4.8076   21.6747  -33.1535 H   0  0  0  0  0  0  0  0  0  0  0  0
   -3.3060   24.3250  -28.9870 C   0  0  0  0  0  0  0  0  0  0  0  0
   -3.6000   25.1244  -28.2909 H   0  0  0  0  0  0  0  0  0  0  0  0
   -2.6070   23.2100  -28.5190 C   0  0  0  0  0  0  0  0  0  0  0  0
   -2.3474   23.1356  -27.4527 H   0  0  0  0  0  0  0  0  0  0  0  0
   -2.2320   22.1790  -29.4050 C   0  0  0  0  0  0  0  0  0  0  0  0
   -1.5200   21.0200  -28.9930 C   0  0  0  0  0  0  0  0  0  0  0  0
  1  2  1  0
  2  3  2  0
  3  4  1  0
  3  5  1  0
  5  6  1  0
  6  7  1  0
  6  8  1  0
  6  9  1  0
  5 10  1  0
 10 11  1  0
 10 12  1  0
 10 13  1  0
  5 14  1  0
 14 15  1  0
 15 16  2  0
 16 17  1  0
 16 18  1  0
 18 19  1  0
 18 20  2  0
 20 21  1  0
 21 22  1  0
 22 23  2  0
 23 24  1  0
 24 25  1  0
 24 26  1  0
 24 27  1  0
 27 28  1  0
 27 29  1  0
 27 30  1  0
 30 31  1  0
 30 32  1  0
 30 33  1  0
 33 34  1  0
 33 35  1  0
 35 36  1  0
 35 37  1  0
 35 38  1  0
 38 39  1  0
 38 40  1  0
 38 41  1  0
 33 42  1  0
 42 43  1  0
 42 44  1  0
 42 45  1  0
 45 46  1  0
 45 47  1  0
 45 48  1  0
 22 49  1  0
 49 50  1  0
 49 51  2  0
 51 52  1  0
 51 53  1  0
 53 54  2  0
 54  2  1  0
 54 15  1  0
 53 20  1  0
M  CHG  2  21  -1  33   1
M  END
>  <UniqueID>  (23) 
20

>  <SMILES>  (23) 
CC[NH+](CC)CCC/N=c1/ccc2c3c(ccc2[n-]1)OC(C)(C)C=C3

>  <Energy>  (23) 
63.97749996139002

>  <Genealogy>  (23) 
CC[NH+](CC)CCCN=c1ccc2c3c(ccc2[n-]1)OC(C)(C)C=C3 (protonated)
CC[NH+](CC)CCC/N=c1/ccc2c3c(ccc2[n-]1)OC(C)(C)C=C3 (cis-trans isomerization)
CC[NH+](CC)CCC/N=c1/ccc2c3c(ccc2[n-]1)OC(C)(C)C=C3 (3D coordinates assigned)
CC[NH+](CC)CCC/N=c1/ccc2c3c(ccc2[n-]1)OC(C)(C)C=C3 (nonaromatic ring conformer: 63.97749996139002 kcal/mol)

>  <smiles>  (23) 
CCN(CC)CCCN=c1ccc2c3c(ccc2[nH]1)OC(C)(C)C=C3

>  <score_type>  (23) 
oracle

>  <origin>  (23) 
adg

>  <m_score__min__energy>  (23) 
-9.5

>  <m_primary>  (23) 
energy

$$$$
23:0
     RDKit          3D

 48 50  0  0  0  0  0  0  0  0999 V2000
    0.5050   20.9900  -36.3270 C   0  0  0  0  0  0  0  0  0  0  0  0
    0.0380   21.9280  -35.2210 C   0  0  0  0  0  0  0  0  0  0  0  0
   -0.5910   21.1370  -34.1300 N   0  0  0  0  0  0  0  0  0  0  0  0
    0.2140   21.1760  -32.8880 C   0  0  0  0  0  0  0  0  0  0  0  0
   -0.6830   21.1660  -31.6500 C   0  0  0  0  0  0  0  0  0  0  0  0
   -0.8380   19.7370  -34.5430 C   0  0  0  0  0  0  0  0  0  0  0  0
   -2.1580   19.2170  -33.9570 C   0  0  0  0  0  0  0  0  0  0  0  0
   -3.1310   20.3020  -33.8360 N   0  0  0  0  0  0  0  0  0  0  0  0
   -4.4960   20.0810  -33.4440 C   0  0  0  0  0  0  0  0  0  0  0  0
   -5.1320   18.9260  -33.9220 C   0  0  0  0  0  0  0  0  0  0  0  0
   -6.4740   18.6870  -33.6690 C   0  0  0  0  0  0  0  0  0  0  0  0
   -7.2300   19.6040  -32.9390 C   0  0  0  0  0  0  0  0  0  0  0  0
   -8.6930   19.3250  -32.7050 C   0  0  0  0  0  0  0  0  0  0  0  0
   -6.6090   20.7690  -32.4380 C   0  0  0  0  0  0  0  0  0  0  0  0
   -7.5120   21.8970  -31.5610 S   0  0  0  0  0  0  0  0  0  0  0  0
   -6.5990   23.1960  -31.0280 C   0  0  0  0  0  0  0  0  0  0  0  0
   -7.2050   24.2230  -30.2960 C   0  0  0  0  0  0  0  0  0  0  0  0
   -6.4410   25.2940  -29.8360 C   0  0  0  0  0  0  0  0  0  0  0  0
   -5.0740   25.3380  -30.1070 C   0  0  0  0  0  0  0  0  0  0  0  0
   -4.4680   24.3120  -30.8370 C   0  0  0  0  0  0  0  0  0  0  0  0
   -5.2190   23.2120  -31.3210 C   0  0  0  0  0  0  0  0  0  0  0  0
   -4.5680   22.1750  -32.0640 C   0  0  0  0  0  0  0  0  0  0  0  0
   -3.3170   22.2770  -32.1900 O   0  0  0  0  0  0  0  0  0  0  0  0
   -5.2240   21.0290  -32.6500 C   0  0  0  0  0  0  0  0  0  0  0  0
    0.9529   20.0903  -35.8799 H   0  0  0  0  0  0  0  0  0  0  0  0
   -0.3544   20.7009  -36.9498 H   0  0  0  0  0  0  0  0  0  0  0  0
    1.2536   21.5015  -36.9498 H   0  0  0  0  0  0  0  0  0  0  0  0
    0.9006   22.4815  -34.8216 H   0  0  0  0  0  0  0  0  0  0  0  0
   -0.6971   22.6373  -35.6291 H   0  0  0  0  0  0  0  0  0  0  0  0
    0.8744   20.2968  -32.8602 H   0  0  0  0  0  0  0  0  0  0  0  0
    0.8049   22.1038  -32.8837 H   0  0  0  0  0  0  0  0  0  0  0  0
   -0.0584   21.1730  -30.7446 H   0  0  0  0  0  0  0  0  0  0  0  0
   -1.3280   22.0570  -31.6573 H   0  0  0  0  0  0  0  0  0  0  0  0
   -1.3080   20.2608  -31.6573 H   0  0  0  0  0  0  0  0  0  0  0  0
   -0.8878   19.6890  -35.6408 H   0  0  0  0  0  0  0  0  0  0  0  0
   -0.0160   19.1099  -34.1675 H   0  0  0  0  0  0  0  0  0  0  0  0
   -2.5653   18.4384  -34.6188 H   0  0  0  0  0  0  0  0  0  0  0  0
   -1.9629   18.8028  -32.9568 H   0  0  0  0  0  0  0  0  0  0  0  0
   -2.8230   21.2750  -34.0670 H   0  0  0  0  0  0  0  0  0  0  0  0
   -4.5551   18.1959  -34.5087 H   0  0  0  0  0  0  0  0  0  0  0  0
   -6.9458   17.7678  -34.0466 H   0  0  0  0  0  0  0  0  0  0  0  0
   -8.8907   19.2873  -31.6236 H   0  0  0  0  0  0  0  0  0  0  0  0
   -9.2961   20.1243  -33.1604 H   0  0  0  0  0  0  0  0  0  0  0  0
   -8.9596   18.3598  -33.1604 H   0  0  0  0  0  0  0  0  0  0  0  0
   -8.2837   24.1851  -30.0837 H   0  0  0  0  0  0  0  0  0  0  0  0
   -6.9153   26.1026  -29.2605 H   0  0  0  0  0  0  0  0  0  0  0  0
   -4.4704   26.1833  -29.7449 H   0  0  0  0  0  0  0  0  0  0  0  0
   -3.3879   24.3591  -31.0397 H   0  0  0  0  0  0  0  0  0  0  0  0
  1  2  1  0
  2  3  1  0
  3  4  1  0
  4  5  1  0
  3  6  1  0
  6  7  1  0
  7  8  1  0
  8  9  1  0
  9 10  2  0
 10 11  1  0
 11 12  2  0
 12 13  1  0
 12 14  1  0
 14 15  1  0
 15 16  1  0
 16 17  2  0
 17 18  1  0
 18 19  2  0
 19 20  1  0
 20 21  2  0
 21 22  1  0
 22 23  2  0
 22 24  1  0
 24  9  1  0
 24 14  2  0
 21 16  1  0
  1 25  1  0
  1 26  1  0
  1 27  1  0
  2 28  1  0
  2 29  1  0
  4 30  1  0
  4 31  1  0
  5 32  1  0
  5 33  1  0
  5 34  1  0
  6 35  1  0
  6 36  1  0
  7 37  1  0
  7 38  1  0
  8 39  1  0
 10 40  1  0
 11 41  1  0
 13 42  1  0
 13 43  1  0
 13 44  1  0
 17 45  1  0
 18 46  1  0
 19 47  1  0
 20 48  1  0
M  END
>  <UniqueID>  (24) 
21

>  <SMILES>  (24) 
CCN(CC)CCNc1ccc(C)c2sc3ccccc3c(=O)c12

>  <Energy>  (24) 
68.82488752518958

>  <Genealogy>  (24) 
CCN(CC)CCNc1ccc(C)c2sc3ccccc3c(=O)c12 (3D coordinates assigned)
CCN(CC)CCNc1ccc(C)c2sc3ccccc3c(=O)c12 (optimized conformer: 68.82488752518958 kcal/mol)

>  <smiles>  (24) 
CCN(CC)CCNc1ccc(C)c2sc3ccccc3c(=O)c12

>  <score_type>  (24) 
oracle

>  <origin>  (24) 
adg

>  <m_score__min__energy>  (24) 
-8.7200000000000006

>  <m_primary>  (24) 
energy

$$$$
24:0
     RDKit          3D

 53 57  0  0  0  0  0  0  0  0999 V2000
   -2.0190   24.9170  -27.8760 C   0  0  0  0  0  0  0  0  0  0  0  0
   -2.7000   25.2990  -29.0670 O   0  0  0  0  0  0  0  0  0  0  0  0
   -3.6670   24.5140  -29.7120 C   0  0  0  0  0  0  0  0  0  0  0  0
   -3.6960   23.1410  -29.4430 C   0  0  0  0  0  0  0  0  0  0  0  0
   -4.6360   22.3150  -30.0660 C   0  0  0  0  0  0  0  0  0  0  0  0
   -5.5510   22.8520  -30.9820 C   0  0  0  0  0  0  0  0  0  0  0  0
   -6.5140   22.0080  -31.6300 N   0  0  0  0  0  0  0  0  0  0  0  0
   -7.8560   22.2060  -31.6130 C   0  0  0  0  0  0  0  0  0  0  0  0
   -8.5220   21.1360  -32.2020 C   0  0  0  0  0  0  0  0  0  0  0  0
   -7.5210   20.2720  -32.5850 C   0  0  0  0  0  0  0  0  0  0  0  0
   -7.6250   19.0600  -33.1820 N   0  0  0  0  0  0  0  0  0  0  0  0
   -6.4790   18.3720  -33.4620 C   0  0  0  0  0  0  0  0  0  0  0  0
   -5.2570   18.9150  -33.1670 N   0  0  0  0  0  0  0  0  0  0  0  0
   -5.1380   20.1380  -32.5710 C   0  0  0  0  0  0  0  0  0  0  0  0
   -3.8380   20.7130  -32.3730 N   0  0  0  0  0  0  0  0  0  0  0  0
   -3.2490   21.5550  -33.4170 C   0  0  0  0  0  0  0  0  0  0  0  0
   -2.2020   20.7490  -34.1850 C   0  0  0  0  0  0  0  0  0  0  0  0
   -1.2810   20.0960  -33.2440 N   0  0  0  0  0  0  0  0  0  0  0  0
    0.1180   19.9850  -33.5690 C   0  0  0  0  0  0  0  0  0  0  0  0
    0.9510   19.1360  -32.8220 C   0  0  0  0  0  0  0  0  0  0  0  0
    2.3090   19.0230  -33.1370 C   0  0  0  0  0  0  0  0  0  0  0  0
    2.8450   19.7560  -34.2010 C   0  0  0  0  0  0  0  0  0  0  0  0
    4.1610   19.6440  -34.5040 F   0  0  0  0  0  0  0  0  0  0  0  0
    2.0230   20.6000  -34.9510 C   0  0  0  0  0  0  0  0  0  0  0  0
    0.6650   20.7150  -34.6390 C   0  0  0  0  0  0  0  0  0  0  0  0
   -1.8540   19.2960  -32.1500 C   0  0  0  0  0  0  0  0  0  0  0  0
   -2.9150   20.1100  -31.4070 C   0  0  0  0  0  0  0  0  0  0  0  0
   -6.3190   20.8200  -32.2460 C   0  0  0  0  0  0  0  0  0  0  0  0
   -5.5420   24.2310  -31.2370 C   0  0  0  0  0  0  0  0  0  0  0  0
   -4.6040   25.0580  -30.6130 C   0  0  0  0  0  0  0  0  0  0  0  0
   -2.6001   25.2430  -27.0007 H   0  0  0  0  0  0  0  0  0  0  0  0
   -1.9048   23.8232  -27.8537 H   0  0  0  0  0  0  0  0  0  0  0  0
   -1.0261   25.3898  -27.8537 H   0  0  0  0  0  0  0  0  0  0  0  0
   -2.9733   22.7083  -28.7356 H   0  0  0  0  0  0  0  0  0  0  0  0
   -4.6577   21.2394  -29.8365 H   0  0  0  0  0  0  0  0  0  0  0  0
   -8.3508   23.0929  -31.1905 H   0  0  0  0  0  0  0  0  0  0  0  0
   -9.6068   21.0087  -32.3326 H   0  0  0  0  0  0  0  0  0  0  0  0
   -8.5600   18.6560  -33.4200 H   0  0  0  0  0  0  0  0  0  0  0  0
   -6.5379   17.3768  -33.9268 H   0  0  0  0  0  0  0  0  0  0  0  0
   -4.0369   21.8876  -34.1089 H   0  0  0  0  0  0  0  0  0  0  0  0
   -2.7731   22.4336  -32.9570 H   0  0  0  0  0  0  0  0  0  0  0  0
   -2.7057   19.9828  -34.7926 H   0  0  0  0  0  0  0  0  0  0  0  0
   -1.6315   21.4267  -34.8372 H   0  0  0  0  0  0  0  0  0  0  0  0
    0.5333   18.5571  -31.9851 H   0  0  0  0  0  0  0  0  0  0  0  0
    2.9562   18.3570  -32.5474 H   0  0  0  0  0  0  0  0  0  0  0  0
    2.4447   21.1752  -35.7885 H   0  0  0  0  0  0  0  0  0  0  0  0
    0.0213   21.3799  -35.2336 H   0  0  0  0  0  0  0  0  0  0  0  0
   -2.3161   18.3884  -32.5657 H   0  0  0  0  0  0  0  0  0  0  0  0
   -1.0539   19.0190  -31.4477 H   0  0  0  0  0  0  0  0  0  0  0  0
   -3.4750   19.4492  -30.7290 H   0  0  0  0  0  0  0  0  0  0  0  0
   -2.4247   20.9045  -30.8252 H   0  0  0  0  0  0  0  0  0  0  0  0
   -6.2769   24.6639  -31.9316 H   0  0  0  0  0  0  0  0  0  0  0  0
   -4.5971   26.1372  -30.8259 H   0  0  0  0  0  0  0  0  0  0  0  0
  1  2  1  0
  2  3  1  0
  3  4  2  0
  4  5  1  0
  5  6  2  0
  6  7  1  0
  7  8  1  0
  8  9  2  0
  9 10  1  0
 10 11  2  0
 11 12  1  0
 12 13  2  0
 13 14  1  0
 14 15  1  0
 15 16  1  0
 16 17  1  0
 17 18  1  0
 18 19  1  0
 19 20  2  0
 20 21  1  0
 21 22  2  0
 22 23  1  0
 22 24  1  0
 24 25  2  0
 18 26  1  0
 26 27  1  0
 14 28  2  0
  6 29  1  0
 29 30  2  0
 30  3  1  0
 28  7  1  0
 28 10  1  0
 27 15  1  0
 25 19  1  0
  1 31  1  0
  1 32  1  0
  1 33  1  0
  4 34  1  0
  5 35  1  0
  8 36  1  0
  9 37  1  0
 11 38  1  0
 12 39  1  0
 16 40  1  0
 16 41  1  0
 17 42  1  0
 17 43  1  0
 20 44  1  0
 21 45  1  0
 24 46  1  0
 25 47  1  0
 26 48  1  0
 26 49  1  0
 27 50  1  0
 27 51  1  0
 29 52  1  0
 30 53  1  0
M  CHG  1  11   1
M  END
>  <UniqueID>  (25) 
22

>  <SMILES>  (25) 
COc1ccc(-n2ccc3[nH+]cnc(N4CCN(c5ccc(F)cc5)CC4)c32)cc1

>  <Energy>  (25) 
107.1382085107741

>  <Genealogy>  (25) 
COc1ccc(-n2ccc3[nH+]cnc(N4CCN(c5ccc(F)cc5)CC4)c32)cc1 (protonated)
COc1ccc(-n2ccc3[nH+]cnc(N4CCN(c5ccc(F)cc5)CC4)c32)cc1 (3D coordinates assigned)
COc1ccc(-n2ccc3[nH+]cnc(N4CCN(c5ccc(F)cc5)CC4)c32)cc1 (nonaromatic ring conformer: 107.1382085107741 kcal/mol)

>  <smiles>  (25) 
COc1ccc(-n2ccc3ncnc(N4CCN(c5ccc(F)cc5)CC4)c32)cc1

>  <score_type>  (25) 
oracle

>  <origin>  (25) 
adg

>  <m_score__min__energy>  (25) 
-7.6100000000000003

>  <m_primary>  (25) 
energy

$$$$
25:0
     RDKit          3D

 33 33  0  0  0  0  0  0  0  0999 V2000
   -5.1920   18.9430  -34.1900 C   0  0  0  0  0  0  0  0  0  0  0  0
   -4.5660   19.7040  -33.0240 C   0  0  0  0  0  0  0  0  0  0  0  0
   -4.3840   21.1900  -33.3650 C   0  0  0  0  0  0  0  0  0  0  0  0
   -3.8720   22.0000  -32.1670 C   0  0  0  0  0  0  0  0  0  0  0  0
   -4.9760   22.3600  -31.2780 N   0  0  0  0  0  0  0  0  0  0  0  0
   -5.1880   23.6980  -30.8050 C   0  0  0  0  0  0  0  0  0  0  0  0
   -4.2670   24.5550  -30.8830 O   0  0  0  0  0  0  0  0  0  0  0  0
   -6.5340   24.1110  -30.2910 C   0  0  0  0  0  0  0  0  0  0  0  0
   -7.4330   23.0070  -30.3500 O   0  0  0  0  0  0  0  0  0  0  0  0
   -8.0770   22.6020  -31.5240 C   0  0  0  0  0  0  0  0  0  0  0  0
   -8.5230   23.4540  -32.3410 O   0  0  0  0  0  0  0  0  0  0  0  0
   -8.2510   21.1720  -31.7910 C   0  0  0  0  0  0  0  0  0  0  0  0
   -9.4020   20.5670  -32.2680 C   0  0  0  0  0  0  0  0  0  0  0  0
   -9.1150   19.2200  -32.3450 C   0  0  0  0  0  0  0  0  0  0  0  0
   -7.8080   19.0990  -31.9120 C   0  0  0  0  0  0  0  0  0  0  0  0
   -7.0710   17.8780  -31.8170 N   0  0  0  0  0  0  0  0  0  0  0  0
   -6.3220   17.6640  -30.8420 O   0  0  0  0  0  0  0  0  0  0  0  0
   -7.1840   16.9310  -32.8080 O   0  0  0  0  0  0  0  0  0  0  0  0
   -7.3170   20.2710  -31.5880 O   0  0  0  0  0  0  0  0  0  0  0  0
   -5.8456   18.1485  -33.8006 H   0  0  0  0  0  0  0  0  0  0  0  0
   -5.7844   19.6367  -34.8048 H   0  0  0  0  0  0  0  0  0  0  0  0
   -4.3971   18.4955  -34.8048 H   0  0  0  0  0  0  0  0  0  0  0  0
   -5.2208   19.6152  -32.1446 H   0  0  0  0  0  0  0  0  0  0  0  0
   -3.5766   19.2705  -32.8160 H   0  0  0  0  0  0  0  0  0  0  0  0
   -3.6598   21.2786  -34.1883 H   0  0  0  0  0  0  0  0  0  0  0  0
   -5.3663   21.5940  -33.6513 H   0  0  0  0  0  0  0  0  0  0  0  0
   -3.1408   21.3967  -31.6090 H   0  0  0  0  0  0  0  0  0  0  0  0
   -3.4012   22.9222  -32.5383 H   0  0  0  0  0  0  0  0  0  0  0  0
   -5.7250   21.6480  -31.1220 H   0  0  0  0  0  0  0  0  0  0  0  0
   -6.4388   24.4491  -29.2486 H   0  0  0  0  0  0  0  0  0  0  0  0
   -6.9241   24.9306  -30.9124 H   0  0  0  0  0  0  0  0  0  0  0  0
  -10.3498   21.0593  -32.5312 H   0  0  0  0  0  0  0  0  0  0  0  0
   -9.7840   18.4136  -32.6798 H   0  0  0  0  0  0  0  0  0  0  0  0
  1  2  1  0
  2  3  1  0
  3  4  1  0
  4  5  1  0
  5  6  1  0
  6  7  2  0
  6  8  1  0
  8  9  1  0
  9 10  1  0
 10 11  2  0
 10 12  1  0
 12 13  2  0
 13 14  1  0
 14 15  2  0
 15 16  1  0
 16 17  2  0
 16 18  1  0
 15 19  1  0
 19 12  1  0
  1 20  1  0
  1 21  1  0
  1 22  1  0
  2 23  1  0
  2 24  1  0
  3 25  1  0
  3 26  1  0
  4 27  1  0
  4 28  1  0
  5 29  1  0
  8 30  1  0
  8 31  1  0
 13 32  1  0
 14 33  1  0
M  CHG  2  16   1  18  -1
M  END
>  <UniqueID>  (26) 
23

>  <SMILES>  (26) 
CCCCNC(=O)COC(=O)c1ccc([N+](=O)[O-])o1

>  <Energy>  (26) 
43.38876733124726

>  <Genealogy>  (26) 
CCCCNC(=O)COC(=O)c1ccc([N+](=O)[O-])o1 (3D coordinates assigned)
CCCCNC(=O)COC(=O)c1ccc([N+](=O)[O-])o1 (optimized conformer: 43.38876733124726 kcal/mol)

>  <smiles>  (26) 
CCCCNC(=O)COC(=O)c1ccc([N+](=O)[O-])o1

>  <score_type>  (26) 
oracle

>  <origin>  (26) 
adg

>  <m_score__min__energy>  (26) 
-6.2699999999999996

>  <m_primary>  (26) 
energy

$$$$
26:0
     RDKit          3D

 52 54  0  0  0  0  0  0  0  0999 V2000
   -0.4820   24.3790  -24.7400 C   0  0  0  0  0  0  0  0  0  0  0  0
   -0.5800   23.2680  -25.7790 C   0  0  0  0  0  0  0  0  0  0  0  0
   -1.3540   23.7310  -26.9840 C   0  0  0  0  0  0  0  0  0  0  0  0
   -2.7570   23.7460  -26.9640 C   0  0  0  0  0  0  0  0  0  0  0  0
   -3.4760   24.1470  -28.0940 C   0  0  0  0  0  0  0  0  0  0  0  0
   -2.7970   24.5400  -29.2620 C   0  0  0  0  0  0  0  0  0  0  0  0
   -3.4960   24.9240  -30.4540 N   0  0  0  0  0  0  0  0  0  0  0  0
   -4.8830   24.7000  -30.7420 C   0  0  0  0  0  0  0  0  0  0  0  0
   -5.7170   25.6350  -30.5970 O   0  0  0  0  0  0  0  0  0  0  0  0
   -5.3170   23.4190  -31.2450 N   0  0  0  0  0  0  0  0  0  0  0  0
   -6.2950   23.3480  -32.3400 C   0  0  0  0  0  0  0  0  0  0  0  0
   -7.1880   22.1480  -32.1710 C   0  0  0  0  0  0  0  0  0  0  0  0
   -8.3690   22.2530  -31.4170 C   0  0  0  0  0  0  0  0  0  0  0  0
   -9.2150   21.1490  -31.2760 C   0  0  0  0  0  0  0  0  0  0  0  0
   -8.8910   19.9350  -31.8870 C   0  0  0  0  0  0  0  0  0  0  0  0
   -7.7180   19.8230  -32.6390 C   0  0  0  0  0  0  0  0  0  0  0  0
   -6.8680   20.9240  -32.7810 C   0  0  0  0  0  0  0  0  0  0  0  0
   -4.7660   22.1800  -30.6760 C   0  0  0  0  0  0  0  0  0  0  0  0
   -3.5210   21.7740  -31.4180 C   0  0  0  0  0  0  0  0  0  0  0  0
   -3.5690   21.5190  -32.7960 C   0  0  0  0  0  0  0  0  0  0  0  0
   -2.4060   21.1690  -33.4840 C   0  0  0  0  0  0  0  0  0  0  0  0
   -1.1980   21.0810  -32.7890 C   0  0  0  0  0  0  0  0  0  0  0  0
   -0.0320   20.7350  -33.4790 O   0  0  0  0  0  0  0  0  0  0  0  0
    0.1690   21.0390  -34.8540 C   0  0  0  0  0  0  0  0  0  0  0  0
   -1.1680   21.3360  -31.4510 N   0  0  0  0  0  0  0  0  0  0  0  0
   -2.2870   21.6760  -30.7590 C   0  0  0  0  0  0  0  0  0  0  0  0
   -1.3990   24.4890  -29.2930 C   0  0  0  0  0  0  0  0  0  0  0  0
   -0.6800   24.0930  -28.1610 C   0  0  0  0  0  0  0  0  0  0  0  0
   -0.5205   23.9421  -23.7312 H   0  0  0  0  0  0  0  0  0  0  0  0
    0.4673   24.9194  -24.8695 H   0  0  0  0  0  0  0  0  0  0  0  0
   -1.3220   25.0773  -24.8695 H   0  0  0  0  0  0  0  0  0  0  0  0
    0.4334   22.9759  -26.0915 H   0  0  0  0  0  0  0  0  0  0  0  0
   -1.1040   22.4109  -25.3309 H   0  0  0  0  0  0  0  0  0  0  0  0
   -3.2942   23.4405  -26.0540 H   0  0  0  0  0  0  0  0  0  0  0  0
   -4.5757   24.1553  -28.0699 H   0  0  0  0  0  0  0  0  0  0  0  0
   -6.9097   24.2602  -32.3363 H   0  0  0  0  0  0  0  0  0  0  0  0
   -5.7553   23.2588  -33.2943 H   0  0  0  0  0  0  0  0  0  0  0  0
   -8.6289   23.2074  -30.9359 H   0  0  0  0  0  0  0  0  0  0  0  0
  -10.1373   21.2363  -30.6830 H   0  0  0  0  0  0  0  0  0  0  0  0
   -9.5586   19.0678  -31.7763 H   0  0  0  0  0  0  0  0  0  0  0  0
   -7.4632   18.8670  -33.1199 H   0  0  0  0  0  0  0  0  0  0  0  0
   -5.9453   20.8312  -33.3726 H   0  0  0  0  0  0  0  0  0  0  0  0
   -4.5197   22.3451  -29.6167 H   0  0  0  0  0  0  0  0  0  0  0  0
   -5.5149   21.3796  -30.7680 H   0  0  0  0  0  0  0  0  0  0  0  0
   -4.5245   21.5949  -33.3356 H   0  0  0  0  0  0  0  0  0  0  0  0
   -2.4408   20.9643  -34.5642 H   0  0  0  0  0  0  0  0  0  0  0  0
    0.7737   21.9536  -34.9427 H   0  0  0  0  0  0  0  0  0  0  0  0
    0.6936   20.2039  -35.3413 H   0  0  0  0  0  0  0  0  0  0  0  0
   -0.8048   21.1946  -35.3413 H   0  0  0  0  0  0  0  0  0  0  0  0
   -2.2247   21.8749  -29.6789 H   0  0  0  0  0  0  0  0  0  0  0  0
   -0.8623   24.7621  -30.2135 H   0  0  0  0  0  0  0  0  0  0  0  0
    0.4192   24.0650  -28.1929 H   0  0  0  0  0  0  0  0  0  0  0  0
  1  2  1  0
  2  3  1  0
  3  4  2  0
  4  5  1  0
  5  6  2  0
  6  7  1  0
  7  8  1  0
  8  9  2  0
  8 10  1  0
 10 11  1  0
 11 12  1  0
 12 13  2  0
 13 14  1  0
 14 15  2  0
 15 16  1  0
 16 17  2  0
 10 18  1  0
 18 19  1  0
 19 20  2  0
 20 21  1  0
 21 22  2  0
 22 23  1  0
 23 24  1  0
 22 25  1  0
 25 26  2  0
  6 27  1  0
 27 28  2  0
 28  3  1  0
 17 12  1  0
 26 19  1  0
  1 29  1  0
  1 30  1  0
  1 31  1  0
  2 32  1  0
  2 33  1  0
  4 34  1  0
  5 35  1  0
 11 36  1  0
 11 37  1  0
 13 38  1  0
 14 39  1  0
 15 40  1  0
 16 41  1  0
 17 42  1  0
 18 43  1  0
 18 44  1  0
 20 45  1  0
 21 46  1  0
 24 47  1  0
 24 48  1  0
 24 49  1  0
 26 50  1  0
 27 51  1  0
 28 52  1  0
M  CHG  1   7  -1
M  END
>  <UniqueID>  (27) 
24

>  <SMILES>  (27) 
CCc1ccc([N-]C(=O)N(Cc2ccccc2)Cc2ccc(OC)nc2)cc1

>  <Energy>  (27) 
48.84117666856895

>  <Genealogy>  (27) 
CCc1ccc([N-]C(=O)N(Cc2ccccc2)Cc2ccc(OC)nc2)cc1 (protonated)
CCc1ccc([N-]C(=O)N(Cc2ccccc2)Cc2ccc(OC)nc2)cc1 (3D coordinates assigned)
CCc1ccc([N-]C(=O)N(Cc2ccccc2)Cc2ccc(OC)nc2)cc1 (optimized conformer: 48.84117666856895 kcal/mol)

>  <smiles>  (27) 
CCc1ccc(NC(=O)N(Cc2ccccc2)Cc2ccc(OC)nc2)cc1

>  <score_type>  (27) 
oracle

>  <origin>  (27) 
adg

>  <m_score__min__energy>  (27) 
-9.7100000000000009

>  <m_primary>  (27) 
energy

$$$$
27:0
     RDKit          3D

 54 55  0  0  0  0  0  0  0  0999 V2000
   -1.3200   18.8060  -31.2400 H   0  0  0  0  0  0  0  0  0  0  0  0
   -1.3400   19.7950  -31.0260 O   0  0  0  0  0  0  0  0  0  0  0  0
   -2.5420   20.4280  -30.8090 N   0  0  0  0  0  0  0  0  0  0  0  0
   -2.7280   21.6870  -31.0810 C   0  0  0  0  0  0  0  0  0  0  0  0
   -2.4130   22.7400  -30.0900 C   0  0  0  0  0  0  0  0  0  0  0  0
   -3.0770   23.9810  -30.0970 C   0  0  0  0  0  0  0  0  0  0  0  0
   -4.0560   24.2440  -31.0650 O   0  0  0  0  0  0  0  0  0  0  0  0
   -5.3440   23.6900  -31.0890 C   0  0  0  0  0  0  0  0  0  0  0  0
   -6.0770   23.7540  -32.2810 C   0  0  0  0  0  0  0  0  0  0  0  0
   -5.6391   24.2389  -33.1659 H   0  0  0  0  0  0  0  0  0  0  0  0
   -7.3610   23.2060  -32.3540 C   0  0  0  0  0  0  0  0  0  0  0  0
   -7.9333   23.2686  -33.2913 H   0  0  0  0  0  0  0  0  0  0  0  0
   -7.9180   22.5780  -31.2350 C   0  0  0  0  0  0  0  0  0  0  0  0
   -9.5290   21.8880  -31.3270 Cl  0  0  0  0  0  0  0  0  0  0  0  0
   -7.1850   22.4900  -30.0480 C   0  0  0  0  0  0  0  0  0  0  0  0
   -7.6198   21.9895  -29.1703 H   0  0  0  0  0  0  0  0  0  0  0  0
   -5.9000   23.0370  -29.9740 C   0  0  0  0  0  0  0  0  0  0  0  0
   -5.3225   22.9564  -29.0413 H   0  0  0  0  0  0  0  0  0  0  0  0
   -2.7470   24.9240  -29.1710 N   0  0  0  0  0  0  0  0  0  0  0  0
   -1.8100   24.7040  -28.2090 C   0  0  0  0  0  0  0  0  0  0  0  0
   -1.5020   25.7730  -27.2090 C   0  0  0  0  0  0  0  0  0  0  0  0
   -1.6185   25.3688  -26.1926 H   0  0  0  0  0  0  0  0  0  0  0  0
   -0.4675   26.1195  -27.3495 H   0  0  0  0  0  0  0  0  0  0  0  0
   -2.1936   26.6168  -27.3495 H   0  0  0  0  0  0  0  0  0  0  0  0
   -1.1590   23.4680  -28.1480 C   0  0  0  0  0  0  0  0  0  0  0  0
   -0.4121   23.2723  -27.3645 H   0  0  0  0  0  0  0  0  0  0  0  0
   -1.4650   22.4860  -29.0890 C   0  0  0  0  0  0  0  0  0  0  0  0
   -0.9612   21.5091  -29.0459 H   0  0  0  0  0  0  0  0  0  0  0  0
   -3.2810   22.0690  -32.3510 N   0  0  0  0  0  0  0  0  0  0  0  0
   -3.3320   23.0850  -32.5930 H   0  0  0  0  0  0  0  0  0  0  0  0
   -3.7070   21.1000  -33.3590 C   0  0  0  0  0  0  0  0  0  0  0  0
   -3.0884   20.1942  -33.2757 H   0  0  0  0  0  0  0  0  0  0  0  0
   -3.5888   21.5471  -34.3571 H   0  0  0  0  0  0  0  0  0  0  0  0
   -5.1810   20.7270  -33.1510 C   0  0  0  0  0  0  0  0  0  0  0  0
   -5.6135   20.4341  -34.1191 H   0  0  0  0  0  0  0  0  0  0  0  0
   -5.6983   21.6035  -32.7337 H   0  0  0  0  0  0  0  0  0  0  0  0
   -5.3440   19.5680  -32.1660 C   0  0  0  0  0  0  0  0  0  0  0  0
   -5.5997   19.9664  -31.1731 H   0  0  0  0  0  0  0  0  0  0  0  0
   -4.4004   19.0055  -32.1092 H   0  0  0  0  0  0  0  0  0  0  0  0
   -6.4250   18.6630  -32.6260 N   0  0  0  0  0  0  0  0  0  0  0  0
   -7.7680   19.2860  -32.5530 C   0  0  0  0  0  0  0  0  0  0  0  0
   -8.1918   19.3133  -33.5677 H   0  0  0  0  0  0  0  0  0  0  0  0
   -7.6296   20.2892  -32.1235 H   0  0  0  0  0  0  0  0  0  0  0  0
   -8.7530   18.5450  -31.6390 C   0  0  0  0  0  0  0  0  0  0  0  0
   -8.4947   18.7393  -30.5876 H   0  0  0  0  0  0  0  0  0  0  0  0
   -9.7751   18.9000  -31.8371 H   0  0  0  0  0  0  0  0  0  0  0  0
   -8.6952   17.4645  -31.8371 H   0  0  0  0  0  0  0  0  0  0  0  0
   -6.1050   18.0180  -33.9190 C   0  0  0  0  0  0  0  0  0  0  0  0
   -6.6639   18.5268  -34.7183 H   0  0  0  0  0  0  0  0  0  0  0  0
   -5.0200   18.0985  -34.0811 H   0  0  0  0  0  0  0  0  0  0  0  0
   -6.4760   16.5360  -33.9230 C   0  0  0  0  0  0  0  0  0  0  0  0
   -6.5657   16.1777  -32.8869 H   0  0  0  0  0  0  0  0  0  0  0  0
   -7.4360   16.3997  -34.4425 H   0  0  0  0  0  0  0  0  0  0  0  0
   -5.6935   15.9635  -34.4425 H   0  0  0  0  0  0  0  0  0  0  0  0
  1  2  1  0
  2  3  1  0
  3  4  2  0
  4  5  1  0
  5  6  2  0
  6  7  1  0
  7  8  1  0
  8  9  2  0
  9 10  1  0
  9 11  1  0
 11 12  1  0
 11 13  2  0
 13 14  1  0
 13 15  1  0
 15 16  1  0
 15 17  2  0
 17 18  1  0
  6 19  1  0
 19 20  2  0
 20 21  1  0
 21 22  1  0
 21 23  1  0
 21 24  1  0
 20 25  1  0
 25 26  1  0
 25 27  2  0
 27 28  1  0
  4 29  1  0
 29 30  1  0
 29 31  1  0
 31 32  1  0
 31 33  1  0
 31 34  1  0
 34 35  1  0
 34 36  1  0
 34 37  1  0
 37 38  1  0
 37 39  1  0
 37 40  1  0
 40 41  1  0
 41 42  1  0
 41 43  1  0
 41 44  1  0
 44 45  1  0
 44 46  1  0
 44 47  1  0
 40 48  1  0
 48 49  1  0
 48 50  1  0
 48 51  1  0
 51 52  1  0
 51 53  1  0
 51 54  1  0
 27  5  1  0
 17  8  1  0
M  END
>  <UniqueID>  (28) 
25

>  <SMILES>  (28) 
CCN(CC)CCCN/C(=N/O)c1ccc(C)nc1Oc1ccc(Cl)cc1

>  <Energy>  (28) 
59.57786528272191

>  <Genealogy>  (28) 
CCN(CC)CCCN/C(=N/O)c1ccc(C)nc1Oc1ccc(Cl)cc1 (cis-trans isomerization)
CCN(CC)CCCN/C(=N/O)c1ccc(C)nc1Oc1ccc(Cl)cc1 (3D coordinates assigned)
CCN(CC)CCCN/C(=N/O)c1ccc(C)nc1Oc1ccc(Cl)cc1 (optimized conformer: 59.57786528272191 kcal/mol)

>  <smiles>  (28) 
CCN(CC)CCCNC(=NO)c1ccc(C)nc1Oc1ccc(Cl)cc1

>  <score_type>  (28) 
oracle

>  <origin>  (28) 
adg

>  <m_score__min__energy>  (28) 
-8.9100000000000001

>  <m_primary>  (28) 
energy

$$$$
28:0
     RDKit          3D

 37 39  0  0  0  0  0  0  0  0999 V2000
   -8.2470   22.2000  -30.8330 C   0  0  0  0  0  0  0  0  0  0  0  0
   -6.9810   22.9970  -30.7330 C   0  0  0  0  0  0  0  0  0  0  0  0
   -6.7030   24.0210  -31.6770 C   0  0  0  0  0  0  0  0  0  0  0  0
   -5.5360   24.7280  -31.6150 N   0  0  0  0  0  0  0  0  0  0  0  0
   -4.6370   24.4320  -30.6450 C   0  0  0  0  0  0  0  0  0  0  0  0
   -3.4810   25.0120  -30.4480 O   0  0  0  0  0  0  0  0  0  0  0  0
   -2.9220   24.4160  -29.4070 C   0  0  0  0  0  0  0  0  0  0  0  0
   -1.6100   24.8020  -28.8640 C   0  0  0  0  0  0  0  0  0  0  0  0
   -1.3360   26.0260  -28.7380 O   0  0  0  0  0  0  0  0  0  0  0  0
   -0.6520   23.8150  -28.4500 N   0  0  0  0  0  0  0  0  0  0  0  0
   -0.1110   23.9100  -27.0810 C   0  0  0  0  0  0  0  0  0  0  0  0
   -0.8800   23.0650  -26.0510 C   0  0  0  0  0  0  0  0  0  0  0  0
   -0.9000   21.5570  -26.3680 C   0  0  0  0  0  0  0  0  0  0  0  0
    0.0850   21.1000  -27.4540 C   0  0  0  0  0  0  0  0  0  0  0  0
   -0.4010   21.3510  -28.8900 C   0  0  0  0  0  0  0  0  0  0  0  0
   -0.2030   22.7910  -29.4110 C   0  0  0  0  0  0  0  0  0  0  0  0
   -3.7550   23.4140  -28.9050 C   0  0  0  0  0  0  0  0  0  0  0  0
   -4.8560   23.4460  -29.7280 C   0  0  0  0  0  0  0  0  0  0  0  0
   -6.0250   22.6960  -29.7410 C   0  0  0  0  0  0  0  0  0  0  0  0
   -8.6151   21.9682  -29.8227 H   0  0  0  0  0  0  0  0  0  0  0  0
   -9.0058   22.7836  -31.3748 H   0  0  0  0  0  0  0  0  0  0  0  0
   -8.0488   21.2634  -31.3748 H   0  0  0  0  0  0  0  0  0  0  0  0
   -7.4351   24.2471  -32.4663 H   0  0  0  0  0  0  0  0  0  0  0  0
    0.9351   23.5704  -27.0969 H   0  0  0  0  0  0  0  0  0  0  0  0
   -0.2071   24.9608  -26.7701 H   0  0  0  0  0  0  0  0  0  0  0  0
   -0.4087   23.2055  -25.0671 H   0  0  0  0  0  0  0  0  0  0  0  0
   -1.9246   23.4090  -26.0729 H   0  0  0  0  0  0  0  0  0  0  0  0
   -0.6617   21.0123  -25.4425 H   0  0  0  0  0  0  0  0  0  0  0  0
   -1.9051   21.3426  -26.7602 H   0  0  0  0  0  0  0  0  0  0  0  0
    1.0321   21.6409  -27.3107 H   0  0  0  0  0  0  0  0  0  0  0  0
    0.1955   20.0112  -27.3431 H   0  0  0  0  0  0  0  0  0  0  0  0
    0.1462   20.6696  -29.5580 H   0  0  0  0  0  0  0  0  0  0  0  0
   -1.4873   21.1783  -28.8782 H   0  0  0  0  0  0  0  0  0  0  0  0
    0.8666   22.9464  -29.6155 H   0  0  0  0  0  0  0  0  0  0  0  0
   -0.8133   22.9004  -30.3196 H   0  0  0  0  0  0  0  0  0  0  0  0
   -3.5721   22.7505  -28.0469 H   0  0  0  0  0  0  0  0  0  0  0  0
   -6.1986   21.8971  -29.0050 H   0  0  0  0  0  0  0  0  0  0  0  0
  1  2  1  0
  2  3  2  0
  3  4  1  0
  4  5  2  0
  5  6  1  0
  6  7  1  0
  7  8  1  0
  8  9  2  0
  8 10  1  0
 10 11  1  0
 11 12  1  0
 12 13  1  0
 13 14  1  0
 14 15  1  0
 15 16  1  0
  7 17  2  0
 17 18  1  0
 18 19  2  0
 19  2  1  0
 18  5  1  0
 16 10  1  0
  1 20  1  0
  1 21  1  0
  1 22  1  0
  3 23  1  0
 11 24  1  0
 11 25  1  0
 12 26  1  0
 12 27  1  0
 13 28  1  0
 13 29  1  0
 14 30  1  0
 14 31  1  0
 15 32  1  0
 15 33  1  0
 16 34  1  0
 16 35  1  0
 17 36  1  0
 19 37  1  0
M  END
>  <UniqueID>  (29) 
26

>  <SMILES>  (29) 
Cc1cnc2oc(C(=O)N3CCCCCC3)cc2c1

>  <Energy>  (29) 
80.92084828564103

>  <Genealogy>  (29) 
Cc1cnc2oc(C(=O)N3CCCCCC3)cc2c1 (3D coordinates assigned)
Cc1cnc2oc(C(=O)N3CCCCCC3)cc2c1 (nonaromatic ring conformer: 80.92084828564103 kcal/mol)

>  <smiles>  (29) 
Cc1cnc2oc(C(=O)N3CCCCCC3)cc2c1

>  <score_type>  (29) 
oracle

>  <origin>  (29) 
adg

>  <m_score__min__energy>  (29) 
-5.8099999999999996

>  <m_primary>  (29) 
energy

$$$$
29:0
     RDKit          3D

 36 38  0  0  0  0  0  0  0  0999 V2000
   -5.3450   22.7250  -32.1840 C   0  0  0  0  0  0  0  0  0  0  0  0
   -6.5140   23.5200  -31.7700 N   0  0  0  0  0  0  0  0  0  0  0  0
   -7.4990   22.7180  -31.0060 C   0  0  0  0  0  0  0  0  0  0  0  0
   -8.4410   21.9880  -31.9660 C   0  0  0  0  0  0  0  0  0  0  0  0
   -8.0080   20.5720  -32.1940 C   0  0  0  0  0  0  0  0  0  0  0  0
   -6.9940   20.1600  -33.0490 C   0  0  0  0  0  0  0  0  0  0  0  0
   -6.8570   18.7680  -33.1080 C   0  0  0  0  0  0  0  0  0  0  0  0
   -7.7660   18.0840  -32.3090 C   0  0  0  0  0  0  0  0  0  0  0  0
   -8.7410   19.2120  -31.5310 S   0  0  0  0  0  0  0  0  0  0  0  0
   -6.1330   24.7810  -31.0970 C   0  0  0  0  0  0  0  0  0  0  0  0
   -4.9930   24.6120  -30.1260 C   0  0  0  0  0  0  0  0  0  0  0  0
   -5.1560   24.3140  -28.8130 N   0  0  0  0  0  0  0  0  0  0  0  0
   -3.8980   24.2510  -28.3530 C   0  0  0  0  0  0  0  0  0  0  0  0
   -3.4570   23.9750  -27.0610 C   0  0  0  0  0  0  0  0  0  0  0  0
   -2.0670   23.9680  -26.8370 C   0  0  0  0  0  0  0  0  0  0  0  0
   -1.1680   24.2340  -27.8980 C   0  0  0  0  0  0  0  0  0  0  0  0
    0.1690   24.2230  -27.6680 F   0  0  0  0  0  0  0  0  0  0  0  0
   -1.6530   24.5080  -29.1920 C   0  0  0  0  0  0  0  0  0  0  0  0
   -3.0330   24.5070  -29.3750 C   0  0  0  0  0  0  0  0  0  0  0  0
   -3.7180   24.7300  -30.4680 O   0  0  0  0  0  0  0  0  0  0  0  0
   -4.8130   22.3632  -31.2918 H   0  0  0  0  0  0  0  0  0  0  0  0
   -5.6796   21.8664  -32.7847 H   0  0  0  0  0  0  0  0  0  0  0  0
   -4.6695   23.3517  -32.7847 H   0  0  0  0  0  0  0  0  0  0  0  0
   -6.9663   21.9803  -30.3879 H   0  0  0  0  0  0  0  0  0  0  0  0
   -8.0886   23.3887  -30.3638 H   0  0  0  0  0  0  0  0  0  0  0  0
   -9.4548   21.9869  -31.5392 H   0  0  0  0  0  0  0  0  0  0  0  0
   -8.4219   22.5132  -32.9323 H   0  0  0  0  0  0  0  0  0  0  0  0
   -6.3632   20.8561  -33.6212 H   0  0  0  0  0  0  0  0  0  0  0  0
   -6.1015   18.2632  -33.7280 H   0  0  0  0  0  0  0  0  0  0  0  0
   -7.8357   16.9913  -32.2036 H   0  0  0  0  0  0  0  0  0  0  0  0
   -5.8343   25.5107  -31.8640 H   0  0  0  0  0  0  0  0  0  0  0  0
   -7.0061   25.1223  -30.5215 H   0  0  0  0  0  0  0  0  0  0  0  0
   -6.0450   24.1730  -28.2840 H   0  0  0  0  0  0  0  0  0  0  0  0
   -4.1676   23.7703  -26.2467 H   0  0  0  0  0  0  0  0  0  0  0  0
   -1.6768   23.7544  -25.8309 H   0  0  0  0  0  0  0  0  0  0  0  0
   -0.9669   24.7150  -30.0265 H   0  0  0  0  0  0  0  0  0  0  0  0
  1  2  1  0
  2  3  1  0
  3  4  1  0
  4  5  1  0
  5  6  2  0
  6  7  1  0
  7  8  2  0
  8  9  1  0
  2 10  1  0
 10 11  1  0
 11 12  2  0
 12 13  1  0
 13 14  2  0
 14 15  1  0
 15 16  2  0
 16 17  1  0
 16 18  1  0
 18 19  2  0
 19 20  1  0
  9  5  1  0
 20 11  1  0
 19 13  1  0
  1 21  1  0
  1 22  1  0
  1 23  1  0
  3 24  1  0
  3 25  1  0
  4 26  1  0
  4 27  1  0
  6 28  1  0
  7 29  1  0
  8 30  1  0
 10 31  1  0
 10 32  1  0
 12 33  1  0
 14 34  1  0
 15 35  1  0
 18 36  1  0
M  CHG  1  12   1
M  END
>  <UniqueID>  (30) 
27

>  <SMILES>  (30) 
CN(CCc1cccs1)Cc1[nH+]c2ccc(F)cc2o1

>  <Energy>  (30) 
103.24727708718027

>  <Genealogy>  (30) 
CN(CCc1cccs1)Cc1[nH+]c2ccc(F)cc2o1 (protonated)
CN(CCc1cccs1)Cc1[nH+]c2ccc(F)cc2o1 (3D coordinates assigned)
CN(CCc1cccs1)Cc1[nH+]c2ccc(F)cc2o1 (optimized conformer: 103.24727708718027 kcal/mol)

>  <smiles>  (30) 
CN(CCc1cccs1)Cc1nc2ccc(F)cc2o1

>  <score_type>  (30) 
oracle

>  <origin>  (30) 
adg

>  <m_score__min__energy>  (30) 
-6.8099999999999996

>  <m_primary>  (30) 
energy

$$$$
30:0
     RDKit          3D

 48 52  0  0  0  0  0  0  0  0999 V2000
   -3.1940   13.9320  -35.5720 C   0  0  0  0  0  0  0  0  0  0  0  0
   -3.7890   15.1400  -34.9120 C   0  0  0  0  0  0  0  0  0  0  0  0
   -5.1330   15.1140  -34.4660 C   0  0  0  0  0  0  0  0  0  0  0  0
   -5.7180   16.2500  -33.8820 C   0  0  0  0  0  0  0  0  0  0  0  0
   -4.9400   17.4060  -33.7710 C   0  0  0  0  0  0  0  0  0  0  0  0
   -3.6390   17.4320  -34.2040 C   0  0  0  0  0  0  0  0  0  0  0  0
   -3.0320   16.3240  -34.7910 C   0  0  0  0  0  0  0  0  0  0  0  0
   -3.1390   18.6900  -33.9570 C   0  0  0  0  0  0  0  0  0  0  0  0
   -4.1850   19.3920  -33.3620 C   0  0  0  0  0  0  0  0  0  0  0  0
   -4.1190   20.8590  -33.0270 C   0  0  0  0  0  0  0  0  0  0  0  0
   -3.5040   21.0960  -31.6440 C   0  0  0  0  0  0  0  0  0  0  0  0
   -3.8140   22.4380  -31.1480 N   0  0  0  0  0  0  0  0  0  0  0  0
   -2.9280   23.4170  -30.8390 C   0  0  0  0  0  0  0  0  0  0  0  0
   -3.5230   24.5690  -30.4320 N   0  0  0  0  0  0  0  0  0  0  0  0
   -4.8350   24.2760  -30.5020 C   0  0  0  0  0  0  0  0  0  0  0  0
   -5.9100   25.1160  -30.2250 C   0  0  0  0  0  0  0  0  0  0  0  0
   -7.2080   24.6040  -30.4110 C   0  0  0  0  0  0  0  0  0  0  0  0
   -7.3960   23.2780  -30.8630 C   0  0  0  0  0  0  0  0  0  0  0  0
   -6.2880   22.4530  -31.1330 C   0  0  0  0  0  0  0  0  0  0  0  0
   -5.0170   22.9950  -30.9380 C   0  0  0  0  0  0  0  0  0  0  0  0
   -5.2910   18.6040  -33.2530 N   0  0  0  0  0  0  0  0  0  0  0  0
   -6.5810   18.9680  -32.7350 C   0  0  0  0  0  0  0  0  0  0  0  0
   -7.2460   20.1070  -33.2170 C   0  0  0  0  0  0  0  0  0  0  0  0
   -8.5120   20.4440  -32.7260 C   0  0  0  0  0  0  0  0  0  0  0  0
   -9.1130   19.6570  -31.7410 C   0  0  0  0  0  0  0  0  0  0  0  0
   -8.4460   18.5360  -31.2390 C   0  0  0  0  0  0  0  0  0  0  0  0
   -7.1850   18.1930  -31.7310 C   0  0  0  0  0  0  0  0  0  0  0  0
   -2.8468   13.2272  -34.8021 H   0  0  0  0  0  0  0  0  0  0  0  0
   -3.9551   13.4445  -36.1990 H   0  0  0  0  0  0  0  0  0  0  0  0
   -2.3436   14.2382  -36.1990 H   0  0  0  0  0  0  0  0  0  0  0  0
   -5.7255   14.1940  -34.5781 H   0  0  0  0  0  0  0  0  0  0  0  0
   -6.7575   16.2303  -33.5227 H   0  0  0  0  0  0  0  0  0  0  0  0
   -1.9931   16.3711  -35.1495 H   0  0  0  0  0  0  0  0  0  0  0  0
   -2.1285   19.0621  -34.1816 H   0  0  0  0  0  0  0  0  0  0  0  0
   -3.5048   21.3702  -33.7829 H   0  0  0  0  0  0  0  0  0  0  0  0
   -5.1448   21.2560  -33.0193 H   0  0  0  0  0  0  0  0  0  0  0  0
   -3.9061   20.3520  -30.9406 H   0  0  0  0  0  0  0  0  0  0  0  0
   -2.4114   21.0003  -31.7284 H   0  0  0  0  0  0  0  0  0  0  0  0
   -1.8376   23.2913  -30.9106 H   0  0  0  0  0  0  0  0  0  0  0  0
   -5.7504   26.1457  -29.8725 H   0  0  0  0  0  0  0  0  0  0  0  0
   -8.0813   25.2397  -30.2033 H   0  0  0  0  0  0  0  0  0  0  0  0
   -8.4148   22.8883  -31.0047 H   0  0  0  0  0  0  0  0  0  0  0  0
   -6.4192   21.4191  -31.4848 H   0  0  0  0  0  0  0  0  0  0  0  0
   -6.7699   20.7364  -33.9833 H   0  0  0  0  0  0  0  0  0  0  0  0
   -9.0346   21.3298  -33.1162 H   0  0  0  0  0  0  0  0  0  0  0  0
  -10.1111   19.9194  -31.3604 H   0  0  0  0  0  0  0  0  0  0  0  0
   -8.9151   17.9231  -30.4552 H   0  0  0  0  0  0  0  0  0  0  0  0
   -6.6622   17.3119  -31.3306 H   0  0  0  0  0  0  0  0  0  0  0  0
  1  2  1  0
  2  3  2  0
  3  4  1  0
  4  5  2  0
  5  6  1  0
  6  7  2  0
  6  8  1  0
  8  9  2  0
  9 10  1  0
 10 11  1  0
 11 12  1  0
 12 13  1  0
 13 14  2  0
 14 15  1  0
 15 16  2  0
 16 17  1  0
 17 18  2  0
 18 19  1  0
 19 20  2  0
  9 21  1  0
 21 22  1  0
 22 23  2  0
 23 24  1  0
 24 25  2  0
 25 26  1  0
 26 27  2  0
  7  2  1  0
 20 12  1  0
 27 22  1  0
 21  5  1  0
 20 15  1  0
  1 28  1  0
  1 29  1  0
  1 30  1  0
  3 31  1  0
  4 32  1  0
  7 33  1  0
  8 34  1  0
 10 35  1  0
 10 36  1  0
 11 37  1  0
 11 38  1  0
 13 39  1  0
 16 40  1  0
 17 41  1  0
 18 42  1  0
 19 43  1  0
 23 44  1  0
 24 45  1  0
 25 46  1  0
 26 47  1  0
 27 48  1  0
M  END
>  <UniqueID>  (31) 
28

>  <SMILES>  (31) 
Cc1ccc2c(c1)cc(CCn1cnc3ccccc31)n2-c1ccccc1

>  <Energy>  (31) 
121.88031237537457

>  <Genealogy>  (31) 
Cc1ccc2c(c1)cc(CCn1cnc3ccccc31)n2-c1ccccc1 (3D coordinates assigned)
Cc1ccc2c(c1)cc(CCn1cnc3ccccc31)n2-c1ccccc1 (optimized conformer: 121.88031237537457 kcal/mol)

>  <smiles>  (31) 
Cc1ccc2c(c1)cc(CCn1cnc3ccccc31)n2-c1ccccc1

>  <score_type>  (31) 
oracle

>  <origin>  (31) 
adg

>  <m_score__min__energy>  (31) 
-9.1400000000000006

>  <m_primary>  (31) 
energy

$$$$
31:0
     RDKit          3D

 41 44  0  0  0  0  0  0  0  0999 V2000
   -0.9910   18.4030  -34.5940 C   0  0  0  0  0  0  0  0  0  0  0  0
   -2.4160   18.1360  -34.4190 N   0  0  0  0  0  0  0  0  0  0  0  0
   -3.1010   17.1150  -34.9710 C   0  0  0  0  0  0  0  0  0  0  0  0
   -4.3970   17.1230  -34.6030 N   0  0  0  0  0  0  0  0  0  0  0  0
   -4.5460   18.1950  -33.8000 C   0  0  0  0  0  0  0  0  0  0  0  0
   -5.8370   18.5970  -33.1980 C   0  0  0  0  0  0  0  0  0  0  0  0
   -6.3830   17.8440  -32.1460 C   0  0  0  0  0  0  0  0  0  0  0  0
   -7.6010   18.2160  -31.5680 C   0  0  0  0  0  0  0  0  0  0  0  0
   -8.2880   19.3380  -32.0420 C   0  0  0  0  0  0  0  0  0  0  0  0
   -9.4680   19.6980  -31.4790 F   0  0  0  0  0  0  0  0  0  0  0  0
   -7.7610   20.0840  -33.0990 C   0  0  0  0  0  0  0  0  0  0  0  0
   -6.5430   19.7140  -33.6800 C   0  0  0  0  0  0  0  0  0  0  0  0
   -3.3140   18.8330  -33.6860 C   0  0  0  0  0  0  0  0  0  0  0  0
   -2.9900   19.9970  -32.8310 C   0  0  0  0  0  0  0  0  0  0  0  0
   -1.6720   20.2300  -32.4210 C   0  0  0  0  0  0  0  0  0  0  0  0
   -1.3840   21.3500  -31.6430 C   0  0  0  0  0  0  0  0  0  0  0  0
   -2.3770   22.2050  -31.2840 N   0  0  0  0  0  0  0  0  0  0  0  0
   -3.6740   22.0090  -31.6510 C   0  0  0  0  0  0  0  0  0  0  0  0
   -4.6880   23.0060  -31.2310 C   0  0  0  0  0  0  0  0  0  0  0  0
   -6.0640   22.7120  -31.1900 C   0  0  0  0  0  0  0  0  0  0  0  0
   -6.9670   23.6970  -30.7790 C   0  0  0  0  0  0  0  0  0  0  0  0
   -6.4990   24.9560  -30.4060 C   0  0  0  0  0  0  0  0  0  0  0  0
   -5.1290   25.2140  -30.4430 C   0  0  0  0  0  0  0  0  0  0  0  0
   -4.2650   24.2440  -30.8470 N   0  0  0  0  0  0  0  0  0  0  0  0
   -3.9980   20.8930  -32.4440 C   0  0  0  0  0  0  0  0  0  0  0  0
   -0.5110   18.4929  -33.6083 H   0  0  0  0  0  0  0  0  0  0  0  0
   -0.5289   17.5758  -35.1528 H   0  0  0  0  0  0  0  0  0  0  0  0
   -0.8597   19.3414  -35.1528 H   0  0  0  0  0  0  0  0  0  0  0  0
   -2.6555   16.3653  -35.6414 H   0  0  0  0  0  0  0  0  0  0  0  0
   -5.1330   16.4450  -34.9020 H   0  0  0  0  0  0  0  0  0  0  0  0
   -5.8497   16.9566  -31.7744 H   0  0  0  0  0  0  0  0  0  0  0  0
   -8.0191   17.6253  -30.7396 H   0  0  0  0  0  0  0  0  0  0  0  0
   -8.3042   20.9635  -33.4751 H   0  0  0  0  0  0  0  0  0  0  0  0
   -6.1358   20.2994  -34.5175 H   0  0  0  0  0  0  0  0  0  0  0  0
   -0.8701   19.5348  -32.7105 H   0  0  0  0  0  0  0  0  0  0  0  0
   -0.3505   21.5421  -31.3189 H   0  0  0  0  0  0  0  0  0  0  0  0
   -6.4262   21.7144  -31.4793 H   0  0  0  0  0  0  0  0  0  0  0  0
   -8.0448   23.4789  -30.7500 H   0  0  0  0  0  0  0  0  0  0  0  0
   -7.2032   25.7380  -30.0857 H   0  0  0  0  0  0  0  0  0  0  0  0
   -4.7471   26.2017  -30.1455 H   0  0  0  0  0  0  0  0  0  0  0  0
   -5.0380   20.7235  -32.7596 H   0  0  0  0  0  0  0  0  0  0  0  0
  1  2  1  0
  2  3  1  0
  3  4  2  0
  4  5  1  0
  5  6  1  0
  6  7  2  0
  7  8  1  0
  8  9  2  0
  9 10  1  0
  9 11  1  0
 11 12  2  0
  5 13  2  0
 13 14  1  0
 14 15  2  0
 15 16  1  0
 16 17  2  0
 17 18  1  0
 18 19  1  0
 19 20  2  0
 20 21  1  0
 21 22  2  0
 22 23  1  0
 23 24  2  0
 18 25  2  0
 13  2  1  0
 25 14  1  0
 12  6  1  0
 24 19  1  0
  1 26  1  0
  1 27  1  0
  1 28  1  0
  3 29  1  0
  4 30  1  0
  7 31  1  0
  8 32  1  0
 11 33  1  0
 12 34  1  0
 15 35  1  0
 16 36  1  0
 20 37  1  0
 21 38  1  0
 22 39  1  0
 23 40  1  0
 25 41  1  0
M  CHG  1   4   1
M  END
>  <UniqueID>  (32) 
29

>  <SMILES>  (32) 
Cn1c[nH+]c(-c2ccc(F)cc2)c1-c1ccnc(-c2ccccn2)c1

>  <Energy>  (32) 
88.85324766482226

>  <Genealogy>  (32) 
Cn1c[nH+]c(-c2ccc(F)cc2)c1-c1ccnc(-c2ccccn2)c1 (protonated)
Cn1c[nH+]c(-c2ccc(F)cc2)c1-c1ccnc(-c2ccccn2)c1 (3D coordinates assigned)
Cn1c[nH+]c(-c2ccc(F)cc2)c1-c1ccnc(-c2ccccn2)c1 (optimized conformer: 88.85324766482226 kcal/mol)

>  <smiles>  (32) 
Cn1cnc(-c2ccc(F)cc2)c1-c1ccnc(-c2ccccn2)c1

>  <score_type>  (32) 
oracle

>  <origin>  (32) 
adg

>  <m_score__min__energy>  (32) 
-8.0700000000000003

>  <m_primary>  (32) 
energy

$$$$
32:0
     RDKit          3D

 38 39  0  0  0  0  0  0  0  0999 V2000
   -9.2090   20.4480  -32.3340 C   0  0  0  0  0  0  0  0  0  0  0  0
   -9.1430   21.8220  -31.9660 O   0  0  0  0  0  0  0  0  0  0  0  0
   -7.9860   22.4610  -31.4960 C   0  0  0  0  0  0  0  0  0  0  0  0
   -7.2240   23.2080  -32.4020 C   0  0  0  0  0  0  0  0  0  0  0  0
   -6.0600   23.8580  -31.9850 C   0  0  0  0  0  0  0  0  0  0  0  0
   -5.6310   23.7640  -30.6480 C   0  0  0  0  0  0  0  0  0  0  0  0
   -4.3600   24.4560  -30.1880 C   0  0  2  0  0  0  0  0  0  0  0  0
   -4.1690   25.6690  -30.8780 O   0  0  0  0  0  0  0  0  0  0  0  0
   -3.1520   23.5300  -30.2830 C   0  0  0  0  0  0  0  0  0  0  0  0
   -3.0970   22.4930  -31.2390 C   0  0  0  0  0  0  0  0  0  0  0  0
   -1.9980   21.6330  -31.2960 C   0  0  0  0  0  0  0  0  0  0  0  0
   -0.9390   21.7880  -30.4030 C   0  0  0  0  0  0  0  0  0  0  0  0
   -0.9740   22.8050  -29.4500 C   0  0  0  0  0  0  0  0  0  0  0  0
   -2.0690   23.6790  -29.3810 C   0  0  0  0  0  0  0  0  0  0  0  0
   -2.0820   24.7110  -28.3840 N   0  0  0  0  0  0  0  0  0  0  0  0
   -0.9180   25.5850  -28.2590 C   0  0  0  0  0  0  0  0  0  0  0  0
   -2.9860   24.5800  -27.2430 C   0  0  0  0  0  0  0  0  0  0  0  0
   -6.4040   23.0270  -29.7360 C   0  0  0  0  0  0  0  0  0  0  0  0
   -7.5670   22.3760  -30.1540 C   0  0  0  0  0  0  0  0  0  0  0  0
   -9.2389   19.8265  -31.4269 H   0  0  0  0  0  0  0  0  0  0  0  0
  -10.1167   20.2711  -32.9297 H   0  0  0  0  0  0  0  0  0  0  0  0
   -8.3225   20.1850  -32.9297 H   0  0  0  0  0  0  0  0  0  0  0  0
   -7.5446   23.2838  -33.4515 H   0  0  0  0  0  0  0  0  0  0  0  0
   -5.4749   24.4472  -32.7064 H   0  0  0  0  0  0  0  0  0  0  0  0
   -4.4730   24.7072  -29.1230 H   0  0  0  0  0  0  0  0  0  0  0  0
   -3.4930   25.5200  -31.5910 H   0  0  0  0  0  0  0  0  0  0  0  0
   -3.9286   22.3608  -31.9467 H   0  0  0  0  0  0  0  0  0  0  0  0
   -1.9681   20.8308  -32.0480 H   0  0  0  0  0  0  0  0  0  0  0  0
   -0.0757   21.1079  -30.4502 H   0  0  0  0  0  0  0  0  0  0  0  0
   -0.1364   22.9229  -28.7467 H   0  0  0  0  0  0  0  0  0  0  0  0
   -0.6968   25.7511  -27.1943 H   0  0  0  0  0  0  0  0  0  0  0  0
   -0.0511   25.1128  -28.7443 H   0  0  0  0  0  0  0  0  0  0  0  0
   -1.1297   26.5492  -28.7443 H   0  0  0  0  0  0  0  0  0  0  0  0
   -2.4115   24.6632  -26.3086 H   0  0  0  0  0  0  0  0  0  0  0  0
   -3.7422   25.3779  -27.2808 H   0  0  0  0  0  0  0  0  0  0  0  0
   -3.4846   23.6002  -27.2808 H   0  0  0  0  0  0  0  0  0  0  0  0
   -6.0909   22.9619  -28.6835 H   0  0  0  0  0  0  0  0  0  0  0  0
   -8.1584   21.7942  -29.4317 H   0  0  0  0  0  0  0  0  0  0  0  0
  1  2  1  0
  2  3  1  0
  3  4  2  0
  4  5  1  0
  5  6  2  0
  6  7  1  0
  7  8  1  0
  7  9  1  0
  9 10  2  0
 10 11  1  0
 11 12  2  0
 12 13  1  0
 13 14  2  0
 14 15  1  0
 15 16  1  0
 15 17  1  0
  6 18  1  0
 18 19  2  0
 19  3  1  0
 14  9  1  0
  1 20  1  0
  1 21  1  0
  1 22  1  0
  4 23  1  0
  5 24  1  0
  7 25  1  1
  8 26  1  0
 10 27  1  0
 11 28  1  0
 12 29  1  0
 13 30  1  0
 16 31  1  0
 16 32  1  0
 16 33  1  0
 17 34  1  0
 17 35  1  0
 17 36  1  0
 18 37  1  0
 19 38  1  0
M  END
>  <UniqueID>  (33) 
30

>  <SMILES>  (33) 
COc1ccc([C@H](O)c2ccccc2N(C)C)cc1

>  <Energy>  (33) 
44.17385227438687

>  <Genealogy>  (33) 
COc1ccc([C@H](O)c2ccccc2N(C)C)cc1 (chirality)
COc1ccc([C@H](O)c2ccccc2N(C)C)cc1 (3D coordinates assigned)
COc1ccc([C@H](O)c2ccccc2N(C)C)cc1 (optimized conformer: 44.17385227438687 kcal/mol)

>  <smiles>  (33) 
COc1ccc(C(O)c2ccccc2N(C)C)cc1

>  <score_type>  (33) 
oracle

>  <origin>  (33) 
adg

>  <m_score__min__energy>  (33) 
-7.21

>  <m_primary>  (33) 
energy

$$$$
33:0
     RDKit          3D

 33 35  0  0  0  0  0  0  0  0999 V2000
   -7.9920   23.9522  -31.6927 H   0  0  0  0  0  0  0  0  0  0  0  0
   -7.2190   23.1960  -31.4910 C   0  0  0  0  0  0  0  0  0  0  0  0
   -7.4830   21.9240  -31.8270 C   0  0  0  0  0  0  0  0  0  0  0  0
   -8.7320   21.1560  -31.6950 C   0  0  0  0  0  0  0  0  0  0  0  0
   -9.8150   21.5840  -31.2140 O   0  0  0  0  0  0  0  0  0  0  0  0
   -8.5820   19.8480  -32.2480 N   0  0  0  0  0  0  0  0  0  0  0  0
   -9.4560   18.7100  -31.9870 C   0  0  0  0  0  0  0  0  0  0  0  0
   -9.5627   18.5711  -30.9010 H   0  0  0  0  0  0  0  0  0  0  0  0
  -10.4446   18.8974  -32.4316 H   0  0  0  0  0  0  0  0  0  0  0  0
   -9.0199   17.8032  -32.4316 H   0  0  0  0  0  0  0  0  0  0  0  0
   -7.2290   19.7920  -32.6950 C   0  0  0  0  0  0  0  0  0  0  0  0
   -6.5810   18.7000  -33.2780 C   0  0  0  0  0  0  0  0  0  0  0  0
   -7.1157   17.7529  -33.4425 H   0  0  0  0  0  0  0  0  0  0  0  0
   -5.2290   18.8360  -33.6510 C   0  0  0  0  0  0  0  0  0  0  0  0
   -4.5160   17.6970  -34.3190 C   0  0  0  0  0  0  0  0  0  0  0  0
   -4.0968   17.0274  -33.5535 H   0  0  0  0  0  0  0  0  0  0  0  0
   -5.2255   17.1378  -34.9466 H   0  0  0  0  0  0  0  0  0  0  0  0
   -3.7030   18.0909  -34.9466 H   0  0  0  0  0  0  0  0  0  0  0  0
   -4.5650   20.0690  -33.4550 C   0  0  0  0  0  0  0  0  0  0  0  0
   -3.5174   20.1802  -33.7714 H   0  0  0  0  0  0  0  0  0  0  0  0
   -5.2310   21.1530  -32.8600 C   0  0  0  0  0  0  0  0  0  0  0  0
   -4.7122   22.1082  -32.6910 H   0  0  0  0  0  0  0  0  0  0  0  0
   -6.5670   20.9900  -32.4880 C   0  0  0  0  0  0  0  0  0  0  0  0
   -5.9600   23.6460  -30.8690 C   0  0  0  0  0  0  0  0  0  0  0  0
   -5.3780   24.8790  -31.2040 C   0  0  0  0  0  0  0  0  0  0  0  0
   -5.8401   25.5119  -31.9760 H   0  0  0  0  0  0  0  0  0  0  0  0
   -4.2450   25.2930  -30.5770 N   0  0  0  0  0  0  0  0  0  0  0  0
   -3.6520   24.5480  -29.6070 C   0  0  0  0  0  0  0  0  0  0  0  0
   -2.7290   24.9049  -29.1268 H   0  0  0  0  0  0  0  0  0  0  0  0
   -4.2140   23.3300  -29.2200 C   0  0  0  0  0  0  0  0  0  0  0  0
   -3.7436   22.7273  -28.4292 H   0  0  0  0  0  0  0  0  0  0  0  0
   -5.3790   22.8850  -29.8470 C   0  0  0  0  0  0  0  0  0  0  0  0
   -5.8411   21.9358  -29.5381 H   0  0  0  0  0  0  0  0  0  0  0  0
  1  2  1  0
  2  3  2  0
  3  4  1  0
  4  5  2  0
  4  6  1  0
  6  7  1  0
  7  8  1  0
  7  9  1  0
  7 10  1  0
  6 11  1  0
 11 12  2  0
 12 13  1  0
 12 14  1  0
 14 15  1  0
 15 16  1  0
 15 17  1  0
 15 18  1  0
 14 19  2  0
 19 20  1  0
 19 21  1  0
 21 22  1  0
 21 23  2  0
  2 24  1  0
 24 25  2  0
 25 26  1  0
 25 27  1  0
 27 28  2  0
 28 29  1  0
 28 30  1  0
 30 31  1  0
 30 32  2  0
 32 33  1  0
 23  3  1  0
 32 24  1  0
 23 11  1  0
M  END
>  <UniqueID>  (34) 
31

>  <SMILES>  (34) 
Cc1ccc2c(c1)N(C)C(=O)/C2=C\c1cccnc1

>  <Energy>  (34) 
71.88193207126106

>  <Genealogy>  (34) 
Cc1ccc2c(c1)N(C)C(=O)/C2=C\c1cccnc1 (cis-trans isomerization)
Cc1ccc2c(c1)N(C)C(=O)/C2=C\c1cccnc1 (3D coordinates assigned)
Cc1ccc2c(c1)N(C)C(=O)/C2=C\c1cccnc1 (nonaromatic ring conformer: 71.88193207126106 kcal/mol)

>  <smiles>  (34) 
Cc1ccc2c(c1)N(C)C(=O)C2=Cc1cccnc1

>  <score_type>  (34) 
oracle

>  <origin>  (34) 
adg

>  <m_score__min__energy>  (34) 
-8.3200000000000003

>  <m_primary>  (34) 
energy

$$$$
34:0
     RDKit          3D

 41 43  0  0  0  0  0  0  0  0999 V2000
   -6.8530   25.2240  -29.7040 C   0  0  0  0  0  0  0  0  0  0  0  0
   -6.6090   23.9180  -30.4150 C   0  0  0  0  0  0  0  0  0  0  0  0
   -7.7130   23.1800  -30.8490 C   0  0  0  0  0  0  0  0  0  0  0  0
   -7.5360   21.9480  -31.4920 C   0  0  0  0  0  0  0  0  0  0  0  0
   -8.7570   21.1820  -31.9420 C   0  0  0  0  0  0  0  0  0  0  0  0
   -6.2690   21.4510  -31.6800 N   0  0  0  0  0  0  0  0  0  0  0  0
   -6.0780   20.1710  -32.3120 C   0  0  0  0  0  0  0  0  0  0  0  0
   -5.7240   20.0980  -33.6690 C   0  0  0  0  0  0  0  0  0  0  0  0
   -5.5410   18.8530  -34.2800 C   0  0  0  0  0  0  0  0  0  0  0  0
   -5.7110   17.6780  -33.5410 C   0  0  0  0  0  0  0  0  0  0  0  0
   -6.0680   17.7460  -32.1900 C   0  0  0  0  0  0  0  0  0  0  0  0
   -6.2520   18.9890  -31.5770 C   0  0  0  0  0  0  0  0  0  0  0  0
   -5.1670   22.1680  -31.2880 C   0  0  0  0  0  0  0  0  0  0  0  0
   -4.0080   21.7060  -31.4920 O   0  0  0  0  0  0  0  0  0  0  0  0
   -5.3100   23.4270  -30.6700 C   0  0  0  0  0  0  0  0  0  0  0  0
   -4.1000   24.2020  -30.3000 C   0  0  0  0  0  0  0  0  0  0  0  0
   -3.8840   25.3070  -30.8630 O   0  0  0  0  0  0  0  0  0  0  0  0
   -3.1460   23.7130  -29.3470 N   0  0  0  0  0  0  0  0  0  0  0  0
   -2.5940   24.4430  -28.2410 C   0  0  0  0  0  0  0  0  0  0  0  0
   -3.2800   24.5700  -27.0200 C   0  0  0  0  0  0  0  0  0  0  0  0
   -2.7110   25.2940  -25.9660 C   0  0  0  0  0  0  0  0  0  0  0  0
   -1.4670   25.9080  -26.1300 C   0  0  0  0  0  0  0  0  0  0  0  0
   -0.7940   25.8080  -27.3500 C   0  0  0  0  0  0  0  0  0  0  0  0
    0.4080   26.4140  -27.5120 F   0  0  0  0  0  0  0  0  0  0  0  0
   -1.3590   25.0840  -28.4050 C   0  0  0  0  0  0  0  0  0  0  0  0
   -6.8225   25.0608  -28.6166 H   0  0  0  0  0  0  0  0  0  0  0  0
   -6.0744   25.9472  -29.9882 H   0  0  0  0  0  0  0  0  0  0  0  0
   -7.8402   25.6173  -29.9882 H   0  0  0  0  0  0  0  0  0  0  0  0
   -8.7287   23.5691  -30.6846 H   0  0  0  0  0  0  0  0  0  0  0  0
   -9.3153   20.8317  -31.0613 H   0  0  0  0  0  0  0  0  0  0  0  0
   -9.3999   21.8389  -32.5463 H   0  0  0  0  0  0  0  0  0  0  0  0
   -8.4453   20.3173  -32.5463 H   0  0  0  0  0  0  0  0  0  0  0  0
   -5.5904   21.0210  -34.2522 H   0  0  0  0  0  0  0  0  0  0  0  0
   -5.2631   18.7982  -35.3429 H   0  0  0  0  0  0  0  0  0  0  0  0
   -5.5640   16.6998  -34.0222 H   0  0  0  0  0  0  0  0  0  0  0  0
   -6.2040   16.8213  -31.6099 H   0  0  0  0  0  0  0  0  0  0  0  0
   -6.5341   19.0402  -30.5150 H   0  0  0  0  0  0  0  0  0  0  0  0
   -4.2660   24.0993  -26.8930 H   0  0  0  0  0  0  0  0  0  0  0  0
   -3.2439   25.3796  -25.0075 H   0  0  0  0  0  0  0  0  0  0  0  0
   -1.0173   26.4703  -25.2984 H   0  0  0  0  0  0  0  0  0  0  0  0
   -0.8313   25.0176  -29.3679 H   0  0  0  0  0  0  0  0  0  0  0  0
  1  2  1  0
  2  3  1  0
  3  4  2  0
  4  5  1  0
  4  6  1  0
  6  7  1  0
  7  8  2  0
  8  9  1  0
  9 10  2  0
 10 11  1  0
 11 12  2  0
  6 13  1  0
 13 14  2  0
 13 15  1  0
 15 16  1  0
 16 17  2  0
 16 18  1  0
 18 19  1  0
 19 20  2  0
 20 21  1  0
 21 22  2  0
 22 23  1  0
 23 24  1  0
 23 25  2  0
 15  2  2  0
 25 19  1  0
 12  7  1  0
  1 26  1  0
  1 27  1  0
  1 28  1  0
  3 29  1  0
  5 30  1  0
  5 31  1  0
  5 32  1  0
  8 33  1  0
  9 34  1  0
 10 35  1  0
 11 36  1  0
 12 37  1  0
 20 38  1  0
 21 39  1  0
 22 40  1  0
 25 41  1  0
M  CHG  1  18  -1
M  END
>  <UniqueID>  (35) 
32

>  <SMILES>  (35) 
Cc1cc(C)n(-c2ccccc2)c(=O)c1C(=O)[N-]c1cccc(F)c1

>  <Energy>  (35) 
64.614205683258

>  <Genealogy>  (35) 
Cc1cc(C)n(-c2ccccc2)c(=O)c1C(=O)[N-]c1cccc(F)c1 (protonated)
Cc1cc(C)n(-c2ccccc2)c(=O)c1C(=O)[N-]c1cccc(F)c1 (3D coordinates assigned)
Cc1cc(C)n(-c2ccccc2)c(=O)c1C(=O)[N-]c1cccc(F)c1 (optimized conformer: 64.614205683258 kcal/mol)

>  <smiles>  (35) 
Cc1cc(C)n(-c2ccccc2)c(=O)c1C(=O)Nc1cccc(F)c1

>  <score_type>  (35) 
oracle

>  <origin>  (35) 
adg

>  <m_score__min__energy>  (35) 
-10.1

>  <m_primary>  (35) 
energy

$$$$
35:0
     RDKit          3D

 46 50  0  0  0  0  0  0  0  0999 V2000
    3.7920   20.0590  -34.6310 C   0  0  0  0  0  0  0  0  0  0  0  0
    2.6930   20.6780  -35.2920 O   0  0  0  0  0  0  0  0  0  0  0  0
    1.3500   20.5100  -34.9210 C   0  0  0  0  0  0  0  0  0  0  0  0
    0.7500   19.2670  -35.1440 C   0  0  0  0  0  0  0  0  0  0  0  0
   -0.5860   19.0480  -34.7920 C   0  0  0  0  0  0  0  0  0  0  0  0
   -1.3470   20.0770  -34.2090 C   0  0  0  0  0  0  0  0  0  0  0  0
   -2.7650   19.8460  -33.8330 C   0  0  0  0  0  0  0  0  0  0  0  0
   -3.4240   18.6410  -34.2040 C   0  0  0  0  0  0  0  0  0  0  0  0
   -4.7270   18.4170  -33.8550 N   0  0  0  0  0  0  0  0  0  0  0  0
   -5.3890   19.3670  -33.1500 C   0  0  0  0  0  0  0  0  0  0  0  0
   -6.6760   19.3750  -32.6680 C   0  0  0  0  0  0  0  0  0  0  0  0
   -7.7090   18.4450  -32.7600 C   0  0  0  0  0  0  0  0  0  0  0  0
   -8.9380   18.7740  -32.1620 C   0  0  0  0  0  0  0  0  0  0  0  0
   -9.1060   20.0110  -31.4990 C   0  0  0  0  0  0  0  0  0  0  0  0
   -8.0440   20.9320  -31.4230 C   0  0  0  0  0  0  0  0  0  0  0  0
   -6.8250   20.5820  -32.0100 C   0  0  0  0  0  0  0  0  0  0  0  0
   -5.6820   21.3160  -32.0700 N   0  0  0  0  0  0  0  0  0  0  0  0
   -5.4470   22.6170  -31.5070 C   0  0  0  0  0  0  0  0  0  0  0  0
   -4.3110   22.8510  -30.7150 C   0  0  0  0  0  0  0  0  0  0  0  0
   -4.0850   24.1160  -30.1640 C   0  0  0  0  0  0  0  0  0  0  0  0
   -4.9910   25.1540  -30.4000 C   0  0  0  0  0  0  0  0  0  0  0  0
   -6.1250   24.9280  -31.1850 C   0  0  0  0  0  0  0  0  0  0  0  0
   -6.3530   23.6640  -31.7380 C   0  0  0  0  0  0  0  0  0  0  0  0
   -4.8100   20.5530  -32.7750 C   0  0  0  0  0  0  0  0  0  0  0  0
   -3.4790   20.8190  -33.0950 C   0  0  0  0  0  0  0  0  0  0  0  0
   -0.7420   21.3260  -33.9860 C   0  0  0  0  0  0  0  0  0  0  0  0
    0.5930   21.5420  -34.3380 C   0  0  0  0  0  0  0  0  0  0  0  0
    3.6555   20.1359  -33.5422 H   0  0  0  0  0  0  0  0  0  0  0  0
    3.8439   18.9989  -34.9201 H   0  0  0  0  0  0  0  0  0  0  0  0
    4.7255   20.5640  -34.9201 H   0  0  0  0  0  0  0  0  0  0  0  0
    1.3338   18.4540  -35.6003 H   0  0  0  0  0  0  0  0  0  0  0  0
   -1.0444   18.0645  -34.9724 H   0  0  0  0  0  0  0  0  0  0  0  0
   -2.8779   17.8791  -34.7795 H   0  0  0  0  0  0  0  0  0  0  0  0
   -5.1970   17.5240  -34.1220 H   0  0  0  0  0  0  0  0  0  0  0  0
   -7.5681   17.4871  -33.2821 H   0  0  0  0  0  0  0  0  0  0  0  0
   -9.7758   18.0629  -32.2104 H   0  0  0  0  0  0  0  0  0  0  0  0
  -10.0745   20.2560  -31.0386 H   0  0  0  0  0  0  0  0  0  0  0  0
   -8.1701   21.8999  -30.9158 H   0  0  0  0  0  0  0  0  0  0  0  0
   -3.5964   22.0360  -30.5275 H   0  0  0  0  0  0  0  0  0  0  0  0
   -3.1938   24.2945  -29.5445 H   0  0  0  0  0  0  0  0  0  0  0  0
   -4.8113   26.1494  -29.9676 H   0  0  0  0  0  0  0  0  0  0  0  0
   -6.8386   25.7449  -31.3680 H   0  0  0  0  0  0  0  0  0  0  0  0
   -7.2458   23.4895  -32.3564 H   0  0  0  0  0  0  0  0  0  0  0  0
   -2.9984   21.7579  -32.7827 H   0  0  0  0  0  0  0  0  0  0  0  0
   -1.3244   22.1404  -33.5305 H   0  0  0  0  0  0  0  0  0  0  0  0
    1.0542   22.5243  -34.1582 H   0  0  0  0  0  0  0  0  0  0  0  0
  1  2  1  0
  2  3  1  0
  3  4  2  0
  4  5  1  0
  5  6  2  0
  6  7  1  0
  7  8  2  0
  8  9  1  0
  9 10  2  0
 10 11  1  0
 11 12  2  0
 12 13  1  0
 13 14  2  0
 14 15  1  0
 15 16  2  0
 16 17  1  0
 17 18  1  0
 18 19  2  0
 19 20  1  0
 20 21  2  0
 21 22  1  0
 22 23  2  0
 17 24  1  0
 24 25  2  0
  6 26  1  0
 26 27  2  0
 27  3  1  0
 25  7  1  0
 24 10  1  0
 16 11  1  0
 23 18  1  0
  1 28  1  0
  1 29  1  0
  1 30  1  0
  4 31  1  0
  5 32  1  0
  8 33  1  0
  9 34  1  0
 12 35  1  0
 13 36  1  0
 14 37  1  0
 15 38  1  0
 19 39  1  0
 20 40  1  0
 21 41  1  0
 22 42  1  0
 23 43  1  0
 25 44  1  0
 26 45  1  0
 27 46  1  0
M  CHG  1   9   1
M  END
>  <UniqueID>  (36) 
33

>  <SMILES>  (36) 
COc1ccc(-c2c[nH+]c3c4ccccc4n(-c4ccccc4)c3c2)cc1

>  <Energy>  (36) 
106.78314249862672

>  <Genealogy>  (36) 
COc1ccc(-c2c[nH+]c3c4ccccc4n(-c4ccccc4)c3c2)cc1 (protonated)
COc1ccc(-c2c[nH+]c3c4ccccc4n(-c4ccccc4)c3c2)cc1 (3D coordinates assigned)
COc1ccc(-c2c[nH+]c3c4ccccc4n(-c4ccccc4)c3c2)cc1 (optimized conformer: 106.78314249862672 kcal/mol)

>  <smiles>  (36) 
COc1ccc(-c2cnc3c4ccccc4n(-c4ccccc4)c3c2)cc1

>  <score_type>  (36) 
oracle

>  <origin>  (36) 
adg

>  <m_score__min__energy>  (36) 
-8.0800000000000001

>  <m_primary>  (36) 
energy

$$$$
36:0
     RDKit          3D

 42 44  0  0  0  0  0  0  0  0999 V2000
   -6.8550   25.1820  -29.7180 C   0  0  0  0  0  0  0  0  0  0  0  0
   -6.0070   24.5770  -30.7490 N   0  0  0  0  0  0  0  0  0  0  0  0
   -6.5840   24.1830  -32.0420 C   0  0  0  0  0  0  0  0  0  0  0  0
   -7.0980   22.7710  -31.9730 C   0  0  0  0  0  0  0  0  0  0  0  0
   -6.2580   21.7000  -32.3190 C   0  0  0  0  0  0  0  0  0  0  0  0
   -6.7390   20.3870  -32.2850 C   0  0  0  0  0  0  0  0  0  0  0  0
   -8.0620   20.1340  -31.9080 C   0  0  0  0  0  0  0  0  0  0  0  0
   -8.7170   18.3410  -31.8660 Br  0  0  0  0  0  0  0  0  0  0  0  0
   -8.9040   21.1960  -31.5660 C   0  0  0  0  0  0  0  0  0  0  0  0
   -8.4270   22.5100  -31.5990 C   0  0  0  0  0  0  0  0  0  0  0  0
   -4.6140   24.3420  -30.4680 C   0  0  0  0  0  0  0  0  0  0  0  0
   -3.7910   25.2980  -30.5100 O   0  0  0  0  0  0  0  0  0  0  0  0
   -4.1580   23.0100  -30.1960 N   0  0  0  0  0  0  0  0  0  0  0  0
   -2.8760   22.4470  -30.5160 C   0  0  0  0  0  0  0  0  0  0  0  0
   -2.7220   21.5240  -31.5650 C   0  0  0  0  0  0  0  0  0  0  0  0
   -1.4710   20.9650  -31.8290 C   0  0  0  0  0  0  0  0  0  0  0  0
   -0.3790   21.3350  -31.0480 C   0  0  0  0  0  0  0  0  0  0  0  0
   -0.5320   22.2500  -30.0550 N   0  0  0  0  0  0  0  0  0  0  0  0
   -1.7340   22.8290  -29.7770 C   0  0  0  0  0  0  0  0  0  0  0  0
   -1.8040   23.8190  -28.6780 C   0  0  0  0  0  0  0  0  0  0  0  0
   -0.8950   24.8900  -28.6020 C   0  0  0  0  0  0  0  0  0  0  0  0
   -0.9710   25.8090  -27.5510 C   0  0  0  0  0  0  0  0  0  0  0  0
   -1.9460   25.6630  -26.5620 C   0  0  0  0  0  0  0  0  0  0  0  0
   -2.8410   24.5900  -26.6160 C   0  0  0  0  0  0  0  0  0  0  0  0
   -2.7680   23.6690  -27.6650 C   0  0  0  0  0  0  0  0  0  0  0  0
   -6.4733   24.9096  -28.7230 H   0  0  0  0  0  0  0  0  0  0  0  0
   -6.8425   26.2764  -29.8286 H   0  0  0  0  0  0  0  0  0  0  0  0
   -7.8857   24.8141  -29.8286 H   0  0  0  0  0  0  0  0  0  0  0  0
   -7.4144   24.8602  -32.2908 H   0  0  0  0  0  0  0  0  0  0  0  0
   -5.8049   24.2439  -32.8161 H   0  0  0  0  0  0  0  0  0  0  0  0
   -5.2174   21.8945  -32.6180 H   0  0  0  0  0  0  0  0  0  0  0  0
   -6.0758   19.5521  -32.5552 H   0  0  0  0  0  0  0  0  0  0  0  0
   -9.9447   20.9975  -31.2701 H   0  0  0  0  0  0  0  0  0  0  0  0
   -9.0945   23.3423  -31.3312 H   0  0  0  0  0  0  0  0  0  0  0  0
   -3.5898   21.2417  -32.1792 H   0  0  0  0  0  0  0  0  0  0  0  0
   -1.3486   20.2390  -32.6463 H   0  0  0  0  0  0  0  0  0  0  0  0
    0.6078   20.8864  -31.2350 H   0  0  0  0  0  0  0  0  0  0  0  0
   -0.1199   25.0051  -29.3740 H   0  0  0  0  0  0  0  0  0  0  0  0
   -0.2616   26.6484  -27.5031 H   0  0  0  0  0  0  0  0  0  0  0  0
   -2.0099   26.3919  -25.7407 H   0  0  0  0  0  0  0  0  0  0  0  0
   -3.6034   24.4705  -25.8321 H   0  0  0  0  0  0  0  0  0  0  0  0
   -3.4688   22.8218  -27.6984 H   0  0  0  0  0  0  0  0  0  0  0  0
  1  2  1  0
  2  3  1  0
  3  4  1  0
  4  5  2  0
  5  6  1  0
  6  7  2  0
  7  8  1  0
  7  9  1  0
  9 10  2  0
  2 11  1  0
 11 12  2  0
 11 13  1  0
 13 14  1  0
 14 15  2  0
 15 16  1  0
 16 17  2  0
 17 18  1  0
 18 19  2  0
 19 20  1  0
 20 21  2  0
 21 22  1  0
 22 23  2  0
 23 24  1  0
 24 25  2  0
 10  4  1  0
 19 14  1  0
 25 20  1  0
  1 26  1  0
  1 27  1  0
  1 28  1  0
  3 29  1  0
  3 30  1  0
  5 31  1  0
  6 32  1  0
  9 33  1  0
 10 34  1  0
 15 35  1  0
 16 36  1  0
 17 37  1  0
 21 38  1  0
 22 39  1  0
 23 40  1  0
 24 41  1  0
 25 42  1  0
M  CHG  1  13  -1
M  END
>  <UniqueID>  (37) 
34

>  <SMILES>  (37) 
CN(Cc1ccc(Br)cc1)C(=O)[N-]c1cccnc1-c1ccccc1

>  <Energy>  (37) 
50.95162106779156

>  <Genealogy>  (37) 
CN(Cc1ccc(Br)cc1)C(=O)[N-]c1cccnc1-c1ccccc1 (protonated)
CN(Cc1ccc(Br)cc1)C(=O)[N-]c1cccnc1-c1ccccc1 (3D coordinates assigned)
CN(Cc1ccc(Br)cc1)C(=O)[N-]c1cccnc1-c1ccccc1 (optimized conformer: 50.95162106779156 kcal/mol)

>  <smiles>  (37) 
CN(Cc1ccc(Br)cc1)C(=O)Nc1cccnc1-c1ccccc1

>  <score_type>  (37) 
oracle

>  <origin>  (37) 
adg

>  <m_score__min__energy>  (37) 
-10

>  <m_primary>  (37) 
energy

$$$$
37:0
     RDKit          3D

 62 66  0  0  1  0  0  0  0  0999 V2000
   -5.4120   25.8210  -30.4240 C   0  0  0  0  0  0  0  0  0  0  0  0
   -4.0290   25.6080  -30.4340 O   0  0  0  0  0  0  0  0  0  0  0  0
   -3.3790   24.5210  -29.9090 C   0  0  0  0  0  0  0  0  0  0  0  0
   -2.5540   24.5860  -28.8030 C   0  0  0  0  0  0  0  0  0  0  0  0
   -1.9060   23.4840  -28.2850 C   0  0  0  0  0  0  0  0  0  0  0  0
   -1.0310   23.5740  -27.1050 C   0  0  0  0  0  0  0  0  0  0  0  0
   -0.9330   22.2950  -26.3180 C   0  0  0  0  0  0  0  0  0  0  0  0
   -1.5810   24.6930  -26.2240 C   0  0  0  0  0  0  0  0  0  0  0  0
   -2.0770   22.2640  -28.8820 C   0  0  0  0  0  0  0  0  0  0  0  0
   -2.8960   22.1740  -29.9890 C   0  0  0  0  0  0  0  0  0  0  0  0
   -3.5510   23.2940  -30.5090 C   0  0  0  0  0  0  0  0  0  0  0  0
   -4.3610   23.0710  -31.6450 N   0  0  0  0  0  0  0  0  0  0  0  0
   -5.2060   22.1030  -31.7390 C   0  0  0  0  0  0  0  0  0  0  0  0
   -6.4090   22.1860  -31.1480 N   0  0  0  0  0  0  0  0  0  0  0  0
   -7.3170   21.2050  -31.2200 C   0  0  0  0  0  0  0  0  0  0  0  0
   -6.9760   20.0660  -31.9410 C   0  0  0  0  0  0  0  0  0  0  0  0
   -5.7400   19.9450  -32.5660 C   0  0  0  0  0  0  0  0  0  0  0  0
   -4.9010   20.9700  -32.4410 N   0  0  0  0  0  0  0  0  0  0  0  0
   -5.3630   18.7440  -33.3230 C   0  0  0  0  0  0  0  0  0  0  0  0
   -6.3110   17.7440  -33.3730 C   0  0  0  0  0  0  0  0  0  0  0  0
   -5.7600   16.7680  -34.0970 N   0  0  0  0  0  0  0  0  0  0  0  0
   -4.5250   17.1250  -34.4910 N   0  0  0  0  0  0  0  0  0  0  0  0
   -3.7290   16.2100  -35.2850 C   0  0  0  0  0  0  0  0  0  0  0  0
   -4.2350   18.3540  -34.0290 C   0  0  0  0  0  0  0  0  0  0  0  0
   -3.0230   19.1110  -34.2180 C   0  0  0  0  0  0  0  0  0  0  0  0
   -2.0220   19.1210  -33.1260 C   0  0  0  0  0  0  0  0  0  0  0  0
   -1.4720   17.9680  -32.5940 C   0  0  0  0  0  0  0  0  0  0  0  0
   -0.5670   17.9680  -31.5570 C   0  0  0  0  0  0  0  0  0  0  0  0
   -0.1630   19.1580  -30.9910 C   0  0  0  0  0  0  0  0  0  0  0  0
   -0.6870   20.3300  -31.4930 C   0  0  0  0  0  0  0  0  0  0  0  0
   -1.5910   20.3220  -32.5290 C   0  0  0  0  0  0  0  0  0  0  0  0
   -7.6360   17.7830  -32.7460 C   0  0  0  0  0  0  0  0  0  0  0  0
   -7.9910   19.0060  -32.0050 C   0  0  0  0  0  0  0  0  0  0  0  0
   -5.7671   25.8757  -29.3843 H   0  0  0  0  0  0  0  0  0  0  0  0
   -5.6413   26.7651  -30.9399 H   0  0  0  0  0  0  0  0  0  0  0  0
   -5.9148   24.9897  -30.9399 H   0  0  0  0  0  0  0  0  0  0  0  0
   -2.4072   25.5601  -28.3135 H   0  0  0  0  0  0  0  0  0  0  0  0
   -0.0063   23.7791  -27.4485 H   0  0  0  0  0  0  0  0  0  0  0  0
   -0.9506   22.5241  -25.2423 H   0  0  0  0  0  0  0  0  0  0  0  0
   -1.7839   21.6444  -26.5682 H   0  0  0  0  0  0  0  0  0  0  0  0
    0.0071   21.7816  -26.5682 H   0  0  0  0  0  0  0  0  0  0  0  0
   -1.4491   24.4247  -25.1654 H   0  0  0  0  0  0  0  0  0  0  0  0
   -1.0390   25.6265  -26.4359 H   0  0  0  0  0  0  0  0  0  0  0  0
   -2.6511   24.8341  -26.4359 H   0  0  0  0  0  0  0  0  0  0  0  0
   -1.5706   21.3713  -28.4863 H   0  0  0  0  0  0  0  0  0  0  0  0
   -3.0368   21.1969  -30.4741 H   0  0  0  0  0  0  0  0  0  0  0  0
   -8.2962   21.2965  -30.7272 H   0  0  0  0  0  0  0  0  0  0  0  0
   -3.9770   20.9590  -32.8630 H   0  0  0  0  0  0  0  0  0  0  0  0
   -3.1548   15.5500  -34.6182 H   0  0  0  0  0  0  0  0  0  0  0  0
   -4.3917   15.6034  -35.9197 H   0  0  0  0  0  0  0  0  0  0  0  0
   -3.0365   16.7823  -35.9197 H   0  0  0  0  0  0  0  0  0  0  0  0
   -2.5246   18.7093  -35.1126 H   0  0  0  0  0  0  0  0  0  0  0  0
   -3.3632   20.1550  -34.2830 H   0  0  0  0  0  0  0  0  0  0  0  0
   -1.7739   17.0008  -33.0223 H   0  0  0  0  0  0  0  0  0  0  0  0
   -0.1653   17.0162  -31.1791 H   0  0  0  0  0  0  0  0  0  0  0  0
    0.5584   19.1721  -30.1607 H   0  0  0  0  0  0  0  0  0  0  0  0
   -0.3759   21.2904  -31.0562 H   0  0  0  0  0  0  0  0  0  0  0  0
   -1.9879   21.2780  -32.9012 H   0  0  0  0  0  0  0  0  0  0  0  0
   -8.3835   17.6487  -33.5418 H   0  0  0  0  0  0  0  0  0  0  0  0
   -7.6163   16.9861  -31.9880 H   0  0  0  0  0  0  0  0  0  0  0  0
   -8.8870   19.4329  -32.4793 H   0  0  0  0  0  0  0  0  0  0  0  0
   -8.1282   18.6791  -30.9637 H   0  0  0  0  0  0  0  0  0  0  0  0
  1  2  1  0
  2  3  1  0
  3  4  2  0
  4  5  1  0
  5  6  1  0
  6  7  1  0
  6  8  1  0
  5  9  2  0
  9 10  1  0
 10 11  2  0
 11 12  1  0
 12 13  2  0
 13 14  1  0
 14 15  2  0
 15 16  1  0
 16 17  2  0
 17 18  1  0
 17 19  1  0
 19 20  1  0
 20 21  2  0
 21 22  1  0
 22 23  1  0
 22 24  1  0
 24 25  1  0
 25 26  1  0
 26 27  2  0
 27 28  1  0
 28 29  2  0
 29 30  1  0
 30 31  2  0
 20 32  1  0
 32 33  1  0
 11  3  1  0
 18 13  1  0
 24 19  2  0
 31 26  1  0
 33 16  1  0
  1 34  1  0
  1 35  1  0
  1 36  1  0
  4 37  1  0
  6 38  1  0
  7 39  1  0
  7 40  1  0
  7 41  1  0
  8 42  1  0
  8 43  1  0
  8 44  1  0
  9 45  1  0
 10 46  1  0
 15 47  1  0
 18 48  1  0
 23 49  1  0
 23 50  1  0
 23 51  1  0
 25 52  1  0
 25 53  1  0
 27 54  1  0
 28 55  1  0
 29 56  1  0
 30 57  1  0
 31 58  1  0
 32 59  1  0
 32 60  1  0
 33 61  1  0
 33 62  1  0
M  END
>  <smiles>  (38) 
COc1cc(C(C)C)ccc1N=c1ncc2c([nH]1)-c1c(nn(C)c1Cc1ccccc1)CC2

>  <score_type>  (38) 
oracle

>  <origin>  (38) 
adg

>  <m_score__min__energy>  (38) 
-10.1

>  <m_primary>  (38) 
energy

$$$$
38:0
     RDKit          3D

 44 46  0  0  0  0  0  0  0  0999 V2000
   -7.4700   18.8410  -34.1720 H   0  0  0  0  0  0  0  0  0  0  0  0
   -6.4320   18.7120  -34.1850 N   0  0  0  0  0  0  0  0  0  0  0  0
   -5.6350   19.5040  -33.5390 C   0  0  0  0  0  0  0  0  0  0  0  0
   -4.3070   19.3780  -33.7590 N   0  0  0  0  0  0  0  0  0  0  0  0
   -3.2190   19.9960  -33.2450 C   0  0  0  0  0  0  0  0  0  0  0  0
   -1.6260   19.4590  -33.8770 S   0  0  0  0  0  0  0  0  0  0  0  0
   -0.9740   21.1440  -34.1740 C   0  0  0  0  0  0  0  0  0  0  0  0
   -1.8203   21.8190  -34.3694 H   0  0  0  0  0  0  0  0  0  0  0  0
   -0.4112   21.4442  -33.2778 H   0  0  0  0  0  0  0  0  0  0  0  0
   -0.0110   21.2070  -35.3670 C   0  0  0  0  0  0  0  0  0  0  0  0
    0.9062   20.6569  -35.1096 H   0  0  0  0  0  0  0  0  0  0  0  0
   -0.5210   20.7594  -36.2327 H   0  0  0  0  0  0  0  0  0  0  0  0
    0.3650   22.6400  -35.7390 C   0  0  0  0  0  0  0  0  0  0  0  0
    0.5194   23.2283  -34.8224 H   0  0  0  0  0  0  0  0  0  0  0  0
    1.2919   22.6339  -36.3312 H   0  0  0  0  0  0  0  0  0  0  0  0
   -0.4455   23.0898  -36.3312 H   0  0  0  0  0  0  0  0  0  0  0  0
   -3.2080   20.9990  -32.2740 C   0  0  0  0  0  0  0  0  0  0  0  0
   -2.2149   21.3462  -31.9528 H   0  0  0  0  0  0  0  0  0  0  0  0
   -4.2670   21.5990  -31.6770 N   0  0  0  0  0  0  0  0  0  0  0  0
   -3.9920   22.2980  -30.9560 H   0  0  0  0  0  0  0  0  0  0  0  0
   -5.5950   21.4030  -31.8880 C   0  0  0  0  0  0  0  0  0  0  0  0
   -6.2010   20.4370  -32.6730 C   0  0  0  0  0  0  0  0  0  0  0  0
   -7.5360   20.4970  -32.4800 N   0  0  0  0  0  0  0  0  0  0  0  0
   -7.7200   21.4960  -31.5990 C   0  0  0  0  0  0  0  0  0  0  0  0
   -8.7056   21.7866  -31.2064 H   0  0  0  0  0  0  0  0  0  0  0  0
   -6.5670   22.1050  -31.2470 N   0  0  0  0  0  0  0  0  0  0  0  0
   -6.4030   23.1710  -30.2360 C   0  0  1  0  0  0  0  0  0  0  0  0
   -7.3584   23.1689  -29.6908 H   0  0  0  0  0  0  0  0  0  0  0  0
   -5.3000   22.9080  -29.4030 O   0  0  0  0  0  0  0  0  0  0  0  0
   -4.9560   24.1370  -28.7970 C   0  0  1  0  0  0  0  0  0  0  0  0
   -5.4009   24.2227  -27.7947 H   0  0  0  0  0  0  0  0  0  0  0  0
   -3.4310   24.2090  -28.6360 C   0  0  0  0  0  0  0  0  0  0  0  0
   -3.1556   25.2015  -28.2498 H   0  0  0  0  0  0  0  0  0  0  0  0
   -3.1130   23.4235  -27.9346 H   0  0  0  0  0  0  0  0  0  0  0  0
   -2.7900   24.0000  -29.8660 O   0  0  0  0  0  0  0  0  0  0  0  0
   -3.5020   23.7860  -30.5250 H   0  0  0  0  0  0  0  0  0  0  0  0
   -5.5070   25.2890  -29.6600 C   0  0  2  0  0  0  0  0  0  0  0  0
   -4.7400   26.0109  -29.9771 H   0  0  0  0  0  0  0  0  0  0  0  0
   -6.4670   26.0100  -28.9310 O   0  0  0  0  0  0  0  0  0  0  0  0
   -5.9940   26.7840  -28.5260 H   0  0  0  0  0  0  0  0  0  0  0  0
   -6.1590   24.5650  -30.8230 C   0  0  1  0  0  0  0  0  0  0  0  0
   -7.0815   25.0296  -31.2012 H   0  0  0  0  0  0  0  0  0  0  0  0
   -5.2850   24.5430  -31.9300 O   0  0  0  0  0  0  0  0  0  0  0  0
   -4.3550   24.4530  -31.5940 H   0  0  0  0  0  0  0  0  0  0  0  0
  1  2  1  0
  2  3  2  0
  3  4  1  0
  4  5  2  0
  5  6  1  0
  6  7  1  0
  7  8  1  0
  7  9  1  0
  7 10  1  0
 10 11  1  0
 10 12  1  0
 10 13  1  0
 13 14  1  0
 13 15  1  0
 13 16  1  0
  5 17  1  0
 17 18  1  0
 17 19  2  0
 19 20  1  0
 19 21  1  0
 21 22  2  0
 22 23  1  0
 23 24  2  0
 24 25  1  0
 24 26  1  0
 26 27  1  0
 27 28  1  1
 27 29  1  0
 29 30  1  0
 30 31  1  1
 30 32  1  0
 32 33  1  0
 32 34  1  0
 32 35  1  0
 35 36  1  0
 30 37  1  0
 37 38  1  6
 37 39  1  0
 39 40  1  0
 37 41  1  0
 41 42  1  6
 41 43  1  0
 43 44  1  0
 22  3  1  0
 41 27  1  0
 26 21  1  0
M  CHG  1  19   1
M  END
>  <UniqueID>  (39) 
35

>  <SMILES>  (39) 
[H]/N=c1\nc(SCCC)c[nH+]c2c1ncn2[C@H]1O[C@@H](CO)C(O)C1O

>  <Energy>  (39) 
93.75558966687575

>  <Genealogy>  (39) 
CCCSc1c[nH+]c2c(ncn2C2OC(CO)C(O)C2O)c(=N)n1 (protonated)
CCCSc1c[nH+]c2c(ncn2[C@H]2O[C@@H](CO)C(O)C2O)c(=N)n1 (chirality)
[H]/N=c1\nc(SCCC)c[nH+]c2c1ncn2[C@H]1O[C@@H](CO)C(O)C1O (cis-trans isomerization)
[H]/N=c1\nc(SCCC)c[nH+]c2c1ncn2[C@H]1O[C@@H](CO)C(O)C1O (3D coordinates assigned)
[H]/N=c1\nc(SCCC)c[nH+]c2c1ncn2[C@H]1O[C@@H](CO)C(O)C1O (nonaromatic ring conformer: 93.75558966687575 kcal/mol)

>  <smiles>  (39) 
CCCSc1cnc2c(ncn2C2OC(CO)C(O)C2O)c(=N)n1

>  <score_type>  (39) 
oracle

>  <origin>  (39) 
adg

>  <m_score__min__energy>  (39) 
-6.1399999999999997

>  <m_primary>  (39) 
energy

$$$$
39:0
     RDKit          3D

 46 48  0  0  0  0  0  0  0  0999 V2000
   -4.9530   15.1660  -33.3940 C   0  0  0  0  0  0  0  0  0  0  0  0
   -5.7170   16.1520  -34.2690 C   0  0  0  0  0  0  0  0  0  0  0  0
   -6.2680   17.2300  -33.4500 N   0  0  0  0  0  0  0  0  0  0  0  0
   -7.4050   17.1630  -32.7780 N   0  0  0  0  0  0  0  0  0  0  0  0
   -7.6190   18.3800  -32.2330 C   0  0  0  0  0  0  0  0  0  0  0  0
   -8.8110   18.7080  -31.3880 C   0  0  0  0  0  0  0  0  0  0  0  0
   -6.6300   19.2450  -32.5720 N   0  0  0  0  0  0  0  0  0  0  0  0
   -6.4950   20.6420  -32.2570 C   0  0  0  0  0  0  0  0  0  0  0  0
   -7.6300   21.4560  -32.1230 C   0  0  0  0  0  0  0  0  0  0  0  0
   -7.4930   22.8230  -31.8690 C   0  0  0  0  0  0  0  0  0  0  0  0
   -6.2180   23.4010  -31.7650 C   0  0  0  0  0  0  0  0  0  0  0  0
   -6.0710   24.8840  -31.5520 C   0  0  0  0  0  0  0  0  0  0  0  0
   -5.2700   25.2050  -30.3160 C   0  0  0  0  0  0  0  0  0  0  0  0
   -5.8750   25.5130  -29.2550 O   0  0  0  0  0  0  0  0  0  0  0  0
   -3.8390   25.2500  -30.3350 N   0  0  0  0  0  0  0  0  0  0  0  0
   -2.9950   24.4560  -29.4960 C   0  0  0  0  0  0  0  0  0  0  0  0
   -3.3960   23.1650  -29.1310 C   0  0  0  0  0  0  0  0  0  0  0  0
   -2.5730   22.3790  -28.3170 C   0  0  0  0  0  0  0  0  0  0  0  0
   -3.0910   20.7730  -27.8370 Cl  0  0  0  0  0  0  0  0  0  0  0  0
   -1.3370   22.8740  -27.8820 C   0  0  0  0  0  0  0  0  0  0  0  0
   -0.9170   24.1510  -28.2750 C   0  0  0  0  0  0  0  0  0  0  0  0
    0.3530   24.6620  -27.8290 C   0  0  0  0  0  0  0  0  0  0  0  0
    1.3740   25.0740  -27.4710 N   0  0  0  0  0  0  0  0  0  0  0  0
   -1.7380   24.9330  -29.0950 C   0  0  0  0  0  0  0  0  0  0  0  0
   -5.0820   22.5810  -31.8690 C   0  0  0  0  0  0  0  0  0  0  0  0
   -5.2200   21.2150  -32.1230 C   0  0  0  0  0  0  0  0  0  0  0  0
   -5.8090   18.4890  -33.3320 C   0  0  0  0  0  0  0  0  0  0  0  0
   -4.7650   18.9190  -33.8950 O   0  0  0  0  0  0  0  0  0  0  0  0
   -5.1339   15.3995  -32.3344 H   0  0  0  0  0  0  0  0  0  0  0  0
   -5.2967   14.1432  -33.6079 H   0  0  0  0  0  0  0  0  0  0  0  0
   -3.8768   15.2434  -33.6079 H   0  0  0  0  0  0  0  0  0  0  0  0
   -5.0339   16.5778  -35.0187 H   0  0  0  0  0  0  0  0  0  0  0  0
   -6.5416   15.6238  -34.7701 H   0  0  0  0  0  0  0  0  0  0  0  0
   -8.0170   16.3200  -32.7040 H   0  0  0  0  0  0  0  0  0  0  0  0
   -8.5386   18.6331  -30.3249 H   0  0  0  0  0  0  0  0  0  0  0  0
   -9.1467   19.7319  -31.6092 H   0  0  0  0  0  0  0  0  0  0  0  0
   -9.6233   18.0000  -31.6092 H   0  0  0  0  0  0  0  0  0  0  0  0
   -8.6334   21.0154  -32.2185 H   0  0  0  0  0  0  0  0  0  0  0  0
   -8.3891   23.4497  -31.7499 H   0  0  0  0  0  0  0  0  0  0  0  0
   -5.5636   25.3188  -32.4258 H   0  0  0  0  0  0  0  0  0  0  0  0
   -7.0776   25.3079  -31.4216 H   0  0  0  0  0  0  0  0  0  0  0  0
   -4.3591   22.7683  -29.4846 H   0  0  0  0  0  0  0  0  0  0  0  0
   -0.6964   22.2600  -27.2319 H   0  0  0  0  0  0  0  0  0  0  0  0
   -1.3968   25.9249  -29.4263 H   0  0  0  0  0  0  0  0  0  0  0  0
   -4.0792   23.0171  -31.7498 H   0  0  0  0  0  0  0  0  0  0  0  0
   -4.3243   20.5837  -32.2187 H   0  0  0  0  0  0  0  0  0  0  0  0
  1  2  1  0
  2  3  1  0
  3  4  1  0
  4  5  2  0
  5  6  1  0
  5  7  1  0
  7  8  1  0
  8  9  2  0
  9 10  1  0
 10 11  2  0
 11 12  1  0
 12 13  1  0
 13 14  2  0
 13 15  1  0
 15 16  1  0
 16 17  2  0
 17 18  1  0
 18 19  1  0
 18 20  2  0
 20 21  1  0
 21 22  1  0
 22 23  3  0
 21 24  2  0
 11 25  1  0
 25 26  2  0
  7 27  1  0
 27 28  2  0
 27  3  1  0
 26  8  1  0
 24 16  1  0
  1 29  1  0
  1 30  1  0
  1 31  1  0
  2 32  1  0
  2 33  1  0
  4 34  1  0
  6 35  1  0
  6 36  1  0
  6 37  1  0
  9 38  1  0
 10 39  1  0
 12 40  1  0
 12 41  1  0
 17 42  1  0
 20 43  1  0
 24 44  1  0
 25 45  1  0
 26 46  1  0
M  CHG  2   4   1  15  -1
M  END
>  <UniqueID>  (40) 
36

>  <SMILES>  (40) 
CCn1[nH+]c(C)n(-c2ccc(CC(=O)[N-]c3cc(Cl)cc(C#N)c3)cc2)c1=O

>  <Energy>  (40) 
89.95690505992859

>  <Genealogy>  (40) 
CCn1[nH+]c(C)n(-c2ccc(CC(=O)[N-]c3cc(Cl)cc(C#N)c3)cc2)c1=O (protonated)
CCn1[nH+]c(C)n(-c2ccc(CC(=O)[N-]c3cc(Cl)cc(C#N)c3)cc2)c1=O (3D coordinates assigned)
CCn1[nH+]c(C)n(-c2ccc(CC(=O)[N-]c3cc(Cl)cc(C#N)c3)cc2)c1=O (optimized conformer: 89.95690505992859 kcal/mol)

>  <smiles>  (40) 
CCn1nc(C)n(-c2ccc(CC(=O)Nc3cc(Cl)cc(C#N)c3)cc2)c1=O

>  <score_type>  (40) 
oracle

>  <origin>  (40) 
adg

>  <m_score__min__energy>  (40) 
-10.619999999999999

>  <m_primary>  (40) 
energy

$$$$
40:0
     RDKit          3D

 39 42  0  0  0  0  0  0  0  0999 V2000
   -6.4840   25.6670  -29.3540 C   0  0  0  0  0  0  0  0  0  0  0  0
   -5.7350   25.6600  -30.6800 C   0  0  0  0  0  0  0  0  0  0  0  0
   -5.3060   24.3060  -31.0110 N   0  0  0  0  0  0  0  0  0  0  0  0
   -6.1150   23.2610  -31.2630 C   0  0  0  0  0  0  0  0  0  0  0  0
   -5.3300   22.1820  -31.6190 C   0  0  0  0  0  0  0  0  0  0  0  0
   -5.8270   20.8690  -32.0850 C   0  0  0  0  0  0  0  0  0  0  0  0
   -7.1180   20.4420  -31.7310 C   0  0  0  0  0  0  0  0  0  0  0  0
   -7.6030   19.2060  -32.1710 C   0  0  0  0  0  0  0  0  0  0  0  0
   -6.8060   18.3910  -32.9770 C   0  0  0  0  0  0  0  0  0  0  0  0
   -7.2610   17.1860  -33.4130 N   0  0  0  0  0  0  0  0  0  0  0  0
   -6.4930   16.3900  -34.2020 C   0  0  0  0  0  0  0  0  0  0  0  0
   -5.2150   16.8140  -34.5760 C   0  0  0  0  0  0  0  0  0  0  0  0
   -4.7540   18.0190  -34.1450 N   0  0  0  0  0  0  0  0  0  0  0  0
   -5.5160   18.8180  -33.3530 C   0  0  0  0  0  0  0  0  0  0  0  0
   -5.0330   20.0550  -32.9140 C   0  0  0  0  0  0  0  0  0  0  0  0
   -4.0210   22.6610  -31.5560 C   0  0  0  0  0  0  0  0  0  0  0  0
   -2.7670   21.9100  -31.7760 C   0  0  0  0  0  0  0  0  0  0  0  0
   -2.0030   21.4920  -30.6730 C   0  0  0  0  0  0  0  0  0  0  0  0
   -0.8220   20.7690  -30.8660 C   0  0  0  0  0  0  0  0  0  0  0  0
   -0.4010   20.4460  -32.1580 C   0  0  0  0  0  0  0  0  0  0  0  0
    0.7440   19.7440  -32.3440 F   0  0  0  0  0  0  0  0  0  0  0  0
   -1.1650   20.8390  -33.2600 C   0  0  0  0  0  0  0  0  0  0  0  0
   -2.3470   21.5610  -33.0710 C   0  0  0  0  0  0  0  0  0  0  0  0
   -4.0420   23.9600  -31.1970 N   0  0  0  0  0  0  0  0  0  0  0  0
   -5.7614   25.6602  -28.5247 H   0  0  0  0  0  0  0  0  0  0  0  0
   -7.1074   26.5710  -29.2898 H   0  0  0  0  0  0  0  0  0  0  0  0
   -7.1242   24.7748  -29.2898 H   0  0  0  0  0  0  0  0  0  0  0  0
   -6.3982   26.0349  -31.4735 H   0  0  0  0  0  0  0  0  0  0  0  0
   -4.8485   26.3056  -30.5940 H   0  0  0  0  0  0  0  0  0  0  0  0
   -7.2130   23.2653  -31.1969 H   0  0  0  0  0  0  0  0  0  0  0  0
   -7.7523   21.0848  -31.1029 H   0  0  0  0  0  0  0  0  0  0  0  0
   -8.6119   18.8763  -31.8821 H   0  0  0  0  0  0  0  0  0  0  0  0
   -6.8751   15.4170  -34.5446 H   0  0  0  0  0  0  0  0  0  0  0  0
   -4.5857   16.1772  -35.2150 H   0  0  0  0  0  0  0  0  0  0  0  0
   -4.0308   20.3921  -33.2173 H   0  0  0  0  0  0  0  0  0  0  0  0
   -2.3357   21.7348  -29.6530 H   0  0  0  0  0  0  0  0  0  0  0  0
   -0.2233   20.4539  -29.9987 H   0  0  0  0  0  0  0  0  0  0  0  0
   -0.8360   20.5800  -34.2772 H   0  0  0  0  0  0  0  0  0  0  0  0
   -2.9517   21.8576  -33.9407 H   0  0  0  0  0  0  0  0  0  0  0  0
  1  2  1  0
  2  3  1  0
  3  4  1  0
  4  5  2  0
  5  6  1  0
  6  7  2  0
  7  8  1  0
  8  9  2  0
  9 10  1  0
 10 11  2  0
 11 12  1  0
 12 13  2  0
 13 14  1  0
 14 15  2  0
  5 16  1  0
 16 17  1  0
 17 18  2  0
 18 19  1  0
 19 20  2  0
 20 21  1  0
 20 22  1  0
 22 23  2  0
 16 24  2  0
 24  3  1  0
 15  6  1  0
 23 17  1  0
 14  9  1  0
  1 25  1  0
  1 26  1  0
  1 27  1  0
  2 28  1  0
  2 29  1  0
  4 30  1  0
  7 31  1  0
  8 32  1  0
 11 33  1  0
 12 34  1  0
 15 35  1  0
 18 36  1  0
 19 37  1  0
 22 38  1  0
 23 39  1  0
M  END
>  <UniqueID>  (41) 
37

>  <SMILES>  (41) 
CCn1cc(-c2ccc3nccnc3c2)c(-c2ccc(F)cc2)n1

>  <Energy>  (41) 
81.4170758985526

>  <Genealogy>  (41) 
CCn1cc(-c2ccc3nccnc3c2)c(-c2ccc(F)cc2)n1 (3D coordinates assigned)
CCn1cc(-c2ccc3nccnc3c2)c(-c2ccc(F)cc2)n1 (optimized conformer: 81.4170758985526 kcal/mol)

>  <smiles>  (41) 
CCn1cc(-c2ccc3nccnc3c2)c(-c2ccc(F)cc2)n1

>  <score_type>  (41) 
oracle

>  <origin>  (41) 
adg

>  <m_score__min__energy>  (41) 
-8.1799999999999997

>  <m_primary>  (41) 
energy

$$$$
41:0
     RDKit          3D

 46 48  0  0  0  0  0  0  0  0999 V2000
   -3.6672   19.1038  -33.9177 H   0  0  0  0  0  0  0  0  0  0  0  0
   -4.4720   19.6970  -33.4590 C   0  0  0  0  0  0  0  0  0  0  0  0
   -4.1580   20.8520  -32.7390 C   0  0  0  0  0  0  0  0  0  0  0  0
   -3.1051   21.1494  -32.6255 H   0  0  0  0  0  0  0  0  0  0  0  0
   -5.1730   21.6460  -32.1530 C   0  0  0  0  0  0  0  0  0  0  0  0
   -4.8480   22.8490  -31.3900 N   0  0  0  0  0  0  0  0  0  0  0  0
   -5.6900   24.0550  -31.5450 C   0  0  0  0  0  0  0  0  0  0  0  0
   -5.6139   24.4006  -32.5865 H   0  0  0  0  0  0  0  0  0  0  0  0
   -6.7166   23.7685  -31.2729 H   0  0  0  0  0  0  0  0  0  0  0  0
   -5.2860   25.2090  -30.6210 C   0  0  0  0  0  0  0  0  0  0  0  0
   -5.6663   26.1533  -31.0376 H   0  0  0  0  0  0  0  0  0  0  0  0
   -5.7150   25.0266  -29.6247 H   0  0  0  0  0  0  0  0  0  0  0  0
   -3.8860   25.2910  -30.4980 O   0  0  0  0  0  0  0  0  0  0  0  0
   -3.4390   24.1700  -29.7730 C   0  0  0  0  0  0  0  0  0  0  0  0
   -2.3758   24.3030  -29.5240 H   0  0  0  0  0  0  0  0  0  0  0  0
   -4.0409   24.0821  -28.8565 H   0  0  0  0  0  0  0  0  0  0  0  0
   -3.6050   22.8870  -30.5910 C   0  0  0  0  0  0  0  0  0  0  0  0
   -2.7489   22.7985  -31.2760 H   0  0  0  0  0  0  0  0  0  0  0  0
   -3.6572   22.0535  -29.8751 H   0  0  0  0  0  0  0  0  0  0  0  0
   -6.5150   21.2410  -32.3490 C   0  0  0  0  0  0  0  0  0  0  0  0
   -7.3303   21.8462  -31.9258 H   0  0  0  0  0  0  0  0  0  0  0  0
   -6.8210   20.0840  -33.0720 C   0  0  0  0  0  0  0  0  0  0  0  0
   -7.8721   19.7981  -33.2251 H   0  0  0  0  0  0  0  0  0  0  0  0
   -5.8030   19.2890  -33.6010 C   0  0  0  0  0  0  0  0  0  0  0  0
   -6.1500   18.1270  -34.3670 N   0  0  0  0  0  0  0  0  0  0  0  0
   -5.4570   17.0280  -34.4650 C   0  0  0  0  0  0  0  0  0  0  0  0
   -5.8740   15.7930  -33.8490 N   0  0  0  0  0  0  0  0  0  0  0  0
   -7.1530   15.1920  -34.2630 C   0  0  0  0  0  0  0  0  0  0  0  0
   -7.5211   15.7177  -35.1564 H   0  0  0  0  0  0  0  0  0  0  0  0
   -7.8628   15.2880  -33.4281 H   0  0  0  0  0  0  0  0  0  0  0  0
   -7.0010   13.7070  -34.5900 C   0  0  0  0  0  0  0  0  0  0  0  0
   -6.9419   13.1299  -33.6554 H   0  0  0  0  0  0  0  0  0  0  0  0
   -7.8693   13.3696  -35.1750 H   0  0  0  0  0  0  0  0  0  0  0  0
   -6.0824   13.5525  -35.1750 H   0  0  0  0  0  0  0  0  0  0  0  0
   -4.8360   14.9220  -33.2650 C   0  0  0  0  0  0  0  0  0  0  0  0
   -4.8350   15.0552  -32.1731 H   0  0  0  0  0  0  0  0  0  0  0  0
   -5.0718   13.8838  -33.5416 H   0  0  0  0  0  0  0  0  0  0  0  0
   -3.4300   15.2480  -33.8060 C   0  0  0  0  0  0  0  0  0  0  0  0
   -2.9707   16.0197  -33.1707 H   0  0  0  0  0  0  0  0  0  0  0  0
   -2.8284   14.3272  -33.7922 H   0  0  0  0  0  0  0  0  0  0  0  0
   -3.4960   15.7420  -35.1900 N   0  0  0  0  0  0  0  0  0  0  0  0
   -2.5220   15.8540  -35.5580 H   0  0  0  0  0  0  0  0  0  0  0  0
   -3.9990   15.0470  -35.7920 H   0  0  0  0  0  0  0  0  0  0  0  0
   -4.1780   17.0450  -35.2520 C   0  0  0  0  0  0  0  0  0  0  0  0
   -3.5130   17.8178  -34.8389 H   0  0  0  0  0  0  0  0  0  0  0  0
   -4.4193   17.2615  -36.3031 H   0  0  0  0  0  0  0  0  0  0  0  0
  1  2  1  0
  2  3  2  0
  3  4  1  0
  3  5  1  0
  5  6  1  0
  6  7  1  0
  7  8  1  0
  7  9  1  0
  7 10  1  0
 10 11  1  0
 10 12  1  0
 10 13  1  0
 13 14  1  0
 14 15  1  0
 14 16  1  0
 14 17  1  0
 17 18  1  0
 17 19  1  0
  5 20  2  0
 20 21  1  0
 20 22  1  0
 22 23  1  0
 22 24  2  0
 24 25  1  0
 25 26  2  0
 26 27  1  0
 27 28  1  0
 28 29  1  0
 28 30  1  0
 28 31  1  0
 31 32  1  0
 31 33  1  0
 31 34  1  0
 27 35  1  0
 35 36  1  0
 35 37  1  0
 35 38  1  0
 38 39  1  0
 38 40  1  0
 38 41  1  0
 41 42  1  0
 41 43  1  0
 41 44  1  0
 44 45  1  0
 44 46  1  0
 24  2  1  0
 44 26  1  0
 17  6  1  0
M  CHG  1  41   1
M  END
>  <UniqueID>  (42) 
38

>  <SMILES>  (42) 
CCN1CC[NH2+]C/C1=N/c1ccc(N2CCOCC2)cc1

>  <Energy>  (42) 
63.9786525181368

>  <Genealogy>  (42) 
CCN1CC[NH2+]CC1=Nc1ccc(N2CCOCC2)cc1 (protonated)
CCN1CC[NH2+]C/C1=N/c1ccc(N2CCOCC2)cc1 (cis-trans isomerization)
CCN1CC[NH2+]C/C1=N/c1ccc(N2CCOCC2)cc1 (3D coordinates assigned)
CCN1CC[NH2+]C/C1=N/c1ccc(N2CCOCC2)cc1 (nonaromatic ring conformer: 63.9786525181368 kcal/mol)

>  <smiles>  (42) 
CCN1CCNCC1=Nc1ccc(N2CCOCC2)cc1

>  <score_type>  (42) 
oracle

>  <origin>  (42) 
adg

>  <m_score__min__energy>  (42) 
-6.6600000000000001

>  <m_primary>  (42) 
energy

$$$$
42:0
     RDKit          3D

 74 79  0  0  0  0  0  0  0  0999 V2000
   -0.4640   29.2690  -26.5010 C   0  0  0  0  0  0  0  0  0  0  0  0
   -0.7990   28.7670  -25.0960 C   0  0  0  0  0  0  0  0  0  0  0  0
    0.2340   27.8210  -24.6130 N   0  0  0  0  0  0  0  0  0  0  0  0
    1.2870   28.3470  -23.9080 C   0  0  0  0  0  0  0  0  0  0  0  0
    2.3430   27.5450  -23.4440 C   0  0  0  0  0  0  0  0  0  0  0  0
    3.4460   28.1640  -22.6560 C   0  0  0  0  0  0  0  0  0  0  0  0
    4.6490   27.8750  -22.9040 O   0  0  0  0  0  0  0  0  0  0  0  0
    3.1770   29.0830  -21.6450 O   0  0  0  0  0  0  0  0  0  0  0  0
    2.3240   26.1720  -23.7470 C   0  0  0  0  0  0  0  0  0  0  0  0
    3.2710   25.4270  -23.3690 O   0  0  0  0  0  0  0  0  0  0  0  0
    1.2550   25.6260  -24.4780 C   0  0  0  0  0  0  0  0  0  0  0  0
    1.2290   24.2560  -24.8020 C   0  0  0  0  0  0  0  0  0  0  0  0
    0.1690   23.7070  -25.5220 C   0  0  0  0  0  0  0  0  0  0  0  0
    0.1820   22.3750  -25.8130 F   0  0  0  0  0  0  0  0  0  0  0  0
   -0.8940   24.5210  -25.9300 C   0  0  0  0  0  0  0  0  0  0  0  0
   -2.0020   23.9580  -26.6530 N   0  0  0  0  0  0  0  0  0  0  0  0
   -1.7950   22.6450  -27.3110 C   0  0  0  0  0  0  0  0  0  0  0  0
   -3.0640   22.0730  -27.9440 C   0  0  0  0  0  0  0  0  0  0  0  0
   -3.8130   23.1500  -28.5930 N   0  0  0  0  0  0  0  0  0  0  0  0
   -3.5700   23.5100  -29.9720 C   0  0  0  0  0  0  0  0  0  0  0  0
   -3.5440   24.7280  -30.3070 O   0  0  0  0  0  0  0  0  0  0  0  0
   -3.3150   22.5020  -31.0160 C   0  0  0  0  0  0  0  0  0  0  0  0
   -4.2490   21.5990  -31.4910 C   0  0  0  0  0  0  0  0  0  0  0  0
   -3.5620   20.8320  -32.4130 C   0  0  0  0  0  0  0  0  0  0  0  0
   -4.1760   19.7870  -33.2620 C   0  0  0  0  0  0  0  0  0  0  0  0
   -5.5340   19.8780  -33.6150 C   0  0  0  0  0  0  0  0  0  0  0  0
   -6.1130   18.9060  -34.4380 C   0  0  0  0  0  0  0  0  0  0  0  0
   -5.3450   17.8410  -34.9150 C   0  0  0  0  0  0  0  0  0  0  0  0
   -3.9920   17.7500  -34.5850 C   0  0  0  0  0  0  0  0  0  0  0  0
   -3.4070   18.7200  -33.7660 C   0  0  0  0  0  0  0  0  0  0  0  0
   -2.2730   21.2550  -32.4560 N   0  0  0  0  0  0  0  0  0  0  0  0
   -1.1790   20.6760  -33.1920 C   0  0  0  0  0  0  0  0  0  0  0  0
   -0.4020   19.6510  -32.6300 C   0  0  0  0  0  0  0  0  0  0  0  0
    0.6400   19.0710  -33.3600 C   0  0  0  0  0  0  0  0  0  0  0  0
    0.9330   19.5130  -34.6580 C   0  0  0  0  0  0  0  0  0  0  0  0
    1.9720   18.8810  -35.3580 O   0  0  0  0  0  0  0  0  0  0  0  0
    2.0910   18.8690  -36.7770 C   0  0  0  0  0  0  0  0  0  0  0  0
    0.1740   20.5650  -35.2110 C   0  0  0  0  0  0  0  0  0  0  0  0
   -0.8700   21.1430  -34.4770 C   0  0  0  0  0  0  0  0  0  0  0  0
   -2.1280   22.2650  -31.6070 N   0  0  0  0  0  0  0  0  0  0  0  0
   -4.2720   24.1790  -27.6640 C   0  0  0  0  0  0  0  0  0  0  0  0
   -3.0520   24.8990  -27.0900 C   0  0  0  0  0  0  0  0  0  0  0  0
   -0.8840   25.8870  -25.6030 C   0  0  0  0  0  0  0  0  0  0  0  0
    0.1940   26.4690  -24.8970 C   0  0  0  0  0  0  0  0  0  0  0  0
    0.1453   30.1820  -26.4286 H   0  0  0  0  0  0  0  0  0  0  0  0
    0.0989   28.4945  -27.0426 H   0  0  0  0  0  0  0  0  0  0  0  0
   -1.3952   29.4916  -27.0426 H   0  0  0  0  0  0  0  0  0  0  0  0
   -0.8509   29.6251  -24.4097 H   0  0  0  0  0  0  0  0  0  0  0  0
   -1.7662   28.2441  -25.1306 H   0  0  0  0  0  0  0  0  0  0  0  0
    1.3049   29.4271  -23.7003 H   0  0  0  0  0  0  0  0  0  0  0  0
    2.0585   23.6084  -24.4818 H   0  0  0  0  0  0  0  0  0  0  0  0
   -1.0370   22.7661  -28.0989 H   0  0  0  0  0  0  0  0  0  0  0  0
   -1.4762   21.9386  -26.5304 H   0  0  0  0  0  0  0  0  0  0  0  0
   -2.7908   21.3140  -28.6918 H   0  0  0  0  0  0  0  0  0  0  0  0
   -3.6871   21.6112  -27.1639 H   0  0  0  0  0  0  0  0  0  0  0  0
   -5.3059   21.5108  -31.1992 H   0  0  0  0  0  0  0  0  0  0  0  0
   -6.1426   20.7155  -33.2432 H   0  0  0  0  0  0  0  0  0  0  0  0
   -7.1762   18.9806  -34.7103 H   0  0  0  0  0  0  0  0  0  0  0  0
   -5.8076   17.0726  -35.5519 H   0  0  0  0  0  0  0  0  0  0  0  0
   -3.3866   16.9158  -34.9690 H   0  0  0  0  0  0  0  0  0  0  0  0
   -2.3387   18.6495  -33.5134 H   0  0  0  0  0  0  0  0  0  0  0  0
   -0.6142   19.3018  -31.6087 H   0  0  0  0  0  0  0  0  0  0  0  0
    1.2348   18.2612  -32.9123 H   0  0  0  0  0  0  0  0  0  0  0  0
    3.1499   18.7622  -37.0553 H   0  0  0  0  0  0  0  0  0  0  0  0
    1.5174   18.0241  -37.1859 H   0  0  0  0  0  0  0  0  0  0  0  0
    1.6977   19.8114  -37.1859 H   0  0  0  0  0  0  0  0  0  0  0  0
    0.4024   20.9330  -36.2221 H   0  0  0  0  0  0  0  0  0  0  0  0
   -1.4514   21.9692  -34.9122 H   0  0  0  0  0  0  0  0  0  0  0  0
   -1.2230   22.7330  -31.3930 H   0  0  0  0  0  0  0  0  0  0  0  0
   -4.9110   24.8994  -28.1956 H   0  0  0  0  0  0  0  0  0  0  0  0
   -4.8528   23.7186  -26.8512 H   0  0  0  0  0  0  0  0  0  0  0  0
   -2.6349   25.5605  -27.8636 H   0  0  0  0  0  0  0  0  0  0  0  0
   -3.3810   25.4698  -26.2091 H   0  0  0  0  0  0  0  0  0  0  0  0
   -1.7337   26.5180  -25.9028 H   0  0  0  0  0  0  0  0  0  0  0  0
  1  2  1  0
  2  3  1  0
  3  4  1  0
  4  5  2  0
  5  6  1  0
  6  7  2  0
  6  8  1  0
  5  9  1  0
  9 10  2  0
  9 11  1  0
 11 12  2  0
 12 13  1  0
 13 14  1  0
 13 15  2  0
 15 16  1  0
 16 17  1  0
 17 18  1  0
 18 19  1  0
 19 20  1  0
 20 21  2  0
 20 22  1  0
 22 23  1  0
 23 24  2  0
 24 25  1  0
 25 26  2  0
 26 27  1  0
 27 28  2  0
 28 29  1  0
 29 30  2  0
 24 31  1  0
 31 32  1  0
 32 33  2  0
 33 34  1  0
 34 35  2  0
 35 36  1  0
 36 37  1  0
 35 38  1  0
 38 39  2  0
 31 40  1  0
 19 41  1  0
 41 42  1  0
 15 43  1  0
 43 44  2  0
 44  3  1  0
 44 11  1  0
 42 16  1  0
 40 22  2  0
 30 25  1  0
 39 32  1  0
  1 45  1  0
  1 46  1  0
  1 47  1  0
  2 48  1  0
  2 49  1  0
  4 50  1  0
 12 51  1  0
 17 52  1  0
 17 53  1  0
 18 54  1  0
 18 55  1  0
 23 56  1  0
 26 57  1  0
 27 58  1  0
 28 59  1  0
 29 60  1  0
 30 61  1  0
 33 62  1  0
 34 63  1  0
 37 64  1  0
 37 65  1  0
 37 66  1  0
 38 67  1  0
 39 68  1  0
 40 69  1  0
 41 70  1  0
 41 71  1  0
 42 72  1  0
 42 73  1  0
 43 74  1  0
M  CHG  2   8  -1  40   1
M  END
>  <UniqueID>  (43) 
39

>  <SMILES>  (43) 
CCn1cc(C(=O)[O-])c(=O)c2cc(F)c(N3CCN(C(=O)c4cc(-c5ccccc5)n(-c5ccc(OC)cc5)[nH+]4)CC3)cc21

>  <Energy>  (43) 
142.95837042602565

>  <Genealogy>  (43) 
CCn1cc(C(=O)[O-])c(=O)c2cc(F)c(N3CCN(C(=O)c4cc(-c5ccccc5)n(-c5ccc(OC)cc5)[nH+]4)CC3)cc21 (protonated)
CCn1cc(C(=O)[O-])c(=O)c2cc(F)c(N3CCN(C(=O)c4cc(-c5ccccc5)n(-c5ccc(OC)cc5)[nH+]4)CC3)cc21 (3D coordinates assigned)
CCn1cc(C(=O)[O-])c(=O)c2cc(F)c(N3CCN(C(=O)c4cc(-c5ccccc5)n(-c5ccc(OC)cc5)[nH+]4)CC3)cc21 (nonaromatic ring conformer: 142.95837042602565 kcal/mol)

>  <smiles>  (43) 
CCn1cc(C(=O)O)c(=O)c2cc(F)c(N3CCN(C(=O)c4cc(-c5ccccc5)n(-c5ccc(OC)cc5)n4)CC3)cc21

>  <score_type>  (43) 
oracle

>  <origin>  (43) 
adg

>  <m_score__min__energy>  (43) 
-7.7000000000000002

>  <m_primary>  (43) 
energy

$$$$
43:0
     RDKit          3D

 50 53  0  0  0  0  0  0  0  0999 V2000
   -8.9220   18.5430  -31.9910 C   0  0  0  0  0  0  0  0  0  0  0  0
   -8.6250   20.0120  -31.9450 C   0  0  0  0  0  0  0  0  0  0  0  0
   -9.6500   20.9320  -31.6720 C   0  0  0  0  0  0  0  0  0  0  0  0
   -9.3820   22.3020  -31.6750 C   0  0  0  0  0  0  0  0  0  0  0  0
   -8.0950   22.7670  -31.9540 C   0  0  0  0  0  0  0  0  0  0  0  0
   -7.0590   21.8560  -32.2290 C   0  0  0  0  0  0  0  0  0  0  0  0
   -5.7590   22.2810  -32.5420 O   0  0  0  0  0  0  0  0  0  0  0  0
   -4.9310   23.0440  -31.7040 C   0  0  0  0  0  0  0  0  0  0  0  0
   -5.3870   24.2460  -31.1360 C   0  0  0  0  0  0  0  0  0  0  0  0
   -4.5680   24.9750  -30.2710 C   0  0  0  0  0  0  0  0  0  0  0  0
   -3.2870   24.5160  -29.9520 C   0  0  0  0  0  0  0  0  0  0  0  0
   -2.4840   25.2990  -29.0570 N   0  0  0  0  0  0  0  0  0  0  0  0
   -1.0060   24.7870  -28.3070 S   0  0  0  0  0  0  0  0  0  0  0  0
   -1.3570   23.7420  -26.9090 C   0  0  0  0  0  0  0  0  0  0  0  0
   -0.2040   25.9830  -27.8780 O   0  0  0  0  0  0  0  0  0  0  0  0
   -0.2050   24.0010  -29.3060 O   0  0  0  0  0  0  0  0  0  0  0  0
   -2.8290   23.3100  -30.5090 C   0  0  0  0  0  0  0  0  0  0  0  0
   -3.6480   22.5670  -31.3770 C   0  0  0  0  0  0  0  0  0  0  0  0
   -3.1410   21.3070  -31.9690 C   0  0  0  0  0  0  0  0  0  0  0  0
   -3.9420   20.5460  -32.7820 N   0  0  0  0  0  0  0  0  0  0  0  0
   -3.5130   19.3940  -33.3370 N   0  0  0  0  0  0  0  0  0  0  0  0
   -4.4210   18.6190  -34.1900 C   0  0  0  0  0  0  0  0  0  0  0  0
   -2.2400   18.9320  -33.1030 C   0  0  0  0  0  0  0  0  0  0  0  0
   -1.8310   17.8500  -33.6090 O   0  0  0  0  0  0  0  0  0  0  0  0
   -1.4080   19.6870  -32.2860 C   0  0  0  0  0  0  0  0  0  0  0  0
   -0.1470   19.4140  -31.9110 N   0  0  0  0  0  0  0  0  0  0  0  0
    0.2190   20.4270  -31.0920 C   0  0  0  0  0  0  0  0  0  0  0  0
   -0.8180   21.3420  -30.9500 C   0  0  0  0  0  0  0  0  0  0  0  0
   -1.8460   20.8480  -31.7310 C   0  0  0  0  0  0  0  0  0  0  0  0
   -7.3370   20.4840  -32.2440 C   0  0  0  0  0  0  0  0  0  0  0  0
   -9.0009   18.1526  -30.9656 H   0  0  0  0  0  0  0  0  0  0  0  0
   -9.8718   18.3773  -32.5205 H   0  0  0  0  0  0  0  0  0  0  0  0
   -8.1111   18.0214  -32.5205 H   0  0  0  0  0  0  0  0  0  0  0  0
  -10.6667   20.5723  -31.4552 H   0  0  0  0  0  0  0  0  0  0  0  0
  -10.1878   23.0182  -31.4567 H   0  0  0  0  0  0  0  0  0  0  0  0
   -7.8910   23.8479  -31.9587 H   0  0  0  0  0  0  0  0  0  0  0  0
   -6.3955   24.6150  -31.3743 H   0  0  0  0  0  0  0  0  0  0  0  0
   -4.9338   25.9175  -29.8375 H   0  0  0  0  0  0  0  0  0  0  0  0
   -1.1700   24.2988  -25.9789 H   0  0  0  0  0  0  0  0  0  0  0  0
   -2.4103   23.4268  -26.9422 H   0  0  0  0  0  0  0  0  0  0  0  0
   -0.7075   22.8548  -26.9422 H   0  0  0  0  0  0  0  0  0  0  0  0
   -1.8210   22.9442  -30.2638 H   0  0  0  0  0  0  0  0  0  0  0  0
   -4.9100   20.8860  -32.9830 H   0  0  0  0  0  0  0  0  0  0  0  0
   -5.1065   18.0339  -33.5594 H   0  0  0  0  0  0  0  0  0  0  0  0
   -5.0017   19.3042  -34.8251 H   0  0  0  0  0  0  0  0  0  0  0  0
   -3.8355   17.9379  -34.8251 H   0  0  0  0  0  0  0  0  0  0  0  0
    0.4320   18.5890  -32.1810 H   0  0  0  0  0  0  0  0  0  0  0  0
    1.2017   20.5145  -30.6055 H   0  0  0  0  0  0  0  0  0  0  0  0
   -0.8200   22.2614  -30.3460 H   0  0  0  0  0  0  0  0  0  0  0  0
   -6.5388   19.7690  -32.4924 H   0  0  0  0  0  0  0  0  0  0  0  0
  1  2  1  0
  2  3  2  0
  3  4  1  0
  4  5  2  0
  5  6  1  0
  6  7  1  0
  7  8  1  0
  8  9  2  0
  9 10  1  0
 10 11  2  0
 11 12  1  0
 12 13  1  0
 13 14  1  0
 13 15  2  0
 13 16  2  0
 11 17  1  0
 17 18  2  0
 18 19  1  0
 19 20  2  0
 20 21  1  0
 21 22  1  0
 21 23  1  0
 23 24  2  0
 23 25  1  0
 25 26  1  0
 26 27  1  0
 27 28  2  0
 28 29  1  0
  6 30  2  0
 30  2  1  0
 18  8  1  0
 29 19  1  0
 29 25  2  0
  1 31  1  0
  1 32  1  0
  1 33  1  0
  3 34  1  0
  4 35  1  0
  5 36  1  0
  9 37  1  0
 10 38  1  0
 14 39  1  0
 14 40  1  0
 14 41  1  0
 17 42  1  0
 20 43  1  0
 22 44  1  0
 22 45  1  0
 22 46  1  0
 26 47  1  0
 27 48  1  0
 28 49  1  0
 30 50  1  0
M  CHG  2  12  -1  20   1
M  END
>  <UniqueID>  (44) 
40

>  <SMILES>  (44) 
Cc1cccc(Oc2ccc([N-]S(C)(=O)=O)cc2-c2[nH+]n(C)c(=O)c3[nH]ccc23)c1

>  <Energy>  (44) 
99.34498404798289

>  <Genealogy>  (44) 
Cc1cccc(Oc2ccc([N-]S(C)(=O)=O)cc2-c2[nH+]n(C)c(=O)c3[nH]ccc23)c1 (protonated)
Cc1cccc(Oc2ccc([N-]S(C)(=O)=O)cc2-c2[nH+]n(C)c(=O)c3[nH]ccc23)c1 (3D coordinates assigned)
Cc1cccc(Oc2ccc([N-]S(C)(=O)=O)cc2-c2[nH+]n(C)c(=O)c3[nH]ccc23)c1 (optimized conformer: 99.34498404798289 kcal/mol)

>  <smiles>  (44) 
Cc1cccc(Oc2ccc(NS(C)(=O)=O)cc2-c2nn(C)c(=O)c3[nH]ccc23)c1

>  <score_type>  (44) 
oracle

>  <origin>  (44) 
adg

>  <m_score__min__energy>  (44) 
-10.380000000000001

>  <m_primary>  (44) 
energy

$$$$
44:0
     RDKit          3D

 65 68  0  0  0  0  0  0  0  0999 V2000
   -2.7700   13.8280  -33.3510 C   0  0  0  0  0  0  0  0  0  0  0  0
   -4.0430   13.5230  -32.7930 O   0  0  0  0  0  0  0  0  0  0  0  0
   -5.1900   13.2190  -33.5430 C   0  0  0  0  0  0  0  0  0  0  0  0
   -5.4960   11.8980  -33.9300 C   0  0  0  0  0  0  0  0  0  0  0  0
   -6.6720   11.6230  -34.6370 C   0  0  0  0  0  0  0  0  0  0  0  0
   -7.5460   12.6560  -34.9700 C   0  0  0  0  0  0  0  0  0  0  0  0
   -7.2440   13.9710  -34.6150 C   0  0  0  0  0  0  0  0  0  0  0  0
   -6.0690   14.2620  -33.9010 C   0  0  0  0  0  0  0  0  0  0  0  0
   -5.7860   15.6190  -33.5210 N   0  0  0  0  0  0  0  0  0  0  0  0
   -6.2190   16.7240  -34.3850 C   0  0  0  0  0  0  0  0  0  0  0  0
   -5.7370   18.0790  -33.8330 C   0  0  0  0  0  0  0  0  0  0  0  0
   -6.0540   18.2780  -32.3890 N   0  0  0  0  0  0  0  0  0  0  0  0
   -7.2270   19.1610  -32.1370 C   0  0  0  0  0  0  0  0  0  0  0  0
   -7.0250   20.6750  -32.4000 C   0  0  0  0  0  0  0  0  0  0  0  0
   -5.6150   21.0600  -32.5650 N   0  0  0  0  0  0  0  0  0  0  0  0
   -4.8080   20.8350  -31.3500 C   0  0  1  0  0  0  0  0  0  0  0  0
   -3.7230   19.9720  -31.5930 O   0  0  0  0  0  0  0  0  0  0  0  0
   -4.3310   22.1570  -30.8120 C   0  0  0  0  0  0  0  0  0  0  0  0
   -4.4440   23.3950  -31.4260 C   0  0  0  0  0  0  0  0  0  0  0  0
   -3.9660   24.3070  -30.5120 C   0  0  0  0  0  0  0  0  0  0  0  0
   -3.8460   25.6720  -30.7490 O   0  0  0  0  0  0  0  0  0  0  0  0
   -3.6010   23.6970  -29.3650 N   0  0  0  0  0  0  0  0  0  0  0  0
   -3.0420   24.3100  -28.1910 C   0  0  0  0  0  0  0  0  0  0  0  0
   -3.8840   24.6360  -27.1130 C   0  0  0  0  0  0  0  0  0  0  0  0
   -3.3590   25.2000  -25.9480 C   0  0  0  0  0  0  0  0  0  0  0  0
   -1.9900   25.4500  -25.8510 C   0  0  0  0  0  0  0  0  0  0  0  0
   -1.1420   25.1500  -26.9210 C   0  0  0  0  0  0  0  0  0  0  0  0
   -1.6600   24.5850  -28.1050 C   0  0  0  0  0  0  0  0  0  0  0  0
   -0.8400   24.3080  -29.2110 O   0  0  0  0  0  0  0  0  0  0  0  0
   -0.5010   23.0000  -29.6610 C   0  0  0  0  0  0  0  0  0  0  0  0
   -3.8140   22.3770  -29.5460 C   0  0  0  0  0  0  0  0  0  0  0  0
   -6.0870   17.0360  -31.5690 C   0  0  0  0  0  0  0  0  0  0  0  0
   -5.2550   15.9140  -32.1880 C   0  0  0  0  0  0  0  0  0  0  0  0
   -2.0465   14.0013  -32.5408 H   0  0  0  0  0  0  0  0  0  0  0  0
   -2.4305   12.9858  -33.9718 H   0  0  0  0  0  0  0  0  0  0  0  0
   -2.8490   14.7326  -33.9718 H   0  0  0  0  0  0  0  0  0  0  0  0
   -4.8068   11.0795  -33.6749 H   0  0  0  0  0  0  0  0  0  0  0  0
   -6.9069   10.5892  -34.9305 H   0  0  0  0  0  0  0  0  0  0  0  0
   -8.4760   12.4341  -35.5139 H   0  0  0  0  0  0  0  0  0  0  0  0
   -7.9293   14.7845  -34.8955 H   0  0  0  0  0  0  0  0  0  0  0  0
   -5.8022   16.5773  -35.3924 H   0  0  0  0  0  0  0  0  0  0  0  0
   -7.3184   16.7312  -34.4197 H   0  0  0  0  0  0  0  0  0  0  0  0
   -4.6463   18.1398  -33.9620 H   0  0  0  0  0  0  0  0  0  0  0  0
   -6.2667   18.8641  -34.3925 H   0  0  0  0  0  0  0  0  0  0  0  0
   -5.2390   18.8200  -32.0110 H   0  0  0  0  0  0  0  0  0  0  0  0
   -8.0486   18.8168  -32.7824 H   0  0  0  0  0  0  0  0  0  0  0  0
   -7.4261   19.0780  -31.0584 H   0  0  0  0  0  0  0  0  0  0  0  0
   -7.5689   20.9444  -33.3174 H   0  0  0  0  0  0  0  0  0  0  0  0
   -7.4047   21.2098  -31.5169 H   0  0  0  0  0  0  0  0  0  0  0  0
   -5.2130   20.4840  -33.3440 H   0  0  0  0  0  0  0  0  0  0  0  0
   -5.4443   20.3437  -30.5992 H   0  0  0  0  0  0  0  0  0  0  0  0
   -2.9510   20.2800  -31.0490 H   0  0  0  0  0  0  0  0  0  0  0  0
   -4.8340   23.6047  -32.4329 H   0  0  0  0  0  0  0  0  0  0  0  0
   -4.9648   24.4453  -27.1878 H   0  0  0  0  0  0  0  0  0  0  0  0
   -4.0245   25.4468  -25.1077 H   0  0  0  0  0  0  0  0  0  0  0  0
   -1.5763   25.8848  -24.9291 H   0  0  0  0  0  0  0  0  0  0  0  0
   -0.0645   25.3557  -26.8391 H   0  0  0  0  0  0  0  0  0  0  0  0
   -0.3315   22.3460  -28.7929 H   0  0  0  0  0  0  0  0  0  0  0  0
   -1.3242   22.5965  -30.2688 H   0  0  0  0  0  0  0  0  0  0  0  0
    0.4146   23.0472  -30.2688 H   0  0  0  0  0  0  0  0  0  0  0  0
   -3.6082   21.5942  -28.8011 H   0  0  0  0  0  0  0  0  0  0  0  0
   -5.6894   17.2613  -30.5684 H   0  0  0  0  0  0  0  0  0  0  0  0
   -7.1309   16.6932  -31.5168 H   0  0  0  0  0  0  0  0  0  0  0  0
   -4.2053   16.2327  -32.2695 H   0  0  0  0  0  0  0  0  0  0  0  0
   -5.3065   15.0154  -31.5557 H   0  0  0  0  0  0  0  0  0  0  0  0
  1  2  1  0
  2  3  1  0
  3  4  2  0
  4  5  1  0
  5  6  2  0
  6  7  1  0
  7  8  2  0
  8  9  1  0
  9 10  1  0
 10 11  1  0
 11 12  1  0
 12 13  1  0
 13 14  1  0
 14 15  1  0
 15 16  1  0
 16 17  1  0
 16 18  1  0
 18 19  1  0
 19 20  2  0
 20 21  1  0
 20 22  1  0
 22 23  1  0
 23 24  2  0
 24 25  1  0
 25 26  2  0
 26 27  1  0
 27 28  2  0
 28 29  1  0
 29 30  1  0
 22 31  1  0
 12 32  1  0
 32 33  1  0
  8  3  1  0
 33  9  1  0
 31 18  2  0
 28 23  1  0
  1 34  1  0
  1 35  1  0
  1 36  1  0
  4 37  1  0
  5 38  1  0
  6 39  1  0
  7 40  1  0
 10 41  1  0
 10 42  1  0
 11 43  1  0
 11 44  1  0
 12 45  1  0
 13 46  1  0
 13 47  1  0
 14 48  1  0
 14 49  1  0
 15 50  1  0
 16 51  1  1
 17 52  1  0
 19 53  1  0
 24 54  1  0
 25 55  1  0
 26 56  1  0
 27 57  1  0
 30 58  1  0
 30 59  1  0
 30 60  1  0
 31 61  1  0
 32 62  1  0
 32 63  1  0
 33 64  1  0
 33 65  1  0
M  CHG  2  12   1  21  -1
M  END
>  <UniqueID>  (45) 
41

>  <SMILES>  (45) 
COc1ccccc1N1CC[NH+](CCN[C@@H](O)c2cc([O-])n(-c3ccccc3OC)c2)CC1

>  <Energy>  (45) 
115.49665067865834

>  <Genealogy>  (45) 
COc1ccccc1N1CC[NH+](CCNC(O)c2cc([O-])n(-c3ccccc3OC)c2)CC1 (protonated)
COc1ccccc1N1CC[NH+](CCN[C@@H](O)c2cc([O-])n(-c3ccccc3OC)c2)CC1 (chirality)
COc1ccccc1N1CC[NH+](CCN[C@@H](O)c2cc([O-])n(-c3ccccc3OC)c2)CC1 (3D coordinates assigned)
COc1ccccc1N1CC[NH+](CCN[C@@H](O)c2cc([O-])n(-c3ccccc3OC)c2)CC1 (nonaromatic ring conformer: 115.49665067865834 kcal/mol)

>  <smiles>  (45) 
COc1ccccc1N1CCN(CCNC(O)c2cc(O)n(-c3ccccc3OC)c2)CC1

>  <score_type>  (45) 
oracle

>  <origin>  (45) 
adg

>  <m_score__min__energy>  (45) 
-10.33

>  <m_primary>  (45) 
energy

$$$$
45:0
     RDKit          3D

 34 35  0  0  0  0  0  0  0  0999 V2000
   -5.1380   22.7060  -29.1260 C   0  0  0  0  0  0  0  0  0  0  0  0
   -5.6490   24.0380  -29.4980 N   0  0  2  0  0  0  0  0  0  0  0  0
   -7.0100   23.9830  -30.0810 C   0  0  0  0  0  0  0  0  0  0  0  0
   -7.2770   22.7350  -30.8980 C   0  0  0  0  0  0  0  0  0  0  0  0
   -6.4340   22.3890  -31.9680 C   0  0  0  0  0  0  0  0  0  0  0  0
   -6.6890   21.2420  -32.7250 C   0  0  0  0  0  0  0  0  0  0  0  0
   -7.7840   20.4290  -32.4190 C   0  0  0  0  0  0  0  0  0  0  0  0
   -8.6230   20.7600  -31.3510 C   0  0  0  0  0  0  0  0  0  0  0  0
   -8.3700   21.9060  -30.5910 C   0  0  0  0  0  0  0  0  0  0  0  0
   -4.7320   24.7500  -30.3610 C   0  0  0  0  0  0  0  0  0  0  0  0
   -4.9910   24.9020  -31.5870 O   0  0  0  0  0  0  0  0  0  0  0  0
   -3.5260   25.2930  -29.8050 N   0  0  0  0  0  0  0  0  0  0  0  0
   -2.3860   24.5530  -29.3420 C   0  0  0  0  0  0  0  0  0  0  0  0
   -1.5850   25.0020  -28.2740 C   0  0  0  0  0  0  0  0  0  0  0  0
   -0.5000   24.2360  -27.8390 C   0  0  0  0  0  0  0  0  0  0  0  0
   -0.2120   23.0150  -28.4530 C   0  0  0  0  0  0  0  0  0  0  0  0
   -1.0160   22.5520  -29.4970 C   0  0  0  0  0  0  0  0  0  0  0  0
   -0.7430   21.3610  -30.0860 F   0  0  0  0  0  0  0  0  0  0  0  0
   -2.1040   23.3150  -29.9340 C   0  0  0  0  0  0  0  0  0  0  0  0
   -5.1046   22.6191  -28.0299 H   0  0  0  0  0  0  0  0  0  0  0  0
   -5.8026   21.9309  -29.5353 H   0  0  0  0  0  0  0  0  0  0  0  0
   -4.1255   22.5743  -29.5353 H   0  0  0  0  0  0  0  0  0  0  0  0
   -5.7230   24.5840  -28.6070 H   0  0  0  0  0  0  0  0  0  0  0  0
   -7.7407   24.0224  -29.2597 H   0  0  0  0  0  0  0  0  0  0  0  0
   -7.0991   24.8389  -30.7662 H   0  0  0  0  0  0  0  0  0  0  0  0
   -5.5693   23.0240  -32.2109 H   0  0  0  0  0  0  0  0  0  0  0  0
   -6.0268   20.9787  -33.5630 H   0  0  0  0  0  0  0  0  0  0  0  0
   -7.9855   19.5290  -33.0184 H   0  0  0  0  0  0  0  0  0  0  0  0
   -9.4829   20.1184  -31.1083 H   0  0  0  0  0  0  0  0  0  0  0  0
   -9.0298   22.1603  -29.7483 H   0  0  0  0  0  0  0  0  0  0  0  0
   -1.8141   25.9582  -27.7809 H   0  0  0  0  0  0  0  0  0  0  0  0
    0.1287   24.5956  -27.0111 H   0  0  0  0  0  0  0  0  0  0  0  0
    0.6478   22.4182  -28.1144 H   0  0  0  0  0  0  0  0  0  0  0  0
   -2.7423   22.9405  -30.7478 H   0  0  0  0  0  0  0  0  0  0  0  0
  1  2  1  0
  2  3  1  0
  3  4  1  0
  4  5  2  0
  5  6  1  0
  6  7  2  0
  7  8  1  0
  8  9  2  0
  2 10  1  0
 10 11  2  0
 10 12  1  0
 12 13  1  0
 13 14  2  0
 14 15  1  0
 15 16  2  0
 16 17  1  0
 17 18  1  0
 17 19  2  0
  9  4  1  0
 19 13  1  0
  1 20  1  0
  1 21  1  0
  1 22  1  0
  2 23  1  1
  3 24  1  0
  3 25  1  0
  5 26  1  0
  6 27  1  0
  7 28  1  0
  8 29  1  0
  9 30  1  0
 14 31  1  0
 15 32  1  0
 16 33  1  0
 19 34  1  0
M  CHG  2   2   1  12  -1
M  END
>  <UniqueID>  (46) 
42

>  <SMILES>  (46) 
C[N@H+](Cc1ccccc1)C(=O)[N-]c1cccc(F)c1

>  <Energy>  (46) 
41.232929763184934

>  <Genealogy>  (46) 
C[NH+](Cc1ccccc1)C(=O)[N-]c1cccc(F)c1 (protonated)
C[N@H+](Cc1ccccc1)C(=O)[N-]c1cccc(F)c1 (chirality)
C[N@H+](Cc1ccccc1)C(=O)[N-]c1cccc(F)c1 (3D coordinates assigned)
C[N@H+](Cc1ccccc1)C(=O)[N-]c1cccc(F)c1 (optimized conformer: 41.232929763184934 kcal/mol)

>  <smiles>  (46) 
CN(Cc1ccccc1)C(=O)Nc1cccc(F)c1

>  <score_type>  (46) 
oracle

>  <origin>  (46) 
adg

>  <m_score__min__energy>  (46) 
-7.4400000000000004

>  <m_primary>  (46) 
energy

$$$$
46:0
     RDKit          3D

 53 56  0  0  0  0  0  0  0  0999 V2000
   -0.1400   22.3700  -23.7510 C   0  0  0  0  0  0  0  0  0  0  0  0
    0.4230   23.5100  -24.6110 C   0  0  0  0  0  0  0  0  0  0  0  0
   -0.2660   24.8050  -24.3750 N   0  0  0  0  0  0  0  0  0  0  0  0
    0.6790   25.9400  -24.5610 C   0  0  0  0  0  0  0  0  0  0  0  0
    0.2960   27.1710  -23.7260 C   0  0  0  0  0  0  0  0  0  0  0  0
   -1.5330   24.9710  -25.1520 C   0  0  0  0  0  0  0  0  0  0  0  0
   -1.5910   24.2850  -26.5350 C   0  0  0  0  0  0  0  0  0  0  0  0
   -2.9340   24.0180  -26.9220 O   0  0  0  0  0  0  0  0  0  0  0  0
   -3.3520   23.7770  -28.2380 C   0  0  0  0  0  0  0  0  0  0  0  0
   -2.4650   23.3550  -29.2490 C   0  0  0  0  0  0  0  0  0  0  0  0
   -2.9290   23.1200  -30.5460 C   0  0  0  0  0  0  0  0  0  0  0  0
   -4.2800   23.3120  -30.8540 C   0  0  0  0  0  0  0  0  0  0  0  0
   -5.1840   23.7260  -29.8400 C   0  0  0  0  0  0  0  0  0  0  0  0
   -4.7050   23.9650  -28.5450 C   0  0  0  0  0  0  0  0  0  0  0  0
   -6.6550   23.9470  -30.1740 C   0  0  0  0  0  0  0  0  0  0  0  0
   -6.9530   23.4010  -31.5100 N   0  0  0  0  0  0  0  0  0  0  0  0
   -5.9700   23.8040  -32.5110 C   0  0  0  0  0  0  0  0  0  0  0  0
   -4.7850   23.0230  -32.1740 N   0  0  0  0  0  0  0  0  0  0  0  0
   -4.9330   21.5980  -32.5180 C   0  0  0  0  0  0  0  0  0  0  0  0
   -6.2770   21.0790  -32.0190 C   0  0  0  0  0  0  0  0  0  0  0  0
   -6.5620   19.7070  -32.0380 C   0  0  0  0  0  0  0  0  0  0  0  0
   -7.8040   19.2420  -31.5930 C   0  0  0  0  0  0  0  0  0  0  0  0
   -8.7700   20.1430  -31.1310 C   0  0  0  0  0  0  0  0  0  0  0  0
   -8.5040   21.5150  -31.1150 C   0  0  0  0  0  0  0  0  0  0  0  0
   -7.2680   21.9920  -31.5670 C   0  0  0  0  0  0  0  0  0  0  0  0
   -0.0172   22.6187  -22.6865 H   0  0  0  0  0  0  0  0  0  0  0  0
   -1.2084   22.2349  -23.9751 H   0  0  0  0  0  0  0  0  0  0  0  0
    0.4022   21.4395  -23.9751 H   0  0  0  0  0  0  0  0  0  0  0  0
    1.4908   23.6324  -24.3767 H   0  0  0  0  0  0  0  0  0  0  0  0
    0.2645   23.2384  -25.6651 H   0  0  0  0  0  0  0  0  0  0  0  0
   -0.5400   24.8020  -23.3620 H   0  0  0  0  0  0  0  0  0  0  0  0
    1.6861   25.6122  -24.2637 H   0  0  0  0  0  0  0  0  0  0  0  0
    0.6436   26.2324  -25.6208 H   0  0  0  0  0  0  0  0  0  0  0  0
    0.3721   26.9265  -22.6562 H   0  0  0  0  0  0  0  0  0  0  0  0
    0.9784   28.0009  -23.9619 H   0  0  0  0  0  0  0  0  0  0  0  0
   -0.7368   27.4672  -23.9619 H   0  0  0  0  0  0  0  0  0  0  0  0
   -2.3537   24.5642  -24.5430 H   0  0  0  0  0  0  0  0  0  0  0  0
   -1.6070   26.0487  -25.3594 H   0  0  0  0  0  0  0  0  0  0  0  0
   -1.1269   24.9451  -27.2825 H   0  0  0  0  0  0  0  0  0  0  0  0
   -1.0504   23.3290  -26.4721 H   0  0  0  0  0  0  0  0  0  0  0  0
   -1.4000   23.2096  -29.0153 H   0  0  0  0  0  0  0  0  0  0  0  0
   -2.2306   22.7834  -31.3263 H   0  0  0  0  0  0  0  0  0  0  0  0
   -5.3990   24.3038  -27.7617 H   0  0  0  0  0  0  0  0  0  0  0  0
   -7.2796   23.4388  -29.4246 H   0  0  0  0  0  0  0  0  0  0  0  0
   -6.8700   25.0258  -30.1672 H   0  0  0  0  0  0  0  0  0  0  0  0
   -6.3224   23.5628  -33.5247 H   0  0  0  0  0  0  0  0  0  0  0  0
   -5.7794   24.8873  -32.5060 H   0  0  0  0  0  0  0  0  0  0  0  0
   -4.8792   21.4793  -33.6103 H   0  0  0  0  0  0  0  0  0  0  0  0
   -4.1244   21.0250  -32.0407 H   0  0  0  0  0  0  0  0  0  0  0  0
   -5.8078   18.9945  -32.4035 H   0  0  0  0  0  0  0  0  0  0  0  0
   -8.0222   18.1639  -31.6063 H   0  0  0  0  0  0  0  0  0  0  0  0
   -9.7430   19.7697  -30.7789 H   0  0  0  0  0  0  0  0  0  0  0  0
   -9.2650   22.2192  -30.7476 H   0  0  0  0  0  0  0  0  0  0  0  0
  1  2  1  0
  2  3  1  0
  3  4  1  0
  4  5  1  0
  3  6  1  0
  6  7  1  0
  7  8  1  0
  8  9  1  0
  9 10  2  0
 10 11  1  0
 11 12  2  0
 12 13  1  0
 13 14  2  0
 13 15  1  0
 15 16  1  0
 16 17  1  0
 17 18  1  0
 18 19  1  0
 19 20  1  0
 20 21  2  0
 21 22  1  0
 22 23  2  0
 23 24  1  0
 24 25  2  0
 14  9  1  0
 25 16  1  0
 18 12  1  0
 25 20  1  0
  1 26  1  0
  1 27  1  0
  1 28  1  0
  2 29  1  0
  2 30  1  0
  3 31  1  0
  4 32  1  0
  4 33  1  0
  5 34  1  0
  5 35  1  0
  5 36  1  0
  6 37  1  0
  6 38  1  0
  7 39  1  0
  7 40  1  0
 10 41  1  0
 11 42  1  0
 14 43  1  0
 15 44  1  0
 15 45  1  0
 17 46  1  0
 17 47  1  0
 19 48  1  0
 19 49  1  0
 21 50  1  0
 22 51  1  0
 23 52  1  0
 24 53  1  0
M  CHG  1   3   1
M  END
>  <UniqueID>  (47) 
43

>  <SMILES>  (47) 
CC[NH+](CC)CCOc1ccc2c(c1)CN1CN2Cc2ccccc21

>  <Energy>  (47) 
92.06342544825299

>  <Genealogy>  (47) 
CC[NH+](CC)CCOc1ccc2c(c1)CN1CN2Cc2ccccc21 (protonated)
CC[NH+](CC)CCOc1ccc2c(c1)CN1CN2Cc2ccccc21 (3D coordinates assigned)
CC[NH+](CC)CCOc1ccc2c(c1)CN1CN2Cc2ccccc21 (nonaromatic ring conformer: 92.06342544825299 kcal/mol)

>  <smiles>  (47) 
CCN(CC)CCOc1ccc2c(c1)CN1CN2Cc2ccccc21

>  <score_type>  (47) 
oracle

>  <origin>  (47) 
adg

>  <m_score__min__energy>  (47) 
-7.1799999999999997

>  <m_primary>  (47) 
energy

$$$$
