0:0
     RDKit          3D

 47 49  0  0  0  0  0  0  0  0999 V2000
   -9.1060   18.6550  -31.9620 C   0  0  0  0  0  0  0  0  0  0  0  0
   -8.9860   20.0780  -32.5250 C   0  0  0  0  0  0  0  0  0  0  0  0
   -7.5920   20.5710  -32.6060 N   0  0  0  0  0  0  0  0  0  0  0  0
   -7.4730   22.0210  -32.3180 C   0  0  0  0  0  0  0  0  0  0  0  0
   -8.3560   22.3840  -31.1200 C   0  0  0  0  0  0  0  0  0  0  0  0
   -7.5230   22.5840  -29.8510 C   0  0  0  0  0  0  0  0  0  0  0  0
   -6.3410   23.4710  -30.1360 C   0  0  0  0  0  0  0  0  0  0  0  0
   -5.0440   22.9360  -30.1820 C   0  0  0  0  0  0  0  0  0  0  0  0
   -3.9580   23.7860  -30.4080 C   0  0  0  0  0  0  0  0  0  0  0  0
   -4.1570   25.1200  -30.5690 N   0  0  0  0  0  0  0  0  0  0  0  0
   -5.4010   25.6670  -30.5150 C   0  0  0  0  0  0  0  0  0  0  0  0
   -6.5160   24.8540  -30.2920 C   0  0  0  0  0  0  0  0  0  0  0  0
   -6.6530   19.7400  -31.8170 C   0  0  0  0  0  0  0  0  0  0  0  0
   -5.3130   19.6370  -32.5130 C   0  0  0  0  0  0  0  0  0  0  0  0
   -4.4270   20.7270  -32.4260 C   0  0  0  0  0  0  0  0  0  0  0  0
   -3.2040   20.7080  -33.0970 C   0  0  0  0  0  0  0  0  0  0  0  0
   -2.8410   19.6060  -33.8670 C   0  0  0  0  0  0  0  0  0  0  0  0
   -3.7030   18.5060  -33.9760 C   0  0  0  0  0  0  0  0  0  0  0  0
   -3.3400   17.4050  -34.7600 C   0  0  0  0  0  0  0  0  0  0  0  0
   -4.2120   16.3230  -34.8710 C   0  0  0  0  0  0  0  0  0  0  0  0
   -5.4060   16.3360  -34.2230 N   0  0  0  0  0  0  0  0  0  0  0  0
   -5.7910   17.3890  -33.4520 C   0  0  0  0  0  0  0  0  0  0  0  0
   -4.9500   18.5110  -33.2990 C   0  0  0  0  0  0  0  0  0  0  0  0
   -9.1027   18.6941  -30.8627 H   0  0  0  0  0  0  0  0  0  0  0  0
  -10.0456   18.2010  -32.3099 H   0  0  0  0  0  0  0  0  0  0  0  0
   -8.2557   18.0501  -32.3099 H   0  0  0  0  0  0  0  0  0  0  0  0
   -9.4173   20.0886  -33.5368 H   0  0  0  0  0  0  0  0  0  0  0  0
   -9.5225   20.7437  -31.8328 H   0  0  0  0  0  0  0  0  0  0  0  0
   -6.4252   22.2630  -32.0865 H   0  0  0  0  0  0  0  0  0  0  0  0
   -7.7991   22.5950  -33.1979 H   0  0  0  0  0  0  0  0  0  0  0  0
   -8.8968   23.3155  -31.3434 H   0  0  0  0  0  0  0  0  0  0  0  0
   -9.0590   21.5562  -30.9452 H   0  0  0  0  0  0  0  0  0  0  0  0
   -8.1487   23.0511  -29.0762 H   0  0  0  0  0  0  0  0  0  0  0  0
   -7.1602   21.6054  -29.5034 H   0  0  0  0  0  0  0  0  0  0  0  0
   -4.8838   21.8569  -30.0413 H   0  0  0  0  0  0  0  0  0  0  0  0
   -2.9393   23.3737  -30.4556 H   0  0  0  0  0  0  0  0  0  0  0  0
   -5.5300   26.7514  -30.6471 H   0  0  0  0  0  0  0  0  0  0  0  0
   -7.5223   25.2951  -30.2393 H   0  0  0  0  0  0  0  0  0  0  0  0
   -6.5110   20.1974  -30.8267 H   0  0  0  0  0  0  0  0  0  0  0  0
   -7.0761   18.7298  -31.7145 H   0  0  0  0  0  0  0  0  0  0  0  0
   -4.7020   21.6042  -31.8219 H   0  0  0  0  0  0  0  0  0  0  0  0
   -2.5229   21.5681  -33.0174 H   0  0  0  0  0  0  0  0  0  0  0  0
   -1.8742   19.5987  -34.3917 H   0  0  0  0  0  0  0  0  0  0  0  0
   -2.3734   17.3935  -35.2849 H   0  0  0  0  0  0  0  0  0  0  0  0
   -3.9321   15.4549  -35.4859 H   0  0  0  0  0  0  0  0  0  0  0  0
   -6.0450   15.5160  -34.3200 H   0  0  0  0  0  0  0  0  0  0  0  0
   -6.7663   17.3651  -32.9438 H   0  0  0  0  0  0  0  0  0  0  0  0
  1  2  1  0
  2  3  1  0
  3  4  1  0
  4  5  1  0
  5  6  1  0
  6  7  1  0
  7  8  2  0
  8  9  1  0
  9 10  2  0
 10 11  1  0
 11 12  2  0
  3 13  1  0
 13 14  1  0
 14 15  2  0
 15 16  1  0
 16 17  2  0
 17 18  1  0
 18 19  2  0
 19 20  1  0
 20 21  2  0
 21 22  1  0
 22 23  2  0
 12  7  1  0
 23 14  1  0
 23 18  1  0
  1 24  1  0
  1 25  1  0
  1 26  1  0
  2 27  1  0
  2 28  1  0
  4 29  1  0
  4 30  1  0
  5 31  1  0
  5 32  1  0
  6 33  1  0
  6 34  1  0
  8 35  1  0
  9 36  1  0
 11 37  1  0
 12 38  1  0
 13 39  1  0
 13 40  1  0
 15 41  1  0
 16 42  1  0
 17 43  1  0
 19 44  1  0
 20 45  1  0
 21 46  1  0
 22 47  1  0
M  CHG  1  21   1
M  END
>  <UniqueID>  (1) 
1

>  <SMILES>  (1) 
CCN(CCCc1ccncc1)Cc1cccc2cc[nH+]cc12

>  <Energy>  (1) 
51.88236020538306

>  <Genealogy>  (1) 
CCN(CCCc1ccncc1)Cc1cccc2cc[nH+]cc12 (protonated)
CCN(CCCc1ccncc1)Cc1cccc2cc[nH+]cc12 (3D coordinates assigned)
CCN(CCCc1ccncc1)Cc1cccc2cc[nH+]cc12 (optimized conformer: 51.88236020538306 kcal/mol)

>  <smiles>  (1) 
CCN(CCCc1ccncc1)Cc1cccc2ccncc12

>  <score_type>  (1) 
oracle

>  <origin>  (1) 
adg

>  <m_score__min__energy>  (1) 
-7.7800000000000002

>  <m_primary>  (1) 
energy

$$$$
1:0
     RDKit          3D

 45 47  0  0  0  0  0  0  0  0999 V2000
   -5.2240   17.8010  -34.9390 C   0  0  0  0  0  0  0  0  0  0  0  0
   -6.4460   17.2380  -34.2150 C   0  0  0  0  0  0  0  0  0  0  0  0
   -7.1140   18.2930  -33.4210 N   0  0  0  0  0  0  0  0  0  0  0  0
   -7.4120   17.8400  -32.0390 C   0  0  0  0  0  0  0  0  0  0  0  0
   -6.1220   17.4170  -31.3490 C   0  0  0  0  0  0  0  0  0  0  0  0
   -6.3180   19.5430  -33.4400 C   0  0  0  0  0  0  0  0  0  0  0  0
   -6.8390   20.5490  -32.4180 C   0  0  0  0  0  0  0  0  0  0  0  0
   -8.2430   20.7820  -32.2920 C   0  0  0  0  0  0  0  0  0  0  0  0
   -9.2140   20.1520  -33.0780 O   0  0  0  0  0  0  0  0  0  0  0  0
   -8.7200   21.6880  -31.3450 C   0  0  0  0  0  0  0  0  0  0  0  0
   -7.8520   22.3920  -30.5270 C   0  0  0  0  0  0  0  0  0  0  0  0
   -6.4790   22.2080  -30.6310 C   0  0  0  0  0  0  0  0  0  0  0  0
   -5.6910   22.9180  -29.8330 O   0  0  0  0  0  0  0  0  0  0  0  0
   -4.3660   22.8340  -29.8440 C   0  0  0  0  0  0  0  0  0  0  0  0
   -3.5880   23.6810  -28.9040 C   0  0  0  0  0  0  0  0  0  0  0  0
   -4.1360   24.0070  -27.6500 C   0  0  0  0  0  0  0  0  0  0  0  0
   -3.4270   24.8100  -26.7510 C   0  0  0  0  0  0  0  0  0  0  0  0
   -2.1680   25.3040  -27.0960 C   0  0  0  0  0  0  0  0  0  0  0  0
   -1.6170   25.0010  -28.3430 C   0  0  0  0  0  0  0  0  0  0  0  0
   -2.3220   24.1970  -29.2460 C   0  0  0  0  0  0  0  0  0  0  0  0
   -3.7450   21.9430  -30.7260 C   0  0  0  0  0  0  0  0  0  0  0  0
   -4.5210   21.1700  -31.5880 C   0  0  0  0  0  0  0  0  0  0  0  0
   -3.9210   20.3810  -32.3620 O   0  0  0  0  0  0  0  0  0  0  0  0
   -5.9400   21.2860  -31.5690 C   0  0  0  0  0  0  0  0  0  0  0  0
   -4.4844   18.1417  -34.1995 H   0  0  0  0  0  0  0  0  0  0  0  0
   -4.7781   17.0176  -35.5694 H   0  0  0  0  0  0  0  0  0  0  0  0
   -5.5297   18.6490  -35.5694 H   0  0  0  0  0  0  0  0  0  0  0  0
   -7.1545   16.8410  -34.9569 H   0  0  0  0  0  0  0  0  0  0  0  0
   -6.1176   16.4377  -33.5355 H   0  0  0  0  0  0  0  0  0  0  0  0
   -7.8749   18.6638  -31.4759 H   0  0  0  0  0  0  0  0  0  0  0  0
   -8.1028   16.9848  -32.0766 H   0  0  0  0  0  0  0  0  0  0  0  0
   -6.2579   17.4616  -30.2583 H   0  0  0  0  0  0  0  0  0  0  0  0
   -5.8680   16.3885  -31.6451 H   0  0  0  0  0  0  0  0  0  0  0  0
   -5.3083   18.0954  -31.6451 H   0  0  0  0  0  0  0  0  0  0  0  0
   -5.2703   19.3040  -33.2052 H   0  0  0  0  0  0  0  0  0  0  0  0
   -6.4006   19.9914  -34.4411 H   0  0  0  0  0  0  0  0  0  0  0  0
   -9.0690   19.3430  -33.6620 H   0  0  0  0  0  0  0  0  0  0  0  0
   -9.8041   21.8461  -31.2461 H   0  0  0  0  0  0  0  0  0  0  0  0
   -8.2530   23.1025  -29.7891 H   0  0  0  0  0  0  0  0  0  0  0  0
   -5.1308   23.6270  -27.3742 H   0  0  0  0  0  0  0  0  0  0  0  0
   -3.8622   25.0527  -25.7704 H   0  0  0  0  0  0  0  0  0  0  0  0
   -1.6099   25.9319  -26.3859 H   0  0  0  0  0  0  0  0  0  0  0  0
   -0.6269   25.3950  -28.6160 H   0  0  0  0  0  0  0  0  0  0  0  0
   -1.8852   23.9664  -30.2289 H   0  0  0  0  0  0  0  0  0  0  0  0
   -2.6488   21.8529  -30.7391 H   0  0  0  0  0  0  0  0  0  0  0  0
  1  2  1  0
  2  3  1  0
  3  4  1  0
  4  5  1  0
  3  6  1  0
  6  7  1  0
  7  8  2  0
  8  9  1  0
  8 10  1  0
 10 11  2  0
 11 12  1  0
 12 13  1  0
 13 14  1  0
 14 15  1  0
 15 16  2  0
 16 17  1  0
 17 18  2  0
 18 19  1  0
 19 20  2  0
 14 21  2  0
 21 22  1  0
 22 23  2  0
 22 24  1  0
 24  7  1  0
 24 12  2  0
 20 15  1  0
  1 25  1  0
  1 26  1  0
  1 27  1  0
  2 28  1  0
  2 29  1  0
  4 30  1  0
  4 31  1  0
  5 32  1  0
  5 33  1  0
  5 34  1  0
  6 35  1  0
  6 36  1  0
  9 37  1  0
 10 38  1  0
 11 39  1  0
 16 40  1  0
 17 41  1  0
 18 42  1  0
 19 43  1  0
 20 44  1  0
 21 45  1  0
M  END
>  <UniqueID>  (2) 
2

>  <SMILES>  (2) 
CCN(CC)Cc1c(O)ccc2oc(-c3ccccc3)cc(=O)c12

>  <Energy>  (2) 
64.65412559523563

>  <Genealogy>  (2) 
CCN(CC)Cc1c(O)ccc2oc(-c3ccccc3)cc(=O)c12 (3D coordinates assigned)
CCN(CC)Cc1c(O)ccc2oc(-c3ccccc3)cc(=O)c12 (optimized conformer: 64.65412559523563 kcal/mol)

>  <smiles>  (2) 
CCN(CC)Cc1c(O)ccc2oc(-c3ccccc3)cc(=O)c12

>  <score_type>  (2) 
oracle

>  <origin>  (2) 
adg

>  <m_score__min__energy>  (2) 
-7.5099999999999998

>  <m_primary>  (2) 
energy

$$$$
2:0
     RDKit          3D

 56 58  0  0  0  0  0  0  0  0999 V2000
    0.2240   19.8440  -32.2030 C   0  0  0  0  0  0  0  0  0  0  0  0
   -0.6680   20.8900  -32.5710 O   0  0  0  0  0  0  0  0  0  0  0  0
   -1.5160   21.5670  -31.6800 C   0  0  0  0  0  0  0  0  0  0  0  0
   -1.0310   22.1920  -30.5180 C   0  0  0  0  0  0  0  0  0  0  0  0
   -1.9020   22.8590  -29.6460 C   0  0  0  0  0  0  0  0  0  0  0  0
   -1.3900   23.4870  -28.5030 C   0  0  0  0  0  0  0  0  0  0  0  0
   -2.2350   24.1750  -27.6220 C   0  0  0  0  0  0  0  0  0  0  0  0
   -1.6800   24.8520  -26.4220 C   0  0  0  0  0  0  0  0  0  0  0  0
   -0.8440   24.1600  -25.5330 C   0  0  0  0  0  0  0  0  0  0  0  0
   -0.3330   24.8120  -24.4080 C   0  0  0  0  0  0  0  0  0  0  0  0
   -0.6270   26.1250  -24.1740 N   0  0  0  0  0  0  0  0  0  0  0  0
   -0.1130   26.7820  -22.9700 C   0  0  0  0  0  0  0  0  0  0  0  0
   -1.4550   26.8120  -25.0160 C   0  0  0  0  0  0  0  0  0  0  0  0
   -1.9870   26.1940  -26.1500 C   0  0  0  0  0  0  0  0  0  0  0  0
   -3.6100   24.2160  -27.8890 C   0  0  0  0  0  0  0  0  0  0  0  0
   -4.1600   23.5760  -29.0150 C   0  0  0  0  0  0  0  0  0  0  0  0
   -5.5910   23.6490  -29.2260 N   0  0  0  0  0  0  0  0  0  0  0  0
   -5.8930   24.4980  -30.3900 C   0  0  0  0  0  0  0  0  0  0  0  0
   -6.8500   23.7920  -31.3640 C   0  0  0  0  0  0  0  0  0  0  0  0
   -6.9260   22.3430  -31.0770 N   0  0  0  0  0  0  0  0  0  0  0  0
   -6.7270   21.5460  -32.3000 C   0  0  0  0  0  0  0  0  0  0  0  0
   -8.2290   22.0050  -30.4810 C   0  0  0  0  0  0  0  0  0  0  0  0
   -3.2910   22.9050  -29.9230 C   0  0  0  0  0  0  0  0  0  0  0  0
   -3.7630   22.2850  -31.1010 C   0  0  0  0  0  0  0  0  0  0  0  0
   -2.8840   21.6180  -31.9730 C   0  0  0  0  0  0  0  0  0  0  0  0
   -3.3310   20.9900  -33.1480 O   0  0  0  0  0  0  0  0  0  0  0  0
   -3.8360   19.6590  -33.2160 C   0  0  0  0  0  0  0  0  0  0  0  0
    0.2798   19.7786  -31.1064 H   0  0  0  0  0  0  0  0  0  0  0  0
   -0.1426   18.8897  -32.6091 H   0  0  0  0  0  0  0  0  0  0  0  0
    1.2242   20.0552  -32.6091 H   0  0  0  0  0  0  0  0  0  0  0  0
    0.0447   22.1571  -30.2905 H   0  0  0  0  0  0  0  0  0  0  0  0
   -0.3110   23.4394  -28.2946 H   0  0  0  0  0  0  0  0  0  0  0  0
   -0.5913   23.1061  -25.7213 H   0  0  0  0  0  0  0  0  0  0  0  0
    0.3113   24.2635  -23.7051 H   0  0  0  0  0  0  0  0  0  0  0  0
   -0.5096   26.2750  -22.0780 H   0  0  0  0  0  0  0  0  0  0  0  0
    0.9857   26.7288  -22.9639 H   0  0  0  0  0  0  0  0  0  0  0  0
   -0.4291   27.8356  -22.9639 H   0  0  0  0  0  0  0  0  0  0  0  0
   -1.7049   27.8610  -24.7990 H   0  0  0  0  0  0  0  0  0  0  0  0
   -2.6448   26.7577  -26.8279 H   0  0  0  0  0  0  0  0  0  0  0  0
   -4.2747   24.7610  -27.2026 H   0  0  0  0  0  0  0  0  0  0  0  0
   -6.0530   24.0610  -28.3810 H   0  0  0  0  0  0  0  0  0  0  0  0
   -5.9920   22.6910  -29.3310 H   0  0  0  0  0  0  0  0  0  0  0  0
   -6.3605   25.4307  -30.0414 H   0  0  0  0  0  0  0  0  0  0  0  0
   -4.9520   24.7082  -30.9195 H   0  0  0  0  0  0  0  0  0  0  0  0
   -7.8534   24.2314  -31.2640 H   0  0  0  0  0  0  0  0  0  0  0  0
   -6.4700   23.9267  -32.3875 H   0  0  0  0  0  0  0  0  0  0  0  0
   -6.4689   20.5124  -32.0261 H   0  0  0  0  0  0  0  0  0  0  0  0
   -7.6531   21.5477  -32.8935 H   0  0  0  0  0  0  0  0  0  0  0  0
   -5.9104   21.9829  -32.8935 H   0  0  0  0  0  0  0  0  0  0  0  0
   -8.1471   22.0262  -29.3843 H   0  0  0  0  0  0  0  0  0  0  0  0
   -8.9823   22.7375  -30.8067 H   0  0  0  0  0  0  0  0  0  0  0  0
   -8.5312   20.9987  -30.8067 H   0  0  0  0  0  0  0  0  0  0  0  0
   -4.8359   22.3245  -31.3404 H   0  0  0  0  0  0  0  0  0  0  0  0
   -3.9835   19.2703  -32.1976 H   0  0  0  0  0  0  0  0  0  0  0  0
   -4.7969   19.6583  -33.7514 H   0  0  0  0  0  0  0  0  0  0  0  0
   -3.1174   19.0211  -33.7514 H   0  0  0  0  0  0  0  0  0  0  0  0
  1  2  1  0
  2  3  1  0
  3  4  2  0
  4  5  1  0
  5  6  2  0
  6  7  1  0
  7  8  1  0
  8  9  2  0
  9 10  1  0
 10 11  2  0
 11 12  1  0
 11 13  1  0
 13 14  2  0
  7 15  2  0
 15 16  1  0
 16 17  1  0
 17 18  1  0
 18 19  1  0
 19 20  1  0
 20 21  1  0
 20 22  1  0
 16 23  2  0
 23 24  1  0
 24 25  2  0
 25 26  1  0
 26 27  1  0
 25  3  1  0
 23  5  1  0
 14  8  1  0
  1 28  1  0
  1 29  1  0
  1 30  1  0
  4 31  1  0
  6 32  1  0
  9 33  1  0
 10 34  1  0
 12 35  1  0
 12 36  1  0
 12 37  1  0
 13 38  1  0
 14 39  1  0
 15 40  1  0
 17 41  1  0
 17 42  1  0
 18 43  1  0
 18 44  1  0
 19 45  1  0
 19 46  1  0
 21 47  1  0
 21 48  1  0
 21 49  1  0
 22 50  1  0
 22 51  1  0
 22 52  1  0
 24 53  1  0
 27 54  1  0
 27 55  1  0
 27 56  1  0
M  CHG  2  11   1  17   1
M  END
>  <UniqueID>  (3) 
3

>  <SMILES>  (3) 
COc1cc2cc(-c3cc[n+](C)cc3)cc([NH2+]CCN(C)C)c2cc1OC

>  <Energy>  (3) 
66.65055363846093

>  <Genealogy>  (3) 
COc1cc2cc(-c3cc[n+](C)cc3)cc([NH2+]CCN(C)C)c2cc1OC (protonated)
COc1cc2cc(-c3cc[n+](C)cc3)cc([NH2+]CCN(C)C)c2cc1OC (3D coordinates assigned)
COc1cc2cc(-c3cc[n+](C)cc3)cc([NH2+]CCN(C)C)c2cc1OC (optimized conformer: 66.65055363846093 kcal/mol)

>  <smiles>  (3) 
COc1cc2cc(-c3cc[n+](C)cc3)cc(NCCN(C)C)c2cc1OC

>  <score_type>  (3) 
oracle

>  <origin>  (3) 
adg

>  <m_score__min__energy>  (3) 
-6.4900000000000002

>  <m_primary>  (3) 
energy

$$$$
3:0
     RDKit          3D

 45 46  0  0  0  0  0  0  0  0999 V2000
   -5.8410   19.1530  -34.2260 C   0  0  0  0  0  0  0  0  0  0  0  0
   -5.5950   20.3900  -33.4810 N   0  0  0  0  0  0  0  0  0  0  0  0
   -6.7320   20.7100  -32.6500 C   0  0  0  0  0  0  0  0  0  0  0  0
   -7.6330   19.6870  -32.2980 C   0  0  0  0  0  0  0  0  0  0  0  0
   -8.8020   19.9760  -31.5930 C   0  0  0  0  0  0  0  0  0  0  0  0
   -9.1070   21.2940  -31.2600 C   0  0  0  0  0  0  0  0  0  0  0  0
   -8.2350   22.3240  -31.6130 C   0  0  0  0  0  0  0  0  0  0  0  0
   -7.0280   22.0460  -32.2740 C   0  0  0  0  0  0  0  0  0  0  0  0
   -5.9350   23.4210  -32.6950 S   0  0  0  0  0  0  0  0  0  0  0  0
   -5.3040   23.6500  -31.0180 C   0  0  0  0  0  0  0  0  0  0  0  0
   -5.8170   24.7190  -30.2670 C   0  0  0  0  0  0  0  0  0  0  0  0
   -5.3950   24.9350  -28.9570 C   0  0  0  0  0  0  0  0  0  0  0  0
   -4.4380   24.0980  -28.3870 C   0  0  0  0  0  0  0  0  0  0  0  0
   -3.8880   23.0540  -29.1320 C   0  0  0  0  0  0  0  0  0  0  0  0
   -4.3040   22.8180  -30.4600 C   0  0  0  0  0  0  0  0  0  0  0  0
   -3.6770   21.7910  -31.2570 N   0  0  0  0  0  0  0  0  0  0  0  0
   -2.9980   20.6120  -30.7110 C   0  0  0  0  0  0  0  0  0  0  0  0
   -2.1000   19.9460  -31.7630 C   0  0  0  0  0  0  0  0  0  0  0  0
   -2.6020   20.2090  -33.1300 N   0  0  0  0  0  0  0  0  0  0  0  0
   -1.7470   21.1860  -33.8270 C   0  0  0  0  0  0  0  0  0  0  0  0
   -2.6540   18.9600  -33.9060 C   0  0  0  0  0  0  0  0  0  0  0  0
   -6.0055   18.3260  -33.5195 H   0  0  0  0  0  0  0  0  0  0  0  0
   -6.7320   19.2772  -34.8590 H   0  0  0  0  0  0  0  0  0  0  0  0
   -4.9702   18.9268  -34.8590 H   0  0  0  0  0  0  0  0  0  0  0  0
   -5.3900   21.1630  -34.1490 H   0  0  0  0  0  0  0  0  0  0  0  0
   -4.7430   20.2570  -32.8890 H   0  0  0  0  0  0  0  0  0  0  0  0
   -7.4128   18.6474  -32.5822 H   0  0  0  0  0  0  0  0  0  0  0  0
   -9.4828   19.1631  -31.3001 H   0  0  0  0  0  0  0  0  0  0  0  0
  -10.0365   21.5227  -30.7181 H   0  0  0  0  0  0  0  0  0  0  0  0
   -8.4958   23.3649  -31.3709 H   0  0  0  0  0  0  0  0  0  0  0  0
   -6.5601   25.3934  -30.7175 H   0  0  0  0  0  0  0  0  0  0  0  0
   -5.8172   25.7660  -28.3729 H   0  0  0  0  0  0  0  0  0  0  0  0
   -4.1154   24.2604  -27.3480 H   0  0  0  0  0  0  0  0  0  0  0  0
   -3.1216   22.4077  -28.6792 H   0  0  0  0  0  0  0  0  0  0  0  0
   -3.6180   21.9250  -32.2900 H   0  0  0  0  0  0  0  0  0  0  0  0
   -2.3792   20.9196  -29.8552 H   0  0  0  0  0  0  0  0  0  0  0  0
   -3.7627   19.8857  -30.3985 H   0  0  0  0  0  0  0  0  0  0  0  0
   -1.0797   20.3466  -31.6709 H   0  0  0  0  0  0  0  0  0  0  0  0
   -2.1037   18.8596  -31.5906 H   0  0  0  0  0  0  0  0  0  0  0  0
   -1.2112   21.7983  -33.0867 H   0  0  0  0  0  0  0  0  0  0  0  0
   -1.0199   20.6531  -34.4573 H   0  0  0  0  0  0  0  0  0  0  0  0
   -2.3717   21.8360  -34.4573 H   0  0  0  0  0  0  0  0  0  0  0  0
   -2.6897   18.1023  -33.2182 H   0  0  0  0  0  0  0  0  0  0  0  0
   -3.5530   18.9593  -34.5399 H   0  0  0  0  0  0  0  0  0  0  0  0
   -1.7582   18.8846  -34.5399 H   0  0  0  0  0  0  0  0  0  0  0  0
  1  2  1  0
  2  3  1  0
  3  4  2  0
  4  5  1  0
  5  6  2  0
  6  7  1  0
  7  8  2  0
  8  9  1  0
  9 10  1  0
 10 11  2  0
 11 12  1  0
 12 13  2  0
 13 14  1  0
 14 15  2  0
 15 16  1  0
 16 17  1  0
 17 18  1  0
 18 19  1  0
 19 20  1  0
 19 21  1  0
  8  3  1  0
 15 10  1  0
  1 22  1  0
  1 23  1  0
  1 24  1  0
  2 25  1  0
  2 26  1  0
  4 27  1  0
  5 28  1  0
  6 29  1  0
  7 30  1  0
 11 31  1  0
 12 32  1  0
 13 33  1  0
 14 34  1  0
 16 35  1  0
 17 36  1  0
 17 37  1  0
 18 38  1  0
 18 39  1  0
 20 40  1  0
 20 41  1  0
 20 42  1  0
 21 43  1  0
 21 44  1  0
 21 45  1  0
M  CHG  1   2   1
M  END
>  <UniqueID>  (4) 
4

>  <SMILES>  (4) 
C[NH2+]c1ccccc1Sc1ccccc1NCCN(C)C

>  <Energy>  (4) 
40.81087119364016

>  <Genealogy>  (4) 
C[NH2+]c1ccccc1Sc1ccccc1NCCN(C)C (protonated)
C[NH2+]c1ccccc1Sc1ccccc1NCCN(C)C (3D coordinates assigned)
C[NH2+]c1ccccc1Sc1ccccc1NCCN(C)C (optimized conformer: 40.81087119364016 kcal/mol)

>  <smiles>  (4) 
CNc1ccccc1Sc1ccccc1NCCN(C)C

>  <score_type>  (4) 
oracle

>  <origin>  (4) 
adg

>  <m_score__min__energy>  (4) 
-6.8799999999999999

>  <m_primary>  (4) 
energy

$$$$
4:0
     RDKit          3D

 44 45  0  0  0  0  0  0  0  0999 V2000
   -3.1230   23.1170  -27.7220 C   0  0  0  0  0  0  0  0  0  0  0  0
   -3.8280   24.4650  -27.8210 C   0  0  0  0  0  0  0  0  0  0  0  0
   -4.9780   24.3770  -28.7200 N   0  0  0  0  0  0  0  0  0  0  0  0
   -4.9160   24.7750  -30.0960 C   0  0  0  0  0  0  0  0  0  0  0  0
   -3.8690   25.3020  -30.5620 O   0  0  0  0  0  0  0  0  0  0  0  0
   -6.0840   24.5240  -31.0000 C   0  0  0  0  0  0  0  0  0  0  0  0
   -5.8050   23.3140  -31.8970 C   0  0  0  0  0  0  0  0  0  0  0  0
   -7.0300   22.4370  -32.0170 C   0  0  0  0  0  0  0  0  0  0  0  0
   -8.2650   22.9660  -31.5990 C   0  0  0  0  0  0  0  0  0  0  0  0
   -9.4300   22.2000  -31.6670 C   0  0  0  0  0  0  0  0  0  0  0  0
   -9.3790   20.8940  -32.1450 C   0  0  0  0  0  0  0  0  0  0  0  0
   -8.1630   20.3430  -32.5510 C   0  0  0  0  0  0  0  0  0  0  0  0
   -6.9740   21.0950  -32.4870 C   0  0  0  0  0  0  0  0  0  0  0  0
   -5.6940   20.4320  -32.9600 C   0  0  0  0  0  0  0  0  0  0  0  0
   -5.3450   19.1910  -32.1250 C   0  0  0  0  0  0  0  0  0  0  0  0
   -5.2110   17.9570  -32.9810 C   0  0  0  0  0  0  0  0  0  0  0  0
   -3.9560   17.5980  -33.5010 C   0  0  0  0  0  0  0  0  0  0  0  0
   -3.8120   16.4260  -34.2480 C   0  0  0  0  0  0  0  0  0  0  0  0
   -4.9170   15.6030  -34.4820 C   0  0  0  0  0  0  0  0  0  0  0  0
   -6.1680   15.9490  -33.9660 C   0  0  0  0  0  0  0  0  0  0  0  0
   -7.2370   15.1460  -34.1940 F   0  0  0  0  0  0  0  0  0  0  0  0
   -6.3190   17.1190  -33.2130 C   0  0  0  0  0  0  0  0  0  0  0  0
   -7.5360   17.4260  -32.6960 F   0  0  0  0  0  0  0  0  0  0  0  0
   -2.9846   22.8525  -26.6633 H   0  0  0  0  0  0  0  0  0  0  0  0
   -3.7337   22.3467  -28.2156 H   0  0  0  0  0  0  0  0  0  0  0  0
   -2.1420   23.1792  -28.2156 H   0  0  0  0  0  0  0  0  0  0  0  0
   -4.1725   24.7676  -26.8211 H   0  0  0  0  0  0  0  0  0  0  0  0
   -3.1211   25.2076  -28.2195 H   0  0  0  0  0  0  0  0  0  0  0  0
   -5.8820   24.0230  -28.3350 H   0  0  0  0  0  0  0  0  0  0  0  0
   -6.9792   24.3273  -30.3917 H   0  0  0  0  0  0  0  0  0  0  0  0
   -6.2476   25.4099  -31.6312 H   0  0  0  0  0  0  0  0  0  0  0  0
   -5.5154   23.6669  -32.8978 H   0  0  0  0  0  0  0  0  0  0  0  0
   -4.9930   22.7235  -31.4476 H   0  0  0  0  0  0  0  0  0  0  0  0
   -8.3130   23.9953  -31.2141 H   0  0  0  0  0  0  0  0  0  0  0  0
  -10.3894   22.6292  -31.3424 H   0  0  0  0  0  0  0  0  0  0  0  0
  -10.2995   20.2946  -32.2029 H   0  0  0  0  0  0  0  0  0  0  0  0
   -8.1328   19.3091  -32.9254 H   0  0  0  0  0  0  0  0  0  0  0  0
   -5.8180   20.1297  -34.0103 H   0  0  0  0  0  0  0  0  0  0  0  0
   -4.8748   21.1575  -32.8483 H   0  0  0  0  0  0  0  0  0  0  0  0
   -4.3919   19.3685  -31.6053 H   0  0  0  0  0  0  0  0  0  0  0  0
   -6.1619   19.0216  -31.4081 H   0  0  0  0  0  0  0  0  0  0  0  0
   -3.0832   18.2423  -33.3192 H   0  0  0  0  0  0  0  0  0  0  0  0
   -2.8269   16.1506  -34.6527 H   0  0  0  0  0  0  0  0  0  0  0  0
   -4.8015   14.6823  -35.0728 H   0  0  0  0  0  0  0  0  0  0  0  0
  1  2  1  0
  2  3  1  0
  3  4  1  0
  4  5  2  0
  4  6  1  0
  6  7  1  0
  7  8  1  0
  8  9  2  0
  9 10  1  0
 10 11  2  0
 11 12  1  0
 12 13  2  0
 13 14  1  0
 14 15  1  0
 15 16  1  0
 16 17  2  0
 17 18  1  0
 18 19  2  0
 19 20  1  0
 20 21  1  0
 20 22  2  0
 22 23  1  0
 13  8  1  0
 22 16  1  0
  1 24  1  0
  1 25  1  0
  1 26  1  0
  2 27  1  0
  2 28  1  0
  3 29  1  0
  6 30  1  0
  6 31  1  0
  7 32  1  0
  7 33  1  0
  9 34  1  0
 10 35  1  0
 11 36  1  0
 12 37  1  0
 14 38  1  0
 14 39  1  0
 15 40  1  0
 15 41  1  0
 17 42  1  0
 18 43  1  0
 19 44  1  0
M  END
>  <UniqueID>  (5) 
5

>  <SMILES>  (5) 
CCNC(=O)CCc1ccccc1CCc1cccc(F)c1F

>  <Energy>  (5) 
31.877230291113428

>  <Genealogy>  (5) 
CCNC(=O)CCc1ccccc1CCc1cccc(F)c1F (3D coordinates assigned)
CCNC(=O)CCc1ccccc1CCc1cccc(F)c1F (optimized conformer: 31.877230291113428 kcal/mol)

>  <smiles>  (5) 
CCNC(=O)CCc1ccccc1CCc1cccc(F)c1F

>  <score_type>  (5) 
oracle

>  <origin>  (5) 
adg

>  <m_score__min__energy>  (5) 
-8.9299999999999997

>  <m_primary>  (5) 
energy

$$$$
5:0
     RDKit          3D

 47 50  0  0  0  0  0  0  0  0999 V2000
   -1.8330   25.2340  -27.4520 C   0  0  0  0  0  0  0  0  0  0  0  0
   -1.7490   25.1920  -28.8730 O   0  0  0  0  0  0  0  0  0  0  0  0
   -2.0650   24.0700  -29.6560 C   0  0  0  0  0  0  0  0  0  0  0  0
   -1.2730   22.9060  -29.6450 C   0  0  0  0  0  0  0  0  0  0  0  0
   -1.6210   21.8090  -30.4350 C   0  0  0  0  0  0  0  0  0  0  0  0
   -2.7650   21.8510  -31.2420 C   0  0  0  0  0  0  0  0  0  0  0  0
   -3.1140   20.7200  -32.0600 N   0  0  0  0  0  0  0  0  0  0  0  0
   -4.2750   20.5150  -32.7320 C   0  0  0  0  0  0  0  0  0  0  0  0
   -5.2390   21.3300  -32.7210 O   0  0  0  0  0  0  0  0  0  0  0  0
   -4.3060   19.3320  -33.3970 N   0  0  0  0  0  0  0  0  0  0  0  0
   -5.4230   18.7620  -34.1530 C   0  0  0  0  0  0  0  0  0  0  0  0
   -6.6980   18.8810  -33.3650 C   0  0  0  0  0  0  0  0  0  0  0  0
   -7.2030   17.7680  -32.6740 C   0  0  0  0  0  0  0  0  0  0  0  0
   -8.4020   17.8820  -31.9710 C   0  0  0  0  0  0  0  0  0  0  0  0
   -9.0890   19.0950  -31.9610 C   0  0  0  0  0  0  0  0  0  0  0  0
   -8.5630   20.1820  -32.6600 C   0  0  0  0  0  0  0  0  0  0  0  0
   -7.3910   20.0590  -33.3430 N   0  0  0  0  0  0  0  0  0  0  0  0
   -3.1120   18.7680  -33.1190 C   0  0  0  0  0  0  0  0  0  0  0  0
   -2.6020   17.5400  -33.5490 C   0  0  0  0  0  0  0  0  0  0  0  0
   -1.3050   17.1890  -33.1350 C   0  0  0  0  0  0  0  0  0  0  0  0
   -0.5510   18.0630  -32.3200 C   0  0  0  0  0  0  0  0  0  0  0  0
   -1.0890   19.2930  -31.9030 C   0  0  0  0  0  0  0  0  0  0  0  0
   -2.3880   19.6090  -32.3130 C   0  0  0  0  0  0  0  0  0  0  0  0
   -3.5490   23.0130  -31.2640 C   0  0  0  0  0  0  0  0  0  0  0  0
   -3.2070   24.1240  -30.4690 C   0  0  0  0  0  0  0  0  0  0  0  0
   -3.9760   25.2990  -30.4630 O   0  0  0  0  0  0  0  0  0  0  0  0
   -5.3980   25.3330  -30.4170 C   0  0  0  0  0  0  0  0  0  0  0  0
   -0.9290   24.7820  -27.0177 H   0  0  0  0  0  0  0  0  0  0  0  0
   -1.9158   26.2795  -27.1203 H   0  0  0  0  0  0  0  0  0  0  0  0
   -2.7191   24.6729  -27.1203 H   0  0  0  0  0  0  0  0  0  0  0  0
   -0.3755   22.8608  -29.0107 H   0  0  0  0  0  0  0  0  0  0  0  0
   -0.9929   20.9060  -30.4237 H   0  0  0  0  0  0  0  0  0  0  0  0
   -5.5319   19.3036  -35.1042 H   0  0  0  0  0  0  0  0  0  0  0  0
   -5.2192   17.6987  -34.3474 H   0  0  0  0  0  0  0  0  0  0  0  0
   -6.6570   16.8132  -32.6870 H   0  0  0  0  0  0  0  0  0  0  0  0
   -8.8050   17.0161  -31.4252 H   0  0  0  0  0  0  0  0  0  0  0  0
  -10.0349   19.1940  -31.4084 H   0  0  0  0  0  0  0  0  0  0  0  0
   -9.0976   21.1433  -32.6595 H   0  0  0  0  0  0  0  0  0  0  0  0
   -7.0240   20.8930  -33.8530 H   0  0  0  0  0  0  0  0  0  0  0  0
   -3.1951   16.8708  -34.1896 H   0  0  0  0  0  0  0  0  0  0  0  0
   -0.8739   16.2266  -33.4480 H   0  0  0  0  0  0  0  0  0  0  0  0
    0.4652   17.7786  -32.0093 H   0  0  0  0  0  0  0  0  0  0  0  0
   -0.5074   19.9839  -31.2750 H   0  0  0  0  0  0  0  0  0  0  0  0
   -4.4395   23.0574  -31.9082 H   0  0  0  0  0  0  0  0  0  0  0  0
   -5.7309   25.3410  -29.3686 H   0  0  0  0  0  0  0  0  0  0  0  0
   -5.7597   26.2400  -30.9234 H   0  0  0  0  0  0  0  0  0  0  0  0
   -5.8026   24.4443  -30.9234 H   0  0  0  0  0  0  0  0  0  0  0  0
  1  2  1  0
  2  3  1  0
  3  4  2  0
  4  5  1  0
  5  6  2  0
  6  7  1  0
  7  8  1  0
  8  9  2  0
  8 10  1  0
 10 11  1  0
 11 12  1  0
 12 13  2  0
 13 14  1  0
 14 15  2  0
 15 16  1  0
 16 17  2  0
 10 18  1  0
 18 19  2  0
 19 20  1  0
 20 21  2  0
 21 22  1  0
 22 23  2  0
  6 24  1  0
 24 25  2  0
 25 26  1  0
 26 27  1  0
 25  3  1  0
 23  7  1  0
 17 12  1  0
 23 18  1  0
  1 28  1  0
  1 29  1  0
  1 30  1  0
  4 31  1  0
  5 32  1  0
 11 33  1  0
 11 34  1  0
 13 35  1  0
 14 36  1  0
 15 37  1  0
 16 38  1  0
 17 39  1  0
 19 40  1  0
 20 41  1  0
 21 42  1  0
 22 43  1  0
 24 44  1  0
 27 45  1  0
 27 46  1  0
 27 47  1  0
M  CHG  1  17   1
M  END
>  <UniqueID>  (6) 
6

>  <SMILES>  (6) 
COc1ccc(-n2c(=O)n(Cc3cccc[nH+]3)c3ccccc32)cc1OC

>  <Energy>  (6) 
96.01433082446677

>  <Genealogy>  (6) 
COc1ccc(-n2c(=O)n(Cc3cccc[nH+]3)c3ccccc32)cc1OC (protonated)
COc1ccc(-n2c(=O)n(Cc3cccc[nH+]3)c3ccccc32)cc1OC (3D coordinates assigned)
COc1ccc(-n2c(=O)n(Cc3cccc[nH+]3)c3ccccc32)cc1OC (optimized conformer: 96.01433082446677 kcal/mol)

>  <smiles>  (6) 
COc1ccc(-n2c(=O)n(Cc3ccccn3)c3ccccc32)cc1OC

>  <score_type>  (6) 
oracle

>  <origin>  (6) 
adg

>  <m_score__min__energy>  (6) 
-8.5800000000000001

>  <m_primary>  (6) 
energy

$$$$
6:0
     RDKit          3D

 52 55  0  0  0  0  0  0  0  0999 V2000
   -3.6189   15.8977  -35.5616 H   0  0  0  0  0  0  0  0  0  0  0  0
   -3.6690   16.8230  -34.9690 C   0  0  0  0  0  0  0  0  0  0  0  0
   -4.9010   17.4390  -34.7370 C   0  0  0  0  0  0  0  0  0  0  0  0
   -5.8208   16.9966  -35.1471 H   0  0  0  0  0  0  0  0  0  0  0  0
   -4.9690   18.6150  -33.9860 C   0  0  0  0  0  0  0  0  0  0  0  0
   -5.9437   19.0921  -33.8060 H   0  0  0  0  0  0  0  0  0  0  0  0
   -3.7980   19.1950  -33.4570 C   0  0  0  0  0  0  0  0  0  0  0  0
   -3.8550   20.4440  -32.6550 C   0  0  0  0  0  0  0  0  0  0  0  0
   -4.9770   21.6780  -32.8490 S   0  0  0  0  0  0  0  0  0  0  0  0
   -4.3970   22.6710  -31.6290 C   0  0  0  0  0  0  0  0  0  0  0  0
   -5.0820   23.7590  -31.2260 N   0  0  0  0  0  0  0  0  0  0  0  0
   -4.7790   24.6750  -30.2800 C   0  0  0  0  0  0  0  0  0  0  0  0
   -5.7400   25.7990  -30.0770 C   0  0  0  0  0  0  0  0  0  0  0  0
   -5.8844   25.9679  -28.9997 H   0  0  0  0  0  0  0  0  0  0  0  0
   -5.3392   26.7124  -30.5409 H   0  0  0  0  0  0  0  0  0  0  0  0
   -6.7045   25.5450  -30.5409 H   0  0  0  0  0  0  0  0  0  0  0  0
   -3.5570   24.7860  -29.7120 N   0  0  0  0  0  0  0  0  0  0  0  0
   -2.5080   23.9340  -29.6090 C   0  0  0  0  0  0  0  0  0  0  0  0
   -1.2370   24.5520  -29.1930 C   0  0  0  0  0  0  0  0  0  0  0  0
   -0.2280   23.8270  -28.9700 O   0  0  0  0  0  0  0  0  0  0  0  0
   -1.1810   25.9310  -28.9680 O   0  0  0  0  0  0  0  0  0  0  0  0
   -0.8610   26.4910  -27.7000 C   0  0  0  0  0  0  0  0  0  0  0  0
   -1.1851   27.5418  -27.6711 H   0  0  0  0  0  0  0  0  0  0  0  0
    0.2260   26.4375  -27.5398 H   0  0  0  0  0  0  0  0  0  0  0  0
   -1.5730   25.7110  -26.6060 C   0  0  0  0  0  0  0  0  0  0  0  0
   -1.2416   26.0740  -25.6219 H   0  0  0  0  0  0  0  0  0  0  0  0
   -2.6595   25.8529  -26.7023 H   0  0  0  0  0  0  0  0  0  0  0  0
   -1.3329   24.6419  -26.7023 H   0  0  0  0  0  0  0  0  0  0  0  0
   -2.5620   22.5540  -29.9270 C   0  0  0  0  0  0  0  0  0  0  0  0
   -1.9040   21.6610  -29.2250 N   0  0  0  0  0  0  0  0  0  0  0  0
   -1.9580   21.3230  -27.7960 C   0  0  0  0  0  0  0  0  0  0  0  0
   -2.1901   22.2237  -27.2087 H   0  0  0  0  0  0  0  0  0  0  0  0
   -0.5850   20.7720  -27.3660 C   0  0  0  0  0  0  0  0  0  0  0  0
    0.1965   21.2129  -28.0023 H   0  0  0  0  0  0  0  0  0  0  0  0
   -0.4124   21.0354  -26.3120 H   0  0  0  0  0  0  0  0  0  0  0  0
   -0.5460   19.2410  -27.5060 C   0  0  0  0  0  0  0  0  0  0  0  0
   -0.7300   18.9865  -28.5602 H   0  0  0  0  0  0  0  0  0  0  0  0
    0.4451   18.9174  -27.1552 H   0  0  0  0  0  0  0  0  0  0  0  0
   -1.5050   18.5560  -26.7080 O   0  0  0  0  0  0  0  0  0  0  0  0
   -2.6690   19.3180  -26.4080 C   0  0  0  0  0  0  0  0  0  0  0  0
   -3.5032   18.6232  -26.2311 H   0  0  0  0  0  0  0  0  0  0  0  0
   -2.4359   19.9269  -25.5220 H   0  0  0  0  0  0  0  0  0  0  0  0
   -3.0750   20.2890  -27.5270 C   0  0  0  0  0  0  0  0  0  0  0  0
   -3.2654   19.7176  -28.4475 H   0  0  0  0  0  0  0  0  0  0  0  0
   -3.9816   20.8266  -27.2124 H   0  0  0  0  0  0  0  0  0  0  0  0
   -3.3020   22.0610  -31.0160 C   0  0  0  0  0  0  0  0  0  0  0  0
   -3.0190   20.8000  -31.5970 C   0  0  0  0  0  0  0  0  0  0  0  0
   -2.2038   20.1526  -31.2414 H   0  0  0  0  0  0  0  0  0  0  0  0
   -2.5630   18.5600  -33.6940 C   0  0  0  0  0  0  0  0  0  0  0  0
   -1.6392   18.9930  -33.2829 H   0  0  0  0  0  0  0  0  0  0  0  0
   -2.5020   17.3830  -34.4480 C   0  0  0  0  0  0  0  0  0  0  0  0
   -1.5317   16.8980  -34.6305 H   0  0  0  0  0  0  0  0  0  0  0  0
  1  2  1  0
  2  3  2  0
  3  4  1  0
  3  5  1  0
  5  6  1  0
  5  7  2  0
  7  8  1  0
  8  9  1  0
  9 10  1  0
 10 11  1  0
 11 12  2  0
 12 13  1  0
 13 14  1  0
 13 15  1  0
 13 16  1  0
 12 17  1  0
 17 18  2  0
 18 19  1  0
 19 20  2  0
 19 21  1  0
 21 22  1  0
 22 23  1  0
 22 24  1  0
 22 25  1  0
 25 26  1  0
 25 27  1  0
 25 28  1  0
 18 29  1  0
 29 30  2  0
 30 31  1  0
 31 32  1  0
 31 33  1  0
 33 34  1  0
 33 35  1  0
 33 36  1  0
 36 37  1  0
 36 38  1  0
 36 39  1  0
 39 40  1  0
 40 41  1  0
 40 42  1  0
 40 43  1  0
 43 44  1  0
 43 45  1  0
 29 46  1  0
 46 47  1  0
 47 48  1  0
  7 49  1  0
 49 50  1  0
 49 51  2  0
 51 52  1  0
 51  2  1  0
 47  8  2  0
 46 10  2  0
 43 31  1  0
M  END
>  <UniqueID>  (7) 
7

>  <SMILES>  (7) 
CCOC(=O)c1nc(C)nc2sc(-c3ccccc3)cc2/c1=N/C1CCOCC1

>  <Energy>  (7) 
127.82151575212957

>  <Genealogy>  (7) 
CCOC(=O)c1nc(C)nc2sc(-c3ccccc3)cc2/c1=N/C1CCOCC1 (cis-trans isomerization)
CCOC(=O)c1nc(C)nc2sc(-c3ccccc3)cc2/c1=N/C1CCOCC1 (3D coordinates assigned)
CCOC(=O)c1nc(C)nc2sc(-c3ccccc3)cc2/c1=N/C1CCOCC1 (nonaromatic ring conformer: 127.82151575212957 kcal/mol)

>  <smiles>  (7) 
CCOC(=O)c1nc(C)nc2sc(-c3ccccc3)cc2c1=NC1CCOCC1

>  <score_type>  (7) 
oracle

>  <origin>  (7) 
adg

>  <m_score__min__energy>  (7) 
-9.3200000000000003

>  <m_primary>  (7) 
energy

$$$$
7:0
     RDKit          3D

 42 44  0  0  0  0  0  0  0  0999 V2000
   -8.7520   21.9450  -30.2070 O   0  0  0  0  0  0  0  0  0  0  0  0
   -8.1670   21.9650  -31.7810 S   0  0  0  0  0  0  0  0  0  0  0  0
   -7.6920   20.3590  -32.3100 C   0  0  0  0  0  0  0  0  0  0  0  0
   -8.0730   19.2250  -31.5790 C   0  0  0  0  0  0  0  0  0  0  0  0
   -7.6360   17.9570  -31.9760 C   0  0  0  0  0  0  0  0  0  0  0  0
   -6.8260   17.8170  -33.1070 C   0  0  0  0  0  0  0  0  0  0  0  0
   -6.4010   16.5870  -33.4880 F   0  0  0  0  0  0  0  0  0  0  0  0
   -6.4580   18.9450  -33.8480 C   0  0  0  0  0  0  0  0  0  0  0  0
   -6.8930   20.2140  -33.4520 C   0  0  0  0  0  0  0  0  0  0  0  0
   -6.9130   23.2280  -32.0200 C   0  0  0  0  0  0  0  0  0  0  0  0
   -6.8460   24.1750  -30.8040 C   0  0  0  0  0  0  0  0  0  0  0  0
   -5.4300   24.7320  -30.6120 C   0  0  0  0  0  0  0  0  0  0  0  0
   -4.4370   23.6610  -30.3470 N   0  0  0  0  0  0  0  0  0  0  0  0
   -4.2900   23.4200  -28.8950 C   0  0  0  0  0  0  0  0  0  0  0  0
   -3.1550   24.2290  -28.3190 C   0  0  0  0  0  0  0  0  0  0  0  0
   -3.1720   24.6400  -26.9770 C   0  0  0  0  0  0  0  0  0  0  0  0
   -2.0980   25.3630  -26.4560 C   0  0  0  0  0  0  0  0  0  0  0  0
   -1.0140   25.6670  -27.2800 C   0  0  0  0  0  0  0  0  0  0  0  0
   -1.0080   25.2580  -28.5760 N   0  0  0  0  0  0  0  0  0  0  0  0
   -2.0410   24.5510  -29.1070 C   0  0  0  0  0  0  0  0  0  0  0  0
   -4.6970   22.3940  -31.0850 C   0  0  0  0  0  0  0  0  0  0  0  0
   -5.5430   22.5970  -32.3510 C   0  0  0  0  0  0  0  0  0  0  0  0
   -9.7370   21.9150  -30.3090 H   0  0  0  0  0  0  0  0  0  0  0  0
   -8.7159   19.3325  -30.6929 H   0  0  0  0  0  0  0  0  0  0  0  0
   -7.9300   17.0687  -31.3976 H   0  0  0  0  0  0  0  0  0  0  0  0
   -5.8267   18.8340  -34.7419 H   0  0  0  0  0  0  0  0  0  0  0  0
   -6.6073   21.0999  -34.0382 H   0  0  0  0  0  0  0  0  0  0  0  0
   -7.1984   23.8399  -32.8884 H   0  0  0  0  0  0  0  0  0  0  0  0
   -7.5423   25.0118  -30.9621 H   0  0  0  0  0  0  0  0  0  0  0  0
   -7.1214   23.6059  -29.9038 H   0  0  0  0  0  0  0  0  0  0  0  0
   -5.1347   25.2710  -31.5243 H   0  0  0  0  0  0  0  0  0  0  0  0
   -5.4459   25.4010  -29.7390 H   0  0  0  0  0  0  0  0  0  0  0  0
   -5.2247   23.7020  -28.3882 H   0  0  0  0  0  0  0  0  0  0  0  0
   -4.0707   22.3533  -28.7399 H   0  0  0  0  0  0  0  0  0  0  0  0
   -4.0313   24.3924  -26.3364 H   0  0  0  0  0  0  0  0  0  0  0  0
   -2.1061   25.6900  -25.4058 H   0  0  0  0  0  0  0  0  0  0  0  0
   -0.1633   26.2384  -26.8803 H   0  0  0  0  0  0  0  0  0  0  0  0
   -2.0025   24.2305  -30.1586 H   0  0  0  0  0  0  0  0  0  0  0  0
   -3.7318   21.9538  -31.3758 H   0  0  0  0  0  0  0  0  0  0  0  0
   -5.2650   21.7337  -30.4132 H   0  0  0  0  0  0  0  0  0  0  0  0
   -5.0009   23.2606  -33.0407 H   0  0  0  0  0  0  0  0  0  0  0  0
   -5.7178   21.6133  -32.8111 H   0  0  0  0  0  0  0  0  0  0  0  0
  2  1  1  1
  2  3  1  0
  3  4  2  0
  4  5  1  0
  5  6  2  0
  6  7  1  0
  6  8  1  0
  8  9  2  0
  2 10  1  0
 10 11  1  0
 11 12  1  0
 12 13  1  0
 13 14  1  0
 14 15  1  0
 15 16  2  0
 16 17  1  0
 17 18  2  0
 18 19  1  0
 19 20  2  0
 13 21  1  0
 21 22  1  0
  9  3  1  0
 22 10  1  0
 20 15  1  0
  1 23  1  0
  4 24  1  0
  5 25  1  0
  8 26  1  0
  9 27  1  0
 10 28  1  0
 11 29  1  0
 11 30  1  0
 12 31  1  0
 12 32  1  0
 14 33  1  0
 14 34  1  0
 16 35  1  0
 17 36  1  0
 18 37  1  0
 20 38  1  0
 21 39  1  0
 21 40  1  0
 22 41  1  0
 22 42  1  0
M  CHG  1   2   1
M  END
>  <UniqueID>  (8) 
8

>  <SMILES>  (8) 
O[S@+](c1ccc(F)cc1)C1CCN(Cc2cccnc2)CC1

>  <Energy>  (8) 
46.53653285672152

>  <Genealogy>  (8) 
O[S+](c1ccc(F)cc1)C1CCN(Cc2cccnc2)CC1 (protonated)
O[S@+](c1ccc(F)cc1)C1CCN(Cc2cccnc2)CC1 (chirality)
O[S@+](c1ccc(F)cc1)C1CCN(Cc2cccnc2)CC1 (3D coordinates assigned)
O[S@+](c1ccc(F)cc1)C1CCN(Cc2cccnc2)CC1 (nonaromatic ring conformer: 46.53653285672152 kcal/mol)

>  <smiles>  (8) 
[O-][S+](c1ccc(F)cc1)C1CCN(Cc2cccnc2)CC1

>  <score_type>  (8) 
oracle

>  <origin>  (8) 
adg

>  <m_score__min__energy>  (8) 
-7.7999999999999998

>  <m_primary>  (8) 
energy

$$$$
8:0
     RDKit          3D

 44 46  0  0  0  0  0  0  0  0999 V2000
   -3.0340   24.5480  -29.4310 C   0  0  0  0  0  0  0  0  0  0  0  0
   -3.9960   24.8720  -30.4300 O   0  0  0  0  0  0  0  0  0  0  0  0
   -5.1660   24.1370  -30.6710 C   0  0  0  0  0  0  0  0  0  0  0  0
   -5.7150   24.1640  -31.9580 C   0  0  0  0  0  0  0  0  0  0  0  0
   -6.8790   23.4470  -32.2500 C   0  0  0  0  0  0  0  0  0  0  0  0
   -7.5160   22.6950  -31.2510 C   0  0  0  0  0  0  0  0  0  0  0  0
   -8.7560   21.8960  -31.5770 C   0  0  0  0  0  0  0  0  0  0  0  0
   -8.4710   20.7830  -32.4950 N   0  0  0  0  0  0  0  0  0  0  0  0
   -9.5030   19.7390  -32.4300 C   0  0  0  0  0  0  0  0  0  0  0  0
   -9.0040   18.5220  -31.6470 C   0  0  0  0  0  0  0  0  0  0  0  0
   -7.5800   18.5340  -31.5170 O   0  0  0  0  0  0  0  0  0  0  0  0
   -6.6480   18.3060  -32.5430 C   0  0  0  0  0  0  0  0  0  0  0  0
   -6.7360   17.2140  -33.4340 C   0  0  0  0  0  0  0  0  0  0  0  0
   -5.7710   17.0370  -34.4320 C   0  0  0  0  0  0  0  0  0  0  0  0
   -4.7170   17.9440  -34.5620 C   0  0  0  0  0  0  0  0  0  0  0  0
   -4.6290   19.0340  -33.6940 C   0  0  0  0  0  0  0  0  0  0  0  0
   -5.5770   19.2000  -32.6740 C   0  0  0  0  0  0  0  0  0  0  0  0
   -5.4370   20.2780  -31.7920 O   0  0  0  0  0  0  0  0  0  0  0  0
   -4.2230   21.0330  -31.7310 C   0  0  0  0  0  0  0  0  0  0  0  0
   -3.6480   21.2230  -33.1400 C   0  0  0  0  0  0  0  0  0  0  0  0
   -3.6000   19.9710  -33.8270 O   0  0  0  0  0  0  0  0  0  0  0  0
   -6.9650   22.6590  -29.9610 C   0  0  0  0  0  0  0  0  0  0  0  0
   -5.8000   23.3760  -29.6700 C   0  0  0  0  0  0  0  0  0  0  0  0
   -3.4757   24.6968  -28.4346 H   0  0  0  0  0  0  0  0  0  0  0  0
   -2.7283   23.4973  -29.5434 H   0  0  0  0  0  0  0  0  0  0  0  0
   -2.1550   25.1997  -29.5434 H   0  0  0  0  0  0  0  0  0  0  0  0
   -5.2263   24.7547  -32.7468 H   0  0  0  0  0  0  0  0  0  0  0  0
   -7.2973   23.4724  -33.2670 H   0  0  0  0  0  0  0  0  0  0  0  0
   -9.1711   21.4884  -30.6434 H   0  0  0  0  0  0  0  0  0  0  0  0
   -9.4722   22.5685  -32.0718 H   0  0  0  0  0  0  0  0  0  0  0  0
   -7.5500   20.3630  -32.2310 H   0  0  0  0  0  0  0  0  0  0  0  0
  -10.3954   20.1459  -31.9320 H   0  0  0  0  0  0  0  0  0  0  0  0
   -9.7448   19.4211  -33.4549 H   0  0  0  0  0  0  0  0  0  0  0  0
   -9.4552   18.5321  -30.6438 H   0  0  0  0  0  0  0  0  0  0  0  0
   -9.2941   17.6140  -32.1960 H   0  0  0  0  0  0  0  0  0  0  0  0
   -7.5670   16.4991  -33.3432 H   0  0  0  0  0  0  0  0  0  0  0  0
   -5.8430   16.1795  -35.1172 H   0  0  0  0  0  0  0  0  0  0  0  0
   -3.9587   17.8001  -35.3457 H   0  0  0  0  0  0  0  0  0  0  0  0
   -4.4292   22.0179  -31.2865 H   0  0  0  0  0  0  0  0  0  0  0  0
   -3.4920   20.4893  -31.1146 H   0  0  0  0  0  0  0  0  0  0  0  0
   -4.2860   21.9212  -33.7016 H   0  0  0  0  0  0  0  0  0  0  0  0
   -2.6282   21.6274  -33.0597 H   0  0  0  0  0  0  0  0  0  0  0  0
   -7.4519   22.0637  -29.1745 H   0  0  0  0  0  0  0  0  0  0  0  0
   -5.3772   23.3454  -28.6550 H   0  0  0  0  0  0  0  0  0  0  0  0
  1  2  1  0
  2  3  1  0
  3  4  2  0
  4  5  1  0
  5  6  2  0
  6  7  1  0
  7  8  1  0
  8  9  1  0
  9 10  1  0
 10 11  1  0
 11 12  1  0
 12 13  2  0
 13 14  1  0
 14 15  2  0
 15 16  1  0
 16 17  2  0
 17 18  1  0
 18 19  1  0
 19 20  1  0
 20 21  1  0
  6 22  1  0
 22 23  2  0
 23  3  1  0
 17 12  1  0
 21 16  1  0
  1 24  1  0
  1 25  1  0
  1 26  1  0
  4 27  1  0
  5 28  1  0
  7 29  1  0
  7 30  1  0
  8 31  1  0
  9 32  1  0
  9 33  1  0
 10 34  1  0
 10 35  1  0
 13 36  1  0
 14 37  1  0
 15 38  1  0
 19 39  1  0
 19 40  1  0
 20 41  1  0
 20 42  1  0
 22 43  1  0
 23 44  1  0
M  END
>  <UniqueID>  (9) 
9

>  <SMILES>  (9) 
COc1ccc(CNCCOc2cccc3c2OCCO3)cc1

>  <Energy>  (9) 
44.961007566320134

>  <Genealogy>  (9) 
COc1ccc(CNCCOc2cccc3c2OCCO3)cc1 (3D coordinates assigned)
COc1ccc(CNCCOc2cccc3c2OCCO3)cc1 (nonaromatic ring conformer: 44.961007566320134 kcal/mol)

>  <smiles>  (9) 
COc1ccc(CNCCOc2cccc3c2OCCO3)cc1

>  <score_type>  (9) 
oracle

>  <origin>  (9) 
adg

>  <m_score__min__energy>  (9) 
-8.0399999999999991

>  <m_primary>  (9) 
energy

$$$$
9:0
     RDKit          3D

 35 37  0  0  0  0  0  0  0  0999 V2000
   -7.6290   23.7720  -31.3080 C   0  0  0  0  0  0  0  0  0  0  0  0
   -6.3360   23.1410  -31.0070 N   0  0  0  0  0  0  0  0  0  0  0  0
   -5.4540   23.8140  -30.0370 C   0  0  0  0  0  0  0  0  0  0  0  0
   -5.2350   25.2830  -30.4130 C   0  0  0  0  0  0  0  0  0  0  0  0
   -3.8750   25.5380  -30.6430 O   0  0  0  0  0  0  0  0  0  0  0  0
   -5.9620   21.8870  -31.6470 C   0  0  0  0  0  0  0  0  0  0  0  0
   -4.6990   21.7320  -32.2900 C   0  0  0  0  0  0  0  0  0  0  0  0
   -4.3390   20.5250  -32.9080 C   0  0  0  0  0  0  0  0  0  0  0  0
   -5.2460   19.4730  -32.8810 C   0  0  0  0  0  0  0  0  0  0  0  0
   -6.4740   19.5900  -32.2670 C   0  0  0  0  0  0  0  0  0  0  0  0
   -6.8530   20.7800  -31.6470 C   0  0  0  0  0  0  0  0  0  0  0  0
   -7.2680   18.3190  -32.3710 C   0  0  0  0  0  0  0  0  0  0  0  0
   -6.3070   17.4580  -33.1380 C   0  0  0  0  0  0  0  0  0  0  0  0
   -6.4850   16.1360  -33.5470 C   0  0  0  0  0  0  0  0  0  0  0  0
   -5.4500   15.5080  -34.2620 C   0  0  0  0  0  0  0  0  0  0  0  0
   -4.2600   16.2060  -34.5540 C   0  0  0  0  0  0  0  0  0  0  0  0
   -4.0960   17.5360  -34.1360 C   0  0  0  0  0  0  0  0  0  0  0  0
   -5.1390   18.1370  -33.4280 C   0  0  0  0  0  0  0  0  0  0  0  0
   -8.1424   24.0225  -30.3680 H   0  0  0  0  0  0  0  0  0  0  0  0
   -7.4622   24.6900  -31.8906 H   0  0  0  0  0  0  0  0  0  0  0  0
   -8.2500   23.0757  -31.8906 H   0  0  0  0  0  0  0  0  0  0  0  0
   -5.9139   23.7639  -29.0390 H   0  0  0  0  0  0  0  0  0  0  0  0
   -4.4791   23.3045  -30.0410 H   0  0  0  0  0  0  0  0  0  0  0  0
   -5.8047   25.5109  -31.3260 H   0  0  0  0  0  0  0  0  0  0  0  0
   -5.5780   25.9161  -29.5814 H   0  0  0  0  0  0  0  0  0  0  0  0
   -3.7740   25.6850  -31.6190 H   0  0  0  0  0  0  0  0  0  0  0  0
   -3.9929   22.5754  -32.3018 H   0  0  0  0  0  0  0  0  0  0  0  0
   -3.3624   20.4143  -33.4019 H   0  0  0  0  0  0  0  0  0  0  0  0
   -7.8362   20.8614  -31.1606 H   0  0  0  0  0  0  0  0  0  0  0  0
   -7.4898   17.8965  -31.3799 H   0  0  0  0  0  0  0  0  0  0  0  0
   -8.2563   18.4331  -32.8403 H   0  0  0  0  0  0  0  0  0  0  0  0
   -7.4152   15.5966  -33.3150 H   0  0  0  0  0  0  0  0  0  0  0  0
   -5.5692   14.4665  -34.5954 H   0  0  0  0  0  0  0  0  0  0  0  0
   -3.4555   15.7053  -35.1126 H   0  0  0  0  0  0  0  0  0  0  0  0
   -3.1720   18.0892  -34.3598 H   0  0  0  0  0  0  0  0  0  0  0  0
  1  2  1  0
  2  3  1  0
  3  4  1  0
  4  5  1  0
  2  6  1  0
  6  7  2  0
  7  8  1  0
  8  9  2  0
  9 10  1  0
 10 11  2  0
 10 12  1  0
 12 13  1  0
 13 14  2  0
 14 15  1  0
 15 16  2  0
 16 17  1  0
 17 18  2  0
 11  6  1  0
 18 13  1  0
 18  9  1  0
  1 19  1  0
  1 20  1  0
  1 21  1  0
  3 22  1  0
  3 23  1  0
  4 24  1  0
  4 25  1  0
  5 26  1  0
  7 27  1  0
  8 28  1  0
 11 29  1  0
 12 30  1  0
 12 31  1  0
 14 32  1  0
 15 33  1  0
 16 34  1  0
 17 35  1  0
M  END
>  <UniqueID>  (10) 
10

>  <SMILES>  (10) 
CN(CCO)c1ccc2c(c1)Cc1ccccc1-2

>  <Energy>  (10) 
59.65054805047524

>  <Genealogy>  (10) 
CN(CCO)c1ccc2c(c1)Cc1ccccc1-2 (3D coordinates assigned)
CN(CCO)c1ccc2c(c1)Cc1ccccc1-2 (nonaromatic ring conformer: 59.65054805047524 kcal/mol)

>  <smiles>  (10) 
CN(CCO)c1ccc2c(c1)Cc1ccccc1-2

>  <score_type>  (10) 
oracle

>  <origin>  (10) 
adg

>  <m_score__min__energy>  (10) 
-7.7400000000000002

>  <m_primary>  (10) 
energy

$$$$
10:0
     RDKit          3D

 55 58  0  0  0  0  0  0  0  0999 V2000
   -9.0190   21.8970  -30.8890 C   0  0  0  0  0  0  0  0  0  0  0  0
   -7.6070   22.2660  -30.4010 C   0  0  0  0  0  0  0  0  0  0  0  0
   -7.0570   23.5160  -30.9840 N   0  0  0  0  0  0  0  0  0  0  0  0
   -6.4580   23.3080  -32.3190 C   0  0  0  0  0  0  0  0  0  0  0  0
   -6.4320   21.8210  -32.6680 C   0  0  0  0  0  0  0  0  0  0  0  0
   -6.1600   24.2460  -30.0580 C   0  0  0  0  0  0  0  0  0  0  0  0
   -5.4320   25.3730  -30.7950 C   0  0  0  0  0  0  0  0  0  0  0  0
   -4.0400   25.0970  -30.8300 O   0  0  0  0  0  0  0  0  0  0  0  0
   -3.6820   24.0700  -29.9200 C   0  0  1  0  0  0  0  0  0  0  0  0
   -2.8740   22.9930  -30.6220 C   0  0  0  0  0  0  0  0  0  0  0  0
   -1.6020   22.6440  -30.1420 C   0  0  0  0  0  0  0  0  0  0  0  0
   -0.8800   21.6050  -30.7320 C   0  0  0  0  0  0  0  0  0  0  0  0
   -1.4200   20.8960  -31.8150 C   0  0  0  0  0  0  0  0  0  0  0  0
   -0.7050   19.8460  -32.4110 C   0  0  0  0  0  0  0  0  0  0  0  0
   -1.2540   19.1460  -33.4890 C   0  0  0  0  0  0  0  0  0  0  0  0
   -2.5190   19.4890  -33.9780 C   0  0  0  0  0  0  0  0  0  0  0  0
   -3.2420   20.5290  -33.3900 C   0  0  0  0  0  0  0  0  0  0  0  0
   -2.7000   21.2400  -32.3080 C   0  0  0  0  0  0  0  0  0  0  0  0
   -3.4200   22.2830  -31.7060 C   0  0  0  0  0  0  0  0  0  0  0  0
   -2.8760   24.6630  -28.8010 C   0  0  0  0  0  0  0  0  0  0  0  0
   -2.9490   24.2800  -27.4640 C   0  0  0  0  0  0  0  0  0  0  0  0
   -2.0250   25.0760  -26.8300 C   0  0  0  0  0  0  0  0  0  0  0  0
   -1.6410   25.1440  -25.4930 C   0  0  0  0  0  0  0  0  0  0  0  0
   -0.6440   26.0750  -25.1470 C   0  0  0  0  0  0  0  0  0  0  0  0
   -0.0660   26.9070  -26.1330 C   0  0  0  0  0  0  0  0  0  0  0  0
   -0.4790   26.8110  -27.4760 C   0  0  0  0  0  0  0  0  0  0  0  0
   -1.4620   25.8780  -27.7890 C   0  0  0  0  0  0  0  0  0  0  0  0
   -1.9790   25.6220  -28.9640 O   0  0  0  0  0  0  0  0  0  0  0  0
   -9.6736   21.7259  -30.0217 H   0  0  0  0  0  0  0  0  0  0  0  0
   -9.4234   22.7196  -31.4971 H   0  0  0  0  0  0  0  0  0  0  0  0
   -8.9693   20.9817  -31.4971 H   0  0  0  0  0  0  0  0  0  0  0  0
   -7.6420   22.3840  -29.3079 H   0  0  0  0  0  0  0  0  0  0  0  0
   -6.9426   21.4521  -30.7269 H   0  0  0  0  0  0  0  0  0  0  0  0
   -7.0540   23.8459  -33.0710 H   0  0  0  0  0  0  0  0  0  0  0  0
   -5.4262   23.6892  -32.3093 H   0  0  0  0  0  0  0  0  0  0  0  0
   -6.4216   21.2272  -31.7421 H   0  0  0  0  0  0  0  0  0  0  0  0
   -7.3258   21.5668  -33.2566 H   0  0  0  0  0  0  0  0  0  0  0  0
   -5.5298   21.5982  -33.2566 H   0  0  0  0  0  0  0  0  0  0  0  0
   -6.7563   24.6748  -29.2391 H   0  0  0  0  0  0  0  0  0  0  0  0
   -5.4148   23.5436  -29.6565 H   0  0  0  0  0  0  0  0  0  0  0  0
   -5.8167   25.4467  -31.8229 H   0  0  0  0  0  0  0  0  0  0  0  0
   -5.6030   26.3239  -30.2691 H   0  0  0  0  0  0  0  0  0  0  0  0
   -4.5971   23.6106  -29.5181 H   0  0  0  0  0  0  0  0  0  0  0  0
   -1.1701   23.1943  -29.2931 H   0  0  0  0  0  0  0  0  0  0  0  0
    0.1158   21.3415  -30.3462 H   0  0  0  0  0  0  0  0  0  0  0  0
    0.2898   19.5732  -32.0290 H   0  0  0  0  0  0  0  0  0  0  0  0
   -0.6903   18.3237  -33.9538 H   0  0  0  0  0  0  0  0  0  0  0  0
   -2.9457   18.9375  -34.8287 H   0  0  0  0  0  0  0  0  0  0  0  0
   -4.2382   20.7915  -33.7755 H   0  0  0  0  0  0  0  0  0  0  0  0
   -4.4184   22.5471  -32.0846 H   0  0  0  0  0  0  0  0  0  0  0  0
   -3.5991   23.5137  -27.0165 H   0  0  0  0  0  0  0  0  0  0  0  0
   -2.1006   24.4932  -24.7345 H   0  0  0  0  0  0  0  0  0  0  0  0
   -0.3119   26.1559  -24.1014 H   0  0  0  0  0  0  0  0  0  0  0  0
    0.7103   27.6331  -25.8498 H   0  0  0  0  0  0  0  0  0  0  0  0
   -0.0383   27.4533  -28.2526 H   0  0  0  0  0  0  0  0  0  0  0  0
  1  2  1  0
  2  3  1  0
  3  4  1  0
  4  5  1  0
  3  6  1  0
  6  7  1  0
  7  8  1  0
  8  9  1  0
  9 10  1  0
 10 11  2  0
 11 12  1  0
 12 13  2  0
 13 14  1  0
 14 15  2  0
 15 16  1  0
 16 17  2  0
 17 18  1  0
 18 19  2  0
  9 20  1  0
 20 21  2  0
 21 22  1  0
 22 23  2  0
 23 24  1  0
 24 25  2  0
 25 26  1  0
 26 27  2  0
 27 28  1  0
 19 10  1  0
 28 20  1  0
 18 13  1  0
 27 22  1  0
  1 29  1  0
  1 30  1  0
  1 31  1  0
  2 32  1  0
  2 33  1  0
  4 34  1  0
  4 35  1  0
  5 36  1  0
  5 37  1  0
  5 38  1  0
  6 39  1  0
  6 40  1  0
  7 41  1  0
  7 42  1  0
  9 43  1  1
 11 44  1  0
 12 45  1  0
 14 46  1  0
 15 47  1  0
 16 48  1  0
 17 49  1  0
 19 50  1  0
 21 51  1  0
 23 52  1  0
 24 53  1  0
 25 54  1  0
 26 55  1  0
M  END
>  <UniqueID>  (11) 
11

>  <SMILES>  (11) 
CCN(CC)CCO[C@@H](c1ccc2ccccc2c1)c1cc2ccccc2o1

>  <Energy>  (11) 
96.37824464684644

>  <Genealogy>  (11) 
CCN(CC)CCO[C@@H](c1ccc2ccccc2c1)c1cc2ccccc2o1 (chirality)
CCN(CC)CCO[C@@H](c1ccc2ccccc2c1)c1cc2ccccc2o1 (3D coordinates assigned)
CCN(CC)CCO[C@@H](c1ccc2ccccc2c1)c1cc2ccccc2o1 (optimized conformer: 96.37824464684644 kcal/mol)

>  <smiles>  (11) 
CCN(CC)CCOC(c1ccc2ccccc2c1)c1cc2ccccc2o1

>  <score_type>  (11) 
oracle

>  <origin>  (11) 
adg

>  <m_score__min__energy>  (11) 
-9.5

>  <m_primary>  (11) 
energy

$$$$
11:0
     RDKit          3D

 45 48  0  0  0  0  0  0  0  0999 V2000
   -6.6210   25.3130  -29.3550 C   0  0  0  0  0  0  0  0  0  0  0  0
   -6.1620   24.2320  -30.2450 N   0  0  0  0  0  0  0  0  0  0  0  0
   -4.9770   24.3700  -30.9300 C   0  0  0  0  0  0  0  0  0  0  0  0
   -4.2890   25.4210  -30.8180 O   0  0  0  0  0  0  0  0  0  0  0  0
   -4.5200   23.3800  -31.7390 N   0  0  0  0  0  0  0  0  0  0  0  0
   -5.1910   22.2120  -31.9010 C   0  0  0  0  0  0  0  0  0  0  0  0
   -4.7200   21.2190  -32.7240 N   0  0  0  0  0  0  0  0  0  0  0  0
   -3.4400   21.4550  -33.4380 C   0  0  0  0  0  0  0  0  0  0  0  0
   -2.2510   21.5460  -32.4660 C   0  0  0  0  0  0  0  0  0  0  0  0
   -2.5130   20.8400  -31.1330 C   0  0  0  0  0  0  0  0  0  0  0  0
   -2.5890   21.8420  -30.0120 C   0  0  0  0  0  0  0  0  0  0  0  0
   -1.8050   23.0080  -30.0510 C   0  0  0  0  0  0  0  0  0  0  0  0
   -1.9000   23.9550  -29.0270 C   0  0  0  0  0  0  0  0  0  0  0  0
   -2.7830   23.7500  -27.9630 C   0  0  0  0  0  0  0  0  0  0  0  0
   -3.5750   22.6000  -27.9240 C   0  0  0  0  0  0  0  0  0  0  0  0
   -3.4830   21.6500  -28.9470 C   0  0  0  0  0  0  0  0  0  0  0  0
   -5.4560   20.0500  -32.8600 C   0  0  0  0  0  0  0  0  0  0  0  0
   -5.0630   18.9950  -33.7250 C   0  0  0  0  0  0  0  0  0  0  0  0
   -5.8210   17.8280  -33.8330 C   0  0  0  0  0  0  0  0  0  0  0  0
   -6.9870   17.6750  -33.0910 C   0  0  0  0  0  0  0  0  0  0  0  0
   -7.4100   18.6930  -32.2420 C   0  0  0  0  0  0  0  0  0  0  0  0
   -6.6670   19.8780  -32.1190 C   0  0  0  0  0  0  0  0  0  0  0  0
   -7.1200   20.8600  -31.2920 N   0  0  0  0  0  0  0  0  0  0  0  0
   -6.4400   22.0250  -31.1580 C   0  0  0  0  0  0  0  0  0  0  0  0
   -6.8810   23.0660  -30.3300 C   0  0  0  0  0  0  0  0  0  0  0  0
   -7.9430   22.9220  -29.6610 O   0  0  0  0  0  0  0  0  0  0  0  0
   -6.4904   25.0054  -28.3070 H   0  0  0  0  0  0  0  0  0  0  0  0
   -6.0309   26.2213  -29.5468 H   0  0  0  0  0  0  0  0  0  0  0  0
   -7.6843   25.5192  -29.5468 H   0  0  0  0  0  0  0  0  0  0  0  0
   -3.2647   20.6248  -34.1381 H   0  0  0  0  0  0  0  0  0  0  0  0
   -3.5186   22.4133  -33.9722 H   0  0  0  0  0  0  0  0  0  0  0  0
   -1.3735   21.0833  -32.9412 H   0  0  0  0  0  0  0  0  0  0  0  0
   -2.0854   22.6113  -32.2473 H   0  0  0  0  0  0  0  0  0  0  0  0
   -3.4651   20.2924  -31.1943 H   0  0  0  0  0  0  0  0  0  0  0  0
   -1.6868   20.1424  -30.9313 H   0  0  0  0  0  0  0  0  0  0  0  0
   -1.1141   23.1760  -30.8904 H   0  0  0  0  0  0  0  0  0  0  0  0
   -1.2792   24.8625  -29.0586 H   0  0  0  0  0  0  0  0  0  0  0  0
   -2.8542   24.4944  -27.1563 H   0  0  0  0  0  0  0  0  0  0  0  0
   -4.2719   22.4411  -27.0879 H   0  0  0  0  0  0  0  0  0  0  0  0
   -4.1136   20.7492  -28.9166 H   0  0  0  0  0  0  0  0  0  0  0  0
   -4.1443   19.0992  -34.3210 H   0  0  0  0  0  0  0  0  0  0  0  0
   -5.4940   17.0244  -34.5092 H   0  0  0  0  0  0  0  0  0  0  0  0
   -7.5750   16.7492  -33.1752 H   0  0  0  0  0  0  0  0  0  0  0  0
   -8.3359   18.5682  -31.6613 H   0  0  0  0  0  0  0  0  0  0  0  0
   -8.0100   20.7140  -30.7610 H   0  0  0  0  0  0  0  0  0  0  0  0
  1  2  1  0
  2  3  1  0
  3  4  2  0
  3  5  1  0
  5  6  2  0
  6  7  1  0
  7  8  1  0
  8  9  1  0
  9 10  1  0
 10 11  1  0
 11 12  2  0
 12 13  1  0
 13 14  2  0
 14 15  1  0
 15 16  2  0
  7 17  1  0
 17 18  2  0
 18 19  1  0
 19 20  2  0
 20 21  1  0
 21 22  2  0
 22 23  1  0
 23 24  2  0
 24 25  1  0
 25 26  2  0
 25  2  1  0
 24  6  1  0
 16 11  1  0
 22 17  1  0
  1 27  1  0
  1 28  1  0
  1 29  1  0
  8 30  1  0
  8 31  1  0
  9 32  1  0
  9 33  1  0
 10 34  1  0
 10 35  1  0
 12 36  1  0
 13 37  1  0
 14 38  1  0
 15 39  1  0
 16 40  1  0
 18 41  1  0
 19 42  1  0
 20 43  1  0
 21 44  1  0
 23 45  1  0
M  CHG  1  23   1
M  END
>  <UniqueID>  (12) 
12

>  <SMILES>  (12) 
Cn1c(=O)nc2n(CCCc3ccccc3)c3ccccc3[nH+]c-2c1=O

>  <Energy>  (12) 
63.20515382766737

>  <Genealogy>  (12) 
Cn1c(=O)nc2n(CCCc3ccccc3)c3ccccc3[nH+]c-2c1=O (protonated)
Cn1c(=O)nc2n(CCCc3ccccc3)c3ccccc3[nH+]c-2c1=O (3D coordinates assigned)
Cn1c(=O)nc2n(CCCc3ccccc3)c3ccccc3[nH+]c-2c1=O (optimized conformer: 63.20515382766737 kcal/mol)

>  <smiles>  (12) 
Cn1c(=O)nc2n(CCCc3ccccc3)c3ccccc3nc-2c1=O

>  <score_type>  (12) 
oracle

>  <origin>  (12) 
adg

>  <m_score__min__energy>  (12) 
-8.0399999999999991

>  <m_primary>  (12) 
energy

$$$$
12:0
     RDKit          3D

 41 44  0  0  0  0  0  0  0  0999 V2000
   -3.1760   16.7560  -34.1660 C   0  0  0  0  0  0  0  0  0  0  0  0
   -4.3080   17.6130  -33.7860 N   0  0  0  0  0  0  0  0  0  0  0  0
   -5.1120   16.9610  -32.7310 C   0  0  0  0  0  0  0  0  0  0  0  0
   -6.4680   17.6660  -32.4910 C   0  0  0  0  0  0  0  0  0  0  0  0
   -6.5630   18.9390  -33.2130 N   0  0  0  0  0  0  0  0  0  0  0  0
   -7.4590   19.9410  -32.7180 C   0  0  0  0  0  0  0  0  0  0  0  0
   -8.8080   19.7480  -32.8280 N   0  0  0  0  0  0  0  0  0  0  0  0
   -9.7030   20.6600  -32.3450 C   0  0  0  0  0  0  0  0  0  0  0  0
   -9.2680   21.7930  -31.7310 N   0  0  0  0  0  0  0  0  0  0  0  0
   -7.9380   22.0050  -31.6130 C   0  0  0  0  0  0  0  0  0  0  0  0
   -7.2080   23.3240  -30.8800 S   0  0  0  0  0  0  0  0  0  0  0  0
   -5.6400   22.7650  -31.1620 C   0  0  0  0  0  0  0  0  0  0  0  0
   -5.6730   21.5580  -31.8680 C   0  0  0  0  0  0  0  0  0  0  0  0
   -6.9940   21.1140  -32.0960 C   0  0  0  0  0  0  0  0  0  0  0  0
   -4.4040   20.8260  -32.2350 C   0  0  0  0  0  0  0  0  0  0  0  0
   -3.1650   21.7350  -32.1420 C   0  0  0  0  0  0  0  0  0  0  0  0
   -3.1710   22.5670  -30.8510 C   0  0  0  0  0  0  0  0  0  0  0  0
   -4.3850   23.5060  -30.8140 C   0  0  0  0  0  0  0  0  0  0  0  0
   -6.1090   19.0460  -34.6050 C   0  0  0  0  0  0  0  0  0  0  0  0
   -5.1440   17.9140  -34.9590 C   0  0  0  0  0  0  0  0  0  0  0  0
   -2.6798   16.3804  -33.2590 H   0  0  0  0  0  0  0  0  0  0  0  0
   -3.5426   15.9070  -34.7617 H   0  0  0  0  0  0  0  0  0  0  0  0
   -2.4584   17.3392  -34.7617 H   0  0  0  0  0  0  0  0  0  0  0  0
   -5.3048   15.9197  -33.0286 H   0  0  0  0  0  0  0  0  0  0  0  0
   -4.5383   17.0172  -31.7941 H   0  0  0  0  0  0  0  0  0  0  0  0
   -7.2774   17.0036  -32.8318 H   0  0  0  0  0  0  0  0  0  0  0  0
   -6.5533   17.8794  -31.4153 H   0  0  0  0  0  0  0  0  0  0  0  0
   -9.1700   18.8800  -33.2830 H   0  0  0  0  0  0  0  0  0  0  0  0
  -10.7822   20.4769  -32.4533 H   0  0  0  0  0  0  0  0  0  0  0  0
   -4.2732   19.9764  -31.5487 H   0  0  0  0  0  0  0  0  0  0  0  0
   -4.4978   20.4858  -33.2769 H   0  0  0  0  0  0  0  0  0  0  0  0
   -2.2607   21.1090  -32.1593 H   0  0  0  0  0  0  0  0  0  0  0  0
   -3.1800   22.4264  -32.9974 H   0  0  0  0  0  0  0  0  0  0  0  0
   -3.2124   21.8895  -29.9854 H   0  0  0  0  0  0  0  0  0  0  0  0
   -2.2542   23.1740  -30.8182 H   0  0  0  0  0  0  0  0  0  0  0  0
   -4.4838   23.9284  -29.8031 H   0  0  0  0  0  0  0  0  0  0  0  0
   -4.2331   24.3088  -31.5505 H   0  0  0  0  0  0  0  0  0  0  0  0
   -6.9820   18.9954  -35.2723 H   0  0  0  0  0  0  0  0  0  0  0  0
   -5.5829   20.0042  -34.7277 H   0  0  0  0  0  0  0  0  0  0  0  0
   -5.7151   17.0183  -35.2445 H   0  0  0  0  0  0  0  0  0  0  0  0
   -4.5061   18.2192  -35.8016 H   0  0  0  0  0  0  0  0  0  0  0  0
  1  2  1  0
  2  3  1  0
  3  4  1  0
  4  5  1  0
  5  6  1  0
  6  7  2  0
  7  8  1  0
  8  9  2  0
  9 10  1  0
 10 11  1  0
 11 12  1  0
 12 13  2  0
 13 14  1  0
 13 15  1  0
 15 16  1  0
 16 17  1  0
 17 18  1  0
  5 19  1  0
 19 20  1  0
 20  2  1  0
 14  6  1  0
 14 10  2  0
 18 12  1  0
  1 21  1  0
  1 22  1  0
  1 23  1  0
  3 24  1  0
  3 25  1  0
  4 26  1  0
  4 27  1  0
  7 28  1  0
  8 29  1  0
 15 30  1  0
 15 31  1  0
 16 32  1  0
 16 33  1  0
 17 34  1  0
 17 35  1  0
 18 36  1  0
 18 37  1  0
 19 38  1  0
 19 39  1  0
 20 40  1  0
 20 41  1  0
M  CHG  1   7   1
M  END
>  <UniqueID>  (13) 
13

>  <SMILES>  (13) 
CN1CCN(c2[nH+]cnc3sc4c(c23)CCCC4)CC1

>  <Energy>  (13) 
84.5774435516748

>  <Genealogy>  (13) 
CN1CCN(c2[nH+]cnc3sc4c(c23)CCCC4)CC1 (protonated)
CN1CCN(c2[nH+]cnc3sc4c(c23)CCCC4)CC1 (3D coordinates assigned)
CN1CCN(c2[nH+]cnc3sc4c(c23)CCCC4)CC1 (nonaromatic ring conformer: 84.5774435516748 kcal/mol)

>  <smiles>  (13) 
CN1CCN(c2ncnc3sc4c(c23)CCCC4)CC1

>  <score_type>  (13) 
oracle

>  <origin>  (13) 
adg

>  <m_score__min__energy>  (13) 
-7.25

>  <m_primary>  (13) 
energy

$$$$
13:0
     RDKit          3D

 50 54  0  0  0  0  0  0  0  0999 V2000
   -1.5956   25.5949  -24.4221 H   0  0  0  0  0  0  0  0  0  0  0  0
   -1.2210   25.2640  -25.4020 C   0  0  0  0  0  0  0  0  0  0  0  0
   -1.9940   25.4680  -26.5490 C   0  0  0  0  0  0  0  0  0  0  0  0
   -2.9678   25.9734  -26.4695 H   0  0  0  0  0  0  0  0  0  0  0  0
   -1.5350   25.0320  -27.8000 C   0  0  0  0  0  0  0  0  0  0  0  0
   -2.3480   25.2860  -28.9580 N   0  0  0  0  0  0  0  0  0  0  0  0
   -2.8520   24.3960  -29.7610 C   0  0  0  0  0  0  0  0  0  0  0  0
   -2.1080   23.3850  -30.2780 N   0  0  0  0  0  0  0  0  0  0  0  0
   -3.0200   22.7640  -31.0490 C   0  0  0  0  0  0  0  0  0  0  0  0
   -2.8200   21.6270  -31.8220 C   0  0  0  0  0  0  0  0  0  0  0  0
   -1.8386   21.1332  -31.8769 H   0  0  0  0  0  0  0  0  0  0  0  0
   -3.9360   21.1350  -32.5340 C   0  0  0  0  0  0  0  0  0  0  0  0
   -3.8280   19.9370  -33.3890 C   0  0  0  0  0  0  0  0  0  0  0  0
   -2.8080   19.7910  -34.1150 O   0  0  0  0  0  0  0  0  0  0  0  0
   -4.8500   18.9280  -33.3970 N   0  0  0  0  0  0  0  0  0  0  0  0
   -6.2360   19.2840  -33.7250 C   0  0  0  0  0  0  0  0  0  0  0  0
   -6.4302   20.3138  -33.3907 H   0  0  0  0  0  0  0  0  0  0  0  0
   -6.3687   19.1969  -34.8135 H   0  0  0  0  0  0  0  0  0  0  0  0
   -7.2390   18.3320  -33.0330 C   0  0  0  0  0  0  0  0  0  0  0  0
   -7.7870   18.9022  -32.2684 H   0  0  0  0  0  0  0  0  0  0  0  0
   -7.8997   17.9373  -33.8189 H   0  0  0  0  0  0  0  0  0  0  0  0
   -6.6300   17.2140  -32.4060 O   0  0  0  0  0  0  0  0  0  0  0  0
   -5.6900   16.6200  -33.2740 C   0  0  0  0  0  0  0  0  0  0  0  0
   -5.3991   15.6346  -32.8811 H   0  0  0  0  0  0  0  0  0  0  0  0
   -6.1367   16.4985  -34.2719 H   0  0  0  0  0  0  0  0  0  0  0  0
   -4.4540   17.5150  -33.3730 C   0  0  0  0  0  0  0  0  0  0  0  0
   -3.8046   17.3347  -32.5036 H   0  0  0  0  0  0  0  0  0  0  0  0
   -3.9140   17.2785  -34.3017 H   0  0  0  0  0  0  0  0  0  0  0  0
   -5.1340   21.7960  -32.4600 N   0  0  0  0  0  0  0  0  0  0  0  0
   -5.2840   22.9220  -31.7030 C   0  0  0  0  0  0  0  0  0  0  0  0
   -6.6270   23.5980  -31.5910 C   0  0  1  0  0  0  0  0  0  0  0  0
   -6.4801   24.6791  -31.7312 H   0  0  0  0  0  0  0  0  0  0  0  0
   -7.4980   23.0980  -32.5840 O   0  0  0  0  0  0  0  0  0  0  0  0
   -8.5820   22.4740  -31.9350 C   0  0  0  0  0  0  0  0  0  0  0  0
   -8.7758   21.4964  -32.4005 H   0  0  0  0  0  0  0  0  0  0  0  0
   -9.4788   23.1046  -32.0256 H   0  0  0  0  0  0  0  0  0  0  0  0
   -8.2440   22.2800  -30.4740 C   0  0  0  0  0  0  0  0  0  0  0  0
   -7.8069   21.2862  -30.2973 H   0  0  0  0  0  0  0  0  0  0  0  0
   -9.1221   22.3342  -29.8137 H   0  0  0  0  0  0  0  0  0  0  0  0
   -7.2430   23.3620  -30.2170 C   0  0  0  0  0  0  0  0  0  0  0  0
   -6.4819   23.0321  -29.4946 H   0  0  0  0  0  0  0  0  0  0  0  0
   -7.6890   24.2686  -29.7821 H   0  0  0  0  0  0  0  0  0  0  0  0
   -4.2100   23.3660  -31.0030 N   0  0  0  0  0  0  0  0  0  0  0  0
   -4.1340   24.4060  -30.1980 N   0  0  0  0  0  0  0  0  0  0  0  0
   -0.2640   24.4310  -27.8930 C   0  0  0  0  0  0  0  0  0  0  0  0
    0.1238   24.1187  -28.8739 H   0  0  0  0  0  0  0  0  0  0  0  0
    0.5060   24.2300  -26.7440 C   0  0  0  0  0  0  0  0  0  0  0  0
    1.4915   23.7475  -26.8211 H   0  0  0  0  0  0  0  0  0  0  0  0
    0.0260   24.6410  -25.4970 C   0  0  0  0  0  0  0  0  0  0  0  0
    0.7750   24.4470  -24.3840 F   0  0  0  0  0  0  0  0  0  0  0  0
  1  2  1  0
  2  3  2  0
  3  4  1  0
  3  5  1  0
  5  6  1  0
  6  7  2  0
  7  8  1  0
  8  9  2  0
  9 10  1  0
 10 11  1  0
 10 12  2  0
 12 13  1  0
 13 14  2  0
 13 15  1  0
 15 16  1  0
 16 17  1  0
 16 18  1  0
 16 19  1  0
 19 20  1  0
 19 21  1  0
 19 22  1  0
 22 23  1  0
 23 24  1  0
 23 25  1  0
 23 26  1  0
 26 27  1  0
 26 28  1  0
 12 29  1  0
 29 30  2  0
 30 31  1  0
 31 32  1  6
 31 33  1  0
 33 34  1  0
 34 35  1  0
 34 36  1  0
 34 37  1  0
 37 38  1  0
 37 39  1  0
 37 40  1  0
 40 41  1  0
 40 42  1  0
 30 43  1  0
 43 44  1  0
  5 45  2  0
 45 46  1  0
 45 47  1  0
 47 48  1  0
 47 49  2  0
 49 50  1  0
 49  2  1  0
 44  7  1  0
 43  9  1  0
 26 15  1  0
 40 31  1  0
M  CHG  1  44  -1
M  END
>  <UniqueID>  (14) 
14

>  <SMILES>  (14) 
O=C(c1cc2n/c(=N/c3ccc(F)cc3)[n-]n2c([C@@H]2CCCO2)n1)N1CCOCC1

>  <Energy>  (14) 
108.97345219773426

>  <Genealogy>  (14) 
O=C(c1cc2nc(=Nc3ccc(F)cc3)[n-]n2c(C2CCCO2)n1)N1CCOCC1 (protonated)
O=C(c1cc2nc(=Nc3ccc(F)cc3)[n-]n2c([C@@H]2CCCO2)n1)N1CCOCC1 (chirality)
O=C(c1cc2n/c(=N/c3ccc(F)cc3)[n-]n2c([C@@H]2CCCO2)n1)N1CCOCC1 (cis-trans isomerization)
O=C(c1cc2n/c(=N/c3ccc(F)cc3)[n-]n2c([C@@H]2CCCO2)n1)N1CCOCC1 (3D coordinates assigned)
O=C(c1cc2n/c(=N/c3ccc(F)cc3)[n-]n2c([C@@H]2CCCO2)n1)N1CCOCC1 (nonaromatic ring conformer: 108.97345219773426 kcal/mol)

>  <smiles>  (14) 
O=C(c1cc2nc(=Nc3ccc(F)cc3)[nH]n2c(C2CCCO2)n1)N1CCOCC1

>  <score_type>  (14) 
oracle

>  <origin>  (14) 
adg

>  <m_score__min__energy>  (14) 
-9.6199999999999992

>  <m_primary>  (14) 
energy

$$$$
14:0
     RDKit          3D

 50 51  0  0  0  0  0  0  0  0999 V2000
   -2.7340   19.7430  -27.0500 C   0  0  0  0  0  0  0  0  0  0  0  0
   -2.6460   20.4970  -28.3750 C   0  0  0  0  0  0  0  0  0  0  0  0
   -2.0500   21.8360  -28.1640 N   0  0  0  0  0  0  0  0  0  0  0  0
   -1.5810   22.0080  -26.7710 C   0  0  0  0  0  0  0  0  0  0  0  0
   -0.0790   22.2760  -26.7490 C   0  0  0  0  0  0  0  0  0  0  0  0
   -2.9890   22.9150  -28.5520 C   0  0  0  0  0  0  0  0  0  0  0  0
   -2.5700   23.5020  -29.9040 C   0  0  0  0  0  0  0  0  0  0  0  0
   -3.0960   24.8550  -30.0790 N   0  0  0  0  0  0  0  0  0  0  0  0
   -4.4230   25.1920  -30.5070 C   0  0  0  0  0  0  0  0  0  0  0  0
   -4.7860   26.3970  -30.4670 O   0  0  0  0  0  0  0  0  0  0  0  0
   -5.3790   24.1680  -30.9840 C   0  0  0  0  0  0  0  0  0  0  0  0
   -4.9490   23.2160  -31.9200 C   0  0  0  0  0  0  0  0  0  0  0  0
   -5.8090   22.2030  -32.3660 C   0  0  0  0  0  0  0  0  0  0  0  0
   -5.3180   21.2220  -33.2940 N   0  0  0  0  0  0  0  0  0  0  0  0
   -5.4470   19.5120  -33.0370 S   0  0  0  0  0  0  0  0  0  0  0  0
   -4.4810   19.0770  -31.9710 O   0  0  0  0  0  0  0  0  0  0  0  0
   -5.1480   18.7770  -34.3140 O   0  0  0  0  0  0  0  0  0  0  0  0
   -7.0810   19.1290  -32.5310 C   0  0  0  0  0  0  0  0  0  0  0  0
   -8.2370   19.7220  -33.0140 C   0  0  0  0  0  0  0  0  0  0  0  0
   -9.4000   19.1900  -32.4450 C   0  0  0  0  0  0  0  0  0  0  0  0
   -9.1570   18.1790  -31.5220 C   0  0  0  0  0  0  0  0  0  0  0  0
   -7.4940   17.9450  -31.4140 S   0  0  0  0  0  0  0  0  0  0  0  0
   -7.1350   22.1810  -31.9050 C   0  0  0  0  0  0  0  0  0  0  0  0
   -7.5830   23.1420  -30.9960 C   0  0  0  0  0  0  0  0  0  0  0  0
   -6.7130   24.1340  -30.5160 C   0  0  0  0  0  0  0  0  0  0  0  0
   -7.2210   25.1400  -29.5170 C   0  0  0  0  0  0  0  0  0  0  0  0
   -2.6508   20.4558  -26.2163 H   0  0  0  0  0  0  0  0  0  0  0  0
   -3.6994   19.2192  -26.9896 H   0  0  0  0  0  0  0  0  0  0  0  0
   -1.9152   19.0109  -26.9896 H   0  0  0  0  0  0  0  0  0  0  0  0
   -2.0191   19.9269  -29.0763 H   0  0  0  0  0  0  0  0  0  0  0  0
   -3.6587   20.6163  -28.7875 H   0  0  0  0  0  0  0  0  0  0  0  0
   -2.1083   22.8576  -26.3126 H   0  0  0  0  0  0  0  0  0  0  0  0
   -1.7892   21.0873  -26.2063 H   0  0  0  0  0  0  0  0  0  0  0  0
    0.2672   22.3378  -25.7067 H   0  0  0  0  0  0  0  0  0  0  0  0
    0.4471   21.4575  -27.2622 H   0  0  0  0  0  0  0  0  0  0  0  0
    0.1315   23.2259  -27.2622 H   0  0  0  0  0  0  0  0  0  0  0  0
   -4.0061   22.5037  -28.6312 H   0  0  0  0  0  0  0  0  0  0  0  0
   -2.9695   23.7070  -27.7889 H   0  0  0  0  0  0  0  0  0  0  0  0
   -1.4717   23.5345  -29.9561 H   0  0  0  0  0  0  0  0  0  0  0  0
   -2.9775   22.8640  -30.7020 H   0  0  0  0  0  0  0  0  0  0  0  0
   -3.9216   23.2651  -32.3099 H   0  0  0  0  0  0  0  0  0  0  0  0
   -4.7430   21.5360  -34.1080 H   0  0  0  0  0  0  0  0  0  0  0  0
   -8.2401   20.5257  -33.7650 H   0  0  0  0  0  0  0  0  0  0  0  0
  -10.4107   19.5388  -32.7036 H   0  0  0  0  0  0  0  0  0  0  0  0
   -9.9223   17.6257  -30.9578 H   0  0  0  0  0  0  0  0  0  0  0  0
   -7.8251   21.4023  -32.2619 H   0  0  0  0  0  0  0  0  0  0  0  0
   -8.6279   23.1215  -30.6527 H   0  0  0  0  0  0  0  0  0  0  0  0
   -7.0346   24.7708  -28.4977 H   0  0  0  0  0  0  0  0  0  0  0  0
   -6.6980   26.0968  -29.6618 H   0  0  0  0  0  0  0  0  0  0  0  0
   -8.3015   25.2871  -29.6618 H   0  0  0  0  0  0  0  0  0  0  0  0
  1  2  1  0
  2  3  1  0
  3  4  1  0
  4  5  1  0
  3  6  1  0
  6  7  1  0
  7  8  1  0
  8  9  1  0
  9 10  2  0
  9 11  1  0
 11 12  2  0
 12 13  1  0
 13 14  1  0
 14 15  1  0
 15 16  2  0
 15 17  2  0
 15 18  1  0
 18 19  2  0
 19 20  1  0
 20 21  2  0
 21 22  1  0
 13 23  2  0
 23 24  1  0
 24 25  2  0
 25 26  1  0
 25 11  1  0
 22 18  1  0
  1 27  1  0
  1 28  1  0
  1 29  1  0
  2 30  1  0
  2 31  1  0
  4 32  1  0
  4 33  1  0
  5 34  1  0
  5 35  1  0
  5 36  1  0
  6 37  1  0
  6 38  1  0
  7 39  1  0
  7 40  1  0
 12 41  1  0
 14 42  1  0
 19 43  1  0
 20 44  1  0
 21 45  1  0
 23 46  1  0
 24 47  1  0
 26 48  1  0
 26 49  1  0
 26 50  1  0
M  CHG  1   8  -1
M  END
>  <UniqueID>  (15) 
15

>  <SMILES>  (15) 
CCN(CC)CC[N-]C(=O)c1cc(NS(=O)(=O)c2cccs2)ccc1C

>  <Energy>  (15) 
79.17854594041195

>  <Genealogy>  (15) 
CCN(CC)CC[N-]C(=O)c1cc(NS(=O)(=O)c2cccs2)ccc1C (protonated)
CCN(CC)CC[N-]C(=O)c1cc(NS(=O)(=O)c2cccs2)ccc1C (3D coordinates assigned)
CCN(CC)CC[N-]C(=O)c1cc(NS(=O)(=O)c2cccs2)ccc1C (optimized conformer: 79.17854594041195 kcal/mol)

>  <smiles>  (15) 
CCN(CC)CCNC(=O)c1cc(NS(=O)(=O)c2cccs2)ccc1C

>  <score_type>  (15) 
oracle

>  <origin>  (15) 
adg

>  <m_score__min__energy>  (15) 
-9.6099999999999994

>  <m_primary>  (15) 
energy

$$$$
15:0
     RDKit          3D

 40 43  0  0  0  0  0  0  0  0999 V2000
   -5.4000   18.5280  -34.4890 C   0  0  0  0  0  0  0  0  0  0  0  0
   -5.0120   18.8660  -33.0550 C   0  0  0  0  0  0  0  0  0  0  0  0
   -5.7840   20.0120  -32.5770 N   0  0  0  0  0  0  0  0  0  0  0  0
   -7.1340   20.1430  -32.4640 C   0  0  0  0  0  0  0  0  0  0  0  0
   -8.1230   19.2330  -32.8470 C   0  0  0  0  0  0  0  0  0  0  0  0
   -9.4660   19.5740  -32.6030 C   0  0  0  0  0  0  0  0  0  0  0  0
   -9.8000   20.7970  -31.9790 C   0  0  0  0  0  0  0  0  0  0  0  0
   -8.7940   21.6990  -31.5880 C   0  0  0  0  0  0  0  0  0  0  0  0
   -7.4740   21.3440  -31.8490 C   0  0  0  0  0  0  0  0  0  0  0  0
   -6.2820   21.9630  -31.5680 C   0  0  0  0  0  0  0  0  0  0  0  0
   -5.8380   23.1080  -30.9210 C   0  0  0  0  0  0  0  0  0  0  0  0
   -4.4290   23.1350  -30.8970 C   0  0  0  0  0  0  0  0  0  0  0  0
   -3.6330   24.1850  -30.2300 C   0  0  0  0  0  0  0  0  0  0  0  0
   -3.8630   25.3910  -30.5170 O   0  0  0  0  0  0  0  0  0  0  0  0
   -2.6030   23.8700  -29.2720 N   0  0  0  0  0  0  0  0  0  0  0  0
   -1.7000   22.7300  -29.4810 C   0  0  0  0  0  0  0  0  0  0  0  0
   -0.3530   22.9910  -28.7990 C   0  0  0  0  0  0  0  0  0  0  0  0
   -0.0160   24.3560  -28.9270 O   0  0  0  0  0  0  0  0  0  0  0  0
   -0.8400   25.1490  -28.0840 C   0  0  0  0  0  0  0  0  0  0  0  0
   -2.3380   24.7720  -28.1440 C   0  0  0  0  0  0  0  0  0  0  0  0
   -3.7910   21.7240  -31.6430 S   0  0  0  0  0  0  0  0  0  0  0  0
   -5.3140   21.1410  -32.0120 C   0  0  0  0  0  0  0  0  0  0  0  0
   -6.2294   17.8055  -34.4838 H   0  0  0  0  0  0  0  0  0  0  0  0
   -5.7153   19.4445  -35.0093 H   0  0  0  0  0  0  0  0  0  0  0  0
   -4.5354   18.0900  -35.0093 H   0  0  0  0  0  0  0  0  0  0  0  0
   -5.2141   17.9980  -32.4102 H   0  0  0  0  0  0  0  0  0  0  0  0
   -3.9416   19.1176  -33.0238 H   0  0  0  0  0  0  0  0  0  0  0  0
   -7.8592   18.2781  -33.3252 H   0  0  0  0  0  0  0  0  0  0  0  0
  -10.2657   18.8802  -32.9016 H   0  0  0  0  0  0  0  0  0  0  0  0
  -10.8560   21.0459  -31.7974 H   0  0  0  0  0  0  0  0  0  0  0  0
   -9.0416   22.6501  -31.0940 H   0  0  0  0  0  0  0  0  0  0  0  0
   -6.4906   23.8815  -30.4899 H   0  0  0  0  0  0  0  0  0  0  0  0
   -2.1540   21.8236  -29.0540 H   0  0  0  0  0  0  0  0  0  0  0  0
   -1.5360   22.5947  -30.5603 H   0  0  0  0  0  0  0  0  0  0  0  0
   -0.4254   22.7298  -27.7329 H   0  0  0  0  0  0  0  0  0  0  0  0
    0.4242   22.3757  -29.2759 H   0  0  0  0  0  0  0  0  0  0  0  0
   -0.4932   25.0288  -27.0471 H   0  0  0  0  0  0  0  0  0  0  0  0
   -0.7560   26.1872  -28.4377 H   0  0  0  0  0  0  0  0  0  0  0  0
   -2.6217   24.2708  -27.2068 H   0  0  0  0  0  0  0  0  0  0  0  0
   -2.9279   25.6904  -28.2803 H   0  0  0  0  0  0  0  0  0  0  0  0
  1  2  1  0
  2  3  1  0
  3  4  1  0
  4  5  2  0
  5  6  1  0
  6  7  2  0
  7  8  1  0
  8  9  2  0
  9 10  1  0
 10 11  1  0
 11 12  2  0
 12 13  1  0
 13 14  2  0
 13 15  1  0
 15 16  1  0
 16 17  1  0
 17 18  1  0
 18 19  1  0
 19 20  1  0
 12 21  1  0
 21 22  1  0
 22  3  1  0
  9  4  1  0
 22 10  2  0
 20 15  1  0
  1 23  1  0
  1 24  1  0
  1 25  1  0
  2 26  1  0
  2 27  1  0
  5 28  1  0
  6 29  1  0
  7 30  1  0
  8 31  1  0
 11 32  1  0
 16 33  1  0
 16 34  1  0
 17 35  1  0
 17 36  1  0
 19 37  1  0
 19 38  1  0
 20 39  1  0
 20 40  1  0
M  END
>  <UniqueID>  (16) 
16

>  <SMILES>  (16) 
CCn1c2ccccc2c2cc(C(=O)N3CCOCC3)sc21

>  <Energy>  (16) 
132.5755441978462

>  <Genealogy>  (16) 
CCn1c2ccccc2c2cc(C(=O)N3CCOCC3)sc21 (3D coordinates assigned)
CCn1c2ccccc2c2cc(C(=O)N3CCOCC3)sc21 (nonaromatic ring conformer: 132.5755441978462 kcal/mol)

>  <smiles>  (16) 
CCn1c2ccccc2c2cc(C(=O)N3CCOCC3)sc21

>  <score_type>  (16) 
oracle

>  <origin>  (16) 
adg

>  <m_score__min__energy>  (16) 
-9.2300000000000004

>  <m_primary>  (16) 
energy

$$$$
16:0
     RDKit          3D

 41 43  0  0  0  0  0  0  0  0999 V2000
   -1.6020   25.1030  -28.1760 C   0  0  0  0  0  0  0  0  0  0  0  0
   -2.3720   25.2400  -29.3670 O   0  0  0  0  0  0  0  0  0  0  0  0
   -3.2150   24.2460  -29.8860 C   0  0  0  0  0  0  0  0  0  0  0  0
   -2.6390   23.0520  -30.3150 C   0  0  0  0  0  0  0  0  0  0  0  0
   -3.4280   22.0340  -30.8470 C   0  0  0  0  0  0  0  0  0  0  0  0
   -4.8230   22.1830  -30.9600 C   0  0  0  0  0  0  0  0  0  0  0  0
   -5.4280   23.3920  -30.5070 C   0  0  0  0  0  0  0  0  0  0  0  0
   -4.6060   24.4130  -29.9900 C   0  0  0  0  0  0  0  0  0  0  0  0
   -6.9170   23.6870  -30.6410 C   0  0  0  0  0  0  0  0  0  0  0  0
   -7.8750   22.5720  -30.1780 C   0  0  0  0  0  0  0  0  0  0  0  0
   -8.0960   21.5820  -31.2500 N   0  0  0  0  0  0  0  0  0  0  0  0
   -9.3360   21.8770  -31.9870 C   0  0  0  0  0  0  0  0  0  0  0  0
   -6.9530   21.5450  -32.1880 C   0  0  0  0  0  0  0  0  0  0  0  0
   -5.6290   21.0260  -31.5460 C   0  0  1  0  0  0  0  0  0  0  0  0
   -4.8170   20.0720  -32.4320 C   0  0  0  0  0  0  0  0  0  0  0  0
   -5.2200   18.7370  -32.6740 C   0  0  0  0  0  0  0  0  0  0  0  0
   -4.4830   17.9080  -33.5240 C   0  0  0  0  0  0  0  0  0  0  0  0
   -3.3590   18.4030  -34.1830 C   0  0  0  0  0  0  0  0  0  0  0  0
   -2.9820   19.7340  -34.0120 C   0  0  0  0  0  0  0  0  0  0  0  0
   -3.7150   20.5670  -33.1620 C   0  0  0  0  0  0  0  0  0  0  0  0
   -2.2573   25.2196  -27.3003 H   0  0  0  0  0  0  0  0  0  0  0  0
   -1.1344   24.1076  -28.1541 H   0  0  0  0  0  0  0  0  0  0  0  0
   -0.8198   25.8761  -28.1541 H   0  0  0  0  0  0  0  0  0  0  0  0
   -1.5511   22.9116  -30.2329 H   0  0  0  0  0  0  0  0  0  0  0  0
   -2.9536   21.1003  -31.1835 H   0  0  0  0  0  0  0  0  0  0  0  0
   -5.0620   25.3586  -29.6616 H   0  0  0  0  0  0  0  0  0  0  0  0
   -7.1360   24.5862  -30.0465 H   0  0  0  0  0  0  0  0  0  0  0  0
   -7.0987   23.8027  -31.7197 H   0  0  0  0  0  0  0  0  0  0  0  0
   -7.4400   22.0645  -29.3044 H   0  0  0  0  0  0  0  0  0  0  0  0
   -8.8420   23.0277  -29.9187 H   0  0  0  0  0  0  0  0  0  0  0  0
  -10.1498   22.0706  -31.2727 H   0  0  0  0  0  0  0  0  0  0  0  0
   -9.1844   22.7642  -32.6194 H   0  0  0  0  0  0  0  0  0  0  0  0
   -9.6002   21.0166  -32.6194 H   0  0  0  0  0  0  0  0  0  0  0  0
   -7.2142   20.8836  -33.0272 H   0  0  0  0  0  0  0  0  0  0  0  0
   -6.7688   22.5805  -32.5101 H   0  0  0  0  0  0  0  0  0  0  0  0
   -5.9181   20.3762  -30.7069 H   0  0  0  0  0  0  0  0  0  0  0  0
   -6.1255   18.3467  -32.1864 H   0  0  0  0  0  0  0  0  0  0  0  0
   -4.7906   16.8625  -33.6733 H   0  0  0  0  0  0  0  0  0  0  0  0
   -2.7699   17.7438  -34.8375 H   0  0  0  0  0  0  0  0  0  0  0  0
   -2.1060   20.1295  -34.5470 H   0  0  0  0  0  0  0  0  0  0  0  0
   -3.4287   21.6242  -33.0604 H   0  0  0  0  0  0  0  0  0  0  0  0
  1  2  1  0
  2  3  1  0
  3  4  2  0
  4  5  1  0
  5  6  2  0
  6  7  1  0
  7  8  2  0
  7  9  1  0
  9 10  1  0
 10 11  1  0
 11 12  1  0
 11 13  1  0
 13 14  1  0
 14 15  1  0
 15 16  2  0
 16 17  1  0
 17 18  2  0
 18 19  1  0
 19 20  2  0
  8  3  1  0
 20 15  1  0
 14  6  1  0
  1 21  1  0
  1 22  1  0
  1 23  1  0
  4 24  1  0
  5 25  1  0
  8 26  1  0
  9 27  1  0
  9 28  1  0
 10 29  1  0
 10 30  1  0
 12 31  1  0
 12 32  1  0
 12 33  1  0
 13 34  1  0
 13 35  1  0
 14 36  1  1
 16 37  1  0
 17 38  1  0
 18 39  1  0
 19 40  1  0
 20 41  1  0
M  END
>  <UniqueID>  (17) 
17

>  <SMILES>  (17) 
COc1ccc2c(c1)CCN(C)C[C@H]2c1ccccc1

>  <Energy>  (17) 
61.82926443495748

>  <Genealogy>  (17) 
COc1ccc2c(c1)CCN(C)C[C@H]2c1ccccc1 (chirality)
COc1ccc2c(c1)CCN(C)C[C@H]2c1ccccc1 (3D coordinates assigned)
COc1ccc2c(c1)CCN(C)C[C@H]2c1ccccc1 (nonaromatic ring conformer: 61.82926443495748 kcal/mol)

>  <smiles>  (17) 
COc1ccc2c(c1)CCN(C)CC2c1ccccc1

>  <score_type>  (17) 
oracle

>  <origin>  (17) 
adg

>  <m_score__min__energy>  (17) 
-6.1500000000000004

>  <m_primary>  (17) 
energy

$$$$
17:0
     RDKit          3D

 31 32  0  0  0  0  0  0  0  0999 V2000
   -9.4800   20.6690  -32.0040 C   0  0  0  0  0  0  0  0  0  0  0  0
   -8.4910   21.6580  -32.2750 O   0  0  0  0  0  0  0  0  0  0  0  0
   -7.1110   21.4100  -32.3490 C   0  0  0  0  0  0  0  0  0  0  0  0
   -6.5930   20.3450  -33.1130 C   0  0  0  0  0  0  0  0  0  0  0  0
   -5.2180   20.1200  -33.1800 C   0  0  0  0  0  0  0  0  0  0  0  0
   -4.3370   20.9540  -32.4880 C   0  0  0  0  0  0  0  0  0  0  0  0
   -2.9530   20.7570  -32.5470 C   0  0  0  0  0  0  0  0  0  0  0  0
   -2.1070   21.6150  -31.8470 C   0  0  0  0  0  0  0  0  0  0  0  0
   -2.6670   22.6560  -31.1030 C   0  0  0  0  0  0  0  0  0  0  0  0
   -1.9220   23.4440  -30.4640 O   0  0  0  0  0  0  0  0  0  0  0  0
   -3.9870   22.8200  -31.0630 O   0  0  0  0  0  0  0  0  0  0  0  0
   -4.8360   22.0260  -31.7140 C   0  0  0  0  0  0  0  0  0  0  0  0
   -6.2270   22.2520  -31.6370 C   0  0  0  0  0  0  0  0  0  0  0  0
   -6.7720   23.4140  -30.8320 C   0  0  0  0  0  0  0  0  0  0  0  0
   -6.0910   24.7410  -31.1990 C   0  0  0  0  0  0  0  0  0  0  0  0
   -5.0780   25.1940  -30.1410 C   0  0  0  0  0  0  0  0  0  0  0  0
   -3.9150   25.6740  -30.7590 O   0  0  0  0  0  0  0  0  0  0  0  0
   -9.5950   20.5540  -30.9161 H   0  0  0  0  0  0  0  0  0  0  0  0
  -10.4394   20.9798  -32.4433 H   0  0  0  0  0  0  0  0  0  0  0  0
   -9.1692   19.7096  -32.4433 H   0  0  0  0  0  0  0  0  0  0  0  0
   -7.2801   19.6844  -33.6621 H   0  0  0  0  0  0  0  0  0  0  0  0
   -4.8269   19.2843  -33.7789 H   0  0  0  0  0  0  0  0  0  0  0  0
   -2.5358   19.9309  -33.1416 H   0  0  0  0  0  0  0  0  0  0  0  0
   -1.0165   21.4748  -31.8798 H   0  0  0  0  0  0  0  0  0  0  0  0
   -7.8512   23.5039  -31.0249 H   0  0  0  0  0  0  0  0  0  0  0  0
   -6.5719   23.2132  -29.7692 H   0  0  0  0  0  0  0  0  0  0  0  0
   -5.5669   24.6151  -32.1579 H   0  0  0  0  0  0  0  0  0  0  0  0
   -6.8736   25.5113  -31.2636 H   0  0  0  0  0  0  0  0  0  0  0  0
   -5.5225   25.9946  -29.5315 H   0  0  0  0  0  0  0  0  0  0  0  0
   -4.8178   24.3367  -29.5027 H   0  0  0  0  0  0  0  0  0  0  0  0
   -3.4830   24.8940  -31.1960 H   0  0  0  0  0  0  0  0  0  0  0  0
  1  2  1  0
  2  3  1  0
  3  4  2  0
  4  5  1  0
  5  6  2  0
  6  7  1  0
  7  8  2  0
  8  9  1  0
  9 10  2  0
  9 11  1  0
 11 12  1  0
 12 13  2  0
 13 14  1  0
 14 15  1  0
 15 16  1  0
 16 17  1  0
 13  3  1  0
 12  6  1  0
  1 18  1  0
  1 19  1  0
  1 20  1  0
  4 21  1  0
  5 22  1  0
  7 23  1  0
  8 24  1  0
 14 25  1  0
 14 26  1  0
 15 27  1  0
 15 28  1  0
 16 29  1  0
 16 30  1  0
 17 31  1  0
M  END
>  <UniqueID>  (18) 
18

>  <SMILES>  (18) 
COc1ccc2ccc(=O)oc2c1CCCO

>  <Energy>  (18) 
31.033618846260655

>  <Genealogy>  (18) 
COc1ccc2ccc(=O)oc2c1CCCO (3D coordinates assigned)
COc1ccc2ccc(=O)oc2c1CCCO (optimized conformer: 31.033618846260655 kcal/mol)

>  <smiles>  (18) 
COc1ccc2ccc(=O)oc2c1CCCO

>  <score_type>  (18) 
oracle

>  <origin>  (18) 
adg

>  <m_score__min__energy>  (18) 
-6.8600000000000003

>  <m_primary>  (18) 
energy

$$$$
18:0
     RDKit          3D

 34 36  0  0  0  0  0  0  0  0999 V2000
   -3.4820   26.0410  -31.2480 H   0  0  0  0  0  0  0  0  0  0  0  0
   -3.8660   25.3910  -30.5260 N   0  0  0  0  0  0  0  0  0  0  0  0
   -5.1220   24.7460  -30.7140 C   0  0  0  0  0  0  0  0  0  0  0  0
   -6.1850   25.3920  -30.5190 O   0  0  0  0  0  0  0  0  0  0  0  0
   -5.1930   23.3340  -31.1230 C   0  0  0  0  0  0  0  0  0  0  0  0
   -4.1230   22.6420  -31.5780 N   0  0  0  0  0  0  0  0  0  0  0  0
   -4.5340   21.4290  -31.9220 N   0  0  0  0  0  0  0  0  0  0  0  0
   -3.6590   20.4180  -32.5030 C   0  0  0  0  0  0  0  0  0  0  0  0
   -3.1684   19.8512  -31.6980 H   0  0  0  0  0  0  0  0  0  0  0  0
   -4.2533   19.7322  -33.1247 H   0  0  0  0  0  0  0  0  0  0  0  0
   -2.8950   20.9077  -33.1247 H   0  0  0  0  0  0  0  0  0  0  0  0
   -5.8620   21.3370  -31.7030 C   0  0  0  0  0  0  0  0  0  0  0  0
   -6.3140   22.5150  -31.1700 C   0  0  0  0  0  0  0  0  0  0  0  0
   -7.7730   22.8080  -30.9620 C   0  0  0  0  0  0  0  0  0  0  0  0
   -8.1637   23.3321  -31.8467 H   0  0  0  0  0  0  0  0  0  0  0  0
   -7.8787   23.4336  -30.0634 H   0  0  0  0  0  0  0  0  0  0  0  0
   -8.5800   21.5030  -30.7500 C   0  0  0  0  0  0  0  0  0  0  0  0
   -9.6380   21.7092  -30.9694 H   0  0  0  0  0  0  0  0  0  0  0  0
   -8.4211   21.1921  -29.7069 H   0  0  0  0  0  0  0  0  0  0  0  0
   -8.1220   20.3520  -31.6320 C   0  0  0  0  0  0  0  0  0  0  0  0
   -6.7790   20.2360  -32.0300 C   0  0  0  0  0  0  0  0  0  0  0  0
   -6.3700   19.1540  -32.7390 N   0  0  0  0  0  0  0  0  0  0  0  0
   -7.2390   18.1560  -33.0630 C   0  0  0  0  0  0  0  0  0  0  0  0
   -6.8440   17.1190  -33.7380 N   0  0  0  0  0  0  0  0  0  0  0  0
   -5.4450   16.7600  -33.9770 C   0  0  0  0  0  0  0  0  0  0  0  0
   -5.3996   15.7434  -34.3947 H   0  0  0  0  0  0  0  0  0  0  0  0
   -4.9007   16.8057  -33.0222 H   0  0  0  0  0  0  0  0  0  0  0  0
   -4.7970   17.7330  -34.9570 C   0  0  0  0  0  0  0  0  0  0  0  0
   -4.2719   18.5214  -34.3978 H   0  0  0  0  0  0  0  0  0  0  0  0
   -4.0784   17.1918  -35.5899 H   0  0  0  0  0  0  0  0  0  0  0  0
   -5.5734   18.1875  -35.5899 H   0  0  0  0  0  0  0  0  0  0  0  0
   -8.5360   18.2410  -32.6670 N   0  0  0  0  0  0  0  0  0  0  0  0
   -8.9920   19.3070  -31.9590 C   0  0  0  0  0  0  0  0  0  0  0  0
  -10.0449   19.3482  -31.6431 H   0  0  0  0  0  0  0  0  0  0  0  0
  1  2  1  0
  2  3  1  0
  3  4  2  0
  3  5  1  0
  5  6  2  0
  6  7  1  0
  7  8  1  0
  8  9  1  0
  8 10  1  0
  8 11  1  0
  7 12  1  0
 12 13  2  0
 13 14  1  0
 14 15  1  0
 14 16  1  0
 14 17  1  0
 17 18  1  0
 17 19  1  0
 17 20  1  0
 20 21  1  0
 21 22  2  0
 22 23  1  0
 23 24  2  0
 24 25  1  0
 25 26  1  0
 25 27  1  0
 25 28  1  0
 28 29  1  0
 28 30  1  0
 28 31  1  0
 23 32  1  0
 32 33  1  0
 33 34  1  0
 13  5  1  0
 33 20  2  0
 21 12  1  0
M  CHG  2   2  -1  32  -1
M  END
>  <UniqueID>  (19) 
19

>  <SMILES>  (19) 
CC/N=c1\nc2c(c[n-]1)CCc1c(C([NH-])=O)nn(C)c1-2

>  <Energy>  (19) 
68.5356314460853

>  <Genealogy>  (19) 
CCN=c1nc2c(c[n-]1)CCc1c(C([NH-])=O)nn(C)c1-2 (protonated)
CC/N=c1\nc2c(c[n-]1)CCc1c(C([NH-])=O)nn(C)c1-2 (cis-trans isomerization)
CC/N=c1\nc2c(c[n-]1)CCc1c(C([NH-])=O)nn(C)c1-2 (3D coordinates assigned)
CC/N=c1\nc2c(c[n-]1)CCc1c(C([NH-])=O)nn(C)c1-2 (nonaromatic ring conformer: 68.5356314460853 kcal/mol)

>  <smiles>  (19) 
CCN=c1nc2c(c[nH]1)CCc1c(C(N)=O)nn(C)c1-2

>  <score_type>  (19) 
oracle

>  <origin>  (19) 
adg

>  <m_score__min__energy>  (19) 
-10.42

>  <m_primary>  (19) 
energy

$$$$
19:0
     RDKit          3D

 49 51  0  0  0  0  0  0  0  0999 V2000
   -9.1280   18.5570  -31.6080 C   0  0  0  0  0  0  0  0  0  0  0  0
   -7.7480   18.7560  -32.1610 C   0  0  0  0  0  0  0  0  0  0  0  0
   -7.4850   19.8180  -33.0380 C   0  0  0  0  0  0  0  0  0  0  0  0
   -6.1990   20.0040  -33.5550 C   0  0  0  0  0  0  0  0  0  0  0  0
   -5.1530   19.1480  -33.1780 C   0  0  0  0  0  0  0  0  0  0  0  0
   -3.7740   19.3430  -33.7540 C   0  0  0  0  0  0  0  0  0  0  0  0
   -2.7350   19.1170  -32.7200 N   0  0  0  0  0  0  0  0  0  0  0  0
   -1.7630   18.1230  -33.2110 C   0  0  0  0  0  0  0  0  0  0  0  0
   -2.0590   20.3950  -32.3930 C   0  0  0  0  0  0  0  0  0  0  0  0
   -2.5950   21.0640  -31.1130 C   0  0  0  0  0  0  0  0  0  0  0  0
   -2.4150   22.5920  -31.0490 C   0  0  0  0  0  0  0  0  0  0  0  0
   -3.5390   23.2800  -30.3970 N   0  0  0  0  0  0  0  0  0  0  0  0
   -3.4950   24.0870  -29.2980 C   0  0  0  0  0  0  0  0  0  0  0  0
   -2.2470   24.4340  -28.5420 C   0  0  0  0  0  0  0  0  0  0  0  0
   -1.7800   25.6670  -28.9570 F   0  0  0  0  0  0  0  0  0  0  0  0
   -4.7020   24.6250  -28.9970 N   0  0  0  0  0  0  0  0  0  0  0  0
   -5.5280   24.1390  -29.9350 C   0  0  0  0  0  0  0  0  0  0  0  0
   -6.8870   24.3950  -30.0960 C   0  0  0  0  0  0  0  0  0  0  0  0
   -7.5360   23.8050  -31.1950 C   0  0  0  0  0  0  0  0  0  0  0  0
   -6.8140   22.9980  -32.1040 C   0  0  0  0  0  0  0  0  0  0  0  0
   -5.4380   22.7650  -31.9150 C   0  0  0  0  0  0  0  0  0  0  0  0
   -4.8280   23.3390  -30.7960 C   0  0  0  0  0  0  0  0  0  0  0  0
   -5.4100   18.1080  -32.2680 C   0  0  0  0  0  0  0  0  0  0  0  0
   -6.6980   17.9140  -31.7640 C   0  0  0  0  0  0  0  0  0  0  0  0
   -9.0869   18.5629  -30.5088 H   0  0  0  0  0  0  0  0  0  0  0  0
   -9.7828   19.3700  -31.9548 H   0  0  0  0  0  0  0  0  0  0  0  0
   -9.5264   17.5921  -31.9548 H   0  0  0  0  0  0  0  0  0  0  0  0
   -8.2938   20.5079  -33.3206 H   0  0  0  0  0  0  0  0  0  0  0  0
   -6.0065   20.8255  -34.2608 H   0  0  0  0  0  0  0  0  0  0  0  0
   -3.6234   18.6305  -34.5785 H   0  0  0  0  0  0  0  0  0  0  0  0
   -3.6878   20.3765  -34.1208 H   0  0  0  0  0  0  0  0  0  0  0  0
   -1.2798   17.6289  -32.3552 H   0  0  0  0  0  0  0  0  0  0  0  0
   -2.2842   17.3713  -33.8221 H   0  0  0  0  0  0  0  0  0  0  0  0
   -0.9999   18.6272  -33.8221 H   0  0  0  0  0  0  0  0  0  0  0  0
   -0.9854   20.1965  -32.2587 H   0  0  0  0  0  0  0  0  0  0  0  0
   -2.2546   21.0867  -33.2257 H   0  0  0  0  0  0  0  0  0  0  0  0
   -3.6703   20.8443  -31.0385 H   0  0  0  0  0  0  0  0  0  0  0  0
   -2.0044   20.6513  -30.2818 H   0  0  0  0  0  0  0  0  0  0  0  0
   -1.4960   22.8127  -30.4862 H   0  0  0  0  0  0  0  0  0  0  0  0
   -2.3630   22.9591  -32.0846 H   0  0  0  0  0  0  0  0  0  0  0  0
   -2.4696   24.4705  -27.4654 H   0  0  0  0  0  0  0  0  0  0  0  0
   -1.4796   23.6697  -28.7342 H   0  0  0  0  0  0  0  0  0  0  0  0
   -4.9340   25.2940  -28.2290 H   0  0  0  0  0  0  0  0  0  0  0  0
   -7.4336   25.0360  -29.3886 H   0  0  0  0  0  0  0  0  0  0  0  0
   -8.6123   23.9724  -31.3485 H   0  0  0  0  0  0  0  0  0  0  0  0
   -7.3307   22.5489  -32.9650 H   0  0  0  0  0  0  0  0  0  0  0  0
   -4.8626   22.1519  -32.6242 H   0  0  0  0  0  0  0  0  0  0  0  0
   -4.5926   17.4436  -31.9512 H   0  0  0  0  0  0  0  0  0  0  0  0
   -6.8902   17.0974  -31.0525 H   0  0  0  0  0  0  0  0  0  0  0  0
  1  2  1  0
  2  3  2  0
  3  4  1  0
  4  5  2  0
  5  6  1  0
  6  7  1  0
  7  8  1  0
  7  9  1  0
  9 10  1  0
 10 11  1  0
 11 12  1  0
 12 13  1  0
 13 14  1  0
 14 15  1  0
 13 16  2  0
 16 17  1  0
 17 18  2  0
 18 19  1  0
 19 20  2  0
 20 21  1  0
 21 22  2  0
  5 23  1  0
 23 24  2  0
 24  2  1  0
 22 12  1  0
 22 17  1  0
  1 25  1  0
  1 26  1  0
  1 27  1  0
  3 28  1  0
  4 29  1  0
  6 30  1  0
  6 31  1  0
  8 32  1  0
  8 33  1  0
  8 34  1  0
  9 35  1  0
  9 36  1  0
 10 37  1  0
 10 38  1  0
 11 39  1  0
 11 40  1  0
 14 41  1  0
 14 42  1  0
 16 43  1  0
 18 44  1  0
 19 45  1  0
 20 46  1  0
 21 47  1  0
 23 48  1  0
 24 49  1  0
M  CHG  1  16   1
M  END
>  <UniqueID>  (20) 
20

>  <SMILES>  (20) 
Cc1ccc(CN(C)CCCn2c(CF)[nH+]c3ccccc32)cc1

>  <Energy>  (20) 
81.67917527313348

>  <Genealogy>  (20) 
Cc1ccc(CN(C)CCCn2c(CF)[nH+]c3ccccc32)cc1 (protonated)
Cc1ccc(CN(C)CCCn2c(CF)[nH+]c3ccccc32)cc1 (3D coordinates assigned)
Cc1ccc(CN(C)CCCn2c(CF)[nH+]c3ccccc32)cc1 (optimized conformer: 81.67917527313348 kcal/mol)

>  <smiles>  (20) 
Cc1ccc(CN(C)CCCn2c(CF)nc3ccccc32)cc1

>  <score_type>  (20) 
oracle

>  <origin>  (20) 
adg

>  <m_score__min__energy>  (20) 
-7.3300000000000001

>  <m_primary>  (20) 
energy

$$$$
20:0
     RDKit          3D

 42 44  0  0  0  0  0  0  0  0999 V2000
   -0.2560   20.6086  -32.9390 H   0  0  0  0  0  0  0  0  0  0  0  0
   -1.3150   20.8020  -32.7130 C   0  0  0  0  0  0  0  0  0  0  0  0
   -2.2580   20.8250  -33.7460 C   0  0  0  0  0  0  0  0  0  0  0  0
   -1.9402   20.6452  -34.7836 H   0  0  0  0  0  0  0  0  0  0  0  0
   -3.6030   21.0760  -33.4620 C   0  0  0  0  0  0  0  0  0  0  0  0
   -4.3430   21.0833  -34.2758 H   0  0  0  0  0  0  0  0  0  0  0  0
   -4.0130   21.3190  -32.1410 C   0  0  0  0  0  0  0  0  0  0  0  0
   -5.4430   21.5490  -31.8430 C   0  0  0  0  0  0  0  0  0  0  0  0
   -5.7410   22.7760  -31.3130 N   0  0  0  0  0  0  0  0  0  0  0  0
   -6.9670   23.2500  -30.9890 C   0  0  0  0  0  0  0  0  0  0  0  0
   -7.0790   24.4490  -30.4950 N   0  0  0  0  0  0  0  0  0  0  0  0
   -6.0220   25.4600  -30.4410 C   0  0  0  0  0  0  0  0  0  0  0  0
   -6.4120   26.3658  -29.9537 H   0  0  0  0  0  0  0  0  0  0  0  0
   -5.6977   25.6908  -31.4664 H   0  0  0  0  0  0  0  0  0  0  0  0
   -4.8160   24.9360  -29.6440 C   0  0  0  0  0  0  0  0  0  0  0  0
   -4.3783   25.7699  -29.0757 H   0  0  0  0  0  0  0  0  0  0  0  0
   -4.0953   24.5165  -30.3614 H   0  0  0  0  0  0  0  0  0  0  0  0
   -5.1900   23.8650  -28.7020 N   0  0  0  0  0  0  0  0  0  0  0  0
   -5.7010   24.3060  -27.9010 H   0  0  0  0  0  0  0  0  0  0  0  0
   -5.8390   23.1880  -29.1680 H   0  0  0  0  0  0  0  0  0  0  0  0
   -4.0130   23.1540  -28.1750 C   0  0  0  0  0  0  0  0  0  0  0  0
   -4.0567   22.1011  -28.4903 H   0  0  0  0  0  0  0  0  0  0  0  0
   -4.0201   23.2257  -27.0774 H   0  0  0  0  0  0  0  0  0  0  0  0
   -2.7220   23.7800  -28.6980 C   0  0  0  0  0  0  0  0  0  0  0  0
   -2.0924   24.0853  -27.8492 H   0  0  0  0  0  0  0  0  0  0  0  0
   -2.1800   23.0447  -29.3108 H   0  0  0  0  0  0  0  0  0  0  0  0
   -2.9637   24.6610  -29.3108 H   0  0  0  0  0  0  0  0  0  0  0  0
   -8.2970   22.2480  -31.2710 S   0  0  0  0  0  0  0  0  0  0  0  0
   -7.8120   20.7650  -31.9020 C   0  0  0  0  0  0  0  0  0  0  0  0
   -8.7630   19.7810  -32.1860 C   0  0  0  0  0  0  0  0  0  0  0  0
   -9.8314   19.9865  -32.0241 H   0  0  0  0  0  0  0  0  0  0  0  0
   -8.3590   18.5400  -32.6740 C   0  0  0  0  0  0  0  0  0  0  0  0
   -9.1087   17.7690  -32.9053 H   0  0  0  0  0  0  0  0  0  0  0  0
   -7.0030   18.2760  -32.8690 C   0  0  0  0  0  0  0  0  0  0  0  0
   -6.4960   16.7040  -33.4610 Cl  0  0  0  0  0  0  0  0  0  0  0  0
   -6.0470   19.2580  -32.5880 C   0  0  0  0  0  0  0  0  0  0  0  0
   -4.9807   19.0323  -32.7369 H   0  0  0  0  0  0  0  0  0  0  0  0
   -6.4280   20.5380  -32.1150 C   0  0  0  0  0  0  0  0  0  0  0  0
   -3.0650   21.2750  -31.1050 C   0  0  0  0  0  0  0  0  0  0  0  0
   -3.3821   21.4376  -30.0643 H   0  0  0  0  0  0  0  0  0  0  0  0
   -1.7190   21.0250  -31.3930 C   0  0  0  0  0  0  0  0  0  0  0  0
   -0.9779   21.0038  -30.5804 H   0  0  0  0  0  0  0  0  0  0  0  0
  1  2  1  0
  2  3  2  0
  3  4  1  0
  3  5  1  0
  5  6  1  0
  5  7  2  0
  7  8  1  0
  8  9  2  0
  9 10  1  0
 10 11  2  0
 11 12  1  0
 12 13  1  0
 12 14  1  0
 12 15  1  0
 15 16  1  0
 15 17  1  0
 15 18  1  0
 18 19  1  0
 18 20  1  0
 18 21  1  0
 21 22  1  0
 21 23  1  0
 21 24  1  0
 24 25  1  0
 24 26  1  0
 24 27  1  0
 10 28  1  0
 28 29  1  0
 29 30  2  0
 30 31  1  0
 30 32  1  0
 32 33  1  0
 32 34  2  0
 34 35  1  0
 34 36  1  0
 36 37  1  0
 36 38  2  0
  7 39  1  0
 39 40  1  0
 39 41  2  0
 41 42  1  0
 41  2  1  0
 38  8  1  0
 38 29  1  0
M  CHG  1  18   1
M  END
>  <UniqueID>  (21) 
21

>  <SMILES>  (21) 
CC[NH2+]CC/N=c1/nc(-c2ccccc2)c2cc(Cl)ccc2s1

>  <Energy>  (21) 
56.83999161591594

>  <Genealogy>  (21) 
CC[NH2+]CCN=c1nc(-c2ccccc2)c2cc(Cl)ccc2s1 (protonated)
CC[NH2+]CC/N=c1/nc(-c2ccccc2)c2cc(Cl)ccc2s1 (cis-trans isomerization)
CC[NH2+]CC/N=c1/nc(-c2ccccc2)c2cc(Cl)ccc2s1 (3D coordinates assigned)
CC[NH2+]CC/N=c1/nc(-c2ccccc2)c2cc(Cl)ccc2s1 (optimized conformer: 56.83999161591594 kcal/mol)

>  <smiles>  (21) 
CCNCCN=c1nc(-c2ccccc2)c2cc(Cl)ccc2s1

>  <score_type>  (21) 
oracle

>  <origin>  (21) 
adg

>  <m_score__min__energy>  (21) 
-6.9500000000000002

>  <m_primary>  (21) 
energy

$$$$
21:0
     RDKit          3D

 53 56  0  0  0  0  0  0  0  0999 V2000
   -8.0580   18.1920  -31.2360 C   0  0  0  0  0  0  0  0  0  0  0  0
   -9.0470   18.8720  -32.1780 C   0  0  0  0  0  0  0  0  0  0  0  0
   -8.3660   19.7460  -33.0790 O   0  0  0  0  0  0  0  0  0  0  0  0
   -7.0470   20.2140  -32.9350 C   0  0  0  0  0  0  0  0  0  0  0  0
   -5.9380   19.4800  -33.3940 C   0  0  0  0  0  0  0  0  0  0  0  0
   -4.6410   19.9970  -33.2720 C   0  0  0  0  0  0  0  0  0  0  0  0
   -3.5510   19.2980  -33.8180 C   0  0  0  0  0  0  0  0  0  0  0  0
   -2.2680   19.8430  -33.7650 C   0  0  0  0  0  0  0  0  0  0  0  0
   -2.0640   21.0970  -33.1880 C   0  0  0  0  0  0  0  0  0  0  0  0
   -3.1370   21.7970  -32.6300 C   0  0  0  0  0  0  0  0  0  0  0  0
   -4.4290   21.2360  -32.6180 C   0  0  0  0  0  0  0  0  0  0  0  0
   -5.5310   21.9050  -32.0350 C   0  0  0  0  0  0  0  0  0  0  0  0
   -6.8360   21.4560  -32.3110 C   0  0  0  0  0  0  0  0  0  0  0  0
   -7.9950   22.3200  -31.8770 C   0  0  0  0  0  0  0  0  0  0  0  0
   -7.5940   23.7970  -31.9720 C   0  0  0  0  0  0  0  0  0  0  0  0
   -6.3700   24.0950  -31.0880 C   0  0  0  0  0  0  0  0  0  0  0  0
   -5.3770   23.0020  -31.1000 N   0  0  0  0  0  0  0  0  0  0  0  0
   -4.5390   22.8340  -29.8940 C   0  0  0  0  0  0  0  0  0  0  0  0
   -4.1820   24.1860  -29.2590 C   0  0  0  0  0  0  0  0  0  0  0  0
   -2.7180   24.3290  -29.1250 N   0  0  0  0  0  0  0  0  0  0  0  0
   -2.3490   24.7780  -27.7670 C   0  0  0  0  0  0  0  0  0  0  0  0
   -0.8210   24.7220  -27.5640 C   0  0  0  0  0  0  0  0  0  0  0  0
   -0.1500   24.5400  -28.7960 O   0  0  0  0  0  0  0  0  0  0  0  0
   -0.4900   23.2810  -29.3500 C   0  0  0  0  0  0  0  0  0  0  0  0
   -2.0160   23.0700  -29.4420 C   0  0  0  0  0  0  0  0  0  0  0  0
   -8.3479   18.3914  -30.1938 H   0  0  0  0  0  0  0  0  0  0  0  0
   -8.0654   17.1071  -31.4175 H   0  0  0  0  0  0  0  0  0  0  0  0
   -7.0477   18.5873  -31.4175 H   0  0  0  0  0  0  0  0  0  0  0  0
   -9.5824   18.1039  -32.7553 H   0  0  0  0  0  0  0  0  0  0  0  0
   -9.7562   19.4630  -31.5799 H   0  0  0  0  0  0  0  0  0  0  0  0
   -6.0902   18.4918  -33.8526 H   0  0  0  0  0  0  0  0  0  0  0  0
   -3.7102   18.3169  -34.2892 H   0  0  0  0  0  0  0  0  0  0  0  0
   -1.4160   19.2835  -34.1786 H   0  0  0  0  0  0  0  0  0  0  0  0
   -1.0555   21.5359  -33.1723 H   0  0  0  0  0  0  0  0  0  0  0  0
   -2.9713   22.7943  -32.1966 H   0  0  0  0  0  0  0  0  0  0  0  0
   -8.8585   22.1315  -32.5319 H   0  0  0  0  0  0  0  0  0  0  0  0
   -8.2638   22.0787  -30.8380 H   0  0  0  0  0  0  0  0  0  0  0  0
   -7.3495   24.0367  -33.0174 H   0  0  0  0  0  0  0  0  0  0  0  0
   -8.4365   24.4117  -31.6222 H   0  0  0  0  0  0  0  0  0  0  0  0
   -5.8870   25.0130  -31.4541 H   0  0  0  0  0  0  0  0  0  0  0  0
   -6.7273   24.2071  -30.0537 H   0  0  0  0  0  0  0  0  0  0  0  0
   -5.0894   22.2288  -29.1586 H   0  0  0  0  0  0  0  0  0  0  0  0
   -3.6040   22.3370  -30.1920 H   0  0  0  0  0  0  0  0  0  0  0  0
   -4.5674   24.9967  -29.8948 H   0  0  0  0  0  0  0  0  0  0  0  0
   -4.6357   24.2377  -28.2582 H   0  0  0  0  0  0  0  0  0  0  0  0
   -2.6935   25.8128  -27.6240 H   0  0  0  0  0  0  0  0  0  0  0  0
   -2.8252   24.1094  -27.0347 H   0  0  0  0  0  0  0  0  0  0  0  0
   -0.4844   25.6645  -27.1074 H   0  0  0  0  0  0  0  0  0  0  0  0
   -0.5865   23.8698  -26.9092 H   0  0  0  0  0  0  0  0  0  0  0  0
   -0.0627   23.2133  -30.3613 H   0  0  0  0  0  0  0  0  0  0  0  0
   -0.0838   22.5028  -28.6871 H   0  0  0  0  0  0  0  0  0  0  0  0
   -2.2793   22.7525  -30.4617 H   0  0  0  0  0  0  0  0  0  0  0  0
   -2.3183   22.2958  -28.7214 H   0  0  0  0  0  0  0  0  0  0  0  0
  1  2  1  0
  2  3  1  0
  3  4  1  0
  4  5  2  0
  5  6  1  0
  6  7  2  0
  7  8  1  0
  8  9  2  0
  9 10  1  0
 10 11  2  0
 11 12  1  0
 12 13  2  0
 13 14  1  0
 14 15  1  0
 15 16  1  0
 16 17  1  0
 17 18  1  0
 18 19  1  0
 19 20  1  0
 20 21  1  0
 21 22  1  0
 22 23  1  0
 23 24  1  0
 24 25  1  0
 13  4  1  0
 25 20  1  0
 11  6  1  0
 17 12  1  0
  1 26  1  0
  1 27  1  0
  1 28  1  0
  2 29  1  0
  2 30  1  0
  5 31  1  0
  7 32  1  0
  8 33  1  0
  9 34  1  0
 10 35  1  0
 14 36  1  0
 14 37  1  0
 15 38  1  0
 15 39  1  0
 16 40  1  0
 16 41  1  0
 18 42  1  0
 18 43  1  0
 19 44  1  0
 19 45  1  0
 21 46  1  0
 21 47  1  0
 22 48  1  0
 22 49  1  0
 24 50  1  0
 24 51  1  0
 25 52  1  0
 25 53  1  0
M  END
>  <UniqueID>  (22) 
22

>  <SMILES>  (22) 
CCOc1cc2ccccc2c2c1CCCN2CCN1CCOCC1

>  <Energy>  (22) 
73.01833020837488

>  <Genealogy>  (22) 
CCOc1cc2ccccc2c2c1CCCN2CCN1CCOCC1 (3D coordinates assigned)
CCOc1cc2ccccc2c2c1CCCN2CCN1CCOCC1 (nonaromatic ring conformer: 73.01833020837488 kcal/mol)

>  <smiles>  (22) 
CCOc1cc2ccccc2c2c1CCCN2CCN1CCOCC1

>  <score_type>  (22) 
oracle

>  <origin>  (22) 
adg

>  <m_score__min__energy>  (22) 
-8.4499999999999993

>  <m_primary>  (22) 
energy

$$$$
22:0
     RDKit          3D

 51 54  0  0  0  0  0  0  0  0999 V2000
   -1.2970   25.6650  -28.2800 C   0  0  0  0  0  0  0  0  0  0  0  0
   -2.1840   25.2990  -29.3310 O   0  0  0  0  0  0  0  0  0  0  0  0
   -2.7860   24.0360  -29.4640 C   0  0  0  0  0  0  0  0  0  0  0  0
   -2.2530   22.8910  -28.8450 C   0  0  0  0  0  0  0  0  0  0  0  0
   -2.8690   21.6510  -29.0090 C   0  0  0  0  0  0  0  0  0  0  0  0
   -2.3460   20.5510  -28.4130 F   0  0  0  0  0  0  0  0  0  0  0  0
   -4.0370   21.5440  -29.7630 C   0  0  0  0  0  0  0  0  0  0  0  0
   -4.5980   22.6750  -30.3720 C   0  0  0  0  0  0  0  0  0  0  0  0
   -5.9130   22.5280  -31.0280 C   0  0  0  0  0  0  0  0  0  0  0  0
   -6.8710   23.5640  -30.9800 C   0  0  0  0  0  0  0  0  0  0  0  0
   -8.1130   23.4040  -31.6350 C   0  0  0  0  0  0  0  0  0  0  0  0
   -8.3930   22.2590  -32.3260 N   0  0  0  0  0  0  0  0  0  0  0  0
   -7.4590   21.2770  -32.3820 C   0  0  0  0  0  0  0  0  0  0  0  0
   -7.5860   20.1030  -33.0170 N   0  0  0  0  0  0  0  0  0  0  0  0
   -6.4170   19.4520  -32.8030 C   0  0  0  0  0  0  0  0  0  0  0  0
   -6.1330   18.0630  -33.3140 C   0  0  0  0  0  0  0  0  0  0  0  0
   -4.8610   18.0420  -34.1700 C   0  0  0  0  0  0  0  0  0  0  0  0
   -4.6230   16.6350  -34.7540 C   0  0  0  0  0  0  0  0  0  0  0  0
   -4.9310   15.5250  -33.8150 N   0  0  0  0  0  0  0  0  0  0  0  0
   -6.1210   14.7590  -34.2220 C   0  0  0  0  0  0  0  0  0  0  0  0
   -5.0010   15.9410  -32.3990 C   0  0  0  0  0  0  0  0  0  0  0  0
   -6.0460   17.0470  -32.1510 C   0  0  0  0  0  0  0  0  0  0  0  0
   -5.5520   20.2230  -32.0230 C   0  0  0  0  0  0  0  0  0  0  0  0
   -6.2450   21.3880  -31.7650 C   0  0  0  0  0  0  0  0  0  0  0  0
   -3.9430   23.9300  -30.2550 C   0  0  0  0  0  0  0  0  0  0  0  0
   -4.3890   25.0940  -30.9030 O   0  0  0  0  0  0  0  0  0  0  0  0
   -5.3840   25.9760  -30.3890 C   0  0  0  0  0  0  0  0  0  0  0  0
   -1.7765   25.4672  -27.3100 H   0  0  0  0  0  0  0  0  0  0  0  0
   -0.3719   25.0751  -28.3588 H   0  0  0  0  0  0  0  0  0  0  0  0
   -1.0571   26.7356  -28.3588 H   0  0  0  0  0  0  0  0  0  0  0  0
   -1.3458   22.9742  -28.2285 H   0  0  0  0  0  0  0  0  0  0  0  0
   -4.5222   20.5639  -29.8809 H   0  0  0  0  0  0  0  0  0  0  0  0
   -6.6512   24.4934  -30.4341 H   0  0  0  0  0  0  0  0  0  0  0  0
   -8.8614   24.2088  -31.5881 H   0  0  0  0  0  0  0  0  0  0  0  0
   -8.4140   19.7640  -33.5560 H   0  0  0  0  0  0  0  0  0  0  0  0
   -6.9734   17.7604  -33.9560 H   0  0  0  0  0  0  0  0  0  0  0  0
   -4.9682   18.7622  -34.9945 H   0  0  0  0  0  0  0  0  0  0  0  0
   -4.0031   18.3130  -33.5371 H   0  0  0  0  0  0  0  0  0  0  0  0
   -5.2580   16.5194  -35.6448 H   0  0  0  0  0  0  0  0  0  0  0  0
   -3.5495   16.5658  -34.9836 H   0  0  0  0  0  0  0  0  0  0  0  0
   -6.6583   14.4131  -33.3266 H   0  0  0  0  0  0  0  0  0  0  0  0
   -6.7829   15.4011  -34.8217 H   0  0  0  0  0  0  0  0  0  0  0  0
   -5.8107   13.8906  -34.8217 H   0  0  0  0  0  0  0  0  0  0  0  0
   -5.2650   15.0651  -31.7882 H   0  0  0  0  0  0  0  0  0  0  0  0
   -4.0167   16.3486  -32.1251 H   0  0  0  0  0  0  0  0  0  0  0  0
   -7.0317   16.5762  -32.0215 H   0  0  0  0  0  0  0  0  0  0  0  0
   -5.7356   17.5995  -31.2519 H   0  0  0  0  0  0  0  0  0  0  0  0
   -4.5384   19.9588  -31.6873 H   0  0  0  0  0  0  0  0  0  0  0  0
   -5.3601   25.9548  -29.2895 H   0  0  0  0  0  0  0  0  0  0  0  0
   -5.1841   26.9990  -30.7405 H   0  0  0  0  0  0  0  0  0  0  0  0
   -6.3756   25.6548  -30.7405 H   0  0  0  0  0  0  0  0  0  0  0  0
  1  2  1  0
  2  3  1  0
  3  4  2  0
  4  5  1  0
  5  6  1  0
  5  7  2  0
  7  8  1  0
  8  9  1  0
  9 10  2  0
 10 11  1  0
 11 12  2  0
 12 13  1  0
 13 14  1  0
 14 15  1  0
 15 16  1  0
 16 17  1  0
 17 18  1  0
 18 19  1  0
 19 20  1  0
 19 21  1  0
 21 22  1  0
 15 23  2  0
 23 24  1  0
  8 25  2  0
 25 26  1  0
 26 27  1  0
 25  3  1  0
 24  9  1  0
 24 13  2  0
 22 16  1  0
  1 28  1  0
  1 29  1  0
  1 30  1  0
  4 31  1  0
  7 32  1  0
 10 33  1  0
 11 34  1  0
 14 35  1  0
 16 36  1  0
 17 37  1  0
 17 38  1  0
 18 39  1  0
 18 40  1  0
 20 41  1  0
 20 42  1  0
 20 43  1  0
 21 44  1  0
 21 45  1  0
 22 46  1  0
 22 47  1  0
 23 48  1  0
 27 49  1  0
 27 50  1  0
 27 51  1  0
M  END
>  <UniqueID>  (23) 
23

>  <SMILES>  (23) 
COc1cc(F)cc(-c2ccnc3[nH]c(C4CCN(C)CC4)cc23)c1OC

>  <Energy>  (23) 
107.17356503758744

>  <Genealogy>  (23) 
COc1cc(F)cc(-c2ccnc3[nH]c(C4CCN(C)CC4)cc23)c1OC (3D coordinates assigned)
COc1cc(F)cc(-c2ccnc3[nH]c(C4CCN(C)CC4)cc23)c1OC (nonaromatic ring conformer: 107.17356503758744 kcal/mol)

>  <smiles>  (23) 
COc1cc(F)cc(-c2ccnc3[nH]c(C4CCN(C)CC4)cc23)c1OC

>  <score_type>  (23) 
oracle

>  <origin>  (23) 
adg

>  <m_score__min__energy>  (23) 
-9.7699999999999996

>  <m_primary>  (23) 
energy

$$$$
23:0
     RDKit          3D

 56 58  0  0  0  0  0  0  0  0999 V2000
   -5.5040   16.6150  -32.2540 C   0  0  0  0  0  0  0  0  0  0  0  0
   -6.2310   17.4840  -31.2310 C   0  0  0  0  0  0  0  0  0  0  0  0
   -6.9710   18.5740  -31.9090 N   0  0  0  0  0  0  0  0  0  0  0  0
   -8.4160   18.5260  -31.5880 C   0  0  0  0  0  0  0  0  0  0  0  0
   -9.1010   19.8230  -32.0140 C   0  0  0  0  0  0  0  0  0  0  0  0
   -6.7260   18.5830  -33.3750 C   0  0  0  0  0  0  0  0  0  0  0  0
   -6.5170   20.0210  -33.8600 C   0  0  0  0  0  0  0  0  0  0  0  0
   -5.1340   20.5670  -33.4850 C   0  0  0  0  0  0  0  0  0  0  0  0
   -4.9930   20.6630  -32.0320 N   0  0  0  0  0  0  0  0  0  0  0  0
   -3.8310   21.2490  -31.4290 C   0  0  0  0  0  0  0  0  0  0  0  0
   -2.5690   20.7950  -31.8390 C   0  0  0  0  0  0  0  0  0  0  0  0
   -1.4150   21.1980  -31.1740 C   0  0  0  0  0  0  0  0  0  0  0  0
   -1.5010   22.0460  -30.0760 C   0  0  0  0  0  0  0  0  0  0  0  0
   -2.7480   22.5380  -29.6450 C   0  0  0  0  0  0  0  0  0  0  0  0
   -3.9320   22.1770  -30.3520 C   0  0  0  0  0  0  0  0  0  0  0  0
   -5.1590   22.7780  -29.9560 C   0  0  0  0  0  0  0  0  0  0  0  0
   -6.3480   22.6530  -30.7530 N   0  0  0  0  0  0  0  0  0  0  0  0
   -7.5910   22.2340  -30.1060 C   0  0  0  0  0  0  0  0  0  0  0  0
   -6.4350   23.4370  -31.9830 C   0  0  0  0  0  0  0  0  0  0  0  0
   -5.2010   23.5900  -28.8610 N   0  0  0  0  0  0  0  0  0  0  0  0
   -4.0890   23.8930  -28.1400 C   0  0  0  0  0  0  0  0  0  0  0  0
   -4.1690   24.7370  -27.0220 C   0  0  0  0  0  0  0  0  0  0  0  0
   -3.0140   25.0600  -26.3090 C   0  0  0  0  0  0  0  0  0  0  0  0
   -1.7870   24.5400  -26.7220 C   0  0  0  0  0  0  0  0  0  0  0  0
   -1.7250   23.7250  -27.8080 N   0  0  0  0  0  0  0  0  0  0  0  0
   -2.8350   23.3870  -28.5270 C   0  0  0  0  0  0  0  0  0  0  0  0
   -4.8834   15.8732  -31.7300 H   0  0  0  0  0  0  0  0  0  0  0  0
   -6.2412   16.0965  -32.8846 H   0  0  0  0  0  0  0  0  0  0  0  0
   -4.8635   17.2491  -32.8846 H   0  0  0  0  0  0  0  0  0  0  0  0
   -6.9405   16.8615  -30.6662 H   0  0  0  0  0  0  0  0  0  0  0  0
   -5.4898   17.9272  -30.5497 H   0  0  0  0  0  0  0  0  0  0  0  0
   -8.8773   17.6810  -32.1202 H   0  0  0  0  0  0  0  0  0  0  0  0
   -8.5356   18.4002  -30.5018 H   0  0  0  0  0  0  0  0  0  0  0  0
   -9.4005   20.3901  -31.1203 H   0  0  0  0  0  0  0  0  0  0  0  0
   -8.4037   20.4259  -32.6142 H   0  0  0  0  0  0  0  0  0  0  0  0
   -9.9921   19.5870  -32.6142 H   0  0  0  0  0  0  0  0  0  0  0  0
   -5.8278   17.9886  -33.5983 H   0  0  0  0  0  0  0  0  0  0  0  0
   -7.5961   18.1500  -33.8902 H   0  0  0  0  0  0  0  0  0  0  0  0
   -6.6212   20.0436  -34.9548 H   0  0  0  0  0  0  0  0  0  0  0  0
   -7.2723   20.6539  -33.3711 H   0  0  0  0  0  0  0  0  0  0  0  0
   -4.3601   19.8919  -33.8791 H   0  0  0  0  0  0  0  0  0  0  0  0
   -5.0207   21.5715  -33.9186 H   0  0  0  0  0  0  0  0  0  0  0  0
   -5.7720   20.3510  -31.4100 H   0  0  0  0  0  0  0  0  0  0  0  0
   -2.4904   20.1115  -32.6973 H   0  0  0  0  0  0  0  0  0  0  0  0
   -0.4319   20.8445  -31.5182 H   0  0  0  0  0  0  0  0  0  0  0  0
   -0.5860   22.3356  -29.5385 H   0  0  0  0  0  0  0  0  0  0  0  0
   -7.4679   22.2755  -29.0137 H   0  0  0  0  0  0  0  0  0  0  0  0
   -8.4069   22.9068  -30.4089 H   0  0  0  0  0  0  0  0  0  0  0  0
   -7.8331   21.2046  -30.4089 H   0  0  0  0  0  0  0  0  0  0  0  0
   -6.5531   24.5014  -31.7318 H   0  0  0  0  0  0  0  0  0  0  0  0
   -5.5160   23.2990  -32.5716 H   0  0  0  0  0  0  0  0  0  0  0  0
   -7.3014   23.1008  -32.5716 H   0  0  0  0  0  0  0  0  0  0  0  0
   -6.1150   24.0200  -28.5910 H   0  0  0  0  0  0  0  0  0  0  0  0
   -5.1416   25.1437  -26.7079 H   0  0  0  0  0  0  0  0  0  0  0  0
   -3.0703   25.7184  -25.4296 H   0  0  0  0  0  0  0  0  0  0  0  0
   -0.8697   24.7896  -26.1687 H   0  0  0  0  0  0  0  0  0  0  0  0
  1  2  1  0
  2  3  1  0
  3  4  1  0
  4  5  1  0
  3  6  1  0
  6  7  1  0
  7  8  1  0
  8  9  1  0
  9 10  1  0
 10 11  2  0
 11 12  1  0
 12 13  2  0
 13 14  1  0
 14 15  2  0
 15 16  1  0
 16 17  1  0
 17 18  1  0
 17 19  1  0
 16 20  2  0
 20 21  1  0
 21 22  2  0
 22 23  1  0
 23 24  2  0
 24 25  1  0
 25 26  2  0
 15 10  1  0
 26 21  1  0
 26 14  1  0
  1 27  1  0
  1 28  1  0
  1 29  1  0
  2 30  1  0
  2 31  1  0
  4 32  1  0
  4 33  1  0
  5 34  1  0
  5 35  1  0
  5 36  1  0
  6 37  1  0
  6 38  1  0
  7 39  1  0
  7 40  1  0
  8 41  1  0
  8 42  1  0
  9 43  1  0
 11 44  1  0
 12 45  1  0
 13 46  1  0
 18 47  1  0
 18 48  1  0
 18 49  1  0
 19 50  1  0
 19 51  1  0
 19 52  1  0
 20 53  1  0
 22 54  1  0
 23 55  1  0
 24 56  1  0
M  CHG  1  20   1
M  END
>  <UniqueID>  (24) 
24

>  <SMILES>  (24) 
CCN(CC)CCCNc1cccc2c1c(N(C)C)[nH+]c1cccnc12

>  <Energy>  (24) 
71.33597181016687

>  <Genealogy>  (24) 
CCN(CC)CCCNc1cccc2c1c(N(C)C)[nH+]c1cccnc12 (protonated)
CCN(CC)CCCNc1cccc2c1c(N(C)C)[nH+]c1cccnc12 (3D coordinates assigned)
CCN(CC)CCCNc1cccc2c1c(N(C)C)[nH+]c1cccnc12 (optimized conformer: 71.33597181016687 kcal/mol)

>  <smiles>  (24) 
CCN(CC)CCCNc1cccc2c1c(N(C)C)nc1cccnc12

>  <score_type>  (24) 
oracle

>  <origin>  (24) 
adg

>  <m_score__min__energy>  (24) 
-6.8700000000000001

>  <m_primary>  (24) 
energy

$$$$
24:0
     RDKit          3D

 50 51  0  0  0  0  0  0  0  0999 V2000
   -5.6354   15.6440  -33.4325 H   0  0  0  0  0  0  0  0  0  0  0  0
   -5.8930   16.6880  -33.2010 C   0  0  0  0  0  0  0  0  0  0  0  0
   -6.0660   17.6100  -34.2360 C   0  0  0  0  0  0  0  0  0  0  0  0
   -5.9418   17.2920  -35.2817 H   0  0  0  0  0  0  0  0  0  0  0  0
   -6.3970   18.9370  -33.9440 C   0  0  0  0  0  0  0  0  0  0  0  0
   -6.5280   19.6613  -34.7614 H   0  0  0  0  0  0  0  0  0  0  0  0
   -6.5630   19.3490  -32.6110 C   0  0  0  0  0  0  0  0  0  0  0  0
   -6.9150   20.7560  -32.3030 C   0  0  0  0  0  0  0  0  0  0  0  0
   -8.2730   21.0930  -32.1630 C   0  0  0  0  0  0  0  0  0  0  0  0
   -9.0389   20.3066  -32.2332 H   0  0  0  0  0  0  0  0  0  0  0  0
   -8.6590   22.4140  -31.9360 C   0  0  0  0  0  0  0  0  0  0  0  0
   -9.7249   22.6644  -31.8303 H   0  0  0  0  0  0  0  0  0  0  0  0
   -7.6960   23.4170  -31.8430 C   0  0  0  0  0  0  0  0  0  0  0  0
   -8.0036   24.4591  -31.6715 H   0  0  0  0  0  0  0  0  0  0  0  0
   -6.3420   23.1020  -31.9670 C   0  0  0  0  0  0  0  0  0  0  0  0
   -5.5887   23.8999  -31.8903 H   0  0  0  0  0  0  0  0  0  0  0  0
   -5.9300   21.7750  -32.1890 C   0  0  0  0  0  0  0  0  0  0  0  0
   -4.4780   21.4730  -32.2420 C   0  0  0  0  0  0  0  0  0  0  0  0
   -3.9160   21.2740  -33.3960 N   0  0  0  0  0  0  0  0  0  0  0  0
   -3.7780   20.0140  -33.9320 O   0  0  0  0  0  0  0  0  0  0  0  0
   -2.8690   19.0860  -33.3620 C   0  0  0  0  0  0  0  0  0  0  0  0
   -3.1947   18.0642  -33.6068 H   0  0  0  0  0  0  0  0  0  0  0  0
   -2.8531   19.2298  -32.2716 H   0  0  0  0  0  0  0  0  0  0  0  0
   -1.4520   19.3090  -33.9110 C   0  0  0  0  0  0  0  0  0  0  0  0
   -1.3305   18.7073  -34.8238 H   0  0  0  0  0  0  0  0  0  0  0  0
   -0.7426   19.0091  -33.1256 H   0  0  0  0  0  0  0  0  0  0  0  0
   -1.1760   20.7370  -34.2420 N   0  0  0  0  0  0  0  0  0  0  0  0
   -2.0670   21.1770  -34.5770 H   0  0  0  0  0  0  0  0  0  0  0  0
   -0.7810   21.5060  -33.0290 C   0  0  0  0  0  0  0  0  0  0  0  0
   -1.6696   22.0322  -32.6502 H   0  0  0  0  0  0  0  0  0  0  0  0
    0.0221   22.1912  -33.3380 H   0  0  0  0  0  0  0  0  0  0  0  0
   -0.2110   20.6440  -31.8920 C   0  0  0  0  0  0  0  0  0  0  0  0
   -0.4983   21.0785  -30.9231 H   0  0  0  0  0  0  0  0  0  0  0  0
   -0.6125   19.6228  -31.9694 H   0  0  0  0  0  0  0  0  0  0  0  0
    0.8859   20.6136  -31.9694 H   0  0  0  0  0  0  0  0  0  0  0  0
   -0.1870   20.8470  -35.3490 C   0  0  0  0  0  0  0  0  0  0  0  0
    0.6772   20.2093  -35.1112 H   0  0  0  0  0  0  0  0  0  0  0  0
   -0.6916   20.5283  -36.2730 H   0  0  0  0  0  0  0  0  0  0  0  0
    0.3100   22.2800  -35.5700 C   0  0  0  0  0  0  0  0  0  0  0  0
    0.4779   22.7641  -34.5966 H   0  0  0  0  0  0  0  0  0  0  0  0
    1.2530   22.2579  -36.1360 H   0  0  0  0  0  0  0  0  0  0  0  0
   -0.4442   22.8465  -36.1360 H   0  0  0  0  0  0  0  0  0  0  0  0
   -3.6840   21.3200  -30.9730 C   0  0  0  0  0  0  0  0  0  0  0  0
   -4.3493   21.4482  -30.1065 H   0  0  0  0  0  0  0  0  0  0  0  0
   -3.2311   20.3181  -30.9424 H   0  0  0  0  0  0  0  0  0  0  0  0
   -2.8912   22.0819  -30.9424 H   0  0  0  0  0  0  0  0  0  0  0  0
   -6.3750   18.4170  -31.5750 C   0  0  0  0  0  0  0  0  0  0  0  0
   -6.4865   18.7328  -30.5272 H   0  0  0  0  0  0  0  0  0  0  0  0
   -6.0470   17.0910  -31.8710 C   0  0  0  0  0  0  0  0  0  0  0  0
   -5.9099   16.3639  -31.0570 H   0  0  0  0  0  0  0  0  0  0  0  0
  1  2  1  0
  2  3  2  0
  3  4  1  0
  3  5  1  0
  5  6  1  0
  5  7  2  0
  7  8  1  0
  8  9  2  0
  9 10  1  0
  9 11  1  0
 11 12  1  0
 11 13  2  0
 13 14  1  0
 13 15  1  0
 15 16  1  0
 15 17  2  0
 17 18  1  0
 18 19  2  0
 19 20  1  0
 20 21  1  0
 21 22  1  0
 21 23  1  0
 21 24  1  0
 24 25  1  0
 24 26  1  0
 24 27  1  0
 27 28  1  0
 27 29  1  0
 29 30  1  0
 29 31  1  0
 29 32  1  0
 32 33  1  0
 32 34  1  0
 32 35  1  0
 27 36  1  0
 36 37  1  0
 36 38  1  0
 36 39  1  0
 39 40  1  0
 39 41  1  0
 39 42  1  0
 18 43  1  0
 43 44  1  0
 43 45  1  0
 43 46  1  0
  7 47  1  0
 47 48  1  0
 47 49  2  0
 49 50  1  0
 49  2  1  0
 17  8  1  0
M  CHG  1  27   1
M  END
>  <UniqueID>  (25) 
25

>  <SMILES>  (25) 
CC[NH+](CC)CCO/N=C(\C)c1ccccc1-c1ccccc1

>  <Energy>  (25) 
58.64802563836238

>  <Genealogy>  (25) 
CC[NH+](CC)CCON=C(C)c1ccccc1-c1ccccc1 (protonated)
CC[NH+](CC)CCO/N=C(\C)c1ccccc1-c1ccccc1 (cis-trans isomerization)
CC[NH+](CC)CCO/N=C(\C)c1ccccc1-c1ccccc1 (3D coordinates assigned)
CC[NH+](CC)CCO/N=C(\C)c1ccccc1-c1ccccc1 (optimized conformer: 58.64802563836238 kcal/mol)

>  <smiles>  (25) 
CCN(CC)CCON=C(C)c1ccccc1-c1ccccc1

>  <score_type>  (25) 
oracle

>  <origin>  (25) 
adg

>  <m_score__min__energy>  (25) 
-6.4400000000000004

>  <m_primary>  (25) 
energy

$$$$
25:0
     RDKit          3D

 42 44  0  0  0  0  0  0  0  0999 V2000
   -2.5890   24.5480  -29.1820 C   0  0  0  0  0  0  0  0  0  0  0  0
   -3.5410   24.1310  -30.2270 N   0  0  0  0  0  0  0  0  0  0  0  0
   -4.8120   24.8730  -30.0980 C   0  0  0  0  0  0  0  0  0  0  0  0
   -5.8890   24.1740  -30.8620 C   0  0  0  0  0  0  0  0  0  0  0  0
   -6.9270   23.5310  -30.2810 N   0  0  0  0  0  0  0  0  0  0  0  0
   -7.5790   23.0490  -31.3590 C   0  0  0  0  0  0  0  0  0  0  0  0
   -8.7970   22.1840  -31.2810 C   0  0  0  0  0  0  0  0  0  0  0  0
   -8.8450   21.2960  -32.3970 O   0  0  0  0  0  0  0  0  0  0  0  0
   -8.0410   20.1560  -32.5640 C   0  0  0  0  0  0  0  0  0  0  0  0
   -6.9090   20.1390  -33.4040 C   0  0  0  0  0  0  0  0  0  0  0  0
   -6.1500   18.9710  -33.5370 C   0  0  0  0  0  0  0  0  0  0  0  0
   -6.5080   17.8180  -32.8360 C   0  0  0  0  0  0  0  0  0  0  0  0
   -7.6230   17.8300  -31.9940 C   0  0  0  0  0  0  0  0  0  0  0  0
   -8.3840   18.9950  -31.8580 C   0  0  0  0  0  0  0  0  0  0  0  0
   -6.9620   23.3790  -32.5070 N   0  0  0  0  0  0  0  0  0  0  0  0
   -5.9230   24.0740  -32.1700 O   0  0  0  0  0  0  0  0  0  0  0  0
   -3.7640   22.6730  -30.1530 C   0  0  0  0  0  0  0  0  0  0  0  0
   -3.4610   22.0300  -31.4750 C   0  0  0  0  0  0  0  0  0  0  0  0
   -4.3690   21.8820  -32.4590 N   0  0  0  0  0  0  0  0  0  0  0  0
   -3.7420   21.3110  -33.4780 N   0  0  0  0  0  0  0  0  0  0  0  0
   -2.4630   21.1170  -33.1020 C   0  0  0  0  0  0  0  0  0  0  0  0
   -2.2600   21.5460  -31.8450 N   0  0  0  0  0  0  0  0  0  0  0  0
   -0.9950   21.5960  -31.1210 C   0  0  0  0  0  0  0  0  0  0  0  0
   -3.0257   24.3567  -28.1907 H   0  0  0  0  0  0  0  0  0  0  0  0
   -1.6550   23.9766  -29.2877 H   0  0  0  0  0  0  0  0  0  0  0  0
   -2.3757   25.6219  -29.2877 H   0  0  0  0  0  0  0  0  0  0  0  0
   -5.0954   24.9291  -29.0366 H   0  0  0  0  0  0  0  0  0  0  0  0
   -4.6815   25.8877  -30.5023 H   0  0  0  0  0  0  0  0  0  0  0  0
   -8.7666   21.5971  -30.3511 H   0  0  0  0  0  0  0  0  0  0  0  0
   -9.6919   22.8235  -31.2933 H   0  0  0  0  0  0  0  0  0  0  0  0
   -6.6217   21.0460  -33.9561 H   0  0  0  0  0  0  0  0  0  0  0  0
   -5.2690   18.9613  -34.1956 H   0  0  0  0  0  0  0  0  0  0  0  0
   -5.9122   16.8999  -32.9465 H   0  0  0  0  0  0  0  0  0  0  0  0
   -7.9021   16.9228  -31.4381 H   0  0  0  0  0  0  0  0  0  0  0  0
   -9.2590   19.0003  -31.1915 H   0  0  0  0  0  0  0  0  0  0  0  0
   -7.2390   23.1240  -33.4810 H   0  0  0  0  0  0  0  0  0  0  0  0
   -3.1066   22.2444  -29.3822 H   0  0  0  0  0  0  0  0  0  0  0  0
   -4.8175   22.4855  -29.8979 H   0  0  0  0  0  0  0  0  0  0  0  0
   -1.6877   20.6671  -33.7395 H   0  0  0  0  0  0  0  0  0  0  0  0
   -1.1914   21.5882  -30.0387 H   0  0  0  0  0  0  0  0  0  0  0  0
   -0.3843   20.7213  -31.3891 H   0  0  0  0  0  0  0  0  0  0  0  0
   -0.4552   22.5162  -31.3891 H   0  0  0  0  0  0  0  0  0  0  0  0
  1  2  1  0
  2  3  1  0
  3  4  1  0
  4  5  2  0
  5  6  1  0
  6  7  1  0
  7  8  1  0
  8  9  1  0
  9 10  2  0
 10 11  1  0
 11 12  2  0
 12 13  1  0
 13 14  2  0
  6 15  2  0
 15 16  1  0
  2 17  1  0
 17 18  1  0
 18 19  2  0
 19 20  1  0
 20 21  2  0
 21 22  1  0
 22 23  1  0
 16  4  1  0
 22 18  1  0
 14  9  1  0
  1 24  1  0
  1 25  1  0
  1 26  1  0
  3 27  1  0
  3 28  1  0
  7 29  1  0
  7 30  1  0
 10 31  1  0
 11 32  1  0
 12 33  1  0
 13 34  1  0
 14 35  1  0
 15 36  1  0
 17 37  1  0
 17 38  1  0
 21 39  1  0
 23 40  1  0
 23 41  1  0
 23 42  1  0
M  CHG  1  15   1
M  END
>  <UniqueID>  (26) 
26

>  <SMILES>  (26) 
CN(Cc1nc(COc2ccccc2)[nH+]o1)Cc1nncn1C

>  <Energy>  (26) 
108.06439177912624

>  <Genealogy>  (26) 
CN(Cc1nc(COc2ccccc2)[nH+]o1)Cc1nncn1C (protonated)
CN(Cc1nc(COc2ccccc2)[nH+]o1)Cc1nncn1C (3D coordinates assigned)
CN(Cc1nc(COc2ccccc2)[nH+]o1)Cc1nncn1C (optimized conformer: 108.06439177912624 kcal/mol)

>  <smiles>  (26) 
CN(Cc1nc(COc2ccccc2)no1)Cc1nncn1C

>  <score_type>  (26) 
oracle

>  <origin>  (26) 
adg

>  <m_score__min__energy>  (26) 
-7.3200000000000003

>  <m_primary>  (26) 
energy

$$$$
26:0
     RDKit          3D

 42 44  0  0  0  0  0  0  0  0999 V2000
   -5.9970   18.8790  -34.5580 C   0  0  0  0  0  0  0  0  0  0  0  0
   -6.2520   18.7220  -33.3900 C   0  0  0  0  0  0  0  0  0  0  0  0
   -6.5620   18.5290  -31.9690 C   0  0  0  0  0  0  0  0  0  0  0  0
   -6.6400   19.7860  -31.3020 O   0  0  0  0  0  0  0  0  0  0  0  0
   -7.5780   20.7990  -31.5740 C   0  0  0  0  0  0  0  0  0  0  0  0
   -8.9600   20.5350  -31.6690 C   0  0  0  0  0  0  0  0  0  0  0  0
   -9.8630   21.5720  -31.9130 C   0  0  0  0  0  0  0  0  0  0  0  0
   -9.4040   22.8810  -32.0650 C   0  0  0  0  0  0  0  0  0  0  0  0
   -8.0380   23.1570  -31.9790 C   0  0  0  0  0  0  0  0  0  0  0  0
   -7.1180   22.1220  -31.7460 C   0  0  0  0  0  0  0  0  0  0  0  0
   -5.6730   22.4410  -31.6590 C   0  0  0  0  0  0  0  0  0  0  0  0
   -4.7580   21.6380  -32.3560 C   0  0  0  0  0  0  0  0  0  0  0  0
   -3.3850   21.9240  -32.2970 C   0  0  0  0  0  0  0  0  0  0  0  0
   -2.3830   21.1050  -33.0260 C   0  0  0  0  0  0  0  0  0  0  0  0
   -2.7470   19.8440  -33.5360 C   0  0  0  0  0  0  0  0  0  0  0  0
   -1.8150   19.0570  -34.2170 C   0  0  0  0  0  0  0  0  0  0  0  0
   -0.5070   19.5140  -34.3920 C   0  0  0  0  0  0  0  0  0  0  0  0
   -0.1280   20.7570  -33.8800 C   0  0  0  0  0  0  0  0  0  0  0  0
   -1.0570   21.5480  -33.1980 C   0  0  0  0  0  0  0  0  0  0  0  0
   -2.9610   22.9700  -31.5350 N   0  0  0  0  0  0  0  0  0  0  0  0
   -3.8160   23.7630  -30.8330 C   0  0  0  0  0  0  0  0  0  0  0  0
   -3.3210   24.8230  -30.0620 O   0  0  0  0  0  0  0  0  0  0  0  0
   -2.7280   24.6330  -28.7820 C   0  0  0  0  0  0  0  0  0  0  0  0
   -5.1940   23.5150  -30.8810 C   0  0  0  0  0  0  0  0  0  0  0  0
   -6.0940   24.3360  -30.1010 C   0  0  0  0  0  0  0  0  0  0  0  0
   -6.8140   24.9930  -29.4770 N   0  0  0  0  0  0  0  0  0  0  0  0
   -5.7644   19.0222  -35.6235 H   0  0  0  0  0  0  0  0  0  0  0  0
   -7.5268   18.0089  -31.8760 H   0  0  0  0  0  0  0  0  0  0  0  0
   -5.7632   17.9295  -31.5079 H   0  0  0  0  0  0  0  0  0  0  0  0
   -9.3291   19.5056  -31.5501 H   0  0  0  0  0  0  0  0  0  0  0  0
  -10.9392   21.3563  -31.9856 H   0  0  0  0  0  0  0  0  0  0  0  0
  -10.1187   23.6958  -32.2527 H   0  0  0  0  0  0  0  0  0  0  0  0
   -7.6805   24.1909  -32.0944 H   0  0  0  0  0  0  0  0  0  0  0  0
   -5.1166   20.7838  -32.9491 H   0  0  0  0  0  0  0  0  0  0  0  0
   -3.7740   19.4754  -33.3970 H   0  0  0  0  0  0  0  0  0  0  0  0
   -2.1119   18.0758  -34.6160 H   0  0  0  0  0  0  0  0  0  0  0  0
    0.2244   18.8954  -34.9328 H   0  0  0  0  0  0  0  0  0  0  0  0
    0.9037   21.1142  -34.0138 H   0  0  0  0  0  0  0  0  0  0  0  0
   -0.7503   22.5235  -32.7927 H   0  0  0  0  0  0  0  0  0  0  0  0
   -3.4634   24.8686  -27.9986 H   0  0  0  0  0  0  0  0  0  0  0  0
   -2.4052   23.5865  -28.6791 H   0  0  0  0  0  0  0  0  0  0  0  0
   -1.8571   25.2971  -28.6791 H   0  0  0  0  0  0  0  0  0  0  0  0
  1  2  3  0
  2  3  1  0
  3  4  1  0
  4  5  1  0
  5  6  2  0
  6  7  1  0
  7  8  2  0
  8  9  1  0
  9 10  2  0
 10 11  1  0
 11 12  2  0
 12 13  1  0
 13 14  1  0
 14 15  2  0
 15 16  1  0
 16 17  2  0
 17 18  1  0
 18 19  2  0
 13 20  2  0
 20 21  1  0
 21 22  1  0
 22 23  1  0
 21 24  2  0
 24 25  1  0
 25 26  3  0
 10  5  1  0
 24 11  1  0
 19 14  1  0
  1 27  1  0
  3 28  1  0
  3 29  1  0
  6 30  1  0
  7 31  1  0
  8 32  1  0
  9 33  1  0
 12 34  1  0
 15 35  1  0
 16 36  1  0
 17 37  1  0
 18 38  1  0
 19 39  1  0
 23 40  1  0
 23 41  1  0
 23 42  1  0
M  END
>  <UniqueID>  (27) 
27

>  <SMILES>  (27) 
C#CCOc1ccccc1-c1cc(-c2ccccc2)nc(OC)c1C#N

>  <Energy>  (27) 
52.54058350674811

>  <Genealogy>  (27) 
C#CCOc1ccccc1-c1cc(-c2ccccc2)nc(OC)c1C#N (3D coordinates assigned)
C#CCOc1ccccc1-c1cc(-c2ccccc2)nc(OC)c1C#N (optimized conformer: 52.54058350674811 kcal/mol)

>  <smiles>  (27) 
C#CCOc1ccccc1-c1cc(-c2ccccc2)nc(OC)c1C#N

>  <score_type>  (27) 
oracle

>  <origin>  (27) 
adg

>  <m_score__min__energy>  (27) 
-8.1199999999999992

>  <m_primary>  (27) 
energy

$$$$
27:0
     RDKit          3D

 43 43  0  0  0  0  0  0  0  0999 V2000
   -7.2170   17.5610  -32.3050 C   0  0  0  0  0  0  0  0  0  0  0  0
   -8.3480   18.5950  -32.1850 C   0  0  0  0  0  0  0  0  0  0  0  0
   -8.1610   19.8450  -32.9750 N   0  0  0  0  0  0  0  0  0  0  0  0
   -8.8000   21.0350  -32.3540 C   0  0  0  0  0  0  0  0  0  0  0  0
   -8.6690   21.0630  -30.8270 C   0  0  0  0  0  0  0  0  0  0  0  0
   -6.7630   20.0480  -33.4530 C   0  0  0  0  0  0  0  0  0  0  0  0
   -5.7520   20.5640  -32.4030 C   0  0  0  0  0  0  0  0  0  0  0  0
   -5.3820   21.9650  -32.6340 N   0  0  0  0  0  0  0  0  0  0  0  0
   -5.3730   22.9630  -31.5910 C   0  0  0  0  0  0  0  0  0  0  0  0
   -6.3970   23.9290  -31.4990 C   0  0  0  0  0  0  0  0  0  0  0  0
   -6.3940   24.8730  -30.4700 C   0  0  0  0  0  0  0  0  0  0  0  0
   -5.3750   24.8710  -29.5190 C   0  0  0  0  0  0  0  0  0  0  0  0
   -4.3520   23.9250  -29.5950 C   0  0  0  0  0  0  0  0  0  0  0  0
   -4.3390   22.9730  -30.6250 C   0  0  0  0  0  0  0  0  0  0  0  0
   -3.2660   22.0240  -30.6830 N   0  0  0  0  0  0  0  0  0  0  0  0
   -2.4660   21.8950  -31.8990 C   0  0  0  0  0  0  0  0  0  0  0  0
   -2.8840   21.2980  -29.4720 C   0  0  0  0  0  0  0  0  0  0  0  0
   -6.8875   17.2597  -31.2997 H   0  0  0  0  0  0  0  0  0  0  0  0
   -7.5831   16.6788  -32.8506 H   0  0  0  0  0  0  0  0  0  0  0  0
   -6.3711   18.0045  -32.8506 H   0  0  0  0  0  0  0  0  0  0  0  0
   -9.2804   18.1179  -32.5212 H   0  0  0  0  0  0  0  0  0  0  0  0
   -8.3637   18.9043  -31.1295 H   0  0  0  0  0  0  0  0  0  0  0  0
   -8.7050   19.6720  -33.8560 H   0  0  0  0  0  0  0  0  0  0  0  0
   -8.3255   21.9395  -32.7622 H   0  0  0  0  0  0  0  0  0  0  0  0
   -9.8736   20.9895  -32.5891 H   0  0  0  0  0  0  0  0  0  0  0  0
   -9.6480   20.8538  -30.3711 H   0  0  0  0  0  0  0  0  0  0  0  0
   -7.9448   20.2994  -30.5071 H   0  0  0  0  0  0  0  0  0  0  0  0
   -8.3202   22.0560  -30.5071 H   0  0  0  0  0  0  0  0  0  0  0  0
   -6.3932   19.0828  -33.8293 H   0  0  0  0  0  0  0  0  0  0  0  0
   -6.8241   20.8375  -34.2165 H   0  0  0  0  0  0  0  0  0  0  0  0
   -6.2031   20.4766  -31.4036 H   0  0  0  0  0  0  0  0  0  0  0  0
   -4.8395   19.9552  -32.4840 H   0  0  0  0  0  0  0  0  0  0  0  0
   -5.0910   22.2470  -33.5950 H   0  0  0  0  0  0  0  0  0  0  0  0
   -7.2054   23.9387  -32.2449 H   0  0  0  0  0  0  0  0  0  0  0  0
   -7.1985   25.6207  -30.4097 H   0  0  0  0  0  0  0  0  0  0  0  0
   -5.3772   25.6150  -28.7088 H   0  0  0  0  0  0  0  0  0  0  0  0
   -3.5502   23.9259  -28.8419 H   0  0  0  0  0  0  0  0  0  0  0  0
   -1.4132   21.7252  -31.6290 H   0  0  0  0  0  0  0  0  0  0  0  0
   -2.8342   21.0446  -32.4917 H   0  0  0  0  0  0  0  0  0  0  0  0
   -2.5483   22.8180  -32.4917 H   0  0  0  0  0  0  0  0  0  0  0  0
   -3.1881   21.8759  -28.5868 H   0  0  0  0  0  0  0  0  0  0  0  0
   -3.3832   20.3179  -29.4593 H   0  0  0  0  0  0  0  0  0  0  0  0
   -1.7935   21.1543  -29.4593 H   0  0  0  0  0  0  0  0  0  0  0  0
  1  2  1  0
  2  3  1  0
  3  4  1  0
  4  5  1  0
  3  6  1  0
  6  7  1  0
  7  8  1  0
  8  9  1  0
  9 10  2  0
 10 11  1  0
 11 12  2  0
 12 13  1  0
 13 14  2  0
 14 15  1  0
 15 16  1  0
 15 17  1  0
 14  9  1  0
  1 18  1  0
  1 19  1  0
  1 20  1  0
  2 21  1  0
  2 22  1  0
  3 23  1  0
  4 24  1  0
  4 25  1  0
  5 26  1  0
  5 27  1  0
  5 28  1  0
  6 29  1  0
  6 30  1  0
  7 31  1  0
  7 32  1  0
  8 33  1  0
 10 34  1  0
 11 35  1  0
 12 36  1  0
 13 37  1  0
 16 38  1  0
 16 39  1  0
 16 40  1  0
 17 41  1  0
 17 42  1  0
 17 43  1  0
M  CHG  1   3   1
M  END
>  <UniqueID>  (28) 
28

>  <SMILES>  (28) 
CC[NH+](CC)CCNc1ccccc1N(C)C

>  <Energy>  (28) 
52.28266585476598

>  <Genealogy>  (28) 
CC[NH+](CC)CCNc1ccccc1N(C)C (protonated)
CC[NH+](CC)CCNc1ccccc1N(C)C (3D coordinates assigned)
CC[NH+](CC)CCNc1ccccc1N(C)C (optimized conformer: 52.28266585476598 kcal/mol)

>  <smiles>  (28) 
CCN(CC)CCNc1ccccc1N(C)C

>  <score_type>  (28) 
oracle

>  <origin>  (28) 
adg

>  <m_score__min__energy>  (28) 
-5.1200000000000001

>  <m_primary>  (28) 
energy

$$$$
28:0
     RDKit          3D

 48 50  0  0  0  0  0  0  0  0999 V2000
   -3.1690   18.9500  -26.3740 C   0  0  0  0  0  0  0  0  0  0  0  0
   -2.2150   20.0810  -26.7230 C   0  0  0  0  0  0  0  0  0  0  0  0
   -2.5910   20.6490  -27.9730 O   0  0  0  0  0  0  0  0  0  0  0  0
   -3.2150   21.8950  -28.0810 C   0  0  0  0  0  0  0  0  0  0  0  0
   -3.2100   22.6970  -27.1080 O   0  0  0  0  0  0  0  0  0  0  0  0
   -3.8950   22.2710  -29.3310 C   0  0  0  0  0  0  0  0  0  0  0  0
   -3.8200   21.6090  -30.5470 C   0  0  0  0  0  0  0  0  0  0  0  0
   -4.5110   22.2960  -31.4810 N   0  0  0  0  0  0  0  0  0  0  0  0
   -5.0240   23.3650  -30.8930 N   0  0  0  0  0  0  0  0  0  0  0  0
   -4.6930   23.3700  -29.5890 C   0  0  0  0  0  0  0  0  0  0  0  0
   -4.9770   24.4670  -28.7010 N   0  0  0  0  0  0  0  0  0  0  0  0
   -6.1030   25.2760  -29.1970 C   0  0  0  0  0  0  0  0  0  0  0  0
   -5.9320   25.6450  -30.6830 C   0  0  0  0  0  0  0  0  0  0  0  0
   -5.8300   24.3810  -31.5700 C   0  0  2  0  0  0  0  0  0  0  0  0
   -7.2220   23.7980  -31.9260 C   0  0  0  0  0  0  0  0  0  0  0  0
   -7.1320   22.5460  -32.7050 N   0  0  0  0  0  0  0  0  0  0  0  0
   -7.7670   21.3990  -32.0360 C   0  0  0  0  0  0  0  0  0  0  0  0
   -7.1990   20.0890  -32.5090 C   0  0  0  0  0  0  0  0  0  0  0  0
   -7.8010   18.8770  -32.1460 C   0  0  0  0  0  0  0  0  0  0  0  0
   -7.2880   17.6790  -32.6480 C   0  0  0  0  0  0  0  0  0  0  0  0
   -6.1750   17.6950  -33.4990 C   0  0  0  0  0  0  0  0  0  0  0  0
   -5.6420   16.4220  -34.0870 C   0  0  0  0  0  0  0  0  0  0  0  0
   -5.6130   18.9300  -33.8520 C   0  0  0  0  0  0  0  0  0  0  0  0
   -6.1310   20.0840  -33.3530 N   0  0  0  0  0  0  0  0  0  0  0  0
   -3.2456   18.8592  -25.2804 H   0  0  0  0  0  0  0  0  0  0  0  0
   -4.1624   19.1653  -26.7945 H   0  0  0  0  0  0  0  0  0  0  0  0
   -2.7893   18.0071  -26.7945 H   0  0  0  0  0  0  0  0  0  0  0  0
   -2.2598   20.8532  -25.9409 H   0  0  0  0  0  0  0  0  0  0  0  0
   -1.1897   19.6884  -26.7917 H   0  0  0  0  0  0  0  0  0  0  0  0
   -3.2796   20.6673  -30.7236 H   0  0  0  0  0  0  0  0  0  0  0  0
   -5.2280   24.0970  -27.7560 H   0  0  0  0  0  0  0  0  0  0  0  0
   -4.1210   25.0660  -28.6250 H   0  0  0  0  0  0  0  0  0  0  0  0
   -7.0337   24.7019  -29.0776 H   0  0  0  0  0  0  0  0  0  0  0  0
   -6.1362   26.2088  -28.6149 H   0  0  0  0  0  0  0  0  0  0  0  0
   -6.7989   26.2401  -31.0061 H   0  0  0  0  0  0  0  0  0  0  0  0
   -5.0011   26.2208  -30.7921 H   0  0  0  0  0  0  0  0  0  0  0  0
   -5.3474   24.6777  -32.5129 H   0  0  0  0  0  0  0  0  0  0  0  0
   -7.7674   23.5937  -30.9928 H   0  0  0  0  0  0  0  0  0  0  0  0
   -7.7445   24.5400  -32.5476 H   0  0  0  0  0  0  0  0  0  0  0  0
   -6.1430   22.3080  -32.9520 H   0  0  0  0  0  0  0  0  0  0  0  0
   -7.6054   21.4858  -30.9514 H   0  0  0  0  0  0  0  0  0  0  0  0
   -8.8396   21.4133  -32.2795 H   0  0  0  0  0  0  0  0  0  0  0  0
   -8.6700   18.8691  -31.4716 H   0  0  0  0  0  0  0  0  0  0  0  0
   -7.7579   16.7225  -32.3752 H   0  0  0  0  0  0  0  0  0  0  0  0
   -5.3547   15.7359  -33.2766 H   0  0  0  0  0  0  0  0  0  0  0  0
   -6.4187   15.9515  -34.7078 H   0  0  0  0  0  0  0  0  0  0  0  0
   -4.7618   16.6452  -34.7078 H   0  0  0  0  0  0  0  0  0  0  0  0
   -4.7509   18.9655  -34.5343 H   0  0  0  0  0  0  0  0  0  0  0  0
  1  2  1  0
  2  3  1  0
  3  4  1  0
  4  5  2  0
  4  6  1  0
  6  7  1  0
  7  8  2  0
  8  9  1  0
  9 10  1  0
 10 11  1  0
 11 12  1  0
 12 13  1  0
 13 14  1  0
 14 15  1  0
 15 16  1  0
 16 17  1  0
 17 18  1  0
 18 19  2  0
 19 20  1  0
 20 21  2  0
 21 22  1  0
 21 23  1  0
 23 24  2  0
 10  6  2  0
 24 18  1  0
 14  9  1  0
  1 25  1  0
  1 26  1  0
  1 27  1  0
  2 28  1  0
  2 29  1  0
  7 30  1  0
 11 31  1  0
 11 32  1  0
 12 33  1  0
 12 34  1  0
 13 35  1  0
 13 36  1  0
 14 37  1  6
 15 38  1  0
 15 39  1  0
 16 40  1  0
 17 41  1  0
 17 42  1  0
 19 43  1  0
 20 44  1  0
 22 45  1  0
 22 46  1  0
 22 47  1  0
 23 48  1  0
M  CHG  1  11   1
M  END
>  <UniqueID>  (29) 
29

>  <SMILES>  (29) 
CCOC(=O)c1cnn2c1[NH2+]CC[C@@H]2CNCc1ccc(C)cn1

>  <Energy>  (29) 
77.15815310915775

>  <Genealogy>  (29) 
CCOC(=O)c1cnn2c1[NH2+]CCC2CNCc1ccc(C)cn1 (protonated)
CCOC(=O)c1cnn2c1[NH2+]CC[C@@H]2CNCc1ccc(C)cn1 (chirality)
CCOC(=O)c1cnn2c1[NH2+]CC[C@@H]2CNCc1ccc(C)cn1 (3D coordinates assigned)
CCOC(=O)c1cnn2c1[NH2+]CC[C@@H]2CNCc1ccc(C)cn1 (nonaromatic ring conformer: 77.15815310915775 kcal/mol)

>  <smiles>  (29) 
CCOC(=O)c1cnn2c1NCCC2CNCc1ccc(C)cn1

>  <score_type>  (29) 
oracle

>  <origin>  (29) 
adg

>  <m_score__min__energy>  (29) 
-7.4299999999999997

>  <m_primary>  (29) 
energy

$$$$
29:0
     RDKit          3D

 67 70  0  0  0  0  0  0  0  0999 V2000
    1.2520   19.0760  -28.1730 C   0  0  0  0  0  0  0  0  0  0  0  0
    0.3240   19.4160  -29.3420 C   0  0  0  0  0  0  0  0  0  0  0  0
   -0.2850   20.7630  -29.1690 N   0  0  0  0  0  0  0  0  0  0  0  0
   -0.2280   21.5370  -30.4400 C   0  0  0  0  0  0  0  0  0  0  0  0
    0.1510   20.6610  -31.6520 C   0  0  0  0  0  0  0  0  0  0  0  0
   -1.0430   20.2220  -32.3850 N   0  0  0  0  0  0  0  0  0  0  0  0
   -1.5670   18.8720  -32.1620 C   0  0  0  0  0  0  0  0  0  0  0  0
   -2.3180   18.3630  -33.3940 C   0  0  0  0  0  0  0  0  0  0  0  0
   -3.7610   18.8050  -33.3680 C   0  0  0  0  0  0  0  0  0  0  0  0
   -4.7470   17.8130  -33.5380 C   0  0  0  0  0  0  0  0  0  0  0  0
   -6.1120   18.1370  -33.5460 C   0  0  0  0  0  0  0  0  0  0  0  0
   -7.1080   17.1670  -33.7460 O   0  0  0  0  0  0  0  0  0  0  0  0
   -6.8580   15.8190  -34.1410 C   0  0  0  0  0  0  0  0  0  0  0  0
   -6.5070   19.4660  -33.3600 C   0  0  0  0  0  0  0  0  0  0  0  0
   -7.8810   19.7610  -33.3820 O   0  0  0  0  0  0  0  0  0  0  0  0
   -8.7940   19.4410  -32.3360 C   0  0  0  0  0  0  0  0  0  0  0  0
   -5.5320   20.4610  -33.1690 C   0  0  0  0  0  0  0  0  0  0  0  0
   -4.1570   20.1590  -33.1830 C   0  0  0  0  0  0  0  0  0  0  0  0
   -3.2240   21.3630  -33.1070 C   0  0  0  0  0  0  0  0  0  0  0  0
   -1.7450   21.1400  -33.2450 C   0  0  0  0  0  0  0  0  0  0  0  0
   -1.1300   21.7120  -34.1860 O   0  0  0  0  0  0  0  0  0  0  0  0
   -1.6900   20.6630  -28.6700 C   0  0  0  0  0  0  0  0  0  0  0  0
   -2.2210   22.0310  -28.2520 C   0  0  0  0  0  0  0  0  0  0  0  0
   -1.6680   22.7160  -27.1260 C   0  0  0  0  0  0  0  0  0  0  0  0
   -0.6290   22.0950  -26.2230 C   0  0  0  0  0  0  0  0  0  0  0  0
   -2.1270   24.0000  -26.7930 C   0  0  0  0  0  0  0  0  0  0  0  0
   -3.1240   24.6180  -27.5360 C   0  0  0  0  0  0  0  0  0  0  0  0
   -3.7260   23.9540  -28.6080 C   0  0  0  0  0  0  0  0  0  0  0  0
   -4.7800   24.5750  -29.3020 C   0  0  0  0  0  0  0  0  0  0  0  0
   -5.4310   23.9070  -30.3390 C   0  0  0  0  0  0  0  0  0  0  0  0
   -5.0300   22.6230  -30.6970 C   0  0  0  0  0  0  0  0  0  0  0  0
   -3.9600   22.0040  -30.0430 C   0  0  0  0  0  0  0  0  0  0  0  0
   -3.2870   22.6520  -28.9790 C   0  0  0  0  0  0  0  0  0  0  0  0
    0.7306   19.2670  -27.2234 H   0  0  0  0  0  0  0  0  0  0  0  0
    1.5371   18.0150  -28.2278 H   0  0  0  0  0  0  0  0  0  0  0  0
    2.1551   19.7017  -28.2278 H   0  0  0  0  0  0  0  0  0  0  0  0
    0.9036   19.4013  -30.2768 H   0  0  0  0  0  0  0  0  0  0  0  0
   -0.4832   18.6695  -29.3756 H   0  0  0  0  0  0  0  0  0  0  0  0
   -1.2156   21.9849  -30.6242 H   0  0  0  0  0  0  0  0  0  0  0  0
    0.5514   22.3050  -30.3275 H   0  0  0  0  0  0  0  0  0  0  0  0
    0.7933   21.2436  -32.3288 H   0  0  0  0  0  0  0  0  0  0  0  0
    0.6812   19.7698  -31.2850 H   0  0  0  0  0  0  0  0  0  0  0  0
   -0.7294   18.1926  -31.9455 H   0  0  0  0  0  0  0  0  0  0  0  0
   -2.2672   18.9043  -31.3142 H   0  0  0  0  0  0  0  0  0  0  0  0
   -1.8360   18.7610  -34.2991 H   0  0  0  0  0  0  0  0  0  0  0  0
   -2.2880   17.2634  -33.3936 H   0  0  0  0  0  0  0  0  0  0  0  0
   -4.4407   16.7644  -33.6669 H   0  0  0  0  0  0  0  0  0  0  0  0
   -6.7414   15.1903  -33.2460 H   0  0  0  0  0  0  0  0  0  0  0  0
   -7.7030   15.4499  -34.7408 H   0  0  0  0  0  0  0  0  0  0  0  0
   -5.9368   15.7775  -34.7408 H   0  0  0  0  0  0  0  0  0  0  0  0
   -8.3104   19.6105  -31.3626 H   0  0  0  0  0  0  0  0  0  0  0  0
   -9.6853   20.0803  -32.4189 H   0  0  0  0  0  0  0  0  0  0  0  0
   -9.0911   18.3851  -32.4189 H   0  0  0  0  0  0  0  0  0  0  0  0
   -5.8514   21.5007  -33.0046 H   0  0  0  0  0  0  0  0  0  0  0  0
   -3.5230   22.0552  -33.9079 H   0  0  0  0  0  0  0  0  0  0  0  0
   -3.3437   21.7287  -32.0765 H   0  0  0  0  0  0  0  0  0  0  0  0
   -2.3278   20.2587  -29.4699 H   0  0  0  0  0  0  0  0  0  0  0  0
   -1.7038   19.9990  -27.7931 H   0  0  0  0  0  0  0  0  0  0  0  0
   -0.9090   22.2624  -25.1725 H   0  0  0  0  0  0  0  0  0  0  0  0
   -0.5714   21.0142  -26.4194 H   0  0  0  0  0  0  0  0  0  0  0  0
    0.3502   22.5561  -26.4194 H   0  0  0  0  0  0  0  0  0  0  0  0
   -1.6903   24.5246  -25.9304 H   0  0  0  0  0  0  0  0  0  0  0  0
   -3.4426   25.6389  -27.2785 H   0  0  0  0  0  0  0  0  0  0  0  0
   -5.0925   25.5928  -29.0255 H   0  0  0  0  0  0  0  0  0  0  0  0
   -6.2601   24.3941  -30.8732 H   0  0  0  0  0  0  0  0  0  0  0  0
   -5.5592   22.0907  -31.5011 H   0  0  0  0  0  0  0  0  0  0  0  0
   -3.6371   21.0011  -30.3591 H   0  0  0  0  0  0  0  0  0  0  0  0
  1  2  1  0
  2  3  1  0
  3  4  1  0
  4  5  1  0
  5  6  1  0
  6  7  1  0
  7  8  1  0
  8  9  1  0
  9 10  2  0
 10 11  1  0
 11 12  1  0
 12 13  1  0
 11 14  2  0
 14 15  1  0
 15 16  1  0
 14 17  1  0
 17 18  2  0
 18 19  1  0
 19 20  1  0
 20 21  2  0
  3 22  1  0
 22 23  1  0
 23 24  2  0
 24 25  1  0
 24 26  1  0
 26 27  2  0
 27 28  1  0
 28 29  2  0
 29 30  1  0
 30 31  2  0
 31 32  1  0
 32 33  2  0
 20  6  1  0
 33 23  1  0
 18  9  1  0
 33 28  1  0
  1 34  1  0
  1 35  1  0
  1 36  1  0
  2 37  1  0
  2 38  1  0
  4 39  1  0
  4 40  1  0
  5 41  1  0
  5 42  1  0
  7 43  1  0
  7 44  1  0
  8 45  1  0
  8 46  1  0
 10 47  1  0
 13 48  1  0
 13 49  1  0
 13 50  1  0
 16 51  1  0
 16 52  1  0
 16 53  1  0
 17 54  1  0
 19 55  1  0
 19 56  1  0
 22 57  1  0
 22 58  1  0
 25 59  1  0
 25 60  1  0
 25 61  1  0
 26 62  1  0
 27 63  1  0
 29 64  1  0
 30 65  1  0
 31 66  1  0
 32 67  1  0
M  END
>  <UniqueID>  (30) 
30

>  <SMILES>  (30) 
CCN(CCN1CCc2cc(OC)c(OC)cc2CC1=O)Cc1c(C)ccc2ccccc12

>  <Energy>  (30) 
88.54886537814166

>  <Genealogy>  (30) 
CCN(CCN1CCc2cc(OC)c(OC)cc2CC1=O)Cc1c(C)ccc2ccccc12 (3D coordinates assigned)
CCN(CCN1CCc2cc(OC)c(OC)cc2CC1=O)Cc1c(C)ccc2ccccc12 (nonaromatic ring conformer: 88.54886537814166 kcal/mol)

>  <smiles>  (30) 
CCN(CCN1CCc2cc(OC)c(OC)cc2CC1=O)Cc1c(C)ccc2ccccc12

>  <score_type>  (30) 
oracle

>  <origin>  (30) 
adg

>  <m_score__min__energy>  (30) 
-7.3700000000000001

>  <m_primary>  (30) 
energy

$$$$
30:0
     RDKit          3D

 58 60  0  0  0  0  0  0  0  0999 V2000
   -4.2500   22.6450  -29.1170 C   0  0  0  0  0  0  0  0  0  0  0  0
   -3.9000   23.9470  -29.7080 N   0  0  0  0  0  0  0  0  0  0  0  0
   -2.7210   24.4960  -29.0150 C   0  0  0  0  0  0  0  0  0  0  0  0
   -5.0470   24.8760  -29.6200 C   0  0  0  0  0  0  0  0  0  0  0  0
   -5.7570   24.9860  -30.9740 C   0  0  0  0  0  0  0  0  0  0  0  0
   -5.7970   23.7150  -31.6240 O   0  0  0  0  0  0  0  0  0  0  0  0
   -6.9320   22.8940  -31.7370 C   0  0  0  0  0  0  0  0  0  0  0  0
   -8.2330   23.4090  -31.9000 C   0  0  0  0  0  0  0  0  0  0  0  0
   -9.3230   22.5420  -32.0080 C   0  0  0  0  0  0  0  0  0  0  0  0
   -9.1310   21.1600  -31.9610 C   0  0  0  0  0  0  0  0  0  0  0  0
   -7.8400   20.6320  -31.8090 C   0  0  0  0  0  0  0  0  0  0  0  0
   -7.6240   19.1420  -31.7400 C   0  0  0  0  0  0  0  0  0  0  0  0
   -7.3950   18.5760  -33.0860 N   0  0  0  0  0  0  0  0  0  0  0  0
   -7.0900   17.1220  -33.0180 C   0  0  0  0  0  0  0  0  0  0  0  0
   -5.5830   16.8360  -33.0720 C   0  0  0  0  0  0  0  0  0  0  0  0
   -4.9740   17.3250  -34.4100 C   0  0  0  0  0  0  0  0  0  0  0  0
   -3.4650   17.6260  -34.2640 C   0  0  0  0  0  0  0  0  0  0  0  0
   -3.2190   18.9510  -33.5870 C   0  0  0  0  0  0  0  0  0  0  0  0
   -2.4290   19.9350  -34.2080 C   0  0  0  0  0  0  0  0  0  0  0  0
   -2.2330   21.1740  -33.5910 C   0  0  0  0  0  0  0  0  0  0  0  0
   -2.8240   21.4430  -32.3530 C   0  0  0  0  0  0  0  0  0  0  0  0
   -2.6370   22.6460  -31.7580 F   0  0  0  0  0  0  0  0  0  0  0  0
   -3.6150   20.4710  -31.7310 C   0  0  0  0  0  0  0  0  0  0  0  0
   -3.8120   19.2310  -32.3450 C   0  0  0  0  0  0  0  0  0  0  0  0
   -5.7370   18.5530  -34.9670 C   0  0  0  0  0  0  0  0  0  0  0  0
   -6.3850   19.3670  -33.8400 C   0  0  0  0  0  0  0  0  0  0  0  0
   -6.7480   21.5060  -31.6900 C   0  0  0  0  0  0  0  0  0  0  0  0
   -4.2291   22.7228  -28.0200 H   0  0  0  0  0  0  0  0  0  0  0  0
   -5.2586   22.3528  -29.4447 H   0  0  0  0  0  0  0  0  0  0  0  0
   -3.5239   21.8865  -29.4447 H   0  0  0  0  0  0  0  0  0  0  0  0
   -2.8698   24.4267  -27.9273 H   0  0  0  0  0  0  0  0  0  0  0  0
   -1.8275   23.9213  -29.3002 H   0  0  0  0  0  0  0  0  0  0  0  0
   -2.5857   25.5497  -29.3002 H   0  0  0  0  0  0  0  0  0  0  0  0
   -5.7579   24.5025  -28.8683 H   0  0  0  0  0  0  0  0  0  0  0  0
   -4.6764   25.8708  -29.3319 H   0  0  0  0  0  0  0  0  0  0  0  0
   -6.7851   25.3437  -30.8154 H   0  0  0  0  0  0  0  0  0  0  0  0
   -5.2027   25.6925  -31.6093 H   0  0  0  0  0  0  0  0  0  0  0  0
   -8.3910   24.4968  -31.9424 H   0  0  0  0  0  0  0  0  0  0  0  0
  -10.3371   22.9500  -32.1306 H   0  0  0  0  0  0  0  0  0  0  0  0
   -9.9942   20.4832  -32.0434 H   0  0  0  0  0  0  0  0  0  0  0  0
   -6.7472   18.9347  -31.1089 H   0  0  0  0  0  0  0  0  0  0  0  0
   -8.5251   18.6771  -31.3135 H   0  0  0  0  0  0  0  0  0  0  0  0
   -7.4920   16.7206  -32.0760 H   0  0  0  0  0  0  0  0  0  0  0  0
   -7.5536   16.6413  -33.8921 H   0  0  0  0  0  0  0  0  0  0  0  0
   -5.0877   17.3570  -32.2394 H   0  0  0  0  0  0  0  0  0  0  0  0
   -5.4288   15.7498  -32.9924 H   0  0  0  0  0  0  0  0  0  0  0  0
   -5.0844   16.5079  -35.1381 H   0  0  0  0  0  0  0  0  0  0  0  0
   -2.9996   16.8290  -33.6655 H   0  0  0  0  0  0  0  0  0  0  0  0
   -3.0273   17.6717  -35.2721 H   0  0  0  0  0  0  0  0  0  0  0  0
   -1.9635   19.7289  -35.1831 H   0  0  0  0  0  0  0  0  0  0  0  0
   -1.6124   21.9389  -34.0807 H   0  0  0  0  0  0  0  0  0  0  0  0
   -4.0822   20.6829  -30.7580 H   0  0  0  0  0  0  0  0  0  0  0  0
   -4.4351   18.4699  -31.8526 H   0  0  0  0  0  0  0  0  0  0  0  0
   -5.0307   19.1960  -35.5126 H   0  0  0  0  0  0  0  0  0  0  0  0
   -6.5327   18.1924  -35.6355 H   0  0  0  0  0  0  0  0  0  0  0  0
   -5.5997   19.6953  -33.1432 H   0  0  0  0  0  0  0  0  0  0  0  0
   -6.8995   20.2258  -34.2958 H   0  0  0  0  0  0  0  0  0  0  0  0
   -5.7357   21.0961  -31.5583 H   0  0  0  0  0  0  0  0  0  0  0  0
  1  2  1  0
  2  3  1  0
  2  4  1  0
  4  5  1  0
  5  6  1  0
  6  7  1  0
  7  8  2  0
  8  9  1  0
  9 10  2  0
 10 11  1  0
 11 12  1  0
 12 13  1  0
 13 14  1  0
 14 15  1  0
 15 16  1  0
 16 17  1  0
 17 18  1  0
 18 19  2  0
 19 20  1  0
 20 21  2  0
 21 22  1  0
 21 23  1  0
 23 24  2  0
 16 25  1  0
 25 26  1  0
 11 27  2  0
 27  7  1  0
 26 13  1  0
 24 18  1  0
  1 28  1  0
  1 29  1  0
  1 30  1  0
  3 31  1  0
  3 32  1  0
  3 33  1  0
  4 34  1  0
  4 35  1  0
  5 36  1  0
  5 37  1  0
  8 38  1  0
  9 39  1  0
 10 40  1  0
 12 41  1  0
 12 42  1  0
 14 43  1  0
 14 44  1  0
 15 45  1  0
 15 46  1  0
 16 47  1  0
 17 48  1  0
 17 49  1  0
 19 50  1  0
 20 51  1  0
 23 52  1  0
 24 53  1  0
 25 54  1  0
 25 55  1  0
 26 56  1  0
 26 57  1  0
 27 58  1  0
M  END
>  <UniqueID>  (31) 
31

>  <SMILES>  (31) 
CN(C)CCOc1cccc(CN2CCC(Cc3ccc(F)cc3)CC2)c1

>  <Energy>  (31) 
64.24710763650103

>  <Genealogy>  (31) 
CN(C)CCOc1cccc(CN2CCC(Cc3ccc(F)cc3)CC2)c1 (3D coordinates assigned)
CN(C)CCOc1cccc(CN2CCC(Cc3ccc(F)cc3)CC2)c1 (nonaromatic ring conformer: 64.24710763650103 kcal/mol)

>  <smiles>  (31) 
CN(C)CCOc1cccc(CN2CCC(Cc3ccc(F)cc3)CC2)c1

>  <score_type>  (31) 
oracle

>  <origin>  (31) 
adg

>  <m_score__min__energy>  (31) 
-9.0099999999999998

>  <m_primary>  (31) 
energy

$$$$
31:0
     RDKit          3D

 48 49  0  0  0  0  0  0  0  0999 V2000
   -6.1870   15.8480  -34.1920 C   0  0  0  0  0  0  0  0  0  0  0  0
   -6.1550   16.4100  -33.1250 C   0  0  0  0  0  0  0  0  0  0  0  0
   -6.1170   17.0920  -31.8200 C   0  0  0  0  0  0  0  0  0  0  0  0
   -6.7370   18.4360  -31.8900 N   0  0  0  0  0  0  0  0  0  0  0  0
   -8.1730   18.4010  -31.4890 C   0  0  0  0  0  0  0  0  0  0  0  0
   -9.0920   19.3450  -32.3010 C   0  0  0  0  0  0  0  0  0  0  0  0
   -8.4280   20.5870  -32.7450 N   0  0  0  0  0  0  0  0  0  0  0  0
   -8.6450   21.7680  -31.8830 C   0  0  0  0  0  0  0  0  0  0  0  0
   -7.8770   21.7060  -30.5490 C   0  0  0  0  0  0  0  0  0  0  0  0
   -6.7190   22.6250  -30.5570 N   0  0  0  0  0  0  0  0  0  0  0  0
   -5.4910   21.9500  -31.0400 C   0  0  0  0  0  0  0  0  0  0  0  0
   -4.4020   22.9550  -31.4800 C   0  0  0  0  0  0  0  0  0  0  0  0
   -4.5840   24.2800  -30.8560 N   0  0  0  0  0  0  0  0  0  0  0  0
   -4.3460   24.2490  -29.3940 C   0  0  0  0  0  0  0  0  0  0  0  0
   -2.8720   23.9840  -29.1080 C   0  0  0  0  0  0  0  0  0  0  0  0
   -5.8990   24.8680  -31.2100 C   0  0  0  0  0  0  0  0  0  0  0  0
   -7.0120   23.8130  -31.3780 C   0  0  0  0  0  0  0  0  0  0  0  0
   -7.0540   20.4470  -33.2740 C   0  0  0  0  0  0  0  0  0  0  0  0
   -6.5550   18.9990  -33.2400 C   0  0  0  0  0  0  0  0  0  0  0  0
   -6.2162   15.3356  -35.1649 H   0  0  0  0  0  0  0  0  0  0  0  0
   -6.6633   16.4845  -31.0835 H   0  0  0  0  0  0  0  0  0  0  0  0
   -5.0642   17.2131  -31.5250 H   0  0  0  0  0  0  0  0  0  0  0  0
   -6.2180   19.0540  -31.2200 H   0  0  0  0  0  0  0  0  0  0  0  0
   -8.5398   17.3718  -31.6165 H   0  0  0  0  0  0  0  0  0  0  0  0
   -8.2138   18.7476  -30.4458 H   0  0  0  0  0  0  0  0  0  0  0  0
   -9.4457   18.8037  -33.1909 H   0  0  0  0  0  0  0  0  0  0  0  0
   -9.9148   19.6425  -31.6343 H   0  0  0  0  0  0  0  0  0  0  0  0
   -8.3181   22.6638  -32.4314 H   0  0  0  0  0  0  0  0  0  0  0  0
   -9.7169   21.7963  -31.6376 H   0  0  0  0  0  0  0  0  0  0  0  0
   -8.5551   21.9900  -29.7308 H   0  0  0  0  0  0  0  0  0  0  0  0
   -7.5071   20.6799  -30.4068 H   0  0  0  0  0  0  0  0  0  0  0  0
   -5.0886   21.3254  -30.2289 H   0  0  0  0  0  0  0  0  0  0  0  0
   -5.7633   21.3444  -31.9170 H   0  0  0  0  0  0  0  0  0  0  0  0
   -3.4170   22.5594  -31.1914 H   0  0  0  0  0  0  0  0  0  0  0  0
   -4.4781   23.0809  -32.5701 H   0  0  0  0  0  0  0  0  0  0  0  0
   -4.6327   25.2175  -28.9582 H   0  0  0  0  0  0  0  0  0  0  0  0
   -4.9493   23.4444  -28.9483 H   0  0  0  0  0  0  0  0  0  0  0  0
   -2.7090   23.9547  -28.0205 H   0  0  0  0  0  0  0  0  0  0  0  0
   -2.5807   23.0191  -29.5486 H   0  0  0  0  0  0  0  0  0  0  0  0
   -2.2629   24.7870  -29.5486 H   0  0  0  0  0  0  0  0  0  0  0  0
   -6.1960   25.5653  -30.4128 H   0  0  0  0  0  0  0  0  0  0  0  0
   -5.7800   25.3743  -32.1793 H   0  0  0  0  0  0  0  0  0  0  0  0
   -7.9725   24.2453  -31.0609 H   0  0  0  0  0  0  0  0  0  0  0  0
   -7.0642   23.5133  -32.4351 H   0  0  0  0  0  0  0  0  0  0  0  0
   -7.0397   20.8003  -34.3156 H   0  0  0  0  0  0  0  0  0  0  0  0
   -6.3879   21.0443  -32.6341 H   0  0  0  0  0  0  0  0  0  0  0  0
   -7.1255   18.3997  -33.9648 H   0  0  0  0  0  0  0  0  0  0  0  0
   -5.4862   18.9786  -33.4993 H   0  0  0  0  0  0  0  0  0  0  0  0
  1  2  3  0
  2  3  1  0
  3  4  1  0
  4  5  1  0
  5  6  1  0
  6  7  1  0
  7  8  1  0
  8  9  1  0
  9 10  1  0
 10 11  1  0
 11 12  1  0
 12 13  1  0
 13 14  1  0
 14 15  1  0
 13 16  1  0
 16 17  1  0
  7 18  1  0
 18 19  1  0
 19  4  1  0
 17 10  1  0
  1 20  1  0
  3 21  1  0
  3 22  1  0
  4 23  1  0
  5 24  1  0
  5 25  1  0
  6 26  1  0
  6 27  1  0
  8 28  1  0
  8 29  1  0
  9 30  1  0
  9 31  1  0
 11 32  1  0
 11 33  1  0
 12 34  1  0
 12 35  1  0
 14 36  1  0
 14 37  1  0
 15 38  1  0
 15 39  1  0
 15 40  1  0
 16 41  1  0
 16 42  1  0
 17 43  1  0
 17 44  1  0
 18 45  1  0
 18 46  1  0
 19 47  1  0
 19 48  1  0
M  CHG  1   4   1
M  END
>  <UniqueID>  (32) 
32

>  <SMILES>  (32) 
C#CC[NH+]1CCN(CCN2CCN(CC)CC2)CC1

>  <Energy>  (32) 
69.7665886329991

>  <Genealogy>  (32) 
C#CC[NH+]1CCN(CCN2CCN(CC)CC2)CC1 (protonated)
C#CC[NH+]1CCN(CCN2CCN(CC)CC2)CC1 (3D coordinates assigned)
C#CC[NH+]1CCN(CCN2CCN(CC)CC2)CC1 (nonaromatic ring conformer: 69.7665886329991 kcal/mol)

>  <smiles>  (32) 
C#CCN1CCN(CCN2CCN(CC)CC2)CC1

>  <score_type>  (32) 
oracle

>  <origin>  (32) 
adg

>  <m_score__min__energy>  (32) 
-6.1900000000000004

>  <m_primary>  (32) 
energy

$$$$
32:0
     RDKit          3D

 57 59  0  0  0  0  0  0  0  0999 V2000
   -2.1280   24.4190  -28.7470 C   0  0  0  0  0  0  0  0  0  0  0  0
   -3.5660   24.2850  -29.2580 C   0  0  0  0  0  0  0  0  0  0  0  0
   -3.8800   25.2730  -30.3060 N   0  0  0  0  0  0  0  0  0  0  0  0
   -5.3230   25.5470  -30.4100 C   0  0  0  0  0  0  0  0  0  0  0  0
   -6.1320   24.3130  -29.9610 C   0  0  0  0  0  0  0  0  0  0  0  0
   -6.7950   23.6070  -31.0940 N   0  0  1  0  0  0  0  0  0  0  0  0
   -6.0800   23.8670  -32.3720 C   0  0  0  0  0  0  0  0  0  0  0  0
   -5.0080   22.8140  -32.7130 C   0  0  0  0  0  0  0  0  0  0  0  0
   -4.5070   22.1380  -31.4980 N   0  0  0  0  0  0  0  0  0  0  0  0
   -3.2510   21.3520  -31.7550 C   0  0  0  0  0  0  0  0  0  0  0  0
   -2.1860   21.5920  -30.6590 C   0  0  0  0  0  0  0  0  0  0  0  0
   -3.4350   19.8340  -31.9980 C   0  0  0  0  0  0  0  0  0  0  0  0
   -2.8640   19.9920  -33.4020 C   0  0  0  0  0  0  0  0  0  0  0  0
   -2.6830   21.4890  -33.1800 C   0  0  0  0  0  0  0  0  0  0  0  0
   -5.6020   21.4010  -30.8160 C   0  0  0  0  0  0  0  0  0  0  0  0
   -6.9690   22.1450  -30.8510 C   0  0  2  0  0  0  0  0  0  0  0  0
   -7.9520   21.4850  -31.8610 C   0  0  0  0  0  0  0  0  0  0  0  0
   -7.4730   20.1310  -32.3220 C   0  0  0  0  0  0  0  0  0  0  0  0
   -7.8800   18.9690  -31.6440 C   0  0  0  0  0  0  0  0  0  0  0  0
   -7.4620   17.7110  -32.0890 C   0  0  0  0  0  0  0  0  0  0  0  0
   -6.6380   17.6020  -33.2120 C   0  0  0  0  0  0  0  0  0  0  0  0
   -6.2290   18.7520  -33.8920 C   0  0  0  0  0  0  0  0  0  0  0  0
   -6.6440   20.0130  -33.4510 C   0  0  0  0  0  0  0  0  0  0  0  0
   -2.1283   24.4190  -27.6470 H   0  0  0  0  0  0  0  0  0  0  0  0
   -1.5283   23.5729  -29.1135 H   0  0  0  0  0  0  0  0  0  0  0  0
   -1.6949   25.3614  -29.1135 H   0  0  0  0  0  0  0  0  0  0  0  0
   -3.7021   23.2748  -29.6716 H   0  0  0  0  0  0  0  0  0  0  0  0
   -4.2433   24.4658  -28.4103 H   0  0  0  0  0  0  0  0  0  0  0  0
   -3.5250   24.9320  -31.2300 H   0  0  0  0  0  0  0  0  0  0  0  0
   -5.5779   26.4024  -29.7671 H   0  0  0  0  0  0  0  0  0  0  0  0
   -5.5705   25.7777  -31.4567 H   0  0  0  0  0  0  0  0  0  0  0  0
   -5.4499   23.6097  -29.4609 H   0  0  0  0  0  0  0  0  0  0  0  0
   -6.9245   24.6673  -29.2854 H   0  0  0  0  0  0  0  0  0  0  0  0
   -7.7410   24.0460  -31.1870 H   0  0  0  0  0  0  0  0  0  0  0  0
   -6.8200   23.8839  -33.1857 H   0  0  0  0  0  0  0  0  0  0  0  0
   -5.5579   24.8282  -32.2560 H   0  0  0  0  0  0  0  0  0  0  0  0
   -5.4468   22.0620  -33.3853 H   0  0  0  0  0  0  0  0  0  0  0  0
   -4.1629   23.3259  -33.1965 H   0  0  0  0  0  0  0  0  0  0  0  0
   -2.6504   21.4874  -29.6673 H   0  0  0  0  0  0  0  0  0  0  0  0
   -1.3777   20.8535  -30.7652 H   0  0  0  0  0  0  0  0  0  0  0  0
   -1.7726   22.6058  -30.7652 H   0  0  0  0  0  0  0  0  0  0  0  0
   -2.8305   19.1964  -31.3361 H   0  0  0  0  0  0  0  0  0  0  0  0
   -4.4156   19.3597  -31.8451 H   0  0  0  0  0  0  0  0  0  0  0  0
   -1.9220   19.4478  -33.5646 H   0  0  0  0  0  0  0  0  0  0  0  0
   -3.4319   19.6291  -34.2714 H   0  0  0  0  0  0  0  0  0  0  0  0
   -1.6358   21.8240  -33.2149 H   0  0  0  0  0  0  0  0  0  0  0  0
   -3.1206   22.2114  -33.8847 H   0  0  0  0  0  0  0  0  0  0  0  0
   -5.7243   20.4252  -31.3089 H   0  0  0  0  0  0  0  0  0  0  0  0
   -5.3151   21.3021  -29.7587 H   0  0  0  0  0  0  0  0  0  0  0  0
   -7.4268   22.0470  -29.8556 H   0  0  0  0  0  0  0  0  0  0  0  0
   -8.9322   21.3675  -31.3758 H   0  0  0  0  0  0  0  0  0  0  0  0
   -8.0174   22.1381  -32.7437 H   0  0  0  0  0  0  0  0  0  0  0  0
   -8.5297   19.0495  -30.7601 H   0  0  0  0  0  0  0  0  0  0  0  0
   -7.7827   16.8051  -31.5537 H   0  0  0  0  0  0  0  0  0  0  0  0
   -6.3114   16.6112  -33.5607 H   0  0  0  0  0  0  0  0  0  0  0  0
   -5.5796   18.6656  -34.7756 H   0  0  0  0  0  0  0  0  0  0  0  0
   -6.3203   20.9157  -33.9898 H   0  0  0  0  0  0  0  0  0  0  0  0
  1  2  1  0
  2  3  1  0
  3  4  1  0
  4  5  1  0
  5  6  1  0
  6  7  1  0
  7  8  1  0
  8  9  1  0
  9 10  1  0
 10 11  1  0
 10 12  1  0
 12 13  1  0
 13 14  1  0
  9 15  1  0
 15 16  1  0
 16 17  1  0
 17 18  1  0
 18 19  2  0
 19 20  1  0
 20 21  2  0
 21 22  1  0
 22 23  2  0
 16  6  1  0
 23 18  1  0
 14 10  1  0
  1 24  1  0
  1 25  1  0
  1 26  1  0
  2 27  1  0
  2 28  1  0
  3 29  1  0
  4 30  1  0
  4 31  1  0
  5 32  1  0
  5 33  1  0
  6 34  1  6
  7 35  1  0
  7 36  1  0
  8 37  1  0
  8 38  1  0
 11 39  1  0
 11 40  1  0
 11 41  1  0
 12 42  1  0
 12 43  1  0
 13 44  1  0
 13 45  1  0
 14 46  1  0
 14 47  1  0
 15 48  1  0
 15 49  1  0
 16 50  1  1
 17 51  1  0
 17 52  1  0
 19 53  1  0
 20 54  1  0
 21 55  1  0
 22 56  1  0
 23 57  1  0
M  CHG  1   6   1
M  END
>  <UniqueID>  (33) 
33

>  <SMILES>  (33) 
CCNCC[N@H+]1CCN(C2(C)CCC2)C[C@@H]1Cc1ccccc1

>  <Energy>  (33) 
139.75038260698597

>  <Genealogy>  (33) 
CCNCC[NH+]1CCN(C2(C)CCC2)CC1Cc1ccccc1 (protonated)
CCNCC[N@H+]1CCN(C2(C)CCC2)C[C@@H]1Cc1ccccc1 (chirality)
CCNCC[N@H+]1CCN(C2(C)CCC2)C[C@@H]1Cc1ccccc1 (3D coordinates assigned)
CCNCC[N@H+]1CCN(C2(C)CCC2)C[C@@H]1Cc1ccccc1 (nonaromatic ring conformer: 139.75038260698597 kcal/mol)

>  <smiles>  (33) 
CCNCCN1CCN(C2(C)CCC2)CC1Cc1ccccc1

>  <score_type>  (33) 
oracle

>  <origin>  (33) 
adg

>  <m_score__min__energy>  (33) 
-7.4000000000000004

>  <m_primary>  (33) 
energy

$$$$
33:0
     RDKit          3D

 38 39  0  0  0  0  0  0  0  0999 V2000
   -1.5770   25.6700  -27.9840 C   0  0  0  0  0  0  0  0  0  0  0  0
   -2.3000   25.1050  -29.0740 O   0  0  0  0  0  0  0  0  0  0  0  0
   -2.3160   23.7380  -29.3970 C   0  0  0  0  0  0  0  0  0  0  0  0
   -1.2450   23.1300  -30.0830 C   0  0  0  0  0  0  0  0  0  0  0  0
   -1.2880   21.7700  -30.3990 C   0  0  0  0  0  0  0  0  0  0  0  0
   -2.3950   21.0020  -30.0410 C   0  0  0  0  0  0  0  0  0  0  0  0
   -3.4620   21.5900  -29.3610 C   0  0  0  0  0  0  0  0  0  0  0  0
   -3.4340   22.9550  -29.0290 C   0  0  0  0  0  0  0  0  0  0  0  0
   -4.6050   23.5540  -28.2780 C   0  0  0  0  0  0  0  0  0  0  0  0
   -4.9280   24.9150  -28.7470 N   0  0  0  0  0  0  0  0  0  0  0  0
   -6.1000   24.9610  -29.6520 C   0  0  0  0  0  0  0  0  0  0  0  0
   -5.7810   24.4600  -31.0730 C   0  0  0  0  0  0  0  0  0  0  0  0
   -6.3960   23.1150  -31.3530 C   0  0  0  0  0  0  0  0  0  0  0  0
   -5.7410   22.1900  -32.1850 C   0  0  0  0  0  0  0  0  0  0  0  0
   -6.3350   20.9580  -32.4730 C   0  0  0  0  0  0  0  0  0  0  0  0
   -7.5850   20.6390  -31.9350 C   0  0  0  0  0  0  0  0  0  0  0  0
   -8.3970   18.9570  -32.3340 Br  0  0  0  0  0  0  0  0  0  0  0  0
   -8.2420   21.5530  -31.1060 C   0  0  0  0  0  0  0  0  0  0  0  0
   -7.6530   22.7880  -30.8180 C   0  0  0  0  0  0  0  0  0  0  0  0
   -2.0161   25.3269  -27.0356 H   0  0  0  0  0  0  0  0  0  0  0  0
   -0.5253   25.3520  -28.0374 H   0  0  0  0  0  0  0  0  0  0  0  0
   -1.6314   26.7674  -28.0374 H   0  0  0  0  0  0  0  0  0  0  0  0
   -0.3696   23.7305  -30.3714 H   0  0  0  0  0  0  0  0  0  0  0  0
   -0.4461   21.3038  -30.9318 H   0  0  0  0  0  0  0  0  0  0  0  0
   -2.4273   19.9321  -30.2947 H   0  0  0  0  0  0  0  0  0  0  0  0
   -4.3333   20.9792  -29.0822 H   0  0  0  0  0  0  0  0  0  0  0  0
   -5.4855   22.9108  -28.4227 H   0  0  0  0  0  0  0  0  0  0  0  0
   -4.3282   23.6189  -27.2154 H   0  0  0  0  0  0  0  0  0  0  0  0
   -5.0860   25.5260  -27.9120 H   0  0  0  0  0  0  0  0  0  0  0  0
   -4.0980   25.3130  -29.2460 H   0  0  0  0  0  0  0  0  0  0  0  0
   -6.8955   24.3306  -29.2281 H   0  0  0  0  0  0  0  0  0  0  0  0
   -6.4112   26.0128  -29.7353 H   0  0  0  0  0  0  0  0  0  0  0  0
   -6.1715   25.1865  -31.8008 H   0  0  0  0  0  0  0  0  0  0  0  0
   -4.6892   24.3563  -31.1574 H   0  0  0  0  0  0  0  0  0  0  0  0
   -4.7573   22.4369  -32.6109 H   0  0  0  0  0  0  0  0  0  0  0  0
   -5.8178   20.2381  -33.1243 H   0  0  0  0  0  0  0  0  0  0  0  0
   -9.2240   21.3002  -30.6796 H   0  0  0  0  0  0  0  0  0  0  0  0
   -8.1761   23.5065  -30.1698 H   0  0  0  0  0  0  0  0  0  0  0  0
  1  2  1  0
  2  3  1  0
  3  4  2  0
  4  5  1  0
  5  6  2  0
  6  7  1  0
  7  8  2  0
  8  9  1  0
  9 10  1  0
 10 11  1  0
 11 12  1  0
 12 13  1  0
 13 14  2  0
 14 15  1  0
 15 16  2  0
 16 17  1  0
 16 18  1  0
 18 19  2  0
  8  3  1  0
 19 13  1  0
  1 20  1  0
  1 21  1  0
  1 22  1  0
  4 23  1  0
  5 24  1  0
  6 25  1  0
  7 26  1  0
  9 27  1  0
  9 28  1  0
 10 29  1  0
 10 30  1  0
 11 31  1  0
 11 32  1  0
 12 33  1  0
 12 34  1  0
 14 35  1  0
 15 36  1  0
 18 37  1  0
 19 38  1  0
M  CHG  1  10   1
M  END
>  <UniqueID>  (34) 
34

>  <SMILES>  (34) 
COc1ccccc1C[NH2+]CCc1ccc(Br)cc1

>  <Energy>  (34) 
36.48945559862144

>  <Genealogy>  (34) 
COc1ccccc1C[NH2+]CCc1ccc(Br)cc1 (protonated)
COc1ccccc1C[NH2+]CCc1ccc(Br)cc1 (3D coordinates assigned)
COc1ccccc1C[NH2+]CCc1ccc(Br)cc1 (optimized conformer: 36.48945559862144 kcal/mol)

>  <smiles>  (34) 
COc1ccccc1CNCCc1ccc(Br)cc1

>  <score_type>  (34) 
oracle

>  <origin>  (34) 
adg

>  <m_score__min__energy>  (34) 
-6.9000000000000004

>  <m_primary>  (34) 
energy

$$$$
34:0
     RDKit          3D

 54 55  0  0  0  0  0  0  0  0999 V2000
   -6.1442   25.3783  -28.7258 H   0  0  0  0  0  0  0  0  0  0  0  0
   -5.8670   24.9380  -29.6950 C   0  0  0  0  0  0  0  0  0  0  0  0
   -4.4200   24.8740  -30.0220 C   0  0  0  0  0  0  0  0  0  0  0  0
   -3.9140   25.6630  -30.8640 O   0  0  0  0  0  0  0  0  0  0  0  0
   -3.5420   23.8870  -29.3610 C   0  0  0  0  0  0  0  0  0  0  0  0
   -3.9570   22.5490  -29.3010 C   0  0  0  0  0  0  0  0  0  0  0  0
   -4.9159   22.2554  -29.7530 H   0  0  0  0  0  0  0  0  0  0  0  0
   -3.1660   21.5870  -28.6740 C   0  0  0  0  0  0  0  0  0  0  0  0
   -3.5097   20.5430  -28.6306 H   0  0  0  0  0  0  0  0  0  0  0  0
   -1.9360   21.9380  -28.0980 C   0  0  0  0  0  0  0  0  0  0  0  0
   -1.1270   20.9400  -27.4310 N   0  0  0  0  0  0  0  0  0  0  0  0
    0.1930   20.5800  -27.9680 C   0  0  0  0  0  0  0  0  0  0  0  0
    0.9627   20.8174  -27.2189 H   0  0  0  0  0  0  0  0  0  0  0  0
    0.3630   21.1531  -28.8914 H   0  0  0  0  0  0  0  0  0  0  0  0
    0.2630   19.0900  -28.3010 C   0  0  0  0  0  0  0  0  0  0  0  0
    0.2904   18.5068  -27.3687 H   0  0  0  0  0  0  0  0  0  0  0  0
   -0.6227   18.8032  -28.8870 H   0  0  0  0  0  0  0  0  0  0  0  0
    1.1716   18.8875  -28.8870 H   0  0  0  0  0  0  0  0  0  0  0  0
   -1.6100   20.2740  -26.2110 C   0  0  0  0  0  0  0  0  0  0  0  0
   -0.7517   19.8555  -25.6650 H   0  0  0  0  0  0  0  0  0  0  0  0
   -2.1354   21.0146  -25.5901 H   0  0  0  0  0  0  0  0  0  0  0  0
   -2.5810   19.1480  -26.5550 C   0  0  0  0  0  0  0  0  0  0  0  0
   -2.9670   18.7004  -25.6272 H   0  0  0  0  0  0  0  0  0  0  0  0
   -3.4181   19.5525  -27.1429 H   0  0  0  0  0  0  0  0  0  0  0  0
   -2.0578   18.3794  -27.1429 H   0  0  0  0  0  0  0  0  0  0  0  0
   -1.5030   23.2730  -28.1820 C   0  0  0  0  0  0  0  0  0  0  0  0
   -0.5350   23.5577  -27.7438 H   0  0  0  0  0  0  0  0  0  0  0  0
   -2.2920   24.2520  -28.8200 C   0  0  0  0  0  0  0  0  0  0  0  0
   -1.8490   25.5800  -28.9560 O   0  0  0  0  0  0  0  0  0  0  0  0
   -0.9120   26.2150  -28.0930 C   0  0  0  0  0  0  0  0  0  0  0  0
   -1.1912   26.0258  -27.0460 H   0  0  0  0  0  0  0  0  0  0  0  0
    0.0935   25.8115  -28.2830 H   0  0  0  0  0  0  0  0  0  0  0  0
   -0.9142   27.2985  -28.2830 H   0  0  0  0  0  0  0  0  0  0  0  0
   -6.8660   24.5050  -30.4800 C   0  0  0  0  0  0  0  0  0  0  0  0
   -7.6929   25.2040  -30.6741 H   0  0  0  0  0  0  0  0  0  0  0  0
   -6.9490   23.1700  -31.1050 C   0  0  0  0  0  0  0  0  0  0  0  0
   -7.9790   22.2990  -30.7340 C   0  0  0  0  0  0  0  0  0  0  0  0
   -8.7394   22.6292  -30.0109 H   0  0  0  0  0  0  0  0  0  0  0  0
   -8.0490   21.0130  -31.2750 C   0  0  0  0  0  0  0  0  0  0  0  0
   -8.8745   20.3461  -30.9856 H   0  0  0  0  0  0  0  0  0  0  0  0
   -7.0740   20.5590  -32.1880 C   0  0  0  0  0  0  0  0  0  0  0  0
   -7.1460   19.2230  -32.7540 N   0  0  0  0  0  0  0  0  0  0  0  0
   -6.2380   18.8220  -33.8360 C   0  0  0  0  0  0  0  0  0  0  0  0
   -5.3122   18.4131  -33.4051 H   0  0  0  0  0  0  0  0  0  0  0  0
   -6.7236   18.0546  -34.4567 H   0  0  0  0  0  0  0  0  0  0  0  0
   -5.9980   19.6978  -34.4567 H   0  0  0  0  0  0  0  0  0  0  0  0
   -8.1290   18.2520  -32.2570 C   0  0  0  0  0  0  0  0  0  0  0  0
   -8.1247   18.2562  -31.1570 H   0  0  0  0  0  0  0  0  0  0  0  0
   -9.1305   18.5252  -32.6208 H   0  0  0  0  0  0  0  0  0  0  0  0
   -7.8682   17.2472  -32.6208 H   0  0  0  0  0  0  0  0  0  0  0  0
   -6.0210   21.4340  -32.5290 C   0  0  0  0  0  0  0  0  0  0  0  0
   -5.2432   21.1008  -33.2319 H   0  0  0  0  0  0  0  0  0  0  0  0
   -5.9550   22.7190  -31.9840 C   0  0  0  0  0  0  0  0  0  0  0  0
   -5.1169   23.3813  -32.2468 H   0  0  0  0  0  0  0  0  0  0  0  0
  1  2  1  0
  2  3  1  0
  3  4  2  0
  3  5  1  0
  5  6  2  0
  6  7  1  0
  6  8  1  0
  8  9  1  0
  8 10  2  0
 10 11  1  0
 11 12  1  0
 12 13  1  0
 12 14  1  0
 12 15  1  0
 15 16  1  0
 15 17  1  0
 15 18  1  0
 11 19  1  0
 19 20  1  0
 19 21  1  0
 19 22  1  0
 22 23  1  0
 22 24  1  0
 22 25  1  0
 10 26  1  0
 26 27  1  0
 26 28  2  0
 28 29  1  0
 29 30  1  0
 30 31  1  0
 30 32  1  0
 30 33  1  0
  2 34  2  0
 34 35  1  0
 34 36  1  0
 36 37  2  0
 37 38  1  0
 37 39  1  0
 39 40  1  0
 39 41  2  0
 41 42  1  0
 42 43  1  0
 43 44  1  0
 43 45  1  0
 43 46  1  0
 42 47  1  0
 47 48  1  0
 47 49  1  0
 47 50  1  0
 41 51  1  0
 51 52  1  0
 51 53  2  0
 53 54  1  0
 28  5  1  0
 53 36  1  0
M  END
>  <UniqueID>  (35) 
35

>  <SMILES>  (35) 
CCN(CC)c1ccc(C(=O)/C=C\c2ccc(N(C)C)cc2)c(OC)c1

>  <Energy>  (35) 
65.42325387038927

>  <Genealogy>  (35) 
CCN(CC)c1ccc(C(=O)/C=C\c2ccc(N(C)C)cc2)c(OC)c1 (cis-trans isomerization)
CCN(CC)c1ccc(C(=O)/C=C\c2ccc(N(C)C)cc2)c(OC)c1 (3D coordinates assigned)
CCN(CC)c1ccc(C(=O)/C=C\c2ccc(N(C)C)cc2)c(OC)c1 (optimized conformer: 65.42325387038927 kcal/mol)

>  <smiles>  (35) 
CCN(CC)c1ccc(C(=O)C=Cc2ccc(N(C)C)cc2)c(OC)c1

>  <score_type>  (35) 
oracle

>  <origin>  (35) 
adg

>  <m_score__min__energy>  (35) 
-9.4299999999999997

>  <m_primary>  (35) 
energy

$$$$
35:0
     RDKit          3D

 40 42  0  0  0  0  0  0  0  0999 V2000
   -4.7140   19.8450  -31.3370 O   0  0  0  0  0  0  0  0  0  0  0  0
   -5.2980   21.0350  -32.0460 S   0  0  0  0  0  0  0  0  0  0  0  0
   -4.7030   21.1210  -33.4230 O   0  0  0  0  0  0  0  0  0  0  0  0
   -4.8800   22.5170  -31.1880 C   0  0  0  0  0  0  0  0  0  0  0  0
   -5.5160   23.7190  -31.5310 C   0  0  0  0  0  0  0  0  0  0  0  0
   -5.2040   24.8970  -30.8460 C   0  0  0  0  0  0  0  0  0  0  0  0
   -4.2600   24.8800  -29.8160 C   0  0  0  0  0  0  0  0  0  0  0  0
   -3.6280   23.6820  -29.4680 C   0  0  0  0  0  0  0  0  0  0  0  0
   -3.9370   22.5020  -30.1510 C   0  0  0  0  0  0  0  0  0  0  0  0
   -7.0570   20.8550  -32.1300 C   0  0  0  0  0  0  0  0  0  0  0  0
   -7.8680   21.8450  -31.5500 C   0  0  0  0  0  0  0  0  0  0  0  0
   -9.2600   21.7540  -31.6180 C   0  0  0  0  0  0  0  0  0  0  0  0
   -9.8600   20.6700  -32.2610 C   0  0  0  0  0  0  0  0  0  0  0  0
   -9.0680   19.6710  -32.8280 C   0  0  0  0  0  0  0  0  0  0  0  0
   -7.6680   19.7470  -32.7610 C   0  0  0  0  0  0  0  0  0  0  0  0
   -6.8920   18.6820  -33.3280 N   0  0  0  0  0  0  0  0  0  0  0  0
   -6.1140   18.9220  -34.5480 C   0  0  0  0  0  0  0  0  0  0  0  0
   -4.9690   17.9090  -34.6620 C   0  0  0  0  0  0  0  0  0  0  0  0
   -4.3210   17.7330  -33.3550 N   0  0  0  0  0  0  0  0  0  0  0  0
   -5.2190   17.1440  -32.3370 C   0  0  0  0  0  0  0  0  0  0  0  0
   -6.7150   17.4310  -32.5850 C   0  0  0  0  0  0  0  0  0  0  0  0
   -6.2612   23.7348  -32.3400 H   0  0  0  0  0  0  0  0  0  0  0  0
   -5.7025   25.8390  -31.1183 H   0  0  0  0  0  0  0  0  0  0  0  0
   -4.0141   25.8082  -29.2793 H   0  0  0  0  0  0  0  0  0  0  0  0
   -2.8866   23.6681  -28.6556 H   0  0  0  0  0  0  0  0  0  0  0  0
   -3.4396   21.5607  -29.8743 H   0  0  0  0  0  0  0  0  0  0  0  0
   -7.4022   22.6997  -31.0376 H   0  0  0  0  0  0  0  0  0  0  0  0
   -9.8844   22.5377  -31.1642 H   0  0  0  0  0  0  0  0  0  0  0  0
  -10.9564   20.6034  -32.3206 H   0  0  0  0  0  0  0  0  0  0  0  0
   -9.5446   18.8170  -33.3316 H   0  0  0  0  0  0  0  0  0  0  0  0
   -6.7732   18.8234  -35.4231 H   0  0  0  0  0  0  0  0  0  0  0  0
   -5.6894   19.9359  -34.5057 H   0  0  0  0  0  0  0  0  0  0  0  0
   -5.3700   16.9430  -35.0027 H   0  0  0  0  0  0  0  0  0  0  0  0
   -4.2282   18.2816  -35.3848 H   0  0  0  0  0  0  0  0  0  0  0  0
   -3.4870   17.1120  -33.4750 H   0  0  0  0  0  0  0  0  0  0  0  0
   -3.9760   18.6630  -33.0170 H   0  0  0  0  0  0  0  0  0  0  0  0
   -5.0710   16.0540  -32.3330 H   0  0  0  0  0  0  0  0  0  0  0  0
   -4.9592   17.6077  -31.3739 H   0  0  0  0  0  0  0  0  0  0  0  0
   -7.1491   16.6033  -33.1650 H   0  0  0  0  0  0  0  0  0  0  0  0
   -7.2204   17.5256  -31.6126 H   0  0  0  0  0  0  0  0  0  0  0  0
  1  2  2  0
  2  3  2  0
  2  4  1  0
  4  5  2  0
  5  6  1  0
  6  7  2  0
  7  8  1  0
  8  9  2  0
  2 10  1  0
 10 11  2  0
 11 12  1  0
 12 13  2  0
 13 14  1  0
 14 15  2  0
 15 16  1  0
 16 17  1  0
 17 18  1  0
 18 19  1  0
 19 20  1  0
 20 21  1  0
  9  4  1  0
 15 10  1  0
 21 16  1  0
  5 22  1  0
  6 23  1  0
  7 24  1  0
  8 25  1  0
  9 26  1  0
 11 27  1  0
 12 28  1  0
 13 29  1  0
 14 30  1  0
 17 31  1  0
 17 32  1  0
 18 33  1  0
 18 34  1  0
 19 35  1  0
 19 36  1  0
 20 37  1  0
 20 38  1  0
 21 39  1  0
 21 40  1  0
M  CHG  1  19   1
M  END
>  <UniqueID>  (36) 
36

>  <SMILES>  (36) 
O=S(=O)(c1ccccc1)c1ccccc1N1CC[NH2+]CC1

>  <Energy>  (36) 
54.337968625740515

>  <Genealogy>  (36) 
O=S(=O)(c1ccccc1)c1ccccc1N1CC[NH2+]CC1 (protonated)
O=S(=O)(c1ccccc1)c1ccccc1N1CC[NH2+]CC1 (3D coordinates assigned)
O=S(=O)(c1ccccc1)c1ccccc1N1CC[NH2+]CC1 (nonaromatic ring conformer: 54.337968625740515 kcal/mol)

>  <smiles>  (36) 
O=S(=O)(c1ccccc1)c1ccccc1N1CCNCC1

>  <score_type>  (36) 
oracle

>  <origin>  (36) 
adg

>  <m_score__min__energy>  (36) 
-6.8700000000000001

>  <m_primary>  (36) 
energy

$$$$
36:0
     RDKit          3D

 63 66  0  0  0  0  0  0  0  0999 V2000
   -4.7520   19.8030  -31.8880 H   0  0  0  0  0  0  0  0  0  0  0  0
   -5.1130   20.7460  -31.8990 O   0  0  0  0  0  0  0  0  0  0  0  0
   -4.5300   21.8500  -31.2660 C   0  0  0  0  0  0  0  0  0  0  0  0
   -5.3160   22.9680  -30.8830 C   0  0  0  0  0  0  0  0  0  0  0  0
   -6.7250   22.9830  -31.0280 C   0  0  0  0  0  0  0  0  0  0  0  0
   -7.2395   22.0925  -31.4182 H   0  0  0  0  0  0  0  0  0  0  0  0
   -7.4690   24.1110  -30.6830 C   0  0  0  0  0  0  0  0  0  0  0  0
   -8.5615   24.1063  -30.8112 H   0  0  0  0  0  0  0  0  0  0  0  0
   -6.8370   25.2410  -30.1780 C   0  0  0  0  0  0  0  0  0  0  0  0
   -7.4273   26.1323  -29.9190 H   0  0  0  0  0  0  0  0  0  0  0  0
   -5.4550   25.2440  -30.0000 C   0  0  0  0  0  0  0  0  0  0  0  0
   -4.9600   26.1390  -29.5952 H   0  0  0  0  0  0  0  0  0  0  0  0
   -4.6840   24.1100  -30.3340 C   0  0  0  0  0  0  0  0  0  0  0  0
   -3.2970   24.1180  -30.1170 C   0  0  0  0  0  0  0  0  0  0  0  0
   -2.7050   25.2890  -29.6480 O   0  0  0  0  0  0  0  0  0  0  0  0
   -2.5130   22.9720  -30.3940 C   0  0  0  0  0  0  0  0  0  0  0  0
   -1.1170   22.9340  -30.1040 C   0  0  0  0  0  0  0  0  0  0  0  0
   -0.4730   23.9680  -29.3350 N   0  0  0  0  0  0  0  0  0  0  0  0
   -0.5410   24.9570  -29.6670 H   0  0  0  0  0  0  0  0  0  0  0  0
    0.2390   23.7020  -28.0850 C   0  0  0  0  0  0  0  0  0  0  0  0
    1.2499   23.3341  -28.3148 H   0  0  0  0  0  0  0  0  0  0  0  0
   -0.3170   22.9457  -27.5115 H   0  0  0  0  0  0  0  0  0  0  0  0
    0.3460   24.9900  -27.2430 C   0  0  0  0  0  0  0  0  0  0  0  0
    1.3231   25.4540  -27.4431 H   0  0  0  0  0  0  0  0  0  0  0  0
    0.2258   24.6934  -26.1906 H   0  0  0  0  0  0  0  0  0  0  0  0
   -0.7110   25.9870  -27.5310 N   0  0  0  0  0  0  0  0  0  0  0  0
   -0.2770   27.3620  -27.2220 C   0  0  0  0  0  0  0  0  0  0  0  0
   -0.2345   27.4967  -26.1311 H   0  0  0  0  0  0  0  0  0  0  0  0
    0.7201   27.5372  -27.6522 H   0  0  0  0  0  0  0  0  0  0  0  0
   -0.9929   28.0779  -27.6522 H   0  0  0  0  0  0  0  0  0  0  0  0
   -2.0000   25.6520  -26.8910 C   0  0  0  0  0  0  0  0  0  0  0  0
   -2.1982   24.5777  -27.0202 H   0  0  0  0  0  0  0  0  0  0  0  0
   -2.7940   26.2479  -27.3649 H   0  0  0  0  0  0  0  0  0  0  0  0
   -1.9670   25.9790  -25.4000 C   0  0  0  0  0  0  0  0  0  0  0  0
   -2.0608   25.0499  -24.8187 H   0  0  0  0  0  0  0  0  0  0  0  0
   -1.0146   26.4712  -25.1536 H   0  0  0  0  0  0  0  0  0  0  0  0
   -2.8018   26.6515  -25.1536 H   0  0  0  0  0  0  0  0  0  0  0  0
   -0.3520   21.8380  -30.5070 C   0  0  0  0  0  0  0  0  0  0  0  0
    0.7297   21.8273  -30.3075 H   0  0  0  0  0  0  0  0  0  0  0  0
   -0.9390   20.7640  -31.1550 C   0  0  0  0  0  0  0  0  0  0  0  0
   -0.3115   19.9265  -31.4940 H   0  0  0  0  0  0  0  0  0  0  0  0
   -2.3150   20.7290  -31.3840 C   0  0  0  0  0  0  0  0  0  0  0  0
   -2.8560   19.5910  -32.0720 N   0  0  0  0  0  0  0  0  0  0  0  0
   -2.7230   19.3370  -33.3430 C   0  0  0  0  0  0  0  0  0  0  0  0
   -1.7765   19.6038  -33.8359 H   0  0  0  0  0  0  0  0  0  0  0  0
   -3.8080   18.6940  -34.1680 C   0  0  0  0  0  0  0  0  0  0  0  0
   -3.9993   19.3103  -35.0589 H   0  0  0  0  0  0  0  0  0  0  0  0
   -3.4795   17.6879  -34.4678 H   0  0  0  0  0  0  0  0  0  0  0  0
   -5.0520   18.5770  -33.3810 N   0  0  0  0  0  0  0  0  0  0  0  0
   -5.4560   17.1620  -33.2520 C   0  0  0  0  0  0  0  0  0  0  0  0
   -5.4272   16.6885  -34.2444 H   0  0  0  0  0  0  0  0  0  0  0  0
   -4.7589   16.6614  -32.5639 H   0  0  0  0  0  0  0  0  0  0  0  0
   -6.8810   17.0410  -32.6780 C   0  0  0  0  0  0  0  0  0  0  0  0
   -7.5725   16.7622  -33.4868 H   0  0  0  0  0  0  0  0  0  0  0  0
   -6.8788   16.2717  -31.8918 H   0  0  0  0  0  0  0  0  0  0  0  0
   -7.3020   18.2640  -32.1110 O   0  0  0  0  0  0  0  0  0  0  0  0
   -7.4190   19.2480  -33.1240 C   0  0  0  0  0  0  0  0  0  0  0  0
   -8.2698   18.9890  -33.7713 H   0  0  0  0  0  0  0  0  0  0  0  0
   -7.5683   20.2201  -32.6313 H   0  0  0  0  0  0  0  0  0  0  0  0
   -6.1480   19.3520  -33.9940 C   0  0  0  0  0  0  0  0  0  0  0  0
   -6.3595   18.9531  -34.9971 H   0  0  0  0  0  0  0  0  0  0  0  0
   -5.8465   20.4073  -34.0681 H   0  0  0  0  0  0  0  0  0  0  0  0
   -3.1280   21.8430  -31.0200 C   0  0  0  0  0  0  0  0  0  0  0  0
  1  2  1  0
  2  3  1  0
  3  4  2  0
  4  5  1  0
  5  6  1  0
  5  7  2  0
  7  8  1  0
  7  9  1  0
  9 10  1  0
  9 11  2  0
 11 12  1  0
 11 13  1  0
 13 14  2  0
 14 15  1  0
 14 16  1  0
 16 17  2  0
 17 18  1  0
 18 19  1  0
 18 20  1  0
 20 21  1  0
 20 22  1  0
 20 23  1  0
 23 24  1  0
 23 25  1  0
 23 26  1  0
 26 27  1  0
 27 28  1  0
 27 29  1  0
 27 30  1  0
 26 31  1  0
 31 32  1  0
 31 33  1  0
 31 34  1  0
 34 35  1  0
 34 36  1  0
 34 37  1  0
 17 38  1  0
 38 39  1  0
 38 40  2  0
 40 41  1  0
 40 42  1  0
 42 43  1  0
 43 44  2  0
 44 45  1  0
 44 46  1  0
 46 47  1  0
 46 48  1  0
 46 49  1  0
 49 50  1  0
 50 51  1  0
 50 52  1  0
 50 53  1  0
 53 54  1  0
 53 55  1  0
 53 56  1  0
 56 57  1  0
 57 58  1  0
 57 59  1  0
 57 60  1  0
 60 61  1  0
 60 62  1  0
 42 63  2  0
 63  3  1  0
 13  4  1  0
 63 16  1  0
 60 49  1  0
M  CHG  1  15  -1
M  END
>  <UniqueID>  (37) 
37

>  <SMILES>  (37) 
CCN(C)CCNc1ccc(/N=C\CN2CCOCC2)c2c(O)c3ccccc3c([O-])c12

>  <Energy>  (37) 
105.71809454351882

>  <Genealogy>  (37) 
CCN(C)CCNc1ccc(N=CCN2CCOCC2)c2c(O)c3ccccc3c([O-])c12 (protonated)
CCN(C)CCNc1ccc(/N=C\CN2CCOCC2)c2c(O)c3ccccc3c([O-])c12 (cis-trans isomerization)
CCN(C)CCNc1ccc(/N=C\CN2CCOCC2)c2c(O)c3ccccc3c([O-])c12 (3D coordinates assigned)
CCN(C)CCNc1ccc(/N=C\CN2CCOCC2)c2c(O)c3ccccc3c([O-])c12 (nonaromatic ring conformer: 105.71809454351882 kcal/mol)

>  <smiles>  (37) 
CCN(C)CCNc1ccc(N=CCN2CCOCC2)c2c(O)c3ccccc3c(O)c12

>  <score_type>  (37) 
oracle

>  <origin>  (37) 
adg

>  <m_score__min__energy>  (37) 
-10.42

>  <m_primary>  (37) 
energy

$$$$
37:0
     RDKit          3D

 49 51  0  0  0  0  0  0  0  0999 V2000
   -2.4210   24.8650  -27.1890 C   0  0  0  0  0  0  0  0  0  0  0  0
   -1.9290   25.0590  -28.6190 C   0  0  0  0  0  0  0  0  0  0  0  0
   -2.6710   24.2010  -29.5370 N   0  0  0  0  0  0  0  0  0  0  0  0
   -3.8770   24.5610  -30.2270 C   0  0  0  0  0  0  0  0  0  0  0  0
   -3.9080   25.6630  -30.8390 O   0  0  0  0  0  0  0  0  0  0  0  0
   -5.0540   23.6070  -30.3200 C   0  0  1  0  0  0  0  0  0  0  0  0
   -6.2880   24.2590  -30.9890 C   0  0  0  0  0  0  0  0  0  0  0  0
   -7.2500   23.1700  -31.4700 C   0  0  0  0  0  0  0  0  0  0  0  0
   -6.6450   22.3510  -32.5560 N   0  0  2  0  0  0  0  0  0  0  0  0
   -7.3260   21.0730  -32.6740 C   0  0  0  0  0  0  0  0  0  0  0  0
   -8.5600   20.9920  -32.4190 O   0  0  0  0  0  0  0  0  0  0  0  0
   -6.6090   19.8290  -33.0180 C   0  0  0  0  0  0  0  0  0  0  0  0
   -5.7710   19.6730  -34.1190 C   0  0  0  0  0  0  0  0  0  0  0  0
   -5.4180   18.3410  -34.1150 C   0  0  0  0  0  0  0  0  0  0  0  0
   -4.6140   17.6220  -34.9980 C   0  0  0  0  0  0  0  0  0  0  0  0
   -4.4440   16.2470  -34.7600 C   0  0  0  0  0  0  0  0  0  0  0  0
   -5.0830   15.6260  -33.6660 C   0  0  0  0  0  0  0  0  0  0  0  0
   -5.9030   16.3730  -32.7990 C   0  0  0  0  0  0  0  0  0  0  0  0
   -6.0420   17.7420  -33.0500 C   0  0  0  0  0  0  0  0  0  0  0  0
   -6.7850   18.6440  -32.3710 N   0  0  0  0  0  0  0  0  0  0  0  0
   -7.6560   18.3880  -31.2200 C   0  0  0  0  0  0  0  0  0  0  0  0
   -9.1050   18.2460  -31.6690 C   0  0  0  0  0  0  0  0  0  0  0  0
   -5.1670   22.1940  -32.4610 C   0  0  0  0  0  0  0  0  0  0  0  0
   -4.6460   22.2830  -31.0150 C   0  0  0  0  0  0  0  0  0  0  0  0
   -1.6344   25.1752  -26.4854 H   0  0  0  0  0  0  0  0  0  0  0  0
   -3.3212   25.4755  -27.0250 H   0  0  0  0  0  0  0  0  0  0  0  0
   -2.6623   23.8044  -27.0250 H   0  0  0  0  0  0  0  0  0  0  0  0
   -2.0714   26.1099  -28.9111 H   0  0  0  0  0  0  0  0  0  0  0  0
   -0.8629   24.7925  -28.6670 H   0  0  0  0  0  0  0  0  0  0  0  0
   -5.3569   23.3615  -29.2914 H   0  0  0  0  0  0  0  0  0  0  0  0
   -5.9614   24.8637  -31.8479 H   0  0  0  0  0  0  0  0  0  0  0  0
   -6.8013   24.9016  -30.2585 H   0  0  0  0  0  0  0  0  0  0  0  0
   -8.1673   23.6446  -31.8485 H   0  0  0  0  0  0  0  0  0  0  0  0
   -7.4747   22.5074  -30.6212 H   0  0  0  0  0  0  0  0  0  0  0  0
   -6.8220   22.8700  -33.4490 H   0  0  0  0  0  0  0  0  0  0  0  0
   -5.4584   20.4458  -34.8367 H   0  0  0  0  0  0  0  0  0  0  0  0
   -4.1283   18.1146  -35.8533 H   0  0  0  0  0  0  0  0  0  0  0  0
   -3.8083   15.6510  -35.4314 H   0  0  0  0  0  0  0  0  0  0  0  0
   -4.9394   14.5499  -33.4891 H   0  0  0  0  0  0  0  0  0  0  0  0
   -6.4175   15.8957  -31.9520 H   0  0  0  0  0  0  0  0  0  0  0  0
   -7.3377   17.4588  -30.7247 H   0  0  0  0  0  0  0  0  0  0  0  0
   -7.5811   19.2346  -30.5217 H   0  0  0  0  0  0  0  0  0  0  0  0
   -9.7579   18.1820  -30.7860 H   0  0  0  0  0  0  0  0  0  0  0  0
   -9.3892   19.1206  -32.2726 H   0  0  0  0  0  0  0  0  0  0  0  0
   -9.2140   17.3329  -32.2726 H   0  0  0  0  0  0  0  0  0  0  0  0
   -4.6909   22.9881  -33.0549 H   0  0  0  0  0  0  0  0  0  0  0  0
   -4.9167   21.1924  -32.8406 H   0  0  0  0  0  0  0  0  0  0  0  0
   -3.5482   22.2159  -31.0304 H   0  0  0  0  0  0  0  0  0  0  0  0
   -5.0927   21.4543  -30.4461 H   0  0  0  0  0  0  0  0  0  0  0  0
  1  2  1  0
  2  3  1  0
  3  4  1  0
  4  5  2  0
  4  6  1  0
  6  7  1  0
  7  8  1  0
  8  9  1  0
  9 10  1  0
 10 11  2  0
 10 12  1  0
 12 13  2  0
 13 14  1  0
 14 15  2  0
 15 16  1  0
 16 17  2  0
 17 18  1  0
 18 19  2  0
 19 20  1  0
 20 21  1  0
 21 22  1  0
  9 23  1  0
 23 24  1  0
 24  6  1  0
 20 12  1  0
 19 14  1  0
  1 25  1  0
  1 26  1  0
  1 27  1  0
  2 28  1  0
  2 29  1  0
  6 30  1  1
  7 31  1  0
  7 32  1  0
  8 33  1  0
  8 34  1  0
  9 35  1  6
 13 36  1  0
 15 37  1  0
 16 38  1  0
 17 39  1  0
 18 40  1  0
 21 41  1  0
 21 42  1  0
 22 43  1  0
 22 44  1  0
 22 45  1  0
 23 46  1  0
 23 47  1  0
 24 48  1  0
 24 49  1  0
M  CHG  2   3  -1   9   1
M  END
>  <UniqueID>  (38) 
38

>  <SMILES>  (38) 
CC[N-]C(=O)C1CC[NH+](C(=O)c2cc3ccccc3n2CC)CC1

>  <Energy>  (38) 
94.80844183320863

>  <Genealogy>  (38) 
CC[N-]C(=O)C1CC[NH+](C(=O)c2cc3ccccc3n2CC)CC1 (protonated)
CC[N-]C(=O)C1CC[NH+](C(=O)c2cc3ccccc3n2CC)CC1 (3D coordinates assigned)
CC[N-]C(=O)C1CC[NH+](C(=O)c2cc3ccccc3n2CC)CC1 (nonaromatic ring conformer: 94.80844183320863 kcal/mol)

>  <smiles>  (38) 
CCNC(=O)C1CCN(C(=O)c2cc3ccccc3n2CC)CC1

>  <score_type>  (38) 
oracle

>  <origin>  (38) 
adg

>  <m_score__min__energy>  (38) 
-9.8100000000000005

>  <m_primary>  (38) 
energy

$$$$
38:0
     RDKit          3D

 38 39  0  0  0  0  0  0  0  0999 V2000
   -4.0440   21.7050  -32.3820 C   0  0  0  0  0  0  0  0  0  0  0  0
   -4.2460   22.6510  -31.1900 C   0  0  0  0  0  0  0  0  0  0  0  0
   -5.0180   23.8700  -31.5230 N   0  0  0  0  0  0  0  0  0  0  0  0
   -5.1520   24.7840  -30.3660 C   0  0  0  0  0  0  0  0  0  0  0  0
   -4.5990   24.1480  -29.0940 C   0  0  0  0  0  0  0  0  0  0  0  0
   -6.3050   23.5700  -32.1970 C   0  0  0  0  0  0  0  0  0  0  0  0
   -7.4790   23.7830  -31.2370 C   0  0  0  0  0  0  0  0  0  0  0  0
   -7.7120   22.3500  -30.1230 S   0  0  0  0  0  0  0  0  0  0  0  0
   -7.7840   21.1370  -31.4380 C   0  0  0  0  0  0  0  0  0  0  0  0
   -8.8090   21.0220  -32.3040 N   0  0  0  0  0  0  0  0  0  0  0  0
   -8.4850   20.0170  -33.0980 N   0  0  0  0  0  0  0  0  0  0  0  0
   -7.2830   19.5530  -32.7010 C   0  0  0  0  0  0  0  0  0  0  0  0
   -6.5450   18.4250  -33.3110 C   0  0  0  0  0  0  0  0  0  0  0  0
   -5.7090   18.6530  -34.4160 C   0  0  0  0  0  0  0  0  0  0  0  0
   -5.0070   17.5970  -34.9970 C   0  0  0  0  0  0  0  0  0  0  0  0
   -5.1450   16.3120  -34.4690 C   0  0  0  0  0  0  0  0  0  0  0  0
   -5.9550   16.1010  -33.3990 N   0  0  0  0  0  0  0  0  0  0  0  0
   -6.6500   17.1130  -32.8140 C   0  0  0  0  0  0  0  0  0  0  0  0
   -6.8470   20.2490  -31.6760 O   0  0  0  0  0  0  0  0  0  0  0  0
   -3.8276   20.6915  -32.0132 H   0  0  0  0  0  0  0  0  0  0  0  0
   -4.9582   21.6853  -32.9935 H   0  0  0  0  0  0  0  0  0  0  0  0
   -3.2015   22.0604  -32.9935 H   0  0  0  0  0  0  0  0  0  0  0  0
   -4.7825   22.1049  -30.4000 H   0  0  0  0  0  0  0  0  0  0  0  0
   -3.2472   22.9805  -30.8676 H   0  0  0  0  0  0  0  0  0  0  0  0
   -4.5971   25.7106  -30.5745 H   0  0  0  0  0  0  0  0  0  0  0  0
   -6.2201   24.9980  -30.2128 H   0  0  0  0  0  0  0  0  0  0  0  0
   -5.0334   24.6476  -28.2155 H   0  0  0  0  0  0  0  0  0  0  0  0
   -4.8602   23.0796  -29.0747 H   0  0  0  0  0  0  0  0  0  0  0  0
   -3.5047   24.2583  -29.0747 H   0  0  0  0  0  0  0  0  0  0  0  0
   -6.4223   24.2357  -33.0648 H   0  0  0  0  0  0  0  0  0  0  0  0
   -6.2987   22.5190  -32.5216 H   0  0  0  0  0  0  0  0  0  0  0  0
   -7.2843   24.6789  -30.6292 H   0  0  0  0  0  0  0  0  0  0  0  0
   -8.3937   23.9037  -31.8359 H   0  0  0  0  0  0  0  0  0  0  0  0
   -9.0850   19.6730  -33.8790 H   0  0  0  0  0  0  0  0  0  0  0  0
   -5.6073   19.6690  -34.8252 H   0  0  0  0  0  0  0  0  0  0  0  0
   -4.3515   17.7748  -35.8622 H   0  0  0  0  0  0  0  0  0  0  0  0
   -4.5980   15.4706  -34.9193 H   0  0  0  0  0  0  0  0  0  0  0  0
   -7.2968   16.9050  -31.9489 H   0  0  0  0  0  0  0  0  0  0  0  0
  1  2  1  0
  2  3  1  0
  3  4  1  0
  4  5  1  0
  3  6  1  0
  6  7  1  0
  7  8  1  0
  8  9  1  0
  9 10  2  0
 10 11  1  0
 11 12  2  0
 12 13  1  0
 13 14  2  0
 14 15  1  0
 15 16  2  0
 16 17  1  0
 17 18  2  0
 12 19  1  0
 19  9  1  0
 18 13  1  0
  1 20  1  0
  1 21  1  0
  1 22  1  0
  2 23  1  0
  2 24  1  0
  4 25  1  0
  4 26  1  0
  5 27  1  0
  5 28  1  0
  5 29  1  0
  6 30  1  0
  6 31  1  0
  7 32  1  0
  7 33  1  0
 11 34  1  0
 14 35  1  0
 15 36  1  0
 16 37  1  0
 18 38  1  0
M  CHG  1  11   1
M  END
>  <UniqueID>  (39) 
39

>  <SMILES>  (39) 
CCN(CC)CCSc1n[nH+]c(-c2cccnc2)o1

>  <Energy>  (39) 
70.51435736395602

>  <Genealogy>  (39) 
CCN(CC)CCSc1n[nH+]c(-c2cccnc2)o1 (protonated)
CCN(CC)CCSc1n[nH+]c(-c2cccnc2)o1 (3D coordinates assigned)
CCN(CC)CCSc1n[nH+]c(-c2cccnc2)o1 (optimized conformer: 70.51435736395602 kcal/mol)

>  <smiles>  (39) 
CCN(CC)CCSc1nnc(-c2cccnc2)o1

>  <score_type>  (39) 
oracle

>  <origin>  (39) 
adg

>  <m_score__min__energy>  (39) 
-6.7300000000000004

>  <m_primary>  (39) 
energy

$$$$
39:0
     RDKit          3D

 47 50  0  0  0  0  0  0  0  0999 V2000
   -0.7780   18.8860  -33.5230 C   0  0  0  0  0  0  0  0  0  0  0  0
   -0.8020   19.9950  -34.5760 C   0  0  0  0  0  0  0  0  0  0  0  0
   -1.7920   21.0290  -34.2300 N   0  0  0  0  0  0  0  0  0  0  0  0
   -1.9930   21.0910  -32.7710 C   0  0  0  0  0  0  0  0  0  0  0  0
   -3.0520   22.1360  -32.3810 C   0  0  0  0  0  0  0  0  0  0  0  0
   -4.2190   22.0680  -33.2650 N   0  0  0  0  0  0  0  0  0  0  0  0
   -5.2780   21.1260  -33.0420 C   0  0  0  0  0  0  0  0  0  0  0  0
   -6.4750   21.4560  -32.3560 C   0  0  0  0  0  0  0  0  0  0  0  0
   -6.7170   22.7710  -31.9070 C   0  0  0  0  0  0  0  0  0  0  0  0
   -7.8630   23.0720  -31.1760 C   0  0  0  0  0  0  0  0  0  0  0  0
   -8.7850   22.0750  -30.8740 C   0  0  0  0  0  0  0  0  0  0  0  0
   -8.5930   20.7730  -31.3370 C   0  0  0  0  0  0  0  0  0  0  0  0
   -7.4650   20.4370  -32.1240 C   0  0  0  0  0  0  0  0  0  0  0  0
   -7.2950   19.1620  -32.6490 N   0  0  0  0  0  0  0  0  0  0  0  0
   -8.3890   18.1770  -32.6690 C   0  0  0  0  0  0  0  0  0  0  0  0
   -6.0860   18.8590  -33.2190 C   0  0  0  0  0  0  0  0  0  0  0  0
   -5.1140   19.8090  -33.4420 C   0  0  0  0  0  0  0  0  0  0  0  0
   -4.0530   19.2860  -34.0150 O   0  0  0  0  0  0  0  0  0  0  0  0
   -4.2860   18.0000  -34.1500 C   0  0  0  0  0  0  0  0  0  0  0  0
   -3.4150   17.0470  -34.6700 C   0  0  0  0  0  0  0  0  0  0  0  0
   -3.8260   15.7030  -34.6640 C   0  0  0  0  0  0  0  0  0  0  0  0
   -5.0810   15.3410  -34.1300 C   0  0  0  0  0  0  0  0  0  0  0  0
   -5.9480   16.3200  -33.6100 C   0  0  0  0  0  0  0  0  0  0  0  0
   -5.5350   17.6600  -33.6620 C   0  0  0  0  0  0  0  0  0  0  0  0
   -0.7877   19.3340  -32.5184 H   0  0  0  0  0  0  0  0  0  0  0  0
   -1.6625   18.2438  -33.6466 H   0  0  0  0  0  0  0  0  0  0  0  0
    0.1334   18.2826  -33.6466 H   0  0  0  0  0  0  0  0  0  0  0  0
    0.1947   20.4566  -34.6353 H   0  0  0  0  0  0  0  0  0  0  0  0
   -1.0799   19.5533  -35.5443 H   0  0  0  0  0  0  0  0  0  0  0  0
   -2.7000   20.8050  -34.7060 H   0  0  0  0  0  0  0  0  0  0  0  0
   -1.4400   21.9590  -34.5640 H   0  0  0  0  0  0  0  0  0  0  0  0
   -2.3205   20.1031  -32.4150 H   0  0  0  0  0  0  0  0  0  0  0  0
   -1.0391   21.3837  -32.3080 H   0  0  0  0  0  0  0  0  0  0  0  0
   -3.3751   21.9495  -31.3462 H   0  0  0  0  0  0  0  0  0  0  0  0
   -2.6035   23.1360  -32.4748 H   0  0  0  0  0  0  0  0  0  0  0  0
   -4.1910   22.5750  -34.1800 H   0  0  0  0  0  0  0  0  0  0  0  0
   -5.9930   23.5667  -32.1367 H   0  0  0  0  0  0  0  0  0  0  0  0
   -8.0402   24.1029  -30.8357 H   0  0  0  0  0  0  0  0  0  0  0  0
   -9.6704   22.3146  -30.2668 H   0  0  0  0  0  0  0  0  0  0  0  0
   -9.3295   19.9953  -31.0867 H   0  0  0  0  0  0  0  0  0  0  0  0
   -8.6719   17.9223  -31.6370 H   0  0  0  0  0  0  0  0  0  0  0  0
   -9.2572   18.6039  -33.1925 H   0  0  0  0  0  0  0  0  0  0  0  0
   -8.0553   17.2689  -33.1925 H   0  0  0  0  0  0  0  0  0  0  0  0
   -2.4338   17.3372  -35.0738 H   0  0  0  0  0  0  0  0  0  0  0  0
   -3.1647   14.9278  -35.0785 H   0  0  0  0  0  0  0  0  0  0  0  0
   -5.3845   14.2837  -34.1201 H   0  0  0  0  0  0  0  0  0  0  0  0
   -6.9201   16.0431  -33.1759 H   0  0  0  0  0  0  0  0  0  0  0  0
  1  2  1  0
  2  3  1  0
  3  4  1  0
  4  5  1  0
  5  6  1  0
  6  7  1  0
  7  8  2  0
  8  9  1  0
  9 10  2  0
 10 11  1  0
 11 12  2  0
 12 13  1  0
 13 14  2  0
 14 15  1  0
 14 16  1  0
 16 17  2  0
 17 18  1  0
 18 19  1  0
 19 20  2  0
 20 21  1  0
 21 22  2  0
 22 23  1  0
 23 24  2  0
 17  7  1  0
 24 19  1  0
 13  8  1  0
 24 16  1  0
  1 25  1  0
  1 26  1  0
  1 27  1  0
  2 28  1  0
  2 29  1  0
  3 30  1  0
  3 31  1  0
  4 32  1  0
  4 33  1  0
  5 34  1  0
  5 35  1  0
  6 36  1  0
  9 37  1  0
 10 38  1  0
 11 39  1  0
 12 40  1  0
 15 41  1  0
 15 42  1  0
 15 43  1  0
 20 44  1  0
 21 45  1  0
 22 46  1  0
 23 47  1  0
M  CHG  2   3   1  14   1
M  END
>  <UniqueID>  (40) 
40

>  <SMILES>  (40) 
CC[NH2+]CCNc1c2ccccc2[n+](C)c2c1oc1ccccc12

>  <Energy>  (40) 
107.31874596293451

>  <Genealogy>  (40) 
CC[NH2+]CCNc1c2ccccc2[n+](C)c2c1oc1ccccc12 (protonated)
CC[NH2+]CCNc1c2ccccc2[n+](C)c2c1oc1ccccc12 (3D coordinates assigned)
CC[NH2+]CCNc1c2ccccc2[n+](C)c2c1oc1ccccc12 (optimized conformer: 107.31874596293451 kcal/mol)

>  <smiles>  (40) 
CCNCCNc1c2ccccc2[n+](C)c2c1oc1ccccc12

>  <score_type>  (40) 
oracle

>  <origin>  (40) 
adg

>  <m_score__min__energy>  (40) 
-6.8499999999999996

>  <m_primary>  (40) 
energy

$$$$
40:0
     RDKit          3D

 41 42  0  0  0  0  0  0  0  0999 V2000
   -4.9800   15.4060  -32.4600 C   0  0  0  0  0  0  0  0  0  0  0  0
   -4.9970   16.8150  -32.9090 N   0  0  1  0  0  0  0  0  0  0  0  0
   -3.8550   17.0860  -33.8230 C   0  0  0  0  0  0  0  0  0  0  0  0
   -3.7460   18.5660  -34.2250 C   0  0  0  0  0  0  0  0  0  0  0  0
   -3.1870   19.5680  -32.8570 Cl  0  0  0  0  0  0  0  0  0  0  0  0
   -6.2750   17.1300  -33.5940 C   0  0  0  0  0  0  0  0  0  0  0  0
   -6.9640   18.3320  -32.9920 C   0  0  0  0  0  0  0  0  0  0  0  0
   -6.6440   19.6250  -33.4340 C   0  0  0  0  0  0  0  0  0  0  0  0
   -7.2340   20.7420  -32.8360 C   0  0  0  0  0  0  0  0  0  0  0  0
   -8.1510   20.5810  -31.7860 C   0  0  0  0  0  0  0  0  0  0  0  0
   -8.7130   21.7870  -31.0830 C   0  0  0  0  0  0  0  0  0  0  0  0
   -8.3650   23.3190  -32.0200 S   0  0  0  0  0  0  0  0  0  0  0  0
   -6.8310   23.6970  -31.1640 C   0  0  0  0  0  0  0  0  0  0  0  0
   -5.6390   23.0700  -31.5470 C   0  0  0  0  0  0  0  0  0  0  0  0
   -4.4430   23.3810  -30.8910 C   0  0  0  0  0  0  0  0  0  0  0  0
   -4.4390   24.3140  -29.8490 C   0  0  0  0  0  0  0  0  0  0  0  0
   -5.6300   24.9330  -29.4580 C   0  0  0  0  0  0  0  0  0  0  0  0
   -6.8260   24.6210  -30.1110 C   0  0  0  0  0  0  0  0  0  0  0  0
   -8.4810   19.2870  -31.3520 C   0  0  0  0  0  0  0  0  0  0  0  0
   -7.8910   18.1710  -31.9490 C   0  0  0  0  0  0  0  0  0  0  0  0
   -4.9796   15.3715  -31.3605 H   0  0  0  0  0  0  0  0  0  0  0  0
   -5.8720   14.8884  -32.8427 H   0  0  0  0  0  0  0  0  0  0  0  0
   -4.0758   14.9101  -32.8427 H   0  0  0  0  0  0  0  0  0  0  0  0
   -4.9180   17.4290  -32.0640 H   0  0  0  0  0  0  0  0  0  0  0  0
   -2.9237   16.7904  -33.3177 H   0  0  0  0  0  0  0  0  0  0  0  0
   -4.0246   16.5067  -34.7426 H   0  0  0  0  0  0  0  0  0  0  0  0
   -3.0302   18.6605  -35.0548 H   0  0  0  0  0  0  0  0  0  0  0  0
   -4.7425   18.9181  -34.5299 H   0  0  0  0  0  0  0  0  0  0  0  0
   -6.0673   17.3351  -34.6546 H   0  0  0  0  0  0  0  0  0  0  0  0
   -6.9432   16.2641  -33.4770 H   0  0  0  0  0  0  0  0  0  0  0  0
   -5.9250   19.7600  -34.2555 H   0  0  0  0  0  0  0  0  0  0  0  0
   -6.9785   21.7517  -33.1899 H   0  0  0  0  0  0  0  0  0  0  0  0
   -9.8018   21.6681  -30.9809 H   0  0  0  0  0  0  0  0  0  0  0  0
   -8.2378   21.8673  -30.0942 H   0  0  0  0  0  0  0  0  0  0  0  0
   -5.6429   22.3330  -32.3636 H   0  0  0  0  0  0  0  0  0  0  0  0
   -3.5058   22.8917  -31.1947 H   0  0  0  0  0  0  0  0  0  0  0  0
   -3.4976   24.5610  -29.3365 H   0  0  0  0  0  0  0  0  0  0  0  0
   -5.6260   25.6651  -28.6370 H   0  0  0  0  0  0  0  0  0  0  0  0
   -7.7645   25.1017  -29.7976 H   0  0  0  0  0  0  0  0  0  0  0  0
   -9.2080   19.1517  -30.5376 H   0  0  0  0  0  0  0  0  0  0  0  0
   -8.1534   17.1611  -31.6009 H   0  0  0  0  0  0  0  0  0  0  0  0
  1  2  1  0
  2  3  1  0
  3  4  1  0
  4  5  1  0
  2  6  1  0
  6  7  1  0
  7  8  2  0
  8  9  1  0
  9 10  2  0
 10 11  1  0
 11 12  1  0
 12 13  1  0
 13 14  2  0
 14 15  1  0
 15 16  2  0
 16 17  1  0
 17 18  2  0
 10 19  1  0
 19 20  2  0
 20  7  1  0
 18 13  1  0
  1 21  1  0
  1 22  1  0
  1 23  1  0
  2 24  1  1
  3 25  1  0
  3 26  1  0
  4 27  1  0
  4 28  1  0
  6 29  1  0
  6 30  1  0
  8 31  1  0
  9 32  1  0
 11 33  1  0
 11 34  1  0
 14 35  1  0
 15 36  1  0
 16 37  1  0
 17 38  1  0
 18 39  1  0
 19 40  1  0
 20 41  1  0
M  CHG  1   2   1
M  END
>  <UniqueID>  (41) 
41

>  <SMILES>  (41) 
C[N@@H+](CCCl)Cc1ccc(CSc2ccccc2)cc1

>  <Energy>  (41) 
36.42165648432418

>  <Genealogy>  (41) 
C[NH+](CCCl)Cc1ccc(CSc2ccccc2)cc1 (protonated)
C[N@@H+](CCCl)Cc1ccc(CSc2ccccc2)cc1 (chirality)
C[N@@H+](CCCl)Cc1ccc(CSc2ccccc2)cc1 (3D coordinates assigned)
C[N@@H+](CCCl)Cc1ccc(CSc2ccccc2)cc1 (optimized conformer: 36.42165648432418 kcal/mol)

>  <smiles>  (41) 
CN(CCCl)Cc1ccc(CSc2ccccc2)cc1

>  <score_type>  (41) 
oracle

>  <origin>  (41) 
adg

>  <m_score__min__energy>  (41) 
-6.7199999999999998

>  <m_primary>  (41) 
energy

$$$$
