0:0
     RDKit          3D

 44 46  0  0  0  0  0  0  0  0999 V2000
   -6.0928   23.3294  -33.0891 H   0  0  0  0  0  0  0  0  0  0  0  0
   -5.9840   23.6350  -32.0380 C   0  0  0  0  0  0  0  0  0  0  0  0
   -4.7900   24.1070  -31.5890 N   0  0  0  0  0  0  0  0  0  0  0  0
   -4.5990   24.5000  -30.3010 C   0  0  0  0  0  0  0  0  0  0  0  0
   -3.4190   24.9310  -29.9520 N   0  0  0  0  0  0  0  0  0  0  0  0
   -2.3540   24.1550  -29.3810 C   0  0  0  0  0  0  0  0  0  0  0  0
   -2.4100   22.7590  -29.4740 C   0  0  0  0  0  0  0  0  0  0  0  0
   -3.2709   22.2776  -29.9610 H   0  0  0  0  0  0  0  0  0  0  0  0
   -1.3790   21.9740  -28.9520 C   0  0  0  0  0  0  0  0  0  0  0  0
   -1.4490   20.6220  -29.0310 F   0  0  0  0  0  0  0  0  0  0  0  0
   -0.2750   22.5820  -28.3510 C   0  0  0  0  0  0  0  0  0  0  0  0
    0.5313   21.9628  -27.9309 H   0  0  0  0  0  0  0  0  0  0  0  0
   -0.1920   23.9750  -28.2820 C   0  0  0  0  0  0  0  0  0  0  0  0
    0.6833   24.4484  -27.8132 H   0  0  0  0  0  0  0  0  0  0  0  0
   -1.2240   24.7770  -28.8100 C   0  0  0  0  0  0  0  0  0  0  0  0
   -1.1570   26.1800  -28.7960 O   0  0  0  0  0  0  0  0  0  0  0  0
   -0.7690   26.9580  -27.6690 C   0  0  0  0  0  0  0  0  0  0  0  0
   -1.0355   26.4236  -26.7452 H   0  0  0  0  0  0  0  0  0  0  0  0
    0.3179   27.1250  -27.6954 H   0  0  0  0  0  0  0  0  0  0  0  0
   -1.2895   27.9267  -27.6954 H   0  0  0  0  0  0  0  0  0  0  0  0
   -5.6680   24.3930  -29.3880 C   0  0  0  0  0  0  0  0  0  0  0  0
   -5.5298   24.6849  -28.3365 H   0  0  0  0  0  0  0  0  0  0  0  0
   -6.9030   23.9140  -29.8280 C   0  0  0  0  0  0  0  0  0  0  0  0
   -7.7430   23.8324  -29.1225 H   0  0  0  0  0  0  0  0  0  0  0  0
   -7.0750   23.5370  -31.1660 C   0  0  0  0  0  0  0  0  0  0  0  0
   -8.3980   22.9930  -31.6380 C   0  0  0  0  0  0  0  0  0  0  0  0
   -9.0919   22.9412  -30.7860 H   0  0  0  0  0  0  0  0  0  0  0  0
   -8.7979   23.6604  -32.4156 H   0  0  0  0  0  0  0  0  0  0  0  0
   -8.2320   21.6420  -32.2110 N   0  0  0  0  0  0  0  0  0  0  0  0
   -9.4930   20.8670  -32.1300 C   0  0  0  0  0  0  0  0  0  0  0  0
   -9.9114   20.9740  -31.1183 H   0  0  0  0  0  0  0  0  0  0  0  0
  -10.1839   21.2613  -32.8897 H   0  0  0  0  0  0  0  0  0  0  0  0
   -9.2690   19.3670  -32.4210 C   0  0  0  0  0  0  0  0  0  0  0  0
   -9.2926   18.8103  -31.4726 H   0  0  0  0  0  0  0  0  0  0  0  0
  -10.0665   19.0204  -33.0947 H   0  0  0  0  0  0  0  0  0  0  0  0
   -7.9760   19.1400  -33.0770 N   0  0  0  0  0  0  0  0  0  0  0  0
   -7.9510   19.6560  -33.9890 H   0  0  0  0  0  0  0  0  0  0  0  0
   -7.8700   18.1170  -33.2790 H   0  0  0  0  0  0  0  0  0  0  0  0
   -6.8570   19.5790  -32.2250 C   0  0  0  0  0  0  0  0  0  0  0  0
   -6.6726   18.8103  -31.4601 H   0  0  0  0  0  0  0  0  0  0  0  0
   -5.9790   19.7225  -32.8719 H   0  0  0  0  0  0  0  0  0  0  0  0
   -7.1460   20.9200  -31.5200 C   0  0  0  0  0  0  0  0  0  0  0  0
   -7.4452   20.7252  -30.4796 H   0  0  0  0  0  0  0  0  0  0  0  0
   -6.2363   21.5380  -31.5428 H   0  0  0  0  0  0  0  0  0  0  0  0
  1  2  1  0
  2  3  1  0
  3  4  1  0
  4  5  2  0
  5  6  1  0
  6  7  2  0
  7  8  1  0
  7  9  1  0
  9 10  1  0
  9 11  2  0
 11 12  1  0
 11 13  1  0
 13 14  1  0
 13 15  2  0
 15 16  1  0
 16 17  1  0
 17 18  1  0
 17 19  1  0
 17 20  1  0
  4 21  1  0
 21 22  1  0
 21 23  2  0
 23 24  1  0
 23 25  1  0
 25 26  1  0
 26 27  1  0
 26 28  1  0
 26 29  1  0
 29 30  1  0
 30 31  1  0
 30 32  1  0
 30 33  1  0
 33 34  1  0
 33 35  1  0
 33 36  1  0
 36 37  1  0
 36 38  1  0
 36 39  1  0
 39 40  1  0
 39 41  1  0
 39 42  1  0
 42 43  1  0
 42 44  1  0
 25  2  2  0
 42 29  1  0
 15  6  1  0
M  CHG  2   3  -1  36   1
M  END
>  <UniqueID>  (1) 
1

>  <SMILES>  (1) 
COc1ccc(F)cc1/N=c1\ccc(CN2CC[NH2+]CC2)c[n-]1

>  <Energy>  (1) 
62.08813802039446

>  <Genealogy>  (1) 
COc1ccc(F)cc1N=c1ccc(CN2CC[NH2+]CC2)c[n-]1 (protonated)
COc1ccc(F)cc1/N=c1\ccc(CN2CC[NH2+]CC2)c[n-]1 (cis-trans isomerization)
COc1ccc(F)cc1/N=c1\ccc(CN2CC[NH2+]CC2)c[n-]1 (3D coordinates assigned)
COc1ccc(F)cc1/N=c1\ccc(CN2CC[NH2+]CC2)c[n-]1 (nonaromatic ring conformer: 62.08813802039446 kcal/mol)

>  <smiles>  (1) 
COc1ccc(F)cc1N=c1ccc(CN2CCNCC2)c[nH]1

>  <score_type>  (1) 
oracle

>  <origin>  (1) 
adg

>  <m_score__min__energy>  (1) 
-9.3399999999999999

>  <m_primary>  (1) 
energy

$$$$
1:0
     RDKit          3D

 43 46  0  0  0  0  0  0  0  0999 V2000
   -8.0050   19.2910  -33.0708 H   0  0  0  0  0  0  0  0  0  0  0  0
   -7.0450   19.8220  -32.9900 C   0  0  0  0  0  0  0  0  0  0  0  0
   -6.9660   21.1100  -32.4130 C   0  0  0  0  0  0  0  0  0  0  0  0
   -8.2280   21.7920  -31.9440 C   0  0  0  0  0  0  0  0  0  0  0  0
   -7.8556   22.8169  -32.0887 H   0  0  0  0  0  0  0  0  0  0  0  0
   -8.9870   21.0570  -30.8470 C   0  0  0  0  0  0  0  0  0  0  0  0
   -8.5741   20.1319  -30.4184 H   0  0  0  0  0  0  0  0  0  0  0  0
   -9.3901   21.3346  -29.8619 H   0  0  0  0  0  0  0  0  0  0  0  0
   -9.5270   21.0600  -32.2640 C   0  0  0  0  0  0  0  0  0  0  0  0
   -9.5050   20.1374  -32.8626 H   0  0  0  0  0  0  0  0  0  0  0  0
  -10.4826   21.3407  -32.7310 H   0  0  0  0  0  0  0  0  0  0  0  0
   -5.7030   21.7790  -32.3630 C   0  0  0  0  0  0  0  0  0  0  0  0
   -5.6300   22.9820  -31.8710 N   0  0  0  0  0  0  0  0  0  0  0  0
   -5.9780   23.3590  -30.4980 C   0  0  0  0  0  0  0  0  0  0  0  0
   -6.7532   22.6744  -30.1232 H   0  0  0  0  0  0  0  0  0  0  0  0
   -6.5100   24.8050  -30.4870 C   0  0  0  0  0  0  0  0  0  0  0  0
   -7.0639   24.9868  -31.4198 H   0  0  0  0  0  0  0  0  0  0  0  0
   -7.1618   24.9209  -29.6085 H   0  0  0  0  0  0  0  0  0  0  0  0
   -5.3720   25.8370  -30.3750 C   0  0  0  0  0  0  0  0  0  0  0  0
   -5.6307   26.7237  -30.9724 H   0  0  0  0  0  0  0  0  0  0  0  0
   -5.2481   26.1077  -29.3161 H   0  0  0  0  0  0  0  0  0  0  0  0
   -4.1520   25.3010  -30.8480 O   0  0  0  0  0  0  0  0  0  0  0  0
   -3.6750   24.3070  -29.9550 C   0  0  0  0  0  0  0  0  0  0  0  0
   -2.8263   23.7910  -30.4278 H   0  0  0  0  0  0  0  0  0  0  0  0
   -3.3837   24.8171  -29.0249 H   0  0  0  0  0  0  0  0  0  0  0  0
   -4.7460   23.2530  -29.5840 C   0  0  0  0  0  0  0  0  0  0  0  0
   -4.3099   22.2483  -29.6863 H   0  0  0  0  0  0  0  0  0  0  0  0
   -5.0670   23.4356  -28.5479 H   0  0  0  0  0  0  0  0  0  0  0  0
   -4.5760   21.1540  -32.8300 N   0  0  0  0  0  0  0  0  0  0  0  0
   -4.6800   19.9130  -33.3620 C   0  0  0  0  0  0  0  0  0  0  0  0
   -5.8660   19.2520  -33.4510 C   0  0  0  0  0  0  0  0  0  0  0  0
   -5.5570   18.0300  -34.0190 C   0  0  0  0  0  0  0  0  0  0  0  0
   -6.4880   16.8870  -34.2530 C   0  0  0  0  0  0  0  0  0  0  0  0
   -6.8194   16.4802  -33.2862 H   0  0  0  0  0  0  0  0  0  0  0  0
   -7.3617   17.2365  -34.8226 H   0  0  0  0  0  0  0  0  0  0  0  0
   -5.9690   16.1020  -34.8226 H   0  0  0  0  0  0  0  0  0  0  0  0
   -4.2170   17.9920  -34.2290 N   0  0  0  0  0  0  0  0  0  0  0  0
   -3.6740   17.1820  -34.6060 H   0  0  0  0  0  0  0  0  0  0  0  0
   -3.6860   19.1480  -33.8460 N   0  0  0  0  0  0  0  0  0  0  0  0
   -2.2610   19.4500  -33.8400 C   0  0  0  0  0  0  0  0  0  0  0  0
   -1.9065   19.5251  -32.8014 H   0  0  0  0  0  0  0  0  0  0  0  0
   -1.7140   18.6478  -34.3570 H   0  0  0  0  0  0  0  0  0  0  0  0
   -2.0864   20.4051  -34.3570 H   0  0  0  0  0  0  0  0  0  0  0  0
  1  2  1  0
  2  3  2  0
  3  4  1  0
  4  5  1  0
  4  6  1  0
  6  7  1  0
  6  8  1  0
  6  9  1  0
  9 10  1  0
  9 11  1  0
  3 12  1  0
 12 13  2  0
 13 14  1  0
 14 15  1  0
 14 16  1  0
 16 17  1  0
 16 18  1  0
 16 19  1  0
 19 20  1  0
 19 21  1  0
 19 22  1  0
 22 23  1  0
 23 24  1  0
 23 25  1  0
 23 26  1  0
 26 27  1  0
 26 28  1  0
 12 29  1  0
 29 30  1  0
 30 31  2  0
 31 32  1  0
 32 33  1  0
 33 34  1  0
 33 35  1  0
 33 36  1  0
 32 37  2  0
 37 38  1  0
 37 39  1  0
 39 40  1  0
 40 41  1  0
 40 42  1  0
 40 43  1  0
 31  2  1  0
  9  4  1  0
 26 14  1  0
 39 30  1  0
M  CHG  2  29  -1  37   1
M  END
>  <UniqueID>  (2) 
2

>  <SMILES>  (2) 
Cc1[nH+]n(C)c2[n-]/c(=N\C3CCOCC3)c(C3CC3)cc12

>  <Energy>  (2) 
354.4722374368204

>  <Genealogy>  (2) 
Cc1[nH+]n(C)c2[n-]c(=NC3CCOCC3)c(C3CC3)cc12 (protonated)
Cc1[nH+]n(C)c2[n-]/c(=N\C3CCOCC3)c(C3CC3)cc12 (cis-trans isomerization)
Cc1[nH+]n(C)c2[n-]/c(=N\C3CCOCC3)c(C3CC3)cc12 (3D coordinates assigned)
Cc1[nH+]n(C)c2[n-]/c(=N\C3CCOCC3)c(C3CC3)cc12 (nonaromatic ring conformer: 354.4722374368204 kcal/mol)

>  <smiles>  (2) 
Cc1nn(C)c2[nH]c(=NC3CCOCC3)c(C3CC3)cc12

>  <score_type>  (2) 
oracle

>  <origin>  (2) 
adg

>  <m_score__min__energy>  (2) 
-8.7699999999999996

>  <m_primary>  (2) 
energy

$$$$
2:0
     RDKit          3D

 23 23  0  0  0  0  0  0  0  0999 V2000
   -5.8861   22.5556  -29.4083 H   0  0  0  0  0  0  0  0  0  0  0  0
   -5.0580   23.2670  -29.5430 C   0  0  0  0  0  0  0  0  0  0  0  0
   -3.6320   23.3070  -28.6530 S   0  0  0  0  0  0  0  0  0  0  0  0
   -3.0010   24.6110  -29.5180 C   0  0  0  0  0  0  0  0  0  0  0  0
   -1.8670   25.2130  -29.3020 N   0  0  0  0  0  0  0  0  0  0  0  0
   -1.0790   25.2030  -28.1010 C   0  0  0  0  0  0  0  0  0  0  0  0
    0.1520   24.9520  -28.1910 O   0  0  0  0  0  0  0  0  0  0  0  0
   -1.6860   25.3500  -26.7320 C   0  0  0  0  0  0  0  0  0  0  0  0
   -1.3991   24.4842  -26.1171 H   0  0  0  0  0  0  0  0  0  0  0  0
   -2.7795   25.4035  -26.8390 H   0  0  0  0  0  0  0  0  0  0  0  0
   -1.2010   26.6330  -26.0470 C   0  0  0  0  0  0  0  0  0  0  0  0
   -1.8927   27.4532  -26.2895 H   0  0  0  0  0  0  0  0  0  0  0  0
   -0.1880   26.8611  -26.4101 H   0  0  0  0  0  0  0  0  0  0  0  0
   -1.1450   26.4600  -24.5320 C   0  0  0  0  0  0  0  0  0  0  0  0
   -1.4487   27.3981  -24.0444 H   0  0  0  0  0  0  0  0  0  0  0  0
   -1.8275   25.6520  -24.2297 H   0  0  0  0  0  0  0  0  0  0  0  0
   -0.1185   26.2052  -24.2297 H   0  0  0  0  0  0  0  0  0  0  0  0
   -3.8620   25.0350  -30.4660 N   0  0  0  0  0  0  0  0  0  0  0  0
   -5.0040   24.2950  -30.4810 C   0  0  0  0  0  0  0  0  0  0  0  0
   -6.0920   24.5440  -31.4730 C   0  0  0  0  0  0  0  0  0  0  0  0
   -7.0308   24.7588  -30.9414 H   0  0  0  0  0  0  0  0  0  0  0  0
   -5.8230   25.4038  -32.1042 H   0  0  0  0  0  0  0  0  0  0  0  0
   -6.2237   23.6528  -32.1042 H   0  0  0  0  0  0  0  0  0  0  0  0
  1  2  1  0
  2  3  1  0
  3  4  1  0
  4  5  2  0
  5  6  1  0
  6  7  2  0
  6  8  1  0
  8  9  1  0
  8 10  1  0
  8 11  1  0
 11 12  1  0
 11 13  1  0
 11 14  1  0
 14 15  1  0
 14 16  1  0
 14 17  1  0
  4 18  1  0
 18 19  1  0
 19 20  1  0
 20 21  1  0
 20 22  1  0
 20 23  1  0
 19  2  2  0
M  CHG  1  18  -1
M  END
>  <UniqueID>  (3) 
3

>  <SMILES>  (3) 
CCCC(=O)/N=c1/[n-]c(C)cs1

>  <Energy>  (3) 
50.35601780828343

>  <Genealogy>  (3) 
CCCC(=O)N=c1[n-]c(C)cs1 (protonated)
CCCC(=O)/N=c1/[n-]c(C)cs1 (cis-trans isomerization)
CCCC(=O)/N=c1/[n-]c(C)cs1 (3D coordinates assigned)
CCCC(=O)/N=c1/[n-]c(C)cs1 (optimized conformer: 50.35601780828343 kcal/mol)

>  <smiles>  (3) 
CCCC(=O)N=c1[nH]c(C)cs1

>  <score_type>  (3) 
oracle

>  <origin>  (3) 
adg

>  <m_score__min__energy>  (3) 
-6.6799999999999997

>  <m_primary>  (3) 
energy

$$$$
3:0
     RDKit          3D

 48 51  0  0  0  0  0  0  0  0999 V2000
   -9.0670   18.5530  -31.8300 C   0  0  0  0  0  0  0  0  0  0  0  0
   -8.2080   19.7660  -31.9890 C   0  0  0  0  0  0  0  0  0  0  0  0
   -8.6810   20.9630  -32.3950 N   0  0  0  0  0  0  0  0  0  0  0  0
   -7.6480   21.7900  -32.3860 N   0  0  0  0  0  0  0  0  0  0  0  0
   -6.5640   21.1080  -31.9750 C   0  0  0  0  0  0  0  0  0  0  0  0
   -5.1970   21.7250  -31.8310 C   0  0  0  0  0  0  0  0  0  0  0  0
   -5.1510   22.6850  -30.7110 N   0  0  0  0  0  0  0  0  0  0  0  0
   -6.3510   23.5200  -30.4970 C   0  0  0  0  0  0  0  0  0  0  0  0
   -6.1690   24.9680  -30.9620 C   0  0  0  0  0  0  0  0  0  0  0  0
   -5.1030   25.6930  -30.1360 C   0  0  0  0  0  0  0  0  0  0  0  0
   -3.7890   25.2340  -30.4380 O   0  0  0  0  0  0  0  0  0  0  0  0
   -3.2520   24.0840  -29.8630 C   0  0  0  0  0  0  0  0  0  0  0  0
   -2.0140   24.1780  -29.2190 C   0  0  0  0  0  0  0  0  0  0  0  0
   -1.4580   23.0650  -28.5890 C   0  0  0  0  0  0  0  0  0  0  0  0
   -2.1410   21.8490  -28.5960 C   0  0  0  0  0  0  0  0  0  0  0  0
   -1.3930   20.3310  -27.7110 Br  0  0  0  0  0  0  0  0  0  0  0  0
   -3.3680   21.7380  -29.2570 C   0  0  0  0  0  0  0  0  0  0  0  0
   -3.9300   22.8420  -29.9320 C   0  0  0  0  0  0  0  0  0  0  0  0
   -6.8850   19.8210  -31.7100 N   0  0  0  0  0  0  0  0  0  0  0  0
   -6.0270   18.7300  -31.2330 C   0  0  0  0  0  0  0  0  0  0  0  0
   -5.5590   17.8440  -32.3630 C   0  0  0  0  0  0  0  0  0  0  0  0
   -5.3430   16.4760  -32.1240 C   0  0  0  0  0  0  0  0  0  0  0  0
   -4.9570   15.6280  -33.1670 C   0  0  0  0  0  0  0  0  0  0  0  0
   -4.7990   16.1330  -34.4590 C   0  0  0  0  0  0  0  0  0  0  0  0
   -5.0270   17.4880  -34.7120 C   0  0  0  0  0  0  0  0  0  0  0  0
   -5.4110   18.3390  -33.6720 C   0  0  0  0  0  0  0  0  0  0  0  0
   -9.2139   18.3455  -30.7598 H   0  0  0  0  0  0  0  0  0  0  0  0
  -10.0425   18.7295  -32.3066 H   0  0  0  0  0  0  0  0  0  0  0  0
   -8.5766   17.6914  -32.3066 H   0  0  0  0  0  0  0  0  0  0  0  0
   -7.6950   22.7940  -32.6650 H   0  0  0  0  0  0  0  0  0  0  0  0
   -4.4624   20.9270  -31.6479 H   0  0  0  0  0  0  0  0  0  0  0  0
   -4.9640   22.2671  -32.7594 H   0  0  0  0  0  0  0  0  0  0  0  0
   -7.1894   23.0766  -31.0542 H   0  0  0  0  0  0  0  0  0  0  0  0
   -6.5424   23.5459  -29.4141 H   0  0  0  0  0  0  0  0  0  0  0  0
   -5.8637   24.9683  -32.0188 H   0  0  0  0  0  0  0  0  0  0  0  0
   -7.1253   25.4954  -30.8304 H   0  0  0  0  0  0  0  0  0  0  0  0
   -5.1604   26.7705  -30.3497 H   0  0  0  0  0  0  0  0  0  0  0  0
   -5.2986   25.4866  -29.0734 H   0  0  0  0  0  0  0  0  0  0  0  0
   -1.4750   25.1368  -29.2094 H   0  0  0  0  0  0  0  0  0  0  0  0
   -0.4824   23.1460  -28.0874 H   0  0  0  0  0  0  0  0  0  0  0  0
   -3.9025   20.7766  -29.2507 H   0  0  0  0  0  0  0  0  0  0  0  0
   -5.1477   19.1622  -30.7329 H   0  0  0  0  0  0  0  0  0  0  0  0
   -6.6160   18.1129  -30.5385 H   0  0  0  0  0  0  0  0  0  0  0  0
   -5.4783   16.0699  -31.1107 H   0  0  0  0  0  0  0  0  0  0  0  0
   -4.7775   14.5610  -32.9690 H   0  0  0  0  0  0  0  0  0  0  0  0
   -4.4950   15.4641  -35.2777 H   0  0  0  0  0  0  0  0  0  0  0  0
   -4.9042   17.8853  -35.7304 H   0  0  0  0  0  0  0  0  0  0  0  0
   -5.5988   19.4031  -33.8781 H   0  0  0  0  0  0  0  0  0  0  0  0
  1  2  1  0
  2  3  2  0
  3  4  1  0
  4  5  2  0
  5  6  1  0
  6  7  1  0
  7  8  1  0
  8  9  1  0
  9 10  1  0
 10 11  1  0
 11 12  1  0
 12 13  2  0
 13 14  1  0
 14 15  2  0
 15 16  1  0
 15 17  1  0
 17 18  2  0
  5 19  1  0
 19 20  1  0
 20 21  1  0
 21 22  2  0
 22 23  1  0
 23 24  2  0
 24 25  1  0
 25 26  2  0
 19  2  1  0
 26 21  1  0
 18  7  1  0
 18 12  1  0
  1 27  1  0
  1 28  1  0
  1 29  1  0
  4 30  1  0
  6 31  1  0
  6 32  1  0
  8 33  1  0
  8 34  1  0
  9 35  1  0
  9 36  1  0
 10 37  1  0
 10 38  1  0
 13 39  1  0
 14 40  1  0
 17 41  1  0
 20 42  1  0
 20 43  1  0
 22 44  1  0
 23 45  1  0
 24 46  1  0
 25 47  1  0
 26 48  1  0
M  CHG  1   4   1
M  END
>  <UniqueID>  (4) 
4

>  <SMILES>  (4) 
Cc1n[nH+]c(CN2CCCOc3ccc(Br)cc32)n1Cc1ccccc1

>  <Energy>  (4) 
94.77620132282148

>  <Genealogy>  (4) 
Cc1n[nH+]c(CN2CCCOc3ccc(Br)cc32)n1Cc1ccccc1 (protonated)
Cc1n[nH+]c(CN2CCCOc3ccc(Br)cc32)n1Cc1ccccc1 (3D coordinates assigned)
Cc1n[nH+]c(CN2CCCOc3ccc(Br)cc32)n1Cc1ccccc1 (nonaromatic ring conformer: 94.77620132282148 kcal/mol)

>  <smiles>  (4) 
Cc1nnc(CN2CCCOc3ccc(Br)cc32)n1Cc1ccccc1

>  <score_type>  (4) 
oracle

>  <origin>  (4) 
adg

>  <m_score__min__energy>  (4) 
-7.3300000000000001

>  <m_primary>  (4) 
energy

$$$$
4:0
     RDKit          3D

 32 33  0  0  0  0  0  0  0  0999 V2000
   -5.7290   25.6340  -30.3950 C   0  0  0  0  0  0  0  0  0  0  0  0
   -4.9860   24.7350  -31.2130 O   0  0  0  0  0  0  0  0  0  0  0  0
   -5.3920   23.4300  -31.5250 C   0  0  0  0  0  0  0  0  0  0  0  0
   -6.6850   23.2350  -32.0170 C   0  0  0  0  0  0  0  0  0  0  0  0
   -7.1360   21.9540  -32.3440 C   0  0  0  0  0  0  0  0  0  0  0  0
   -6.2940   20.8370  -32.2030 C   0  0  0  0  0  0  0  0  0  0  0  0
   -6.8500   19.4580  -32.5640 C   0  0  2  0  0  0  0  0  0  0  0  0
   -6.6210   18.3320  -31.5590 C   0  0  0  0  0  0  0  0  0  0  0  0
   -6.8570   17.0720  -32.3740 C   0  0  0  0  0  0  0  0  0  0  0  0
   -6.7490   17.5050  -33.8400 C   0  0  0  0  0  0  0  0  0  0  0  0
   -6.3860   18.9350  -33.8680 N   0  0  2  0  0  0  0  0  0  0  0  0
   -4.9310   19.0960  -34.0830 C   0  0  0  0  0  0  0  0  0  0  0  0
   -4.9980   21.0330  -31.6850 C   0  0  0  0  0  0  0  0  0  0  0  0
   -4.5500   22.3160  -31.3560 C   0  0  0  0  0  0  0  0  0  0  0  0
   -5.5409   25.4064  -29.3354 H   0  0  0  0  0  0  0  0  0  0  0  0
   -5.4176   26.6671  -30.6090 H   0  0  0  0  0  0  0  0  0  0  0  0
   -6.8022   25.5227  -30.6090 H   0  0  0  0  0  0  0  0  0  0  0  0
   -7.3541   24.0982  -32.1481 H   0  0  0  0  0  0  0  0  0  0  0  0
   -8.1621   21.8176  -32.7162 H   0  0  0  0  0  0  0  0  0  0  0  0
   -7.9220   19.7041  -32.5808 H   0  0  0  0  0  0  0  0  0  0  0  0
   -5.5939   18.3590  -31.1663 H   0  0  0  0  0  0  0  0  0  0  0  0
   -7.2797   18.4025  -30.6808 H   0  0  0  0  0  0  0  0  0  0  0  0
   -6.0945   16.3145  -32.1399 H   0  0  0  0  0  0  0  0  0  0  0  0
   -7.8357   16.6211  -32.1532 H   0  0  0  0  0  0  0  0  0  0  0  0
   -5.9733   16.9130  -34.3478 H   0  0  0  0  0  0  0  0  0  0  0  0
   -7.7062   17.3437  -34.3574 H   0  0  0  0  0  0  0  0  0  0  0  0
   -6.8960   19.4110  -34.6500 H   0  0  0  0  0  0  0  0  0  0  0  0
   -4.4206   19.1525  -33.1102 H   0  0  0  0  0  0  0  0  0  0  0  0
   -4.5465   18.2349  -34.6493 H   0  0  0  0  0  0  0  0  0  0  0  0
   -4.7441   20.0203  -34.6493 H   0  0  0  0  0  0  0  0  0  0  0  0
   -4.3331   20.1691  -31.5383 H   0  0  0  0  0  0  0  0  0  0  0  0
   -3.5323   22.4551  -30.9624 H   0  0  0  0  0  0  0  0  0  0  0  0
  1  2  1  0
  2  3  1  0
  3  4  2  0
  4  5  1  0
  5  6  2  0
  6  7  1  0
  7  8  1  0
  8  9  1  0
  9 10  1  0
 10 11  1  0
 11 12  1  0
  6 13  1  0
 13 14  2  0
 14  3  1  0
 11  7  1  0
  1 15  1  0
  1 16  1  0
  1 17  1  0
  4 18  1  0
  5 19  1  0
  7 20  1  6
  8 21  1  0
  8 22  1  0
  9 23  1  0
  9 24  1  0
 10 25  1  0
 10 26  1  0
 11 27  1  6
 12 28  1  0
 12 29  1  0
 12 30  1  0
 13 31  1  0
 14 32  1  0
M  CHG  1  11   1
M  END
>  <UniqueID>  (5) 
5

>  <SMILES>  (5) 
COc1ccc([C@@H]2CCC[N@@H+]2C)cc1

>  <Energy>  (5) 
41.32027743502513

>  <Genealogy>  (5) 
COc1ccc(C2CCC[NH+]2C)cc1 (protonated)
COc1ccc([C@@H]2CCC[N@@H+]2C)cc1 (chirality)
COc1ccc([C@@H]2CCC[N@@H+]2C)cc1 (3D coordinates assigned)
COc1ccc([C@@H]2CCC[N@@H+]2C)cc1 (nonaromatic ring conformer: 41.32027743502513 kcal/mol)

>  <smiles>  (5) 
COc1ccc(C2CCCN2C)cc1

>  <score_type>  (5) 
oracle

>  <origin>  (5) 
adg

>  <m_score__min__energy>  (5) 
-5.6500000000000004

>  <m_primary>  (5) 
energy

$$$$
5:0
     RDKit          3D

 53 54  0  0  0  0  0  0  0  0999 V2000
   -9.0790   22.1050  -31.5940 C   0  0  0  0  0  0  0  0  0  0  0  0
   -7.7880   22.7910  -32.0240 C   0  0  0  0  0  0  0  0  0  0  0  0
   -7.0300   23.2200  -30.8240 N   0  0  0  0  0  0  0  0  0  0  0  0
   -6.5360   24.6140  -30.9280 C   0  0  0  0  0  0  0  0  0  0  0  0
   -6.5130   25.3690  -29.5890 C   0  0  0  0  0  0  0  0  0  0  0  0
   -5.9650   22.2740  -30.4270 C   0  0  0  0  0  0  0  0  0  0  0  0
   -4.6860   22.4580  -31.2630 C   0  0  0  0  0  0  0  0  0  0  0  0
   -3.3810   22.2150  -30.4870 C   0  0  0  0  0  0  0  0  0  0  0  0
   -3.1900   23.1670  -29.3780 N   0  0  0  0  0  0  0  0  0  0  0  0
   -3.3520   22.7040  -27.9880 C   0  0  0  0  0  0  0  0  0  0  0  0
   -2.5370   21.4610  -27.7270 C   0  0  0  0  0  0  0  0  0  0  0  0
   -1.1710   21.4160  -28.0610 C   0  0  0  0  0  0  0  0  0  0  0  0
   -0.4300   20.2480  -27.8500 C   0  0  0  0  0  0  0  0  0  0  0  0
   -1.0400   19.1220  -27.2960 C   0  0  0  0  0  0  0  0  0  0  0  0
   -2.3920   19.1610  -26.9440 C   0  0  0  0  0  0  0  0  0  0  0  0
   -3.1370   20.3250  -27.1540 C   0  0  0  0  0  0  0  0  0  0  0  0
   -2.9830   24.5710  -29.6580 C   0  0  0  0  0  0  0  0  0  0  0  0
   -3.7250   25.1650  -30.4870 O   0  0  0  0  0  0  0  0  0  0  0  0
   -1.8930   25.2750  -29.0470 N   0  0  0  0  0  0  0  0  0  0  0  0
   -1.3770   25.0800  -27.7230 C   0  0  0  0  0  0  0  0  0  0  0  0
   -2.0950   25.6050  -26.6410 C   0  0  0  0  0  0  0  0  0  0  0  0
   -1.6070   25.4730  -25.3370 C   0  0  0  0  0  0  0  0  0  0  0  0
   -0.3890   24.8300  -25.1070 C   0  0  0  0  0  0  0  0  0  0  0  0
    0.3480   24.3260  -26.1830 C   0  0  0  0  0  0  0  0  0  0  0  0
   -0.1370   24.4540  -27.4880 C   0  0  0  0  0  0  0  0  0  0  0  0
   -9.1312   22.0773  -30.4956 H   0  0  0  0  0  0  0  0  0  0  0  0
   -9.9403   22.6644  -31.9880 H   0  0  0  0  0  0  0  0  0  0  0  0
   -9.0974   21.0782  -31.9880 H   0  0  0  0  0  0  0  0  0  0  0  0
   -7.1779   22.0885  -32.6108 H   0  0  0  0  0  0  0  0  0  0  0  0
   -8.0287   23.6711  -32.6384 H   0  0  0  0  0  0  0  0  0  0  0  0
   -5.5121   24.5894  -31.3292 H   0  0  0  0  0  0  0  0  0  0  0  0
   -7.2348   25.1519  -31.5855 H   0  0  0  0  0  0  0  0  0  0  0  0
   -6.5350   24.6462  -28.7601 H   0  0  0  0  0  0  0  0  0  0  0  0
   -5.5960   25.9732  -29.5244 H   0  0  0  0  0  0  0  0  0  0  0  0
   -7.3915   26.0278  -29.5244 H   0  0  0  0  0  0  0  0  0  0  0  0
   -5.7223   22.4378  -29.3667 H   0  0  0  0  0  0  0  0  0  0  0  0
   -6.3376   21.2533  -30.5981 H   0  0  0  0  0  0  0  0  0  0  0  0
   -4.7215   21.7526  -32.1063 H   0  0  0  0  0  0  0  0  0  0  0  0
   -4.6693   23.5097  -31.5849 H   0  0  0  0  0  0  0  0  0  0  0  0
   -3.4017   21.1952  -30.0751 H   0  0  0  0  0  0  0  0  0  0  0  0
   -2.5467   22.3542  -31.1903 H   0  0  0  0  0  0  0  0  0  0  0  0
   -3.0214   23.4997  -27.3042 H   0  0  0  0  0  0  0  0  0  0  0  0
   -4.4129   22.4654  -27.8223 H   0  0  0  0  0  0  0  0  0  0  0  0
   -0.6831   22.3035  -28.4902 H   0  0  0  0  0  0  0  0  0  0  0  0
    0.6356   20.2174  -28.1214 H   0  0  0  0  0  0  0  0  0  0  0  0
   -0.4566   18.2033  -27.1362 H   0  0  0  0  0  0  0  0  0  0  0  0
   -2.8703   18.2749  -26.5013 H   0  0  0  0  0  0  0  0  0  0  0  0
   -4.1992   20.3528  -26.8694 H   0  0  0  0  0  0  0  0  0  0  0  0
   -3.0484   26.1243  -26.8180 H   0  0  0  0  0  0  0  0  0  0  0  0
   -2.1835   25.8763  -24.4914 H   0  0  0  0  0  0  0  0  0  0  0  0
   -0.0097   24.7201  -24.0803 H   0  0  0  0  0  0  0  0  0  0  0  0
    1.3118   23.8275  -26.0023 H   0  0  0  0  0  0  0  0  0  0  0  0
    0.4506   24.0653  -28.3327 H   0  0  0  0  0  0  0  0  0  0  0  0
  1  2  1  0
  2  3  1  0
  3  4  1  0
  4  5  1  0
  3  6  1  0
  6  7  1  0
  7  8  1  0
  8  9  1  0
  9 10  1  0
 10 11  1  0
 11 12  2  0
 12 13  1  0
 13 14  2  0
 14 15  1  0
 15 16  2  0
  9 17  1  0
 17 18  2  0
 17 19  1  0
 19 20  1  0
 20 21  2  0
 21 22  1  0
 22 23  2  0
 23 24  1  0
 24 25  2  0
 16 11  1  0
 25 20  1  0
  1 26  1  0
  1 27  1  0
  1 28  1  0
  2 29  1  0
  2 30  1  0
  4 31  1  0
  4 32  1  0
  5 33  1  0
  5 34  1  0
  5 35  1  0
  6 36  1  0
  6 37  1  0
  7 38  1  0
  7 39  1  0
  8 40  1  0
  8 41  1  0
 10 42  1  0
 10 43  1  0
 12 44  1  0
 13 45  1  0
 14 46  1  0
 15 47  1  0
 16 48  1  0
 21 49  1  0
 22 50  1  0
 23 51  1  0
 24 52  1  0
 25 53  1  0
M  CHG  1  19  -1
M  END
>  <UniqueID>  (6) 
6

>  <SMILES>  (6) 
CCN(CC)CCCN(Cc1ccccc1)C(=O)[N-]c1ccccc1

>  <Energy>  (6) 
50.35429952431526

>  <Genealogy>  (6) 
CCN(CC)CCCN(Cc1ccccc1)C(=O)[N-]c1ccccc1 (protonated)
CCN(CC)CCCN(Cc1ccccc1)C(=O)[N-]c1ccccc1 (3D coordinates assigned)
CCN(CC)CCCN(Cc1ccccc1)C(=O)[N-]c1ccccc1 (optimized conformer: 50.35429952431526 kcal/mol)

>  <smiles>  (6) 
CCN(CC)CCCN(Cc1ccccc1)C(=O)Nc1ccccc1

>  <score_type>  (6) 
oracle

>  <origin>  (6) 
adg

>  <m_score__min__energy>  (6) 
-8.6400000000000006

>  <m_primary>  (6) 
energy

$$$$
6:0
     RDKit          3D

 50 53  0  0  0  0  0  0  0  0999 V2000
   -9.2700   18.2160  -31.9210 C   0  0  0  0  0  0  0  0  0  0  0  0
   -7.8730   18.5410  -32.3230 C   0  0  0  0  0  0  0  0  0  0  0  0
   -7.2030   17.8840  -33.2940 N   0  0  0  0  0  0  0  0  0  0  0  0
   -5.9710   18.4170  -33.5240 C   0  0  0  0  0  0  0  0  0  0  0  0
   -5.0840   17.8450  -34.5850 C   0  0  0  0  0  0  0  0  0  0  0  0
   -5.6550   19.5230  -32.7190 C   0  0  0  0  0  0  0  0  0  0  0  0
   -4.4340   20.3510  -32.7090 C   0  0  0  0  0  0  0  0  0  0  0  0
   -4.2570   21.5200  -33.3540 N   0  0  0  0  0  0  0  0  0  0  0  0
   -3.0260   21.9310  -33.1060 N   0  0  0  0  0  0  0  0  0  0  0  0
   -2.4880   20.9870  -32.3100 C   0  0  0  0  0  0  0  0  0  0  0  0
   -1.0980   21.0400  -31.7630 C   0  0  0  0  0  0  0  0  0  0  0  0
   -1.1350   20.9930  -30.2850 N   0  0  0  0  0  0  0  0  0  0  0  0
   -2.4520   20.5530  -29.7580 C   0  0  0  0  0  0  0  0  0  0  0  0
   -3.3960   21.7260  -29.4230 C   0  0  0  0  0  0  0  0  0  0  0  0
   -3.0560   22.8930  -30.2470 N   0  0  0  0  0  0  0  0  0  0  0  0
   -4.2530   24.1460  -30.0380 S   0  0  0  0  0  0  0  0  0  0  0  0
   -3.8620   25.3650  -30.8260 O   0  0  0  0  0  0  0  0  0  0  0  0
   -4.3560   24.5100  -28.5820 O   0  0  0  0  0  0  0  0  0  0  0  0
   -5.8090   23.5700  -30.6280 C   0  0  0  0  0  0  0  0  0  0  0  0
   -6.2040   23.8120  -31.9530 C   0  0  0  0  0  0  0  0  0  0  0  0
   -7.4450   23.3520  -32.4080 C   0  0  0  0  0  0  0  0  0  0  0  0
   -8.2920   22.6500  -31.5460 C   0  0  0  0  0  0  0  0  0  0  0  0
   -9.4940   22.2030  -31.9890 F   0  0  0  0  0  0  0  0  0  0  0  0
   -7.8990   22.4020  -30.2270 C   0  0  0  0  0  0  0  0  0  0  0  0
   -6.6610   22.8610  -29.7680 C   0  0  0  0  0  0  0  0  0  0  0  0
   -1.7180   23.4060  -29.9020 C   0  0  0  0  0  0  0  0  0  0  0  0
   -0.7010   22.2650  -29.6740 C   0  0  0  0  0  0  0  0  0  0  0  0
   -3.3400   20.0160  -32.0680 O   0  0  0  0  0  0  0  0  0  0  0  0
   -6.9830   19.8350  -31.7300 S   0  0  0  0  0  0  0  0  0  0  0  0
   -9.3413   18.1994  -30.8234 H   0  0  0  0  0  0  0  0  0  0  0  0
   -9.9537   18.9791  -32.3213 H   0  0  0  0  0  0  0  0  0  0  0  0
   -9.5467   17.2295  -32.3213 H   0  0  0  0  0  0  0  0  0  0  0  0
   -4.2488   17.3064  -34.1135 H   0  0  0  0  0  0  0  0  0  0  0  0
   -5.6624   17.1493  -35.2107 H   0  0  0  0  0  0  0  0  0  0  0  0
   -4.6889   18.6589  -35.2107 H   0  0  0  0  0  0  0  0  0  0  0  0
   -4.9240   22.0230  -33.9780 H   0  0  0  0  0  0  0  0  0  0  0  0
   -0.5246   20.1806  -32.1408 H   0  0  0  0  0  0  0  0  0  0  0  0
   -0.6190   21.9771  -32.0831 H   0  0  0  0  0  0  0  0  0  0  0  0
   -2.9372   19.9192  -30.5149 H   0  0  0  0  0  0  0  0  0  0  0  0
   -2.2633   20.0079  -28.8213 H   0  0  0  0  0  0  0  0  0  0  0  0
   -4.4351   21.4270  -29.6254 H   0  0  0  0  0  0  0  0  0  0  0  0
   -3.2844   21.9883  -28.3606 H   0  0  0  0  0  0  0  0  0  0  0  0
   -5.5383   24.3631  -32.6336 H   0  0  0  0  0  0  0  0  0  0  0  0
   -7.7544   23.5433  -33.4461 H   0  0  0  0  0  0  0  0  0  0  0  0
   -8.5643   21.8455  -29.5505 H   0  0  0  0  0  0  0  0  0  0  0  0
   -6.3541   22.6658  -28.7299 H   0  0  0  0  0  0  0  0  0  0  0  0
   -1.3590   24.0426  -30.7241 H   0  0  0  0  0  0  0  0  0  0  0  0
   -1.8041   23.9763  -28.9653 H   0  0  0  0  0  0  0  0  0  0  0  0
    0.2631   22.5579  -30.1152 H   0  0  0  0  0  0  0  0  0  0  0  0
   -0.6158   22.1038  -28.5892 H   0  0  0  0  0  0  0  0  0  0  0  0
  1  2  1  0
  2  3  2  0
  3  4  1  0
  4  5  1  0
  4  6  2  0
  6  7  1  0
  7  8  2  0
  8  9  1  0
  9 10  2  0
 10 11  1  0
 11 12  1  0
 12 13  1  0
 13 14  1  0
 14 15  1  0
 15 16  1  0
 16 17  2  0
 16 18  2  0
 16 19  1  0
 19 20  2  0
 20 21  1  0
 21 22  2  0
 22 23  1  0
 22 24  1  0
 24 25  2  0
 15 26  1  0
 26 27  1  0
 10 28  1  0
  6 29  1  0
 29  2  1  0
 28  7  1  0
 27 12  1  0
 25 19  1  0
  1 30  1  0
  1 31  1  0
  1 32  1  0
  5 33  1  0
  5 34  1  0
  5 35  1  0
  8 36  1  0
 11 37  1  0
 11 38  1  0
 13 39  1  0
 13 40  1  0
 14 41  1  0
 14 42  1  0
 20 43  1  0
 21 44  1  0
 24 45  1  0
 25 46  1  0
 26 47  1  0
 26 48  1  0
 27 49  1  0
 27 50  1  0
M  CHG  1   8   1
M  END
>  <UniqueID>  (7) 
7

>  <SMILES>  (7) 
Cc1nc(C)c(-c2[nH+]nc(CN3CCN(S(=O)(=O)c4ccc(F)cc4)CC3)o2)s1

>  <Energy>  (7) 
125.77529557827086

>  <Genealogy>  (7) 
Cc1nc(C)c(-c2[nH+]nc(CN3CCN(S(=O)(=O)c4ccc(F)cc4)CC3)o2)s1 (protonated)
Cc1nc(C)c(-c2[nH+]nc(CN3CCN(S(=O)(=O)c4ccc(F)cc4)CC3)o2)s1 (3D coordinates assigned)
Cc1nc(C)c(-c2[nH+]nc(CN3CCN(S(=O)(=O)c4ccc(F)cc4)CC3)o2)s1 (nonaromatic ring conformer: 125.77529557827086 kcal/mol)

>  <smiles>  (7) 
Cc1nc(C)c(-c2nnc(CN3CCN(S(=O)(=O)c4ccc(F)cc4)CC3)o2)s1

>  <score_type>  (7) 
oracle

>  <origin>  (7) 
adg

>  <m_score__min__energy>  (7) 
-9.3300000000000001

>  <m_primary>  (7) 
energy

$$$$
7:0
     RDKit          3D

 47 49  0  0  0  0  0  0  0  0999 V2000
   -6.6560   25.2730  -29.7240 C   0  0  0  0  0  0  0  0  0  0  0  0
   -6.1410   23.8610  -29.9730 C   0  0  0  0  0  0  0  0  0  0  0  0
   -4.3650   23.8650  -30.2290 S   0  0  0  0  0  0  0  0  0  0  0  0
   -3.8940   25.2860  -30.3630 O   0  0  0  0  0  0  0  0  0  0  0  0
   -3.6930   23.2430  -29.0360 O   0  0  0  0  0  0  0  0  0  0  0  0
   -3.9110   22.9780  -31.6670 N   0  0  0  0  0  0  0  0  0  0  0  0
   -4.9950   22.9710  -32.6590 C   0  0  0  0  0  0  0  0  0  0  0  0
   -5.4930   21.5420  -32.7840 C   0  0  0  0  0  0  0  0  0  0  0  0
   -4.2790   20.6890  -32.4110 C   0  0  2  0  0  0  0  0  0  0  0  0
   -3.3480   20.4950  -33.6500 C   0  0  0  0  0  0  0  0  0  0  0  0
   -2.5730   19.1820  -33.5610 C   0  0  0  0  0  0  0  0  0  0  0  0
   -3.5360   17.9800  -33.5340 C   0  0  0  0  0  0  0  0  0  0  0  0
   -4.8000   18.2320  -32.7910 N   0  0  0  0  0  0  0  0  0  0  0  0
   -5.9790   18.3760  -33.6690 C   0  0  0  0  0  0  0  0  0  0  0  0
   -7.1860   18.7120  -32.8490 C   0  0  0  0  0  0  0  0  0  0  0  0
   -7.7830   17.8080  -31.9740 C   0  0  0  0  0  0  0  0  0  0  0  0
   -9.1090   18.5700  -31.2750 S   0  0  0  0  0  0  0  0  0  0  0  0
   -8.8780   19.9990  -32.1290 C   0  0  0  0  0  0  0  0  0  0  0  0
   -9.6990   21.2310  -31.9610 C   0  0  0  0  0  0  0  0  0  0  0  0
   -7.7930   19.9280  -32.9290 N   0  0  0  0  0  0  0  0  0  0  0  0
   -4.6880   19.3140  -31.7900 C   0  0  0  0  0  0  0  0  0  0  0  0
   -3.5910   21.5750  -31.3560 C   0  0  0  0  0  0  0  0  0  0  0  0
   -6.7219   25.4536  -28.6409 H   0  0  0  0  0  0  0  0  0  0  0  0
   -5.9652   26.0002  -30.1756 H   0  0  0  0  0  0  0  0  0  0  0  0
   -7.6528   25.3847  -30.1756 H   0  0  0  0  0  0  0  0  0  0  0  0
   -6.3782   23.2320  -29.1023 H   0  0  0  0  0  0  0  0  0  0  0  0
   -6.6261   23.4635  -30.8767 H   0  0  0  0  0  0  0  0  0  0  0  0
   -5.8134   23.6257  -32.3250 H   0  0  0  0  0  0  0  0  0  0  0  0
   -4.6330   23.3405  -33.6298 H   0  0  0  0  0  0  0  0  0  0  0  0
   -6.3274   21.3574  -32.0914 H   0  0  0  0  0  0  0  0  0  0  0  0
   -5.8751   21.3149  -33.7902 H   0  0  0  0  0  0  0  0  0  0  0  0
   -3.9625   20.4874  -34.5623 H   0  0  0  0  0  0  0  0  0  0  0  0
   -2.6254   21.3240  -33.6747 H   0  0  0  0  0  0  0  0  0  0  0  0
   -1.9107   19.0941  -34.4348 H   0  0  0  0  0  0  0  0  0  0  0  0
   -1.9832   19.1826  -32.6325 H   0  0  0  0  0  0  0  0  0  0  0  0
   -3.7913   17.7183  -34.5715 H   0  0  0  0  0  0  0  0  0  0  0  0
   -3.0146   17.1672  -33.0072 H   0  0  0  0  0  0  0  0  0  0  0  0
   -5.7963   19.1809  -34.3962 H   0  0  0  0  0  0  0  0  0  0  0  0
   -6.1536   17.4285  -34.1998 H   0  0  0  0  0  0  0  0  0  0  0  0
   -7.4472   16.7795  -31.7756 H   0  0  0  0  0  0  0  0  0  0  0  0
   -9.8362   21.4369  -30.8892 H   0  0  0  0  0  0  0  0  0  0  0  0
   -9.1861   22.0809  -32.4349 H   0  0  0  0  0  0  0  0  0  0  0  0
  -10.6809   21.0848  -32.4349 H   0  0  0  0  0  0  0  0  0  0  0  0
   -5.6617   19.4314  -31.2919 H   0  0  0  0  0  0  0  0  0  0  0  0
   -3.8946   19.0254  -31.0848 H   0  0  0  0  0  0  0  0  0  0  0  0
   -3.9636   21.3199  -30.3529 H   0  0  0  0  0  0  0  0  0  0  0  0
   -2.5026   21.4168  -31.3729 H   0  0  0  0  0  0  0  0  0  0  0  0
  1  2  1  0
  2  3  1  0
  3  4  2  0
  3  5  2  0
  3  6  1  0
  6  7  1  0
  7  8  1  0
  9  8  1  6
  9 10  1  0
 10 11  1  0
 11 12  1  0
 12 13  1  0
 13 14  1  0
 14 15  1  0
 15 16  2  0
 16 17  1  0
 17 18  1  0
 18 19  1  0
 18 20  2  0
 13 21  1  0
  9 22  1  0
 22  6  1  0
 21  9  1  0
 20 15  1  0
  1 23  1  0
  1 24  1  0
  1 25  1  0
  2 26  1  0
  2 27  1  0
  7 28  1  0
  7 29  1  0
  8 30  1  0
  8 31  1  0
 10 32  1  0
 10 33  1  0
 11 34  1  0
 11 35  1  0
 12 36  1  0
 12 37  1  0
 14 38  1  0
 14 39  1  0
 16 40  1  0
 19 41  1  0
 19 42  1  0
 19 43  1  0
 21 44  1  0
 21 45  1  0
 22 46  1  0
 22 47  1  0
M  END
>  <UniqueID>  (8) 
8

>  <SMILES>  (8) 
CCS(=O)(=O)N1CC[C@@]2(CCCN(Cc3csc(C)n3)C2)C1

>  <Energy>  (8) 
81.25938039001178

>  <Genealogy>  (8) 
CCS(=O)(=O)N1CC[C@@]2(CCCN(Cc3csc(C)n3)C2)C1 (chirality)
CCS(=O)(=O)N1CC[C@@]2(CCCN(Cc3csc(C)n3)C2)C1 (3D coordinates assigned)
CCS(=O)(=O)N1CC[C@@]2(CCCN(Cc3csc(C)n3)C2)C1 (nonaromatic ring conformer: 81.25938039001178 kcal/mol)

>  <smiles>  (8) 
CCS(=O)(=O)N1CCC2(CCCN(Cc3csc(C)n3)C2)C1

>  <score_type>  (8) 
oracle

>  <origin>  (8) 
adg

>  <m_score__min__energy>  (8) 
-8.6099999999999994

>  <m_primary>  (8) 
energy

$$$$
8:0
     RDKit          3D

 60 61  0  0  0  0  0  0  0  0999 V2000
   -2.1870   17.4090  -33.1850 C   0  0  0  0  0  0  0  0  0  0  0  0
   -2.7090   18.2870  -34.3170 C   0  0  0  0  0  0  0  0  0  0  0  0
   -3.7030   19.2490  -33.7920 N   0  0  0  0  0  0  0  0  0  0  0  0
   -3.3610   19.6860  -32.4210 C   0  0  0  0  0  0  0  0  0  0  0  0
   -2.4080   20.8800  -32.4340 C   0  0  0  0  0  0  0  0  0  0  0  0
   -5.3240   18.5710  -33.8710 S   0  0  0  0  0  0  0  0  0  0  0  0
   -5.3410   17.1980  -33.2580 O   0  0  0  0  0  0  0  0  0  0  0  0
   -5.7330   18.4280  -35.3100 O   0  0  0  0  0  0  0  0  0  0  0  0
   -6.5070   19.5750  -33.0210 C   0  0  0  0  0  0  0  0  0  0  0  0
   -7.8070   19.1040  -32.8100 C   0  0  0  0  0  0  0  0  0  0  0  0
   -8.7320   19.8800  -32.1070 C   0  0  0  0  0  0  0  0  0  0  0  0
   -8.3730   21.1410  -31.6050 C   0  0  0  0  0  0  0  0  0  0  0  0
   -9.3820   21.9210  -30.8090 C   0  0  0  0  0  0  0  0  0  0  0  0
   -7.0770   21.6440  -31.8730 C   0  0  0  0  0  0  0  0  0  0  0  0
   -6.6620   22.9430  -31.4210 N   0  0  0  0  0  0  0  0  0  0  0  0
   -5.3510   23.1880  -30.8900 C   0  0  0  0  0  0  0  0  0  0  0  0
   -4.5030   22.2570  -30.8220 O   0  0  0  0  0  0  0  0  0  0  0  0
   -4.9790   24.5540  -30.3960 C   0  0  0  0  0  0  0  0  0  0  0  0
   -3.5690   24.7500  -30.4890 O   0  0  0  0  0  0  0  0  0  0  0  0
   -2.6900   24.5490  -29.4170 C   0  0  0  0  0  0  0  0  0  0  0  0
   -2.0540   25.5260  -28.9290 O   0  0  0  0  0  0  0  0  0  0  0  0
   -2.5090   23.1900  -28.8590 C   0  0  0  0  0  0  0  0  0  0  0  0
   -1.3480   22.4480  -29.1330 C   0  0  0  0  0  0  0  0  0  0  0  0
   -1.1820   21.1660  -28.6010 C   0  0  0  0  0  0  0  0  0  0  0  0
   -2.1750   20.5920  -27.7810 C   0  0  0  0  0  0  0  0  0  0  0  0
   -2.0030   19.2620  -27.2270 N   0  0  0  0  0  0  0  0  0  0  0  0
   -3.0290   18.6800  -26.3530 C   0  0  0  0  0  0  0  0  0  0  0  0
   -0.8030   18.4740  -27.5360 C   0  0  0  0  0  0  0  0  0  0  0  0
   -3.3370   21.3410  -27.5120 C   0  0  0  0  0  0  0  0  0  0  0  0
   -3.5000   22.6230  -28.0440 C   0  0  0  0  0  0  0  0  0  0  0  0
   -6.1500   20.8470  -32.5560 C   0  0  0  0  0  0  0  0  0  0  0  0
   -2.4550   17.8597  -32.2180 H   0  0  0  0  0  0  0  0  0  0  0  0
   -2.6367   16.4080  -33.2602 H   0  0  0  0  0  0  0  0  0  0  0  0
   -1.0927   17.3259  -33.2602 H   0  0  0  0  0  0  0  0  0  0  0  0
   -1.8703   18.8385  -34.7670 H   0  0  0  0  0  0  0  0  0  0  0  0
   -3.1871   17.6513  -35.0768 H   0  0  0  0  0  0  0  0  0  0  0  0
   -4.2846   19.9718  -31.8963 H   0  0  0  0  0  0  0  0  0  0  0  0
   -2.8608   18.8514  -31.9080 H   0  0  0  0  0  0  0  0  0  0  0  0
   -2.1738   21.1735  -31.4001 H   0  0  0  0  0  0  0  0  0  0  0  0
   -1.4801   20.6028  -32.9556 H   0  0  0  0  0  0  0  0  0  0  0  0
   -2.8840   21.7234  -32.9556 H   0  0  0  0  0  0  0  0  0  0  0  0
   -8.1024   18.1185  -33.1992 H   0  0  0  0  0  0  0  0  0  0  0  0
   -9.7513   19.4993  -31.9453 H   0  0  0  0  0  0  0  0  0  0  0  0
   -9.1936   21.7754  -29.7351 H   0  0  0  0  0  0  0  0  0  0  0  0
   -9.2960   22.9897  -31.0548 H   0  0  0  0  0  0  0  0  0  0  0  0
  -10.3946   21.5686  -31.0548 H   0  0  0  0  0  0  0  0  0  0  0  0
   -7.4050   23.6600  -31.2610 H   0  0  0  0  0  0  0  0  0  0  0  0
   -5.4913   25.3121  -31.0066 H   0  0  0  0  0  0  0  0  0  0  0  0
   -5.2834   24.6476  -29.3431 H   0  0  0  0  0  0  0  0  0  0  0  0
   -0.5630   22.8794  -29.7715 H   0  0  0  0  0  0  0  0  0  0  0  0
   -0.2665   20.5987  -28.8246 H   0  0  0  0  0  0  0  0  0  0  0  0
   -2.7482   18.8393  -25.3014 H   0  0  0  0  0  0  0  0  0  0  0  0
   -3.9969   19.1635  -26.5514 H   0  0  0  0  0  0  0  0  0  0  0  0
   -3.1106   17.6011  -26.5514 H   0  0  0  0  0  0  0  0  0  0  0  0
   -0.3210   18.1575  -26.5993 H   0  0  0  0  0  0  0  0  0  0  0  0
   -1.0876   17.5864  -28.1201 H   0  0  0  0  0  0  0  0  0  0  0  0
   -0.1016   19.0879  -28.1201 H   0  0  0  0  0  0  0  0  0  0  0  0
   -4.1253   20.9120  -26.8759 H   0  0  0  0  0  0  0  0  0  0  0  0
   -4.4142   23.1929  -27.8215 H   0  0  0  0  0  0  0  0  0  0  0  0
   -5.1311   21.2238  -32.7291 H   0  0  0  0  0  0  0  0  0  0  0  0
  1  2  1  0
  2  3  1  0
  3  4  1  0
  4  5  1  0
  3  6  1  0
  6  7  2  0
  6  8  2  0
  6  9  1  0
  9 10  2  0
 10 11  1  0
 11 12  2  0
 12 13  1  0
 12 14  1  0
 14 15  1  0
 15 16  1  0
 16 17  2  0
 16 18  1  0
 18 19  1  0
 19 20  1  0
 20 21  2  0
 20 22  1  0
 22 23  2  0
 23 24  1  0
 24 25  2  0
 25 26  1  0
 26 27  1  0
 26 28  1  0
 25 29  1  0
 29 30  2  0
 14 31  2  0
 31  9  1  0
 30 22  1  0
  1 32  1  0
  1 33  1  0
  1 34  1  0
  2 35  1  0
  2 36  1  0
  4 37  1  0
  4 38  1  0
  5 39  1  0
  5 40  1  0
  5 41  1  0
 10 42  1  0
 11 43  1  0
 13 44  1  0
 13 45  1  0
 13 46  1  0
 15 47  1  0
 18 48  1  0
 18 49  1  0
 23 50  1  0
 24 51  1  0
 27 52  1  0
 27 53  1  0
 27 54  1  0
 28 55  1  0
 28 56  1  0
 28 57  1  0
 29 58  1  0
 30 59  1  0
 31 60  1  0
M  END
>  <UniqueID>  (9) 
9

>  <SMILES>  (9) 
CCN(CC)S(=O)(=O)c1ccc(C)c(NC(=O)COC(=O)c2ccc(N(C)C)cc2)c1

>  <Energy>  (9) 
62.88581692665156

>  <Genealogy>  (9) 
CCN(CC)S(=O)(=O)c1ccc(C)c(NC(=O)COC(=O)c2ccc(N(C)C)cc2)c1 (3D coordinates assigned)
CCN(CC)S(=O)(=O)c1ccc(C)c(NC(=O)COC(=O)c2ccc(N(C)C)cc2)c1 (optimized conformer: 62.88581692665156 kcal/mol)

>  <smiles>  (9) 
CCN(CC)S(=O)(=O)c1ccc(C)c(NC(=O)COC(=O)c2ccc(N(C)C)cc2)c1

>  <score_type>  (9) 
oracle

>  <origin>  (9) 
adg

>  <m_score__min__energy>  (9) 
-9.9199999999999999

>  <m_primary>  (9) 
energy

$$$$
9:0
     RDKit          3D

 55 58  0  0  0  0  0  0  0  0999 V2000
   -9.2110   21.1770  -32.2800 C   0  0  0  0  0  0  0  0  0  0  0  0
   -7.9250   21.8300  -31.8630 C   0  0  0  0  0  0  0  0  0  0  0  0
   -6.7020   21.2990  -32.2770 C   0  0  0  0  0  0  0  0  0  0  0  0
   -5.4900   21.9200  -31.9330 C   0  0  0  0  0  0  0  0  0  0  0  0
   -4.2050   21.2800  -32.3970 C   0  0  0  0  0  0  0  0  0  0  0  0
   -5.5050   23.1180  -31.1630 C   0  0  0  0  0  0  0  0  0  0  0  0
   -4.2140   23.8420  -30.8050 C   0  0  0  0  0  0  0  0  0  0  0  0
   -3.4250   23.0600  -29.8310 N   0  0  0  0  0  0  0  0  0  0  0  0
   -2.0050   22.9560  -30.2490 C   0  0  0  0  0  0  0  0  0  0  0  0
   -1.0910   22.4090  -29.1140 C   0  0  2  0  0  0  0  0  0  0  0  0
   -1.9520   21.7090  -28.0750 C   0  0  0  0  0  0  0  0  0  0  0  0
   -2.5780   22.9340  -27.4340 C   0  0  2  0  0  0  0  0  0  0  0  0
   -3.6170   23.5420  -28.4380 C   0  0  0  0  0  0  0  0  0  0  0  0
   -1.4080   23.8030  -27.1830 N   0  0  0  0  0  0  0  0  0  0  0  0
   -1.6350   25.2320  -26.8820 C   0  0  0  0  0  0  0  0  0  0  0  0
   -0.9000   25.6570  -25.6360 C   0  0  0  0  0  0  0  0  0  0  0  0
    0.4210   25.2400  -25.4230 C   0  0  0  0  0  0  0  0  0  0  0  0
    1.0890   25.6350  -24.2600 C   0  0  0  0  0  0  0  0  0  0  0  0
    0.4610   26.4210  -23.3440 N   0  0  0  0  0  0  0  0  0  0  0  0
   -0.8180   26.8450  -23.5320 C   0  0  0  0  0  0  0  0  0  0  0  0
   -1.5200   26.4750  -24.6820 C   0  0  0  0  0  0  0  0  0  0  0  0
   -0.4880   23.5690  -28.3040 C   0  0  0  0  0  0  0  0  0  0  0  0
   -6.7550   23.6510  -30.7440 C   0  0  0  0  0  0  0  0  0  0  0  0
   -6.8520   24.9280  -29.9430 C   0  0  0  0  0  0  0  0  0  0  0  0
   -7.9470   23.0100  -31.1160 C   0  0  0  0  0  0  0  0  0  0  0  0
   -9.7819   20.8871  -31.3856 H   0  0  0  0  0  0  0  0  0  0  0  0
   -9.8033   21.8835  -32.8800 H   0  0  0  0  0  0  0  0  0  0  0  0
   -8.9900   20.2819  -32.8800 H   0  0  0  0  0  0  0  0  0  0  0  0
   -6.6873   20.3803  -32.8818 H   0  0  0  0  0  0  0  0  0  0  0  0
   -3.6072   20.9823  -31.5229 H   0  0  0  0  0  0  0  0  0  0  0  0
   -4.4359   20.3916  -33.0032 H   0  0  0  0  0  0  0  0  0  0  0  0
   -3.6350   21.9995  -33.0032 H   0  0  0  0  0  0  0  0  0  0  0  0
   -3.6176   23.9878  -31.7177 H   0  0  0  0  0  0  0  0  0  0  0  0
   -4.4682   24.8124  -30.3538 H   0  0  0  0  0  0  0  0  0  0  0  0
   -1.9397   22.2780  -31.1128 H   0  0  0  0  0  0  0  0  0  0  0  0
   -1.6552   23.9674  -30.5032 H   0  0  0  0  0  0  0  0  0  0  0  0
   -0.3349   21.7684  -29.5915 H   0  0  0  0  0  0  0  0  0  0  0  0
   -2.7049   21.0525  -28.5357 H   0  0  0  0  0  0  0  0  0  0  0  0
   -1.4179   21.0336  -27.3905 H   0  0  0  0  0  0  0  0  0  0  0  0
   -3.1405   22.7589  -26.5050 H   0  0  0  0  0  0  0  0  0  0  0  0
   -4.6287   23.2649  -28.1069 H   0  0  0  0  0  0  0  0  0  0  0  0
   -3.4725   24.6325  -28.4429 H   0  0  0  0  0  0  0  0  0  0  0  0
   -1.2808   25.8367  -27.7299 H   0  0  0  0  0  0  0  0  0  0  0  0
   -2.7119   25.3833  -26.7164 H   0  0  0  0  0  0  0  0  0  0  0  0
    0.9285   24.6066  -26.1654 H   0  0  0  0  0  0  0  0  0  0  0  0
    2.1251   25.3094  -24.0851 H   0  0  0  0  0  0  0  0  0  0  0  0
    0.9730   26.7070  -22.4800 H   0  0  0  0  0  0  0  0  0  0  0  0
   -1.3011   27.4814  -22.7759 H   0  0  0  0  0  0  0  0  0  0  0  0
   -2.5518   26.8233  -24.8374 H   0  0  0  0  0  0  0  0  0  0  0  0
   -0.4099   24.4710  -28.9287 H   0  0  0  0  0  0  0  0  0  0  0  0
    0.5251   23.3283  -27.9495 H   0  0  0  0  0  0  0  0  0  0  0  0
   -6.8339   24.6896  -28.8693 H   0  0  0  0  0  0  0  0  0  0  0  0
   -6.0008   25.5802  -30.1882 H   0  0  0  0  0  0  0  0  0  0  0  0
   -7.7919   25.4441  -30.1882 H   0  0  0  0  0  0  0  0  0  0  0  0
   -8.9123   23.4431  -30.8149 H   0  0  0  0  0  0  0  0  0  0  0  0
  1  2  1  0
  2  3  2  0
  3  4  1  0
  4  5  1  0
  4  6  2  0
  6  7  1  0
  7  8  1  0
  8  9  1  0
  9 10  1  0
 10 11  1  0
 11 12  1  0
 12 13  1  0
 12 14  1  0
 14 15  1  0
 15 16  1  0
 16 17  2  0
 17 18  1  0
 18 19  2  0
 19 20  1  0
 20 21  2  0
 14 22  1  0
  6 23  1  0
 23 24  1  0
 23 25  2  0
 25  2  1  0
 13  8  1  0
 21 16  1  0
 22 10  1  0
  1 26  1  0
  1 27  1  0
  1 28  1  0
  3 29  1  0
  5 30  1  0
  5 31  1  0
  5 32  1  0
  7 33  1  0
  7 34  1  0
  9 35  1  0
  9 36  1  0
 10 37  1  6
 11 38  1  0
 11 39  1  0
 12 40  1  1
 13 41  1  0
 13 42  1  0
 15 43  1  0
 15 44  1  0
 17 45  1  0
 18 46  1  0
 19 47  1  0
 20 48  1  0
 21 49  1  0
 22 50  1  0
 22 51  1  0
 24 52  1  0
 24 53  1  0
 24 54  1  0
 25 55  1  0
M  CHG  1  19   1
M  END
>  <UniqueID>  (10) 
10

>  <SMILES>  (10) 
Cc1cc(C)c(CN2C[C@@H]3C[C@H](C2)N(Cc2cc[nH+]cc2)C3)c(C)c1

>  <Energy>  (10) 
86.9729277098131

>  <Genealogy>  (10) 
Cc1cc(C)c(CN2CC3CC(C2)N(Cc2cc[nH+]cc2)C3)c(C)c1 (protonated)
Cc1cc(C)c(CN2C[C@@H]3C[C@H](C2)N(Cc2cc[nH+]cc2)C3)c(C)c1 (chirality)
Cc1cc(C)c(CN2C[C@@H]3C[C@H](C2)N(Cc2cc[nH+]cc2)C3)c(C)c1 (3D coordinates assigned)
Cc1cc(C)c(CN2C[C@@H]3C[C@H](C2)N(Cc2cc[nH+]cc2)C3)c(C)c1 (nonaromatic ring conformer: 86.9729277098131 kcal/mol)

>  <smiles>  (10) 
Cc1cc(C)c(CN2CC3CC(C2)N(Cc2ccncc2)C3)c(C)c1

>  <score_type>  (10) 
oracle

>  <origin>  (10) 
adg

>  <m_score__min__energy>  (10) 
-8.6999999999999993

>  <m_primary>  (10) 
energy

$$$$
10:0
     RDKit          3D

 35 36  0  0  0  0  0  0  0  0999 V2000
   -5.4380   18.0920  -34.9170 C   0  0  0  0  0  0  0  0  0  0  0  0
   -6.1250   19.2760  -34.3940 N   0  0  0  0  0  0  0  0  0  0  0  0
   -6.4020   19.1640  -32.9510 C   0  0  0  0  0  0  0  0  0  0  0  0
   -7.2750   20.3010  -32.4530 C   0  0  0  0  0  0  0  0  0  0  0  0
   -8.6160   20.0230  -32.1320 C   0  0  0  0  0  0  0  0  0  0  0  0
   -9.4790   21.0440  -31.7320 C   0  0  0  0  0  0  0  0  0  0  0  0
   -9.0190   22.3590  -31.6550 C   0  0  0  0  0  0  0  0  0  0  0  0
   -7.6910   22.6530  -31.9700 C   0  0  0  0  0  0  0  0  0  0  0  0
   -6.8070   21.6350  -32.3540 C   0  0  0  0  0  0  0  0  0  0  0  0
   -5.1010   22.0880  -32.7180 S   0  0  0  0  0  0  0  0  0  0  0  0
   -4.8310   22.8080  -31.0950 C   0  0  0  0  0  0  0  0  0  0  0  0
   -4.2390   22.0540  -30.0740 C   0  0  0  0  0  0  0  0  0  0  0  0
   -4.0370   22.6190  -28.8110 C   0  0  0  0  0  0  0  0  0  0  0  0
   -4.4060   23.9510  -28.5630 C   0  0  0  0  0  0  0  0  0  0  0  0
   -4.2250   24.5440  -27.1980 C   0  0  0  0  0  0  0  0  0  0  0  0
   -5.0050   24.7010  -29.5870 C   0  0  0  0  0  0  0  0  0  0  0  0
   -5.2070   24.1340  -30.8500 C   0  0  0  0  0  0  0  0  0  0  0  0
   -5.0803   17.4756  -34.0791 H   0  0  0  0  0  0  0  0  0  0  0  0
   -6.1358   17.5051  -35.5323 H   0  0  0  0  0  0  0  0  0  0  0  0
   -4.5821   18.4066  -35.5323 H   0  0  0  0  0  0  0  0  0  0  0  0
   -7.0370   19.3760  -34.8990 H   0  0  0  0  0  0  0  0  0  0  0  0
   -5.5500   20.1280  -34.5910 H   0  0  0  0  0  0  0  0  0  0  0  0
   -6.9166   18.2107  -32.7605 H   0  0  0  0  0  0  0  0  0  0  0  0
   -5.4426   19.2105  -32.4149 H   0  0  0  0  0  0  0  0  0  0  0  0
   -8.9883   18.9900  -32.1970 H   0  0  0  0  0  0  0  0  0  0  0  0
  -10.5235   20.8118  -31.4770 H   0  0  0  0  0  0  0  0  0  0  0  0
   -9.7024   23.1638  -31.3462 H   0  0  0  0  0  0  0  0  0  0  0  0
   -7.3352   23.6925  -31.9164 H   0  0  0  0  0  0  0  0  0  0  0  0
   -3.9323   21.0152  -30.2660 H   0  0  0  0  0  0  0  0  0  0  0  0
   -3.5869   22.0171  -28.0078 H   0  0  0  0  0  0  0  0  0  0  0  0
   -4.4564   23.7859  -26.4353 H   0  0  0  0  0  0  0  0  0  0  0  0
   -3.1839   24.8784  -27.0786 H   0  0  0  0  0  0  0  0  0  0  0  0
   -4.9019   25.4028  -27.0786 H   0  0  0  0  0  0  0  0  0  0  0  0
   -5.3168   25.7384  -29.3958 H   0  0  0  0  0  0  0  0  0  0  0  0
   -5.6627   24.7320  -31.6530 H   0  0  0  0  0  0  0  0  0  0  0  0
  1  2  1  0
  2  3  1  0
  3  4  1  0
  4  5  2  0
  5  6  1  0
  6  7  2  0
  7  8  1  0
  8  9  2  0
  9 10  1  0
 10 11  1  0
 11 12  2  0
 12 13  1  0
 13 14  2  0
 14 15  1  0
 14 16  1  0
 16 17  2  0
  9  4  1  0
 17 11  1  0
  1 18  1  0
  1 19  1  0
  1 20  1  0
  2 21  1  0
  2 22  1  0
  3 23  1  0
  3 24  1  0
  5 25  1  0
  6 26  1  0
  7 27  1  0
  8 28  1  0
 12 29  1  0
 13 30  1  0
 15 31  1  0
 15 32  1  0
 15 33  1  0
 16 34  1  0
 17 35  1  0
M  CHG  1   2   1
M  END
>  <UniqueID>  (11) 
11

>  <SMILES>  (11) 
C[NH2+]Cc1ccccc1Sc1ccc(C)cc1

>  <Energy>  (11) 
30.28320638623685

>  <Genealogy>  (11) 
C[NH2+]Cc1ccccc1Sc1ccc(C)cc1 (protonated)
C[NH2+]Cc1ccccc1Sc1ccc(C)cc1 (3D coordinates assigned)
C[NH2+]Cc1ccccc1Sc1ccc(C)cc1 (optimized conformer: 30.28320638623685 kcal/mol)

>  <smiles>  (11) 
CNCc1ccccc1Sc1ccc(C)cc1

>  <score_type>  (11) 
oracle

>  <origin>  (11) 
adg

>  <m_score__min__energy>  (11) 
-6.3600000000000003

>  <m_primary>  (11) 
energy

$$$$
11:0
     RDKit          3D

 33 35  0  0  0  0  0  0  0  0999 V2000
   -6.7430   15.2000  -34.2030 C   0  0  0  0  0  0  0  0  0  0  0  0
   -6.5640   16.5980  -33.7070 C   0  0  0  0  0  0  0  0  0  0  0  0
   -5.3690   17.3020  -33.9850 C   0  0  0  0  0  0  0  0  0  0  0  0
   -5.2310   18.6230  -33.5220 C   0  0  0  0  0  0  0  0  0  0  0  0
   -3.9960   19.4270  -33.8020 C   0  0  0  0  0  0  0  0  0  0  0  0
   -6.2720   19.1490  -32.8270 N   0  0  0  0  0  0  0  0  0  0  0  0
   -6.4030   20.3540  -32.3100 N   0  0  0  0  0  0  0  0  0  0  0  0
   -7.6390   20.3820  -31.7640 C   0  0  0  0  0  0  0  0  0  0  0  0
   -8.3400   21.8350  -30.9850 S   0  0  0  0  0  0  0  0  0  0  0  0
   -7.5120   23.0170  -32.1070 C   0  0  0  0  0  0  0  0  0  0  0  0
   -6.3270   23.6580  -31.4360 C   0  0  0  0  0  0  0  0  0  0  0  0
   -5.0790   23.0210  -31.4510 C   0  0  0  0  0  0  0  0  0  0  0  0
   -3.9790   23.6490  -30.8600 C   0  0  0  0  0  0  0  0  0  0  0  0
   -4.1200   24.8720  -30.2820 N   0  0  0  0  0  0  0  0  0  0  0  0
   -5.3190   25.5120  -30.2570 C   0  0  0  0  0  0  0  0  0  0  0  0
   -6.4450   24.9170  -30.8300 C   0  0  0  0  0  0  0  0  0  0  0  0
   -8.3110   19.2100  -31.9110 N   0  0  0  0  0  0  0  0  0  0  0  0
   -7.4010   18.4780  -32.5830 C   0  0  0  0  0  0  0  0  0  0  0  0
   -7.5740   17.2050  -33.0130 N   0  0  0  0  0  0  0  0  0  0  0  0
   -6.8307   14.5154  -33.3464 H   0  0  0  0  0  0  0  0  0  0  0  0
   -7.6559   15.1417  -34.8139 H   0  0  0  0  0  0  0  0  0  0  0  0
   -5.8742   14.9136  -34.8139 H   0  0  0  0  0  0  0  0  0  0  0  0
   -4.5592   16.8232  -34.5551 H   0  0  0  0  0  0  0  0  0  0  0  0
   -3.5319   19.7291  -32.8516 H   0  0  0  0  0  0  0  0  0  0  0  0
   -3.2852   18.8180  -34.3799 H   0  0  0  0  0  0  0  0  0  0  0  0
   -4.2652   20.3234  -34.3799 H   0  0  0  0  0  0  0  0  0  0  0  0
   -5.7010   21.1260  -32.3490 H   0  0  0  0  0  0  0  0  0  0  0  0
   -7.1707   22.4816  -33.0052 H   0  0  0  0  0  0  0  0  0  0  0  0
   -8.2301   23.8051  -32.3777 H   0  0  0  0  0  0  0  0  0  0  0  0
   -4.9659   22.0344  -31.9242 H   0  0  0  0  0  0  0  0  0  0  0  0
   -2.9972   23.1530  -30.8624 H   0  0  0  0  0  0  0  0  0  0  0  0
   -5.4026   26.5016  -29.7840 H   0  0  0  0  0  0  0  0  0  0  0  0
   -7.4168   25.4319  -30.8061 H   0  0  0  0  0  0  0  0  0  0  0  0
  1  2  1  0
  2  3  1  0
  3  4  2  0
  4  5  1  0
  4  6  1  0
  6  7  1  0
  7  8  2  0
  8  9  1  0
  9 10  1  0
 10 11  1  0
 11 12  2  0
 12 13  1  0
 13 14  2  0
 14 15  1  0
 15 16  2  0
  8 17  1  0
 17 18  2  0
 18 19  1  0
 19  2  2  0
 18  6  1  0
 16 11  1  0
  1 20  1  0
  1 21  1  0
  1 22  1  0
  3 23  1  0
  5 24  1  0
  5 25  1  0
  5 26  1  0
  7 27  1  0
 10 28  1  0
 10 29  1  0
 12 30  1  0
 13 31  1  0
 15 32  1  0
 16 33  1  0
M  CHG  1   7   1
M  END
>  <UniqueID>  (12) 
12

>  <SMILES>  (12) 
Cc1cc(C)n2[nH+]c(SCc3ccncc3)nc2n1

>  <Energy>  (12) 
69.89307753302434

>  <Genealogy>  (12) 
Cc1cc(C)n2[nH+]c(SCc3ccncc3)nc2n1 (protonated)
Cc1cc(C)n2[nH+]c(SCc3ccncc3)nc2n1 (3D coordinates assigned)
Cc1cc(C)n2[nH+]c(SCc3ccncc3)nc2n1 (optimized conformer: 69.89307753302434 kcal/mol)

>  <smiles>  (12) 
Cc1cc(C)n2nc(SCc3ccncc3)nc2n1

>  <score_type>  (12) 
oracle

>  <origin>  (12) 
adg

>  <m_score__min__energy>  (12) 
-7.6200000000000001

>  <m_primary>  (12) 
energy

$$$$
12:0
     RDKit          3D

 43 46  0  0  0  0  0  0  0  0999 V2000
   -3.1140   15.9530  -35.7990 C   0  0  0  0  0  0  0  0  0  0  0  0
   -4.0410   16.3680  -34.6960 C   0  0  0  0  0  0  0  0  0  0  0  0
   -3.9430   15.7740  -33.4290 C   0  0  0  0  0  0  0  0  0  0  0  0
   -4.8320   16.1330  -32.4100 C   0  0  0  0  0  0  0  0  0  0  0  0
   -5.8340   17.0860  -32.6490 C   0  0  0  0  0  0  0  0  0  0  0  0
   -6.8100   17.4390  -31.5610 C   0  0  0  0  0  0  0  0  0  0  0  0
   -7.2320   18.8310  -31.6990 N   0  0  0  0  0  0  0  0  0  0  0  0
   -8.6180   19.3000  -31.6490 C   0  0  0  0  0  0  0  0  0  0  0  0
   -8.4840   20.7830  -31.8470 C   0  0  0  0  0  0  0  0  0  0  0  0
   -9.5080   21.7280  -31.8760 C   0  0  0  0  0  0  0  0  0  0  0  0
   -9.1720   23.0780  -32.0560 C   0  0  0  0  0  0  0  0  0  0  0  0
   -7.8260   23.4640  -32.2050 C   0  0  0  0  0  0  0  0  0  0  0  0
   -6.7940   22.5020  -32.1870 C   0  0  0  0  0  0  0  0  0  0  0  0
   -5.3550   22.9290  -32.3080 C   0  0  0  0  0  0  0  0  0  0  0  0
   -4.8480   23.3670  -31.0100 N   0  0  0  0  0  0  0  0  0  0  0  0
   -4.9790   22.7060  -29.8430 C   0  0  0  0  0  0  0  0  0  0  0  0
   -4.3320   23.4370  -28.8760 C   0  0  0  0  0  0  0  0  0  0  0  0
   -4.2170   23.1310  -27.5610 F   0  0  0  0  0  0  0  0  0  0  0  0
   -3.8140   24.5400  -29.5210 C   0  0  0  0  0  0  0  0  0  0  0  0
   -4.1390   24.4720  -30.8280 N   0  0  0  0  0  0  0  0  0  0  0  0
   -7.1620   21.1600  -31.9940 C   0  0  0  0  0  0  0  0  0  0  0  0
   -6.3740   19.9490  -31.9000 C   0  0  0  0  0  0  0  0  0  0  0  0
   -5.1190   19.8700  -31.9750 O   0  0  0  0  0  0  0  0  0  0  0  0
   -5.9490   17.6600  -33.9250 C   0  0  0  0  0  0  0  0  0  0  0  0
   -5.0600   17.3000  -34.9420 C   0  0  0  0  0  0  0  0  0  0  0  0
   -2.1910   15.5398  -35.3662 H   0  0  0  0  0  0  0  0  0  0  0  0
   -3.6025   15.1876  -36.4200 H   0  0  0  0  0  0  0  0  0  0  0  0
   -2.8685   16.8271  -36.4200 H   0  0  0  0  0  0  0  0  0  0  0  0
   -3.1635   15.0224  -33.2357 H   0  0  0  0  0  0  0  0  0  0  0  0
   -4.7452   15.6664  -31.4176 H   0  0  0  0  0  0  0  0  0  0  0  0
   -7.6898   16.7829  -31.6343 H   0  0  0  0  0  0  0  0  0  0  0  0
   -6.3242   17.3047  -30.5833 H   0  0  0  0  0  0  0  0  0  0  0  0
   -9.2173   18.8470  -32.4526 H   0  0  0  0  0  0  0  0  0  0  0  0
   -9.1308   19.0336  -30.7130 H   0  0  0  0  0  0  0  0  0  0  0  0
  -10.5581   21.4215  -31.7601 H   0  0  0  0  0  0  0  0  0  0  0  0
   -9.9650   23.8399  -32.0809 H   0  0  0  0  0  0  0  0  0  0  0  0
   -7.5764   24.5272  -32.3369 H   0  0  0  0  0  0  0  0  0  0  0  0
   -4.7531   22.0806  -32.6657 H   0  0  0  0  0  0  0  0  0  0  0  0
   -5.2872   23.7644  -33.0204 H   0  0  0  0  0  0  0  0  0  0  0  0
   -5.5082   21.7536  -29.6919 H   0  0  0  0  0  0  0  0  0  0  0  0
   -3.2312   25.3437  -29.0472 H   0  0  0  0  0  0  0  0  0  0  0  0
   -6.7417   18.3959  -34.1253 H   0  0  0  0  0  0  0  0  0  0  0  0
   -5.1601   17.7501  -35.9407 H   0  0  0  0  0  0  0  0  0  0  0  0
  1  2  1  0
  2  3  2  0
  3  4  1  0
  4  5  2  0
  5  6  1  0
  6  7  1  0
  7  8  1  0
  8  9  1  0
  9 10  2  0
 10 11  1  0
 11 12  2  0
 12 13  1  0
 13 14  1  0
 14 15  1  0
 15 16  1  0
 16 17  2  0
 17 18  1  0
 17 19  1  0
 19 20  2  0
 13 21  2  0
 21 22  1  0
 22 23  2  0
  5 24  1  0
 24 25  2  0
 25  2  1  0
 22  7  1  0
 21  9  1  0
 20 15  1  0
  1 26  1  0
  1 27  1  0
  1 28  1  0
  3 29  1  0
  4 30  1  0
  6 31  1  0
  6 32  1  0
  8 33  1  0
  8 34  1  0
 10 35  1  0
 11 36  1  0
 12 37  1  0
 14 38  1  0
 14 39  1  0
 16 40  1  0
 19 41  1  0
 24 42  1  0
 25 43  1  0
M  END
>  <UniqueID>  (13) 
13

>  <SMILES>  (13) 
Cc1ccc(CN2Cc3cccc(Cn4cc(F)cn4)c3C2=O)cc1

>  <Energy>  (13) 
94.98103288109948

>  <Genealogy>  (13) 
Cc1ccc(CN2Cc3cccc(Cn4cc(F)cn4)c3C2=O)cc1 (3D coordinates assigned)
Cc1ccc(CN2Cc3cccc(Cn4cc(F)cn4)c3C2=O)cc1 (nonaromatic ring conformer: 94.98103288109948 kcal/mol)

>  <smiles>  (13) 
Cc1ccc(CN2Cc3cccc(Cn4cc(F)cn4)c3C2=O)cc1

>  <score_type>  (13) 
oracle

>  <origin>  (13) 
adg

>  <m_score__min__energy>  (13) 
-8.3399999999999999

>  <m_primary>  (13) 
energy

$$$$
13:0
     RDKit          3D

 46 48  0  0  0  0  0  0  0  0999 V2000
   -0.9560   25.4250  -26.4640 C   0  0  0  0  0  0  0  0  0  0  0  0
   -1.0520   25.1110  -28.2120 S   0  0  0  0  0  0  0  0  0  0  0  0
   -1.2510   26.4160  -28.9300 O   0  0  0  0  0  0  0  0  0  0  0  0
    0.2340   24.4970  -28.6910 O   0  0  0  0  0  0  0  0  0  0  0  0
   -2.3820   24.0420  -28.5620 N   0  0  0  0  0  0  0  0  0  0  0  0
   -3.5540   24.0710  -27.6880 C   0  0  0  0  0  0  0  0  0  0  0  0
   -4.6500   23.1460  -28.2290 C   0  0  0  0  0  0  0  0  0  0  0  0
   -5.4530   23.7700  -29.3810 C   0  0  0  0  0  0  0  0  0  0  0  0
   -4.5680   24.1100  -30.5880 C   0  0  0  0  0  0  0  0  0  0  0  0
   -3.3090   23.2600  -30.7000 C   0  0  0  0  0  0  0  0  0  0  0  0
   -2.3520   23.1940  -29.7320 C   0  0  0  0  0  0  0  0  0  0  0  0
   -1.1760   22.2640  -29.9000 C   0  0  0  0  0  0  0  0  0  0  0  0
   -1.4760   21.1760  -30.9230 C   0  0  0  0  0  0  0  0  0  0  0  0
   -1.9530   21.7690  -32.1100 O   0  0  0  0  0  0  0  0  0  0  0  0
   -3.2430   22.3270  -31.9040 C   0  0  1  0  0  0  0  0  0  0  0  0
   -4.2240   21.3130  -31.7540 O   0  0  0  0  0  0  0  0  0  0  0  0
   -4.9960   21.1560  -32.9320 C   0  0  0  0  0  0  0  0  0  0  0  0
   -6.4630   21.1530  -32.5960 C   0  0  0  0  0  0  0  0  0  0  0  0
   -7.0550   22.2890  -32.0210 C   0  0  0  0  0  0  0  0  0  0  0  0
   -8.4110   22.2790  -31.6780 C   0  0  0  0  0  0  0  0  0  0  0  0
   -9.1820   21.1350  -31.9030 C   0  0  0  0  0  0  0  0  0  0  0  0
   -8.5990   19.9990  -32.4700 C   0  0  0  0  0  0  0  0  0  0  0  0
   -7.2440   20.0050  -32.8170 C   0  0  0  0  0  0  0  0  0  0  0  0
   -1.2342   24.5150  -25.9122 H   0  0  0  0  0  0  0  0  0  0  0  0
    0.0717   25.7145  -26.1994 H   0  0  0  0  0  0  0  0  0  0  0  0
   -1.6461   26.2397  -26.1994 H   0  0  0  0  0  0  0  0  0  0  0  0
   -3.2630   23.7372  -26.6811 H   0  0  0  0  0  0  0  0  0  0  0  0
   -3.9433   25.0990  -27.6489 H   0  0  0  0  0  0  0  0  0  0  0  0
   -4.1790   22.2206  -28.5920 H   0  0  0  0  0  0  0  0  0  0  0  0
   -5.3535   22.9553  -27.4052 H   0  0  0  0  0  0  0  0  0  0  0  0
   -6.2277   23.0570  -29.6996 H   0  0  0  0  0  0  0  0  0  0  0  0
   -5.8973   24.7069  -29.0138 H   0  0  0  0  0  0  0  0  0  0  0  0
   -5.1626   23.9675  -31.5024 H   0  0  0  0  0  0  0  0  0  0  0  0
   -4.2356   25.1498  -30.4526 H   0  0  0  0  0  0  0  0  0  0  0  0
   -0.3050   22.8444  -30.2384 H   0  0  0  0  0  0  0  0  0  0  0  0
   -0.9700   21.7845  -28.9317 H   0  0  0  0  0  0  0  0  0  0  0  0
   -0.5570   20.6111  -31.1384 H   0  0  0  0  0  0  0  0  0  0  0  0
   -2.2388   20.4932  -30.5207 H   0  0  0  0  0  0  0  0  0  0  0  0
   -3.4513   22.9222  -32.8053 H   0  0  0  0  0  0  0  0  0  0  0  0
   -4.7825   21.9875  -33.6197 H   0  0  0  0  0  0  0  0  0  0  0  0
   -4.7348   20.1989  -33.4071 H   0  0  0  0  0  0  0  0  0  0  0  0
   -6.4504   23.1898  -31.8397 H   0  0  0  0  0  0  0  0  0  0  0  0
   -8.8712   23.1724  -31.2307 H   0  0  0  0  0  0  0  0  0  0  0  0
  -10.2485   21.1291  -31.6335 H   0  0  0  0  0  0  0  0  0  0  0  0
   -9.2065   19.0986  -32.6438 H   0  0  0  0  0  0  0  0  0  0  0  0
   -6.7882   19.1092  -33.2640 H   0  0  0  0  0  0  0  0  0  0  0  0
  1  2  1  0
  2  3  2  0
  2  4  2  0
  2  5  1  0
  5  6  1  0
  6  7  1  0
  7  8  1  0
  8  9  1  0
  9 10  1  0
 10 11  2  0
 11 12  1  0
 12 13  1  0
 13 14  1  0
 14 15  1  0
 15 16  1  0
 16 17  1  0
 17 18  1  0
 18 19  2  0
 19 20  1  0
 20 21  2  0
 21 22  1  0
 22 23  2  0
 11  5  1  0
 23 18  1  0
 15 10  1  0
  1 24  1  0
  1 25  1  0
  1 26  1  0
  6 27  1  0
  6 28  1  0
  7 29  1  0
  7 30  1  0
  8 31  1  0
  8 32  1  0
  9 33  1  0
  9 34  1  0
 12 35  1  0
 12 36  1  0
 13 37  1  0
 13 38  1  0
 15 39  1  6
 17 40  1  0
 17 41  1  0
 19 42  1  0
 20 43  1  0
 21 44  1  0
 22 45  1  0
 23 46  1  0
M  END
>  <UniqueID>  (14) 
14

>  <SMILES>  (14) 
CS(=O)(=O)N1CCCCC2=C1CCO[C@H]2OCc1ccccc1

>  <Energy>  (14) 
56.70695326658639

>  <Genealogy>  (14) 
CS(=O)(=O)N1CCCCC2=C1CCO[C@H]2OCc1ccccc1 (chirality)
CS(=O)(=O)N1CCCCC2=C1CCO[C@H]2OCc1ccccc1 (3D coordinates assigned)
CS(=O)(=O)N1CCCCC2=C1CCO[C@H]2OCc1ccccc1 (nonaromatic ring conformer: 56.70695326658639 kcal/mol)

>  <smiles>  (14) 
CS(=O)(=O)N1CCCCC2=C1CCOC2OCc1ccccc1

>  <score_type>  (14) 
oracle

>  <origin>  (14) 
adg

>  <m_score__min__energy>  (14) 
-7.0899999999999999

>  <m_primary>  (14) 
energy

$$$$
14:0
     RDKit          3D

 39 40  0  0  0  0  0  0  0  0999 V2000
   -9.0035   18.7865  -31.1034 H   0  0  0  0  0  0  0  0  0  0  0  0
   -8.6170   19.3270  -31.9800 C   0  0  0  0  0  0  0  0  0  0  0  0
   -9.2020   20.4840  -32.3130 C   0  0  0  0  0  0  0  0  0  0  0  0
   -9.4694   20.6689  -33.3639 H   0  0  0  0  0  0  0  0  0  0  0  0
   -9.5020   21.5380  -31.2800 C   0  0  0  0  0  0  0  0  0  0  0  0
   -9.2636   21.1347  -30.2848 H   0  0  0  0  0  0  0  0  0  0  0  0
  -10.5675   21.7973  -31.3663 H   0  0  0  0  0  0  0  0  0  0  0  0
   -8.7210   22.7730  -31.4900 N   0  0  0  0  0  0  0  0  0  0  0  0
   -9.3030   23.4650  -32.0170 H   0  0  0  0  0  0  0  0  0  0  0  0
   -8.5090   23.1960  -30.5550 H   0  0  0  0  0  0  0  0  0  0  0  0
   -7.4600   22.5570  -32.2240 C   0  0  0  0  0  0  0  0  0  0  0  0
   -7.5790   22.9327  -33.2510 H   0  0  0  0  0  0  0  0  0  0  0  0
   -7.2443   21.4784  -32.2151 H   0  0  0  0  0  0  0  0  0  0  0  0
   -6.2960   23.2680  -31.5780 C   0  0  0  0  0  0  0  0  0  0  0  0
   -5.0410   22.6450  -31.4910 C   0  0  0  0  0  0  0  0  0  0  0  0
   -4.8999   21.6387  -31.9122 H   0  0  0  0  0  0  0  0  0  0  0  0
   -3.9690   23.2960  -30.8720 C   0  0  0  0  0  0  0  0  0  0  0  0
   -2.9889   22.8004  -30.8098 H   0  0  0  0  0  0  0  0  0  0  0  0
   -4.1400   24.5840  -30.3280 C   0  0  0  0  0  0  0  0  0  0  0  0
   -3.0970   25.2790  -29.6990 O   0  0  0  0  0  0  0  0  0  0  0  0
   -2.3460   24.7760  -28.5980 C   0  0  0  0  0  0  0  0  0  0  0  0
   -2.8187   25.0926  -27.6565 H   0  0  0  0  0  0  0  0  0  0  0  0
   -2.3195   23.6773  -28.6436 H   0  0  0  0  0  0  0  0  0  0  0  0
   -1.3199   25.1697  -28.6436 H   0  0  0  0  0  0  0  0  0  0  0  0
   -5.3940   25.2010  -30.4150 C   0  0  0  0  0  0  0  0  0  0  0  0
   -5.5375   26.2069  -29.9936 H   0  0  0  0  0  0  0  0  0  0  0  0
   -6.4650   24.5490  -31.0330 C   0  0  0  0  0  0  0  0  0  0  0  0
   -7.4458   25.0435  -31.0921 H   0  0  0  0  0  0  0  0  0  0  0  0
   -7.4790   18.7290  -32.7210 C   0  0  0  0  0  0  0  0  0  0  0  0
   -6.6490   19.5760  -33.4760 C   0  0  0  0  0  0  0  0  0  0  0  0
   -6.8516   20.6569  -33.5003 H   0  0  0  0  0  0  0  0  0  0  0  0
   -5.5690   19.0580  -34.1960 C   0  0  0  0  0  0  0  0  0  0  0  0
   -4.9224   19.7317  -34.7774 H   0  0  0  0  0  0  0  0  0  0  0  0
   -5.3100   17.6860  -34.1780 C   0  0  0  0  0  0  0  0  0  0  0  0
   -4.4575   17.2797  -34.7421 H   0  0  0  0  0  0  0  0  0  0  0  0
   -6.1330   16.8300  -33.4440 C   0  0  0  0  0  0  0  0  0  0  0  0
   -5.9298   15.7490  -33.4336 H   0  0  0  0  0  0  0  0  0  0  0  0
   -7.2150   17.3430  -32.7220 C   0  0  0  0  0  0  0  0  0  0  0  0
   -7.8640   16.6622  -32.1516 H   0  0  0  0  0  0  0  0  0  0  0  0
  1  2  1  0
  2  3  2  0
  3  4  1  0
  3  5  1  0
  5  6  1  0
  5  7  1  0
  5  8  1  0
  8  9  1  0
  8 10  1  0
  8 11  1  0
 11 12  1  0
 11 13  1  0
 11 14  1  0
 14 15  2  0
 15 16  1  0
 15 17  1  0
 17 18  1  0
 17 19  2  0
 19 20  1  0
 20 21  1  0
 21 22  1  0
 21 23  1  0
 21 24  1  0
 19 25  1  0
 25 26  1  0
 25 27  2  0
 27 28  1  0
  2 29  1  0
 29 30  2  0
 30 31  1  0
 30 32  1  0
 32 33  1  0
 32 34  2  0
 34 35  1  0
 34 36  1  0
 36 37  1  0
 36 38  2  0
 38 39  1  0
 27 14  1  0
 38 29  1  0
M  CHG  1   8   1
M  END
>  <UniqueID>  (15) 
15

>  <SMILES>  (15) 
COc1ccc(C[NH2+]C/C=C/c2ccccc2)cc1

>  <Energy>  (15) 
39.135243101625065

>  <Genealogy>  (15) 
COc1ccc(C[NH2+]CC=Cc2ccccc2)cc1 (protonated)
COc1ccc(C[NH2+]C/C=C/c2ccccc2)cc1 (cis-trans isomerization)
COc1ccc(C[NH2+]C/C=C/c2ccccc2)cc1 (3D coordinates assigned)
COc1ccc(C[NH2+]C/C=C/c2ccccc2)cc1 (optimized conformer: 39.135243101625065 kcal/mol)

>  <smiles>  (15) 
COc1ccc(CNCC=Cc2ccccc2)cc1

>  <score_type>  (15) 
oracle

>  <origin>  (15) 
adg

>  <m_score__min__energy>  (15) 
-7.0700000000000003

>  <m_primary>  (15) 
energy

$$$$
15:0
     RDKit          3D

 71 75  0  0  0  0  0  0  0  0999 V2000
   -7.1060   24.9090  -30.1100 C   0  0  0  0  0  0  0  0  0  0  0  0
   -5.7260   25.4950  -29.8110 C   0  0  0  0  0  0  0  0  0  0  0  0
   -4.6470   24.4070  -29.5510 C   0  0  1  0  0  0  0  0  0  0  0  0
   -4.0750   24.5390  -28.1180 C   0  0  0  0  0  0  0  0  0  0  0  0
   -2.6320   24.2030  -28.0610 N   0  0  0  0  0  0  0  0  0  0  0  0
   -2.3550   23.1500  -27.0490 C   0  0  0  0  0  0  0  0  0  0  0  0
   -2.2860   21.7420  -27.6560 C   0  0  0  0  0  0  0  0  0  0  0  0
   -1.2870   21.6990  -28.7310 N   0  0  0  0  0  0  0  0  0  0  0  0
   -0.7480   20.4340  -29.1710 C   0  0  0  0  0  0  0  0  0  0  0  0
   -0.3030   20.2890  -30.4970 C   0  0  0  0  0  0  0  0  0  0  0  0
    0.2330   19.0790  -30.9380 C   0  0  0  0  0  0  0  0  0  0  0  0
    0.3330   17.9990  -30.0640 C   0  0  0  0  0  0  0  0  0  0  0  0
   -0.1110   18.1200  -28.7460 C   0  0  0  0  0  0  0  0  0  0  0  0
   -0.6640   19.3340  -28.2860 C   0  0  0  0  0  0  0  0  0  0  0  0
   -1.1490   19.4710  -26.9770 O   0  0  0  0  0  0  0  0  0  0  0  0
   -2.3120   18.8230  -26.4700 C   0  0  0  0  0  0  0  0  0  0  0  0
   -0.8850   22.9540  -29.3760 C   0  0  0  0  0  0  0  0  0  0  0  0
   -2.0760   23.9180  -29.4120 C   0  0  0  0  0  0  0  0  0  0  0  0
   -5.2120   22.9810  -29.7380 C   0  0  0  0  0  0  0  0  0  0  0  0
   -4.7100   22.3580  -30.9610 N   0  0  0  0  0  0  0  0  0  0  0  0
   -4.9830   22.7440  -32.2970 C   0  0  0  0  0  0  0  0  0  0  0  0
   -5.5630   23.8160  -32.6110 O   0  0  0  0  0  0  0  0  0  0  0  0
   -4.5270   21.7950  -33.2500 N   0  0  0  0  0  0  0  0  0  0  0  0
   -3.9100   20.6760  -32.5320 C   0  0  2  0  0  0  0  0  0  0  0  0
   -2.4020   20.6060  -32.8590 C   0  0  0  0  0  0  0  0  0  0  0  0
   -2.1620   19.9510  -34.2170 C   0  0  0  0  0  0  0  0  0  0  0  0
   -2.6610   18.5080  -34.2000 C   0  0  0  0  0  0  0  0  0  0  0  0
   -4.0830   18.3980  -33.7030 C   0  0  0  0  0  0  0  0  0  0  0  0
   -4.8160   17.2430  -34.0200 C   0  0  0  0  0  0  0  0  0  0  0  0
   -6.1170   17.0740  -33.5440 C   0  0  0  0  0  0  0  0  0  0  0  0
   -6.6990   18.0560  -32.7430 C   0  0  0  0  0  0  0  0  0  0  0  0
   -5.9820   19.2060  -32.4100 C   0  0  0  0  0  0  0  0  0  0  0  0
   -4.6560   19.3840  -32.8580 C   0  0  0  0  0  0  0  0  0  0  0  0
   -4.0920   21.0820  -31.0880 C   0  0  0  0  0  0  0  0  0  0  0  0
   -3.7620   20.3730  -30.0990 O   0  0  0  0  0  0  0  0  0  0  0  0
   -7.6237   24.6892  -29.1646 H   0  0  0  0  0  0  0  0  0  0  0  0
   -7.6947   25.6348  -30.6902 H   0  0  0  0  0  0  0  0  0  0  0  0
   -6.9926   23.9814  -30.6902 H   0  0  0  0  0  0  0  0  0  0  0  0
   -5.4099   26.1036  -30.6711 H   0  0  0  0  0  0  0  0  0  0  0  0
   -5.8154   26.0953  -28.8936 H   0  0  0  0  0  0  0  0  0  0  0  0
   -3.8470   24.5664  -30.2890 H   0  0  0  0  0  0  0  0  0  0  0  0
   -4.2118   25.5753  -27.7754 H   0  0  0  0  0  0  0  0  0  0  0  0
   -4.6138   23.8308  -27.4713 H   0  0  0  0  0  0  0  0  0  0  0  0
   -1.3918   23.3718  -26.5663 H   0  0  0  0  0  0  0  0  0  0  0  0
   -3.1856   23.1584  -26.3279 H   0  0  0  0  0  0  0  0  0  0  0  0
   -2.0070   21.0223  -26.8723 H   0  0  0  0  0  0  0  0  0  0  0  0
   -3.2708   21.4831  -28.0721 H   0  0  0  0  0  0  0  0  0  0  0  0
   -0.3783   21.1375  -31.1929 H   0  0  0  0  0  0  0  0  0  0  0  0
    0.5773   18.9775  -31.9778 H   0  0  0  0  0  0  0  0  0  0  0  0
    0.7628   17.0486  -30.4131 H   0  0  0  0  0  0  0  0  0  0  0  0
   -0.0292   17.2630  -28.0613 H   0  0  0  0  0  0  0  0  0  0  0  0
   -2.2889   18.8359  -25.3703 H   0  0  0  0  0  0  0  0  0  0  0  0
   -3.2097   19.3510  -26.8241 H   0  0  0  0  0  0  0  0  0  0  0  0
   -2.3354   17.7818  -26.8241 H   0  0  0  0  0  0  0  0  0  0  0  0
   -0.0615   23.4105  -28.8072 H   0  0  0  0  0  0  0  0  0  0  0  0
   -0.5519   22.7463  -30.4036 H   0  0  0  0  0  0  0  0  0  0  0  0
   -1.7469   24.8657  -29.8631 H   0  0  0  0  0  0  0  0  0  0  0  0
   -2.8711   23.4382  -30.0015 H   0  0  0  0  0  0  0  0  0  0  0  0
   -4.9165   22.3644  -28.8763 H   0  0  0  0  0  0  0  0  0  0  0  0
   -6.3071   23.0527  -29.8136 H   0  0  0  0  0  0  0  0  0  0  0  0
   -4.6300   21.8810  -34.2870 H   0  0  0  0  0  0  0  0  0  0  0  0
   -1.9904   21.6260  -32.8747 H   0  0  0  0  0  0  0  0  0  0  0  0
   -1.9057   19.9997  -32.0870 H   0  0  0  0  0  0  0  0  0  0  0  0
   -2.7023   20.5135  -34.9927 H   0  0  0  0  0  0  0  0  0  0  0  0
   -1.0835   19.9561  -34.4332 H   0  0  0  0  0  0  0  0  0  0  0  0
   -2.6116   18.1047  -35.2222 H   0  0  0  0  0  0  0  0  0  0  0  0
   -2.0193   17.9386  -33.5115 H   0  0  0  0  0  0  0  0  0  0  0  0
   -4.3606   16.4642  -34.6493 H   0  0  0  0  0  0  0  0  0  0  0  0
   -6.6832   16.1665  -33.8006 H   0  0  0  0  0  0  0  0  0  0  0  0
   -7.7263   17.9238  -32.3726 H   0  0  0  0  0  0  0  0  0  0  0  0
   -6.4559   19.9823  -31.7914 H   0  0  0  0  0  0  0  0  0  0  0  0
  1  2  1  0
  2  3  1  0
  3  4  1  0
  4  5  1  0
  5  6  1  0
  6  7  1  0
  7  8  1  0
  8  9  1  0
  9 10  2  0
 10 11  1  0
 11 12  2  0
 12 13  1  0
 13 14  2  0
 14 15  1  0
 15 16  1  0
  8 17  1  0
 17 18  1  0
  3 19  1  0
 19 20  1  0
 20 21  1  0
 21 22  2  0
 21 23  1  0
 24 23  1  6
 24 25  1  0
 25 26  1  0
 26 27  1  0
 27 28  1  0
 28 29  2  0
 29 30  1  0
 30 31  2  0
 31 32  1  0
 32 33  2  0
 24 34  1  0
 34 35  2  0
 18  5  1  0
 34 20  1  0
 14  9  1  0
 33 24  1  0
 33 28  1  0
  1 36  1  0
  1 37  1  0
  1 38  1  0
  2 39  1  0
  2 40  1  0
  3 41  1  6
  4 42  1  0
  4 43  1  0
  6 44  1  0
  6 45  1  0
  7 46  1  0
  7 47  1  0
 10 48  1  0
 11 49  1  0
 12 50  1  0
 13 51  1  0
 16 52  1  0
 16 53  1  0
 16 54  1  0
 17 55  1  0
 17 56  1  0
 18 57  1  0
 18 58  1  0
 19 59  1  0
 19 60  1  0
 23 61  1  0
 25 62  1  0
 25 63  1  0
 26 64  1  0
 26 65  1  0
 27 66  1  0
 27 67  1  0
 29 68  1  0
 30 69  1  0
 31 70  1  0
 32 71  1  0
M  END
>  <UniqueID>  (16) 
16

>  <SMILES>  (16) 
CC[C@@H](CN1CCN(c2ccccc2OC)CC1)CN1C(=O)N[C@@]2(CCCc3ccccc32)C1=O

>  <Energy>  (16) 
101.90130504788836

>  <Genealogy>  (16) 
CC[C@@H](CN1CCN(c2ccccc2OC)CC1)CN1C(=O)N[C@@]2(CCCc3ccccc32)C1=O (chirality)
CC[C@@H](CN1CCN(c2ccccc2OC)CC1)CN1C(=O)N[C@@]2(CCCc3ccccc32)C1=O (3D coordinates assigned)
CC[C@@H](CN1CCN(c2ccccc2OC)CC1)CN1C(=O)N[C@@]2(CCCc3ccccc32)C1=O (nonaromatic ring conformer: 101.90130504788836 kcal/mol)

>  <smiles>  (16) 
CCC(CN1CCN(c2ccccc2OC)CC1)CN1C(=O)NC2(CCCc3ccccc32)C1=O

>  <score_type>  (16) 
oracle

>  <origin>  (16) 
adg

>  <m_score__min__energy>  (16) 
-10.56

>  <m_primary>  (16) 
energy

$$$$
16:0
     RDKit          3D

 55 56  0  0  0  0  0  0  0  0999 V2000
   -0.8640   26.2960  -27.8180 C   0  0  0  0  0  0  0  0  0  0  0  0
   -1.5980   25.8800  -28.9650 O   0  0  0  0  0  0  0  0  0  0  0  0
   -1.8280   24.5410  -29.3190 C   0  0  0  0  0  0  0  0  0  0  0  0
   -0.9590   23.5050  -28.9280 C   0  0  0  0  0  0  0  0  0  0  0  0
   -1.2200   22.1860  -29.2990 C   0  0  0  0  0  0  0  0  0  0  0  0
   -2.3550   21.8760  -30.0600 C   0  0  0  0  0  0  0  0  0  0  0  0
   -2.6080   20.4580  -30.5040 C   0  0  0  0  0  0  0  0  0  0  0  0
   -1.4750   19.9440  -31.3990 C   0  0  0  0  0  0  0  0  0  0  0  0
   -1.8860   20.0060  -32.8250 N   0  0  0  0  0  0  0  0  0  0  0  0
   -0.7690   20.4520  -33.6740 C   0  0  0  0  0  0  0  0  0  0  0  0
   -3.0680   20.8660  -33.0360 C   0  0  0  0  0  0  0  0  0  0  0  0
   -4.2730   20.0310  -33.4900 C   0  0  0  0  0  0  0  0  0  0  0  0
   -5.5540   20.5860  -32.9150 C   0  0  0  0  0  0  0  0  0  0  0  0
   -5.5920   21.9270  -32.5090 C   0  0  0  0  0  0  0  0  0  0  0  0
   -6.7640   22.4780  -32.0000 C   0  0  0  0  0  0  0  0  0  0  0  0
   -7.9150   21.7010  -31.8970 C   0  0  0  0  0  0  0  0  0  0  0  0
   -7.9150   20.3540  -32.3120 C   0  0  0  0  0  0  0  0  0  0  0  0
   -9.0770   19.5730  -32.2140 O   0  0  0  0  0  0  0  0  0  0  0  0
   -9.1400   18.2690  -31.6460 C   0  0  0  0  0  0  0  0  0  0  0  0
   -6.7200   19.7900  -32.8350 C   0  0  0  0  0  0  0  0  0  0  0  0
   -6.6250   18.4590  -33.2920 O   0  0  0  0  0  0  0  0  0  0  0  0
   -6.0580   17.3570  -32.5930 C   0  0  0  0  0  0  0  0  0  0  0  0
   -3.2180   22.9060  -30.4610 C   0  0  0  0  0  0  0  0  0  0  0  0
   -2.9620   24.2410  -30.0900 C   0  0  0  0  0  0  0  0  0  0  0  0
   -3.8070   25.2950  -30.4700 O   0  0  0  0  0  0  0  0  0  0  0  0
   -5.2260   25.2750  -30.3530 C   0  0  0  0  0  0  0  0  0  0  0  0
   -1.4018   25.9912  -26.9081 H   0  0  0  0  0  0  0  0  0  0  0  0
    0.1313   25.8277  -27.8299 H   0  0  0  0  0  0  0  0  0  0  0  0
   -0.7544   27.3905  -27.8299 H   0  0  0  0  0  0  0  0  0  0  0  0
   -0.0682   23.7371  -28.3259 H   0  0  0  0  0  0  0  0  0  0  0  0
   -0.5312   21.3850  -28.9926 H   0  0  0  0  0  0  0  0  0  0  0  0
   -2.6842   19.8128  -29.6164 H   0  0  0  0  0  0  0  0  0  0  0  0
   -3.5437   20.4369  -31.0820 H   0  0  0  0  0  0  0  0  0  0  0  0
   -0.5815   20.5680  -31.2500 H   0  0  0  0  0  0  0  0  0  0  0  0
   -1.2500   18.9006  -31.1332 H   0  0  0  0  0  0  0  0  0  0  0  0
    0.0646   20.7849  -33.0382 H   0  0  0  0  0  0  0  0  0  0  0  0
   -0.4355   19.6181  -34.3091 H   0  0  0  0  0  0  0  0  0  0  0  0
   -1.1016   21.2863  -34.3091 H   0  0  0  0  0  0  0  0  0  0  0  0
   -3.3165   21.3756  -32.0934 H   0  0  0  0  0  0  0  0  0  0  0  0
   -2.8338   21.6029  -33.8184 H   0  0  0  0  0  0  0  0  0  0  0  0
   -4.3322   20.0499  -34.5882 H   0  0  0  0  0  0  0  0  0  0  0  0
   -4.1429   18.9989  -33.1325 H   0  0  0  0  0  0  0  0  0  0  0  0
   -4.6884   22.5486  -32.5934 H   0  0  0  0  0  0  0  0  0  0  0  0
   -6.7813   23.5298  -31.6783 H   0  0  0  0  0  0  0  0  0  0  0  0
   -8.8348   22.1436  -31.4870 H   0  0  0  0  0  0  0  0  0  0  0  0
   -9.1363   18.3464  -30.5487 H   0  0  0  0  0  0  0  0  0  0  0  0
  -10.0633   17.7699  -31.9752 H   0  0  0  0  0  0  0  0  0  0  0  0
   -8.2691   17.6832  -31.9752 H   0  0  0  0  0  0  0  0  0  0  0  0
   -6.1450   17.5261  -31.5096 H   0  0  0  0  0  0  0  0  0  0  0  0
   -6.5940   16.4356  -32.8645 H   0  0  0  0  0  0  0  0  0  0  0  0
   -4.9967   17.2574  -32.8645 H   0  0  0  0  0  0  0  0  0  0  0  0
   -4.1026   22.6697  -31.0706 H   0  0  0  0  0  0  0  0  0  0  0  0
   -5.5062   25.2711  -29.2893 H   0  0  0  0  0  0  0  0  0  0  0  0
   -5.6467   26.1673  -30.8397 H   0  0  0  0  0  0  0  0  0  0  0  0
   -5.6213   24.3712  -30.8397 H   0  0  0  0  0  0  0  0  0  0  0  0
  1  2  1  0
  2  3  1  0
  3  4  2  0
  4  5  1  0
  5  6  2  0
  6  7  1  0
  7  8  1  0
  8  9  1  0
  9 10  1  0
  9 11  1  0
 11 12  1  0
 12 13  1  0
 13 14  2  0
 14 15  1  0
 15 16  2  0
 16 17  1  0
 17 18  1  0
 18 19  1  0
 17 20  2  0
 20 21  1  0
 21 22  1  0
  6 23  1  0
 23 24  2  0
 24 25  1  0
 25 26  1  0
 24  3  1  0
 20 13  1  0
  1 27  1  0
  1 28  1  0
  1 29  1  0
  4 30  1  0
  5 31  1  0
  7 32  1  0
  7 33  1  0
  8 34  1  0
  8 35  1  0
 10 36  1  0
 10 37  1  0
 10 38  1  0
 11 39  1  0
 11 40  1  0
 12 41  1  0
 12 42  1  0
 14 43  1  0
 15 44  1  0
 16 45  1  0
 19 46  1  0
 19 47  1  0
 19 48  1  0
 22 49  1  0
 22 50  1  0
 22 51  1  0
 23 52  1  0
 26 53  1  0
 26 54  1  0
 26 55  1  0
M  END
>  <UniqueID>  (17) 
17

>  <SMILES>  (17) 
COc1ccc(CCN(C)CCc2cccc(OC)c2OC)cc1OC

>  <Energy>  (17) 
53.31600251502442

>  <Genealogy>  (17) 
COc1ccc(CCN(C)CCc2cccc(OC)c2OC)cc1OC (3D coordinates assigned)
COc1ccc(CCN(C)CCc2cccc(OC)c2OC)cc1OC (optimized conformer: 53.31600251502442 kcal/mol)

>  <smiles>  (17) 
COc1ccc(CCN(C)CCc2cccc(OC)c2OC)cc1OC

>  <score_type>  (17) 
oracle

>  <origin>  (17) 
adg

>  <m_score__min__energy>  (17) 
-8.6500000000000004

>  <m_primary>  (17) 
energy

$$$$
17:0
     RDKit          3D

 27 28  0  0  0  0  0  0  0  0999 V2000
  -10.5691   21.5533  -31.5904 H   0  0  0  0  0  0  0  0  0  0  0  0
   -9.5230   21.4060  -31.8970 C   0  0  0  0  0  0  0  0  0  0  0  0
   -8.6790   22.4370  -31.8610 C   0  0  0  0  0  0  0  0  0  0  0  0
   -9.0366   23.4256  -31.5374 H   0  0  0  0  0  0  0  0  0  0  0  0
   -7.2560   22.2580  -32.2560 C   0  0  0  0  0  0  0  0  0  0  0  0
   -6.4020   23.3080  -32.2920 C   0  0  0  0  0  0  0  0  0  0  0  0
   -6.1771   23.7416  -33.2776 H   0  0  0  0  0  0  0  0  0  0  0  0
   -5.7480   23.9190  -31.1190 C   0  0  0  0  0  0  0  0  0  0  0  0
   -4.4610   23.8110  -30.8810 O   0  0  0  0  0  0  0  0  0  0  0  0
   -4.1980   24.4110  -29.7440 C   0  0  0  0  0  0  0  0  0  0  0  0
   -2.4590   24.5300  -28.9720 Br  0  0  0  0  0  0  0  0  0  0  0  0
   -5.3550   24.9250  -29.1990 C   0  0  0  0  0  0  0  0  0  0  0  0
   -5.4543   25.4794  -28.2541 H   0  0  0  0  0  0  0  0  0  0  0  0
   -6.3610   24.6010  -30.0820 C   0  0  0  0  0  0  0  0  0  0  0  0
   -7.4311   24.8358  -29.9835 H   0  0  0  0  0  0  0  0  0  0  0  0
   -6.8400   20.9260  -32.6730 N   0  0  0  0  0  0  0  0  0  0  0  0
   -5.4610   20.5910  -33.0620 C   0  0  0  0  0  0  0  0  0  0  0  0
   -4.8374   20.5196  -32.1586 H   0  0  0  0  0  0  0  0  0  0  0  0
   -5.0777   21.3794  -33.7265 H   0  0  0  0  0  0  0  0  0  0  0  0
   -5.4230   19.2600  -33.8040 C   0  0  0  0  0  0  0  0  0  0  0  0
   -5.3995   18.4352  -33.0766 H   0  0  0  0  0  0  0  0  0  0  0  0
   -6.3188   19.1665  -34.4354 H   0  0  0  0  0  0  0  0  0  0  0  0
   -4.5233   19.2178  -34.4354 H   0  0  0  0  0  0  0  0  0  0  0  0
   -7.8180   19.8650  -32.7140 C   0  0  0  0  0  0  0  0  0  0  0  0
   -7.5168   18.8653  -33.0604 H   0  0  0  0  0  0  0  0  0  0  0  0
   -9.0810   20.0760  -32.3390 C   0  0  0  0  0  0  0  0  0  0  0  0
   -9.8003   19.2441  -32.3610 H   0  0  0  0  0  0  0  0  0  0  0  0
  1  2  1  0
  2  3  2  0
  3  4  1  0
  3  5  1  0
  5  6  2  0
  6  7  1  0
  6  8  1  0
  8  9  1  0
  9 10  1  0
 10 11  1  0
 10 12  2  0
 12 13  1  0
 12 14  1  0
 14 15  1  0
  5 16  1  0
 16 17  1  0
 17 18  1  0
 17 19  1  0
 17 20  1  0
 20 21  1  0
 20 22  1  0
 20 23  1  0
 16 24  1  0
 24 25  1  0
 24 26  2  0
 26 27  1  0
 26  2  1  0
 14  8  2  0
M  END
>  <UniqueID>  (18) 
18

>  <SMILES>  (18) 
CCN1C=CC=C/C1=C\c1ccc(Br)o1

>  <Energy>  (18) 
57.6949502747537

>  <Genealogy>  (18) 
CCN1C=CC=C/C1=C\c1ccc(Br)o1 (cis-trans isomerization)
CCN1C=CC=C/C1=C\c1ccc(Br)o1 (3D coordinates assigned)
CCN1C=CC=C/C1=C\c1ccc(Br)o1 (nonaromatic ring conformer: 57.6949502747537 kcal/mol)

>  <smiles>  (18) 
CCN1C=CC=CC1=Cc1ccc(Br)o1

>  <score_type>  (18) 
oracle

>  <origin>  (18) 
adg

>  <m_score__min__energy>  (18) 
-7.0300000000000002

>  <m_primary>  (18) 
energy

$$$$
18:0
     RDKit          3D

 29 31  0  0  0  0  0  0  0  0999 V2000
   -2.5800   24.5390  -29.3170 C   0  0  0  0  0  0  0  0  0  0  0  0
   -3.4880   24.9930  -30.3150 O   0  0  0  0  0  0  0  0  0  0  0  0
   -4.7300   24.4000  -30.5870 C   0  0  0  0  0  0  0  0  0  0  0  0
   -5.8890   25.0920  -30.2220 C   0  0  0  0  0  0  0  0  0  0  0  0
   -7.1480   24.5420  -30.4670 C   0  0  0  0  0  0  0  0  0  0  0  0
   -7.2630   23.2940  -31.0840 C   0  0  0  0  0  0  0  0  0  0  0  0
   -6.1130   22.5820  -31.4680 C   0  0  0  0  0  0  0  0  0  0  0  0
   -6.2150   21.2920  -32.1040 N   0  0  0  0  0  0  0  0  0  0  0  0
   -6.8700   20.2620  -31.5670 N   0  0  0  0  0  0  0  0  0  0  0  0
   -6.7230   19.2550  -32.4460 C   0  0  0  0  0  0  0  0  0  0  0  0
   -7.2050   17.9520  -32.3720 C   0  0  0  0  0  0  0  0  0  0  0  0
   -6.8920   17.0850  -33.4380 C   0  0  0  0  0  0  0  0  0  0  0  0
   -6.1140   17.5410  -34.5320 C   0  0  0  0  0  0  0  0  0  0  0  0
   -5.6440   18.8690  -34.5680 C   0  0  0  0  0  0  0  0  0  0  0  0
   -5.9790   19.6920  -33.4980 C   0  0  0  0  0  0  0  0  0  0  0  0
   -5.6620   20.9740  -33.2750 N   0  0  0  0  0  0  0  0  0  0  0  0
   -4.8470   23.1400  -31.2090 C   0  0  0  0  0  0  0  0  0  0  0  0
   -2.9964   24.7472  -28.3204 H   0  0  0  0  0  0  0  0  0  0  0  0
   -2.4226   23.4562  -29.4297 H   0  0  0  0  0  0  0  0  0  0  0  0
   -1.6193   25.0628  -29.4297 H   0  0  0  0  0  0  0  0  0  0  0  0
   -5.8078   26.0767  -29.7384 H   0  0  0  0  0  0  0  0  0  0  0  0
   -8.0533   25.0934  -30.1731 H   0  0  0  0  0  0  0  0  0  0  0  0
   -8.2589   22.8659  -31.2705 H   0  0  0  0  0  0  0  0  0  0  0  0
   -7.8062   17.6122  -31.5158 H   0  0  0  0  0  0  0  0  0  0  0  0
   -7.2541   16.0464  -33.4211 H   0  0  0  0  0  0  0  0  0  0  0  0
   -5.8759   16.8541  -35.3575 H   0  0  0  0  0  0  0  0  0  0  0  0
   -5.0373   19.2394  -35.4075 H   0  0  0  0  0  0  0  0  0  0  0  0
   -5.0720   21.5880  -33.8770 H   0  0  0  0  0  0  0  0  0  0  0  0
   -3.9397   22.5875  -31.4947 H   0  0  0  0  0  0  0  0  0  0  0  0
  1  2  1  0
  2  3  1  0
  3  4  2  0
  4  5  1  0
  5  6  2  0
  6  7  1  0
  7  8  1  0
  8  9  1  0
  9 10  2  0
 10 11  1  0
 11 12  2  0
 12 13  1  0
 13 14  2  0
 14 15  1  0
 15 16  2  0
  7 17  2  0
 17  3  1  0
 16  8  1  0
 15 10  1  0
  1 18  1  0
  1 19  1  0
  1 20  1  0
  4 21  1  0
  5 22  1  0
  6 23  1  0
 11 24  1  0
 12 25  1  0
 13 26  1  0
 14 27  1  0
 16 28  1  0
 17 29  1  0
M  CHG  1  16   1
M  END
>  <UniqueID>  (19) 
19

>  <SMILES>  (19) 
COc1cccc(-n2nc3ccccc3[nH+]2)c1

>  <Energy>  (19) 
77.43049042870945

>  <Genealogy>  (19) 
COc1cccc(-n2nc3ccccc3[nH+]2)c1 (protonated)
COc1cccc(-n2nc3ccccc3[nH+]2)c1 (3D coordinates assigned)
COc1cccc(-n2nc3ccccc3[nH+]2)c1 (optimized conformer: 77.43049042870945 kcal/mol)

>  <smiles>  (19) 
COc1cccc(-n2nc3ccccc3n2)c1

>  <score_type>  (19) 
oracle

>  <origin>  (19) 
adg

>  <m_score__min__energy>  (19) 
-7.4900000000000002

>  <m_primary>  (19) 
energy

$$$$
19:0
     RDKit          3D

 53 55  0  0  0  0  0  0  0  0999 V2000
   -0.9150   26.7350  -23.9710 C   0  0  0  0  0  0  0  0  0  0  0  0
   -1.0760   25.5690  -24.9550 C   0  0  0  0  0  0  0  0  0  0  0  0
   -1.6500   25.9570  -26.2680 N   0  0  0  0  0  0  0  0  0  0  0  0
   -0.6630   26.5320  -27.2120 C   0  0  0  0  0  0  0  0  0  0  0  0
   -0.4920   28.0390  -27.0180 C   0  0  0  0  0  0  0  0  0  0  0  0
   -2.4150   24.8490  -26.8870 C   0  0  0  0  0  0  0  0  0  0  0  0
   -1.6740   24.2880  -28.1000 C   0  0  0  0  0  0  0  0  0  0  0  0
   -2.3620   24.6510  -29.2940 O   0  0  0  0  0  0  0  0  0  0  0  0
   -3.1290   23.8030  -30.1110 C   0  0  0  0  0  0  0  0  0  0  0  0
   -2.7220   22.4650  -30.1840 C   0  0  0  0  0  0  0  0  0  0  0  0
   -3.4350   21.5370  -30.9400 C   0  0  0  0  0  0  0  0  0  0  0  0
   -4.5830   21.9260  -31.6370 C   0  0  0  0  0  0  0  0  0  0  0  0
   -5.3220   20.9610  -32.4030 N   0  0  0  0  0  0  0  0  0  0  0  0
   -6.6350   21.0280  -32.7410 C   0  0  0  0  0  0  0  0  0  0  0  0
   -7.0400   19.9550  -33.4610 N   0  0  0  0  0  0  0  0  0  0  0  0
   -5.9370   19.1970  -33.5790 C   0  0  0  0  0  0  0  0  0  0  0  0
   -5.7980   17.9890  -34.2570 C   0  0  0  0  0  0  0  0  0  0  0  0
   -4.5160   17.3860  -34.2860 C   0  0  0  0  0  0  0  0  0  0  0  0
   -4.3140   16.1330  -34.9670 N   0  0  0  0  0  0  0  0  0  0  0  0
   -4.9320   15.1090  -34.6100 O   0  0  0  0  0  0  0  0  0  0  0  0
   -3.4390   16.0460  -36.0250 O   0  0  0  0  0  0  0  0  0  0  0  0
   -3.4270   18.0350  -33.6430 C   0  0  0  0  0  0  0  0  0  0  0  0
   -3.6080   19.2560  -32.9680 C   0  0  0  0  0  0  0  0  0  0  0  0
   -4.8920   19.8000  -32.9420 C   0  0  0  0  0  0  0  0  0  0  0  0
   -4.9870   23.2670  -31.5990 C   0  0  0  0  0  0  0  0  0  0  0  0
   -4.2760   24.2190  -30.8370 C   0  0  0  0  0  0  0  0  0  0  0  0
   -4.6910   25.5590  -30.7890 O   0  0  0  0  0  0  0  0  0  0  0  0
   -5.8470   26.0290  -30.1030 C   0  0  0  0  0  0  0  0  0  0  0  0
   -0.9675   26.3547  -22.9402 H   0  0  0  0  0  0  0  0  0  0  0  0
    0.0587   27.2203  -24.1337 H   0  0  0  0  0  0  0  0  0  0  0  0
   -1.7207   27.4660  -24.1337 H   0  0  0  0  0  0  0  0  0  0  0  0
   -0.0848   25.1250  -25.1292 H   0  0  0  0  0  0  0  0  0  0  0  0
   -1.7839   24.8630  -24.4962 H   0  0  0  0  0  0  0  0  0  0  0  0
    0.3084   26.0413  -27.0521 H   0  0  0  0  0  0  0  0  0  0  0  0
   -1.0326   26.3618  -28.2340 H   0  0  0  0  0  0  0  0  0  0  0  0
   -0.4658   28.2696  -25.9428 H   0  0  0  0  0  0  0  0  0  0  0  0
    0.4488   28.3645  -27.4858 H   0  0  0  0  0  0  0  0  0  0  0  0
   -1.3360   28.5670  -27.4858 H   0  0  0  0  0  0  0  0  0  0  0  0
   -2.5521   24.0476  -26.1460 H   0  0  0  0  0  0  0  0  0  0  0  0
   -3.3900   25.2361  -27.2180 H   0  0  0  0  0  0  0  0  0  0  0  0
   -0.6537   24.6982  -28.1269 H   0  0  0  0  0  0  0  0  0  0  0  0
   -1.6297   23.1915  -28.0244 H   0  0  0  0  0  0  0  0  0  0  0  0
   -1.8250   22.1415  -29.6356 H   0  0  0  0  0  0  0  0  0  0  0  0
   -3.0930   20.4927  -30.9888 H   0  0  0  0  0  0  0  0  0  0  0  0
   -7.2964   21.8612  -32.4612 H   0  0  0  0  0  0  0  0  0  0  0  0
   -7.9940   19.7660  -33.8410 H   0  0  0  0  0  0  0  0  0  0  0  0
   -6.6575   17.5168  -34.7552 H   0  0  0  0  0  0  0  0  0  0  0  0
   -2.4279   17.5757  -33.6736 H   0  0  0  0  0  0  0  0  0  0  0  0
   -2.7651   19.7646  -32.4772 H   0  0  0  0  0  0  0  0  0  0  0  0
   -5.8716   23.5827  -32.1716 H   0  0  0  0  0  0  0  0  0  0  0  0
   -5.6818   25.9618  -29.0175 H   0  0  0  0  0  0  0  0  0  0  0  0
   -6.0378   27.0761  -30.3808 H   0  0  0  0  0  0  0  0  0  0  0  0
   -6.7143   25.4121  -30.3808 H   0  0  0  0  0  0  0  0  0  0  0  0
  1  2  1  0
  2  3  1  0
  3  4  1  0
  4  5  1  0
  3  6  1  0
  6  7  1  0
  7  8  1  0
  8  9  1  0
  9 10  2  0
 10 11  1  0
 11 12  2  0
 12 13  1  0
 13 14  1  0
 14 15  2  0
 15 16  1  0
 16 17  2  0
 17 18  1  0
 18 19  1  0
 19 20  2  0
 19 21  1  0
 18 22  2  0
 22 23  1  0
 23 24  2  0
 12 25  1  0
 25 26  2  0
 26 27  1  0
 27 28  1  0
 26  9  1  0
 24 13  1  0
 24 16  1  0
  1 29  1  0
  1 30  1  0
  1 31  1  0
  2 32  1  0
  2 33  1  0
  4 34  1  0
  4 35  1  0
  5 36  1  0
  5 37  1  0
  5 38  1  0
  6 39  1  0
  6 40  1  0
  7 41  1  0
  7 42  1  0
 10 43  1  0
 11 44  1  0
 14 45  1  0
 15 46  1  0
 17 47  1  0
 22 48  1  0
 23 49  1  0
 25 50  1  0
 28 51  1  0
 28 52  1  0
 28 53  1  0
M  CHG  3  15   1  19   1  21  -1
M  END
>  <UniqueID>  (20) 
20

>  <SMILES>  (20) 
CCN(CC)CCOc1ccc(-n2c[nH+]c3cc([N+](=O)[O-])ccc32)cc1OC

>  <Energy>  (20) 
101.61693398240112

>  <Genealogy>  (20) 
CCN(CC)CCOc1ccc(-n2c[nH+]c3cc([N+](=O)[O-])ccc32)cc1OC (protonated)
CCN(CC)CCOc1ccc(-n2c[nH+]c3cc([N+](=O)[O-])ccc32)cc1OC (3D coordinates assigned)
CCN(CC)CCOc1ccc(-n2c[nH+]c3cc([N+](=O)[O-])ccc32)cc1OC (optimized conformer: 101.61693398240112 kcal/mol)

>  <smiles>  (20) 
CCN(CC)CCOc1ccc(-n2cnc3cc([N+](=O)[O-])ccc32)cc1OC

>  <score_type>  (20) 
oracle

>  <origin>  (20) 
adg

>  <m_score__min__energy>  (20) 
-7.4400000000000004

>  <m_primary>  (20) 
energy

$$$$
20:0
     RDKit          3D

 30 31  0  0  0  0  0  0  0  0999 V2000
   -4.0841   22.6561  -26.6628 H   0  0  0  0  0  0  0  0  0  0  0  0
   -3.8330   22.5950  -27.7320 C   0  0  0  0  0  0  0  0  0  0  0  0
   -4.1970   23.6310  -28.5930 C   0  0  0  0  0  0  0  0  0  0  0  0
   -4.7254   24.5102  -28.1958 H   0  0  0  0  0  0  0  0  0  0  0  0
   -3.8930   23.5600  -29.9680 C   0  0  0  0  0  0  0  0  0  0  0  0
   -4.2120   24.6090  -30.8460 O   0  0  0  0  0  0  0  0  0  0  0  0
   -5.3620   25.4410  -30.7300 C   0  0  0  0  0  0  0  0  0  0  0  0
   -5.5896   25.6057  -29.6665 H   0  0  0  0  0  0  0  0  0  0  0  0
   -5.1659   26.4076  -31.2170 H   0  0  0  0  0  0  0  0  0  0  0  0
   -6.2188   24.9523  -31.2170 H   0  0  0  0  0  0  0  0  0  0  0  0
   -3.2430   22.4080  -30.4740 C   0  0  0  0  0  0  0  0  0  0  0  0
   -2.8650   22.2920  -31.9350 C   0  0  0  0  0  0  0  0  0  0  0  0
   -2.5878   23.2882  -32.3101 H   0  0  0  0  0  0  0  0  0  0  0  0
   -2.0230   21.5885  -32.0128 H   0  0  0  0  0  0  0  0  0  0  0  0
   -3.9650   21.7710  -32.7470 N   0  0  0  0  0  0  0  0  0  0  0  0
   -5.2470   21.6400  -32.5200 C   0  0  0  0  0  0  0  0  0  0  0  0
   -5.9410   20.3950  -32.4760 C   0  0  0  0  0  0  0  0  0  0  0  0
   -5.2460   18.8150  -32.8160 Cl  0  0  0  0  0  0  0  0  0  0  0  0
   -7.3110   20.3950  -32.1860 C   0  0  0  0  0  0  0  0  0  0  0  0
   -7.8577   19.4417  -32.1381 H   0  0  0  0  0  0  0  0  0  0  0  0
   -7.9870   21.5890  -31.9580 C   0  0  0  0  0  0  0  0  0  0  0  0
   -9.7050   21.5830  -31.5990 Cl  0  0  0  0  0  0  0  0  0  0  0  0
   -7.2870   22.7880  -32.0260 C   0  0  0  0  0  0  0  0  0  0  0  0
   -7.8111   23.7396  -31.8535 H   0  0  0  0  0  0  0  0  0  0  0  0
   -5.9570   22.7880  -32.3050 N   0  0  0  0  0  0  0  0  0  0  0  0
   -5.4660   23.7110  -32.3400 H   0  0  0  0  0  0  0  0  0  0  0  0
   -2.8470   21.3950  -29.5830 C   0  0  0  0  0  0  0  0  0  0  0  0
   -2.2911   20.5243  -29.9609 H   0  0  0  0  0  0  0  0  0  0  0  0
   -3.1520   21.4830  -28.2240 C   0  0  0  0  0  0  0  0  0  0  0  0
   -2.7820   20.4870  -27.3810 F   0  0  0  0  0  0  0  0  0  0  0  0
  1  2  1  0
  2  3  2  0
  3  4  1  0
  3  5  1  0
  5  6  1  0
  6  7  1  0
  7  8  1  0
  7  9  1  0
  7 10  1  0
  5 11  2  0
 11 12  1  0
 12 13  1  0
 12 14  1  0
 12 15  1  0
 15 16  2  0
 16 17  1  0
 17 18  1  0
 17 19  2  0
 19 20  1  0
 19 21  1  0
 21 22  1  0
 21 23  2  0
 23 24  1  0
 23 25  1  0
 25 26  1  0
 11 27  1  0
 27 28  1  0
 27 29  2  0
 29 30  1  0
 29  2  1  0
 25 16  1  0
M  END
>  <UniqueID>  (21) 
21

>  <SMILES>  (21) 
COc1ccc(F)cc1C/N=c1/[nH]cc(Cl)cc1Cl

>  <Energy>  (21) 
41.76413000277206

>  <Genealogy>  (21) 
COc1ccc(F)cc1C/N=c1/[nH]cc(Cl)cc1Cl (cis-trans isomerization)
COc1ccc(F)cc1C/N=c1/[nH]cc(Cl)cc1Cl (3D coordinates assigned)
COc1ccc(F)cc1C/N=c1/[nH]cc(Cl)cc1Cl (optimized conformer: 41.76413000277206 kcal/mol)

>  <smiles>  (21) 
COc1ccc(F)cc1CN=c1[nH]cc(Cl)cc1Cl

>  <score_type>  (21) 
oracle

>  <origin>  (21) 
adg

>  <m_score__min__energy>  (21) 
-6.2300000000000004

>  <m_primary>  (21) 
energy

$$$$
21:0
     RDKit          3D

120120  0  0  0  0  0  0  0  0999 V2000
   -0.9578   12.7162  -30.7381 H   0  0  0  0  0  0  0  0  0  0  0  0
   -1.2140   13.4310  -31.5340 C   0  0  0  0  0  0  0  0  0  0  0  0
   -1.4950   14.2150  -32.4070 C   0  0  0  0  0  0  0  0  0  0  0  0
   -1.8360   15.1660  -33.4670 C   0  0  1  0  0  0  0  0  0  0  0  0
   -1.7914   14.6808  -34.4532 H   0  0  0  0  0  0  0  0  0  0  0  0
   -3.1960   15.6700  -33.2260 C   0  0  0  0  0  0  0  0  0  0  0  0
   -4.3170   16.0660  -33.0250 C   0  0  0  0  0  0  0  0  0  0  0  0
   -5.6840   16.5350  -32.7730 C   0  0  0  0  0  0  0  0  0  0  0  0
   -6.2295   15.7700  -32.2010 H   0  0  0  0  0  0  0  0  0  0  0  0
   -5.6384   17.4743  -32.2024 H   0  0  0  0  0  0  0  0  0  0  0  0
   -6.4150   16.7930  -34.0950 C   0  0  0  0  0  0  0  0  0  0  0  0
   -6.4325   15.8602  -34.6777 H   0  0  0  0  0  0  0  0  0  0  0  0
   -7.4325   17.1359  -33.8561 H   0  0  0  0  0  0  0  0  0  0  0  0
   -5.7340   17.8870  -34.9330 C   0  0  0  0  0  0  0  0  0  0  0  0
   -5.0406   17.4048  -35.6378 H   0  0  0  0  0  0  0  0  0  0  0  0
   -6.5310   18.4440  -35.4474 H   0  0  0  0  0  0  0  0  0  0  0  0
   -4.9400   18.9070  -34.0860 C   0  0  0  0  0  0  0  0  0  0  0  0
   -4.3242   18.3540  -33.3614 H   0  0  0  0  0  0  0  0  0  0  0  0
   -4.3303   19.5019  -34.7820 H   0  0  0  0  0  0  0  0  0  0  0  0
   -5.8360   19.8900  -33.3140 C   0  0  0  0  0  0  0  0  0  0  0  0
   -6.0245   20.7619  -33.9577 H   0  0  0  0  0  0  0  0  0  0  0  0
   -6.7536   19.3414  -33.0553 H   0  0  0  0  0  0  0  0  0  0  0  0
   -5.2360   20.3910  -31.9890 C   0  0  0  0  0  0  0  0  0  0  0  0
   -6.0340   20.4250  -31.2327 H   0  0  0  0  0  0  0  0  0  0  0  0
   -4.4333   19.6944  -31.7052 H   0  0  0  0  0  0  0  0  0  0  0  0
   -4.6110   21.7940  -32.1080 C   0  0  0  0  0  0  0  0  0  0  0  0
   -4.6424   22.1095  -33.1613 H   0  0  0  0  0  0  0  0  0  0  0  0
   -5.1889   22.4805  -31.4719 H   0  0  0  0  0  0  0  0  0  0  0  0
   -3.1520   21.8120  -31.6270 C   0  0  0  0  0  0  0  0  0  0  0  0
   -2.5779   21.0617  -32.1904 H   0  0  0  0  0  0  0  0  0  0  0  0
   -2.7394   22.8177  -31.7949 H   0  0  0  0  0  0  0  0  0  0  0  0
   -3.0680   21.5040  -30.1920 C   0  0  0  0  0  0  0  0  0  0  0  0
   -2.9850   21.2740  -29.0120 C   0  0  0  0  0  0  0  0  0  0  0  0
    0.4220   21.5960  -27.1910 C   0  0  0  0  0  0  0  0  0  0  0  0
    0.0527   21.4864  -26.1606 H   0  0  0  0  0  0  0  0  0  0  0  0
    0.3010   22.8030  -27.7740 C   0  0  0  0  0  0  0  0  0  0  0  0
   -0.4093   22.9077  -28.6074 H   0  0  0  0  0  0  0  0  0  0  0  0
    1.0850   24.0220  -27.3490 C   0  0  0  0  0  0  0  0  0  0  0  0
    1.9034   24.1809  -28.0666 H   0  0  0  0  0  0  0  0  0  0  0  0
    0.3879   24.8727  -27.3287 H   0  0  0  0  0  0  0  0  0  0  0  0
    1.6880   23.8840  -25.9380 C   0  0  0  0  0  0  0  0  0  0  0  0
    2.3143   22.9799  -25.9198 H   0  0  0  0  0  0  0  0  0  0  0  0
    2.2561   24.8072  -25.7508 H   0  0  0  0  0  0  0  0  0  0  0  0
   -0.7940   18.5520  -28.0160 C   0  0  0  0  0  0  0  0  0  0  0  0
   -0.0976   17.7625  -27.6970 H   0  0  0  0  0  0  0  0  0  0  0  0
   -1.5486   18.1784  -28.7239 H   0  0  0  0  0  0  0  0  0  0  0  0
   -1.5460   19.0670  -26.7800 C   0  0  0  0  0  0  0  0  0  0  0  0
   -0.9232   19.8102  -26.2606 H   0  0  0  0  0  0  0  0  0  0  0  0
   -1.7583   18.2186  -26.1128 H   0  0  0  0  0  0  0  0  0  0  0  0
   -2.8900   20.9700  -27.6090 C   0  0  0  0  0  0  0  0  0  0  0  0
   -2.8548   21.7903  -26.8769 H   0  0  0  0  0  0  0  0  0  0  0  0
   -2.8440   19.7050  -27.1840 C   0  0  0  0  0  0  0  0  0  0  0  0
   -3.7737   19.1197  -27.1288 H   0  0  0  0  0  0  0  0  0  0  0  0
    1.0290   20.3820  -27.8520 C   0  0  0  0  0  0  0  0  0  0  0  0
    1.3837   19.6917  -27.0725 H   0  0  0  0  0  0  0  0  0  0  0  0
    1.8604   20.7182  -28.4890 H   0  0  0  0  0  0  0  0  0  0  0  0
    0.0090   19.6480  -28.7420 C   0  0  0  0  0  0  0  0  0  0  0  0
    0.5531   19.1808  -29.5761 H   0  0  0  0  0  0  0  0  0  0  0  0
   -0.7186   20.4028  -29.0750 H   0  0  0  0  0  0  0  0  0  0  0  0
    0.6530   23.7730  -24.8060 C   0  0  0  0  0  0  0  0  0  0  0  0
   -0.0589   22.9738  -25.0600 H   0  0  0  0  0  0  0  0  0  0  0  0
    1.2036   23.5556  -23.8789 H   0  0  0  0  0  0  0  0  0  0  0  0
   -0.1330   25.0730  -24.5770 C   0  0  0  0  0  0  0  0  0  0  0  0
   -0.3004   25.2103  -23.4985 H   0  0  0  0  0  0  0  0  0  0  0  0
    0.4470   25.9165  -24.9796 H   0  0  0  0  0  0  0  0  0  0  0  0
   -1.4870   25.0120  -25.2950 C   0  0  0  0  0  0  0  0  0  0  0  0
   -1.5165   24.1001  -25.9094 H   0  0  0  0  0  0  0  0  0  0  0  0
   -2.2686   25.0132  -24.5209 H   0  0  0  0  0  0  0  0  0  0  0  0
   -1.7430   26.2240  -26.2060 C   0  0  0  0  0  0  0  0  0  0  0  0
   -2.8283   26.3995  -26.2416 H   0  0  0  0  0  0  0  0  0  0  0  0
   -1.1765   27.0593  -25.7686 H   0  0  0  0  0  0  0  0  0  0  0  0
   -1.2360   26.0760  -27.6550 C   0  0  0  0  0  0  0  0  0  0  0  0
   -1.3367   27.0525  -28.1512 H   0  0  0  0  0  0  0  0  0  0  0  0
   -0.1965   25.7245  -27.5781 H   0  0  0  0  0  0  0  0  0  0  0  0
   -1.9750   25.0310  -28.5090 C   0  0  0  0  0  0  0  0  0  0  0  0
   -2.3304   25.5285  -29.4234 H   0  0  0  0  0  0  0  0  0  0  0  0
   -1.2507   24.2255  -28.7002 H   0  0  0  0  0  0  0  0  0  0  0  0
   -3.1850   24.3650  -27.8280 C   0  0  0  0  0  0  0  0  0  0  0  0
   -2.8746   23.3736  -27.4663 H   0  0  0  0  0  0  0  0  0  0  0  0
   -3.4991   25.0366  -27.0154 H   0  0  0  0  0  0  0  0  0  0  0  0
   -4.4100   24.1820  -28.7500 C   0  0  0  0  0  0  0  0  0  0  0  0
   -4.5561   23.1072  -28.9330 H   0  0  0  0  0  0  0  0  0  0  0  0
   -5.2785   24.6284  -28.2436 H   0  0  0  0  0  0  0  0  0  0  0  0
   -4.2420   24.8940  -30.1030 C   0  0  0  0  0  0  0  0  0  0  0  0
   -3.6364   25.8008  -29.9578 H   0  0  0  0  0  0  0  0  0  0  0  0
   -3.7465   24.2021  -30.7999 H   0  0  0  0  0  0  0  0  0  0  0  0
   -5.6000   25.2900  -30.6980 C   0  0  0  0  0  0  0  0  0  0  0  0
   -6.0177   26.1294  -30.1227 H   0  0  0  0  0  0  0  0  0  0  0  0
   -5.4586   25.5870  -31.7477 H   0  0  0  0  0  0  0  0  0  0  0  0
   -6.5290   24.1550  -30.6430 C   0  0  0  0  0  0  0  0  0  0  0  0
   -7.3000   23.2280  -30.6020 C   0  0  0  0  0  0  0  0  0  0  0  0
   -8.2460   22.1050  -30.5650 C   0  0  0  0  0  0  0  0  0  0  0  0
   -7.8340   21.3139  -29.9213 H   0  0  0  0  0  0  0  0  0  0  0  0
   -9.2030   22.4778  -30.1712 H   0  0  0  0  0  0  0  0  0  0  0  0
   -8.5000   21.5250  -31.9640 C   0  0  0  0  0  0  0  0  0  0  0  0
   -8.9032   22.3263  -32.6007 H   0  0  0  0  0  0  0  0  0  0  0  0
   -7.5354   21.1368  -32.3229 H   0  0  0  0  0  0  0  0  0  0  0  0
   -9.4890   20.3420  -31.9930 C   0  0  0  0  0  0  0  0  0  0  0  0
  -10.3156   20.5620  -31.3013 H   0  0  0  0  0  0  0  0  0  0  0  0
   -9.8329   20.2328  -33.0321 H   0  0  0  0  0  0  0  0  0  0  0  0
   -8.8560   19.0060  -31.5840 C   0  0  0  0  0  0  0  0  0  0  0  0
   -7.9978   19.1982  -30.9232 H   0  0  0  0  0  0  0  0  0  0  0  0
   -9.6081   18.3997  -31.0579 H   0  0  0  0  0  0  0  0  0  0  0  0
   -8.4200   18.3090  -32.7160 O   0  0  0  0  0  0  0  0  0  0  0  0
   -8.6750   18.8640  -33.4970 H   0  0  0  0  0  0  0  0  0  0  0  0
   -0.9160   16.2390  -33.4230 O   0  0  0  0  0  0  0  0  0  0  0  0
   -1.1920   17.0870  -32.3280 C   0  0  0  0  0  0  0  0  0  0  0  0
   -2.2379   16.9556  -32.0135 H   0  0  0  0  0  0  0  0  0  0  0  0
   -0.5293   16.8369  -31.4864 H   0  0  0  0  0  0  0  0  0  0  0  0
   -0.9670   18.5100  -32.7470 C   0  0  0  0  0  0  0  0  0  0  0  0
   -0.1850   19.3670  -31.9550 C   0  0  0  0  0  0  0  0  0  0  0  0
    0.2833   18.9870  -31.0351 H   0  0  0  0  0  0  0  0  0  0  0  0
    0.0010   20.7020  -32.3310 C   0  0  0  0  0  0  0  0  0  0  0  0
    0.6238   21.3658  -31.7134 H   0  0  0  0  0  0  0  0  0  0  0  0
   -0.6050   21.1920  -33.4920 C   0  0  0  0  0  0  0  0  0  0  0  0
   -0.4544   22.2401  -33.7902 H   0  0  0  0  0  0  0  0  0  0  0  0
   -1.4020   20.3510  -34.2740 C   0  0  0  0  0  0  0  0  0  0  0  0
   -1.8800   20.7383  -35.1859 H   0  0  0  0  0  0  0  0  0  0  0  0
   -1.5920   19.0180  -33.8980 C   0  0  0  0  0  0  0  0  0  0  0  0
   -2.2339   18.3638  -34.5063 H   0  0  0  0  0  0  0  0  0  0  0  0
  1  2  1  0
  2  3  3  0
  3  4  1  0
  4  5  1  6
  4  6  1  0
  6  7  3  0
  7  8  1  0
  8  9  1  0
  8 10  1  0
  8 11  1  0
 11 12  1  0
 11 13  1  0
 11 14  1  0
 14 15  1  0
 14 16  1  0
 14 17  1  0
 17 18  1  0
 17 19  1  0
 17 20  1  0
 20 21  1  0
 20 22  1  0
 20 23  1  0
 23 24  1  0
 23 25  1  0
 23 26  1  0
 26 27  1  0
 26 28  1  0
 26 29  1  0
 29 30  1  0
 29 31  1  0
 29 32  1  0
 32 33  3  0
 33 34  1  0
 34 35  1  0
 34 36  2  0
 36 37  1  0
 36 38  1  0
 38 39  1  0
 38 40  1  0
 38 41  1  0
 41 42  1  0
 41 43  1  0
 41 44  1  0
 44 45  1  0
 44 46  1  0
 44 47  1  0
 47 48  1  0
 47 49  1  0
 47 50  1  0
 50 51  1  0
 50 52  2  0
 52 53  1  0
 52 54  1  0
 54 55  1  0
 54 56  1  0
 54 57  1  0
 57 58  1  0
 57 59  1  0
 57 60  1  0
 60 61  1  0
 60 62  1  0
 60 63  1  0
 63 64  1  0
 63 65  1  0
 63 66  1  0
 66 67  1  0
 66 68  1  0
 66 69  1  0
 69 70  1  0
 69 71  1  0
 69 72  1  0
 72 73  1  0
 72 74  1  0
 72 75  1  0
 75 76  1  0
 75 77  1  0
 75 78  1  0
 78 79  1  0
 78 80  1  0
 78 81  1  0
 81 82  1  0
 81 83  1  0
 81 84  1  0
 84 85  1  0
 84 86  1  0
 84 87  1  0
 87 88  1  0
 87 89  1  0
 87 90  1  0
 90 91  3  0
 91 92  1  0
 92 93  1  0
 92 94  1  0
 92 95  1  0
 95 96  1  0
 95 97  1  0
 95 98  1  0
 98 99  1  0
 98100  1  0
 98101  1  0
101102  1  0
101103  1  0
101104  1  0
104105  1  0
  4106  1  0
106107  1  0
107108  1  0
107109  1  0
107110  1  0
110111  2  0
111112  1  0
111113  1  0
113114  1  0
113115  2  0
115116  1  0
115117  1  0
117118  1  0
117119  2  0
119120  1  0
119110  1  0
M  END
>  <UniqueID>  (22) 
22

>  <SMILES>  (22) 
C#C[C@@H](C#CCCCCCCCCC#C/C=C/CCCC/C=C\CCCCCCCCCCCCC#CCCCCO)OCc1ccccc1

>  <Energy>  (22) 
62.546143558098464

>  <Genealogy>  (22) 
C#C[C@@H](C#CCCCCCCCCC#CC=CCCCCC=CCCCCCCCCCCCCC#CCCCCO)OCc1ccccc1 (chirality)
C#C[C@@H](C#CCCCCCCCCC#C/C=C/CCCC/C=C\CCCCCCCCCCCCC#CCCCCO)OCc1ccccc1 (cis-trans isomerization)
C#C[C@@H](C#CCCCCCCCCC#C/C=C/CCCC/C=C\CCCCCCCCCCCCC#CCCCCO)OCc1ccccc1 (3D coordinates assigned)
C#C[C@@H](C#CCCCCCCCCC#C/C=C/CCCC/C=C\CCCCCCCCCCCCC#CCCCCO)OCc1ccccc1 (optimized conformer: 62.546143558098464 kcal/mol)

>  <smiles>  (22) 
C#CC(C#CCCCCCCCCC#CC=CCCCCC=CCCCCCCCCCCCCC#CCCCCO)OCc1ccccc1

>  <score_type>  (22) 
oracle

>  <origin>  (22) 
adg

>  <m_score__min__energy>  (22) 
-7.1600000000000001

>  <m_primary>  (22) 
energy

$$$$
22:0
     RDKit          3D

 39 41  0  0  0  0  0  0  0  0999 V2000
   -9.2090   18.5340  -31.9340 C   0  0  0  0  0  0  0  0  0  0  0  0
   -8.9300   19.7880  -32.5460 O   0  0  0  0  0  0  0  0  0  0  0  0
   -7.8580   20.6270  -32.1990 C   0  0  0  0  0  0  0  0  0  0  0  0
   -8.0630   21.9200  -31.6900 C   0  0  0  0  0  0  0  0  0  0  0  0
   -6.9750   22.7470  -31.3780 C   0  0  0  0  0  0  0  0  0  0  0  0
   -7.1970   24.0290  -30.8740 C   0  0  0  0  0  0  0  0  0  0  0  0
   -6.1190   24.8470  -30.5650 C   0  0  0  0  0  0  0  0  0  0  0  0
   -4.8170   24.3860  -30.7590 C   0  0  0  0  0  0  0  0  0  0  0  0
   -3.8620   25.1570  -30.4660 O   0  0  0  0  0  0  0  0  0  0  0  0
   -4.5820   23.1240  -31.2570 N   0  0  0  0  0  0  0  0  0  0  0  0
   -3.1920   22.6650  -31.4540 C   0  0  0  0  0  0  0  0  0  0  0  0
   -5.6460   22.2940  -31.5680 C   0  0  0  0  0  0  0  0  0  0  0  0
   -5.4560   20.9880  -32.0740 C   0  0  0  0  0  0  0  0  0  0  0  0
   -6.5460   20.1620  -32.3840 C   0  0  0  0  0  0  0  0  0  0  0  0
   -6.3050   18.8340  -32.8820 N   0  0  0  0  0  0  0  0  0  0  0  0
   -6.1200   18.6020  -34.3170 C   0  0  0  0  0  0  0  0  0  0  0  0
   -4.7740   17.8970  -34.5870 C   0  0  0  0  0  0  0  0  0  0  0  0
   -4.2890   17.0770  -33.4580 N   0  0  0  0  0  0  0  0  0  0  0  0
   -5.3820   16.5610  -32.6230 C   0  0  0  0  0  0  0  0  0  0  0  0
   -6.1290   17.7180  -31.9450 C   0  0  0  0  0  0  0  0  0  0  0  0
   -9.1840   18.6463  -30.8400 H   0  0  0  0  0  0  0  0  0  0  0  0
  -10.2060   18.1882  -32.2444 H   0  0  0  0  0  0  0  0  0  0  0  0
   -8.4526   17.7981  -32.2444 H   0  0  0  0  0  0  0  0  0  0  0  0
   -9.0881   22.2875  -31.5346 H   0  0  0  0  0  0  0  0  0  0  0  0
   -8.2246   24.3908  -30.7218 H   0  0  0  0  0  0  0  0  0  0  0  0
   -6.2914   25.8580  -30.1674 H   0  0  0  0  0  0  0  0  0  0  0  0
   -2.7156   22.5077  -30.4751 H   0  0  0  0  0  0  0  0  0  0  0  0
   -3.1942   21.7199  -32.0168 H   0  0  0  0  0  0  0  0  0  0  0  0
   -2.6310   23.4256  -32.0168 H   0  0  0  0  0  0  0  0  0  0  0  0
   -4.4336   20.6124  -32.2276 H   0  0  0  0  0  0  0  0  0  0  0  0
   -6.9397   17.9698  -34.6891 H   0  0  0  0  0  0  0  0  0  0  0  0
   -6.1209   19.5724  -34.8349 H   0  0  0  0  0  0  0  0  0  0  0  0
   -4.8957   17.2426  -35.4628 H   0  0  0  0  0  0  0  0  0  0  0  0
   -4.0272   18.6880  -34.7502 H   0  0  0  0  0  0  0  0  0  0  0  0
   -3.6620   17.6650  -32.8580 H   0  0  0  0  0  0  0  0  0  0  0  0
   -6.0843   15.9961  -33.2536 H   0  0  0  0  0  0  0  0  0  0  0  0
   -4.9596   15.9055  -31.8472 H   0  0  0  0  0  0  0  0  0  0  0  0
   -7.1163   17.3658  -31.6117 H   0  0  0  0  0  0  0  0  0  0  0  0
   -5.5403   18.0658  -31.0833 H   0  0  0  0  0  0  0  0  0  0  0  0
  1  2  1  0
  2  3  1  0
  3  4  2  0
  4  5  1  0
  5  6  1  0
  6  7  2  0
  7  8  1  0
  8  9  2  0
  8 10  1  0
 10 11  1  0
 10 12  1  0
 12 13  1  0
 13 14  2  0
 14 15  1  0
 15 16  1  0
 16 17  1  0
 17 18  1  0
 18 19  1  0
 19 20  1  0
 14  3  1  0
 20 15  1  0
 12  5  2  0
  1 21  1  0
  1 22  1  0
  1 23  1  0
  4 24  1  0
  6 25  1  0
  7 26  1  0
 11 27  1  0
 11 28  1  0
 11 29  1  0
 13 30  1  0
 16 31  1  0
 16 32  1  0
 17 33  1  0
 17 34  1  0
 18 35  1  0
 19 36  1  0
 19 37  1  0
 20 38  1  0
 20 39  1  0
M  END
>  <UniqueID>  (23) 
23

>  <SMILES>  (23) 
COc1cc2ccc(=O)n(C)c2cc1N1CCNCC1

>  <Energy>  (23) 
58.72849396797528

>  <Genealogy>  (23) 
COc1cc2ccc(=O)n(C)c2cc1N1CCNCC1 (3D coordinates assigned)
COc1cc2ccc(=O)n(C)c2cc1N1CCNCC1 (nonaromatic ring conformer: 58.72849396797528 kcal/mol)

>  <smiles>  (23) 
COc1cc2ccc(=O)n(C)c2cc1N1CCNCC1

>  <score_type>  (23) 
oracle

>  <origin>  (23) 
adg

>  <m_score__min__energy>  (23) 
-7.7400000000000002

>  <m_primary>  (23) 
energy

$$$$
23:0
     RDKit          3D

 42 45  0  0  0  0  0  0  0  0999 V2000
   -5.3280   25.6850  -30.6260 C   0  0  0  0  0  0  0  0  0  0  0  0
   -3.9970   25.2050  -30.4700 O   0  0  0  0  0  0  0  0  0  0  0  0
   -3.6400   24.0410  -29.7690 C   0  0  0  0  0  0  0  0  0  0  0  0
   -3.1520   24.1020  -28.4480 C   0  0  0  0  0  0  0  0  0  0  0  0
   -2.7570   22.9390  -27.7840 C   0  0  0  0  0  0  0  0  0  0  0  0
   -2.8310   21.7060  -28.4290 C   0  0  0  0  0  0  0  0  0  0  0  0
   -3.3210   21.6290  -29.7330 C   0  0  0  0  0  0  0  0  0  0  0  0
   -3.7660   22.7820  -30.4040 C   0  0  0  0  0  0  0  0  0  0  0  0
   -4.2710   22.6360  -31.8250 C   0  0  0  0  0  0  0  0  0  0  0  0
   -3.8020   21.4080  -32.4790 N   0  0  0  0  0  0  0  0  0  0  0  0
   -2.4980   21.1360  -32.7510 C   0  0  0  0  0  0  0  0  0  0  0  0
   -2.3390   19.9980  -33.4590 N   0  0  0  0  0  0  0  0  0  0  0  0
   -3.5860   19.5360  -33.6340 C   0  0  0  0  0  0  0  0  0  0  0  0
   -3.9780   18.4200  -34.3630 C   0  0  0  0  0  0  0  0  0  0  0  0
   -5.3540   18.1700  -34.4540 C   0  0  0  0  0  0  0  0  0  0  0  0
   -6.2490   18.9930  -33.8260 N   0  0  0  0  0  0  0  0  0  0  0  0
   -5.8650   20.0870  -33.1000 C   0  0  0  0  0  0  0  0  0  0  0  0
   -6.9060   20.8510  -32.3980 C   0  0  0  0  0  0  0  0  0  0  0  0
   -7.8780   20.1880  -31.6320 C   0  0  0  0  0  0  0  0  0  0  0  0
   -8.9140   20.9120  -31.0340 C   0  0  0  0  0  0  0  0  0  0  0  0
   -9.0020   22.2950  -31.2200 C   0  0  0  0  0  0  0  0  0  0  0  0
   -8.0570   22.9550  -32.0110 C   0  0  0  0  0  0  0  0  0  0  0  0
   -7.0170   22.2350  -32.6070 C   0  0  0  0  0  0  0  0  0  0  0  0
   -4.4860   20.3690  -33.0260 C   0  0  0  0  0  0  0  0  0  0  0  0
   -5.7778   25.8472  -29.6353 H   0  0  0  0  0  0  0  0  0  0  0  0
   -5.3127   26.6342  -31.1816 H   0  0  0  0  0  0  0  0  0  0  0  0
   -5.9221   24.9445  -31.1816 H   0  0  0  0  0  0  0  0  0  0  0  0
   -3.0818   25.0732  -27.9364 H   0  0  0  0  0  0  0  0  0  0  0  0
   -2.3867   22.9962  -26.7498 H   0  0  0  0  0  0  0  0  0  0  0  0
   -2.5030   20.7933  -27.9100 H   0  0  0  0  0  0  0  0  0  0  0  0
   -3.3597   20.6548  -30.2424 H   0  0  0  0  0  0  0  0  0  0  0  0
   -5.3708   22.6248  -31.8064 H   0  0  0  0  0  0  0  0  0  0  0  0
   -3.8778   23.4860  -32.4021 H   0  0  0  0  0  0  0  0  0  0  0  0
   -1.6624   21.7747  -32.4287 H   0  0  0  0  0  0  0  0  0  0  0  0
   -1.4470   19.5920  -33.8200 H   0  0  0  0  0  0  0  0  0  0  0  0
   -3.2412   17.7621  -34.8471 H   0  0  0  0  0  0  0  0  0  0  0  0
   -5.7164   17.3079  -35.0331 H   0  0  0  0  0  0  0  0  0  0  0  0
   -7.8244   19.0970  -31.5021 H   0  0  0  0  0  0  0  0  0  0  0  0
   -9.6612   20.3926  -30.4161 H   0  0  0  0  0  0  0  0  0  0  0  0
   -9.8146   22.8635  -30.7441 H   0  0  0  0  0  0  0  0  0  0  0  0
   -8.1316   24.0417  -32.1647 H   0  0  0  0  0  0  0  0  0  0  0  0
   -6.2837   22.7544  -33.2414 H   0  0  0  0  0  0  0  0  0  0  0  0
  1  2  1  0
  2  3  1  0
  3  4  2  0
  4  5  1  0
  5  6  2  0
  6  7  1  0
  7  8  2  0
  8  9  1  0
  9 10  1  0
 10 11  1  0
 11 12  2  0
 12 13  1  0
 13 14  2  0
 14 15  1  0
 15 16  2  0
 16 17  1  0
 17 18  1  0
 18 19  2  0
 19 20  1  0
 20 21  2  0
 21 22  1  0
 22 23  2  0
 17 24  2  0
  8  3  1  0
 24 10  1  0
 24 13  1  0
 23 18  1  0
  1 25  1  0
  1 26  1  0
  1 27  1  0
  4 28  1  0
  5 29  1  0
  6 30  1  0
  7 31  1  0
  9 32  1  0
  9 33  1  0
 11 34  1  0
 12 35  1  0
 14 36  1  0
 15 37  1  0
 19 38  1  0
 20 39  1  0
 21 40  1  0
 22 41  1  0
 23 42  1  0
M  CHG  1  12   1
M  END
>  <UniqueID>  (24) 
24

>  <SMILES>  (24) 
COc1ccccc1Cn1c[nH+]c2ccnc(-c3ccccc3)c21

>  <Energy>  (24) 
93.49419910588051

>  <Genealogy>  (24) 
COc1ccccc1Cn1c[nH+]c2ccnc(-c3ccccc3)c21 (protonated)
COc1ccccc1Cn1c[nH+]c2ccnc(-c3ccccc3)c21 (3D coordinates assigned)
COc1ccccc1Cn1c[nH+]c2ccnc(-c3ccccc3)c21 (optimized conformer: 93.49419910588051 kcal/mol)

>  <smiles>  (24) 
COc1ccccc1Cn1cnc2ccnc(-c3ccccc3)c21

>  <score_type>  (24) 
oracle

>  <origin>  (24) 
adg

>  <m_score__min__energy>  (24) 
-8.0500000000000007

>  <m_primary>  (24) 
energy

$$$$
24:0
     RDKit          3D

 36 38  0  0  0  0  0  0  0  0999 V2000
   -0.4000   27.1360  -23.8860 C   0  0  0  0  0  0  0  0  0  0  0  0
   -0.3620   27.3610  -25.2910 O   0  0  0  0  0  0  0  0  0  0  0  0
   -0.9810   26.5370  -26.2420 C   0  0  0  0  0  0  0  0  0  0  0  0
   -2.0400   25.7210  -25.8260 C   0  0  0  0  0  0  0  0  0  0  0  0
   -2.6900   24.8810  -26.7350 C   0  0  0  0  0  0  0  0  0  0  0  0
   -2.2890   24.8440  -28.0810 C   0  0  0  0  0  0  0  0  0  0  0  0
   -2.9580   23.9790  -29.0160 N   0  0  0  0  0  0  0  0  0  0  0  0
   -3.0520   22.6310  -28.9610 C   0  0  0  0  0  0  0  0  0  0  0  0
   -2.4640   21.8470  -27.9750 O   0  0  0  0  0  0  0  0  0  0  0  0
   -3.7900   22.1340  -30.0180 C   0  0  0  0  0  0  0  0  0  0  0  0
   -4.1450   23.2380  -30.7690 C   0  0  0  0  0  0  0  0  0  0  0  0
   -4.9870   23.2120  -31.9300 N   0  0  0  0  0  0  0  0  0  0  0  0
   -6.2140   22.4710  -32.0180 C   0  0  0  0  0  0  0  0  0  0  0  0
   -7.4050   23.0500  -31.5560 C   0  0  0  0  0  0  0  0  0  0  0  0
   -8.6060   22.3340  -31.6070 C   0  0  0  0  0  0  0  0  0  0  0  0
   -8.6230   21.0290  -32.1060 C   0  0  0  0  0  0  0  0  0  0  0  0
   -7.4370   20.4340  -32.5460 C   0  0  0  0  0  0  0  0  0  0  0  0
   -6.2340   21.1470  -32.4960 C   0  0  0  0  0  0  0  0  0  0  0  0
   -3.6430   24.3520  -30.1180 C   0  0  0  0  0  0  0  0  0  0  0  0
   -3.8650   25.6740  -30.4890 O   0  0  0  0  0  0  0  0  0  0  0  0
   -1.2260   25.6620  -28.4990 C   0  0  0  0  0  0  0  0  0  0  0  0
   -0.5770   26.5010  -27.5890 C   0  0  0  0  0  0  0  0  0  0  0  0
   -0.2393   28.0874  -23.3578 H   0  0  0  0  0  0  0  0  0  0  0  0
   -1.3806   26.7229  -23.6072 H   0  0  0  0  0  0  0  0  0  0  0  0
    0.3906   26.4238  -23.6072 H   0  0  0  0  0  0  0  0  0  0  0  0
   -2.3634   25.7410  -24.7748 H   0  0  0  0  0  0  0  0  0  0  0  0
   -3.5205   24.2452  -26.3943 H   0  0  0  0  0  0  0  0  0  0  0  0
   -4.0416   21.0822  -30.2190 H   0  0  0  0  0  0  0  0  0  0  0  0
   -4.6880   23.7750  -32.7590 H   0  0  0  0  0  0  0  0  0  0  0  0
   -7.3948   24.0728  -31.1513 H   0  0  0  0  0  0  0  0  0  0  0  0
   -9.5381   22.7991  -31.2538 H   0  0  0  0  0  0  0  0  0  0  0  0
   -9.5692   20.4700  -32.1526 H   0  0  0  0  0  0  0  0  0  0  0  0
   -7.4495   19.4040  -32.9320 H   0  0  0  0  0  0  0  0  0  0  0  0
   -5.3006   20.6713  -32.8314 H   0  0  0  0  0  0  0  0  0  0  0  0
   -0.9022   25.6420  -29.5501 H   0  0  0  0  0  0  0  0  0  0  0  0
    0.2543   27.1367  -27.9279 H   0  0  0  0  0  0  0  0  0  0  0  0
  1  2  1  0
  2  3  1  0
  3  4  2  0
  4  5  1  0
  5  6  2  0
  6  7  1  0
  7  8  1  0
  8  9  1  0
  8 10  2  0
 10 11  1  0
 11 12  1  0
 12 13  1  0
 13 14  2  0
 14 15  1  0
 15 16  2  0
 16 17  1  0
 17 18  2  0
 11 19  2  0
 19 20  1  0
  6 21  1  0
 21 22  2  0
 22  3  1  0
 19  7  1  0
 18 13  1  0
  1 23  1  0
  1 24  1  0
  1 25  1  0
  4 26  1  0
  5 27  1  0
 10 28  1  0
 12 29  1  0
 14 30  1  0
 15 31  1  0
 16 32  1  0
 17 33  1  0
 18 34  1  0
 21 35  1  0
 22 36  1  0
M  CHG  2   9  -1  20  -1
M  END
>  <UniqueID>  (25) 
25

>  <SMILES>  (25) 
COc1ccc(-n2c([O-])cc(Nc3ccccc3)c2[O-])cc1

>  <Energy>  (25) 
77.65124095279425

>  <Genealogy>  (25) 
COc1ccc(-n2c([O-])cc(Nc3ccccc3)c2[O-])cc1 (protonated)
COc1ccc(-n2c([O-])cc(Nc3ccccc3)c2[O-])cc1 (3D coordinates assigned)
COc1ccc(-n2c([O-])cc(Nc3ccccc3)c2[O-])cc1 (optimized conformer: 77.65124095279425 kcal/mol)

>  <smiles>  (25) 
COc1ccc(-n2c(O)cc(Nc3ccccc3)c2O)cc1

>  <score_type>  (25) 
oracle

>  <origin>  (25) 
adg

>  <m_score__min__energy>  (25) 
-10.08

>  <m_primary>  (25) 
energy

$$$$
25:0
     RDKit          3D

 63 65  0  0  0  0  0  0  0  0999 V2000
   -1.2020   21.5280  -27.9880 C   0  0  0  0  0  0  0  0  0  0  0  0
   -0.4750   22.3710  -26.9410 C   0  0  0  0  0  0  0  0  0  0  0  0
   -0.8500   21.9950  -25.4980 C   0  0  0  0  0  0  0  0  0  0  0  0
   -0.4780   23.0780  -24.4620 C   0  0  0  0  0  0  0  0  0  0  0  0
    0.9150   23.6760  -24.7240 C   0  0  0  0  0  0  0  0  0  0  0  0
    0.8790   25.1970  -24.9430 C   0  0  0  0  0  0  0  0  0  0  0  0
   -0.4240   25.8370  -24.4300 C   0  0  0  0  0  0  0  0  0  0  0  0
   -1.1240   26.6780  -25.5090 C   0  0  0  0  0  0  0  0  0  0  0  0
   -1.9340   25.8270  -26.4520 C   0  0  0  0  0  0  0  0  0  0  0  0
   -1.4740   25.5840  -27.7560 C   0  0  0  0  0  0  0  0  0  0  0  0
   -2.2400   24.8270  -28.6460 C   0  0  0  0  0  0  0  0  0  0  0  0
   -3.4770   24.2990  -28.2440 C   0  0  0  0  0  0  0  0  0  0  0  0
   -4.3260   23.5150  -29.2100 C   0  0  0  0  0  0  0  0  0  0  0  0
   -4.1640   24.0370  -30.5850 N   0  0  0  0  0  0  0  0  0  0  0  0
   -5.3880   24.6560  -31.1050 C   0  0  0  0  0  0  0  0  0  0  0  0
   -6.5340   23.6500  -31.2760 C   0  0  0  0  0  0  0  0  0  0  0  0
   -6.1160   22.3120  -31.7500 N   0  0  0  0  0  0  0  0  0  0  0  0
   -7.1450   21.3120  -32.0330 C   0  0  0  0  0  0  0  0  0  0  0  0
   -8.5240   21.6170  -31.9090 C   0  0  0  0  0  0  0  0  0  0  0  0
   -9.5040   20.6580  -32.1830 C   0  0  0  0  0  0  0  0  0  0  0  0
   -9.1380   19.3740  -32.5800 C   0  0  0  0  0  0  0  0  0  0  0  0
   -7.7900   19.0430  -32.7020 C   0  0  0  0  0  0  0  0  0  0  0  0
   -6.8030   19.9950  -32.4310 C   0  0  0  0  0  0  0  0  0  0  0  0
   -4.6930   21.9070  -31.8040 C   0  0  0  0  0  0  0  0  0  0  0  0
   -3.6840   23.0370  -31.5490 C   0  0  0  0  0  0  0  0  0  0  0  0
   -3.9400   24.5450  -26.9420 C   0  0  0  0  0  0  0  0  0  0  0  0
   -3.1730   25.3030  -26.0530 C   0  0  0  0  0  0  0  0  0  0  0  0
   -1.8405   20.7877  -27.4838 H   0  0  0  0  0  0  0  0  0  0  0  0
   -1.8246   22.1813  -28.6169 H   0  0  0  0  0  0  0  0  0  0  0  0
   -0.4643   21.0082  -28.6169 H   0  0  0  0  0  0  0  0  0  0  0  0
    0.6084   22.2305  -27.0691 H   0  0  0  0  0  0  0  0  0  0  0  0
   -0.7756   23.4177  -27.0961 H   0  0  0  0  0  0  0  0  0  0  0  0
   -1.9364   21.8287  -25.4528 H   0  0  0  0  0  0  0  0  0  0  0  0
   -0.2782   21.0913  -25.2404 H   0  0  0  0  0  0  0  0  0  0  0  0
   -1.2246   23.8845  -24.5085 H   0  0  0  0  0  0  0  0  0  0  0  0
   -0.4621   22.6052  -23.4689 H   0  0  0  0  0  0  0  0  0  0  0  0
    1.5583   23.4608  -23.8581 H   0  0  0  0  0  0  0  0  0  0  0  0
    1.3039   23.2180  -25.6454 H   0  0  0  0  0  0  0  0  0  0  0  0
    1.7279   25.6501  -24.4101 H   0  0  0  0  0  0  0  0  0  0  0  0
    0.9366   25.3797  -26.0262 H   0  0  0  0  0  0  0  0  0  0  0  0
   -1.1069   25.0380  -24.1057 H   0  0  0  0  0  0  0  0  0  0  0  0
   -0.1650   26.5065  -23.5965 H   0  0  0  0  0  0  0  0  0  0  0  0
   -1.7936   27.3994  -25.0178 H   0  0  0  0  0  0  0  0  0  0  0  0
   -0.3479   27.1906  -26.0962 H   0  0  0  0  0  0  0  0  0  0  0  0
   -0.5048   25.9920  -28.0788 H   0  0  0  0  0  0  0  0  0  0  0  0
   -1.8721   24.6439  -29.6664 H   0  0  0  0  0  0  0  0  0  0  0  0
   -4.0203   22.4586  -29.1856 H   0  0  0  0  0  0  0  0  0  0  0  0
   -5.3813   23.6116  -28.9151 H   0  0  0  0  0  0  0  0  0  0  0  0
   -5.7103   25.4408  -30.4048 H   0  0  0  0  0  0  0  0  0  0  0  0
   -5.1560   25.0673  -32.0985 H   0  0  0  0  0  0  0  0  0  0  0  0
   -7.0317   23.5287  -30.3026 H   0  0  0  0  0  0  0  0  0  0  0  0
   -7.1961   24.0619  -32.0519 H   0  0  0  0  0  0  0  0  0  0  0  0
   -8.8282   22.6254  -31.5918 H   0  0  0  0  0  0  0  0  0  0  0  0
  -10.5682   20.9186  -32.0846 H   0  0  0  0  0  0  0  0  0  0  0  0
   -9.9117   18.6227  -32.7968 H   0  0  0  0  0  0  0  0  0  0  0  0
   -7.5013   18.0281  -33.0129 H   0  0  0  0  0  0  0  0  0  0  0  0
   -5.7430   19.7176  -32.5282 H   0  0  0  0  0  0  0  0  0  0  0  0
   -4.5313   21.1279  -31.0445 H   0  0  0  0  0  0  0  0  0  0  0  0
   -4.5118   21.5606  -32.8322 H   0  0  0  0  0  0  0  0  0  0  0  0
   -2.7550   22.5946  -31.1601 H   0  0  0  0  0  0  0  0  0  0  0  0
   -3.5264   23.5558  -32.5061 H   0  0  0  0  0  0  0  0  0  0  0  0
   -4.9105   24.1395  -26.6200 H   0  0  0  0  0  0  0  0  0  0  0  0
   -3.5429   25.4900  -25.0341 H   0  0  0  0  0  0  0  0  0  0  0  0
  1  2  1  0
  2  3  1  0
  3  4  1  0
  4  5  1  0
  5  6  1  0
  6  7  1  0
  7  8  1  0
  8  9  1  0
  9 10  2  0
 10 11  1  0
 11 12  2  0
 12 13  1  0
 13 14  1  0
 14 15  1  0
 15 16  1  0
 16 17  1  0
 17 18  1  0
 18 19  2  0
 19 20  1  0
 20 21  2  0
 21 22  1  0
 22 23  2  0
 17 24  1  0
 24 25  1  0
 12 26  1  0
 26 27  2  0
 27  9  1  0
 25 14  1  0
 23 18  1  0
  1 28  1  0
  1 29  1  0
  1 30  1  0
  2 31  1  0
  2 32  1  0
  3 33  1  0
  3 34  1  0
  4 35  1  0
  4 36  1  0
  5 37  1  0
  5 38  1  0
  6 39  1  0
  6 40  1  0
  7 41  1  0
  7 42  1  0
  8 43  1  0
  8 44  1  0
 10 45  1  0
 11 46  1  0
 13 47  1  0
 13 48  1  0
 15 49  1  0
 15 50  1  0
 16 51  1  0
 16 52  1  0
 19 53  1  0
 20 54  1  0
 21 55  1  0
 22 56  1  0
 23 57  1  0
 24 58  1  0
 24 59  1  0
 25 60  1  0
 25 61  1  0
 26 62  1  0
 27 63  1  0
M  END
>  <UniqueID>  (26) 
26

>  <SMILES>  (26) 
CCCCCCCCc1ccc(CN2CCN(c3ccccc3)CC2)cc1

>  <Energy>  (26) 
63.50881289465481

>  <Genealogy>  (26) 
CCCCCCCCc1ccc(CN2CCN(c3ccccc3)CC2)cc1 (3D coordinates assigned)
CCCCCCCCc1ccc(CN2CCN(c3ccccc3)CC2)cc1 (nonaromatic ring conformer: 63.50881289465481 kcal/mol)

>  <smiles>  (26) 
CCCCCCCCc1ccc(CN2CCN(c3ccccc3)CC2)cc1

>  <score_type>  (26) 
oracle

>  <origin>  (26) 
adg

>  <m_score__min__energy>  (26) 
-8.9000000000000004

>  <m_primary>  (26) 
energy

$$$$
26:0
     RDKit          3D

 41 43  0  0  1  0  0  0  0  0999 V2000
   -2.3510   24.8290  -27.2900 C   0  0  0  0  0  0  0  0  0  0  0  0
   -1.9510   24.8470  -28.7670 C   0  0  0  0  0  0  0  0  0  0  0  0
   -3.1060   24.5130  -29.6120 N   0  0  0  0  0  0  0  0  0  0  0  0
   -4.2290   24.5420  -28.7040 C   0  0  0  0  0  0  0  0  0  0  0  0
   -5.4070   24.0280  -29.5260 C   0  0  2  0  0  0  0  0  0  0  0  0
   -5.1150   22.5340  -29.6050 C   0  0  0  0  0  0  0  0  0  0  0  0
   -4.0040   22.4150  -30.6160 C   0  0  2  0  0  0  0  0  0  0  0  0
   -2.8540   23.2550  -30.2410 C   0  0  0  0  0  0  0  0  0  0  0  0
   -4.6120   22.6980  -31.9800 C   0  0  0  0  0  0  0  0  0  0  0  0
   -5.4840   23.8140  -31.9740 N   0  0  0  0  0  0  0  0  0  0  0  0
   -6.8650   23.5900  -32.2130 C   0  0  0  0  0  0  0  0  0  0  0  0
   -7.2980   22.1790  -32.2250 C   0  0  0  0  0  0  0  0  0  0  0  0
   -8.2820   21.8010  -31.3010 C   0  0  0  0  0  0  0  0  0  0  0  0
   -8.7270   20.4890  -31.2470 C   0  0  0  0  0  0  0  0  0  0  0  0
   -8.2110   19.5260  -32.1020 C   0  0  0  0  0  0  0  0  0  0  0  0
   -7.2290   19.9380  -33.0140 C   0  0  0  0  0  0  0  0  0  0  0  0
   -6.8160   21.2340  -33.0370 N   0  0  0  0  0  0  0  0  0  0  0  0
   -5.2750   24.7190  -30.8640 C   0  0  0  0  0  0  0  0  0  0  0  0
   -1.4469   24.8697  -26.6648 H   0  0  0  0  0  0  0  0  0  0  0  0
   -2.9872   25.6994  -27.0718 H   0  0  0  0  0  0  0  0  0  0  0  0
   -2.9064   23.9050  -27.0718 H   0  0  0  0  0  0  0  0  0  0  0  0
   -1.5856   25.8502  -29.0318 H   0  0  0  0  0  0  0  0  0  0  0  0
   -1.1590   24.1018  -28.9325 H   0  0  0  0  0  0  0  0  0  0  0  0
   -4.4184   25.5676  -28.3544 H   0  0  0  0  0  0  0  0  0  0  0  0
   -4.0524   23.9332  -27.8050 H   0  0  0  0  0  0  0  0  0  0  0  0
   -6.4218   24.2077  -29.1416 H   0  0  0  0  0  0  0  0  0  0  0  0
   -6.0054   21.9818  -29.9401 H   0  0  0  0  0  0  0  0  0  0  0  0
   -4.8362   22.1119  -28.6282 H   0  0  0  0  0  0  0  0  0  0  0  0
   -3.5726   21.4037  -30.6501 H   0  0  0  0  0  0  0  0  0  0  0  0
   -2.2873   23.4596  -31.1613 H   0  0  0  0  0  0  0  0  0  0  0  0
   -2.3313   22.6685  -29.4711 H   0  0  0  0  0  0  0  0  0  0  0  0
   -5.1783   21.8118  -32.3025 H   0  0  0  0  0  0  0  0  0  0  0  0
   -3.7856   22.9286  -32.6683 H   0  0  0  0  0  0  0  0  0  0  0  0
   -7.4315   24.1094  -31.4261 H   0  0  0  0  0  0  0  0  0  0  0  0
   -7.0559   23.9679  -33.2283 H   0  0  0  0  0  0  0  0  0  0  0  0
   -8.7037   22.5499  -30.6145 H   0  0  0  0  0  0  0  0  0  0  0  0
   -9.4997   20.2078  -30.5163 H   0  0  0  0  0  0  0  0  0  0  0  0
   -8.5578   18.4827  -32.0659 H   0  0  0  0  0  0  0  0  0  0  0  0
   -6.7909   19.2107  -33.7134 H   0  0  0  0  0  0  0  0  0  0  0  0
   -6.0207   25.5257  -30.9204 H   0  0  0  0  0  0  0  0  0  0  0  0
   -4.2504   25.1122  -30.9394 H   0  0  0  0  0  0  0  0  0  0  0  0
  1  2  1  0
  2  3  1  0
  3  4  1  0
  4  5  1  0
  5  6  1  0
  6  7  1  0
  7  8  1  0
  7  9  1  0
  9 10  1  0
 10 11  1  0
 11 12  1  0
 12 13  2  0
 13 14  1  0
 14 15  2  0
 15 16  1  0
 16 17  2  0
 10 18  1  0
  8  3  1  0
 17 12  1  0
 18  5  1  0
  1 19  1  0
  1 20  1  0
  1 21  1  0
  2 22  1  0
  2 23  1  0
  4 24  1  0
  4 25  1  0
  5 26  1  1
  6 27  1  0
  6 28  1  0
  7 29  1  6
  8 30  1  0
  8 31  1  0
  9 32  1  0
  9 33  1  0
 11 34  1  0
 11 35  1  0
 13 36  1  0
 14 37  1  0
 15 38  1  0
 16 39  1  0
 18 40  1  0
 18 41  1  0
M  END
>  <smiles>  (27) 
CCN1CC2CC(C1)CN(Cc1ccccn1)C2

>  <score_type>  (27) 
oracle

>  <origin>  (27) 
adg

>  <m_score__min__energy>  (27) 
-7.1699999999999999

>  <m_primary>  (27) 
energy

$$$$
27:0
     RDKit          3D

 40 41  0  0  0  0  0  0  0  0999 V2000
   -1.7120   23.0780  -29.6440 C   0  0  0  0  0  0  0  0  0  0  0  0
   -2.2840   24.1610  -28.7330 C   0  0  0  0  0  0  0  0  0  0  0  0
   -3.7340   23.9650  -28.5370 N   0  0  0  0  0  0  0  0  0  0  0  0
   -4.2340   24.5370  -27.2680 C   0  0  0  0  0  0  0  0  0  0  0  0
   -3.1350   25.0880  -26.3540 C   0  0  0  0  0  0  0  0  0  0  0  0
   -4.7030   24.4150  -29.9330 S   0  0  0  0  0  0  0  0  0  0  0  0
   -3.8990   25.3110  -30.8360 O   0  0  0  0  0  0  0  0  0  0  0  0
   -5.8910   25.2050  -29.4610 O   0  0  0  0  0  0  0  0  0  0  0  0
   -5.2960   23.0390  -30.8770 C   0  0  0  0  0  0  0  0  0  0  0  0
   -6.6560   22.6950  -30.8580 C   0  0  0  0  0  0  0  0  0  0  0  0
   -7.1190   21.5960  -31.5870 C   0  0  0  0  0  0  0  0  0  0  0  0
   -6.2210   20.8130  -32.3330 C   0  0  0  0  0  0  0  0  0  0  0  0
   -6.6360   19.6980  -33.0830 C   0  0  0  0  0  0  0  0  0  0  0  0
   -7.8560   19.3690  -33.0990 O   0  0  0  0  0  0  0  0  0  0  0  0
   -5.7160   18.9680  -33.7940 N   0  0  0  0  0  0  0  0  0  0  0  0
   -6.1210   17.7820  -34.5680 C   0  0  0  0  0  0  0  0  0  0  0  0
   -6.4850   16.6350  -33.6320 C   0  0  0  0  0  0  0  0  0  0  0  0
   -4.3930   19.3090  -33.7510 C   0  0  0  0  0  0  0  0  0  0  0  0
   -3.9760   20.3800  -33.0300 N   0  0  0  0  0  0  0  0  0  0  0  0
   -4.8530   21.1400  -32.3280 C   0  0  0  0  0  0  0  0  0  0  0  0
   -4.3940   22.2400  -31.5960 C   0  0  0  0  0  0  0  0  0  0  0  0
   -1.2855   22.2705  -29.0307 H   0  0  0  0  0  0  0  0  0  0  0  0
   -2.5133   22.6720  -30.2789 H   0  0  0  0  0  0  0  0  0  0  0  0
   -0.9250   23.5110  -30.2789 H   0  0  0  0  0  0  0  0  0  0  0  0
   -1.7783   24.1163  -27.7571 H   0  0  0  0  0  0  0  0  0  0  0  0
   -2.1198   25.1419  -29.2030 H   0  0  0  0  0  0  0  0  0  0  0  0
   -4.9269   25.3569  -27.5080 H   0  0  0  0  0  0  0  0  0  0  0  0
   -4.7202   23.7164  -26.7201 H   0  0  0  0  0  0  0  0  0  0  0  0
   -3.4251   24.9426  -25.3030 H   0  0  0  0  0  0  0  0  0  0  0  0
   -2.1928   24.5557  -26.5514 H   0  0  0  0  0  0  0  0  0  0  0  0
   -2.9979   26.1614  -26.5514 H   0  0  0  0  0  0  0  0  0  0  0  0
   -7.3628   23.2943  -30.2653 H   0  0  0  0  0  0  0  0  0  0  0  0
   -8.1895   21.3430  -31.5769 H   0  0  0  0  0  0  0  0  0  0  0  0
   -6.9937   18.0346  -35.1881 H   0  0  0  0  0  0  0  0  0  0  0  0
   -5.2816   17.4689  -35.2062 H   0  0  0  0  0  0  0  0  0  0  0  0
   -6.3799   16.9660  -32.5883 H   0  0  0  0  0  0  0  0  0  0  0  0
   -7.5249   16.3274  -33.8162 H   0  0  0  0  0  0  0  0  0  0  0  0
   -5.8128   15.7840  -33.8162 H   0  0  0  0  0  0  0  0  0  0  0  0
   -3.6582   18.7084  -34.3072 H   0  0  0  0  0  0  0  0  0  0  0  0
   -3.3205   22.4799  -31.5839 H   0  0  0  0  0  0  0  0  0  0  0  0
  1  2  1  0
  2  3  1  0
  3  4  1  0
  4  5  1  0
  3  6  1  0
  6  7  2  0
  6  8  2  0
  6  9  1  0
  9 10  2  0
 10 11  1  0
 11 12  2  0
 12 13  1  0
 13 14  2  0
 13 15  1  0
 15 16  1  0
 16 17  1  0
 15 18  1  0
 18 19  2  0
 19 20  1  0
 20 21  2  0
 21  9  1  0
 20 12  1  0
  1 22  1  0
  1 23  1  0
  1 24  1  0
  2 25  1  0
  2 26  1  0
  4 27  1  0
  4 28  1  0
  5 29  1  0
  5 30  1  0
  5 31  1  0
 10 32  1  0
 11 33  1  0
 16 34  1  0
 16 35  1  0
 17 36  1  0
 17 37  1  0
 17 38  1  0
 18 39  1  0
 21 40  1  0
M  END
>  <UniqueID>  (28) 
27

>  <SMILES>  (28) 
CCN(CC)S(=O)(=O)c1ccc2c(=O)n(CC)cnc2c1

>  <Energy>  (28) 
44.12992954147379

>  <Genealogy>  (28) 
CCN(CC)S(=O)(=O)c1ccc2c(=O)n(CC)cnc2c1 (3D coordinates assigned)
CCN(CC)S(=O)(=O)c1ccc2c(=O)n(CC)cnc2c1 (optimized conformer: 44.12992954147379 kcal/mol)

>  <smiles>  (28) 
CCN(CC)S(=O)(=O)c1ccc2c(=O)n(CC)cnc2c1

>  <score_type>  (28) 
oracle

>  <origin>  (28) 
adg

>  <m_score__min__energy>  (28) 
-7.6500000000000004

>  <m_primary>  (28) 
energy

$$$$
28:0
     RDKit          3D

 54 57  0  0  0  0  0  0  0  0999 V2000
   -6.3270   16.9610  -33.5880 C   0  0  0  0  0  0  0  0  0  0  0  0
   -6.7070   18.3600  -33.1720 C   0  0  0  0  0  0  0  0  0  0  0  0
   -8.0140   18.5990  -32.7160 C   0  0  0  0  0  0  0  0  0  0  0  0
   -8.4050   19.8750  -32.3110 C   0  0  0  0  0  0  0  0  0  0  0  0
   -7.5000   20.9420  -32.3600 C   0  0  0  0  0  0  0  0  0  0  0  0
   -7.9120   22.3110  -31.8840 C   0  0  0  0  0  0  0  0  0  0  0  0
   -7.6530   22.4530  -30.4450 N   0  0  0  0  0  0  0  0  0  0  0  0
   -6.3790   23.0960  -30.2320 C   0  0  0  0  0  0  0  0  0  0  0  0
   -5.2240   22.3200  -30.0280 C   0  0  0  0  0  0  0  0  0  0  0  0
   -3.9760   22.9310  -29.7900 C   0  0  0  0  0  0  0  0  0  0  0  0
   -2.7880   22.1850  -29.5860 C   0  0  0  0  0  0  0  0  0  0  0  0
   -2.7810   20.6770  -29.6130 C   0  0  0  0  0  0  0  0  0  0  0  0
   -1.5840   22.8680  -29.3540 C   0  0  0  0  0  0  0  0  0  0  0  0
   -1.5690   24.2630  -29.3250 C   0  0  0  0  0  0  0  0  0  0  0  0
   -0.4900   24.8780  -29.1160 O   0  0  0  0  0  0  0  0  0  0  0  0
   -2.7160   24.9620  -29.5200 N   0  0  0  0  0  0  0  0  0  0  0  0
   -3.9040   24.3440  -29.7490 C   0  0  0  0  0  0  0  0  0  0  0  0
   -5.0550   25.1140  -29.9390 C   0  0  0  0  0  0  0  0  0  0  0  0
   -6.2850   24.4990  -30.1740 C   0  0  0  0  0  0  0  0  0  0  0  0
   -7.3900   25.2700  -30.3380 F   0  0  0  0  0  0  0  0  0  0  0  0
   -6.1890   20.7110  -32.7960 C   0  0  0  0  0  0  0  0  0  0  0  0
   -5.7800   19.4330  -33.2140 C   0  0  0  0  0  0  0  0  0  0  0  0
   -4.3480   19.2640  -33.6840 C   0  0  0  0  0  0  0  0  0  0  0  0
   -3.4000   19.7830  -32.6720 N   0  0  0  0  0  0  0  0  0  0  0  0
   -2.1460   19.0170  -32.6900 C   0  0  0  0  0  0  0  0  0  0  0  0
   -1.1850   19.7100  -33.6450 C   0  0  0  0  0  0  0  0  0  0  0  0
   -1.7390   21.1120  -33.8280 C   0  0  0  0  0  0  0  0  0  0  0  0
   -2.9950   21.1650  -32.9700 C   0  0  0  0  0  0  0  0  0  0  0  0
   -6.1596   16.3448  -32.6923 H   0  0  0  0  0  0  0  0  0  0  0  0
   -7.1388   16.5235  -34.1876 H   0  0  0  0  0  0  0  0  0  0  0  0
   -5.4054   16.9943  -34.1876 H   0  0  0  0  0  0  0  0  0  0  0  0
   -8.7369   17.7708  -32.6779 H   0  0  0  0  0  0  0  0  0  0  0  0
   -9.4306   20.0440  -31.9509 H   0  0  0  0  0  0  0  0  0  0  0  0
   -7.3386   23.0730  -32.4323 H   0  0  0  0  0  0  0  0  0  0  0  0
   -8.9886   22.4431  -32.0672 H   0  0  0  0  0  0  0  0  0  0  0  0
   -8.4140   23.0220  -30.0050 H   0  0  0  0  0  0  0  0  0  0  0  0
   -7.6580   21.5110  -29.9880 H   0  0  0  0  0  0  0  0  0  0  0  0
   -5.2953   21.2226  -30.0545 H   0  0  0  0  0  0  0  0  0  0  0  0
   -2.7792   20.2918  -28.5826 H   0  0  0  0  0  0  0  0  0  0  0  0
   -3.6775   20.3155  -30.1380 H   0  0  0  0  0  0  0  0  0  0  0  0
   -1.8812   20.3238  -30.1380 H   0  0  0  0  0  0  0  0  0  0  0  0
   -0.6530   22.3041  -29.1952 H   0  0  0  0  0  0  0  0  0  0  0  0
   -4.9906   26.2115  -29.9030 H   0  0  0  0  0  0  0  0  0  0  0  0
   -5.4688   21.5423  -32.8115 H   0  0  0  0  0  0  0  0  0  0  0  0
   -4.1470   18.1957  -33.8526 H   0  0  0  0  0  0  0  0  0  0  0  0
   -4.2133   19.8298  -34.6176 H   0  0  0  0  0  0  0  0  0  0  0  0
   -1.7120   18.9878  -31.6797 H   0  0  0  0  0  0  0  0  0  0  0  0
   -2.3338   17.9844  -33.0195 H   0  0  0  0  0  0  0  0  0  0  0  0
   -0.1742   19.7490  -33.2128 H   0  0  0  0  0  0  0  0  0  0  0  0
   -1.1026   19.1746  -34.6024 H   0  0  0  0  0  0  0  0  0  0  0  0
   -1.0091   21.8617  -33.4886 H   0  0  0  0  0  0  0  0  0  0  0  0
   -1.9551   21.3321  -34.8839 H   0  0  0  0  0  0  0  0  0  0  0  0
   -2.7851   21.7027  -32.0336 H   0  0  0  0  0  0  0  0  0  0  0  0
   -3.7998   21.6928  -33.5026 H   0  0  0  0  0  0  0  0  0  0  0  0
  1  2  1  0
  2  3  2  0
  3  4  1  0
  4  5  2  0
  5  6  1  0
  6  7  1  0
  7  8  1  0
  8  9  2  0
  9 10  1  0
 10 11  1  0
 11 12  1  0
 11 13  2  0
 13 14  1  0
 14 15  2  0
 14 16  1  0
 16 17  1  0
 17 18  1  0
 18 19  2  0
 19 20  1  0
  5 21  1  0
 21 22  2  0
 22 23  1  0
 23 24  1  0
 24 25  1  0
 25 26  1  0
 26 27  1  0
 27 28  1  0
 22  2  1  0
 28 24  1  0
 19  8  1  0
 17 10  2  0
  1 29  1  0
  1 30  1  0
  1 31  1  0
  3 32  1  0
  4 33  1  0
  6 34  1  0
  6 35  1  0
  7 36  1  0
  7 37  1  0
  9 38  1  0
 12 39  1  0
 12 40  1  0
 12 41  1  0
 13 42  1  0
 18 43  1  0
 21 44  1  0
 23 45  1  0
 23 46  1  0
 25 47  1  0
 25 48  1  0
 26 49  1  0
 26 50  1  0
 27 51  1  0
 27 52  1  0
 28 53  1  0
 28 54  1  0
M  CHG  2   7   1  16  -1
M  END
>  <UniqueID>  (29) 
28

>  <SMILES>  (29) 
Cc1ccc(C[NH2+]c2cc3c(C)cc(=O)[n-]c3cc2F)cc1CN1CCCC1

>  <Energy>  (29) 
65.96840503320153

>  <Genealogy>  (29) 
Cc1ccc(C[NH2+]c2cc3c(C)cc(=O)[n-]c3cc2F)cc1CN1CCCC1 (protonated)
Cc1ccc(C[NH2+]c2cc3c(C)cc(=O)[n-]c3cc2F)cc1CN1CCCC1 (3D coordinates assigned)
Cc1ccc(C[NH2+]c2cc3c(C)cc(=O)[n-]c3cc2F)cc1CN1CCCC1 (nonaromatic ring conformer: 65.96840503320153 kcal/mol)

>  <smiles>  (29) 
Cc1ccc(CNc2cc3c(C)cc(=O)[nH]c3cc2F)cc1CN1CCCC1

>  <score_type>  (29) 
oracle

>  <origin>  (29) 
adg

>  <m_score__min__energy>  (29) 
-10.15

>  <m_primary>  (29) 
energy

$$$$
29:0
     RDKit          3D

 66 68  0  0  0  0  0  0  0  0999 V2000
   -3.3400   24.5670  -27.1420 C   0  0  0  0  0  0  0  0  0  0  0  0
   -2.1040   24.8420  -27.9890 C   0  0  0  0  0  0  0  0  0  0  0  0
   -2.4790   25.2170  -29.3140 O   0  0  0  0  0  0  0  0  0  0  0  0
   -3.4780   24.5640  -30.0470 C   0  0  0  0  0  0  0  0  0  0  0  0
   -4.2370   25.2120  -30.8190 O   0  0  0  0  0  0  0  0  0  0  0  0
   -3.6520   23.0750  -29.9060 C   0  0  1  0  0  0  0  0  0  0  0  0
   -4.7290   22.5660  -30.8980 C   0  0  0  0  0  0  0  0  0  0  0  0
   -4.5200   21.0860  -31.2360 C   0  0  0  0  0  0  0  0  0  0  0  0
   -3.1570   20.8410  -31.9380 C   0  0  1  0  0  0  0  0  0  0  0  0
   -3.3200   20.8560  -33.4740 C   0  0  0  0  0  0  0  0  0  0  0  0
   -2.9710   19.5500  -34.0710 N   0  0  0  0  0  0  0  0  0  0  0  0
   -3.7140   18.4100  -33.4860 C   0  0  0  0  0  0  0  0  0  0  0  0
   -5.1470   18.7250  -33.1060 C   0  0  0  0  0  0  0  0  0  0  0  0
   -5.9330   19.5930  -33.8840 C   0  0  0  0  0  0  0  0  0  0  0  0
   -7.2430   19.8970  -33.5040 C   0  0  0  0  0  0  0  0  0  0  0  0
   -7.8070   19.3030  -32.3590 C   0  0  0  0  0  0  0  0  0  0  0  0
   -9.1110   19.5890  -31.9280 O   0  0  0  0  0  0  0  0  0  0  0  0
   -9.7070   20.8810  -31.9770 C   0  0  0  0  0  0  0  0  0  0  0  0
   -7.0450   18.3910  -31.6200 C   0  0  0  0  0  0  0  0  0  0  0  0
   -5.7290   18.1000  -31.9900 C   0  0  0  0  0  0  0  0  0  0  0  0
   -1.2410   19.2660  -34.2030 S   0  0  0  0  0  0  0  0  0  0  0  0
   -0.5820   20.4710  -34.8110 O   0  0  0  0  0  0  0  0  0  0  0  0
   -1.0010   18.1080  -35.1320 O   0  0  0  0  0  0  0  0  0  0  0  0
   -0.4630   18.9290  -32.6490 C   0  0  0  0  0  0  0  0  0  0  0  0
    0.3460   19.8960  -32.0350 C   0  0  0  0  0  0  0  0  0  0  0  0
    0.9170   19.6490  -30.7850 C   0  0  0  0  0  0  0  0  0  0  0  0
    0.7130   18.4240  -30.1380 C   0  0  0  0  0  0  0  0  0  0  0  0
    1.2840   18.2330  -28.8720 O   0  0  0  0  0  0  0  0  0  0  0  0
    0.6960   17.4540  -27.8350 C   0  0  0  0  0  0  0  0  0  0  0  0
   -0.0520   17.4320  -30.7780 C   0  0  0  0  0  0  0  0  0  0  0  0
   -0.6200   17.6800  -32.0310 C   0  0  0  0  0  0  0  0  0  0  0  0
   -2.0650   21.8520  -31.4930 C   0  0  0  0  0  0  0  0  0  0  0  0
   -2.2930   22.3450  -30.0590 C   0  0  0  0  0  0  0  0  0  0  0  0
   -3.0746   24.6260  -26.0761 H   0  0  0  0  0  0  0  0  0  0  0  0
   -4.1140   25.3149  -27.3691 H   0  0  0  0  0  0  0  0  0  0  0  0
   -3.7239   23.5615  -27.3691 H   0  0  0  0  0  0  0  0  0  0  0  0
   -1.5261   25.6586  -27.5316 H   0  0  0  0  0  0  0  0  0  0  0  0
   -1.4952   23.9271  -28.0372 H   0  0  0  0  0  0  0  0  0  0  0  0
   -4.0140   22.8442  -28.8932 H   0  0  0  0  0  0  0  0  0  0  0  0
   -4.6708   23.1567  -31.8241 H   0  0  0  0  0  0  0  0  0  0  0  0
   -5.7163   22.6782  -30.4261 H   0  0  0  0  0  0  0  0  0  0  0  0
   -5.3290   20.7559  -31.9043 H   0  0  0  0  0  0  0  0  0  0  0  0
   -4.5268   20.5164  -30.2950 H   0  0  0  0  0  0  0  0  0  0  0  0
   -2.8151   19.8431  -31.6262 H   0  0  0  0  0  0  0  0  0  0  0  0
   -4.3657   21.0928  -33.7197 H   0  0  0  0  0  0  0  0  0  0  0  0
   -2.6383   21.6152  -33.8849 H   0  0  0  0  0  0  0  0  0  0  0  0
   -3.7251   17.5926  -34.2220 H   0  0  0  0  0  0  0  0  0  0  0  0
   -3.1942   18.1415  -32.5545 H   0  0  0  0  0  0  0  0  0  0  0  0
   -5.5135   20.0364  -34.7991 H   0  0  0  0  0  0  0  0  0  0  0  0
   -7.8364   20.6039  -34.1025 H   0  0  0  0  0  0  0  0  0  0  0  0
   -9.8754   21.2462  -30.9531 H   0  0  0  0  0  0  0  0  0  0  0  0
   -9.0375   21.5738  -32.5079 H   0  0  0  0  0  0  0  0  0  0  0  0
  -10.6686   20.8213  -32.5079 H   0  0  0  0  0  0  0  0  0  0  0  0
   -7.4856   17.8989  -30.7404 H   0  0  0  0  0  0  0  0  0  0  0  0
   -5.1444   17.3762  -31.4032 H   0  0  0  0  0  0  0  0  0  0  0  0
    0.5318   20.8548  -32.5411 H   0  0  0  0  0  0  0  0  0  0  0  0
    1.5325   20.4236  -30.3042 H   0  0  0  0  0  0  0  0  0  0  0  0
    0.9996   17.8562  -26.8572 H   0  0  0  0  0  0  0  0  0  0  0  0
   -0.3997   17.4931  -27.9234 H   0  0  0  0  0  0  0  0  0  0  0  0
    1.0340   16.4109  -27.9234 H   0  0  0  0  0  0  0  0  0  0  0  0
   -0.2038   16.4576  -30.2907 H   0  0  0  0  0  0  0  0  0  0  0  0
   -1.1944   16.8895  -32.5360 H   0  0  0  0  0  0  0  0  0  0  0  0
   -2.0821   22.7163  -32.1732 H   0  0  0  0  0  0  0  0  0  0  0  0
   -1.0920   21.3400  -31.5270 H   0  0  0  0  0  0  0  0  0  0  0  0
   -1.4841   23.0399  -29.7894 H   0  0  0  0  0  0  0  0  0  0  0  0
   -2.3013   21.4680  -29.3951 H   0  0  0  0  0  0  0  0  0  0  0  0
  1  2  1  0
  2  3  1  0
  3  4  1  0
  4  5  2  0
  4  6  1  0
  6  7  1  0
  7  8  1  0
  8  9  1  0
  9 10  1  0
 10 11  1  0
 11 12  1  0
 12 13  1  0
 13 14  2  0
 14 15  1  0
 15 16  2  0
 16 17  1  0
 17 18  1  0
 16 19  1  0
 19 20  2  0
 11 21  1  0
 21 22  2  0
 21 23  2  0
 21 24  1  0
 24 25  2  0
 25 26  1  0
 26 27  2  0
 27 28  1  0
 28 29  1  0
 27 30  1  0
 30 31  2  0
  9 32  1  0
 32 33  1  0
 33  6  1  0
 20 13  1  0
 31 24  1  0
  1 34  1  0
  1 35  1  0
  1 36  1  0
  2 37  1  0
  2 38  1  0
  6 39  1  1
  7 40  1  0
  7 41  1  0
  8 42  1  0
  8 43  1  0
  9 44  1  1
 10 45  1  0
 10 46  1  0
 12 47  1  0
 12 48  1  0
 14 49  1  0
 15 50  1  0
 18 51  1  0
 18 52  1  0
 18 53  1  0
 19 54  1  0
 20 55  1  0
 25 56  1  0
 26 57  1  0
 29 58  1  0
 29 59  1  0
 29 60  1  0
 30 61  1  0
 31 62  1  0
 32 63  1  0
 32 64  1  0
 33 65  1  0
 33 66  1  0
M  END
>  <UniqueID>  (30) 
29

>  <SMILES>  (30) 
CCOC(=O)C1CCC(CN(Cc2ccc(OC)cc2)S(=O)(=O)c2ccc(OC)cc2)CC1

>  <Energy>  (30) 
64.70591082829488

>  <Genealogy>  (30) 
CCOC(=O)C1CCC(CN(Cc2ccc(OC)cc2)S(=O)(=O)c2ccc(OC)cc2)CC1 (3D coordinates assigned)
CCOC(=O)C1CCC(CN(Cc2ccc(OC)cc2)S(=O)(=O)c2ccc(OC)cc2)CC1 (nonaromatic ring conformer: 64.70591082829488 kcal/mol)

>  <smiles>  (30) 
CCOC(=O)C1CCC(CN(Cc2ccc(OC)cc2)S(=O)(=O)c2ccc(OC)cc2)CC1

>  <score_type>  (30) 
oracle

>  <origin>  (30) 
adg

>  <m_score__min__energy>  (30) 
-9.4299999999999997

>  <m_primary>  (30) 
energy

$$$$
30:0
     RDKit          3D

 43 45  0  0  1  0  0  0  0  0999 V2000
   -6.9410   17.6710  -33.0410 C   0  0  0  0  0  0  0  0  0  0  0  0
   -7.9620   18.0460  -31.9860 C   0  0  0  0  0  0  0  0  0  0  0  0
   -8.9040   19.0320  -32.5900 C   0  0  0  0  0  0  0  0  0  0  0  0
   -8.7230   20.3620  -32.0990 N   0  0  0  0  0  0  0  0  0  0  0  0
   -9.6850   21.1400  -31.6290 N   0  0  0  0  0  0  0  0  0  0  0  0
   -9.1550   22.3130  -31.2600 N   0  0  0  0  0  0  0  0  0  0  0  0
   -7.8410   22.2660  -31.5030 C   0  0  0  0  0  0  0  0  0  0  0  0
   -6.7830   23.1380  -31.3410 C   0  0  0  0  0  0  0  0  0  0  0  0
   -6.9940   24.3040  -30.8480 N   0  0  0  0  0  0  0  0  0  0  0  0
   -6.1790   24.8490  -29.7590 C   0  0  0  0  0  0  0  0  0  0  0  0
   -5.1320   25.7080  -30.4770 C   0  0  0  0  0  0  0  0  0  0  0  0
   -3.8870   25.1260  -30.4760 O   0  0  0  0  0  0  0  0  0  0  0  0
   -3.8300   24.1950  -29.4460 C   0  0  0  0  0  0  0  0  0  0  0  0
   -5.5350   22.7620  -31.7020 N   0  0  0  0  0  0  0  0  0  0  0  0
   -5.2500   21.5610  -32.2230 C   0  0  0  0  0  0  0  0  0  0  0  0
   -3.9080   21.1550  -32.6120 C   0  0  0  0  0  0  0  0  0  0  0  0
   -3.6510   20.1060  -33.4650 C   0  0  0  0  0  0  0  0  0  0  0  0
   -2.3590   19.7670  -33.7990 C   0  0  0  0  0  0  0  0  0  0  0  0
   -1.2630   20.4590  -33.2990 C   0  0  0  0  0  0  0  0  0  0  0  0
   -1.5130   21.5080  -32.4470 C   0  0  0  0  0  0  0  0  0  0  0  0
   -2.8140   21.8380  -32.1200 C   0  0  0  0  0  0  0  0  0  0  0  0
   -6.2750   20.7060  -32.3830 N   0  0  0  0  0  0  0  0  0  0  0  0
   -7.5380   21.0270  -32.0410 C   0  0  0  0  0  0  0  0  0  0  0  0
   -6.0162   17.3313  -32.5518 H   0  0  0  0  0  0  0  0  0  0  0  0
   -7.3425   16.8617  -33.6685 H   0  0  0  0  0  0  0  0  0  0  0  0
   -6.7232   18.5478  -33.6685 H   0  0  0  0  0  0  0  0  0  0  0  0
   -8.5138   17.1503  -31.6647 H   0  0  0  0  0  0  0  0  0  0  0  0
   -7.4632   18.4810  -31.1074 H   0  0  0  0  0  0  0  0  0  0  0  0
   -8.7514   19.0384  -33.6793 H   0  0  0  0  0  0  0  0  0  0  0  0
   -9.9223   18.7195  -32.3155 H   0  0  0  0  0  0  0  0  0  0  0  0
   -6.7909   25.4626  -29.0815 H   0  0  0  0  0  0  0  0  0  0  0  0
   -5.7278   24.0649  -29.1332 H   0  0  0  0  0  0  0  0  0  0  0  0
   -5.4515   25.8569  -31.5190 H   0  0  0  0  0  0  0  0  0  0  0  0
   -5.0558   26.6640  -29.9383 H   0  0  0  0  0  0  0  0  0  0  0  0
   -3.8619   24.7166  -28.4781 H   0  0  0  0  0  0  0  0  0  0  0  0
   -4.6879   23.5108  -29.5223 H   0  0  0  0  0  0  0  0  0  0  0  0
   -2.8950   23.6206  -29.5223 H   0  0  0  0  0  0  0  0  0  0  0  0
   -4.7870   23.4710  -31.5520 H   0  0  0  0  0  0  0  0  0  0  0  0
   -4.4890   19.5307  -33.8856 H   0  0  0  0  0  0  0  0  0  0  0  0
   -2.1894   18.9222  -34.4828 H   0  0  0  0  0  0  0  0  0  0  0  0
   -0.2356   20.1784  -33.5742 H   0  0  0  0  0  0  0  0  0  0  0  0
   -0.6768   22.0851  -32.0253 H   0  0  0  0  0  0  0  0  0  0  0  0
   -2.9858   22.6829  -31.4369 H   0  0  0  0  0  0  0  0  0  0  0  0
  1  2  1  0
  2  3  1  0
  3  4  1  0
  4  5  1  0
  5  6  2  0
  6  7  1  0
  7  8  1  0
  8  9  2  0
  9 10  1  0
 10 11  1  0
 11 12  1  0
 12 13  1  0
  8 14  1  0
 14 15  1  0
 15 16  1  0
 16 17  2  0
 17 18  1  0
 18 19  2  0
 19 20  1  0
 20 21  2  0
 15 22  2  0
 22 23  1  0
 23  4  1  0
 23  7  2  0
 21 16  1  0
  1 24  1  0
  1 25  1  0
  1 26  1  0
  2 27  1  0
  2 28  1  0
  3 29  1  0
  3 30  1  0
 10 31  1  0
 10 32  1  0
 11 33  1  0
 11 34  1  0
 13 35  1  0
 13 36  1  0
 13 37  1  0
 14 38  1  0
 17 39  1  0
 18 40  1  0
 19 41  1  0
 20 42  1  0
 21 43  1  0
M  END
>  <smiles>  (31) 
CCCn1nnc2c(=NCCOC)[nH]c(-c3ccccc3)nc21

>  <score_type>  (31) 
oracle

>  <origin>  (31) 
adg

>  <m_score__min__energy>  (31) 
-8.0500000000000007

>  <m_primary>  (31) 
energy

$$$$
31:0
     RDKit          3D

 51 52  0  0  0  0  0  0  0  0999 V2000
   -8.6730   23.0990  -31.9430 C   0  0  0  0  0  0  0  0  0  0  0  0
   -8.6760   21.6930  -32.1640 O   0  0  0  0  0  0  0  0  0  0  0  0
   -7.5390   20.9170  -32.4520 C   0  0  0  0  0  0  0  0  0  0  0  0
   -6.2540   21.4940  -32.4570 C   0  0  0  0  0  0  0  0  0  0  0  0
   -5.1240   20.7300  -32.7700 C   0  0  0  0  0  0  0  0  0  0  0  0
   -3.7570   21.3690  -32.7960 C   0  0  0  0  0  0  0  0  0  0  0  0
   -3.6970   22.6390  -31.9360 C   0  0  0  0  0  0  0  0  0  0  0  0
   -3.9210   22.3480  -30.4430 C   0  0  0  0  0  0  0  0  0  0  0  0
   -2.8450   23.0130  -29.6030 C   0  0  0  0  0  0  0  0  0  0  0  0
   -1.9350   22.2550  -28.8170 C   0  0  0  0  0  0  0  0  0  0  0  0
   -2.0130   20.7480  -28.7090 C   0  0  0  0  0  0  0  0  0  0  0  0
   -0.7310   20.1970  -28.8020 O   0  0  0  0  0  0  0  0  0  0  0  0
   -0.9180   22.9190  -28.1160 C   0  0  0  0  0  0  0  0  0  0  0  0
   -0.7940   24.3010  -28.1820 C   0  0  0  0  0  0  0  0  0  0  0  0
   -1.6790   25.0590  -28.9450 C   0  0  0  0  0  0  0  0  0  0  0  0
   -1.5070   26.4370  -28.9690 O   0  0  0  0  0  0  0  0  0  0  0  0
   -2.7140   24.4230  -29.6680 C   0  0  0  0  0  0  0  0  0  0  0  0
   -3.6340   25.1290  -30.4700 O   0  0  0  0  0  0  0  0  0  0  0  0
   -5.0280   25.2890  -30.2190 C   0  0  0  0  0  0  0  0  0  0  0  0
   -5.2750   19.3800  -33.0990 C   0  0  0  0  0  0  0  0  0  0  0  0
   -6.5460   18.7830  -33.1020 C   0  0  0  0  0  0  0  0  0  0  0  0
   -6.7290   17.4350  -33.4390 O   0  0  0  0  0  0  0  0  0  0  0  0
   -5.6950   16.5690  -33.9020 C   0  0  0  0  0  0  0  0  0  0  0  0
   -7.6790   19.5400  -32.7580 C   0  0  0  0  0  0  0  0  0  0  0  0
   -8.9120   18.8600  -32.7380 O   0  0  0  0  0  0  0  0  0  0  0  0
   -9.4700   18.1580  -31.6290 C   0  0  0  0  0  0  0  0  0  0  0  0
   -8.6726   23.3002  -30.8616 H   0  0  0  0  0  0  0  0  0  0  0  0
   -7.7739   23.5398  -32.3983 H   0  0  0  0  0  0  0  0  0  0  0  0
   -9.5702   23.5437  -32.3983 H   0  0  0  0  0  0  0  0  0  0  0  0
   -6.1371   22.5599  -32.2115 H   0  0  0  0  0  0  0  0  0  0  0  0
   -3.0205   20.6468  -32.4140 H   0  0  0  0  0  0  0  0  0  0  0  0
   -3.5354   21.6529  -33.8354 H   0  0  0  0  0  0  0  0  0  0  0  0
   -2.7077   23.1034  -32.0607 H   0  0  0  0  0  0  0  0  0  0  0  0
   -4.5024   23.3090  -32.2713 H   0  0  0  0  0  0  0  0  0  0  0  0
   -4.9056   22.7357  -30.1426 H   0  0  0  0  0  0  0  0  0  0  0  0
   -3.8757   21.2607  -30.2823 H   0  0  0  0  0  0  0  0  0  0  0  0
   -2.4583   20.4743  -27.7411 H   0  0  0  0  0  0  0  0  0  0  0  0
   -2.6350   20.3580  -29.5281 H   0  0  0  0  0  0  0  0  0  0  0  0
   -0.2250   20.7710  -29.4320 H   0  0  0  0  0  0  0  0  0  0  0  0
   -0.2099   22.3384  -27.5065 H   0  0  0  0  0  0  0  0  0  0  0  0
    0.0118   24.8021  -27.6257 H   0  0  0  0  0  0  0  0  0  0  0  0
   -5.2052   25.3093  -29.1335 H   0  0  0  0  0  0  0  0  0  0  0  0
   -5.3749   26.2329  -30.6649 H   0  0  0  0  0  0  0  0  0  0  0  0
   -5.5797   24.4483  -30.6649 H   0  0  0  0  0  0  0  0  0  0  0  0
   -4.3903   18.7798  -33.3579 H   0  0  0  0  0  0  0  0  0  0  0  0
   -5.1710   16.1301  -33.0401 H   0  0  0  0  0  0  0  0  0  0  0  0
   -6.1349   15.7659  -34.5115 H   0  0  0  0  0  0  0  0  0  0  0  0
   -4.9815   17.1430  -34.5115 H   0  0  0  0  0  0  0  0  0  0  0  0
   -9.1117   18.6088  -30.6918 H   0  0  0  0  0  0  0  0  0  0  0  0
  -10.5674   18.2207  -31.6699 H   0  0  0  0  0  0  0  0  0  0  0  0
   -9.1613   17.1030  -31.6699 H   0  0  0  0  0  0  0  0  0  0  0  0
  1  2  1  0
  2  3  1  0
  3  4  2  0
  4  5  1  0
  5  6  1  0
  6  7  1  0
  7  8  1  0
  8  9  1  0
  9 10  2  0
 10 11  1  0
 11 12  1  0
 10 13  1  0
 13 14  2  0
 14 15  1  0
 15 16  1  0
 15 17  2  0
 17 18  1  0
 18 19  1  0
  5 20  2  0
 20 21  1  0
 21 22  1  0
 22 23  1  0
 21 24  2  0
 24 25  1  0
 25 26  1  0
 24  3  1  0
 17  9  1  0
  1 27  1  0
  1 28  1  0
  1 29  1  0
  4 30  1  0
  6 31  1  0
  6 32  1  0
  7 33  1  0
  7 34  1  0
  8 35  1  0
  8 36  1  0
 11 37  1  0
 11 38  1  0
 12 39  1  0
 13 40  1  0
 14 41  1  0
 19 42  1  0
 19 43  1  0
 19 44  1  0
 20 45  1  0
 23 46  1  0
 23 47  1  0
 23 48  1  0
 26 49  1  0
 26 50  1  0
 26 51  1  0
M  CHG  1  16  -1
M  END
>  <UniqueID>  (32) 
30

>  <SMILES>  (32) 
COc1cc(CCCc2c(CO)ccc([O-])c2OC)cc(OC)c1OC

>  <Energy>  (32) 
51.864303046451006

>  <Genealogy>  (32) 
COc1cc(CCCc2c(CO)ccc([O-])c2OC)cc(OC)c1OC (protonated)
COc1cc(CCCc2c(CO)ccc([O-])c2OC)cc(OC)c1OC (3D coordinates assigned)
COc1cc(CCCc2c(CO)ccc([O-])c2OC)cc(OC)c1OC (optimized conformer: 51.864303046451006 kcal/mol)

>  <smiles>  (32) 
COc1cc(CCCc2c(CO)ccc(O)c2OC)cc(OC)c1OC

>  <score_type>  (32) 
oracle

>  <origin>  (32) 
adg

>  <m_score__min__energy>  (32) 
-9.5500000000000007

>  <m_primary>  (32) 
energy

$$$$
32:0
     RDKit          3D

 50 52  0  0  0  0  0  0  0  0999 V2000
   -4.0190   19.1170  -33.2410 C   0  0  0  0  0  0  0  0  0  0  0  0
   -5.3850   18.9750  -32.5490 C   0  0  0  0  0  0  0  0  0  0  0  0
   -6.5220   18.6220  -33.4480 N   0  0  2  0  0  0  0  0  0  0  0  0
   -6.1840   17.4230  -34.2530 C   0  0  0  0  0  0  0  0  0  0  0  0
   -6.6660   19.6790  -34.3080 O   0  0  0  0  0  0  0  0  0  0  0  0
   -7.8100   18.3950  -32.7250 C   0  0  0  0  0  0  0  0  0  0  0  0
   -8.1360   19.4850  -31.6810 C   0  0  0  0  0  0  0  0  0  0  0  0
   -8.6680   20.7760  -32.3190 C   0  0  0  0  0  0  0  0  0  0  0  0
   -7.6010   21.6440  -32.7100 O   0  0  0  0  0  0  0  0  0  0  0  0
   -6.7910   22.4150  -31.8570 C   0  0  0  0  0  0  0  0  0  0  0  0
   -7.0550   23.7660  -31.5550 C   0  0  0  0  0  0  0  0  0  0  0  0
   -6.2060   24.4790  -30.7030 C   0  0  0  0  0  0  0  0  0  0  0  0
   -5.0900   23.8590  -30.1390 C   0  0  0  0  0  0  0  0  0  0  0  0
   -4.2910   24.5480  -29.3300 O   0  0  0  0  0  0  0  0  0  0  0  0
   -3.2120   24.0260  -28.7500 C   0  0  0  0  0  0  0  0  0  0  0  0
   -2.3890   24.8890  -27.8660 C   0  0  0  0  0  0  0  0  0  0  0  0
   -1.2590   25.5430  -28.3920 C   0  0  0  0  0  0  0  0  0  0  0  0
   -0.4750   26.3680  -27.5810 C   0  0  0  0  0  0  0  0  0  0  0  0
   -0.8110   26.5570  -26.2390 C   0  0  0  0  0  0  0  0  0  0  0  0
   -1.9370   25.9270  -25.7070 C   0  0  0  0  0  0  0  0  0  0  0  0
   -2.7260   25.0990  -26.5120 C   0  0  0  0  0  0  0  0  0  0  0  0
   -2.8720   22.6840  -29.0020 C   0  0  0  0  0  0  0  0  0  0  0  0
   -3.6820   21.9200  -29.8450 C   0  0  0  0  0  0  0  0  0  0  0  0
   -3.3800   20.7180  -30.0740 O   0  0  0  0  0  0  0  0  0  0  0  0
   -4.8160   22.5060  -30.4280 C   0  0  0  0  0  0  0  0  0  0  0  0
   -5.6730   21.7940  -31.2860 C   0  0  0  0  0  0  0  0  0  0  0  0
   -3.2291   19.1991  -32.4798 H   0  0  0  0  0  0  0  0  0  0  0  0
   -3.8325   18.2334  -33.8691 H   0  0  0  0  0  0  0  0  0  0  0  0
   -4.0183   20.0201  -33.8691 H   0  0  0  0  0  0  0  0  0  0  0  0
   -5.2988   18.1881  -31.7853 H   0  0  0  0  0  0  0  0  0  0  0  0
   -5.6209   19.9667  -32.1357 H   0  0  0  0  0  0  0  0  0  0  0  0
   -5.9477   16.5848  -33.5810 H   0  0  0  0  0  0  0  0  0  0  0  0
   -7.0413   17.1538  -34.8875 H   0  0  0  0  0  0  0  0  0  0  0  0
   -5.3123   17.6412  -34.8875 H   0  0  0  0  0  0  0  0  0  0  0  0
   -7.5830   20.0510  -34.2080 H   0  0  0  0  0  0  0  0  0  0  0  0
   -8.6236   18.3683  -33.4649 H   0  0  0  0  0  0  0  0  0  0  0  0
   -7.7088   17.4459  -32.1781 H   0  0  0  0  0  0  0  0  0  0  0  0
   -8.8975   19.0941  -30.9901 H   0  0  0  0  0  0  0  0  0  0  0  0
   -7.2012   19.7338  -31.1574 H   0  0  0  0  0  0  0  0  0  0  0  0
   -9.2625   20.5172  -33.2076 H   0  0  0  0  0  0  0  0  0  0  0  0
   -9.2854   21.3005  -31.5749 H   0  0  0  0  0  0  0  0  0  0  0  0
   -7.9340   24.2624  -31.9920 H   0  0  0  0  0  0  0  0  0  0  0  0
   -6.4188   25.5341  -30.4760 H   0  0  0  0  0  0  0  0  0  0  0  0
   -0.9909   25.4036  -29.4497 H   0  0  0  0  0  0  0  0  0  0  0  0
    0.4092   26.8698  -28.0010 H   0  0  0  0  0  0  0  0  0  0  0  0
   -0.1886   27.2021  -25.6014 H   0  0  0  0  0  0  0  0  0  0  0  0
   -2.2047   26.0821  -24.6514 H   0  0  0  0  0  0  0  0  0  0  0  0
   -3.6143   24.6087  -26.0872 H   0  0  0  0  0  0  0  0  0  0  0  0
   -1.9774   22.2412  -28.5398 H   0  0  0  0  0  0  0  0  0  0  0  0
   -5.4630   20.7380  -31.5111 H   0  0  0  0  0  0  0  0  0  0  0  0
  1  2  1  0
  2  3  1  0
  3  4  1  0
  3  5  1  6
  3  6  1  0
  6  7  1  0
  7  8  1  0
  8  9  1  0
  9 10  1  0
 10 11  2  0
 11 12  1  0
 12 13  2  0
 13 14  1  0
 14 15  1  0
 15 16  1  0
 16 17  2  0
 17 18  1  0
 18 19  2  0
 19 20  1  0
 20 21  2  0
 15 22  2  0
 22 23  1  0
 23 24  2  0
 23 25  1  0
 25 26  2  0
 26 10  1  0
 25 13  1  0
 21 16  1  0
  1 27  1  0
  1 28  1  0
  1 29  1  0
  2 30  1  0
  2 31  1  0
  4 32  1  0
  4 33  1  0
  4 34  1  0
  5 35  1  0
  6 36  1  0
  6 37  1  0
  7 38  1  0
  7 39  1  0
  8 40  1  0
  8 41  1  0
 11 42  1  0
 12 43  1  0
 17 44  1  0
 18 45  1  0
 19 46  1  0
 20 47  1  0
 21 48  1  0
 22 49  1  0
 26 50  1  0
M  CHG  1   3   1
M  END
>  <UniqueID>  (33) 
31

>  <SMILES>  (33) 
CC[N@+](C)(O)CCCOc1ccc2oc(-c3ccccc3)cc(=O)c2c1

>  <Energy>  (33) 
68.0732356947424

>  <Genealogy>  (33) 
CC[N+](C)(O)CCCOc1ccc2oc(-c3ccccc3)cc(=O)c2c1 (protonated)
CC[N@+](C)(O)CCCOc1ccc2oc(-c3ccccc3)cc(=O)c2c1 (chirality)
CC[N@+](C)(O)CCCOc1ccc2oc(-c3ccccc3)cc(=O)c2c1 (3D coordinates assigned)
CC[N@+](C)(O)CCCOc1ccc2oc(-c3ccccc3)cc(=O)c2c1 (optimized conformer: 68.0732356947424 kcal/mol)

>  <smiles>  (33) 
CC[N+](C)([O-])CCCOc1ccc2oc(-c3ccccc3)cc(=O)c2c1

>  <score_type>  (33) 
oracle

>  <origin>  (33) 
adg

>  <m_score__min__energy>  (33) 
-8.2599999999999998

>  <m_primary>  (33) 
energy

$$$$
33:0
     RDKit          3D

 61 66  0  0  0  0  0  0  0  0999 V2000
   -3.4150   18.5500  -25.8130 C   0  0  0  0  0  0  0  0  0  0  0  0
   -2.7150   19.6710  -26.5200 C   0  0  0  0  0  0  0  0  0  0  0  0
   -1.6160   20.3060  -25.9230 C   0  0  0  0  0  0  0  0  0  0  0  0
   -0.9300   21.3160  -26.6050 C   0  0  0  0  0  0  0  0  0  0  0  0
   -1.3340   21.6940  -27.8880 C   0  0  0  0  0  0  0  0  0  0  0  0
   -2.4330   21.0710  -28.4970 C   0  0  0  0  0  0  0  0  0  0  0  0
   -2.8220   21.4490  -29.8270 N   0  0  0  0  0  0  0  0  0  0  0  0
   -3.8270   22.2780  -30.0850 N   0  0  0  0  0  0  0  0  0  0  0  0
   -3.9300   22.4070  -31.4270 C   0  0  0  0  0  0  0  0  0  0  0  0
   -2.9740   21.6090  -32.0150 C   0  0  0  0  0  0  0  0  0  0  0  0
   -2.2830   21.0430  -30.9970 C   0  0  0  0  0  0  0  0  0  0  0  0
   -1.2610   20.0230  -31.2390 C   0  0  0  0  0  0  0  0  0  0  0  0
   -1.0620   19.5570  -32.4950 C   0  0  0  0  0  0  0  0  0  0  0  0
   -0.3970   18.2080  -32.6400 C   0  0  0  0  0  0  0  0  0  0  0  0
   -1.4580   17.1970  -32.9970 C   0  0  0  0  0  0  0  0  0  0  0  0
   -1.1330   16.0520  -33.2650 O   0  0  0  0  0  0  0  0  0  0  0  0
   -2.9120   17.6500  -33.0390 C   0  0  2  0  0  0  0  0  0  0  0  0
   -3.9130   16.5720  -33.5020 C   0  0  1  0  0  0  0  0  0  0  0  0
   -3.9710   15.1980  -32.8260 C   0  0  0  0  0  0  0  0  0  0  0  0
   -5.3160   14.6230  -33.3080 C   0  0  0  0  0  0  0  0  0  0  0  0
   -6.0930   15.8310  -33.7290 C   0  0  0  0  0  0  0  0  0  0  0  0
   -7.2260   15.7830  -34.1850 O   0  0  0  0  0  0  0  0  0  0  0  0
   -5.3570   17.0980  -33.4490 C   0  0  1  0  0  0  0  0  0  0  0  0
   -5.8320   17.5900  -32.0520 C   0  0  0  0  0  0  0  0  0  0  0  0
   -5.4920   18.2150  -34.5000 C   0  0  0  0  0  0  0  0  0  0  0  0
   -4.4900   19.3640  -34.2120 C   0  0  0  0  0  0  0  0  0  0  0  0
   -3.0160   18.8810  -34.0160 C   0  0  1  0  0  0  0  0  0  0  0  0
   -1.9400   20.0280  -33.6930 C   0  0  2  0  0  0  0  0  0  0  0  0
   -1.0160   20.1950  -34.9290 C   0  0  0  0  0  0  0  0  0  0  0  0
   -2.5590   21.4570  -33.4340 C   0  0  0  0  0  0  0  0  0  0  0  0
   -3.1050   20.0410  -27.8170 C   0  0  0  0  0  0  0  0  0  0  0  0
   -3.3271   18.6907  -24.7256 H   0  0  0  0  0  0  0  0  0  0  0  0
   -4.4776   18.5440  -26.0973 H   0  0  0  0  0  0  0  0  0  0  0  0
   -2.9540   17.5926  -26.0973 H   0  0  0  0  0  0  0  0  0  0  0  0
   -1.2925   20.0085  -24.9146 H   0  0  0  0  0  0  0  0  0  0  0  0
   -0.0712   21.8135  -26.1307 H   0  0  0  0  0  0  0  0  0  0  0  0
   -0.7872   22.4843  -28.4232 H   0  0  0  0  0  0  0  0  0  0  0  0
   -4.6543   23.0415  -31.9587 H   0  0  0  0  0  0  0  0  0  0  0  0
   -0.6574   19.6368  -30.4044 H   0  0  0  0  0  0  0  0  0  0  0  0
    0.3608   18.2498  -33.4362 H   0  0  0  0  0  0  0  0  0  0  0  0
    0.0976   17.9245  -31.6993 H   0  0  0  0  0  0  0  0  0  0  0  0
   -3.1893   17.8989  -32.0040 H   0  0  0  0  0  0  0  0  0  0  0  0
   -3.4910   16.3861  -34.5007 H   0  0  0  0  0  0  0  0  0  0  0  0
   -3.1326   14.5638  -33.1497 H   0  0  0  0  0  0  0  0  0  0  0  0
   -3.8944   15.2537  -31.7301 H   0  0  0  0  0  0  0  0  0  0  0  0
   -5.1676   13.9380  -34.1558 H   0  0  0  0  0  0  0  0  0  0  0  0
   -5.8298   14.0371  -32.5316 H   0  0  0  0  0  0  0  0  0  0  0  0
   -5.2970   17.0359  -31.2667 H   0  0  0  0  0  0  0  0  0  0  0  0
   -5.6213   18.6649  -31.9507 H   0  0  0  0  0  0  0  0  0  0  0  0
   -6.9136   17.4172  -31.9507 H   0  0  0  0  0  0  0  0  0  0  0  0
   -5.2870   17.7988  -35.4974 H   0  0  0  0  0  0  0  0  0  0  0  0
   -6.5143   18.6187  -34.4572 H   0  0  0  0  0  0  0  0  0  0  0  0
   -4.5152   20.0665  -35.0581 H   0  0  0  0  0  0  0  0  0  0  0  0
   -4.8022   19.8322  -33.2669 H   0  0  0  0  0  0  0  0  0  0  0  0
   -2.7191   18.5335  -35.0165 H   0  0  0  0  0  0  0  0  0  0  0  0
    0.0149   20.3813  -34.5936 H   0  0  0  0  0  0  0  0  0  0  0  0
   -1.0443   19.2772  -35.5347 H   0  0  0  0  0  0  0  0  0  0  0  0
   -1.3638   21.0448  -35.5347 H   0  0  0  0  0  0  0  0  0  0  0  0
   -1.8069   22.2234  -33.6728 H   0  0  0  0  0  0  0  0  0  0  0  0
   -3.4465   21.5753  -34.0731 H   0  0  0  0  0  0  0  0  0  0  0  0
   -3.9427   19.5208  -28.3045 H   0  0  0  0  0  0  0  0  0  0  0  0
  1  2  1  0
  2  3  2  0
  3  4  1  0
  4  5  2  0
  5  6  1  0
  6  7  1  0
  7  8  1  0
  8  9  2  0
  9 10  1  0
 10 11  2  0
 11 12  1  0
 12 13  2  0
 13 14  1  0
 14 15  1  0
 15 16  2  0
 15 17  1  0
 17 18  1  0
 18 19  1  0
 19 20  1  0
 20 21  1  0
 21 22  2  0
 21 23  1  0
 23 24  1  1
 23 25  1  0
 25 26  1  0
 26 27  1  0
 27 28  1  0
 28 29  1  6
 28 30  1  0
  6 31  2  0
 31  2  1  0
 11  7  1  0
 28 13  1  0
 30 10  1  0
 27 17  1  0
 23 18  1  0
  1 32  1  0
  1 33  1  0
  1 34  1  0
  3 35  1  0
  4 36  1  0
  5 37  1  0
  9 38  1  0
 12 39  1  0
 14 40  1  0
 14 41  1  0
 17 42  1  1
 18 43  1  6
 19 44  1  0
 19 45  1  0
 20 46  1  0
 20 47  1  0
 24 48  1  0
 24 49  1  0
 24 50  1  0
 25 51  1  0
 25 52  1  0
 26 53  1  0
 26 54  1  0
 27 55  1  6
 29 56  1  0
 29 57  1  0
 29 58  1  0
 30 59  1  0
 30 60  1  0
 31 61  1  0
M  END
>  <UniqueID>  (34) 
32

>  <SMILES>  (34) 
Cc1cccc(-n2ncc3c2C=C2CC(=O)[C@H]4C(CCC5(C)C(=O)CC[C@H]45)C2(C)C3)c1

>  <Energy>  (34) 
141.76727570457317

>  <Genealogy>  (34) 
Cc1cccc(-n2ncc3c2C=C2CC(=O)[C@H]4C(CCC5(C)C(=O)CC[C@H]45)C2(C)C3)c1 (chirality)
Cc1cccc(-n2ncc3c2C=C2CC(=O)[C@H]4C(CCC5(C)C(=O)CC[C@H]45)C2(C)C3)c1 (3D coordinates assigned)
Cc1cccc(-n2ncc3c2C=C2CC(=O)[C@H]4C(CCC5(C)C(=O)CC[C@H]45)C2(C)C3)c1 (nonaromatic ring conformer: 141.76727570457317 kcal/mol)

>  <smiles>  (34) 
Cc1cccc(-n2ncc3c2C=C2CC(=O)C4C5CCC(=O)C5(C)CCC4C2(C)C3)c1

>  <score_type>  (34) 
oracle

>  <origin>  (34) 
adg

>  <m_score__min__energy>  (34) 
-8.8200000000000003

>  <m_primary>  (34) 
energy

$$$$
34:0
     RDKit          3D

 41 44  0  0  0  0  0  0  0  0999 V2000
   -6.7305   24.6620  -32.5569 H   0  0  0  0  0  0  0  0  0  0  0  0
   -6.4020   23.9570  -31.7790 C   0  0  0  0  0  0  0  0  0  0  0  0
   -5.2480   24.2190  -31.1460 C   0  0  0  0  0  0  0  0  0  0  0  0
   -4.7660   25.4670  -30.5310 C   0  0  0  0  0  0  0  0  0  0  0  0
   -5.4100   26.5460  -30.4590 O   0  0  0  0  0  0  0  0  0  0  0  0
   -3.4890   25.2950  -29.9160 N   0  0  0  0  0  0  0  0  0  0  0  0
   -3.1980   23.9180  -30.1350 C   0  0  0  0  0  0  0  0  0  0  0  0
   -2.0520   23.2500  -29.7070 C   0  0  0  0  0  0  0  0  0  0  0  0
   -1.2661   23.7815  -29.1503 H   0  0  0  0  0  0  0  0  0  0  0  0
   -1.9230   21.8810  -30.0030 C   0  0  0  0  0  0  0  0  0  0  0  0
   -0.4950   21.0070  -29.4820 Cl  0  0  0  0  0  0  0  0  0  0  0  0
   -2.9370   21.2100  -30.7170 C   0  0  0  0  0  0  0  0  0  0  0  0
   -2.8275   20.1395  -30.9451 H   0  0  0  0  0  0  0  0  0  0  0  0
   -4.0860   21.8990  -31.1390 C   0  0  0  0  0  0  0  0  0  0  0  0
   -4.8807   21.3819  -31.6968 H   0  0  0  0  0  0  0  0  0  0  0  0
   -4.1940   23.2590  -30.8320 C   0  0  0  0  0  0  0  0  0  0  0  0
   -7.2580   22.7930  -31.5050 C   0  0  0  0  0  0  0  0  0  0  0  0
   -7.6060   21.9260  -32.4280 O   0  0  0  0  0  0  0  0  0  0  0  0
   -8.3940   21.0300  -31.8790 C   0  0  0  0  0  0  0  0  0  0  0  0
   -8.9720   19.8540  -32.6180 C   0  0  0  0  0  0  0  0  0  0  0  0
   -9.6613   19.3242  -31.9441 H   0  0  0  0  0  0  0  0  0  0  0  0
   -9.4811   20.2508  -33.5087 H   0  0  0  0  0  0  0  0  0  0  0  0
   -7.9480   18.8910  -33.0940 N   0  0  0  0  0  0  0  0  0  0  0  0
   -8.4400   18.3020  -33.8080 H   0  0  0  0  0  0  0  0  0  0  0  0
   -7.5330   17.9590  -32.0150 C   0  0  0  0  0  0  0  0  0  0  0  0
   -7.2333   18.5447  -31.1334 H   0  0  0  0  0  0  0  0  0  0  0  0
   -8.3848   17.3034  -31.7810 H   0  0  0  0  0  0  0  0  0  0  0  0
   -6.3590   17.0800  -32.4490 C   0  0  0  0  0  0  0  0  0  0  0  0
   -6.2141   16.2862  -31.7014 H   0  0  0  0  0  0  0  0  0  0  0  0
   -6.5972   16.6574  -33.4363 H   0  0  0  0  0  0  0  0  0  0  0  0
   -4.8050   18.0390  -32.6030 S   0  0  0  0  0  0  0  0  0  0  0  0
   -5.5430   19.6760  -32.9610 C   0  0  0  0  0  0  0  0  0  0  0  0
   -5.7938   20.1696  -32.0105 H   0  0  0  0  0  0  0  0  0  0  0  0
   -4.8094   20.2661  -33.5299 H   0  0  0  0  0  0  0  0  0  0  0  0
   -6.8170   19.5510  -33.8080 C   0  0  0  0  0  0  0  0  0  0  0  0
   -7.1363   20.5604  -34.1065 H   0  0  0  0  0  0  0  0  0  0  0  0
   -6.5682   18.9174  -34.6721 H   0  0  0  0  0  0  0  0  0  0  0  0
   -8.5930   21.3280  -30.5440 C   0  0  0  0  0  0  0  0  0  0  0  0
   -9.2076   20.7686  -29.8233 H   0  0  0  0  0  0  0  0  0  0  0  0
   -7.8620   22.4710  -30.3030 C   0  0  0  0  0  0  0  0  0  0  0  0
   -7.7764   23.0152  -29.3509 H   0  0  0  0  0  0  0  0  0  0  0  0
  1  2  1  0
  2  3  2  0
  3  4  1  0
  4  5  2  0
  4  6  1  0
  6  7  1  0
  7  8  2  0
  8  9  1  0
  8 10  1  0
 10 11  1  0
 10 12  2  0
 12 13  1  0
 12 14  1  0
 14 15  1  0
 14 16  2  0
  2 17  1  0
 17 18  1  0
 18 19  1  0
 19 20  1  0
 20 21  1  0
 20 22  1  0
 20 23  1  0
 23 24  1  0
 23 25  1  0
 25 26  1  0
 25 27  1  0
 25 28  1  0
 28 29  1  0
 28 30  1  0
 28 31  1  0
 31 32  1  0
 32 33  1  0
 32 34  1  0
 32 35  1  0
 35 36  1  0
 35 37  1  0
 19 38  2  0
 38 39  1  0
 38 40  1  0
 40 41  1  0
 16  3  1  0
 40 17  2  0
 16  7  1  0
 35 23  1  0
M  CHG  2   6  -1  23   1
M  END
>  <UniqueID>  (35) 
33

>  <SMILES>  (35) 
O=C1[N-]c2cc(Cl)ccc2/C1=C/c1ccc(C[NH+]2CCSCC2)o1

>  <Energy>  (35) 
112.00502238107705

>  <Genealogy>  (35) 
O=C1[N-]c2cc(Cl)ccc2C1=Cc1ccc(C[NH+]2CCSCC2)o1 (protonated)
O=C1[N-]c2cc(Cl)ccc2/C1=C/c1ccc(C[NH+]2CCSCC2)o1 (cis-trans isomerization)
O=C1[N-]c2cc(Cl)ccc2/C1=C/c1ccc(C[NH+]2CCSCC2)o1 (3D coordinates assigned)
O=C1[N-]c2cc(Cl)ccc2/C1=C/c1ccc(C[NH+]2CCSCC2)o1 (nonaromatic ring conformer: 112.00502238107705 kcal/mol)

>  <smiles>  (35) 
O=C1Nc2cc(Cl)ccc2C1=Cc1ccc(CN2CCSCC2)o1

>  <score_type>  (35) 
oracle

>  <origin>  (35) 
adg

>  <m_score__min__energy>  (35) 
-9.9600000000000009

>  <m_primary>  (35) 
energy

$$$$
35:0
     RDKit          3D

 44 46  0  0  0  0  0  0  0  0999 V2000
   -2.2690   19.6610  -26.6980 C   0  0  0  0  0  0  0  0  0  0  0  0
   -1.8830   20.9750  -27.0900 O   0  0  0  0  0  0  0  0  0  0  0  0
   -2.7250   21.8860  -27.7440 C   0  0  0  0  0  0  0  0  0  0  0  0
   -3.1980   21.5560  -29.0200 C   0  0  0  0  0  0  0  0  0  0  0  0
   -4.0410   22.4310  -29.7130 C   0  0  0  0  0  0  0  0  0  0  0  0
   -4.4220   23.6480  -29.1340 C   0  0  0  0  0  0  0  0  0  0  0  0
   -5.4700   24.7710  -30.0010 S   0  0  0  0  0  0  0  0  0  0  0  0
   -6.2370   25.6180  -29.0240 O   0  0  0  0  0  0  0  0  0  0  0  0
   -4.6110   25.6710  -30.8460 O   0  0  0  0  0  0  0  0  0  0  0  0
   -6.5810   23.8810  -31.0150 N   0  0  0  0  0  0  0  0  0  0  0  0
   -7.1380   22.7390  -30.2510 C   0  0  0  0  0  0  0  0  0  0  0  0
   -7.7270   21.6660  -31.1740 C   0  0  0  0  0  0  0  0  0  0  0  0
   -6.6960   21.1790  -32.0990 N   0  0  0  0  0  0  0  0  0  0  0  0
   -6.7570   19.8340  -32.6230 C   0  0  0  0  0  0  0  0  0  0  0  0
   -5.9900   19.4770  -33.7480 C   0  0  0  0  0  0  0  0  0  0  0  0
   -6.0390   18.1760  -34.2580 C   0  0  0  0  0  0  0  0  0  0  0  0
   -6.8540   17.2190  -33.6530 C   0  0  0  0  0  0  0  0  0  0  0  0
   -7.6250   17.5590  -32.5390 C   0  0  0  0  0  0  0  0  0  0  0  0
   -7.5810   18.8590  -32.0230 C   0  0  0  0  0  0  0  0  0  0  0  0
   -8.3680   19.1670  -30.9630 F   0  0  0  0  0  0  0  0  0  0  0  0
   -5.5320   22.0290  -32.3770 C   0  0  0  0  0  0  0  0  0  0  0  0
   -5.9370   23.5080  -32.3050 C   0  0  0  0  0  0  0  0  0  0  0  0
   -3.9510   23.9850  -27.8590 C   0  0  0  0  0  0  0  0  0  0  0  0
   -3.1080   23.1110  -27.1650 C   0  0  0  0  0  0  0  0  0  0  0  0
   -2.2879   19.5966  -25.6000 H   0  0  0  0  0  0  0  0  0  0  0  0
   -3.2703   19.4390  -27.0956 H   0  0  0  0  0  0  0  0  0  0  0  0
   -1.5468   18.9327  -27.0956 H   0  0  0  0  0  0  0  0  0  0  0  0
   -2.9044   20.6014  -29.4809 H   0  0  0  0  0  0  0  0  0  0  0  0
   -4.4057   22.1625  -30.7155 H   0  0  0  0  0  0  0  0  0  0  0  0
   -7.3710   24.5350  -31.2290 H   0  0  0  0  0  0  0  0  0  0  0  0
   -6.3350   22.2885  -29.6491 H   0  0  0  0  0  0  0  0  0  0  0  0
   -7.9477   23.1197  -29.6111 H   0  0  0  0  0  0  0  0  0  0  0  0
   -8.0977   20.8268  -30.5671 H   0  0  0  0  0  0  0  0  0  0  0  0
   -8.5548   22.1019  -31.7526 H   0  0  0  0  0  0  0  0  0  0  0  0
   -5.3466   20.2278  -34.2300 H   0  0  0  0  0  0  0  0  0  0  0  0
   -5.4346   17.9070  -35.1368 H   0  0  0  0  0  0  0  0  0  0  0  0
   -6.8895   16.1952  -34.0538 H   0  0  0  0  0  0  0  0  0  0  0  0
   -8.2686   16.8027  -32.0660 H   0  0  0  0  0  0  0  0  0  0  0  0
   -4.7477   21.8288  -31.6321 H   0  0  0  0  0  0  0  0  0  0  0  0
   -5.1526   21.8057  -33.3850 H   0  0  0  0  0  0  0  0  0  0  0  0
   -5.0348   24.1237  -32.4356 H   0  0  0  0  0  0  0  0  0  0  0  0
   -6.6767   23.6820  -33.1004 H   0  0  0  0  0  0  0  0  0  0  0  0
   -4.2452   24.9410  -27.4014 H   0  0  0  0  0  0  0  0  0  0  0  0
   -2.7429   23.3816  -26.1633 H   0  0  0  0  0  0  0  0  0  0  0  0
  1  2  1  0
  2  3  1  0
  3  4  2  0
  4  5  1  0
  5  6  2  0
  6  7  1  0
  7  8  2  0
  7  9  2  0
  7 10  1  0
 10 11  1  0
 11 12  1  0
 12 13  1  0
 13 14  1  0
 14 15  2  0
 15 16  1  0
 16 17  2  0
 17 18  1  0
 18 19  2  0
 19 20  1  0
 13 21  1  0
 21 22  1  0
  6 23  1  0
 23 24  2  0
 24  3  1  0
 22 10  1  0
 19 14  1  0
  1 25  1  0
  1 26  1  0
  1 27  1  0
  4 28  1  0
  5 29  1  0
 10 30  1  0
 11 31  1  0
 11 32  1  0
 12 33  1  0
 12 34  1  0
 15 35  1  0
 16 36  1  0
 17 37  1  0
 18 38  1  0
 21 39  1  0
 21 40  1  0
 22 41  1  0
 22 42  1  0
 23 43  1  0
 24 44  1  0
M  CHG  1  10   1
M  END
>  <UniqueID>  (36) 
34

>  <SMILES>  (36) 
COc1ccc(S(=O)(=O)[NH+]2CCN(c3ccccc3F)CC2)cc1

>  <Energy>  (36) 
54.33120181027273

>  <Genealogy>  (36) 
COc1ccc(S(=O)(=O)[NH+]2CCN(c3ccccc3F)CC2)cc1 (protonated)
COc1ccc(S(=O)(=O)[NH+]2CCN(c3ccccc3F)CC2)cc1 (3D coordinates assigned)
COc1ccc(S(=O)(=O)[NH+]2CCN(c3ccccc3F)CC2)cc1 (nonaromatic ring conformer: 54.33120181027273 kcal/mol)

>  <smiles>  (36) 
COc1ccc(S(=O)(=O)N2CCN(c3ccccc3F)CC2)cc1

>  <score_type>  (36) 
oracle

>  <origin>  (36) 
adg

>  <m_score__min__energy>  (36) 
-7.7400000000000002

>  <m_primary>  (36) 
energy

$$$$
36:0
     RDKit          3D

 45 47  0  0  0  0  0  0  0  0999 V2000
   -6.5220   25.4150  -29.6620 C   0  0  0  0  0  0  0  0  0  0  0  0
   -5.4550   24.4030  -29.9750 C   0  0  0  0  0  0  0  0  0  0  0  0
   -4.3630   24.2640  -29.0990 C   0  0  0  0  0  0  0  0  0  0  0  0
   -3.3480   23.3440  -29.3720 C   0  0  0  0  0  0  0  0  0  0  0  0
   -3.4060   22.5560  -30.5230 C   0  0  0  0  0  0  0  0  0  0  0  0
   -4.4750   22.6950  -31.4090 C   0  0  0  0  0  0  0  0  0  0  0  0
   -5.4940   23.6230  -31.1540 C   0  0  0  0  0  0  0  0  0  0  0  0
   -6.8190   23.7850  -32.3650 S   0  0  0  0  0  0  0  0  0  0  0  0
   -7.4830   22.1680  -31.9820 C   0  0  0  0  0  0  0  0  0  0  0  0
   -8.5680   22.0270  -31.0860 C   0  0  0  0  0  0  0  0  0  0  0  0
   -9.1130   20.7560  -30.8390 C   0  0  0  0  0  0  0  0  0  0  0  0
   -8.5310   19.6850  -31.5050 C   0  0  0  0  0  0  0  0  0  0  0  0
   -8.8930   18.3920  -31.4860 N   0  0  0  0  0  0  0  0  0  0  0  0
   -8.0800   17.7410  -32.3170 N   0  0  0  0  0  0  0  0  0  0  0  0
   -7.2240   18.6620  -32.8260 C   0  0  0  0  0  0  0  0  0  0  0  0
   -6.1860   18.3690  -33.8680 C   0  0  0  0  0  0  0  0  0  0  0  0
   -4.7960   18.1230  -33.2550 C   0  0  0  0  0  0  0  0  0  0  0  0
   -4.2210   19.3430  -32.5130 C   0  0  0  0  0  0  0  0  0  0  0  0
   -2.8080   19.5920  -32.8780 N   0  0  0  0  0  0  0  0  0  0  0  0
   -2.6400   20.9300  -33.4690 C   0  0  0  0  0  0  0  0  0  0  0  0
   -2.3440   18.5720  -33.8330 C   0  0  0  0  0  0  0  0  0  0  0  0
   -7.4980   19.8760  -32.3240 N   0  0  0  0  0  0  0  0  0  0  0  0
   -6.9600   21.0630  -32.5870 N   0  0  0  0  0  0  0  0  0  0  0  0
   -6.6256   25.5132  -28.5713 H   0  0  0  0  0  0  0  0  0  0  0  0
   -6.2425   26.3877  -30.0929 H   0  0  0  0  0  0  0  0  0  0  0  0
   -7.4786   25.0844  -30.0929 H   0  0  0  0  0  0  0  0  0  0  0  0
   -4.3081   24.8844  -28.1923 H   0  0  0  0  0  0  0  0  0  0  0  0
   -2.5007   23.2401  -28.6782 H   0  0  0  0  0  0  0  0  0  0  0  0
   -2.6097   21.8262  -30.7312 H   0  0  0  0  0  0  0  0  0  0  0  0
   -4.5183   22.0717  -32.3143 H   0  0  0  0  0  0  0  0  0  0  0  0
   -8.9849   22.9119  -30.5828 H   0  0  0  0  0  0  0  0  0  0  0  0
   -9.9599   20.6157  -30.1512 H   0  0  0  0  0  0  0  0  0  0  0  0
   -9.6720   17.9570  -30.9460 H   0  0  0  0  0  0  0  0  0  0  0  0
   -6.4897   17.4718  -34.4273 H   0  0  0  0  0  0  0  0  0  0  0  0
   -6.1128   19.2473  -34.5262 H   0  0  0  0  0  0  0  0  0  0  0  0
   -4.8736   17.2884  -32.5427 H   0  0  0  0  0  0  0  0  0  0  0  0
   -4.1123   17.9024  -34.0880 H   0  0  0  0  0  0  0  0  0  0  0  0
   -4.8173   20.2305  -32.7713 H   0  0  0  0  0  0  0  0  0  0  0  0
   -4.2645   19.1384  -31.4331 H   0  0  0  0  0  0  0  0  0  0  0  0
   -2.5463   21.6763  -32.6663 H   0  0  0  0  0  0  0  0  0  0  0  0
   -1.7329   20.9448  -34.0911 H   0  0  0  0  0  0  0  0  0  0  0  0
   -3.5152   21.1686  -34.0911 H   0  0  0  0  0  0  0  0  0  0  0  0
   -1.9499   17.7057  -33.2815 H   0  0  0  0  0  0  0  0  0  0  0  0
   -3.1852   18.2522  -34.4655 H   0  0  0  0  0  0  0  0  0  0  0  0
   -1.5502   18.9960  -34.4655 H   0  0  0  0  0  0  0  0  0  0  0  0
  1  2  1  0
  2  3  2  0
  3  4  1  0
  4  5  2  0
  5  6  1  0
  6  7  2  0
  7  8  1  0
  8  9  1  0
  9 10  1  0
 10 11  2  0
 11 12  1  0
 12 13  2  0
 13 14  1  0
 14 15  2  0
 15 16  1  0
 16 17  1  0
 17 18  1  0
 18 19  1  0
 19 20  1  0
 19 21  1  0
 15 22  1  0
 22 23  1  0
  7  2  1  0
 23  9  2  0
 22 12  1  0
  1 24  1  0
  1 25  1  0
  1 26  1  0
  3 27  1  0
  4 28  1  0
  5 29  1  0
  6 30  1  0
 10 31  1  0
 11 32  1  0
 13 33  1  0
 16 34  1  0
 16 35  1  0
 17 36  1  0
 17 37  1  0
 18 38  1  0
 18 39  1  0
 20 40  1  0
 20 41  1  0
 20 42  1  0
 21 43  1  0
 21 44  1  0
 21 45  1  0
M  CHG  1  13   1
M  END
>  <UniqueID>  (37) 
35

>  <SMILES>  (37) 
Cc1ccccc1Sc1ccc2[nH+]nc(CCCN(C)C)n2n1

>  <Energy>  (37) 
82.13612936601872

>  <Genealogy>  (37) 
Cc1ccccc1Sc1ccc2[nH+]nc(CCCN(C)C)n2n1 (protonated)
Cc1ccccc1Sc1ccc2[nH+]nc(CCCN(C)C)n2n1 (3D coordinates assigned)
Cc1ccccc1Sc1ccc2[nH+]nc(CCCN(C)C)n2n1 (optimized conformer: 82.13612936601872 kcal/mol)

>  <smiles>  (37) 
Cc1ccccc1Sc1ccc2nnc(CCCN(C)C)n2n1

>  <score_type>  (37) 
oracle

>  <origin>  (37) 
adg

>  <m_score__min__energy>  (37) 
-7.8899999999999997

>  <m_primary>  (37) 
energy

$$$$
37:0
     RDKit          3D

 47 49  0  0  0  0  0  0  0  0999 V2000
   -3.8890   24.6040  -26.7590 C   0  0  0  0  0  0  0  0  0  0  0  0
   -3.6600   24.2070  -28.2240 C   0  0  0  0  0  0  0  0  0  0  0  0
   -4.8840   24.2190  -29.0550 N   0  0  0  0  0  0  0  0  0  0  0  0
   -5.4460   22.8810  -29.3540 C   0  0  0  0  0  0  0  0  0  0  0  0
   -5.2430   22.4840  -30.8260 C   0  0  0  0  0  0  0  0  0  0  0  0
   -5.8100   23.4810  -31.7730 N   0  0  0  0  0  0  0  0  0  0  0  0
   -7.0940   23.0410  -32.3500 C   0  0  0  0  0  0  0  0  0  0  0  0
   -7.0900   21.5450  -32.6090 C   0  0  0  0  0  0  0  0  0  0  0  0
   -5.9410   20.9870  -33.0910 N   0  0  0  0  0  0  0  0  0  0  0  0
   -5.8420   19.6570  -33.3430 C   0  0  0  0  0  0  0  0  0  0  0  0
   -4.6460   19.1130  -33.8400 C   0  0  0  0  0  0  0  0  0  0  0  0
   -4.5480   17.7430  -34.0950 C   0  0  0  0  0  0  0  0  0  0  0  0
   -5.6410   16.9070  -33.8580 C   0  0  0  0  0  0  0  0  0  0  0  0
   -6.8350   17.4380  -33.3630 C   0  0  0  0  0  0  0  0  0  0  0  0
   -6.9440   18.8190  -33.1020 C   0  0  0  0  0  0  0  0  0  0  0  0
   -8.1240   19.3950  -32.6080 C   0  0  0  0  0  0  0  0  0  0  0  0
   -9.1260   18.6560  -32.3890 O   0  0  0  0  0  0  0  0  0  0  0  0
   -8.1940   20.7480  -32.3660 N   0  0  0  0  0  0  0  0  0  0  0  0
   -9.4780   21.3110  -31.8850 C   0  0  0  0  0  0  0  0  0  0  0  0
   -9.4370   21.5520  -30.3760 C   0  0  0  0  0  0  0  0  0  0  0  0
   -5.9270   24.8440  -31.2100 C   0  0  0  0  0  0  0  0  0  0  0  0
   -4.7990   25.1310  -30.2160 C   0  0  0  0  0  0  0  0  0  0  0  0
   -3.4491   23.8415  -26.0994 H   0  0  0  0  0  0  0  0  0  0  0  0
   -3.4130   25.5763  -26.5639 H   0  0  0  0  0  0  0  0  0  0  0  0
   -4.9690   24.6788  -26.5639 H   0  0  0  0  0  0  0  0  0  0  0  0
   -2.9381   24.9112  -28.6633 H   0  0  0  0  0  0  0  0  0  0  0  0
   -3.2938   23.1698  -28.2164 H   0  0  0  0  0  0  0  0  0  0  0  0
   -4.9495   22.1367  -28.7142 H   0  0  0  0  0  0  0  0  0  0  0  0
   -6.5280   22.9167  -29.1589 H   0  0  0  0  0  0  0  0  0  0  0  0
   -4.1643   22.3889  -31.0193 H   0  0  0  0  0  0  0  0  0  0  0  0
   -5.7710   21.5329  -30.9894 H   0  0  0  0  0  0  0  0  0  0  0  0
   -7.9055   23.2823  -31.6477 H   0  0  0  0  0  0  0  0  0  0  0  0
   -7.2450   23.5619  -33.3070 H   0  0  0  0  0  0  0  0  0  0  0  0
   -5.1110   21.5980  -33.2770 H   0  0  0  0  0  0  0  0  0  0  0  0
   -3.7831   19.7685  -34.0292 H   0  0  0  0  0  0  0  0  0  0  0  0
   -3.6086   17.3223  -34.4830 H   0  0  0  0  0  0  0  0  0  0  0  0
   -5.5620   15.8288  -34.0613 H   0  0  0  0  0  0  0  0  0  0  0  0
   -7.6932   16.7758  -33.1763 H   0  0  0  0  0  0  0  0  0  0  0  0
   -9.6668   22.2660  -32.3972 H   0  0  0  0  0  0  0  0  0  0  0  0
  -10.2810   20.5919  -32.1043 H   0  0  0  0  0  0  0  0  0  0  0  0
   -9.5989   20.6006  -29.8482 H   0  0  0  0  0  0  0  0  0  0  0  0
   -8.4559   21.9638  -30.0970 H   0  0  0  0  0  0  0  0  0  0  0  0
  -10.2267   22.2651  -30.0970 H   0  0  0  0  0  0  0  0  0  0  0  0
   -5.8780   25.5761  -32.0295 H   0  0  0  0  0  0  0  0  0  0  0  0
   -6.8872   24.9202  -30.6787 H   0  0  0  0  0  0  0  0  0  0  0  0
   -3.8303   24.9886  -30.7174 H   0  0  0  0  0  0  0  0  0  0  0  0
   -4.8947   26.1676  -29.8605 H   0  0  0  0  0  0  0  0  0  0  0  0
  1  2  1  0
  2  3  1  0
  3  4  1  0
  4  5  1  0
  5  6  1  0
  6  7  1  0
  7  8  1  0
  8  9  2  0
  9 10  1  0
 10 11  2  0
 11 12  1  0
 12 13  2  0
 13 14  1  0
 14 15  2  0
 15 16  1  0
 16 17  2  0
 16 18  1  0
 18 19  1  0
 19 20  1  0
  6 21  1  0
 21 22  1  0
 22  3  1  0
 18  8  1  0
 15 10  1  0
  1 23  1  0
  1 24  1  0
  1 25  1  0
  2 26  1  0
  2 27  1  0
  4 28  1  0
  4 29  1  0
  5 30  1  0
  5 31  1  0
  7 32  1  0
  7 33  1  0
  9 34  1  0
 11 35  1  0
 12 36  1  0
 13 37  1  0
 14 38  1  0
 19 39  1  0
 19 40  1  0
 20 41  1  0
 20 42  1  0
 20 43  1  0
 21 44  1  0
 21 45  1  0
 22 46  1  0
 22 47  1  0
M  CHG  1   9   1
M  END
>  <UniqueID>  (38) 
36

>  <SMILES>  (38) 
CCN1CCN(Cc2[nH+]c3ccccc3c(=O)n2CC)CC1

>  <Energy>  (38) 
68.36058753934832

>  <Genealogy>  (38) 
CCN1CCN(Cc2[nH+]c3ccccc3c(=O)n2CC)CC1 (protonated)
CCN1CCN(Cc2[nH+]c3ccccc3c(=O)n2CC)CC1 (3D coordinates assigned)
CCN1CCN(Cc2[nH+]c3ccccc3c(=O)n2CC)CC1 (nonaromatic ring conformer: 68.36058753934832 kcal/mol)

>  <smiles>  (38) 
CCN1CCN(Cc2nc3ccccc3c(=O)n2CC)CC1

>  <score_type>  (38) 
oracle

>  <origin>  (38) 
adg

>  <m_score__min__energy>  (38) 
-7.3200000000000003

>  <m_primary>  (38) 
energy

$$$$
38:0
     RDKit          3D

 29 30  0  0  0  0  0  0  0  0999 V2000
   -1.1460   26.2390  -29.7510 H   0  0  0  0  0  0  0  0  0  0  0  0
   -1.6430   25.6660  -29.0300 N   0  0  0  0  0  0  0  0  0  0  0  0
   -2.6170   24.8780  -29.3490 C   0  0  0  0  0  0  0  0  0  0  0  0
   -2.7240   23.6510  -28.7730 N   0  0  0  0  0  0  0  0  0  0  0  0
   -3.7390   22.8050  -29.0920 C   0  0  0  0  0  0  0  0  0  0  0  0
   -3.8010   21.6760  -28.5340 O   0  0  0  0  0  0  0  0  0  0  0  0
   -4.7010   23.2010  -30.0340 C   0  0  0  0  0  0  0  0  0  0  0  0
   -5.7750   22.3840  -30.4160 C   0  0  0  0  0  0  0  0  0  0  0  0
   -5.8859   21.3806  -29.9791 H   0  0  0  0  0  0  0  0  0  0  0  0
   -6.7090   22.8480  -31.3570 C   0  0  0  0  0  0  0  0  0  0  0  0
   -7.8400   21.9980  -31.7850 C   0  0  0  0  0  0  0  0  0  0  0  0
   -8.9850   22.5160  -31.9010 O   0  0  0  0  0  0  0  0  0  0  0  0
   -7.6640   20.5970  -32.0750 N   0  0  0  0  0  0  0  0  0  0  0  0
   -8.6830   19.6530  -31.6100 C   0  0  0  0  0  0  0  0  0  0  0  0
   -8.6966   19.6404  -30.5102 H   0  0  0  0  0  0  0  0  0  0  0  0
   -9.6692   19.9637  -31.9853 H   0  0  0  0  0  0  0  0  0  0  0  0
   -8.4485   18.6460  -31.9853 H   0  0  0  0  0  0  0  0  0  0  0  0
   -6.4320   20.1080  -32.7140 C   0  0  0  0  0  0  0  0  0  0  0  0
   -6.1974   20.7448  -33.5797 H   0  0  0  0  0  0  0  0  0  0  0  0
   -5.6145   20.1453  -31.9789 H   0  0  0  0  0  0  0  0  0  0  0  0
   -6.6020   18.6650  -33.1850 C   0  0  0  0  0  0  0  0  0  0  0  0
   -7.6044   18.5401  -33.6205 H   0  0  0  0  0  0  0  0  0  0  0  0
   -5.8349   18.4402  -33.9407 H   0  0  0  0  0  0  0  0  0  0  0  0
   -6.4550   17.7960  -32.1180 F   0  0  0  0  0  0  0  0  0  0  0  0
   -6.5220   24.1190  -31.9240 C   0  0  0  0  0  0  0  0  0  0  0  0
   -7.2284   24.4886  -32.6819 H   0  0  0  0  0  0  0  0  0  0  0  0
   -5.4730   24.8960  -31.5420 N   0  0  0  0  0  0  0  0  0  0  0  0
   -4.5700   24.4740  -30.6200 C   0  0  0  0  0  0  0  0  0  0  0  0
   -3.5360   25.2800  -30.2660 N   0  0  0  0  0  0  0  0  0  0  0  0
  1  2  1  0
  2  3  2  0
  3  4  1  0
  4  5  1  0
  5  6  2  0
  5  7  1  0
  7  8  2  0
  8  9  1  0
  8 10  1  0
 10 11  1  0
 11 12  2  0
 11 13  1  0
 13 14  1  0
 14 15  1  0
 14 16  1  0
 14 17  1  0
 13 18  1  0
 18 19  1  0
 18 20  1  0
 18 21  1  0
 21 22  1  0
 21 23  1  0
 21 24  1  0
 10 25  2  0
 25 26  1  0
 25 27  1  0
 27 28  2  0
 28 29  1  0
 29  3  1  0
 28  7  1  0
M  CHG  2   4  -1  29  -1
M  END
>  <UniqueID>  (39) 
37

>  <SMILES>  (39) 
[H]/N=c1\[n-]c(=O)c2cc(C(=O)N(C)CCF)cnc2[n-]1

>  <Energy>  (39) 
35.368524182206514

>  <Genealogy>  (39) 
CN(CCF)C(=O)c1cnc2[n-]c(=N)[n-]c(=O)c2c1 (protonated)
[H]/N=c1\[n-]c(=O)c2cc(C(=O)N(C)CCF)cnc2[n-]1 (cis-trans isomerization)
[H]/N=c1\[n-]c(=O)c2cc(C(=O)N(C)CCF)cnc2[n-]1 (3D coordinates assigned)
[H]/N=c1\[n-]c(=O)c2cc(C(=O)N(C)CCF)cnc2[n-]1 (optimized conformer: 35.368524182206514 kcal/mol)

>  <smiles>  (39) 
CN(CCF)C(=O)c1cnc2[nH]c(=N)[nH]c(=O)c2c1

>  <score_type>  (39) 
oracle

>  <origin>  (39) 
adg

>  <m_score__min__energy>  (39) 
-9.8000000000000007

>  <m_primary>  (39) 
energy

$$$$
39:0
     RDKit          3D

 51 53  0  0  0  0  0  0  0  0999 V2000
   -5.0220   15.6510  -32.4150 C   0  0  0  0  0  0  0  0  0  0  0  0
   -5.4530   16.4480  -33.6440 C   0  0  0  0  0  0  0  0  0  0  0  0
   -6.8890   16.9660  -33.4830 C   0  0  0  0  0  0  0  0  0  0  0  0
   -6.9980   18.4380  -33.5540 N   0  0  0  0  0  0  0  0  0  0  0  0
   -5.7320   19.1890  -33.6650 C   0  0  0  0  0  0  0  0  0  0  0  0
   -5.3030   19.8590  -32.3470 C   0  0  0  0  0  0  0  0  0  0  0  0
   -6.4010   20.5910  -31.6860 N   0  0  0  0  0  0  0  0  0  0  0  0
   -6.7850   21.8410  -32.3800 C   0  0  0  0  0  0  0  0  0  0  0  0
   -6.4810   23.0390  -31.5190 C   0  0  0  0  0  0  0  0  0  0  0  0
   -7.5150   23.7320  -30.8700 C   0  0  0  0  0  0  0  0  0  0  0  0
   -7.2250   24.8430  -30.0760 C   0  0  0  0  0  0  0  0  0  0  0  0
   -5.9050   25.2800  -29.9330 C   0  0  0  0  0  0  0  0  0  0  0  0
   -4.8620   24.6140  -30.6020 C   0  0  0  0  0  0  0  0  0  0  0  0
   -3.4910   25.0120  -30.4650 N   0  0  0  0  0  0  0  0  0  0  0  0
   -2.5670   24.5730  -29.4590 C   0  0  0  0  0  0  0  0  0  0  0  0
   -1.7900   25.4010  -28.9090 O   0  0  0  0  0  0  0  0  0  0  0  0
   -2.4900   23.1370  -29.1000 C   0  0  0  0  0  0  0  0  0  0  0  0
   -3.2130   22.6350  -28.0010 C   0  0  0  0  0  0  0  0  0  0  0  0
   -3.1400   21.2790  -27.6660 C   0  0  0  0  0  0  0  0  0  0  0  0
   -2.3480   20.4120  -28.4200 C   0  0  0  0  0  0  0  0  0  0  0  0
   -1.6260   20.8980  -29.5120 C   0  0  0  0  0  0  0  0  0  0  0  0
   -1.6960   22.2510  -29.8530 C   0  0  0  0  0  0  0  0  0  0  0  0
   -5.1580   23.4850  -31.3790 C   0  0  0  0  0  0  0  0  0  0  0  0
   -7.5480   19.6980  -31.4520 C   0  0  0  0  0  0  0  0  0  0  0  0
   -8.0670   19.0610  -32.7510 C   0  0  0  0  0  0  0  0  0  0  0  0
   -5.3156   16.1939  -31.5045 H   0  0  0  0  0  0  0  0  0  0  0  0
   -5.5100   14.6652  -32.4276 H   0  0  0  0  0  0  0  0  0  0  0  0
   -3.9299   15.5197  -32.4276 H   0  0  0  0  0  0  0  0  0  0  0  0
   -4.7739   17.3033  -33.7753 H   0  0  0  0  0  0  0  0  0  0  0  0
   -5.4131   15.7883  -34.5233 H   0  0  0  0  0  0  0  0  0  0  0  0
   -7.5069   16.5325  -34.2832 H   0  0  0  0  0  0  0  0  0  0  0  0
   -7.2303   16.6650  -32.4815 H   0  0  0  0  0  0  0  0  0  0  0  0
   -4.9394   18.4928  -33.9767 H   0  0  0  0  0  0  0  0  0  0  0  0
   -5.8927   19.9910  -34.4005 H   0  0  0  0  0  0  0  0  0  0  0  0
   -4.9383   19.0804  -31.6609 H   0  0  0  0  0  0  0  0  0  0  0  0
   -4.5201   20.5921  -32.5911 H   0  0  0  0  0  0  0  0  0  0  0  0
   -6.2215   21.9198  -33.3214 H   0  0  0  0  0  0  0  0  0  0  0  0
   -7.8655   21.8159  -32.5848 H   0  0  0  0  0  0  0  0  0  0  0  0
   -8.5567   23.3987  -30.9874 H   0  0  0  0  0  0  0  0  0  0  0  0
   -8.0379   25.3762  -29.5613 H   0  0  0  0  0  0  0  0  0  0  0  0
   -5.6810   26.1477  -29.2951 H   0  0  0  0  0  0  0  0  0  0  0  0
   -3.8389   23.3132  -27.4024 H   0  0  0  0  0  0  0  0  0  0  0  0
   -3.7083   20.8950  -26.8060 H   0  0  0  0  0  0  0  0  0  0  0  0
   -2.2925   19.3460  -28.1542 H   0  0  0  0  0  0  0  0  0  0  0  0
   -1.0009   20.2141  -30.1049 H   0  0  0  0  0  0  0  0  0  0  0  0
   -1.1267   22.6268  -30.7160 H   0  0  0  0  0  0  0  0  0  0  0  0
   -4.3447   22.9433  -31.8840 H   0  0  0  0  0  0  0  0  0  0  0  0
   -7.2381   18.8970  -30.7647 H   0  0  0  0  0  0  0  0  0  0  0  0
   -8.3624   20.3017  -31.0249 H   0  0  0  0  0  0  0  0  0  0  0  0
   -8.8062   18.2887  -32.4918 H   0  0  0  0  0  0  0  0  0  0  0  0
   -8.5090   19.8648  -33.3582 H   0  0  0  0  0  0  0  0  0  0  0  0
  1  2  1  0
  2  3  1  0
  3  4  1  0
  4  5  1  0
  5  6  1  0
  6  7  1  0
  7  8  1  0
  8  9  1  0
  9 10  2  0
 10 11  1  0
 11 12  2  0
 12 13  1  0
 13 14  1  0
 14 15  1  0
 15 16  2  0
 15 17  1  0
 17 18  2  0
 18 19  1  0
 19 20  2  0
 20 21  1  0
 21 22  2  0
 13 23  2  0
  7 24  1  0
 24 25  1  0
 25  4  1  0
 23  9  1  0
 22 17  1  0
  1 26  1  0
  1 27  1  0
  1 28  1  0
  2 29  1  0
  2 30  1  0
  3 31  1  0
  3 32  1  0
  5 33  1  0
  5 34  1  0
  6 35  1  0
  6 36  1  0
  8 37  1  0
  8 38  1  0
 10 39  1  0
 11 40  1  0
 12 41  1  0
 18 42  1  0
 19 43  1  0
 20 44  1  0
 21 45  1  0
 22 46  1  0
 23 47  1  0
 24 48  1  0
 24 49  1  0
 25 50  1  0
 25 51  1  0
M  CHG  1  14  -1
M  END
>  <UniqueID>  (40) 
38

>  <SMILES>  (40) 
CCCN1CCN(Cc2cccc([N-]C(=O)c3ccccc3)c2)CC1

>  <Energy>  (40) 
65.88526176643977

>  <Genealogy>  (40) 
CCCN1CCN(Cc2cccc([N-]C(=O)c3ccccc3)c2)CC1 (protonated)
CCCN1CCN(Cc2cccc([N-]C(=O)c3ccccc3)c2)CC1 (3D coordinates assigned)
CCCN1CCN(Cc2cccc([N-]C(=O)c3ccccc3)c2)CC1 (nonaromatic ring conformer: 65.88526176643977 kcal/mol)

>  <smiles>  (40) 
CCCN1CCN(Cc2cccc(NC(=O)c3ccccc3)c2)CC1

>  <score_type>  (40) 
oracle

>  <origin>  (40) 
adg

>  <m_score__min__energy>  (40) 
-10.119999999999999

>  <m_primary>  (40) 
energy

$$$$
40:0
     RDKit          3D

 42 44  0  0  0  0  0  0  0  0999 V2000
   -0.1510   23.1860  -24.4560 C   0  0  0  0  0  0  0  0  0  0  0  0
   -0.4370   22.5410  -25.6930 O   0  0  0  0  0  0  0  0  0  0  0  0
   -1.0970   23.1490  -26.7720 C   0  0  0  0  0  0  0  0  0  0  0  0
   -1.0240   24.5350  -27.0100 C   0  0  0  0  0  0  0  0  0  0  0  0
   -1.6960   25.1020  -28.0970 C   0  0  0  0  0  0  0  0  0  0  0  0
   -2.4340   24.3000  -28.9720 C   0  0  0  0  0  0  0  0  0  0  0  0
   -3.1260   24.9260  -30.0620 N   0  0  0  0  0  0  0  0  0  0  0  0
   -4.5260   24.8230  -30.3490 C   0  0  0  0  0  0  0  0  0  0  0  0
   -5.0670   25.5690  -31.2090 O   0  0  0  0  0  0  0  0  0  0  0  0
   -5.3550   23.8200  -29.6130 C   0  0  0  0  0  0  0  0  0  0  0  0
   -6.1990   23.0440  -30.5860 C   0  0  0  0  0  0  0  0  0  0  0  0
   -7.5730   23.3070  -30.6980 C   0  0  0  0  0  0  0  0  0  0  0  0
   -8.3620   22.5560  -31.5700 C   0  0  0  0  0  0  0  0  0  0  0  0
   -7.7930   21.5310  -32.3300 C   0  0  0  0  0  0  0  0  0  0  0  0
   -6.4200   21.2430  -32.2210 C   0  0  0  0  0  0  0  0  0  0  0  0
   -5.8100   20.1500  -33.0200 C   0  0  0  0  0  0  0  0  0  0  0  0
   -4.4300   19.8890  -32.9340 C   0  0  0  0  0  0  0  0  0  0  0  0
   -3.8740   18.8640  -33.6990 C   0  0  0  0  0  0  0  0  0  0  0  0
   -4.6860   18.1060  -34.5400 C   0  0  0  0  0  0  0  0  0  0  0  0
   -6.0510   18.3860  -34.6050 C   0  0  0  0  0  0  0  0  0  0  0  0
   -6.5830   19.3910  -33.8540 N   0  0  0  0  0  0  0  0  0  0  0  0
   -5.6310   22.0050  -31.3430 C   0  0  0  0  0  0  0  0  0  0  0  0
   -2.5290   22.9200  -28.7240 C   0  0  0  0  0  0  0  0  0  0  0  0
   -1.8590   22.3480  -27.6370 C   0  0  0  0  0  0  0  0  0  0  0  0
   -1.9950   20.6180  -27.3580 Cl  0  0  0  0  0  0  0  0  0  0  0  0
   -0.4425   22.5285  -23.6237 H   0  0  0  0  0  0  0  0  0  0  0  0
    0.9263   23.3998  -24.3944 H   0  0  0  0  0  0  0  0  0  0  0  0
   -0.7158   24.1279  -24.3944 H   0  0  0  0  0  0  0  0  0  0  0  0
   -0.4349   25.1752  -26.3369 H   0  0  0  0  0  0  0  0  0  0  0  0
   -1.6435   26.1878  -28.2649 H   0  0  0  0  0  0  0  0  0  0  0  0
   -4.6943   23.1281  -29.0700 H   0  0  0  0  0  0  0  0  0  0  0  0
   -6.0101   24.3430  -28.9007 H   0  0  0  0  0  0  0  0  0  0  0  0
   -8.0291   24.1073  -30.0968 H   0  0  0  0  0  0  0  0  0  0  0  0
   -9.4369   22.7719  -31.6595 H   0  0  0  0  0  0  0  0  0  0  0  0
   -8.4218   20.9460  -33.0173 H   0  0  0  0  0  0  0  0  0  0  0  0
   -3.7937   20.4897  -32.2675 H   0  0  0  0  0  0  0  0  0  0  0  0
   -2.7959   18.6543  -33.6385 H   0  0  0  0  0  0  0  0  0  0  0  0
   -4.2553   17.2954  -35.1462 H   0  0  0  0  0  0  0  0  0  0  0  0
   -6.7008   17.7930  -35.2654 H   0  0  0  0  0  0  0  0  0  0  0  0
   -7.6120   19.5560  -33.9150 H   0  0  0  0  0  0  0  0  0  0  0  0
   -4.5573   21.7860  -31.2471 H   0  0  0  0  0  0  0  0  0  0  0  0
   -3.1339   22.2856  -29.3886 H   0  0  0  0  0  0  0  0  0  0  0  0
  1  2  1  0
  2  3  1  0
  3  4  2  0
  4  5  1  0
  5  6  2  0
  6  7  1  0
  7  8  1  0
  8  9  2  0
  8 10  1  0
 10 11  1  0
 11 12  2  0
 12 13  1  0
 13 14  2  0
 14 15  1  0
 15 16  1  0
 16 17  2  0
 17 18  1  0
 18 19  2  0
 19 20  1  0
 20 21  2  0
 15 22  2  0
  6 23  1  0
 23 24  2  0
 24 25  1  0
 24  3  1  0
 22 11  1  0
 21 16  1  0
  1 26  1  0
  1 27  1  0
  1 28  1  0
  4 29  1  0
  5 30  1  0
 10 31  1  0
 10 32  1  0
 12 33  1  0
 13 34  1  0
 14 35  1  0
 17 36  1  0
 18 37  1  0
 19 38  1  0
 20 39  1  0
 21 40  1  0
 22 41  1  0
 23 42  1  0
M  CHG  2   7  -1  21   1
M  END
>  <UniqueID>  (41) 
39

>  <SMILES>  (41) 
COc1ccc([N-]C(=O)Cc2cccc(-c3cccc[nH+]3)c2)cc1Cl

>  <Energy>  (41) 
50.59081570685136

>  <Genealogy>  (41) 
COc1ccc([N-]C(=O)Cc2cccc(-c3cccc[nH+]3)c2)cc1Cl (protonated)
COc1ccc([N-]C(=O)Cc2cccc(-c3cccc[nH+]3)c2)cc1Cl (3D coordinates assigned)
COc1ccc([N-]C(=O)Cc2cccc(-c3cccc[nH+]3)c2)cc1Cl (optimized conformer: 50.59081570685136 kcal/mol)

>  <smiles>  (41) 
COc1ccc(NC(=O)Cc2cccc(-c3ccccn3)c2)cc1Cl

>  <score_type>  (41) 
oracle

>  <origin>  (41) 
adg

>  <m_score__min__energy>  (41) 
-10.56

>  <m_primary>  (41) 
energy

$$$$
41:0
     RDKit          3D

 62 65  0  0  0  0  0  0  0  0999 V2000
   -4.1230   14.7280  -32.8620 C   0  0  0  0  0  0  0  0  0  0  0  0
   -5.1950   15.7750  -32.7960 C   0  0  0  0  0  0  0  0  0  0  0  0
   -5.4340   16.4790  -31.6060 C   0  0  0  0  0  0  0  0  0  0  0  0
   -6.4260   17.4640  -31.5570 C   0  0  0  0  0  0  0  0  0  0  0  0
   -7.1820   17.7630  -32.7000 C   0  0  0  0  0  0  0  0  0  0  0  0
   -8.2760   18.7960  -32.6270 C   0  0  0  0  0  0  0  0  0  0  0  0
   -7.7450   20.1280  -32.9830 N   0  0  0  0  0  0  0  0  0  0  0  0
   -7.5410   20.9480  -31.7680 C   0  0  0  0  0  0  0  0  0  0  0  0
   -6.7040   22.1960  -32.0820 C   0  0  0  0  0  0  0  0  0  0  0  0
   -5.3540   21.8670  -32.6320 N   0  0  0  0  0  0  0  0  0  0  0  0
   -4.2770   22.1190  -31.6400 C   0  0  0  0  0  0  0  0  0  0  0  0
   -4.5200   23.3530  -30.7900 C   0  0  0  0  0  0  0  0  0  0  0  0
   -4.9820   24.3970  -31.3330 O   0  0  0  0  0  0  0  0  0  0  0  0
   -4.2020   23.3750  -29.3790 N   0  0  0  0  0  0  0  0  0  0  0  0
   -4.6120   24.5490  -28.5860 C   0  0  0  0  0  0  0  0  0  0  0  0
   -4.2300   24.4010  -27.1120 C   0  0  0  0  0  0  0  0  0  0  0  0
   -2.8430   23.9310  -27.0180 N   0  0  0  0  0  0  0  0  0  0  0  0
   -1.8470   24.6990  -26.3130 C   0  0  0  0  0  0  0  0  0  0  0  0
   -0.4920   24.3180  -26.3600 C   0  0  0  0  0  0  0  0  0  0  0  0
    0.4750   25.0750  -25.6880 C   0  0  0  0  0  0  0  0  0  0  0  0
    0.1060   26.2260  -24.9830 C   0  0  0  0  0  0  0  0  0  0  0  0
   -1.2330   26.6200  -24.9460 C   0  0  0  0  0  0  0  0  0  0  0  0
   -2.2060   25.8630  -25.6050 C   0  0  0  0  0  0  0  0  0  0  0  0
   -2.4370   22.7320  -27.7690 C   0  0  0  0  0  0  0  0  0  0  0  0
   -3.5530   22.2360  -28.7010 C   0  0  0  0  0  0  0  0  0  0  0  0
   -5.2550   20.4710  -33.1220 C   0  0  0  0  0  0  0  0  0  0  0  0
   -6.5390   20.0430  -33.8490 C   0  0  0  0  0  0  0  0  0  0  0  0
   -6.9250   17.0750  -33.8980 C   0  0  0  0  0  0  0  0  0  0  0  0
   -5.9340   16.0890  -33.9470 C   0  0  0  0  0  0  0  0  0  0  0  0
   -3.8283   14.4402  -31.8420 H   0  0  0  0  0  0  0  0  0  0  0  0
   -4.5048   13.8455  -33.3962 H   0  0  0  0  0  0  0  0  0  0  0  0
   -3.2497   15.1305  -33.3962 H   0  0  0  0  0  0  0  0  0  0  0  0
   -4.8390   16.2555  -30.7082 H   0  0  0  0  0  0  0  0  0  0  0  0
   -6.6139   18.0062  -30.6185 H   0  0  0  0  0  0  0  0  0  0  0  0
   -9.0786   18.5254  -33.3289 H   0  0  0  0  0  0  0  0  0  0  0  0
   -8.6700   18.8294  -31.6005 H   0  0  0  0  0  0  0  0  0  0  0  0
   -8.5202   21.2606  -31.3761 H   0  0  0  0  0  0  0  0  0  0  0  0
   -7.0034   20.3433  -31.0227 H   0  0  0  0  0  0  0  0  0  0  0  0
   -7.2453   22.8049  -32.8210 H   0  0  0  0  0  0  0  0  0  0  0  0
   -6.5525   22.7384  -31.1371 H   0  0  0  0  0  0  0  0  0  0  0  0
   -5.1820   22.4810  -33.4640 H   0  0  0  0  0  0  0  0  0  0  0  0
   -4.2037   21.2459  -30.9749 H   0  0  0  0  0  0  0  0  0  0  0  0
   -3.3482   22.2897  -32.2040 H   0  0  0  0  0  0  0  0  0  0  0  0
   -4.1187   25.4437  -28.9935 H   0  0  0  0  0  0  0  0  0  0  0  0
   -5.7066   24.6380  -28.6481 H   0  0  0  0  0  0  0  0  0  0  0  0
   -4.3236   25.3743  -26.6081 H   0  0  0  0  0  0  0  0  0  0  0  0
   -4.8998   23.6753  -26.6276 H   0  0  0  0  0  0  0  0  0  0  0  0
   -0.1928   23.4235  -26.9260 H   0  0  0  0  0  0  0  0  0  0  0  0
    1.5297   24.7636  -25.7143 H   0  0  0  0  0  0  0  0  0  0  0  0
    0.8696   26.8194  -24.4588 H   0  0  0  0  0  0  0  0  0  0  0  0
   -1.5229   27.5281  -24.3971 H   0  0  0  0  0  0  0  0  0  0  0  0
   -3.2593   26.1783  -25.5706 H   0  0  0  0  0  0  0  0  0  0  0  0
   -1.5502   22.9739  -28.3731 H   0  0  0  0  0  0  0  0  0  0  0  0
   -2.2171   21.9338  -27.0448 H   0  0  0  0  0  0  0  0  0  0  0  0
   -3.1217   21.5626  -29.4563 H   0  0  0  0  0  0  0  0  0  0  0  0
   -4.3055   21.7011  -28.1030 H   0  0  0  0  0  0  0  0  0  0  0  0
   -4.4066   20.3947  -33.8180 H   0  0  0  0  0  0  0  0  0  0  0  0
   -5.1085   19.8084  -32.2563 H   0  0  0  0  0  0  0  0  0  0  0  0
   -6.6848   20.6981  -34.7205 H   0  0  0  0  0  0  0  0  0  0  0  0
   -6.4172   18.9910  -34.1463 H   0  0  0  0  0  0  0  0  0  0  0  0
   -7.5058   17.3129  -34.8014 H   0  0  0  0  0  0  0  0  0  0  0  0
   -5.7335   15.5587  -34.8896 H   0  0  0  0  0  0  0  0  0  0  0  0
  1  2  1  0
  2  3  2  0
  3  4  1  0
  4  5  2  0
  5  6  1  0
  6  7  1  0
  7  8  1  0
  8  9  1  0
  9 10  1  0
 10 11  1  0
 11 12  1  0
 12 13  2  0
 12 14  1  0
 14 15  1  0
 15 16  1  0
 16 17  1  0
 17 18  1  0
 18 19  2  0
 19 20  1  0
 20 21  2  0
 21 22  1  0
 22 23  2  0
 17 24  1  0
 24 25  1  0
 10 26  1  0
 26 27  1  0
  5 28  1  0
 28 29  2  0
 29  2  1  0
 27  7  1  0
 25 14  1  0
 23 18  1  0
  1 30  1  0
  1 31  1  0
  1 32  1  0
  3 33  1  0
  4 34  1  0
  6 35  1  0
  6 36  1  0
  8 37  1  0
  8 38  1  0
  9 39  1  0
  9 40  1  0
 10 41  1  0
 11 42  1  0
 11 43  1  0
 15 44  1  0
 15 45  1  0
 16 46  1  0
 16 47  1  0
 19 48  1  0
 20 49  1  0
 21 50  1  0
 22 51  1  0
 23 52  1  0
 24 53  1  0
 24 54  1  0
 25 55  1  0
 25 56  1  0
 26 57  1  0
 26 58  1  0
 27 59  1  0
 27 60  1  0
 28 61  1  0
 29 62  1  0
M  CHG  1  10   1
M  END
>  <UniqueID>  (42) 
40

>  <SMILES>  (42) 
Cc1ccc(CN2CC[NH+](CC(=O)N3CCN(c4ccccc4)CC3)CC2)cc1

>  <Energy>  (42) 
83.88459123426598

>  <Genealogy>  (42) 
Cc1ccc(CN2CC[NH+](CC(=O)N3CCN(c4ccccc4)CC3)CC2)cc1 (protonated)
Cc1ccc(CN2CC[NH+](CC(=O)N3CCN(c4ccccc4)CC3)CC2)cc1 (3D coordinates assigned)
Cc1ccc(CN2CC[NH+](CC(=O)N3CCN(c4ccccc4)CC3)CC2)cc1 (nonaromatic ring conformer: 83.88459123426598 kcal/mol)

>  <smiles>  (42) 
Cc1ccc(CN2CCN(CC(=O)N3CCN(c4ccccc4)CC3)CC2)cc1

>  <score_type>  (42) 
oracle

>  <origin>  (42) 
adg

>  <m_score__min__energy>  (42) 
-8.6899999999999995

>  <m_primary>  (42) 
energy

$$$$
42:0
     RDKit          3D

 57 59  0  0  0  0  0  0  0  0999 V2000
   -5.7510   19.0530  -33.6290 C   0  0  0  0  0  0  0  0  0  0  0  0
   -5.3040   20.0270  -32.5330 C   0  0  0  0  0  0  0  0  0  0  0  0
   -5.7550   21.4270  -32.7910 N   0  0  1  0  0  0  0  0  0  0  0  0
   -7.2230   21.5260  -32.6650 C   0  0  0  0  0  0  0  0  0  0  0  0
   -7.5310   21.7870  -31.1930 C   0  0  0  0  0  0  0  0  0  0  0  0
   -6.2380   22.3330  -30.6040 C   0  0  0  0  0  0  0  0  0  0  0  0
   -5.2870   22.4260  -31.7990 C   0  0  1  0  0  0  0  0  0  0  0  0
   -3.7980   22.3400  -31.4170 C   0  0  0  0  0  0  0  0  0  0  0  0
   -3.2680   23.6750  -31.1780 N   0  0  0  0  0  0  0  0  0  0  0  0
   -3.7310   24.5600  -30.1470 C   0  0  0  0  0  0  0  0  0  0  0  0
   -4.2720   25.6490  -30.4770 O   0  0  0  0  0  0  0  0  0  0  0  0
   -3.6320   24.1990  -28.6870 C   0  0  0  0  0  0  0  0  0  0  0  0
   -2.5180   24.9240  -28.0350 N   0  0  0  0  0  0  0  0  0  0  0  0
   -1.3340   25.0680  -28.9280 C   0  0  0  0  0  0  0  0  0  0  0  0
   -0.2020   24.0670  -28.6260 C   0  0  0  0  0  0  0  0  0  0  0  0
   -0.7640   22.8220  -28.0980 N   0  0  0  0  0  0  0  0  0  0  0  0
   -0.6620   21.5830  -28.8270 C   0  0  0  0  0  0  0  0  0  0  0  0
   -0.3900   20.3840  -28.1490 C   0  0  0  0  0  0  0  0  0  0  0  0
   -0.2880   19.1810  -28.8520 C   0  0  0  0  0  0  0  0  0  0  0  0
   -0.4620   19.1620  -30.2390 C   0  0  0  0  0  0  0  0  0  0  0  0
   -0.7620   20.3450  -30.9280 C   0  0  0  0  0  0  0  0  0  0  0  0
   -0.8940   20.3400  -32.4230 C   0  0  0  0  0  0  0  0  0  0  0  0
   -0.8560   21.5530  -30.2180 C   0  0  0  0  0  0  0  0  0  0  0  0
   -1.5940   22.9010  -26.8910 C   0  0  0  0  0  0  0  0  0  0  0  0
   -2.1700   24.3220  -26.7270 C   0  0  0  0  0  0  0  0  0  0  0  0
   -6.1672   18.1461  -33.1661 H   0  0  0  0  0  0  0  0  0  0  0  0
   -6.5196   19.5316  -34.2537 H   0  0  0  0  0  0  0  0  0  0  0  0
   -4.8870   18.7824  -34.2537 H   0  0  0  0  0  0  0  0  0  0  0  0
   -5.7232   19.6931  -31.5724 H   0  0  0  0  0  0  0  0  0  0  0  0
   -4.2041   20.0286  -32.5167 H   0  0  0  0  0  0  0  0  0  0  0  0
   -5.4810   21.7290  -33.7580 H   0  0  0  0  0  0  0  0  0  0  0  0
   -7.5995   22.3552  -33.2820 H   0  0  0  0  0  0  0  0  0  0  0  0
   -7.7085   20.6006  -33.0083 H   0  0  0  0  0  0  0  0  0  0  0  0
   -8.3414   22.5241  -31.0935 H   0  0  0  0  0  0  0  0  0  0  0  0
   -7.8652   20.8756  -30.6756 H   0  0  0  0  0  0  0  0  0  0  0  0
   -6.4015   23.3252  -30.1581 H   0  0  0  0  0  0  0  0  0  0  0  0
   -5.8409   21.6961  -29.7999 H   0  0  0  0  0  0  0  0  0  0  0  0
   -5.3251   23.4261  -32.2554 H   0  0  0  0  0  0  0  0  0  0  0  0
   -3.6904   21.7363  -30.5038 H   0  0  0  0  0  0  0  0  0  0  0  0
   -3.2399   21.8718  -32.2412 H   0  0  0  0  0  0  0  0  0  0  0  0
   -4.5751   24.4636  -28.1864 H   0  0  0  0  0  0  0  0  0  0  0  0
   -3.4420   23.1186  -28.6055 H   0  0  0  0  0  0  0  0  0  0  0  0
   -1.6627   24.9169  -29.9668 H   0  0  0  0  0  0  0  0  0  0  0  0
   -0.9251   26.0750  -28.7581 H   0  0  0  0  0  0  0  0  0  0  0  0
    0.3521   23.8530  -29.5519 H   0  0  0  0  0  0  0  0  0  0  0  0
    0.4767   24.5032  -27.8783 H   0  0  0  0  0  0  0  0  0  0  0  0
   -0.2563   20.3919  -27.0572 H   0  0  0  0  0  0  0  0  0  0  0  0
   -0.0704   18.2470  -28.3132 H   0  0  0  0  0  0  0  0  0  0  0  0
   -0.3632   18.2158  -30.7912 H   0  0  0  0  0  0  0  0  0  0  0  0
   -1.9586   20.2997  -32.6970 H   0  0  0  0  0  0  0  0  0  0  0  0
   -0.4441   21.2558  -32.8339 H   0  0  0  0  0  0  0  0  0  0  0  0
   -0.3761   19.4608  -32.8339 H   0  0  0  0  0  0  0  0  0  0  0  0
   -1.0838   22.4848  -30.7563 H   0  0  0  0  0  0  0  0  0  0  0  0
   -2.4220   22.1814  -26.9727 H   0  0  0  0  0  0  0  0  0  0  0  0
   -0.9728   22.6643  -26.0146 H   0  0  0  0  0  0  0  0  0  0  0  0
   -3.0761   24.2703  -26.1055 H   0  0  0  0  0  0  0  0  0  0  0  0
   -1.4030   24.9513  -26.2520 H   0  0  0  0  0  0  0  0  0  0  0  0
  1  2  1  0
  2  3  1  0
  3  4  1  0
  4  5  1  0
  5  6  1  0
  6  7  1  0
  7  8  1  0
  8  9  1  0
  9 10  1  0
 10 11  2  0
 10 12  1  0
 12 13  1  0
 13 14  1  0
 14 15  1  0
 15 16  1  0
 16 17  1  0
 17 18  2  0
 18 19  1  0
 19 20  2  0
 20 21  1  0
 21 22  1  0
 21 23  2  0
 16 24  1  0
 24 25  1  0
  7  3  1  0
 25 13  1  0
 23 17  1  0
  1 26  1  0
  1 27  1  0
  1 28  1  0
  2 29  1  0
  2 30  1  0
  3 31  1  6
  4 32  1  0
  4 33  1  0
  5 34  1  0
  5 35  1  0
  6 36  1  0
  6 37  1  0
  7 38  1  6
  8 39  1  0
  8 40  1  0
 12 41  1  0
 12 42  1  0
 14 43  1  0
 14 44  1  0
 15 45  1  0
 15 46  1  0
 18 47  1  0
 19 48  1  0
 20 49  1  0
 22 50  1  0
 22 51  1  0
 22 52  1  0
 23 53  1  0
 24 54  1  0
 24 55  1  0
 25 56  1  0
 25 57  1  0
M  CHG  2   3   1   9  -1
M  END
>  <UniqueID>  (43) 
41

>  <SMILES>  (43) 
CC[N@H+]1CCC[C@H]1C[N-]C(=O)CN1CCN(c2cccc(C)c2)CC1

>  <Energy>  (43) 
71.05452745595323

>  <Genealogy>  (43) 
CC[NH+]1CCCC1C[N-]C(=O)CN1CCN(c2cccc(C)c2)CC1 (protonated)
CC[N@H+]1CCC[C@H]1C[N-]C(=O)CN1CCN(c2cccc(C)c2)CC1 (chirality)
CC[N@H+]1CCC[C@H]1C[N-]C(=O)CN1CCN(c2cccc(C)c2)CC1 (3D coordinates assigned)
CC[N@H+]1CCC[C@H]1C[N-]C(=O)CN1CCN(c2cccc(C)c2)CC1 (nonaromatic ring conformer: 71.05452745595323 kcal/mol)

>  <smiles>  (43) 
CCN1CCCC1CNC(=O)CN1CCN(c2cccc(C)c2)CC1

>  <score_type>  (43) 
oracle

>  <origin>  (43) 
adg

>  <m_score__min__energy>  (43) 
-8.9100000000000001

>  <m_primary>  (43) 
energy

$$$$
43:0
     RDKit          3D

 42 43  0  0  0  0  0  0  0  0999 V2000
   -9.8730   21.0750  -32.0150 C   0  0  0  0  0  0  0  0  0  0  0  0
   -8.7320   20.1680  -32.3250 C   0  0  0  0  0  0  0  0  0  0  0  0
   -8.7740   18.7870  -32.3180 C   0  0  0  0  0  0  0  0  0  0  0  0
   -7.5160   18.3730  -32.7030 C   0  0  0  0  0  0  0  0  0  0  0  0
   -6.7920   19.5290  -32.9230 C   0  0  0  0  0  0  0  0  0  0  0  0
   -5.3680   19.6020  -33.3970 C   0  0  0  0  0  0  0  0  0  0  0  0
   -4.7820   20.9230  -33.1200 N   0  0  0  0  0  0  0  0  0  0  0  0
   -4.4340   21.0780  -31.6960 C   0  0  0  0  0  0  0  0  0  0  0  0
   -4.3290   22.5330  -31.3380 C   0  0  0  0  0  0  0  0  0  0  0  0
   -3.2190   23.2160  -30.8610 C   0  0  0  0  0  0  0  0  0  0  0  0
   -1.8380   22.6670  -30.7150 C   0  0  0  0  0  0  0  0  0  0  0  0
   -3.5850   24.4460  -30.4390 N   0  0  0  0  0  0  0  0  0  0  0  0
   -4.8880   24.5690  -30.6400 N   0  0  0  0  0  0  0  0  0  0  0  0
   -5.6540   25.7490  -30.2580 C   0  0  0  0  0  0  0  0  0  0  0  0
   -5.3690   23.4250  -31.1660 C   0  0  0  0  0  0  0  0  0  0  0  0
   -6.7610   23.1450  -31.3880 N   0  0  0  0  0  0  0  0  0  0  0  0
   -7.5910   22.6180  -30.3080 C   0  0  0  0  0  0  0  0  0  0  0  0
   -7.3790   23.4620  -32.6740 C   0  0  0  0  0  0  0  0  0  0  0  0
   -7.5410   20.5830  -32.6910 O   0  0  0  0  0  0  0  0  0  0  0  0
   -9.9849   21.1639  -30.9243 H   0  0  0  0  0  0  0  0  0  0  0  0
   -9.6793   22.0684  -32.4459 H   0  0  0  0  0  0  0  0  0  0  0  0
  -10.7971   20.6622  -32.4459 H   0  0  0  0  0  0  0  0  0  0  0  0
   -9.6326   18.1499  -32.0591 H   0  0  0  0  0  0  0  0  0  0  0  0
   -7.1624   17.3371  -32.8123 H   0  0  0  0  0  0  0  0  0  0  0  0
   -4.7775   18.8318  -32.8791 H   0  0  0  0  0  0  0  0  0  0  0  0
   -5.3539   19.4357  -34.4843 H   0  0  0  0  0  0  0  0  0  0  0  0
   -5.4830   21.6570  -33.3730 H   0  0  0  0  0  0  0  0  0  0  0  0
   -3.9370   21.0620  -33.7240 H   0  0  0  0  0  0  0  0  0  0  0  0
   -5.2142   20.6083  -31.0790 H   0  0  0  0  0  0  0  0  0  0  0  0
   -3.4636   20.5941  -31.5111 H   0  0  0  0  0  0  0  0  0  0  0  0
   -1.5931   22.5697  -29.6470 H   0  0  0  0  0  0  0  0  0  0  0  0
   -1.7836   21.6789  -31.1952 H   0  0  0  0  0  0  0  0  0  0  0  0
   -1.1200   23.3481  -31.1952 H   0  0  0  0  0  0  0  0  0  0  0  0
   -5.6987   25.8179  -29.1611 H   0  0  0  0  0  0  0  0  0  0  0  0
   -5.1673   26.6488  -30.6623 H   0  0  0  0  0  0  0  0  0  0  0  0
   -6.6740   25.6707  -30.6623 H   0  0  0  0  0  0  0  0  0  0  0  0
   -7.1519   22.8968  -29.3387 H   0  0  0  0  0  0  0  0  0  0  0  0
   -8.6045   23.0384  -30.3859 H   0  0  0  0  0  0  0  0  0  0  0  0
   -7.6417   21.5219  -30.3859 H   0  0  0  0  0  0  0  0  0  0  0  0
   -8.3460   23.9580  -32.5038 H   0  0  0  0  0  0  0  0  0  0  0  0
   -6.7182   24.1324  -33.2430 H   0  0  0  0  0  0  0  0  0  0  0  0
   -7.5380   22.5341  -33.2430 H   0  0  0  0  0  0  0  0  0  0  0  0
  1  2  1  0
  2  3  2  0
  3  4  1  0
  4  5  2  0
  5  6  1  0
  6  7  1  0
  7  8  1  0
  8  9  1  0
  9 10  1  0
 10 11  1  0
 10 12  2  0
 12 13  1  0
 13 14  1  0
 13 15  1  0
 15 16  1  0
 16 17  1  0
 16 18  1  0
  5 19  1  0
 19  2  1  0
 15  9  2  0
  1 20  1  0
  1 21  1  0
  1 22  1  0
  3 23  1  0
  4 24  1  0
  6 25  1  0
  6 26  1  0
  7 27  1  0
  7 28  1  0
  8 29  1  0
  8 30  1  0
 11 31  1  0
 11 32  1  0
 11 33  1  0
 14 34  1  0
 14 35  1  0
 14 36  1  0
 17 37  1  0
 17 38  1  0
 17 39  1  0
 18 40  1  0
 18 41  1  0
 18 42  1  0
M  CHG  1   7   1
M  END
>  <UniqueID>  (44) 
42

>  <SMILES>  (44) 
Cc1ccc(C[NH2+]Cc2c(C)nn(C)c2N(C)C)o1

>  <Energy>  (44) 
93.862361110033

>  <Genealogy>  (44) 
Cc1ccc(C[NH2+]Cc2c(C)nn(C)c2N(C)C)o1 (protonated)
Cc1ccc(C[NH2+]Cc2c(C)nn(C)c2N(C)C)o1 (3D coordinates assigned)
Cc1ccc(C[NH2+]Cc2c(C)nn(C)c2N(C)C)o1 (optimized conformer: 93.862361110033 kcal/mol)

>  <smiles>  (44) 
Cc1ccc(CNCc2c(C)nn(C)c2N(C)C)o1

>  <score_type>  (44) 
oracle

>  <origin>  (44) 
adg

>  <m_score__min__energy>  (44) 
-5.79

>  <m_primary>  (44) 
energy

$$$$
44:0
     RDKit          3D

 39 40  0  0  0  0  0  0  0  0999 V2000
   -7.1440   25.2990  -29.5070 C   0  0  0  0  0  0  0  0  0  0  0  0
   -6.3240   24.3560  -30.2890 N   0  0  1  0  0  0  0  0  0  0  0  0
   -5.0270   24.0450  -29.6410 C   0  0  0  0  0  0  0  0  0  0  0  0
   -3.8890   24.9230  -30.0940 C   0  0  0  0  0  0  0  0  0  0  0  0
   -4.0180   25.6230  -31.1340 O   0  0  0  0  0  0  0  0  0  0  0  0
   -2.6550   24.9100  -29.3660 N   0  0  0  0  0  0  0  0  0  0  0  0
   -1.8990   23.7530  -28.9820 C   0  0  0  0  0  0  0  0  0  0  0  0
   -1.6230   22.7790  -29.9520 C   0  0  0  0  0  0  0  0  0  0  0  0
   -0.9050   21.6280  -29.6150 C   0  0  0  0  0  0  0  0  0  0  0  0
   -0.4720   21.4320  -28.3010 C   0  0  0  0  0  0  0  0  0  0  0  0
    0.2200   20.3130  -27.9750 F   0  0  0  0  0  0  0  0  0  0  0  0
   -0.7640   22.3850  -27.3210 C   0  0  0  0  0  0  0  0  0  0  0  0
   -1.4800   23.5390  -27.6550 C   0  0  0  0  0  0  0  0  0  0  0  0
   -7.0760   23.1530  -30.6020 C   0  0  0  0  0  0  0  0  0  0  0  0
   -7.4670   22.4170  -29.7060 O   0  0  0  0  0  0  0  0  0  0  0  0
   -7.4180   22.8060  -32.0280 C   0  0  0  0  0  0  0  0  0  0  0  0
   -7.6170   21.3160  -32.1690 C   0  0  0  0  0  0  0  0  0  0  0  0
   -8.8960   20.7620  -31.9510 C   0  0  0  0  0  0  0  0  0  0  0  0
   -9.9520   21.5590  -31.6460 F   0  0  0  0  0  0  0  0  0  0  0  0
   -9.0940   19.3820  -32.0440 C   0  0  0  0  0  0  0  0  0  0  0  0
   -8.0250   18.5380  -32.3440 C   0  0  0  0  0  0  0  0  0  0  0  0
   -6.7520   19.0700  -32.5470 C   0  0  0  0  0  0  0  0  0  0  0  0
   -6.5370   20.4510  -32.4570 C   0  0  0  0  0  0  0  0  0  0  0  0
   -4.8990   21.0500  -32.7060 Cl  0  0  0  0  0  0  0  0  0  0  0  0
   -6.9870   25.1184  -28.4333 H   0  0  0  0  0  0  0  0  0  0  0  0
   -6.8507   26.3305  -29.7521 H   0  0  0  0  0  0  0  0  0  0  0  0
   -8.2062   25.1518  -29.7521 H   0  0  0  0  0  0  0  0  0  0  0  0
   -6.0920   24.8460  -31.1850 H   0  0  0  0  0  0  0  0  0  0  0  0
   -5.1456   24.1659  -28.5541 H   0  0  0  0  0  0  0  0  0  0  0  0
   -4.7674   23.0150  -29.9269 H   0  0  0  0  0  0  0  0  0  0  0  0
   -1.9737   22.9215  -30.9848 H   0  0  0  0  0  0  0  0  0  0  0  0
   -0.6805   20.8755  -30.3853 H   0  0  0  0  0  0  0  0  0  0  0  0
   -0.4299   22.2270  -26.2849 H   0  0  0  0  0  0  0  0  0  0  0  0
   -1.7165   24.2816  -26.8787 H   0  0  0  0  0  0  0  0  0  0  0  0
   -8.3440   23.3251  -32.3161 H   0  0  0  0  0  0  0  0  0  0  0  0
   -6.5916   23.1211  -32.6820 H   0  0  0  0  0  0  0  0  0  0  0  0
  -10.0964   18.9598  -31.8800 H   0  0  0  0  0  0  0  0  0  0  0  0
   -8.1860   17.4525  -32.4205 H   0  0  0  0  0  0  0  0  0  0  0  0
   -5.9109   18.4003  -32.7794 H   0  0  0  0  0  0  0  0  0  0  0  0
  1  2  1  0
  2  3  1  0
  3  4  1  0
  4  5  2  0
  4  6  1  0
  6  7  1  0
  7  8  2  0
  8  9  1  0
  9 10  2  0
 10 11  1  0
 10 12  1  0
 12 13  2  0
  2 14  1  0
 14 15  2  0
 14 16  1  0
 16 17  1  0
 17 18  2  0
 18 19  1  0
 18 20  1  0
 20 21  2  0
 21 22  1  0
 22 23  2  0
 23 24  1  0
 13  7  1  0
 23 17  1  0
  1 25  1  0
  1 26  1  0
  1 27  1  0
  2 28  1  6
  3 29  1  0
  3 30  1  0
  8 31  1  0
  9 32  1  0
 12 33  1  0
 13 34  1  0
 16 35  1  0
 16 36  1  0
 20 37  1  0
 21 38  1  0
 22 39  1  0
M  CHG  2   2   1   6  -1
M  END
>  <UniqueID>  (45) 
43

>  <SMILES>  (45) 
C[N@@H+](CC(=O)[N-]c1ccc(F)cc1)C(=O)Cc1c(F)cccc1Cl

>  <Energy>  (45) 
45.306440242387005

>  <Genealogy>  (45) 
C[NH+](CC(=O)[N-]c1ccc(F)cc1)C(=O)Cc1c(F)cccc1Cl (protonated)
C[N@@H+](CC(=O)[N-]c1ccc(F)cc1)C(=O)Cc1c(F)cccc1Cl (chirality)
C[N@@H+](CC(=O)[N-]c1ccc(F)cc1)C(=O)Cc1c(F)cccc1Cl (3D coordinates assigned)
C[N@@H+](CC(=O)[N-]c1ccc(F)cc1)C(=O)Cc1c(F)cccc1Cl (optimized conformer: 45.306440242387005 kcal/mol)

>  <smiles>  (45) 
CN(CC(=O)Nc1ccc(F)cc1)C(=O)Cc1c(F)cccc1Cl

>  <score_type>  (45) 
oracle

>  <origin>  (45) 
adg

>  <m_score__min__energy>  (45) 
-8.7599999999999998

>  <m_primary>  (45) 
energy

$$$$
45:0
     RDKit          3D

 41 43  0  0  0  0  0  0  0  0999 V2000
   -7.3810   22.2140  -31.9340 C   0  0  0  0  0  0  0  0  0  0  0  0
   -6.2430   23.2290  -31.9460 C   0  0  0  0  0  0  0  0  0  0  0  0
   -4.9150   22.5340  -32.0450 C   0  0  0  0  0  0  0  0  0  0  0  0
   -4.5630   21.7780  -33.1150 N   0  0  0  0  0  0  0  0  0  0  0  0
   -3.3130   21.3720  -32.8410 C   0  0  0  0  0  0  0  0  0  0  0  0
   -2.4870   20.5520  -33.6060 C   0  0  0  0  0  0  0  0  0  0  0  0
   -1.2090   20.2560  -33.0960 C   0  0  0  0  0  0  0  0  0  0  0  0
   -0.7970   20.7790  -31.8490 C   0  0  0  0  0  0  0  0  0  0  0  0
   -1.6570   21.6040  -31.1010 C   0  0  0  0  0  0  0  0  0  0  0  0
   -2.9170   21.8810  -31.6370 C   0  0  0  0  0  0  0  0  0  0  0  0
   -3.9130   22.6330  -31.1250 N   0  0  0  0  0  0  0  0  0  0  0  0
   -3.9310   23.3140  -29.8280 C   0  0  0  0  0  0  0  0  0  0  0  0
   -3.4950   24.7440  -29.9980 C   0  0  0  0  0  0  0  0  0  0  0  0
   -4.2280   25.5310  -30.6540 O   0  0  0  0  0  0  0  0  0  0  0  0
   -2.3390   25.2690  -29.3340 N   0  0  0  0  0  0  0  0  0  0  0  0
   -1.7650   24.7720  -28.1180 C   0  0  0  0  0  0  0  0  0  0  0  0
   -1.4100   23.4220  -28.0370 C   0  0  0  0  0  0  0  0  0  0  0  0
   -0.8680   22.9030  -26.8590 C   0  0  0  0  0  0  0  0  0  0  0  0
   -0.6900   23.7250  -25.7340 C   0  0  0  0  0  0  0  0  0  0  0  0
   -0.1080   23.1540  -24.4720 C   0  0  0  0  0  0  0  0  0  0  0  0
   -1.0780   25.0790  -25.8030 C   0  0  0  0  0  0  0  0  0  0  0  0
   -0.9090   26.1560  -24.4200 Cl  0  0  0  0  0  0  0  0  0  0  0  0
   -1.6210   25.5920  -26.9870 C   0  0  0  0  0  0  0  0  0  0  0  0
   -7.6485   21.9754  -30.8941 H   0  0  0  0  0  0  0  0  0  0  0  0
   -8.2555   22.6375  -32.4496 H   0  0  0  0  0  0  0  0  0  0  0  0
   -7.0598   21.2970  -32.4496 H   0  0  0  0  0  0  0  0  0  0  0  0
   -6.3655   23.8991  -32.8097 H   0  0  0  0  0  0  0  0  0  0  0  0
   -6.2724   23.8055  -31.0096 H   0  0  0  0  0  0  0  0  0  0  0  0
   -5.1350   21.5590  -33.9610 H   0  0  0  0  0  0  0  0  0  0  0  0
   -2.8214   20.1502  -34.5739 H   0  0  0  0  0  0  0  0  0  0  0  0
   -0.5264   19.6135  -33.6715 H   0  0  0  0  0  0  0  0  0  0  0  0
    0.2037   20.5391  -31.4604 H   0  0  0  0  0  0  0  0  0  0  0  0
   -1.3483   22.0161  -30.1290 H   0  0  0  0  0  0  0  0  0  0  0  0
   -4.9509   23.2895  -29.4166 H   0  0  0  0  0  0  0  0  0  0  0  0
   -3.2417   22.8032  -29.1396 H   0  0  0  0  0  0  0  0  0  0  0  0
   -1.5585   22.7646  -28.9064 H   0  0  0  0  0  0  0  0  0  0  0  0
   -0.5784   21.8428  -26.8119 H   0  0  0  0  0  0  0  0  0  0  0  0
   -0.5878   23.6247  -23.6012 H   0  0  0  0  0  0  0  0  0  0  0  0
   -0.2841   22.0685  -24.4454 H   0  0  0  0  0  0  0  0  0  0  0  0
    0.9739   23.3507  -24.4454 H   0  0  0  0  0  0  0  0  0  0  0  0
   -1.9371   26.6447  -27.0318 H   0  0  0  0  0  0  0  0  0  0  0  0
  1  2  1  0
  2  3  1  0
  3  4  2  0
  4  5  1  0
  5  6  2  0
  6  7  1  0
  7  8  2  0
  8  9  1  0
  9 10  2  0
 10 11  1  0
 11 12  1  0
 12 13  1  0
 13 14  2  0
 13 15  1  0
 15 16  1  0
 16 17  2  0
 17 18  1  0
 18 19  2  0
 19 20  1  0
 19 21  1  0
 21 22  1  0
 21 23  2  0
 11  3  1  0
 23 16  1  0
 10  5  1  0
  1 24  1  0
  1 25  1  0
  1 26  1  0
  2 27  1  0
  2 28  1  0
  4 29  1  0
  6 30  1  0
  7 31  1  0
  8 32  1  0
  9 33  1  0
 12 34  1  0
 12 35  1  0
 17 36  1  0
 18 37  1  0
 20 38  1  0
 20 39  1  0
 20 40  1  0
 23 41  1  0
M  CHG  2   4   1  15  -1
M  END
>  <UniqueID>  (46) 
44

>  <SMILES>  (46) 
CCc1[nH+]c2ccccc2n1CC(=O)[N-]c1ccc(C)c(Cl)c1

>  <Energy>  (46) 
81.54908236599465

>  <Genealogy>  (46) 
CCc1[nH+]c2ccccc2n1CC(=O)[N-]c1ccc(C)c(Cl)c1 (protonated)
CCc1[nH+]c2ccccc2n1CC(=O)[N-]c1ccc(C)c(Cl)c1 (3D coordinates assigned)
CCc1[nH+]c2ccccc2n1CC(=O)[N-]c1ccc(C)c(Cl)c1 (optimized conformer: 81.54908236599465 kcal/mol)

>  <smiles>  (46) 
CCc1nc2ccccc2n1CC(=O)Nc1ccc(C)c(Cl)c1

>  <score_type>  (46) 
oracle

>  <origin>  (46) 
adg

>  <m_score__min__energy>  (46) 
-9.3599999999999994

>  <m_primary>  (46) 
energy

$$$$
