0:0
     RDKit          3D

 47 50  0  0  0  0  0  0  0  0999 V2000
   -1.9375   25.9497  -25.5444 H   0  0  0  0  0  0  0  0  0  0  0  0
   -2.3710   25.4290  -26.4110 C   0  0  0  0  0  0  0  0  0  0  0  0
   -1.6190   25.2660  -27.5770 C   0  0  0  0  0  0  0  0  0  0  0  0
   -0.5926   25.6583  -27.6269 H   0  0  0  0  0  0  0  0  0  0  0  0
   -2.1670   24.6060  -28.6800 C   0  0  0  0  0  0  0  0  0  0  0  0
   -1.5691   24.4816  -29.5949 H   0  0  0  0  0  0  0  0  0  0  0  0
   -3.4800   24.0990  -28.6280 C   0  0  0  0  0  0  0  0  0  0  0  0
   -4.0650   23.3980  -29.8000 C   0  0  0  0  0  0  0  0  0  0  0  0
   -5.4040   23.5830  -30.1470 C   0  0  0  0  0  0  0  0  0  0  0  0
   -6.0316   24.2569  -29.5454 H   0  0  0  0  0  0  0  0  0  0  0  0
   -5.9590   22.9250  -31.2470 C   0  0  0  0  0  0  0  0  0  0  0  0
   -7.3410   23.2260  -31.5350 C   0  0  0  0  0  0  0  0  0  0  0  0
   -8.4450   23.4890  -31.7590 N   0  0  0  0  0  0  0  0  0  0  0  0
   -5.1410   22.0440  -32.0180 C   0  0  0  0  0  0  0  0  0  0  0  0
   -5.5840   21.3410  -33.0340 N   0  0  0  0  0  0  0  0  0  0  0  0
   -6.7820   20.5190  -33.2140 C   0  0  0  0  0  0  0  0  0  0  0  0
   -7.3931   20.5830  -32.3016 H   0  0  0  0  0  0  0  0  0  0  0  0
   -7.3208   20.9045  -34.0921 H   0  0  0  0  0  0  0  0  0  0  0  0
   -6.4570   19.0620  -33.4790 C   0  0  0  0  0  0  0  0  0  0  0  0
   -5.5270   18.6990  -34.4770 C   0  0  0  0  0  0  0  0  0  0  0  0
   -5.0168   19.4824  -35.0566 H   0  0  0  0  0  0  0  0  0  0  0  0
   -5.2480   17.3550  -34.7360 C   0  0  0  0  0  0  0  0  0  0  0  0
   -4.5058   17.0859  -35.5020 H   0  0  0  0  0  0  0  0  0  0  0  0
   -5.9090   16.3540  -34.0250 C   0  0  0  0  0  0  0  0  0  0  0  0
   -5.6808   15.2963  -34.2232 H   0  0  0  0  0  0  0  0  0  0  0  0
   -6.8600   16.6940  -33.0620 C   0  0  0  0  0  0  0  0  0  0  0  0
   -7.3871   15.9010  -32.5112 H   0  0  0  0  0  0  0  0  0  0  0  0
   -7.1480   18.0370  -32.7920 C   0  0  0  0  0  0  0  0  0  0  0  0
   -8.3970   18.3940  -31.6020 Cl  0  0  0  0  0  0  0  0  0  0  0  0
   -3.8170   21.8960  -31.6630 N   0  0  0  0  0  0  0  0  0  0  0  0
   -2.9430   21.0290  -32.4150 C   0  0  0  0  0  0  0  0  0  0  0  0
   -1.9160   21.5710  -33.2050 C   0  0  0  0  0  0  0  0  0  0  0  0
   -1.7763   22.6612  -33.2492 H   0  0  0  0  0  0  0  0  0  0  0  0
   -1.0710   20.7310  -33.9350 C   0  0  0  0  0  0  0  0  0  0  0  0
   -0.2665   21.1609  -34.5498 H   0  0  0  0  0  0  0  0  0  0  0  0
   -1.2470   19.3430  -33.8850 C   0  0  0  0  0  0  0  0  0  0  0  0
   -0.1850   18.2900  -34.8010 Cl  0  0  0  0  0  0  0  0  0  0  0  0
   -2.2710   18.7970  -33.1050 C   0  0  0  0  0  0  0  0  0  0  0  0
   -2.4103   17.7065  -33.0666 H   0  0  0  0  0  0  0  0  0  0  0  0
   -3.1180   19.6350  -32.3740 C   0  0  0  0  0  0  0  0  0  0  0  0
   -3.9246   19.2018  -31.7643 H   0  0  0  0  0  0  0  0  0  0  0  0
   -3.2870   22.5430  -30.5840 C   0  0  0  0  0  0  0  0  0  0  0  0
   -2.2286   22.3882  -30.3275 H   0  0  0  0  0  0  0  0  0  0  0  0
   -4.2280   24.2690  -27.4480 C   0  0  0  0  0  0  0  0  0  0  0  0
   -5.2551   23.8794  -27.3913 H   0  0  0  0  0  0  0  0  0  0  0  0
   -3.6740   24.9300  -26.3470 C   0  0  0  0  0  0  0  0  0  0  0  0
   -4.2658   25.0572  -25.4285 H   0  0  0  0  0  0  0  0  0  0  0  0
  1  2  1  0
  2  3  2  0
  3  4  1  0
  3  5  1  0
  5  6  1  0
  5  7  2  0
  7  8  1  0
  8  9  1  0
  9 10  1  0
  9 11  2  0
 11 12  1  0
 12 13  3  0
 11 14  1  0
 14 15  2  0
 15 16  1  0
 16 17  1  0
 16 18  1  0
 16 19  1  0
 19 20  2  0
 20 21  1  0
 20 22  1  0
 22 23  1  0
 22 24  2  0
 24 25  1  0
 24 26  1  0
 26 27  1  0
 26 28  2  0
 28 29  1  0
 14 30  1  0
 30 31  1  0
 31 32  2  0
 32 33  1  0
 32 34  1  0
 34 35  1  0
 34 36  2  0
 36 37  1  0
 36 38  1  0
 38 39  1  0
 38 40  2  0
 40 41  1  0
 30 42  1  0
 42 43  1  0
  7 44  1  0
 44 45  1  0
 44 46  2  0
 46 47  1  0
 46  2  1  0
 42  8  2  0
 28 19  1  0
 40 31  1  0
M  END
>  <UniqueID>  (1) 
1

>  <SMILES>  (1) 
N#Cc1cc(-c2ccccc2)cn(-c2ccc(Cl)cc2)/c1=N/Cc1ccccc1Cl

>  <Energy>  (1) 
77.14237422240713

>  <Genealogy>  (1) 
N#Cc1cc(-c2ccccc2)cn(-c2ccc(Cl)cc2)/c1=N/Cc1ccccc1Cl (cis-trans isomerization)
N#Cc1cc(-c2ccccc2)cn(-c2ccc(Cl)cc2)/c1=N/Cc1ccccc1Cl (3D coordinates assigned)
N#Cc1cc(-c2ccccc2)cn(-c2ccc(Cl)cc2)/c1=N/Cc1ccccc1Cl (optimized conformer: 77.14237422240713 kcal/mol)

>  <smiles>  (1) 
N#Cc1cc(-c2ccccc2)cn(-c2ccc(Cl)cc2)c1=NCc1ccccc1Cl

>  <score_type>  (1) 
oracle

>  <origin>  (1) 
adg

>  <m_score__min__energy>  (1) 
-9.3900000000000006

>  <m_primary>  (1) 
energy

$$$$
1:0
     RDKit          3D

 29 31  0  0  0  0  0  0  0  0999 V2000
   -1.9910   24.9620  -28.1810 C   0  0  0  0  0  0  0  0  0  0  0  0
   -2.7280   25.2980  -29.3520 O   0  0  0  0  0  0  0  0  0  0  0  0
   -3.6300   24.4350  -29.9910 C   0  0  0  0  0  0  0  0  0  0  0  0
   -4.9260   24.9220  -30.2890 C   0  0  0  0  0  0  0  0  0  0  0  0
   -5.8760   24.1040  -30.9290 C   0  0  0  0  0  0  0  0  0  0  0  0
   -5.4980   22.8060  -31.2580 C   0  0  0  0  0  0  0  0  0  0  0  0
   -6.2190   21.8880  -31.8510 O   0  0  0  0  0  0  0  0  0  0  0  0
   -5.4720   20.8010  -31.9690 C   0  0  0  0  0  0  0  0  0  0  0  0
   -5.9560   19.5490  -32.5960 C   0  0  0  0  0  0  0  0  0  0  0  0
   -6.9340   18.7470  -31.9770 C   0  0  0  0  0  0  0  0  0  0  0  0
   -7.3740   17.5700  -32.5900 C   0  0  0  0  0  0  0  0  0  0  0  0
   -6.8450   17.1790  -33.8210 C   0  0  0  0  0  0  0  0  0  0  0  0
   -5.8750   17.9660  -34.4430 C   0  0  0  0  0  0  0  0  0  0  0  0
   -5.4310   19.1450  -33.8360 C   0  0  0  0  0  0  0  0  0  0  0  0
   -4.2050   21.0280  -31.4250 C   0  0  0  0  0  0  0  0  0  0  0  0
   -4.2500   22.3260  -30.9750 C   0  0  0  0  0  0  0  0  0  0  0  0
   -3.2850   23.1060  -30.3430 C   0  0  0  0  0  0  0  0  0  0  0  0
   -2.5773   25.2293  -27.2895 H   0  0  0  0  0  0  0  0  0  0  0  0
   -1.7857   23.8813  -28.1744 H   0  0  0  0  0  0  0  0  0  0  0  0
   -1.0406   25.5158  -28.1744 H   0  0  0  0  0  0  0  0  0  0  0  0
   -5.1939   25.9535  -30.0166 H   0  0  0  0  0  0  0  0  0  0  0  0
   -6.8838   24.4785  -31.1614 H   0  0  0  0  0  0  0  0  0  0  0  0
   -7.3540   19.0481  -31.0060 H   0  0  0  0  0  0  0  0  0  0  0  0
   -8.1396   16.9501  -32.1005 H   0  0  0  0  0  0  0  0  0  0  0  0
   -7.1923   16.2517  -34.3002 H   0  0  0  0  0  0  0  0  0  0  0  0
   -5.4585   17.6582  -35.4134 H   0  0  0  0  0  0  0  0  0  0  0  0
   -4.6659   19.7603  -34.3320 H   0  0  0  0  0  0  0  0  0  0  0  0
   -3.3606   20.3252  -31.3694 H   0  0  0  0  0  0  0  0  0  0  0  0
   -2.2853   22.7030  -30.1236 H   0  0  0  0  0  0  0  0  0  0  0  0
  1  2  1  0
  2  3  1  0
  3  4  2  0
  4  5  1  0
  5  6  2  0
  6  7  1  0
  7  8  1  0
  8  9  1  0
  9 10  2  0
 10 11  1  0
 11 12  2  0
 12 13  1  0
 13 14  2  0
  8 15  2  0
 15 16  1  0
 16 17  2  0
 17  3  1  0
 16  6  1  0
 14  9  1  0
  1 18  1  0
  1 19  1  0
  1 20  1  0
  4 21  1  0
  5 22  1  0
 10 23  1  0
 11 24  1  0
 12 25  1  0
 13 26  1  0
 14 27  1  0
 15 28  1  0
 17 29  1  0
M  END
>  <UniqueID>  (2) 
2

>  <SMILES>  (2) 
COc1ccc2oc(-c3ccccc3)cc2c1

>  <Energy>  (2) 
65.63241194905032

>  <Genealogy>  (2) 
COc1ccc2oc(-c3ccccc3)cc2c1 (3D coordinates assigned)
COc1ccc2oc(-c3ccccc3)cc2c1 (optimized conformer: 65.63241194905032 kcal/mol)

>  <smiles>  (2) 
COc1ccc2oc(-c3ccccc3)cc2c1

>  <score_type>  (2) 
oracle

>  <origin>  (2) 
adg

>  <m_score__min__energy>  (2) 
-6.8399999999999999

>  <m_primary>  (2) 
energy

$$$$
2:0
     RDKit          3D

 31 33  0  0  0  0  0  0  0  0999 V2000
   -2.4540   22.6850  -30.5190 C   0  0  0  0  0  0  0  0  0  0  0  0
   -3.1170   23.9000  -30.8470 O   0  0  0  0  0  0  0  0  0  0  0  0
   -4.4990   24.0630  -30.7200 C   0  0  0  0  0  0  0  0  0  0  0  0
   -4.9870   25.1880  -30.1380 N   0  0  0  0  0  0  0  0  0  0  0  0
   -6.3250   25.3800  -30.0040 C   0  0  0  0  0  0  0  0  0  0  0  0
   -7.2200   24.4140  -30.4650 C   0  0  0  0  0  0  0  0  0  0  0  0
   -6.7070   23.2470  -31.0550 C   0  0  0  0  0  0  0  0  0  0  0  0
   -7.5770   22.1680  -31.5830 C   0  0  0  0  0  0  0  0  0  0  0  0
   -8.9800   22.2200  -31.5250 C   0  0  0  0  0  0  0  0  0  0  0  0
   -9.7080   21.1820  -32.0110 N   0  0  0  0  0  0  0  0  0  0  0  0
   -9.1150   20.0910  -32.5590 C   0  0  0  0  0  0  0  0  0  0  0  0
   -7.7130   20.0230  -32.6230 C   0  0  0  0  0  0  0  0  0  0  0  0
   -7.0020   18.8500  -33.1950 C   0  0  0  0  0  0  0  0  0  0  0  0
   -6.0710   18.9860  -34.2420 C   0  0  0  0  0  0  0  0  0  0  0  0
   -5.4150   17.8620  -34.7490 C   0  0  0  0  0  0  0  0  0  0  0  0
   -5.6860   16.6080  -34.2040 C   0  0  0  0  0  0  0  0  0  0  0  0
   -6.5780   16.4870  -33.1860 N   0  0  0  0  0  0  0  0  0  0  0  0
   -7.2300   17.5640  -32.6740 C   0  0  0  0  0  0  0  0  0  0  0  0
   -6.9930   21.0640  -32.1220 N   0  0  0  0  0  0  0  0  0  0  0  0
   -5.3580   23.1090  -31.1730 N   0  0  0  0  0  0  0  0  0  0  0  0
   -2.3976   22.5817  -29.4253 H   0  0  0  0  0  0  0  0  0  0  0  0
   -3.0142   21.8366  -30.9390 H   0  0  0  0  0  0  0  0  0  0  0  0
   -1.4374   22.6971  -30.9390 H   0  0  0  0  0  0  0  0  0  0  0  0
   -6.7035   26.2984  -29.5314 H   0  0  0  0  0  0  0  0  0  0  0  0
   -8.3055   24.5633  -30.3684 H   0  0  0  0  0  0  0  0  0  0  0  0
   -9.4846   23.0949  -31.0892 H   0  0  0  0  0  0  0  0  0  0  0  0
   -9.7278   19.2656  -32.9504 H   0  0  0  0  0  0  0  0  0  0  0  0
   -5.8595   19.9804  -34.6621 H   0  0  0  0  0  0  0  0  0  0  0  0
   -4.6912   17.9654  -35.5708 H   0  0  0  0  0  0  0  0  0  0  0  0
   -5.1775   15.7158  -34.5982 H   0  0  0  0  0  0  0  0  0  0  0  0
   -7.9413   17.4287  -31.8459 H   0  0  0  0  0  0  0  0  0  0  0  0
  1  2  1  0
  2  3  1  0
  3  4  2  0
  4  5  1  0
  5  6  2  0
  6  7  1  0
  7  8  1  0
  8  9  2  0
  9 10  1  0
 10 11  2  0
 11 12  1  0
 12 13  1  0
 13 14  2  0
 14 15  1  0
 15 16  2  0
 16 17  1  0
 17 18  2  0
 12 19  2  0
  7 20  2  0
 20  3  1  0
 19  8  1  0
 18 13  1  0
  1 21  1  0
  1 22  1  0
  1 23  1  0
  5 24  1  0
  6 25  1  0
  9 26  1  0
 11 27  1  0
 14 28  1  0
 15 29  1  0
 16 30  1  0
 18 31  1  0
M  END
>  <UniqueID>  (3) 
3

>  <SMILES>  (3) 
COc1nccc(-c2cncc(-c3cccnc3)n2)n1

>  <Energy>  (3) 
41.81804289920719

>  <Genealogy>  (3) 
COc1nccc(-c2cncc(-c3cccnc3)n2)n1 (3D coordinates assigned)
COc1nccc(-c2cncc(-c3cccnc3)n2)n1 (optimized conformer: 41.81804289920719 kcal/mol)

>  <smiles>  (3) 
COc1nccc(-c2cncc(-c3cccnc3)n2)n1

>  <score_type>  (3) 
oracle

>  <origin>  (3) 
adg

>  <m_score__min__energy>  (3) 
-7.4400000000000004

>  <m_primary>  (3) 
energy

$$$$
3:0
     RDKit          3D

 50 53  0  0  1  0  0  0  0  0999 V2000
   -9.6600   21.6500  -31.8020 C   0  0  0  0  0  0  0  0  0  0  0  0
   -8.1780   21.8140  -31.9620 C   0  0  0  0  0  0  0  0  0  0  0  0
   -7.5470   22.9680  -31.5060 C   0  0  0  0  0  0  0  0  0  0  0  0
   -6.1830   23.0710  -31.6760 C   0  0  0  0  0  0  0  0  0  0  0  0
   -5.4240   24.1980  -31.2540 N   0  0  0  0  0  0  0  0  0  0  0  0
   -4.6510   24.2410  -30.2500 C   0  0  0  0  0  0  0  0  0  0  0  0
   -5.1620   24.0270  -28.9780 C   0  0  0  0  0  0  0  0  0  0  0  0
   -4.2600   24.0900  -27.9270 C   0  0  0  0  0  0  0  0  0  0  0  0
   -2.9610   24.3480  -28.1660 N   0  0  0  0  0  0  0  0  0  0  0  0
   -1.9490   24.4460  -27.2810 C   0  0  0  0  0  0  0  0  0  0  0  0
   -0.8170   24.7200  -28.0060 C   0  0  0  0  0  0  0  0  0  0  0  0
   -1.1580   24.7830  -29.3070 N   0  0  0  0  0  0  0  0  0  0  0  0
   -2.4860   24.5540  -29.4290 C   0  0  0  0  0  0  0  0  0  0  0  0
   -3.3450   24.4970  -30.4630 N   0  0  0  0  0  0  0  0  0  0  0  0
   -5.4680   22.0420  -32.2910 C   0  0  0  0  0  0  0  0  0  0  0  0
   -6.0760   20.8980  -32.7460 C   0  0  0  0  0  0  0  0  0  0  0  0
   -5.3580   19.8030  -33.3910 C   0  0  0  0  0  0  0  0  0  0  0  0
   -6.1520   18.7940  -33.9430 C   0  0  0  0  0  0  0  0  0  0  0  0
   -5.5640   17.7100  -34.5800 C   0  0  0  0  0  0  0  0  0  0  0  0
   -4.1800   17.6480  -34.6550 C   0  0  0  0  0  0  0  0  0  0  0  0
   -3.4000   18.6630  -34.0970 C   0  0  0  0  0  0  0  0  0  0  0  0
   -1.6660   18.4860  -34.2460 S   0  0  0  0  0  0  0  0  0  0  0  0
   -1.1690   18.0090  -32.8970 O   0  0  0  0  0  0  0  0  0  0  0  0
   -1.2940   17.4470  -35.2420 O   0  0  0  0  0  0  0  0  0  0  0  0
   -0.9660   20.0150  -34.6000 N   0  0  0  0  0  0  0  0  0  0  0  0
   -0.8310   20.8480  -33.4380 C   0  0  0  0  0  0  0  0  0  0  0  0
    0.2700   19.8710  -35.3460 C   0  0  0  0  0  0  0  0  0  0  0  0
   -3.9980   19.7340  -33.4700 C   0  0  0  0  0  0  0  0  0  0  0  0
   -7.4600   20.8030  -32.5680 C   0  0  0  0  0  0  0  0  0  0  0  0
   -9.9124   21.6221  -30.7317 H   0  0  0  0  0  0  0  0  0  0  0  0
  -10.1761   22.4965  -32.2785 H   0  0  0  0  0  0  0  0  0  0  0  0
   -9.9786   20.7111  -32.2785 H   0  0  0  0  0  0  0  0  0  0  0  0
   -8.1200   23.7739  -31.0242 H   0  0  0  0  0  0  0  0  0  0  0  0
   -6.2291   23.8179  -28.8117 H   0  0  0  0  0  0  0  0  0  0  0  0
   -4.6068   23.9288  -26.8956 H   0  0  0  0  0  0  0  0  0  0  0  0
   -2.0175   24.3290  -26.1894 H   0  0  0  0  0  0  0  0  0  0  0  0
    0.1935   24.8633  -27.5958 H   0  0  0  0  0  0  0  0  0  0  0  0
   -0.4910   24.9770  -30.0740 H   0  0  0  0  0  0  0  0  0  0  0  0
   -4.3805   22.1512  -32.4154 H   0  0  0  0  0  0  0  0  0  0  0  0
   -7.2478   18.8592  -33.8723 H   0  0  0  0  0  0  0  0  0  0  0  0
   -6.1844   16.9141  -35.0177 H   0  0  0  0  0  0  0  0  0  0  0  0
   -3.6956   16.7966  -35.1556 H   0  0  0  0  0  0  0  0  0  0  0  0
   -0.9308   20.2323  -32.5319 H   0  0  0  0  0  0  0  0  0  0  0  0
    0.1572   21.3312  -33.4460 H   0  0  0  0  0  0  0  0  0  0  0  0
   -1.6160   21.6185  -33.4460 H   0  0  0  0  0  0  0  0  0  0  0  0
    1.1120   19.7729  -34.6450 H   0  0  0  0  0  0  0  0  0  0  0  0
    0.2136   18.9734  -35.9793 H   0  0  0  0  0  0  0  0  0  0  0  0
    0.4215   20.7576  -35.9793 H   0  0  0  0  0  0  0  0  0  0  0  0
   -3.3797   20.5323  -33.0337 H   0  0  0  0  0  0  0  0  0  0  0  0
   -7.9874   19.9035  -32.9184 H   0  0  0  0  0  0  0  0  0  0  0  0
  1  2  1  0
  2  3  2  0
  3  4  1  0
  4  5  1  0
  5  6  2  0
  6  7  1  0
  7  8  2  0
  8  9  1  0
  9 10  1  0
 10 11  2  0
 11 12  1  0
 12 13  1  0
 13 14  2  0
  4 15  2  0
 15 16  1  0
 16 17  1  0
 17 18  2  0
 18 19  1  0
 19 20  2  0
 20 21  1  0
 21 22  1  0
 22 23  2  0
 22 24  2  0
 22 25  1  0
 25 26  1  0
 25 27  1  0
 21 28  2  0
 16 29  2  0
 29  2  1  0
 14  6  1  0
 28 17  1  0
 13  9  1  0
  1 30  1  0
  1 31  1  0
  1 32  1  0
  3 33  1  0
  7 34  1  0
  8 35  1  0
 10 36  1  0
 11 37  1  0
 12 38  1  0
 15 39  1  0
 18 40  1  0
 19 41  1  0
 20 42  1  0
 26 43  1  0
 26 44  1  0
 26 45  1  0
 27 46  1  0
 27 47  1  0
 27 48  1  0
 28 49  1  0
 29 50  1  0
M  END
>  <smiles>  (4) 
Cc1cc(N=c2ccn3cc[nH]c3n2)cc(-c2cccc(S(=O)(=O)N(C)C)c2)c1

>  <score_type>  (4) 
oracle

>  <origin>  (4) 
adg

>  <m_score__min__energy>  (4) 
-9.7699999999999996

>  <m_primary>  (4) 
energy

$$$$
4:0
     RDKit          3D

 53 55  0  0  0  0  0  0  0  0999 V2000
   -9.8630   21.5540  -31.4970 C   0  0  0  0  0  0  0  0  0  0  0  0
   -8.7380   20.7270  -31.9880 C   0  0  0  0  0  0  0  0  0  0  0  0
   -8.7820   19.3660  -32.2170 C   0  0  0  0  0  0  0  0  0  0  0  0
   -7.5440   19.0200  -32.6570 N   0  0  0  0  0  0  0  0  0  0  0  0
   -7.2250   17.6430  -32.9990 C   0  0  0  0  0  0  0  0  0  0  0  0
   -6.7760   20.0910  -32.7030 N   0  0  0  0  0  0  0  0  0  0  0  0
   -5.4030   20.1370  -33.1140 C   0  0  0  0  0  0  0  0  0  0  0  0
   -7.4790   21.1420  -32.3010 N   0  0  0  0  0  0  0  0  0  0  0  0
   -7.0070   22.5380  -32.1980 C   0  0  0  0  0  0  0  0  0  0  0  0
   -6.9600   22.8230  -30.7180 C   0  0  0  0  0  0  0  0  0  0  0  0
   -6.8500   24.2720  -30.3940 C   0  0  0  0  0  0  0  0  0  0  0  0
   -5.5240   24.7970  -30.8770 C   0  0  0  0  0  0  0  0  0  0  0  0
   -4.4720   24.2190  -30.0480 N   0  0  0  0  0  0  0  0  0  0  0  0
   -4.1410   24.5030  -28.7770 C   0  0  0  0  0  0  0  0  0  0  0  0
   -3.0750   23.7130  -28.3950 C   0  0  0  0  0  0  0  0  0  0  0  0
   -2.3680   23.6670  -27.1040 C   0  0  0  0  0  0  0  0  0  0  0  0
   -1.5890   24.9290  -26.9230 C   0  0  0  0  0  0  0  0  0  0  0  0
   -0.8600   25.2030  -28.1550 N   0  0  0  0  0  0  0  0  0  0  0  0
   -1.2710   26.0510  -28.9750 O   0  0  0  0  0  0  0  0  0  0  0  0
    0.2980   24.4920  -28.3800 O   0  0  0  0  0  0  0  0  0  0  0  0
   -2.7480   22.9220  -29.4740 C   0  0  0  0  0  0  0  0  0  0  0  0
   -1.7880   21.9500  -29.6990 C   0  0  0  0  0  0  0  0  0  0  0  0
   -1.7180   21.3290  -30.9190 C   0  0  0  0  0  0  0  0  0  0  0  0
   -2.5820   21.6400  -31.9440 C   0  0  0  0  0  0  0  0  0  0  0  0
   -3.5450   22.6160  -31.7150 C   0  0  0  0  0  0  0  0  0  0  0  0
   -3.6300   23.2590  -30.4830 C   0  0  0  0  0  0  0  0  0  0  0  0
   -9.8645   21.5551  -30.3970 H   0  0  0  0  0  0  0  0  0  0  0  0
   -9.7483   22.5844  -31.8645 H   0  0  0  0  0  0  0  0  0  0  0  0
  -10.8123   21.1371  -31.8645 H   0  0  0  0  0  0  0  0  0  0  0  0
   -9.6439   18.6979  -32.0726 H   0  0  0  0  0  0  0  0  0  0  0  0
   -7.0895   17.0582  -32.0772 H   0  0  0  0  0  0  0  0  0  0  0  0
   -8.0471   17.2119  -33.5892 H   0  0  0  0  0  0  0  0  0  0  0  0
   -6.2971   17.6173  -33.5892 H   0  0  0  0  0  0  0  0  0  0  0  0
   -4.7548   20.1587  -32.2255 H   0  0  0  0  0  0  0  0  0  0  0  0
   -5.1704   19.2461  -33.7159 H   0  0  0  0  0  0  0  0  0  0  0  0
   -5.2305   21.0414  -33.7159 H   0  0  0  0  0  0  0  0  0  0  0  0
   -6.0070   22.6424  -32.6443 H   0  0  0  0  0  0  0  0  0  0  0  0
   -7.6645   23.2382  -32.7341 H   0  0  0  0  0  0  0  0  0  0  0  0
   -7.8804   22.4328  -30.2592 H   0  0  0  0  0  0  0  0  0  0  0  0
   -6.0568   22.3344  -30.3236 H   0  0  0  0  0  0  0  0  0  0  0  0
   -7.6640   24.8211  -30.8899 H   0  0  0  0  0  0  0  0  0  0  0  0
   -6.9235   24.4100  -29.3052 H   0  0  0  0  0  0  0  0  0  0  0  0
   -5.3703   24.5087  -31.9273 H   0  0  0  0  0  0  0  0  0  0  0  0
   -5.5025   25.8945  -30.8053 H   0  0  0  0  0  0  0  0  0  0  0  0
   -4.6409   25.2481  -28.1406 H   0  0  0  0  0  0  0  0  0  0  0  0
   -3.0988   23.5660  -26.2881 H   0  0  0  0  0  0  0  0  0  0  0  0
   -1.6837   22.8059  -27.0888 H   0  0  0  0  0  0  0  0  0  0  0  0
   -2.2752   25.7606  -26.7051 H   0  0  0  0  0  0  0  0  0  0  0  0
   -0.8851   24.8206  -26.0846 H   0  0  0  0  0  0  0  0  0  0  0  0
   -1.0828   21.6766  -28.9003 H   0  0  0  0  0  0  0  0  0  0  0  0
   -0.9490   20.5599  -31.0835 H   0  0  0  0  0  0  0  0  0  0  0  0
   -2.5126   21.1309  -32.9166 H   0  0  0  0  0  0  0  0  0  0  0  0
   -4.2486   22.8836  -32.5171 H   0  0  0  0  0  0  0  0  0  0  0  0
  1  2  1  0
  2  3  2  0
  3  4  1  0
  4  5  1  0
  4  6  2  0
  6  7  1  0
  6  8  1  0
  8  9  1  0
  9 10  1  0
 10 11  1  0
 11 12  1  0
 12 13  1  0
 13 14  1  0
 14 15  2  0
 15 16  1  0
 16 17  1  0
 17 18  1  0
 18 19  2  0
 18 20  1  0
 15 21  1  0
 21 22  2  0
 22 23  1  0
 23 24  2  0
 24 25  1  0
 25 26  2  0
  8  2  1  0
 26 13  1  0
 26 21  1  0
  1 27  1  0
  1 28  1  0
  1 29  1  0
  3 30  1  0
  5 31  1  0
  5 32  1  0
  5 33  1  0
  7 34  1  0
  7 35  1  0
  7 36  1  0
  9 37  1  0
  9 38  1  0
 10 39  1  0
 10 40  1  0
 11 41  1  0
 11 42  1  0
 12 43  1  0
 12 44  1  0
 14 45  1  0
 16 46  1  0
 16 47  1  0
 17 48  1  0
 17 49  1  0
 22 50  1  0
 23 51  1  0
 24 52  1  0
 25 53  1  0
M  CHG  4   4   1   6   1  18   1  20  -1
M  END
>  <smiles>  (5) 
Cc1c[n+](C)[n+](C)n1CCCCn1cc(CC[N+](=O)[O-])c2ccccc21

>  <score_type>  (5) 
oracle

>  <origin>  (5) 
adg

>  <m_score__min__energy>  (5) 
-8.4499999999999993

>  <m_primary>  (5) 
energy

$$$$
5:0
     RDKit          3D

 36 38  0  0  0  0  0  0  0  0999 V2000
   -8.3560   21.9730  -30.0980 C   0  0  0  0  0  0  0  0  0  0  0  0
   -7.2750   22.6040  -30.9200 C   0  0  0  0  0  0  0  0  0  0  0  0
   -6.6390   22.0010  -32.0240 C   0  0  0  0  0  0  0  0  0  0  0  0
   -6.8150   20.6250  -32.4620 C   0  0  0  0  0  0  0  0  0  0  0  0
   -8.1030   20.0720  -32.3710 C   0  0  0  0  0  0  0  0  0  0  0  0
   -8.3150   18.7330  -32.6650 C   0  0  0  0  0  0  0  0  0  0  0  0
   -7.2550   17.9250  -33.0830 C   0  0  0  0  0  0  0  0  0  0  0  0
   -5.9810   18.4750  -33.2190 C   0  0  0  0  0  0  0  0  0  0  0  0
   -5.7410   19.8300  -32.9410 C   0  0  0  0  0  0  0  0  0  0  0  0
   -4.4910   20.3890  -33.3800 N   0  0  0  0  0  0  0  0  0  0  0  0
   -3.1720   19.7860  -33.1790 C   0  0  0  0  0  0  0  0  0  0  0  0
   -2.9560   18.6640  -34.2050 C   0  0  0  0  0  0  0  0  0  0  0  0
   -2.0840   20.8560  -33.3240 C   0  0  0  0  0  0  0  0  0  0  0  0
   -5.2830   22.9680  -32.4950 S   0  0  0  0  0  0  0  0  0  0  0  0
   -5.6180   24.0850  -31.3000 C   0  0  0  0  0  0  0  0  0  0  0  0
   -4.9810   25.1880  -30.8580 N   0  0  0  0  0  0  0  0  0  0  0  0
   -5.7810   25.5100  -29.8000 C   0  0  0  0  0  0  0  0  0  0  0  0
   -6.8160   24.6440  -29.6260 N   0  0  0  0  0  0  0  0  0  0  0  0
   -6.6790   23.7680  -30.5920 N   0  0  0  0  0  0  0  0  0  0  0  0
   -8.1290   22.1055  -29.0299 H   0  0  0  0  0  0  0  0  0  0  0  0
   -9.3193   22.4507  -30.3302 H   0  0  0  0  0  0  0  0  0  0  0  0
   -8.4137   20.8993  -30.3302 H   0  0  0  0  0  0  0  0  0  0  0  0
   -8.9490   20.7048  -32.0646 H   0  0  0  0  0  0  0  0  0  0  0  0
   -9.3237   18.3050  -32.5684 H   0  0  0  0  0  0  0  0  0  0  0  0
   -7.4244   16.8608  -33.3036 H   0  0  0  0  0  0  0  0  0  0  0  0
   -5.1492   17.8359  -33.5500 H   0  0  0  0  0  0  0  0  0  0  0  0
   -4.5780   20.9870  -34.2420 H   0  0  0  0  0  0  0  0  0  0  0  0
   -3.1153   19.3594  -32.1667 H   0  0  0  0  0  0  0  0  0  0  0  0
   -2.7734   17.7157  -33.6783 H   0  0  0  0  0  0  0  0  0  0  0  0
   -3.8519   18.5665  -34.8358 H   0  0  0  0  0  0  0  0  0  0  0  0
   -2.0880   18.9061  -34.8358 H   0  0  0  0  0  0  0  0  0  0  0  0
   -1.7538   21.1807  -32.3262 H   0  0  0  0  0  0  0  0  0  0  0  0
   -1.2290   20.4372  -33.8749 H   0  0  0  0  0  0  0  0  0  0  0  0
   -2.4885   21.7179  -33.8749 H   0  0  0  0  0  0  0  0  0  0  0  0
   -5.6065   26.3822  -29.1529 H   0  0  0  0  0  0  0  0  0  0  0  0
   -7.5410   24.6370  -28.8760 H   0  0  0  0  0  0  0  0  0  0  0  0
  1  2  1  0
  2  3  2  0
  3  4  1  0
  4  5  2  0
  5  6  1  0
  6  7  2  0
  7  8  1  0
  8  9  2  0
  9 10  1  0
 10 11  1  0
 11 12  1  0
 11 13  1  0
  3 14  1  0
 14 15  1  0
 15 16  2  0
 16 17  1  0
 17 18  2  0
 18 19  1  0
 19  2  1  0
  9  4  1  0
 19 15  1  0
  1 20  1  0
  1 21  1  0
  1 22  1  0
  5 23  1  0
  6 24  1  0
  7 25  1  0
  8 26  1  0
 10 27  1  0
 11 28  1  0
 12 29  1  0
 12 30  1  0
 12 31  1  0
 13 32  1  0
 13 33  1  0
 13 34  1  0
 17 35  1  0
 18 36  1  0
M  CHG  1  18   1
M  END
>  <UniqueID>  (6) 
4

>  <SMILES>  (6) 
Cc1c(-c2ccccc2NC(C)C)sc2nc[nH+]n12

>  <Energy>  (6) 
135.2910029525839

>  <Genealogy>  (6) 
Cc1c(-c2ccccc2NC(C)C)sc2nc[nH+]n12 (protonated)
Cc1c(-c2ccccc2NC(C)C)sc2nc[nH+]n12 (3D coordinates assigned)
Cc1c(-c2ccccc2NC(C)C)sc2nc[nH+]n12 (optimized conformer: 135.2910029525839 kcal/mol)

>  <smiles>  (6) 
Cc1c(-c2ccccc2NC(C)C)sc2ncnn12

>  <score_type>  (6) 
oracle

>  <origin>  (6) 
adg

>  <m_score__min__energy>  (6) 
-6.96

>  <m_primary>  (6) 
energy

$$$$
6:0
     RDKit          3D

 31 33  0  0  0  0  0  0  0  0999 V2000
   -4.2020   20.3130  -33.4890 O   0  0  0  0  0  0  0  0  0  0  0  0
   -3.6650   21.2120  -32.7880 C   0  0  0  0  0  0  0  0  0  0  0  0
   -2.2410   21.4000  -32.8210 N   0  0  0  0  0  0  0  0  0  0  0  0
   -1.3710   20.7930  -33.7930 C   0  0  0  0  0  0  0  0  0  0  0  0
   -1.3570   19.3960  -33.9270 C   0  0  0  0  0  0  0  0  0  0  0  0
   -0.5060   18.7810  -34.8490 C   0  0  0  0  0  0  0  0  0  0  0  0
    0.3520   19.5540  -35.6370 C   0  0  0  0  0  0  0  0  0  0  0  0
    1.4190   18.7720  -36.7900 Cl  0  0  0  0  0  0  0  0  0  0  0  0
    0.3630   20.9470  -35.4950 C   0  0  0  0  0  0  0  0  0  0  0  0
    1.2060   21.7060  -36.2400 F   0  0  0  0  0  0  0  0  0  0  0  0
   -0.4900   21.5640  -34.5720 C   0  0  0  0  0  0  0  0  0  0  0  0
   -4.5060   22.0930  -31.9460 C   0  0  0  0  0  0  0  0  0  0  0  0
   -3.9160   23.1180  -31.4050 N   0  0  0  0  0  0  0  0  0  0  0  0
   -4.7680   24.2930  -30.4840 S   0  0  0  0  0  0  0  0  0  0  0  0
   -4.5660   24.0430  -29.0160 O   0  0  0  0  0  0  0  0  0  0  0  0
   -4.3070   25.6760  -30.8470 O   0  0  0  0  0  0  0  0  0  0  0  0
   -6.4000   24.1050  -30.8870 O   0  0  0  0  0  0  0  0  0  0  0  0
   -6.8660   22.8670  -31.3180 C   0  0  0  0  0  0  0  0  0  0  0  0
   -8.2450   22.6350  -31.2730 C   0  0  0  0  0  0  0  0  0  0  0  0
   -8.7660   21.3880  -31.6140 C   0  0  0  0  0  0  0  0  0  0  0  0
   -7.9100   20.3560  -31.9950 C   0  0  0  0  0  0  0  0  0  0  0  0
   -8.5640   18.7740  -32.3790 Cl  0  0  0  0  0  0  0  0  0  0  0  0
   -6.5320   20.5790  -32.0700 C   0  0  0  0  0  0  0  0  0  0  0  0
   -5.9850   21.8490  -31.7790 C   0  0  0  0  0  0  0  0  0  0  0  0
   -1.8000   21.9290  -32.0350 H   0  0  0  0  0  0  0  0  0  0  0  0
   -2.0207   18.7808  -33.3017 H   0  0  0  0  0  0  0  0  0  0  0  0
   -0.5112   17.6861  -34.9551 H   0  0  0  0  0  0  0  0  0  0  0  0
   -0.4709   22.6577  -34.4556 H   0  0  0  0  0  0  0  0  0  0  0  0
   -8.9241   23.4440  -30.9658 H   0  0  0  0  0  0  0  0  0  0  0  0
   -9.8524   21.2183  -31.5825 H   0  0  0  0  0  0  0  0  0  0  0  0
   -5.8642   19.7543  -32.3596 H   0  0  0  0  0  0  0  0  0  0  0  0
  1  2  2  0
  2  3  1  0
  3  4  1  0
  4  5  2  0
  5  6  1  0
  6  7  2  0
  7  8  1  0
  7  9  1  0
  9 10  1  0
  9 11  2  0
  2 12  1  0
 12 13  2  0
 13 14  1  0
 14 15  2  0
 14 16  2  0
 14 17  1  0
 17 18  1  0
 18 19  2  0
 19 20  1  0
 20 21  2  0
 21 22  1  0
 21 23  1  0
 23 24  2  0
 11  4  1  0
 24 12  1  0
 24 18  1  0
  3 25  1  0
  5 26  1  0
  6 27  1  0
 11 28  1  0
 19 29  1  0
 20 30  1  0
 23 31  1  0
M  END
>  <UniqueID>  (7) 
5

>  <SMILES>  (7) 
O=C(Nc1ccc(Cl)c(F)c1)C1=NS(=O)(=O)Oc2ccc(Cl)cc21

>  <Energy>  (7) 
47.704729822491224

>  <Genealogy>  (7) 
O=C(Nc1ccc(Cl)c(F)c1)C1=NS(=O)(=O)Oc2ccc(Cl)cc21 (3D coordinates assigned)
O=C(Nc1ccc(Cl)c(F)c1)C1=NS(=O)(=O)Oc2ccc(Cl)cc21 (nonaromatic ring conformer: 47.704729822491224 kcal/mol)

>  <smiles>  (7) 
O=C(Nc1ccc(Cl)c(F)c1)C1=NS(=O)(=O)Oc2ccc(Cl)cc21

>  <score_type>  (7) 
oracle

>  <origin>  (7) 
adg

>  <m_score__min__energy>  (7) 
-8.75

>  <m_primary>  (7) 
energy

$$$$
7:0
     RDKit          3D

 42 44  0  0  0  0  0  0  0  0999 V2000
   -5.3540   14.8720  -33.4600 C   0  0  0  0  0  0  0  0  0  0  0  0
   -6.5630   15.7330  -33.8210 C   0  0  0  0  0  0  0  0  0  0  0  0
   -6.3770   17.1150  -33.3240 N   0  0  0  0  0  0  0  0  0  0  0  0
   -5.9230   18.0170  -34.4150 C   0  0  0  0  0  0  0  0  0  0  0  0
   -4.4620   18.3460  -34.2530 C   0  0  0  0  0  0  0  0  0  0  0  0
   -4.0590   19.5730  -33.7050 C   0  0  0  0  0  0  0  0  0  0  0  0
   -2.6990   19.8300  -33.5160 C   0  0  0  0  0  0  0  0  0  0  0  0
   -1.7710   18.9000  -33.8710 N   0  0  0  0  0  0  0  0  0  0  0  0
   -2.1340   17.7110  -34.4230 C   0  0  0  0  0  0  0  0  0  0  0  0
   -3.4830   17.4150  -34.6290 C   0  0  0  0  0  0  0  0  0  0  0  0
   -7.6240   17.6050  -32.6880 C   0  0  0  0  0  0  0  0  0  0  0  0
   -7.5690   19.0850  -32.4550 C   0  0  0  0  0  0  0  0  0  0  0  0
   -8.5610   19.9930  -32.7480 C   0  0  0  0  0  0  0  0  0  0  0  0
   -8.1010   21.1830  -32.4520 O   0  0  0  0  0  0  0  0  0  0  0  0
   -6.8770   21.0260  -31.9950 C   0  0  0  0  0  0  0  0  0  0  0  0
   -6.0010   22.1460  -31.5980 C   0  0  0  0  0  0  0  0  0  0  0  0
   -4.6130   21.9520  -31.4870 C   0  0  0  0  0  0  0  0  0  0  0  0
   -3.7830   23.0030  -31.0860 C   0  0  0  0  0  0  0  0  0  0  0  0
   -4.3310   24.2560  -30.7900 C   0  0  0  0  0  0  0  0  0  0  0  0
   -3.5050   25.2990  -30.3910 O   0  0  0  0  0  0  0  0  0  0  0  0
   -5.7100   24.4560  -30.8960 C   0  0  0  0  0  0  0  0  0  0  0  0
   -6.5430   23.4070  -31.2980 C   0  0  0  0  0  0  0  0  0  0  0  0
   -6.4960   19.7310  -31.9620 N   0  0  0  0  0  0  0  0  0  0  0  0
   -5.2634   14.8075  -32.3656 H   0  0  0  0  0  0  0  0  0  0  0  0
   -5.4850   13.8626  -33.8772 H   0  0  0  0  0  0  0  0  0  0  0  0
   -4.4430   15.3258  -33.8772 H   0  0  0  0  0  0  0  0  0  0  0  0
   -6.6803   15.7534  -34.9145 H   0  0  0  0  0  0  0  0  0  0  0  0
   -7.4609   15.3027  -33.3534 H   0  0  0  0  0  0  0  0  0  0  0  0
   -6.0769   17.5194  -35.3839 H   0  0  0  0  0  0  0  0  0  0  0  0
   -6.5049   18.9495  -34.3714 H   0  0  0  0  0  0  0  0  0  0  0  0
   -4.8090   20.3277  -33.4260 H   0  0  0  0  0  0  0  0  0  0  0  0
   -2.3772   20.7868  -33.0790 H   0  0  0  0  0  0  0  0  0  0  0  0
   -0.7590   19.1040  -33.7160 H   0  0  0  0  0  0  0  0  0  0  0  0
   -1.3626   16.9805  -34.7080 H   0  0  0  0  0  0  0  0  0  0  0  0
   -3.7760   16.4571  -35.0836 H   0  0  0  0  0  0  0  0  0  0  0  0
   -8.4757   17.3768  -33.3457 H   0  0  0  0  0  0  0  0  0  0  0  0
   -7.7392   17.1036  -31.7157 H   0  0  0  0  0  0  0  0  0  0  0  0
   -9.5563   19.7619  -33.1555 H   0  0  0  0  0  0  0  0  0  0  0  0
   -4.1779   20.9682  -31.7168 H   0  0  0  0  0  0  0  0  0  0  0  0
   -2.6976   22.8447  -31.0031 H   0  0  0  0  0  0  0  0  0  0  0  0
   -6.1412   25.4407  -30.6627 H   0  0  0  0  0  0  0  0  0  0  0  0
   -7.6278   23.5700  -31.3797 H   0  0  0  0  0  0  0  0  0  0  0  0
  1  2  1  0
  2  3  1  0
  3  4  1  0
  4  5  1  0
  5  6  2  0
  6  7  1  0
  7  8  2  0
  8  9  1  0
  9 10  2  0
  3 11  1  0
 11 12  1  0
 12 13  2  0
 13 14  1  0
 14 15  1  0
 15 16  1  0
 16 17  2  0
 17 18  1  0
 18 19  2  0
 19 20  1  0
 19 21  1  0
 21 22  2  0
 15 23  2  0
 10  5  1  0
 23 12  1  0
 22 16  1  0
  1 24  1  0
  1 25  1  0
  1 26  1  0
  2 27  1  0
  2 28  1  0
  4 29  1  0
  4 30  1  0
  6 31  1  0
  7 32  1  0
  8 33  1  0
  9 34  1  0
 10 35  1  0
 11 36  1  0
 11 37  1  0
 13 38  1  0
 17 39  1  0
 18 40  1  0
 21 41  1  0
 22 42  1  0
M  CHG  2   8   1  20  -1
M  END
>  <UniqueID>  (8) 
6

>  <SMILES>  (8) 
CCN(Cc1cc[nH+]cc1)Cc1coc(-c2ccc([O-])cc2)n1

>  <Energy>  (8) 
71.04555340719169

>  <Genealogy>  (8) 
CCN(Cc1cc[nH+]cc1)Cc1coc(-c2ccc([O-])cc2)n1 (protonated)
CCN(Cc1cc[nH+]cc1)Cc1coc(-c2ccc([O-])cc2)n1 (3D coordinates assigned)
CCN(Cc1cc[nH+]cc1)Cc1coc(-c2ccc([O-])cc2)n1 (optimized conformer: 71.04555340719169 kcal/mol)

>  <smiles>  (8) 
CCN(Cc1ccncc1)Cc1coc(-c2ccc(O)cc2)n1

>  <score_type>  (8) 
oracle

>  <origin>  (8) 
adg

>  <m_score__min__energy>  (8) 
-9.6799999999999997

>  <m_primary>  (8) 
energy

$$$$
8:0
     RDKit          3D

 45 47  0  0  0  0  0  0  0  0999 V2000
   -1.8020   20.2120  -34.2060 C   0  0  0  0  0  0  0  0  0  0  0  0
   -2.6150   20.5120  -33.0320 N   0  0  0  0  0  0  0  0  0  0  0  0
   -2.4070   21.5210  -32.1630 C   0  0  0  0  0  0  0  0  0  0  0  0
   -3.2800   21.4770  -31.1370 N   0  0  0  0  0  0  0  0  0  0  0  0
   -3.3970   22.4360  -30.0420 C   0  0  0  0  0  0  0  0  0  0  0  0
   -4.6910   23.1940  -30.1620 C   0  0  0  0  0  0  0  0  0  0  0  0
   -5.9090   22.4960  -30.2020 C   0  0  0  0  0  0  0  0  0  0  0  0
   -7.1150   23.1880  -30.3540 C   0  0  0  0  0  0  0  0  0  0  0  0
   -7.1120   24.5800  -30.4780 C   0  0  0  0  0  0  0  0  0  0  0  0
   -5.9040   25.2810  -30.4550 C   0  0  0  0  0  0  0  0  0  0  0  0
   -4.6950   24.5940  -30.3030 C   0  0  0  0  0  0  0  0  0  0  0  0
   -3.5310   25.2940  -30.2980 F   0  0  0  0  0  0  0  0  0  0  0  0
   -4.0710   20.4090  -31.3580 C   0  0  0  0  0  0  0  0  0  0  0  0
   -3.6520   19.8040  -32.5270 C   0  0  0  0  0  0  0  0  0  0  0  0
   -4.2240   18.5390  -33.1080 C   0  0  0  0  0  0  0  0  0  0  0  0
   -5.5060   18.7920  -33.9400 C   0  0  0  0  0  0  0  0  0  0  0  0
   -6.4980   17.6090  -33.8750 C   0  0  0  0  0  0  0  0  0  0  0  0
   -7.1250   17.4340  -32.4780 C   0  0  0  0  0  0  0  0  0  0  0  0
   -7.4010   18.7680  -31.7540 C   0  0  0  0  0  0  0  0  0  0  0  0
   -7.4970   19.9450  -32.7280 C   0  0  0  0  0  0  0  0  0  0  0  0
   -6.1910   20.1290  -33.5240 C   0  0  0  0  0  0  0  0  0  0  0  0
   -0.8149   19.8478  -33.8851 H   0  0  0  0  0  0  0  0  0  0  0  0
   -2.3000   19.4384  -34.8090 H   0  0  0  0  0  0  0  0  0  0  0  0
   -1.6782   21.1237  -34.8090 H   0  0  0  0  0  0  0  0  0  0  0  0
   -1.6233   22.2844  -32.2768 H   0  0  0  0  0  0  0  0  0  0  0  0
   -3.3767   21.8985  -29.0825 H   0  0  0  0  0  0  0  0  0  0  0  0
   -2.5565   23.1441  -30.0891 H   0  0  0  0  0  0  0  0  0  0  0  0
   -5.9146   21.3996  -30.1133 H   0  0  0  0  0  0  0  0  0  0  0  0
   -8.0664   22.6362  -30.3759 H   0  0  0  0  0  0  0  0  0  0  0  0
   -8.0612   25.1238  -30.5937 H   0  0  0  0  0  0  0  0  0  0  0  0
   -5.9034   26.3763  -30.5567 H   0  0  0  0  0  0  0  0  0  0  0  0
   -4.9035   20.0773  -30.7201 H   0  0  0  0  0  0  0  0  0  0  0  0
   -3.4672   18.0766  -33.7588 H   0  0  0  0  0  0  0  0  0  0  0  0
   -4.4954   17.8804  -32.2698 H   0  0  0  0  0  0  0  0  0  0  0  0
   -5.1909   18.8804  -34.9902 H   0  0  0  0  0  0  0  0  0  0  0  0
   -7.3038   17.7852  -34.6027 H   0  0  0  0  0  0  0  0  0  0  0  0
   -5.9361   16.6915  -34.1041 H   0  0  0  0  0  0  0  0  0  0  0  0
   -8.0774   16.8950  -32.5892 H   0  0  0  0  0  0  0  0  0  0  0  0
   -6.3993   16.8785  -31.8657 H   0  0  0  0  0  0  0  0  0  0  0  0
   -8.3508   18.6836  -31.2055 H   0  0  0  0  0  0  0  0  0  0  0  0
   -6.5606   18.9621  -31.0713 H   0  0  0  0  0  0  0  0  0  0  0  0
   -8.3214   19.7595  -33.4323 H   0  0  0  0  0  0  0  0  0  0  0  0
   -7.6772   20.8605  -32.1454 H   0  0  0  0  0  0  0  0  0  0  0  0
   -6.4200   20.6985  -34.4368 H   0  0  0  0  0  0  0  0  0  0  0  0
   -5.4868   20.6537  -32.8616 H   0  0  0  0  0  0  0  0  0  0  0  0
  1  2  1  0
  2  3  1  0
  3  4  2  0
  4  5  1  0
  5  6  1  0
  6  7  2  0
  7  8  1  0
  8  9  2  0
  9 10  1  0
 10 11  2  0
 11 12  1  0
  4 13  1  0
 13 14  2  0
 14 15  1  0
 15 16  1  0
 16 17  1  0
 17 18  1  0
 18 19  1  0
 19 20  1  0
 20 21  1  0
 14  2  1  0
 21 16  1  0
 11  6  1  0
  1 22  1  0
  1 23  1  0
  1 24  1  0
  3 25  1  0
  5 26  1  0
  5 27  1  0
  7 28  1  0
  8 29  1  0
  9 30  1  0
 10 31  1  0
 13 32  1  0
 15 33  1  0
 15 34  1  0
 16 35  1  0
 17 36  1  0
 17 37  1  0
 18 38  1  0
 18 39  1  0
 19 40  1  0
 19 41  1  0
 20 42  1  0
 20 43  1  0
 21 44  1  0
 21 45  1  0
M  CHG  1   4   1
M  END
>  <UniqueID>  (9) 
7

>  <SMILES>  (9) 
Cn1c[n+](Cc2ccccc2F)cc1CC1CCCCC1

>  <Energy>  (9) 
75.54375804104154

>  <Genealogy>  (9) 
Cn1c[n+](Cc2ccccc2F)cc1CC1CCCCC1 (3D coordinates assigned)
Cn1c[n+](Cc2ccccc2F)cc1CC1CCCCC1 (nonaromatic ring conformer: 75.54375804104154 kcal/mol)

>  <smiles>  (9) 
Cn1c[n+](Cc2ccccc2F)cc1CC1CCCCC1

>  <score_type>  (9) 
oracle

>  <origin>  (9) 
adg

>  <m_score__min__energy>  (9) 
-7.0899999999999999

>  <m_primary>  (9) 
energy

$$$$
9:0
     RDKit          3D

 43 45  0  0  0  0  0  0  0  0999 V2000
   -4.0760   25.6130  -30.6530 O   0  0  0  0  0  0  0  0  0  0  0  0
   -3.6300   24.8530  -29.7270 C   0  0  0  0  0  0  0  0  0  0  0  0
   -4.5690   23.8890  -29.1020 C   0  0  0  0  0  0  0  0  0  0  0  0
   -5.4550   23.4230  -30.1880 N   0  0  0  0  0  0  0  0  0  0  0  0
   -6.6880   23.9240  -30.3670 C   0  0  0  0  0  0  0  0  0  0  0  0
   -7.5310   23.4680  -31.3600 C   0  0  0  0  0  0  0  0  0  0  0  0
   -7.0350   22.4650  -32.1630 C   0  0  0  0  0  0  0  0  0  0  0  0
   -5.8030   21.9050  -32.0500 C   0  0  0  0  0  0  0  0  0  0  0  0
   -5.1000   20.9790  -32.7530 N   0  0  0  0  0  0  0  0  0  0  0  0
   -4.3900   20.0460  -33.4610 C   0  0  0  0  0  0  0  0  0  0  0  0
   -5.2120   18.7630  -33.6110 C   0  0  0  0  0  0  0  0  0  0  0  0
   -6.4170   18.6030  -32.9870 C   0  0  0  0  0  0  0  0  0  0  0  0
   -7.1370   17.4120  -33.1020 C   0  0  0  0  0  0  0  0  0  0  0  0
   -6.5930   16.3720  -33.8800 C   0  0  0  0  0  0  0  0  0  0  0  0
   -7.2720   15.1880  -34.0030 F   0  0  0  0  0  0  0  0  0  0  0  0
   -5.3760   16.5140  -34.5190 C   0  0  0  0  0  0  0  0  0  0  0  0
   -4.7240   17.7090  -34.3640 C   0  0  0  0  0  0  0  0  0  0  0  0
   -5.0270   22.4760  -30.9690 C   0  0  0  0  0  0  0  0  0  0  0  0
   -3.8510   22.0190  -30.7790 O   0  0  0  0  0  0  0  0  0  0  0  0
   -2.2680   24.9490  -29.3220 N   0  0  0  0  0  0  0  0  0  0  0  0
   -1.9450   25.3410  -27.9670 C   0  0  0  0  0  0  0  0  0  0  0  0
   -0.8770   26.2080  -27.8510 C   0  0  0  0  0  0  0  0  0  0  0  0
   -0.5010   26.6560  -26.5990 C   0  0  0  0  0  0  0  0  0  0  0  0
   -1.2050   26.2220  -25.5100 C   0  0  0  0  0  0  0  0  0  0  0  0
   -0.7610   26.7790  -23.7500 Br  0  0  0  0  0  0  0  0  0  0  0  0
   -2.2910   25.3370  -25.6460 C   0  0  0  0  0  0  0  0  0  0  0  0
   -2.6710   24.8870  -26.8880 C   0  0  0  0  0  0  0  0  0  0  0  0
   -4.0160   23.0421  -28.6696 H   0  0  0  0  0  0  0  0  0  0  0  0
   -5.1414   24.3546  -28.2862 H   0  0  0  0  0  0  0  0  0  0  0  0
   -7.0380   24.7251  -29.6994 H   0  0  0  0  0  0  0  0  0  0  0  0
   -8.5404   23.8816  -31.5019 H   0  0  0  0  0  0  0  0  0  0  0  0
   -7.6904   22.0865  -32.9612 H   0  0  0  0  0  0  0  0  0  0  0  0
   -4.6180   20.4410  -31.6050 H   0  0  0  0  0  0  0  0  0  0  0  0
   -4.1557   20.4468  -34.4582 H   0  0  0  0  0  0  0  0  0  0  0  0
   -3.4590   19.8165  -32.9220 H   0  0  0  0  0  0  0  0  0  0  0  0
   -6.8269   19.4264  -32.3837 H   0  0  0  0  0  0  0  0  0  0  0  0
   -8.1063   17.2892  -32.5967 H   0  0  0  0  0  0  0  0  0  0  0  0
   -4.9489   15.7023  -35.1262 H   0  0  0  0  0  0  0  0  0  0  0  0
   -3.7549   17.8386  -34.8680 H   0  0  0  0  0  0  0  0  0  0  0  0
   -0.3306   26.5390  -28.7465 H   0  0  0  0  0  0  0  0  0  0  0  0
    0.3466   27.3471  -26.4809 H   0  0  0  0  0  0  0  0  0  0  0  0
   -2.8392   25.0033  -24.7526 H   0  0  0  0  0  0  0  0  0  0  0  0
   -3.5169   24.1953  -27.0146 H   0  0  0  0  0  0  0  0  0  0  0  0
  1  2  2  0
  2  3  1  0
  3  4  1  0
  4  5  1  0
  5  6  2  0
  6  7  1  0
  7  8  2  0
  8  9  1  0
  9 10  1  0
 10 11  1  0
 11 12  2  0
 12 13  1  0
 13 14  2  0
 14 15  1  0
 14 16  1  0
 16 17  2  0
  8 18  1  0
 18 19  2  0
  2 20  1  0
 20 21  1  0
 21 22  2  0
 22 23  1  0
 23 24  2  0
 24 25  1  0
 24 26  1  0
 26 27  2  0
 18  4  1  0
 27 21  1  0
 17 11  1  0
  3 28  1  0
  3 29  1  0
  5 30  1  0
  6 31  1  0
  7 32  1  0
  9 33  1  0
 10 34  1  0
 10 35  1  0
 12 36  1  0
 13 37  1  0
 16 38  1  0
 17 39  1  0
 22 40  1  0
 23 41  1  0
 26 42  1  0
 27 43  1  0
M  CHG  1  20  -1
M  END
>  <UniqueID>  (10) 
8

>  <SMILES>  (10) 
O=C(Cn1cccc(NCc2ccc(F)cc2)c1=O)[N-]c1ccc(Br)cc1

>  <Energy>  (10) 
228.72786742572683

>  <Genealogy>  (10) 
O=C(Cn1cccc(NCc2ccc(F)cc2)c1=O)[N-]c1ccc(Br)cc1 (protonated)
O=C(Cn1cccc(NCc2ccc(F)cc2)c1=O)[N-]c1ccc(Br)cc1 (3D coordinates assigned)
O=C(Cn1cccc(NCc2ccc(F)cc2)c1=O)[N-]c1ccc(Br)cc1 (optimized conformer: 228.72786742572683 kcal/mol)

>  <smiles>  (10) 
O=C(Cn1cccc(NCc2ccc(F)cc2)c1=O)Nc1ccc(Br)cc1

>  <score_type>  (10) 
oracle

>  <origin>  (10) 
adg

>  <m_score__min__energy>  (10) 
-10.51

>  <m_primary>  (10) 
energy

$$$$
10:0
     RDKit          3D

 50 52  0  0  0  0  0  0  0  0999 V2000
   -7.1200   18.0230  -31.5900 C   0  0  0  0  0  0  0  0  0  0  0  0
   -8.4470   17.8380  -32.0260 O   0  0  0  0  0  0  0  0  0  0  0  0
   -9.1000   19.0880  -32.0910 C   0  0  0  0  0  0  0  0  0  0  0  0
   -8.2410   20.1560  -31.4070 C   0  0  0  0  0  0  0  0  0  0  0  0
   -7.6120   21.1570  -32.3910 C   0  0  0  0  0  0  0  0  0  0  0  0
   -6.1460   21.2580  -32.2160 N   0  0  0  0  0  0  0  0  0  0  0  0
   -5.5910   22.0830  -31.2610 C   0  0  0  0  0  0  0  0  0  0  0  0
   -6.5890   22.9630  -30.0410 S   0  0  0  0  0  0  0  0  0  0  0  0
   -6.0490   24.6420  -30.5370 C   0  0  0  0  0  0  0  0  0  0  0  0
   -4.6430   24.9260  -30.1110 C   0  0  0  0  0  0  0  0  0  0  0  0
   -3.8920   25.6180  -30.8490 O   0  0  0  0  0  0  0  0  0  0  0  0
   -4.1770   24.3960  -28.8630 N   0  0  0  0  0  0  0  0  0  0  0  0
   -3.0460   23.5450  -28.6210 C   0  0  0  0  0  0  0  0  0  0  0  0
   -1.8030   23.9440  -29.1270 C   0  0  0  0  0  0  0  0  0  0  0  0
   -0.6800   23.1320  -28.9700 C   0  0  0  0  0  0  0  0  0  0  0  0
   -0.7910   21.9000  -28.3220 C   0  0  0  0  0  0  0  0  0  0  0  0
   -2.0360   21.4590  -27.8430 C   0  0  0  0  0  0  0  0  0  0  0  0
   -2.1570   20.1400  -27.1210 C   0  0  0  0  0  0  0  0  0  0  0  0
   -1.4560   19.1750  -27.8190 F   0  0  0  0  0  0  0  0  0  0  0  0
   -1.6390   20.2380  -25.8420 F   0  0  0  0  0  0  0  0  0  0  0  0
   -3.4820   19.7500  -27.0220 F   0  0  0  0  0  0  0  0  0  0  0  0
   -3.1570   22.2980  -27.9770 C   0  0  0  0  0  0  0  0  0  0  0  0
   -4.2430   22.2180  -31.1710 N   0  0  0  0  0  0  0  0  0  0  0  0
   -3.4030   21.5320  -31.9810 C   0  0  0  0  0  0  0  0  0  0  0  0
   -2.0190   21.6830  -31.8440 C   0  0  0  0  0  0  0  0  0  0  0  0
   -1.1510   20.9540  -32.6610 C   0  0  0  0  0  0  0  0  0  0  0  0
   -1.6630   20.0720  -33.6160 C   0  0  0  0  0  0  0  0  0  0  0  0
   -3.0450   19.9170  -33.7600 C   0  0  0  0  0  0  0  0  0  0  0  0
   -3.9270   20.6490  -32.9410 C   0  0  0  0  0  0  0  0  0  0  0  0
   -5.3220   20.5350  -33.0480 C   0  0  0  0  0  0  0  0  0  0  0  0
   -5.8170   19.7560  -33.9120 O   0  0  0  0  0  0  0  0  0  0  0  0
   -7.0925   18.0268  -30.4904 H   0  0  0  0  0  0  0  0  0  0  0  0
   -6.4917   17.2038  -31.9696 H   0  0  0  0  0  0  0  0  0  0  0  0
   -6.7398   18.9828  -31.9696 H   0  0  0  0  0  0  0  0  0  0  0  0
   -9.2567   19.3642  -33.1442 H   0  0  0  0  0  0  0  0  0  0  0  0
  -10.0709   19.0186  -31.5786 H   0  0  0  0  0  0  0  0  0  0  0  0
   -8.8741   20.7127  -30.7005 H   0  0  0  0  0  0  0  0  0  0  0  0
   -7.4146   19.6338  -30.9026 H   0  0  0  0  0  0  0  0  0  0  0  0
   -7.8253   20.8271  -33.4184 H   0  0  0  0  0  0  0  0  0  0  0  0
   -8.0473   22.1477  -32.1934 H   0  0  0  0  0  0  0  0  0  0  0  0
   -6.1126   24.7268  -31.6319 H   0  0  0  0  0  0  0  0  0  0  0  0
   -6.7081   25.3712  -30.0431 H   0  0  0  0  0  0  0  0  0  0  0  0
   -1.7114   24.9059  -29.6527 H   0  0  0  0  0  0  0  0  0  0  0  0
    0.2950   23.4627  -29.3573 H   0  0  0  0  0  0  0  0  0  0  0  0
    0.1013   21.2713  -28.1858 H   0  0  0  0  0  0  0  0  0  0  0  0
   -4.1292   21.9769  -27.5750 H   0  0  0  0  0  0  0  0  0  0  0  0
   -1.6137   22.3763  -31.0923 H   0  0  0  0  0  0  0  0  0  0  0  0
   -0.0631   21.0747  -32.5522 H   0  0  0  0  0  0  0  0  0  0  0  0
   -0.9770   19.4980  -34.2563 H   0  0  0  0  0  0  0  0  0  0  0  0
   -3.4442   19.2225  -34.5139 H   0  0  0  0  0  0  0  0  0  0  0  0
  1  2  1  0
  2  3  1  0
  3  4  1  0
  4  5  1  0
  5  6  1  0
  6  7  1  0
  7  8  1  0
  8  9  1  0
  9 10  1  0
 10 11  2  0
 10 12  1  0
 12 13  1  0
 13 14  2  0
 14 15  1  0
 15 16  2  0
 16 17  1  0
 17 18  1  0
 18 19  1  0
 18 20  1  0
 18 21  1  0
 17 22  2  0
  7 23  2  0
 23 24  1  0
 24 25  2  0
 25 26  1  0
 26 27  2  0
 27 28  1  0
 28 29  2  0
 29 30  1  0
 30 31  2  0
 30  6  1  0
 22 13  1  0
 29 24  1  0
  1 32  1  0
  1 33  1  0
  1 34  1  0
  3 35  1  0
  3 36  1  0
  4 37  1  0
  4 38  1  0
  5 39  1  0
  5 40  1  0
  9 41  1  0
  9 42  1  0
 14 43  1  0
 15 44  1  0
 16 45  1  0
 22 46  1  0
 25 47  1  0
 26 48  1  0
 27 49  1  0
 28 50  1  0
M  CHG  1  12  -1
M  END
>  <UniqueID>  (11) 
9

>  <SMILES>  (11) 
COCCCn1c(SCC(=O)[N-]c2cccc(C(F)(F)F)c2)nc2ccccc2c1=O

>  <Energy>  (11) 
53.728936399677444

>  <Genealogy>  (11) 
COCCCn1c(SCC(=O)[N-]c2cccc(C(F)(F)F)c2)nc2ccccc2c1=O (protonated)
COCCCn1c(SCC(=O)[N-]c2cccc(C(F)(F)F)c2)nc2ccccc2c1=O (3D coordinates assigned)
COCCCn1c(SCC(=O)[N-]c2cccc(C(F)(F)F)c2)nc2ccccc2c1=O (optimized conformer: 53.728936399677444 kcal/mol)

>  <smiles>  (11) 
COCCCn1c(SCC(=O)Nc2cccc(C(F)(F)F)c2)nc2ccccc2c1=O

>  <score_type>  (11) 
oracle

>  <origin>  (11) 
adg

>  <m_score__min__energy>  (11) 
-9.9000000000000004

>  <m_primary>  (11) 
energy

$$$$
11:0
     RDKit          3D

 32 34  0  0  0  0  0  0  0  0999 V2000
   -1.8780   25.0400  -28.1900 C   0  0  0  0  0  0  0  0  0  0  0  0
   -2.6740   25.2990  -29.3410 O   0  0  0  0  0  0  0  0  0  0  0  0
   -3.4960   24.3500  -29.9660 C   0  0  0  0  0  0  0  0  0  0  0  0
   -3.0000   23.0560  -30.1480 C   0  0  0  0  0  0  0  0  0  0  0  0
   -3.7780   22.0740  -30.7650 C   0  0  0  0  0  0  0  0  0  0  0  0
   -5.0810   22.3690  -31.2140 C   0  0  0  0  0  0  0  0  0  0  0  0
   -5.9290   21.3420  -31.8770 C   0  0  0  0  0  0  0  0  0  0  0  0
   -7.3010   21.4780  -32.1040 C   0  0  0  0  0  0  0  0  0  0  0  0
   -7.8370   20.0890  -32.8830 S   0  0  0  0  0  0  0  0  0  0  0  0
   -6.3170   19.3650  -32.9070 C   0  0  0  0  0  0  0  0  0  0  0  0
   -5.9970   18.0370  -33.4760 C   0  0  0  0  0  0  0  0  0  0  0  0
   -6.8840   16.9560  -33.3410 C   0  0  0  0  0  0  0  0  0  0  0  0
   -6.5520   15.7160  -33.8900 C   0  0  0  0  0  0  0  0  0  0  0  0
   -5.3760   15.5510  -34.5530 N   0  0  0  0  0  0  0  0  0  0  0  0
   -4.4980   16.5790  -34.7000 C   0  0  0  0  0  0  0  0  0  0  0  0
   -4.7900   17.8360  -34.1660 C   0  0  0  0  0  0  0  0  0  0  0  0
   -5.3990   20.1710  -32.3270 N   0  0  0  0  0  0  0  0  0  0  0  0
   -5.5740   23.6740  -31.0350 C   0  0  0  0  0  0  0  0  0  0  0  0
   -4.7930   24.6550  -30.4170 C   0  0  0  0  0  0  0  0  0  0  0  0
   -2.4705   25.2328  -27.2835 H   0  0  0  0  0  0  0  0  0  0  0  0
   -1.5520   23.9894  -28.1985 H   0  0  0  0  0  0  0  0  0  0  0  0
   -0.9962   25.6976  -28.1985 H   0  0  0  0  0  0  0  0  0  0  0  0
   -1.9858   22.8084  -29.8015 H   0  0  0  0  0  0  0  0  0  0  0  0
   -3.3703   21.0615  -30.9017 H   0  0  0  0  0  0  0  0  0  0  0  0
   -7.9209   22.3420  -31.8224 H   0  0  0  0  0  0  0  0  0  0  0  0
   -7.8358   17.0860  -32.8052 H   0  0  0  0  0  0  0  0  0  0  0  0
   -7.2451   14.8682  -33.7858 H   0  0  0  0  0  0  0  0  0  0  0  0
   -5.1430   14.6170  -34.9580 H   0  0  0  0  0  0  0  0  0  0  0  0
   -3.5540   16.4198  -35.2417 H   0  0  0  0  0  0  0  0  0  0  0  0
   -4.0775   18.6655  -34.2853 H   0  0  0  0  0  0  0  0  0  0  0  0
   -6.5859   23.9257  -31.3854 H   0  0  0  0  0  0  0  0  0  0  0  0
   -5.1946   25.6702  -30.2828 H   0  0  0  0  0  0  0  0  0  0  0  0
  1  2  1  0
  2  3  1  0
  3  4  2  0
  4  5  1  0
  5  6  2  0
  6  7  1  0
  7  8  2  0
  8  9  1  0
  9 10  1  0
 10 11  1  0
 11 12  2  0
 12 13  1  0
 13 14  2  0
 14 15  1  0
 15 16  2  0
 10 17  2  0
  6 18  1  0
 18 19  2  0
 19  3  1  0
 17  7  1  0
 16 11  1  0
  1 20  1  0
  1 21  1  0
  1 22  1  0
  4 23  1  0
  5 24  1  0
  8 25  1  0
 12 26  1  0
 13 27  1  0
 14 28  1  0
 15 29  1  0
 16 30  1  0
 18 31  1  0
 19 32  1  0
M  CHG  1  14   1
M  END
>  <UniqueID>  (12) 
10

>  <SMILES>  (12) 
COc1ccc(-c2csc(-c3cc[nH+]cc3)n2)cc1

>  <Energy>  (12) 
66.79229044603942

>  <Genealogy>  (12) 
COc1ccc(-c2csc(-c3cc[nH+]cc3)n2)cc1 (protonated)
COc1ccc(-c2csc(-c3cc[nH+]cc3)n2)cc1 (3D coordinates assigned)
COc1ccc(-c2csc(-c3cc[nH+]cc3)n2)cc1 (optimized conformer: 66.79229044603942 kcal/mol)

>  <smiles>  (12) 
COc1ccc(-c2csc(-c3ccncc3)n2)cc1

>  <score_type>  (12) 
oracle

>  <origin>  (12) 
adg

>  <m_score__min__energy>  (12) 
-6.5700000000000003

>  <m_primary>  (12) 
energy

$$$$
12:0
     RDKit          3D

 41 44  0  0  0  0  0  0  0  0999 V2000
    1.5590   20.4520  -34.8130 O   0  0  0  0  0  0  0  0  0  0  0  0
    0.7680   21.3770  -34.5340 N   0  0  0  0  0  0  0  0  0  0  0  0
    0.9930   22.6250  -35.0690 O   0  0  0  0  0  0  0  0  0  0  0  0
   -0.3610   21.1450  -33.6710 C   0  0  0  0  0  0  0  0  0  0  0  0
   -0.2300   21.2750  -32.2790 C   0  0  0  0  0  0  0  0  0  0  0  0
   -1.3240   21.0500  -31.4390 C   0  0  0  0  0  0  0  0  0  0  0  0
   -2.5750   20.7030  -31.9740 C   0  0  0  0  0  0  0  0  0  0  0  0
   -3.7330   20.4330  -31.0430 C   0  0  0  0  0  0  0  0  0  0  0  0
   -4.9010   21.2560  -31.3790 N   0  0  0  0  0  0  0  0  0  0  0  0
   -6.0360   20.9060  -32.0560 C   0  0  0  0  0  0  0  0  0  0  0  0
   -6.2880   19.5900  -32.6830 C   0  0  0  0  0  0  0  0  0  0  0  0
   -7.0320   18.5990  -32.0210 C   0  0  0  0  0  0  0  0  0  0  0  0
   -7.2370   17.3520  -32.6180 C   0  0  0  0  0  0  0  0  0  0  0  0
   -6.6890   17.0790  -33.8730 C   0  0  0  0  0  0  0  0  0  0  0  0
   -5.9300   18.0500  -34.5310 C   0  0  0  0  0  0  0  0  0  0  0  0
   -5.7240   19.2980  -33.9360 C   0  0  0  0  0  0  0  0  0  0  0  0
   -6.9590   21.9020  -32.0660 N   0  0  0  0  0  0  0  0  0  0  0  0
   -6.3830   22.9020  -31.3810 C   0  0  0  0  0  0  0  0  0  0  0  0
   -6.9100   24.1560  -31.0850 C   0  0  0  0  0  0  0  0  0  0  0  0
   -6.1170   25.0330  -30.3210 C   0  0  0  0  0  0  0  0  0  0  0  0
   -4.8350   24.6350  -29.8770 C   0  0  0  0  0  0  0  0  0  0  0  0
   -4.3340   23.3570  -30.1920 C   0  0  0  0  0  0  0  0  0  0  0  0
   -5.1430   22.5160  -30.9590 C   0  0  0  0  0  0  0  0  0  0  0  0
   -2.7020   20.5550  -33.3650 C   0  0  0  0  0  0  0  0  0  0  0  0
   -1.6090   20.7790  -34.2060 C   0  0  0  0  0  0  0  0  0  0  0  0
    0.7414   21.5562  -31.8463 H   0  0  0  0  0  0  0  0  0  0  0  0
   -1.2041   21.1455  -30.3497 H   0  0  0  0  0  0  0  0  0  0  0  0
   -4.0111   19.3714  -31.1180 H   0  0  0  0  0  0  0  0  0  0  0  0
   -3.4175   20.6856  -30.0200 H   0  0  0  0  0  0  0  0  0  0  0  0
   -7.4556   18.8057  -31.0271 H   0  0  0  0  0  0  0  0  0  0  0  0
   -7.8305   16.5850  -32.0988 H   0  0  0  0  0  0  0  0  0  0  0  0
   -6.8550   16.0988  -34.3439 H   0  0  0  0  0  0  0  0  0  0  0  0
   -5.4945   17.8324  -35.5174 H   0  0  0  0  0  0  0  0  0  0  0  0
   -5.1165   20.0561  -34.4521 H   0  0  0  0  0  0  0  0  0  0  0  0
   -7.9070   21.8940  -32.5050 H   0  0  0  0  0  0  0  0  0  0  0  0
   -7.9101   24.4510  -31.4355 H   0  0  0  0  0  0  0  0  0  0  0  0
   -6.4970   26.0338  -30.0680 H   0  0  0  0  0  0  0  0  0  0  0  0
   -4.2242   25.3289  -29.2809 H   0  0  0  0  0  0  0  0  0  0  0  0
   -3.3413   23.0330  -29.8463 H   0  0  0  0  0  0  0  0  0  0  0  0
   -3.6702   20.2602  -33.7959 H   0  0  0  0  0  0  0  0  0  0  0  0
   -1.7255   20.6683  -35.2942 H   0  0  0  0  0  0  0  0  0  0  0  0
  1  2  2  0
  2  3  1  0
  2  4  1  0
  4  5  2  0
  5  6  1  0
  6  7  2  0
  7  8  1  0
  8  9  1  0
  9 10  1  0
 10 11  1  0
 11 12  2  0
 12 13  1  0
 13 14  2  0
 14 15  1  0
 15 16  2  0
 10 17  2  0
 17 18  1  0
 18 19  2  0
 19 20  1  0
 20 21  2  0
 21 22  1  0
 22 23  2  0
  7 24  1  0
 24 25  2  0
 25  4  1  0
 23  9  1  0
 16 11  1  0
 23 18  1  0
  5 26  1  0
  6 27  1  0
  8 28  1  0
  8 29  1  0
 12 30  1  0
 13 31  1  0
 14 32  1  0
 15 33  1  0
 16 34  1  0
 17 35  1  0
 19 36  1  0
 20 37  1  0
 21 38  1  0
 22 39  1  0
 24 40  1  0
 25 41  1  0
M  CHG  3   2   1   3  -1  17   1
M  END
>  <UniqueID>  (13) 
11

>  <SMILES>  (13) 
O=[N+]([O-])c1ccc(Cn2c(-c3ccccc3)[nH+]c3ccccc32)cc1

>  <Energy>  (13) 
90.85876262688612

>  <Genealogy>  (13) 
O=[N+]([O-])c1ccc(Cn2c(-c3ccccc3)[nH+]c3ccccc32)cc1 (protonated)
O=[N+]([O-])c1ccc(Cn2c(-c3ccccc3)[nH+]c3ccccc32)cc1 (3D coordinates assigned)
O=[N+]([O-])c1ccc(Cn2c(-c3ccccc3)[nH+]c3ccccc32)cc1 (optimized conformer: 90.85876262688612 kcal/mol)

>  <smiles>  (13) 
O=[N+]([O-])c1ccc(Cn2c(-c3ccccc3)nc3ccccc32)cc1

>  <score_type>  (13) 
oracle

>  <origin>  (13) 
adg

>  <m_score__min__energy>  (13) 
-8.1099999999999994

>  <m_primary>  (13) 
energy

$$$$
13:0
     RDKit          3D

 51 53  0  0  0  0  0  0  0  0999 V2000
   -2.4800   24.5750  -28.6360 C   0  0  0  0  0  0  0  0  0  0  0  0
   -3.2030   25.1250  -29.7330 O   0  0  0  0  0  0  0  0  0  0  0  0
   -4.4430   24.6480  -30.1820 C   0  0  0  0  0  0  0  0  0  0  0  0
   -5.6660   25.1910  -29.7420 C   0  0  0  0  0  0  0  0  0  0  0  0
   -6.8770   24.6780  -30.2190 C   0  0  0  0  0  0  0  0  0  0  0  0
   -6.8800   23.6160  -31.1290 C   0  0  0  0  0  0  0  0  0  0  0  0
   -8.4350   22.9700  -31.7530 S   0  0  0  0  0  0  0  0  0  0  0  0
   -8.1820   21.2670  -31.1390 C   0  0  0  0  0  0  0  0  0  0  0  0
   -8.5850   20.2480  -32.1790 C   0  0  0  0  0  0  0  0  0  0  0  0
   -9.7690   20.1620  -32.4770 O   0  0  0  0  0  0  0  0  0  0  0  0
   -7.6260   19.3510  -32.8070 N   0  0  0  0  0  0  0  0  0  0  0  0
   -6.8210   18.6170  -31.7880 C   0  0  0  0  0  0  0  0  0  0  0  0
   -5.3700   18.4010  -32.2200 C   0  0  0  0  0  0  0  0  0  0  0  0
   -4.7780   19.6950  -32.5530 N   0  0  0  0  0  0  0  0  0  0  0  0
   -3.4940   20.0680  -32.0330 C   0  0  0  0  0  0  0  0  0  0  0  0
   -3.3940   20.5950  -30.7370 C   0  0  0  0  0  0  0  0  0  0  0  0
   -2.1500   20.9600  -30.2200 C   0  0  0  0  0  0  0  0  0  0  0  0
   -0.9980   20.7970  -30.9890 C   0  0  0  0  0  0  0  0  0  0  0  0
   -1.0830   20.2650  -32.2780 C   0  0  0  0  0  0  0  0  0  0  0  0
   -2.3330   19.8900  -32.8110 C   0  0  0  0  0  0  0  0  0  0  0  0
   -2.4600   19.3290  -34.0910 O   0  0  0  0  0  0  0  0  0  0  0  0
   -2.4760   17.9320  -34.3630 C   0  0  0  0  0  0  0  0  0  0  0  0
   -5.5130   20.6340  -33.4040 C   0  0  0  0  0  0  0  0  0  0  0  0
   -6.8510   20.0380  -33.8770 C   0  0  0  0  0  0  0  0  0  0  0  0
   -5.6680   23.0810  -31.5790 C   0  0  0  0  0  0  0  0  0  0  0  0
   -4.4570   23.5930  -31.1030 C   0  0  0  0  0  0  0  0  0  0  0  0
   -2.9296   24.9170  -27.6921 H   0  0  0  0  0  0  0  0  0  0  0  0
   -2.5198   23.4768  -28.6843 H   0  0  0  0  0  0  0  0  0  0  0  0
   -1.4322   24.9064  -28.6843 H   0  0  0  0  0  0  0  0  0  0  0  0
   -5.6689   26.0215  -29.0207 H   0  0  0  0  0  0  0  0  0  0  0  0
   -7.8289   25.1109  -29.8776 H   0  0  0  0  0  0  0  0  0  0  0  0
   -7.1189   21.1281  -30.8931 H   0  0  0  0  0  0  0  0  0  0  0  0
   -8.8078   21.1211  -30.2462 H   0  0  0  0  0  0  0  0  0  0  0  0
   -8.1870   18.6200  -33.3070 H   0  0  0  0  0  0  0  0  0  0  0  0
   -6.8264   19.1959  -30.8527 H   0  0  0  0  0  0  0  0  0  0  0  0
   -7.2782   17.6250  -31.6576 H   0  0  0  0  0  0  0  0  0  0  0  0
   -4.8051   17.9370  -31.3981 H   0  0  0  0  0  0  0  0  0  0  0  0
   -5.3369   17.7389  -33.0978 H   0  0  0  0  0  0  0  0  0  0  0  0
   -4.2997   20.7211  -30.1256 H   0  0  0  0  0  0  0  0  0  0  0  0
   -2.0781   21.3768  -29.2046 H   0  0  0  0  0  0  0  0  0  0  0  0
   -0.0195   21.0882  -30.5794 H   0  0  0  0  0  0  0  0  0  0  0  0
   -0.1708   20.1382  -32.8795 H   0  0  0  0  0  0  0  0  0  0  0  0
   -2.4824   17.3739  -33.4151 H   0  0  0  0  0  0  0  0  0  0  0  0
   -3.3771   17.6815  -34.9421 H   0  0  0  0  0  0  0  0  0  0  0  0
   -1.5809   17.6609  -34.9421 H   0  0  0  0  0  0  0  0  0  0  0  0
   -5.7129   21.5527  -32.8330 H   0  0  0  0  0  0  0  0  0  0  0  0
   -4.8987   20.8499  -34.2906 H   0  0  0  0  0  0  0  0  0  0  0  0
   -7.4686   20.8540  -34.2804 H   0  0  0  0  0  0  0  0  0  0  0  0
   -6.6079   19.2746  -34.6307 H   0  0  0  0  0  0  0  0  0  0  0  0
   -5.6678   22.2570  -32.3078 H   0  0  0  0  0  0  0  0  0  0  0  0
   -3.5074   23.1636  -31.4549 H   0  0  0  0  0  0  0  0  0  0  0  0
  1  2  1  0
  2  3  1  0
  3  4  2  0
  4  5  1  0
  5  6  2  0
  6  7  1  0
  7  8  1  0
  8  9  1  0
  9 10  2  0
  9 11  1  0
 11 12  1  0
 12 13  1  0
 13 14  1  0
 14 15  1  0
 15 16  2  0
 16 17  1  0
 17 18  2  0
 18 19  1  0
 19 20  2  0
 20 21  1  0
 21 22  1  0
 14 23  1  0
 23 24  1  0
  6 25  1  0
 25 26  2  0
 26  3  1  0
 24 11  1  0
 20 15  1  0
  1 27  1  0
  1 28  1  0
  1 29  1  0
  4 30  1  0
  5 31  1  0
  8 32  1  0
  8 33  1  0
 11 34  1  0
 12 35  1  0
 12 36  1  0
 13 37  1  0
 13 38  1  0
 16 39  1  0
 17 40  1  0
 18 41  1  0
 19 42  1  0
 22 43  1  0
 22 44  1  0
 22 45  1  0
 23 46  1  0
 23 47  1  0
 24 48  1  0
 24 49  1  0
 25 50  1  0
 26 51  1  0
M  CHG  1  11   1
M  END
>  <UniqueID>  (14) 
12

>  <SMILES>  (14) 
COc1ccc(SCC(=O)[NH+]2CCN(c3ccccc3OC)CC2)cc1

>  <Energy>  (14) 
61.54906091371658

>  <Genealogy>  (14) 
COc1ccc(SCC(=O)[NH+]2CCN(c3ccccc3OC)CC2)cc1 (protonated)
COc1ccc(SCC(=O)[NH+]2CCN(c3ccccc3OC)CC2)cc1 (3D coordinates assigned)
COc1ccc(SCC(=O)[NH+]2CCN(c3ccccc3OC)CC2)cc1 (nonaromatic ring conformer: 61.54906091371658 kcal/mol)

>  <smiles>  (14) 
COc1ccc(SCC(=O)N2CCN(c3ccccc3OC)CC2)cc1

>  <score_type>  (14) 
oracle

>  <origin>  (14) 
adg

>  <m_score__min__energy>  (14) 
-7.5099999999999998

>  <m_primary>  (14) 
energy

$$$$
14:0
     RDKit          3D

 54 58  0  0  1  0  0  0  0  0999 V2000
   -0.8390   26.2460  -24.0430 C   0  0  0  0  0  0  0  0  0  0  0  0
   -1.1240   26.8290  -25.3180 O   0  0  0  0  0  0  0  0  0  0  0  0
   -1.6260   26.0540  -26.3480 C   0  0  0  0  0  0  0  0  0  0  0  0
   -2.7860   25.2990  -26.2260 C   0  0  0  0  0  0  0  0  0  0  0  0
   -3.2700   24.5290  -27.2750 C   0  0  0  0  0  0  0  0  0  0  0  0
   -2.5520   24.5380  -28.4550 C   0  0  0  0  0  0  0  0  0  0  0  0
   -2.9460   23.7760  -29.6340 C   0  0  0  0  0  0  0  0  0  0  0  0
   -2.2280   22.9020  -30.3630 N   0  0  0  0  0  0  0  0  0  0  0  0
   -2.9870   22.4220  -31.3790 C   0  0  0  0  0  0  0  0  0  0  0  0
   -2.5500   21.4540  -32.3770 C   0  0  0  0  0  0  0  0  0  0  0  0
   -1.2840   21.4390  -32.9140 C   0  0  0  0  0  0  0  0  0  0  0  0
   -0.9070   20.4950  -33.8660 C   0  0  0  0  0  0  0  0  0  0  0  0
   -1.8050   19.5780  -34.2700 N   0  0  0  0  0  0  0  0  0  0  0  0
   -3.0540   19.5470  -33.7790 C   0  0  0  0  0  0  0  0  0  0  0  0
   -4.0670   18.5540  -34.1980 C   0  0  0  0  0  0  0  0  0  0  0  0
   -3.4320   20.4900  -32.8260 C   0  0  0  0  0  0  0  0  0  0  0  0
   -4.2300   23.0350  -31.2610 C   0  0  0  0  0  0  0  0  0  0  0  0
   -5.3580   22.9240  -32.0030 N   0  0  0  0  0  0  0  0  0  0  0  0
   -6.4800   23.6260  -31.7070 C   0  0  0  0  0  0  0  0  0  0  0  0
   -7.5260   23.4800  -32.4500 N   0  0  0  0  0  0  0  0  0  0  0  0
   -8.5920   22.6490  -31.9470 C   0  0  0  0  0  0  0  0  0  0  0  0
   -8.2930   21.2030  -32.0990 C   0  0  0  0  0  0  0  0  0  0  0  0
   -7.2470   20.7620  -32.9020 C   0  0  0  0  0  0  0  0  0  0  0  0
   -6.9310   19.4470  -33.0740 C   0  0  0  0  0  0  0  0  0  0  0  0
   -7.6820   18.4940  -32.4210 C   0  0  0  0  0  0  0  0  0  0  0  0
   -8.7330   18.8910  -31.6100 C   0  0  0  0  0  0  0  0  0  0  0  0
   -9.0510   20.2340  -31.4380 C   0  0  0  0  0  0  0  0  0  0  0  0
   -6.4390   24.4680  -30.6140 C   0  0  0  0  0  0  0  0  0  0  0  0
   -5.2810   24.5670  -29.8700 C   0  0  0  0  0  0  0  0  0  0  0  0
   -4.1690   23.8540  -30.1860 N   0  0  0  0  0  0  0  0  0  0  0  0
   -1.3830   25.2960  -28.5850 C   0  0  0  0  0  0  0  0  0  0  0  0
   -0.9720   26.0200  -27.5280 N   0  0  0  0  0  0  0  0  0  0  0  0
   -1.1719   26.9269  -23.2458 H   0  0  0  0  0  0  0  0  0  0  0  0
   -1.3699   25.2870  -23.9514 H   0  0  0  0  0  0  0  0  0  0  0  0
    0.2439   26.0759  -23.9514 H   0  0  0  0  0  0  0  0  0  0  0  0
   -3.3354   25.3117  -25.2731 H   0  0  0  0  0  0  0  0  0  0  0  0
   -4.1897   23.9347  -27.1705 H   0  0  0  0  0  0  0  0  0  0  0  0
   -0.5517   22.1905  -32.5837 H   0  0  0  0  0  0  0  0  0  0  0  0
    0.1113   20.4990  -34.2821 H   0  0  0  0  0  0  0  0  0  0  0  0
   -4.5279   18.1022  -33.3073 H   0  0  0  0  0  0  0  0  0  0  0  0
   -4.8419   19.0521  -34.7992 H   0  0  0  0  0  0  0  0  0  0  0  0
   -3.5845   17.7693  -34.7992 H   0  0  0  0  0  0  0  0  0  0  0  0
   -4.4549   20.4666  -32.4222 H   0  0  0  0  0  0  0  0  0  0  0  0
   -5.3910   22.2890  -32.8310 H   0  0  0  0  0  0  0  0  0  0  0  0
   -8.7404   22.8701  -30.8797 H   0  0  0  0  0  0  0  0  0  0  0  0
   -9.4978   22.8704  -32.5306 H   0  0  0  0  0  0  0  0  0  0  0  0
   -6.6414   21.5153  -33.4272 H   0  0  0  0  0  0  0  0  0  0  0  0
   -6.0923   19.1523  -33.7219 H   0  0  0  0  0  0  0  0  0  0  0  0
   -7.4489   17.4259  -32.5426 H   0  0  0  0  0  0  0  0  0  0  0  0
   -9.3294   18.1266  -31.0904 H   0  0  0  0  0  0  0  0  0  0  0  0
   -9.8890   20.5293  -30.7895 H   0  0  0  0  0  0  0  0  0  0  0  0
   -7.3255   25.0575  -30.3372 H   0  0  0  0  0  0  0  0  0  0  0  0
   -5.2580   25.2397  -28.9999 H   0  0  0  0  0  0  0  0  0  0  0  0
   -0.8148   25.2999  -29.5269 H   0  0  0  0  0  0  0  0  0  0  0  0
  1  2  1  0
  2  3  1  0
  3  4  2  0
  4  5  1  0
  5  6  2  0
  6  7  1  0
  7  8  2  0
  8  9  1  0
  9 10  1  0
 10 11  2  0
 11 12  1  0
 12 13  2  0
 13 14  1  0
 14 15  1  0
 14 16  2  0
  9 17  2  0
 17 18  1  0
 18 19  1  0
 19 20  2  0
 20 21  1  0
 21 22  1  0
 22 23  2  0
 23 24  1  0
 24 25  2  0
 25 26  1  0
 26 27  2  0
 19 28  1  0
 28 29  2  0
 29 30  1  0
  6 31  1  0
 31 32  2  0
 32  3  1  0
 30  7  1  0
 16 10  1  0
 30 17  1  0
 27 22  1  0
  1 33  1  0
  1 34  1  0
  1 35  1  0
  4 36  1  0
  5 37  1  0
 11 38  1  0
 12 39  1  0
 15 40  1  0
 15 41  1  0
 15 42  1  0
 16 43  1  0
 18 44  1  0
 21 45  1  0
 21 46  1  0
 23 47  1  0
 24 48  1  0
 25 49  1  0
 26 50  1  0
 27 51  1  0
 28 52  1  0
 29 53  1  0
 31 54  1  0
M  END
>  <smiles>  (15) 
COc1ccc(-c2nc(-c3ccnc(C)c3)c3[nH]c(=NCc4ccccc4)ccn23)cn1

>  <score_type>  (15) 
oracle

>  <origin>  (15) 
adg

>  <m_score__min__energy>  (15) 
-9.7300000000000004

>  <m_primary>  (15) 
energy

$$$$
15:0
     RDKit          3D

 39 41  0  0  0  0  0  0  0  0999 V2000
   -3.9090   23.9220  -27.6160 C   0  0  0  0  0  0  0  0  0  0  0  0
   -2.5620   24.3480  -28.2080 C   0  0  1  0  0  0  0  0  0  0  0  0
   -2.7450   24.9250  -29.5400 N   0  0  0  0  0  0  0  0  0  0  0  0
   -3.8010   24.6100  -30.4560 C   0  0  0  0  0  0  0  0  0  0  0  0
   -4.5440   25.5400  -30.8630 O   0  0  0  0  0  0  0  0  0  0  0  0
   -4.0330   23.2360  -30.9410 C   0  0  0  0  0  0  0  0  0  0  0  0
   -3.1980   22.1480  -30.7650 C   0  0  0  0  0  0  0  0  0  0  0  0
   -3.7980   21.0590  -31.2750 N   0  0  0  0  0  0  0  0  0  0  0  0
   -4.9790   21.4050  -31.7630 N   0  0  0  0  0  0  0  0  0  0  0  0
   -5.9210   20.4530  -32.3470 C   0  0  0  0  0  0  0  0  0  0  0  0
   -5.1430   22.7410  -31.6160 C   0  0  0  0  0  0  0  0  0  0  0  0
   -6.4060   23.4990  -31.9280 C   0  0  0  0  0  0  0  0  0  0  0  0
   -7.1170   24.1140  -30.7290 C   0  0  0  0  0  0  0  0  0  0  0  0
   -7.6840   22.8730  -31.3860 C   0  0  0  0  0  0  0  0  0  0  0  0
   -1.8940   25.3610  -27.3060 C   0  0  0  0  0  0  0  0  0  0  0  0
   -2.2800   25.4900  -25.9580 C   0  0  0  0  0  0  0  0  0  0  0  0
   -1.6420   26.4120  -25.1240 C   0  0  0  0  0  0  0  0  0  0  0  0
   -0.6100   27.2100  -25.6220 C   0  0  0  0  0  0  0  0  0  0  0  0
   -0.2110   27.0840  -26.9560 C   0  0  0  0  0  0  0  0  0  0  0  0
   -0.8460   26.1620  -27.7940 C   0  0  0  0  0  0  0  0  0  0  0  0
   -3.8493   23.9409  -26.5178 H   0  0  0  0  0  0  0  0  0  0  0  0
   -4.6933   24.6159  -27.9525 H   0  0  0  0  0  0  0  0  0  0  0  0
   -4.1517   22.9033  -27.9525 H   0  0  0  0  0  0  0  0  0  0  0  0
   -1.9237   23.4560  -28.2904 H   0  0  0  0  0  0  0  0  0  0  0  0
   -2.2075   22.1702  -30.2871 H   0  0  0  0  0  0  0  0  0  0  0  0
   -3.4130   20.0870  -31.2700 H   0  0  0  0  0  0  0  0  0  0  0  0
   -6.4490   19.9194  -31.5429 H   0  0  0  0  0  0  0  0  0  0  0  0
   -6.6500   20.9931  -32.9689 H   0  0  0  0  0  0  0  0  0  0  0  0
   -5.3732   19.7297  -32.9689 H   0  0  0  0  0  0  0  0  0  0  0  0
   -6.0674   23.8694  -32.9068 H   0  0  0  0  0  0  0  0  0  0  0  0
   -6.6645   24.0482  -29.7286 H   0  0  0  0  0  0  0  0  0  0  0  0
   -7.5091   25.1128  -30.4866 H   0  0  0  0  0  0  0  0  0  0  0  0
   -7.6431   21.9066  -30.8622 H   0  0  0  0  0  0  0  0  0  0  0  0
   -8.6580   22.5989  -31.8175 H   0  0  0  0  0  0  0  0  0  0  0  0
   -3.0892   24.8608  -25.5588 H   0  0  0  0  0  0  0  0  0  0  0  0
   -1.9533   26.5093  -24.0735 H   0  0  0  0  0  0  0  0  0  0  0  0
   -0.1111   27.9376  -24.9649 H   0  0  0  0  0  0  0  0  0  0  0  0
    0.6037   27.7111  -27.3470 H   0  0  0  0  0  0  0  0  0  0  0  0
   -0.5239   26.0626  -28.8411 H   0  0  0  0  0  0  0  0  0  0  0  0
  1  2  1  0
  2  3  1  0
  3  4  1  0
  4  5  2  0
  4  6  1  0
  6  7  1  0
  7  8  2  0
  8  9  1  0
  9 10  1  0
  9 11  1  0
 11 12  1  0
 12 13  1  0
 13 14  1  0
  2 15  1  0
 15 16  2  0
 16 17  1  0
 17 18  2  0
 18 19  1  0
 19 20  2  0
 11  6  2  0
 14 12  1  0
 20 15  1  0
  1 21  1  0
  1 22  1  0
  1 23  1  0
  2 24  1  6
  7 25  1  0
  8 26  1  0
 10 27  1  0
 10 28  1  0
 10 29  1  0
 12 30  1  0
 13 31  1  0
 13 32  1  0
 14 33  1  0
 14 34  1  0
 16 35  1  0
 17 36  1  0
 18 37  1  0
 19 38  1  0
 20 39  1  0
M  CHG  2   3  -1   8   1
M  END
>  <UniqueID>  (16) 
13

>  <SMILES>  (16) 
C[C@@H]([N-]C(=O)c1c[nH+]n(C)c1C1CC1)c1ccccc1

>  <Energy>  (16) 
336.23120927017254

>  <Genealogy>  (16) 
CC([N-]C(=O)c1c[nH+]n(C)c1C1CC1)c1ccccc1 (protonated)
C[C@@H]([N-]C(=O)c1c[nH+]n(C)c1C1CC1)c1ccccc1 (chirality)
C[C@@H]([N-]C(=O)c1c[nH+]n(C)c1C1CC1)c1ccccc1 (3D coordinates assigned)
C[C@@H]([N-]C(=O)c1c[nH+]n(C)c1C1CC1)c1ccccc1 (nonaromatic ring conformer: 336.23120927017254 kcal/mol)

>  <smiles>  (16) 
CC(NC(=O)c1cnn(C)c1C1CC1)c1ccccc1

>  <score_type>  (16) 
oracle

>  <origin>  (16) 
adg

>  <m_score__min__energy>  (16) 
-8.1899999999999995

>  <m_primary>  (16) 
energy

$$$$
16:0
     RDKit          3D

 36 38  0  0  1  0  0  0  0  0999 V2000
   -9.3810   18.1430  -31.8300 F   0  0  0  0  0  0  0  0  0  0  0  0
   -8.1630   18.6330  -32.1570 C   0  0  0  0  0  0  0  0  0  0  0  0
   -6.9840   18.1160  -31.6110 C   0  0  0  0  0  0  0  0  0  0  0  0
   -5.7440   18.6530  -31.9770 C   0  0  0  0  0  0  0  0  0  0  0  0
   -5.6490   19.6940  -32.8780 C   0  0  0  0  0  0  0  0  0  0  0  0
   -4.2130   24.1540  -30.9010 N   0  0  0  0  0  0  0  0  0  0  0  0
   -3.6800   23.0520  -31.1780 C   0  0  0  0  0  0  0  0  0  0  0  0
   -2.6490   20.5600  -31.9230 N   0  0  0  0  0  0  0  0  0  0  0  0
   -2.0270   21.3620  -31.0390 C   0  0  0  0  0  0  0  0  0  0  0  0
   -2.5010   22.5760  -30.6580 C   0  0  0  0  0  0  0  0  0  0  0  0
   -1.8460   23.3360  -29.7760 F   0  0  0  0  0  0  0  0  0  0  0  0
   -3.8180   21.0460  -32.4300 C   0  0  0  0  0  0  0  0  0  0  0  0
   -4.4110   20.2680  -33.2790 N   0  0  0  0  0  0  0  0  0  0  0  0
   -5.3610   24.3040  -30.0800 C   0  0  0  0  0  0  0  0  0  0  0  0
   -6.5560   23.5690  -30.5720 C   0  0  0  0  0  0  0  0  0  0  0  0
   -7.2140   22.6100  -29.8270 C   0  0  0  0  0  0  0  0  0  0  0  0
   -8.3290   21.9270  -30.3060 C   0  0  0  0  0  0  0  0  0  0  0  0
   -8.8050   22.1930  -31.5390 N   0  0  0  0  0  0  0  0  0  0  0  0
   -8.2010   23.1200  -32.3080 C   0  0  0  0  0  0  0  0  0  0  0  0
   -7.0970   23.8000  -31.8440 C   0  0  0  0  0  0  0  0  0  0  0  0
   -4.3090   22.2440  -32.0690 N   0  0  0  0  0  0  0  0  0  0  0  0
   -6.8290   20.2110  -33.4240 C   0  0  0  0  0  0  0  0  0  0  0  0
   -8.0600   19.6730  -33.0560 C   0  0  0  0  0  0  0  0  0  0  0  0
   -7.0310   17.2850  -30.8918 H   0  0  0  0  0  0  0  0  0  0  0  0
   -4.8259   18.2363  -31.5371 H   0  0  0  0  0  0  0  0  0  0  0  0
   -2.2780   19.6240  -32.2120 H   0  0  0  0  0  0  0  0  0  0  0  0
   -1.0803   21.0140  -30.6000 H   0  0  0  0  0  0  0  0  0  0  0  0
   -5.1172   23.9336  -29.0733 H   0  0  0  0  0  0  0  0  0  0  0  0
   -5.6197   25.3731  -30.0866 H   0  0  0  0  0  0  0  0  0  0  0  0
   -6.8435   22.3771  -28.8178 H   0  0  0  0  0  0  0  0  0  0  0  0
   -8.8216   21.1701  -29.6780 H   0  0  0  0  0  0  0  0  0  0  0  0
   -8.5924   23.3351  -33.3133 H   0  0  0  0  0  0  0  0  0  0  0  0
   -6.6235   24.5503  -32.4942 H   0  0  0  0  0  0  0  0  0  0  0  0
   -5.2020   22.5450  -32.4990 H   0  0  0  0  0  0  0  0  0  0  0  0
   -6.7846   21.0419  -34.1435 H   0  0  0  0  0  0  0  0  0  0  0  0
   -8.9776   20.0906  -33.4960 H   0  0  0  0  0  0  0  0  0  0  0  0
  1  2  1  0
  2  3  2  0
  3  4  1  0
  4  5  2  0
  5  6  1  0
  6  7  2  0
  7  8  1  0
  8  9  1  0
  9 10  2  0
 10 11  1  0
 10 12  1  0
 12 13  2  0
 13 14  1  0
 14 15  1  0
 15 16  2  0
 16 17  1  0
 17 18  2  0
 18 19  1  0
 19 20  2  0
 12 21  1  0
  5 22  1  0
 22 23  2  0
 23  2  1  0
 21  7  1  0
 20 15  1  0
  3 24  1  0
  4 25  1  0
  8 26  1  0
  9 27  1  0
 14 28  1  0
 14 29  1  0
 16 30  1  0
 17 31  1  0
 19 32  1  0
 20 33  1  0
 21 34  1  0
 22 35  1  0
 23 36  1  0
M  END
>  <smiles>  (17) 
Fc1ccc(N=c2[nH]cc(F)c(=NCc3ccncc3)[nH]2)cc1

>  <score_type>  (17) 
oracle

>  <origin>  (17) 
adg

>  <m_score__min__energy>  (17) 
-6.9299999999999997

>  <m_primary>  (17) 
energy

$$$$
17:0
     RDKit          3D

 37 39  0  0  0  0  0  0  0  0999 V2000
   -3.8280   25.3010  -30.4740 O   0  0  0  0  0  0  0  0  0  0  0  0
   -4.2300   24.4020  -29.6870 C   0  0  0  0  0  0  0  0  0  0  0  0
   -3.2480   23.6770  -28.8180 C   0  0  0  0  0  0  0  0  0  0  0  0
   -2.7690   24.5760  -27.7640 N   0  0  0  0  0  0  0  0  0  0  0  0
   -3.4590   24.6490  -26.6130 N   0  0  0  0  0  0  0  0  0  0  0  0
   -3.0410   25.3990  -25.5870 N   0  0  0  0  0  0  0  0  0  0  0  0
   -1.8910   26.0890  -25.7270 C   0  0  0  0  0  0  0  0  0  0  0  0
   -1.2630   26.9090  -24.8230 C   0  0  0  0  0  0  0  0  0  0  0  0
   -0.1290   27.3270  -25.5170 C   0  0  0  0  0  0  0  0  0  0  0  0
   -0.1010   26.7760  -26.7570 N   0  0  0  0  0  0  0  0  0  0  0  0
   -1.1880   26.0310  -26.8520 N   0  0  0  0  0  0  0  0  0  0  0  0
   -1.5990   25.2780  -27.8970 C   0  0  0  0  0  0  0  0  0  0  0  0
   -0.9140   25.2220  -28.9550 O   0  0  0  0  0  0  0  0  0  0  0  0
   -5.6160   24.0410  -29.6430 N   0  0  0  0  0  0  0  0  0  0  0  0
   -6.4380   24.0050  -30.8160 C   0  0  0  0  0  0  0  0  0  0  0  0
   -6.0390   24.5250  -31.8940 O   0  0  0  0  0  0  0  0  0  0  0  0
   -7.6950   23.3190  -30.7770 N   0  0  0  0  0  0  0  0  0  0  0  0
   -8.2740   22.7080  -31.9690 C   0  0  0  0  0  0  0  0  0  0  0  0
   -8.0000   21.2280  -31.9670 C   0  0  0  0  0  0  0  0  0  0  0  0
   -8.9960   20.3170  -31.5780 C   0  0  0  0  0  0  0  0  0  0  0  0
   -8.7530   18.9410  -31.6390 C   0  0  0  0  0  0  0  0  0  0  0  0
   -7.5200   18.4660  -32.0920 C   0  0  0  0  0  0  0  0  0  0  0  0
   -6.5290   19.3660  -32.4920 C   0  0  0  0  0  0  0  0  0  0  0  0
   -6.7660   20.7410  -32.4330 C   0  0  0  0  0  0  0  0  0  0  0  0
   -3.7377   22.8045  -28.3608 H   0  0  0  0  0  0  0  0  0  0  0  0
   -2.3964   23.3424  -29.4285 H   0  0  0  0  0  0  0  0  0  0  0  0
   -1.5774   27.1716  -23.8021 H   0  0  0  0  0  0  0  0  0  0  0  0
    0.6361   28.0080  -25.1160 H   0  0  0  0  0  0  0  0  0  0  0  0
   -5.9710   23.5640  -28.7840 H   0  0  0  0  0  0  0  0  0  0  0  0
   -8.1150   23.0870  -29.8480 H   0  0  0  0  0  0  0  0  0  0  0  0
   -9.3607   22.8783  -31.9756 H   0  0  0  0  0  0  0  0  0  0  0  0
   -7.8228   23.1599  -32.8647 H   0  0  0  0  0  0  0  0  0  0  0  0
   -9.9698   20.6869  -31.2244 H   0  0  0  0  0  0  0  0  0  0  0  0
   -9.5345   18.2314  -31.3296 H   0  0  0  0  0  0  0  0  0  0  0  0
   -7.3293   17.3835  -32.1338 H   0  0  0  0  0  0  0  0  0  0  0  0
   -5.5604   18.9909  -32.8540 H   0  0  0  0  0  0  0  0  0  0  0  0
   -5.9842   21.4459  -32.7523 H   0  0  0  0  0  0  0  0  0  0  0  0
  1  2  2  0
  2  3  1  0
  3  4  1  0
  4  5  1  0
  5  6  2  0
  6  7  1  0
  7  8  2  0
  8  9  1  0
  9 10  2  0
 10 11  1  0
 11 12  1  0
 12 13  2  0
  2 14  1  0
 14 15  1  0
 15 16  2  0
 15 17  1  0
 17 18  1  0
 18 19  1  0
 19 20  2  0
 20 21  1  0
 21 22  2  0
 22 23  1  0
 23 24  2  0
 12  4  1  0
 24 19  1  0
 11  7  1  0
  3 25  1  0
  3 26  1  0
  8 27  1  0
  9 28  1  0
 14 29  1  0
 17 30  1  0
 18 31  1  0
 18 32  1  0
 20 33  1  0
 21 34  1  0
 22 35  1  0
 23 36  1  0
 24 37  1  0
M  END
>  <UniqueID>  (18) 
14

>  <SMILES>  (18) 
O=C(Cn1nnc2ccnn2c1=O)NC(=O)NCc1ccccc1

>  <Energy>  (18) 
73.89917038970195

>  <Genealogy>  (18) 
O=C(Cn1nnc2ccnn2c1=O)NC(=O)NCc1ccccc1 (3D coordinates assigned)
O=C(Cn1nnc2ccnn2c1=O)NC(=O)NCc1ccccc1 (optimized conformer: 73.89917038970195 kcal/mol)

>  <smiles>  (18) 
O=C(Cn1nnc2ccnn2c1=O)NC(=O)NCc1ccccc1

>  <score_type>  (18) 
oracle

>  <origin>  (18) 
adg

>  <m_score__min__energy>  (18) 
-9.5099999999999998

>  <m_primary>  (18) 
energy

$$$$
18:0
     RDKit          3D

 26 26  0  0  0  0  0  0  0  0999 V2000
   -5.0960   21.3880  -32.6800 C   0  0  0  0  0  0  0  0  0  0  0  0
   -5.3630   22.4190  -31.8530 C   0  0  0  0  0  0  0  0  0  0  0  0
   -4.2670   23.2070  -31.4010 C   0  0  0  0  0  0  0  0  0  0  0  0
   -2.9620   22.6930  -31.5640 O   0  0  0  0  0  0  0  0  0  0  0  0
   -2.0580   22.3170  -30.5300 C   0  0  0  0  0  0  0  0  0  0  0  0
   -4.5150   24.4780  -30.8360 C   0  0  0  0  0  0  0  0  0  0  0  0
   -3.4870   25.2990  -30.3900 O   0  0  0  0  0  0  0  0  0  0  0  0
   -5.8160   24.9530  -30.7370 C   0  0  0  0  0  0  0  0  0  0  0  0
   -6.8940   24.1540  -31.0930 C   0  0  0  0  0  0  0  0  0  0  0  0
   -6.7120   22.8290  -31.5560 C   0  0  0  0  0  0  0  0  0  0  0  0
   -7.8050   21.9980  -31.6320 C   0  0  0  0  0  0  0  0  0  0  0  0
   -7.7640   20.5360  -31.2410 C   0  0  0  0  0  0  0  0  0  0  0  0
   -9.1870   22.5280  -31.9510 C   0  0  0  0  0  0  0  0  0  0  0  0
   -5.9150   20.7548  -33.0518 H   0  0  0  0  0  0  0  0  0  0  0  0
   -4.0592   21.1802  -32.9829 H   0  0  0  0  0  0  0  0  0  0  0  0
   -2.5205   22.5094  -29.5507 H   0  0  0  0  0  0  0  0  0  0  0  0
   -1.8225   21.2463  -30.6203 H   0  0  0  0  0  0  0  0  0  0  0  0
   -1.1326   22.9049  -30.6203 H   0  0  0  0  0  0  0  0  0  0  0  0
   -5.9947   25.9751  -30.3719 H   0  0  0  0  0  0  0  0  0  0  0  0
   -7.9132   24.5601  -31.0134 H   0  0  0  0  0  0  0  0  0  0  0  0
   -7.7616   20.4497  -30.1444 H   0  0  0  0  0  0  0  0  0  0  0  0
   -8.6481   20.0229  -31.6473 H   0  0  0  0  0  0  0  0  0  0  0  0
   -6.8525   20.0732  -31.6473 H   0  0  0  0  0  0  0  0  0  0  0  0
   -9.7257   22.7346  -31.0144 H   0  0  0  0  0  0  0  0  0  0  0  0
   -9.0981   23.4558  -32.5352 H   0  0  0  0  0  0  0  0  0  0  0  0
   -9.7413   21.7786  -32.5352 H   0  0  0  0  0  0  0  0  0  0  0  0
  1  2  2  0
  2  3  1  0
  3  4  1  0
  4  5  1  0
  3  6  2  0
  6  7  1  0
  6  8  1  0
  8  9  2  0
  9 10  1  0
 10 11  2  3
 11 12  1  0
 11 13  1  0
 10  2  1  0
  1 14  1  0
  1 15  1  0
  5 16  1  0
  5 17  1  0
  5 18  1  0
  8 19  1  0
  9 20  1  0
 12 21  1  0
 12 22  1  0
 12 23  1  0
 13 24  1  0
 13 25  1  0
 13 26  1  0
M  CHG  1   7  -1
M  END
>  <UniqueID>  (19) 
15

>  <SMILES>  (19) 
C=c1c(OC)c([O-])ccc1=C(C)C

>  <Energy>  (19) 
50.9734854783795

>  <Genealogy>  (19) 
C=c1c(OC)c([O-])ccc1=C(C)C (protonated)
C=c1c(OC)c([O-])ccc1=C(C)C (3D coordinates assigned)
C=c1c(OC)c([O-])ccc1=C(C)C (optimized conformer: 50.9734854783795 kcal/mol)

>  <smiles>  (19) 
C=c1c(OC)c(O)ccc1=C(C)C

>  <score_type>  (19) 
oracle

>  <origin>  (19) 
adg

>  <m_score__min__energy>  (19) 
-8.5

>  <m_primary>  (19) 
energy

$$$$
19:0
     RDKit          3D

 55 57  0  0  0  0  0  0  0  0999 V2000
   -3.0100   24.5270  -29.3420 C   0  0  0  0  0  0  0  0  0  0  0  0
   -3.6230   25.1840  -30.4460 O   0  0  0  0  0  0  0  0  0  0  0  0
   -4.9890   25.0740  -30.7270 C   0  0  0  0  0  0  0  0  0  0  0  0
   -5.7270   26.0980  -30.6830 O   0  0  0  0  0  0  0  0  0  0  0  0
   -5.5550   23.7950  -31.0640 N   0  0  0  0  0  0  0  0  0  0  0  0
   -4.6820   22.6240  -31.2390 C   0  0  0  0  0  0  0  0  0  0  0  0
   -5.2200   21.7310  -32.3600 C   0  0  0  0  0  0  0  0  0  0  0  0
   -6.6990   21.3100  -32.1410 C   0  0  0  0  0  0  0  0  0  0  0  0
   -6.8660   19.8630  -31.8370 N   0  0  0  0  0  0  0  0  0  0  0  0
   -5.6540   19.1040  -31.4360 C   0  0  0  0  0  0  0  0  0  0  0  0
   -4.9850   18.3170  -32.5880 C   0  0  0  0  0  0  0  0  0  0  0  0
   -5.8770   18.1340  -33.7490 N   0  0  0  0  0  0  0  0  0  0  0  0
   -5.3600   17.0960  -34.6650 C   0  0  0  0  0  0  0  0  0  0  0  0
   -5.7670   15.6940  -34.1890 C   0  0  0  0  0  0  0  0  0  0  0  0
   -4.6700   15.0480  -33.3810 C   0  0  0  0  0  0  0  0  0  0  0  0
   -4.9660   14.0050  -32.4880 C   0  0  0  0  0  0  0  0  0  0  0  0
   -3.9280   13.3810  -31.7930 C   0  0  0  0  0  0  0  0  0  0  0  0
   -2.6420   13.7770  -31.9860 N   0  0  0  0  0  0  0  0  0  0  0  0
   -2.3270   14.7770  -32.8490 C   0  0  0  0  0  0  0  0  0  0  0  0
   -3.3330   15.4310  -33.5640 C   0  0  0  0  0  0  0  0  0  0  0  0
   -7.2440   17.8520  -33.3000 C   0  0  0  0  0  0  0  0  0  0  0  0
   -7.8270   19.1480  -32.7190 C   0  0  1  0  0  0  0  0  0  0  0  0
   -9.1100   18.8630  -31.9390 C   0  0  0  0  0  0  0  0  0  0  0  0
   -7.4450   22.1840  -31.1030 C   0  0  0  0  0  0  0  0  0  0  0  0
   -7.0160   23.6530  -31.1880 C   0  0  0  0  0  0  0  0  0  0  0  0
   -3.4008   24.9459  -28.4030 H   0  0  0  0  0  0  0  0  0  0  0  0
   -3.2344   23.4510  -29.3850 H   0  0  0  0  0  0  0  0  0  0  0  0
   -1.9210   24.6764  -29.3850 H   0  0  0  0  0  0  0  0  0  0  0  0
   -3.6676   22.9616  -31.4977 H   0  0  0  0  0  0  0  0  0  0  0  0
   -4.6569   22.0497  -30.3012 H   0  0  0  0  0  0  0  0  0  0  0  0
   -5.1485   22.2798  -33.3107 H   0  0  0  0  0  0  0  0  0  0  0  0
   -4.6138   20.8132  -32.3702 H   0  0  0  0  0  0  0  0  0  0  0  0
   -7.1750   21.4920  -33.1158 H   0  0  0  0  0  0  0  0  0  0  0  0
   -4.9190   19.8165  -31.0333 H   0  0  0  0  0  0  0  0  0  0  0  0
   -5.9796   18.3601  -30.6940 H   0  0  0  0  0  0  0  0  0  0  0  0
   -4.0900   18.8663  -32.9156 H   0  0  0  0  0  0  0  0  0  0  0  0
   -4.7326   17.3178  -32.2036 H   0  0  0  0  0  0  0  0  0  0  0  0
   -5.7691   17.2676  -35.6716 H   0  0  0  0  0  0  0  0  0  0  0  0
   -4.2618   17.1568  -34.6815 H   0  0  0  0  0  0  0  0  0  0  0  0
   -6.6699   15.7755  -33.5660 H   0  0  0  0  0  0  0  0  0  0  0  0
   -5.9589   15.0697  -35.0741 H   0  0  0  0  0  0  0  0  0  0  0  0
   -6.0068   13.6824  -32.3374 H   0  0  0  0  0  0  0  0  0  0  0  0
   -4.1515   12.5670  -31.0876 H   0  0  0  0  0  0  0  0  0  0  0  0
   -1.2764   15.0729  -32.9854 H   0  0  0  0  0  0  0  0  0  0  0  0
   -3.0789   16.2398  -34.2649 H   0  0  0  0  0  0  0  0  0  0  0  0
   -7.8549   17.5159  -34.1508 H   0  0  0  0  0  0  0  0  0  0  0  0
   -7.2410   17.0582  -32.5385 H   0  0  0  0  0  0  0  0  0  0  0  0
   -8.0476   19.7994  -33.5775 H   0  0  0  0  0  0  0  0  0  0  0  0
   -8.9011   18.9094  -30.8600 H   0  0  0  0  0  0  0  0  0  0  0  0
   -9.8709   19.6140  -32.1978 H   0  0  0  0  0  0  0  0  0  0  0  0
   -9.4814   17.8605  -32.1978 H   0  0  0  0  0  0  0  0  0  0  0  0
   -8.5266   22.1168  -31.2915 H   0  0  0  0  0  0  0  0  0  0  0  0
   -7.1968   21.8112  -30.0983 H   0  0  0  0  0  0  0  0  0  0  0  0
   -7.3343   24.0631  -32.1578 H   0  0  0  0  0  0  0  0  0  0  0  0
   -7.4883   24.1998  -30.3586 H   0  0  0  0  0  0  0  0  0  0  0  0
  1  2  1  0
  2  3  1  0
  3  4  2  0
  3  5  1  0
  5  6  1  0
  6  7  1  0
  7  8  1  0
  8  9  1  0
  9 10  1  0
 10 11  1  0
 11 12  1  0
 12 13  1  0
 13 14  1  0
 14 15  1  0
 15 16  2  0
 16 17  1  0
 17 18  2  0
 18 19  1  0
 19 20  2  0
 12 21  1  0
 21 22  1  0
 22 23  1  0
  8 24  1  0
 24 25  1  0
 25  5  1  0
 22  9  1  0
 20 15  1  0
  1 26  1  0
  1 27  1  0
  1 28  1  0
  6 29  1  0
  6 30  1  0
  7 31  1  0
  7 32  1  0
  8 33  1  0
 10 34  1  0
 10 35  1  0
 11 36  1  0
 11 37  1  0
 13 38  1  0
 13 39  1  0
 14 40  1  0
 14 41  1  0
 16 42  1  0
 17 43  1  0
 19 44  1  0
 20 45  1  0
 21 46  1  0
 21 47  1  0
 22 48  1  6
 23 49  1  0
 23 50  1  0
 23 51  1  0
 24 52  1  0
 24 53  1  0
 25 54  1  0
 25 55  1  0
M  END
>  <UniqueID>  (20) 
16

>  <SMILES>  (20) 
COC(=O)N1CCC(N2CCN(CCc3ccncc3)C[C@H]2C)CC1

>  <Energy>  (20) 
67.44002093462763

>  <Genealogy>  (20) 
COC(=O)N1CCC(N2CCN(CCc3ccncc3)C[C@H]2C)CC1 (chirality)
COC(=O)N1CCC(N2CCN(CCc3ccncc3)C[C@H]2C)CC1 (3D coordinates assigned)
COC(=O)N1CCC(N2CCN(CCc3ccncc3)C[C@H]2C)CC1 (nonaromatic ring conformer: 67.44002093462763 kcal/mol)

>  <smiles>  (20) 
COC(=O)N1CCC(N2CCN(CCc3ccncc3)CC2C)CC1

>  <score_type>  (20) 
oracle

>  <origin>  (20) 
adg

>  <m_score__min__energy>  (20) 
-8.3399999999999999

>  <m_primary>  (20) 
energy

$$$$
20:0
     RDKit          3D

 43 46  0  0  0  0  0  0  0  0999 V2000
   -0.3920   20.1760  -33.7330 C   0  0  0  0  0  0  0  0  0  0  0  0
   -1.0290   20.8100  -32.6290 O   0  0  0  0  0  0  0  0  0  0  0  0
   -2.4170   20.8380  -32.4230 C   0  0  0  0  0  0  0  0  0  0  0  0
   -3.0070   19.7640  -31.7490 C   0  0  0  0  0  0  0  0  0  0  0  0
   -4.3810   19.7450  -31.5100 C   0  0  0  0  0  0  0  0  0  0  0  0
   -5.1950   20.8010  -31.9500 C   0  0  0  0  0  0  0  0  0  0  0  0
   -4.6110   21.8910  -32.6250 C   0  0  0  0  0  0  0  0  0  0  0  0
   -3.2250   21.9030  -32.8600 C   0  0  0  0  0  0  0  0  0  0  0  0
   -5.4200   23.0270  -32.9740 N   0  0  0  0  0  0  0  0  0  0  0  0
   -5.7380   23.7510  -31.7720 C   0  0  0  0  0  0  0  0  0  0  0  0
   -5.1930   24.9860  -31.5780 N   0  0  0  0  0  0  0  0  0  0  0  0
   -5.4420   25.7240  -30.4660 C   0  0  0  0  0  0  0  0  0  0  0  0
   -6.2860   25.2280  -29.4750 C   0  0  0  0  0  0  0  0  0  0  0  0
   -6.8570   23.9670  -29.6340 C   0  0  0  0  0  0  0  0  0  0  0  0
   -6.5850   23.2000  -30.7800 C   0  0  0  0  0  0  0  0  0  0  0  0
   -7.2260   21.8670  -30.9330 C   0  0  0  0  0  0  0  0  0  0  0  0
   -8.3460   21.6770  -30.3850 O   0  0  0  0  0  0  0  0  0  0  0  0
   -6.6120   20.7910  -31.6830 N   0  0  0  0  0  0  0  0  0  0  0  0
   -7.4670   19.8150  -32.3800 C   0  0  0  0  0  0  0  0  0  0  0  0
   -6.6890   18.6140  -32.8590 C   0  0  0  0  0  0  0  0  0  0  0  0
   -6.5340   17.5000  -32.0140 C   0  0  0  0  0  0  0  0  0  0  0  0
   -5.7970   16.3910  -32.4370 C   0  0  0  0  0  0  0  0  0  0  0  0
   -5.2070   16.3820  -33.7040 C   0  0  0  0  0  0  0  0  0  0  0  0
   -5.3540   17.4830  -34.5510 C   0  0  0  0  0  0  0  0  0  0  0  0
   -6.0890   18.5990  -34.1330 C   0  0  0  0  0  0  0  0  0  0  0  0
   -6.2110   19.6570  -34.9710 F   0  0  0  0  0  0  0  0  0  0  0  0
    0.3421   19.4453  -33.3626 H   0  0  0  0  0  0  0  0  0  0  0  0
   -1.1465   19.6598  -34.3447 H   0  0  0  0  0  0  0  0  0  0  0  0
    0.1206   20.9330  -34.3447 H   0  0  0  0  0  0  0  0  0  0  0  0
   -2.3820   18.9270  -31.4044 H   0  0  0  0  0  0  0  0  0  0  0  0
   -4.8301   18.8966  -30.9729 H   0  0  0  0  0  0  0  0  0  0  0  0
   -2.7688   22.7522  -33.3899 H   0  0  0  0  0  0  0  0  0  0  0  0
   -4.9100   23.6530  -33.6420 H   0  0  0  0  0  0  0  0  0  0  0  0
   -6.3010   22.7170  -33.4490 H   0  0  0  0  0  0  0  0  0  0  0  0
   -4.9771   26.7139  -30.3476 H   0  0  0  0  0  0  0  0  0  0  0  0
   -6.4994   25.8255  -28.5764 H   0  0  0  0  0  0  0  0  0  0  0  0
   -7.5257   23.5687  -28.8567 H   0  0  0  0  0  0  0  0  0  0  0  0
   -8.2526   19.4754  -31.6890 H   0  0  0  0  0  0  0  0  0  0  0  0
   -7.8967   20.3123  -33.2621 H   0  0  0  0  0  0  0  0  0  0  0  0
   -6.9953   17.5021  -31.0154 H   0  0  0  0  0  0  0  0  0  0  0  0
   -5.6808   15.5230  -31.7714 H   0  0  0  0  0  0  0  0  0  0  0  0
   -4.6268   15.5077  -34.0342 H   0  0  0  0  0  0  0  0  0  0  0  0
   -4.8912   17.4732  -35.5488 H   0  0  0  0  0  0  0  0  0  0  0  0
  1  2  1  0
  2  3  1  0
  3  4  2  0
  4  5  1  0
  5  6  2  0
  6  7  1  0
  7  8  2  0
  7  9  1  0
  9 10  1  0
 10 11  2  0
 11 12  1  0
 12 13  2  0
 13 14  1  0
 14 15  2  0
 15 16  1  0
 16 17  2  0
 16 18  1  0
 18 19  1  0
 19 20  1  0
 20 21  2  0
 21 22  1  0
 22 23  2  0
 23 24  1  0
 24 25  2  0
 25 26  1  0
  8  3  1  0
 15 10  1  0
 25 20  1  0
 18  6  1  0
  1 27  1  0
  1 28  1  0
  1 29  1  0
  4 30  1  0
  5 31  1  0
  8 32  1  0
  9 33  1  0
  9 34  1  0
 12 35  1  0
 13 36  1  0
 14 37  1  0
 19 38  1  0
 19 39  1  0
 21 40  1  0
 22 41  1  0
 23 42  1  0
 24 43  1  0
M  CHG  1   9   1
M  END
>  <UniqueID>  (21) 
17

>  <SMILES>  (21) 
COc1ccc2c(c1)[NH2+]c1ncccc1C(=O)N2Cc1ccccc1F

>  <Energy>  (21) 
65.42285650211558

>  <Genealogy>  (21) 
COc1ccc2c(c1)[NH2+]c1ncccc1C(=O)N2Cc1ccccc1F (protonated)
COc1ccc2c(c1)[NH2+]c1ncccc1C(=O)N2Cc1ccccc1F (3D coordinates assigned)
COc1ccc2c(c1)[NH2+]c1ncccc1C(=O)N2Cc1ccccc1F (nonaromatic ring conformer: 65.42285650211558 kcal/mol)

>  <smiles>  (21) 
COc1ccc2c(c1)Nc1ncccc1C(=O)N2Cc1ccccc1F

>  <score_type>  (21) 
oracle

>  <origin>  (21) 
adg

>  <m_score__min__energy>  (21) 
-7.46

>  <m_primary>  (21) 
energy

$$$$
21:0
     RDKit          3D

 34 36  0  0  0  0  0  0  0  0999 V2000
   -3.2331   23.2010  -32.4391 H   0  0  0  0  0  0  0  0  0  0  0  0
   -3.6620   22.6790  -31.5710 C   0  0  0  0  0  0  0  0  0  0  0  0
   -4.6440   21.7790  -31.8000 C   0  0  0  0  0  0  0  0  0  0  0  0
   -6.0400   22.2490  -32.0260 C   0  0  0  0  0  0  0  0  0  0  0  0
   -6.3080   23.4830  -32.0010 O   0  0  0  0  0  0  0  0  0  0  0  0
   -7.1380   21.2750  -32.2340 C   0  0  0  0  0  0  0  0  0  0  0  0
   -8.4620   21.6150  -31.9060 C   0  0  0  0  0  0  0  0  0  0  0  0
   -8.7008   22.6403  -31.5872 H   0  0  0  0  0  0  0  0  0  0  0  0
   -9.4770   20.6560  -31.9830 C   0  0  0  0  0  0  0  0  0  0  0  0
  -10.5119   20.9303  -31.7304 H   0  0  0  0  0  0  0  0  0  0  0  0
   -9.1790   19.3510  -32.3800 C   0  0  0  0  0  0  0  0  0  0  0  0
   -9.9759   18.5939  -32.4219 H   0  0  0  0  0  0  0  0  0  0  0  0
   -7.8700   19.0060  -32.7240 C   0  0  0  0  0  0  0  0  0  0  0  0
   -7.6375   17.9766  -33.0342 H   0  0  0  0  0  0  0  0  0  0  0  0
   -6.8530   19.9670  -32.6750 C   0  0  0  0  0  0  0  0  0  0  0  0
   -5.2040   19.5290  -33.2360 S   0  0  0  0  0  0  0  0  0  0  0  0
   -4.3880   20.2860  -31.7980 C   0  0  0  0  0  0  0  0  0  0  0  0
   -3.3052   20.0996  -31.8507 H   0  0  0  0  0  0  0  0  0  0  0  0
   -4.7913   19.8461  -30.8740 H   0  0  0  0  0  0  0  0  0  0  0  0
   -3.1250   23.0100  -30.2350 C   0  0  0  0  0  0  0  0  0  0  0  0
   -2.4400   22.0180  -29.5190 C   0  0  0  0  0  0  0  0  0  0  0  0
   -2.3234   21.0132  -29.9512 H   0  0  0  0  0  0  0  0  0  0  0  0
   -1.9050   22.2990  -28.2600 C   0  0  0  0  0  0  0  0  0  0  0  0
   -1.3793   21.5129  -27.6982 H   0  0  0  0  0  0  0  0  0  0  0  0
   -2.0370   23.5770  -27.7140 C   0  0  0  0  0  0  0  0  0  0  0  0
   -1.6233   23.7933  -26.7180 H   0  0  0  0  0  0  0  0  0  0  0  0
   -2.6930   24.5820  -28.4290 C   0  0  0  0  0  0  0  0  0  0  0  0
   -2.7893   25.5883  -27.9954 H   0  0  0  0  0  0  0  0  0  0  0  0
   -3.2320   24.3130  -29.7030 C   0  0  0  0  0  0  0  0  0  0  0  0
   -3.8630   25.3100  -30.4650 O   0  0  0  0  0  0  0  0  0  0  0  0
   -5.2470   25.6310  -30.3900 C   0  0  0  0  0  0  0  0  0  0  0  0
   -5.5504   25.7014  -29.3350 H   0  0  0  0  0  0  0  0  0  0  0  0
   -5.4274   26.5948  -30.8885 H   0  0  0  0  0  0  0  0  0  0  0  0
   -5.8332   24.8450  -30.8885 H   0  0  0  0  0  0  0  0  0  0  0  0
  1  2  1  0
  2  3  2  0
  3  4  1  0
  4  5  2  0
  4  6  1  0
  6  7  2  0
  7  8  1  0
  7  9  1  0
  9 10  1  0
  9 11  2  0
 11 12  1  0
 11 13  1  0
 13 14  1  0
 13 15  2  0
 15 16  1  0
 16 17  1  0
 17 18  1  0
 17 19  1  0
  2 20  1  0
 20 21  2  0
 21 22  1  0
 21 23  1  0
 23 24  1  0
 23 25  2  0
 25 26  1  0
 25 27  1  0
 27 28  1  0
 27 29  2  0
 29 30  1  0
 30 31  1  0
 31 32  1  0
 31 33  1  0
 31 34  1  0
 17  3  1  0
 29 20  1  0
 15  6  1  0
M  END
>  <UniqueID>  (22) 
18

>  <SMILES>  (22) 
COc1ccccc1/C=C1\CSc2ccccc2C1=O

>  <Energy>  (22) 
50.08889920215637

>  <Genealogy>  (22) 
COc1ccccc1/C=C1\CSc2ccccc2C1=O (cis-trans isomerization)
COc1ccccc1/C=C1\CSc2ccccc2C1=O (3D coordinates assigned)
COc1ccccc1/C=C1\CSc2ccccc2C1=O (nonaromatic ring conformer: 50.08889920215637 kcal/mol)

>  <smiles>  (22) 
COc1ccccc1C=C1CSc2ccccc2C1=O

>  <score_type>  (22) 
oracle

>  <origin>  (22) 
adg

>  <m_score__min__energy>  (22) 
-8.7899999999999991

>  <m_primary>  (22) 
energy

$$$$
22:0
     RDKit          3D

 62 65  0  0  0  0  0  0  0  0999 V2000
   -4.2790   13.4920  -33.1500 C   0  0  0  0  0  0  0  0  0  0  0  0
   -5.0770   14.7610  -33.0880 C   0  0  0  0  0  0  0  0  0  0  0  0
   -5.8610   15.1490  -34.1840 C   0  0  0  0  0  0  0  0  0  0  0  0
   -6.5790   16.3480  -34.1470 C   0  0  0  0  0  0  0  0  0  0  0  0
   -6.5220   17.1800  -33.0160 C   0  0  0  0  0  0  0  0  0  0  0  0
   -7.2500   18.4230  -32.9840 N   0  0  0  0  0  0  0  0  0  0  0  0
   -6.8530   19.5560  -33.8260 C   0  0  0  0  0  0  0  0  0  0  0  0
   -6.7290   20.8460  -32.9880 C   0  0  0  0  0  0  0  0  0  0  0  0
   -7.5150   20.8100  -31.7230 N   0  0  0  0  0  0  0  0  0  0  0  0
   -7.8260   22.1770  -31.2450 C   0  0  0  0  0  0  0  0  0  0  0  0
   -6.5790   22.9270  -30.8570 C   0  0  0  0  0  0  0  0  0  0  0  0
   -6.5560   24.3290  -30.8540 C   0  0  0  0  0  0  0  0  0  0  0  0
   -5.3770   24.9820  -30.4930 C   0  0  0  0  0  0  0  0  0  0  0  0
   -5.3360   26.2420  -30.4810 O   0  0  0  0  0  0  0  0  0  0  0  0
   -4.2480   24.2360  -30.1450 C   0  0  0  0  0  0  0  0  0  0  0  0
   -3.0750   24.9080  -29.7650 O   0  0  0  0  0  0  0  0  0  0  0  0
   -2.1390   24.4540  -28.7870 C   0  0  0  0  0  0  0  0  0  0  0  0
   -1.1930   25.5500  -28.3740 C   0  0  0  0  0  0  0  0  0  0  0  0
   -1.2350   26.6520  -28.9830 O   0  0  0  0  0  0  0  0  0  0  0  0
   -0.2480   25.3880  -27.3080 N   0  0  0  0  0  0  0  0  0  0  0  0
   -0.3190   26.0630  -26.0490 C   0  0  0  0  0  0  0  0  0  0  0  0
   -0.3310   27.4650  -26.0390 C   0  0  0  0  0  0  0  0  0  0  0  0
   -0.3750   28.1630  -24.8310 C   0  0  0  0  0  0  0  0  0  0  0  0
   -0.4230   27.4670  -23.6230 C   0  0  0  0  0  0  0  0  0  0  0  0
   -0.4420   26.0690  -23.6200 C   0  0  0  0  0  0  0  0  0  0  0  0
   -0.4110   25.3540  -24.8290 C   0  0  0  0  0  0  0  0  0  0  0  0
   -0.4660   23.8510  -24.7820 C   0  0  0  0  0  0  0  0  0  0  0  0
   -4.3440   22.8330  -30.1850 C   0  0  0  0  0  0  0  0  0  0  0  0
   -5.4850   22.2440  -30.5310 O   0  0  0  0  0  0  0  0  0  0  0  0
   -8.7660   20.0380  -31.8880 C   0  0  0  0  0  0  0  0  0  0  0  0
   -8.4470   18.5570  -32.1460 C   0  0  0  0  0  0  0  0  0  0  0  0
   -5.7160   16.7980  -31.9290 C   0  0  0  0  0  0  0  0  0  0  0  0
   -4.9970   15.6000  -31.9670 C   0  0  0  0  0  0  0  0  0  0  0  0
   -4.0612   13.1456  -32.1289 H   0  0  0  0  0  0  0  0  0  0  0  0
   -4.8557   12.7219  -33.6833 H   0  0  0  0  0  0  0  0  0  0  0  0
   -3.3351   13.6781  -33.6833 H   0  0  0  0  0  0  0  0  0  0  0  0
   -5.9112   14.5076  -35.0762 H   0  0  0  0  0  0  0  0  0  0  0  0
   -7.1937   16.6426  -35.0104 H   0  0  0  0  0  0  0  0  0  0  0  0
   -5.8820   19.3350  -34.2933 H   0  0  0  0  0  0  0  0  0  0  0  0
   -7.6232   19.7092  -34.5963 H   0  0  0  0  0  0  0  0  0  0  0  0
   -5.6691   20.9966  -32.7353 H   0  0  0  0  0  0  0  0  0  0  0  0
   -7.1332   21.6679  -33.5971 H   0  0  0  0  0  0  0  0  0  0  0  0
   -6.9390   20.3340  -30.9850 H   0  0  0  0  0  0  0  0  0  0  0  0
   -8.3383   22.7277  -32.0477 H   0  0  0  0  0  0  0  0  0  0  0  0
   -8.4668   22.0922  -30.3550 H   0  0  0  0  0  0  0  0  0  0  0  0
   -7.4518   24.9040  -31.1314 H   0  0  0  0  0  0  0  0  0  0  0  0
   -2.6896   24.1051  -27.9009 H   0  0  0  0  0  0  0  0  0  0  0  0
   -1.5482   23.6382  -29.2290 H   0  0  0  0  0  0  0  0  0  0  0  0
   -0.3056   28.0185  -26.9893 H   0  0  0  0  0  0  0  0  0  0  0  0
   -0.3718   29.2630  -24.8316 H   0  0  0  0  0  0  0  0  0  0  0  0
   -0.4459   28.0187  -22.6717 H   0  0  0  0  0  0  0  0  0  0  0  0
   -0.4815   25.5252  -22.6646 H   0  0  0  0  0  0  0  0  0  0  0  0
   -0.4782   23.5171  -23.7340 H   0  0  0  0  0  0  0  0  0  0  0  0
   -1.3775   23.5014  -25.2888 H   0  0  0  0  0  0  0  0  0  0  0  0
    0.4175   23.4357  -25.2888 H   0  0  0  0  0  0  0  0  0  0  0  0
   -3.4686   22.2185  -29.9281 H   0  0  0  0  0  0  0  0  0  0  0  0
   -9.3700   20.1253  -30.9728 H   0  0  0  0  0  0  0  0  0  0  0  0
   -9.3242   20.4393  -32.7467 H   0  0  0  0  0  0  0  0  0  0  0  0
   -8.2729   18.0522  -31.1843 H   0  0  0  0  0  0  0  0  0  0  0  0
   -9.2985   18.0976  -32.6693 H   0  0  0  0  0  0  0  0  0  0  0  0
   -5.6509   17.4463  -31.0428 H   0  0  0  0  0  0  0  0  0  0  0  0
   -4.3652   15.3137  -31.1133 H   0  0  0  0  0  0  0  0  0  0  0  0
  1  2  1  0
  2  3  2  0
  3  4  1  0
  4  5  2  0
  5  6  1  0
  6  7  1  0
  7  8  1  0
  8  9  1  0
  9 10  1  0
 10 11  1  0
 11 12  2  0
 12 13  1  0
 13 14  2  0
 13 15  1  0
 15 16  1  0
 16 17  1  0
 17 18  1  0
 18 19  2  0
 18 20  1  0
 20 21  1  0
 21 22  2  0
 22 23  1  0
 23 24  2  0
 24 25  1  0
 25 26  2  0
 26 27  1  0
 15 28  2  0
 28 29  1  0
  9 30  1  0
 30 31  1  0
  5 32  1  0
 32 33  2  0
 33  2  1  0
 31  6  1  0
 29 11  1  0
 26 21  1  0
  1 34  1  0
  1 35  1  0
  1 36  1  0
  3 37  1  0
  4 38  1  0
  7 39  1  0
  7 40  1  0
  8 41  1  0
  8 42  1  0
  9 43  1  0
 10 44  1  0
 10 45  1  0
 12 46  1  0
 17 47  1  0
 17 48  1  0
 22 49  1  0
 23 50  1  0
 24 51  1  0
 25 52  1  0
 27 53  1  0
 27 54  1  0
 27 55  1  0
 28 56  1  0
 30 57  1  0
 30 58  1  0
 31 59  1  0
 31 60  1  0
 32 61  1  0
 33 62  1  0
M  CHG  2   9   1  20  -1
M  END
>  <UniqueID>  (23) 
19

>  <SMILES>  (23) 
Cc1ccc(N2CC[NH+](Cc3cc(=O)c(OCC(=O)[N-]c4ccccc4C)co3)CC2)cc1

>  <Energy>  (23) 
82.41925051664114

>  <Genealogy>  (23) 
Cc1ccc(N2CC[NH+](Cc3cc(=O)c(OCC(=O)[N-]c4ccccc4C)co3)CC2)cc1 (protonated)
Cc1ccc(N2CC[NH+](Cc3cc(=O)c(OCC(=O)[N-]c4ccccc4C)co3)CC2)cc1 (3D coordinates assigned)
Cc1ccc(N2CC[NH+](Cc3cc(=O)c(OCC(=O)[N-]c4ccccc4C)co3)CC2)cc1 (nonaromatic ring conformer: 82.41925051664114 kcal/mol)

>  <smiles>  (23) 
Cc1ccc(N2CCN(Cc3cc(=O)c(OCC(=O)Nc4ccccc4C)co3)CC2)cc1

>  <score_type>  (23) 
oracle

>  <origin>  (23) 
adg

>  <m_score__min__energy>  (23) 
-10.02

>  <m_primary>  (23) 
energy

$$$$
23:0
     RDKit          3D

 37 38  0  0  0  0  0  0  0  0999 V2000
   -1.9650   25.9270  -26.0220 C   0  0  0  0  0  0  0  0  0  0  0  0
   -1.9890   24.7100  -26.9370 C   0  0  0  0  0  0  0  0  0  0  0  0
   -1.0210   25.0000  -28.4110 S   0  0  0  0  0  0  0  0  0  0  0  0
    0.4340   24.8010  -28.0910 O   0  0  0  0  0  0  0  0  0  0  0  0
   -1.2240   26.4130  -28.8840 O   0  0  0  0  0  0  0  0  0  0  0  0
   -1.4770   23.8940  -29.6670 N   0  0  0  0  0  0  0  0  0  0  0  0
   -2.6940   23.7410  -30.0900 C   0  0  0  0  0  0  0  0  0  0  0  0
   -3.0110   22.6430  -30.8220 N   0  0  0  0  0  0  0  0  0  0  0  0
   -4.2740   22.4300  -31.2840 C   0  0  0  0  0  0  0  0  0  0  0  0
   -4.5610   21.2110  -32.0850 C   0  0  0  0  0  0  0  0  0  0  0  0
   -5.8670   20.7060  -32.2100 C   0  0  0  0  0  0  0  0  0  0  0  0
   -6.1160   19.5520  -32.9600 C   0  0  0  0  0  0  0  0  0  0  0  0
   -5.0640   18.8750  -33.6010 C   0  0  0  0  0  0  0  0  0  0  0  0
   -5.3200   17.6510  -34.4020 C   0  0  0  0  0  0  0  0  0  0  0  0
   -4.4140   17.2540  -35.4380 N   0  0  0  0  0  0  0  0  0  0  0  0
   -6.6320   16.7120  -34.1000 S   0  0  0  0  0  0  0  0  0  0  0  0
   -3.7570   19.3720  -33.4650 C   0  0  0  0  0  0  0  0  0  0  0  0
   -3.5080   20.5230  -32.7130 C   0  0  0  0  0  0  0  0  0  0  0  0
   -5.2680   23.3830  -31.0070 C   0  0  0  0  0  0  0  0  0  0  0  0
   -4.9310   24.5090  -30.2480 C   0  0  0  0  0  0  0  0  0  0  0  0
   -5.9630   25.5530  -29.9360 C   0  0  0  0  0  0  0  0  0  0  0  0
   -6.0930   25.6790  -28.5660 F   0  0  0  0  0  0  0  0  0  0  0  0
   -5.5740   26.7680  -30.4700 F   0  0  0  0  0  0  0  0  0  0  0  0
   -7.1880   25.2010  -30.4730 F   0  0  0  0  0  0  0  0  0  0  0  0
   -3.6530   24.6630  -29.8110 N   0  0  0  0  0  0  0  0  0  0  0  0
   -1.9715   25.5970  -24.9727 H   0  0  0  0  0  0  0  0  0  0  0  0
   -1.0551   26.5138  -26.2162 H   0  0  0  0  0  0  0  0  0  0  0  0
   -2.8510   26.5493  -26.2162 H   0  0  0  0  0  0  0  0  0  0  0  0
   -1.5736   23.8459  -26.3977 H   0  0  0  0  0  0  0  0  0  0  0  0
   -3.0300   24.5141  -27.2335 H   0  0  0  0  0  0  0  0  0  0  0  0
   -6.7010   21.2234  -31.7132 H   0  0  0  0  0  0  0  0  0  0  0  0
   -7.1440   19.1709  -33.0490 H   0  0  0  0  0  0  0  0  0  0  0  0
   -3.6310   17.8730  -35.7390 H   0  0  0  0  0  0  0  0  0  0  0  0
   -4.5640   16.3620  -35.9590 H   0  0  0  0  0  0  0  0  0  0  0  0
   -2.9219   18.8501  -33.9551 H   0  0  0  0  0  0  0  0  0  0  0  0
   -2.4777   20.8946  -32.6113 H   0  0  0  0  0  0  0  0  0  0  0  0
   -6.2936   23.2464  -31.3804 H   0  0  0  0  0  0  0  0  0  0  0  0
  1  2  1  0
  2  3  1  0
  3  4  2  0
  3  5  2  0
  3  6  1  0
  6  7  2  3
  7  8  1  0
  8  9  2  0
  9 10  1  0
 10 11  2  0
 11 12  1  0
 12 13  2  0
 13 14  1  0
 14 15  1  0
 14 16  2  0
 13 17  1  0
 17 18  2  0
  9 19  1  0
 19 20  2  0
 20 21  1  0
 21 22  1  0
 21 23  1  0
 21 24  1  0
 20 25  1  0
 25  7  1  0
 18 10  1  0
  1 26  1  0
  1 27  1  0
  1 28  1  0
  2 29  1  0
  2 30  1  0
 11 31  1  0
 12 32  1  0
 15 33  1  0
 15 34  1  0
 17 35  1  0
 18 36  1  0
 19 37  1  0
M  CHG  1  25  -1
M  END
>  <UniqueID>  (24) 
20

>  <SMILES>  (24) 
CCS(=O)(=O)N=c1nc(-c2ccc(C(N)=S)cc2)cc(C(F)(F)F)[n-]1

>  <Energy>  (24) 
39.257626844355684

>  <Genealogy>  (24) 
CCS(=O)(=O)N=c1nc(-c2ccc(C(N)=S)cc2)cc(C(F)(F)F)[n-]1 (protonated)
CCS(=O)(=O)N=c1nc(-c2ccc(C(N)=S)cc2)cc(C(F)(F)F)[n-]1 (3D coordinates assigned)
CCS(=O)(=O)N=c1nc(-c2ccc(C(N)=S)cc2)cc(C(F)(F)F)[n-]1 (optimized conformer: 39.257626844355684 kcal/mol)

>  <smiles>  (24) 
CCS(=O)(=O)N=c1nc(-c2ccc(C(N)=S)cc2)cc(C(F)(F)F)[nH]1

>  <score_type>  (24) 
oracle

>  <origin>  (24) 
adg

>  <m_score__min__energy>  (24) 
-8.6300000000000008

>  <m_primary>  (24) 
energy

$$$$
24:0
     RDKit          3D

 59 62  0  0  0  0  0  0  0  0999 V2000
   -1.6037   20.2084  -32.2025 H   0  0  0  0  0  0  0  0  0  0  0  0
   -1.7760   20.5370  -31.1670 C   0  0  0  0  0  0  0  0  0  0  0  0
   -1.0820   19.9270  -30.1910 C   0  0  0  0  0  0  0  0  0  0  0  0
   -0.4128   19.0992  -30.4683 H   0  0  0  0  0  0  0  0  0  0  0  0
   -1.1690   20.3090  -28.7600 C   0  0  0  0  0  0  0  0  0  0  0  0
   -0.3700   21.3680  -28.2960 C   0  0  0  0  0  0  0  0  0  0  0  0
    0.2926   21.8976  -28.9963 H   0  0  0  0  0  0  0  0  0  0  0  0
   -0.4090   21.7550  -26.9530 C   0  0  0  0  0  0  0  0  0  0  0  0
    0.2159   22.5900  -26.6033 H   0  0  0  0  0  0  0  0  0  0  0  0
   -1.2410   21.0820  -26.0550 C   0  0  0  0  0  0  0  0  0  0  0  0
   -1.2751   21.3905  -24.9997 H   0  0  0  0  0  0  0  0  0  0  0  0
   -2.0290   20.0180  -26.4970 C   0  0  0  0  0  0  0  0  0  0  0  0
   -2.6799   19.4856  -25.7878 H   0  0  0  0  0  0  0  0  0  0  0  0
   -1.9930   19.6270  -27.8400 C   0  0  0  0  0  0  0  0  0  0  0  0
   -2.6108   18.7829  -28.1805 H   0  0  0  0  0  0  0  0  0  0  0  0
   -2.7570   21.6220  -30.9400 C   0  0  0  0  0  0  0  0  0  0  0  0
   -4.0150   21.3980  -31.3110 O   0  0  0  0  0  0  0  0  0  0  0  0
   -4.9890   22.2910  -31.1610 C   0  0  0  0  0  0  0  0  0  0  0  0
   -6.2840   21.9780  -31.5850 C   0  0  0  0  0  0  0  0  0  0  0  0
   -6.4872   20.9957  -32.0365 H   0  0  0  0  0  0  0  0  0  0  0  0
   -7.3250   22.9040  -31.4400 C   0  0  0  0  0  0  0  0  0  0  0  0
   -8.6040   22.5390  -31.8820 O   0  0  0  0  0  0  0  0  0  0  0  0
   -9.4040   21.5190  -31.2880 C   0  0  0  0  0  0  0  0  0  0  0  0
  -10.4177   21.9080  -31.1115 H   0  0  0  0  0  0  0  0  0  0  0  0
   -8.9492   21.2141  -30.3340 H   0  0  0  0  0  0  0  0  0  0  0  0
   -9.4820   20.3050  -32.2170 C   0  0  0  0  0  0  0  0  0  0  0  0
   -9.0030   20.5617  -33.1734 H   0  0  0  0  0  0  0  0  0  0  0  0
  -10.5449   20.0548  -32.3503 H   0  0  0  0  0  0  0  0  0  0  0  0
   -8.7820   19.0680  -31.6320 C   0  0  0  0  0  0  0  0  0  0  0  0
   -9.3049   18.1636  -31.9765 H   0  0  0  0  0  0  0  0  0  0  0  0
   -8.8103   19.1387  -30.5346 H   0  0  0  0  0  0  0  0  0  0  0  0
   -7.3680   19.0000  -32.0600 N   0  0  0  0  0  0  0  0  0  0  0  0
   -6.8610   17.6140  -32.0450 C   0  0  0  0  0  0  0  0  0  0  0  0
   -7.3755   17.0312  -32.8232 H   0  0  0  0  0  0  0  0  0  0  0  0
   -7.0528   17.1741  -31.0552 H   0  0  0  0  0  0  0  0  0  0  0  0
   -5.3420   17.5950  -32.3160 C   0  0  0  0  0  0  0  0  0  0  0  0
   -5.1149   16.7644  -33.0005 H   0  0  0  0  0  0  0  0  0  0  0  0
   -4.8289   17.4710  -31.3510 H   0  0  0  0  0  0  0  0  0  0  0  0
   -4.8650   18.8590  -32.9250 N   0  0  0  0  0  0  0  0  0  0  0  0
   -4.8120   19.5960  -32.1810 H   0  0  0  0  0  0  0  0  0  0  0  0
   -3.5080   18.6840  -33.4710 C   0  0  0  0  0  0  0  0  0  0  0  0
   -2.7890   18.5913  -32.6437 H   0  0  0  0  0  0  0  0  0  0  0  0
   -3.4757   17.7743  -34.0885 H   0  0  0  0  0  0  0  0  0  0  0  0
   -3.2460   19.5558  -34.0885 H   0  0  0  0  0  0  0  0  0  0  0  0
   -5.7910   19.3160  -33.9810 C   0  0  0  0  0  0  0  0  0  0  0  0
   -5.8625   18.5394  -34.7568 H   0  0  0  0  0  0  0  0  0  0  0  0
   -5.4010   20.2526  -34.4060 H   0  0  0  0  0  0  0  0  0  0  0  0
   -7.2000   19.5870  -33.4070 C   0  0  0  0  0  0  0  0  0  0  0  0
   -7.9496   19.1486  -34.0822 H   0  0  0  0  0  0  0  0  0  0  0  0
   -7.3309   20.6760  -33.3235 H   0  0  0  0  0  0  0  0  0  0  0  0
   -7.0550   24.1600  -30.8620 C   0  0  0  0  0  0  0  0  0  0  0  0
   -7.8658   24.8945  -30.7474 H   0  0  0  0  0  0  0  0  0  0  0  0
   -5.7630   24.4790  -30.4330 C   0  0  0  0  0  0  0  0  0  0  0  0
   -5.5622   25.4604  -29.9786 H   0  0  0  0  0  0  0  0  0  0  0  0
   -4.7210   23.5490  -30.5810 C   0  0  0  0  0  0  0  0  0  0  0  0
   -3.4080   23.8190  -30.1640 C   0  0  0  0  0  0  0  0  0  0  0  0
   -3.1110   24.9220  -29.6290 O   0  0  0  0  0  0  0  0  0  0  0  0
   -2.4180   22.8500  -30.3410 C   0  0  0  0  0  0  0  0  0  0  0  0
   -1.3852   23.0441  -30.0161 H   0  0  0  0  0  0  0  0  0  0  0  0
  1  2  1  0
  2  3  2  0
  3  4  1  0
  3  5  1  0
  5  6  2  0
  6  7  1  0
  6  8  1  0
  8  9  1  0
  8 10  2  0
 10 11  1  0
 10 12  1  0
 12 13  1  0
 12 14  2  0
 14 15  1  0
  2 16  1  0
 16 17  1  0
 17 18  1  0
 18 19  2  0
 19 20  1  0
 19 21  1  0
 21 22  1  0
 22 23  1  0
 23 24  1  0
 23 25  1  0
 23 26  1  0
 26 27  1  0
 26 28  1  0
 26 29  1  0
 29 30  1  0
 29 31  1  0
 29 32  1  0
 32 33  1  0
 33 34  1  0
 33 35  1  0
 33 36  1  0
 36 37  1  0
 36 38  1  0
 36 39  1  0
 39 40  1  0
 39 41  1  0
 41 42  1  0
 41 43  1  0
 41 44  1  0
 39 45  1  0
 45 46  1  0
 45 47  1  0
 45 48  1  0
 48 49  1  0
 48 50  1  0
 21 51  2  0
 51 52  1  0
 51 53  1  0
 53 54  1  0
 53 55  2  0
 55 56  1  0
 56 57  2  0
 56 58  1  0
 58 59  1  0
 14  5  1  0
 58 16  2  0
 55 18  1  0
 48 32  1  0
M  CHG  1  39   1
M  END
>  <UniqueID>  (25) 
21

>  <SMILES>  (25) 
C[NH+]1CCN(CCCOc2ccc3c(=O)cc(/C=C/c4ccccc4)oc3c2)CC1

>  <Energy>  (25) 
76.16091749348473

>  <Genealogy>  (25) 
C[NH+]1CCN(CCCOc2ccc3c(=O)cc(C=Cc4ccccc4)oc3c2)CC1 (protonated)
C[NH+]1CCN(CCCOc2ccc3c(=O)cc(/C=C/c4ccccc4)oc3c2)CC1 (cis-trans isomerization)
C[NH+]1CCN(CCCOc2ccc3c(=O)cc(/C=C/c4ccccc4)oc3c2)CC1 (3D coordinates assigned)
C[NH+]1CCN(CCCOc2ccc3c(=O)cc(/C=C/c4ccccc4)oc3c2)CC1 (nonaromatic ring conformer: 76.16091749348473 kcal/mol)

>  <smiles>  (25) 
CN1CCN(CCCOc2ccc3c(=O)cc(C=Cc4ccccc4)oc3c2)CC1

>  <score_type>  (25) 
oracle

>  <origin>  (25) 
adg

>  <m_score__min__energy>  (25) 
-9.5199999999999996

>  <m_primary>  (25) 
energy

$$$$
25:0
     RDKit          3D

 42 45  0  0  1  0  0  0  0  0999 V2000
   -0.6410   21.5430  -26.7960 F   0  0  0  0  0  0  0  0  0  0  0  0
   -1.6230   22.2160  -27.4510 C   0  0  0  0  0  0  0  0  0  0  0  0
   -2.9170   21.7450  -27.5250 C   0  0  0  0  0  0  0  0  0  0  0  0
   -3.8670   22.4880  -28.2130 C   0  0  0  0  0  0  0  0  0  0  0  0
   -3.5660   23.6780  -28.8260 C   0  0  0  0  0  0  0  0  0  0  0  0
   -4.6000   24.4840  -29.5720 C   0  0  0  0  0  0  0  0  0  0  0  0
   -4.6470   24.1700  -30.9430 N   0  0  0  0  0  0  0  0  0  0  0  0
   -4.3670   23.0480  -31.5080 C   0  0  0  0  0  0  0  0  0  0  0  0
   -3.0970   22.6930  -31.7970 N   0  0  0  0  0  0  0  0  0  0  0  0
   -2.8490   21.5050  -32.3910 C   0  0  0  0  0  0  0  0  0  0  0  0
   -3.8550   20.6590  -32.7030 N   0  0  0  0  0  0  0  0  0  0  0  0
   -5.1300   21.0010  -32.4190 C   0  0  0  0  0  0  0  0  0  0  0  0
   -5.3930   22.2120  -31.8130 C   0  0  0  0  0  0  0  0  0  0  0  0
   -6.6960   22.2830  -31.6560 N   0  0  0  0  0  0  0  0  0  0  0  0
   -7.3160   21.1870  -32.1230 C   0  0  0  0  0  0  0  0  0  0  0  0
   -9.0200   20.8400  -32.1280 Cl  0  0  0  0  0  0  0  0  0  0  0  0
   -6.3260   20.3790  -32.6050 N   0  0  0  0  0  0  0  0  0  0  0  0
   -6.4310   19.0860  -33.2160 C   0  0  0  0  0  0  0  0  0  0  0  0
   -5.5660   18.8610  -34.4020 C   0  0  0  0  0  0  0  0  0  0  0  0
   -5.8250   17.4220  -34.8670 C   0  0  0  0  0  0  0  0  0  0  0  0
   -6.8800   16.8330  -34.1750 O   0  0  0  0  0  0  0  0  0  0  0  0
   -6.6420   16.7080  -32.8110 C   0  0  0  0  0  0  0  0  0  0  0  0
   -6.0940   17.9950  -32.2050 C   0  0  0  0  0  0  0  0  0  0  0  0
   -2.2510   24.1130  -28.7240 C   0  0  0  0  0  0  0  0  0  0  0  0
   -1.9510   25.3040  -29.3380 F   0  0  0  0  0  0  0  0  0  0  0  0
   -1.2800   23.4030  -28.0500 C   0  0  0  0  0  0  0  0  0  0  0  0
   -3.1927   20.7941  -27.0457 H   0  0  0  0  0  0  0  0  0  0  0  0
   -4.8981   22.1089  -28.2686 H   0  0  0  0  0  0  0  0  0  0  0  0
   -5.5877   24.2840  -29.1310 H   0  0  0  0  0  0  0  0  0  0  0  0
   -4.3225   25.5447  -29.4831 H   0  0  0  0  0  0  0  0  0  0  0  0
   -2.3470   23.3650  -31.5450 H   0  0  0  0  0  0  0  0  0  0  0  0
   -1.8118   21.2223  -32.6242 H   0  0  0  0  0  0  0  0  0  0  0  0
   -7.4745   19.0445  -33.5616 H   0  0  0  0  0  0  0  0  0  0  0  0
   -5.8258   19.5707  -35.2013 H   0  0  0  0  0  0  0  0  0  0  0  0
   -4.5052   19.0127  -34.1537 H   0  0  0  0  0  0  0  0  0  0  0  0
   -6.0663   17.4334  -35.9401 H   0  0  0  0  0  0  0  0  0  0  0  0
   -4.9176   16.8323  -34.6699 H   0  0  0  0  0  0  0  0  0  0  0  0
   -7.5864   16.4529  -32.3079 H   0  0  0  0  0  0  0  0  0  0  0  0
   -5.8889   15.9189  -32.6691 H   0  0  0  0  0  0  0  0  0  0  0  0
   -6.5761   18.2023  -31.2382 H   0  0  0  0  0  0  0  0  0  0  0  0
   -5.0129   17.9318  -32.0123 H   0  0  0  0  0  0  0  0  0  0  0  0
   -0.2485   23.7809  -27.9932 H   0  0  0  0  0  0  0  0  0  0  0  0
  1  2  1  0
  2  3  2  0
  3  4  1  0
  4  5  2  0
  5  6  1  0
  6  7  1  0
  7  8  2  0
  8  9  1  0
  9 10  1  0
 10 11  2  0
 11 12  1  0
 12 13  2  0
 13 14  1  0
 14 15  2  0
 15 16  1  0
 15 17  1  0
 17 18  1  0
 18 19  1  0
 19 20  1  0
 20 21  1  0
 21 22  1  0
 22 23  1  0
  5 24  1  0
 24 25  1  0
 24 26  2  0
 26  2  1  0
 13  8  1  0
 23 18  1  0
 17 12  1  0
  3 27  1  0
  4 28  1  0
  6 29  1  0
  6 30  1  0
  9 31  1  0
 10 32  1  0
 18 33  1  0
 19 34  1  0
 19 35  1  0
 20 36  1  0
 20 37  1  0
 22 38  1  0
 22 39  1  0
 23 40  1  0
 23 41  1  0
 26 42  1  0
M  END
>  <smiles>  (26) 
Fc1ccc(CN=c2[nH]cnc3c2nc(Cl)n3C2CCOCC2)c(F)c1

>  <score_type>  (26) 
oracle

>  <origin>  (26) 
adg

>  <m_score__min__energy>  (26) 
-8.8800000000000008

>  <m_primary>  (26) 
energy

$$$$
26:0
     RDKit          3D

 61 65  0  0  0  0  0  0  0  0999 V2000
   -4.8120   24.3351  -30.9472 H   0  0  0  0  0  0  0  0  0  0  0  0
   -3.8520   24.0890  -30.4700 C   0  0  0  0  0  0  0  0  0  0  0  0
   -3.2860   24.9680  -29.5940 N   0  0  0  0  0  0  0  0  0  0  0  0
   -2.1170   24.7270  -28.9290 C   0  0  0  0  0  0  0  0  0  0  0  0
   -1.5730   25.7530  -28.3300 N   0  0  0  0  0  0  0  0  0  0  0  0
   -1.3750   26.1190  -26.9290 C   0  0  0  0  0  0  0  0  0  0  0  0
   -0.6484   25.4263  -26.4794 H   0  0  0  0  0  0  0  0  0  0  0  0
   -2.3477   26.0578  -26.4190 H   0  0  0  0  0  0  0  0  0  0  0  0
   -0.8490   27.5550  -26.7830 C   0  0  0  0  0  0  0  0  0  0  0  0
   -1.4344   28.2199  -27.4350 H   0  0  0  0  0  0  0  0  0  0  0  0
    0.2129   27.5685  -27.0697 H   0  0  0  0  0  0  0  0  0  0  0  0
   -0.9630   28.0220  -25.3960 N   0  0  0  0  0  0  0  0  0  0  0  0
   -1.9780   28.1940  -25.2030 H   0  0  0  0  0  0  0  0  0  0  0  0
   -0.5110   27.0060  -24.4400 C   0  0  0  0  0  0  0  0  0  0  0  0
   -0.6728   27.3697  -23.4145 H   0  0  0  0  0  0  0  0  0  0  0  0
   -1.0812   26.0780  -24.5942 H   0  0  0  0  0  0  0  0  0  0  0  0
    0.5600   26.8082  -24.5942 H   0  0  0  0  0  0  0  0  0  0  0  0
   -1.5330   23.4390  -29.1070 C   0  0  0  0  0  0  0  0  0  0  0  0
   -2.0540   22.5800  -30.0470 C   0  0  0  0  0  0  0  0  0  0  0  0
   -1.4110   21.4010  -30.0250 N   0  0  0  0  0  0  0  0  0  0  0  0
   -0.5010   21.5570  -29.0380 C   0  0  0  0  0  0  0  0  0  0  0  0
    0.3450   20.4160  -28.5630 C   0  0  0  0  0  0  0  0  0  0  0  0
    0.3562   20.4009  -27.4632 H   0  0  0  0  0  0  0  0  0  0  0  0
   -0.0714   19.4696  -28.9385 H   0  0  0  0  0  0  0  0  0  0  0  0
    1.3715   20.5395  -28.9385 H   0  0  0  0  0  0  0  0  0  0  0  0
   -0.5690   22.7690  -28.4230 N   0  0  0  0  0  0  0  0  0  0  0  0
   -0.1090   22.9810  -27.0790 C   0  0  0  0  0  0  0  0  0  0  0  0
   -0.7670   22.3430  -26.0150 C   0  0  0  0  0  0  0  0  0  0  0  0
   -1.6173   21.6755  -26.2186 H   0  0  0  0  0  0  0  0  0  0  0  0
   -0.3470   22.5520  -24.7000 C   0  0  0  0  0  0  0  0  0  0  0  0
   -0.8567   22.0378  -23.8718 H   0  0  0  0  0  0  0  0  0  0  0  0
    0.7180   23.4120  -24.4360 C   0  0  0  0  0  0  0  0  0  0  0  0
    1.0537   23.5673  -23.4000 H   0  0  0  0  0  0  0  0  0  0  0  0
    1.3600   24.0770  -25.4830 C   0  0  0  0  0  0  0  0  0  0  0  0
    2.1932   24.7618  -25.2665 H   0  0  0  0  0  0  0  0  0  0  0  0
    0.9470   23.8760  -26.8140 C   0  0  0  0  0  0  0  0  0  0  0  0
    1.5520   24.5450  -27.8900 O   0  0  0  0  0  0  0  0  0  0  0  0
    2.8220   25.1860  -27.8310 C   0  0  0  0  0  0  0  0  0  0  0  0
    3.1107   25.3317  -26.7796 H   0  0  0  0  0  0  0  0  0  0  0  0
    3.5729   24.5590  -28.3339 H   0  0  0  0  0  0  0  0  0  0  0  0
    2.7635   26.1626  -28.3339 H   0  0  0  0  0  0  0  0  0  0  0  0
   -3.2170   22.8710  -30.7670 C   0  0  0  0  0  0  0  0  0  0  0  0
   -3.7800   21.9480  -31.7210 N   0  0  0  0  0  0  0  0  0  0  0  0
   -3.8320   20.6030  -31.6170 C   0  0  0  0  0  0  0  0  0  0  0  0
   -3.4235   20.0049  -30.7891 H   0  0  0  0  0  0  0  0  0  0  0  0
   -4.4870   20.1050  -32.7300 C   0  0  0  0  0  0  0  0  0  0  0  0
   -4.7830   18.6790  -33.0210 C   0  0  0  0  0  0  0  0  0  0  0  0
   -6.0780   18.1620  -32.8340 C   0  0  0  0  0  0  0  0  0  0  0  0
   -6.8795   18.8190  -32.4652 H   0  0  0  0  0  0  0  0  0  0  0  0
   -6.3550   16.8200  -33.1130 C   0  0  0  0  0  0  0  0  0  0  0  0
   -7.3714   16.4271  -32.9626 H   0  0  0  0  0  0  0  0  0  0  0  0
   -5.3450   15.9770  -33.5820 C   0  0  0  0  0  0  0  0  0  0  0  0
   -5.7260   14.1470  -33.9700 Br  0  0  0  0  0  0  0  0  0  0  0  0
   -4.0550   16.4780  -33.7700 C   0  0  0  0  0  0  0  0  0  0  0  0
   -3.2577   15.8147  -34.1365 H   0  0  0  0  0  0  0  0  0  0  0  0
   -3.7730   17.8200  -33.4940 C   0  0  0  0  0  0  0  0  0  0  0  0
   -2.7548   18.2069  -33.6476 H   0  0  0  0  0  0  0  0  0  0  0  0
   -4.8400   21.1430  -33.5160 N   0  0  0  0  0  0  0  0  0  0  0  0
   -5.3730   21.1220  -34.4130 H   0  0  0  0  0  0  0  0  0  0  0  0
   -4.4040   22.2470  -32.8800 C   0  0  0  0  0  0  0  0  0  0  0  0
   -4.5401   23.2704  -33.2597 H   0  0  0  0  0  0  0  0  0  0  0  0
  1  2  1  0
  2  3  1  0
  3  4  1  0
  4  5  2  0
  5  6  1  0
  6  7  1  0
  6  8  1  0
  6  9  1  0
  9 10  1  0
  9 11  1  0
  9 12  1  0
 12 13  1  0
 12 14  1  0
 14 15  1  0
 14 16  1  0
 14 17  1  0
  4 18  1  0
 18 19  2  0
 19 20  1  0
 20 21  2  0
 21 22  1  0
 22 23  1  0
 22 24  1  0
 22 25  1  0
 21 26  1  0
 26 27  1  0
 27 28  2  0
 28 29  1  0
 28 30  1  0
 30 31  1  0
 30 32  2  0
 32 33  1  0
 32 34  1  0
 34 35  1  0
 34 36  2  0
 36 37  1  0
 37 38  1  0
 38 39  1  0
 38 40  1  0
 38 41  1  0
 19 42  1  0
 42 43  1  0
 43 44  1  0
 44 45  1  0
 44 46  2  0
 46 47  1  0
 47 48  2  0
 48 49  1  0
 48 50  1  0
 50 51  1  0
 50 52  2  0
 52 53  1  0
 52 54  1  0
 54 55  1  0
 54 56  2  0
 56 57  1  0
 46 58  1  0
 58 59  1  0
 58 60  2  0
 60 61  1  0
 42  2  2  0
 60 43  1  0
 26 18  1  0
 36 27  1  0
 56 47  1  0
M  CHG  2   3  -1  58   1
M  END
>  <UniqueID>  (27) 
22

>  <SMILES>  (27) 
CNCC/N=c1/[n-]cc(-n2c[nH+]c(-c3ccc(Br)cc3)c2)c2nc(C)n(-c3ccccc3OC)c12

>  <Energy>  (27) 
163.13025988452958

>  <Genealogy>  (27) 
CNCCN=c1[n-]cc(-n2c[nH+]c(-c3ccc(Br)cc3)c2)c2nc(C)n(-c3ccccc3OC)c12 (protonated)
CNCC/N=c1/[n-]cc(-n2c[nH+]c(-c3ccc(Br)cc3)c2)c2nc(C)n(-c3ccccc3OC)c12 (cis-trans isomerization)
CNCC/N=c1/[n-]cc(-n2c[nH+]c(-c3ccc(Br)cc3)c2)c2nc(C)n(-c3ccccc3OC)c12 (3D coordinates assigned)
CNCC/N=c1/[n-]cc(-n2c[nH+]c(-c3ccc(Br)cc3)c2)c2nc(C)n(-c3ccccc3OC)c12 (optimized conformer: 163.13025988452958 kcal/mol)

>  <smiles>  (27) 
CNCCN=c1[nH]cc(-n2cnc(-c3ccc(Br)cc3)c2)c2nc(C)n(-c3ccccc3OC)c12

>  <score_type>  (27) 
oracle

>  <origin>  (27) 
adg

>  <m_score__min__energy>  (27) 
-9.6600000000000001

>  <m_primary>  (27) 
energy

$$$$
27:0
     RDKit          3D

 64 68  0  0  0  0  0  0  0  0999 V2000
   -3.8610   25.3110  -30.8480 O   0  0  0  0  0  0  0  0  0  0  0  0
   -4.4480   24.6170  -29.9760 C   0  0  0  0  0  0  0  0  0  0  0  0
   -3.7110   23.4940  -29.2950 C   0  0  0  0  0  0  0  0  0  0  0  0
   -3.2860   22.4790  -30.2660 N   0  0  0  0  0  0  0  0  0  0  0  0
   -3.9350   22.4100  -31.4400 N   0  0  0  0  0  0  0  0  0  0  0  0
   -3.6320   21.4830  -32.3940 C   0  0  0  0  0  0  0  0  0  0  0  0
   -2.6150   20.5750  -32.1210 C   0  0  0  0  0  0  0  0  0  0  0  0
   -1.9460   20.6360  -30.9220 C   0  0  0  0  0  0  0  0  0  0  0  0
   -2.2750   21.5960  -29.9690 C   0  0  0  0  0  0  0  0  0  0  0  0
   -1.6670   21.6450  -28.8660 O   0  0  0  0  0  0  0  0  0  0  0  0
   -1.0180   19.6160  -30.9420 C   0  0  0  0  0  0  0  0  0  0  0  0
   -0.0790   19.1940  -30.0000 C   0  0  0  0  0  0  0  0  0  0  0  0
    0.7270   18.0900  -30.3250 C   0  0  0  0  0  0  0  0  0  0  0  0
    0.5790   17.4360  -31.5670 C   0  0  0  0  0  0  0  0  0  0  0  0
   -0.3740   17.8810  -32.5010 C   0  0  0  0  0  0  0  0  0  0  0  0
   -1.1700   18.9800  -32.1600 C   0  0  0  0  0  0  0  0  0  0  0  0
   -2.1480   19.5630  -32.8990 N   0  0  0  0  0  0  0  0  0  0  0  0
   -2.6610   19.1230  -34.2010 C   0  0  0  0  0  0  0  0  0  0  0  0
   -3.7900   18.1410  -34.0150 C   0  0  0  0  0  0  0  0  0  0  0  0
   -3.5970   16.9630  -33.2720 C   0  0  0  0  0  0  0  0  0  0  0  0
   -4.6560   16.0710  -33.0780 C   0  0  0  0  0  0  0  0  0  0  0  0
   -5.9130   16.3460  -33.6240 C   0  0  0  0  0  0  0  0  0  0  0  0
   -6.1140   17.5140  -34.3640 C   0  0  0  0  0  0  0  0  0  0  0  0
   -5.0580   18.4100  -34.5590 C   0  0  0  0  0  0  0  0  0  0  0  0
   -5.7860   24.9700  -29.6040 N   0  0  0  0  0  0  0  0  0  0  0  0
   -6.9740   24.6020  -30.3670 C   0  0  0  0  0  0  0  0  0  0  0  0
   -7.2520   23.1010  -30.2340 C   0  0  0  0  0  0  0  0  0  0  0  0
   -7.0120   22.3220  -31.5380 C   0  0  0  0  0  0  0  0  0  0  0  0
   -7.6120   20.9710  -31.4880 N   0  0  0  0  0  0  0  0  0  0  0  0
   -8.8410   20.9170  -32.3150 C   0  0  0  0  0  0  0  0  0  0  0  0
   -9.3580   19.4760  -32.5230 C   0  0  0  0  0  0  0  0  0  0  0  0
   -8.7400   18.5090  -31.5120 C   0  0  0  0  0  0  0  0  0  0  0  0
   -7.2070   18.5270  -31.6060 C   0  0  0  0  0  0  0  0  0  0  0  0
   -6.6530   19.9320  -31.9180 C   0  0  0  0  0  0  0  0  0  0  0  0
   -2.8235   23.9012  -28.7885 H   0  0  0  0  0  0  0  0  0  0  0  0
   -4.3871   23.0215  -28.5673 H   0  0  0  0  0  0  0  0  0  0  0  0
   -4.1756   21.4548  -33.3499 H   0  0  0  0  0  0  0  0  0  0  0  0
    0.0268   19.7092  -29.0339 H   0  0  0  0  0  0  0  0  0  0  0  0
    1.4790   17.7327  -29.6061 H   0  0  0  0  0  0  0  0  0  0  0  0
    1.2145   16.5707  -31.8066 H   0  0  0  0  0  0  0  0  0  0  0  0
   -0.4903   17.3788  -33.4727 H   0  0  0  0  0  0  0  0  0  0  0  0
   -3.0283   19.9963  -34.7601 H   0  0  0  0  0  0  0  0  0  0  0  0
   -1.8490   18.6327  -34.7579 H   0  0  0  0  0  0  0  0  0  0  0  0
   -2.6090   16.7423  -32.8417 H   0  0  0  0  0  0  0  0  0  0  0  0
   -4.4997   15.1515  -32.4949 H   0  0  0  0  0  0  0  0  0  0  0  0
   -6.7446   15.6424  -33.4710 H   0  0  0  0  0  0  0  0  0  0  0  0
   -7.1036   17.7290  -34.7935 H   0  0  0  0  0  0  0  0  0  0  0  0
   -5.2204   19.3294  -35.1407 H   0  0  0  0  0  0  0  0  0  0  0  0
   -7.8383   25.1656  -29.9858 H   0  0  0  0  0  0  0  0  0  0  0  0
   -6.8044   24.8404  -31.4274 H   0  0  0  0  0  0  0  0  0  0  0  0
   -6.5920   22.6910  -29.4554 H   0  0  0  0  0  0  0  0  0  0  0  0
   -8.3154   22.9873  -29.9766 H   0  0  0  0  0  0  0  0  0  0  0  0
   -7.4596   22.8799  -32.3737 H   0  0  0  0  0  0  0  0  0  0  0  0
   -5.9263   22.2096  -31.6747 H   0  0  0  0  0  0  0  0  0  0  0  0
   -9.6265   21.5040  -31.8165 H   0  0  0  0  0  0  0  0  0  0  0  0
   -8.5929   21.3267  -33.3052 H   0  0  0  0  0  0  0  0  0  0  0  0
  -10.4515   19.4676  -32.4038 H   0  0  0  0  0  0  0  0  0  0  0  0
   -9.0725   19.1487  -33.5336 H   0  0  0  0  0  0  0  0  0  0  0  0
   -9.0425   18.8065  -30.4971 H   0  0  0  0  0  0  0  0  0  0  0  0
   -9.0948   17.4919  -31.7349 H   0  0  0  0  0  0  0  0  0  0  0  0
   -6.7903   18.1883  -30.6460 H   0  0  0  0  0  0  0  0  0  0  0  0
   -6.9140   17.8605  -32.4306 H   0  0  0  0  0  0  0  0  0  0  0  0
   -5.7018   20.0734  -31.3839 H   0  0  0  0  0  0  0  0  0  0  0  0
   -6.4940   20.0201  -33.0029 H   0  0  0  0  0  0  0  0  0  0  0  0
  1  2  2  0
  2  3  1  0
  3  4  1  0
  4  5  1  0
  5  6  2  0
  6  7  1  0
  7  8  2  0
  8  9  1  0
  9 10  2  0
  8 11  1  0
 11 12  2  0
 12 13  1  0
 13 14  2  0
 14 15  1  0
 15 16  2  0
 16 17  1  0
 17 18  1  0
 18 19  1  0
 19 20  2  0
 20 21  1  0
 21 22  2  0
 22 23  1  0
 23 24  2  0
  2 25  1  0
 25 26  1  0
 26 27  1  0
 27 28  1  0
 28 29  1  0
 29 30  1  0
 30 31  1  0
 31 32  1  0
 32 33  1  0
 33 34  1  0
  9  4  1  0
 16 11  1  0
 24 19  1  0
 34 29  1  0
 17  7  1  0
  3 35  1  0
  3 36  1  0
  6 37  1  0
 12 38  1  0
 13 39  1  0
 14 40  1  0
 15 41  1  0
 18 42  1  0
 18 43  1  0
 20 44  1  0
 21 45  1  0
 22 46  1  0
 23 47  1  0
 24 48  1  0
 26 49  1  0
 26 50  1  0
 27 51  1  0
 27 52  1  0
 28 53  1  0
 28 54  1  0
 30 55  1  0
 30 56  1  0
 31 57  1  0
 31 58  1  0
 32 59  1  0
 32 60  1  0
 33 61  1  0
 33 62  1  0
 34 63  1  0
 34 64  1  0
M  CHG  1  25  -1
M  END
>  <UniqueID>  (28) 
23

>  <SMILES>  (28) 
O=C(Cn1ncc2c(c1=O)c1ccccc1n2Cc1ccccc1)[N-]CCCN1CCCCC1

>  <Energy>  (28) 
112.45052063380858

>  <Genealogy>  (28) 
O=C(Cn1ncc2c(c1=O)c1ccccc1n2Cc1ccccc1)[N-]CCCN1CCCCC1 (protonated)
O=C(Cn1ncc2c(c1=O)c1ccccc1n2Cc1ccccc1)[N-]CCCN1CCCCC1 (3D coordinates assigned)
O=C(Cn1ncc2c(c1=O)c1ccccc1n2Cc1ccccc1)[N-]CCCN1CCCCC1 (nonaromatic ring conformer: 112.45052063380858 kcal/mol)

>  <smiles>  (28) 
O=C(Cn1ncc2c(c1=O)c1ccccc1n2Cc1ccccc1)NCCCN1CCCCC1

>  <score_type>  (28) 
oracle

>  <origin>  (28) 
adg

>  <m_score__min__energy>  (28) 
-11.609999999999999

>  <m_primary>  (28) 
energy

$$$$
28:0
     RDKit          3D

 43 46  0  0  0  0  0  0  0  0999 V2000
  -10.1759   20.2821  -32.4829 H   0  0  0  0  0  0  0  0  0  0  0  0
   -9.2660   20.8280  -32.1930 C   0  0  0  0  0  0  0  0  0  0  0  0
   -9.1440   22.4900  -31.9650 S   0  0  0  0  0  0  0  0  0  0  0  0
   -7.5110   22.5020  -31.5650 C   0  0  0  0  0  0  0  0  0  0  0  0
   -6.7310   23.6940  -31.2090 C   0  0  0  0  0  0  0  0  0  0  0  0
   -7.2530   24.5960  -30.4980 O   0  0  0  0  0  0  0  0  0  0  0  0
   -5.3580   23.7900  -31.6040 N   0  0  0  0  0  0  0  0  0  0  0  0
   -4.3040   23.7830  -30.8360 C   0  0  0  0  0  0  0  0  0  0  0  0
   -4.1810   24.5710  -29.7140 C   0  0  0  0  0  0  0  0  0  0  0  0
   -4.9303   25.2472  -29.2767 H   0  0  0  0  0  0  0  0  0  0  0  0
   -2.8950   24.3160  -29.2620 C   0  0  0  0  0  0  0  0  0  0  0  0
   -2.2280   24.9220  -28.0830 C   0  0  0  0  0  0  0  0  0  0  0  0
   -2.7990   24.8420  -26.7970 C   0  0  0  0  0  0  0  0  0  0  0  0
   -3.7581   24.3221  -26.6558 H   0  0  0  0  0  0  0  0  0  0  0  0
   -2.1530   25.4200  -25.6990 C   0  0  0  0  0  0  0  0  0  0  0  0
   -2.6054   25.3523  -24.6986 H   0  0  0  0  0  0  0  0  0  0  0  0
   -0.9350   26.0830  -25.8690 C   0  0  0  0  0  0  0  0  0  0  0  0
   -0.4299   26.5374  -25.0039 H   0  0  0  0  0  0  0  0  0  0  0  0
   -0.3600   26.1680  -27.1380 C   0  0  0  0  0  0  0  0  0  0  0  0
    0.5998   26.6885  -27.2715 H   0  0  0  0  0  0  0  0  0  0  0  0
   -1.0000   25.5940  -28.2390 C   0  0  0  0  0  0  0  0  0  0  0  0
   -0.5412   25.6674  -29.2360 H   0  0  0  0  0  0  0  0  0  0  0  0
   -2.3090   23.3970  -30.0580 N   0  0  0  0  0  0  0  0  0  0  0  0
   -3.1640   23.0670  -31.0140 N   0  0  0  0  0  0  0  0  0  0  0  0
   -2.9210   21.9490  -31.8810 C   0  0  0  0  0  0  0  0  0  0  0  0
   -1.6090   21.5390  -32.1660 C   0  0  0  0  0  0  0  0  0  0  0  0
   -0.7584   22.0631  -31.7058 H   0  0  0  0  0  0  0  0  0  0  0  0
   -1.3810   20.4690  -33.0310 C   0  0  0  0  0  0  0  0  0  0  0  0
   -0.3519   20.1399  -33.2375 H   0  0  0  0  0  0  0  0  0  0  0  0
   -2.4570   19.8140  -33.6360 C   0  0  0  0  0  0  0  0  0  0  0  0
   -2.2703   18.9664  -34.3118 H   0  0  0  0  0  0  0  0  0  0  0  0
   -3.7710   20.2290  -33.3880 C   0  0  0  0  0  0  0  0  0  0  0  0
   -4.8160   19.5470  -34.0280 O   0  0  0  0  0  0  0  0  0  0  0  0
   -5.5110   18.4360  -33.4710 C   0  0  0  0  0  0  0  0  0  0  0  0
   -5.4748   18.4938  -32.3731 H   0  0  0  0  0  0  0  0  0  0  0  0
   -6.5590   18.4543  -33.8048 H   0  0  0  0  0  0  0  0  0  0  0  0
   -5.0361   17.5016  -33.8048 H   0  0  0  0  0  0  0  0  0  0  0  0
   -3.9980   21.3090  -32.5120 C   0  0  0  0  0  0  0  0  0  0  0  0
   -5.0256   21.6522  -32.3218 H   0  0  0  0  0  0  0  0  0  0  0  0
   -7.0380   21.1950  -31.5990 C   0  0  0  0  0  0  0  0  0  0  0  0
   -5.9971   20.9216  -31.3712 H   0  0  0  0  0  0  0  0  0  0  0  0
   -8.0190   20.2630  -31.9520 C   0  0  0  0  0  0  0  0  0  0  0  0
   -7.8223   19.1837  -32.0315 H   0  0  0  0  0  0  0  0  0  0  0  0
  1  2  1  0
  2  3  1  0
  3  4  1  0
  4  5  1  0
  5  6  2  0
  5  7  1  0
  7  8  2  0
  8  9  1  0
  9 10  1  0
  9 11  2  0
 11 12  1  0
 12 13  2  0
 13 14  1  0
 13 15  1  0
 15 16  1  0
 15 17  2  0
 17 18  1  0
 17 19  1  0
 19 20  1  0
 19 21  2  0
 21 22  1  0
 11 23  1  0
 23 24  1  0
 24 25  1  0
 25 26  2  0
 26 27  1  0
 26 28  1  0
 28 29  1  0
 28 30  2  0
 30 31  1  0
 30 32  1  0
 32 33  1  0
 33 34  1  0
 34 35  1  0
 34 36  1  0
 34 37  1  0
 32 38  2  0
 38 39  1  0
  4 40  2  0
 40 41  1  0
 40 42  1  0
 42 43  1  0
 42  2  2  0
 24  8  1  0
 38 25  1  0
 21 12  1  0
M  CHG  1  23  -1
M  END
>  <UniqueID>  (29) 
24

>  <SMILES>  (29) 
COc1cccc(-n2[n-]c(-c3ccccc3)c/c2=N/C(=O)c2cccs2)c1

>  <Energy>  (29) 
119.96744036838606

>  <Genealogy>  (29) 
COc1cccc(-n2[n-]c(-c3ccccc3)cc2=NC(=O)c2cccs2)c1 (protonated)
COc1cccc(-n2[n-]c(-c3ccccc3)c/c2=N/C(=O)c2cccs2)c1 (cis-trans isomerization)
COc1cccc(-n2[n-]c(-c3ccccc3)c/c2=N/C(=O)c2cccs2)c1 (3D coordinates assigned)
COc1cccc(-n2[n-]c(-c3ccccc3)c/c2=N/C(=O)c2cccs2)c1 (optimized conformer: 119.96744036838606 kcal/mol)

>  <smiles>  (29) 
COc1cccc(-n2[nH]c(-c3ccccc3)cc2=NC(=O)c2cccs2)c1

>  <score_type>  (29) 
oracle

>  <origin>  (29) 
adg

>  <m_score__min__energy>  (29) 
-9

>  <m_primary>  (29) 
energy

$$$$
29:0
     RDKit          3D

 33 35  0  0  0  0  0  0  0  0999 V2000
   -5.5973   26.6976  -31.0464 H   0  0  0  0  0  0  0  0  0  0  0  0
   -5.2950   25.7780  -30.5240 C   0  0  0  0  0  0  0  0  0  0  0  0
   -4.0720   25.3010  -30.4790 O   0  0  0  0  0  0  0  0  0  0  0  0
   -4.0810   24.1940  -29.7750 C   0  0  0  0  0  0  0  0  0  0  0  0
   -2.8650   23.3790  -29.4820 C   0  0  0  0  0  0  0  0  0  0  0  0
   -2.7293   23.2962  -28.3936 H   0  0  0  0  0  0  0  0  0  0  0  0
   -1.9784   23.8615  -29.9191 H   0  0  0  0  0  0  0  0  0  0  0  0
   -3.0380   22.0530  -30.0550 N   0  0  0  0  0  0  0  0  0  0  0  0
   -2.8800   21.6300  -31.2790 C   0  0  0  0  0  0  0  0  0  0  0  0
   -1.4790   20.8270  -31.7410 S   0  0  0  0  0  0  0  0  0  0  0  0
   -1.9840   20.5890  -33.3220 C   0  0  0  0  0  0  0  0  0  0  0  0
   -1.4158   20.0788  -34.1137 H   0  0  0  0  0  0  0  0  0  0  0  0
   -3.2460   21.1500  -33.4540 C   0  0  0  0  0  0  0  0  0  0  0  0
   -3.8010   21.1249  -34.4034 H   0  0  0  0  0  0  0  0  0  0  0  0
   -3.7560   21.7360  -32.3290 N   0  0  0  0  0  0  0  0  0  0  0  0
   -5.0640   22.4110  -32.3740 C   0  0  0  0  0  0  0  0  0  0  0  0
   -5.1348   22.9809  -33.3122 H   0  0  0  0  0  0  0  0  0  0  0  0
   -5.1310   23.0691  -31.4952 H   0  0  0  0  0  0  0  0  0  0  0  0
   -6.2190   21.4390  -32.3090 C   0  0  0  0  0  0  0  0  0  0  0  0
   -7.4520   21.8700  -31.7880 C   0  0  0  0  0  0  0  0  0  0  0  0
   -7.5735   22.9140  -31.4635 H   0  0  0  0  0  0  0  0  0  0  0  0
   -8.5250   20.9790  -31.6800 C   0  0  0  0  0  0  0  0  0  0  0  0
   -9.4910   21.3287  -31.2868 H   0  0  0  0  0  0  0  0  0  0  0  0
   -8.3730   19.6470  -32.0700 C   0  0  0  0  0  0  0  0  0  0  0  0
   -9.4140   18.7850  -31.9630 F   0  0  0  0  0  0  0  0  0  0  0  0
   -7.1430   19.2010  -32.5610 C   0  0  0  0  0  0  0  0  0  0  0  0
   -7.0210   18.1500  -32.8618 H   0  0  0  0  0  0  0  0  0  0  0  0
   -6.0670   20.0870  -32.6710 C   0  0  0  0  0  0  0  0  0  0  0  0
   -5.0966   19.7258  -33.0423 H   0  0  0  0  0  0  0  0  0  0  0  0
   -5.3590   23.9250  -29.3280 C   0  0  0  0  0  0  0  0  0  0  0  0
   -5.6835   23.0731  -28.7124 H   0  0  0  0  0  0  0  0  0  0  0  0
   -6.1440   24.9500  -29.8160 C   0  0  0  0  0  0  0  0  0  0  0  0
   -7.2264   25.0809  -29.6705 H   0  0  0  0  0  0  0  0  0  0  0  0
  1  2  1  0
  2  3  1  0
  3  4  1  0
  4  5  1  0
  5  6  1  0
  5  7  1  0
  5  8  1  0
  8  9  2  0
  9 10  1  0
 10 11  1  0
 11 12  1  0
 11 13  2  0
 13 14  1  0
 13 15  1  0
 15 16  1  0
 16 17  1  0
 16 18  1  0
 16 19  1  0
 19 20  2  0
 20 21  1  0
 20 22  1  0
 22 23  1  0
 22 24  2  0
 24 25  1  0
 24 26  1  0
 26 27  1  0
 26 28  2  0
 28 29  1  0
  4 30  2  0
 30 31  1  0
 30 32  1  0
 32 33  1  0
 32  2  2  0
 15  9  1  0
 28 19  1  0
M  END
>  <UniqueID>  (30) 
25

>  <SMILES>  (30) 
Fc1ccc(Cn2ccs/c2=N/Cc2ccco2)cc1

>  <Energy>  (30) 
97.68685395516893

>  <Genealogy>  (30) 
Fc1ccc(Cn2ccs/c2=N/Cc2ccco2)cc1 (cis-trans isomerization)
Fc1ccc(Cn2ccs/c2=N/Cc2ccco2)cc1 (3D coordinates assigned)
Fc1ccc(Cn2ccs/c2=N/Cc2ccco2)cc1 (optimized conformer: 97.68685395516893 kcal/mol)

>  <smiles>  (30) 
Fc1ccc(Cn2ccsc2=NCc2ccco2)cc1

>  <score_type>  (30) 
oracle

>  <origin>  (30) 
adg

>  <m_score__min__energy>  (30) 
-7.5599999999999996

>  <m_primary>  (30) 
energy

$$$$
30:0
     RDKit          3D

 34 37  0  0  0  0  0  0  0  0999 V2000
   -8.0598   22.6522  -32.4842 H   0  0  0  0  0  0  0  0  0  0  0  0
   -7.1540   22.1270  -32.1470 C   0  0  0  0  0  0  0  0  0  0  0  0
   -6.1030   22.9220  -31.4780 C   0  0  0  0  0  0  0  0  0  0  0  0
   -6.3090   24.2950  -31.2810 C   0  0  0  0  0  0  0  0  0  0  0  0
   -7.2531   24.7585  -31.6031 H   0  0  0  0  0  0  0  0  0  0  0  0
   -5.3200   25.0780  -30.6770 C   0  0  0  0  0  0  0  0  0  0  0  0
   -5.4956   26.1511  -30.5107 H   0  0  0  0  0  0  0  0  0  0  0  0
   -4.1090   24.5010  -30.2840 C   0  0  0  0  0  0  0  0  0  0  0  0
   -3.1340   25.2890  -29.6830 O   0  0  0  0  0  0  0  0  0  0  0  0
   -3.8820   23.1350  -30.5030 C   0  0  0  0  0  0  0  0  0  0  0  0
   -2.2220   22.3280  -29.9990 Br  0  0  0  0  0  0  0  0  0  0  0  0
   -4.8720   22.3520  -31.1070 C   0  0  0  0  0  0  0  0  0  0  0  0
   -4.6862   21.2838  -31.2928 H   0  0  0  0  0  0  0  0  0  0  0  0
   -7.0750   20.8050  -32.3700 C   0  0  0  0  0  0  0  0  0  0  0  0
   -8.2440   19.6180  -31.9270 S   0  0  0  0  0  0  0  0  0  0  0  0
   -7.3420   18.3880  -32.6270 C   0  0  0  0  0  0  0  0  0  0  0  0
   -7.5550   17.0550  -32.7380 N   0  0  0  0  0  0  0  0  0  0  0  0
   -6.4410   16.6810  -33.4230 C   0  0  0  0  0  0  0  0  0  0  0  0
   -6.0930   15.4000  -33.8390 C   0  0  0  0  0  0  0  0  0  0  0  0
   -6.7419   14.5381  -33.6243 H   0  0  0  0  0  0  0  0  0  0  0  0
   -4.8850   15.2410  -34.5430 C   0  0  0  0  0  0  0  0  0  0  0  0
   -4.5855   14.2388  -34.8835 H   0  0  0  0  0  0  0  0  0  0  0  0
   -4.0470   16.3510  -34.8210 C   0  0  0  0  0  0  0  0  0  0  0  0
   -2.8560   16.1210  -35.5270 O   0  0  0  0  0  0  0  0  0  0  0  0
   -2.6500   15.0300  -36.4170 C   0  0  0  0  0  0  0  0  0  0  0  0
   -2.4766   14.1115  -35.8371 H   0  0  0  0  0  0  0  0  0  0  0  0
   -3.5396   14.9009  -37.0509 H   0  0  0  0  0  0  0  0  0  0  0  0
   -1.7745   15.2342  -37.0509 H   0  0  0  0  0  0  0  0  0  0  0  0
   -4.4260   17.6450  -34.3860 C   0  0  0  0  0  0  0  0  0  0  0  0
   -3.7966   18.5240  -34.5889 H   0  0  0  0  0  0  0  0  0  0  0  0
   -5.6260   17.7590  -33.6920 C   0  0  0  0  0  0  0  0  0  0  0  0
   -6.2220   18.8340  -33.1760 N   0  0  0  0  0  0  0  0  0  0  0  0
   -6.0280   20.1670  -33.0650 C   0  0  0  0  0  0  0  0  0  0  0  0
   -5.0190   20.7550  -33.5390 O   0  0  0  0  0  0  0  0  0  0  0  0
  1  2  1  0
  2  3  1  0
  3  4  2  0
  4  5  1  0
  4  6  1  0
  6  7  1  0
  6  8  2  0
  8  9  1  0
  8 10  1  0
 10 11  1  0
 10 12  2  0
 12 13  1  0
  2 14  2  0
 14 15  1  0
 15 16  1  0
 16 17  2  0
 17 18  1  0
 18 19  2  0
 19 20  1  0
 19 21  1  0
 21 22  1  0
 21 23  2  0
 23 24  1  0
 24 25  1  0
 25 26  1  0
 25 27  1  0
 25 28  1  0
 23 29  1  0
 29 30  1  0
 29 31  2  0
 31 32  1  0
 32 33  1  0
 33 34  2  0
 12  3  1  0
 33 14  1  0
 32 16  1  0
 31 18  1  0
M  CHG  1   9  -1
M  END
>  <UniqueID>  (31) 
26

>  <SMILES>  (31) 
COc1ccc2nc3s/c(=C\c4ccc([O-])c(Br)c4)c(=O)n3c2c1

>  <Energy>  (31) 
132.9734703712143

>  <Genealogy>  (31) 
COc1ccc2nc3sc(=Cc4ccc([O-])c(Br)c4)c(=O)n3c2c1 (protonated)
COc1ccc2nc3s/c(=C\c4ccc([O-])c(Br)c4)c(=O)n3c2c1 (cis-trans isomerization)
COc1ccc2nc3s/c(=C\c4ccc([O-])c(Br)c4)c(=O)n3c2c1 (3D coordinates assigned)
COc1ccc2nc3s/c(=C\c4ccc([O-])c(Br)c4)c(=O)n3c2c1 (optimized conformer: 132.9734703712143 kcal/mol)

>  <smiles>  (31) 
COc1ccc2nc3sc(=Cc4ccc(O)c(Br)c4)c(=O)n3c2c1

>  <score_type>  (31) 
oracle

>  <origin>  (31) 
adg

>  <m_score__min__energy>  (31) 
-11.52

>  <m_primary>  (31) 
energy

$$$$
31:0
     RDKit          3D

 43 45  0  0  0  0  0  0  0  0999 V2000
   -1.5200   25.2960  -29.2590 O   0  0  0  0  0  0  0  0  0  0  0  0
   -2.6880   24.8260  -29.2700 C   0  0  0  0  0  0  0  0  0  0  0  0
   -3.2440   24.2040  -28.0150 C   0  0  0  0  0  0  0  0  0  0  0  0
   -2.6310   22.8570  -27.7220 C   0  0  0  0  0  0  0  0  0  0  0  0
   -3.2820   21.6780  -28.1260 C   0  0  0  0  0  0  0  0  0  0  0  0
   -2.7220   20.4280  -27.8440 C   0  0  0  0  0  0  0  0  0  0  0  0
   -1.5170   20.3430  -27.1420 C   0  0  0  0  0  0  0  0  0  0  0  0
   -0.8740   21.5090  -26.7150 C   0  0  0  0  0  0  0  0  0  0  0  0
   -1.4300   22.7600  -26.9960 C   0  0  0  0  0  0  0  0  0  0  0  0
   -3.4860   24.9900  -30.4500 N   0  0  0  0  0  0  0  0  0  0  0  0
   -4.6900   24.2720  -30.7390 C   0  0  0  0  0  0  0  0  0  0  0  0
   -4.6280   23.1150  -31.5250 C   0  0  0  0  0  0  0  0  0  0  0  0
   -5.7910   22.3950  -31.8080 C   0  0  0  0  0  0  0  0  0  0  0  0
   -7.0260   22.8160  -31.2950 C   0  0  0  0  0  0  0  0  0  0  0  0
   -8.5000   21.9260  -31.6790 S   0  0  0  0  0  0  0  0  0  0  0  0
   -9.4800   22.8540  -32.3430 O   0  0  0  0  0  0  0  0  0  0  0  0
   -9.1250   21.4310  -30.4040 O   0  0  0  0  0  0  0  0  0  0  0  0
   -8.1880   20.5650  -32.7360 N   0  0  0  0  0  0  0  0  0  0  0  0
   -7.0740   19.7520  -32.2370 C   0  0  0  0  0  0  0  0  0  0  0  0
   -7.6510   18.5700  -31.4720 C   0  0  0  0  0  0  0  0  0  0  0  0
   -9.1130   18.5010  -31.8620 C   0  0  0  0  0  0  0  0  0  0  0  0
   -9.3480   19.6700  -32.8070 C   0  0  0  0  0  0  0  0  0  0  0  0
   -7.0800   23.9480  -30.4710 C   0  0  0  0  0  0  0  0  0  0  0  0
   -5.9160   24.6680  -30.1880 C   0  0  0  0  0  0  0  0  0  0  0  0
   -3.0420   24.8761  -27.1679 H   0  0  0  0  0  0  0  0  0  0  0  0
   -4.3240   24.0566  -28.1631 H   0  0  0  0  0  0  0  0  0  0  0  0
   -4.2377   21.7393  -28.6672 H   0  0  0  0  0  0  0  0  0  0  0  0
   -3.2308   19.5107  -28.1752 H   0  0  0  0  0  0  0  0  0  0  0  0
   -1.0744   19.3595  -26.9254 H   0  0  0  0  0  0  0  0  0  0  0  0
    0.0714   21.4414  -26.1568 H   0  0  0  0  0  0  0  0  0  0  0  0
   -0.9259   23.6735  -26.6477 H   0  0  0  0  0  0  0  0  0  0  0  0
   -3.6607   22.7720  -31.9208 H   0  0  0  0  0  0  0  0  0  0  0  0
   -5.7377   21.4936  -32.4362 H   0  0  0  0  0  0  0  0  0  0  0  0
   -6.4703   19.3893  -33.0820 H   0  0  0  0  0  0  0  0  0  0  0  0
   -6.4313   20.3534  -31.5773 H   0  0  0  0  0  0  0  0  0  0  0  0
   -7.1345   17.6411  -31.7556 H   0  0  0  0  0  0  0  0  0  0  0  0
   -7.5267   18.6908  -30.3857 H   0  0  0  0  0  0  0  0  0  0  0  0
   -9.3291   17.5493  -32.3695 H   0  0  0  0  0  0  0  0  0  0  0  0
   -9.7691   18.5558  -30.9808 H   0  0  0  0  0  0  0  0  0  0  0  0
   -9.4674   19.2979  -33.8353 H   0  0  0  0  0  0  0  0  0  0  0  0
  -10.2607   20.2115  -32.5176 H   0  0  0  0  0  0  0  0  0  0  0  0
   -8.0416   24.2710  -30.0455 H   0  0  0  0  0  0  0  0  0  0  0  0
   -5.9625   25.5486  -29.5304 H   0  0  0  0  0  0  0  0  0  0  0  0
  1  2  2  0
  2  3  1  0
  3  4  1  0
  4  5  2  0
  5  6  1  0
  6  7  2  0
  7  8  1  0
  8  9  2  0
  2 10  1  0
 10 11  1  0
 11 12  2  0
 12 13  1  0
 13 14  2  0
 14 15  1  0
 15 16  2  0
 15 17  2  0
 15 18  1  0
 18 19  1  0
 19 20  1  0
 20 21  1  0
 21 22  1  0
 14 23  1  0
 23 24  2  0
  9  4  1  0
 24 11  1  0
 22 18  1  0
  3 25  1  0
  3 26  1  0
  5 27  1  0
  6 28  1  0
  7 29  1  0
  8 30  1  0
  9 31  1  0
 12 32  1  0
 13 33  1  0
 19 34  1  0
 19 35  1  0
 20 36  1  0
 20 37  1  0
 21 38  1  0
 21 39  1  0
 22 40  1  0
 22 41  1  0
 23 42  1  0
 24 43  1  0
M  CHG  1  10  -1
M  END
>  <UniqueID>  (32) 
27

>  <SMILES>  (32) 
O=C(Cc1ccccc1)[N-]c1ccc(S(=O)(=O)N2CCCC2)cc1

>  <Energy>  (32) 
47.87809420188644

>  <Genealogy>  (32) 
O=C(Cc1ccccc1)[N-]c1ccc(S(=O)(=O)N2CCCC2)cc1 (protonated)
O=C(Cc1ccccc1)[N-]c1ccc(S(=O)(=O)N2CCCC2)cc1 (3D coordinates assigned)
O=C(Cc1ccccc1)[N-]c1ccc(S(=O)(=O)N2CCCC2)cc1 (nonaromatic ring conformer: 47.87809420188644 kcal/mol)

>  <smiles>  (32) 
O=C(Cc1ccccc1)Nc1ccc(S(=O)(=O)N2CCCC2)cc1

>  <score_type>  (32) 
oracle

>  <origin>  (32) 
adg

>  <m_score__min__energy>  (32) 
-11.31

>  <m_primary>  (32) 
energy

$$$$
32:0
     RDKit          3D

 37 39  0  0  0  0  0  0  0  0999 V2000
   -6.1860   25.6840  -28.9680 C   0  0  0  0  0  0  0  0  0  0  0  0
   -7.0600   25.0910  -30.0680 C   0  0  0  0  0  0  0  0  0  0  0  0
   -6.3550   24.0050  -30.7480 N   0  0  0  0  0  0  0  0  0  0  0  0
   -5.0530   23.9710  -31.1300 C   0  0  0  0  0  0  0  0  0  0  0  0
   -4.2310   24.8960  -30.8850 O   0  0  0  0  0  0  0  0  0  0  0  0
   -4.7210   22.8500  -31.8110 N   0  0  0  0  0  0  0  0  0  0  0  0
   -5.8730   22.1590  -31.8710 C   0  0  0  0  0  0  0  0  0  0  0  0
   -6.1080   20.9340  -32.4890 C   0  0  0  0  0  0  0  0  0  0  0  0
   -7.4160   20.4040  -32.4340 C   0  0  0  0  0  0  0  0  0  0  0  0
   -7.6930   19.1530  -33.0870 N   0  0  0  0  0  0  0  0  0  0  0  0
   -6.8820   17.9720  -32.9580 C   0  0  0  0  0  0  0  0  0  0  0  0
   -6.4350   17.3150  -34.1120 C   0  0  0  0  0  0  0  0  0  0  0  0
   -5.6250   16.1810  -34.0120 C   0  0  0  0  0  0  0  0  0  0  0  0
   -5.2180   15.7030  -32.7550 C   0  0  0  0  0  0  0  0  0  0  0  0
   -4.3850   14.4510  -32.6450 C   0  0  0  0  0  0  0  0  0  0  0  0
   -4.6040   13.8220  -31.4310 F   0  0  0  0  0  0  0  0  0  0  0  0
   -4.7030   13.5610  -33.6560 F   0  0  0  0  0  0  0  0  0  0  0  0
   -3.0470   14.7850  -32.7430 F   0  0  0  0  0  0  0  0  0  0  0  0
   -5.6690   16.3620  -31.5980 C   0  0  0  0  0  0  0  0  0  0  0  0
   -6.4800   17.4950  -31.6990 C   0  0  0  0  0  0  0  0  0  0  0  0
   -8.4480   21.1440  -31.7940 C   0  0  0  0  0  0  0  0  0  0  0  0
   -8.1750   22.3810  -31.1820 C   0  0  0  0  0  0  0  0  0  0  0  0
   -6.8640   22.8550  -31.2350 C   0  0  0  0  0  0  0  0  0  0  0  0
   -6.5949   25.4066  -27.9852 H   0  0  0  0  0  0  0  0  0  0  0  0
   -5.1621   25.2934  -29.0627 H   0  0  0  0  0  0  0  0  0  0  0  0
   -6.1706   26.7798  -29.0627 H   0  0  0  0  0  0  0  0  0  0  0  0
   -7.9867   24.6993  -29.6233 H   0  0  0  0  0  0  0  0  0  0  0  0
   -7.2957   25.8775  -30.8000 H   0  0  0  0  0  0  0  0  0  0  0  0
   -3.7920   22.5910  -32.2140 H   0  0  0  0  0  0  0  0  0  0  0  0
   -5.2995   20.3951  -33.0046 H   0  0  0  0  0  0  0  0  0  0  0  0
   -8.5400   19.0990  -33.6970 H   0  0  0  0  0  0  0  0  0  0  0  0
   -6.7237   17.6945  -35.1033 H   0  0  0  0  0  0  0  0  0  0  0  0
   -5.3033   15.6582  -34.9248 H   0  0  0  0  0  0  0  0  0  0  0  0
   -5.3813   15.9829  -30.6063 H   0  0  0  0  0  0  0  0  0  0  0  0
   -6.8059   18.0169  -30.7872 H   0  0  0  0  0  0  0  0  0  0  0  0
   -9.4726   20.7442  -31.7772 H   0  0  0  0  0  0  0  0  0  0  0  0
   -8.9677   22.9545  -30.6792 H   0  0  0  0  0  0  0  0  0  0  0  0
  1  2  1  0
  2  3  1  0
  3  4  1  0
  4  5  2  0
  4  6  1  0
  6  7  1  0
  7  8  2  0
  8  9  1  0
  9 10  1  0
 10 11  1  0
 11 12  2  0
 12 13  1  0
 13 14  2  0
 14 15  1  0
 15 16  1  0
 15 17  1  0
 15 18  1  0
 14 19  1  0
 19 20  2  0
  9 21  2  0
 21 22  1  0
 22 23  2  0
 23  3  1  0
 23  7  1  0
 20 11  1  0
  1 24  1  0
  1 25  1  0
  1 26  1  0
  2 27  1  0
  2 28  1  0
  6 29  1  0
  8 30  1  0
 10 31  1  0
 12 32  1  0
 13 33  1  0
 19 34  1  0
 20 35  1  0
 21 36  1  0
 22 37  1  0
M  END
>  <UniqueID>  (33) 
28

>  <SMILES>  (33) 
CCn1c(=O)[nH]c2cc(Nc3ccc(C(F)(F)F)cc3)ccc21

>  <Energy>  (33) 
81.81625710241194

>  <Genealogy>  (33) 
CCn1c(=O)[nH]c2cc(Nc3ccc(C(F)(F)F)cc3)ccc21 (3D coordinates assigned)
CCn1c(=O)[nH]c2cc(Nc3ccc(C(F)(F)F)cc3)ccc21 (optimized conformer: 81.81625710241194 kcal/mol)

>  <smiles>  (33) 
CCn1c(=O)[nH]c2cc(Nc3ccc(C(F)(F)F)cc3)ccc21

>  <score_type>  (33) 
oracle

>  <origin>  (33) 
adg

>  <m_score__min__energy>  (33) 
-7.6100000000000003

>  <m_primary>  (33) 
energy

$$$$
33:0
     RDKit          3D

 36 38  0  0  0  0  0  0  0  0999 V2000
   -7.8750   23.0140  -31.1530 C   0  0  0  0  0  0  0  0  0  0  0  0
   -7.7660   22.2930  -32.3580 O   0  0  0  0  0  0  0  0  0  0  0  0
   -7.8050   20.9050  -32.3740 C   0  0  0  0  0  0  0  0  0  0  0  0
   -8.9780   20.2790  -32.0090 C   0  0  0  0  0  0  0  0  0  0  0  0
   -9.0950   18.9110  -31.9990 C   0  0  0  0  0  0  0  0  0  0  0  0
   -7.9950   18.1780  -32.3700 C   0  0  0  0  0  0  0  0  0  0  0  0
   -6.8210   18.8090  -32.7370 C   0  0  0  0  0  0  0  0  0  0  0  0
   -6.6680   20.1770  -32.7570 C   0  0  0  0  0  0  0  0  0  0  0  0
   -5.4980   20.8600  -33.1020 N   0  0  0  0  0  0  0  0  0  0  0  0
   -4.5050   21.3610  -32.2580 C   0  0  0  0  0  0  0  0  0  0  0  0
   -3.3670   20.7010  -31.8580 C   0  0  0  0  0  0  0  0  0  0  0  0
   -2.4060   21.2630  -31.0380 C   0  0  0  0  0  0  0  0  0  0  0  0
   -2.5670   22.5520  -30.5750 C   0  0  0  0  0  0  0  0  0  0  0  0
   -1.6360   23.1000  -29.7780 N   0  0  0  0  0  0  0  0  0  0  0  0
   -1.8170   24.3570  -29.3410 C   0  0  0  0  0  0  0  0  0  0  0  0
   -0.9190   24.8680  -28.5810 N   0  0  0  0  0  0  0  0  0  0  0  0
   -2.9170   25.0550  -29.7010 N   0  0  0  0  0  0  0  0  0  0  0  0
   -3.8710   24.5100  -30.5110 C   0  0  0  0  0  0  0  0  0  0  0  0
   -4.8690   25.2620  -30.7860 N   0  0  0  0  0  0  0  0  0  0  0  0
   -3.7050   23.2220  -30.9690 C   0  0  0  0  0  0  0  0  0  0  0  0
   -4.6640   22.6690  -31.7860 C   0  0  0  0  0  0  0  0  0  0  0  0
   -7.7707   22.3244  -30.3024 H   0  0  0  0  0  0  0  0  0  0  0  0
   -7.0816   23.7746  -31.1078 H   0  0  0  0  0  0  0  0  0  0  0  0
   -8.8577   23.5061  -31.1078 H   0  0  0  0  0  0  0  0  0  0  0  0
   -9.8436   20.8922  -31.7179 H   0  0  0  0  0  0  0  0  0  0  0  0
  -10.0347   18.4207  -31.7048 H   0  0  0  0  0  0  0  0  0  0  0  0
   -8.0483   17.0793  -32.3753 H   0  0  0  0  0  0  0  0  0  0  0  0
   -5.9635   18.1848  -33.0286 H   0  0  0  0  0  0  0  0  0  0  0  0
   -5.3370   21.0240  -34.1480 H   0  0  0  0  0  0  0  0  0  0  0  0
   -3.2128   19.6701  -32.2094 H   0  0  0  0  0  0  0  0  0  0  0  0
   -1.5149   20.6832  -30.7555 H   0  0  0  0  0  0  0  0  0  0  0  0
   -0.7760   22.5640  -29.4930 H   0  0  0  0  0  0  0  0  0  0  0  0
   -0.1060   25.4340  -28.9050 H   0  0  0  0  0  0  0  0  0  0  0  0
   -3.0240   26.0440  -29.3370 H   0  0  0  0  0  0  0  0  0  0  0  0
   -4.9300   26.0850  -31.3720 H   0  0  0  0  0  0  0  0  0  0  0  0
   -5.5528   23.2529  -32.0673 H   0  0  0  0  0  0  0  0  0  0  0  0
  1  2  1  0
  2  3  1  0
  3  4  2  0
  4  5  1  0
  5  6  2  0
  6  7  1  0
  7  8  2  0
  8  9  1  0
  9 10  1  0
 10 11  2  0
 11 12  1  0
 12 13  2  0
 13 14  1  0
 14 15  1  0
 15 16  2  3
 15 17  1  0
 17 18  1  0
 18 19  2  3
 18 20  1  0
 20 21  2  0
  8  3  1  0
 21 10  1  0
 20 13  1  0
  1 22  1  0
  1 23  1  0
  1 24  1  0
  4 25  1  0
  5 26  1  0
  6 27  1  0
  7 28  1  0
  9 29  1  0
 11 30  1  0
 12 31  1  0
 14 32  1  0
 16 33  1  0
 17 34  1  0
 19 35  1  0
 21 36  1  0
M  END
>  <smiles>  (34) 
COc1ccccc1Nc1ccc2[nH]c(=N)[nH]c(=N)c2c1

>  <score_type>  (34) 
oracle

>  <origin>  (34) 
adg

>  <m_score__min__energy>  (34) 
-7.3499999999999996

>  <m_primary>  (34) 
energy

$$$$
34:0
     RDKit          3D

 45 48  0  0  0  0  0  0  0  0999 V2000
   -3.7210   15.8350  -33.0360 C   0  0  0  0  0  0  0  0  0  0  0  0
   -4.9490   15.2190  -33.5800 C   0  0  0  0  0  0  0  0  0  0  0  0
   -4.9010   13.8850  -33.9590 C   0  0  0  0  0  0  0  0  0  0  0  0
   -6.0150   13.2540  -34.4730 C   0  0  0  0  0  0  0  0  0  0  0  0
   -7.1880   13.9830  -34.6050 C   0  0  0  0  0  0  0  0  0  0  0  0
   -7.2100   15.3240  -34.2160 C   0  0  0  0  0  0  0  0  0  0  0  0
   -6.1020   15.9590  -33.7010 C   0  0  0  0  0  0  0  0  0  0  0  0
   -6.1640   17.3500  -33.3100 C   0  0  0  0  0  0  0  0  0  0  0  0
   -6.2170   18.5220  -33.0020 C   0  0  0  0  0  0  0  0  0  0  0  0
   -6.2970   19.9140  -32.6550 C   0  0  0  0  0  0  0  0  0  0  0  0
   -5.3400   20.8320  -32.5300 N   0  0  0  0  0  0  0  0  0  0  0  0
   -5.8390   22.0110  -32.1920 N   0  0  0  0  0  0  0  0  0  0  0  0
   -5.1050   23.2660  -31.9620 C   0  0  0  0  0  0  0  0  0  0  0  0
   -6.0020   24.3780  -31.5680 C   0  0  0  0  0  0  0  0  0  0  0  0
   -5.6730   25.0890  -30.3130 C   0  0  0  0  0  0  0  0  0  0  0  0
   -4.3000   24.9660  -29.8910 N   0  0  0  0  0  0  0  0  0  0  0  0
   -4.0860   23.5470  -29.6680 C   0  0  0  0  0  0  0  0  0  0  0  0
   -3.9670   22.9530  -31.0670 C   0  0  0  0  0  0  0  0  0  0  0  0
   -7.1900   21.8480  -32.0920 C   0  0  0  0  0  0  0  0  0  0  0  0
   -8.1980   22.6860  -31.7840 N   0  0  0  0  0  0  0  0  0  0  0  0
   -9.4920   22.2500  -31.7570 C   0  0  0  0  0  0  0  0  0  0  0  0
   -9.8180   20.9730  -32.0340 N   0  0  0  0  0  0  0  0  0  0  0  0
   -8.8240   20.1130  -32.3450 C   0  0  0  0  0  0  0  0  0  0  0  0
   -9.1100   18.8920  -32.6130 N   0  0  0  0  0  0  0  0  0  0  0  0
   -7.5130   20.5280  -32.3800 C   0  0  0  0  0  0  0  0  0  0  0  0
   -3.7576   15.8167  -31.9368 H   0  0  0  0  0  0  0  0  0  0  0  0
   -2.8429   15.2707  -33.3831 H   0  0  0  0  0  0  0  0  0  0  0  0
   -3.6483   16.8763  -33.3831 H   0  0  0  0  0  0  0  0  0  0  0  0
   -3.9619   13.3230  -33.8481 H   0  0  0  0  0  0  0  0  0  0  0  0
   -5.9741   12.1961  -34.7716 H   0  0  0  0  0  0  0  0  0  0  0  0
   -8.0930   13.5087  -35.0126 H   0  0  0  0  0  0  0  0  0  0  0  0
   -8.1451   15.8929  -34.3248 H   0  0  0  0  0  0  0  0  0  0  0  0
   -4.6701   23.6724  -32.8870 H   0  0  0  0  0  0  0  0  0  0  0  0
   -5.9918   25.1179  -32.3819 H   0  0  0  0  0  0  0  0  0  0  0  0
   -6.9792   23.9076  -31.3841 H   0  0  0  0  0  0  0  0  0  0  0  0
   -5.8924   26.1572  -30.4572 H   0  0  0  0  0  0  0  0  0  0  0  0
   -6.2824   24.6236  -29.5243 H   0  0  0  0  0  0  0  0  0  0  0  0
   -4.1660   25.5410  -29.0390 H   0  0  0  0  0  0  0  0  0  0  0  0
   -3.1625   23.3787  -29.0946 H   0  0  0  0  0  0  0  0  0  0  0  0
   -4.8996   23.0881  -29.0871 H   0  0  0  0  0  0  0  0  0  0  0  0
   -3.0481   23.3425  -31.5294 H   0  0  0  0  0  0  0  0  0  0  0  0
   -3.9545   21.8599  -30.9446 H   0  0  0  0  0  0  0  0  0  0  0  0
  -10.2906   22.9621  -31.5018 H   0  0  0  0  0  0  0  0  0  0  0  0
  -10.7900   20.6580  -32.0090 H   0  0  0  0  0  0  0  0  0  0  0  0
   -9.0310   18.2120  -31.8160 H   0  0  0  0  0  0  0  0  0  0  0  0
  1  2  1  0
  2  3  2  0
  3  4  1  0
  4  5  2  0
  5  6  1  0
  6  7  2  0
  7  8  1  0
  8  9  3  0
  9 10  1  0
 10 11  2  0
 11 12  1  0
 12 13  1  0
 13 14  1  0
 14 15  1  0
 15 16  1  0
 16 17  1  0
 17 18  1  0
 12 19  1  0
 19 20  1  0
 20 21  2  0
 21 22  1  0
 22 23  1  0
 23 24  2  3
 23 25  1  0
  7  2  1  0
 25 10  1  0
 18 13  1  0
 25 19  2  0
  1 26  1  0
  1 27  1  0
  1 28  1  0
  3 29  1  0
  4 30  1  0
  5 31  1  0
  6 32  1  0
 13 33  1  0
 14 34  1  0
 14 35  1  0
 15 36  1  0
 15 37  1  0
 16 38  1  0
 17 39  1  0
 17 40  1  0
 18 41  1  0
 18 42  1  0
 21 43  1  0
 22 44  1  0
 24 45  1  0
M  END
>  <smiles>  (35) 
Cc1ccccc1C#Cc1nn(C2CCNCC2)c2nc[nH]c(=N)c12

>  <score_type>  (35) 
oracle

>  <origin>  (35) 
adg

>  <m_score__min__energy>  (35) 
-8.4499999999999993

>  <m_primary>  (35) 
energy

$$$$
35:0
     RDKit          3D

 34 35  0  0  0  0  0  0  0  0999 V2000
   -4.2610   24.9040  -26.3560 C   0  0  0  0  0  0  0  0  0  0  0  0
   -2.5160   25.3160  -26.0420 S   0  0  0  0  0  0  0  0  0  0  0  0
   -1.8240   24.2130  -27.3310 C   0  0  0  0  0  0  0  0  0  0  0  0
   -1.8290   24.8910  -28.7070 C   0  0  0  0  0  0  0  0  0  0  0  0
   -2.7410   24.1840  -29.7160 C   0  0  0  0  0  0  0  0  0  0  0  0
   -3.5410   25.1580  -30.4510 N   0  0  0  0  0  0  0  0  0  0  0  0
   -4.9450   25.0380  -30.7150 C   0  0  0  0  0  0  0  0  0  0  0  0
   -5.6840   26.0370  -30.5140 O   0  0  0  0  0  0  0  0  0  0  0  0
   -5.5410   23.8010  -31.2560 C   0  0  0  0  0  0  0  0  0  0  0  0
   -4.7380   22.8190  -31.8570 C   0  0  0  0  0  0  0  0  0  0  0  0
   -5.3070   21.6450  -32.3580 C   0  0  0  0  0  0  0  0  0  0  0  0
   -6.6880   21.4300  -32.2530 C   0  0  0  0  0  0  0  0  0  0  0  0
   -7.2700   20.2540  -32.7540 C   0  0  0  0  0  0  0  0  0  0  0  0
   -8.6480   20.0490  -32.6370 C   0  0  0  0  0  0  0  0  0  0  0  0
   -9.4540   21.0120  -32.0220 C   0  0  0  0  0  0  0  0  0  0  0  0
   -8.8860   22.1860  -31.5190 C   0  0  0  0  0  0  0  0  0  0  0  0
   -7.5040   22.4060  -31.6300 C   0  0  0  0  0  0  0  0  0  0  0  0
   -6.9230   23.5800  -31.1300 C   0  0  0  0  0  0  0  0  0  0  0  0
   -4.7866   24.7799  -25.3977 H   0  0  0  0  0  0  0  0  0  0  0  0
   -4.7318   25.7157  -26.9300 H   0  0  0  0  0  0  0  0  0  0  0  0
   -4.3191   23.9674  -26.9300 H   0  0  0  0  0  0  0  0  0  0  0  0
   -0.7890   23.9541  -27.0630 H   0  0  0  0  0  0  0  0  0  0  0  0
   -2.4494   23.3098  -27.3870 H   0  0  0  0  0  0  0  0  0  0  0  0
   -2.1760   25.9278  -28.5863 H   0  0  0  0  0  0  0  0  0  0  0  0
   -0.8030   24.8465  -29.1011 H   0  0  0  0  0  0  0  0  0  0  0  0
   -2.1230   23.6140  -30.4253 H   0  0  0  0  0  0  0  0  0  0  0  0
   -3.4160   23.5068  -29.1722 H   0  0  0  0  0  0  0  0  0  0  0  0
   -3.6518   22.9748  -31.9343 H   0  0  0  0  0  0  0  0  0  0  0  0
   -4.6690   20.8873  -32.8363 H   0  0  0  0  0  0  0  0  0  0  0  0
   -6.6408   19.4932  -33.2391 H   0  0  0  0  0  0  0  0  0  0  0  0
   -9.0999   19.1265  -33.0303 H   0  0  0  0  0  0  0  0  0  0  0  0
  -10.5377   20.8453  -31.9338 H   0  0  0  0  0  0  0  0  0  0  0  0
   -9.5240   22.9399  -31.0346 H   0  0  0  0  0  0  0  0  0  0  0  0
   -7.5536   24.3335  -30.6355 H   0  0  0  0  0  0  0  0  0  0  0  0
  1  2  1  0
  2  3  1  0
  3  4  1  0
  4  5  1  0
  5  6  1  0
  6  7  1  0
  7  8  2  0
  7  9  1  0
  9 10  2  0
 10 11  1  0
 11 12  2  0
 12 13  1  0
 13 14  2  0
 14 15  1  0
 15 16  2  0
 16 17  1  0
 17 18  2  0
 18  9  1  0
 17 12  1  0
  1 19  1  0
  1 20  1  0
  1 21  1  0
  3 22  1  0
  3 23  1  0
  4 24  1  0
  4 25  1  0
  5 26  1  0
  5 27  1  0
 10 28  1  0
 11 29  1  0
 13 30  1  0
 14 31  1  0
 15 32  1  0
 16 33  1  0
 18 34  1  0
M  CHG  1   6  -1
M  END
>  <UniqueID>  (36) 
29

>  <SMILES>  (36) 
CSCCC[N-]C(=O)c1ccc2ccccc2c1

>  <Energy>  (36) 
35.2993986537699

>  <Genealogy>  (36) 
CSCCC[N-]C(=O)c1ccc2ccccc2c1 (protonated)
CSCCC[N-]C(=O)c1ccc2ccccc2c1 (3D coordinates assigned)
CSCCC[N-]C(=O)c1ccc2ccccc2c1 (optimized conformer: 35.2993986537699 kcal/mol)

>  <smiles>  (36) 
CSCCCNC(=O)c1ccc2ccccc2c1

>  <score_type>  (36) 
oracle

>  <origin>  (36) 
adg

>  <m_score__min__energy>  (36) 
-9.4399999999999995

>  <m_primary>  (36) 
energy

$$$$
36:0
     RDKit          3D

 31 34  0  0  0  0  0  0  0  0999 V2000
   -1.5400   25.0570  -28.2020 C   0  0  0  0  0  0  0  0  0  0  0  0
   -2.3550   25.2930  -29.3450 O   0  0  0  0  0  0  0  0  0  0  0  0
   -3.4960   24.5470  -29.6720 C   0  0  0  0  0  0  0  0  0  0  0  0
   -3.6060   23.1720  -29.3920 C   0  0  0  0  0  0  0  0  0  0  0  0
   -4.7640   22.4710  -29.7390 C   0  0  0  0  0  0  0  0  0  0  0  0
   -5.8290   23.1280  -30.3780 C   0  0  0  0  0  0  0  0  0  0  0  0
   -7.0620   22.3920  -30.7370 C   0  0  0  0  0  0  0  0  0  0  0  0
   -8.1920   22.3050  -29.9100 C   0  0  0  0  0  0  0  0  0  0  0  0
   -9.3400   21.2740  -30.6220 S   0  0  0  0  0  0  0  0  0  0  0  0
   -8.4630   21.0410  -32.0300 C   0  0  0  0  0  0  0  0  0  0  0  0
   -7.2490   21.6730  -31.9260 C   0  0  0  0  0  0  0  0  0  0  0  0
   -6.2950   21.0000  -32.7450 N   0  0  0  0  0  0  0  0  0  0  0  0
   -4.9870   20.7130  -32.6250 C   0  0  0  0  0  0  0  0  0  0  0  0
   -4.7540   19.4760  -33.2180 C   0  0  0  0  0  0  0  0  0  0  0  0
   -5.9860   18.9720  -33.6330 C   0  0  0  0  0  0  0  0  0  0  0  0
   -6.8970   19.9540  -33.3130 C   0  0  0  0  0  0  0  0  0  0  0  0
   -8.2970   19.8790  -32.9000 C   0  0  0  0  0  0  0  0  0  0  0  0
   -9.0990   18.9230  -33.0690 O   0  0  0  0  0  0  0  0  0  0  0  0
   -5.7200   24.5020  -30.6470 C   0  0  0  0  0  0  0  0  0  0  0  0
   -4.5620   25.2020  -30.3000 C   0  0  0  0  0  0  0  0  0  0  0  0
   -2.1299   25.2278  -27.2894 H   0  0  0  0  0  0  0  0  0  0  0  0
   -1.1800   24.0177  -28.2167 H   0  0  0  0  0  0  0  0  0  0  0  0
   -0.6803   25.7431  -28.2167 H   0  0  0  0  0  0  0  0  0  0  0  0
   -2.7759   22.6464  -28.8973 H   0  0  0  0  0  0  0  0  0  0  0  0
   -4.8423   21.3979  -29.5104 H   0  0  0  0  0  0  0  0  0  0  0  0
   -8.3158   22.8244  -28.9483 H   0  0  0  0  0  0  0  0  0  0  0  0
   -4.2303   21.3477  -32.1407 H   0  0  0  0  0  0  0  0  0  0  0  0
   -3.7767   18.9855  -33.3375 H   0  0  0  0  0  0  0  0  0  0  0  0
   -6.1865   18.0020  -34.1114 H   0  0  0  0  0  0  0  0  0  0  0  0
   -6.5524   25.0308  -31.1344 H   0  0  0  0  0  0  0  0  0  0  0  0
   -4.4871   26.2768  -30.5220 H   0  0  0  0  0  0  0  0  0  0  0  0
  1  2  1  0
  2  3  1  0
  3  4  2  0
  4  5  1  0
  5  6  2  0
  6  7  1  0
  7  8  2  0
  8  9  1  0
  9 10  1  0
 10 11  2  0
 11 12  1  0
 12 13  1  0
 13 14  2  0
 14 15  1  0
 15 16  2  0
 16 17  1  0
 17 18  2  0
  6 19  1  0
 19 20  2  0
 20  3  1  0
 11  7  1  0
 16 12  1  0
 17 10  1  0
  1 21  1  0
  1 22  1  0
  1 23  1  0
  4 24  1  0
  5 25  1  0
  8 26  1  0
 13 27  1  0
 14 28  1  0
 15 29  1  0
 19 30  1  0
 20 31  1  0
M  END
>  <UniqueID>  (37) 
30

>  <SMILES>  (37) 
COc1ccc(-c2csc3c2-n2cccc2C3=O)cc1

>  <Energy>  (37) 
157.93168769595817

>  <Genealogy>  (37) 
COc1ccc(-c2csc3c2-n2cccc2C3=O)cc1 (3D coordinates assigned)
COc1ccc(-c2csc3c2-n2cccc2C3=O)cc1 (nonaromatic ring conformer: 157.93168769595817 kcal/mol)

>  <smiles>  (37) 
COc1ccc(-c2csc3c2-n2cccc2C3=O)cc1

>  <score_type>  (37) 
oracle

>  <origin>  (37) 
adg

>  <m_score__min__energy>  (37) 
-8.1400000000000006

>  <m_primary>  (37) 
energy

$$$$
37:0
     RDKit          3D

 26 28  0  0  0  0  0  0  0  0999 V2000
   -7.6330   23.3970  -31.7820 Br  0  0  0  0  0  0  0  0  0  0  0  0
   -7.6160   21.4960  -31.9550 C   0  0  0  0  0  0  0  0  0  0  0  0
   -8.8330   20.7780  -31.9550 C   0  0  0  0  0  0  0  0  0  0  0  0
   -8.8340   19.3760  -32.0820 C   0  0  0  0  0  0  0  0  0  0  0  0
   -7.6030   18.7330  -32.2060 C   0  0  0  0  0  0  0  0  0  0  0  0
   -7.3820   17.4140  -32.3370 N   0  0  0  0  0  0  0  0  0  0  0  0
   -6.0340   17.2650  -32.4240 C   0  0  0  0  0  0  0  0  0  0  0  0
   -5.3410   15.9520  -32.5800 C   0  0  0  0  0  0  0  0  0  0  0  0
   -5.0330   15.4500  -33.8600 C   0  0  0  0  0  0  0  0  0  0  0  0
   -4.3850   14.2220  -33.9880 C   0  0  0  0  0  0  0  0  0  0  0  0
   -4.0450   13.4950  -32.8510 C   0  0  0  0  0  0  0  0  0  0  0  0
   -4.3580   14.0110  -31.5950 C   0  0  0  0  0  0  0  0  0  0  0  0
   -4.9910   15.2110  -31.4810 N   0  0  0  0  0  0  0  0  0  0  0  0
   -5.4060   18.5150  -32.3440 C   0  0  0  0  0  0  0  0  0  0  0  0
   -6.4270   19.4280  -32.2060 C   0  0  0  0  0  0  0  0  0  0  0  0
   -6.3900   20.8160  -32.0830 C   0  0  0  0  0  0  0  0  0  0  0  0
   -9.7860   21.3182  -31.8551 H   0  0  0  0  0  0  0  0  0  0  0  0
   -9.7751   18.8064  -32.0834 H   0  0  0  0  0  0  0  0  0  0  0  0
   -8.1210   16.6790  -32.3640 H   0  0  0  0  0  0  0  0  0  0  0  0
   -5.3034   16.0261  -34.7572 H   0  0  0  0  0  0  0  0  0  0  0  0
   -4.1429   13.8284  -34.9862 H   0  0  0  0  0  0  0  0  0  0  0  0
   -3.5352   12.5246  -32.9427 H   0  0  0  0  0  0  0  0  0  0  0  0
   -4.0920   13.4452  -30.6899 H   0  0  0  0  0  0  0  0  0  0  0  0
   -5.2000   15.5450  -30.5170 H   0  0  0  0  0  0  0  0  0  0  0  0
   -4.3265   18.7227  -32.3832 H   0  0  0  0  0  0  0  0  0  0  0  0
   -5.4349   21.3617  -32.0859 H   0  0  0  0  0  0  0  0  0  0  0  0
  1  2  1  0
  2  3  2  0
  3  4  1  0
  4  5  2  0
  5  6  1  0
  6  7  1  0
  7  8  1  0
  8  9  2  0
  9 10  1  0
 10 11  2  0
 11 12  1  0
 12 13  2  0
  7 14  2  0
 14 15  1  0
 15 16  2  0
 16  2  1  0
 15  5  1  0
 13  8  1  0
  3 17  1  0
  4 18  1  0
  6 19  1  0
  9 20  1  0
 10 21  1  0
 11 22  1  0
 12 23  1  0
 13 24  1  0
 14 25  1  0
 16 26  1  0
M  CHG  1  13   1
M  END
>  <UniqueID>  (38) 
31

>  <SMILES>  (38) 
Brc1ccc2[nH]c(-c3cccc[nH+]3)cc2c1

>  <Energy>  (38) 
64.09170727575588

>  <Genealogy>  (38) 
Brc1ccc2[nH]c(-c3cccc[nH+]3)cc2c1 (protonated)
Brc1ccc2[nH]c(-c3cccc[nH+]3)cc2c1 (3D coordinates assigned)
Brc1ccc2[nH]c(-c3cccc[nH+]3)cc2c1 (optimized conformer: 64.09170727575588 kcal/mol)

>  <smiles>  (38) 
Brc1ccc2[nH]c(-c3ccccn3)cc2c1

>  <score_type>  (38) 
oracle

>  <origin>  (38) 
adg

>  <m_score__min__energy>  (38) 
-6.2000000000000002

>  <m_primary>  (38) 
energy

$$$$
38:0
     RDKit          3D

 37 38  0  0  0  0  0  0  0  0999 V2000
    0.3329   22.1624  -26.4994 H   0  0  0  0  0  0  0  0  0  0  0  0
   -0.7520   22.2100  -26.3240 C   0  0  0  0  0  0  0  0  0  0  0  0
   -1.3690   23.4010  -26.4700 C   0  0  0  0  0  0  0  0  0  0  0  0
   -2.3480   23.6160  -27.5610 C   0  0  0  0  0  0  0  0  0  0  0  0
   -3.6710   23.9500  -27.2320 C   0  0  0  0  0  0  0  0  0  0  0  0
   -3.9679   24.0335  -26.1761 H   0  0  0  0  0  0  0  0  0  0  0  0
   -4.6130   24.1770  -28.2390 C   0  0  0  0  0  0  0  0  0  0  0  0
   -5.6464   24.4462  -27.9750 H   0  0  0  0  0  0  0  0  0  0  0  0
   -4.2420   24.0620  -29.5820 C   0  0  0  0  0  0  0  0  0  0  0  0
   -5.4270   24.3490  -30.8440 Cl  0  0  0  0  0  0  0  0  0  0  0  0
   -2.9310   23.7130  -29.9190 C   0  0  0  0  0  0  0  0  0  0  0  0
   -2.6442   23.6172  -30.9766 H   0  0  0  0  0  0  0  0  0  0  0  0
   -1.9820   23.4850  -28.9160 C   0  0  0  0  0  0  0  0  0  0  0  0
   -0.3520   23.0100  -29.3850 Cl  0  0  0  0  0  0  0  0  0  0  0  0
   -1.0530   24.5380  -25.5620 C   0  0  0  0  0  0  0  0  0  0  0  0
   -1.7370   25.7630  -25.6580 C   0  0  0  0  0  0  0  0  0  0  0  0
   -2.5146   25.8985  -26.4242 H   0  0  0  0  0  0  0  0  0  0  0  0
   -1.4320   26.8070  -24.7840 C   0  0  0  0  0  0  0  0  0  0  0  0
   -1.9623   27.7677  -24.8609 H   0  0  0  0  0  0  0  0  0  0  0  0
   -0.4490   26.6220  -23.8120 C   0  0  0  0  0  0  0  0  0  0  0  0
   -0.1990   27.4406  -23.1211 H   0  0  0  0  0  0  0  0  0  0  0  0
    0.2010   25.4310  -23.7170 N   0  0  0  0  0  0  0  0  0  0  0  0
    0.9330   25.3080  -22.9820 H   0  0  0  0  0  0  0  0  0  0  0  0
   -0.0780   24.3970  -24.5570 C   0  0  0  0  0  0  0  0  0  0  0  0
    0.4622   23.4448  -24.4496 H   0  0  0  0  0  0  0  0  0  0  0  0
   -1.4660   20.9410  -25.9340 C   0  0  0  0  0  0  0  0  0  0  0  0
   -2.2956   21.1877  -25.2550 H   0  0  0  0  0  0  0  0  0  0  0  0
   -0.7498   20.2718  -25.4348 H   0  0  0  0  0  0  0  0  0  0  0  0
   -2.0040   20.2550  -27.1280 N   0  0  0  0  0  0  0  0  0  0  0  0
   -0.9220   19.6240  -27.9020 C   0  0  0  0  0  0  0  0  0  0  0  0
   -0.1816   19.1922  -27.2125 H   0  0  0  0  0  0  0  0  0  0  0  0
   -1.3405   18.8283  -28.5359 H   0  0  0  0  0  0  0  0  0  0  0  0
   -0.4356   20.3800  -28.5359 H   0  0  0  0  0  0  0  0  0  0  0  0
   -2.9890   19.2390  -26.7280 C   0  0  0  0  0  0  0  0  0  0  0  0
   -3.0382   19.1882  -25.6303 H   0  0  0  0  0  0  0  0  0  0  0  0
   -3.9776   19.5096  -27.1273 H   0  0  0  0  0  0  0  0  0  0  0  0
   -2.6879   18.2592  -27.1273 H   0  0  0  0  0  0  0  0  0  0  0  0
  1  2  1  0
  2  3  2  0
  3  4  1  0
  4  5  2  0
  5  6  1  0
  5  7  1  0
  7  8  1  0
  7  9  2  0
  9 10  1  0
  9 11  1  0
 11 12  1  0
 11 13  2  0
 13 14  1  0
  3 15  1  0
 15 16  2  0
 16 17  1  0
 16 18  1  0
 18 19  1  0
 18 20  2  0
 20 21  1  0
 20 22  1  0
 22 23  1  0
 22 24  2  0
 24 25  1  0
  2 26  1  0
 26 27  1  0
 26 28  1  0
 26 29  1  0
 29 30  1  0
 30 31  1  0
 30 32  1  0
 30 33  1  0
 29 34  1  0
 34 35  1  0
 34 36  1  0
 34 37  1  0
 13  4  1  0
 24 15  1  0
M  CHG  1  22   1
M  END
>  <UniqueID>  (39) 
32

>  <SMILES>  (39) 
CN(C)C/C=C(/c1ccc[nH+]c1)c1ccc(Cl)cc1Cl

>  <Energy>  (39) 
46.428025434557235

>  <Genealogy>  (39) 
CN(C)CC=C(c1ccc[nH+]c1)c1ccc(Cl)cc1Cl (protonated)
CN(C)C/C=C(/c1ccc[nH+]c1)c1ccc(Cl)cc1Cl (cis-trans isomerization)
CN(C)C/C=C(/c1ccc[nH+]c1)c1ccc(Cl)cc1Cl (3D coordinates assigned)
CN(C)C/C=C(/c1ccc[nH+]c1)c1ccc(Cl)cc1Cl (optimized conformer: 46.428025434557235 kcal/mol)

>  <smiles>  (39) 
CN(C)CC=C(c1cccnc1)c1ccc(Cl)cc1Cl

>  <score_type>  (39) 
oracle

>  <origin>  (39) 
adg

>  <m_score__min__energy>  (39) 
-7.0499999999999998

>  <m_primary>  (39) 
energy

$$$$
39:0
     RDKit          3D

 25 27  0  0  0  0  0  0  0  0999 V2000
   -3.4870   25.2930  -30.4230 F   0  0  0  0  0  0  0  0  0  0  0  0
   -4.7030   24.6990  -30.5090 C   0  0  0  0  0  0  0  0  0  0  0  0
   -5.8340   25.3500  -30.0100 C   0  0  0  0  0  0  0  0  0  0  0  0
   -7.0860   24.7390  -30.0980 C   0  0  0  0  0  0  0  0  0  0  0  0
   -7.2130   23.4760  -30.6840 C   0  0  0  0  0  0  0  0  0  0  0  0
   -6.0800   22.8100  -31.1920 C   0  0  0  0  0  0  0  0  0  0  0  0
   -6.1850   21.4710  -31.8190 C   0  0  0  0  0  0  0  0  0  0  0  0
   -7.1800   20.5170  -31.5870 C   0  0  0  0  0  0  0  0  0  0  0  0
   -6.8360   19.4590  -32.3970 C   0  0  0  0  0  0  0  0  0  0  0  0
   -7.4490   18.2230  -32.5940 C   0  0  0  0  0  0  0  0  0  0  0  0
   -6.8490   17.3340  -33.5050 C   0  0  0  0  0  0  0  0  0  0  0  0
   -5.6650   17.6980  -34.1860 C   0  0  0  0  0  0  0  0  0  0  0  0
   -5.0720   18.9550  -33.9620 C   0  0  0  0  0  0  0  0  0  0  0  0
   -5.6910   19.8130  -33.0550 C   0  0  0  0  0  0  0  0  0  0  0  0
   -5.3110   21.0160  -32.7020 O   0  0  0  0  0  0  0  0  0  0  0  0
   -4.8240   23.4360  -31.0970 C   0  0  0  0  0  0  0  0  0  0  0  0
   -5.7379   26.3436  -29.5480 H   0  0  0  0  0  0  0  0  0  0  0  0
   -7.9756   25.2529  -29.7050 H   0  0  0  0  0  0  0  0  0  0  0  0
   -8.2025   22.9998  -30.7488 H   0  0  0  0  0  0  0  0  0  0  0  0
   -8.0433   20.5945  -30.9097 H   0  0  0  0  0  0  0  0  0  0  0  0
   -8.3695   17.9519  -32.0563 H   0  0  0  0  0  0  0  0  0  0  0  0
   -7.3043   16.3496  -33.6883 H   0  0  0  0  0  0  0  0  0  0  0  0
   -5.2042   16.9948  -34.8953 H   0  0  0  0  0  0  0  0  0  0  0  0
   -4.1507   19.2501  -34.4855 H   0  0  0  0  0  0  0  0  0  0  0  0
   -3.9301   22.9282  -31.4882 H   0  0  0  0  0  0  0  0  0  0  0  0
  1  2  1  0
  2  3  2  0
  3  4  1  0
  4  5  2  0
  5  6  1  0
  6  7  1  0
  7  8  2  0
  8  9  1  0
  9 10  2  0
 10 11  1  0
 11 12  2  0
 12 13  1  0
 13 14  2  0
 14 15  1  0
  6 16  2  0
 16  2  1  0
 15  7  1  0
 14  9  1  0
  3 17  1  0
  4 18  1  0
  5 19  1  0
  8 20  1  0
 10 21  1  0
 11 22  1  0
 12 23  1  0
 13 24  1  0
 16 25  1  0
M  END
>  <UniqueID>  (40) 
33

>  <SMILES>  (40) 
Fc1cccc(-c2cc3ccccc3o2)c1

>  <Energy>  (40) 
62.68802511031332

>  <Genealogy>  (40) 
Fc1cccc(-c2cc3ccccc3o2)c1 (3D coordinates assigned)
Fc1cccc(-c2cc3ccccc3o2)c1 (optimized conformer: 62.68802511031332 kcal/mol)

>  <smiles>  (40) 
Fc1cccc(-c2cc3ccccc3o2)c1

>  <score_type>  (40) 
oracle

>  <origin>  (40) 
adg

>  <m_score__min__energy>  (40) 
-6.8600000000000003

>  <m_primary>  (40) 
energy

$$$$
40:0
     RDKit          3D

 39 40  0  0  0  0  0  0  0  0999 V2000
   -0.0100   27.1400  -23.0220 C   0  0  0  0  0  0  0  0  0  0  0  0
   -1.2070   27.1440  -23.7920 O   0  0  0  0  0  0  0  0  0  0  0  0
   -1.3020   26.6730  -25.1100 C   0  0  0  0  0  0  0  0  0  0  0  0
   -0.4490   27.1200  -26.1360 C   0  0  0  0  0  0  0  0  0  0  0  0
   -0.5850   26.6180  -27.4340 C   0  0  0  0  0  0  0  0  0  0  0  0
   -1.5680   25.6690  -27.7310 C   0  0  0  0  0  0  0  0  0  0  0  0
   -1.6630   25.1980  -29.0490 O   0  0  0  0  0  0  0  0  0  0  0  0
   -2.2410   23.9470  -29.4180 C   0  0  0  0  0  0  0  0  0  0  0  0
   -3.3140   24.1470  -30.4500 C   0  0  0  0  0  0  0  0  0  0  0  0
   -3.6920   23.1770  -31.1590 O   0  0  0  0  0  0  0  0  0  0  0  0
   -3.9150   25.4290  -30.6540 N   0  0  0  0  0  0  0  0  0  0  0  0
   -5.3540   25.6650  -30.6460 C   0  0  0  0  0  0  0  0  0  0  0  0
   -6.0490   24.6750  -29.7110 C   0  0  0  0  0  0  0  0  0  0  0  0
   -6.7680   23.5990  -30.4850 C   0  0  0  0  0  0  0  0  0  0  0  0
   -6.5750   23.4770  -31.8710 C   0  0  0  0  0  0  0  0  0  0  0  0
   -7.2190   22.4610  -32.5850 C   0  0  0  0  0  0  0  0  0  0  0  0
   -8.0520   21.5580  -31.9200 C   0  0  0  0  0  0  0  0  0  0  0  0
   -8.2410   21.6660  -30.5390 C   0  0  0  0  0  0  0  0  0  0  0  0
   -7.6000   22.6810  -29.8220 C   0  0  0  0  0  0  0  0  0  0  0  0
   -2.4220   25.2210  -26.7050 C   0  0  0  0  0  0  0  0  0  0  0  0
   -2.2850   25.7220  -25.4070 C   0  0  0  0  0  0  0  0  0  0  0  0
   -0.2627   27.1408  -21.9514 H   0  0  0  0  0  0  0  0  0  0  0  0
    0.5759   26.2399  -23.2597 H   0  0  0  0  0  0  0  0  0  0  0  0
    0.5819   28.0362  -23.2597 H   0  0  0  0  0  0  0  0  0  0  0  0
    0.3278   27.8672  -25.9161 H   0  0  0  0  0  0  0  0  0  0  0  0
    0.0876   26.9730  -28.2288 H   0  0  0  0  0  0  0  0  0  0  0  0
   -1.4580   23.2945  -29.8317 H   0  0  0  0  0  0  0  0  0  0  0  0
   -2.6877   23.4845  -28.5255 H   0  0  0  0  0  0  0  0  0  0  0  0
   -5.5516   26.6904  -30.3004 H   0  0  0  0  0  0  0  0  0  0  0  0
   -5.7445   25.5290  -31.6653 H   0  0  0  0  0  0  0  0  0  0  0  0
   -5.2949   24.2058  -29.0621 H   0  0  0  0  0  0  0  0  0  0  0  0
   -6.7904   25.2255  -29.1132 H   0  0  0  0  0  0  0  0  0  0  0  0
   -5.9152   24.1828  -32.3967 H   0  0  0  0  0  0  0  0  0  0  0  0
   -7.0693   22.3730  -33.6712 H   0  0  0  0  0  0  0  0  0  0  0  0
   -8.5597   20.7613  -32.4835 H   0  0  0  0  0  0  0  0  0  0  0  0
   -8.8944   20.9521  -30.0161 H   0  0  0  0  0  0  0  0  0  0  0  0
   -7.7476   22.7611  -28.7349 H   0  0  0  0  0  0  0  0  0  0  0  0
   -3.1993   24.4746  -26.9254 H   0  0  0  0  0  0  0  0  0  0  0  0
   -2.9561   25.3654  -24.6117 H   0  0  0  0  0  0  0  0  0  0  0  0
  1  2  1  0
  2  3  1  0
  3  4  2  0
  4  5  1  0
  5  6  2  0
  6  7  1  0
  7  8  1  0
  8  9  1  0
  9 10  2  0
  9 11  1  0
 11 12  1  0
 12 13  1  0
 13 14  1  0
 14 15  2  0
 15 16  1  0
 16 17  2  0
 17 18  1  0
 18 19  2  0
  6 20  1  0
 20 21  2  0
 21  3  1  0
 19 14  1  0
  1 22  1  0
  1 23  1  0
  1 24  1  0
  4 25  1  0
  5 26  1  0
  8 27  1  0
  8 28  1  0
 12 29  1  0
 12 30  1  0
 13 31  1  0
 13 32  1  0
 15 33  1  0
 16 34  1  0
 17 35  1  0
 18 36  1  0
 19 37  1  0
 20 38  1  0
 21 39  1  0
M  CHG  1  11  -1
M  END
>  <UniqueID>  (41) 
34

>  <SMILES>  (41) 
COc1ccc(OCC(=O)[N-]CCc2ccccc2)cc1

>  <Energy>  (41) 
32.957853602845475

>  <Genealogy>  (41) 
COc1ccc(OCC(=O)[N-]CCc2ccccc2)cc1 (protonated)
COc1ccc(OCC(=O)[N-]CCc2ccccc2)cc1 (3D coordinates assigned)
COc1ccc(OCC(=O)[N-]CCc2ccccc2)cc1 (optimized conformer: 32.957853602845475 kcal/mol)

>  <smiles>  (41) 
COc1ccc(OCC(=O)NCCc2ccccc2)cc1

>  <score_type>  (41) 
oracle

>  <origin>  (41) 
adg

>  <m_score__min__energy>  (41) 
-8.6099999999999994

>  <m_primary>  (41) 
energy

$$$$
41:0
     RDKit          3D

 22 23  0  0  0  0  0  0  0  0999 V2000
   -6.3430   18.6600  -34.2320 O   0  0  0  0  0  0  0  0  0  0  0  0
   -7.0480   19.3990  -33.2850 C   0  0  0  0  0  0  0  0  0  0  0  0
   -8.0430   18.7760  -32.5250 C   0  0  0  0  0  0  0  0  0  0  0  0
   -8.7610   19.5060  -31.5740 C   0  0  0  0  0  0  0  0  0  0  0  0
   -8.4840   20.8620  -31.3760 C   0  0  0  0  0  0  0  0  0  0  0  0
   -7.4830   21.4980  -32.1300 C   0  0  0  0  0  0  0  0  0  0  0  0
   -7.1990   22.9620  -31.9400 C   0  0  0  0  0  0  0  0  0  0  0  0
   -7.1800   23.3980  -30.1660 S   0  0  0  0  0  0  0  0  0  0  0  0
   -5.5310   24.0990  -30.2020 C   0  0  0  0  0  0  0  0  0  0  0  0
   -4.5620   23.7680  -29.3270 N   0  0  0  0  0  0  0  0  0  0  0  0
   -3.5410   24.5380  -29.7490 C   0  0  0  0  0  0  0  0  0  0  0  0
   -3.8710   25.2870  -30.8170 N   0  0  0  0  0  0  0  0  0  0  0  0
   -5.1300   25.0100  -31.1040 N   0  0  0  0  0  0  0  0  0  0  0  0
   -6.7690   20.7590  -33.0880 C   0  0  0  0  0  0  0  0  0  0  0  0
   -6.5660   18.7140  -35.2190 H   0  0  0  0  0  0  0  0  0  0  0  0
   -8.2610   17.7085  -32.6762 H   0  0  0  0  0  0  0  0  0  0  0  0
   -9.5451   19.0131  -30.9805 H   0  0  0  0  0  0  0  0  0  0  0  0
   -9.0519   21.4334  -30.6270 H   0  0  0  0  0  0  0  0  0  0  0  0
   -6.2188   23.1986  -32.3795 H   0  0  0  0  0  0  0  0  0  0  0  0
   -7.9923   23.5409  -32.4355 H   0  0  0  0  0  0  0  0  0  0  0  0
   -2.5489   24.5530  -29.2741 H   0  0  0  0  0  0  0  0  0  0  0  0
   -5.9873   21.2496  -33.6865 H   0  0  0  0  0  0  0  0  0  0  0  0
  1  2  1  0
  2  3  2  0
  3  4  1  0
  4  5  2  0
  5  6  1  0
  6  7  1  0
  7  8  1  0
  8  9  1  0
  9 10  1  0
 10 11  2  0
 11 12  1  0
 12 13  1  0
  6 14  2  0
 14  2  1  0
 13  9  2  0
  1 15  1  0
  3 16  1  0
  4 17  1  0
  5 18  1  0
  7 19  1  0
  7 20  1  0
 11 21  1  0
 14 22  1  0
M  CHG  1  12  -1
M  END
>  <UniqueID>  (42) 
35

>  <SMILES>  (42) 
Oc1cccc(CSc2nc[n-]n2)c1

>  <Energy>  (42) 
49.41112837409385

>  <Genealogy>  (42) 
Oc1cccc(CSc2nc[n-]n2)c1 (protonated)
Oc1cccc(CSc2nc[n-]n2)c1 (3D coordinates assigned)
Oc1cccc(CSc2nc[n-]n2)c1 (optimized conformer: 49.41112837409385 kcal/mol)

>  <smiles>  (42) 
Oc1cccc(CSc2nc[nH]n2)c1

>  <score_type>  (42) 
oracle

>  <origin>  (42) 
adg

>  <m_score__min__energy>  (42) 
-7.5700000000000003

>  <m_primary>  (42) 
energy

$$$$
42:0
     RDKit          3D

 45 48  0  0  0  0  0  0  0  0999 V2000
   -2.5160   23.7710  -29.6410 C   0  0  0  0  0  0  0  0  0  0  0  0
   -3.2310   23.5130  -30.8450 O   0  0  0  0  0  0  0  0  0  0  0  0
   -4.6270   23.3940  -30.9450 C   0  0  0  0  0  0  0  0  0  0  0  0
   -5.4680   24.4280  -30.4920 C   0  0  0  0  0  0  0  0  0  0  0  0
   -6.8510   24.3240  -30.5980 C   0  0  0  0  0  0  0  0  0  0  0  0
   -7.4320   23.1920  -31.1590 C   0  0  0  0  0  0  0  0  0  0  0  0
   -6.6310   22.1350  -31.6230 C   0  0  0  0  0  0  0  0  0  0  0  0
   -5.2040   22.2240  -31.5120 C   0  0  0  0  0  0  0  0  0  0  0  0
   -4.4070   21.1280  -31.9850 C   0  0  0  0  0  0  0  0  0  0  0  0
   -2.9780   21.1350  -31.8880 N   0  0  0  0  0  0  0  0  0  0  0  0
   -2.2020   21.4560  -33.0910 C   0  0  0  0  0  0  0  0  0  0  0  0
   -0.7030   21.3540  -32.8140 C   0  0  0  0  0  0  0  0  0  0  0  0
   -0.4220   21.9240  -31.4970 N   0  0  0  0  0  0  0  0  0  0  0  0
   -0.9550   21.0690  -30.4210 C   0  0  0  0  0  0  0  0  0  0  0  0
   -2.3470   20.4750  -30.7410 C   0  0  0  0  0  0  0  0  0  0  0  0
   -5.0010   20.0300  -32.5350 N   0  0  0  0  0  0  0  0  0  0  0  0
   -6.3470   19.9670  -32.6310 C   0  0  0  0  0  0  0  0  0  0  0  0
   -7.1690   20.9710  -32.2010 C   0  0  0  0  0  0  0  0  0  0  0  0
   -8.4540   20.5070  -32.5110 C   0  0  0  0  0  0  0  0  0  0  0  0
   -9.7710   21.1850  -32.2960 C   0  0  0  0  0  0  0  0  0  0  0  0
   -8.3400   19.2890  -33.0930 N   0  0  0  0  0  0  0  0  0  0  0  0
   -7.0580   18.9570  -33.1540 N   0  0  0  0  0  0  0  0  0  0  0  0
   -6.5400   17.7500  -33.7880 C   0  0  0  0  0  0  0  0  0  0  0  0
   -3.1568   23.5398  -28.7773 H   0  0  0  0  0  0  0  0  0  0  0  0
   -1.6146   23.1414  -29.6078 H   0  0  0  0  0  0  0  0  0  0  0  0
   -2.2243   24.8311  -29.6078 H   0  0  0  0  0  0  0  0  0  0  0  0
   -5.0250   25.3315  -30.0477 H   0  0  0  0  0  0  0  0  0  0  0  0
   -7.4896   25.1430  -30.2355 H   0  0  0  0  0  0  0  0  0  0  0  0
   -8.5269   23.1236  -31.2401 H   0  0  0  0  0  0  0  0  0  0  0  0
   -2.4695   20.7505  -33.8914 H   0  0  0  0  0  0  0  0  0  0  0  0
   -2.4346   22.4871  -33.3954 H   0  0  0  0  0  0  0  0  0  0  0  0
   -0.3957   20.2979  -32.8319 H   0  0  0  0  0  0  0  0  0  0  0  0
   -0.1445   21.9058  -33.5844 H   0  0  0  0  0  0  0  0  0  0  0  0
    0.6160   21.9820  -31.3800 H   0  0  0  0  0  0  0  0  0  0  0  0
   -0.2520   20.2396  -30.2541 H   0  0  0  0  0  0  0  0  0  0  0  0
   -1.0695   21.7028  -29.5292 H   0  0  0  0  0  0  0  0  0  0  0  0
   -2.2324   19.4045  -30.9667 H   0  0  0  0  0  0  0  0  0  0  0  0
   -2.9917   20.6312  -29.8635 H   0  0  0  0  0  0  0  0  0  0  0  0
   -9.9612   21.2829  -31.2170 H   0  0  0  0  0  0  0  0  0  0  0  0
   -9.7488   22.1837  -32.7565 H   0  0  0  0  0  0  0  0  0  0  0  0
  -10.5709   20.5866  -32.7565 H   0  0  0  0  0  0  0  0  0  0  0  0
   -9.1230   18.7000  -33.4530 H   0  0  0  0  0  0  0  0  0  0  0  0
   -6.2320   17.0323  -33.0134 H   0  0  0  0  0  0  0  0  0  0  0  0
   -7.3240   17.2995  -34.4144 H   0  0  0  0  0  0  0  0  0  0  0  0
   -5.6733   18.0079  -34.4144 H   0  0  0  0  0  0  0  0  0  0  0  0
  1  2  1  0
  2  3  1  0
  3  4  2  0
  4  5  1  0
  5  6  2  0
  6  7  1  0
  7  8  2  0
  8  9  1  0
  9 10  1  0
 10 11  1  0
 11 12  1  0
 12 13  1  0
 13 14  1  0
 14 15  1  0
  9 16  2  0
 16 17  1  0
 17 18  2  0
 18 19  1  0
 19 20  1  0
 19 21  2  0
 21 22  1  0
 22 23  1  0
  8  3  1  0
 15 10  1  0
 22 17  1  0
 18  7  1  0
  1 24  1  0
  1 25  1  0
  1 26  1  0
  4 27  1  0
  5 28  1  0
  6 29  1  0
 11 30  1  0
 11 31  1  0
 12 32  1  0
 12 33  1  0
 13 34  1  0
 14 35  1  0
 14 36  1  0
 15 37  1  0
 15 38  1  0
 20 39  1  0
 20 40  1  0
 20 41  1  0
 21 42  1  0
 23 43  1  0
 23 44  1  0
 23 45  1  0
M  CHG  1  21   1
M  END
>  <UniqueID>  (43) 
36

>  <SMILES>  (43) 
COc1cccc2c1c(N1CCNCC1)nc1c2c(C)[nH+]n1C

>  <Energy>  (43) 
103.45477171097384

>  <Genealogy>  (43) 
COc1cccc2c1c(N1CCNCC1)nc1c2c(C)[nH+]n1C (protonated)
COc1cccc2c1c(N1CCNCC1)nc1c2c(C)[nH+]n1C (3D coordinates assigned)
COc1cccc2c1c(N1CCNCC1)nc1c2c(C)[nH+]n1C (nonaromatic ring conformer: 103.45477171097384 kcal/mol)

>  <smiles>  (43) 
COc1cccc2c1c(N1CCNCC1)nc1c2c(C)nn1C

>  <score_type>  (43) 
oracle

>  <origin>  (43) 
adg

>  <m_score__min__energy>  (43) 
-7.1600000000000001

>  <m_primary>  (43) 
energy

$$$$
43:0
     RDKit          3D

 32 33  0  0  0  0  0  0  0  0999 V2000
   -5.7350   25.2840  -30.1230 C   0  0  0  0  0  0  0  0  0  0  0  0
   -4.9970   24.7780  -31.2140 O   0  0  0  0  0  0  0  0  0  0  0  0
   -5.7360   23.7780  -31.8900 C   0  0  0  0  0  0  0  0  0  0  0  0
   -6.8070   23.1970  -30.9630 C   0  0  0  0  0  0  0  0  0  0  0  0
   -7.8950   22.6000  -31.7480 N   0  0  0  0  0  0  0  0  0  0  0  0
   -8.9350   23.4550  -32.3280 C   0  0  0  0  0  0  0  0  0  0  0  0
   -7.9370   21.1760  -31.9600 C   0  0  0  0  0  0  0  0  0  0  0  0
   -7.0150   20.5050  -32.6840 N   0  0  0  0  0  0  0  0  0  0  0  0
   -7.2690   19.1680  -32.7420 C   0  0  0  0  0  0  0  0  0  0  0  0
   -6.3740   18.2430  -33.4870 C   0  0  0  0  0  0  0  0  0  0  0  0
   -6.6150   16.8580  -33.4530 C   0  0  0  0  0  0  0  0  0  0  0  0
   -5.7740   15.9880  -34.1520 C   0  0  0  0  0  0  0  0  0  0  0  0
   -4.7230   16.4770  -34.8590 N   0  0  0  0  0  0  0  0  0  0  0  0
   -4.4580   17.8070  -34.9110 C   0  0  0  0  0  0  0  0  0  0  0  0
   -5.2730   18.7140  -34.2280 C   0  0  0  0  0  0  0  0  0  0  0  0
   -8.4170   18.7700  -32.0440 C   0  0  0  0  0  0  0  0  0  0  0  0
   -9.1110   20.1360  -31.3510 S   0  0  0  0  0  0  0  0  0  0  0  0
   -5.2654   24.9620  -29.1818 H   0  0  0  0  0  0  0  0  0  0  0  0
   -5.7496   26.3830  -30.1683 H   0  0  0  0  0  0  0  0  0  0  0  0
   -6.7653   24.9015  -30.1683 H   0  0  0  0  0  0  0  0  0  0  0  0
   -6.2203   24.2187  -32.7739 H   0  0  0  0  0  0  0  0  0  0  0  0
   -5.0529   22.9732  -32.1992 H   0  0  0  0  0  0  0  0  0  0  0  0
   -6.3536   22.4237  -30.3254 H   0  0  0  0  0  0  0  0  0  0  0  0
   -7.2181   24.0063  -30.3417 H   0  0  0  0  0  0  0  0  0  0  0  0
   -9.5121   23.9294  -31.5206 H   0  0  0  0  0  0  0  0  0  0  0  0
   -8.4663   24.2324  -32.9493 H   0  0  0  0  0  0  0  0  0  0  0  0
   -9.6070   22.8448  -32.9493 H   0  0  0  0  0  0  0  0  0  0  0  0
   -7.4638   16.4603  -32.8774 H   0  0  0  0  0  0  0  0  0  0  0  0
   -5.9639   14.9047  -34.1294 H   0  0  0  0  0  0  0  0  0  0  0  0
   -3.5988   18.1724  -35.4927 H   0  0  0  0  0  0  0  0  0  0  0  0
   -5.0553   19.7915  -34.2691 H   0  0  0  0  0  0  0  0  0  0  0  0
   -8.7984   17.7414  -31.9633 H   0  0  0  0  0  0  0  0  0  0  0  0
  1  2  1  0
  2  3  1  0
  3  4  1  0
  4  5  1  0
  5  6  1  0
  5  7  1  0
  7  8  2  0
  8  9  1  0
  9 10  1  0
 10 11  2  0
 11 12  1  0
 12 13  2  0
 13 14  1  0
 14 15  2  0
  9 16  2  0
 16 17  1  0
 17  7  1  0
 15 10  1  0
  1 18  1  0
  1 19  1  0
  1 20  1  0
  3 21  1  0
  3 22  1  0
  4 23  1  0
  4 24  1  0
  6 25  1  0
  6 26  1  0
  6 27  1  0
 11 28  1  0
 12 29  1  0
 14 30  1  0
 15 31  1  0
 16 32  1  0
M  END
>  <UniqueID>  (44) 
37

>  <SMILES>  (44) 
COCCN(C)c1nc(-c2ccncc2)cs1

>  <Energy>  (44) 
62.271643808705626

>  <Genealogy>  (44) 
COCCN(C)c1nc(-c2ccncc2)cs1 (3D coordinates assigned)
COCCN(C)c1nc(-c2ccncc2)cs1 (optimized conformer: 62.271643808705626 kcal/mol)

>  <smiles>  (44) 
COCCN(C)c1nc(-c2ccncc2)cs1

>  <score_type>  (44) 
oracle

>  <origin>  (44) 
adg

>  <m_score__min__energy>  (44) 
-6.3799999999999999

>  <m_primary>  (44) 
energy

$$$$
44:0
     RDKit          3D

 26 26  0  0  0  0  0  0  0  0999 V2000
   -2.6770   24.9200  -26.8070 C   0  0  0  0  0  0  0  0  0  0  0  0
   -1.6150   25.6900  -27.5830 C   0  0  0  0  0  0  0  0  0  0  0  0
   -1.7760   25.4960  -28.9870 O   0  0  0  0  0  0  0  0  0  0  0  0
   -2.6480   24.5530  -29.5390 C   0  0  0  0  0  0  0  0  0  0  0  0
   -2.5240   23.3280  -29.2610 O   0  0  0  0  0  0  0  0  0  0  0  0
   -3.6440   24.9910  -30.4690 N   0  0  0  0  0  0  0  0  0  0  0  0
   -4.8360   24.2850  -30.8420 C   0  0  0  0  0  0  0  0  0  0  0  0
   -6.0710   24.7620  -30.3850 C   0  0  0  0  0  0  0  0  0  0  0  0
   -7.2540   24.0920  -30.7100 C   0  0  0  0  0  0  0  0  0  0  0  0
   -7.2110   22.9300  -31.4870 C   0  0  0  0  0  0  0  0  0  0  0  0
   -8.7300   22.0650  -31.8960 S   0  0  0  0  0  0  0  0  0  0  0  0
   -7.9060   20.4630  -32.1630 C   0  0  0  0  0  0  0  0  0  0  0  0
   -8.7890   19.4310  -31.9040 F   0  0  0  0  0  0  0  0  0  0  0  0
   -7.4900   20.3830  -33.4780 F   0  0  0  0  0  0  0  0  0  0  0  0
   -5.9790   22.4290  -31.9220 C   0  0  0  0  0  0  0  0  0  0  0  0
   -4.7950   23.0980  -31.5990 C   0  0  0  0  0  0  0  0  0  0  0  0
   -2.5050   25.0447  -25.7277 H   0  0  0  0  0  0  0  0  0  0  0  0
   -3.6734   25.3069  -27.0666 H   0  0  0  0  0  0  0  0  0  0  0  0
   -2.6190   23.8526  -27.0666 H   0  0  0  0  0  0  0  0  0  0  0  0
   -1.7067   26.7620  -27.3538 H   0  0  0  0  0  0  0  0  0  0  0  0
   -0.6226   25.3196  -27.2865 H   0  0  0  0  0  0  0  0  0  0  0  0
   -6.1103   25.6704  -29.7659 H   0  0  0  0  0  0  0  0  0  0  0  0
   -8.2201   24.4793  -30.3541 H   0  0  0  0  0  0  0  0  0  0  0  0
   -7.0420   20.3806  -31.4872 H   0  0  0  0  0  0  0  0  0  0  0  0
   -5.9422   21.5063  -32.5197 H   0  0  0  0  0  0  0  0  0  0  0  0
   -3.8284   22.6963  -31.9370 H   0  0  0  0  0  0  0  0  0  0  0  0
  1  2  1  0
  2  3  1  0
  3  4  1  0
  4  5  2  0
  4  6  1  0
  6  7  1  0
  7  8  2  0
  8  9  1  0
  9 10  2  0
 10 11  1  0
 11 12  1  0
 12 13  1  0
 12 14  1  0
 10 15  1  0
 15 16  2  0
 16  7  1  0
  1 17  1  0
  1 18  1  0
  1 19  1  0
  2 20  1  0
  2 21  1  0
  8 22  1  0
  9 23  1  0
 12 24  1  0
 15 25  1  0
 16 26  1  0
M  CHG  1   6  -1
M  END
>  <UniqueID>  (45) 
38

>  <SMILES>  (45) 
CCOC(=O)[N-]c1ccc(SC(F)F)cc1

>  <Energy>  (45) 
19.37091317261043

>  <Genealogy>  (45) 
CCOC(=O)[N-]c1ccc(SC(F)F)cc1 (protonated)
CCOC(=O)[N-]c1ccc(SC(F)F)cc1 (3D coordinates assigned)
CCOC(=O)[N-]c1ccc(SC(F)F)cc1 (optimized conformer: 19.37091317261043 kcal/mol)

>  <smiles>  (45) 
CCOC(=O)Nc1ccc(SC(F)F)cc1

>  <score_type>  (45) 
oracle

>  <origin>  (45) 
adg

>  <m_score__min__energy>  (45) 
-7.1399999999999997

>  <m_primary>  (45) 
energy

$$$$
45:0
     RDKit          3D

 32 33  0  0  0  0  0  0  0  0999 V2000
   -6.0950   25.6560  -29.7160 C   0  0  0  0  0  0  0  0  0  0  0  0
   -6.2740   24.4730  -30.6130 C   0  0  0  0  0  0  0  0  0  0  0  0
   -5.1640   23.8330  -31.1740 C   0  0  0  0  0  0  0  0  0  0  0  0
   -5.3780   22.7100  -31.9820 C   0  0  0  0  0  0  0  0  0  0  0  0
   -4.2220   22.0000  -32.6130 C   0  0  0  0  0  0  0  0  0  0  0  0
   -6.6460   22.2700  -32.2010 N   0  0  0  0  0  0  0  0  0  0  0  0
   -7.7110   22.9000  -31.6410 C   0  0  0  0  0  0  0  0  0  0  0  0
   -9.3680   22.2970  -31.9460 S   0  0  0  0  0  0  0  0  0  0  0  0
   -9.0470   20.6270  -31.2760 C   0  0  0  0  0  0  0  0  0  0  0  0
   -8.8580   19.6230  -32.3800 C   0  0  0  0  0  0  0  0  0  0  0  0
   -9.8640   19.3110  -33.0740 O   0  0  0  0  0  0  0  0  0  0  0  0
   -7.5470   18.9750  -32.6610 C   0  0  0  0  0  0  0  0  0  0  0  0
   -7.1220   17.8270  -31.9570 C   0  0  0  0  0  0  0  0  0  0  0  0
   -5.8870   17.2360  -32.2410 C   0  0  0  0  0  0  0  0  0  0  0  0
   -5.0590   17.7790  -33.2250 C   0  0  0  0  0  0  0  0  0  0  0  0
   -5.4640   18.9130  -33.9280 C   0  0  0  0  0  0  0  0  0  0  0  0
   -6.6980   19.5090  -33.6500 C   0  0  0  0  0  0  0  0  0  0  0  0
   -7.5200   23.9860  -30.8470 N   0  0  0  0  0  0  0  0  0  0  0  0
   -6.1442   25.3310  -28.6663 H   0  0  0  0  0  0  0  0  0  0  0  0
   -5.1165   26.1193  -29.9109 H   0  0  0  0  0  0  0  0  0  0  0  0
   -6.8926   26.3880  -29.9109 H   0  0  0  0  0  0  0  0  0  0  0  0
   -4.1458   24.2037  -30.9846 H   0  0  0  0  0  0  0  0  0  0  0  0
   -3.5660   21.5971  -31.8273 H   0  0  0  0  0  0  0  0  0  0  0  0
   -4.5951   21.1751  -33.2378 H   0  0  0  0  0  0  0  0  0  0  0  0
   -3.6550   22.7058  -33.2378 H   0  0  0  0  0  0  0  0  0  0  0  0
   -8.1367   20.6571  -30.6592 H   0  0  0  0  0  0  0  0  0  0  0  0
   -9.9151   20.3216  -30.6734 H   0  0  0  0  0  0  0  0  0  0  0  0
   -7.7678   17.3941  -31.1788 H   0  0  0  0  0  0  0  0  0  0  0  0
   -5.5671   16.3408  -31.6876 H   0  0  0  0  0  0  0  0  0  0  0  0
   -4.0876   17.3125  -33.4457 H   0  0  0  0  0  0  0  0  0  0  0  0
   -4.8110   19.3399  -34.7034 H   0  0  0  0  0  0  0  0  0  0  0  0
   -7.0088   20.4038  -34.2092 H   0  0  0  0  0  0  0  0  0  0  0  0
  1  2  1  0
  2  3  2  0
  3  4  1  0
  4  5  1  0
  4  6  2  0
  6  7  1  0
  7  8  1  0
  8  9  1  0
  9 10  1  0
 10 11  2  0
 10 12  1  0
 12 13  2  0
 13 14  1  0
 14 15  2  0
 15 16  1  0
 16 17  2  0
  7 18  2  0
 18  2  1  0
 17 12  1  0
  1 19  1  0
  1 20  1  0
  1 21  1  0
  3 22  1  0
  5 23  1  0
  5 24  1  0
  5 25  1  0
  9 26  1  0
  9 27  1  0
 13 28  1  0
 14 29  1  0
 15 30  1  0
 16 31  1  0
 17 32  1  0
M  END
>  <UniqueID>  (46) 
39

>  <SMILES>  (46) 
Cc1cc(C)nc(SCC(=O)c2ccccc2)n1

>  <Energy>  (46) 
27.73523290436478

>  <Genealogy>  (46) 
Cc1cc(C)nc(SCC(=O)c2ccccc2)n1 (3D coordinates assigned)
Cc1cc(C)nc(SCC(=O)c2ccccc2)n1 (optimized conformer: 27.73523290436478 kcal/mol)

>  <smiles>  (46) 
Cc1cc(C)nc(SCC(=O)c2ccccc2)n1

>  <score_type>  (46) 
oracle

>  <origin>  (46) 
adg

>  <m_score__min__energy>  (46) 
-7.4299999999999997

>  <m_primary>  (46) 
energy

$$$$
46:0
     RDKit          3D

 38 40  0  0  0  0  0  0  0  0999 V2000
   -1.2860   25.7240  -27.6930 C   0  0  0  0  0  0  0  0  0  0  0  0
   -1.9920   25.6740  -28.9290 O   0  0  0  0  0  0  0  0  0  0  0  0
   -2.5240   24.5050  -29.4930 C   0  0  0  0  0  0  0  0  0  0  0  0
   -1.7730   23.3260  -29.6220 C   0  0  0  0  0  0  0  0  0  0  0  0
   -2.3450   22.1890  -30.1900 C   0  0  0  0  0  0  0  0  0  0  0  0
   -3.6740   22.2100  -30.6380 C   0  0  0  0  0  0  0  0  0  0  0  0
   -4.2340   21.0670  -31.2030 C   0  0  0  0  0  0  0  0  0  0  0  0
   -5.5560   21.0740  -31.6490 C   0  0  0  0  0  0  0  0  0  0  0  0
   -6.1330   19.8400  -32.2400 C   0  0  0  0  0  0  0  0  0  0  0  0
   -7.3660   19.3470  -31.7880 C   0  0  0  0  0  0  0  0  0  0  0  0
   -7.9040   18.1950  -32.3660 C   0  0  0  0  0  0  0  0  0  0  0  0
   -7.2370   17.5530  -33.3640 N   0  0  0  0  0  0  0  0  0  0  0  0
   -6.0310   18.0000  -33.8200 C   0  0  0  0  0  0  0  0  0  0  0  0
   -5.3450   17.2940  -34.9510 C   0  0  0  0  0  0  0  0  0  0  0  0
   -5.4690   19.1630  -33.2740 C   0  0  0  0  0  0  0  0  0  0  0  0
   -6.3090   22.2600  -31.5330 C   0  0  0  0  0  0  0  0  0  0  0  0
   -7.4910   22.2750  -31.9760 O   0  0  0  0  0  0  0  0  0  0  0  0
   -5.7640   23.3910  -30.9640 N   0  0  0  0  0  0  0  0  0  0  0  0
   -6.5860   24.6130  -30.8420 C   0  0  0  0  0  0  0  0  0  0  0  0
   -4.4550   23.3860  -30.5180 C   0  0  0  0  0  0  0  0  0  0  0  0
   -3.8510   24.5290  -29.9380 C   0  0  0  0  0  0  0  0  0  0  0  0
   -2.0020   25.6733  -26.8595 H   0  0  0  0  0  0  0  0  0  0  0  0
   -0.5919   24.8728  -27.6325 H   0  0  0  0  0  0  0  0  0  0  0  0
   -0.7188   26.6646  -27.6325 H   0  0  0  0  0  0  0  0  0  0  0  0
   -0.7299   23.2994  -29.2737 H   0  0  0  0  0  0  0  0  0  0  0  0
   -1.7501   21.2689  -30.2876 H   0  0  0  0  0  0  0  0  0  0  0  0
   -3.6301   20.1526  -31.2983 H   0  0  0  0  0  0  0  0  0  0  0  0
   -7.9066   19.8652  -30.9822 H   0  0  0  0  0  0  0  0  0  0  0  0
   -8.8703   17.8050  -32.0135 H   0  0  0  0  0  0  0  0  0  0  0  0
   -7.6700   16.7000  -33.7820 H   0  0  0  0  0  0  0  0  0  0  0  0
   -4.6321   16.5603  -34.5467 H   0  0  0  0  0  0  0  0  0  0  0  0
   -6.0940   16.7760  -35.5680 H   0  0  0  0  0  0  0  0  0  0  0  0
   -4.8057   18.0278  -35.5680 H   0  0  0  0  0  0  0  0  0  0  0  0
   -4.5100   19.5435  -33.6554 H   0  0  0  0  0  0  0  0  0  0  0  0
   -6.7422   24.8452  -29.7782 H   0  0  0  0  0  0  0  0  0  0  0  0
   -6.0686   25.4530  -31.3285 H   0  0  0  0  0  0  0  0  0  0  0  0
   -7.5591   24.4504  -31.3285 H   0  0  0  0  0  0  0  0  0  0  0  0
   -4.4369   25.4543  -29.8353 H   0  0  0  0  0  0  0  0  0  0  0  0
  1  2  1  0
  2  3  1  0
  3  4  2  0
  4  5  1  0
  5  6  2  0
  6  7  1  0
  7  8  2  0
  8  9  1  0
  9 10  2  0
 10 11  1  0
 11 12  2  0
 12 13  1  0
 13 14  1  0
 13 15  2  0
  8 16  1  0
 16 17  2  0
 16 18  1  0
 18 19  1  0
 18 20  1  0
 20 21  2  0
 21  3  1  0
 20  6  1  0
 15  9  1  0
  1 22  1  0
  1 23  1  0
  1 24  1  0
  4 25  1  0
  5 26  1  0
  7 27  1  0
 10 28  1  0
 11 29  1  0
 12 30  1  0
 14 31  1  0
 14 32  1  0
 14 33  1  0
 15 34  1  0
 19 35  1  0
 19 36  1  0
 19 37  1  0
 21 38  1  0
M  CHG  1  12   1
M  END
>  <UniqueID>  (47) 
40

>  <SMILES>  (47) 
COc1ccc2cc(-c3cc[nH+]c(C)c3)c(=O)n(C)c2c1

>  <Energy>  (47) 
55.829401200747995

>  <Genealogy>  (47) 
COc1ccc2cc(-c3cc[nH+]c(C)c3)c(=O)n(C)c2c1 (protonated)
COc1ccc2cc(-c3cc[nH+]c(C)c3)c(=O)n(C)c2c1 (3D coordinates assigned)
COc1ccc2cc(-c3cc[nH+]c(C)c3)c(=O)n(C)c2c1 (optimized conformer: 55.829401200747995 kcal/mol)

>  <smiles>  (47) 
COc1ccc2cc(-c3ccnc(C)c3)c(=O)n(C)c2c1

>  <score_type>  (47) 
oracle

>  <origin>  (47) 
adg

>  <m_score__min__energy>  (47) 
-7.0099999999999998

>  <m_primary>  (47) 
energy

$$$$
