0:0
     RDKit          3D

 83 87  0  0  0  0  0  0  0  0999 V2000
   -2.7310   18.6900  -26.2800 C   0  0  0  0  0  0  0  0  0  0  0  0
   -1.5420   19.4010  -26.5990 O   0  0  0  0  0  0  0  0  0  0  0  0
   -0.7510   19.1610  -27.7370 C   0  0  0  0  0  0  0  0  0  0  0  0
    0.1080   18.0460  -27.8360 C   0  0  0  0  0  0  0  0  0  0  0  0
    0.8890   17.8590  -28.9820 C   0  0  0  0  0  0  0  0  0  0  0  0
    0.8170   18.7720  -30.0350 C   0  0  0  0  0  0  0  0  0  0  0  0
   -0.0340   19.8780  -29.9480 C   0  0  0  0  0  0  0  0  0  0  0  0
   -0.8210   20.0730  -28.8050 C   0  0  0  0  0  0  0  0  0  0  0  0
   -1.6700   21.2210  -28.7180 N   0  0  0  0  0  0  0  0  0  0  0  0
   -3.1090   21.0560  -28.5100 C   0  0  0  0  0  0  0  0  0  0  0  0
   -3.6340   22.2160  -27.6540 C   0  0  0  0  0  0  0  0  0  0  0  0
   -3.2940   23.5600  -28.2010 N   0  0  0  0  0  0  0  0  0  0  0  0
   -4.4880   24.2930  -28.6830 C   0  0  0  0  0  0  0  0  0  0  0  0
   -4.2720   24.8700  -30.0960 C   0  0  0  0  0  0  0  0  0  0  0  0
   -5.5740   25.2680  -30.8240 C   0  0  0  0  0  0  0  0  0  0  0  0
   -6.8150   24.5120  -30.3370 C   0  0  0  0  0  0  0  0  0  0  0  0
   -7.5670   24.0210  -31.4480 O   0  0  0  0  0  0  0  0  0  0  0  0
   -7.8310   22.6620  -31.6940 C   0  0  0  0  0  0  0  0  0  0  0  0
   -9.1250   22.1360  -31.5360 C   0  0  0  0  0  0  0  0  0  0  0  0
   -9.3760   20.7840  -31.7430 C   0  0  0  0  0  0  0  0  0  0  0  0
   -8.3400   19.9210  -32.1170 C   0  0  0  0  0  0  0  0  0  0  0  0
   -8.6130   18.5590  -32.3260 C   0  0  0  0  0  0  0  0  0  0  0  0
   -7.5930   17.6850  -32.7020 C   0  0  0  0  0  0  0  0  0  0  0  0
   -6.2950   18.1580  -32.8720 C   0  0  0  0  0  0  0  0  0  0  0  0
   -6.0070   19.5110  -32.6700 C   0  0  0  0  0  0  0  0  0  0  0  0
   -7.0220   20.4210  -32.2930 C   0  0  0  0  0  0  0  0  0  0  0  0
   -6.7670   21.8110  -32.0920 C   0  0  0  0  0  0  0  0  0  0  0  0
   -5.3980   22.4190  -32.3560 C   0  0  0  0  0  0  0  0  0  0  0  0
   -4.3650   21.8530  -31.3610 C   0  0  0  0  0  0  0  0  0  0  0  0
   -2.9670   22.0600  -31.7820 N   0  0  0  0  0  0  0  0  0  0  0  0
   -2.6230   21.4580  -33.0840 C   0  0  0  0  0  0  0  0  0  0  0  0
   -1.4610   20.4510  -32.9980 C   0  0  0  0  0  0  0  0  0  0  0  0
   -1.9030   19.0390  -33.3060 C   0  0  0  0  0  0  0  0  0  0  0  0
   -3.0180   18.8060  -34.1280 C   0  0  0  0  0  0  0  0  0  0  0  0
   -3.4190   17.4930  -34.3880 C   0  0  0  0  0  0  0  0  0  0  0  0
   -2.7250   16.4480  -33.8600 N   0  0  0  0  0  0  0  0  0  0  0  0
   -1.6390   16.6450  -33.0630 C   0  0  0  0  0  0  0  0  0  0  0  0
   -1.2110   17.9430  -32.7660 C   0  0  0  0  0  0  0  0  0  0  0  0
   -2.2080   23.5680  -29.2130 C   0  0  0  0  0  0  0  0  0  0  0  0
   -1.1020   22.5590  -28.8850 C   0  0  0  0  0  0  0  0  0  0  0  0
   -2.8379   18.6261  -25.1871 H   0  0  0  0  0  0  0  0  0  0  0  0
   -3.5985   19.2177  -26.7030 H   0  0  0  0  0  0  0  0  0  0  0  0
   -2.6766   17.6761  -26.7030 H   0  0  0  0  0  0  0  0  0  0  0  0
    0.1639   17.3217  -27.0100 H   0  0  0  0  0  0  0  0  0  0  0  0
    1.5608   16.9909  -29.0530 H   0  0  0  0  0  0  0  0  0  0  0  0
    1.4309   18.6212  -30.9352 H   0  0  0  0  0  0  0  0  0  0  0  0
   -0.0859   20.5969  -30.7789 H   0  0  0  0  0  0  0  0  0  0  0  0
   -3.6231   21.0550  -29.4825 H   0  0  0  0  0  0  0  0  0  0  0  0
   -3.3000   20.1026  -27.9956 H   0  0  0  0  0  0  0  0  0  0  0  0
   -4.7290   22.1332  -27.5894 H   0  0  0  0  0  0  0  0  0  0  0  0
   -3.1507   22.1358  -26.6691 H   0  0  0  0  0  0  0  0  0  0  0  0
   -5.3442   23.6028  -28.7070 H   0  0  0  0  0  0  0  0  0  0  0  0
   -4.6759   25.1311  -27.9958 H   0  0  0  0  0  0  0  0  0  0  0  0
   -3.6379   25.7647  -30.0098 H   0  0  0  0  0  0  0  0  0  0  0  0
   -3.8066   24.0731  -30.6946 H   0  0  0  0  0  0  0  0  0  0  0  0
   -5.7416   26.3442  -30.6699 H   0  0  0  0  0  0  0  0  0  0  0  0
   -5.4384   25.0087  -31.8844 H   0  0  0  0  0  0  0  0  0  0  0  0
   -6.5004   23.6650  -29.7096 H   0  0  0  0  0  0  0  0  0  0  0  0
   -7.4461   25.1997  -29.7550 H   0  0  0  0  0  0  0  0  0  0  0  0
   -9.9500   22.8027  -31.2447 H   0  0  0  0  0  0  0  0  0  0  0  0
  -10.3949   20.3907  -31.6120 H   0  0  0  0  0  0  0  0  0  0  0  0
   -9.6368   18.1796  -32.1924 H   0  0  0  0  0  0  0  0  0  0  0  0
   -7.8148   16.6199  -32.8645 H   0  0  0  0  0  0  0  0  0  0  0  0
   -5.4931   17.4649  -33.1663 H   0  0  0  0  0  0  0  0  0  0  0  0
   -4.9771   19.8727  -32.8061 H   0  0  0  0  0  0  0  0  0  0  0  0
   -5.0846   22.1774  -33.3824 H   0  0  0  0  0  0  0  0  0  0  0  0
   -5.4586   23.5100  -32.2297 H   0  0  0  0  0  0  0  0  0  0  0  0
   -4.5122   22.3457  -30.3886 H   0  0  0  0  0  0  0  0  0  0  0  0
   -4.5291   20.7666  -31.3078 H   0  0  0  0  0  0  0  0  0  0  0  0
   -2.3370   21.6540  -31.0510 H   0  0  0  0  0  0  0  0  0  0  0  0
   -3.5097   20.9364  -33.4733 H   0  0  0  0  0  0  0  0  0  0  0  0
   -2.3001   22.2744  -33.7468 H   0  0  0  0  0  0  0  0  0  0  0  0
   -0.6844   20.7442  -33.7198 H   0  0  0  0  0  0  0  0  0  0  0  0
   -1.0772   20.4666  -31.9673 H   0  0  0  0  0  0  0  0  0  0  0  0
   -3.5713   19.6509  -34.5638 H   0  0  0  0  0  0  0  0  0  0  0  0
   -4.2982   17.3034  -35.0213 H   0  0  0  0  0  0  0  0  0  0  0  0
   -3.0240   15.4720  -34.0730 H   0  0  0  0  0  0  0  0  0  0  0  0
   -1.0967   15.7810  -32.6515 H   0  0  0  0  0  0  0  0  0  0  0  0
   -0.3393   18.1040  -32.1146 H   0  0  0  0  0  0  0  0  0  0  0  0
   -2.6367   23.3168  -30.1944 H   0  0  0  0  0  0  0  0  0  0  0  0
   -1.7583   24.5718  -29.2170 H   0  0  0  0  0  0  0  0  0  0  0  0
   -0.3701   22.5429  -29.7060 H   0  0  0  0  0  0  0  0  0  0  0  0
   -0.6099   22.8588  -27.9480 H   0  0  0  0  0  0  0  0  0  0  0  0
  1  2  1  0
  2  3  1  0
  3  4  2  0
  4  5  1  0
  5  6  2  0
  6  7  1  0
  7  8  2  0
  8  9  1  0
  9 10  1  0
 10 11  1  0
 11 12  1  0
 12 13  1  0
 13 14  1  0
 14 15  1  0
 15 16  1  0
 16 17  1  0
 17 18  1  0
 18 19  2  0
 19 20  1  0
 20 21  2  0
 21 22  1  0
 22 23  2  0
 23 24  1  0
 24 25  2  0
 25 26  1  0
 26 27  2  0
 27 28  1  0
 28 29  1  0
 29 30  1  0
 30 31  1  0
 31 32  1  0
 32 33  1  0
 33 34  2  0
 34 35  1  0
 35 36  2  0
 36 37  1  0
 37 38  2  0
 12 39  1  0
 39 40  1  0
  8  3  1  0
 40  9  1  0
 27 18  1  0
 38 33  1  0
 26 21  1  0
  1 41  1  0
  1 42  1  0
  1 43  1  0
  4 44  1  0
  5 45  1  0
  6 46  1  0
  7 47  1  0
 10 48  1  0
 10 49  1  0
 11 50  1  0
 11 51  1  0
 13 52  1  0
 13 53  1  0
 14 54  1  0
 14 55  1  0
 15 56  1  0
 15 57  1  0
 16 58  1  0
 16 59  1  0
 19 60  1  0
 20 61  1  0
 22 62  1  0
 23 63  1  0
 24 64  1  0
 25 65  1  0
 28 66  1  0
 28 67  1  0
 29 68  1  0
 29 69  1  0
 30 70  1  0
 31 71  1  0
 31 72  1  0
 32 73  1  0
 32 74  1  0
 34 75  1  0
 35 76  1  0
 36 77  1  0
 37 78  1  0
 38 79  1  0
 39 80  1  0
 39 81  1  0
 40 82  1  0
 40 83  1  0
M  CHG  1  36   1
M  END
>  <UniqueID>  (1) 
1

>  <SMILES>  (1) 
COc1ccccc1N1CCN(CCCCOc2ccc3ccccc3c2CCNCCc2cc[nH+]cc2)CC1

>  <Energy>  (1) 
101.82123978136659

>  <Genealogy>  (1) 
COc1ccccc1N1CCN(CCCCOc2ccc3ccccc3c2CCNCCc2cc[nH+]cc2)CC1 (protonated)
COc1ccccc1N1CCN(CCCCOc2ccc3ccccc3c2CCNCCc2cc[nH+]cc2)CC1 (3D coordinates assigned)
COc1ccccc1N1CCN(CCCCOc2ccc3ccccc3c2CCNCCc2cc[nH+]cc2)CC1 (nonaromatic ring conformer: 101.82123978136659 kcal/mol)

>  <smiles>  (1) 
COc1ccccc1N1CCN(CCCCOc2ccc3ccccc3c2CCNCCc2ccncc2)CC1

>  <score_type>  (1) 
oracle

>  <origin>  (1) 
adg

>  <m_score__min__energy>  (1) 
-10.720000000000001

>  <m_primary>  (1) 
energy

$$$$
1:0
     RDKit          3D

 46 49  0  0  0  0  0  0  0  0999 V2000
   -2.2690   23.6330  -29.7180 C   0  0  0  0  0  0  0  0  0  0  0  0
   -3.1220   24.5080  -30.4490 O   0  0  0  0  0  0  0  0  0  0  0  0
   -4.5210   24.4060  -30.4820 C   0  0  0  0  0  0  0  0  0  0  0  0
   -5.3620   25.4410  -30.0340 C   0  0  0  0  0  0  0  0  0  0  0  0
   -6.7500   25.2920  -30.0940 C   0  0  0  0  0  0  0  0  0  0  0  0
   -7.3100   24.1170  -30.5980 C   0  0  0  0  0  0  0  0  0  0  0  0
   -6.4860   23.0700  -31.0480 C   0  0  0  0  0  0  0  0  0  0  0  0
   -7.0780   21.8180  -31.5830 C   0  0  0  0  0  0  0  0  0  0  0  0
   -8.4350   21.5040  -31.4720 C   0  0  0  0  0  0  0  0  0  0  0  0
   -8.6900   20.0150  -32.2120 S   0  0  0  0  0  0  0  0  0  0  0  0
   -7.0740   19.8200  -32.6460 C   0  0  0  0  0  0  0  0  0  0  0  0
   -6.5290   18.6770  -33.3420 N   0  0  0  0  0  0  0  0  0  0  0  0
   -5.7560   18.8560  -34.5810 C   0  0  0  0  0  0  0  0  0  0  0  0
   -4.6040   17.8460  -34.6490 C   0  0  0  0  0  0  0  0  0  0  0  0
   -5.0470   16.4900  -34.2960 N   0  0  0  0  0  0  0  0  0  0  0  0
   -4.0770   15.4400  -34.1670 C   0  0  0  0  0  0  0  0  0  0  0  0
   -3.9620   14.8310  -33.0700 O   0  0  0  0  0  0  0  0  0  0  0  0
   -3.2100   15.0550  -35.2910 C   0  0  0  0  0  0  0  0  0  0  0  0
   -1.9610   15.5690  -35.5820 C   0  0  0  0  0  0  0  0  0  0  0  0
   -1.5510   14.9250  -36.7280 C   0  0  0  0  0  0  0  0  0  0  0  0
   -2.5720   14.0620  -37.0690 C   0  0  0  0  0  0  0  0  0  0  0  0
   -3.5480   14.1650  -36.1970 O   0  0  0  0  0  0  0  0  0  0  0  0
   -6.4340   16.2530  -33.8830 C   0  0  0  0  0  0  0  0  0  0  0  0
   -6.8660   17.3220  -32.8760 C   0  0  0  0  0  0  0  0  0  0  0  0
   -6.3350   20.8760  -32.2330 N   0  0  0  0  0  0  0  0  0  0  0  0
   -5.0900   23.2300  -30.9860 C   0  0  0  0  0  0  0  0  0  0  0  0
   -2.4210   23.7889  -28.6398 H   0  0  0  0  0  0  0  0  0  0  0  0
   -2.5066   22.5901  -29.9748 H   0  0  0  0  0  0  0  0  0  0  0  0
   -1.2204   23.8440  -29.9748 H   0  0  0  0  0  0  0  0  0  0  0  0
   -4.9261   26.3691  -29.6358 H   0  0  0  0  0  0  0  0  0  0  0  0
   -7.4039   26.1038  -29.7427 H   0  0  0  0  0  0  0  0  0  0  0  0
   -8.4038   24.0092  -30.6435 H   0  0  0  0  0  0  0  0  0  0  0  0
   -9.2031   22.1230  -30.9853 H   0  0  0  0  0  0  0  0  0  0  0  0
   -6.4193   18.7066  -35.4457 H   0  0  0  0  0  0  0  0  0  0  0  0
   -5.3372   19.8731  -34.5940 H   0  0  0  0  0  0  0  0  0  0  0  0
   -4.2007   17.8340  -35.6723 H   0  0  0  0  0  0  0  0  0  0  0  0
   -3.8351   18.1543  -33.9253 H   0  0  0  0  0  0  0  0  0  0  0  0
   -1.4089   16.3337  -35.0159 H   0  0  0  0  0  0  0  0  0  0  0  0
   -0.6011   15.0695  -37.2635 H   0  0  0  0  0  0  0  0  0  0  0  0
   -2.5688   13.3896  -37.9395 H   0  0  0  0  0  0  0  0  0  0  0  0
   -7.0899   16.2961  -34.7650 H   0  0  0  0  0  0  0  0  0  0  0  0
   -6.5083   15.2611  -33.4134 H   0  0  0  0  0  0  0  0  0  0  0  0
   -7.9543   17.2555  -32.7304 H   0  0  0  0  0  0  0  0  0  0  0  0
   -6.3302   17.1408  -31.9326 H   0  0  0  0  0  0  0  0  0  0  0  0
   -5.3050   20.9530  -32.3800 H   0  0  0  0  0  0  0  0  0  0  0  0
   -4.4355   22.4193  -31.3387 H   0  0  0  0  0  0  0  0  0  0  0  0
  1  2  1  0
  2  3  1  0
  3  4  2  0
  4  5  1  0
  5  6  2  0
  6  7  1  0
  7  8  1  0
  8  9  2  0
  9 10  1  0
 10 11  1  0
 11 12  1  0
 12 13  1  0
 13 14  1  0
 14 15  1  0
 15 16  1  0
 16 17  2  0
 16 18  1  0
 18 19  2  0
 19 20  1  0
 20 21  2  0
 21 22  1  0
 15 23  1  0
 23 24  1  0
 11 25  2  0
  7 26  2  0
 26  3  1  0
 25  8  1  0
 24 12  1  0
 22 18  1  0
  1 27  1  0
  1 28  1  0
  1 29  1  0
  4 30  1  0
  5 31  1  0
  6 32  1  0
  9 33  1  0
 13 34  1  0
 13 35  1  0
 14 36  1  0
 14 37  1  0
 19 38  1  0
 20 39  1  0
 21 40  1  0
 23 41  1  0
 23 42  1  0
 24 43  1  0
 24 44  1  0
 25 45  1  0
 26 46  1  0
M  CHG  1  25   1
M  END
>  <UniqueID>  (2) 
2

>  <SMILES>  (2) 
COc1cccc(-c2csc(N3CCN(C(=O)c4ccco4)CC3)[nH+]2)c1

>  <Energy>  (2) 
112.22688057623364

>  <Genealogy>  (2) 
COc1cccc(-c2csc(N3CCN(C(=O)c4ccco4)CC3)[nH+]2)c1 (protonated)
COc1cccc(-c2csc(N3CCN(C(=O)c4ccco4)CC3)[nH+]2)c1 (3D coordinates assigned)
COc1cccc(-c2csc(N3CCN(C(=O)c4ccco4)CC3)[nH+]2)c1 (nonaromatic ring conformer: 112.22688057623364 kcal/mol)

>  <smiles>  (2) 
COc1cccc(-c2csc(N3CCN(C(=O)c4ccco4)CC3)n2)c1

>  <score_type>  (2) 
oracle

>  <origin>  (2) 
adg

>  <m_score__min__energy>  (2) 
-7.3899999999999997

>  <m_primary>  (2) 
energy

$$$$
2:0
     RDKit          3D

 32 33  0  0  0  0  0  0  0  0999 V2000
   -8.6690   21.0730  -31.5670 C   0  0  0  0  0  0  0  0  0  0  0  0
   -7.7610   22.2340  -31.2950 C   0  0  0  0  0  0  0  0  0  0  0  0
   -7.5400   22.6650  -29.9780 C   0  0  0  0  0  0  0  0  0  0  0  0
   -6.7240   23.7710  -29.7260 C   0  0  0  0  0  0  0  0  0  0  0  0
   -6.1250   24.4670  -30.7870 C   0  0  0  0  0  0  0  0  0  0  0  0
   -5.2710   25.6740  -30.5090 C   0  0  0  0  0  0  0  0  0  0  0  0
   -3.8620   25.2990  -30.4690 N   0  0  0  0  0  0  0  0  0  0  0  0
   -3.4020   23.9780  -30.1730 C   0  0  0  0  0  0  0  0  0  0  0  0
   -3.4180   23.5530  -28.9860 O   0  0  0  0  0  0  0  0  0  0  0  0
   -2.8860   23.1930  -31.2110 O   0  0  0  0  0  0  0  0  0  0  0  0
   -3.4690   22.0150  -31.7020 C   0  0  0  0  0  0  0  0  0  0  0  0
   -3.0470   21.5280  -32.9450 C   0  0  0  0  0  0  0  0  0  0  0  0
   -3.6070   20.3630  -33.4790 C   0  0  0  0  0  0  0  0  0  0  0  0
   -4.6050   19.6830  -32.7780 C   0  0  0  0  0  0  0  0  0  0  0  0
   -5.0490   20.1700  -31.5450 C   0  0  0  0  0  0  0  0  0  0  0  0
   -4.4890   21.3340  -31.0090 C   0  0  0  0  0  0  0  0  0  0  0  0
   -6.3650   24.0500  -32.1060 C   0  0  0  0  0  0  0  0  0  0  0  0
   -7.1810   22.9430  -32.3570 C   0  0  0  0  0  0  0  0  0  0  0  0
   -9.0071   20.6407  -30.6137 H   0  0  0  0  0  0  0  0  0  0  0  0
   -9.5406   21.4164  -32.1435 H   0  0  0  0  0  0  0  0  0  0  0  0
   -8.1257   20.3098  -32.1435 H   0  0  0  0  0  0  0  0  0  0  0  0
   -8.0112   22.1299  -29.1403 H   0  0  0  0  0  0  0  0  0  0  0  0
   -6.5503   24.0978  -28.6901 H   0  0  0  0  0  0  0  0  0  0  0  0
   -5.4258   26.4188  -31.3035 H   0  0  0  0  0  0  0  0  0  0  0  0
   -5.5563   26.0974  -29.5347 H   0  0  0  0  0  0  0  0  0  0  0  0
   -2.2687   22.0660  -33.5061 H   0  0  0  0  0  0  0  0  0  0  0  0
   -3.2612   19.9823  -34.4514 H   0  0  0  0  0  0  0  0  0  0  0  0
   -5.0419   18.7641  -33.1959 H   0  0  0  0  0  0  0  0  0  0  0  0
   -5.8394   19.6372  -30.9960 H   0  0  0  0  0  0  0  0  0  0  0  0
   -4.8464   21.7192  -30.0426 H   0  0  0  0  0  0  0  0  0  0  0  0
   -5.9093   24.5963  -32.9450 H   0  0  0  0  0  0  0  0  0  0  0  0
   -7.3693   22.6262  -33.3934 H   0  0  0  0  0  0  0  0  0  0  0  0
  1  2  1  0
  2  3  2  0
  3  4  1  0
  4  5  2  0
  5  6  1  0
  6  7  1  0
  7  8  1  0
  8  9  2  0
  8 10  1  0
 10 11  1  0
 11 12  2  0
 12 13  1  0
 13 14  2  0
 14 15  1  0
 15 16  2  0
  5 17  1  0
 17 18  2  0
 18  2  1  0
 16 11  1  0
  1 19  1  0
  1 20  1  0
  1 21  1  0
  3 22  1  0
  4 23  1  0
  6 24  1  0
  6 25  1  0
 12 26  1  0
 13 27  1  0
 14 28  1  0
 15 29  1  0
 16 30  1  0
 17 31  1  0
 18 32  1  0
M  CHG  1   7  -1
M  END
>  <UniqueID>  (3) 
3

>  <SMILES>  (3) 
Cc1ccc(C[N-]C(=O)Oc2ccccc2)cc1

>  <Energy>  (3) 
33.61393279480991

>  <Genealogy>  (3) 
Cc1ccc(C[N-]C(=O)Oc2ccccc2)cc1 (protonated)
Cc1ccc(C[N-]C(=O)Oc2ccccc2)cc1 (3D coordinates assigned)
Cc1ccc(C[N-]C(=O)Oc2ccccc2)cc1 (optimized conformer: 33.61393279480991 kcal/mol)

>  <smiles>  (3) 
Cc1ccc(CNC(=O)Oc2ccccc2)cc1

>  <score_type>  (3) 
oracle

>  <origin>  (3) 
adg

>  <m_score__min__energy>  (3) 
-8.6500000000000004

>  <m_primary>  (3) 
energy

$$$$
3:0
     RDKit          3D

 52 55  0  0  0  0  0  0  0  0999 V2000
    0.3080   19.9110  -32.3760 C   0  0  0  0  0  0  0  0  0  0  0  0
    0.7650   19.9610  -31.0290 O   0  0  0  0  0  0  0  0  0  0  0  0
    0.9160   18.8500  -30.1840 C   0  0  0  0  0  0  0  0  0  0  0  0
    1.8860   17.8640  -30.4580 C   0  0  0  0  0  0  0  0  0  0  0  0
    2.0480   16.7670  -29.6150 C   0  0  0  0  0  0  0  0  0  0  0  0
    1.2530   16.6300  -28.4820 C   0  0  0  0  0  0  0  0  0  0  0  0
    0.2780   17.5890  -28.1790 C   0  0  0  0  0  0  0  0  0  0  0  0
   -0.4900   17.4390  -27.0590 N   0  0  0  0  0  0  0  0  0  0  0  0
   -1.4470   18.3410  -26.7240 C   0  0  0  0  0  0  0  0  0  0  0  0
   -1.6770   19.4520  -27.5280 C   0  0  0  0  0  0  0  0  0  0  0  0
   -0.9200   19.6480  -28.6880 C   0  0  0  0  0  0  0  0  0  0  0  0
   -1.2120   20.7930  -29.4980 N   0  0  0  0  0  0  0  0  0  0  0  0
   -0.3960   22.0050  -29.3690 C   0  0  0  0  0  0  0  0  0  0  0  0
   -1.3010   23.2210  -29.1500 C   0  0  0  0  0  0  0  0  0  0  0  0
   -2.4230   23.2460  -30.1050 N   0  0  0  0  0  0  0  0  0  0  0  0
   -3.2680   24.4120  -30.1580 C   0  0  0  0  0  0  0  0  0  0  0  0
   -3.1800   25.2930  -29.2590 O   0  0  0  0  0  0  0  0  0  0  0  0
   -4.2280   24.5650  -31.2110 N   0  0  0  0  0  0  0  0  0  0  0  0
   -5.4020   23.7550  -31.3510 C   0  0  0  0  0  0  0  0  0  0  0  0
   -5.3610   22.6760  -32.2450 C   0  0  0  0  0  0  0  0  0  0  0  0
   -6.4700   21.8400  -32.3990 C   0  0  0  0  0  0  0  0  0  0  0  0
   -7.6340   22.0840  -31.6700 C   0  0  0  0  0  0  0  0  0  0  0  0
   -7.7010   23.1760  -30.7990 C   0  0  0  0  0  0  0  0  0  0  0  0
   -6.5990   24.0370  -30.6480 C   0  0  0  0  0  0  0  0  0  0  0  0
   -6.7260   25.2270  -29.7330 C   0  0  0  0  0  0  0  0  0  0  0  0
   -2.6210   22.1290  -31.0430 C   0  0  0  0  0  0  0  0  0  0  0  0
   -2.4290   20.7900  -30.3220 C   0  0  0  0  0  0  0  0  0  0  0  0
    0.0920   18.7120  -29.0330 C   0  0  0  0  0  0  0  0  0  0  0  0
   -0.7854   19.7914  -32.3880 H   0  0  0  0  0  0  0  0  0  0  0  0
    0.5804   20.8443  -32.8905 H   0  0  0  0  0  0  0  0  0  0  0  0
    0.7758   19.0587  -32.8905 H   0  0  0  0  0  0  0  0  0  0  0  0
    2.5232   17.9624  -31.3492 H   0  0  0  0  0  0  0  0  0  0  0  0
    2.8078   16.0059  -29.8463 H   0  0  0  0  0  0  0  0  0  0  0  0
    1.3908   15.7628  -27.8195 H   0  0  0  0  0  0  0  0  0  0  0  0
   -0.3500   16.6150  -26.4330 H   0  0  0  0  0  0  0  0  0  0  0  0
   -2.0437   18.1925  -25.8119 H   0  0  0  0  0  0  0  0  0  0  0  0
   -2.4556   20.1781  -27.2514 H   0  0  0  0  0  0  0  0  0  0  0  0
    0.2843   21.8973  -28.5113 H   0  0  0  0  0  0  0  0  0  0  0  0
    0.1876   22.1488  -30.2903 H   0  0  0  0  0  0  0  0  0  0  0  0
   -1.7044   23.1852  -28.1273 H   0  0  0  0  0  0  0  0  0  0  0  0
   -0.6988   24.1283  -29.3055 H   0  0  0  0  0  0  0  0  0  0  0  0
   -4.4489   22.4860  -32.8297 H   0  0  0  0  0  0  0  0  0  0  0  0
   -6.4251   20.9895  -33.0951 H   0  0  0  0  0  0  0  0  0  0  0  0
   -8.5010   21.4161  -31.7805 H   0  0  0  0  0  0  0  0  0  0  0  0
   -8.6223   23.3630  -30.2278 H   0  0  0  0  0  0  0  0  0  0  0  0
   -6.6901   24.8903  -28.6864 H   0  0  0  0  0  0  0  0  0  0  0  0
   -5.8973   25.9251  -29.9222 H   0  0  0  0  0  0  0  0  0  0  0  0
   -7.6834   25.7345  -29.9222 H   0  0  0  0  0  0  0  0  0  0  0  0
   -3.6399   22.1769  -31.4547 H   0  0  0  0  0  0  0  0  0  0  0  0
   -1.8830   22.2078  -31.8549 H   0  0  0  0  0  0  0  0  0  0  0  0
   -3.2988   20.6044  -29.6747 H   0  0  0  0  0  0  0  0  0  0  0  0
   -2.3307   19.9998  -31.0809 H   0  0  0  0  0  0  0  0  0  0  0  0
  1  2  1  0
  2  3  1  0
  3  4  2  0
  4  5  1  0
  5  6  2  0
  6  7  1  0
  7  8  2  0
  8  9  1  0
  9 10  2  0
 10 11  1  0
 11 12  1  0
 12 13  1  0
 13 14  1  0
 14 15  1  0
 15 16  1  0
 16 17  2  0
 16 18  1  0
 18 19  1  0
 19 20  2  0
 20 21  1  0
 21 22  2  0
 22 23  1  0
 23 24  2  0
 24 25  1  0
 15 26  1  0
 26 27  1  0
 11 28  2  0
 28  3  1  0
 28  7  1  0
 27 12  1  0
 24 19  1  0
  1 29  1  0
  1 30  1  0
  1 31  1  0
  4 32  1  0
  5 33  1  0
  6 34  1  0
  8 35  1  0
  9 36  1  0
 10 37  1  0
 13 38  1  0
 13 39  1  0
 14 40  1  0
 14 41  1  0
 20 42  1  0
 21 43  1  0
 22 44  1  0
 23 45  1  0
 25 46  1  0
 25 47  1  0
 25 48  1  0
 26 49  1  0
 26 50  1  0
 27 51  1  0
 27 52  1  0
M  CHG  2   8   1  18  -1
M  END
>  <UniqueID>  (4) 
4

>  <SMILES>  (4) 
COc1cccc2[nH+]ccc(N3CCN(C(=O)[N-]c4ccccc4C)CC3)c12

>  <Energy>  (4) 
72.77725987445737

>  <Genealogy>  (4) 
COc1cccc2[nH+]ccc(N3CCN(C(=O)[N-]c4ccccc4C)CC3)c12 (protonated)
COc1cccc2[nH+]ccc(N3CCN(C(=O)[N-]c4ccccc4C)CC3)c12 (3D coordinates assigned)
COc1cccc2[nH+]ccc(N3CCN(C(=O)[N-]c4ccccc4C)CC3)c12 (nonaromatic ring conformer: 72.77725987445737 kcal/mol)

>  <smiles>  (4) 
COc1cccc2nccc(N3CCN(C(=O)Nc4ccccc4C)CC3)c12

>  <score_type>  (4) 
oracle

>  <origin>  (4) 
adg

>  <m_score__min__energy>  (4) 
-8.5700000000000003

>  <m_primary>  (4) 
energy

$$$$
4:0
     RDKit          3D

 36 38  0  0  0  0  0  0  0  0999 V2000
   -4.5100   16.7850  -34.3560 C   0  0  0  0  0  0  0  0  0  0  0  0
   -4.7670   18.1970  -34.6500 N   0  0  0  0  0  0  0  0  0  0  0  0
   -6.1240   18.6000  -34.2530 C   0  0  0  0  0  0  0  0  0  0  0  0
   -6.1090   19.7450  -33.2780 C   0  0  0  0  0  0  0  0  0  0  0  0
   -4.9790   20.2990  -32.7810 N   0  0  0  0  0  0  0  0  0  0  0  0
   -5.3250   21.2400  -31.9070 N   0  0  0  0  0  0  0  0  0  0  0  0
   -4.3680   22.0360  -31.1900 C   0  0  0  0  0  0  0  0  0  0  0  0
   -4.8020   22.9050  -30.1790 C   0  0  0  0  0  0  0  0  0  0  0  0
   -3.8800   23.6700  -29.4580 C   0  0  0  0  0  0  0  0  0  0  0  0
   -2.5030   23.5670  -29.7260 C   0  0  0  0  0  0  0  0  0  0  0  0
   -1.5260   24.3770  -28.9620 C   0  0  0  0  0  0  0  0  0  0  0  0
   -1.6220   25.8010  -28.9420 N   0  0  0  0  0  0  0  0  0  0  0  0
   -0.5980   23.8160  -28.3180 O   0  0  0  0  0  0  0  0  0  0  0  0
   -2.0690   22.6760  -30.7250 C   0  0  0  0  0  0  0  0  0  0  0  0
   -2.9930   21.9140  -31.4450 C   0  0  0  0  0  0  0  0  0  0  0  0
   -6.6720   21.2770  -31.8230 C   0  0  0  0  0  0  0  0  0  0  0  0
   -7.4890   22.0310  -30.9730 C   0  0  0  0  0  0  0  0  0  0  0  0
   -8.8790   21.8330  -31.0550 C   0  0  0  0  0  0  0  0  0  0  0  0
   -9.4180   20.8860  -31.9540 C   0  0  0  0  0  0  0  0  0  0  0  0
   -8.5710   20.1190  -32.7750 C   0  0  0  0  0  0  0  0  0  0  0  0
   -7.1990   20.3460  -32.6770 C   0  0  0  0  0  0  0  0  0  0  0  0
   -4.4829   16.6364  -33.2664 H   0  0  0  0  0  0  0  0  0  0  0  0
   -5.3107   16.1684  -34.7904 H   0  0  0  0  0  0  0  0  0  0  0  0
   -3.5434   16.4900  -34.7904 H   0  0  0  0  0  0  0  0  0  0  0  0
   -4.0650   18.7790  -34.1340 H   0  0  0  0  0  0  0  0  0  0  0  0
   -6.6808   18.9056  -35.1511 H   0  0  0  0  0  0  0  0  0  0  0  0
   -6.6033   17.7409  -33.7609 H   0  0  0  0  0  0  0  0  0  0  0  0
   -5.8752   22.9855  -29.9514 H   0  0  0  0  0  0  0  0  0  0  0  0
   -4.2341   24.3573  -28.6756 H   0  0  0  0  0  0  0  0  0  0  0  0
   -1.2280   26.3770  -29.7190 H   0  0  0  0  0  0  0  0  0  0  0  0
   -0.9948   22.5786  -30.9407 H   0  0  0  0  0  0  0  0  0  0  0  0
   -2.6405   21.2139  -32.2167 H   0  0  0  0  0  0  0  0  0  0  0  0
   -7.0585   22.7541  -30.2646 H   0  0  0  0  0  0  0  0  0  0  0  0
   -9.5522   22.4206  -30.4136 H   0  0  0  0  0  0  0  0  0  0  0  0
  -10.5076   20.7472  -32.0126 H   0  0  0  0  0  0  0  0  0  0  0  0
   -8.9765   19.3678  -33.4687 H   0  0  0  0  0  0  0  0  0  0  0  0
  1  2  1  0
  2  3  1  0
  3  4  1  0
  4  5  2  0
  5  6  1  0
  6  7  1  0
  7  8  2  0
  8  9  1  0
  9 10  2  0
 10 11  1  0
 11 12  1  0
 11 13  2  0
 10 14  1  0
 14 15  2  0
  6 16  1  0
 16 17  2  0
 17 18  1  0
 18 19  2  0
 19 20  1  0
 20 21  2  0
 21  4  1  0
 15  7  1  0
 21 16  1  0
  1 22  1  0
  1 23  1  0
  1 24  1  0
  2 25  1  0
  3 26  1  0
  3 27  1  0
  8 28  1  0
  9 29  1  0
 12 30  1  0
 14 31  1  0
 15 32  1  0
 17 33  1  0
 18 34  1  0
 19 35  1  0
 20 36  1  0
M  CHG  1  12  -1
M  END
>  <UniqueID>  (5) 
5

>  <SMILES>  (5) 
CNCc1nn(-c2ccc(C([NH-])=O)cc2)c2ccccc12

>  <Energy>  (5) 
81.38279076845102

>  <Genealogy>  (5) 
CNCc1nn(-c2ccc(C([NH-])=O)cc2)c2ccccc12 (protonated)
CNCc1nn(-c2ccc(C([NH-])=O)cc2)c2ccccc12 (3D coordinates assigned)
CNCc1nn(-c2ccc(C([NH-])=O)cc2)c2ccccc12 (optimized conformer: 81.38279076845102 kcal/mol)

>  <smiles>  (5) 
CNCc1nn(-c2ccc(C(N)=O)cc2)c2ccccc12

>  <score_type>  (5) 
oracle

>  <origin>  (5) 
adg

>  <m_score__min__energy>  (5) 
-9.9100000000000001

>  <m_primary>  (5) 
energy

$$$$
5:0
     RDKit          3D

 28 29  0  0  0  0  0  0  0  0999 V2000
   -5.5940   20.4200  -33.3940 C   0  0  0  0  0  0  0  0  0  0  0  0
   -6.8400   20.8050  -32.6350 C   0  0  0  0  0  0  0  0  0  0  0  0
   -7.9130   19.8960  -32.6400 C   0  0  0  0  0  0  0  0  0  0  0  0
   -9.1060   20.1940  -31.9840 C   0  0  0  0  0  0  0  0  0  0  0  0
   -9.2520   21.4070  -31.3160 C   0  0  0  0  0  0  0  0  0  0  0  0
   -8.2080   22.3330  -31.3130 C   0  0  0  0  0  0  0  0  0  0  0  0
   -6.9980   22.0660  -31.9830 C   0  0  0  0  0  0  0  0  0  0  0  0
   -5.9030   23.1220  -31.9060 C   0  0  1  0  0  0  0  0  0  0  0  0
   -6.3630   24.3230  -31.0590 C   0  0  0  0  0  0  0  0  0  0  0  0
   -5.1980   25.1970  -30.6980 C   0  0  0  0  0  0  0  0  0  0  0  0
   -5.3790   26.4220  -30.4690 O   0  0  0  0  0  0  0  0  0  0  0  0
   -3.8950   24.6320  -30.5300 N   0  0  0  0  0  0  0  0  0  0  0  0
   -3.6290   23.4000  -30.8410 C   0  0  0  0  0  0  0  0  0  0  0  0
   -2.3170   22.8850  -30.6180 N   0  0  0  0  0  0  0  0  0  0  0  0
   -4.6400   22.5610  -31.4180 N   0  0  0  0  0  0  0  0  0  0  0  0
   -4.7928   20.1724  -32.6821 H   0  0  0  0  0  0  0  0  0  0  0  0
   -5.8056   19.5453  -34.0266 H   0  0  0  0  0  0  0  0  0  0  0  0
   -5.2753   21.2616  -34.0266 H   0  0  0  0  0  0  0  0  0  0  0  0
   -7.8093   18.9370  -33.1687 H   0  0  0  0  0  0  0  0  0  0  0  0
   -9.9338   19.4696  -31.9940 H   0  0  0  0  0  0  0  0  0  0  0  0
  -10.1909   21.6355  -30.7903 H   0  0  0  0  0  0  0  0  0  0  0  0
   -8.3319   23.2866  -30.7789 H   0  0  0  0  0  0  0  0  0  0  0  0
   -5.7119   23.4851  -32.9266 H   0  0  0  0  0  0  0  0  0  0  0  0
   -7.0915   24.9126  -31.6348 H   0  0  0  0  0  0  0  0  0  0  0  0
   -6.8220   23.9465  -30.1329 H   0  0  0  0  0  0  0  0  0  0  0  0
   -2.0870   21.8960  -30.8640 H   0  0  0  0  0  0  0  0  0  0  0  0
   -1.5720   23.4890  -30.2040 H   0  0  0  0  0  0  0  0  0  0  0  0
   -4.3670   21.6000  -31.7260 H   0  0  0  0  0  0  0  0  0  0  0  0
  1  2  1  0
  2  3  2  0
  3  4  1  0
  4  5  2  0
  5  6  1  0
  6  7  2  0
  7  8  1  0
  8  9  1  0
  9 10  1  0
 10 11  2  0
 10 12  1  0
 12 13  2  0
 13 14  1  0
 13 15  1  0
  7  2  1  0
 15  8  1  0
  1 16  1  0
  1 17  1  0
  1 18  1  0
  3 19  1  0
  4 20  1  0
  5 21  1  0
  6 22  1  0
  8 23  1  6
  9 24  1  0
  9 25  1  0
 14 26  1  0
 14 27  1  0
 15 28  1  0
M  END
>  <UniqueID>  (6) 
6

>  <SMILES>  (6) 
Cc1ccccc1[C@H]1CC(=O)N=C(N)N1

>  <Energy>  (6) 
28.752818009516513

>  <Genealogy>  (6) 
Cc1ccccc1[C@H]1CC(=O)N=C(N)N1 (chirality)
Cc1ccccc1[C@H]1CC(=O)N=C(N)N1 (3D coordinates assigned)
Cc1ccccc1[C@H]1CC(=O)N=C(N)N1 (nonaromatic ring conformer: 28.752818009516513 kcal/mol)

>  <smiles>  (6) 
Cc1ccccc1C1CC(=O)N=C(N)N1

>  <score_type>  (6) 
oracle

>  <origin>  (6) 
adg

>  <m_score__min__energy>  (6) 
-6.8099999999999996

>  <m_primary>  (6) 
energy

$$$$
6:0
     RDKit          3D

 44 46  0  0  0  0  0  0  0  0999 V2000
   -9.7818   19.0280  -32.6726 H   0  0  0  0  0  0  0  0  0  0  0  0
   -8.8580   19.6160  -32.5690 C   0  0  0  0  0  0  0  0  0  0  0  0
   -8.9870   20.9370  -32.3620 C   0  0  0  0  0  0  0  0  0  0  0  0
   -9.6486   21.4976  -33.0388 H   0  0  0  0  0  0  0  0  0  0  0  0
   -8.3050   21.6900  -31.2920 C   0  0  0  0  0  0  0  0  0  0  0  0
   -8.8560   21.9050  -30.0740 N   0  0  0  0  0  0  0  0  0  0  0  0
   -7.9810   22.6270  -29.3840 N   0  0  0  0  0  0  0  0  0  0  0  0
   -8.1190   22.9590  -28.4040 H   0  0  0  0  0  0  0  0  0  0  0  0
   -6.9150   22.8310  -30.1750 C   0  0  0  0  0  0  0  0  0  0  0  0
   -5.7530   23.5280  -29.8610 C   0  0  0  0  0  0  0  0  0  0  0  0
   -5.6272   24.0085  -28.8795 H   0  0  0  0  0  0  0  0  0  0  0  0
   -4.7430   23.5990  -30.8390 C   0  0  0  0  0  0  0  0  0  0  0  0
   -3.5790   24.3240  -30.5360 O   0  0  0  0  0  0  0  0  0  0  0  0
   -2.5170   23.8650  -29.7010 C   0  0  0  0  0  0  0  0  0  0  0  0
   -1.6027   23.7604  -30.3036 H   0  0  0  0  0  0  0  0  0  0  0  0
   -2.8003   22.8943  -29.2680 H   0  0  0  0  0  0  0  0  0  0  0  0
   -2.2590   24.8580  -28.5620 C   0  0  0  0  0  0  0  0  0  0  0  0
   -2.4953   24.3757  -27.6020 H   0  0  0  0  0  0  0  0  0  0  0  0
   -2.8964   25.7418  -28.7121 H   0  0  0  0  0  0  0  0  0  0  0  0
   -0.8440   25.2880  -28.5540 N   0  0  0  0  0  0  0  0  0  0  0  0
   -0.6170   26.3340  -27.5400 C   0  0  0  0  0  0  0  0  0  0  0  0
   -0.7118   25.8971  -26.5349 H   0  0  0  0  0  0  0  0  0  0  0  0
    0.3928   26.7522  -27.6643 H   0  0  0  0  0  0  0  0  0  0  0  0
   -1.3626   27.1331  -27.6643 H   0  0  0  0  0  0  0  0  0  0  0  0
    0.0350   24.1410  -28.2750 C   0  0  0  0  0  0  0  0  0  0  0  0
    0.1344   24.0113  -27.1872 H   0  0  0  0  0  0  0  0  0  0  0  0
   -0.3991   23.2309  -28.7146 H   0  0  0  0  0  0  0  0  0  0  0  0
    1.0267   24.3235  -28.7146 H   0  0  0  0  0  0  0  0  0  0  0  0
   -4.9280   22.9350  -32.0820 C   0  0  0  0  0  0  0  0  0  0  0  0
   -4.1379   22.9660  -32.8467 H   0  0  0  0  0  0  0  0  0  0  0  0
   -6.1210   22.2400  -32.3310 C   0  0  0  0  0  0  0  0  0  0  0  0
   -6.2758   21.7037  -33.2789 H   0  0  0  0  0  0  0  0  0  0  0  0
   -7.0790   22.2480  -31.3690 N   0  0  0  0  0  0  0  0  0  0  0  0
   -7.5720   18.8870  -32.6690 C   0  0  0  0  0  0  0  0  0  0  0  0
   -7.2440   17.8360  -31.7920 C   0  0  0  0  0  0  0  0  0  0  0  0
   -7.9502   17.5416  -31.0017 H   0  0  0  0  0  0  0  0  0  0  0  0
   -6.0250   17.1650  -31.9210 C   0  0  0  0  0  0  0  0  0  0  0  0
   -5.7816   16.3336  -31.2431 H   0  0  0  0  0  0  0  0  0  0  0  0
   -5.1150   17.5480  -32.9090 C   0  0  0  0  0  0  0  0  0  0  0  0
   -4.1606   17.0116  -33.0162 H   0  0  0  0  0  0  0  0  0  0  0  0
   -5.4180   18.6130  -33.7610 C   0  0  0  0  0  0  0  0  0  0  0  0
   -4.6965   18.9217  -34.5318 H   0  0  0  0  0  0  0  0  0  0  0  0
   -6.6360   19.2870  -33.6360 C   0  0  0  0  0  0  0  0  0  0  0  0
   -6.8624   20.1353  -34.2987 H   0  0  0  0  0  0  0  0  0  0  0  0
  1  2  1  0
  2  3  2  0
  3  4  1  0
  3  5  1  0
  5  6  2  0
  6  7  1  0
  7  8  1  0
  7  9  2  0
  9 10  1  0
 10 11  1  0
 10 12  2  0
 12 13  1  0
 13 14  1  0
 14 15  1  0
 14 16  1  0
 14 17  1  0
 17 18  1  0
 17 19  1  0
 17 20  1  0
 20 21  1  0
 21 22  1  0
 21 23  1  0
 21 24  1  0
 20 25  1  0
 25 26  1  0
 25 27  1  0
 25 28  1  0
 12 29  1  0
 29 30  1  0
 29 31  2  0
 31 32  1  0
 31 33  1  0
  2 34  1  0
 34 35  2  0
 35 36  1  0
 35 37  1  0
 37 38  1  0
 37 39  2  0
 39 40  1  0
 39 41  1  0
 41 42  1  0
 41 43  2  0
 43 44  1  0
 33  5  1  0
 43 34  1  0
 33  9  1  0
M  CHG  1   7   1
M  END
>  <UniqueID>  (7) 
7

>  <SMILES>  (7) 
CN(C)CCOc1ccn2c(/C=C\c3ccccc3)n[nH+]c2c1

>  <Energy>  (7) 
95.77182378397616

>  <Genealogy>  (7) 
CN(C)CCOc1ccn2c(C=Cc3ccccc3)n[nH+]c2c1 (protonated)
CN(C)CCOc1ccn2c(/C=C\c3ccccc3)n[nH+]c2c1 (cis-trans isomerization)
CN(C)CCOc1ccn2c(/C=C\c3ccccc3)n[nH+]c2c1 (3D coordinates assigned)
CN(C)CCOc1ccn2c(/C=C\c3ccccc3)n[nH+]c2c1 (optimized conformer: 95.77182378397616 kcal/mol)

>  <smiles>  (7) 
CN(C)CCOc1ccn2c(C=Cc3ccccc3)nnc2c1

>  <score_type>  (7) 
oracle

>  <origin>  (7) 
adg

>  <m_score__min__energy>  (7) 
-7.6900000000000004

>  <m_primary>  (7) 
energy

$$$$
7:0
     RDKit          3D

 40 42  0  0  0  0  0  0  0  0999 V2000
    0.6060   24.2090  -27.8370 C   0  0  0  0  0  0  0  0  0  0  0  0
    0.0080   23.3150  -28.9340 C   0  0  0  0  0  0  0  0  0  0  0  0
   -1.3370   22.7190  -28.6670 N   0  0  0  0  0  0  0  0  0  0  0  0
   -1.2680   21.3540  -28.1040 C   0  0  0  0  0  0  0  0  0  0  0  0
   -0.8860   21.4190  -26.6290 C   0  0  0  0  0  0  0  0  0  0  0  0
   -2.5200   22.9460  -29.5560 C   0  0  1  0  0  0  0  0  0  0  0  0
   -2.7880   24.4340  -29.6800 C   0  0  0  0  0  0  0  0  0  0  0  0
   -2.1490   25.2440  -28.9570 O   0  0  0  0  0  0  0  0  0  0  0  0
   -3.8580   24.9590  -30.4640 N   0  0  0  0  0  0  0  0  0  0  0  0
   -4.9870   24.2140  -30.9100 C   0  0  0  0  0  0  0  0  0  0  0  0
   -6.2530   24.7910  -30.7550 C   0  0  0  0  0  0  0  0  0  0  0  0
   -7.4030   24.0850  -31.1030 C   0  0  0  0  0  0  0  0  0  0  0  0
   -7.2970   22.7940  -31.6150 C   0  0  0  0  0  0  0  0  0  0  0  0
   -6.0390   22.2190  -31.8090 C   0  0  0  0  0  0  0  0  0  0  0  0
   -5.9700   20.9570  -32.3040 F   0  0  0  0  0  0  0  0  0  0  0  0
   -4.8640   22.9320  -31.4840 C   0  0  0  0  0  0  0  0  0  0  0  0
   -3.5440   22.3500  -31.8490 C   0  0  0  0  0  0  0  0  0  0  0  0
   -3.4110   21.8090  -33.0980 N   0  0  0  0  0  0  0  0  0  0  0  0
   -2.3520   21.0360  -33.4440 C   0  0  0  0  0  0  0  0  0  0  0  0
   -1.3820   20.7300  -32.5030 C   0  0  0  0  0  0  0  0  0  0  0  0
   -1.4650   21.2940  -31.2340 C   0  0  0  0  0  0  0  0  0  0  0  0
   -2.4830   22.2170  -30.9100 C   0  0  0  0  0  0  0  0  0  0  0  0
    0.3370   23.8068  -26.8491 H   0  0  0  0  0  0  0  0  0  0  0  0
    1.7011   24.2308  -27.9382 H   0  0  0  0  0  0  0  0  0  0  0  0
    0.2081   25.2295  -27.9382 H   0  0  0  0  0  0  0  0  0  0  0  0
   -0.0735   23.9213  -29.8482 H   0  0  0  0  0  0  0  0  0  0  0  0
    0.6914   22.4561  -29.0060 H   0  0  0  0  0  0  0  0  0  0  0  0
   -2.2494   20.8677  -28.2054 H   0  0  0  0  0  0  0  0  0  0  0  0
   -0.5079   20.7755  -28.6495 H   0  0  0  0  0  0  0  0  0  0  0  0
   -1.7830   21.2664  -26.0109 H   0  0  0  0  0  0  0  0  0  0  0  0
   -0.1491   20.6333  -26.4061 H   0  0  0  0  0  0  0  0  0  0  0  0
   -0.4504   22.4042  -26.4061 H   0  0  0  0  0  0  0  0  0  0  0  0
   -3.3779   22.4679  -29.0606 H   0  0  0  0  0  0  0  0  0  0  0  0
   -6.3409   25.8117  -30.3546 H   0  0  0  0  0  0  0  0  0  0  0  0
   -8.3930   24.5466  -30.9735 H   0  0  0  0  0  0  0  0  0  0  0  0
   -8.2051   22.2266  -31.8669 H   0  0  0  0  0  0  0  0  0  0  0  0
   -4.1530   21.9650  -33.8180 H   0  0  0  0  0  0  0  0  0  0  0  0
   -2.2630   20.6521  -34.4710 H   0  0  0  0  0  0  0  0  0  0  0  0
   -0.5560   20.0491  -32.7564 H   0  0  0  0  0  0  0  0  0  0  0  0
   -0.7245   21.0159  -30.4696 H   0  0  0  0  0  0  0  0  0  0  0  0
  1  2  1  0
  2  3  1  0
  3  4  1  0
  4  5  1  0
  3  6  1  0
  6  7  1  0
  7  8  2  0
  7  9  1  0
  9 10  1  0
 10 11  2  0
 11 12  1  0
 12 13  2  0
 13 14  1  0
 14 15  1  0
 14 16  2  0
 16 17  1  0
 17 18  2  0
 18 19  1  0
 19 20  2  0
 20 21  1  0
 21 22  2  0
 22  6  1  0
 16 10  1  0
 22 17  1  0
  1 23  1  0
  1 24  1  0
  1 25  1  0
  2 26  1  0
  2 27  1  0
  4 28  1  0
  4 29  1  0
  5 30  1  0
  5 31  1  0
  5 32  1  0
  6 33  1  1
 11 34  1  0
 12 35  1  0
 13 36  1  0
 18 37  1  0
 19 38  1  0
 20 39  1  0
 21 40  1  0
M  CHG  2   9  -1  18   1
M  END
>  <UniqueID>  (8) 
8

>  <SMILES>  (8) 
CCN(CC)[C@H]1C(=O)[N-]c2cccc(F)c2-c2[nH+]cccc21

>  <Energy>  (8) 
84.49251390403843

>  <Genealogy>  (8) 
CCN(CC)C1C(=O)[N-]c2cccc(F)c2-c2[nH+]cccc21 (protonated)
CCN(CC)[C@H]1C(=O)[N-]c2cccc(F)c2-c2[nH+]cccc21 (chirality)
CCN(CC)[C@H]1C(=O)[N-]c2cccc(F)c2-c2[nH+]cccc21 (3D coordinates assigned)
CCN(CC)[C@H]1C(=O)[N-]c2cccc(F)c2-c2[nH+]cccc21 (nonaromatic ring conformer: 84.49251390403843 kcal/mol)

>  <smiles>  (8) 
CCN(CC)C1C(=O)Nc2cccc(F)c2-c2ncccc21

>  <score_type>  (8) 
oracle

>  <origin>  (8) 
adg

>  <m_score__min__energy>  (8) 
-6.8499999999999996

>  <m_primary>  (8) 
energy

$$$$
8:0
     RDKit          3D

 53 55  0  0  0  0  0  0  0  0999 V2000
   -2.7590   18.9230  -26.2450 C   0  0  0  0  0  0  0  0  0  0  0  0
   -3.0730   19.8330  -27.4430 C   0  0  0  0  0  0  0  0  0  0  0  0
   -1.9620   20.7520  -27.8220 N   0  0  0  0  0  0  0  0  0  0  0  0
   -0.6500   20.3490  -27.2490 C   0  0  0  0  0  0  0  0  0  0  0  0
    0.1090   19.3450  -28.1260 C   0  0  0  0  0  0  0  0  0  0  0  0
   -2.2810   22.1670  -27.4650 C   0  0  0  0  0  0  0  0  0  0  0  0
   -3.4660   22.7480  -28.2670 C   0  0  0  0  0  0  0  0  0  0  0  0
   -3.0570   23.3500  -29.5500 N   0  0  0  0  0  0  0  0  0  0  0  0
   -1.7260   23.0150  -30.0970 C   0  0  0  0  0  0  0  0  0  0  0  0
   -1.7530   21.7620  -30.9190 C   0  0  0  0  0  0  0  0  0  0  0  0
   -2.0790   21.6850  -32.2590 C   0  0  0  0  0  0  0  0  0  0  0  0
   -1.9690   20.3530  -32.5920 C   0  0  0  0  0  0  0  0  0  0  0  0
   -1.5990   19.7000  -31.4330 C   0  0  0  0  0  0  0  0  0  0  0  0
   -1.4830   20.5660  -30.4540 O   0  0  0  0  0  0  0  0  0  0  0  0
   -4.0560   24.0100  -30.3690 C   0  0  0  0  0  0  0  0  0  0  0  0
   -3.8650   25.1880  -30.7770 O   0  0  0  0  0  0  0  0  0  0  0  0
   -5.3010   23.3390  -30.7740 C   0  0  0  0  0  0  0  0  0  0  0  0
   -6.5030   24.0590  -30.7910 C   0  0  0  0  0  0  0  0  0  0  0  0
   -7.6870   23.4460  -31.2070 C   0  0  0  0  0  0  0  0  0  0  0  0
   -7.6830   22.1010  -31.6050 C   0  0  0  0  0  0  0  0  0  0  0  0
   -8.8630   21.4790  -32.0400 C   0  0  0  0  0  0  0  0  0  0  0  0
   -8.8450   20.1380  -32.4370 C   0  0  0  0  0  0  0  0  0  0  0  0
   -7.6510   19.4100  -32.4030 C   0  0  0  0  0  0  0  0  0  0  0  0
   -6.4690   20.0180  -31.9710 C   0  0  0  0  0  0  0  0  0  0  0  0
   -6.4730   21.3620  -31.5700 C   0  0  0  0  0  0  0  0  0  0  0  0
   -5.2910   21.9870  -31.1450 C   0  0  0  0  0  0  0  0  0  0  0  0
   -2.9478   19.4701  -25.3096 H   0  0  0  0  0  0  0  0  0  0  0  0
   -3.4013   18.0308  -26.2840 H   0  0  0  0  0  0  0  0  0  0  0  0
   -1.7032   18.6167  -26.2840 H   0  0  0  0  0  0  0  0  0  0  0  0
   -3.3035   19.1953  -28.3092 H   0  0  0  0  0  0  0  0  0  0  0  0
   -3.9195   20.4683  -27.1432 H   0  0  0  0  0  0  0  0  0  0  0  0
   -1.8780   20.6800  -28.8640 H   0  0  0  0  0  0  0  0  0  0  0  0
   -0.0289   21.2491  -27.1302 H   0  0  0  0  0  0  0  0  0  0  0  0
   -0.8510   19.8561  -26.2864 H   0  0  0  0  0  0  0  0  0  0  0  0
    0.6480   18.6321  -27.4847 H   0  0  0  0  0  0  0  0  0  0  0  0
   -0.6048   18.7999  -28.7611 H   0  0  0  0  0  0  0  0  0  0  0  0
    0.8281   19.8831  -28.7611 H   0  0  0  0  0  0  0  0  0  0  0  0
   -2.5301   22.2091  -26.3944 H   0  0  0  0  0  0  0  0  0  0  0  0
   -1.3952   22.7718  -27.7090 H   0  0  0  0  0  0  0  0  0  0  0  0
   -4.1804   21.9373  -28.4727 H   0  0  0  0  0  0  0  0  0  0  0  0
   -3.9138   23.5470  -27.6579 H   0  0  0  0  0  0  0  0  0  0  0  0
   -1.3830   23.8469  -30.7297 H   0  0  0  0  0  0  0  0  0  0  0  0
   -1.0437   22.8498  -29.2502 H   0  0  0  0  0  0  0  0  0  0  0  0
   -2.3665   22.5144  -32.9219 H   0  0  0  0  0  0  0  0  0  0  0  0
   -2.1409   19.9014  -33.5802 H   0  0  0  0  0  0  0  0  0  0  0  0
   -1.4274   18.6171  -31.3438 H   0  0  0  0  0  0  0  0  0  0  0  0
   -6.5141   25.1126  -30.4750 H   0  0  0  0  0  0  0  0  0  0  0  0
   -8.6254   24.0197  -31.2226 H   0  0  0  0  0  0  0  0  0  0  0  0
   -9.8044   22.0473  -32.0689 H   0  0  0  0  0  0  0  0  0  0  0  0
   -9.7726   19.6543  -32.7770 H   0  0  0  0  0  0  0  0  0  0  0  0
   -7.6423   18.3559  -32.7172 H   0  0  0  0  0  0  0  0  0  0  0  0
   -5.5329   19.4408  -31.9454 H   0  0  0  0  0  0  0  0  0  0  0  0
   -4.3529   21.4141  -31.1027 H   0  0  0  0  0  0  0  0  0  0  0  0
  1  2  1  0
  2  3  1  0
  3  4  1  0
  4  5  1  0
  3  6  1  0
  6  7  1  0
  7  8  1  0
  8  9  1  0
  9 10  1  0
 10 11  2  0
 11 12  1  0
 12 13  2  0
 13 14  1  0
  8 15  1  0
 15 16  2  0
 15 17  1  0
 17 18  2  0
 18 19  1  0
 19 20  2  0
 20 21  1  0
 21 22  2  0
 22 23  1  0
 23 24  2  0
 24 25  1  0
 25 26  2  0
 14 10  1  0
 26 17  1  0
 25 20  1  0
  1 27  1  0
  1 28  1  0
  1 29  1  0
  2 30  1  0
  2 31  1  0
  3 32  1  0
  4 33  1  0
  4 34  1  0
  5 35  1  0
  5 36  1  0
  5 37  1  0
  6 38  1  0
  6 39  1  0
  7 40  1  0
  7 41  1  0
  9 42  1  0
  9 43  1  0
 11 44  1  0
 12 45  1  0
 13 46  1  0
 18 47  1  0
 19 48  1  0
 21 49  1  0
 22 50  1  0
 23 51  1  0
 24 52  1  0
 26 53  1  0
M  CHG  1   3   1
M  END
>  <UniqueID>  (9) 
9

>  <SMILES>  (9) 
CC[NH+](CC)CCN(Cc1ccco1)C(=O)c1ccc2ccccc2c1

>  <Energy>  (9) 
89.31696645231536

>  <Genealogy>  (9) 
CC[NH+](CC)CCN(Cc1ccco1)C(=O)c1ccc2ccccc2c1 (protonated)
CC[NH+](CC)CCN(Cc1ccco1)C(=O)c1ccc2ccccc2c1 (3D coordinates assigned)
CC[NH+](CC)CCN(Cc1ccco1)C(=O)c1ccc2ccccc2c1 (optimized conformer: 89.31696645231536 kcal/mol)

>  <smiles>  (9) 
CCN(CC)CCN(Cc1ccco1)C(=O)c1ccc2ccccc2c1

>  <score_type>  (9) 
oracle

>  <origin>  (9) 
adg

>  <m_score__min__energy>  (9) 
-8.5700000000000003

>  <m_primary>  (9) 
energy

$$$$
9:0
     RDKit          3D

 47 49  0  0  0  0  0  0  0  0999 V2000
   -5.6470   18.0430  -34.9160 C   0  0  0  0  0  0  0  0  0  0  0  0
   -5.8760   18.5270  -33.4850 C   0  0  0  0  0  0  0  0  0  0  0  0
   -6.7590   19.8010  -33.4260 C   0  0  0  0  0  0  0  0  0  0  0  0
   -8.0470   19.6480  -32.6970 N   0  0  1  0  0  0  0  0  0  0  0  0
   -8.2500   18.2560  -32.2530 C   0  0  0  0  0  0  0  0  0  0  0  0
   -8.2390   20.5820  -31.5580 C   0  0  0  0  0  0  0  0  0  0  0  0
   -8.5940   22.0190  -31.9900 C   0  0  0  0  0  0  0  0  0  0  0  0
   -7.4270   22.7680  -32.3360 O   0  0  0  0  0  0  0  0  0  0  0  0
   -6.4580   23.2370  -31.4350 C   0  0  0  0  0  0  0  0  0  0  0  0
   -5.2790   22.4990  -31.2920 C   0  0  0  0  0  0  0  0  0  0  0  0
   -4.2830   22.9100  -30.4030 C   0  0  0  0  0  0  0  0  0  0  0  0
   -4.4480   24.0790  -29.6400 C   0  0  0  0  0  0  0  0  0  0  0  0
   -3.4080   24.5380  -28.6890 C   0  0  0  0  0  0  0  0  0  0  0  0
   -3.3450   24.2550  -27.3210 C   0  0  0  0  0  0  0  0  0  0  0  0
   -2.2090   24.8970  -26.8900 C   0  0  0  0  0  0  0  0  0  0  0  0
   -1.6280   24.9750  -25.6260 C   0  0  0  0  0  0  0  0  0  0  0  0
   -0.4410   25.7220  -25.4960 C   0  0  0  0  0  0  0  0  0  0  0  0
    0.1270   26.3620  -26.6190 C   0  0  0  0  0  0  0  0  0  0  0  0
   -0.4860   26.2630  -27.8840 C   0  0  0  0  0  0  0  0  0  0  0  0
   -1.6580   25.5170  -27.9780 C   0  0  0  0  0  0  0  0  0  0  0  0
   -2.3830   25.2950  -29.0460 O   0  0  0  0  0  0  0  0  0  0  0  0
   -5.6310   24.8240  -29.7870 C   0  0  0  0  0  0  0  0  0  0  0  0
   -6.6260   24.4110  -30.6770 C   0  0  0  0  0  0  0  0  0  0  0  0
   -5.1766   17.0488  -34.8960 H   0  0  0  0  0  0  0  0  0  0  0  0
   -6.6116   17.9817  -35.4411 H   0  0  0  0  0  0  0  0  0  0  0  0
   -4.9879   18.7500  -35.4411 H   0  0  0  0  0  0  0  0  0  0  0  0
   -6.3722   17.7266  -32.9165 H   0  0  0  0  0  0  0  0  0  0  0  0
   -4.8953   18.7784  -33.0549 H   0  0  0  0  0  0  0  0  0  0  0  0
   -6.1796   20.5935  -32.9298 H   0  0  0  0  0  0  0  0  0  0  0  0
   -7.0246   20.0358  -34.4673 H   0  0  0  0  0  0  0  0  0  0  0  0
   -8.8080   19.8470  -33.3900 H   0  0  0  0  0  0  0  0  0  0  0  0
   -8.2554   18.2189  -31.1536 H   0  0  0  0  0  0  0  0  0  0  0  0
   -9.2117   17.8852  -32.6371 H   0  0  0  0  0  0  0  0  0  0  0  0
   -7.4342   17.6259  -32.6371 H   0  0  0  0  0  0  0  0  0  0  0  0
   -9.0537   20.1975  -30.9267 H   0  0  0  0  0  0  0  0  0  0  0  0
   -7.2812   20.6347  -31.0196 H   0  0  0  0  0  0  0  0  0  0  0  0
   -9.2615   21.9746  -32.8632 H   0  0  0  0  0  0  0  0  0  0  0  0
   -9.0865   22.5208  -31.1440 H   0  0  0  0  0  0  0  0  0  0  0  0
   -5.1342   21.5847  -31.8861 H   0  0  0  0  0  0  0  0  0  0  0  0
   -3.3636   22.3150  -30.2993 H   0  0  0  0  0  0  0  0  0  0  0  0
   -4.0468   23.6538  -26.7243 H   0  0  0  0  0  0  0  0  0  0  0  0
   -2.0807   24.4706  -24.7596 H   0  0  0  0  0  0  0  0  0  0  0  0
    0.0464   25.8073  -24.5136 H   0  0  0  0  0  0  0  0  0  0  0  0
    1.0547   26.9421  -26.5057 H   0  0  0  0  0  0  0  0  0  0  0  0
   -0.0538   26.7577  -28.7663 H   0  0  0  0  0  0  0  0  0  0  0  0
   -5.7748   25.7405  -29.1960 H   0  0  0  0  0  0  0  0  0  0  0  0
   -7.5447   25.0061  -30.7857 H   0  0  0  0  0  0  0  0  0  0  0  0
  1  2  1  0
  2  3  1  0
  3  4  1  0
  4  5  1  0
  4  6  1  0
  6  7  1  0
  7  8  1  0
  8  9  1  0
  9 10  2  0
 10 11  1  0
 11 12  2  0
 12 13  1  0
 13 14  2  0
 14 15  1  0
 15 16  2  0
 16 17  1  0
 17 18  2  0
 18 19  1  0
 19 20  2  0
 20 21  1  0
 12 22  1  0
 22 23  2  0
 23  9  1  0
 21 13  1  0
 20 15  1  0
  1 24  1  0
  1 25  1  0
  1 26  1  0
  2 27  1  0
  2 28  1  0
  3 29  1  0
  3 30  1  0
  4 31  1  6
  5 32  1  0
  5 33  1  0
  5 34  1  0
  6 35  1  0
  6 36  1  0
  7 37  1  0
  7 38  1  0
 10 39  1  0
 11 40  1  0
 14 41  1  0
 16 42  1  0
 17 43  1  0
 18 44  1  0
 19 45  1  0
 22 46  1  0
 23 47  1  0
M  CHG  1   4   1
M  END
>  <UniqueID>  (10) 
10

>  <SMILES>  (10) 
CCC[N@@H+](C)CCOc1ccc(-c2cc3ccccc3o2)cc1

>  <Energy>  (10) 
86.82500509049822

>  <Genealogy>  (10) 
CCC[NH+](C)CCOc1ccc(-c2cc3ccccc3o2)cc1 (protonated)
CCC[N@@H+](C)CCOc1ccc(-c2cc3ccccc3o2)cc1 (chirality)
CCC[N@@H+](C)CCOc1ccc(-c2cc3ccccc3o2)cc1 (3D coordinates assigned)
CCC[N@@H+](C)CCOc1ccc(-c2cc3ccccc3o2)cc1 (optimized conformer: 86.82500509049822 kcal/mol)

>  <smiles>  (10) 
CCCN(C)CCOc1ccc(-c2cc3ccccc3o2)cc1

>  <score_type>  (10) 
oracle

>  <origin>  (10) 
adg

>  <m_score__min__energy>  (10) 
-7.3099999999999996

>  <m_primary>  (10) 
energy

$$$$
10:0
     RDKit          3D

 61 65  0  0  0  0  0  0  0  0999 V2000
   -6.0220   25.7220  -30.0290 C   0  0  0  0  0  0  0  0  0  0  0  0
   -5.2990   24.4630  -30.1460 N   0  0  0  0  0  0  0  0  0  0  0  0
   -5.3160   23.4570  -29.2540 C   0  0  0  0  0  0  0  0  0  0  0  0
   -4.5790   22.4100  -29.7660 C   0  0  0  0  0  0  0  0  0  0  0  0
   -4.1430   22.8620  -31.0000 C   0  0  0  0  0  0  0  0  0  0  0  0
   -3.3500   22.0810  -31.9670 C   0  0  0  0  0  0  0  0  0  0  0  0
   -3.7060   21.9410  -33.2610 N   0  0  0  0  0  0  0  0  0  0  0  0
   -2.7450   21.2370  -33.8370 N   0  0  0  0  0  0  0  0  0  0  0  0
   -1.8190   20.9560  -32.9070 C   0  0  0  0  0  0  0  0  0  0  0  0
   -0.3500   19.9710  -33.2240 S   0  0  0  0  0  0  0  0  0  0  0  0
   -1.1800   18.7900  -34.3450 C   0  0  0  0  0  0  0  0  0  0  0  0
   -1.6810   17.5590  -33.5880 C   0  0  0  0  0  0  0  0  0  0  0  0
   -2.5570   16.7580  -34.4540 N   0  0  0  0  0  0  0  0  0  0  0  0
   -3.7130   16.2400  -33.7090 C   0  0  0  0  0  0  0  0  0  0  0  0
   -4.6770   17.3490  -33.3790 C   0  0  0  0  0  0  0  0  0  0  0  0
   -5.4730   17.2810  -32.2260 C   0  0  0  0  0  0  0  0  0  0  0  0
   -6.3480   18.3240  -31.9070 C   0  0  0  0  0  0  0  0  0  0  0  0
   -6.4400   19.4560  -32.7370 C   0  0  0  0  0  0  0  0  0  0  0  0
   -7.3690   20.5650  -32.3990 C   0  0  0  0  0  0  0  0  0  0  0  0
   -8.7320   20.3080  -32.1580 C   0  0  0  0  0  0  0  0  0  0  0  0
   -9.6040   21.3530  -31.8400 C   0  0  0  0  0  0  0  0  0  0  0  0
   -9.1290   22.6640  -31.7600 C   0  0  0  0  0  0  0  0  0  0  0  0
   -7.7790   22.9320  -31.9960 C   0  0  0  0  0  0  0  0  0  0  0  0
   -6.9010   21.8900  -32.3130 C   0  0  0  0  0  0  0  0  0  0  0  0
   -5.6360   19.5220  -33.8910 C   0  0  0  0  0  0  0  0  0  0  0  0
   -4.7610   18.4790  -34.2050 C   0  0  0  0  0  0  0  0  0  0  0  0
   -2.1650   21.4760  -31.7120 N   0  0  0  0  0  0  0  0  0  0  0  0
   -1.4770   21.3180  -30.4620 C   0  0  0  0  0  0  0  0  0  0  0  0
   -1.0340   22.4460  -29.7520 C   0  0  0  0  0  0  0  0  0  0  0  0
   -0.3860   22.2930  -28.5230 C   0  0  0  0  0  0  0  0  0  0  0  0
   -0.1850   21.0150  -27.9920 C   0  0  0  0  0  0  0  0  0  0  0  0
   -0.6320   19.8900  -28.6900 C   0  0  0  0  0  0  0  0  0  0  0  0
   -1.2790   20.0380  -29.9200 C   0  0  0  0  0  0  0  0  0  0  0  0
   -4.6070   24.1090  -31.2170 N   0  0  0  0  0  0  0  0  0  0  0  0
   -6.1625   25.9667  -28.9658 H   0  0  0  0  0  0  0  0  0  0  0  0
   -5.4459   26.5223  -30.5164 H   0  0  0  0  0  0  0  0  0  0  0  0
   -7.0036   25.6278  -30.5164 H   0  0  0  0  0  0  0  0  0  0  0  0
   -5.8302   23.4674  -28.2816 H   0  0  0  0  0  0  0  0  0  0  0  0
   -4.3816   21.4340  -29.2986 H   0  0  0  0  0  0  0  0  0  0  0  0
   -2.7340   20.9530  -34.8420 H   0  0  0  0  0  0  0  0  0  0  0  0
   -2.0362   19.2901  -34.8213 H   0  0  0  0  0  0  0  0  0  0  0  0
   -0.4515   18.4591  -35.0998 H   0  0  0  0  0  0  0  0  0  0  0  0
   -0.8209   16.9486  -33.2755 H   0  0  0  0  0  0  0  0  0  0  0  0
   -2.2482   17.8852  -32.7037 H   0  0  0  0  0  0  0  0  0  0  0  0
   -2.0080   15.9290  -34.7830 H   0  0  0  0  0  0  0  0  0  0  0  0
   -4.2278   15.4850  -34.3213 H   0  0  0  0  0  0  0  0  0  0  0  0
   -3.3555   15.7924  -32.7699 H   0  0  0  0  0  0  0  0  0  0  0  0
   -5.4085   16.4015  -31.5685 H   0  0  0  0  0  0  0  0  0  0  0  0
   -6.9685   18.2589  -31.0010 H   0  0  0  0  0  0  0  0  0  0  0  0
   -9.1132   19.2781  -32.2204 H   0  0  0  0  0  0  0  0  0  0  0  0
  -10.6672   21.1424  -31.6522 H   0  0  0  0  0  0  0  0  0  0  0  0
   -9.8178   23.4848  -31.5113 H   0  0  0  0  0  0  0  0  0  0  0  0
   -7.4052   23.9646  -31.9325 H   0  0  0  0  0  0  0  0  0  0  0  0
   -5.8384   22.1073  -32.4962 H   0  0  0  0  0  0  0  0  0  0  0  0
   -5.6972   20.4007  -34.5498 H   0  0  0  0  0  0  0  0  0  0  0  0
   -4.1338   18.5447  -35.1063 H   0  0  0  0  0  0  0  0  0  0  0  0
   -1.1975   23.4526  -30.1643 H   0  0  0  0  0  0  0  0  0  0  0  0
   -0.0340   23.1783  -27.9732 H   0  0  0  0  0  0  0  0  0  0  0  0
    0.3250   20.8953  -27.0248 H   0  0  0  0  0  0  0  0  0  0  0  0
   -0.4743   18.8855  -28.2704 H   0  0  0  0  0  0  0  0  0  0  0  0
   -1.6336   19.1503  -30.4643 H   0  0  0  0  0  0  0  0  0  0  0  0
  1  2  1  0
  2  3  1  0
  3  4  2  0
  4  5  1  0
  5  6  1  0
  6  7  2  0
  7  8  1  0
  8  9  2  0
  9 10  1  0
 10 11  1  0
 11 12  1  0
 12 13  1  0
 13 14  1  0
 14 15  1  0
 15 16  2  0
 16 17  1  0
 17 18  2  0
 18 19  1  0
 19 20  2  0
 20 21  1  0
 21 22  2  0
 22 23  1  0
 23 24  2  0
 18 25  1  0
 25 26  2  0
  9 27  1  0
 27 28  1  0
 28 29  2  0
 29 30  1  0
 30 31  2  0
 31 32  1  0
 32 33  2  0
  5 34  2  0
 34  2  1  0
 27  6  1  0
 33 28  1  0
 26 15  1  0
 24 19  1  0
  1 35  1  0
  1 36  1  0
  1 37  1  0
  3 38  1  0
  4 39  1  0
  8 40  1  0
 11 41  1  0
 11 42  1  0
 12 43  1  0
 12 44  1  0
 13 45  1  0
 14 46  1  0
 14 47  1  0
 16 48  1  0
 17 49  1  0
 20 50  1  0
 21 51  1  0
 22 52  1  0
 23 53  1  0
 24 54  1  0
 25 55  1  0
 26 56  1  0
 29 57  1  0
 30 58  1  0
 31 59  1  0
 32 60  1  0
 33 61  1  0
M  CHG  1   8   1
M  END
>  <UniqueID>  (11) 
11

>  <SMILES>  (11) 
Cn1ccc(-c2n[nH+]c(SCCNCc3ccc(-c4ccccc4)cc3)n2-c2ccccc2)n1

>  <Energy>  (11) 
135.09880949207397

>  <Genealogy>  (11) 
Cn1ccc(-c2n[nH+]c(SCCNCc3ccc(-c4ccccc4)cc3)n2-c2ccccc2)n1 (protonated)
Cn1ccc(-c2n[nH+]c(SCCNCc3ccc(-c4ccccc4)cc3)n2-c2ccccc2)n1 (3D coordinates assigned)
Cn1ccc(-c2n[nH+]c(SCCNCc3ccc(-c4ccccc4)cc3)n2-c2ccccc2)n1 (optimized conformer: 135.09880949207397 kcal/mol)

>  <smiles>  (11) 
Cn1ccc(-c2nnc(SCCNCc3ccc(-c4ccccc4)cc3)n2-c2ccccc2)n1

>  <score_type>  (11) 
oracle

>  <origin>  (11) 
adg

>  <m_score__min__energy>  (11) 
-9.8399999999999999

>  <m_primary>  (11) 
energy

$$$$
11:0
     RDKit          3D

 36 38  0  0  0  0  0  0  0  0999 V2000
   -5.6800   25.4890  -30.1090 C   0  0  0  0  0  0  0  0  0  0  0  0
   -4.8670   24.6480  -30.9180 O   0  0  0  0  0  0  0  0  0  0  0  0
   -5.3300   23.4500  -31.4690 C   0  0  0  0  0  0  0  0  0  0  0  0
   -6.6190   23.0520  -31.2840 N   0  0  0  0  0  0  0  0  0  0  0  0
   -7.0790   21.8920  -31.8160 C   0  0  0  0  0  0  0  0  0  0  0  0
   -6.2240   21.0730  -32.5660 C   0  0  0  0  0  0  0  0  0  0  0  0
   -4.8980   21.4990  -32.7420 C   0  0  0  0  0  0  0  0  0  0  0  0
   -4.4820   22.6730  -32.1950 N   0  0  0  0  0  0  0  0  0  0  0  0
   -6.7310   19.8320  -33.1120 N   0  0  0  0  0  0  0  0  0  0  0  0
   -6.1140   19.1820  -34.2790 C   0  0  0  0  0  0  0  0  0  0  0  0
   -5.6740   17.7850  -33.9310 C   0  0  0  0  0  0  0  0  0  0  0  0
   -6.5060   16.6830  -34.1970 C   0  0  0  0  0  0  0  0  0  0  0  0
   -6.0950   15.3930  -33.8520 C   0  0  0  0  0  0  0  0  0  0  0  0
   -4.8540   15.1910  -33.2420 C   0  0  0  0  0  0  0  0  0  0  0  0
   -4.0190   16.2810  -32.9780 C   0  0  0  0  0  0  0  0  0  0  0  0
   -4.4260   17.5740  -33.3220 C   0  0  0  0  0  0  0  0  0  0  0  0
   -7.9550   19.2690  -32.5180 C   0  0  0  0  0  0  0  0  0  0  0  0
   -9.0080   20.3660  -32.3410 C   0  0  0  0  0  0  0  0  0  0  0  0
   -8.4400   21.4960  -31.6100 N   0  0  0  0  0  0  0  0  0  0  0  0
   -5.4796   25.2817  -29.0475 H   0  0  0  0  0  0  0  0  0  0  0  0
   -5.4489   26.5421  -30.3269 H   0  0  0  0  0  0  0  0  0  0  0  0
   -6.7404   25.2936  -30.3269 H   0  0  0  0  0  0  0  0  0  0  0  0
   -4.1951   20.8833  -33.3224 H   0  0  0  0  0  0  0  0  0  0  0  0
   -3.4920   22.9780  -32.3310 H   0  0  0  0  0  0  0  0  0  0  0  0
   -6.8466   19.1376  -35.0984 H   0  0  0  0  0  0  0  0  0  0  0  0
   -5.2347   19.7659  -34.5888 H   0  0  0  0  0  0  0  0  0  0  0  0
   -7.4832   16.8370  -34.6781 H   0  0  0  0  0  0  0  0  0  0  0  0
   -6.7499   14.5342  -34.0610 H   0  0  0  0  0  0  0  0  0  0  0  0
   -4.5341   14.1744  -32.9695 H   0  0  0  0  0  0  0  0  0  0  0  0
   -3.0415   16.1214  -32.4995 H   0  0  0  0  0  0  0  0  0  0  0  0
   -3.7660   18.4293  -33.1148 H   0  0  0  0  0  0  0  0  0  0  0  0
   -8.3534   18.4860  -33.1799 H   0  0  0  0  0  0  0  0  0  0  0  0
   -7.7130   18.8408  -31.5341 H   0  0  0  0  0  0  0  0  0  0  0  0
   -9.3478   20.7067  -33.3302 H   0  0  0  0  0  0  0  0  0  0  0  0
   -9.8574   19.9603  -31.7719 H   0  0  0  0  0  0  0  0  0  0  0  0
   -9.0610   22.0750  -31.0000 H   0  0  0  0  0  0  0  0  0  0  0  0
  1  2  1  0
  2  3  1  0
  3  4  2  0
  4  5  1  0
  5  6  2  0
  6  7  1  0
  7  8  2  0
  6  9  1  0
  9 10  1  0
 10 11  1  0
 11 12  2  0
 12 13  1  0
 13 14  2  0
 14 15  1  0
 15 16  2  0
  9 17  1  0
 17 18  1  0
 18 19  1  0
  8  3  1  0
 16 11  1  0
 19  5  1  0
  1 20  1  0
  1 21  1  0
  1 22  1  0
  7 23  1  0
  8 24  1  0
 10 25  1  0
 10 26  1  0
 12 27  1  0
 13 28  1  0
 14 29  1  0
 15 30  1  0
 16 31  1  0
 17 32  1  0
 17 33  1  0
 18 34  1  0
 18 35  1  0
 19 36  1  0
M  CHG  1   8   1
M  END
>  <UniqueID>  (12) 
12

>  <SMILES>  (12) 
COc1nc2c(c[nH+]1)N(Cc1ccccc1)CCN2

>  <Energy>  (12) 
34.957233214753145

>  <Genealogy>  (12) 
COc1nc2c(c[nH+]1)N(Cc1ccccc1)CCN2 (protonated)
COc1nc2c(c[nH+]1)N(Cc1ccccc1)CCN2 (3D coordinates assigned)
COc1nc2c(c[nH+]1)N(Cc1ccccc1)CCN2 (nonaromatic ring conformer: 34.957233214753145 kcal/mol)

>  <smiles>  (12) 
COc1ncc2c(n1)NCCN2Cc1ccccc1

>  <score_type>  (12) 
oracle

>  <origin>  (12) 
adg

>  <m_score__min__energy>  (12) 
-6

>  <m_primary>  (12) 
energy

$$$$
12:0
     RDKit          3D

 51 54  0  0  0  0  0  0  0  0999 V2000
   -3.4840   24.5540  -27.4590 C   0  0  0  0  0  0  0  0  0  0  0  0
   -3.0960   24.7850  -28.8090 O   0  0  0  0  0  0  0  0  0  0  0  0
   -4.0190   24.7980  -29.8610 C   0  0  0  0  0  0  0  0  0  0  0  0
   -3.8650   25.5920  -30.8310 O   0  0  0  0  0  0  0  0  0  0  0  0
   -5.2340   23.9070  -29.7750 C   0  0  1  0  0  0  0  0  0  0  0  0
   -6.3300   24.1580  -30.8270 C   0  0  2  0  0  0  0  0  0  0  0  0
   -7.3360   23.1180  -30.4010 C   0  0  0  0  0  0  0  0  0  0  0  0
   -6.3890   21.9520  -30.5890 C   0  0  1  0  0  0  0  0  0  0  0  0
   -6.0530   22.0840  -32.0840 C   0  0  1  0  0  0  0  0  0  0  0  0
   -5.8950   23.6270  -32.2180 C   0  0  0  0  0  0  0  0  0  0  0  0
   -4.9090   21.0890  -32.5160 C   0  0  1  0  0  0  0  0  0  0  0  0
   -5.4810   20.0220  -33.2990 O   0  0  0  0  0  0  0  0  0  0  0  0
   -6.8890   19.9940  -33.4060 C   0  0  0  0  0  0  0  0  0  0  0  0
   -3.8330   21.6550  -33.4660 C   0  0  0  0  0  0  0  0  0  0  0  0
   -2.6260   20.7540  -33.2340 C   0  0  0  0  0  0  0  0  0  0  0  0
   -2.9420   19.9670  -31.9580 C   0  0  0  0  0  0  0  0  0  0  0  0
   -4.1430   20.5680  -31.3460 N   0  0  1  0  0  0  0  0  0  0  0  0
   -3.8030   21.6190  -30.3060 C   0  0  0  0  0  0  0  0  0  0  0  0
   -2.9780   22.6090  -30.9290 O   0  0  0  0  0  0  0  0  0  0  0  0
   -1.6310   22.6390  -30.5000 C   0  0  0  0  0  0  0  0  0  0  0  0
   -3.1180   21.0390  -29.1770 O   0  0  0  0  0  0  0  0  0  0  0  0
   -3.4830   21.5550  -27.9100 C   0  0  0  0  0  0  0  0  0  0  0  0
   -5.1230   22.3400  -29.7700 C   0  0  1  0  0  0  0  0  0  0  0  0
   -2.7388   24.9976  -26.7823 H   0  0  0  0  0  0  0  0  0  0  0  0
   -4.4659   25.0147  -27.2758 H   0  0  0  0  0  0  0  0  0  0  0  0
   -3.5470   23.4712  -27.2758 H   0  0  0  0  0  0  0  0  0  0  0  0
   -5.4613   24.2454  -28.7533 H   0  0  0  0  0  0  0  0  0  0  0  0
   -6.6185   25.2177  -30.8881 H   0  0  0  0  0  0  0  0  0  0  0  0
   -7.6676   23.2403  -29.3593 H   0  0  0  0  0  0  0  0  0  0  0  0
   -8.3014   23.0883  -30.9274 H   0  0  0  0  0  0  0  0  0  0  0  0
   -6.7549   20.9560  -30.2990 H   0  0  0  0  0  0  0  0  0  0  0  0
   -6.7923   21.7510  -32.8273 H   0  0  0  0  0  0  0  0  0  0  0  0
   -4.8509   23.8980  -32.4333 H   0  0  0  0  0  0  0  0  0  0  0  0
   -6.4891   24.0484  -33.0423 H   0  0  0  0  0  0  0  0  0  0  0  0
   -7.3331   19.9852  -32.3997 H   0  0  0  0  0  0  0  0  0  0  0  0
   -7.2331   20.8855  -33.9508 H   0  0  0  0  0  0  0  0  0  0  0  0
   -7.1974   19.0895  -33.9508 H   0  0  0  0  0  0  0  0  0  0  0  0
   -3.5966   22.6987  -33.2115 H   0  0  0  0  0  0  0  0  0  0  0  0
   -4.1585   21.6647  -34.5167 H   0  0  0  0  0  0  0  0  0  0  0  0
   -1.7163   21.3573  -33.0982 H   0  0  0  0  0  0  0  0  0  0  0  0
   -2.4437   20.0876  -34.0899 H   0  0  0  0  0  0  0  0  0  0  0  0
   -2.0944   20.0296  -31.2596 H   0  0  0  0  0  0  0  0  0  0  0  0
   -3.1187   18.9070  -32.1929 H   0  0  0  0  0  0  0  0  0  0  0  0
   -4.6950   19.8130  -30.8910 H   0  0  0  0  0  0  0  0  0  0  0  0
   -1.5963   22.6398  -29.4005 H   0  0  0  0  0  0  0  0  0  0  0  0
   -1.1044   21.7524  -30.8829 H   0  0  0  0  0  0  0  0  0  0  0  0
   -1.1444   23.5482  -30.8829 H   0  0  0  0  0  0  0  0  0  0  0  0
   -3.0416   20.9310  -27.1189 H   0  0  0  0  0  0  0  0  0  0  0  0
   -3.1122   22.5861  -27.8134 H   0  0  0  0  0  0  0  0  0  0  0  0
   -4.5787   21.5488  -27.8134 H   0  0  0  0  0  0  0  0  0  0  0  0
   -5.0544   21.9837  -28.7316 H   0  0  0  0  0  0  0  0  0  0  0  0
  1  2  1  0
  2  3  1  0
  3  4  2  0
  3  5  1  0
  5  6  1  0
  6  7  1  0
  7  8  1  0
  8  9  1  0
  9 10  1  0
  9 11  1  0
 11 12  1  6
 12 13  1  0
 11 14  1  0
 14 15  1  0
 15 16  1  0
 16 17  1  0
 17 18  1  0
 18 19  1  0
 19 20  1  0
 18 21  1  0
 21 22  1  0
 18 23  1  0
 23  5  1  0
 10  6  1  0
 17 11  1  0
 23  8  1  0
  1 24  1  0
  1 25  1  0
  1 26  1  0
  5 27  1  1
  6 28  1  6
  7 29  1  0
  7 30  1  0
  8 31  1  6
  9 32  1  6
 10 33  1  0
 10 34  1  0
 13 35  1  0
 13 36  1  0
 13 37  1  0
 14 38  1  0
 14 39  1  0
 15 40  1  0
 15 41  1  0
 16 42  1  0
 16 43  1  0
 17 44  1  1
 20 45  1  0
 20 46  1  0
 20 47  1  0
 22 48  1  0
 22 49  1  0
 22 50  1  0
 23 51  1  1
M  CHG  1  17   1
M  END
>  <UniqueID>  (13) 
13

>  <SMILES>  (13) 
COC(=O)[C@@H]1C2C3C[C@@H]1CC3C1(OC)CCC[NH+]1C2(OC)OC

>  <Energy>  (13) 
152.48869875253013

>  <Genealogy>  (13) 
COC(=O)C1C2CC3C(C2)C2(OC)CCC[NH+]2C(OC)(OC)C31 (protonated)
COC(=O)[C@@H]1C2C3C[C@@H]1CC3C1(OC)CCC[NH+]1C2(OC)OC (chirality)
COC(=O)[C@@H]1C2C3C[C@@H]1CC3C1(OC)CCC[NH+]1C2(OC)OC (3D coordinates assigned)
COC(=O)[C@@H]1C2C3C[C@@H]1CC3C1(OC)CCC[NH+]1C2(OC)OC (nonaromatic ring conformer: 152.48869875253013 kcal/mol)

>  <smiles>  (13) 
COC(=O)C1C2CC3C(C2)C2(OC)CCCN2C(OC)(OC)C31

>  <score_type>  (13) 
oracle

>  <origin>  (13) 
adg

>  <m_score__min__energy>  (13) 
-6.3799999999999999

>  <m_primary>  (13) 
energy

$$$$
13:0
     RDKit          3D

 44 46  0  0  0  0  0  0  0  0999 V2000
   -9.0390   21.7890  -31.9210 C   0  0  0  0  0  0  0  0  0  0  0  0
   -8.3720   20.4590  -32.1460 C   0  0  0  0  0  0  0  0  0  0  0  0
   -9.0600   19.2860  -31.7870 C   0  0  0  0  0  0  0  0  0  0  0  0
   -8.4720   18.0340  -31.9730 C   0  0  0  0  0  0  0  0  0  0  0  0
   -7.1900   17.9380  -32.5130 C   0  0  0  0  0  0  0  0  0  0  0  0
   -6.4890   19.0900  -32.8700 C   0  0  0  0  0  0  0  0  0  0  0  0
   -7.0680   20.3650  -32.7000 C   0  0  0  0  0  0  0  0  0  0  0  0
   -6.3320   21.5550  -33.0590 N   0  0  0  0  0  0  0  0  0  0  0  0
   -5.1230   21.9540  -32.4040 C   0  0  0  0  0  0  0  0  0  0  0  0
   -4.0570   21.3230  -32.6390 O   0  0  0  0  0  0  0  0  0  0  0  0
   -5.1330   23.0810  -31.4430 C   0  0  0  0  0  0  0  0  0  0  0  0
   -6.3070   23.8070  -31.1830 C   0  0  0  0  0  0  0  0  0  0  0  0
   -6.2830   24.8650  -30.3310 N   0  0  0  0  0  0  0  0  0  0  0  0
   -5.1380   25.2710  -29.7220 C   0  0  0  0  0  0  0  0  0  0  0  0
   -3.9350   24.6040  -29.9690 C   0  0  0  0  0  0  0  0  0  0  0  0
   -2.7260   25.0700  -29.3520 N   0  0  0  0  0  0  0  0  0  0  0  0
   -1.5610   24.2720  -29.0970 C   0  0  0  0  0  0  0  0  0  0  0  0
   -0.4840   24.5640  -29.6790 O   0  0  0  0  0  0  0  0  0  0  0  0
   -1.6010   23.1040  -28.1910 C   0  0  0  0  0  0  0  0  0  0  0  0
   -1.7740   21.7820  -28.5560 C   0  0  0  0  0  0  0  0  0  0  0  0
   -1.8930   21.1050  -30.1720 Cl  0  0  0  0  0  0  0  0  0  0  0  0
   -1.7700   21.0840  -27.3620 C   0  0  0  0  0  0  0  0  0  0  0  0
   -1.9130   19.6080  -27.2040 C   0  0  0  0  0  0  0  0  0  0  0  0
   -1.6090   21.9410  -26.3330 N   0  0  0  0  0  0  0  0  0  0  0  0
   -1.5090   23.1590  -26.8420 N   0  0  0  0  0  0  0  0  0  0  0  0
   -1.3510   24.3560  -26.0240 C   0  0  0  0  0  0  0  0  0  0  0  0
   -3.9490   23.4790  -30.8040 C   0  0  0  0  0  0  0  0  0  0  0  0
   -9.1320   21.9745  -30.8407 H   0  0  0  0  0  0  0  0  0  0  0  0
   -8.4334   22.5850  -32.3789 H   0  0  0  0  0  0  0  0  0  0  0  0
  -10.0391   21.7798  -32.3789 H   0  0  0  0  0  0  0  0  0  0  0  0
  -10.0697   19.3559  -31.3561 H   0  0  0  0  0  0  0  0  0  0  0  0
   -9.0203   17.1223  -31.6934 H   0  0  0  0  0  0  0  0  0  0  0  0
   -6.7295   16.9496  -32.6581 H   0  0  0  0  0  0  0  0  0  0  0  0
   -5.4752   19.0033  -33.2880 H   0  0  0  0  0  0  0  0  0  0  0  0
   -6.7680   22.2710  -33.6850 H   0  0  0  0  0  0  0  0  0  0  0  0
   -7.2494   23.5178  -31.6711 H   0  0  0  0  0  0  0  0  0  0  0  0
   -5.1581   26.1276  -29.0322 H   0  0  0  0  0  0  0  0  0  0  0  0
   -1.9376   19.3545  -26.1339 H   0  0  0  0  0  0  0  0  0  0  0  0
   -2.8474   19.2770  -27.6808 H   0  0  0  0  0  0  0  0  0  0  0  0
   -1.0595   19.1038  -27.6808 H   0  0  0  0  0  0  0  0  0  0  0  0
   -1.3874   24.0803  -24.9597 H   0  0  0  0  0  0  0  0  0  0  0  0
   -0.3828   24.8278  -26.2476 H   0  0  0  0  0  0  0  0  0  0  0  0
   -2.1636   25.0628  -26.2476 H   0  0  0  0  0  0  0  0  0  0  0  0
   -3.0247   22.9034  -30.9598 H   0  0  0  0  0  0  0  0  0  0  0  0
  1  2  1  0
  2  3  2  0
  3  4  1  0
  4  5  2  0
  5  6  1  0
  6  7  2  0
  7  8  1  0
  8  9  1  0
  9 10  2  0
  9 11  1  0
 11 12  2  0
 12 13  1  0
 13 14  2  0
 14 15  1  0
 15 16  1  0
 16 17  1  0
 17 18  2  0
 17 19  1  0
 19 20  2  0
 20 21  1  0
 20 22  1  0
 22 23  1  0
 22 24  2  0
 24 25  1  0
 25 26  1  0
 15 27  2  0
  7  2  1  0
 27 11  1  0
 25 19  1  0
  1 28  1  0
  1 29  1  0
  1 30  1  0
  3 31  1  0
  4 32  1  0
  5 33  1  0
  6 34  1  0
  8 35  1  0
 12 36  1  0
 14 37  1  0
 23 38  1  0
 23 39  1  0
 23 40  1  0
 26 41  1  0
 26 42  1  0
 26 43  1  0
 27 44  1  0
M  CHG  1  16  -1
M  END
>  <UniqueID>  (14) 
14

>  <SMILES>  (14) 
Cc1ccccc1NC(=O)c1cncc([N-]C(=O)c2c(Cl)c(C)nn2C)c1

>  <Energy>  (14) 
87.68265196735379

>  <Genealogy>  (14) 
Cc1ccccc1NC(=O)c1cncc([N-]C(=O)c2c(Cl)c(C)nn2C)c1 (protonated)
Cc1ccccc1NC(=O)c1cncc([N-]C(=O)c2c(Cl)c(C)nn2C)c1 (3D coordinates assigned)
Cc1ccccc1NC(=O)c1cncc([N-]C(=O)c2c(Cl)c(C)nn2C)c1 (optimized conformer: 87.68265196735379 kcal/mol)

>  <smiles>  (14) 
Cc1ccccc1NC(=O)c1cncc(NC(=O)c2c(Cl)c(C)nn2C)c1

>  <score_type>  (14) 
oracle

>  <origin>  (14) 
adg

>  <m_score__min__energy>  (14) 
-10.619999999999999

>  <m_primary>  (14) 
energy

$$$$
14:0
     RDKit          3D

 34 36  0  0  0  0  0  0  0  0999 V2000
   -5.7560   25.4440  -29.9790 C   0  0  0  0  0  0  0  0  0  0  0  0
   -5.2390   24.9730  -31.2180 O   0  0  0  0  0  0  0  0  0  0  0  0
   -5.1290   23.6120  -31.5210 C   0  0  0  0  0  0  0  0  0  0  0  0
   -3.9890   23.0740  -31.6040 O   0  0  0  0  0  0  0  0  0  0  0  0
   -6.3490   22.8020  -31.7440 C   0  0  0  0  0  0  0  0  0  0  0  0
   -7.6100   23.3010  -31.3800 C   0  0  0  0  0  0  0  0  0  0  0  0
   -8.7570   22.5410  -31.5990 C   0  0  0  0  0  0  0  0  0  0  0  0
   -8.6630   21.2760  -32.1760 C   0  0  0  0  0  0  0  0  0  0  0  0
   -7.4140   20.7310  -32.5350 C   0  0  0  0  0  0  0  0  0  0  0  0
   -7.3830   19.4210  -33.1800 N   0  0  2  0  0  0  0  0  0  0  0  0
   -7.9030   18.2790  -32.3920 C   0  0  0  0  0  0  0  0  0  0  0  0
   -6.7580   17.2470  -32.4630 C   0  0  2  0  0  0  0  0  0  0  0  0
   -5.5610   18.1470  -32.3440 C   0  0  0  0  0  0  0  0  0  0  0  0
   -6.0040   18.9880  -33.5180 C   0  0  1  0  0  0  0  0  0  0  0  0
   -6.1020   17.8770  -34.5800 C   0  0  0  0  0  0  0  0  0  0  0  0
   -6.6520   16.7290  -33.8400 N   0  0  0  0  0  0  0  0  0  0  0  0
   -6.2580   21.5240  -32.3250 C   0  0  0  0  0  0  0  0  0  0  0  0
   -5.2216   24.9572  -29.1499 H   0  0  0  0  0  0  0  0  0  0  0  0
   -5.6182   26.5334  -29.9146 H   0  0  0  0  0  0  0  0  0  0  0  0
   -6.8279   25.2056  -29.9146 H   0  0  0  0  0  0  0  0  0  0  0  0
   -7.6927   24.2967  -30.9198 H   0  0  0  0  0  0  0  0  0  0  0  0
   -9.7414   22.9414  -31.3151 H   0  0  0  0  0  0  0  0  0  0  0  0
   -9.5788   20.6933  -32.3542 H   0  0  0  0  0  0  0  0  0  0  0  0
   -7.9570   19.4840  -34.0560 H   0  0  0  0  0  0  0  0  0  0  0  0
   -8.1015   18.5761  -31.3517 H   0  0  0  0  0  0  0  0  0  0  0  0
   -8.8572   17.8899  -32.7768 H   0  0  0  0  0  0  0  0  0  0  0  0
   -6.8713   16.4263  -31.7394 H   0  0  0  0  0  0  0  0  0  0  0  0
   -5.5200   18.7021  -31.3952 H   0  0  0  0  0  0  0  0  0  0  0  0
   -4.5538   17.7047  -32.3499 H   0  0  0  0  0  0  0  0  0  0  0  0
   -5.3884   19.8563  -33.7956 H   0  0  0  0  0  0  0  0  0  0  0  0
   -6.7752   18.1749  -35.3974 H   0  0  0  0  0  0  0  0  0  0  0  0
   -5.1337   17.6538  -35.0517 H   0  0  0  0  0  0  0  0  0  0  0  0
   -7.6010   16.4850  -34.2120 H   0  0  0  0  0  0  0  0  0  0  0  0
   -5.2732   21.1335  -32.6213 H   0  0  0  0  0  0  0  0  0  0  0  0
  1  2  1  0
  2  3  1  0
  3  4  2  0
  3  5  1  0
  5  6  2  0
  6  7  1  0
  7  8  2  0
  8  9  1  0
  9 10  1  0
 10 11  1  0
 11 12  1  0
 12 13  1  0
 13 14  1  0
 14 15  1  0
 15 16  1  0
  9 17  2  0
 17  5  1  0
 14 10  1  0
 16 12  1  0
  1 18  1  0
  1 19  1  0
  1 20  1  0
  6 21  1  0
  7 22  1  0
  8 23  1  0
 10 24  1  6
 11 25  1  0
 11 26  1  0
 12 27  1  1
 13 28  1  0
 13 29  1  0
 14 30  1  6
 15 31  1  0
 15 32  1  0
 16 33  1  0
 17 34  1  0
M  CHG  1  10   1
M  END
>  <UniqueID>  (15) 
15

>  <SMILES>  (15) 
COC(=O)c1cccc([N@@H+]2C[C@@H]3CC2CN3)c1

>  <Energy>  (15) 
71.83960169116023

>  <Genealogy>  (15) 
COC(=O)c1cccc([NH+]2CC3CC2CN3)c1 (protonated)
COC(=O)c1cccc([N@@H+]2C[C@@H]3CC2CN3)c1 (chirality)
COC(=O)c1cccc([N@@H+]2C[C@@H]3CC2CN3)c1 (3D coordinates assigned)
COC(=O)c1cccc([N@@H+]2C[C@@H]3CC2CN3)c1 (nonaromatic ring conformer: 71.83960169116023 kcal/mol)

>  <smiles>  (15) 
COC(=O)c1cccc(N2CC3CC2CN3)c1

>  <score_type>  (15) 
oracle

>  <origin>  (15) 
adg

>  <m_score__min__energy>  (15) 
-7.0099999999999998

>  <m_primary>  (15) 
energy

$$$$
15:0
     RDKit          3D

 45 48  0  0  0  0  0  0  0  0999 V2000
   -5.7439   24.2117  -33.1412 H   0  0  0  0  0  0  0  0  0  0  0  0
   -6.2140   23.7890  -32.2410 C   0  0  0  0  0  0  0  0  0  0  0  0
   -7.4450   23.1350  -32.3400 C   0  0  0  0  0  0  0  0  0  0  0  0
   -7.9515   23.0696  -33.3143 H   0  0  0  0  0  0  0  0  0  0  0  0
   -8.0390   22.5620  -31.2080 C   0  0  0  0  0  0  0  0  0  0  0  0
   -9.2810   21.9280  -31.3550 O   0  0  0  0  0  0  0  0  0  0  0  0
   -9.4840   20.7180  -32.0770 C   0  0  0  0  0  0  0  0  0  0  0  0
   -9.6233   19.8876  -31.3691 H   0  0  0  0  0  0  0  0  0  0  0  0
  -10.3785   20.8143  -32.7099 H   0  0  0  0  0  0  0  0  0  0  0  0
   -8.6070   20.5171  -32.7099 H   0  0  0  0  0  0  0  0  0  0  0  0
   -7.3710   22.6370  -29.9700 C   0  0  0  0  0  0  0  0  0  0  0  0
   -7.8202   22.1804  -29.0757 H   0  0  0  0  0  0  0  0  0  0  0  0
   -6.1390   23.2900  -29.8750 C   0  0  0  0  0  0  0  0  0  0  0  0
   -5.6078   23.3190  -28.9122 H   0  0  0  0  0  0  0  0  0  0  0  0
   -5.5770   23.9080  -31.0000 C   0  0  0  0  0  0  0  0  0  0  0  0
   -4.2960   24.5460  -30.9250 N   0  0  0  0  0  0  0  0  0  0  0  0
   -3.2290   24.1810  -30.2650 C   0  0  0  0  0  0  0  0  0  0  0  0
   -2.7530   25.0480  -29.3290 N   0  0  0  0  0  0  0  0  0  0  0  0
   -1.6090   24.8150  -28.6400 C   0  0  0  0  0  0  0  0  0  0  0  0
   -1.1400   25.7400  -27.7000 C   0  0  0  0  0  0  0  0  0  0  0  0
   -1.7062   26.6622  -27.5029 H   0  0  0  0  0  0  0  0  0  0  0  0
    0.0520   25.4870  -27.0120 C   0  0  0  0  0  0  0  0  0  0  0  0
    0.4228   26.2120  -26.2725 H   0  0  0  0  0  0  0  0  0  0  0  0
    0.7740   24.3140  -27.2620 C   0  0  0  0  0  0  0  0  0  0  0  0
    1.7116   24.1205  -26.7203 H   0  0  0  0  0  0  0  0  0  0  0  0
    0.3050   23.3870  -28.2000 C   0  0  0  0  0  0  0  0  0  0  0  0
    0.8710   22.4640  -28.3941 H   0  0  0  0  0  0  0  0  0  0  0  0
   -0.8860   23.6380  -28.8900 C   0  0  0  0  0  0  0  0  0  0  0  0
   -1.3730   22.7390  -29.7800 N   0  0  0  0  0  0  0  0  0  0  0  0
   -2.5280   22.9540  -30.4700 C   0  0  0  0  0  0  0  0  0  0  0  0
   -3.0640   21.8590  -31.2340 N   0  0  0  0  0  0  0  0  0  0  0  0
   -2.8180   20.4780  -30.8000 C   0  0  0  0  0  0  0  0  0  0  0  0
   -2.3046   20.4906  -29.8272 H   0  0  0  0  0  0  0  0  0  0  0  0
   -3.7823   19.9557  -30.7140 H   0  0  0  0  0  0  0  0  0  0  0  0
   -1.9400   19.7360  -31.8270 C   0  0  0  0  0  0  0  0  0  0  0  0
   -0.8850   19.9397  -31.5916 H   0  0  0  0  0  0  0  0  0  0  0  0
   -2.1923   18.6682  -31.7494 H   0  0  0  0  0  0  0  0  0  0  0  0
   -2.1890   20.1340  -33.2290 N   0  0  0  0  0  0  0  0  0  0  0  0
   -2.1710   19.2760  -33.8290 H   0  0  0  0  0  0  0  0  0  0  0  0
   -3.4820   20.8010  -33.4260 C   0  0  0  0  0  0  0  0  0  0  0  0
   -3.6167   21.0326  -34.4929 H   0  0  0  0  0  0  0  0  0  0  0  0
   -4.2926   20.1374  -33.0905 H   0  0  0  0  0  0  0  0  0  0  0  0
   -3.5140   22.0980  -32.6140 C   0  0  0  0  0  0  0  0  0  0  0  0
   -2.8505   22.8367  -33.0873 H   0  0  0  0  0  0  0  0  0  0  0  0
   -4.5475   22.4739  -32.5888 H   0  0  0  0  0  0  0  0  0  0  0  0
  1  2  1  0
  2  3  2  0
  3  4  1  0
  3  5  1  0
  5  6  1  0
  6  7  1  0
  7  8  1  0
  7  9  1  0
  7 10  1  0
  5 11  2  0
 11 12  1  0
 11 13  1  0
 13 14  1  0
 13 15  2  0
 15 16  1  0
 16 17  2  0
 17 18  1  0
 18 19  1  0
 19 20  2  0
 20 21  1  0
 20 22  1  0
 22 23  1  0
 22 24  2  0
 24 25  1  0
 24 26  1  0
 26 27  1  0
 26 28  2  0
 28 29  1  0
 29 30  2  0
 30 31  1  0
 31 32  1  0
 32 33  1  0
 32 34  1  0
 32 35  1  0
 35 36  1  0
 35 37  1  0
 35 38  1  0
 38 39  1  0
 38 40  1  0
 40 41  1  0
 40 42  1  0
 40 43  1  0
 43 44  1  0
 43 45  1  0
 15  2  1  0
 30 17  1  0
 43 31  1  0
 28 19  1  0
M  CHG  1  18  -1
M  END
>  <UniqueID>  (16) 
16

>  <SMILES>  (16) 
COc1ccc(/N=c2/[n-]c3ccccc3nc2N2CCNCC2)cc1

>  <Energy>  (16) 
73.8614567020132

>  <Genealogy>  (16) 
COc1ccc(N=c2[n-]c3ccccc3nc2N2CCNCC2)cc1 (protonated)
COc1ccc(/N=c2/[n-]c3ccccc3nc2N2CCNCC2)cc1 (cis-trans isomerization)
COc1ccc(/N=c2/[n-]c3ccccc3nc2N2CCNCC2)cc1 (3D coordinates assigned)
COc1ccc(/N=c2/[n-]c3ccccc3nc2N2CCNCC2)cc1 (nonaromatic ring conformer: 73.8614567020132 kcal/mol)

>  <smiles>  (16) 
COc1ccc(N=c2[nH]c3ccccc3nc2N2CCNCC2)cc1

>  <score_type>  (16) 
oracle

>  <origin>  (16) 
adg

>  <m_score__min__energy>  (16) 
-8.7100000000000009

>  <m_primary>  (16) 
energy

$$$$
16:0
     RDKit          3D

 35 36  0  0  0  0  0  0  0  0999 V2000
   -4.9830   22.7770  -32.0070 C   0  0  0  0  0  0  0  0  0  0  0  0
   -6.4370   22.4130  -31.9710 C   0  0  0  0  0  0  0  0  0  0  0  0
   -7.4160   23.4160  -31.9480 C   0  0  0  0  0  0  0  0  0  0  0  0
   -8.7680   23.0740  -31.9350 C   0  0  0  0  0  0  0  0  0  0  0  0
   -9.1580   21.7330  -31.9680 C   0  0  0  0  0  0  0  0  0  0  0  0
   -8.1910   20.7080  -32.0390 C   0  0  0  0  0  0  0  0  0  0  0  0
   -8.5690   19.2290  -32.0810 C   0  0  1  0  0  0  0  0  0  0  0  0
   -9.5580   18.9320  -33.0370 O   0  0  0  0  0  0  0  0  0  0  0  0
   -7.3470   18.2580  -32.1720 C   0  0  0  0  0  0  0  0  0  0  0  0
   -7.0410   17.7300  -33.5280 N   0  0  0  0  0  0  0  0  0  0  0  0
   -6.5020   16.3610  -33.4390 C   0  0  0  0  0  0  0  0  0  0  0  0
   -4.9850   16.4650  -33.3500 C   0  0  0  0  0  0  0  0  0  0  0  0
   -4.6490   17.8610  -33.8430 C   0  0  0  0  0  0  0  0  0  0  0  0
   -5.9840   18.4860  -34.2210 C   0  0  0  0  0  0  0  0  0  0  0  0
   -6.8290   21.0660  -32.0210 C   0  0  0  0  0  0  0  0  0  0  0  0
   -4.6033   22.8721  -30.9790 H   0  0  0  0  0  0  0  0  0  0  0  0
   -4.4214   21.9917  -32.5342 H   0  0  0  0  0  0  0  0  0  0  0  0
   -4.8576   23.7343  -32.5342 H   0  0  0  0  0  0  0  0  0  0  0  0
   -7.1174   24.4747  -31.9402 H   0  0  0  0  0  0  0  0  0  0  0  0
   -9.5317   23.8648  -31.8985 H   0  0  0  0  0  0  0  0  0  0  0  0
  -10.2267   21.4743  -31.9384 H   0  0  0  0  0  0  0  0  0  0  0  0
   -9.0215   19.0399  -31.0964 H   0  0  0  0  0  0  0  0  0  0  0  0
   -9.3780   19.4740  -33.8480 H   0  0  0  0  0  0  0  0  0  0  0  0
   -6.4590   18.7980  -31.8115 H   0  0  0  0  0  0  0  0  0  0  0  0
   -7.6149   17.3819  -31.5631 H   0  0  0  0  0  0  0  0  0  0  0  0
   -7.9120   17.6970  -34.1080 H   0  0  0  0  0  0  0  0  0  0  0  0
   -6.8964   15.8607  -32.5422 H   0  0  0  0  0  0  0  0  0  0  0  0
   -6.7966   15.7731  -34.3208 H   0  0  0  0  0  0  0  0  0  0  0  0
   -4.6501   16.3326  -32.3106 H   0  0  0  0  0  0  0  0  0  0  0  0
   -4.4852   15.6881  -33.9471 H   0  0  0  0  0  0  0  0  0  0  0  0
   -4.1624   18.4439  -33.0471 H   0  0  0  0  0  0  0  0  0  0  0  0
   -3.9515   17.8386  -34.6933 H   0  0  0  0  0  0  0  0  0  0  0  0
   -6.0078   19.5395  -33.9055 H   0  0  0  0  0  0  0  0  0  0  0  0
   -6.1334   18.4495  -35.3102 H   0  0  0  0  0  0  0  0  0  0  0  0
   -6.0612   20.2787  -32.0465 H   0  0  0  0  0  0  0  0  0  0  0  0
  1  2  1  0
  2  3  2  0
  3  4  1  0
  4  5  2  0
  5  6  1  0
  6  7  1  0
  7  8  1  0
  7  9  1  0
  9 10  1  0
 10 11  1  0
 11 12  1  0
 12 13  1  0
 13 14  1  0
  6 15  2  0
 15  2  1  0
 14 10  1  0
  1 16  1  0
  1 17  1  0
  1 18  1  0
  3 19  1  0
  4 20  1  0
  5 21  1  0
  7 22  1  1
  8 23  1  0
  9 24  1  0
  9 25  1  0
 10 26  1  0
 11 27  1  0
 11 28  1  0
 12 29  1  0
 12 30  1  0
 13 31  1  0
 13 32  1  0
 14 33  1  0
 14 34  1  0
 15 35  1  0
M  CHG  1  10   1
M  END
>  <UniqueID>  (17) 
17

>  <SMILES>  (17) 
Cc1cccc([C@@H](O)C[NH+]2CCCC2)c1

>  <Energy>  (17) 
44.83364870944497

>  <Genealogy>  (17) 
Cc1cccc(C(O)C[NH+]2CCCC2)c1 (protonated)
Cc1cccc([C@@H](O)C[NH+]2CCCC2)c1 (chirality)
Cc1cccc([C@@H](O)C[NH+]2CCCC2)c1 (3D coordinates assigned)
Cc1cccc([C@@H](O)C[NH+]2CCCC2)c1 (nonaromatic ring conformer: 44.83364870944497 kcal/mol)

>  <smiles>  (17) 
Cc1cccc(C(O)CN2CCCC2)c1

>  <score_type>  (17) 
oracle

>  <origin>  (17) 
adg

>  <m_score__min__energy>  (17) 
-5.5899999999999999

>  <m_primary>  (17) 
energy

$$$$
17:0
     RDKit          3D

 39 41  0  0  0  0  0  0  0  0999 V2000
   -3.8120   21.8850  -33.1180 C   0  0  0  0  0  0  0  0  0  0  0  0
   -4.0370   22.3330  -31.6800 C   0  0  0  0  0  0  0  0  0  0  0  0
   -5.4450   22.6940  -31.4710 N   0  0  0  0  0  0  0  0  0  0  0  0
   -5.9490   23.8940  -31.0690 C   0  0  0  0  0  0  0  0  0  0  0  0
   -5.1260   25.1460  -30.8310 C   0  0  0  0  0  0  0  0  0  0  0  0
   -3.7280   24.8530  -30.4750 N   0  0  0  0  0  0  0  0  0  0  0  0
   -3.5610   24.5050  -29.0560 C   0  0  0  0  0  0  0  0  0  0  0  0
   -2.1110   24.2350  -28.7740 C   0  0  0  0  0  0  0  0  0  0  0  0
   -1.5900   22.9400  -28.9160 C   0  0  0  0  0  0  0  0  0  0  0  0
   -0.2500   22.6900  -28.6180 C   0  0  0  0  0  0  0  0  0  0  0  0
    0.5590   23.7370  -28.1690 C   0  0  0  0  0  0  0  0  0  0  0  0
    0.0370   24.9840  -28.0220 N   0  0  0  0  0  0  0  0  0  0  0  0
   -1.2650   25.2520  -28.3060 C   0  0  0  0  0  0  0  0  0  0  0  0
   -7.3430   23.8370  -31.0050 C   0  0  0  0  0  0  0  0  0  0  0  0
   -7.6720   22.5420  -31.3340 C   0  0  0  0  0  0  0  0  0  0  0  0
   -8.9190   21.9250  -31.4100 C   0  0  0  0  0  0  0  0  0  0  0  0
   -8.9580   20.5670  -31.7700 C   0  0  0  0  0  0  0  0  0  0  0  0
   -7.7640   19.8670  -32.0440 C   0  0  0  0  0  0  0  0  0  0  0  0
   -6.5190   20.5180  -31.9630 C   0  0  0  0  0  0  0  0  0  0  0  0
   -6.5080   21.8720  -31.6050 C   0  0  0  0  0  0  0  0  0  0  0  0
   -3.3183   20.9020  -33.1228 H   0  0  0  0  0  0  0  0  0  0  0  0
   -4.7802   21.8116  -33.6349 H   0  0  0  0  0  0  0  0  0  0  0  0
   -3.1750   22.6178  -33.6349 H   0  0  0  0  0  0  0  0  0  0  0  0
   -3.7681   21.5126  -30.9984 H   0  0  0  0  0  0  0  0  0  0  0  0
   -3.4090   23.2132  -31.4779 H   0  0  0  0  0  0  0  0  0  0  0  0
   -5.1349   25.7518  -31.7491 H   0  0  0  0  0  0  0  0  0  0  0  0
   -5.5774   25.6817  -29.9830 H   0  0  0  0  0  0  0  0  0  0  0  0
   -3.1100   25.6580  -30.7250 H   0  0  0  0  0  0  0  0  0  0  0  0
   -3.9067   25.3411  -28.4303 H   0  0  0  0  0  0  0  0  0  0  0  0
   -4.1526   23.6064  -28.8268 H   0  0  0  0  0  0  0  0  0  0  0  0
   -2.2382   22.1215  -29.2624 H   0  0  0  0  0  0  0  0  0  0  0  0
    0.1655   21.6783  -28.7354 H   0  0  0  0  0  0  0  0  0  0  0  0
    1.6178   23.5526  -27.9345 H   0  0  0  0  0  0  0  0  0  0  0  0
   -1.6571   26.2705  -28.1684 H   0  0  0  0  0  0  0  0  0  0  0  0
   -8.0321   24.6544  -30.7463 H   0  0  0  0  0  0  0  0  0  0  0  0
   -9.8426   22.4825  -31.1953 H   0  0  0  0  0  0  0  0  0  0  0  0
   -9.9249   20.0469  -31.8385 H   0  0  0  0  0  0  0  0  0  0  0  0
   -7.8066   18.8039  -32.3232 H   0  0  0  0  0  0  0  0  0  0  0  0
   -5.5832   19.9799  -32.1744 H   0  0  0  0  0  0  0  0  0  0  0  0
  1  2  1  0
  2  3  1  0
  3  4  1  0
  4  5  1  0
  5  6  1  0
  6  7  1  0
  7  8  1  0
  8  9  2  0
  9 10  1  0
 10 11  2  0
 11 12  1  0
 12 13  2  0
  4 14  2  0
 14 15  1  0
 15 16  2  0
 16 17  1  0
 17 18  2  0
 18 19  1  0
 19 20  2  0
 20  3  1  0
 13  8  1  0
 20 15  1  0
  1 21  1  0
  1 22  1  0
  1 23  1  0
  2 24  1  0
  2 25  1  0
  5 26  1  0
  5 27  1  0
  6 28  1  0
  7 29  1  0
  7 30  1  0
  9 31  1  0
 10 32  1  0
 11 33  1  0
 13 34  1  0
 14 35  1  0
 16 36  1  0
 17 37  1  0
 18 38  1  0
 19 39  1  0
M  END
>  <UniqueID>  (18) 
18

>  <SMILES>  (18) 
CCn1c(CNCc2cccnc2)cc2ccccc21

>  <Energy>  (18) 
73.86166711009122

>  <Genealogy>  (18) 
CCn1c(CNCc2cccnc2)cc2ccccc21 (3D coordinates assigned)
CCn1c(CNCc2cccnc2)cc2ccccc21 (optimized conformer: 73.86166711009122 kcal/mol)

>  <smiles>  (18) 
CCn1c(CNCc2cccnc2)cc2ccccc21

>  <score_type>  (18) 
oracle

>  <origin>  (18) 
adg

>  <m_score__min__energy>  (18) 
-7.9400000000000004

>  <m_primary>  (18) 
energy

$$$$
18:0
     RDKit          3D

 44 47  0  0  0  0  0  0  0  0999 V2000
    1.4190   27.9120  -23.2130 C   0  0  0  0  0  0  0  0  0  0  0  0
    1.4320   27.2800  -24.4880 O   0  0  0  0  0  0  0  0  0  0  0  0
    0.3090   26.7020  -25.0980 C   0  0  0  0  0  0  0  0  0  0  0  0
   -0.9350   26.5990  -24.4450 C   0  0  0  0  0  0  0  0  0  0  0  0
   -2.0280   26.0140  -25.0910 C   0  0  0  0  0  0  0  0  0  0  0  0
   -1.8950   25.5230  -26.4020 C   0  0  0  0  0  0  0  0  0  0  0  0
   -2.9650   24.9240  -27.0900 C   0  0  0  0  0  0  0  0  0  0  0  0
   -4.0870   24.7880  -26.5270 O   0  0  0  0  0  0  0  0  0  0  0  0
   -2.7680   24.4570  -28.4040 C   0  0  0  0  0  0  0  0  0  0  0  0
   -3.8610   23.8280  -29.1860 C   0  0  0  0  0  0  0  0  0  0  0  0
   -3.6760   22.5650  -29.7730 C   0  0  0  0  0  0  0  0  0  0  0  0
   -4.7000   21.9710  -30.5170 C   0  0  0  0  0  0  0  0  0  0  0  0
   -5.9250   22.6350  -30.6960 C   0  0  0  0  0  0  0  0  0  0  0  0
   -6.9860   22.0240  -31.4530 N   0  0  0  0  0  0  0  0  0  0  0  0
   -8.2820   22.7020  -31.5950 C   0  0  0  0  0  0  0  0  0  0  0  0
   -9.4500   21.6870  -31.6310 C   0  0  0  0  0  0  0  0  0  0  0  0
   -9.0290   20.3350  -31.6900 O   0  0  0  0  0  0  0  0  0  0  0  0
   -8.0450   20.1760  -32.6890 C   0  0  0  0  0  0  0  0  0  0  0  0
   -6.7300   20.7890  -32.2060 C   0  0  0  0  0  0  0  0  0  0  0  0
   -6.1100   23.8970  -30.1110 C   0  0  0  0  0  0  0  0  0  0  0  0
   -5.0870   24.4900  -29.3650 C   0  0  0  0  0  0  0  0  0  0  0  0
   -1.4910   24.5960  -28.9720 C   0  0  0  0  0  0  0  0  0  0  0  0
   -0.4990   25.1620  -28.2920 O   0  0  0  0  0  0  0  0  0  0  0  0
   -0.6470   25.6230  -27.0560 C   0  0  0  0  0  0  0  0  0  0  0  0
    0.4400   26.2100  -26.4020 C   0  0  0  0  0  0  0  0  0  0  0  0
    1.4348   27.1459  -22.4238 H   0  0  0  0  0  0  0  0  0  0  0  0
    2.3041   28.5578  -23.1148 H   0  0  0  0  0  0  0  0  0  0  0  0
    0.5081   28.5209  -23.1148 H   0  0  0  0  0  0  0  0  0  0  0  0
   -1.0471   26.9815  -23.4198 H   0  0  0  0  0  0  0  0  0  0  0  0
   -2.9950   25.9375  -24.5723 H   0  0  0  0  0  0  0  0  0  0  0  0
   -2.7181   22.0394  -29.6463 H   0  0  0  0  0  0  0  0  0  0  0  0
   -4.5456   20.9782  -30.9647 H   0  0  0  0  0  0  0  0  0  0  0  0
   -8.4252   23.3822  -30.7425 H   0  0  0  0  0  0  0  0  0  0  0  0
   -8.2787   23.2595  -32.5433 H   0  0  0  0  0  0  0  0  0  0  0  0
  -10.0559   21.8226  -30.7230 H   0  0  0  0  0  0  0  0  0  0  0  0
  -10.0204   21.8862  -32.5502 H   0  0  0  0  0  0  0  0  0  0  0  0
   -7.8981   19.1051  -32.8928 H   0  0  0  0  0  0  0  0  0  0  0  0
   -8.3705   20.6814  -33.6102 H   0  0  0  0  0  0  0  0  0  0  0  0
   -6.2119   20.0689  -31.5556 H   0  0  0  0  0  0  0  0  0  0  0  0
   -6.1055   21.0271  -33.0797 H   0  0  0  0  0  0  0  0  0  0  0  0
   -7.0670   24.4236  -30.2403 H   0  0  0  0  0  0  0  0  0  0  0  0
   -5.2432   25.4816  -28.9152 H   0  0  0  0  0  0  0  0  0  0  0  0
   -1.3093   24.2314  -29.9938 H   0  0  0  0  0  0  0  0  0  0  0  0
    1.4087   26.2861  -26.9175 H   0  0  0  0  0  0  0  0  0  0  0  0
  1  2  1  0
  2  3  1  0
  3  4  2  0
  4  5  1  0
  5  6  2  0
  6  7  1  0
  7  8  2  0
  7  9  1  0
  9 10  1  0
 10 11  2  0
 11 12  1  0
 12 13  2  0
 13 14  1  0
 14 15  1  0
 15 16  1  0
 16 17  1  0
 17 18  1  0
 18 19  1  0
 13 20  1  0
 20 21  2  0
  9 22  2  0
 22 23  1  0
 23 24  1  0
 24 25  2  0
 25  3  1  0
 24  6  1  0
 21 10  1  0
 19 14  1  0
  1 26  1  0
  1 27  1  0
  1 28  1  0
  4 29  1  0
  5 30  1  0
 11 31  1  0
 12 32  1  0
 15 33  1  0
 15 34  1  0
 16 35  1  0
 16 36  1  0
 18 37  1  0
 18 38  1  0
 19 39  1  0
 19 40  1  0
 20 41  1  0
 21 42  1  0
 22 43  1  0
 25 44  1  0
M  END
>  <UniqueID>  (19) 
19

>  <SMILES>  (19) 
COc1ccc2c(=O)c(-c3ccc(N4CCOCC4)cc3)coc2c1

>  <Energy>  (19) 
69.90239690347485

>  <Genealogy>  (19) 
COc1ccc2c(=O)c(-c3ccc(N4CCOCC4)cc3)coc2c1 (3D coordinates assigned)
COc1ccc2c(=O)c(-c3ccc(N4CCOCC4)cc3)coc2c1 (nonaromatic ring conformer: 69.90239690347485 kcal/mol)

>  <smiles>  (19) 
COc1ccc2c(=O)c(-c3ccc(N4CCOCC4)cc3)coc2c1

>  <score_type>  (19) 
oracle

>  <origin>  (19) 
adg

>  <m_score__min__energy>  (19) 
-7.3499999999999996

>  <m_primary>  (19) 
energy

$$$$
19:0
     RDKit          3D

 50 52  0  0  0  0  0  0  0  0999 V2000
   -3.8630   14.3900  -32.6290 C   0  0  0  0  0  0  0  0  0  0  0  0
   -4.9350   15.0910  -31.7880 C   0  0  0  0  0  0  0  0  0  0  0  0
   -5.3210   16.4230  -32.3270 N   0  0  0  0  0  0  0  0  0  0  0  0
   -6.1030   17.2450  -31.3630 C   0  0  0  0  0  0  0  0  0  0  0  0
   -7.4340   17.7780  -31.9150 C   0  0  0  0  0  0  0  0  0  0  0  0
   -6.0450   16.2850  -33.6210 C   0  0  0  0  0  0  0  0  0  0  0  0
   -5.3310   17.0100  -34.7760 C   0  0  0  0  0  0  0  0  0  0  0  0
   -5.8850   18.3530  -34.9360 N   0  0  0  0  0  0  0  0  0  0  0  0
   -5.4920   19.4360  -34.0790 C   0  0  0  0  0  0  0  0  0  0  0  0
   -4.1380   19.6430  -33.8130 C   0  0  0  0  0  0  0  0  0  0  0  0
   -3.2000   18.8320  -34.3660 F   0  0  0  0  0  0  0  0  0  0  0  0
   -3.7340   20.7140  -33.0240 C   0  0  0  0  0  0  0  0  0  0  0  0
   -4.6790   21.5840  -32.4510 C   0  0  0  0  0  0  0  0  0  0  0  0
   -4.2600   22.6980  -31.7030 C   0  0  0  0  0  0  0  0  0  0  0  0
   -3.0280   22.9100  -31.5260 O   0  0  0  0  0  0  0  0  0  0  0  0
   -5.2110   23.5830  -31.1690 C   0  0  0  0  0  0  0  0  0  0  0  0
   -4.8160   24.8050  -30.4150 C   0  0  0  0  0  0  0  0  0  0  0  0
   -5.6600   25.4210  -29.7120 O   0  0  0  0  0  0  0  0  0  0  0  0
   -3.5160   25.2950  -30.4720 O   0  0  0  0  0  0  0  0  0  0  0  0
   -6.5690   23.2910  -31.3500 C   0  0  0  0  0  0  0  0  0  0  0  0
   -6.9860   22.1620  -32.0020 N   0  0  0  0  0  0  0  0  0  0  0  0
   -8.4390   21.9090  -32.0460 C   0  0  0  0  0  0  0  0  0  0  0  0
   -9.1480   21.9320  -30.6900 C   0  0  0  0  0  0  0  0  0  0  0  0
   -8.8670   20.6090  -31.3690 C   0  0  0  0  0  0  0  0  0  0  0  0
   -6.0690   21.3440  -32.6380 C   0  0  0  0  0  0  0  0  0  0  0  0
   -6.4580   20.2720  -33.4920 C   0  0  0  0  0  0  0  0  0  0  0  0
   -7.7600   20.0270  -33.7790 F   0  0  0  0  0  0  0  0  0  0  0  0
   -3.1301   13.9107  -31.9633 H   0  0  0  0  0  0  0  0  0  0  0  0
   -4.3362   13.6263  -33.2637 H   0  0  0  0  0  0  0  0  0  0  0  0
   -3.3531   15.1297  -33.2637 H   0  0  0  0  0  0  0  0  0  0  0  0
   -5.8301   14.4523  -31.7588 H   0  0  0  0  0  0  0  0  0  0  0  0
   -4.5117   15.2528  -30.7857 H   0  0  0  0  0  0  0  0  0  0  0  0
   -4.4370   16.9580  -32.5070 H   0  0  0  0  0  0  0  0  0  0  0  0
   -6.3203   16.6257  -30.4802 H   0  0  0  0  0  0  0  0  0  0  0  0
   -5.4860   18.1251  -31.1290 H   0  0  0  0  0  0  0  0  0  0  0  0
   -8.0976   18.0437  -31.0789 H   0  0  0  0  0  0  0  0  0  0  0  0
   -7.2448   18.6697  -32.5307 H   0  0  0  0  0  0  0  0  0  0  0  0
   -7.9126   17.0022  -32.5307 H   0  0  0  0  0  0  0  0  0  0  0  0
   -6.1226   15.2163  -33.8696 H   0  0  0  0  0  0  0  0  0  0  0  0
   -7.0368   16.7450  -33.4998 H   0  0  0  0  0  0  0  0  0  0  0  0
   -4.2564   17.0826  -34.5527 H   0  0  0  0  0  0  0  0  0  0  0  0
   -5.4789   16.4431  -35.7070 H   0  0  0  0  0  0  0  0  0  0  0  0
   -6.8120   18.4230  -35.4150 H   0  0  0  0  0  0  0  0  0  0  0  0
   -2.6618   20.8831  -32.8456 H   0  0  0  0  0  0  0  0  0  0  0  0
   -7.3223   23.9894  -30.9567 H   0  0  0  0  0  0  0  0  0  0  0  0
   -8.6121   22.3863  -33.0218 H   0  0  0  0  0  0  0  0  0  0  0  0
   -8.5916   22.2136  -29.7838 H   0  0  0  0  0  0  0  0  0  0  0  0
  -10.0472   22.4251  -30.2921 H   0  0  0  0  0  0  0  0  0  0  0  0
   -8.1072   19.9300  -30.9547 H   0  0  0  0  0  0  0  0  0  0  0  0
   -9.4793   19.7450  -31.6667 H   0  0  0  0  0  0  0  0  0  0  0  0
  1  2  1  0
  2  3  1  0
  3  4  1  0
  4  5  1  0
  3  6  1  0
  6  7  1  0
  7  8  1  0
  8  9  1  0
  9 10  2  0
 10 11  1  0
 10 12  1  0
 12 13  2  0
 13 14  1  0
 14 15  2  0
 14 16  1  0
 16 17  1  0
 17 18  2  0
 17 19  1  0
 16 20  2  0
 20 21  1  0
 21 22  1  0
 22 23  1  0
 23 24  1  0
 21 25  1  0
 25 26  2  0
 26 27  1  0
 26  9  1  0
 25 13  1  0
 24 22  1  0
  1 28  1  0
  1 29  1  0
  1 30  1  0
  2 31  1  0
  2 32  1  0
  3 33  1  0
  4 34  1  0
  4 35  1  0
  5 36  1  0
  5 37  1  0
  5 38  1  0
  6 39  1  0
  6 40  1  0
  7 41  1  0
  7 42  1  0
  8 43  1  0
 12 44  1  0
 20 45  1  0
 22 46  1  0
 23 47  1  0
 23 48  1  0
 24 49  1  0
 24 50  1  0
M  CHG  2   3   1  19  -1
M  END
>  <UniqueID>  (20) 
20

>  <SMILES>  (20) 
CC[NH+](CC)CCNc1c(F)cc2c(=O)c(C(=O)[O-])cn(C3CC3)c2c1F

>  <Energy>  (20) 
336.774567208762

>  <Genealogy>  (20) 
CC[NH+](CC)CCNc1c(F)cc2c(=O)c(C(=O)[O-])cn(C3CC3)c2c1F (protonated)
CC[NH+](CC)CCNc1c(F)cc2c(=O)c(C(=O)[O-])cn(C3CC3)c2c1F (3D coordinates assigned)
CC[NH+](CC)CCNc1c(F)cc2c(=O)c(C(=O)[O-])cn(C3CC3)c2c1F (nonaromatic ring conformer: 336.774567208762 kcal/mol)

>  <smiles>  (20) 
CCN(CC)CCNc1c(F)cc2c(=O)c(C(=O)O)cn(C3CC3)c2c1F

>  <score_type>  (20) 
oracle

>  <origin>  (20) 
adg

>  <m_score__min__energy>  (20) 
-9.1799999999999997

>  <m_primary>  (20) 
energy

$$$$
20:0
     RDKit          3D

 61 64  0  0  0  0  0  0  0  0999 V2000
   -0.1070   27.1080  -22.8500 C   0  0  0  0  0  0  0  0  0  0  0  0
   -1.0020   27.6400  -23.8220 O   0  0  0  0  0  0  0  0  0  0  0  0
   -0.9680   27.3300  -25.1920 C   0  0  0  0  0  0  0  0  0  0  0  0
   -1.4800   26.1160  -25.6940 C   0  0  0  0  0  0  0  0  0  0  0  0
   -1.4370   25.8290  -27.0690 C   0  0  0  0  0  0  0  0  0  0  0  0
   -1.9780   24.5460  -27.5800 C   0  0  0  0  0  0  0  0  0  0  0  0
   -1.8830   23.3100  -26.9530 C   0  0  0  0  0  0  0  0  0  0  0  0
   -2.5110   22.4090  -27.7890 C   0  0  0  0  0  0  0  0  0  0  0  0
   -2.6210   21.0450  -27.5450 O   0  0  0  0  0  0  0  0  0  0  0  0
   -3.0020   23.0230  -28.8830 N   0  0  0  0  0  0  0  0  0  0  0  0
   -3.6790   22.3920  -30.0170 C   0  0  0  0  0  0  0  0  0  0  0  0
   -3.0060   22.7900  -31.3360 C   0  0  0  0  0  0  0  0  0  0  0  0
   -2.5380   21.5910  -32.0680 N   0  0  0  0  0  0  0  0  0  0  0  0
   -3.0540   21.5060  -33.4380 C   0  0  0  0  0  0  0  0  0  0  0  0
   -4.5800   21.4220  -33.4640 C   0  0  0  0  0  0  0  0  0  0  0  0
   -5.1570   20.5170  -32.4450 N   0  0  0  0  0  0  0  0  0  0  0  0
   -6.6150   20.3160  -32.4390 C   0  0  0  0  0  0  0  0  0  0  0  0
   -7.4730   21.3930  -32.0870 C   0  0  0  0  0  0  0  0  0  0  0  0
   -8.8580   21.2460  -32.0500 C   0  0  0  0  0  0  0  0  0  0  0  0
   -9.4410   20.0270  -32.3600 C   0  0  0  0  0  0  0  0  0  0  0  0
   -8.6410   18.9470  -32.7190 C   0  0  0  0  0  0  0  0  0  0  0  0
   -7.2350   19.0670  -32.7730 C   0  0  0  0  0  0  0  0  0  0  0  0
   -6.4610   17.9640  -33.1630 O   0  0  0  0  0  0  0  0  0  0  0  0
   -5.7890   17.8260  -34.4110 C   0  0  0  0  0  0  0  0  0  0  0  0
   -4.3160   19.9280  -31.3750 C   0  0  0  0  0  0  0  0  0  0  0  0
   -2.8240   20.3330  -31.3680 C   0  0  0  0  0  0  0  0  0  0  0  0
   -2.6740   24.3230  -28.7610 C   0  0  0  0  0  0  0  0  0  0  0  0
   -3.0210   25.2940  -29.6940 O   0  0  0  0  0  0  0  0  0  0  0  0
   -0.8600   26.7650  -27.9410 C   0  0  0  0  0  0  0  0  0  0  0  0
   -0.3500   27.9690  -27.4540 C   0  0  0  0  0  0  0  0  0  0  0  0
   -0.4070   28.2640  -26.0840 C   0  0  0  0  0  0  0  0  0  0  0  0
    0.1530   29.5600  -25.5690 C   0  0  0  0  0  0  0  0  0  0  0  0
   -0.4850   27.3327  -21.8417 H   0  0  0  0  0  0  0  0  0  0  0  0
   -0.0313   26.0182  -22.9788 H   0  0  0  0  0  0  0  0  0  0  0  0
    0.8865   27.5623  -22.9788 H   0  0  0  0  0  0  0  0  0  0  0  0
   -1.9189   25.3839  -25.0002 H   0  0  0  0  0  0  0  0  0  0  0  0
   -1.4045   23.0934  -25.9865 H   0  0  0  0  0  0  0  0  0  0  0  0
   -3.6330   21.2989  -29.9030 H   0  0  0  0  0  0  0  0  0  0  0  0
   -4.7261   22.7284  -30.0372 H   0  0  0  0  0  0  0  0  0  0  0  0
   -3.7295   23.3346  -31.9605 H   0  0  0  0  0  0  0  0  0  0  0  0
   -2.1385   23.4281  -31.1117 H   0  0  0  0  0  0  0  0  0  0  0  0
   -2.7368   22.4003  -33.9944 H   0  0  0  0  0  0  0  0  0  0  0  0
   -2.6527   20.5915  -33.8991 H   0  0  0  0  0  0  0  0  0  0  0  0
   -4.9836   22.4315  -33.2965 H   0  0  0  0  0  0  0  0  0  0  0  0
   -4.8563   21.0088  -34.4453 H   0  0  0  0  0  0  0  0  0  0  0  0
   -7.0316   22.3691  -31.8370 H   0  0  0  0  0  0  0  0  0  0  0  0
   -9.4920   22.1013  -31.7735 H   0  0  0  0  0  0  0  0  0  0  0  0
  -10.5345   19.9139  -32.3222 H   0  0  0  0  0  0  0  0  0  0  0  0
   -9.1114   17.9836  -32.9649 H   0  0  0  0  0  0  0  0  0  0  0  0
   -4.7257   17.6076  -34.2327 H   0  0  0  0  0  0  0  0  0  0  0  0
   -6.2418   17.0021  -34.9821 H   0  0  0  0  0  0  0  0  0  0  0  0
   -5.8804   18.7617  -34.9821 H   0  0  0  0  0  0  0  0  0  0  0  0
   -4.7477   20.2265  -30.4083 H   0  0  0  0  0  0  0  0  0  0  0  0
   -4.3223   18.8443  -31.5634 H   0  0  0  0  0  0  0  0  0  0  0  0
   -2.5004   20.4391  -30.3220 H   0  0  0  0  0  0  0  0  0  0  0  0
   -2.2796   19.5421  -31.9048 H   0  0  0  0  0  0  0  0  0  0  0  0
   -0.8093   26.5475  -29.0181 H   0  0  0  0  0  0  0  0  0  0  0  0
    0.1002   28.6923  -28.1498 H   0  0  0  0  0  0  0  0  0  0  0  0
    0.1487   29.5500  -24.4691 H   0  0  0  0  0  0  0  0  0  0  0  0
    1.1846   29.6831  -25.9305 H   0  0  0  0  0  0  0  0  0  0  0  0
   -0.4643   30.3956  -25.9305 H   0  0  0  0  0  0  0  0  0  0  0  0
  1  2  1  0
  2  3  1  0
  3  4  2  0
  4  5  1  0
  5  6  1  0
  6  7  1  0
  7  8  2  0
  8  9  1  0
  8 10  1  0
 10 11  1  0
 11 12  1  0
 12 13  1  0
 13 14  1  0
 14 15  1  0
 15 16  1  0
 16 17  1  0
 17 18  2  0
 18 19  1  0
 19 20  2  0
 20 21  1  0
 21 22  2  0
 22 23  1  0
 23 24  1  0
 16 25  1  0
 25 26  1  0
 10 27  1  0
 27 28  1  0
  5 29  2  0
 29 30  1  0
 30 31  2  0
 31 32  1  0
 31  3  1  0
 27  6  2  0
 26 13  1  0
 22 17  1  0
  1 33  1  0
  1 34  1  0
  1 35  1  0
  4 36  1  0
  7 37  1  0
 11 38  1  0
 11 39  1  0
 12 40  1  0
 12 41  1  0
 14 42  1  0
 14 43  1  0
 15 44  1  0
 15 45  1  0
 18 46  1  0
 19 47  1  0
 20 48  1  0
 21 49  1  0
 24 50  1  0
 24 51  1  0
 24 52  1  0
 25 53  1  0
 25 54  1  0
 26 55  1  0
 26 56  1  0
 29 57  1  0
 30 58  1  0
 32 59  1  0
 32 60  1  0
 32 61  1  0
M  CHG  2   9  -1  28  -1
M  END
>  <UniqueID>  (21) 
21

>  <SMILES>  (21) 
COc1cc(-c2cc([O-])n(CCN3CCN(c4ccccc4OC)CC3)c2[O-])ccc1C

>  <Energy>  (21) 
109.84849703327589

>  <Genealogy>  (21) 
COc1cc(-c2cc([O-])n(CCN3CCN(c4ccccc4OC)CC3)c2[O-])ccc1C (protonated)
COc1cc(-c2cc([O-])n(CCN3CCN(c4ccccc4OC)CC3)c2[O-])ccc1C (3D coordinates assigned)
COc1cc(-c2cc([O-])n(CCN3CCN(c4ccccc4OC)CC3)c2[O-])ccc1C (nonaromatic ring conformer: 109.84849703327589 kcal/mol)

>  <smiles>  (21) 
COc1cc(-c2cc(O)n(CCN3CCN(c4ccccc4OC)CC3)c2O)ccc1C

>  <score_type>  (21) 
oracle

>  <origin>  (21) 
adg

>  <m_score__min__energy>  (21) 
-11.550000000000001

>  <m_primary>  (21) 
energy

$$$$
21:0
     RDKit          3D

 31 33  0  0  1  0  0  0  0  0999 V2000
   -8.6000   20.0140  -32.7350 C   0  0  0  0  0  0  0  0  0  0  0  0
   -9.3010   20.9410  -31.9580 C   0  0  0  0  0  0  0  0  0  0  0  0
   -8.6220   21.9880  -31.3690 C   0  0  0  0  0  0  0  0  0  0  0  0
   -7.2590   22.0950  -31.5630 C   0  0  0  0  0  0  0  0  0  0  0  0
   -6.5270   23.2000  -30.9470 C   0  0  0  0  0  0  0  0  0  0  0  0
   -7.2260   24.2110  -30.3150 C   0  0  0  0  0  0  0  0  0  0  0  0
   -6.5190   25.2640  -29.7290 C   0  0  0  0  0  0  0  0  0  0  0  0
   -5.1770   25.2350  -29.8150 N   0  0  0  0  0  0  0  0  0  0  0  0
   -4.5140   24.2250  -30.4440 C   0  0  0  0  0  0  0  0  0  0  0  0
   -3.2250   24.3230  -30.4520 N   0  0  0  0  0  0  0  0  0  0  0  0
   -2.5120   23.5980  -29.4190 C   0  0  0  0  0  0  0  0  0  0  0  0
   -2.4030   24.4530  -28.1690 C   0  0  0  0  0  0  0  0  0  0  0  0
   -3.2510   24.4530  -27.0660 C   0  0  0  0  0  0  0  0  0  0  0  0
   -2.9600   25.2930  -26.0780 C   0  0  0  0  0  0  0  0  0  0  0  0
   -1.8790   26.1000  -26.1720 C   0  0  0  0  0  0  0  0  0  0  0  0
   -1.1610   25.6620  -27.8210 S   0  0  0  0  0  0  0  0  0  0  0  0
   -5.1750   23.1960  -31.0190 N   0  0  0  0  0  0  0  0  0  0  0  0
   -6.6100   21.1890  -32.3170 N   0  0  0  0  0  0  0  0  0  0  0  0
   -7.2250   20.1520  -32.9100 C   0  0  0  0  0  0  0  0  0  0  0  0
   -9.1338   19.1764  -33.2077 H   0  0  0  0  0  0  0  0  0  0  0  0
  -10.3869   20.8364  -31.8171 H   0  0  0  0  0  0  0  0  0  0  0  0
   -9.1582   22.7260  -30.7544 H   0  0  0  0  0  0  0  0  0  0  0  0
   -8.3250   24.1869  -30.2739 H   0  0  0  0  0  0  0  0  0  0  0  0
   -7.0403   26.0859  -29.2165 H   0  0  0  0  0  0  0  0  0  0  0  0
   -4.6590   26.0240  -29.3750 H   0  0  0  0  0  0  0  0  0  0  0  0
   -3.0563   22.6722  -29.1813 H   0  0  0  0  0  0  0  0  0  0  0  0
   -1.5020   23.3534  -29.7796 H   0  0  0  0  0  0  0  0  0  0  0  0
   -4.1246   23.7866  -27.0139 H   0  0  0  0  0  0  0  0  0  0  0  0
   -3.5988   25.3318  -25.1833 H   0  0  0  0  0  0  0  0  0  0  0  0
   -1.5140   26.8391  -25.4436 H   0  0  0  0  0  0  0  0  0  0  0  0
   -6.6579   19.4313  -33.5174 H   0  0  0  0  0  0  0  0  0  0  0  0
  1  2  2  0
  2  3  1  0
  3  4  2  0
  4  5  1  0
  5  6  1  0
  6  7  2  0
  7  8  1  0
  8  9  1  0
  9 10  2  0
 10 11  1  0
 11 12  1  0
 12 13  2  0
 13 14  1  0
 14 15  2  0
 15 16  1  0
  9 17  1  0
  4 18  1  0
 18 19  2  0
 19  1  1  0
 17  5  2  0
 16 12  1  0
  1 20  1  0
  2 21  1  0
  3 22  1  0
  6 23  1  0
  7 24  1  0
  8 25  1  0
 11 26  1  0
 11 27  1  0
 13 28  1  0
 14 29  1  0
 15 30  1  0
 19 31  1  0
M  END
>  <smiles>  (22) 
c1ccc(-c2cc[nH]c(=NCc3cccs3)n2)nc1

>  <score_type>  (22) 
oracle

>  <origin>  (22) 
adg

>  <m_score__min__energy>  (22) 
-7.4199999999999999

>  <m_primary>  (22) 
energy

$$$$
22:0
     RDKit          3D

 52 55  0  0  0  0  0  0  0  0999 V2000
   -9.1150   18.9890  -32.2610 C   0  0  0  0  0  0  0  0  0  0  0  0
   -8.2980   20.1960  -31.9030 C   0  0  0  0  0  0  0  0  0  0  0  0
   -8.8500   21.2110  -31.1140 C   0  0  0  0  0  0  0  0  0  0  0  0
   -8.1050   22.3500  -30.8110 C   0  0  0  0  0  0  0  0  0  0  0  0
   -6.7990   22.5090  -31.3040 C   0  0  0  0  0  0  0  0  0  0  0  0
   -6.0520   23.7210  -30.9020 C   0  0  0  0  0  0  0  0  0  0  0  0
   -5.0320   24.2660  -31.5920 N   0  0  0  0  0  0  0  0  0  0  0  0
   -4.6100   25.2760  -30.8430 N   0  0  0  0  0  0  0  0  0  0  0  0
   -5.3270   25.3440  -29.7310 N   0  0  0  0  0  0  0  0  0  0  0  0
   -6.2270   24.3770  -29.7430 N   0  0  0  0  0  0  0  0  0  0  0  0
   -6.2510   21.5090  -32.1530 C   0  0  0  0  0  0  0  0  0  0  0  0
   -4.9350   21.6710  -32.8840 C   0  0  0  0  0  0  0  0  0  0  0  0
   -3.9400   20.7100  -32.3860 N   0  0  0  0  0  0  0  0  0  0  0  0
   -3.4130   20.8180  -31.0120 C   0  0  0  0  0  0  0  0  0  0  0  0
   -2.4080   21.9730  -30.8670 C   0  0  0  0  0  0  0  0  0  0  0  0
   -2.6630   22.8160  -29.6430 C   0  0  0  0  0  0  0  0  0  0  0  0
   -3.7260   22.5080  -28.7760 C   0  0  0  0  0  0  0  0  0  0  0  0
   -3.9410   23.2730  -27.6250 C   0  0  0  0  0  0  0  0  0  0  0  0
   -3.1010   24.3530  -27.3340 C   0  0  0  0  0  0  0  0  0  0  0  0
   -2.0460   24.6680  -28.1940 C   0  0  0  0  0  0  0  0  0  0  0  0
   -1.8260   23.9050  -29.3450 C   0  0  0  0  0  0  0  0  0  0  0  0
   -3.4140   19.7200  -33.2900 C   0  0  0  0  0  0  0  0  0  0  0  0
   -2.2960   19.9120  -33.8380 O   0  0  0  0  0  0  0  0  0  0  0  0
   -4.1690   18.4880  -33.6090 C   0  0  0  0  0  0  0  0  0  0  0  0
   -5.3670   18.5450  -34.3360 C   0  0  0  0  0  0  0  0  0  0  0  0
   -6.0500   17.3630  -34.6350 C   0  0  0  0  0  0  0  0  0  0  0  0
   -5.5610   16.1660  -34.2150 N   0  0  0  0  0  0  0  0  0  0  0  0
   -4.4130   16.0810  -33.4930 C   0  0  0  0  0  0  0  0  0  0  0  0
   -3.7010   17.2390  -33.1680 C   0  0  0  0  0  0  0  0  0  0  0  0
   -7.0090   20.3550  -32.4270 C   0  0  0  0  0  0  0  0  0  0  0  0
   -9.4533   18.4893  -31.3413 H   0  0  0  0  0  0  0  0  0  0  0  0
   -9.9890   19.3000  -32.8520 H   0  0  0  0  0  0  0  0  0  0  0  0
   -8.5015   18.2931  -32.8520 H   0  0  0  0  0  0  0  0  0  0  0  0
   -9.8762   21.1100  -30.7310 H   0  0  0  0  0  0  0  0  0  0  0  0
   -8.5455   23.1342  -30.1778 H   0  0  0  0  0  0  0  0  0  0  0  0
   -6.9240   24.1890  -28.9880 H   0  0  0  0  0  0  0  0  0  0  0  0
   -5.0958   21.4995  -33.9586 H   0  0  0  0  0  0  0  0  0  0  0  0
   -4.5586   22.6900  -32.7112 H   0  0  0  0  0  0  0  0  0  0  0  0
   -4.2527   20.9898  -30.3225 H   0  0  0  0  0  0  0  0  0  0  0  0
   -2.8881   19.8806  -30.7759 H   0  0  0  0  0  0  0  0  0  0  0  0
   -1.3944   21.5511  -30.7988 H   0  0  0  0  0  0  0  0  0  0  0  0
   -2.5196   22.6231  -31.7473 H   0  0  0  0  0  0  0  0  0  0  0  0
   -4.3912   21.6621  -29.0037 H   0  0  0  0  0  0  0  0  0  0  0  0
   -4.7716   23.0251  -26.9478 H   0  0  0  0  0  0  0  0  0  0  0  0
   -3.2710   24.9540  -26.4285 H   0  0  0  0  0  0  0  0  0  0  0  0
   -1.3868   25.5183  -27.9651 H   0  0  0  0  0  0  0  0  0  0  0  0
   -0.9948   24.1580  -30.0196 H   0  0  0  0  0  0  0  0  0  0  0  0
   -5.7666   19.5143  -34.6689 H   0  0  0  0  0  0  0  0  0  0  0  0
   -6.9859   17.4012  -35.2118 H   0  0  0  0  0  0  0  0  0  0  0  0
   -4.0432   15.0988  -33.1636 H   0  0  0  0  0  0  0  0  0  0  0  0
   -2.7798   17.1728  -32.5705 H   0  0  0  0  0  0  0  0  0  0  0  0
   -6.5821   19.5654  -33.0629 H   0  0  0  0  0  0  0  0  0  0  0  0
  1  2  1  0
  2  3  2  0
  3  4  1  0
  4  5  2  0
  5  6  1  0
  6  7  2  0
  7  8  1  0
  8  9  1  0
  9 10  2  0
  5 11  1  0
 11 12  1  0
 12 13  1  0
 13 14  1  0
 14 15  1  0
 15 16  1  0
 16 17  2  0
 17 18  1  0
 18 19  2  0
 19 20  1  0
 20 21  2  0
 13 22  1  0
 22 23  2  0
 22 24  1  0
 24 25  2  0
 25 26  1  0
 26 27  2  0
 27 28  1  0
 28 29  2  0
 11 30  2  0
 30  2  1  0
 10  6  1  0
 21 16  1  0
 29 24  1  0
  1 31  1  0
  1 32  1  0
  1 33  1  0
  3 34  1  0
  4 35  1  0
 10 36  1  0
 12 37  1  0
 12 38  1  0
 14 39  1  0
 14 40  1  0
 15 41  1  0
 15 42  1  0
 17 43  1  0
 18 44  1  0
 19 45  1  0
 20 46  1  0
 21 47  1  0
 25 48  1  0
 26 49  1  0
 28 50  1  0
 29 51  1  0
 30 52  1  0
M  CHG  2   8  -1  10   1
M  END
>  <UniqueID>  (23) 
22

>  <SMILES>  (23) 
Cc1ccc(-c2n[n-]n[nH+]2)c(CN(CCc2ccccc2)C(=O)c2ccncc2)c1

>  <Energy>  (23) 
101.55519884593853

>  <Genealogy>  (23) 
Cc1ccc(-c2n[n-]n[nH+]2)c(CN(CCc2ccccc2)C(=O)c2ccncc2)c1 (protonated)
Cc1ccc(-c2n[n-]n[nH+]2)c(CN(CCc2ccccc2)C(=O)c2ccncc2)c1 (3D coordinates assigned)
Cc1ccc(-c2n[n-]n[nH+]2)c(CN(CCc2ccccc2)C(=O)c2ccncc2)c1 (optimized conformer: 101.55519884593853 kcal/mol)

>  <smiles>  (23) 
Cc1ccc(-c2nn[nH]n2)c(CN(CCc2ccccc2)C(=O)c2ccncc2)c1

>  <score_type>  (23) 
oracle

>  <origin>  (23) 
adg

>  <m_score__min__energy>  (23) 
-10.49

>  <m_primary>  (23) 
energy

$$$$
23:0
     RDKit          3D

 41 45  0  0  0  0  0  0  0  0999 V2000
    0.4870   27.5470  -23.4050 C   0  0  0  0  0  0  0  0  0  0  0  0
   -0.0340   28.2630  -24.6480 C   0  0  0  0  0  0  0  0  0  0  0  0
   -0.6490   27.2820  -25.6080 C   0  0  0  0  0  0  0  0  0  0  0  0
   -1.6170   26.3680  -25.1730 C   0  0  0  0  0  0  0  0  0  0  0  0
   -2.1580   25.4410  -26.0670 C   0  0  0  0  0  0  0  0  0  0  0  0
   -1.7210   25.4270  -27.4040 C   0  0  0  0  0  0  0  0  0  0  0  0
   -2.2610   24.4590  -28.3920 C   0  0  0  0  0  0  0  0  0  0  0  0
   -1.4130   23.4540  -28.9250 C   0  0  0  0  0  0  0  0  0  0  0  0
   -1.8910   22.5300  -29.8670 C   0  0  0  0  0  0  0  0  0  0  0  0
   -3.2180   22.6310  -30.2670 C   0  0  0  0  0  0  0  0  0  0  0  0
   -4.0650   23.6110  -29.7690 C   0  0  0  0  0  0  0  0  0  0  0  0
   -3.6040   24.5370  -28.8340 C   0  0  0  0  0  0  0  0  0  0  0  0
   -5.4470   23.5190  -30.3750 C   0  0  0  0  0  0  0  0  0  0  0  0
   -5.2300   22.3450  -31.2700 C   0  0  0  0  0  0  0  0  0  0  0  0
   -6.1480   21.4690  -32.3640 S   0  0  0  0  0  0  0  0  0  0  0  0
   -4.8670   20.4110  -32.7650 C   0  0  0  0  0  0  0  0  0  0  0  0
   -4.9690   19.3100  -33.7360 C   0  0  0  0  0  0  0  0  0  0  0  0
   -6.1100   18.9190  -34.4310 C   0  0  0  0  0  0  0  0  0  0  0  0
   -5.9320   17.8660  -35.2720 N   0  0  0  0  0  0  0  0  0  0  0  0
   -4.6610   17.4090  -35.2610 C   0  0  0  0  0  0  0  0  0  0  0  0
   -3.7070   18.2990  -34.2010 S   0  0  0  0  0  0  0  0  0  0  0  0
   -3.7190   20.7540  -32.0350 C   0  0  0  0  0  0  0  0  0  0  0  0
   -3.9730   21.8450  -31.2090 C   0  0  0  0  0  0  0  0  0  0  0  0
   -0.7610   26.3130  -27.7940 N   0  0  0  0  0  0  0  0  0  0  0  0
   -0.2210   27.2240  -26.9420 C   0  0  0  0  0  0  0  0  0  0  0  0
    0.1152   28.0580  -22.5046 H   0  0  0  0  0  0  0  0  0  0  0  0
    0.1344   26.5050  -23.4072 H   0  0  0  0  0  0  0  0  0  0  0  0
    1.5869   27.5619  -23.4072 H   0  0  0  0  0  0  0  0  0  0  0  0
   -0.7938   28.9998  -24.3484 H   0  0  0  0  0  0  0  0  0  0  0  0
    0.8085   28.7647  -25.1464 H   0  0  0  0  0  0  0  0  0  0  0  0
   -1.9519   26.3802  -24.1253 H   0  0  0  0  0  0  0  0  0  0  0  0
   -2.9216   24.7258  -25.7273 H   0  0  0  0  0  0  0  0  0  0  0  0
   -0.3652   23.3982  -28.5949 H   0  0  0  0  0  0  0  0  0  0  0  0
   -1.2343   21.7485  -30.2768 H   0  0  0  0  0  0  0  0  0  0  0  0
   -4.2745   25.3175  -28.4450 H   0  0  0  0  0  0  0  0  0  0  0  0
   -6.2183   23.3222  -29.6158 H   0  0  0  0  0  0  0  0  0  0  0  0
   -5.8086   24.4320  -30.8706 H   0  0  0  0  0  0  0  0  0  0  0  0
   -7.0802   19.4229  -34.3091 H   0  0  0  0  0  0  0  0  0  0  0  0
   -4.2979   16.5653  -35.8662 H   0  0  0  0  0  0  0  0  0  0  0  0
   -2.7527   20.2332  -32.1057 H   0  0  0  0  0  0  0  0  0  0  0  0
    0.5540   27.9177  -27.3000 H   0  0  0  0  0  0  0  0  0  0  0  0
  1  2  1  0
  2  3  1  0
  3  4  2  0
  4  5  1  0
  5  6  2  0
  6  7  1  0
  7  8  2  0
  8  9  1  0
  9 10  2  0
 10 11  1  0
 11 12  2  0
 11 13  1  0
 13 14  1  0
 14 15  1  0
 15 16  1  0
 16 17  1  0
 17 18  2  0
 18 19  1  0
 19 20  2  0
 20 21  1  0
 16 22  2  0
 22 23  1  0
  6 24  1  0
 24 25  2  0
 25  3  1  0
 12  7  1  0
 23 14  2  0
 23 10  1  0
 21 17  1  0
  1 26  1  0
  1 27  1  0
  1 28  1  0
  2 29  1  0
  2 30  1  0
  4 31  1  0
  5 32  1  0
  8 33  1  0
  9 34  1  0
 12 35  1  0
 13 36  1  0
 13 37  1  0
 18 38  1  0
 20 39  1  0
 22 40  1  0
 25 41  1  0
M  END
>  <UniqueID>  (24) 
23

>  <SMILES>  (24) 
CCc1ccc(-c2ccc3c(c2)Cc2sc(-c4cncs4)cc2-3)nc1

>  <Energy>  (24) 
137.51644277166255

>  <Genealogy>  (24) 
CCc1ccc(-c2ccc3c(c2)Cc2sc(-c4cncs4)cc2-3)nc1 (3D coordinates assigned)
CCc1ccc(-c2ccc3c(c2)Cc2sc(-c4cncs4)cc2-3)nc1 (nonaromatic ring conformer: 137.51644277166255 kcal/mol)

>  <smiles>  (24) 
CCc1ccc(-c2ccc3c(c2)Cc2sc(-c4cncs4)cc2-3)nc1

>  <score_type>  (24) 
oracle

>  <origin>  (24) 
adg

>  <m_score__min__energy>  (24) 
-8.4199999999999999

>  <m_primary>  (24) 
energy

$$$$
24:0
     RDKit          3D

 45 47  0  0  0  0  0  0  0  0999 V2000
   -6.2690   25.1770  -29.9230 O   0  0  0  0  0  0  0  0  0  0  0  0
   -5.6150   24.3870  -30.6600 C   0  0  0  0  0  0  0  0  0  0  0  0
   -4.2410   24.5850  -30.8530 O   0  0  0  0  0  0  0  0  0  0  0  0
   -3.2370   23.8160  -30.1950 C   0  0  0  0  0  0  0  0  0  0  0  0
   -2.7990   24.5000  -28.9330 C   0  0  0  0  0  0  0  0  0  0  0  0
   -3.4950   24.2910  -27.7330 C   0  0  0  0  0  0  0  0  0  0  0  0
   -3.0540   24.9230  -26.5680 C   0  0  0  0  0  0  0  0  0  0  0  0
   -1.9290   25.7490  -26.6090 C   0  0  0  0  0  0  0  0  0  0  0  0
   -1.2590   25.9320  -27.8210 C   0  0  0  0  0  0  0  0  0  0  0  0
   -1.7030   25.3070  -28.9450 N   0  0  0  0  0  0  0  0  0  0  0  0
   -6.2960   23.2530  -31.3220 C   0  0  0  0  0  0  0  0  0  0  0  0
   -7.6990   23.1710  -31.3210 C   0  0  0  0  0  0  0  0  0  0  0  0
   -8.3460   22.1020  -31.9450 C   0  0  0  0  0  0  0  0  0  0  0  0
   -7.6040   21.0870  -32.5730 C   0  0  0  0  0  0  0  0  0  0  0  0
   -8.2730   19.9980  -33.2420 N   0  0  0  0  0  0  0  0  0  0  0  0
   -8.6950   18.9890  -32.2580 C   0  0  0  0  0  0  0  0  0  0  0  0
   -7.4910   18.3020  -31.5960 C   0  0  0  0  0  0  0  0  0  0  0  0
   -6.5550   17.7170  -32.6160 C   0  0  0  0  0  0  0  0  0  0  0  0
   -5.7360   16.6240  -32.2970 C   0  0  0  0  0  0  0  0  0  0  0  0
   -4.8570   16.1220  -33.2610 C   0  0  0  0  0  0  0  0  0  0  0  0
   -4.8000   16.7140  -34.5240 C   0  0  0  0  0  0  0  0  0  0  0  0
   -5.6250   17.8050  -34.8040 C   0  0  0  0  0  0  0  0  0  0  0  0
   -6.4740   18.2800  -33.8540 N   0  0  0  0  0  0  0  0  0  0  0  0
   -6.2020   21.1750  -32.5840 C   0  0  0  0  0  0  0  0  0  0  0  0
   -5.5540   22.2450  -31.9620 C   0  0  0  0  0  0  0  0  0  0  0  0
   -3.6437   22.8243  -29.9476 H   0  0  0  0  0  0  0  0  0  0  0  0
   -2.3704   23.7122  -30.8645 H   0  0  0  0  0  0  0  0  0  0  0  0
   -4.3787   23.6363  -27.7098 H   0  0  0  0  0  0  0  0  0  0  0  0
   -3.5917   24.7703  -25.6206 H   0  0  0  0  0  0  0  0  0  0  0  0
   -1.5740   26.2504  -25.6965 H   0  0  0  0  0  0  0  0  0  0  0  0
   -0.3724   26.5815  -27.8667 H   0  0  0  0  0  0  0  0  0  0  0  0
   -8.2916   23.9541  -30.8254 H   0  0  0  0  0  0  0  0  0  0  0  0
   -9.4450   22.0541  -31.9449 H   0  0  0  0  0  0  0  0  0  0  0  0
   -9.1050   20.3690  -33.7560 H   0  0  0  0  0  0  0  0  0  0  0  0
   -7.6260   19.5640  -33.9410 H   0  0  0  0  0  0  0  0  0  0  0  0
   -9.2973   19.4803  -31.4797 H   0  0  0  0  0  0  0  0  0  0  0  0
   -9.2810   18.2212  -32.7843 H   0  0  0  0  0  0  0  0  0  0  0  0
   -6.9444   19.0428  -30.9940 H   0  0  0  0  0  0  0  0  0  0  0  0
   -7.8673   17.4826  -30.9660 H   0  0  0  0  0  0  0  0  0  0  0  0
   -5.7849   16.1663  -31.2980 H   0  0  0  0  0  0  0  0  0  0  0  0
   -4.2119   15.2628  -33.0251 H   0  0  0  0  0  0  0  0  0  0  0  0
   -4.1128   16.3253  -35.2900 H   0  0  0  0  0  0  0  0  0  0  0  0
   -5.5881   18.2812  -35.7949 H   0  0  0  0  0  0  0  0  0  0  0  0
   -5.6100   20.3956  -33.0861 H   0  0  0  0  0  0  0  0  0  0  0  0
   -4.4554   22.2991  -31.9731 H   0  0  0  0  0  0  0  0  0  0  0  0
  1  2  2  0
  2  3  1  0
  3  4  1  0
  4  5  1  0
  5  6  2  0
  6  7  1  0
  7  8  2  0
  8  9  1  0
  9 10  2  0
  2 11  1  0
 11 12  2  0
 12 13  1  0
 13 14  2  0
 14 15  1  0
 15 16  1  0
 16 17  1  0
 17 18  1  0
 18 19  2  0
 19 20  1  0
 20 21  2  0
 21 22  1  0
 22 23  2  0
 14 24  1  0
 24 25  2  0
 10  5  1  0
 25 11  1  0
 23 18  1  0
  4 26  1  0
  4 27  1  0
  6 28  1  0
  7 29  1  0
  8 30  1  0
  9 31  1  0
 12 32  1  0
 13 33  1  0
 15 34  1  0
 15 35  1  0
 16 36  1  0
 16 37  1  0
 17 38  1  0
 17 39  1  0
 19 40  1  0
 20 41  1  0
 21 42  1  0
 22 43  1  0
 24 44  1  0
 25 45  1  0
M  CHG  1  15   1
M  END
>  <UniqueID>  (25) 
24

>  <SMILES>  (25) 
O=C(OCc1ccccn1)c1ccc([NH2+]CCc2ccccn2)cc1

>  <Energy>  (25) 
45.15762698702678

>  <Genealogy>  (25) 
O=C(OCc1ccccn1)c1ccc([NH2+]CCc2ccccn2)cc1 (protonated)
O=C(OCc1ccccn1)c1ccc([NH2+]CCc2ccccn2)cc1 (3D coordinates assigned)
O=C(OCc1ccccn1)c1ccc([NH2+]CCc2ccccn2)cc1 (optimized conformer: 45.15762698702678 kcal/mol)

>  <smiles>  (25) 
O=C(OCc1ccccn1)c1ccc(NCCc2ccccn2)cc1

>  <score_type>  (25) 
oracle

>  <origin>  (25) 
adg

>  <m_score__min__energy>  (25) 
-8.6600000000000001

>  <m_primary>  (25) 
energy

$$$$
25:0
     RDKit          3D

 16 16  0  0  0  0  0  0  0  0999 V2000
   -4.0600   21.4940  -33.1440 N   0  0  0  0  0  0  0  0  0  0  0  0
   -4.7040   22.1210  -32.4130 C   0  0  0  0  0  0  0  0  0  0  0  0
   -5.5030   22.8990  -31.5050 C   0  0  0  0  0  0  0  0  0  0  0  0
   -5.0120   24.2020  -31.1360 C   0  0  0  0  0  0  0  0  0  0  0  0
   -4.6120   25.2470  -30.8420 N   0  0  0  0  0  0  0  0  0  0  0  0
   -6.6190   22.3600  -30.9840 C   0  0  0  0  0  0  0  0  0  0  0  0
   -7.6110   21.5520  -31.7250 C   0  0  0  0  0  0  0  0  0  0  0  0
   -8.9690   21.5460  -31.4670 C   0  0  0  0  0  0  0  0  0  0  0  0
   -9.5230   20.6110  -32.3180 C   0  0  0  0  0  0  0  0  0  0  0  0
   -8.5620   20.0400  -33.0650 N   0  0  0  0  0  0  0  0  0  0  0  0
   -7.3920   20.5980  -32.7070 C   0  0  0  0  0  0  0  0  0  0  0  0
   -6.8104   22.5351  -29.9150 H   0  0  0  0  0  0  0  0  0  0  0  0
   -9.5024   22.1639  -30.7297 H   0  0  0  0  0  0  0  0  0  0  0  0
  -10.5943   20.3685  -32.3765 H   0  0  0  0  0  0  0  0  0  0  0  0
   -8.6960   19.2850  -33.7740 H   0  0  0  0  0  0  0  0  0  0  0  0
   -6.4103   20.3372  -33.1291 H   0  0  0  0  0  0  0  0  0  0  0  0
  1  2  3  0
  2  3  1  0
  3  4  1  0
  4  5  3  0
  3  6  2  3
  6  7  1  0
  7  8  1  0
  8  9  2  0
  9 10  1  0
 10 11  1  0
 11  7  2  0
  6 12  1  0
  8 13  1  0
  9 14  1  0
 10 15  1  0
 11 16  1  0
M  END
>  <UniqueID>  (26) 
25

>  <SMILES>  (26) 
N#CC(C#N)=Cc1cc[nH]c1

>  <Energy>  (26) 
41.338521497434655

>  <Genealogy>  (26) 
N#CC(C#N)=Cc1cc[nH]c1 (3D coordinates assigned)
N#CC(C#N)=Cc1cc[nH]c1 (optimized conformer: 41.338521497434655 kcal/mol)

>  <smiles>  (26) 
N#CC(C#N)=Cc1cc[nH]c1

>  <score_type>  (26) 
oracle

>  <origin>  (26) 
adg

>  <m_score__min__energy>  (26) 
-4.7699999999999996

>  <m_primary>  (26) 
energy

$$$$
26:0
     RDKit          3D

 52 55  0  0  0  0  0  0  0  0999 V2000
   -1.0810   23.6690  -27.8830 C   0  0  0  0  0  0  0  0  0  0  0  0
   -2.1640   22.8920  -27.4670 C   0  0  0  0  0  0  0  0  0  0  0  0
   -3.4360   23.1340  -27.9890 C   0  0  0  0  0  0  0  0  0  0  0  0
   -3.6110   24.1660  -28.9260 C   0  0  0  0  0  0  0  0  0  0  0  0
   -4.9750   24.4700  -29.4910 C   0  0  0  0  0  0  0  0  0  0  0  0
   -5.0930   24.1470  -30.9280 N   0  0  0  0  0  0  0  0  0  0  0  0
   -4.1990   23.0690  -31.4080 C   0  0  0  0  0  0  0  0  0  0  0  0
   -4.8430   21.6680  -31.3690 C   0  0  0  0  0  0  0  0  0  0  0  0
   -6.3510   21.6600  -31.7370 C   0  0  0  0  0  0  0  0  0  0  0  0
   -6.7960   20.4150  -32.5650 C   0  0  0  0  0  0  0  0  0  0  0  0
   -7.2640   19.2440  -31.6520 C   0  0  0  0  0  0  0  0  0  0  0  0
   -6.3760   17.9990  -31.7580 C   0  0  0  0  0  0  0  0  0  0  0  0
   -6.2510   17.5850  -33.1640 N   0  0  0  0  0  0  0  0  0  0  0  0
   -6.2190   16.1890  -33.5210 C   0  0  0  0  0  0  0  0  0  0  0  0
   -7.2390   15.6400  -34.2390 N   0  0  0  0  0  0  0  0  0  0  0  0
   -7.2280   14.3280  -34.5890 C   0  0  0  0  0  0  0  0  0  0  0  0
   -6.1610   13.5160  -34.2120 C   0  0  0  0  0  0  0  0  0  0  0  0
   -5.1220   14.0870  -33.4790 C   0  0  0  0  0  0  0  0  0  0  0  0
   -5.1690   15.4030  -33.1490 N   0  0  0  0  0  0  0  0  0  0  0  0
   -6.0860   18.6030  -34.2150 C   0  0  0  0  0  0  0  0  0  0  0  0
   -5.7540   19.9770  -33.6250 C   0  0  0  0  0  0  0  0  0  0  0  0
   -6.7720   22.9810  -32.4010 C   0  0  0  0  0  0  0  0  0  0  0  0
   -6.4790   24.1520  -31.4550 C   0  0  0  0  0  0  0  0  0  0  0  0
   -2.5350   24.9020  -29.3200 N   0  0  0  0  0  0  0  0  0  0  0  0
   -1.2890   24.6790  -28.8250 C   0  0  0  0  0  0  0  0  0  0  0  0
   -0.0762   23.4879  -27.4738 H   0  0  0  0  0  0  0  0  0  0  0  0
   -2.0151   22.0901  -26.7288 H   0  0  0  0  0  0  0  0  0  0  0  0
   -4.2929   22.5226  -27.6697 H   0  0  0  0  0  0  0  0  0  0  0  0
   -5.7220   23.8820  -28.9376 H   0  0  0  0  0  0  0  0  0  0  0  0
   -5.1404   25.5522  -29.3837 H   0  0  0  0  0  0  0  0  0  0  0  0
   -3.9131   23.2913  -32.4467 H   0  0  0  0  0  0  0  0  0  0  0  0
   -3.3323   23.0440  -30.7311 H   0  0  0  0  0  0  0  0  0  0  0  0
   -4.3091   21.0212  -32.0807 H   0  0  0  0  0  0  0  0  0  0  0  0
   -4.7648   21.3087  -30.3323 H   0  0  0  0  0  0  0  0  0  0  0  0
   -6.8928   21.5728  -30.7836 H   0  0  0  0  0  0  0  0  0  0  0  0
   -7.6755   20.7319  -33.1447 H   0  0  0  0  0  0  0  0  0  0  0  0
   -7.2557   19.5907  -30.6081 H   0  0  0  0  0  0  0  0  0  0  0  0
   -8.2715   18.9543  -31.9851 H   0  0  0  0  0  0  0  0  0  0  0  0
   -5.3780   18.2287  -31.3564 H   0  0  0  0  0  0  0  0  0  0  0  0
   -6.8326   17.1811  -31.1813 H   0  0  0  0  0  0  0  0  0  0  0  0
   -8.0615   13.9066  -35.1701 H   0  0  0  0  0  0  0  0  0  0  0  0
   -6.1388   12.4509  -34.4858 H   0  0  0  0  0  0  0  0  0  0  0  0
   -4.2647   13.4718  -33.1682 H   0  0  0  0  0  0  0  0  0  0  0  0
   -5.2690   18.2954  -34.8842 H   0  0  0  0  0  0  0  0  0  0  0  0
   -7.0353   18.6858  -34.7645 H   0  0  0  0  0  0  0  0  0  0  0  0
   -4.7622   19.9310  -33.1515 H   0  0  0  0  0  0  0  0  0  0  0  0
   -5.7680   20.7127  -34.4426 H   0  0  0  0  0  0  0  0  0  0  0  0
   -6.2081   23.1163  -33.3357 H   0  0  0  0  0  0  0  0  0  0  0  0
   -7.8495   22.9510  -32.6204 H   0  0  0  0  0  0  0  0  0  0  0  0
   -6.6411   25.0922  -32.0025 H   0  0  0  0  0  0  0  0  0  0  0  0
   -7.1557   24.0523  -30.5935 H   0  0  0  0  0  0  0  0  0  0  0  0
   -0.4437   25.2945  -29.1666 H   0  0  0  0  0  0  0  0  0  0  0  0
  1  2  2  0
  2  3  1  0
  3  4  2  0
  4  5  1  0
  5  6  1  0
  6  7  1  0
  7  8  1  0
  8  9  1  0
  9 10  1  0
 10 11  1  0
 11 12  1  0
 12 13  1  0
 13 14  1  0
 14 15  2  0
 15 16  1  0
 16 17  2  0
 17 18  1  0
 18 19  2  0
 13 20  1  0
 20 21  1  0
  9 22  1  0
 22 23  1  0
  4 24  1  0
 24 25  2  0
 25  1  1  0
 23  6  1  0
 21 10  1  0
 19 14  1  0
  1 26  1  0
  2 27  1  0
  3 28  1  0
  5 29  1  0
  5 30  1  0
  7 31  1  0
  7 32  1  0
  8 33  1  0
  8 34  1  0
  9 35  1  0
 10 36  1  0
 11 37  1  0
 11 38  1  0
 12 39  1  0
 12 40  1  0
 16 41  1  0
 17 42  1  0
 18 43  1  0
 20 44  1  0
 20 45  1  0
 21 46  1  0
 21 47  1  0
 22 48  1  0
 22 49  1  0
 23 50  1  0
 23 51  1  0
 25 52  1  0
M  END
>  <UniqueID>  (27) 
26

>  <SMILES>  (27) 
c1ccc(CN2CCC(C3CCN(c4ncccn4)CC3)CC2)nc1

>  <Energy>  (27) 
71.39295035215034

>  <Genealogy>  (27) 
c1ccc(CN2CCC(C3CCN(c4ncccn4)CC3)CC2)nc1 (3D coordinates assigned)
c1ccc(CN2CCC(C3CCN(c4ncccn4)CC3)CC2)nc1 (nonaromatic ring conformer: 71.39295035215034 kcal/mol)

>  <smiles>  (27) 
c1ccc(CN2CCC(C3CCN(c4ncccn4)CC3)CC2)nc1

>  <score_type>  (27) 
oracle

>  <origin>  (27) 
adg

>  <m_score__min__energy>  (27) 
-8.6600000000000001

>  <m_primary>  (27) 
energy

$$$$
27:0
     RDKit          3D

 44 47  0  0  0  0  0  0  0  0999 V2000
   -1.4340   21.9260  -31.5360 O   0  0  0  0  0  0  0  0  0  0  0  0
   -1.4290   21.3240  -32.6290 N   0  0  0  0  0  0  0  0  0  0  0  0
   -0.4200   21.5690  -33.5320 O   0  0  0  0  0  0  0  0  0  0  0  0
   -2.4630   20.3860  -32.9400 C   0  0  0  0  0  0  0  0  0  0  0  0
   -3.7170   20.7000  -33.4390 C   0  0  0  0  0  0  0  0  0  0  0  0
   -4.3810   19.5410  -33.5900 N   0  0  0  0  0  0  0  0  0  0  0  0
   -3.5310   18.5730  -33.2150 C   0  0  0  0  0  0  0  0  0  0  0  0
   -2.3450   19.0470  -32.7960 N   0  0  0  0  0  0  0  0  0  0  0  0
   -3.8910   17.2280  -33.2540 O   0  0  0  0  0  0  0  0  0  0  0  0
   -5.1140   16.8460  -33.8930 C   0  0  0  0  0  0  0  0  0  0  0  0
   -6.2220   17.9090  -33.6730 C   0  0  1  0  0  0  0  0  0  0  0  0
   -6.5430   17.9750  -32.2940 O   0  0  0  0  0  0  0  0  0  0  0  0
   -7.9250   18.1950  -32.1070 C   0  0  0  0  0  0  0  0  0  0  0  0
   -8.1620   19.6680  -31.9510 C   0  0  0  0  0  0  0  0  0  0  0  0
   -9.4450   20.2000  -32.1450 C   0  0  0  0  0  0  0  0  0  0  0  0
   -9.6760   21.5640  -31.9630 C   0  0  0  0  0  0  0  0  0  0  0  0
   -8.6320   22.4070  -31.5720 C   0  0  0  0  0  0  0  0  0  0  0  0
   -7.3420   21.8890  -31.3530 C   0  0  0  0  0  0  0  0  0  0  0  0
   -6.2350   22.7820  -30.9240 C   0  0  0  0  0  0  0  0  0  0  0  0
   -6.4500   24.1650  -30.7700 C   0  0  0  0  0  0  0  0  0  0  0  0
   -5.4060   25.0040  -30.3670 C   0  0  0  0  0  0  0  0  0  0  0  0
   -4.1400   24.4730  -30.1110 C   0  0  0  0  0  0  0  0  0  0  0  0
   -3.1290   25.2880  -29.7200 F   0  0  0  0  0  0  0  0  0  0  0  0
   -3.9150   23.1030  -30.2590 C   0  0  0  0  0  0  0  0  0  0  0  0
   -4.9540   22.2600  -30.6630 C   0  0  0  0  0  0  0  0  0  0  0  0
   -7.1190   20.5130  -31.5410 C   0  0  0  0  0  0  0  0  0  0  0  0
   -5.7170   19.2970  -34.1250 C   0  0  0  0  0  0  0  0  0  0  0  0
   -4.0970   21.7066  -33.6681 H   0  0  0  0  0  0  0  0  0  0  0  0
   -1.5230   18.5030  -32.4500 H   0  0  0  0  0  0  0  0  0  0  0  0
   -4.9343   16.7341  -34.9724 H   0  0  0  0  0  0  0  0  0  0  0  0
   -5.4527   15.8961  -33.4538 H   0  0  0  0  0  0  0  0  0  0  0  0
   -7.1089   17.6262  -34.2591 H   0  0  0  0  0  0  0  0  0  0  0  0
   -8.4805   17.8213  -32.9798 H   0  0  0  0  0  0  0  0  0  0  0  0
   -8.2704   17.6631  -31.2082 H   0  0  0  0  0  0  0  0  0  0  0  0
  -10.2727   19.5392  -32.4419 H   0  0  0  0  0  0  0  0  0  0  0  0
  -10.6822   21.9768  -32.1276 H   0  0  0  0  0  0  0  0  0  0  0  0
   -8.8199   23.4821  -31.4346 H   0  0  0  0  0  0  0  0  0  0  0  0
   -7.4457   24.5884  -30.9680 H   0  0  0  0  0  0  0  0  0  0  0  0
   -5.5824   26.0836  -30.2515 H   0  0  0  0  0  0  0  0  0  0  0  0
   -2.9173   22.6860  -30.0571 H   0  0  0  0  0  0  0  0  0  0  0  0
   -4.7695   21.1817  -30.7778 H   0  0  0  0  0  0  0  0  0  0  0  0
   -6.1169   20.0949  -31.3649 H   0  0  0  0  0  0  0  0  0  0  0  0
   -5.6812   19.3314  -35.2239 H   0  0  0  0  0  0  0  0  0  0  0  0
   -6.4030   20.0706  -33.7495 H   0  0  0  0  0  0  0  0  0  0  0  0
  1  2  2  0
  2  3  1  0
  2  4  1  0
  4  5  2  0
  5  6  1  0
  6  7  1  0
  7  8  2  0
  7  9  1  0
  9 10  1  0
 10 11  1  0
 11 12  1  0
 12 13  1  0
 13 14  1  0
 14 15  2  0
 15 16  1  0
 16 17  2  0
 17 18  1  0
 18 19  1  0
 19 20  2  0
 20 21  1  0
 21 22  2  0
 22 23  1  0
 22 24  1  0
 24 25  2  0
 18 26  2  0
 11 27  1  0
  8  4  1  0
 26 14  1  0
 27  6  1  0
 25 19  1  0
  5 28  1  0
  8 29  1  0
 10 30  1  0
 10 31  1  0
 11 32  1  6
 13 33  1  0
 13 34  1  0
 15 35  1  0
 16 36  1  0
 17 37  1  0
 20 38  1  0
 21 39  1  0
 24 40  1  0
 25 41  1  0
 26 42  1  0
 27 43  1  0
 27 44  1  0
M  CHG  3   2   1   3  -1   8   1
M  END
>  <UniqueID>  (28) 
27

>  <SMILES>  (28) 
O=[N+]([O-])c1cn2c([nH+]1)OC[C@@H](OCc1cccc(-c3ccc(F)cc3)c1)C2

>  <Energy>  (28) 
87.43971367355738

>  <Genealogy>  (28) 
O=[N+]([O-])c1cn2c([nH+]1)OCC(OCc1cccc(-c3ccc(F)cc3)c1)C2 (protonated)
O=[N+]([O-])c1cn2c([nH+]1)OC[C@@H](OCc1cccc(-c3ccc(F)cc3)c1)C2 (chirality)
O=[N+]([O-])c1cn2c([nH+]1)OC[C@@H](OCc1cccc(-c3ccc(F)cc3)c1)C2 (3D coordinates assigned)
O=[N+]([O-])c1cn2c([nH+]1)OC[C@@H](OCc1cccc(-c3ccc(F)cc3)c1)C2 (nonaromatic ring conformer: 87.43971367355738 kcal/mol)

>  <smiles>  (28) 
O=[N+]([O-])c1cn2c(n1)OCC(OCc1cccc(-c3ccc(F)cc3)c1)C2

>  <score_type>  (28) 
oracle

>  <origin>  (28) 
adg

>  <m_score__min__energy>  (28) 
-8.4299999999999997

>  <m_primary>  (28) 
energy

$$$$
28:0
     RDKit          3D

 55 56  0  0  0  0  0  0  0  0999 V2000
   -0.9090   20.5180  -30.5850 C   0  0  0  0  0  0  0  0  0  0  0  0
   -2.3270   20.7170  -30.0370 C   0  0  0  0  0  0  0  0  0  0  0  0
   -2.4550   21.9470  -29.2140 N   0  0  0  0  0  0  0  0  0  0  0  0
   -3.1150   21.6950  -27.8990 C   0  0  0  0  0  0  0  0  0  0  0  0
   -2.8000   20.3000  -27.3460 C   0  0  0  0  0  0  0  0  0  0  0  0
   -1.1550   22.6640  -29.0730 C   0  0  0  0  0  0  0  0  0  0  0  0
   -1.1370   23.8940  -28.1250 C   0  0  0  0  0  0  0  0  0  0  0  0
   -2.2160   24.9500  -28.3970 C   0  0  0  0  0  0  0  0  0  0  0  0
   -2.8110   24.7780  -29.7180 N   0  0  0  0  0  0  0  0  0  0  0  0
   -4.2080   24.9260  -29.9970 C   0  0  0  0  0  0  0  0  0  0  0  0
   -4.5950   25.6720  -30.9360 O   0  0  0  0  0  0  0  0  0  0  0  0
   -5.2170   24.1840  -29.1800 C   0  0  0  0  0  0  0  0  0  0  0  0
   -5.2790   22.8260  -29.6050 O   0  0  0  0  0  0  0  0  0  0  0  0
   -6.2630   22.2880  -30.4480 C   0  0  0  0  0  0  0  0  0  0  0  0
   -7.6260   22.3020  -30.0930 C   0  0  0  0  0  0  0  0  0  0  0  0
   -8.5890   21.7910  -30.9640 C   0  0  0  0  0  0  0  0  0  0  0  0
   -8.2090   21.2650  -32.1980 C   0  0  0  0  0  0  0  0  0  0  0  0
   -6.8620   21.2420  -32.5630 C   0  0  0  0  0  0  0  0  0  0  0  0
   -5.8750   21.7330  -31.6900 C   0  0  0  0  0  0  0  0  0  0  0  0
   -4.4540   21.6960  -32.1150 C   0  0  0  0  0  0  0  0  0  0  0  0
   -3.7250   22.6960  -31.8690 O   0  0  0  0  0  0  0  0  0  0  0  0
   -3.8620   20.5360  -32.8290 C   0  0  0  0  0  0  0  0  0  0  0  0
   -4.5180   19.2910  -32.8620 C   0  0  0  0  0  0  0  0  0  0  0  0
   -3.9390   18.2030  -33.5230 C   0  0  0  0  0  0  0  0  0  0  0  0
   -2.7120   18.3510  -34.1720 C   0  0  0  0  0  0  0  0  0  0  0  0
   -2.0650   19.5880  -34.1700 C   0  0  0  0  0  0  0  0  0  0  0  0
   -2.6380   20.6770  -33.5080 C   0  0  0  0  0  0  0  0  0  0  0  0
   -0.2028   20.4189  -29.7475 H   0  0  0  0  0  0  0  0  0  0  0  0
   -0.8782   19.6067  -31.2003 H   0  0  0  0  0  0  0  0  0  0  0  0
   -0.6286   21.3856  -31.2003 H   0  0  0  0  0  0  0  0  0  0  0  0
   -3.0254   20.7858  -30.8840 H   0  0  0  0  0  0  0  0  0  0  0  0
   -2.5571   19.8580  -29.3896 H   0  0  0  0  0  0  0  0  0  0  0  0
   -3.0540   22.6100  -29.7650 H   0  0  0  0  0  0  0  0  0  0  0  0
   -2.7652   22.4484  -27.1778 H   0  0  0  0  0  0  0  0  0  0  0  0
   -4.2026   21.7582  -28.0514 H   0  0  0  0  0  0  0  0  0  0  0  0
   -2.8071   20.3313  -26.2465 H   0  0  0  0  0  0  0  0  0  0  0  0
   -3.5596   19.5862  -27.6974 H   0  0  0  0  0  0  0  0  0  0  0  0
   -1.8074   19.9818  -27.6974 H   0  0  0  0  0  0  0  0  0  0  0  0
   -0.4151   21.9422  -28.6968 H   0  0  0  0  0  0  0  0  0  0  0  0
   -0.9364   23.0662  -30.0732 H   0  0  0  0  0  0  0  0  0  0  0  0
   -1.2695   23.5308  -27.0952 H   0  0  0  0  0  0  0  0  0  0  0  0
   -0.1727   24.3948  -28.2964 H   0  0  0  0  0  0  0  0  0  0  0  0
   -3.0045   24.8599  -27.6353 H   0  0  0  0  0  0  0  0  0  0  0  0
   -1.7449   25.9432  -28.3571 H   0  0  0  0  0  0  0  0  0  0  0  0
   -4.9270   24.2217  -28.1196 H   0  0  0  0  0  0  0  0  0  0  0  0
   -6.2044   24.6507  -29.3116 H   0  0  0  0  0  0  0  0  0  0  0  0
   -7.9334   22.7186  -29.1225 H   0  0  0  0  0  0  0  0  0  0  0  0
   -9.6506   21.8032  -30.6763 H   0  0  0  0  0  0  0  0  0  0  0  0
   -8.9713   20.8678  -32.8844 H   0  0  0  0  0  0  0  0  0  0  0  0
   -6.5698   20.8360  -33.5427 H   0  0  0  0  0  0  0  0  0  0  0  0
   -5.4921   19.1731  -32.3648 H   0  0  0  0  0  0  0  0  0  0  0  0
   -4.4511   17.2295  -33.5315 H   0  0  0  0  0  0  0  0  0  0  0  0
   -2.2546   17.4923  -34.6853 H   0  0  0  0  0  0  0  0  0  0  0  0
   -1.1029   19.7056  -34.6902 H   0  0  0  0  0  0  0  0  0  0  0  0
   -2.1283   21.6517  -33.5179 H   0  0  0  0  0  0  0  0  0  0  0  0
  1  2  1  0
  2  3  1  0
  3  4  1  0
  4  5  1  0
  3  6  1  0
  6  7  1  0
  7  8  1  0
  8  9  1  0
  9 10  1  0
 10 11  2  0
 10 12  1  0
 12 13  1  0
 13 14  1  0
 14 15  2  0
 15 16  1  0
 16 17  2  0
 17 18  1  0
 18 19  2  0
 19 20  1  0
 20 21  2  0
 20 22  1  0
 22 23  2  0
 23 24  1  0
 24 25  2  0
 25 26  1  0
 26 27  2  0
 19 14  1  0
 27 22  1  0
  1 28  1  0
  1 29  1  0
  1 30  1  0
  2 31  1  0
  2 32  1  0
  3 33  1  0
  4 34  1  0
  4 35  1  0
  5 36  1  0
  5 37  1  0
  5 38  1  0
  6 39  1  0
  6 40  1  0
  7 41  1  0
  7 42  1  0
  8 43  1  0
  8 44  1  0
 12 45  1  0
 12 46  1  0
 15 47  1  0
 16 48  1  0
 17 49  1  0
 18 50  1  0
 23 51  1  0
 24 52  1  0
 25 53  1  0
 26 54  1  0
 27 55  1  0
M  CHG  2   3   1   9  -1
M  END
>  <UniqueID>  (29) 
28

>  <SMILES>  (29) 
CC[NH+](CC)CCC[N-]C(=O)COc1ccccc1C(=O)c1ccccc1

>  <Energy>  (29) 
58.852289683785735

>  <Genealogy>  (29) 
CC[NH+](CC)CCC[N-]C(=O)COc1ccccc1C(=O)c1ccccc1 (protonated)
CC[NH+](CC)CCC[N-]C(=O)COc1ccccc1C(=O)c1ccccc1 (3D coordinates assigned)
CC[NH+](CC)CCC[N-]C(=O)COc1ccccc1C(=O)c1ccccc1 (optimized conformer: 58.852289683785735 kcal/mol)

>  <smiles>  (29) 
CCN(CC)CCCNC(=O)COc1ccccc1C(=O)c1ccccc1

>  <score_type>  (29) 
oracle

>  <origin>  (29) 
adg

>  <m_score__min__energy>  (29) 
-10.15

>  <m_primary>  (29) 
energy

$$$$
29:0
     RDKit          3D

 46 49  0  0  0  0  0  0  0  0999 V2000
   -0.6830   24.8470  -24.7250 C   0  0  0  0  0  0  0  0  0  0  0  0
   -0.4720   24.2500  -26.0000 O   0  0  0  0  0  0  0  0  0  0  0  0
   -1.4210   24.2350  -27.0340 C   0  0  0  0  0  0  0  0  0  0  0  0
   -2.7510   24.5340  -26.7200 C   0  0  0  0  0  0  0  0  0  0  0  0
   -3.7330   24.5320  -27.7140 C   0  0  0  0  0  0  0  0  0  0  0  0
   -3.3990   24.2340  -29.0460 C   0  0  0  0  0  0  0  0  0  0  0  0
   -4.4150   24.2210  -30.0680 N   0  0  0  0  0  0  0  0  0  0  0  0
   -5.4830   25.2290  -30.0850 C   0  0  0  0  0  0  0  0  0  0  0  0
   -6.8650   24.5600  -30.2210 C   0  0  0  0  0  0  0  0  0  0  0  0
   -6.7930   23.2180  -30.8510 N   0  0  0  0  0  0  0  0  0  0  0  0
   -8.1020   22.7510  -31.3530 C   0  0  0  0  0  0  0  0  0  0  0  0
   -8.0460   21.3850  -31.9770 C   0  0  0  0  0  0  0  0  0  0  0  0
   -6.9800   20.5590  -31.8940 N   0  0  0  0  0  0  0  0  0  0  0  0
   -7.4050   19.4960  -32.6100 C   0  0  0  0  0  0  0  0  0  0  0  0
   -6.5980   18.2910  -32.8400 C   0  0  0  0  0  0  0  0  0  0  0  0
   -6.1620   17.4060  -31.8610 C   0  0  0  0  0  0  0  0  0  0  0  0
   -5.4060   16.3450  -32.3750 C   0  0  0  0  0  0  0  0  0  0  0  0
   -5.2450   16.3910  -33.7540 C   0  0  0  0  0  0  0  0  0  0  0  0
   -6.0440   17.7520  -34.3340 S   0  0  0  0  0  0  0  0  0  0  0  0
   -8.6480   19.6810  -33.0870 N   0  0  0  0  0  0  0  0  0  0  0  0
   -9.0180   20.8550  -32.6820 O   0  0  0  0  0  0  0  0  0  0  0  0
   -5.7170   23.1170  -31.8540 C   0  0  0  0  0  0  0  0  0  0  0  0
   -4.3640   23.2190  -31.1420 C   0  0  0  0  0  0  0  0  0  0  0  0
   -2.0650   23.9250  -29.3600 C   0  0  0  0  0  0  0  0  0  0  0  0
   -1.0820   23.9280  -28.3650 C   0  0  0  0  0  0  0  0  0  0  0  0
   -0.4278   24.1250  -23.9353 H   0  0  0  0  0  0  0  0  0  0  0  0
   -0.0453   25.7379  -24.6272 H   0  0  0  0  0  0  0  0  0  0  0  0
   -1.7389   25.1394  -24.6272 H   0  0  0  0  0  0  0  0  0  0  0  0
   -3.0260   24.7727  -25.6820 H   0  0  0  0  0  0  0  0  0  0  0  0
   -4.7755   24.7655  -27.4518 H   0  0  0  0  0  0  0  0  0  0  0  0
   -5.4513   25.8038  -29.1477 H   0  0  0  0  0  0  0  0  0  0  0  0
   -5.3267   25.8938  -30.9474 H   0  0  0  0  0  0  0  0  0  0  0  0
   -7.3051   24.4548  -29.2184 H   0  0  0  0  0  0  0  0  0  0  0  0
   -7.4807   25.1992  -30.8709 H   0  0  0  0  0  0  0  0  0  0  0  0
   -8.8087   22.7214  -30.5106 H   0  0  0  0  0  0  0  0  0  0  0  0
   -8.4205   23.4544  -32.1364 H   0  0  0  0  0  0  0  0  0  0  0  0
   -6.3878   17.5267  -30.7912 H   0  0  0  0  0  0  0  0  0  0  0  0
   -4.9797   15.5498  -31.7457 H   0  0  0  0  0  0  0  0  0  0  0  0
   -4.6898   15.6619  -34.3624 H   0  0  0  0  0  0  0  0  0  0  0  0
   -9.2210   19.0320  -33.6700 H   0  0  0  0  0  0  0  0  0  0  0  0
   -5.7879   22.1512  -32.3757 H   0  0  0  0  0  0  0  0  0  0  0  0
   -5.8142   23.9303  -32.5882 H   0  0  0  0  0  0  0  0  0  0  0  0
   -4.1087   22.2400  -30.7103 H   0  0  0  0  0  0  0  0  0  0  0  0
   -3.6019   23.5245  -31.8740 H   0  0  0  0  0  0  0  0  0  0  0  0
   -1.7914   23.6787  -30.3966 H   0  0  0  0  0  0  0  0  0  0  0  0
   -0.0398   23.6895  -28.6238 H   0  0  0  0  0  0  0  0  0  0  0  0
  1  2  1  0
  2  3  1  0
  3  4  2  0
  4  5  1  0
  5  6  2  0
  6  7  1  0
  7  8  1  0
  8  9  1  0
  9 10  1  0
 10 11  1  0
 11 12  1  0
 12 13  2  0
 13 14  1  0
 14 15  1  0
 15 16  2  0
 16 17  1  0
 17 18  2  0
 18 19  1  0
 14 20  2  0
 20 21  1  0
 10 22  1  0
 22 23  1  0
  6 24  1  0
 24 25  2  0
 25  3  1  0
 23  7  1  0
 21 12  1  0
 19 15  1  0
  1 26  1  0
  1 27  1  0
  1 28  1  0
  4 29  1  0
  5 30  1  0
  8 31  1  0
  8 32  1  0
  9 33  1  0
  9 34  1  0
 11 35  1  0
 11 36  1  0
 16 37  1  0
 17 38  1  0
 18 39  1  0
 20 40  1  0
 22 41  1  0
 22 42  1  0
 23 43  1  0
 23 44  1  0
 24 45  1  0
 25 46  1  0
M  CHG  1  20   1
M  END
>  <UniqueID>  (30) 
29

>  <SMILES>  (30) 
COc1ccc(N2CCN(Cc3nc(-c4cccs4)[nH+]o3)CC2)cc1

>  <Energy>  (30) 
118.88282732588233

>  <Genealogy>  (30) 
COc1ccc(N2CCN(Cc3nc(-c4cccs4)[nH+]o3)CC2)cc1 (protonated)
COc1ccc(N2CCN(Cc3nc(-c4cccs4)[nH+]o3)CC2)cc1 (3D coordinates assigned)
COc1ccc(N2CCN(Cc3nc(-c4cccs4)[nH+]o3)CC2)cc1 (nonaromatic ring conformer: 118.88282732588233 kcal/mol)

>  <smiles>  (30) 
COc1ccc(N2CCN(Cc3nc(-c4cccs4)no3)CC2)cc1

>  <score_type>  (30) 
oracle

>  <origin>  (30) 
adg

>  <m_score__min__energy>  (30) 
-7.8399999999999999

>  <m_primary>  (30) 
energy

$$$$
30:0
     RDKit          3D

 66 69  0  0  0  0  0  0  0  0999 V2000
   -4.2130   23.2990  -27.5230 C   0  0  0  0  0  0  0  0  0  0  0  0
   -2.9700   24.1390  -27.6510 C   0  0  0  0  0  0  0  0  0  0  0  0
   -2.2720   24.5030  -26.4830 C   0  0  0  0  0  0  0  0  0  0  0  0
   -1.0950   25.2490  -26.5630 C   0  0  0  0  0  0  0  0  0  0  0  0
   -0.5980   25.6410  -27.8070 C   0  0  0  0  0  0  0  0  0  0  0  0
   -1.2900   25.3070  -28.9730 C   0  0  0  0  0  0  0  0  0  0  0  0
   -2.4890   24.5830  -28.9080 C   0  0  0  0  0  0  0  0  0  0  0  0
   -3.1630   24.2800  -30.1360 N   0  0  0  0  0  0  0  0  0  0  0  0
   -4.4610   24.7650  -30.4940 C   0  0  0  0  0  0  0  0  0  0  0  0
   -4.6220   25.9900  -30.7500 O   0  0  0  0  0  0  0  0  0  0  0  0
   -5.6100   23.8400  -30.6280 C   0  0  0  0  0  0  0  0  0  0  0  0
   -6.7170   23.8720  -29.8030 C   0  0  0  0  0  0  0  0  0  0  0  0
   -7.5880   22.9140  -30.2660 C   0  0  0  0  0  0  0  0  0  0  0  0
   -6.9770   22.3020  -31.3530 C   0  0  0  0  0  0  0  0  0  0  0  0
   -7.5700   21.2220  -32.2480 C   0  0  0  0  0  0  0  0  0  0  0  0
   -6.7170   20.0420  -32.4870 N   0  0  0  0  0  0  0  0  0  0  0  0
   -6.4120   19.7790  -33.9150 C   0  0  0  0  0  0  0  0  0  0  0  0
   -6.1200   18.2970  -34.1980 C   0  0  0  0  0  0  0  0  0  0  0  0
   -5.3720   17.7100  -33.0820 N   0  0  0  0  0  0  0  0  0  0  0  0
   -4.0800   17.1180  -33.3070 C   0  0  0  0  0  0  0  0  0  0  0  0
   -3.8590   15.7780  -32.9420 C   0  0  0  0  0  0  0  0  0  0  0  0
   -2.6240   15.1770  -33.1860 C   0  0  0  0  0  0  0  0  0  0  0  0
   -1.5950   15.9080  -33.7810 C   0  0  0  0  0  0  0  0  0  0  0  0
   -1.7970   17.2450  -34.1340 C   0  0  0  0  0  0  0  0  0  0  0  0
   -3.0410   17.8650  -33.8970 C   0  0  0  0  0  0  0  0  0  0  0  0
   -3.2790   19.2160  -34.2030 O   0  0  0  0  0  0  0  0  0  0  0  0
   -2.7440   20.3450  -33.5070 C   0  0  0  0  0  0  0  0  0  0  0  0
   -1.3140   20.5790  -33.9900 C   0  0  0  0  0  0  0  0  0  0  0  0
   -2.7590   20.0940  -31.9970 C   0  0  0  0  0  0  0  0  0  0  0  0
   -5.8640   17.8770  -31.7080 C   0  0  0  0  0  0  0  0  0  0  0  0
   -7.0350   18.8620  -31.6610 C   0  0  0  0  0  0  0  0  0  0  0  0
   -5.7730   22.8880  -31.5810 N   0  0  0  0  0  0  0  0  0  0  0  0
   -4.8470   22.5880  -32.6780 C   0  0  0  0  0  0  0  0  0  0  0  0
   -4.4426   23.1438  -26.4585 H   0  0  0  0  0  0  0  0  0  0  0  0
   -5.0551   23.8139  -28.0085 H   0  0  0  0  0  0  0  0  0  0  0  0
   -4.0493   22.3256  -28.0085 H   0  0  0  0  0  0  0  0  0  0  0  0
   -2.6577   24.1968  -25.4994 H   0  0  0  0  0  0  0  0  0  0  0  0
   -0.5583   25.5284  -25.6443 H   0  0  0  0  0  0  0  0  0  0  0  0
    0.3393   26.2134  -27.8689 H   0  0  0  0  0  0  0  0  0  0  0  0
   -0.8910   25.6145  -29.9509 H   0  0  0  0  0  0  0  0  0  0  0  0
   -6.8723   24.5367  -28.9404 H   0  0  0  0  0  0  0  0  0  0  0  0
   -8.5800   22.6773  -29.8539 H   0  0  0  0  0  0  0  0  0  0  0  0
   -8.5038   20.8739  -31.7824 H   0  0  0  0  0  0  0  0  0  0  0  0
   -7.7074   21.6938  -33.2321 H   0  0  0  0  0  0  0  0  0  0  0  0
   -7.2754   20.0893  -34.5218 H   0  0  0  0  0  0  0  0  0  0  0  0
   -5.5073   20.3498  -34.1712 H   0  0  0  0  0  0  0  0  0  0  0  0
   -7.0697   17.7565  -34.3240 H   0  0  0  0  0  0  0  0  0  0  0  0
   -5.5196   18.2168  -35.1162 H   0  0  0  0  0  0  0  0  0  0  0  0
   -4.6634   15.2013  -32.4621 H   0  0  0  0  0  0  0  0  0  0  0  0
   -2.4610   14.1250  -32.9089 H   0  0  0  0  0  0  0  0  0  0  0  0
   -0.6226   15.4308  -33.9726 H   0  0  0  0  0  0  0  0  0  0  0  0
   -0.9808   17.8170  -34.5994 H   0  0  0  0  0  0  0  0  0  0  0  0
   -3.3580   21.2346  -33.7110 H   0  0  0  0  0  0  0  0  0  0  0  0
   -0.6471   20.6881  -33.1221 H   0  0  0  0  0  0  0  0  0  0  0  0
   -0.9875   19.7223  -34.5979 H   0  0  0  0  0  0  0  0  0  0  0  0
   -1.2776   21.4951  -34.5979 H   0  0  0  0  0  0  0  0  0  0  0  0
   -2.7016   21.0551  -31.4650 H   0  0  0  0  0  0  0  0  0  0  0  0
   -3.6897   19.5769  -31.7205 H   0  0  0  0  0  0  0  0  0  0  0  0
   -1.8966   19.4697  -31.7205 H   0  0  0  0  0  0  0  0  0  0  0  0
   -6.1985   16.9018  -31.3246 H   0  0  0  0  0  0  0  0  0  0  0  0
   -5.0464   18.2744  -31.0887 H   0  0  0  0  0  0  0  0  0  0  0  0
   -7.9405   18.3743  -32.0512 H   0  0  0  0  0  0  0  0  0  0  0  0
   -7.2080   19.1774  -30.6215 H   0  0  0  0  0  0  0  0  0  0  0  0
   -3.8775   22.2739  -32.2639 H   0  0  0  0  0  0  0  0  0  0  0  0
   -5.2613   21.7781  -33.2964 H   0  0  0  0  0  0  0  0  0  0  0  0
   -4.7077   23.4870  -33.2964 H   0  0  0  0  0  0  0  0  0  0  0  0
  1  2  1  0
  2  3  2  0
  3  4  1  0
  4  5  2  0
  5  6  1  0
  6  7  2  0
  7  8  1  0
  8  9  1  0
  9 10  2  0
  9 11  1  0
 11 12  2  0
 12 13  1  0
 13 14  2  0
 14 15  1  0
 15 16  1  0
 16 17  1  0
 17 18  1  0
 18 19  1  0
 19 20  1  0
 20 21  2  0
 21 22  1  0
 22 23  2  0
 23 24  1  0
 24 25  2  0
 25 26  1  0
 26 27  1  0
 27 28  1  0
 27 29  1  0
 19 30  1  0
 30 31  1  0
 14 32  1  0
 32 33  1  0
  7  2  1  0
 32 11  1  0
 31 16  1  0
 25 20  1  0
  1 34  1  0
  1 35  1  0
  1 36  1  0
  3 37  1  0
  4 38  1  0
  5 39  1  0
  6 40  1  0
 12 41  1  0
 13 42  1  0
 15 43  1  0
 15 44  1  0
 17 45  1  0
 17 46  1  0
 18 47  1  0
 18 48  1  0
 21 49  1  0
 22 50  1  0
 23 51  1  0
 24 52  1  0
 27 53  1  0
 28 54  1  0
 28 55  1  0
 28 56  1  0
 29 57  1  0
 29 58  1  0
 29 59  1  0
 30 60  1  0
 30 61  1  0
 31 62  1  0
 31 63  1  0
 33 64  1  0
 33 65  1  0
 33 66  1  0
M  CHG  1   8  -1
M  END
>  <UniqueID>  (31) 
30

>  <SMILES>  (31) 
Cc1ccccc1[N-]C(=O)c1ccc(CN2CCN(c3ccccc3OC(C)C)CC2)n1C

>  <Energy>  (31) 
115.96269631668372

>  <Genealogy>  (31) 
Cc1ccccc1[N-]C(=O)c1ccc(CN2CCN(c3ccccc3OC(C)C)CC2)n1C (protonated)
Cc1ccccc1[N-]C(=O)c1ccc(CN2CCN(c3ccccc3OC(C)C)CC2)n1C (3D coordinates assigned)
Cc1ccccc1[N-]C(=O)c1ccc(CN2CCN(c3ccccc3OC(C)C)CC2)n1C (nonaromatic ring conformer: 115.96269631668372 kcal/mol)

>  <smiles>  (31) 
Cc1ccccc1NC(=O)c1ccc(CN2CCN(c3ccccc3OC(C)C)CC2)n1C

>  <score_type>  (31) 
oracle

>  <origin>  (31) 
adg

>  <m_score__min__energy>  (31) 
-10.44

>  <m_primary>  (31) 
energy

$$$$
31:0
     RDKit          3D

 50 55  0  0  0  0  0  0  0  0999 V2000
   -8.9230   19.5250  -32.1300 C   0  0  0  0  0  0  0  0  0  0  0  0
   -8.7040   20.9310  -32.1960 O   0  0  0  0  0  0  0  0  0  0  0  0
   -7.4840   21.5580  -31.9010 C   0  0  0  0  0  0  0  0  0  0  0  0
   -7.3580   22.5190  -30.8800 C   0  0  0  0  0  0  0  0  0  0  0  0
   -6.1200   23.1180  -30.6270 C   0  0  0  0  0  0  0  0  0  0  0  0
   -4.9960   22.7750  -31.3940 C   0  0  0  0  0  0  0  0  0  0  0  0
   -3.6580   23.3900  -31.0950 C   0  0  0  0  0  0  0  0  0  0  0  0
   -3.0840   22.7810  -29.8990 N   0  0  0  0  0  0  0  0  0  0  0  0
   -3.0270   21.3820  -29.5960 C   0  0  0  0  0  0  0  0  0  0  0  0
   -3.3180   20.4640  -30.4120 O   0  0  0  0  0  0  0  0  0  0  0  0
   -2.6060   21.2010  -28.1810 C   0  0  2  0  0  0  0  0  0  0  0  0
   -1.6660   20.2240  -27.8440 C   0  0  0  0  0  0  0  0  0  0  0  0
   -0.7030   19.3120  -27.5660 C   0  0  0  0  0  0  0  0  0  0  0  0
   -1.2350   18.2560  -26.7380 C   0  0  0  0  0  0  0  0  0  0  0  0
   -2.5800   18.2050  -26.3170 N   0  0  0  0  0  0  0  0  0  0  0  0
   -3.5540   19.1440  -26.6270 C   0  0  0  0  0  0  0  0  0  0  0  0
   -3.0570   20.1440  -27.3900 C   0  0  0  0  0  0  0  0  0  0  0  0
   -2.5040   22.5770  -27.6390 C   0  0  0  0  0  0  0  0  0  0  0  0
   -2.7940   23.4390  -28.6590 C   0  0  0  0  0  0  0  0  0  0  0  0
   -2.0470   24.5790  -28.4480 C   0  0  0  0  0  0  0  0  0  0  0  0
   -1.9740   25.6660  -29.3100 O   0  0  0  0  0  0  0  0  0  0  0  0
   -1.3330   24.4590  -27.3010 N   0  0  0  0  0  0  0  0  0  0  0  0
   -0.4300   25.4300  -26.7430 C   0  0  0  0  0  0  0  0  0  0  0  0
   -0.8870   26.3990  -25.8340 C   0  0  0  0  0  0  0  0  0  0  0  0
    0.0040   27.3230  -25.2810 C   0  0  0  0  0  0  0  0  0  0  0  0
    1.3560   27.2910  -25.6300 C   0  0  0  0  0  0  0  0  0  0  0  0
    1.8200   26.3320  -26.5340 C   0  0  0  0  0  0  0  0  0  0  0  0
    0.9330   25.4010  -27.0860 C   0  0  0  0  0  0  0  0  0  0  0  0
   -1.5590   23.1990  -26.8480 C   0  0  0  0  0  0  0  0  0  0  0  0
   -0.8520   22.5760  -25.8200 O   0  0  0  0  0  0  0  0  0  0  0  0
   -5.1200   21.8050  -32.4000 C   0  0  0  0  0  0  0  0  0  0  0  0
   -6.3570   21.2060  -32.6530 C   0  0  0  0  0  0  0  0  0  0  0  0
   -8.9720   19.2106  -31.0770 H   0  0  0  0  0  0  0  0  0  0  0  0
   -9.8705   19.2776  -32.6310 H   0  0  0  0  0  0  0  0  0  0  0  0
   -8.0956   19.0011  -32.6310 H   0  0  0  0  0  0  0  0  0  0  0  0
   -8.2359   22.7995  -30.2795 H   0  0  0  0  0  0  0  0  0  0  0  0
   -6.0267   23.8622  -29.8223 H   0  0  0  0  0  0  0  0  0  0  0  0
   -2.9827   23.2251  -31.9475 H   0  0  0  0  0  0  0  0  0  0  0  0
   -3.7869   24.4690  -30.9241 H   0  0  0  0  0  0  0  0  0  0  0  0
    0.3366   19.3684  -27.9210 H   0  0  0  0  0  0  0  0  0  0  0  0
   -0.5571   17.4504  -26.4193 H   0  0  0  0  0  0  0  0  0  0  0  0
   -4.6004   19.0825  -26.2935 H   0  0  0  0  0  0  0  0  0  0  0  0
   -1.9509   26.4306  -25.5563 H   0  0  0  0  0  0  0  0  0  0  0  0
   -0.3607   28.0777  -24.5687 H   0  0  0  0  0  0  0  0  0  0  0  0
    2.0547   28.0200  -25.1937 H   0  0  0  0  0  0  0  0  0  0  0  0
    2.8840   26.3088  -26.8122 H   0  0  0  0  0  0  0  0  0  0  0  0
    1.3040   24.6430  -27.7915 H   0  0  0  0  0  0  0  0  0  0  0  0
   -0.4660   23.0970  -25.0450 H   0  0  0  0  0  0  0  0  0  0  0  0
   -4.2397   21.5147  -32.9922 H   0  0  0  0  0  0  0  0  0  0  0  0
   -6.4457   20.4522  -33.4491 H   0  0  0  0  0  0  0  0  0  0  0  0
  1  2  1  0
  2  3  1  0
  3  4  2  0
  4  5  1  0
  5  6  2  0
  6  7  1  0
  7  8  1  0
  8  9  1  0
  9 10  2  0
 11  9  1  6
 11 12  1  0
 12 13  2  0
 13 14  1  0
 14 15  2  0
 15 16  1  0
 16 17  2  0
 11 18  1  0
 18 19  1  0
 19 20  2  0
 20 21  1  0
 20 22  1  0
 22 23  1  0
 23 24  2  0
 24 25  1  0
 25 26  2  0
 26 27  1  0
 27 28  2  0
 22 29  1  0
 29 30  1  0
  6 31  1  0
 31 32  2  0
 32  3  1  0
 19  8  1  0
 28 23  1  0
 17 11  1  0
 29 18  2  0
 17 12  1  0
  1 33  1  0
  1 34  1  0
  1 35  1  0
  4 36  1  0
  5 37  1  0
  7 38  1  0
  7 39  1  0
 13 40  1  0
 14 41  1  0
 16 42  1  0
 24 43  1  0
 25 44  1  0
 26 45  1  0
 27 46  1  0
 28 47  1  0
 30 48  1  0
 31 49  1  0
 32 50  1  0
M  CHG  1  21  -1
M  END
>  <UniqueID>  (32) 
31

>  <SMILES>  (32) 
COc1ccc(CN2C(=O)[C@@]3(c4ccncc43)c3c2c([O-])n(-c2ccccc2)c3O)cc1

>  <Energy>  (32) 
308.52050283284717

>  <Genealogy>  (32) 
COc1ccc(CN2C(=O)C3(c4ccncc43)c3c2c([O-])n(-c2ccccc2)c3O)cc1 (protonated)
COc1ccc(CN2C(=O)[C@@]3(c4ccncc43)c3c2c([O-])n(-c2ccccc2)c3O)cc1 (chirality)
COc1ccc(CN2C(=O)[C@@]3(c4ccncc43)c3c2c([O-])n(-c2ccccc2)c3O)cc1 (3D coordinates assigned)
COc1ccc(CN2C(=O)[C@@]3(c4ccncc43)c3c2c([O-])n(-c2ccccc2)c3O)cc1 (nonaromatic ring conformer: 308.52050283284717 kcal/mol)

>  <smiles>  (32) 
COc1ccc(CN2C(=O)C3(c4ccncc43)c3c2c(O)n(-c2ccccc2)c3O)cc1

>  <score_type>  (32) 
oracle

>  <origin>  (32) 
adg

>  <m_score__min__energy>  (32) 
-10.789999999999999

>  <m_primary>  (32) 
energy

$$$$
32:0
     RDKit          3D

 44 45  0  0  0  0  0  0  0  0999 V2000
   -6.3304   25.2557  -31.7945 H   0  0  0  0  0  0  0  0  0  0  0  0
   -5.7370   24.3920  -31.4600 C   0  0  0  0  0  0  0  0  0  0  0  0
   -4.6100   24.5900  -30.8460 N   0  0  0  0  0  0  0  0  0  0  0  0
   -4.4880   24.5750  -29.3920 C   0  0  0  0  0  0  0  0  0  0  0  0
   -5.4229   24.1957  -28.9538 H   0  0  0  0  0  0  0  0  0  0  0  0
   -4.2934   25.5987  -29.0397 H   0  0  0  0  0  0  0  0  0  0  0  0
   -3.3440   23.6860  -28.9690 C   0  0  0  0  0  0  0  0  0  0  0  0
   -3.5570   22.3060  -28.8100 C   0  0  0  0  0  0  0  0  0  0  0  0
   -4.5619   21.8897  -28.9741 H   0  0  0  0  0  0  0  0  0  0  0  0
   -2.5090   21.4550  -28.4460 C   0  0  0  0  0  0  0  0  0  0  0  0
   -2.7830   20.0870  -28.2970 O   0  0  0  0  0  0  0  0  0  0  0  0
   -2.7450   19.3910  -27.0560 C   0  0  0  0  0  0  0  0  0  0  0  0
   -2.7845   20.1146  -26.2284 H   0  0  0  0  0  0  0  0  0  0  0  0
   -3.6074   18.7113  -26.9902 H   0  0  0  0  0  0  0  0  0  0  0  0
   -1.8138   18.8092  -26.9902 H   0  0  0  0  0  0  0  0  0  0  0  0
   -1.2260   21.9940  -28.2450 C   0  0  0  0  0  0  0  0  0  0  0  0
   -0.3950   21.3344  -27.9546 H   0  0  0  0  0  0  0  0  0  0  0  0
   -1.0010   23.3620  -28.4120 C   0  0  0  0  0  0  0  0  0  0  0  0
    0.0074   23.7725  -28.2549 H   0  0  0  0  0  0  0  0  0  0  0  0
   -2.0550   24.2200  -28.7800 C   0  0  0  0  0  0  0  0  0  0  0  0
   -1.8560   25.5990  -28.9690 O   0  0  0  0  0  0  0  0  0  0  0  0
   -1.0000   26.4080  -28.1690 C   0  0  0  0  0  0  0  0  0  0  0  0
   -1.2031   26.2161  -27.1051 H   0  0  0  0  0  0  0  0  0  0  0  0
    0.0491   26.1637  -28.3919 H   0  0  0  0  0  0  0  0  0  0  0  0
   -1.1847   27.4692  -28.3919 H   0  0  0  0  0  0  0  0  0  0  0  0
   -6.2340   23.0260  -31.7160 C   0  0  0  0  0  0  0  0  0  0  0  0
   -7.5930   22.7410  -31.5310 C   0  0  0  0  0  0  0  0  0  0  0  0
   -8.2765   23.5365  -31.1992 H   0  0  0  0  0  0  0  0  0  0  0  0
   -8.0880   21.4560  -31.7640 C   0  0  0  0  0  0  0  0  0  0  0  0
   -9.1582   21.2510  -31.6132 H   0  0  0  0  0  0  0  0  0  0  0  0
   -7.2340   20.4180  -32.1900 C   0  0  0  0  0  0  0  0  0  0  0  0
   -7.7470   19.0810  -32.4320 N   0  0  0  0  0  0  0  0  0  0  0  0
   -6.9220   18.0750  -33.1110 C   0  0  0  0  0  0  0  0  0  0  0  0
   -6.4116   17.4526  -32.3612 H   0  0  0  0  0  0  0  0  0  0  0  0
   -7.5625   17.4396  -33.7404 H   0  0  0  0  0  0  0  0  0  0  0  0
   -6.1735   18.5787  -33.7404 H   0  0  0  0  0  0  0  0  0  0  0  0
   -9.1030   18.7130  -32.0010 C   0  0  0  0  0  0  0  0  0  0  0  0
   -9.1478   18.7008  -30.9020 H   0  0  0  0  0  0  0  0  0  0  0  0
   -9.8233   19.4481  -32.3892 H   0  0  0  0  0  0  0  0  0  0  0  0
   -9.3528   17.7146  -32.3892 H   0  0  0  0  0  0  0  0  0  0  0  0
   -5.8670   20.7130  -32.3730 C   0  0  0  0  0  0  0  0  0  0  0  0
   -5.1801   19.9202  -32.7043 H   0  0  0  0  0  0  0  0  0  0  0  0
   -5.3740   21.9990  -32.1390 C   0  0  0  0  0  0  0  0  0  0  0  0
   -4.3044   22.2089  -32.2871 H   0  0  0  0  0  0  0  0  0  0  0  0
  1  2  1  0
  2  3  2  0
  3  4  1  0
  4  5  1  0
  4  6  1  0
  4  7  1  0
  7  8  2  0
  8  9  1  0
  8 10  1  0
 10 11  1  0
 11 12  1  0
 12 13  1  0
 12 14  1  0
 12 15  1  0
 10 16  2  0
 16 17  1  0
 16 18  1  0
 18 19  1  0
 18 20  2  0
 20 21  1  0
 21 22  1  0
 22 23  1  0
 22 24  1  0
 22 25  1  0
  2 26  1  0
 26 27  2  0
 27 28  1  0
 27 29  1  0
 29 30  1  0
 29 31  2  0
 31 32  1  0
 32 33  1  0
 33 34  1  0
 33 35  1  0
 33 36  1  0
 32 37  1  0
 37 38  1  0
 37 39  1  0
 37 40  1  0
 31 41  1  0
 41 42  1  0
 41 43  2  0
 43 44  1  0
 20  7  1  0
 43 26  1  0
M  END
>  <UniqueID>  (33) 
32

>  <SMILES>  (33) 
COc1ccc(OC)c(C/N=C/c2ccc(N(C)C)cc2)c1

>  <Energy>  (33) 
42.08349313245541

>  <Genealogy>  (33) 
COc1ccc(OC)c(C/N=C/c2ccc(N(C)C)cc2)c1 (cis-trans isomerization)
COc1ccc(OC)c(C/N=C/c2ccc(N(C)C)cc2)c1 (3D coordinates assigned)
COc1ccc(OC)c(C/N=C/c2ccc(N(C)C)cc2)c1 (optimized conformer: 42.08349313245541 kcal/mol)

>  <smiles>  (33) 
COc1ccc(OC)c(CN=Cc2ccc(N(C)C)cc2)c1

>  <score_type>  (33) 
oracle

>  <origin>  (33) 
adg

>  <m_score__min__energy>  (33) 
-7.5300000000000002

>  <m_primary>  (33) 
energy

$$$$
33:0
     RDKit          3D

 43 44  0  0  0  0  0  0  0  0999 V2000
   -6.6850   16.1120  -33.8770 C   0  0  0  0  0  0  0  0  0  0  0  0
   -6.7740   17.5480  -33.4550 C   0  0  0  0  0  0  0  0  0  0  0  0
   -6.0190   18.5350  -34.1120 C   0  0  0  0  0  0  0  0  0  0  0  0
   -6.1050   19.8720  -33.7100 C   0  0  0  0  0  0  0  0  0  0  0  0
   -6.9490   20.2350  -32.6470 C   0  0  0  0  0  0  0  0  0  0  0  0
   -7.0390   21.5990  -32.2180 N   0  0  0  0  0  0  0  0  0  0  0  0
   -5.8840   22.4040  -31.9320 C   0  0  0  0  0  0  0  0  0  0  0  0
   -4.7230   21.9410  -32.1040 O   0  0  0  0  0  0  0  0  0  0  0  0
   -6.0520   23.8310  -31.4710 C   0  0  0  0  0  0  0  0  0  0  0  0
   -5.9440   23.9960  -30.0020 N   0  0  0  0  0  0  0  0  0  0  0  0
   -6.5230   25.2790  -29.5570 C   0  0  0  0  0  0  0  0  0  0  0  0
   -4.5650   23.8210  -29.5040 C   0  0  0  0  0  0  0  0  0  0  0  0
   -3.6770   24.9230  -30.0090 C   0  0  0  0  0  0  0  0  0  0  0  0
   -4.0950   25.6670  -30.9390 O   0  0  0  0  0  0  0  0  0  0  0  0
   -2.4580   25.2740  -29.3380 N   0  0  0  0  0  0  0  0  0  0  0  0
   -1.8780   24.6120  -28.2000 C   0  0  0  0  0  0  0  0  0  0  0  0
   -1.7740   25.2490  -26.9470 C   0  0  0  0  0  0  0  0  0  0  0  0
   -1.2480   24.5550  -25.8440 C   0  0  0  0  0  0  0  0  0  0  0  0
   -0.8310   23.2230  -25.9850 C   0  0  0  0  0  0  0  0  0  0  0  0
   -0.9410   22.5830  -27.2270 C   0  0  0  0  0  0  0  0  0  0  0  0
   -0.5270   21.3000  -27.3660 F   0  0  0  0  0  0  0  0  0  0  0  0
   -1.4760   23.2710  -28.3270 C   0  0  0  0  0  0  0  0  0  0  0  0
   -7.6730   19.2430  -31.9650 C   0  0  0  0  0  0  0  0  0  0  0  0
   -7.5840   17.9070  -32.3680 C   0  0  0  0  0  0  0  0  0  0  0  0
   -6.6452   15.4695  -32.9850 H   0  0  0  0  0  0  0  0  0  0  0  0
   -7.5687   15.8509  -34.4778 H   0  0  0  0  0  0  0  0  0  0  0  0
   -5.7758   15.9621  -34.4778 H   0  0  0  0  0  0  0  0  0  0  0  0
   -5.3580   18.2549  -34.9455 H   0  0  0  0  0  0  0  0  0  0  0  0
   -5.5111   20.6402  -34.2268 H   0  0  0  0  0  0  0  0  0  0  0  0
   -7.9790   22.0600  -32.2400 H   0  0  0  0  0  0  0  0  0  0  0  0
   -5.2737   24.4446  -31.9481 H   0  0  0  0  0  0  0  0  0  0  0  0
   -7.0664   24.1455  -31.7575 H   0  0  0  0  0  0  0  0  0  0  0  0
   -6.5382   25.3127  -28.4576 H   0  0  0  0  0  0  0  0  0  0  0  0
   -5.9125   26.1096  -29.9409 H   0  0  0  0  0  0  0  0  0  0  0  0
   -7.5497   25.3707  -29.9409 H   0  0  0  0  0  0  0  0  0  0  0  0
   -4.5728   23.8382  -28.4042 H   0  0  0  0  0  0  0  0  0  0  0  0
   -4.1764   22.8579  -29.8665 H   0  0  0  0  0  0  0  0  0  0  0  0
   -2.1053   26.2916  -26.8322 H   0  0  0  0  0  0  0  0  0  0  0  0
   -1.1631   25.0569  -24.8688 H   0  0  0  0  0  0  0  0  0  0  0  0
   -0.4180   22.6812  -25.1213 H   0  0  0  0  0  0  0  0  0  0  0  0
   -1.5814   22.7579  -29.2943 H   0  0  0  0  0  0  0  0  0  0  0  0
   -8.3112   19.5178  -31.1122 H   0  0  0  0  0  0  0  0  0  0  0  0
   -8.1521   17.1339  -31.8298 H   0  0  0  0  0  0  0  0  0  0  0  0
  1  2  1  0
  2  3  2  0
  3  4  1  0
  4  5  2  0
  5  6  1  0
  6  7  1  0
  7  8  2  0
  7  9  1  0
  9 10  1  0
 10 11  1  0
 10 12  1  0
 12 13  1  0
 13 14  2  0
 13 15  1  0
 15 16  1  0
 16 17  2  0
 17 18  1  0
 18 19  2  0
 19 20  1  0
 20 21  1  0
 20 22  2  0
  5 23  1  0
 23 24  2  0
 24  2  1  0
 22 16  1  0
  1 25  1  0
  1 26  1  0
  1 27  1  0
  3 28  1  0
  4 29  1  0
  6 30  1  0
  9 31  1  0
  9 32  1  0
 11 33  1  0
 11 34  1  0
 11 35  1  0
 12 36  1  0
 12 37  1  0
 17 38  1  0
 18 39  1  0
 19 40  1  0
 22 41  1  0
 23 42  1  0
 24 43  1  0
M  CHG  1  15  -1
M  END
>  <UniqueID>  (34) 
33

>  <SMILES>  (34) 
Cc1ccc(NC(=O)CN(C)CC(=O)[N-]c2cccc(F)c2)cc1

>  <Energy>  (34) 
53.46836903987821

>  <Genealogy>  (34) 
Cc1ccc(NC(=O)CN(C)CC(=O)[N-]c2cccc(F)c2)cc1 (protonated)
Cc1ccc(NC(=O)CN(C)CC(=O)[N-]c2cccc(F)c2)cc1 (3D coordinates assigned)
Cc1ccc(NC(=O)CN(C)CC(=O)[N-]c2cccc(F)c2)cc1 (optimized conformer: 53.46836903987821 kcal/mol)

>  <smiles>  (34) 
Cc1ccc(NC(=O)CN(C)CC(=O)Nc2cccc(F)c2)cc1

>  <score_type>  (34) 
oracle

>  <origin>  (34) 
adg

>  <m_score__min__energy>  (34) 
-9.6500000000000004

>  <m_primary>  (34) 
energy

$$$$
34:0
     RDKit          3D

 55 57  0  0  0  0  0  0  0  0999 V2000
   -6.1350   24.9690  -30.5260 C   0  0  0  0  0  0  0  0  0  0  0  0
   -7.2200   23.9400  -30.8380 C   0  0  0  0  0  0  0  0  0  0  0  0
   -7.1140   23.4100  -32.2740 C   0  0  0  0  0  0  0  0  0  0  0  0
   -7.2490   21.9090  -32.3290 C   0  0  0  0  0  0  0  0  0  0  0  0
   -8.4210   21.2840  -32.0770 N   0  0  0  0  0  0  0  0  0  0  0  0
   -8.1460   19.9770  -32.2480 C   0  0  0  0  0  0  0  0  0  0  0  0
   -9.1590   18.8910  -32.0760 C   0  0  0  0  0  0  0  0  0  0  0  0
   -6.8190   19.8200  -32.5970 C   0  0  0  0  0  0  0  0  0  0  0  0
   -6.1220   18.5270  -32.9100 C   0  0  0  0  0  0  0  0  0  0  0  0
   -5.6070   18.5780  -34.2350 O   0  0  0  0  0  0  0  0  0  0  0  0
   -4.3620   18.0460  -34.5790 C   0  0  0  0  0  0  0  0  0  0  0  0
   -3.1520   18.4580  -33.8110 C   0  0  0  0  0  0  0  0  0  0  0  0
   -4.2440   17.2570  -35.5570 O   0  0  0  0  0  0  0  0  0  0  0  0
   -6.2560   21.0470  -32.6660 N   0  0  0  0  0  0  0  0  0  0  0  0
   -4.8700   21.3710  -33.0270 C   0  0  0  0  0  0  0  0  0  0  0  0
   -4.0690   21.7510  -31.8080 C   0  0  0  0  0  0  0  0  0  0  0  0
   -2.6680   21.8190  -31.8780 C   0  0  0  0  0  0  0  0  0  0  0  0
   -1.9190   22.1600  -30.7500 C   0  0  0  0  0  0  0  0  0  0  0  0
   -2.5570   22.4260  -29.5300 C   0  0  0  0  0  0  0  0  0  0  0  0
   -1.7660   22.8190  -28.3430 C   0  0  0  0  0  0  0  0  0  0  0  0
   -1.3550   21.8040  -27.4610 C   0  0  0  0  0  0  0  0  0  0  0  0
   -0.5370   22.0990  -26.3700 C   0  0  0  0  0  0  0  0  0  0  0  0
   -0.1050   23.4030  -26.1520 C   0  0  0  0  0  0  0  0  0  0  0  0
   -0.5120   24.4270  -27.0120 C   0  0  0  0  0  0  0  0  0  0  0  0
   -1.3630   24.1600  -28.1030 C   0  0  0  0  0  0  0  0  0  0  0  0
   -1.8480   25.2990  -28.9250 C   0  0  0  0  0  0  0  0  0  0  0  0
   -1.2130   26.3870  -28.9410 O   0  0  0  0  0  0  0  0  0  0  0  0
   -3.0340   25.2080  -29.6470 O   0  0  0  0  0  0  0  0  0  0  0  0
   -3.9570   22.3410  -29.4520 C   0  0  0  0  0  0  0  0  0  0  0  0
   -4.7050   21.9890  -30.5780 C   0  0  0  0  0  0  0  0  0  0  0  0
   -6.0283   25.0702  -29.4359 H   0  0  0  0  0  0  0  0  0  0  0  0
   -5.1797   24.6372  -30.9587 H   0  0  0  0  0  0  0  0  0  0  0  0
   -6.4158   25.9406  -30.9587 H   0  0  0  0  0  0  0  0  0  0  0  0
   -7.1202   23.0959  -30.1397 H   0  0  0  0  0  0  0  0  0  0  0  0
   -8.1972   24.4332  -30.7292 H   0  0  0  0  0  0  0  0  0  0  0  0
   -7.9132   23.8617  -32.8800 H   0  0  0  0  0  0  0  0  0  0  0  0
   -6.1214   23.6783  -32.6648 H   0  0  0  0  0  0  0  0  0  0  0  0
   -9.3261   18.7119  -31.0036 H   0  0  0  0  0  0  0  0  0  0  0  0
  -10.1049   19.1937  -32.5489 H   0  0  0  0  0  0  0  0  0  0  0  0
   -8.7914   17.9684  -32.5489 H   0  0  0  0  0  0  0  0  0  0  0  0
   -5.2955   18.3742  -32.2004 H   0  0  0  0  0  0  0  0  0  0  0  0
   -6.8355   17.6942  -32.8243 H   0  0  0  0  0  0  0  0  0  0  0  0
   -3.3601   18.3871  -32.7332 H   0  0  0  0  0  0  0  0  0  0  0  0
   -2.3122   17.7952  -34.0666 H   0  0  0  0  0  0  0  0  0  0  0  0
   -2.8912   19.4956  -34.0666 H   0  0  0  0  0  0  0  0  0  0  0  0
   -4.4075   20.4933  -33.5021 H   0  0  0  0  0  0  0  0  0  0  0  0
   -4.8789   22.2247  -33.7206 H   0  0  0  0  0  0  0  0  0  0  0  0
   -2.1573   21.6022  -32.8278 H   0  0  0  0  0  0  0  0  0  0  0  0
   -0.8228   22.2203  -30.8188 H   0  0  0  0  0  0  0  0  0  0  0  0
   -1.6815   20.7677  -27.6328 H   0  0  0  0  0  0  0  0  0  0  0  0
   -0.2328   21.2980  -25.6802 H   0  0  0  0  0  0  0  0  0  0  0  0
    0.5569   23.6284  -25.3029 H   0  0  0  0  0  0  0  0  0  0  0  0
   -0.1633   25.4551  -26.8348 H   0  0  0  0  0  0  0  0  0  0  0  0
   -4.4664   22.5525  -28.5003 H   0  0  0  0  0  0  0  0  0  0  0  0
   -5.7985   21.8976  -30.5012 H   0  0  0  0  0  0  0  0  0  0  0  0
  1  2  1  0
  2  3  1  0
  3  4  1  0
  4  5  2  0
  5  6  1  0
  6  7  1  0
  6  8  2  0
  8  9  1  0
  9 10  1  0
 10 11  1  0
 11 12  1  0
 11 13  2  0
  8 14  1  0
 14 15  1  0
 15 16  1  0
 16 17  2  0
 17 18  1  0
 18 19  2  0
 19 20  1  0
 20 21  2  0
 21 22  1  0
 22 23  2  0
 23 24  1  0
 24 25  2  0
 25 26  1  0
 26 27  2  0
 26 28  1  0
 19 29  1  0
 29 30  2  0
 14  4  1  0
 30 16  1  0
 25 20  1  0
  1 31  1  0
  1 32  1  0
  1 33  1  0
  2 34  1  0
  2 35  1  0
  3 36  1  0
  3 37  1  0
  7 38  1  0
  7 39  1  0
  7 40  1  0
  9 41  1  0
  9 42  1  0
 12 43  1  0
 12 44  1  0
 12 45  1  0
 15 46  1  0
 15 47  1  0
 17 48  1  0
 18 49  1  0
 21 50  1  0
 22 51  1  0
 23 52  1  0
 24 53  1  0
 29 54  1  0
 30 55  1  0
M  CHG  1  28  -1
M  END
>  <UniqueID>  (35) 
34

>  <SMILES>  (35) 
CCCc1nc(C)c(COC(C)=O)n1Cc1ccc(-c2ccccc2C(=O)[O-])cc1

>  <Energy>  (35) 
84.33759702278412

>  <Genealogy>  (35) 
CCCc1nc(C)c(COC(C)=O)n1Cc1ccc(-c2ccccc2C(=O)[O-])cc1 (protonated)
CCCc1nc(C)c(COC(C)=O)n1Cc1ccc(-c2ccccc2C(=O)[O-])cc1 (3D coordinates assigned)
CCCc1nc(C)c(COC(C)=O)n1Cc1ccc(-c2ccccc2C(=O)[O-])cc1 (optimized conformer: 84.33759702278412 kcal/mol)

>  <smiles>  (35) 
CCCc1nc(C)c(COC(C)=O)n1Cc1ccc(-c2ccccc2C(=O)O)cc1

>  <score_type>  (35) 
oracle

>  <origin>  (35) 
adg

>  <m_score__min__energy>  (35) 
-12

>  <m_primary>  (35) 
energy

$$$$
35:0
     RDKit          3D

 40 42  0  0  0  0  0  0  0  0999 V2000
   -4.1990   23.5980  -31.3010 O   0  0  0  0  0  0  0  0  0  0  0  0
   -3.6220   22.6470  -30.7070 C   0  0  0  0  0  0  0  0  0  0  0  0
   -3.6970   21.3140  -31.2420 N   0  0  0  0  0  0  0  0  0  0  0  0
   -4.5210   20.9820  -32.4100 C   0  0  0  0  0  0  0  0  0  0  0  0
   -5.8350   20.2440  -32.0310 C   0  0  1  0  0  0  0  0  0  0  0  0
   -7.0840   21.1200  -31.9770 C   0  0  0  0  0  0  0  0  0  0  0  0
   -7.0340   22.5290  -31.9940 C   0  0  0  0  0  0  0  0  0  0  0  0
   -8.2140   23.2810  -31.9840 C   0  0  0  0  0  0  0  0  0  0  0  0
   -9.4550   22.6420  -31.9690 C   0  0  0  0  0  0  0  0  0  0  0  0
   -9.5200   21.2480  -31.9660 C   0  0  0  0  0  0  0  0  0  0  0  0
   -8.3440   20.4910  -31.9750 C   0  0  0  0  0  0  0  0  0  0  0  0
   -6.0680   19.0000  -32.8710 C   0  0  0  0  0  0  0  0  0  0  0  0
   -5.7770   18.9670  -34.2460 C   0  0  0  0  0  0  0  0  0  0  0  0
   -5.9400   17.8190  -34.9510 N   0  0  0  0  0  0  0  0  0  0  0  0
   -6.3800   16.6850  -34.3470 C   0  0  0  0  0  0  0  0  0  0  0  0
   -6.6580   16.6860  -33.0190 N   0  0  0  0  0  0  0  0  0  0  0  0
   -6.5100   17.8110  -32.2740 C   0  0  0  0  0  0  0  0  0  0  0  0
   -2.9280   22.9120  -29.4300 C   0  0  0  0  0  0  0  0  0  0  0  0
   -2.5310   21.8310  -28.6220 C   0  0  0  0  0  0  0  0  0  0  0  0
   -1.8590   22.0570  -27.4180 C   0  0  0  0  0  0  0  0  0  0  0  0
   -1.5830   23.3610  -27.0040 C   0  0  0  0  0  0  0  0  0  0  0  0
   -1.9860   24.4440  -27.7900 C   0  0  0  0  0  0  0  0  0  0  0  0
   -2.6580   24.2260  -28.9980 C   0  0  0  0  0  0  0  0  0  0  0  0
   -3.0810   25.2990  -29.7130 F   0  0  0  0  0  0  0  0  0  0  0  0
   -3.2950   20.5310  -30.6840 H   0  0  0  0  0  0  0  0  0  0  0  0
   -4.7801   21.9141  -32.9335 H   0  0  0  0  0  0  0  0  0  0  0  0
   -3.9335   20.3050  -33.0476 H   0  0  0  0  0  0  0  0  0  0  0  0
   -5.6629   19.9301  -30.9909 H   0  0  0  0  0  0  0  0  0  0  0  0
   -6.0605   23.0407  -32.0153 H   0  0  0  0  0  0  0  0  0  0  0  0
   -8.1635   24.3798  -31.9880 H   0  0  0  0  0  0  0  0  0  0  0  0
  -10.3805   23.2365  -31.9596 H   0  0  0  0  0  0  0  0  0  0  0  0
  -10.4976   20.7438  -31.9565 H   0  0  0  0  0  0  0  0  0  0  0  0
   -8.4039   19.3926  -31.9806 H   0  0  0  0  0  0  0  0  0  0  0  0
   -5.4161   19.8746  -34.7520 H   0  0  0  0  0  0  0  0  0  0  0  0
   -6.5111   15.7647  -34.9351 H   0  0  0  0  0  0  0  0  0  0  0  0
   -6.7377   17.7897  -31.1980 H   0  0  0  0  0  0  0  0  0  0  0  0
   -2.7510   20.8012  -28.9401 H   0  0  0  0  0  0  0  0  0  0  0  0
   -1.5469   21.2056  -26.7953 H   0  0  0  0  0  0  0  0  0  0  0  0
   -1.0482   23.5363  -26.0589 H   0  0  0  0  0  0  0  0  0  0  0  0
   -1.7743   25.4711  -27.4580 H   0  0  0  0  0  0  0  0  0  0  0  0
  1  2  2  0
  2  3  1  0
  3  4  1  0
  4  5  1  0
  5  6  1  0
  6  7  2  0
  7  8  1  0
  8  9  2  0
  9 10  1  0
 10 11  2  0
  5 12  1  0
 12 13  2  0
 13 14  1  0
 14 15  2  0
 15 16  1  0
 16 17  2  0
  2 18  1  0
 18 19  2  0
 19 20  1  0
 20 21  2  0
 21 22  1  0
 22 23  2  0
 23 24  1  0
 11  6  1  0
 17 12  1  0
 23 18  1  0
  3 25  1  0
  4 26  1  0
  4 27  1  0
  5 28  1  1
  7 29  1  0
  8 30  1  0
  9 31  1  0
 10 32  1  0
 11 33  1  0
 13 34  1  0
 15 35  1  0
 17 36  1  0
 19 37  1  0
 20 38  1  0
 21 39  1  0
 22 40  1  0
M  END
>  <UniqueID>  (36) 
35

>  <SMILES>  (36) 
O=C(NC[C@@H](c1ccccc1)c1cncnc1)c1ccccc1F

>  <Energy>  (36) 
50.97937374390015

>  <Genealogy>  (36) 
O=C(NC[C@@H](c1ccccc1)c1cncnc1)c1ccccc1F (chirality)
O=C(NC[C@@H](c1ccccc1)c1cncnc1)c1ccccc1F (3D coordinates assigned)
O=C(NC[C@@H](c1ccccc1)c1cncnc1)c1ccccc1F (optimized conformer: 50.97937374390015 kcal/mol)

>  <smiles>  (36) 
O=C(NCC(c1ccccc1)c1cncnc1)c1ccccc1F

>  <score_type>  (36) 
oracle

>  <origin>  (36) 
adg

>  <m_score__min__energy>  (36) 
-8.1400000000000006

>  <m_primary>  (36) 
energy

$$$$
36:0
     RDKit          3D

 37 40  0  0  0  0  0  0  0  0999 V2000
   -9.5710   21.5800  -31.7290 C   0  0  0  0  0  0  0  0  0  0  0  0
   -8.1000   21.3160  -31.8710 C   0  0  0  0  0  0  0  0  0  0  0  0
   -7.6240   20.1120  -32.4210 C   0  0  0  0  0  0  0  0  0  0  0  0
   -6.2370   19.8850  -32.5860 C   0  0  0  0  0  0  0  0  0  0  0  0
   -5.7890   18.6190  -33.2140 C   0  0  0  0  0  0  0  0  0  0  0  0
   -5.3720   18.5950  -34.5570 C   0  0  0  0  0  0  0  0  0  0  0  0
   -4.9470   17.3990  -35.1430 C   0  0  0  0  0  0  0  0  0  0  0  0
   -4.9440   16.2170  -34.3970 C   0  0  0  0  0  0  0  0  0  0  0  0
   -5.3690   16.2280  -33.0660 C   0  0  0  0  0  0  0  0  0  0  0  0
   -5.7950   17.4230  -32.4760 C   0  0  0  0  0  0  0  0  0  0  0  0
   -5.3220   20.8960  -32.1820 C   0  0  0  0  0  0  0  0  0  0  0  0
   -3.8540   20.7120  -32.2570 C   0  0  0  0  0  0  0  0  0  0  0  0
   -3.1110   20.4240  -31.1000 C   0  0  0  0  0  0  0  0  0  0  0  0
   -1.7270   20.2440  -31.1780 C   0  0  0  0  0  0  0  0  0  0  0  0
   -1.0740   20.3550  -32.4080 C   0  0  0  0  0  0  0  0  0  0  0  0
   -1.8050   20.6500  -33.5620 C   0  0  0  0  0  0  0  0  0  0  0  0
   -3.1890   20.8300  -33.4890 C   0  0  0  0  0  0  0  0  0  0  0  0
   -5.8420   22.0510  -31.6800 N   0  0  0  0  0  0  0  0  0  0  0  0
   -5.1780   23.1040  -31.2430 N   0  0  0  0  0  0  0  0  0  0  0  0
   -6.1330   23.9690  -30.8340 C   0  0  0  0  0  0  0  0  0  0  0  0
   -5.7480   25.6850  -30.1030 Br  0  0  0  0  0  0  0  0  0  0  0  0
   -7.3930   23.4900  -30.9910 N   0  0  0  0  0  0  0  0  0  0  0  0
   -7.1510   22.2780  -31.5240 C   0  0  0  0  0  0  0  0  0  0  0  0
   -9.8337   21.6272  -30.6619 H   0  0  0  0  0  0  0  0  0  0  0  0
   -9.8199   22.5372  -32.2105 H   0  0  0  0  0  0  0  0  0  0  0  0
  -10.1372   20.7691  -32.2105 H   0  0  0  0  0  0  0  0  0  0  0  0
   -8.3404   19.3355  -32.7273 H   0  0  0  0  0  0  0  0  0  0  0  0
   -5.3803   19.5219  -35.1492 H   0  0  0  0  0  0  0  0  0  0  0  0
   -4.6148   17.3882  -36.1916 H   0  0  0  0  0  0  0  0  0  0  0  0
   -4.6067   15.2771  -34.8583 H   0  0  0  0  0  0  0  0  0  0  0  0
   -5.3687   15.2962  -32.4814 H   0  0  0  0  0  0  0  0  0  0  0  0
   -6.1360   17.4264  -31.4302 H   0  0  0  0  0  0  0  0  0  0  0  0
   -3.6204   20.3398  -30.1287 H   0  0  0  0  0  0  0  0  0  0  0  0
   -1.1511   20.0146  -30.2693 H   0  0  0  0  0  0  0  0  0  0  0  0
    0.0148   20.2103  -32.4681 H   0  0  0  0  0  0  0  0  0  0  0  0
   -1.2900   20.7407  -34.5298 H   0  0  0  0  0  0  0  0  0  0  0  0
   -3.7598   21.0649  -34.3995 H   0  0  0  0  0  0  0  0  0  0  0  0
  1  2  1  0
  2  3  2  0
  3  4  1  0
  4  5  1  0
  5  6  2  0
  6  7  1  0
  7  8  2  0
  8  9  1  0
  9 10  2  0
  4 11  2  0
 11 12  1  0
 12 13  2  0
 13 14  1  0
 14 15  2  0
 15 16  1  0
 16 17  2  0
 11 18  1  0
 18 19  1  0
 19 20  2  0
 20 21  1  0
 20 22  1  0
 22 23  2  0
 23  2  1  0
 10  5  1  0
 17 12  1  0
 23 18  1  0
  1 24  1  0
  1 25  1  0
  1 26  1  0
  3 27  1  0
  6 28  1  0
  7 29  1  0
  8 30  1  0
  9 31  1  0
 10 32  1  0
 13 33  1  0
 14 34  1  0
 15 35  1  0
 16 36  1  0
 17 37  1  0
M  END
>  <UniqueID>  (37) 
36

>  <SMILES>  (37) 
Cc1cc(-c2ccccc2)c(-c2ccccc2)n2nc(Br)nc12

>  <Energy>  (37) 
91.37594846952803

>  <Genealogy>  (37) 
Cc1cc(-c2ccccc2)c(-c2ccccc2)n2nc(Br)nc12 (3D coordinates assigned)
Cc1cc(-c2ccccc2)c(-c2ccccc2)n2nc(Br)nc12 (optimized conformer: 91.37594846952803 kcal/mol)

>  <smiles>  (37) 
Cc1cc(-c2ccccc2)c(-c2ccccc2)n2nc(Br)nc12

>  <score_type>  (37) 
oracle

>  <origin>  (37) 
adg

>  <m_score__min__energy>  (37) 
-8.8399999999999999

>  <m_primary>  (37) 
energy

$$$$
37:0
     RDKit          3D

 53 55  0  0  0  0  0  0  0  0999 V2000
   -2.3360   24.7120  -28.7090 C   0  0  0  0  0  0  0  0  0  0  0  0
   -3.1330   24.9750  -29.8580 O   0  0  0  0  0  0  0  0  0  0  0  0
   -4.4470   24.5140  -30.0410 C   0  0  0  0  0  0  0  0  0  0  0  0
   -5.5320   25.4070  -30.1490 C   0  0  0  0  0  0  0  0  0  0  0  0
   -6.8340   24.9270  -30.2930 C   0  0  0  0  0  0  0  0  0  0  0  0
   -7.0740   23.5540  -30.3160 C   0  0  0  0  0  0  0  0  0  0  0  0
   -6.0110   22.6570  -30.2170 C   0  0  0  0  0  0  0  0  0  0  0  0
   -4.6880   23.1210  -30.1130 C   0  0  0  0  0  0  0  0  0  0  0  0
   -3.5520   22.1180  -30.0690 C   0  0  0  0  0  0  0  0  0  0  0  0
   -2.7690   22.0420  -31.3250 N   0  0  0  0  0  0  0  0  0  0  0  0
   -3.5220   22.2130  -32.5880 C   0  0  0  0  0  0  0  0  0  0  0  0
   -3.3650   21.0200  -33.5460 C   0  0  0  0  0  0  0  0  0  0  0  0
   -3.2850   19.7620  -32.7860 N   0  0  0  0  0  0  0  0  0  0  0  0
   -3.3630   18.6200  -33.6750 C   0  0  0  0  0  0  0  0  0  0  0  0
   -2.4370   18.3640  -34.4360 O   0  0  0  0  0  0  0  0  0  0  0  0
   -4.5980   17.7610  -33.6870 C   0  0  0  0  0  0  0  0  0  0  0  0
   -5.3570   17.9530  -32.4940 O   0  0  0  0  0  0  0  0  0  0  0  0
   -6.4430   18.8340  -32.3820 C   0  0  0  0  0  0  0  0  0  0  0  0
   -6.3900   20.1620  -32.8470 C   0  0  0  0  0  0  0  0  0  0  0  0
   -7.5000   21.0010  -32.7120 C   0  0  0  0  0  0  0  0  0  0  0  0
   -8.6810   20.5250  -32.1250 C   0  0  0  0  0  0  0  0  0  0  0  0
   -9.8580   21.4360  -31.9460 C   0  0  0  0  0  0  0  0  0  0  0  0
   -8.7290   19.2070  -31.6470 C   0  0  0  0  0  0  0  0  0  0  0  0
   -7.6180   18.3680  -31.7820 C   0  0  0  0  0  0  0  0  0  0  0  0
   -2.0500   19.7040  -31.9750 C   0  0  0  0  0  0  0  0  0  0  0  0
   -1.6600   21.0680  -31.3570 C   0  0  0  0  0  0  0  0  0  0  0  0
   -2.9259   24.9067  -27.8012 H   0  0  0  0  0  0  0  0  0  0  0  0
   -2.0144   23.6601  -28.7188 H   0  0  0  0  0  0  0  0  0  0  0  0
   -1.4515   25.3659  -28.7188 H   0  0  0  0  0  0  0  0  0  0  0  0
   -5.3507   26.4916  -30.1195 H   0  0  0  0  0  0  0  0  0  0  0  0
   -7.6723   25.6328  -30.3885 H   0  0  0  0  0  0  0  0  0  0  0  0
   -8.1031   23.1777  -30.4124 H   0  0  0  0  0  0  0  0  0  0  0  0
   -6.2097   21.5751  -30.2203 H   0  0  0  0  0  0  0  0  0  0  0  0
   -2.8710   22.4016  -29.2530 H   0  0  0  0  0  0  0  0  0  0  0  0
   -4.0060   21.1279  -29.9154 H   0  0  0  0  0  0  0  0  0  0  0  0
   -4.5887   22.3314  -32.3471 H   0  0  0  0  0  0  0  0  0  0  0  0
   -3.1157   23.0997  -33.0965 H   0  0  0  0  0  0  0  0  0  0  0  0
   -4.2317   20.9810  -34.2222 H   0  0  0  0  0  0  0  0  0  0  0  0
   -2.4395   21.1468  -34.1268 H   0  0  0  0  0  0  0  0  0  0  0  0
   -4.1090   19.7190  -32.1440 H   0  0  0  0  0  0  0  0  0  0  0  0
   -5.2166   18.0300  -34.5559 H   0  0  0  0  0  0  0  0  0  0  0  0
   -4.2943   16.7055  -33.7471 H   0  0  0  0  0  0  0  0  0  0  0  0
   -5.4712   20.5409  -33.3185 H   0  0  0  0  0  0  0  0  0  0  0  0
   -7.4466   22.0403  -33.0683 H   0  0  0  0  0  0  0  0  0  0  0  0
  -10.0480   21.5830  -30.8725 H   0  0  0  0  0  0  0  0  0  0  0  0
   -9.6451   22.4070  -32.4171 H   0  0  0  0  0  0  0  0  0  0  0  0
  -10.7446   20.9865  -32.4171 H   0  0  0  0  0  0  0  0  0  0  0  0
   -9.6436   18.8320  -31.1643 H   0  0  0  0  0  0  0  0  0  0  0  0
   -7.6685   17.3329  -31.4133 H   0  0  0  0  0  0  0  0  0  0  0  0
   -2.2013   18.9815  -31.1595 H   0  0  0  0  0  0  0  0  0  0  0  0
   -1.2322   19.4046  -32.6470 H   0  0  0  0  0  0  0  0  0  0  0  0
   -1.3175   20.8972  -30.3257 H   0  0  0  0  0  0  0  0  0  0  0  0
   -0.8726   21.4971  -31.9941 H   0  0  0  0  0  0  0  0  0  0  0  0
  1  2  1  0
  2  3  1  0
  3  4  2  0
  4  5  1  0
  5  6  2  0
  6  7  1  0
  7  8  2  0
  8  9  1  0
  9 10  1  0
 10 11  1  0
 11 12  1  0
 12 13  1  0
 13 14  1  0
 14 15  2  0
 14 16  1  0
 16 17  1  0
 17 18  1  0
 18 19  2  0
 19 20  1  0
 20 21  2  0
 21 22  1  0
 21 23  1  0
 23 24  2  0
 13 25  1  0
 25 26  1  0
  8  3  1  0
 26 10  1  0
 24 18  1  0
  1 27  1  0
  1 28  1  0
  1 29  1  0
  4 30  1  0
  5 31  1  0
  6 32  1  0
  7 33  1  0
  9 34  1  0
  9 35  1  0
 11 36  1  0
 11 37  1  0
 12 38  1  0
 12 39  1  0
 13 40  1  0
 16 41  1  0
 16 42  1  0
 19 43  1  0
 20 44  1  0
 22 45  1  0
 22 46  1  0
 22 47  1  0
 23 48  1  0
 24 49  1  0
 25 50  1  0
 25 51  1  0
 26 52  1  0
 26 53  1  0
M  CHG  1  13   1
M  END
>  <UniqueID>  (38) 
37

>  <SMILES>  (38) 
COc1ccccc1CN1CC[NH+](C(=O)COc2ccc(C)cc2)CC1

>  <Energy>  (38) 
68.66825649306159

>  <Genealogy>  (38) 
COc1ccccc1CN1CC[NH+](C(=O)COc2ccc(C)cc2)CC1 (protonated)
COc1ccccc1CN1CC[NH+](C(=O)COc2ccc(C)cc2)CC1 (3D coordinates assigned)
COc1ccccc1CN1CC[NH+](C(=O)COc2ccc(C)cc2)CC1 (nonaromatic ring conformer: 68.66825649306159 kcal/mol)

>  <smiles>  (38) 
COc1ccccc1CN1CCN(C(=O)COc2ccc(C)cc2)CC1

>  <score_type>  (38) 
oracle

>  <origin>  (38) 
adg

>  <m_score__min__energy>  (38) 
-7.7000000000000002

>  <m_primary>  (38) 
energy

$$$$
38:0
     RDKit          3D

 46 48  0  0  0  0  0  0  0  0999 V2000
   -4.9766   25.5798  -30.1133 H   0  0  0  0  0  0  0  0  0  0  0  0
   -4.9860   24.5520  -30.5050 C   0  0  0  0  0  0  0  0  0  0  0  0
   -5.7340   24.3120  -31.5930 C   0  0  0  0  0  0  0  0  0  0  0  0
   -5.6843   25.0417  -32.4146 H   0  0  0  0  0  0  0  0  0  0  0  0
   -6.6250   23.1350  -31.7730 C   0  0  0  0  0  0  0  0  0  0  0  0
   -7.9880   23.2760  -31.4820 C   0  0  0  0  0  0  0  0  0  0  0  0
   -8.3776   24.2413  -31.1263 H   0  0  0  0  0  0  0  0  0  0  0  0
   -8.8440   22.2010  -31.6420 C   0  0  0  0  0  0  0  0  0  0  0  0
   -9.9286   22.3367  -31.5185 H   0  0  0  0  0  0  0  0  0  0  0  0
   -8.3290   20.9460  -31.9600 C   0  0  0  0  0  0  0  0  0  0  0  0
   -9.2010   19.8570  -32.0910 C   0  0  0  0  0  0  0  0  0  0  0  0
  -10.2862   20.0093  -31.9955 H   0  0  0  0  0  0  0  0  0  0  0  0
   -8.7000   18.5860  -32.3410 C   0  0  0  0  0  0  0  0  0  0  0  0
   -9.3908   17.7466  -32.5092 H   0  0  0  0  0  0  0  0  0  0  0  0
   -7.3260   18.3730  -32.3790 C   0  0  0  0  0  0  0  0  0  0  0  0
   -6.9398   17.3564  -32.5445 H   0  0  0  0  0  0  0  0  0  0  0  0
   -6.4230   19.4380  -32.2090 C   0  0  0  0  0  0  0  0  0  0  0  0
   -4.9810   19.0620  -31.9680 C   0  0  0  0  0  0  0  0  0  0  0  0
   -4.7910   19.0124  -30.8857 H   0  0  0  0  0  0  0  0  0  0  0  0
   -4.7773   18.0807  -32.4214 H   0  0  0  0  0  0  0  0  0  0  0  0
   -4.3240   19.8189  -32.4214 H   0  0  0  0  0  0  0  0  0  0  0  0
   -6.9250   20.7800  -32.1240 C   0  0  0  0  0  0  0  0  0  0  0  0
   -6.1230   21.9140  -32.1760 N   0  0  0  0  0  0  0  0  0  0  0  0
   -4.7990   21.8950  -32.8300 C   0  0  0  0  0  0  0  0  0  0  0  0
   -4.0111   21.8837  -32.0625 H   0  0  0  0  0  0  0  0  0  0  0  0
   -4.7128   20.9955  -33.4573 H   0  0  0  0  0  0  0  0  0  0  0  0
   -4.6870   22.7916  -33.4573 H   0  0  0  0  0  0  0  0  0  0  0  0
   -4.1720   23.5420  -29.7900 C   0  0  0  0  0  0  0  0  0  0  0  0
   -3.0280   22.9730  -30.3720 C   0  0  0  0  0  0  0  0  0  0  0  0
   -2.7124   23.2871  -31.3778 H   0  0  0  0  0  0  0  0  0  0  0  0
   -2.2880   22.0100  -29.6810 C   0  0  0  0  0  0  0  0  0  0  0  0
   -1.3851   21.5847  -30.1435 H   0  0  0  0  0  0  0  0  0  0  0  0
   -2.6830   21.5760  -28.3990 C   0  0  0  0  0  0  0  0  0  0  0  0
   -1.9110   20.5800  -27.6780 N   0  0  0  0  0  0  0  0  0  0  0  0
   -0.4450   20.5890  -27.7360 C   0  0  0  0  0  0  0  0  0  0  0  0
   -0.0376   20.5915  -26.7142 H   0  0  0  0  0  0  0  0  0  0  0  0
   -0.0936   19.6930  -28.2686 H   0  0  0  0  0  0  0  0  0  0  0  0
   -0.1046   21.4893  -28.2686 H   0  0  0  0  0  0  0  0  0  0  0  0
   -2.5840   19.5500  -26.8770 C   0  0  0  0  0  0  0  0  0  0  0  0
   -2.4426   19.7664  -25.8078 H   0  0  0  0  0  0  0  0  0  0  0  0
   -3.6587   19.5472  -27.1115 H   0  0  0  0  0  0  0  0  0  0  0  0
   -2.1550   18.5646  -27.1115 H   0  0  0  0  0  0  0  0  0  0  0  0
   -3.8520   22.1320  -27.8390 C   0  0  0  0  0  0  0  0  0  0  0  0
   -4.1872   21.8029  -26.8444 H   0  0  0  0  0  0  0  0  0  0  0  0
   -4.5900   23.0960  -28.5320 C   0  0  0  0  0  0  0  0  0  0  0  0
   -5.5068   23.5071  -28.0843 H   0  0  0  0  0  0  0  0  0  0  0  0
  1  2  1  0
  2  3  2  0
  3  4  1  0
  3  5  1  0
  5  6  2  0
  6  7  1  0
  6  8  1  0
  8  9  1  0
  8 10  2  0
 10 11  1  0
 11 12  1  0
 11 13  2  0
 13 14  1  0
 13 15  1  0
 15 16  1  0
 15 17  2  0
 17 18  1  0
 18 19  1  0
 18 20  1  0
 18 21  1  0
 17 22  1  0
 22 23  2  0
 23 24  1  0
 24 25  1  0
 24 26  1  0
 24 27  1  0
  2 28  1  0
 28 29  2  0
 29 30  1  0
 29 31  1  0
 31 32  1  0
 31 33  2  0
 33 34  1  0
 34 35  1  0
 35 36  1  0
 35 37  1  0
 35 38  1  0
 34 39  1  0
 39 40  1  0
 39 41  1  0
 39 42  1  0
 33 43  1  0
 43 44  1  0
 43 45  2  0
 45 46  1  0
 23  5  1  0
 45 28  1  0
 22 10  1  0
M  CHG  1  23   1
M  END
>  <UniqueID>  (39) 
38

>  <SMILES>  (39) 
Cc1cccc2ccc(/C=C\c3ccc(N(C)C)cc3)[n+](C)c12

>  <Energy>  (39) 
81.35276168606727

>  <Genealogy>  (39) 
Cc1cccc2ccc(/C=C\c3ccc(N(C)C)cc3)[n+](C)c12 (cis-trans isomerization)
Cc1cccc2ccc(/C=C\c3ccc(N(C)C)cc3)[n+](C)c12 (3D coordinates assigned)
Cc1cccc2ccc(/C=C\c3ccc(N(C)C)cc3)[n+](C)c12 (optimized conformer: 81.35276168606727 kcal/mol)

>  <smiles>  (39) 
Cc1cccc2ccc(C=Cc3ccc(N(C)C)cc3)[n+](C)c12

>  <score_type>  (39) 
oracle

>  <origin>  (39) 
adg

>  <m_score__min__energy>  (39) 
-7.75

>  <m_primary>  (39) 
energy

$$$$
39:0
     RDKit          3D

 31 31  0  0  0  0  0  0  0  0999 V2000
   -4.1710   23.6230  -29.1270 C   0  0  0  0  0  0  0  0  0  0  0  0
   -3.4190   24.7670  -29.7370 C   0  0  0  0  0  0  0  0  0  0  0  0
   -3.8610   25.2980  -30.7880 O   0  0  0  0  0  0  0  0  0  0  0  0
   -2.2280   25.2970  -29.1380 N   0  0  0  0  0  0  0  0  0  0  0  0
   -1.4140   24.6280  -28.1660 C   0  0  0  0  0  0  0  0  0  0  0  0
   -0.4810   23.6810  -28.6040 C   0  0  0  0  0  0  0  0  0  0  0  0
    0.3360   23.0200  -27.6840 C   0  0  0  0  0  0  0  0  0  0  0  0
    0.2140   23.2870  -26.3190 C   0  0  0  0  0  0  0  0  0  0  0  0
   -0.7470   24.2010  -25.8590 C   0  0  0  0  0  0  0  0  0  0  0  0
   -0.8600   24.4850  -24.3770 C   0  0  0  0  0  0  0  0  0  0  0  0
    0.2600   25.3080  -23.8870 N   0  0  0  0  0  0  0  0  0  0  0  0
    0.5610   26.4280  -24.7980 C   0  0  0  0  0  0  0  0  0  0  0  0
   -0.4120   27.5950  -24.5920 C   0  0  0  0  0  0  0  0  0  0  0  0
   -1.2670   27.3420  -23.5090 O   0  0  0  0  0  0  0  0  0  0  0  0
   -1.5700   24.8660  -26.7890 C   0  0  0  0  0  0  0  0  0  0  0  0
   -2.5410   25.7070  -26.3520 F   0  0  0  0  0  0  0  0  0  0  0  0
   -4.1231   23.6958  -28.0305 H   0  0  0  0  0  0  0  0  0  0  0  0
   -5.2214   23.6601  -29.4514 H   0  0  0  0  0  0  0  0  0  0  0  0
   -3.7204   22.6734  -29.4514 H   0  0  0  0  0  0  0  0  0  0  0  0
   -0.3908   23.4564  -29.6771 H   0  0  0  0  0  0  0  0  0  0  0  0
    1.0773   22.2873  -28.0357 H   0  0  0  0  0  0  0  0  0  0  0  0
    0.8740   22.7787  -25.6007 H   0  0  0  0  0  0  0  0  0  0  0  0
   -1.8028   25.0194  -24.1884 H   0  0  0  0  0  0  0  0  0  0  0  0
   -0.8348   23.5235  -23.8433 H   0  0  0  0  0  0  0  0  0  0  0  0
   -0.0140   25.6930  -22.9540 H   0  0  0  0  0  0  0  0  0  0  0  0
    1.1100   24.7110  -23.7610 H   0  0  0  0  0  0  0  0  0  0  0  0
    1.5859   26.7788  -24.6071 H   0  0  0  0  0  0  0  0  0  0  0  0
    0.4570   26.0696  -25.8328 H   0  0  0  0  0  0  0  0  0  0  0  0
    0.1613   28.5124  -24.3929 H   0  0  0  0  0  0  0  0  0  0  0  0
   -1.0190   27.7144  -25.5016 H   0  0  0  0  0  0  0  0  0  0  0  0
   -2.1750   27.1980  -23.8830 H   0  0  0  0  0  0  0  0  0  0  0  0
  1  2  1  0
  2  3  2  0
  2  4  1  0
  4  5  1  0
  5  6  2  0
  6  7  1  0
  7  8  2  0
  8  9  1  0
  9 10  1  0
 10 11  1  0
 11 12  1  0
 12 13  1  0
 13 14  1  0
  9 15  2  0
 15 16  1  0
 15  5  1  0
  1 17  1  0
  1 18  1  0
  1 19  1  0
  6 20  1  0
  7 21  1  0
  8 22  1  0
 10 23  1  0
 10 24  1  0
 11 25  1  0
 11 26  1  0
 12 27  1  0
 12 28  1  0
 13 29  1  0
 13 30  1  0
 14 31  1  0
M  CHG  2   4  -1  11   1
M  END
>  <UniqueID>  (40) 
39

>  <SMILES>  (40) 
CC(=O)[N-]c1cccc(C[NH2+]CCO)c1F

>  <Energy>  (40) 
31.24666692355094

>  <Genealogy>  (40) 
CC(=O)[N-]c1cccc(C[NH2+]CCO)c1F (protonated)
CC(=O)[N-]c1cccc(C[NH2+]CCO)c1F (3D coordinates assigned)
CC(=O)[N-]c1cccc(C[NH2+]CCO)c1F (optimized conformer: 31.24666692355094 kcal/mol)

>  <smiles>  (40) 
CC(=O)Nc1cccc(CNCCO)c1F

>  <score_type>  (40) 
oracle

>  <origin>  (40) 
adg

>  <m_score__min__energy>  (40) 
-7.29

>  <m_primary>  (40) 
energy

$$$$
40:0
     RDKit          3D

 15 15  0  0  0  0  0  0  0  0999 V2000
   -1.8050   27.5450  -37.7740 C   0  0  0  0  0  0  0  0  0  0  0  0
   -2.0160   28.3130  -36.4750 C   0  0  0  0  0  0  0  0  0  0  0  0
   -0.7400   28.5200  -35.7980 N   0  0  0  0  0  0  0  0  0  0  0  0
    0.3270   29.0210  -36.3470 O   0  0  0  0  0  0  0  0  0  0  0  0
    1.2660   29.1320  -35.4300 C   0  0  0  0  0  0  0  0  0  0  0  0
    0.8180   28.7080  -34.2300 N   0  0  0  0  0  0  0  0  0  0  0  0
   -0.4460   28.3400  -34.5000 C   0  0  0  0  0  0  0  0  0  0  0  0
   -1.2500   27.8930  -33.6410 O   0  0  0  0  0  0  0  0  0  0  0  0
   -1.5200   26.5076  -37.5445 H   0  0  0  0  0  0  0  0  0  0  0  0
   -2.7374   27.5485  -38.3576 H   0  0  0  0  0  0  0  0  0  0  0  0
   -1.0053   28.0244  -38.3576 H   0  0  0  0  0  0  0  0  0  0  0  0
   -2.4704   29.2892  -36.6999 H   0  0  0  0  0  0  0  0  0  0  0  0
   -2.6800   27.7315  -35.8185 H   0  0  0  0  0  0  0  0  0  0  0  0
    2.2788   29.5183  -35.6172 H   0  0  0  0  0  0  0  0  0  0  0  0
    1.3250   28.6840  -33.3170 H   0  0  0  0  0  0  0  0  0  0  0  0
  1  2  1  0
  2  3  1  0
  3  4  1  0
  4  5  1  0
  5  6  2  0
  6  7  1  0
  7  8  2  0
  7  3  1  0
  1  9  1  0
  1 10  1  0
  1 11  1  0
  2 12  1  0
  2 13  1  0
  5 14  1  0
  6 15  1  0
M  CHG  1   6   1
M  END
>  <UniqueID>  (41) 
40

>  <SMILES>  (41) 
CCn1oc[nH+]c1=O

>  <Energy>  (41) 
47.186416095027354

>  <Genealogy>  (41) 
CCn1oc[nH+]c1=O (protonated)
CCn1oc[nH+]c1=O (3D coordinates assigned)
CCn1oc[nH+]c1=O (optimized conformer: 47.186416095027354 kcal/mol)

>  <smiles>  (41) 
CCn1ocnc1=O

>  <score_type>  (41) 
oracle

>  <origin>  (41) 
adg

>  <m_score__min__energy>  (41) 
-3.4300000000000002

>  <m_primary>  (41) 
energy

$$$$
41:0
     RDKit          3D

 47 49  0  0  0  0  0  0  0  0999 V2000
   -6.0530   25.4170  -29.2510 O   0  0  0  0  0  0  0  0  0  0  0  0
   -5.1970   24.5430  -30.1260 S   0  0  0  0  0  0  0  0  0  0  0  0
   -4.6410   25.3940  -31.2330 O   0  0  0  0  0  0  0  0  0  0  0  0
   -6.1970   23.2610  -30.8190 C   0  0  0  0  0  0  0  0  0  0  0  0
   -7.4080   22.8990  -30.2110 C   0  0  0  0  0  0  0  0  0  0  0  0
   -8.2080   21.9000  -30.7770 C   0  0  0  0  0  0  0  0  0  0  0  0
   -7.8010   21.2570  -31.9500 C   0  0  0  0  0  0  0  0  0  0  0  0
   -8.8080   20.0090  -32.6610 Cl  0  0  0  0  0  0  0  0  0  0  0  0
   -6.5920   21.6120  -32.5570 C   0  0  0  0  0  0  0  0  0  0  0  0
   -5.7900   22.6090  -31.9920 C   0  0  0  0  0  0  0  0  0  0  0  0
   -3.8840   23.8870  -29.1780 N   0  0  0  0  0  0  0  0  0  0  0  0
   -4.4110   23.0790  -28.0710 C   0  0  0  0  0  0  0  0  0  0  0  0
   -3.2720   22.7800  -27.0950 C   0  0  0  0  0  0  0  0  0  0  0  0
   -2.0140   22.5080  -27.8070 N   0  0  0  0  0  0  0  0  0  0  0  0
   -0.7820   22.3780  -27.0620 C   0  0  0  0  0  0  0  0  0  0  0  0
   -0.7910   21.9480  -25.4790 S   0  0  0  0  0  0  0  0  0  0  0  0
    0.8140   22.6800  -27.8340 S   0  0  0  0  0  0  0  0  0  0  0  0
    0.9260   24.4270  -27.2980 C   0  0  0  0  0  0  0  0  0  0  0  0
    1.3330   24.5350  -25.8250 C   0  0  0  0  0  0  0  0  0  0  0  0
    0.4380   25.4840  -25.0710 C   0  0  0  0  0  0  0  0  0  0  0  0
   -0.6090   26.1460  -25.7300 C   0  0  0  0  0  0  0  0  0  0  0  0
   -1.4220   26.9800  -25.0300 N   0  0  0  0  0  0  0  0  0  0  0  0
   -1.2390   27.1880  -23.7010 C   0  0  0  0  0  0  0  0  0  0  0  0
   -0.2050   26.5260  -23.0380 C   0  0  0  0  0  0  0  0  0  0  0  0
    0.6110   25.6880  -23.7330 N   0  0  0  0  0  0  0  0  0  0  0  0
   -2.0670   22.1420  -29.2300 C   0  0  0  0  0  0  0  0  0  0  0  0
   -2.9830   23.0920  -30.0350 C   0  0  0  0  0  0  0  0  0  0  0  0
   -7.7297   23.4016  -29.2869 H   0  0  0  0  0  0  0  0  0  0  0  0
   -9.1582   21.6203  -30.2985 H   0  0  0  0  0  0  0  0  0  0  0  0
   -6.2715   21.1065  -33.4799 H   0  0  0  0  0  0  0  0  0  0  0  0
   -4.8373   22.8824  -32.4691 H   0  0  0  0  0  0  0  0  0  0  0  0
   -5.2059   23.6353  -27.5527 H   0  0  0  0  0  0  0  0  0  0  0  0
   -4.8276   22.1380  -28.4597 H   0  0  0  0  0  0  0  0  0  0  0  0
   -3.1292   23.6480  -26.4346 H   0  0  0  0  0  0  0  0  0  0  0  0
   -3.5405   21.8866  -26.5121 H   0  0  0  0  0  0  0  0  0  0  0  0
    1.6759   24.9433  -27.9153 H   0  0  0  0  0  0  0  0  0  0  0  0
   -0.0645   24.8901  -27.4182 H   0  0  0  0  0  0  0  0  0  0  0  0
    1.2677   23.5391  -25.3626 H   0  0  0  0  0  0  0  0  0  0  0  0
    2.3616   24.9223  -25.7795 H   0  0  0  0  0  0  0  0  0  0  0  0
   -0.7707   25.9908  -26.8069 H   0  0  0  0  0  0  0  0  0  0  0  0
   -1.9008   27.8732  -23.1510 H   0  0  0  0  0  0  0  0  0  0  0  0
   -0.0505   26.6807  -21.9599 H   0  0  0  0  0  0  0  0  0  0  0  0
    1.3800   25.2020  -23.2230 H   0  0  0  0  0  0  0  0  0  0  0  0
   -1.0505   22.1894  -29.6476 H   0  0  0  0  0  0  0  0  0  0  0  0
   -2.4794   21.1250  -29.3056 H   0  0  0  0  0  0  0  0  0  0  0  0
   -2.3509   23.7815  -30.6139 H   0  0  0  0  0  0  0  0  0  0  0  0
   -3.6132   22.4684  -30.6861 H   0  0  0  0  0  0  0  0  0  0  0  0
  1  2  2  0
  2  3  2  0
  2  4  1  0
  4  5  2  0
  5  6  1  0
  6  7  2  0
  7  8  1  0
  7  9  1  0
  9 10  2  0
  2 11  1  0
 11 12  1  0
 12 13  1  0
 13 14  1  0
 14 15  1  0
 15 16  2  0
 15 17  1  0
 17 18  1  0
 18 19  1  0
 19 20  1  0
 20 21  2  0
 21 22  1  0
 22 23  2  0
 23 24  1  0
 24 25  2  0
 14 26  1  0
 26 27  1  0
 10  4  1  0
 27 11  1  0
 25 20  1  0
  5 28  1  0
  6 29  1  0
  9 30  1  0
 10 31  1  0
 12 32  1  0
 12 33  1  0
 13 34  1  0
 13 35  1  0
 18 36  1  0
 18 37  1  0
 19 38  1  0
 19 39  1  0
 21 40  1  0
 23 41  1  0
 24 42  1  0
 25 43  1  0
 26 44  1  0
 26 45  1  0
 27 46  1  0
 27 47  1  0
M  CHG  1  25   1
M  END
>  <UniqueID>  (42) 
41

>  <SMILES>  (42) 
O=S(=O)(c1ccc(Cl)cc1)N1CCN(C(=S)SCCc2cncc[nH+]2)CC1

>  <Energy>  (42) 
48.42222630096729

>  <Genealogy>  (42) 
O=S(=O)(c1ccc(Cl)cc1)N1CCN(C(=S)SCCc2cncc[nH+]2)CC1 (protonated)
O=S(=O)(c1ccc(Cl)cc1)N1CCN(C(=S)SCCc2cncc[nH+]2)CC1 (3D coordinates assigned)
O=S(=O)(c1ccc(Cl)cc1)N1CCN(C(=S)SCCc2cncc[nH+]2)CC1 (nonaromatic ring conformer: 48.42222630096729 kcal/mol)

>  <smiles>  (42) 
O=S(=O)(c1ccc(Cl)cc1)N1CCN(C(=S)SCCc2cnccn2)CC1

>  <score_type>  (42) 
oracle

>  <origin>  (42) 
adg

>  <m_score__min__energy>  (42) 
-10.1

>  <m_primary>  (42) 
energy

$$$$
42:0
     RDKit          3D

 41 42  0  0  0  0  0  0  0  0999 V2000
   -4.2090   23.3190  -27.5600 C   0  0  0  0  0  0  0  0  0  0  0  0
   -3.3950   24.5270  -27.7760 N   0  0  0  0  0  0  0  0  0  0  0  0
   -2.9910   25.1150  -26.4890 C   0  0  0  0  0  0  0  0  0  0  0  0
   -2.2180   24.2200  -28.5660 C   0  0  0  0  0  0  0  0  0  0  0  0
   -1.6470   25.1040  -29.1890 O   0  0  0  0  0  0  0  0  0  0  0  0
   -1.7180   22.7990  -28.6920 C   0  0  0  0  0  0  0  0  0  0  0  0
   -2.4860   22.0030  -29.7590 C   0  0  0  0  0  0  0  0  0  0  0  0
   -2.8510   22.8400  -30.9940 C   0  0  0  0  0  0  0  0  0  0  0  0
   -4.2940   23.1240  -31.0420 N   0  0  0  0  0  0  0  0  0  0  0  0
   -5.1190   22.1150  -31.3410 N   0  0  0  0  0  0  0  0  0  0  0  0
   -6.4700   22.2640  -31.4170 C   0  0  0  0  0  0  0  0  0  0  0  0
   -7.3140   21.0940  -31.7710 C   0  0  0  0  0  0  0  0  0  0  0  0
   -8.6970   21.2640  -31.9680 C   0  0  0  0  0  0  0  0  0  0  0  0
   -9.5060   20.1750  -32.3080 C   0  0  0  0  0  0  0  0  0  0  0  0
   -8.9440   18.9060  -32.4620 C   0  0  0  0  0  0  0  0  0  0  0  0
   -7.5710   18.7250  -32.2810 C   0  0  0  0  0  0  0  0  0  0  0  0
   -6.7580   19.8100  -31.9400 C   0  0  0  0  0  0  0  0  0  0  0  0
   -7.0170   23.5320  -31.1820 C   0  0  0  0  0  0  0  0  0  0  0  0
   -6.1740   24.5880  -30.8580 C   0  0  0  0  0  0  0  0  0  0  0  0
   -4.7980   24.3730  -30.7840 C   0  0  0  0  0  0  0  0  0  0  0  0
   -4.0410   25.3320  -30.4760 O   0  0  0  0  0  0  0  0  0  0  0  0
   -4.3267   23.1444  -26.4803 H   0  0  0  0  0  0  0  0  0  0  0  0
   -5.1990   23.4570  -28.0192 H   0  0  0  0  0  0  0  0  0  0  0  0
   -3.7094   22.4532  -28.0192 H   0  0  0  0  0  0  0  0  0  0  0  0
   -3.9870   25.2290  -28.2780 H   0  0  0  0  0  0  0  0  0  0  0  0
   -3.4040   24.5139  -25.6655 H   0  0  0  0  0  0  0  0  0  0  0  0
   -1.8932   25.1267  -26.4197 H   0  0  0  0  0  0  0  0  0  0  0  0
   -3.3738   26.1439  -26.4197 H   0  0  0  0  0  0  0  0  0  0  0  0
   -0.6529   22.8217  -28.9660 H   0  0  0  0  0  0  0  0  0  0  0  0
   -1.8731   22.3005  -27.7238 H   0  0  0  0  0  0  0  0  0  0  0  0
   -1.8603   21.1580  -30.0821 H   0  0  0  0  0  0  0  0  0  0  0  0
   -3.4287   21.6687  -29.3011 H   0  0  0  0  0  0  0  0  0  0  0  0
   -2.2999   23.7913  -30.9574 H   0  0  0  0  0  0  0  0  0  0  0  0
   -2.5806   22.2670  -31.8932 H   0  0  0  0  0  0  0  0  0  0  0  0
   -9.1455   22.2619  -31.8536 H   0  0  0  0  0  0  0  0  0  0  0  0
  -10.5868   20.3184  -32.4543 H   0  0  0  0  0  0  0  0  0  0  0  0
   -9.5821   18.0497  -32.7256 H   0  0  0  0  0  0  0  0  0  0  0  0
   -7.1281   17.7260  -32.4071 H   0  0  0  0  0  0  0  0  0  0  0  0
   -5.6769   19.6605  -31.8026 H   0  0  0  0  0  0  0  0  0  0  0  0
   -8.1032   23.6902  -31.2533 H   0  0  0  0  0  0  0  0  0  0  0  0
   -6.5894   25.5874  -30.6611 H   0  0  0  0  0  0  0  0  0  0  0  0
  1  2  1  0
  2  3  1  0
  2  4  1  0
  4  5  2  0
  4  6  1  0
  6  7  1  0
  7  8  1  0
  8  9  1  0
  9 10  1  0
 10 11  2  0
 11 12  1  0
 12 13  2  0
 13 14  1  0
 14 15  2  0
 15 16  1  0
 16 17  2  0
 11 18  1  0
 18 19  2  0
 19 20  1  0
 20 21  2  0
 20  9  1  0
 17 12  1  0
  1 22  1  0
  1 23  1  0
  1 24  1  0
  2 25  1  0
  3 26  1  0
  3 27  1  0
  3 28  1  0
  6 29  1  0
  6 30  1  0
  7 31  1  0
  7 32  1  0
  8 33  1  0
  8 34  1  0
 13 35  1  0
 14 36  1  0
 15 37  1  0
 16 38  1  0
 17 39  1  0
 18 40  1  0
 19 41  1  0
M  CHG  1   2   1
M  END
>  <UniqueID>  (43) 
42

>  <SMILES>  (43) 
C[NH+](C)C(=O)CCCn1nc(-c2ccccc2)ccc1=O

>  <Energy>  (43) 
41.000380723006785

>  <Genealogy>  (43) 
C[NH+](C)C(=O)CCCn1nc(-c2ccccc2)ccc1=O (protonated)
C[NH+](C)C(=O)CCCn1nc(-c2ccccc2)ccc1=O (3D coordinates assigned)
C[NH+](C)C(=O)CCCn1nc(-c2ccccc2)ccc1=O (optimized conformer: 41.000380723006785 kcal/mol)

>  <smiles>  (43) 
CN(C)C(=O)CCCn1nc(-c2ccccc2)ccc1=O

>  <score_type>  (43) 
oracle

>  <origin>  (43) 
adg

>  <m_score__min__energy>  (43) 
-7.5300000000000002

>  <m_primary>  (43) 
energy

$$$$
43:0
     RDKit          3D

 48 52  0  0  0  0  0  0  0  0999 V2000
   -5.8539   25.3020  -28.0591 H   0  0  0  0  0  0  0  0  0  0  0  0
   -5.3470   24.9260  -28.9600 C   0  0  0  0  0  0  0  0  0  0  0  0
   -4.4280   23.9480  -28.8320 C   0  0  0  0  0  0  0  0  0  0  0  0
   -4.0420   23.4910  -27.4480 C   0  0  0  0  0  0  0  0  0  0  0  0
   -4.5624   24.1071  -26.7000 H   0  0  0  0  0  0  0  0  0  0  0  0
   -4.3271   22.4367  -27.3172 H   0  0  0  0  0  0  0  0  0  0  0  0
   -2.9548   23.5958  -27.3172 H   0  0  0  0  0  0  0  0  0  0  0  0
   -3.9100   23.2500  -30.0000 N   0  0  0  0  0  0  0  0  0  0  0  0
   -4.7010   23.2090  -31.2130 C   0  0  0  0  0  0  0  0  0  0  0  0
   -4.2860   22.5780  -32.2670 N   0  0  0  0  0  0  0  0  0  0  0  0
   -3.0590   21.8530  -32.2960 C   0  0  0  0  0  0  0  0  0  0  0  0
   -2.6600   21.2140  -33.4750 C   0  0  0  0  0  0  0  0  0  0  0  0
   -3.2979   21.2645  -34.3697 H   0  0  0  0  0  0  0  0  0  0  0  0
   -1.4530   20.5120  -33.5180 C   0  0  0  0  0  0  0  0  0  0  0  0
   -1.1417   20.0101  -34.4460 H   0  0  0  0  0  0  0  0  0  0  0  0
   -0.6410   20.4470  -32.3830 C   0  0  0  0  0  0  0  0  0  0  0  0
    0.3098   19.8951  -32.4184 H   0  0  0  0  0  0  0  0  0  0  0  0
   -1.0360   21.0830  -31.2020 C   0  0  0  0  0  0  0  0  0  0  0  0
   -0.3969   21.0272  -30.3085 H   0  0  0  0  0  0  0  0  0  0  0  0
   -2.2470   21.7930  -31.1540 C   0  0  0  0  0  0  0  0  0  0  0  0
   -2.6880   22.4340  -29.8650 C   0  0  0  0  0  0  0  0  0  0  0  0
   -2.8798   21.6393  -29.1290 H   0  0  0  0  0  0  0  0  0  0  0  0
   -1.8809   23.1109  -29.5482 H   0  0  0  0  0  0  0  0  0  0  0  0
   -5.9240   24.0180  -31.2850 C   0  0  0  0  0  0  0  0  0  0  0  0
   -7.0890   23.6240  -31.8220 C   0  0  0  0  0  0  0  0  0  0  0  0
   -7.7926   24.4073  -32.1403 H   0  0  0  0  0  0  0  0  0  0  0  0
   -7.4980   22.2190  -32.0180 C   0  0  0  0  0  0  0  0  0  0  0  0
   -9.0530   21.5870  -31.8770 S   0  0  0  0  0  0  0  0  0  0  0  0
   -8.6720   20.0290  -32.3750 C   0  0  0  0  0  0  0  0  0  0  0  0
   -9.3752   19.1858  -32.4417 H   0  0  0  0  0  0  0  0  0  0  0  0
   -7.3130   19.9840  -32.6900 C   0  0  0  0  0  0  0  0  0  0  0  0
   -6.6280   18.7610  -33.1790 C   0  0  0  0  0  0  0  0  0  0  0  0
   -7.1580   17.4860  -32.9050 C   0  0  0  0  0  0  0  0  0  0  0  0
   -8.0888   17.3951  -32.3258 H   0  0  0  0  0  0  0  0  0  0  0  0
   -6.5110   16.3340  -33.3630 C   0  0  0  0  0  0  0  0  0  0  0  0
   -6.9294   15.3434  -33.1315 H   0  0  0  0  0  0  0  0  0  0  0  0
   -5.3330   16.4340  -34.1150 C   0  0  0  0  0  0  0  0  0  0  0  0
   -4.6190   15.1950  -34.5680 C   0  0  0  0  0  0  0  0  0  0  0  0
   -4.2881   14.6208  -33.6901 H   0  0  0  0  0  0  0  0  0  0  0  0
   -5.3008   14.5794  -35.1731 H   0  0  0  0  0  0  0  0  0  0  0  0
   -3.7445   15.4763  -35.1731 H   0  0  0  0  0  0  0  0  0  0  0  0
   -4.7900   17.6990  -34.3770 C   0  0  0  0  0  0  0  0  0  0  0  0
   -3.8520   17.7844  -34.9452 H   0  0  0  0  0  0  0  0  0  0  0  0
   -5.4340   18.8540  -33.9200 C   0  0  0  0  0  0  0  0  0  0  0  0
   -5.0044   19.8422  -34.1412 H   0  0  0  0  0  0  0  0  0  0  0  0
   -6.6650   21.2200  -32.5020 C   0  0  0  0  0  0  0  0  0  0  0  0
   -5.5983   21.3789  -32.7185 H   0  0  0  0  0  0  0  0  0  0  0  0
   -5.7700   25.6350  -30.5570 S   0  0  0  0  0  0  0  0  0  0  0  0
  1  2  1  0
  2  3  2  0
  3  4  1  0
  4  5  1  0
  4  6  1  0
  4  7  1  0
  3  8  1  0
  8  9  1  0
  9 10  2  0
 10 11  1  0
 11 12  2  0
 12 13  1  0
 12 14  1  0
 14 15  1  0
 14 16  2  0
 16 17  1  0
 16 18  1  0
 18 19  1  0
 18 20  2  0
 20 21  1  0
 21 22  1  0
 21 23  1  0
  9 24  1  0
 24 25  2  0
 25 26  1  0
 25 27  1  0
 27 28  1  0
 28 29  1  0
 29 30  1  0
 29 31  2  0
 31 32  1  0
 32 33  2  0
 33 34  1  0
 33 35  1  0
 35 36  1  0
 35 37  2  0
 37 38  1  0
 38 39  1  0
 38 40  1  0
 38 41  1  0
 37 42  1  0
 42 43  1  0
 42 44  2  0
 44 45  1  0
 31 46  1  0
 46 47  1  0
 24 48  1  0
 48  2  1  0
 21  8  1  0
 46 27  2  0
 20 11  1  0
 44 32  1  0
M  END
>  <UniqueID>  (44) 
43

>  <SMILES>  (44) 
CC1=CS/C(=C/c2cc(-c3ccc(C)cc3)cs2)C2=Nc3ccccc3CN12

>  <Energy>  (44) 
100.59451258069089

>  <Genealogy>  (44) 
CC1=CS/C(=C/c2cc(-c3ccc(C)cc3)cs2)C2=Nc3ccccc3CN12 (cis-trans isomerization)
CC1=CS/C(=C/c2cc(-c3ccc(C)cc3)cs2)C2=Nc3ccccc3CN12 (3D coordinates assigned)
CC1=CS/C(=C/c2cc(-c3ccc(C)cc3)cs2)C2=Nc3ccccc3CN12 (nonaromatic ring conformer: 100.59451258069089 kcal/mol)

>  <smiles>  (44) 
CC1=CSC(=Cc2cc(-c3ccc(C)cc3)cs2)C2=Nc3ccccc3CN12

>  <score_type>  (44) 
oracle

>  <origin>  (44) 
adg

>  <m_score__min__energy>  (44) 
-10.960000000000001

>  <m_primary>  (44) 
energy

$$$$
44:0
     RDKit          3D

 47 49  0  0  0  0  0  0  0  0999 V2000
   -9.1520   21.7020  -31.3470 C   0  0  0  0  0  0  0  0  0  0  0  0
   -9.3000   20.3410  -31.7350 O   0  0  0  0  0  0  0  0  0  0  0  0
   -8.2900   19.5760  -32.3400 C   0  0  0  0  0  0  0  0  0  0  0  0
   -7.4630   20.0860  -33.3580 C   0  0  0  0  0  0  0  0  0  0  0  0
   -6.4700   19.2840  -33.9270 C   0  0  0  0  0  0  0  0  0  0  0  0
   -6.2820   17.9660  -33.4870 C   0  0  0  0  0  0  0  0  0  0  0  0
   -5.2110   17.1090  -34.1060 C   0  0  0  0  0  0  0  0  0  0  0  0
   -4.1050   16.9090  -33.1490 N   0  0  0  0  0  0  0  0  0  0  0  0
   -2.8870   17.6990  -33.4300 C   0  0  1  0  0  0  0  0  0  0  0  0
   -2.3020   17.3550  -34.8080 C   0  0  0  0  0  0  0  0  0  0  0  0
   -3.0940   19.1930  -33.2650 C   0  0  0  0  0  0  0  0  0  0  0  0
   -2.5530   20.0020  -34.0680 O   0  0  0  0  0  0  0  0  0  0  0  0
   -3.9960   19.6820  -32.2580 N   0  0  0  0  0  0  0  0  0  0  0  0
   -4.0110   21.0420  -31.7900 C   0  0  0  0  0  0  0  0  0  0  0  0
   -2.8200   21.7210  -31.4690 C   0  0  0  0  0  0  0  0  0  0  0  0
   -2.8600   23.0370  -30.9960 C   0  0  0  0  0  0  0  0  0  0  0  0
   -4.0900   23.6800  -30.8320 C   0  0  0  0  0  0  0  0  0  0  0  0
   -5.2800   22.9960  -31.1020 C   0  0  0  0  0  0  0  0  0  0  0  0
   -5.2430   21.6860  -31.5870 C   0  0  0  0  0  0  0  0  0  0  0  0
   -6.5010   23.6420  -30.8790 O   0  0  0  0  0  0  0  0  0  0  0  0
   -6.5660   24.8610  -30.1350 C   0  0  0  0  0  0  0  0  0  0  0  0
   -5.3660   25.7550  -30.4730 C   0  0  0  0  0  0  0  0  0  0  0  0
   -4.1510   25.0060  -30.3900 O   0  0  0  0  0  0  0  0  0  0  0  0
   -7.1150   17.4550  -32.4780 C   0  0  0  0  0  0  0  0  0  0  0  0
   -8.1070   18.2570  -31.9080 C   0  0  0  0  0  0  0  0  0  0  0  0
   -9.1444   21.7716  -30.2492 H   0  0  0  0  0  0  0  0  0  0  0  0
   -8.2057   22.0962  -31.7459 H   0  0  0  0  0  0  0  0  0  0  0  0
   -9.9915   22.2904  -31.7459 H   0  0  0  0  0  0  0  0  0  0  0  0
   -7.5987   21.1202  -33.7073 H   0  0  0  0  0  0  0  0  0  0  0  0
   -5.8314   19.6895  -34.7256 H   0  0  0  0  0  0  0  0  0  0  0  0
   -5.6382   16.1324  -34.3775 H   0  0  0  0  0  0  0  0  0  0  0  0
   -4.8231   17.6108  -35.0047 H   0  0  0  0  0  0  0  0  0  0  0  0
   -4.4400   17.1350  -32.1820 H   0  0  0  0  0  0  0  0  0  0  0  0
   -2.1487   17.4104  -32.6674 H   0  0  0  0  0  0  0  0  0  0  0  0
   -1.3604   16.8013  -34.6787 H   0  0  0  0  0  0  0  0  0  0  0  0
   -3.0186   16.7345  -35.3660 H   0  0  0  0  0  0  0  0  0  0  0  0
   -2.1081   18.2829  -35.3660 H   0  0  0  0  0  0  0  0  0  0  0  0
   -4.7290   19.0300  -31.8990 H   0  0  0  0  0  0  0  0  0  0  0  0
   -1.8518   21.2134  -31.5909 H   0  0  0  0  0  0  0  0  0  0  0  0
   -1.9256   23.5644  -30.7537 H   0  0  0  0  0  0  0  0  0  0  0  0
   -6.1814   21.1574  -31.8105 H   0  0  0  0  0  0  0  0  0  0  0  0
   -7.4961   25.3912  -30.3875 H   0  0  0  0  0  0  0  0  0  0  0  0
   -6.5462   24.6262  -29.0605 H   0  0  0  0  0  0  0  0  0  0  0  0
   -5.4817   26.1471  -31.4942 H   0  0  0  0  0  0  0  0  0  0  0  0
   -5.3244   26.5858  -29.7532 H   0  0  0  0  0  0  0  0  0  0  0  0
   -6.9857   16.4179  -32.1348 H   0  0  0  0  0  0  0  0  0  0  0  0
   -8.7492   17.8488  -31.1136 H   0  0  0  0  0  0  0  0  0  0  0  0
  1  2  1  0
  2  3  1  0
  3  4  2  0
  4  5  1  0
  5  6  2  0
  6  7  1  0
  7  8  1  0
  8  9  1  0
  9 10  1  0
  9 11  1  0
 11 12  2  0
 11 13  1  0
 13 14  1  0
 14 15  2  0
 15 16  1  0
 16 17  2  0
 17 18  1  0
 18 19  2  0
 18 20  1  0
 20 21  1  0
 21 22  1  0
 22 23  1  0
  6 24  1  0
 24 25  2  0
 25  3  1  0
 19 14  1  0
 23 17  1  0
  1 26  1  0
  1 27  1  0
  1 28  1  0
  4 29  1  0
  5 30  1  0
  7 31  1  0
  7 32  1  0
  8 33  1  0
  9 34  1  1
 10 35  1  0
 10 36  1  0
 10 37  1  0
 13 38  1  0
 15 39  1  0
 16 40  1  0
 19 41  1  0
 21 42  1  0
 21 43  1  0
 22 44  1  0
 22 45  1  0
 24 46  1  0
 25 47  1  0
M  END
>  <UniqueID>  (45) 
44

>  <SMILES>  (45) 
COc1ccc(CN[C@@H](C)C(=O)Nc2ccc3c(c2)OCCO3)cc1

>  <Energy>  (45) 
54.197387501512566

>  <Genealogy>  (45) 
COc1ccc(CN[C@@H](C)C(=O)Nc2ccc3c(c2)OCCO3)cc1 (chirality)
COc1ccc(CN[C@@H](C)C(=O)Nc2ccc3c(c2)OCCO3)cc1 (3D coordinates assigned)
COc1ccc(CN[C@@H](C)C(=O)Nc2ccc3c(c2)OCCO3)cc1 (nonaromatic ring conformer: 54.197387501512566 kcal/mol)

>  <smiles>  (45) 
COc1ccc(CNC(C)C(=O)Nc2ccc3c(c2)OCCO3)cc1

>  <score_type>  (45) 
oracle

>  <origin>  (45) 
adg

>  <m_score__min__energy>  (45) 
-7.9900000000000002

>  <m_primary>  (45) 
energy

$$$$
45:0
     RDKit          3D

 38 40  0  0  0  0  0  0  0  0999 V2000
   -3.2268   24.2035  -25.9644 H   0  0  0  0  0  0  0  0  0  0  0  0
   -3.1020   24.3970  -27.0400 C   0  0  0  0  0  0  0  0  0  0  0  0
   -2.0660   25.2170  -27.4930 C   0  0  0  0  0  0  0  0  0  0  0  0
   -1.1080   25.8400  -26.5290 C   0  0  0  0  0  0  0  0  0  0  0  0
   -1.4336   25.6282  -25.4999 H   0  0  0  0  0  0  0  0  0  0  0  0
   -0.1031   25.4221  -26.6889 H   0  0  0  0  0  0  0  0  0  0  0  0
   -1.0824   26.9280  -26.6889 H   0  0  0  0  0  0  0  0  0  0  0  0
   -1.9320   25.4380  -28.8280 N   0  0  0  0  0  0  0  0  0  0  0  0
   -2.7670   24.8920  -29.7130 N   0  0  0  0  0  0  0  0  0  0  0  0
   -3.7960   24.0880  -29.3330 C   0  0  0  0  0  0  0  0  0  0  0  0
   -4.5730   23.5910  -30.2550 N   0  0  0  0  0  0  0  0  0  0  0  0
   -5.7890   24.1940  -30.8160 C   0  0  0  0  0  0  0  0  0  0  0  0
   -5.7332   25.2911  -30.7587 H   0  0  0  0  0  0  0  0  0  0  0  0
   -5.9280   23.8440  -32.3260 C   0  0  0  0  0  0  0  0  0  0  0  0
   -5.8924   24.7791  -32.9042 H   0  0  0  0  0  0  0  0  0  0  0  0
   -5.1000   23.1646  -32.5767 H   0  0  0  0  0  0  0  0  0  0  0  0
   -7.2300   23.1110  -32.6700 C   0  0  0  0  0  0  0  0  0  0  0  0
   -8.0722   23.8159  -32.6076 H   0  0  0  0  0  0  0  0  0  0  0  0
   -7.1572   22.7056  -33.6900 H   0  0  0  0  0  0  0  0  0  0  0  0
   -7.4500   22.0040  -31.7250 N   0  0  0  0  0  0  0  0  0  0  0  0
   -7.7670   20.6770  -32.2020 C   0  0  0  0  0  0  0  0  0  0  0  0
   -7.7250   20.4200  -33.4370 O   0  0  0  0  0  0  0  0  0  0  0  0
   -8.0920   19.5630  -31.2430 C   0  0  0  0  0  0  0  0  0  0  0  0
   -7.9884   20.1671  -30.3296 H   0  0  0  0  0  0  0  0  0  0  0  0
   -7.6320   18.1740  -31.6660 C   0  0  0  0  0  0  0  0  0  0  0  0
   -7.0279   18.0484  -32.5767 H   0  0  0  0  0  0  0  0  0  0  0  0
   -7.0730   17.3592  -31.1827 H   0  0  0  0  0  0  0  0  0  0  0  0
   -9.0980   18.5530  -31.7740 C   0  0  0  0  0  0  0  0  0  0  0  0
   -9.5559   18.7013  -32.7631 H   0  0  0  0  0  0  0  0  0  0  0  0
  -10.0405   18.1256  -31.4012 H   0  0  0  0  0  0  0  0  0  0  0  0
   -7.3560   22.2660  -30.2790 C   0  0  0  0  0  0  0  0  0  0  0  0
   -8.3249   22.0356  -29.8118 H   0  0  0  0  0  0  0  0  0  0  0  0
   -6.5574   21.6309  -29.8680 H   0  0  0  0  0  0  0  0  0  0  0  0
   -6.9990   23.7300  -29.9860 C   0  0  0  0  0  0  0  0  0  0  0  0
   -7.8639   24.3643  -30.2301 H   0  0  0  0  0  0  0  0  0  0  0  0
   -6.7387   23.8145  -28.9206 H   0  0  0  0  0  0  0  0  0  0  0  0
   -3.9750   23.8270  -27.9620 C   0  0  0  0  0  0  0  0  0  0  0  0
   -4.7965   23.1791  -27.6224 H   0  0  0  0  0  0  0  0  0  0  0  0
  1  2  1  0
  2  3  1  0
  3  4  1  0
  4  5  1  0
  4  6  1  0
  4  7  1  0
  3  8  2  0
  8  9  1  0
  9 10  1  0
 10 11  2  0
 11 12  1  0
 12 13  1  0
 12 14  1  0
 14 15  1  0
 14 16  1  0
 14 17  1  0
 17 18  1  0
 17 19  1  0
 17 20  1  0
 20 21  1  0
 21 22  2  0
 21 23  1  0
 23 24  1  0
 23 25  1  0
 25 26  1  0
 25 27  1  0
 25 28  1  0
 28 29  1  0
 28 30  1  0
 20 31  1  0
 31 32  1  0
 31 33  1  0
 31 34  1  0
 34 35  1  0
 34 36  1  0
 10 37  1  0
 37 38  1  0
 37  2  2  0
 34 12  1  0
 28 23  1  0
M  CHG  1   9  -1
M  END
>  <UniqueID>  (46) 
45

>  <SMILES>  (46) 
Cc1cc/c(=N\C2CCN(C(=O)C3CC3)CC2)[n-]n1

>  <Energy>  (46) 
305.70876201092256

>  <Genealogy>  (46) 
Cc1ccc(=NC2CCN(C(=O)C3CC3)CC2)[n-]n1 (protonated)
Cc1cc/c(=N\C2CCN(C(=O)C3CC3)CC2)[n-]n1 (cis-trans isomerization)
Cc1cc/c(=N\C2CCN(C(=O)C3CC3)CC2)[n-]n1 (3D coordinates assigned)
Cc1cc/c(=N\C2CCN(C(=O)C3CC3)CC2)[n-]n1 (nonaromatic ring conformer: 305.70876201092256 kcal/mol)

>  <smiles>  (46) 
Cc1ccc(=NC2CCN(C(=O)C3CC3)CC2)[nH]n1

>  <score_type>  (46) 
oracle

>  <origin>  (46) 
adg

>  <m_score__min__energy>  (46) 
-9.1500000000000004

>  <m_primary>  (46) 
energy

$$$$
46:0
     RDKit          3D

 53 56  0  0  0  0  0  0  0  0999 V2000
   -8.1000   20.3410  -32.4390 C   0  0  0  0  0  0  0  0  0  0  0  0
   -8.0410   19.1550  -31.5670 N   0  0  0  0  0  0  0  0  0  0  0  0
   -9.0930   18.2030  -31.9640 C   0  0  0  0  0  0  0  0  0  0  0  0
   -6.7160   18.5010  -31.6390 C   0  0  0  0  0  0  0  0  0  0  0  0
   -6.6460   17.4650  -32.7740 C   0  0  0  0  0  0  0  0  0  0  0  0
   -6.5780   18.0990  -34.1010 N   0  0  0  0  0  0  0  0  0  0  0  0
   -5.2090   18.4760  -34.4890 C   0  0  0  0  0  0  0  0  0  0  0  0
   -4.6550   19.5100  -33.5460 C   0  0  0  0  0  0  0  0  0  0  0  0
   -5.2500   20.7780  -33.4630 C   0  0  0  0  0  0  0  0  0  0  0  0
   -4.7480   21.7400  -32.5830 C   0  0  0  0  0  0  0  0  0  0  0  0
   -3.6330   21.4540  -31.7750 C   0  0  0  0  0  0  0  0  0  0  0  0
   -3.1060   22.4700  -30.8280 C   0  0  0  0  0  0  0  0  0  0  0  0
   -3.9030   23.5550  -30.4280 C   0  0  0  0  0  0  0  0  0  0  0  0
   -3.4090   24.5090  -29.5330 C   0  0  0  0  0  0  0  0  0  0  0  0
   -2.1070   24.3960  -29.0170 C   0  0  0  0  0  0  0  0  0  0  0  0
   -1.5880   25.3990  -28.0610 C   0  0  0  0  0  0  0  0  0  0  0  0
   -1.6970   25.2620  -26.7120 N   0  0  0  0  0  0  0  0  0  0  0  0
   -1.1130   26.3770  -26.2530 C   0  0  0  0  0  0  0  0  0  0  0  0
   -0.9340   26.7650  -24.9270 C   0  0  0  0  0  0  0  0  0  0  0  0
   -0.2830   27.9890  -24.6870 C   0  0  0  0  0  0  0  0  0  0  0  0
    0.1670   28.7840  -25.7660 C   0  0  0  0  0  0  0  0  0  0  0  0
   -0.0310   28.3580  -27.0930 C   0  0  0  0  0  0  0  0  0  0  0  0
   -0.6790   27.1410  -27.2920 C   0  0  0  0  0  0  0  0  0  0  0  0
   -0.9670   26.5440  -28.4560 N   0  0  0  0  0  0  0  0  0  0  0  0
   -1.3070   23.3140  -29.4200 C   0  0  0  0  0  0  0  0  0  0  0  0
   -1.8010   22.3600  -30.3160 C   0  0  0  0  0  0  0  0  0  0  0  0
   -3.0280   20.1890  -31.8740 C   0  0  0  0  0  0  0  0  0  0  0  0
   -3.5310   19.2280  -32.7550 C   0  0  0  0  0  0  0  0  0  0  0  0
   -8.1452   21.2493  -31.8201 H   0  0  0  0  0  0  0  0  0  0  0  0
   -7.2024   20.3743  -33.0740 H   0  0  0  0  0  0  0  0  0  0  0  0
   -8.9965   20.2850  -33.0740 H   0  0  0  0  0  0  0  0  0  0  0  0
   -9.5620   17.7786  -31.0641 H   0  0  0  0  0  0  0  0  0  0  0  0
   -9.8539   18.7258  -32.5622 H   0  0  0  0  0  0  0  0  0  0  0  0
   -8.6486   17.3939  -32.5622 H   0  0  0  0  0  0  0  0  0  0  0  0
   -5.9491   19.2703  -31.8125 H   0  0  0  0  0  0  0  0  0  0  0  0
   -6.5442   17.9755  -30.6880 H   0  0  0  0  0  0  0  0  0  0  0  0
   -5.7496   16.8435  -32.6318 H   0  0  0  0  0  0  0  0  0  0  0  0
   -7.5631   16.8588  -32.7355 H   0  0  0  0  0  0  0  0  0  0  0  0
   -6.9160   17.3920  -34.7950 H   0  0  0  0  0  0  0  0  0  0  0  0
   -4.5674   17.5829  -34.4631 H   0  0  0  0  0  0  0  0  0  0  0  0
   -5.2327   18.8993  -35.5040 H   0  0  0  0  0  0  0  0  0  0  0  0
   -6.1179   21.0164  -34.0953 H   0  0  0  0  0  0  0  0  0  0  0  0
   -5.2281   22.7278  -32.5217 H   0  0  0  0  0  0  0  0  0  0  0  0
   -4.9250   23.6552  -30.8223 H   0  0  0  0  0  0  0  0  0  0  0  0
   -4.0445   25.3544  -29.2306 H   0  0  0  0  0  0  0  0  0  0  0  0
   -1.2891   26.1366  -24.0969 H   0  0  0  0  0  0  0  0  0  0  0  0
   -0.1232   28.3295  -23.6533 H   0  0  0  0  0  0  0  0  0  0  0  0
    0.6741   29.7398  -25.5677 H   0  0  0  0  0  0  0  0  0  0  0  0
    0.3139   28.9649  -27.9431 H   0  0  0  0  0  0  0  0  0  0  0  0
   -0.2839   23.2161  -29.0279 H   0  0  0  0  0  0  0  0  0  0  0  0
   -1.1637   21.5174  -30.6224 H   0  0  0  0  0  0  0  0  0  0  0  0
   -2.1513   19.9536  -31.2528 H   0  0  0  0  0  0  0  0  0  0  0  0
   -3.0430   18.2449  -32.8288 H   0  0  0  0  0  0  0  0  0  0  0  0
  1  2  1  0
  2  3  1  0
  2  4  1  0
  4  5  1  0
  5  6  1  0
  6  7  1  0
  7  8  1  0
  8  9  2  0
  9 10  1  0
 10 11  2  0
 11 12  1  0
 12 13  2  0
 13 14  1  0
 14 15  2  0
 15 16  1  0
 16 17  2  0
 17 18  1  0
 18 19  2  0
 19 20  1  0
 20 21  2  0
 21 22  1  0
 22 23  2  0
 23 24  1  0
 15 25  1  0
 25 26  2  0
 11 27  1  0
 27 28  2  0
 28  8  1  0
 26 12  1  0
 24 16  1  0
 23 18  1  0
  1 29  1  0
  1 30  1  0
  1 31  1  0
  3 32  1  0
  3 33  1  0
  3 34  1  0
  4 35  1  0
  4 36  1  0
  5 37  1  0
  5 38  1  0
  6 39  1  0
  7 40  1  0
  7 41  1  0
  9 42  1  0
 10 43  1  0
 13 44  1  0
 14 45  1  0
 19 46  1  0
 20 47  1  0
 21 48  1  0
 22 49  1  0
 25 50  1  0
 26 51  1  0
 27 52  1  0
 28 53  1  0
M  CHG  1  24  -1
M  END
>  <UniqueID>  (47) 
46

>  <SMILES>  (47) 
CN(C)CCNCc1ccc(-c2ccc(-c3nc4ccccc4[n-]3)cc2)cc1

>  <Energy>  (47) 
95.10649374168021

>  <Genealogy>  (47) 
CN(C)CCNCc1ccc(-c2ccc(-c3nc4ccccc4[n-]3)cc2)cc1 (protonated)
CN(C)CCNCc1ccc(-c2ccc(-c3nc4ccccc4[n-]3)cc2)cc1 (3D coordinates assigned)
CN(C)CCNCc1ccc(-c2ccc(-c3nc4ccccc4[n-]3)cc2)cc1 (optimized conformer: 95.10649374168021 kcal/mol)

>  <smiles>  (47) 
CN(C)CCNCc1ccc(-c2ccc(-c3nc4ccccc4[nH]3)cc2)cc1

>  <score_type>  (47) 
oracle

>  <origin>  (47) 
adg

>  <m_score__min__energy>  (47) 
-8.7799999999999994

>  <m_primary>  (47) 
energy

$$$$
47:0
     RDKit          3D

 58 60  0  0  0  0  0  0  0  0999 V2000
   -1.3910   20.2070  -28.3630 C   0  0  0  0  0  0  0  0  0  0  0  0
   -0.0370   20.1600  -29.0650 C   0  0  0  0  0  0  0  0  0  0  0  0
   -0.1370   20.7620  -30.4010 N   0  0  0  0  0  0  0  0  0  0  0  0
    0.6220   20.0000  -31.4040 C   0  0  0  0  0  0  0  0  0  0  0  0
    0.3750   20.5100  -32.8370 C   0  0  0  0  0  0  0  0  0  0  0  0
   -0.7850   21.4180  -32.9360 N   0  0  0  0  0  0  0  0  0  0  0  0
   -2.0340   20.6880  -33.0590 C   0  0  0  0  0  0  0  0  0  0  0  0
   -2.0460   19.5550  -33.8870 C   0  0  0  0  0  0  0  0  0  0  0  0
   -3.2290   18.9050  -34.2010 C   0  0  0  0  0  0  0  0  0  0  0  0
   -4.4560   19.3970  -33.7470 C   0  0  0  0  0  0  0  0  0  0  0  0
   -5.6580   18.7080  -34.1310 N   0  0  0  0  0  0  0  0  0  0  0  0
   -5.7900   17.2510  -34.0670 C   0  0  0  0  0  0  0  0  0  0  0  0
   -6.9810   16.8540  -33.1910 C   0  0  0  0  0  0  0  0  0  0  0  0
   -7.9520   17.9510  -33.1260 N   0  0  0  0  0  0  0  0  0  0  0  0
   -8.2120   18.3140  -31.7280 C   0  0  0  0  0  0  0  0  0  0  0  0
   -9.0610   19.5820  -31.6560 C   0  0  0  0  0  0  0  0  0  0  0  0
   -9.3310   20.0470  -32.9500 O   0  0  0  0  0  0  0  0  0  0  0  0
   -4.4880   20.5460  -32.9130 C   0  0  0  0  0  0  0  0  0  0  0  0
   -3.2640   21.1300  -32.4810 C   0  0  0  0  0  0  0  0  0  0  0  0
   -3.3300   22.1920  -31.4380 C   0  0  0  0  0  0  0  0  0  0  0  0
   -2.3900   22.3510  -30.6140 O   0  0  0  0  0  0  0  0  0  0  0  0
   -4.5640   22.9810  -31.2680 C   0  0  0  0  0  0  0  0  0  0  0  0
   -4.5560   24.1830  -30.5390 C   0  0  0  0  0  0  0  0  0  0  0  0
   -5.7360   24.9100  -30.3640 C   0  0  0  0  0  0  0  0  0  0  0  0
   -6.9300   24.4420  -30.9130 C   0  0  0  0  0  0  0  0  0  0  0  0
   -6.9490   23.2460  -31.6340 C   0  0  0  0  0  0  0  0  0  0  0  0
   -5.7670   22.5050  -31.8160 C   0  0  0  0  0  0  0  0  0  0  0  0
   -5.7760   21.2280  -32.5660 C   0  0  0  0  0  0  0  0  0  0  0  0
   -6.8810   20.7630  -32.9560 O   0  0  0  0  0  0  0  0  0  0  0  0
   -1.2395   20.2017  -27.2735 H   0  0  0  0  0  0  0  0  0  0  0  0
   -1.9236   21.1242  -28.6547 H   0  0  0  0  0  0  0  0  0  0  0  0
   -1.9859   19.3290  -28.6547 H   0  0  0  0  0  0  0  0  0  0  0  0
    0.7006   20.7179  -28.4694 H   0  0  0  0  0  0  0  0  0  0  0  0
    0.2783   19.1111  -29.1667 H   0  0  0  0  0  0  0  0  0  0  0  0
   -1.1450   20.7330  -30.6890 H   0  0  0  0  0  0  0  0  0  0  0  0
    1.6948   20.0879  -31.1774 H   0  0  0  0  0  0  0  0  0  0  0  0
    0.2854   18.9538  -31.3568 H   0  0  0  0  0  0  0  0  0  0  0  0
    1.2718   21.0492  -33.1763 H   0  0  0  0  0  0  0  0  0  0  0  0
    0.1599   19.6329  -33.4651 H   0  0  0  0  0  0  0  0  0  0  0  0
   -0.6190   22.1100  -33.6920 H   0  0  0  0  0  0  0  0  0  0  0  0
   -0.8280   21.9840  -32.0550 H   0  0  0  0  0  0  0  0  0  0  0  0
   -1.0976   19.1753  -34.2949 H   0  0  0  0  0  0  0  0  0  0  0  0
   -3.2021   17.9921  -34.8141 H   0  0  0  0  0  0  0  0  0  0  0  0
   -6.4730   19.2630  -34.4740 H   0  0  0  0  0  0  0  0  0  0  0  0
   -5.9416   16.8571  -35.0828 H   0  0  0  0  0  0  0  0  0  0  0  0
   -4.8727   16.8315  -33.6282 H   0  0  0  0  0  0  0  0  0  0  0  0
   -7.4662   15.9646  -33.6194 H   0  0  0  0  0  0  0  0  0  0  0  0
   -6.6208   16.6338  -32.1752 H   0  0  0  0  0  0  0  0  0  0  0  0
   -7.5260   18.7840  -33.5990 H   0  0  0  0  0  0  0  0  0  0  0  0
   -8.7479   17.4905  -31.2334 H   0  0  0  0  0  0  0  0  0  0  0  0
   -7.2524   18.4980  -31.2228 H   0  0  0  0  0  0  0  0  0  0  0  0
  -10.0082   19.3586  -31.1433 H   0  0  0  0  0  0  0  0  0  0  0  0
   -8.5116   20.3556  -31.0995 H   0  0  0  0  0  0  0  0  0  0  0  0
   -8.6450   19.6340  -33.5390 H   0  0  0  0  0  0  0  0  0  0  0  0
   -3.6158   24.5530  -30.1041 H   0  0  0  0  0  0  0  0  0  0  0  0
   -5.7237   25.8506  -29.7938 H   0  0  0  0  0  0  0  0  0  0  0  0
   -7.8585   25.0161  -30.7778 H   0  0  0  0  0  0  0  0  0  0  0  0
   -7.8942   22.8811  -32.0623 H   0  0  0  0  0  0  0  0  0  0  0  0
  1  2  1  0
  2  3  1  0
  3  4  1  0
  4  5  1  0
  5  6  1  0
  6  7  1  0
  7  8  2  0
  8  9  1  0
  9 10  2  0
 10 11  1  0
 11 12  1  0
 12 13  1  0
 13 14  1  0
 14 15  1  0
 15 16  1  0
 16 17  1  0
 10 18  1  0
 18 19  2  0
 19 20  1  0
 20 21  2  0
 20 22  1  0
 22 23  2  0
 23 24  1  0
 24 25  2  0
 25 26  1  0
 26 27  2  0
 27 28  1  0
 28 29  2  0
 19  7  1  0
 27 22  1  0
 28 18  1  0
  1 30  1  0
  1 31  1  0
  1 32  1  0
  2 33  1  0
  2 34  1  0
  3 35  1  0
  4 36  1  0
  4 37  1  0
  5 38  1  0
  5 39  1  0
  6 40  1  0
  6 41  1  0
  8 42  1  0
  9 43  1  0
 11 44  1  0
 12 45  1  0
 12 46  1  0
 13 47  1  0
 13 48  1  0
 14 49  1  0
 15 50  1  0
 15 51  1  0
 16 52  1  0
 16 53  1  0
 17 54  1  0
 23 55  1  0
 24 56  1  0
 25 57  1  0
 26 58  1  0
M  CHG  1   6   1
M  END
>  <UniqueID>  (48) 
47

>  <SMILES>  (48) 
CCNCC[NH2+]c1ccc(NCCNCCO)c2c1C(=O)c1ccccc1C2=O

>  <Energy>  (48) 
66.65507083594328

>  <Genealogy>  (48) 
CCNCC[NH2+]c1ccc(NCCNCCO)c2c1C(=O)c1ccccc1C2=O (protonated)
CCNCC[NH2+]c1ccc(NCCNCCO)c2c1C(=O)c1ccccc1C2=O (3D coordinates assigned)
CCNCC[NH2+]c1ccc(NCCNCCO)c2c1C(=O)c1ccccc1C2=O (nonaromatic ring conformer: 66.65507083594328 kcal/mol)

>  <smiles>  (48) 
CCNCCNc1ccc(NCCNCCO)c2c1C(=O)c1ccccc1C2=O

>  <score_type>  (48) 
oracle

>  <origin>  (48) 
adg

>  <m_score__min__energy>  (48) 
-7.2800000000000002

>  <m_primary>  (48) 
energy

$$$$
48:0
     RDKit          3D

 55 59  0  0  0  0  0  0  0  0999 V2000
    1.8730   24.5190  -27.4820 C   0  0  0  0  0  0  0  0  0  0  0  0
    0.6840   24.8360  -28.1990 O   0  0  0  0  0  0  0  0  0  0  0  0
   -0.5790   24.9850  -27.6100 C   0  0  0  0  0  0  0  0  0  0  0  0
   -0.8270   25.9070  -26.5680 C   0  0  0  0  0  0  0  0  0  0  0  0
   -2.1110   26.0210  -26.0030 C   0  0  0  0  0  0  0  0  0  0  0  0
   -3.1650   25.2230  -26.4680 C   0  0  0  0  0  0  0  0  0  0  0  0
   -2.9170   24.3200  -27.5010 C   0  0  0  0  0  0  0  0  0  0  0  0
   -1.6530   24.2010  -28.0540 C   0  0  0  0  0  0  0  0  0  0  0  0
   -1.7180   23.1810  -29.0900 C   0  0  0  0  0  0  0  0  0  0  0  0
   -0.7200   22.6920  -29.9390 C   0  0  0  0  0  0  0  0  0  0  0  0
   -1.0620   21.6940  -30.8640 C   0  0  0  0  0  0  0  0  0  0  0  0
   -2.3800   21.2080  -30.9320 C   0  0  0  0  0  0  0  0  0  0  0  0
   -3.3680   21.7120  -30.0730 C   0  0  0  0  0  0  0  0  0  0  0  0
   -3.0160   22.7020  -29.1490 C   0  0  0  0  0  0  0  0  0  0  0  0
   -3.8990   23.3780  -28.1330 C   0  0  2  0  0  0  0  0  0  0  0  0
   -4.9650   24.1340  -28.7860 N   0  0  0  0  0  0  0  0  0  0  0  0
   -4.9210   24.6830  -30.1110 C   0  0  0  0  0  0  0  0  0  0  0  0
   -3.8760   25.2860  -30.4740 O   0  0  0  0  0  0  0  0  0  0  0  0
   -6.1170   24.6480  -31.0280 C   0  0  0  0  0  0  0  0  0  0  0  0
   -7.0890   23.5010  -30.6690 C   0  0  0  0  0  0  0  0  0  0  0  0
   -7.7110   22.8610  -31.8490 N   0  0  0  0  0  0  0  0  0  0  0  0
   -9.0610   22.2880  -31.5770 C   0  0  0  0  0  0  0  0  0  0  0  0
   -9.3470   20.9750  -32.3250 C   0  0  0  0  0  0  0  0  0  0  0  0
   -8.1800   20.0460  -32.1820 C   0  0  0  0  0  0  0  0  0  0  0  0
   -8.3450   18.6770  -31.9240 C   0  0  0  0  0  0  0  0  0  0  0  0
   -7.2240   17.8470  -31.8170 C   0  0  0  0  0  0  0  0  0  0  0  0
   -5.9400   18.3790  -31.9800 C   0  0  0  0  0  0  0  0  0  0  0  0
   -5.7730   19.7410  -32.2530 C   0  0  0  0  0  0  0  0  0  0  0  0
   -6.8960   20.5770  -32.3460 C   0  0  0  0  0  0  0  0  0  0  0  0
   -6.7710   22.0430  -32.6570 C   0  0  0  0  0  0  0  0  0  0  0  0
    1.6746   24.5719  -26.4013 H   0  0  0  0  0  0  0  0  0  0  0  0
    2.2000   23.5023  -27.7454 H   0  0  0  0  0  0  0  0  0  0  0  0
    2.6627   25.2380  -27.7454 H   0  0  0  0  0  0  0  0  0  0  0  0
   -0.0092   26.5412  -26.1952 H   0  0  0  0  0  0  0  0  0  0  0  0
   -2.2884   26.7414  -25.1909 H   0  0  0  0  0  0  0  0  0  0  0  0
   -4.1689   25.3074  -26.0264 H   0  0  0  0  0  0  0  0  0  0  0  0
    0.3077   23.0802  -29.8830 H   0  0  0  0  0  0  0  0  0  0  0  0
   -0.2946   21.2892  -31.5402 H   0  0  0  0  0  0  0  0  0  0  0  0
   -2.6378   20.4278  -31.6633 H   0  0  0  0  0  0  0  0  0  0  0  0
   -4.4004   21.3358  -30.1249 H   0  0  0  0  0  0  0  0  0  0  0  0
   -4.4045   22.6890  -27.4403 H   0  0  0  0  0  0  0  0  0  0  0  0
   -6.6530   25.6054  -30.9492 H   0  0  0  0  0  0  0  0  0  0  0  0
   -5.7545   24.4778  -32.0525 H   0  0  0  0  0  0  0  0  0  0  0  0
   -6.5314   22.7344  -30.1110 H   0  0  0  0  0  0  0  0  0  0  0  0
   -7.9028   23.9418  -30.0745 H   0  0  0  0  0  0  0  0  0  0  0  0
   -9.1437   22.0957  -30.4971 H   0  0  0  0  0  0  0  0  0  0  0  0
   -9.7963   23.0239  -31.9344 H   0  0  0  0  0  0  0  0  0  0  0  0
  -10.2450   20.5014  -31.9016 H   0  0  0  0  0  0  0  0  0  0  0  0
   -9.5106   21.1919  -33.3909 H   0  0  0  0  0  0  0  0  0  0  0  0
   -9.3547   18.2567  -31.8060 H   0  0  0  0  0  0  0  0  0  0  0  0
   -7.3519   16.7753  -31.6046 H   0  0  0  0  0  0  0  0  0  0  0  0
   -5.0599   17.7248  -31.8933 H   0  0  0  0  0  0  0  0  0  0  0  0
   -4.7639   20.1554  -32.3944 H   0  0  0  0  0  0  0  0  0  0  0  0
   -5.7419   22.3662  -32.4412 H   0  0  0  0  0  0  0  0  0  0  0  0
   -7.0171   22.1891  -33.7191 H   0  0  0  0  0  0  0  0  0  0  0  0
  1  2  1  0
  2  3  1  0
  3  4  2  0
  4  5  1  0
  5  6  2  0
  6  7  1  0
  7  8  2  0
  8  9  1  0
  9 10  2  0
 10 11  1  0
 11 12  2  0
 12 13  1  0
 13 14  2  0
 14 15  1  0
 15 16  1  0
 16 17  1  0
 17 18  2  0
 17 19  1  0
 19 20  1  0
 20 21  1  0
 21 22  1  0
 22 23  1  0
 23 24  1  0
 24 25  2  0
 25 26  1  0
 26 27  2  0
 27 28  1  0
 28 29  2  0
 29 30  1  0
  8  3  1  0
 14  9  1  0
 30 21  1  0
 15  7  1  0
 29 24  1  0
  1 31  1  0
  1 32  1  0
  1 33  1  0
  4 34  1  0
  5 35  1  0
  6 36  1  0
 10 37  1  0
 11 38  1  0
 12 39  1  0
 13 40  1  0
 15 41  1  1
 19 42  1  0
 19 43  1  0
 20 44  1  0
 20 45  1  0
 22 46  1  0
 22 47  1  0
 23 48  1  0
 23 49  1  0
 25 50  1  0
 26 51  1  0
 27 52  1  0
 28 53  1  0
 30 54  1  0
 30 55  1  0
M  CHG  1  16  -1
M  END
>  <UniqueID>  (49) 
48

>  <SMILES>  (49) 
COc1cccc2c1-c1ccccc1[C@@H]2[N-]C(=O)CCN1CCc2ccccc2C1

>  <Energy>  (49) 
92.50147597817543

>  <Genealogy>  (49) 
COc1cccc2c1-c1ccccc1C2[N-]C(=O)CCN1CCc2ccccc2C1 (protonated)
COc1cccc2c1-c1ccccc1[C@@H]2[N-]C(=O)CCN1CCc2ccccc2C1 (chirality)
COc1cccc2c1-c1ccccc1[C@@H]2[N-]C(=O)CCN1CCc2ccccc2C1 (3D coordinates assigned)
COc1cccc2c1-c1ccccc1[C@@H]2[N-]C(=O)CCN1CCc2ccccc2C1 (nonaromatic ring conformer: 92.50147597817543 kcal/mol)

>  <smiles>  (49) 
COc1cccc2c1-c1ccccc1C2NC(=O)CCN1CCc2ccccc2C1

>  <score_type>  (49) 
oracle

>  <origin>  (49) 
adg

>  <m_score__min__energy>  (49) 
-12.44

>  <m_primary>  (49) 
energy

$$$$
49:0
     RDKit          3D

 40 42  0  0  0  0  0  0  0  0999 V2000
   -9.8480   21.2990  -32.0080 C   0  0  0  0  0  0  0  0  0  0  0  0
   -9.0950   21.2700  -30.7510 N   0  0  0  0  0  0  0  0  0  0  0  0
   -7.8220   22.0010  -30.8510 C   0  0  0  0  0  0  0  0  0  0  0  0
   -6.7650   21.2160  -31.5880 C   0  0  0  0  0  0  0  0  0  0  0  0
   -6.9760   19.9040  -32.0440 C   0  0  0  0  0  0  0  0  0  0  0  0
   -5.8580   19.3290  -32.6530 C   0  0  0  0  0  0  0  0  0  0  0  0
   -5.7640   17.9620  -33.2250 C   0  0  0  0  0  0  0  0  0  0  0  0
   -6.9090   17.1440  -33.3060 C   0  0  0  0  0  0  0  0  0  0  0  0
   -6.8250   15.8560  -33.8420 C   0  0  0  0  0  0  0  0  0  0  0  0
   -5.6010   15.3660  -34.3020 C   0  0  0  0  0  0  0  0  0  0  0  0
   -4.4580   16.1620  -34.2250 C   0  0  0  0  0  0  0  0  0  0  0  0
   -4.5340   17.4520  -33.6890 C   0  0  0  0  0  0  0  0  0  0  0  0
   -4.6020   20.4570  -32.6080 S   0  0  0  0  0  0  0  0  0  0  0  0
   -5.4750   21.6750  -31.8530 C   0  0  0  0  0  0  0  0  0  0  0  0
   -4.9100   22.9240  -31.4380 N   0  0  0  0  0  0  0  0  0  0  0  0
   -3.4920   23.0200  -31.0890 C   0  0  0  0  0  0  0  0  0  0  0  0
   -3.2970   24.1200  -30.0430 C   0  0  0  0  0  0  0  0  0  0  0  0
   -3.8940   25.3310  -30.4690 O   0  0  0  0  0  0  0  0  0  0  0  0
   -5.2980   25.1710  -30.5490 C   0  0  0  0  0  0  0  0  0  0  0  0
   -5.6700   24.1580  -31.6360 C   0  0  0  0  0  0  0  0  0  0  0  0
  -10.9252   21.3405  -31.7892 H   0  0  0  0  0  0  0  0  0  0  0  0
   -9.5574   22.1866  -32.5891 H   0  0  0  0  0  0  0  0  0  0  0  0
   -9.6265   20.3917  -32.5891 H   0  0  0  0  0  0  0  0  0  0  0  0
   -9.6890   21.6950  -30.0030 H   0  0  0  0  0  0  0  0  0  0  0  0
   -7.9981   22.9457  -31.3863 H   0  0  0  0  0  0  0  0  0  0  0  0
   -7.4562   22.1793  -29.8291 H   0  0  0  0  0  0  0  0  0  0  0  0
   -7.9350   19.3771  -31.9316 H   0  0  0  0  0  0  0  0  0  0  0  0
   -7.8765   17.5224  -32.9444 H   0  0  0  0  0  0  0  0  0  0  0  0
   -7.7253   15.2267  -33.9016 H   0  0  0  0  0  0  0  0  0  0  0  0
   -5.5381   14.3525  -34.7250 H   0  0  0  0  0  0  0  0  0  0  0  0
   -3.4942   15.7743  -34.5867 H   0  0  0  0  0  0  0  0  0  0  0  0
   -3.6279   18.0728  -33.6291 H   0  0  0  0  0  0  0  0  0  0  0  0
   -3.1497   22.0587  -30.6783 H   0  0  0  0  0  0  0  0  0  0  0  0
   -2.9086   23.2629  -31.9894 H   0  0  0  0  0  0  0  0  0  0  0  0
   -3.7594   23.8035  -29.0964 H   0  0  0  0  0  0  0  0  0  0  0  0
   -2.2187   24.2881  -29.9052 H   0  0  0  0  0  0  0  0  0  0  0  0
   -5.6760   24.8144  -29.5795 H   0  0  0  0  0  0  0  0  0  0  0  0
   -5.7491   26.1416  -30.8029 H   0  0  0  0  0  0  0  0  0  0  0  0
   -6.7463   23.9382  -31.5786 H   0  0  0  0  0  0  0  0  0  0  0  0
   -5.4321   24.5788  -32.6241 H   0  0  0  0  0  0  0  0  0  0  0  0
  1  2  1  0
  2  3  1  0
  3  4  1  0
  4  5  1  0
  5  6  2  0
  6  7  1  0
  7  8  2  0
  8  9  1  0
  9 10  2  0
 10 11  1  0
 11 12  2  0
  6 13  1  0
 13 14  1  0
 14 15  1  0
 15 16  1  0
 16 17  1  0
 17 18  1  0
 18 19  1  0
 19 20  1  0
 14  4  2  0
 20 15  1  0
 12  7  1  0
  1 21  1  0
  1 22  1  0
  1 23  1  0
  2 24  1  0
  3 25  1  0
  3 26  1  0
  5 27  1  0
  8 28  1  0
  9 29  1  0
 10 30  1  0
 11 31  1  0
 12 32  1  0
 16 33  1  0
 16 34  1  0
 17 35  1  0
 17 36  1  0
 19 37  1  0
 19 38  1  0
 20 39  1  0
 20 40  1  0
M  END
>  <UniqueID>  (50) 
49

>  <SMILES>  (50) 
CNCc1cc(-c2ccccc2)sc1N1CCOCC1

>  <Energy>  (50) 
75.28636107314705

>  <Genealogy>  (50) 
CNCc1cc(-c2ccccc2)sc1N1CCOCC1 (3D coordinates assigned)
CNCc1cc(-c2ccccc2)sc1N1CCOCC1 (nonaromatic ring conformer: 75.28636107314705 kcal/mol)

>  <smiles>  (50) 
CNCc1cc(-c2ccccc2)sc1N1CCOCC1

>  <score_type>  (50) 
oracle

>  <origin>  (50) 
adg

>  <m_score__min__energy>  (50) 
-7.5599999999999996

>  <m_primary>  (50) 
energy

$$$$
