0:0
     RDKit          3D

 50 52  0  0  0  0  0  0  0  0999 V2000
   -0.9880   18.6100  -33.2880 C   0  0  0  0  0  0  0  0  0  0  0  0
   -0.9850   19.4530  -34.5600 C   0  0  0  0  0  0  0  0  0  0  0  0
   -0.9590   20.8940  -34.2280 N   0  0  0  0  0  0  0  0  0  0  0  0
    0.1220   21.6100  -34.9260 C   0  0  0  0  0  0  0  0  0  0  0  0
   -0.9760   21.1590  -32.7690 C   0  0  0  0  0  0  0  0  0  0  0  0
   -2.3570   21.5490  -32.1920 C   0  0  0  0  0  0  0  0  0  0  0  0
   -3.4010   21.5720  -33.2180 N   0  0  0  0  0  0  0  0  0  0  0  0
   -4.7400   21.1730  -32.8890 C   0  0  0  0  0  0  0  0  0  0  0  0
   -5.5750   22.0580  -32.1860 C   0  0  0  0  0  0  0  0  0  0  0  0
   -6.9020   21.6660  -31.8750 C   0  0  0  0  0  0  0  0  0  0  0  0
   -7.4010   20.4690  -32.3560 N   0  0  0  0  0  0  0  0  0  0  0  0
   -8.8420   20.1550  -32.2240 C   0  0  0  0  0  0  0  0  0  0  0  0
   -6.5540   19.5430  -32.9400 C   0  0  0  0  0  0  0  0  0  0  0  0
   -6.9820   18.2260  -33.2470 C   0  0  0  0  0  0  0  0  0  0  0  0
   -6.1190   17.3060  -33.8430 C   0  0  0  0  0  0  0  0  0  0  0  0
   -6.6800   15.6850  -34.2130 Cl  0  0  0  0  0  0  0  0  0  0  0  0
   -4.8070   17.6650  -34.1300 C   0  0  0  0  0  0  0  0  0  0  0  0
   -4.3500   18.9420  -33.8170 C   0  0  0  0  0  0  0  0  0  0  0  0
   -5.2080   19.8920  -33.2270 C   0  0  0  0  0  0  0  0  0  0  0  0
   -7.7930   22.6060  -31.0680 C   0  0  0  0  0  0  0  0  0  0  0  0
   -7.0220   23.6730  -30.2920 C   0  0  0  0  0  0  0  0  0  0  0  0
   -6.0450   24.3740  -31.2230 C   0  0  0  0  0  0  0  0  0  0  0  0
   -4.9940   23.3810  -31.7100 C   0  0  0  0  0  0  0  0  0  0  0  0
   -0.9856   19.2719  -32.4094 H   0  0  0  0  0  0  0  0  0  0  0  0
   -1.8884   17.9784  -33.2688 H   0  0  0  0  0  0  0  0  0  0  0  0
   -0.0921   17.9720  -33.2688 H   0  0  0  0  0  0  0  0  0  0  0  0
   -0.0957   19.2033  -35.1573 H   0  0  0  0  0  0  0  0  0  0  0  0
   -1.8996   19.2367  -35.1316 H   0  0  0  0  0  0  0  0  0  0  0  0
    0.8010   22.0597  -34.1866 H   0  0  0  0  0  0  0  0  0  0  0  0
    0.6822   20.9038  -35.5564 H   0  0  0  0  0  0  0  0  0  0  0  0
   -0.3097   22.4013  -35.5564 H   0  0  0  0  0  0  0  0  0  0  0  0
   -0.6350   20.2494  -32.2529 H   0  0  0  0  0  0  0  0  0  0  0  0
   -0.3186   22.0258  -32.6061 H   0  0  0  0  0  0  0  0  0  0  0  0
   -2.6367   20.8181  -31.4190 H   0  0  0  0  0  0  0  0  0  0  0  0
   -2.2731   22.5631  -31.7742 H   0  0  0  0  0  0  0  0  0  0  0  0
   -3.1360   21.6010  -34.2290 H   0  0  0  0  0  0  0  0  0  0  0  0
   -9.1085   20.0969  -31.1584 H   0  0  0  0  0  0  0  0  0  0  0  0
   -9.4352   20.9450  -32.7078 H   0  0  0  0  0  0  0  0  0  0  0  0
   -9.0528   19.1899  -32.7078 H   0  0  0  0  0  0  0  0  0  0  0  0
   -8.0132   17.9245  -33.0109 H   0  0  0  0  0  0  0  0  0  0  0  0
   -4.1298   16.9397  -34.6046 H   0  0  0  0  0  0  0  0  0  0  0  0
   -3.3060   19.2132  -34.0328 H   0  0  0  0  0  0  0  0  0  0  0  0
   -8.4816   23.1113  -31.7612 H   0  0  0  0  0  0  0  0  0  0  0  0
   -8.3201   21.9887  -30.3257 H   0  0  0  0  0  0  0  0  0  0  0  0
   -7.7286   24.4091  -29.8811 H   0  0  0  0  0  0  0  0  0  0  0  0
   -6.4666   23.1975  -29.4702 H   0  0  0  0  0  0  0  0  0  0  0  0
   -6.5913   24.7809  -32.0867 H   0  0  0  0  0  0  0  0  0  0  0  0
   -5.5487   25.1920  -30.6803 H   0  0  0  0  0  0  0  0  0  0  0  0
   -4.4443   23.8392  -32.5454 H   0  0  0  0  0  0  0  0  0  0  0  0
   -4.3435   23.1557  -30.8521 H   0  0  0  0  0  0  0  0  0  0  0  0
  1  2  1  0
  2  3  1  0
  3  4  1  0
  3  5  1  0
  5  6  1  0
  6  7  1  0
  7  8  1  0
  8  9  2  0
  9 10  1  0
 10 11  2  0
 11 12  1  0
 11 13  1  0
 13 14  2  0
 14 15  1  0
 15 16  1  0
 15 17  2  0
 17 18  1  0
 18 19  2  0
 10 20  1  0
 20 21  1  0
 21 22  1  0
 22 23  1  0
 19  8  1  0
 23  9  1  0
 19 13  1  0
  1 24  1  0
  1 25  1  0
  1 26  1  0
  2 27  1  0
  2 28  1  0
  4 29  1  0
  4 30  1  0
  4 31  1  0
  5 32  1  0
  5 33  1  0
  6 34  1  0
  6 35  1  0
  7 36  1  0
 12 37  1  0
 12 38  1  0
 12 39  1  0
 14 40  1  0
 17 41  1  0
 18 42  1  0
 20 43  1  0
 20 44  1  0
 21 45  1  0
 21 46  1  0
 22 47  1  0
 22 48  1  0
 23 49  1  0
 23 50  1  0
M  CHG  1  11   1
M  END
>  <UniqueID>  (1) 
1

>  <SMILES>  (1) 
CCN(C)CCNc1c2c([n+](C)c3cc(Cl)ccc13)CCCC2

>  <Energy>  (1) 
71.77226504360978

>  <Genealogy>  (1) 
CCN(C)CCNc1c2c([n+](C)c3cc(Cl)ccc13)CCCC2 (3D coordinates assigned)
CCN(C)CCNc1c2c([n+](C)c3cc(Cl)ccc13)CCCC2 (nonaromatic ring conformer: 71.77226504360978 kcal/mol)

>  <smiles>  (1) 
CCN(C)CCNc1c2c([n+](C)c3cc(Cl)ccc13)CCCC2

>  <score_type>  (1) 
oracle

>  <origin>  (1) 
adg

>  <m_score__min__energy>  (1) 
-8.4499999999999993

>  <m_primary>  (1) 
energy

$$$$
1:0
     RDKit          3D

 48 49  0  0  0  0  0  0  0  0999 V2000
   -6.3970   14.9580  -34.2190 C   0  0  0  0  0  0  0  0  0  0  0  0
   -5.6320   15.8650  -33.2620 C   0  0  0  0  0  0  0  0  0  0  0  0
   -5.5740   17.2360  -33.7880 N   0  0  0  0  0  0  0  0  0  0  0  0
   -4.5720   17.6030  -34.8010 C   0  0  0  0  0  0  0  0  0  0  0  0
   -3.1850   17.7500  -34.1760 C   0  0  0  0  0  0  0  0  0  0  0  0
   -2.8500   19.4530  -33.7640 Cl  0  0  0  0  0  0  0  0  0  0  0  0
   -6.5000   18.2280  -33.3020 C   0  0  0  0  0  0  0  0  0  0  0  0
   -6.2710   19.5920  -33.5430 C   0  0  0  0  0  0  0  0  0  0  0  0
   -7.1600   20.5540  -33.0590 C   0  0  0  0  0  0  0  0  0  0  0  0
   -8.2950   20.1680  -32.3290 C   0  0  0  0  0  0  0  0  0  0  0  0
   -9.2340   21.2130  -31.7800 C   0  0  0  0  0  0  0  0  0  0  0  0
   -8.5410   22.5710  -31.5970 C   0  0  0  0  0  0  0  0  0  0  0  0
   -7.6070   22.5850  -30.3650 C   0  0  0  0  0  0  0  0  0  0  0  0
   -6.4220   23.4610  -30.5060 N   0  0  0  0  0  0  0  0  0  0  0  0
   -6.6910   24.8700  -30.1600 C   0  0  0  0  0  0  0  0  0  0  0  0
   -5.3820   25.6820  -30.1170 C   0  0  0  0  0  0  0  0  0  0  0  0
   -4.3730   25.0350  -30.8670 O   0  0  0  0  0  0  0  0  0  0  0  0
   -3.9990   23.8200  -30.2350 C   0  0  0  0  0  0  0  0  0  0  0  0
   -5.2140   22.9580  -29.8300 C   0  0  0  0  0  0  0  0  0  0  0  0
   -8.5260   18.8050  -32.0880 C   0  0  0  0  0  0  0  0  0  0  0  0
   -7.6350   17.8420  -32.5710 C   0  0  0  0  0  0  0  0  0  0  0  0
   -7.0008   14.2421  -33.6419 H   0  0  0  0  0  0  0  0  0  0  0  0
   -7.0577   15.5677  -34.8528 H   0  0  0  0  0  0  0  0  0  0  0  0
   -5.6846   14.4096  -34.8528 H   0  0  0  0  0  0  0  0  0  0  0  0
   -6.1402   15.8727  -32.2865 H   0  0  0  0  0  0  0  0  0  0  0  0
   -4.6066   15.4823  -33.1523 H   0  0  0  0  0  0  0  0  0  0  0  0
   -4.5372   16.8193  -35.5721 H   0  0  0  0  0  0  0  0  0  0  0  0
   -4.8598   18.5683  -35.2430 H   0  0  0  0  0  0  0  0  0  0  0  0
   -3.1360   17.1417  -33.2608 H   0  0  0  0  0  0  0  0  0  0  0  0
   -2.4336   17.4100  -34.9039 H   0  0  0  0  0  0  0  0  0  0  0  0
   -5.3860   19.9048  -34.1165 H   0  0  0  0  0  0  0  0  0  0  0  0
   -6.9697   21.6203  -33.2509 H   0  0  0  0  0  0  0  0  0  0  0  0
  -10.0759   21.3352  -32.4773 H   0  0  0  0  0  0  0  0  0  0  0  0
   -9.5805   20.8730  -30.7929 H   0  0  0  0  0  0  0  0  0  0  0  0
   -7.9459   22.7897  -32.4959 H   0  0  0  0  0  0  0  0  0  0  0  0
   -9.3205   23.3311  -31.4402 H   0  0  0  0  0  0  0  0  0  0  0  0
   -8.1880   22.9293  -29.4967 H   0  0  0  0  0  0  0  0  0  0  0  0
   -7.2271   21.5594  -30.2474 H   0  0  0  0  0  0  0  0  0  0  0  0
   -7.3609   25.3055  -30.9160 H   0  0  0  0  0  0  0  0  0  0  0  0
   -7.1610   24.9056  -29.1661 H   0  0  0  0  0  0  0  0  0  0  0  0
   -5.5621   26.6816  -30.5392 H   0  0  0  0  0  0  0  0  0  0  0  0
   -5.0497   25.7660  -29.0718 H   0  0  0  0  0  0  0  0  0  0  0  0
   -3.3729   23.2407  -30.9296 H   0  0  0  0  0  0  0  0  0  0  0  0
   -3.4550   24.0790  -29.3147 H   0  0  0  0  0  0  0  0  0  0  0  0
   -5.0369   21.9134  -30.1255 H   0  0  0  0  0  0  0  0  0  0  0  0
   -5.3547   23.0128  -28.7404 H   0  0  0  0  0  0  0  0  0  0  0  0
   -9.4124   18.4928  -31.5163 H   0  0  0  0  0  0  0  0  0  0  0  0
   -7.8242   16.7759  -32.3773 H   0  0  0  0  0  0  0  0  0  0  0  0
  1  2  1  0
  2  3  1  0
  3  4  1  0
  4  5  1  0
  5  6  1  0
  3  7  1  0
  7  8  2  0
  8  9  1  0
  9 10  2  0
 10 11  1  0
 11 12  1  0
 12 13  1  0
 13 14  1  0
 14 15  1  0
 15 16  1  0
 16 17  1  0
 17 18  1  0
 18 19  1  0
 10 20  1  0
 20 21  2  0
 21  7  1  0
 19 14  1  0
  1 22  1  0
  1 23  1  0
  1 24  1  0
  2 25  1  0
  2 26  1  0
  4 27  1  0
  4 28  1  0
  5 29  1  0
  5 30  1  0
  8 31  1  0
  9 32  1  0
 11 33  1  0
 11 34  1  0
 12 35  1  0
 12 36  1  0
 13 37  1  0
 13 38  1  0
 15 39  1  0
 15 40  1  0
 16 41  1  0
 16 42  1  0
 18 43  1  0
 18 44  1  0
 19 45  1  0
 19 46  1  0
 20 47  1  0
 21 48  1  0
M  END
>  <UniqueID>  (2) 
2

>  <SMILES>  (2) 
CCN(CCCl)c1ccc(CCCN2CCOCC2)cc1

>  <Energy>  (2) 
52.44838055961162

>  <Genealogy>  (2) 
CCN(CCCl)c1ccc(CCCN2CCOCC2)cc1 (3D coordinates assigned)
CCN(CCCl)c1ccc(CCCN2CCOCC2)cc1 (nonaromatic ring conformer: 52.44838055961162 kcal/mol)

>  <smiles>  (2) 
CCN(CCCl)c1ccc(CCCN2CCOCC2)cc1

>  <score_type>  (2) 
oracle

>  <origin>  (2) 
adg

>  <m_score__min__energy>  (2) 
-7.8899999999999997

>  <m_primary>  (2) 
energy

$$$$
2:0
     RDKit          3D

 73 75  0  0  0  0  0  0  0  0999 V2000
   -0.7001   17.1967  -34.7912 H   0  0  0  0  0  0  0  0  0  0  0  0
   -0.6490   18.1490  -34.2430 C   0  0  0  0  0  0  0  0  0  0  0  0
   -0.7770   19.2600  -34.9050 N   0  0  0  0  0  0  0  0  0  0  0  0
    0.3040   20.0710  -35.4660 C   0  0  0  0  0  0  0  0  0  0  0  0
    1.2612   19.5573  -35.2931 H   0  0  0  0  0  0  0  0  0  0  0  0
    0.1129   20.1990  -36.5417 H   0  0  0  0  0  0  0  0  0  0  0  0
    0.3640   21.4630  -34.8230 C   0  0  0  0  0  0  0  0  0  0  0  0
    1.1697   21.4783  -34.0742 H   0  0  0  0  0  0  0  0  0  0  0  0
    0.5556   22.2044  -35.6127 H   0  0  0  0  0  0  0  0  0  0  0  0
   -0.9050   21.7980  -34.1680 N   0  0  0  0  0  0  0  0  0  0  0  0
   -1.6620   21.2390  -34.6310 H   0  0  0  0  0  0  0  0  0  0  0  0
   -0.8700   21.4100  -32.7540 C   0  0  0  0  0  0  0  0  0  0  0  0
   -0.3189   20.4635  -32.6517 H   0  0  0  0  0  0  0  0  0  0  0  0
   -0.3700   22.2035  -32.1793 H   0  0  0  0  0  0  0  0  0  0  0  0
   -2.2900   21.2270  -32.2140 C   0  0  0  0  0  0  0  0  0  0  0  0
   -2.3439   20.2812  -31.6549 H   0  0  0  0  0  0  0  0  0  0  0  0
   -2.5285   22.0756  -31.5560 H   0  0  0  0  0  0  0  0  0  0  0  0
   -3.2610   21.1940  -33.3050 N   0  0  0  0  0  0  0  0  0  0  0  0
   -3.0350   21.7030  -34.1900 H   0  0  0  0  0  0  0  0  0  0  0  0
   -4.5990   20.7100  -33.0950 C   0  0  0  0  0  0  0  0  0  0  0  0
   -4.9410   19.3920  -33.4480 C   0  0  0  0  0  0  0  0  0  0  0  0
   -4.0260   18.5680  -34.1370 C   0  0  0  0  0  0  0  0  0  0  0  0
   -3.0250   18.9530  -34.3817 H   0  0  0  0  0  0  0  0  0  0  0  0
   -4.3760   17.2720  -34.5110 C   0  0  0  0  0  0  0  0  0  0  0  0
   -3.6438   16.6311  -35.0240 H   0  0  0  0  0  0  0  0  0  0  0  0
   -5.6500   16.7890  -34.2360 C   0  0  0  0  0  0  0  0  0  0  0  0
   -5.9290   15.7711  -34.5459 H   0  0  0  0  0  0  0  0  0  0  0  0
   -6.5750   17.5900  -33.5690 C   0  0  0  0  0  0  0  0  0  0  0  0
   -7.5866   17.2025  -33.3778 H   0  0  0  0  0  0  0  0  0  0  0  0
   -6.2350   18.8970  -33.1320 C   0  0  0  0  0  0  0  0  0  0  0  0
   -7.1290   19.6860  -32.4310 N   0  0  0  0  0  0  0  0  0  0  0  0
   -8.3540   19.0870  -31.8560 C   0  0  0  0  0  0  0  0  0  0  0  0
   -8.2955   19.1156  -30.7579 H   0  0  0  0  0  0  0  0  0  0  0  0
   -9.2330   19.6569  -32.1913 H   0  0  0  0  0  0  0  0  0  0  0  0
   -8.4440   18.0432  -32.1913 H   0  0  0  0  0  0  0  0  0  0  0  0
   -6.8690   21.0330  -32.2530 C   0  0  0  0  0  0  0  0  0  0  0  0
   -7.8620   21.9300  -31.7750 C   0  0  0  0  0  0  0  0  0  0  0  0
   -8.8803   21.5585  -31.5879 H   0  0  0  0  0  0  0  0  0  0  0  0
   -7.5690   23.2720  -31.5390 C   0  0  0  0  0  0  0  0  0  0  0  0
   -8.3484   23.9445  -31.1514 H   0  0  0  0  0  0  0  0  0  0  0  0
   -6.2920   23.7620  -31.7930 C   0  0  0  0  0  0  0  0  0  0  0  0
   -6.0572   24.8164  -31.5852 H   0  0  0  0  0  0  0  0  0  0  0  0
   -5.3100   22.9200  -32.3100 C   0  0  0  0  0  0  0  0  0  0  0  0
   -4.3093   23.3218  -32.5274 H   0  0  0  0  0  0  0  0  0  0  0  0
   -5.5830   21.5590  -32.5580 C   0  0  0  0  0  0  0  0  0  0  0  0
   -0.4440   18.1190  -32.8270 N   0  0  0  0  0  0  0  0  0  0  0  0
   -0.8640   18.8470  -32.2120 H   0  0  0  0  0  0  0  0  0  0  0  0
    0.2840   17.1200  -32.2650 O   0  0  0  0  0  0  0  0  0  0  0  0
    0.2180   17.3310  -30.8720 C   0  0  0  0  0  0  0  0  0  0  0  0
    0.6538   16.4653  -30.3518 H   0  0  0  0  0  0  0  0  0  0  0  0
   -0.8342   17.4546  -30.5759 H   0  0  0  0  0  0  0  0  0  0  0  0
    0.9970   18.5940  -30.4940 C   0  0  0  0  0  0  0  0  0  0  0  0
    1.8098   18.7444  -31.2198 H   0  0  0  0  0  0  0  0  0  0  0  0
    1.4009   18.4623  -29.4794 H   0  0  0  0  0  0  0  0  0  0  0  0
    0.1560   19.7390  -30.4970 O   0  0  0  0  0  0  0  0  0  0  0  0
   -0.0590   20.2330  -29.1820 C   0  0  0  0  0  0  0  0  0  0  0  0
    0.2010   21.3013  -29.1481 H   0  0  0  0  0  0  0  0  0  0  0  0
    0.5731   19.6704  -28.4792 H   0  0  0  0  0  0  0  0  0  0  0  0
   -1.5340   20.0560  -28.7830 C   0  0  0  0  0  0  0  0  0  0  0  0
   -2.1187   19.7743  -29.6711 H   0  0  0  0  0  0  0  0  0  0  0  0
   -1.9088   21.0040  -28.3698 H   0  0  0  0  0  0  0  0  0  0  0  0
   -1.6660   18.9960  -27.7540 N   0  0  0  0  0  0  0  0  0  0  0  0
   -0.3520   18.3820  -27.4790 C   0  0  0  0  0  0  0  0  0  0  0  0
   -0.2007   18.3113  -26.3918 H   0  0  0  0  0  0  0  0  0  0  0  0
   -0.3183   17.3749  -27.9202 H   0  0  0  0  0  0  0  0  0  0  0  0
    0.4421   19.0023  -27.9202 H   0  0  0  0  0  0  0  0  0  0  0  0
   -2.2550   19.5200  -26.5010 C   0  0  0  0  0  0  0  0  0  0  0  0
   -2.7244   20.4940  -26.7036 H   0  0  0  0  0  0  0  0  0  0  0  0
   -1.4543   19.6270  -25.7544 H   0  0  0  0  0  0  0  0  0  0  0  0
   -3.3100   18.5610  -25.9510 C   0  0  0  0  0  0  0  0  0  0  0  0
   -3.2869   18.5820  -24.8514 H   0  0  0  0  0  0  0  0  0  0  0  0
   -4.3054   18.8700  -26.3028 H   0  0  0  0  0  0  0  0  0  0  0  0
   -3.0971   17.5408  -26.3028 H   0  0  0  0  0  0  0  0  0  0  0  0
  1  2  1  0
  2  3  2  0
  3  4  1  0
  4  5  1  0
  4  6  1  0
  4  7  1  0
  7  8  1  0
  7  9  1  0
  7 10  1  0
 10 11  1  0
 10 12  1  0
 12 13  1  0
 12 14  1  0
 12 15  1  0
 15 16  1  0
 15 17  1  0
 15 18  1  0
 18 19  1  0
 18 20  1  0
 20 21  2  0
 21 22  1  0
 22 23  1  0
 22 24  2  0
 24 25  1  0
 24 26  1  0
 26 27  1  0
 26 28  2  0
 28 29  1  0
 28 30  1  0
 30 31  2  0
 31 32  1  0
 32 33  1  0
 32 34  1  0
 32 35  1  0
 31 36  1  0
 36 37  2  0
 37 38  1  0
 37 39  1  0
 39 40  1  0
 39 41  2  0
 41 42  1  0
 41 43  1  0
 43 44  1  0
 43 45  2  0
  2 46  1  0
 46 47  1  0
 46 48  1  0
 48 49  1  0
 49 50  1  0
 49 51  1  0
 49 52  1  0
 52 53  1  0
 52 54  1  0
 52 55  1  0
 55 56  1  0
 56 57  1  0
 56 58  1  0
 56 59  1  0
 59 60  1  0
 59 61  1  0
 59 62  1  0
 62 63  1  0
 63 64  1  0
 63 65  1  0
 63 66  1  0
 62 67  1  0
 67 68  1  0
 67 69  1  0
 67 70  1  0
 70 71  1  0
 70 72  1  0
 70 73  1  0
 45 20  1  0
 30 21  1  0
 45 36  1  0
M  CHG  1  31   1
M  END
>  <UniqueID>  (3) 
3

>  <SMILES>  (3) 
CCN(C)CCOCCON/C=N\CCNCCNc1c2ccccc2[n+](C)c2ccccc12

>  <Energy>  (3) 
94.28275590901374

>  <Genealogy>  (3) 
CCN(C)CCOCCON/C=N\CCNCCNc1c2ccccc2[n+](C)c2ccccc12 (cis-trans isomerization)
CCN(C)CCOCCON/C=N\CCNCCNc1c2ccccc2[n+](C)c2ccccc12 (3D coordinates assigned)
CCN(C)CCOCCON/C=N\CCNCCNc1c2ccccc2[n+](C)c2ccccc12 (optimized conformer: 94.28275590901374 kcal/mol)

>  <smiles>  (3) 
CCN(C)CCOCCONC=NCCNCCNc1c2ccccc2[n+](C)c2ccccc12

>  <score_type>  (3) 
oracle

>  <origin>  (3) 
adg

>  <m_score__min__energy>  (3) 
-8.8499999999999996

>  <m_primary>  (3) 
energy

$$$$
3:0
     RDKit          3D

 48 49  0  0  0  0  0  0  0  0999 V2000
   -6.4280   17.4770  -31.2070 C   0  0  0  0  0  0  0  0  0  0  0  0
   -5.6970   16.8990  -32.4130 C   0  0  0  0  0  0  0  0  0  0  0  0
   -6.5280   17.0580  -33.6910 C   0  0  0  0  0  0  0  0  0  0  0  0
   -6.0580   18.2270  -34.5740 C   0  0  0  0  0  0  0  0  0  0  0  0
   -5.5660   19.3570  -33.7550 N   0  0  0  0  0  0  0  0  0  0  0  0
   -4.2080   19.5570  -33.7490 C   0  0  0  0  0  0  0  0  0  0  0  0
   -3.6380   20.6320  -33.0860 C   0  0  0  0  0  0  0  0  0  0  0  0
   -4.4470   21.5550  -32.4340 C   0  0  0  0  0  0  0  0  0  0  0  0
   -3.8350   22.7080  -31.8440 N   0  0  0  0  0  0  0  0  0  0  0  0
   -2.9440   22.6020  -30.6850 C   0  0  0  0  0  0  0  0  0  0  0  0
   -3.6630   23.0130  -29.3840 C   0  0  0  0  0  0  0  0  0  0  0  0
   -3.7930   24.5340  -29.2250 C   0  0  0  0  0  0  0  0  0  0  0  0
   -3.9050   25.1380  -30.4970 O   0  0  0  0  0  0  0  0  0  0  0  0
   -5.2650   25.3340  -30.8350 C   0  0  0  0  0  0  0  0  0  0  0  0
   -6.1100   25.3980  -29.5690 C   0  0  0  0  0  0  0  0  0  0  0  0
   -5.8380   21.3340  -32.3680 C   0  0  0  0  0  0  0  0  0  0  0  0
   -6.6700   22.1880  -31.6180 C   0  0  0  0  0  0  0  0  0  0  0  0
   -8.0430   21.9690  -31.5600 C   0  0  0  0  0  0  0  0  0  0  0  0
   -8.6080   20.9010  -32.2490 C   0  0  0  0  0  0  0  0  0  0  0  0
   -7.8030   20.0350  -32.9870 C   0  0  0  0  0  0  0  0  0  0  0  0
   -6.3980   20.2140  -33.0500 C   0  0  0  0  0  0  0  0  0  0  0  0
   -5.9601   17.1071  -30.2827 H   0  0  0  0  0  0  0  0  0  0  0  0
   -6.3687   18.5751  -31.2339 H   0  0  0  0  0  0  0  0  0  0  0  0
   -7.4828   17.1660  -31.2339 H   0  0  0  0  0  0  0  0  0  0  0  0
   -4.7397   17.4260  -32.5392 H   0  0  0  0  0  0  0  0  0  0  0  0
   -5.5280   15.8263  -32.2377 H   0  0  0  0  0  0  0  0  0  0  0  0
   -6.4558   16.1278  -34.2737 H   0  0  0  0  0  0  0  0  0  0  0  0
   -7.5626   17.2727  -33.3853 H   0  0  0  0  0  0  0  0  0  0  0  0
   -5.2450   17.8778  -35.2276 H   0  0  0  0  0  0  0  0  0  0  0  0
   -6.9138   18.5774  -35.1697 H   0  0  0  0  0  0  0  0  0  0  0  0
   -3.5577   18.8481  -34.2824 H   0  0  0  0  0  0  0  0  0  0  0  0
   -2.5449   20.7549  -33.0757 H   0  0  0  0  0  0  0  0  0  0  0  0
   -4.2420   23.6450  -32.0580 H   0  0  0  0  0  0  0  0  0  0  0  0
   -2.6011   21.5611  -30.5910 H   0  0  0  0  0  0  0  0  0  0  0  0
   -2.0923   23.2807  -30.8395 H   0  0  0  0  0  0  0  0  0  0  0  0
   -4.6714   22.5735  -29.3870 H   0  0  0  0  0  0  0  0  0  0  0  0
   -3.0570   22.6450  -28.5430 H   0  0  0  0  0  0  0  0  0  0  0  0
   -4.6896   24.7642  -28.6307 H   0  0  0  0  0  0  0  0  0  0  0  0
   -2.9006   24.9243  -28.7138 H   0  0  0  0  0  0  0  0  0  0  0  0
   -5.3702   26.2768  -31.3918 H   0  0  0  0  0  0  0  0  0  0  0  0
   -5.6081   24.4943  -31.4573 H   0  0  0  0  0  0  0  0  0  0  0  0
   -5.4540   25.3483  -28.6874 H   0  0  0  0  0  0  0  0  0  0  0  0
   -6.6752   26.3415  -29.5527 H   0  0  0  0  0  0  0  0  0  0  0  0
   -6.8109   24.5504  -29.5527 H   0  0  0  0  0  0  0  0  0  0  0  0
   -6.2302   23.0362  -31.0729 H   0  0  0  0  0  0  0  0  0  0  0  0
   -8.6821   22.6412  -30.9687 H   0  0  0  0  0  0  0  0  0  0  0  0
   -9.6954   20.7390  -32.2113 H   0  0  0  0  0  0  0  0  0  0  0  0
   -8.2659   19.1979  -33.5301 H   0  0  0  0  0  0  0  0  0  0  0  0
  1  2  1  0
  2  3  1  0
  3  4  1  0
  4  5  1  0
  5  6  2  0
  6  7  1  0
  7  8  2  0
  8  9  1  0
  9 10  1  0
 10 11  1  0
 11 12  1  0
 12 13  1  0
 13 14  1  0
 14 15  1  0
  8 16  1  0
 16 17  2  0
 17 18  1  0
 18 19  2  0
 19 20  1  0
 20 21  2  0
 21  5  1  0
 21 16  1  0
  1 22  1  0
  1 23  1  0
  1 24  1  0
  2 25  1  0
  2 26  1  0
  3 27  1  0
  3 28  1  0
  4 29  1  0
  4 30  1  0
  6 31  1  0
  7 32  1  0
  9 33  1  0
 10 34  1  0
 10 35  1  0
 11 36  1  0
 11 37  1  0
 12 38  1  0
 12 39  1  0
 14 40  1  0
 14 41  1  0
 15 42  1  0
 15 43  1  0
 15 44  1  0
 17 45  1  0
 18 46  1  0
 19 47  1  0
 20 48  1  0
M  CHG  1   5   1
M  END
>  <UniqueID>  (4) 
4

>  <SMILES>  (4) 
CCCC[n+]1ccc(NCCCOCC)c2ccccc21

>  <Energy>  (4) 
51.85673918893276

>  <Genealogy>  (4) 
CCCC[n+]1ccc(NCCCOCC)c2ccccc21 (3D coordinates assigned)
CCCC[n+]1ccc(NCCCOCC)c2ccccc21 (optimized conformer: 51.85673918893276 kcal/mol)

>  <smiles>  (4) 
CCCC[n+]1ccc(NCCCOCC)c2ccccc21

>  <score_type>  (4) 
oracle

>  <origin>  (4) 
adg

>  <m_score__min__energy>  (4) 
-7.5999999999999996

>  <m_primary>  (4) 
energy

$$$$
4:0
     RDKit          3D

 61 64  0  0  0  0  0  0  0  0999 V2000
   -7.6710   18.1490  -31.5780 C   0  0  0  0  0  0  0  0  0  0  0  0
   -9.0680   18.5740  -32.0400 C   0  0  0  0  0  0  0  0  0  0  0  0
   -9.1280   19.9990  -32.4160 N   0  0  0  0  0  0  0  0  0  0  0  0
   -8.3860   20.8550  -31.4770 C   0  0  0  0  0  0  0  0  0  0  0  0
   -8.3970   22.3150  -31.9450 C   0  0  0  0  0  0  0  0  0  0  0  0
   -7.1890   22.6270  -32.7100 N   0  0  0  0  0  0  0  0  0  0  0  0
   -5.8950   22.1300  -32.3260 C   0  0  0  0  0  0  0  0  0  0  0  0
   -5.4170   20.9130  -32.8420 C   0  0  0  0  0  0  0  0  0  0  0  0
   -6.2290   20.1090  -33.6700 C   0  0  0  0  0  0  0  0  0  0  0  0
   -5.7280   18.9420  -34.2430 C   0  0  0  0  0  0  0  0  0  0  0  0
   -4.4130   18.5610  -34.0040 C   0  0  0  0  0  0  0  0  0  0  0  0
   -3.6050   19.3160  -33.1550 C   0  0  0  0  0  0  0  0  0  0  0  0
   -4.1040   20.4810  -32.5140 C   0  0  0  0  0  0  0  0  0  0  0  0
   -3.3460   21.1900  -31.6010 N   0  0  0  0  0  0  0  0  0  0  0  0
   -2.1100   20.5940  -31.0430 C   0  0  0  0  0  0  0  0  0  0  0  0
   -3.7640   22.4370  -31.1720 C   0  0  0  0  0  0  0  0  0  0  0  0
   -2.9170   23.2950  -30.4260 C   0  0  0  0  0  0  0  0  0  0  0  0
   -3.3700   24.5140  -29.9170 C   0  0  0  0  0  0  0  0  0  0  0  0
   -2.4830   25.2730  -29.1330 O   0  0  0  0  0  0  0  0  0  0  0  0
   -1.7630   24.8030  -27.9910 C   0  0  0  0  0  0  0  0  0  0  0  0
   -2.4490   25.2310  -26.6870 C   0  0  0  0  0  0  0  0  0  0  0  0
   -1.4720   25.6140  -25.6600 N   0  0  0  0  0  0  0  0  0  0  0  0
   -1.6510   26.7660  -24.9400 C   0  0  0  0  0  0  0  0  0  0  0  0
   -0.7000   27.1700  -24.0010 C   0  0  0  0  0  0  0  0  0  0  0  0
    0.4330   26.3860  -23.7910 C   0  0  0  0  0  0  0  0  0  0  0  0
    0.6000   25.2070  -24.5160 C   0  0  0  0  0  0  0  0  0  0  0  0
   -0.3670   24.8330  -25.4510 C   0  0  0  0  0  0  0  0  0  0  0  0
   -4.6770   24.9280  -30.1990 C   0  0  0  0  0  0  0  0  0  0  0  0
   -5.5150   24.1300  -30.9710 C   0  0  0  0  0  0  0  0  0  0  0  0
   -5.0690   22.8970  -31.4860 C   0  0  0  0  0  0  0  0  0  0  0  0
   -7.6359   18.1383  -30.4786 H   0  0  0  0  0  0  0  0  0  0  0  0
   -7.4483   17.1425  -31.9618 H   0  0  0  0  0  0  0  0  0  0  0  0
   -6.9255   18.8610  -31.9618 H   0  0  0  0  0  0  0  0  0  0  0  0
   -9.3514   17.9665  -32.9122 H   0  0  0  0  0  0  0  0  0  0  0  0
   -9.7600   18.4203  -31.1989 H   0  0  0  0  0  0  0  0  0  0  0  0
   -8.7030   20.0940  -33.3680 H   0  0  0  0  0  0  0  0  0  0  0  0
  -10.1270   20.3100  -32.4710 H   0  0  0  0  0  0  0  0  0  0  0  0
   -8.8545   20.7913  -30.4838 H   0  0  0  0  0  0  0  0  0  0  0  0
   -7.3434   20.5073  -31.4320 H   0  0  0  0  0  0  0  0  0  0  0  0
   -9.2791   22.4830  -32.5803 H   0  0  0  0  0  0  0  0  0  0  0  0
   -8.4311   22.9676  -31.0601 H   0  0  0  0  0  0  0  0  0  0  0  0
   -7.2780   23.1550  -33.6070 H   0  0  0  0  0  0  0  0  0  0  0  0
   -7.2697   20.4071  -33.8653 H   0  0  0  0  0  0  0  0  0  0  0  0
   -6.3727   18.3227  -34.8840 H   0  0  0  0  0  0  0  0  0  0  0  0
   -4.0078   17.6596  -34.4869 H   0  0  0  0  0  0  0  0  0  0  0  0
   -2.5648   19.0045  -32.9789 H   0  0  0  0  0  0  0  0  0  0  0  0
   -2.1559   20.6162  -29.9442 H   0  0  0  0  0  0  0  0  0  0  0  0
   -2.0182   19.5526  -31.3852 H   0  0  0  0  0  0  0  0  0  0  0  0
   -1.2380   21.1706  -31.3852 H   0  0  0  0  0  0  0  0  0  0  0  0
   -1.8753   22.9925  -30.2433 H   0  0  0  0  0  0  0  0  0  0  0  0
   -1.7124   23.7047  -28.0259 H   0  0  0  0  0  0  0  0  0  0  0  0
   -0.7533   25.2390  -28.0125 H   0  0  0  0  0  0  0  0  0  0  0  0
   -3.1040   26.0902  -26.8941 H   0  0  0  0  0  0  0  0  0  0  0  0
   -3.0283   24.3763  -26.3076 H   0  0  0  0  0  0  0  0  0  0  0  0
   -2.5509   27.3772  -25.1031 H   0  0  0  0  0  0  0  0  0  0  0  0
   -0.8439   28.0999  -23.4313 H   0  0  0  0  0  0  0  0  0  0  0  0
    1.1915   26.6959  -23.0571 H   0  0  0  0  0  0  0  0  0  0  0  0
    1.4865   24.5765  -24.3527 H   0  0  0  0  0  0  0  0  0  0  0  0
   -0.2401   23.9030  -26.0246 H   0  0  0  0  0  0  0  0  0  0  0  0
   -5.0432   25.8889  -29.8083 H   0  0  0  0  0  0  0  0  0  0  0  0
   -6.5407   24.4666  -31.1824 H   0  0  0  0  0  0  0  0  0  0  0  0
  1  2  1  0
  2  3  1  0
  3  4  1  0
  4  5  1  0
  5  6  1  0
  6  7  1  0
  7  8  2  0
  8  9  1  0
  9 10  2  0
 10 11  1  0
 11 12  2  0
 12 13  1  0
 13 14  2  0
 14 15  1  0
 14 16  1  0
 16 17  2  0
 17 18  1  0
 18 19  1  0
 19 20  1  0
 20 21  1  0
 21 22  1  0
 22 23  2  0
 23 24  1  0
 24 25  2  0
 25 26  1  0
 26 27  2  0
 18 28  2  0
 28 29  1  0
 29 30  2  0
 30  7  1  0
 13  8  1  0
 30 16  1  0
 27 22  1  0
  1 31  1  0
  1 32  1  0
  1 33  1  0
  2 34  1  0
  2 35  1  0
  3 36  1  0
  3 37  1  0
  4 38  1  0
  4 39  1  0
  5 40  1  0
  5 41  1  0
  6 42  1  0
  9 43  1  0
 10 44  1  0
 11 45  1  0
 12 46  1  0
 15 47  1  0
 15 48  1  0
 15 49  1  0
 17 50  1  0
 20 51  1  0
 20 52  1  0
 21 53  1  0
 21 54  1  0
 23 55  1  0
 24 56  1  0
 25 57  1  0
 26 58  1  0
 27 59  1  0
 28 60  1  0
 29 61  1  0
M  CHG  3   3   1  14   1  22   1
M  END
>  <UniqueID>  (5) 
5

>  <SMILES>  (5) 
CC[NH2+]CCNc1c2ccccc2[n+](C)c2cc(OCC[n+]3ccccc3)ccc12

>  <Energy>  (5) 
84.68232868754815

>  <Genealogy>  (5) 
CC[NH2+]CCNc1c2ccccc2[n+](C)c2cc(OCC[n+]3ccccc3)ccc12 (protonated)
CC[NH2+]CCNc1c2ccccc2[n+](C)c2cc(OCC[n+]3ccccc3)ccc12 (3D coordinates assigned)
CC[NH2+]CCNc1c2ccccc2[n+](C)c2cc(OCC[n+]3ccccc3)ccc12 (optimized conformer: 84.68232868754815 kcal/mol)

>  <smiles>  (5) 
CCNCCNc1c2ccccc2[n+](C)c2cc(OCC[n+]3ccccc3)ccc12

>  <score_type>  (5) 
oracle

>  <origin>  (5) 
adg

>  <m_score__min__energy>  (5) 
-7.5599999999999996

>  <m_primary>  (5) 
energy

$$$$
5:0
     RDKit          3D

 61 64  0  0  0  0  0  0  0  0999 V2000
   -5.4800   25.3900  -30.8230 C   0  0  0  0  0  0  0  0  0  0  0  0
   -4.6010   24.6280  -29.8340 C   0  0  0  0  0  0  0  0  0  0  0  0
   -3.3080   24.2770  -30.4390 N   0  0  0  0  0  0  0  0  0  0  0  0
   -2.8210   22.9470  -30.0210 C   0  0  0  0  0  0  0  0  0  0  0  0
   -1.3020   22.9780  -29.8090 C   0  0  0  0  0  0  0  0  0  0  0  0
   -0.5700   21.9120  -30.6310 C   0  0  0  0  0  0  0  0  0  0  0  0
   -1.0480   21.9200  -31.9650 O   0  0  0  0  0  0  0  0  0  0  0  0
   -0.2270   21.1460  -32.8210 C   0  0  0  0  0  0  0  0  0  0  0  0
   -0.8200   21.0700  -34.2320 C   0  0  0  0  0  0  0  0  0  0  0  0
   -2.1900   20.3800  -34.2180 C   0  0  0  0  0  0  0  0  0  0  0  0
   -2.8180   20.4870  -32.8930 N   0  0  0  0  0  0  0  0  0  0  0  0
   -4.0400   19.7090  -32.8560 C   0  0  0  0  0  0  0  0  0  0  0  0
   -5.2670   20.3290  -32.5890 C   0  0  0  0  0  0  0  0  0  0  0  0
   -6.4570   19.6170  -32.5910 C   0  0  0  0  0  0  0  0  0  0  0  0
   -6.4800   18.2530  -32.7070 N   0  0  0  0  0  0  0  0  0  0  0  0
   -7.7020   17.5040  -32.3670 C   0  0  0  0  0  0  0  0  0  0  0  0
   -5.3110   17.5980  -33.0580 C   0  0  0  0  0  0  0  0  0  0  0  0
   -5.3170   16.2250  -33.4050 C   0  0  0  0  0  0  0  0  0  0  0  0
   -4.1320   15.5470  -33.6840 C   0  0  0  0  0  0  0  0  0  0  0  0
   -2.9160   16.2150  -33.6340 C   0  0  0  0  0  0  0  0  0  0  0  0
   -2.8740   17.5760  -33.3400 C   0  0  0  0  0  0  0  0  0  0  0  0
   -4.0600   18.3040  -33.0890 C   0  0  0  0  0  0  0  0  0  0  0  0
   -7.5710   20.5700  -32.3550 C   0  0  0  0  0  0  0  0  0  0  0  0
   -8.9630   20.4270  -32.4720 C   0  0  0  0  0  0  0  0  0  0  0  0
   -9.7800   21.5520  -32.2530 C   0  0  0  0  0  0  0  0  0  0  0  0
   -9.2070   22.8070  -31.9680 C   0  0  0  0  0  0  0  0  0  0  0  0
   -7.8110   22.9530  -31.9240 C   0  0  0  0  0  0  0  0  0  0  0  0
   -7.0210   21.8210  -32.1320 C   0  0  0  0  0  0  0  0  0  0  0  0
   -5.5770   21.7250  -32.2570 C   0  0  0  0  0  0  0  0  0  0  0  0
   -4.7610   22.6670  -32.0760 O   0  0  0  0  0  0  0  0  0  0  0  0
   -6.1987   26.0130  -30.2704 H   0  0  0  0  0  0  0  0  0  0  0  0
   -4.8490   26.0316  -31.4556 H   0  0  0  0  0  0  0  0  0  0  0  0
   -6.0256   24.6743  -31.4556 H   0  0  0  0  0  0  0  0  0  0  0  0
   -4.4250   25.2582  -28.9498 H   0  0  0  0  0  0  0  0  0  0  0  0
   -5.1179   23.6996  -29.5494 H   0  0  0  0  0  0  0  0  0  0  0  0
   -3.4400   24.2630  -31.4780 H   0  0  0  0  0  0  0  0  0  0  0  0
   -3.3128   22.6599  -29.0799 H   0  0  0  0  0  0  0  0  0  0  0  0
   -3.0573   22.2160  -30.8083 H   0  0  0  0  0  0  0  0  0  0  0  0
   -0.9256   23.9691  -30.1025 H   0  0  0  0  0  0  0  0  0  0  0  0
   -1.1098   22.7691  -28.7463 H   0  0  0  0  0  0  0  0  0  0  0  0
    0.5089   22.1266  -30.6287 H   0  0  0  0  0  0  0  0  0  0  0  0
   -0.7529   20.9226  -30.1864 H   0  0  0  0  0  0  0  0  0  0  0  0
    0.7708   21.6060  -32.8747 H   0  0  0  0  0  0  0  0  0  0  0  0
   -0.1606   20.1262  -32.4140 H   0  0  0  0  0  0  0  0  0  0  0  0
   -0.9351   22.0894  -34.6289 H   0  0  0  0  0  0  0  0  0  0  0  0
   -0.1393   20.4831  -34.8663 H   0  0  0  0  0  0  0  0  0  0  0  0
   -2.8413   20.8575  -34.9648 H   0  0  0  0  0  0  0  0  0  0  0  0
   -2.0495   19.3151  -34.4553 H   0  0  0  0  0  0  0  0  0  0  0  0
   -2.1550   20.1490  -32.1590 H   0  0  0  0  0  0  0  0  0  0  0  0
   -2.9970   21.4850  -32.6460 H   0  0  0  0  0  0  0  0  0  0  0  0
   -7.8021   17.4427  -31.2733 H   0  0  0  0  0  0  0  0  0  0  0  0
   -8.5776   18.0208  -32.7869 H   0  0  0  0  0  0  0  0  0  0  0  0
   -7.6389   16.4893  -32.7869 H   0  0  0  0  0  0  0  0  0  0  0  0
   -6.2737   15.6844  -33.4552 H   0  0  0  0  0  0  0  0  0  0  0  0
   -4.1601   14.4787  -33.9448 H   0  0  0  0  0  0  0  0  0  0  0  0
   -1.9818   15.6673  -33.8273 H   0  0  0  0  0  0  0  0  0  0  0  0
   -1.9034   18.0923  -33.3025 H   0  0  0  0  0  0  0  0  0  0  0  0
   -9.4066   19.4540  -32.7300 H   0  0  0  0  0  0  0  0  0  0  0  0
  -10.8741   21.4505  -32.3048 H   0  0  0  0  0  0  0  0  0  0  0  0
   -9.8552   23.6755  -31.7793 H   0  0  0  0  0  0  0  0  0  0  0  0
   -7.3520   23.9338  -31.7307 H   0  0  0  0  0  0  0  0  0  0  0  0
  1  2  1  0
  2  3  1  0
  3  4  1  0
  4  5  1  0
  5  6  1  0
  6  7  1  0
  7  8  1  0
  8  9  1  0
  9 10  1  0
 10 11  1  0
 11 12  1  0
 12 13  2  0
 13 14  1  0
 14 15  2  0
 15 16  1  0
 15 17  1  0
 17 18  2  0
 18 19  1  0
 19 20  2  0
 20 21  1  0
 21 22  2  0
 14 23  1  0
 23 24  2  0
 24 25  1  0
 25 26  2  0
 26 27  1  0
 27 28  2  0
 28 29  1  0
 29 30  2  0
 22 12  1  0
 28 23  1  0
 29 13  1  0
 22 17  1  0
  1 31  1  0
  1 32  1  0
  1 33  1  0
  2 34  1  0
  2 35  1  0
  3 36  1  0
  4 37  1  0
  4 38  1  0
  5 39  1  0
  5 40  1  0
  6 41  1  0
  6 42  1  0
  8 43  1  0
  8 44  1  0
  9 45  1  0
  9 46  1  0
 10 47  1  0
 10 48  1  0
 11 49  1  0
 11 50  1  0
 16 51  1  0
 16 52  1  0
 16 53  1  0
 18 54  1  0
 19 55  1  0
 20 56  1  0
 21 57  1  0
 24 58  1  0
 25 59  1  0
 26 60  1  0
 27 61  1  0
M  CHG  2  11   1  15   1
M  END
>  <UniqueID>  (6) 
6

>  <SMILES>  (6) 
CCNCCCOCCC[NH2+]c1c2c([n+](C)c3ccccc13)-c1ccccc1C2=O

>  <Energy>  (6) 
112.4955491097938

>  <Genealogy>  (6) 
CCNCCCOCCC[NH2+]c1c2c([n+](C)c3ccccc13)-c1ccccc1C2=O (protonated)
CCNCCCOCCC[NH2+]c1c2c([n+](C)c3ccccc13)-c1ccccc1C2=O (3D coordinates assigned)
CCNCCCOCCC[NH2+]c1c2c([n+](C)c3ccccc13)-c1ccccc1C2=O (nonaromatic ring conformer: 112.4955491097938 kcal/mol)

>  <smiles>  (6) 
CCNCCCOCCCNc1c2c([n+](C)c3ccccc13)-c1ccccc1C2=O

>  <score_type>  (6) 
oracle

>  <origin>  (6) 
adg

>  <m_score__min__energy>  (6) 
-9

>  <m_primary>  (6) 
energy

$$$$
6:0
     RDKit          3D

 39 39  0  0  0  0  0  0  0  0999 V2000
   -0.8870   24.1690  -27.1220 C   0  0  0  0  0  0  0  0  0  0  0  0
   -2.1730   24.5660  -27.8490 C   0  0  0  0  0  0  0  0  0  0  0  0
   -3.3620   24.5510  -26.8840 C   0  0  0  0  0  0  0  0  0  0  0  0
   -2.4170   23.6450  -28.9640 N   0  0  0  0  0  0  0  0  0  0  0  0
   -3.3070   23.9300  -30.0570 C   0  0  0  0  0  0  0  0  0  0  0  0
   -3.5340   22.7800  -31.2050 S   0  0  0  0  0  0  0  0  0  0  0  0
   -3.9360   25.2190  -30.1850 N   0  0  0  0  0  0  0  0  0  0  0  0
   -5.2840   25.4080  -30.7220 C   0  0  0  0  0  0  0  0  0  0  0  0
   -6.3390   24.8170  -29.7740 C   0  0  0  0  0  0  0  0  0  0  0  0
   -6.7240   23.3630  -30.1000 C   0  0  0  0  0  0  0  0  0  0  0  0
   -7.4050   23.2240  -31.4710 C   0  0  0  0  0  0  0  0  0  0  0  0
   -8.5690   22.2260  -31.4330 C   0  0  0  0  0  0  0  0  0  0  0  0
   -8.1570   20.9220  -31.9520 N   0  0  0  0  0  0  0  0  0  0  0  0
   -8.7560   19.7390  -31.7440 C   0  0  0  0  0  0  0  0  0  0  0  0
   -8.0080   18.7720  -32.3760 C   0  0  0  0  0  0  0  0  0  0  0  0
   -6.9400   19.3420  -32.9730 N   0  0  0  0  0  0  0  0  0  0  0  0
   -7.0640   20.6560  -32.6920 C   0  0  0  0  0  0  0  0  0  0  0  0
   -1.0497   24.2192  -26.0353 H   0  0  0  0  0  0  0  0  0  0  0  0
   -0.6082   23.1430  -27.4040 H   0  0  0  0  0  0  0  0  0  0  0  0
   -0.0783   24.8593  -27.4040 H   0  0  0  0  0  0  0  0  0  0  0  0
   -2.0568   25.5869  -28.2417 H   0  0  0  0  0  0  0  0  0  0  0  0
   -2.9932   24.5557  -25.8477 H   0  0  0  0  0  0  0  0  0  0  0  0
   -3.9847   25.4414  -27.0556 H   0  0  0  0  0  0  0  0  0  0  0  0
   -3.9621   23.6452  -27.0556 H   0  0  0  0  0  0  0  0  0  0  0  0
   -1.8860   22.7430  -28.9850 H   0  0  0  0  0  0  0  0  0  0  0  0
   -3.4970   26.0460  -29.7250 H   0  0  0  0  0  0  0  0  0  0  0  0
   -5.4744   26.4842  -30.8469 H   0  0  0  0  0  0  0  0  0  0  0  0
   -5.3525   24.8911  -31.6905 H   0  0  0  0  0  0  0  0  0  0  0  0
   -5.9405   24.8485  -28.7492 H   0  0  0  0  0  0  0  0  0  0  0  0
   -7.2496   25.4229  -29.8913 H   0  0  0  0  0  0  0  0  0  0  0  0
   -5.8121   22.7479  -30.0958 H   0  0  0  0  0  0  0  0  0  0  0  0
   -7.4422   23.0298  -29.3364 H   0  0  0  0  0  0  0  0  0  0  0  0
   -7.7898   24.2076  -31.7783 H   0  0  0  0  0  0  0  0  0  0  0  0
   -6.6580   22.8493  -32.1862 H   0  0  0  0  0  0  0  0  0  0  0  0
   -8.9087   22.1086  -30.3934 H   0  0  0  0  0  0  0  0  0  0  0  0
   -9.3838   22.6129  -32.0627 H   0  0  0  0  0  0  0  0  0  0  0  0
   -9.6799   19.5722  -31.1707 H   0  0  0  0  0  0  0  0  0  0  0  0
   -8.2445   17.6979  -32.3922 H   0  0  0  0  0  0  0  0  0  0  0  0
   -6.3521   21.4236  -33.0296 H   0  0  0  0  0  0  0  0  0  0  0  0
  1  2  1  0
  2  3  1  0
  2  4  1  0
  4  5  1  0
  5  6  2  0
  5  7  1  0
  7  8  1  0
  8  9  1  0
  9 10  1  0
 10 11  1  0
 11 12  1  0
 12 13  1  0
 13 14  1  0
 14 15  2  0
 15 16  1  0
 16 17  2  0
 17 13  1  0
  1 18  1  0
  1 19  1  0
  1 20  1  0
  2 21  1  0
  3 22  1  0
  3 23  1  0
  3 24  1  0
  4 25  1  0
  7 26  1  0
  8 27  1  0
  8 28  1  0
  9 29  1  0
  9 30  1  0
 10 31  1  0
 10 32  1  0
 11 33  1  0
 11 34  1  0
 12 35  1  0
 12 36  1  0
 14 37  1  0
 15 38  1  0
 17 39  1  0
M  END
>  <UniqueID>  (7) 
7

>  <SMILES>  (7) 
CC(C)NC(=S)NCCCCCn1ccnc1

>  <Energy>  (7) 
49.28881025247429

>  <Genealogy>  (7) 
CC(C)NC(=S)NCCCCCn1ccnc1 (3D coordinates assigned)
CC(C)NC(=S)NCCCCCn1ccnc1 (optimized conformer: 49.28881025247429 kcal/mol)

>  <smiles>  (7) 
CC(C)NC(=S)NCCCCCn1ccnc1

>  <score_type>  (7) 
oracle

>  <origin>  (7) 
adg

>  <m_score__min__energy>  (7) 
-6.1399999999999997

>  <m_primary>  (7) 
energy

$$$$
7:0
     RDKit          3D

 34 35  0  0  0  0  0  0  0  0999 V2000
   -9.0130   18.6080  -31.9570 C   0  0  0  0  0  0  0  0  0  0  0  0
   -8.1070   19.8040  -31.9930 C   0  0  0  0  0  0  0  0  0  0  0  0
   -6.8460   19.7170  -32.6000 C   0  0  0  0  0  0  0  0  0  0  0  0
   -6.0170   20.8410  -32.6670 C   0  0  0  0  0  0  0  0  0  0  0  0
   -6.4380   22.0690  -32.1310 C   0  0  0  0  0  0  0  0  0  0  0  0
   -5.5970   23.2360  -32.2280 N   0  0  0  0  0  0  0  0  0  0  0  0
   -6.2680   24.3930  -31.6230 C   0  0  0  0  0  0  0  0  0  0  0  0
   -5.2970   25.2000  -30.8170 C   0  0  0  0  0  0  0  0  0  0  0  0
   -5.7170   26.1370  -30.0850 O   0  0  0  0  0  0  0  0  0  0  0  0
   -3.9060   24.8670  -30.8430 N   0  0  0  0  0  0  0  0  0  0  0  0
   -3.3040   23.8510  -29.9870 C   0  0  0  0  0  0  0  0  0  0  0  0
   -2.8020   24.4700  -28.7210 C   0  0  0  0  0  0  0  0  0  0  0  0
   -3.3920   24.3500  -27.4700 C   0  0  0  0  0  0  0  0  0  0  0  0
   -2.6800   25.0090  -26.4610 C   0  0  0  0  0  0  0  0  0  0  0  0
   -1.5280   25.6430  -26.9130 C   0  0  0  0  0  0  0  0  0  0  0  0
   -1.3960   25.3810  -28.5700 S   0  0  0  0  0  0  0  0  0  0  0  0
   -7.7150   22.1600  -31.5500 C   0  0  0  0  0  0  0  0  0  0  0  0
   -8.5440   21.0370  -31.4840 C   0  0  0  0  0  0  0  0  0  0  0  0
   -9.2193   18.3356  -30.9114 H   0  0  0  0  0  0  0  0  0  0  0  0
   -9.9578   18.8482  -32.4666 H   0  0  0  0  0  0  0  0  0  0  0  0
   -8.5259   17.7636  -32.4666 H   0  0  0  0  0  0  0  0  0  0  0  0
   -6.5076   18.7606  -33.0252 H   0  0  0  0  0  0  0  0  0  0  0  0
   -5.0283   20.7629  -33.1428 H   0  0  0  0  0  0  0  0  0  0  0  0
   -4.6880   23.0580  -31.7370 H   0  0  0  0  0  0  0  0  0  0  0  0
   -5.3860   23.4360  -33.2350 H   0  0  0  0  0  0  0  0  0  0  0  0
   -6.6900   25.0239  -32.4192 H   0  0  0  0  0  0  0  0  0  0  0  0
   -7.0686   24.0334  -30.9598 H   0  0  0  0  0  0  0  0  0  0  0  0
   -4.0582   23.0881  -29.7438 H   0  0  0  0  0  0  0  0  0  0  0  0
   -2.4592   23.3894  -30.5192 H   0  0  0  0  0  0  0  0  0  0  0  0
   -4.3238   23.7938  -27.2901 H   0  0  0  0  0  0  0  0  0  0  0  0
   -3.0016   25.0239  -25.4092 H   0  0  0  0  0  0  0  0  0  0  0  0
   -0.8236   26.2175  -26.2935 H   0  0  0  0  0  0  0  0  0  0  0  0
   -8.0638   23.1213  -31.1448 H   0  0  0  0  0  0  0  0  0  0  0  0
   -9.5431   21.1196  -31.0313 H   0  0  0  0  0  0  0  0  0  0  0  0
  1  2  1  0
  2  3  2  0
  3  4  1  0
  4  5  2  0
  5  6  1  0
  6  7  1  0
  7  8  1  0
  8  9  2  0
  8 10  1  0
 10 11  1  0
 11 12  1  0
 12 13  2  0
 13 14  1  0
 14 15  2  0
 15 16  1  0
  5 17  1  0
 17 18  2  0
 18  2  1  0
 16 12  1  0
  1 19  1  0
  1 20  1  0
  1 21  1  0
  3 22  1  0
  4 23  1  0
  6 24  1  0
  6 25  1  0
  7 26  1  0
  7 27  1  0
 11 28  1  0
 11 29  1  0
 13 30  1  0
 14 31  1  0
 15 32  1  0
 17 33  1  0
 18 34  1  0
M  CHG  2   6   1  10  -1
M  END
>  <UniqueID>  (8) 
8

>  <SMILES>  (8) 
Cc1ccc([NH2+]CC(=O)[N-]Cc2cccs2)cc1

>  <Energy>  (8) 
55.34918875963737

>  <Genealogy>  (8) 
Cc1ccc([NH2+]CC(=O)[N-]Cc2cccs2)cc1 (protonated)
Cc1ccc([NH2+]CC(=O)[N-]Cc2cccs2)cc1 (3D coordinates assigned)
Cc1ccc([NH2+]CC(=O)[N-]Cc2cccs2)cc1 (optimized conformer: 55.34918875963737 kcal/mol)

>  <smiles>  (8) 
Cc1ccc(NCC(=O)NCc2cccs2)cc1

>  <score_type>  (8) 
oracle

>  <origin>  (8) 
adg

>  <m_score__min__energy>  (8) 
-8.0600000000000005

>  <m_primary>  (8) 
energy

$$$$
8:0
     RDKit          3D

 50 52  0  0  0  0  0  0  0  0999 V2000
   -6.1240   25.2870  -29.7050 C   0  0  0  0  0  0  0  0  0  0  0  0
   -6.4880   24.7930  -30.9900 O   0  0  0  0  0  0  0  0  0  0  0  0
   -6.7200   23.4420  -31.2870 C   0  0  0  0  0  0  0  0  0  0  0  0
   -7.9160   22.7990  -30.9510 C   0  0  0  0  0  0  0  0  0  0  0  0
   -8.1130   21.4600  -31.2760 C   0  0  0  0  0  0  0  0  0  0  0  0
   -7.1070   20.7030  -31.9220 C   0  0  0  0  0  0  0  0  0  0  0  0
   -5.8950   21.3570  -32.2770 C   0  0  0  0  0  0  0  0  0  0  0  0
   -5.7230   22.7290  -31.9570 C   0  0  0  0  0  0  0  0  0  0  0  0
   -4.6130   23.4130  -32.3360 F   0  0  0  0  0  0  0  0  0  0  0  0
   -4.9030   20.6290  -32.9720 C   0  0  0  0  0  0  0  0  0  0  0  0
   -3.5990   21.1930  -33.1940 N   0  0  0  0  0  0  0  0  0  0  0  0
   -2.5770   21.1500  -32.1490 C   0  0  0  0  0  0  0  0  0  0  0  0
   -1.1710   21.1620  -32.7540 C   0  0  0  0  0  0  0  0  0  0  0  0
   -1.2330   21.0850  -34.2220 N   0  0  0  0  0  0  0  0  0  0  0  0
    0.1170   21.0700  -34.8230 C   0  0  0  0  0  0  0  0  0  0  0  0
    0.3170   22.3050  -35.7150 C   0  0  0  0  0  0  0  0  0  0  0  0
    0.3130   19.8020  -35.6650 C   0  0  0  0  0  0  0  0  0  0  0  0
   -5.2040   19.3430  -33.4580 C   0  0  0  0  0  0  0  0  0  0  0  0
   -4.2990   18.6510  -34.2920 C   0  0  0  0  0  0  0  0  0  0  0  0
   -4.6140   17.3930  -34.7980 C   0  0  0  0  0  0  0  0  0  0  0  0
   -5.8370   16.8080  -34.4930 C   0  0  0  0  0  0  0  0  0  0  0  0
   -6.7410   17.4660  -33.6620 C   0  0  0  0  0  0  0  0  0  0  0  0
   -6.4320   18.7310  -33.0980 C   0  0  0  0  0  0  0  0  0  0  0  0
   -7.2930   19.3670  -32.2250 N   0  0  0  0  0  0  0  0  0  0  0  0
   -8.4030   18.6130  -31.6010 C   0  0  0  0  0  0  0  0  0  0  0  0
   -6.5854   24.6608  -28.9272 H   0  0  0  0  0  0  0  0  0  0  0  0
   -5.0296   25.2581  -29.5976 H   0  0  0  0  0  0  0  0  0  0  0  0
   -6.4758   26.3237  -29.5976 H   0  0  0  0  0  0  0  0  0  0  0  0
   -8.7065   23.3555  -30.4262 H   0  0  0  0  0  0  0  0  0  0  0  0
   -9.0706   20.9803  -31.0255 H   0  0  0  0  0  0  0  0  0  0  0  0
   -3.3030   21.4230  -34.1690 H   0  0  0  0  0  0  0  0  0  0  0  0
   -2.6944   22.0267  -31.4951 H   0  0  0  0  0  0  0  0  0  0  0  0
   -2.7028   20.2203  -31.5747 H   0  0  0  0  0  0  0  0  0  0  0  0
   -0.6611   22.0922  -32.4629 H   0  0  0  0  0  0  0  0  0  0  0  0
   -0.6181   20.2884  -32.3782 H   0  0  0  0  0  0  0  0  0  0  0  0
   -1.7400   21.9430  -34.5460 H   0  0  0  0  0  0  0  0  0  0  0  0
    0.8561   21.0839  -34.0085 H   0  0  0  0  0  0  0  0  0  0  0  0
    0.4610   23.1940  -35.0834 H   0  0  0  0  0  0  0  0  0  0  0  0
    1.2032   22.1590  -36.3501 H   0  0  0  0  0  0  0  0  0  0  0  0
   -0.5700   22.4461  -36.3501 H   0  0  0  0  0  0  0  0  0  0  0  0
    0.4467   18.9367  -34.9991 H   0  0  0  0  0  0  0  0  0  0  0  0
   -0.5712   19.6430  -36.2997 H   0  0  0  0  0  0  0  0  0  0  0  0
    1.2040   19.9174  -36.2997 H   0  0  0  0  0  0  0  0  0  0  0  0
   -3.3328   19.1118  -34.5451 H   0  0  0  0  0  0  0  0  0  0  0  0
   -3.8949   16.8621  -35.4392 H   0  0  0  0  0  0  0  0  0  0  0  0
   -6.0921   15.8222  -34.9091 H   0  0  0  0  0  0  0  0  0  0  0  0
   -7.7108   16.9970  -33.4392 H   0  0  0  0  0  0  0  0  0  0  0  0
   -8.3163   18.6719  -30.5060 H   0  0  0  0  0  0  0  0  0  0  0  0
   -9.3636   19.0463  -31.9166 H   0  0  0  0  0  0  0  0  0  0  0  0
   -8.3542   17.5604  -31.9166 H   0  0  0  0  0  0  0  0  0  0  0  0
  1  2  1  0
  2  3  1  0
  3  4  2  0
  4  5  1  0
  5  6  2  0
  6  7  1  0
  7  8  2  0
  8  9  1  0
  7 10  1  0
 10 11  1  0
 11 12  1  0
 12 13  1  0
 13 14  1  0
 14 15  1  0
 15 16  1  0
 15 17  1  0
 10 18  2  0
 18 19  1  0
 19 20  2  0
 20 21  1  0
 21 22  2  0
 22 23  1  0
 23 24  2  0
 24 25  1  0
  8  3  1  0
 23 18  1  0
 24  6  1  0
  1 26  1  0
  1 27  1  0
  1 28  1  0
  4 29  1  0
  5 30  1  0
 11 31  1  0
 12 32  1  0
 12 33  1  0
 13 34  1  0
 13 35  1  0
 14 36  1  0
 15 37  1  0
 16 38  1  0
 16 39  1  0
 16 40  1  0
 17 41  1  0
 17 42  1  0
 17 43  1  0
 19 44  1  0
 20 45  1  0
 21 46  1  0
 22 47  1  0
 25 48  1  0
 25 49  1  0
 25 50  1  0
M  CHG  1  24   1
M  END
>  <UniqueID>  (9) 
9

>  <SMILES>  (9) 
COc1ccc2c(c1F)c(NCCNC(C)C)c1ccccc1[n+]2C

>  <Energy>  (9) 
72.62977674023537

>  <Genealogy>  (9) 
COc1ccc2c(c1F)c(NCCNC(C)C)c1ccccc1[n+]2C (3D coordinates assigned)
COc1ccc2c(c1F)c(NCCNC(C)C)c1ccccc1[n+]2C (optimized conformer: 72.62977674023537 kcal/mol)

>  <smiles>  (9) 
COc1ccc2c(c1F)c(NCCNC(C)C)c1ccccc1[n+]2C

>  <score_type>  (9) 
oracle

>  <origin>  (9) 
adg

>  <m_score__min__energy>  (9) 
-8.5800000000000001

>  <m_primary>  (9) 
energy

$$$$
9:0
     RDKit          3D

 47 47  0  0  0  0  0  0  0  0999 V2000
   -3.6450   21.5350  -33.3540 C   0  0  0  0  0  0  0  0  0  0  0  0
   -3.9290   20.9270  -31.9770 C   0  0  0  0  0  0  0  0  0  0  0  0
   -4.6620   21.8520  -31.0940 N   0  0  0  0  0  0  0  0  0  0  0  0
   -3.8600   22.2540  -29.9250 C   0  0  0  0  0  0  0  0  0  0  0  0
   -4.0150   23.7540  -29.6340 C   0  0  0  0  0  0  0  0  0  0  0  0
   -4.2370   24.4800  -30.8300 O   0  0  0  0  0  0  0  0  0  0  0  0
   -5.3770   25.3140  -30.7250 C   0  0  0  0  0  0  0  0  0  0  0  0
   -6.6470   24.4620  -30.6430 C   0  0  0  0  0  0  0  0  0  0  0  0
   -6.9520   23.7860  -31.9840 C   0  0  0  0  0  0  0  0  0  0  0  0
   -7.1110   22.3930  -31.7960 O   0  0  0  0  0  0  0  0  0  0  0  0
   -8.3660   22.1090  -31.2110 C   0  0  0  0  0  0  0  0  0  0  0  0
   -9.0310   20.9550  -31.9620 C   0  0  0  0  0  0  0  0  0  0  0  0
   -8.5540   19.5930  -31.4400 C   0  0  0  0  0  0  0  0  0  0  0  0
   -7.5520   18.9860  -32.3860 C   0  0  0  0  0  0  0  0  0  0  0  0
   -6.9280   19.7810  -33.3620 C   0  0  0  0  0  0  0  0  0  0  0  0
   -6.0240   19.2090  -34.2620 C   0  0  0  0  0  0  0  0  0  0  0  0
   -5.7430   17.8410  -34.2000 C   0  0  0  0  0  0  0  0  0  0  0  0
   -6.3720   17.0410  -33.2400 C   0  0  0  0  0  0  0  0  0  0  0  0
   -7.2770   17.6090  -32.3400 C   0  0  0  0  0  0  0  0  0  0  0  0
   -3.1825   22.5252  -33.2293 H   0  0  0  0  0  0  0  0  0  0  0  0
   -2.9605   20.8781  -33.9108 H   0  0  0  0  0  0  0  0  0  0  0  0
   -4.5880   21.6383  -33.9108 H   0  0  0  0  0  0  0  0  0  0  0  0
   -4.5301   20.0155  -32.1106 H   0  0  0  0  0  0  0  0  0  0  0  0
   -2.9616   20.7063  -31.5021 H   0  0  0  0  0  0  0  0  0  0  0  0
   -5.5220   21.3600  -30.7560 H   0  0  0  0  0  0  0  0  0  0  0  0
   -4.9610   22.6970  -31.6350 H   0  0  0  0  0  0  0  0  0  0  0  0
   -4.1940   21.6818  -29.0469 H   0  0  0  0  0  0  0  0  0  0  0  0
   -2.8013   22.0490  -30.1420 H   0  0  0  0  0  0  0  0  0  0  0  0
   -4.8698   23.9034  -28.9579 H   0  0  0  0  0  0  0  0  0  0  0  0
   -3.0882   24.1194  -29.1676 H   0  0  0  0  0  0  0  0  0  0  0  0
   -5.2939   25.9313  -29.8183 H   0  0  0  0  0  0  0  0  0  0  0  0
   -5.4336   25.9598  -31.6137 H   0  0  0  0  0  0  0  0  0  0  0  0
   -6.5096   23.6872  -29.8743 H   0  0  0  0  0  0  0  0  0  0  0  0
   -7.4903   25.1200  -30.3863 H   0  0  0  0  0  0  0  0  0  0  0  0
   -7.8790   24.2058  -32.4015 H   0  0  0  0  0  0  0  0  0  0  0  0
   -6.1173   23.9648  -32.6777 H   0  0  0  0  0  0  0  0  0  0  0  0
   -8.2236   21.8267  -30.1574 H   0  0  0  0  0  0  0  0  0  0  0  0
   -9.0070   23.0010  -31.2691 H   0  0  0  0  0  0  0  0  0  0  0  0
  -10.1210   21.0254  -31.8321 H   0  0  0  0  0  0  0  0  0  0  0  0
   -8.7566   21.0320  -33.0244 H   0  0  0  0  0  0  0  0  0  0  0  0
   -8.0853   19.7274  -30.4539 H   0  0  0  0  0  0  0  0  0  0  0  0
   -9.4203   18.9199  -31.3601 H   0  0  0  0  0  0  0  0  0  0  0  0
   -7.1514   20.8566  -33.4181 H   0  0  0  0  0  0  0  0  0  0  0  0
   -5.5329   19.8365  -35.0203 H   0  0  0  0  0  0  0  0  0  0  0  0
   -5.0276   17.3937  -34.9058 H   0  0  0  0  0  0  0  0  0  0  0  0
   -6.1538   15.9639  -33.1938 H   0  0  0  0  0  0  0  0  0  0  0  0
   -7.7764   16.9755  -31.5922 H   0  0  0  0  0  0  0  0  0  0  0  0
  1  2  1  0
  2  3  1  0
  3  4  1  0
  4  5  1  0
  5  6  1  0
  6  7  1  0
  7  8  1  0
  8  9  1  0
  9 10  1  0
 10 11  1  0
 11 12  1  0
 12 13  1  0
 13 14  1  0
 14 15  2  0
 15 16  1  0
 16 17  2  0
 17 18  1  0
 18 19  2  0
 19 14  1  0
  1 20  1  0
  1 21  1  0
  1 22  1  0
  2 23  1  0
  2 24  1  0
  3 25  1  0
  3 26  1  0
  4 27  1  0
  4 28  1  0
  5 29  1  0
  5 30  1  0
  7 31  1  0
  7 32  1  0
  8 33  1  0
  8 34  1  0
  9 35  1  0
  9 36  1  0
 11 37  1  0
 11 38  1  0
 12 39  1  0
 12 40  1  0
 13 41  1  0
 13 42  1  0
 15 43  1  0
 16 44  1  0
 17 45  1  0
 18 46  1  0
 19 47  1  0
M  CHG  1   3   1
M  END
>  <UniqueID>  (10) 
10

>  <SMILES>  (10) 
CC[NH2+]CCOCCCOCCCc1ccccc1

>  <Energy>  (10) 
36.869954536642304

>  <Genealogy>  (10) 
CC[NH2+]CCOCCCOCCCc1ccccc1 (protonated)
CC[NH2+]CCOCCCOCCCc1ccccc1 (3D coordinates assigned)
CC[NH2+]CCOCCCOCCCc1ccccc1 (optimized conformer: 36.869954536642304 kcal/mol)

>  <smiles>  (10) 
CCNCCOCCCOCCCc1ccccc1

>  <score_type>  (10) 
oracle

>  <origin>  (10) 
adg

>  <m_score__min__energy>  (10) 
-6.9699999999999998

>  <m_primary>  (10) 
energy

$$$$
10:0
     RDKit          3D

 35 36  0  0  0  0  0  0  0  0999 V2000
   -6.1380   25.6790  -29.6720 C   0  0  0  0  0  0  0  0  0  0  0  0
   -5.3900   24.6820  -30.5010 C   0  0  0  0  0  0  0  0  0  0  0  0
   -4.2080   24.9500  -30.8440 O   0  0  0  0  0  0  0  0  0  0  0  0
   -5.9970   23.4110  -30.9600 C   0  0  0  0  0  0  0  0  0  0  0  0
   -7.3670   23.2240  -31.0800 C   0  0  0  0  0  0  0  0  0  0  0  0
   -7.5300   21.9260  -31.5100 C   0  0  0  0  0  0  0  0  0  0  0  0
   -6.2860   21.3700  -31.6470 C   0  0  0  0  0  0  0  0  0  0  0  0
   -5.3340   22.2790  -31.3240 N   0  0  0  0  0  0  0  0  0  0  0  0
   -3.8860   22.0770  -31.3870 C   0  0  0  0  0  0  0  0  0  0  0  0
   -6.0590   19.9490  -32.1050 C   0  0  2  0  0  0  0  0  0  0  0  0
   -5.4220   19.9360  -33.4490 N   0  0  0  0  0  0  0  0  0  0  0  0
   -3.9870   19.6100  -33.3900 C   0  0  0  0  0  0  0  0  0  0  0  0
   -6.1070   19.1050  -34.4500 C   0  0  0  0  0  0  0  0  0  0  0  0
   -7.3640   19.0910  -31.9840 C   0  0  0  0  0  0  0  0  0  0  0  0
   -8.6860   19.8130  -32.3530 C   0  0  0  0  0  0  0  0  0  0  0  0
   -8.7690   21.1960  -31.7740 C   0  0  0  0  0  0  0  0  0  0  0  0
   -9.8880   21.7400  -31.5800 O   0  0  0  0  0  0  0  0  0  0  0  0
   -5.9765   25.4638  -28.6054 H   0  0  0  0  0  0  0  0  0  0  0  0
   -5.7751   26.6919  -29.9007 H   0  0  0  0  0  0  0  0  0  0  0  0
   -7.2120   25.6139  -29.9007 H   0  0  0  0  0  0  0  0  0  0  0  0
   -8.1583   23.9599  -30.8743 H   0  0  0  0  0  0  0  0  0  0  0  0
   -3.4790   22.0202  -30.3667 H   0  0  0  0  0  0  0  0  0  0  0  0
   -3.6694   21.1399  -31.9208 H   0  0  0  0  0  0  0  0  0  0  0  0
   -3.4212   22.9190  -31.9208 H   0  0  0  0  0  0  0  0  0  0  0  0
   -5.3441   19.4538  -31.4314 H   0  0  0  0  0  0  0  0  0  0  0  0
   -3.6703   19.5380  -32.3391 H   0  0  0  0  0  0  0  0  0  0  0  0
   -3.8084   18.6484  -33.8934 H   0  0  0  0  0  0  0  0  0  0  0  0
   -3.4105   20.4001  -33.8934 H   0  0  0  0  0  0  0  0  0  0  0  0
   -6.7269   18.3529  -33.9400 H   0  0  0  0  0  0  0  0  0  0  0  0
   -6.7463   19.7415  -35.0794 H   0  0  0  0  0  0  0  0  0  0  0  0
   -5.3602   18.5989  -35.0794 H   0  0  0  0  0  0  0  0  0  0  0  0
   -7.2582   18.2210  -32.6488 H   0  0  0  0  0  0  0  0  0  0  0  0
   -7.4530   18.8333  -30.9183 H   0  0  0  0  0  0  0  0  0  0  0  0
   -8.7544   19.8849  -33.4485 H   0  0  0  0  0  0  0  0  0  0  0  0
   -9.5154   19.2253  -31.9328 H   0  0  0  0  0  0  0  0  0  0  0  0
  1  2  1  0
  2  3  2  0
  2  4  1  0
  4  5  2  0
  5  6  1  0
  6  7  2  0
  7  8  1  0
  8  9  1  0
  7 10  1  0
 10 11  1  0
 11 12  1  0
 11 13  1  0
 10 14  1  0
 14 15  1  0
 15 16  1  0
 16 17  2  0
  8  4  1  0
 16  6  1  0
  1 18  1  0
  1 19  1  0
  1 20  1  0
  5 21  1  0
  9 22  1  0
  9 23  1  0
  9 24  1  0
 10 25  1  1
 12 26  1  0
 12 27  1  0
 12 28  1  0
 13 29  1  0
 13 30  1  0
 13 31  1  0
 14 32  1  0
 14 33  1  0
 15 34  1  0
 15 35  1  0
M  END
>  <UniqueID>  (11) 
11

>  <SMILES>  (11) 
CC(=O)c1cc2c(n1C)[C@H](N(C)C)CCC2=O

>  <Energy>  (11) 
70.68781975668193

>  <Genealogy>  (11) 
CC(=O)c1cc2c(n1C)[C@H](N(C)C)CCC2=O (chirality)
CC(=O)c1cc2c(n1C)[C@H](N(C)C)CCC2=O (3D coordinates assigned)
CC(=O)c1cc2c(n1C)[C@H](N(C)C)CCC2=O (nonaromatic ring conformer: 70.68781975668193 kcal/mol)

>  <smiles>  (11) 
CC(=O)c1cc2c(n1C)C(N(C)C)CCC2=O

>  <score_type>  (11) 
oracle

>  <origin>  (11) 
adg

>  <m_score__min__energy>  (11) 
-7.75

>  <m_primary>  (11) 
energy

$$$$
11:0
     RDKit          3D

 38 39  0  0  0  0  0  0  0  0999 V2000
   -4.5570   24.1410  -28.7790 C   0  0  0  0  0  0  0  0  0  0  0  0
   -3.7330   24.3940  -30.0440 C   0  0  0  0  0  0  0  0  0  0  0  0
   -4.5690   24.7570  -31.1990 N   0  0  0  0  0  0  0  0  0  0  0  0
   -5.9930   24.8480  -30.8500 C   0  0  0  0  0  0  0  0  0  0  0  0
   -6.7660   23.6560  -31.4350 C   0  0  0  0  0  0  0  0  0  0  0  0
   -6.2020   23.1670  -32.7080 N   0  0  0  0  0  0  0  0  0  0  0  0
   -6.0220   21.7280  -32.7020 C   0  0  0  0  0  0  0  0  0  0  0  0
   -4.7260   21.2190  -32.9250 C   0  0  0  0  0  0  0  0  0  0  0  0
   -4.4760   19.8380  -32.9560 C   0  0  0  0  0  0  0  0  0  0  0  0
   -3.1950   19.3100  -33.1790 O   0  0  0  0  0  0  0  0  0  0  0  0
   -2.9280   18.1290  -33.9280 C   0  0  0  0  0  0  0  0  0  0  0  0
   -5.5310   18.9480  -32.7630 C   0  0  0  0  0  0  0  0  0  0  0  0
   -6.8270   19.4160  -32.5390 C   0  0  0  0  0  0  0  0  0  0  0  0
   -7.8310   18.5160  -32.3580 N   0  0  0  0  0  0  0  0  0  0  0  0
   -9.1120   18.9030  -32.1390 C   0  0  0  0  0  0  0  0  0  0  0  0
   -9.4320   20.2560  -32.0900 C   0  0  0  0  0  0  0  0  0  0  0  0
   -8.4290   21.2090  -32.2670 C   0  0  0  0  0  0  0  0  0  0  0  0
   -7.0940   20.8090  -32.5020 C   0  0  0  0  0  0  0  0  0  0  0  0
   -3.9351   24.3320  -27.8920 H   0  0  0  0  0  0  0  0  0  0  0  0
   -5.4276   24.8132  -28.7680 H   0  0  0  0  0  0  0  0  0  0  0  0
   -4.9004   23.0960  -28.7680 H   0  0  0  0  0  0  0  0  0  0  0  0
   -3.0280   25.2151  -29.8472 H   0  0  0  0  0  0  0  0  0  0  0  0
   -3.2078   23.4600  -30.2926 H   0  0  0  0  0  0  0  0  0  0  0  0
   -4.2490   25.6780  -31.5840 H   0  0  0  0  0  0  0  0  0  0  0  0
   -6.0985   24.8460  -29.7551 H   0  0  0  0  0  0  0  0  0  0  0  0
   -6.4037   25.7789  -31.2681 H   0  0  0  0  0  0  0  0  0  0  0  0
   -6.7459   22.8337  -30.7047 H   0  0  0  0  0  0  0  0  0  0  0  0
   -7.7904   23.9996  -31.6414 H   0  0  0  0  0  0  0  0  0  0  0  0
   -5.3380   23.6910  -32.9580 H   0  0  0  0  0  0  0  0  0  0  0  0
   -6.8850   23.4060  -33.4660 H   0  0  0  0  0  0  0  0  0  0  0  0
   -3.8921   21.9199  -33.0781 H   0  0  0  0  0  0  0  0  0  0  0  0
   -2.7389   17.2927  -33.2389 H   0  0  0  0  0  0  0  0  0  0  0  0
   -3.7954   17.8929  -34.5619 H   0  0  0  0  0  0  0  0  0  0  0  0
   -2.0434   18.2890  -34.5619 H   0  0  0  0  0  0  0  0  0  0  0  0
   -5.3404   17.8649  -32.7874 H   0  0  0  0  0  0  0  0  0  0  0  0
   -9.8986   18.1467  -32.0000 H   0  0  0  0  0  0  0  0  0  0  0  0
  -10.4704   20.5725  -31.9126 H   0  0  0  0  0  0  0  0  0  0  0  0
   -8.6788   22.2794  -32.2234 H   0  0  0  0  0  0  0  0  0  0  0  0
  1  2  1  0
  2  3  1  0
  3  4  1  0
  4  5  1  0
  5  6  1  0
  6  7  1  0
  7  8  2  0
  8  9  1  0
  9 10  1  0
 10 11  1  0
  9 12  2  0
 12 13  1  0
 13 14  2  0
 14 15  1  0
 15 16  2  0
 16 17  1  0
 17 18  2  0
 18  7  1  0
 18 13  1  0
  1 19  1  0
  1 20  1  0
  1 21  1  0
  2 22  1  0
  2 23  1  0
  3 24  1  0
  4 25  1  0
  4 26  1  0
  5 27  1  0
  5 28  1  0
  6 29  1  0
  6 30  1  0
  8 31  1  0
 11 32  1  0
 11 33  1  0
 11 34  1  0
 12 35  1  0
 15 36  1  0
 16 37  1  0
 17 38  1  0
M  CHG  1   6   1
M  END
>  <UniqueID>  (12) 
12

>  <SMILES>  (12) 
CCNCC[NH2+]c1cc(OC)cc2ncccc12

>  <Energy>  (12) 
41.398656597110296

>  <Genealogy>  (12) 
CCNCC[NH2+]c1cc(OC)cc2ncccc12 (protonated)
CCNCC[NH2+]c1cc(OC)cc2ncccc12 (3D coordinates assigned)
CCNCC[NH2+]c1cc(OC)cc2ncccc12 (optimized conformer: 41.398656597110296 kcal/mol)

>  <smiles>  (12) 
CCNCCNc1cc(OC)cc2ncccc12

>  <score_type>  (12) 
oracle

>  <origin>  (12) 
adg

>  <m_score__min__energy>  (12) 
-6.29

>  <m_primary>  (12) 
energy

$$$$
12:0
     RDKit          3D

 41 42  0  0  0  0  0  0  0  0999 V2000
   -2.8420   19.0520  -33.8100 C   0  0  0  0  0  0  0  0  0  0  0  0
   -3.1380   17.5770  -34.0510 C   0  0  0  0  0  0  0  0  0  0  0  0
   -4.4750   17.3620  -35.2790 S   0  0  0  0  0  0  0  0  0  0  0  0
   -5.7150   18.1900  -34.2870 C   0  0  0  0  0  0  0  0  0  0  0  0
   -6.6340   17.5200  -33.5390 N   0  0  0  0  0  0  0  0  0  0  0  0
   -7.3080   18.5330  -32.9700 C   0  0  0  0  0  0  0  0  0  0  0  0
   -8.3570   18.4770  -32.0600 C   0  0  0  0  0  0  0  0  0  0  0  0
   -8.8510   19.7020  -31.5730 C   0  0  0  0  0  0  0  0  0  0  0  0
   -8.2770   20.9220  -32.0170 C   0  0  0  0  0  0  0  0  0  0  0  0
   -8.7010   22.2270  -31.4040 C   0  0  0  0  0  0  0  0  0  0  0  0
   -7.7480   22.6820  -30.4600 O   0  0  0  0  0  0  0  0  0  0  0  0
   -7.2380   23.9630  -30.8020 C   0  0  0  0  0  0  0  0  0  0  0  0
   -6.1100   23.8030  -31.8280 C   0  0  0  0  0  0  0  0  0  0  0  0
   -4.8030   24.1300  -31.2180 N   0  0  0  0  0  0  0  0  0  0  0  0
   -5.0050   24.7320  -29.8870 C   0  0  0  0  0  0  0  0  0  0  0  0
   -3.9450   22.9250  -31.1180 C   0  0  0  0  0  0  0  0  0  0  0  0
   -4.2260   21.9660  -32.2690 C   0  0  0  0  0  0  0  0  0  0  0  0
   -7.2490   20.9100  -32.9220 N   0  0  0  0  0  0  0  0  0  0  0  0
   -6.7930   19.7180  -33.3750 C   0  0  0  0  0  0  0  0  0  0  0  0
   -5.8080   19.5060  -34.1990 O   0  0  0  0  0  0  0  0  0  0  0  0
   -2.8030   19.2461  -32.7280 H   0  0  0  0  0  0  0  0  0  0  0  0
   -1.8740   19.3107  -34.2640 H   0  0  0  0  0  0  0  0  0  0  0  0
   -3.6352   19.6641  -34.2640 H   0  0  0  0  0  0  0  0  0  0  0  0
   -2.2273   17.0845  -34.4225 H   0  0  0  0  0  0  0  0  0  0  0  0
   -3.4626   17.1275  -33.1009 H   0  0  0  0  0  0  0  0  0  0  0  0
   -8.7830   17.5166  -31.7342 H   0  0  0  0  0  0  0  0  0  0  0  0
   -9.6800   19.7138  -30.8500 H   0  0  0  0  0  0  0  0  0  0  0  0
   -8.8063   22.9797  -32.1992 H   0  0  0  0  0  0  0  0  0  0  0  0
   -9.6593   22.0740  -30.8861 H   0  0  0  0  0  0  0  0  0  0  0  0
   -8.0432   24.5755  -31.2339 H   0  0  0  0  0  0  0  0  0  0  0  0
   -6.8477   24.4566  -29.8998 H   0  0  0  0  0  0  0  0  0  0  0  0
   -6.0919   22.7632  -32.1865 H   0  0  0  0  0  0  0  0  0  0  0  0
   -6.2926   24.4909  -32.6667 H   0  0  0  0  0  0  0  0  0  0  0  0
   -4.7575   23.9943  -29.1095 H   0  0  0  0  0  0  0  0  0  0  0  0
   -4.3526   25.6111  -29.7793 H   0  0  0  0  0  0  0  0  0  0  0  0
   -6.0556   25.0397  -29.7793 H   0  0  0  0  0  0  0  0  0  0  0  0
   -2.8887   23.2301  -31.1520 H   0  0  0  0  0  0  0  0  0  0  0  0
   -4.1642   22.4127  -30.1696 H   0  0  0  0  0  0  0  0  0  0  0  0
   -4.5138   20.9838  -31.8660 H   0  0  0  0  0  0  0  0  0  0  0  0
   -5.0454   22.3636  -32.8858 H   0  0  0  0  0  0  0  0  0  0  0  0
   -3.3216   21.8585  -32.8858 H   0  0  0  0  0  0  0  0  0  0  0  0
  1  2  1  0
  2  3  1  0
  3  4  1  0
  4  5  2  0
  5  6  1  0
  6  7  2  0
  7  8  1  0
  8  9  2  0
  9 10  1  0
 10 11  1  0
 11 12  1  0
 12 13  1  0
 13 14  1  0
 14 15  1  0
 14 16  1  0
 16 17  1  0
  9 18  1  0
 18 19  2  0
 19 20  1  0
 20  4  1  0
 19  6  1  0
  1 21  1  0
  1 22  1  0
  1 23  1  0
  2 24  1  0
  2 25  1  0
  7 26  1  0
  8 27  1  0
 10 28  1  0
 10 29  1  0
 12 30  1  0
 12 31  1  0
 13 32  1  0
 13 33  1  0
 15 34  1  0
 15 35  1  0
 15 36  1  0
 16 37  1  0
 16 38  1  0
 17 39  1  0
 17 40  1  0
 17 41  1  0
M  END
>  <UniqueID>  (13) 
13

>  <SMILES>  (13) 
CCSc1nc2ccc(COCCN(C)CC)nc2o1

>  <Energy>  (13) 
73.41094498073937

>  <Genealogy>  (13) 
CCSc1nc2ccc(COCCN(C)CC)nc2o1 (3D coordinates assigned)
CCSc1nc2ccc(COCCN(C)CC)nc2o1 (optimized conformer: 73.41094498073937 kcal/mol)

>  <smiles>  (13) 
CCSc1nc2ccc(COCCN(C)CC)nc2o1

>  <score_type>  (13) 
oracle

>  <origin>  (13) 
adg

>  <m_score__min__energy>  (13) 
-6.96

>  <m_primary>  (13) 
energy

$$$$
13:0
     RDKit          3D

 60 62  0  0  0  0  0  0  0  0999 V2000
   -0.5530   21.2720  -33.8830 C   0  0  0  0  0  0  0  0  0  0  0  0
   -1.5140   21.5470  -32.7310 C   0  0  0  0  0  0  0  0  0  0  0  0
   -2.8700   21.4320  -33.1630 O   0  0  0  0  0  0  0  0  0  0  0  0
   -3.6250   20.2470  -33.2400 C   0  0  0  0  0  0  0  0  0  0  0  0
   -3.0490   19.0630  -33.7290 C   0  0  0  0  0  0  0  0  0  0  0  0
   -3.8110   17.9170  -33.8920 C   0  0  0  0  0  0  0  0  0  0  0  0
   -5.1580   17.9180  -33.5590 C   0  0  0  0  0  0  0  0  0  0  0  0
   -5.7790   19.0670  -33.0120 C   0  0  0  0  0  0  0  0  0  0  0  0
   -5.0010   20.2520  -32.8600 C   0  0  0  0  0  0  0  0  0  0  0  0
   -5.6330   21.4140  -32.3530 C   0  0  0  0  0  0  0  0  0  0  0  0
   -4.8630   22.5680  -31.9760 N   0  0  0  0  0  0  0  0  0  0  0  0
   -5.1120   23.2440  -30.7040 C   0  0  0  0  0  0  0  0  0  0  0  0
   -4.8980   24.7470  -30.8440 C   0  0  0  0  0  0  0  0  0  0  0  0
   -3.5740   25.0560  -30.4600 O   0  0  0  0  0  0  0  0  0  0  0  0
   -2.9760   23.9570  -29.8000 C   0  0  0  0  0  0  0  0  0  0  0  0
   -2.3250   24.3710  -28.4660 C   0  0  0  0  0  0  0  0  0  0  0  0
   -1.0270   25.0440  -28.6940 N   0  0  0  0  0  0  0  0  0  0  0  0
    0.0810   24.1020  -28.4630 C   0  0  0  0  0  0  0  0  0  0  0  0
   -0.8820   26.2470  -27.8440 C   0  0  0  0  0  0  0  0  0  0  0  0
   -1.5790   26.0320  -26.5030 C   0  0  0  0  0  0  0  0  0  0  0  0
   -7.0320   21.4330  -32.1970 C   0  0  0  0  0  0  0  0  0  0  0  0
   -7.7080   22.6200  -31.8360 C   0  0  0  0  0  0  0  0  0  0  0  0
   -9.0960   22.6430  -31.7200 C   0  0  0  0  0  0  0  0  0  0  0  0
   -9.8330   21.4940  -31.9710 C   0  0  0  0  0  0  0  0  0  0  0  0
   -9.1870   20.3050  -32.3080 C   0  0  0  0  0  0  0  0  0  0  0  0
   -7.7720   20.2390  -32.3910 C   0  0  0  0  0  0  0  0  0  0  0  0
   -7.1140   19.0540  -32.6510 N   0  0  0  0  0  0  0  0  0  0  0  0
   -7.8350   17.7680  -32.5200 C   0  0  0  0  0  0  0  0  0  0  0  0
    0.4311   20.9904  -33.4803 H   0  0  0  0  0  0  0  0  0  0  0  0
   -0.9456   20.4502  -34.4998 H   0  0  0  0  0  0  0  0  0  0  0  0
   -0.4514   22.1771  -34.4998 H   0  0  0  0  0  0  0  0  0  0  0  0
   -1.3292   20.8205  -31.9260 H   0  0  0  0  0  0  0  0  0  0  0  0
   -1.3454   22.5717  -32.3683 H   0  0  0  0  0  0  0  0  0  0  0  0
   -1.9796   19.0451  -33.9858 H   0  0  0  0  0  0  0  0  0  0  0  0
   -3.3457   17.0020  -34.2873 H   0  0  0  0  0  0  0  0  0  0  0  0
   -5.7549   17.0087  -33.7231 H   0  0  0  0  0  0  0  0  0  0  0  0
   -4.3050   23.0690  -32.7040 H   0  0  0  0  0  0  0  0  0  0  0  0
   -6.1492   23.0542  -30.3907 H   0  0  0  0  0  0  0  0  0  0  0  0
   -4.4100   22.8544  -29.9521 H   0  0  0  0  0  0  0  0  0  0  0  0
   -5.0594   25.0476  -31.8898 H   0  0  0  0  0  0  0  0  0  0  0  0
   -5.6092   25.2872  -30.2018 H   0  0  0  0  0  0  0  0  0  0  0  0
   -3.7484   23.2002  -29.5987 H   0  0  0  0  0  0  0  0  0  0  0  0
   -2.1874   23.5556  -30.4534 H   0  0  0  0  0  0  0  0  0  0  0  0
   -2.9989   25.0600  -27.9358 H   0  0  0  0  0  0  0  0  0  0  0  0
   -2.1490   23.4655  -27.8668 H   0  0  0  0  0  0  0  0  0  0  0  0
    0.2329   23.9728  -27.3812 H   0  0  0  0  0  0  0  0  0  0  0  0
   -0.1629   23.1305  -28.9176 H   0  0  0  0  0  0  0  0  0  0  0  0
    1.0006   24.4990  -28.9176 H   0  0  0  0  0  0  0  0  0  0  0  0
    0.1865   26.4430  -27.6709 H   0  0  0  0  0  0  0  0  0  0  0  0
   -1.3432   27.1051  -28.3548 H   0  0  0  0  0  0  0  0  0  0  0  0
   -0.8758   26.2489  -25.6854 H   0  0  0  0  0  0  0  0  0  0  0  0
   -2.4464   26.7043  -26.4287 H   0  0  0  0  0  0  0  0  0  0  0  0
   -1.9170   24.9878  -26.4287 H   0  0  0  0  0  0  0  0  0  0  0  0
   -7.1314   23.5369  -31.6443 H   0  0  0  0  0  0  0  0  0  0  0  0
   -9.6081   23.5721  -31.4294 H   0  0  0  0  0  0  0  0  0  0  0  0
  -10.9306   21.5214  -31.9039 H   0  0  0  0  0  0  0  0  0  0  0  0
   -9.7838   19.4040  -32.5127 H   0  0  0  0  0  0  0  0  0  0  0  0
   -7.9687   17.5295  -31.4545 H   0  0  0  0  0  0  0  0  0  0  0  0
   -8.8195   17.8486  -33.0041 H   0  0  0  0  0  0  0  0  0  0  0  0
   -7.2526   16.9702  -33.0041 H   0  0  0  0  0  0  0  0  0  0  0  0
  1  2  1  0
  2  3  1  0
  3  4  1  0
  4  5  2  0
  5  6  1  0
  6  7  2  0
  7  8  1  0
  8  9  2  0
  9 10  1  0
 10 11  1  0
 11 12  1  0
 12 13  1  0
 13 14  1  0
 14 15  1  0
 15 16  1  0
 16 17  1  0
 17 18  1  0
 17 19  1  0
 19 20  1  0
 10 21  2  0
 21 22  1  0
 22 23  2  0
 23 24  1  0
 24 25  2  0
 25 26  1  0
 26 27  2  0
 27 28  1  0
  9  4  1  0
 26 21  1  0
 27  8  1  0
  1 29  1  0
  1 30  1  0
  1 31  1  0
  2 32  1  0
  2 33  1  0
  5 34  1  0
  6 35  1  0
  7 36  1  0
 11 37  1  0
 12 38  1  0
 12 39  1  0
 13 40  1  0
 13 41  1  0
 15 42  1  0
 15 43  1  0
 16 44  1  0
 16 45  1  0
 18 46  1  0
 18 47  1  0
 18 48  1  0
 19 49  1  0
 19 50  1  0
 20 51  1  0
 20 52  1  0
 20 53  1  0
 22 54  1  0
 23 55  1  0
 24 56  1  0
 25 57  1  0
 28 58  1  0
 28 59  1  0
 28 60  1  0
M  CHG  1  27   1
M  END
>  <UniqueID>  (14) 
14

>  <SMILES>  (14) 
CCOc1cccc2c1c(NCCOCCN(C)CC)c1ccccc1[n+]2C

>  <Energy>  (14) 
85.68295822677192

>  <Genealogy>  (14) 
CCOc1cccc2c1c(NCCOCCN(C)CC)c1ccccc1[n+]2C (3D coordinates assigned)
CCOc1cccc2c1c(NCCOCCN(C)CC)c1ccccc1[n+]2C (optimized conformer: 85.68295822677192 kcal/mol)

>  <smiles>  (14) 
CCOc1cccc2c1c(NCCOCCN(C)CC)c1ccccc1[n+]2C

>  <score_type>  (14) 
oracle

>  <origin>  (14) 
adg

>  <m_score__min__energy>  (14) 
-8.4800000000000004

>  <m_primary>  (14) 
energy

$$$$
14:0
     RDKit          3D

 63 67  0  0  0  0  0  0  0  0999 V2000
   -5.5334   26.1356  -31.1001 H   0  0  0  0  0  0  0  0  0  0  0  0
   -4.9710   25.2210  -30.8610 C   0  0  0  0  0  0  0  0  0  0  0  0
   -3.8480   25.2990  -30.1040 N   0  0  0  0  0  0  0  0  0  0  0  0
   -3.1220   24.1970  -29.7870 C   0  0  0  0  0  0  0  0  0  0  0  0
   -1.9720   24.3290  -29.0000 C   0  0  0  0  0  0  0  0  0  0  0  0
   -1.6644   25.3220  -28.6404 H   0  0  0  0  0  0  0  0  0  0  0  0
   -1.2140   23.2030  -28.6700 C   0  0  0  0  0  0  0  0  0  0  0  0
   -0.3117   23.3114  -28.0503 H   0  0  0  0  0  0  0  0  0  0  0  0
   -1.5990   21.9400  -29.1250 C   0  0  0  0  0  0  0  0  0  0  0  0
   -0.9983   21.0568  -28.8620 H   0  0  0  0  0  0  0  0  0  0  0  0
   -2.7440   21.7930  -29.9130 C   0  0  0  0  0  0  0  0  0  0  0  0
   -3.0398   20.7948  -30.2681 H   0  0  0  0  0  0  0  0  0  0  0  0
   -3.5220   22.9190  -30.2550 C   0  0  0  0  0  0  0  0  0  0  0  0
   -4.7000   22.8130  -31.0320 C   0  0  0  0  0  0  0  0  0  0  0  0
   -5.0780   21.6400  -31.4690 N   0  0  0  0  0  0  0  0  0  0  0  0
   -4.3130   20.7060  -32.2460 C   0  0  0  0  0  0  0  0  0  0  0  0
   -3.1600   21.1110  -32.9270 C   0  0  0  0  0  0  0  0  0  0  0  0
   -2.7985   22.1449  -32.8256 H   0  0  0  0  0  0  0  0  0  0  0  0
   -2.4680   20.2100  -33.7330 C   0  0  0  0  0  0  0  0  0  0  0  0
   -1.5520   20.5356  -34.2477 H   0  0  0  0  0  0  0  0  0  0  0  0
   -2.9240   18.8900  -33.8980 C   0  0  0  0  0  0  0  0  0  0  0  0
   -2.1100   17.9610  -34.7720 C   0  0  0  0  0  0  0  0  0  0  0  0
   -1.2948   18.5301  -35.2427 H   0  0  0  0  0  0  0  0  0  0  0  0
   -2.7690   17.5310  -35.5407 H   0  0  0  0  0  0  0  0  0  0  0  0
   -1.5360   16.8650  -33.9740 N   0  0  0  0  0  0  0  0  0  0  0  0
   -2.1760   16.0400  -34.0270 H   0  0  0  0  0  0  0  0  0  0  0  0
   -1.3030   17.2390  -32.5660 C   0  0  0  0  0  0  0  0  0  0  0  0
   -2.1502   16.8804  -31.9630 H   0  0  0  0  0  0  0  0  0  0  0  0
   -1.2068   18.3341  -32.5274 H   0  0  0  0  0  0  0  0  0  0  0  0
   -0.0020   16.6400  -31.9920 C   0  0  0  0  0  0  0  0  0  0  0  0
    0.2836   17.2078  -31.0942 H   0  0  0  0  0  0  0  0  0  0  0  0
    0.7725   16.7059  -32.7703 H   0  0  0  0  0  0  0  0  0  0  0  0
   -0.1640   15.1560  -31.6100 C   0  0  0  0  0  0  0  0  0  0  0  0
   -0.2716   15.0812  -30.5178 H   0  0  0  0  0  0  0  0  0  0  0  0
    0.7281   14.6176  -31.9627 H   0  0  0  0  0  0  0  0  0  0  0  0
   -1.3450   14.5410  -32.2470 N   0  0  0  0  0  0  0  0  0  0  0  0
   -1.9940   15.3130  -32.5280 H   0  0  0  0  0  0  0  0  0  0  0  0
   -1.8470   13.9290  -31.5610 H   0  0  0  0  0  0  0  0  0  0  0  0
   -0.9900   13.7660  -33.4490 C   0  0  0  0  0  0  0  0  0  0  0  0
   -1.2333   14.3579  -34.3437 H   0  0  0  0  0  0  0  0  0  0  0  0
   -1.5616   12.8262  -33.4421 H   0  0  0  0  0  0  0  0  0  0  0  0
    0.5000   13.4300  -33.4620 C   0  0  0  0  0  0  0  0  0  0  0  0
    0.8663   13.3474  -32.4281 H   0  0  0  0  0  0  0  0  0  0  0  0
    0.6558   12.4742  -33.9836 H   0  0  0  0  0  0  0  0  0  0  0  0
    1.0509   14.2265  -33.9836 H   0  0  0  0  0  0  0  0  0  0  0  0
   -4.1170   18.4800  -33.2370 C   0  0  0  0  0  0  0  0  0  0  0  0
   -4.6790   17.1110  -33.3630 C   0  0  0  0  0  0  0  0  0  0  0  0
   -4.0550   15.9900  -32.9170 N   0  0  0  0  0  0  0  0  0  0  0  0
   -4.7750   14.8740  -33.1900 C   0  0  0  0  0  0  0  0  0  0  0  0
   -4.3830   13.5790  -32.8510 C   0  0  0  0  0  0  0  0  0  0  0  0
   -3.4401   13.4015  -32.3130 H   0  0  0  0  0  0  0  0  0  0  0  0
   -5.2160   12.5050  -33.2100 C   0  0  0  0  0  0  0  0  0  0  0  0
   -4.9246   11.4768  -32.9495 H   0  0  0  0  0  0  0  0  0  0  0  0
   -6.4230   12.7370  -33.9020 C   0  0  0  0  0  0  0  0  0  0  0  0
   -7.0658   11.8893  -34.1817 H   0  0  0  0  0  0  0  0  0  0  0  0
   -6.8070   14.0450  -34.2350 C   0  0  0  0  0  0  0  0  0  0  0  0
   -7.7455   14.2391  -34.7749 H   0  0  0  0  0  0  0  0  0  0  0  0
   -5.9650   15.0910  -33.8620 C   0  0  0  0  0  0  0  0  0  0  0  0
   -6.1480   16.7350  -34.1320 S   0  0  0  0  0  0  0  0  0  0  0  0
   -4.7970   19.4070  -32.4240 C   0  0  0  0  0  0  0  0  0  0  0  0
   -5.7262   19.1032  -31.9197 H   0  0  0  0  0  0  0  0  0  0  0  0
   -5.4170   23.9890  -31.3380 C   0  0  0  0  0  0  0  0  0  0  0  0
   -6.3276   23.9340  -31.9527 H   0  0  0  0  0  0  0  0  0  0  0  0
  1  2  1  0
  2  3  1  0
  3  4  1  0
  4  5  2  0
  5  6  1  0
  5  7  1  0
  7  8  1  0
  7  9  2  0
  9 10  1  0
  9 11  1  0
 11 12  1  0
 11 13  2  0
 13 14  1  0
 14 15  2  0
 15 16  1  0
 16 17  2  0
 17 18  1  0
 17 19  1  0
 19 20  1  0
 19 21  2  0
 21 22  1  0
 22 23  1  0
 22 24  1  0
 22 25  1  0
 25 26  1  0
 25 27  1  0
 27 28  1  0
 27 29  1  0
 27 30  1  0
 30 31  1  0
 30 32  1  0
 30 33  1  0
 33 34  1  0
 33 35  1  0
 33 36  1  0
 36 37  1  0
 36 38  1  0
 36 39  1  0
 39 40  1  0
 39 41  1  0
 39 42  1  0
 42 43  1  0
 42 44  1  0
 42 45  1  0
 21 46  1  0
 46 47  1  0
 47 48  2  0
 48 49  1  0
 49 50  2  0
 50 51  1  0
 50 52  1  0
 52 53  1  0
 52 54  2  0
 54 55  1  0
 54 56  1  0
 56 57  1  0
 56 58  2  0
 58 59  1  0
 46 60  2  0
 60 61  1  0
 14 62  1  0
 62 63  1  0
 62  2  2  0
 13  4  1  0
 60 16  1  0
 59 47  1  0
 58 49  1  0
M  CHG  2   3  -1  36   1
M  END
>  <UniqueID>  (15) 
15

>  <SMILES>  (15) 
CC[NH2+]CCCNCc1ccc(/N=c2\cc[n-]c3ccccc23)cc1-c1nc2ccccc2s1

>  <Energy>  (15) 
120.19993875794569

>  <Genealogy>  (15) 
CC[NH2+]CCCNCc1ccc(N=c2cc[n-]c3ccccc23)cc1-c1nc2ccccc2s1 (protonated)
CC[NH2+]CCCNCc1ccc(/N=c2\cc[n-]c3ccccc23)cc1-c1nc2ccccc2s1 (cis-trans isomerization)
CC[NH2+]CCCNCc1ccc(/N=c2\cc[n-]c3ccccc23)cc1-c1nc2ccccc2s1 (3D coordinates assigned)
CC[NH2+]CCCNCc1ccc(/N=c2\cc[n-]c3ccccc23)cc1-c1nc2ccccc2s1 (optimized conformer: 120.19993875794569 kcal/mol)

>  <smiles>  (15) 
CCNCCCNCc1ccc(N=c2cc[nH]c3ccccc23)cc1-c1nc2ccccc2s1

>  <score_type>  (15) 
oracle

>  <origin>  (15) 
adg

>  <m_score__min__energy>  (15) 
-10.24

>  <m_primary>  (15) 
energy

$$$$
15:0
     RDKit          3D

 84 86  0  0  0  0  0  0  0  0999 V2000
   -2.1320   13.6660  -31.9710 C   0  0  0  0  0  0  0  0  0  0  0  0
   -0.7160   14.1900  -32.1850 C   0  0  0  0  0  0  0  0  0  0  0  0
   -0.7330   15.2710  -33.1020 O   0  0  0  0  0  0  0  0  0  0  0  0
   -1.9260   15.2800  -33.8650 C   0  0  0  0  0  0  0  0  0  0  0  0
   -1.7310   16.0170  -35.1960 C   0  0  0  0  0  0  0  0  0  0  0  0
   -0.4870   16.7000  -35.2120 O   0  0  0  0  0  0  0  0  0  0  0  0
    0.2250   16.4520  -36.4100 C   0  0  0  0  0  0  0  0  0  0  0  0
    0.9690   15.1180  -36.3360 C   0  0  0  0  0  0  0  0  0  0  0  0
    1.6470   15.0260  -35.0990 O   0  0  0  0  0  0  0  0  0  0  0  0
    2.7800   15.8680  -35.0810 C   0  0  0  0  0  0  0  0  0  0  0  0
    2.6790   16.8000  -33.8710 C   0  0  0  0  0  0  0  0  0  0  0  0
    1.5030   16.4770  -33.0470 N   0  0  0  0  0  0  0  0  0  0  0  0
    1.6460   17.0540  -31.7020 C   0  0  0  0  0  0  0  0  0  0  0  0
    0.2860   17.1990  -30.9950 C   0  0  0  0  0  0  0  0  0  0  0  0
   -0.4790   18.4460  -31.4630 C   0  0  0  0  0  0  0  0  0  0  0  0
   -0.8800   18.2970  -32.8690 N   0  0  0  0  0  0  0  0  0  0  0  0
   -0.1140   19.2000  -33.7440 C   0  0  0  0  0  0  0  0  0  0  0  0
   -1.0400   20.1160  -34.5560 C   0  0  0  0  0  0  0  0  0  0  0  0
   -1.0610   21.4870  -34.0200 N   0  0  0  0  0  0  0  0  0  0  0  0
   -1.1730   21.4860  -32.5540 C   0  0  0  0  0  0  0  0  0  0  0  0
   -2.6440   21.5510  -32.1340 C   0  0  0  0  0  0  0  0  0  0  0  0
   -3.5270   21.2730  -33.2670 N   0  0  0  0  0  0  0  0  0  0  0  0
   -4.8580   20.7600  -33.0810 C   0  0  0  0  0  0  0  0  0  0  0  0
   -5.8660   21.5930  -32.5680 C   0  0  0  0  0  0  0  0  0  0  0  0
   -5.6230   22.9640  -32.3360 C   0  0  0  0  0  0  0  0  0  0  0  0
   -6.6320   23.7950  -31.8590 C   0  0  0  0  0  0  0  0  0  0  0  0
   -7.9000   23.2800  -31.6160 C   0  0  0  0  0  0  0  0  0  0  0  0
   -8.1610   21.9260  -31.8290 C   0  0  0  0  0  0  0  0  0  0  0  0
   -7.1440   21.0450  -32.2780 C   0  0  0  0  0  0  0  0  0  0  0  0
   -7.3710   19.6920  -32.4410 N   0  0  0  0  0  0  0  0  0  0  0  0
   -8.5830   19.0690  -31.8620 C   0  0  0  0  0  0  0  0  0  0  0  0
   -6.4540   18.9150  -33.1260 C   0  0  0  0  0  0  0  0  0  0  0  0
   -6.7610   17.5990  -33.5570 C   0  0  0  0  0  0  0  0  0  0  0  0
   -5.8150   16.8190  -34.2220 C   0  0  0  0  0  0  0  0  0  0  0  0
   -4.5540   17.3330  -34.4980 C   0  0  0  0  0  0  0  0  0  0  0  0
   -4.2350   18.6340  -34.1200 C   0  0  0  0  0  0  0  0  0  0  0  0
   -5.1700   19.4370  -33.4350 C   0  0  0  0  0  0  0  0  0  0  0  0
   -2.3360   13.5905  -30.8927 H   0  0  0  0  0  0  0  0  0  0  0  0
   -2.8524   14.3571  -32.4330 H   0  0  0  0  0  0  0  0  0  0  0  0
   -2.2290   12.6724  -32.4330 H   0  0  0  0  0  0  0  0  0  0  0  0
   -0.3056   14.5338  -31.2241 H   0  0  0  0  0  0  0  0  0  0  0  0
   -0.0892   13.3821  -32.5905 H   0  0  0  0  0  0  0  0  0  0  0  0
   -2.2275   14.2423  -34.0709 H   0  0  0  0  0  0  0  0  0  0  0  0
   -2.7027   15.8040  -33.2886 H   0  0  0  0  0  0  0  0  0  0  0  0
   -1.7536   15.2880  -36.0194 H   0  0  0  0  0  0  0  0  0  0  0  0
   -2.5404   16.7522  -35.3158 H   0  0  0  0  0  0  0  0  0  0  0  0
   -0.4837   16.4230  -37.2508 H   0  0  0  0  0  0  0  0  0  0  0  0
    0.9603   17.2571  -36.5551 H   0  0  0  0  0  0  0  0  0  0  0  0
    0.2488   14.2910  -36.4221 H   0  0  0  0  0  0  0  0  0  0  0  0
    1.6964   15.0571  -37.1589 H   0  0  0  0  0  0  0  0  0  0  0  0
    3.6927   15.2589  -35.0040 H   0  0  0  0  0  0  0  0  0  0  0  0
    2.8224   16.4595  -36.0075 H   0  0  0  0  0  0  0  0  0  0  0  0
    3.5865   16.6927  -33.2587 H   0  0  0  0  0  0  0  0  0  0  0  0
    2.5763   17.8331  -34.2347 H   0  0  0  0  0  0  0  0  0  0  0  0
    0.6430   16.8710  -33.4960 H   0  0  0  0  0  0  0  0  0  0  0  0
    1.4110   15.4360  -32.9870 H   0  0  0  0  0  0  0  0  0  0  0  0
    2.2922   16.3982  -31.1000 H   0  0  0  0  0  0  0  0  0  0  0  0
    2.0867   18.0566  -31.8049 H   0  0  0  0  0  0  0  0  0  0  0  0
   -0.3224   16.3082  -31.2103 H   0  0  0  0  0  0  0  0  0  0  0  0
    0.4746   17.3026  -29.9163 H   0  0  0  0  0  0  0  0  0  0  0  0
   -1.3768   18.5764  -30.8409 H   0  0  0  0  0  0  0  0  0  0  0  0
    0.1749   19.3254  -31.3673 H   0  0  0  0  0  0  0  0  0  0  0  0
   -0.6480   17.3170  -33.1590 H   0  0  0  0  0  0  0  0  0  0  0  0
    0.5491   19.8211  -33.1239 H   0  0  0  0  0  0  0  0  0  0  0  0
    0.4684   18.5869  -34.4475 H   0  0  0  0  0  0  0  0  0  0  0  0
   -0.6869   20.1463  -35.5973 H   0  0  0  0  0  0  0  0  0  0  0  0
   -2.0606   19.7100  -34.4959 H   0  0  0  0  0  0  0  0  0  0  0  0
   -1.9190   21.9510  -34.4060 H   0  0  0  0  0  0  0  0  0  0  0  0
   -0.7223   20.5648  -32.1562 H   0  0  0  0  0  0  0  0  0  0  0  0
   -0.6472   22.3656  -32.1541 H   0  0  0  0  0  0  0  0  0  0  0  0
   -2.8259   20.8061  -31.3453 H   0  0  0  0  0  0  0  0  0  0  0  0
   -2.8578   22.5647  -31.7644 H   0  0  0  0  0  0  0  0  0  0  0  0
   -3.2190   21.5440  -34.2280 H   0  0  0  0  0  0  0  0  0  0  0  0
   -4.6244   23.3803  -32.5346 H   0  0  0  0  0  0  0  0  0  0  0  0
   -6.4262   24.8596  -31.6742 H   0  0  0  0  0  0  0  0  0  0  0  0
   -8.7005   23.9422  -31.2545 H   0  0  0  0  0  0  0  0  0  0  0  0
   -9.1727   21.5351  -31.6456 H   0  0  0  0  0  0  0  0  0  0  0  0
   -8.5224   19.1001  -30.7641 H   0  0  0  0  0  0  0  0  0  0  0  0
   -9.4741   19.6208  -32.1959 H   0  0  0  0  0  0  0  0  0  0  0  0
   -8.6529   18.0232  -32.1959 H   0  0  0  0  0  0  0  0  0  0  0  0
   -7.7622   17.1865  -33.3635 H   0  0  0  0  0  0  0  0  0  0  0  0
   -6.0681   15.7935  -34.5290 H   0  0  0  0  0  0  0  0  0  0  0  0
   -3.8079   16.7118  -35.0152 H   0  0  0  0  0  0  0  0  0  0  0  0
   -3.2412   19.0408  -34.3586 H   0  0  0  0  0  0  0  0  0  0  0  0
  1  2  1  0
  2  3  1  0
  3  4  1  0
  4  5  1  0
  5  6  1  0
  6  7  1  0
  7  8  1  0
  8  9  1  0
  9 10  1  0
 10 11  1  0
 11 12  1  0
 12 13  1  0
 13 14  1  0
 14 15  1  0
 15 16  1  0
 16 17  1  0
 17 18  1  0
 18 19  1  0
 19 20  1  0
 20 21  1  0
 21 22  1  0
 22 23  1  0
 23 24  2  0
 24 25  1  0
 25 26  2  0
 26 27  1  0
 27 28  2  0
 28 29  1  0
 29 30  2  0
 30 31  1  0
 30 32  1  0
 32 33  2  0
 33 34  1  0
 34 35  2  0
 35 36  1  0
 36 37  2  0
 37 23  1  0
 29 24  1  0
 37 32  1  0
  1 38  1  0
  1 39  1  0
  1 40  1  0
  2 41  1  0
  2 42  1  0
  4 43  1  0
  4 44  1  0
  5 45  1  0
  5 46  1  0
  7 47  1  0
  7 48  1  0
  8 49  1  0
  8 50  1  0
 10 51  1  0
 10 52  1  0
 11 53  1  0
 11 54  1  0
 12 55  1  0
 12 56  1  0
 13 57  1  0
 13 58  1  0
 14 59  1  0
 14 60  1  0
 15 61  1  0
 15 62  1  0
 16 63  1  0
 17 64  1  0
 17 65  1  0
 18 66  1  0
 18 67  1  0
 19 68  1  0
 20 69  1  0
 20 70  1  0
 21 71  1  0
 21 72  1  0
 22 73  1  0
 25 74  1  0
 26 75  1  0
 27 76  1  0
 28 77  1  0
 31 78  1  0
 31 79  1  0
 31 80  1  0
 33 81  1  0
 34 82  1  0
 35 83  1  0
 36 84  1  0
M  CHG  2  12   1  30   1
M  END
>  <UniqueID>  (16) 
16

>  <SMILES>  (16) 
CCOCCOCCOCC[NH2+]CCCNCCNCCNc1c2ccccc2[n+](C)c2ccccc12

>  <Energy>  (16) 
103.00734817870523

>  <Genealogy>  (16) 
CCOCCOCCOCC[NH2+]CCCNCCNCCNc1c2ccccc2[n+](C)c2ccccc12 (protonated)
CCOCCOCCOCC[NH2+]CCCNCCNCCNc1c2ccccc2[n+](C)c2ccccc12 (3D coordinates assigned)
CCOCCOCCOCC[NH2+]CCCNCCNCCNc1c2ccccc2[n+](C)c2ccccc12 (optimized conformer: 103.00734817870523 kcal/mol)

>  <smiles>  (16) 
CCOCCOCCOCCNCCCNCCNCCNc1c2ccccc2[n+](C)c2ccccc12

>  <score_type>  (16) 
oracle

>  <origin>  (16) 
adg

>  <m_score__min__energy>  (16) 
-6.6200000000000001

>  <m_primary>  (16) 
energy

$$$$
16:0
     RDKit          3D

 71 75  0  0  0  0  0  0  0  0999 V2000
   -6.6470   25.2880  -29.7130 C   0  0  0  0  0  0  0  0  0  0  0  0
   -5.3670   25.6100  -30.4780 C   0  0  0  0  0  0  0  0  0  0  0  0
   -5.0570   24.5470  -31.4460 N   0  0  0  0  0  0  0  0  0  0  0  0
   -4.3770   23.4130  -30.8050 C   0  0  0  0  0  0  0  0  0  0  0  0
   -3.8010   22.4510  -31.8530 C   0  0  0  0  0  0  0  0  0  0  0  0
   -4.6640   22.3320  -33.0490 N   0  0  0  0  0  0  0  0  0  0  0  0
   -5.4100   21.0820  -33.0190 C   0  0  0  0  0  0  0  0  0  0  0  0
   -6.7800   21.1270  -32.6030 C   0  0  0  0  0  0  0  0  0  0  0  0
   -7.4210   22.3450  -32.2350 C   0  0  0  0  0  0  0  0  0  0  0  0
   -8.7670   22.3820  -31.8840 C   0  0  0  0  0  0  0  0  0  0  0  0
   -9.5200   21.2220  -31.8940 C   0  0  0  0  0  0  0  0  0  0  0  0
   -8.9180   20.0100  -32.2080 C   0  0  0  0  0  0  0  0  0  0  0  0
   -7.5350   19.9300  -32.5240 C   0  0  0  0  0  0  0  0  0  0  0  0
   -6.9340   18.7180  -32.7510 N   0  0  0  0  0  0  0  0  0  0  0  0
   -7.6090   17.4720  -32.3060 C   0  0  0  0  0  0  0  0  0  0  0  0
   -5.6880   18.6540  -33.3400 C   0  0  0  0  0  0  0  0  0  0  0  0
   -5.2510   17.4310  -33.9000 C   0  0  0  0  0  0  0  0  0  0  0  0
   -3.9640   17.2690  -34.3630 C   0  0  0  0  0  0  0  0  0  0  0  0
   -3.0740   18.3180  -34.3000 C   0  0  0  0  0  0  0  0  0  0  0  0
   -3.4710   19.5990  -33.8740 C   0  0  0  0  0  0  0  0  0  0  0  0
   -2.4360   20.6020  -33.8440 N   0  0  0  0  0  0  0  0  0  0  0  0
   -1.2280   20.4970  -33.0140 C   0  0  0  0  0  0  0  0  0  0  0  0
   -1.5430   19.9600  -31.6130 C   0  0  0  0  0  0  0  0  0  0  0  0
   -0.3180   19.9850  -30.6740 C   0  0  0  0  0  0  0  0  0  0  0  0
   -0.7370   20.2830  -29.2870 N   0  0  0  0  0  0  0  0  0  0  0  0
   -0.8340   19.2200  -28.4260 C   0  0  0  0  0  0  0  0  0  0  0  0
   -1.2790   19.3830  -27.1160 C   0  0  0  0  0  0  0  0  0  0  0  0
   -1.6460   20.6450  -26.6680 C   0  0  0  0  0  0  0  0  0  0  0  0
   -1.5690   21.7390  -27.5330 C   0  0  0  0  0  0  0  0  0  0  0  0
   -1.9540   23.0130  -27.0880 C   0  0  0  0  0  0  0  0  0  0  0  0
   -1.8880   24.1070  -27.9490 C   0  0  0  0  0  0  0  0  0  0  0  0
   -1.4390   23.9410  -29.2570 C   0  0  0  0  0  0  0  0  0  0  0  0
   -1.0500   22.6790  -29.7150 C   0  0  0  0  0  0  0  0  0  0  0  0
   -1.1060   21.5500  -28.8660 C   0  0  0  0  0  0  0  0  0  0  0  0
   -4.8330   19.8100  -33.4050 C   0  0  0  0  0  0  0  0  0  0  0  0
   -6.4503   25.3375  -28.6319 H   0  0  0  0  0  0  0  0  0  0  0  0
   -7.4259   26.0182  -29.9778 H   0  0  0  0  0  0  0  0  0  0  0  0
   -6.9877   24.2762  -29.9778 H   0  0  0  0  0  0  0  0  0  0  0  0
   -5.4974   26.5608  -31.0156 H   0  0  0  0  0  0  0  0  0  0  0  0
   -4.5368   25.6872  -29.7605 H   0  0  0  0  0  0  0  0  0  0  0  0
   -5.9700   24.1930  -31.8060 H   0  0  0  0  0  0  0  0  0  0  0  0
   -3.5575   23.7934  -30.1775 H   0  0  0  0  0  0  0  0  0  0  0  0
   -5.1098   22.8660  -30.1936 H   0  0  0  0  0  0  0  0  0  0  0  0
   -2.8135   22.8208  -32.1661 H   0  0  0  0  0  0  0  0  0  0  0  0
   -3.7324   21.4554  -31.3904 H   0  0  0  0  0  0  0  0  0  0  0  0
   -4.1400   22.4680  -33.9270 H   0  0  0  0  0  0  0  0  0  0  0  0
   -5.3270   23.1370  -33.1030 H   0  0  0  0  0  0  0  0  0  0  0  0
   -6.8383   23.2779  -32.2282 H   0  0  0  0  0  0  0  0  0  0  0  0
   -9.2333   23.3363  -31.5979 H   0  0  0  0  0  0  0  0  0  0  0  0
  -10.5928   21.2590  -31.6539 H   0  0  0  0  0  0  0  0  0  0  0  0
   -9.5250   19.0926  -32.2121 H   0  0  0  0  0  0  0  0  0  0  0  0
   -7.6276   17.4376  -31.2067 H   0  0  0  0  0  0  0  0  0  0  0  0
   -8.6393   17.4556  -32.6909 H   0  0  0  0  0  0  0  0  0  0  0  0
   -7.0599   16.6000  -32.6909 H   0  0  0  0  0  0  0  0  0  0  0  0
   -5.9558   16.5891  -33.9674 H   0  0  0  0  0  0  0  0  0  0  0  0
   -3.6474   16.3027  -34.7826 H   0  0  0  0  0  0  0  0  0  0  0  0
   -2.0263   18.1503  -34.5900 H   0  0  0  0  0  0  0  0  0  0  0  0
   -2.6520   21.5510  -34.2170 H   0  0  0  0  0  0  0  0  0  0  0  0
   -0.5173   19.8157  -33.5047 H   0  0  0  0  0  0  0  0  0  0  0  0
   -0.8001   21.5045  -32.9051 H   0  0  0  0  0  0  0  0  0  0  0  0
   -2.3380   20.5779  -31.1702 H   0  0  0  0  0  0  0  0  0  0  0  0
   -1.8552   18.9109  -31.7226 H   0  0  0  0  0  0  0  0  0  0  0  0
    0.1784   19.0037  -30.6997 H   0  0  0  0  0  0  0  0  0  0  0  0
    0.3755   20.7686  -31.0132 H   0  0  0  0  0  0  0  0  0  0  0  0
   -0.5541   18.2160  -28.7777 H   0  0  0  0  0  0  0  0  0  0  0  0
   -1.3393   18.5170  -26.4404 H   0  0  0  0  0  0  0  0  0  0  0  0
   -1.9965   20.7829  -25.6345 H   0  0  0  0  0  0  0  0  0  0  0  0
   -2.3092   23.1487  -26.0558 H   0  0  0  0  0  0  0  0  0  0  0  0
   -2.1911   25.1034  -27.5949 H   0  0  0  0  0  0  0  0  0  0  0  0
   -1.3903   24.8074  -29.9330 H   0  0  0  0  0  0  0  0  0  0  0  0
   -0.6956   22.5628  -30.7498 H   0  0  0  0  0  0  0  0  0  0  0  0
  1  2  1  0
  2  3  1  0
  3  4  1  0
  4  5  1  0
  5  6  1  0
  6  7  1  0
  7  8  2  0
  8  9  1  0
  9 10  2  0
 10 11  1  0
 11 12  2  0
 12 13  1  0
 13 14  2  0
 14 15  1  0
 14 16  1  0
 16 17  2  0
 17 18  1  0
 18 19  2  0
 19 20  1  0
 20 21  1  0
 21 22  1  0
 22 23  1  0
 23 24  1  0
 24 25  1  0
 25 26  2  0
 26 27  1  0
 27 28  2  0
 28 29  1  0
 29 30  2  0
 30 31  1  0
 31 32  2  0
 32 33  1  0
 33 34  2  0
 20 35  2  0
 35  7  1  0
 13  8  1  0
 35 16  1  0
 34 25  1  0
 34 29  1  0
  1 36  1  0
  1 37  1  0
  1 38  1  0
  2 39  1  0
  2 40  1  0
  3 41  1  0
  4 42  1  0
  4 43  1  0
  5 44  1  0
  5 45  1  0
  6 46  1  0
  6 47  1  0
  9 48  1  0
 10 49  1  0
 11 50  1  0
 12 51  1  0
 15 52  1  0
 15 53  1  0
 15 54  1  0
 17 55  1  0
 18 56  1  0
 19 57  1  0
 21 58  1  0
 22 59  1  0
 22 60  1  0
 23 61  1  0
 23 62  1  0
 24 63  1  0
 24 64  1  0
 26 65  1  0
 27 66  1  0
 28 67  1  0
 30 68  1  0
 31 69  1  0
 32 70  1  0
 33 71  1  0
M  CHG  3   6   1  14   1  25   1
M  END
>  <UniqueID>  (17) 
17

>  <SMILES>  (17) 
CCNCC[NH2+]c1c2ccccc2[n+](C)c2cccc(NCCC[n+]3cccc4ccccc43)c12

>  <Energy>  (17) 
124.1698900780933

>  <Genealogy>  (17) 
CCNCC[NH2+]c1c2ccccc2[n+](C)c2cccc(NCCC[n+]3cccc4ccccc43)c12 (protonated)
CCNCC[NH2+]c1c2ccccc2[n+](C)c2cccc(NCCC[n+]3cccc4ccccc43)c12 (3D coordinates assigned)
CCNCC[NH2+]c1c2ccccc2[n+](C)c2cccc(NCCC[n+]3cccc4ccccc43)c12 (optimized conformer: 124.1698900780933 kcal/mol)

>  <smiles>  (17) 
CCNCCNc1c2ccccc2[n+](C)c2cccc(NCCC[n+]3cccc4ccccc43)c12

>  <score_type>  (17) 
oracle

>  <origin>  (17) 
adg

>  <m_score__min__energy>  (17) 
-10.050000000000001

>  <m_primary>  (17) 
energy

$$$$
17:0
     RDKit          3D

 63 65  0  0  0  0  0  0  0  0999 V2000
   -2.6930   20.5140  -28.5990 C   0  0  0  0  0  0  0  0  0  0  0  0
   -2.6420   21.9120  -27.9830 C   0  0  0  0  0  0  0  0  0  0  0  0
   -3.5140   22.9160  -28.7550 C   0  0  0  0  0  0  0  0  0  0  0  0
   -2.6960   23.8100  -29.7010 C   0  0  0  0  0  0  0  0  0  0  0  0
   -3.5060   24.9370  -30.1800 N   0  0  0  0  0  0  0  0  0  0  0  0
   -4.9060   24.7740  -29.7700 C   0  0  0  0  0  0  0  0  0  0  0  0
   -5.8510   25.0240  -30.9550 C   0  0  0  0  0  0  0  0  0  0  0  0
   -6.4200   23.7390  -31.5840 C   0  0  0  0  0  0  0  0  0  0  0  0
   -5.4060   22.5740  -31.6170 C   0  0  0  0  0  0  0  0  0  0  0  0
   -5.3440   21.9430  -32.9510 N   0  0  0  0  0  0  0  0  0  0  0  0
   -4.7010   20.6340  -32.8840 C   0  0  0  0  0  0  0  0  0  0  0  0
   -3.2910   20.5370  -32.7890 C   0  0  0  0  0  0  0  0  0  0  0  0
   -2.5090   21.5630  -32.2030 C   0  0  0  0  0  0  0  0  0  0  0  0
   -1.1220   21.4600  -32.1390 C   0  0  0  0  0  0  0  0  0  0  0  0
   -0.4850   20.3260  -32.6260 C   0  0  0  0  0  0  0  0  0  0  0  0
   -1.2320   19.2820  -33.1690 C   0  0  0  0  0  0  0  0  0  0  0  0
   -2.6440   19.3670  -33.2640 C   0  0  0  0  0  0  0  0  0  0  0  0
   -3.3920   18.3350  -33.7880 N   0  0  0  0  0  0  0  0  0  0  0  0
   -2.7390   17.2850  -34.5980 C   0  0  0  0  0  0  0  0  0  0  0  0
   -4.7460   18.2730  -33.5260 C   0  0  0  0  0  0  0  0  0  0  0  0
   -5.4640   17.0690  -33.7140 C   0  0  0  0  0  0  0  0  0  0  0  0
   -6.8270   17.0010  -33.4690 C   0  0  0  0  0  0  0  0  0  0  0  0
   -7.5060   18.1080  -32.9860 C   0  0  0  0  0  0  0  0  0  0  0  0
   -6.8300   19.3140  -32.7320 C   0  0  0  0  0  0  0  0  0  0  0  0
   -7.5070   20.3940  -32.1400 O   0  0  0  0  0  0  0  0  0  0  0  0
   -8.9170   20.5230  -31.9580 C   0  0  0  0  0  0  0  0  0  0  0  0
   -9.2300   21.5810  -30.9070 C   0  0  0  0  0  0  0  0  0  0  0  0
   -5.4400   19.4230  -33.0460 C   0  0  0  0  0  0  0  0  0  0  0  0
   -2.7205   19.7610  -27.7976 H   0  0  0  0  0  0  0  0  0  0  0  0
   -3.5952   20.4202  -29.2213 H   0  0  0  0  0  0  0  0  0  0  0  0
   -1.8001   20.3547  -29.2213 H   0  0  0  0  0  0  0  0  0  0  0  0
   -3.0008   21.8555  -26.9447 H   0  0  0  0  0  0  0  0  0  0  0  0
   -1.6007   22.2638  -28.0267 H   0  0  0  0  0  0  0  0  0  0  0  0
   -4.2514   22.3568  -29.3496 H   0  0  0  0  0  0  0  0  0  0  0  0
   -3.9986   23.5711  -28.0161 H   0  0  0  0  0  0  0  0  0  0  0  0
   -1.8193   24.1987  -29.1623 H   0  0  0  0  0  0  0  0  0  0  0  0
   -2.3773   23.2106  -30.5665 H   0  0  0  0  0  0  0  0  0  0  0  0
   -3.4840   24.9250  -31.2280 H   0  0  0  0  0  0  0  0  0  0  0  0
   -5.0565   23.7498  -29.3979 H   0  0  0  0  0  0  0  0  0  0  0  0
   -5.1302   25.5042  -28.9785 H   0  0  0  0  0  0  0  0  0  0  0  0
   -6.6925   25.6386  -30.6027 H   0  0  0  0  0  0  0  0  0  0  0  0
   -5.2582   25.5246  -31.7348 H   0  0  0  0  0  0  0  0  0  0  0  0
   -7.2964   23.4226  -30.9994 H   0  0  0  0  0  0  0  0  0  0  0  0
   -6.6801   23.9742  -32.6266 H   0  0  0  0  0  0  0  0  0  0  0  0
   -4.4093   22.9612  -31.3589 H   0  0  0  0  0  0  0  0  0  0  0  0
   -5.7327   21.8137  -30.8923 H   0  0  0  0  0  0  0  0  0  0  0  0
   -6.3300   21.8680  -33.2700 H   0  0  0  0  0  0  0  0  0  0  0  0
   -4.8800   22.5590  -33.6530 H   0  0  0  0  0  0  0  0  0  0  0  0
   -3.0053   22.4546  -31.7923 H   0  0  0  0  0  0  0  0  0  0  0  0
   -0.5300   22.2778  -31.7022 H   0  0  0  0  0  0  0  0  0  0  0  0
    0.6116   20.2516  -32.5831 H   0  0  0  0  0  0  0  0  0  0  0  0
   -0.7182   18.3785  -33.5292 H   0  0  0  0  0  0  0  0  0  0  0  0
   -2.2769   16.5420  -33.9314 H   0  0  0  0  0  0  0  0  0  0  0  0
   -3.4898   16.7915  -35.2327 H   0  0  0  0  0  0  0  0  0  0  0  0
   -1.9644   17.7402  -35.2327 H   0  0  0  0  0  0  0  0  0  0  0  0
   -4.9318   16.1709  -34.0606 H   0  0  0  0  0  0  0  0  0  0  0  0
   -7.3716   16.0643  -33.6589 H   0  0  0  0  0  0  0  0  0  0  0  0
   -8.5880   18.0423  -32.7989 H   0  0  0  0  0  0  0  0  0  0  0  0
   -9.3791   20.8146  -32.9127 H   0  0  0  0  0  0  0  0  0  0  0  0
   -9.3195   19.5573  -31.6184 H   0  0  0  0  0  0  0  0  0  0  0  0
   -9.1024   21.1497  -29.9032 H   0  0  0  0  0  0  0  0  0  0  0  0
   -8.5455   22.4333  -31.0296 H   0  0  0  0  0  0  0  0  0  0  0  0
  -10.2680   21.9238  -31.0296 H   0  0  0  0  0  0  0  0  0  0  0  0
  1  2  1  0
  2  3  1  0
  3  4  1  0
  4  5  1  0
  5  6  1  0
  6  7  1  0
  7  8  1  0
  8  9  1  0
  9 10  1  0
 10 11  1  0
 11 12  2  0
 12 13  1  0
 13 14  2  0
 14 15  1  0
 15 16  2  0
 16 17  1  0
 17 18  2  0
 18 19  1  0
 18 20  1  0
 20 21  2  0
 21 22  1  0
 22 23  2  0
 23 24  1  0
 24 25  1  0
 25 26  1  0
 26 27  1  0
 24 28  2  0
 28 11  1  0
 17 12  1  0
 28 20  1  0
  1 29  1  0
  1 30  1  0
  1 31  1  0
  2 32  1  0
  2 33  1  0
  3 34  1  0
  3 35  1  0
  4 36  1  0
  4 37  1  0
  5 38  1  0
  6 39  1  0
  6 40  1  0
  7 41  1  0
  7 42  1  0
  8 43  1  0
  8 44  1  0
  9 45  1  0
  9 46  1  0
 10 47  1  0
 10 48  1  0
 13 49  1  0
 14 50  1  0
 15 51  1  0
 16 52  1  0
 19 53  1  0
 19 54  1  0
 19 55  1  0
 21 56  1  0
 22 57  1  0
 23 58  1  0
 26 59  1  0
 26 60  1  0
 27 61  1  0
 27 62  1  0
 27 63  1  0
M  CHG  2  10   1  18   1
M  END
>  <UniqueID>  (18) 
18

>  <SMILES>  (18) 
CCCCNCCCC[NH2+]c1c2ccccc2[n+](C)c2cccc(OCC)c12

>  <Energy>  (18) 
89.42954098243543

>  <Genealogy>  (18) 
CCCCNCCCC[NH2+]c1c2ccccc2[n+](C)c2cccc(OCC)c12 (protonated)
CCCCNCCCC[NH2+]c1c2ccccc2[n+](C)c2cccc(OCC)c12 (3D coordinates assigned)
CCCCNCCCC[NH2+]c1c2ccccc2[n+](C)c2cccc(OCC)c12 (optimized conformer: 89.42954098243543 kcal/mol)

>  <smiles>  (18) 
CCCCNCCCCNc1c2ccccc2[n+](C)c2cccc(OCC)c12

>  <score_type>  (18) 
oracle

>  <origin>  (18) 
adg

>  <m_score__min__energy>  (18) 
-8.0800000000000001

>  <m_primary>  (18) 
energy

$$$$
18:0
     RDKit          3D

 64 67  0  0  0  0  0  0  0  0999 V2000
   -0.5010   22.7340  -29.5080 C   0  0  0  0  0  0  0  0  0  0  0  0
   -0.1960   23.8740  -28.5400 C   0  0  0  0  0  0  0  0  0  0  0  0
   -0.7940   25.1370  -28.9980 N   0  0  0  0  0  0  0  0  0  0  0  0
   -0.9620   26.0900  -27.8890 C   0  0  0  0  0  0  0  0  0  0  0  0
   -1.2330   25.3470  -26.5780 C   0  0  0  0  0  0  0  0  0  0  0  0
   -2.6640   24.8040  -26.5410 C   0  0  0  0  0  0  0  0  0  0  0  0
   -3.2650   24.9180  -27.8190 O   0  0  0  0  0  0  0  0  0  0  0  0
   -3.6570   23.6520  -28.3190 C   0  0  0  0  0  0  0  0  0  0  0  0
   -3.3910   23.5720  -29.8290 C   0  0  0  0  0  0  0  0  0  0  0  0
   -3.6820   24.7980  -30.4750 O   0  0  0  0  0  0  0  0  0  0  0  0
   -5.0140   25.2010  -30.2080 C   0  0  0  0  0  0  0  0  0  0  0  0
   -5.9870   24.2120  -30.8450 C   0  0  0  0  0  0  0  0  0  0  0  0
   -5.3570   23.4610  -31.9310 N   0  0  0  0  0  0  0  0  0  0  0  0
   -5.8020   22.1330  -32.2320 C   0  0  0  0  0  0  0  0  0  0  0  0
   -4.8870   21.1620  -32.6150 C   0  0  0  0  0  0  0  0  0  0  0  0
   -5.2730   19.8480  -32.8180 C   0  0  0  0  0  0  0  0  0  0  0  0
   -6.5460   19.4210  -32.5330 N   0  0  0  0  0  0  0  0  0  0  0  0
   -6.8320   17.9830  -32.4110 C   0  0  0  0  0  0  0  0  0  0  0  0
   -7.5230   20.3770  -32.3000 C   0  0  0  0  0  0  0  0  0  0  0  0
   -8.8950   20.0340  -32.2390 C   0  0  0  0  0  0  0  0  0  0  0  0
   -9.8680   21.0070  -32.0080 C   0  0  0  0  0  0  0  0  0  0  0  0
   -9.5050   22.3410  -31.8490 C   0  0  0  0  0  0  0  0  0  0  0  0
   -8.1650   22.7170  -31.9190 C   0  0  0  0  0  0  0  0  0  0  0  0
   -7.1600   21.7550  -32.1380 C   0  0  0  0  0  0  0  0  0  0  0  0
   -4.0700   19.0880  -33.2280 C   0  0  0  0  0  0  0  0  0  0  0  0
   -3.9650   17.8370  -33.7600 N   0  0  0  0  0  0  0  0  0  0  0  0
   -2.7440   17.3760  -34.1670 C   0  0  0  0  0  0  0  0  0  0  0  0
   -1.6050   18.2030  -34.0970 C   0  0  0  0  0  0  0  0  0  0  0  0
   -1.7270   19.5180  -33.6270 C   0  0  0  0  0  0  0  0  0  0  0  0
   -2.9810   19.9410  -33.2010 C   0  0  0  0  0  0  0  0  0  0  0  0
   -3.4410   21.2630  -32.8120 C   0  0  0  0  0  0  0  0  0  0  0  0
   -2.7300   22.2960  -32.6920 O   0  0  0  0  0  0  0  0  0  0  0  0
   -0.7443   21.8248  -28.9387 H   0  0  0  0  0  0  0  0  0  0  0  0
   -1.3569   23.0100  -30.1415 H   0  0  0  0  0  0  0  0  0  0  0  0
    0.3784   22.5457  -30.1415 H   0  0  0  0  0  0  0  0  0  0  0  0
   -0.6040   23.6224  -27.5499 H   0  0  0  0  0  0  0  0  0  0  0  0
    0.8951   24.0043  -28.4891 H   0  0  0  0  0  0  0  0  0  0  0  0
   -1.7440   24.9100  -29.3760 H   0  0  0  0  0  0  0  0  0  0  0  0
   -0.0444   26.6873  -27.7832 H   0  0  0  0  0  0  0  0  0  0  0  0
   -1.8181   26.7445  -28.1098 H   0  0  0  0  0  0  0  0  0  0  0  0
   -0.5274   24.5080  -26.4875 H   0  0  0  0  0  0  0  0  0  0  0  0
   -1.1035   26.0511  -25.7428 H   0  0  0  0  0  0  0  0  0  0  0  0
   -2.6431   23.7454  -26.2427 H   0  0  0  0  0  0  0  0  0  0  0  0
   -3.2502   25.3877  -25.8159 H   0  0  0  0  0  0  0  0  0  0  0  0
   -3.0831   22.8656  -27.8069 H   0  0  0  0  0  0  0  0  0  0  0  0
   -4.7326   23.5117  -28.1364 H   0  0  0  0  0  0  0  0  0  0  0  0
   -2.3316   23.3251  -29.9923 H   0  0  0  0  0  0  0  0  0  0  0  0
   -4.0451   22.7958  -30.2530 H   0  0  0  0  0  0  0  0  0  0  0  0
   -5.1776   25.2263  -29.1205 H   0  0  0  0  0  0  0  0  0  0  0  0
   -5.1836   26.2026  -30.6298 H   0  0  0  0  0  0  0  0  0  0  0  0
   -6.3326   23.5055  -30.0759 H   0  0  0  0  0  0  0  0  0  0  0  0
   -6.8307   24.7803  -31.2637 H   0  0  0  0  0  0  0  0  0  0  0  0
   -4.4260   23.7630  -32.2980 H   0  0  0  0  0  0  0  0  0  0  0  0
   -6.8865   17.7090  -31.3471 H   0  0  0  0  0  0  0  0  0  0  0  0
   -7.7926   17.7576  -32.8974 H   0  0  0  0  0  0  0  0  0  0  0  0
   -6.0308   17.4072  -32.8974 H   0  0  0  0  0  0  0  0  0  0  0  0
   -9.1984   18.9855  -32.3756 H   0  0  0  0  0  0  0  0  0  0  0  0
  -10.9278   20.7180  -31.9513 H   0  0  0  0  0  0  0  0  0  0  0  0
  -10.2787   23.1015  -31.6674 H   0  0  0  0  0  0  0  0  0  0  0  0
   -7.8895   23.7755  -31.8021 H   0  0  0  0  0  0  0  0  0  0  0  0
   -4.7980   17.2300  -33.9080 H   0  0  0  0  0  0  0  0  0  0  0  0
   -2.6497   16.3501  -34.5527 H   0  0  0  0  0  0  0  0  0  0  0  0
   -0.6234   17.8178  -34.4102 H   0  0  0  0  0  0  0  0  0  0  0  0
   -0.8591   20.1931  -33.5962 H   0  0  0  0  0  0  0  0  0  0  0  0
  1  2  1  0
  2  3  1  0
  3  4  1  0
  4  5  1  0
  5  6  1  0
  6  7  1  0
  7  8  1  0
  8  9  1  0
  9 10  1  0
 10 11  1  0
 11 12  1  0
 12 13  1  0
 13 14  1  0
 14 15  2  0
 15 16  1  0
 16 17  2  0
 17 18  1  0
 17 19  1  0
 19 20  2  0
 20 21  1  0
 21 22  2  0
 22 23  1  0
 23 24  2  0
 16 25  1  0
 25 26  2  0
 26 27  1  0
 27 28  2  0
 28 29  1  0
 29 30  2  0
 30 31  1  0
 31 32  2  0
 24 14  1  0
 30 25  1  0
 31 15  1  0
 24 19  1  0
  1 33  1  0
  1 34  1  0
  1 35  1  0
  2 36  1  0
  2 37  1  0
  3 38  1  0
  4 39  1  0
  4 40  1  0
  5 41  1  0
  5 42  1  0
  6 43  1  0
  6 44  1  0
  8 45  1  0
  8 46  1  0
  9 47  1  0
  9 48  1  0
 11 49  1  0
 11 50  1  0
 12 51  1  0
 12 52  1  0
 13 53  1  0
 18 54  1  0
 18 55  1  0
 18 56  1  0
 20 57  1  0
 21 58  1  0
 22 59  1  0
 23 60  1  0
 26 61  1  0
 27 62  1  0
 28 63  1  0
 29 64  1  0
M  CHG  2  17   1  26   1
M  END
>  <UniqueID>  (19) 
19

>  <SMILES>  (19) 
CCNCCCOCCOCCNc1c2c([n+](C)c3ccccc13)-c1[nH+]cccc1C2=O

>  <Energy>  (19) 
118.57192399192633

>  <Genealogy>  (19) 
CCNCCCOCCOCCNc1c2c([n+](C)c3ccccc13)-c1[nH+]cccc1C2=O (protonated)
CCNCCCOCCOCCNc1c2c([n+](C)c3ccccc13)-c1[nH+]cccc1C2=O (3D coordinates assigned)
CCNCCCOCCOCCNc1c2c([n+](C)c3ccccc13)-c1[nH+]cccc1C2=O (nonaromatic ring conformer: 118.57192399192633 kcal/mol)

>  <smiles>  (19) 
CCNCCCOCCOCCNc1c2c([n+](C)c3ccccc13)-c1ncccc1C2=O

>  <score_type>  (19) 
oracle

>  <origin>  (19) 
adg

>  <m_score__min__energy>  (19) 
-9.0600000000000005

>  <m_primary>  (19) 
energy

$$$$
19:0
     RDKit          3D

 46 48  0  0  0  0  0  0  0  0999 V2000
   -6.5780   24.9340  -29.9850 C   0  0  0  0  0  0  0  0  0  0  0  0
   -5.3790   25.4900  -30.7510 C   0  0  0  0  0  0  0  0  0  0  0  0
   -4.1630   24.7000  -30.4920 N   0  0  0  0  0  0  0  0  0  0  0  0
   -4.4110   23.2470  -30.5230 C   0  0  0  0  0  0  0  0  0  0  0  0
   -3.5500   22.6030  -31.6120 C   0  0  0  0  0  0  0  0  0  0  0  0
   -4.3530   22.2340  -32.7810 N   0  0  0  0  0  0  0  0  0  0  0  0
   -4.9650   20.9370  -32.9120 C   0  0  0  0  0  0  0  0  0  0  0  0
   -6.3240   20.7760  -32.5880 C   0  0  0  0  0  0  0  0  0  0  0  0
   -6.9030   19.4840  -32.6400 C   0  0  0  0  0  0  0  0  0  0  0  0
   -6.1750   18.4130  -33.1190 N   0  0  0  0  0  0  0  0  0  0  0  0
   -6.8640   17.1520  -33.4680 C   0  0  0  0  0  0  0  0  0  0  0  0
   -4.8180   18.5400  -33.3430 C   0  0  0  0  0  0  0  0  0  0  0  0
   -4.0020   17.4150  -33.6230 C   0  0  0  0  0  0  0  0  0  0  0  0
   -2.6520   17.5660  -33.9380 C   0  0  0  0  0  0  0  0  0  0  0  0
   -2.0840   18.8340  -33.9930 C   0  0  0  0  0  0  0  0  0  0  0  0
   -0.2460   19.0380  -34.4730 Br  0  0  0  0  0  0  0  0  0  0  0  0
   -2.8520   19.9540  -33.6850 C   0  0  0  0  0  0  0  0  0  0  0  0
   -4.2040   19.8190  -33.3000 C   0  0  0  0  0  0  0  0  0  0  0  0
   -8.2830   19.3230  -32.0890 C   0  0  0  0  0  0  0  0  0  0  0  0
   -8.6760   18.2170  -31.6330 O   0  0  0  0  0  0  0  0  0  0  0  0
   -9.1800   20.5130  -31.9680 C   0  0  0  0  0  0  0  0  0  0  0  0
   -8.3850   21.6790  -31.3960 C   0  0  0  0  0  0  0  0  0  0  0  0
   -7.1820   21.9980  -32.2880 C   0  0  0  0  0  0  0  0  0  0  0  0
   -6.3940   25.0193  -28.9039 H   0  0  0  0  0  0  0  0  0  0  0  0
   -7.4795   25.5060  -30.2498 H   0  0  0  0  0  0  0  0  0  0  0  0
   -6.7239   23.8764  -30.2498 H   0  0  0  0  0  0  0  0  0  0  0  0
   -5.5995   25.4648  -31.8284 H   0  0  0  0  0  0  0  0  0  0  0  0
   -5.2003   26.5215  -30.4134 H   0  0  0  0  0  0  0  0  0  0  0  0
   -3.4780   24.9300  -31.2490 H   0  0  0  0  0  0  0  0  0  0  0  0
   -4.1534   22.8106  -29.5467 H   0  0  0  0  0  0  0  0  0  0  0  0
   -5.4734   23.0620  -30.7399 H   0  0  0  0  0  0  0  0  0  0  0  0
   -2.7730   23.3170  -31.9226 H   0  0  0  0  0  0  0  0  0  0  0  0
   -3.0982   21.6886  -31.2001 H   0  0  0  0  0  0  0  0  0  0  0  0
   -4.6130   22.9800  -33.4640 H   0  0  0  0  0  0  0  0  0  0  0  0
   -7.1522   16.6245  -32.5467 H   0  0  0  0  0  0  0  0  0  0  0  0
   -7.7643   17.3774  -34.0584 H   0  0  0  0  0  0  0  0  0  0  0  0
   -6.1880   16.5161  -34.0584 H   0  0  0  0  0  0  0  0  0  0  0  0
   -4.4408   16.4068  -33.5913 H   0  0  0  0  0  0  0  0  0  0  0  0
   -2.0345   16.6792  -34.1436 H   0  0  0  0  0  0  0  0  0  0  0  0
   -2.4004   20.9554  -33.7422 H   0  0  0  0  0  0  0  0  0  0  0  0
   -9.5688   20.7838  -32.9607 H   0  0  0  0  0  0  0  0  0  0  0  0
  -10.0226   20.2762  -31.3017 H   0  0  0  0  0  0  0  0  0  0  0  0
   -9.0348   22.5644  -31.3346 H   0  0  0  0  0  0  0  0  0  0  0  0
   -8.0220   21.4043  -30.3946 H   0  0  0  0  0  0  0  0  0  0  0  0
   -7.5502   22.4101  -33.2391 H   0  0  0  0  0  0  0  0  0  0  0  0
   -6.5516   22.7180  -31.7457 H   0  0  0  0  0  0  0  0  0  0  0  0
  1  2  1  0
  2  3  1  0
  3  4  1  0
  4  5  1  0
  5  6  1  0
  6  7  1  0
  7  8  2  0
  8  9  1  0
  9 10  2  0
 10 11  1  0
 10 12  1  0
 12 13  2  0
 13 14  1  0
 14 15  2  0
 15 16  1  0
 15 17  1  0
 17 18  2  0
  9 19  1  0
 19 20  2  0
 19 21  1  0
 21 22  1  0
 22 23  1  0
 18  7  1  0
 23  8  1  0
 18 12  1  0
  1 24  1  0
  1 25  1  0
  1 26  1  0
  2 27  1  0
  2 28  1  0
  3 29  1  0
  4 30  1  0
  4 31  1  0
  5 32  1  0
  5 33  1  0
  6 34  1  0
 11 35  1  0
 11 36  1  0
 11 37  1  0
 13 38  1  0
 14 39  1  0
 17 40  1  0
 21 41  1  0
 21 42  1  0
 22 43  1  0
 22 44  1  0
 23 45  1  0
 23 46  1  0
M  CHG  1  10   1
M  END
>  <UniqueID>  (20) 
20

>  <SMILES>  (20) 
CCNCCNc1c2c([n+](C)c3ccc(Br)cc13)C(=O)CCC2

>  <Energy>  (20) 
67.33691857829595

>  <Genealogy>  (20) 
CCNCCNc1c2c([n+](C)c3ccc(Br)cc13)C(=O)CCC2 (3D coordinates assigned)
CCNCCNc1c2c([n+](C)c3ccc(Br)cc13)C(=O)CCC2 (nonaromatic ring conformer: 67.33691857829595 kcal/mol)

>  <smiles>  (20) 
CCNCCNc1c2c([n+](C)c3ccc(Br)cc13)C(=O)CCC2

>  <score_type>  (20) 
oracle

>  <origin>  (20) 
adg

>  <m_score__min__energy>  (20) 
-9.5700000000000003

>  <m_primary>  (20) 
energy

$$$$
20:0
     RDKit          3D

 49 51  0  0  0  0  0  0  0  0999 V2000
   -2.7640   20.4250  -27.5910 C   0  0  0  0  0  0  0  0  0  0  0  0
   -2.7730   21.9150  -27.9300 C   0  0  0  0  0  0  0  0  0  0  0  0
   -1.4080   22.4810  -27.9770 N   0  0  0  0  0  0  0  0  0  0  0  0
   -0.8090   22.5040  -26.6320 C   0  0  0  0  0  0  0  0  0  0  0  0
   -1.3000   23.7960  -28.6560 C   0  0  0  0  0  0  0  0  0  0  0  0
   -2.4370   24.7790  -28.3350 C   0  0  0  0  0  0  0  0  0  0  0  0
   -3.0040   25.2500  -29.5550 O   0  0  0  0  0  0  0  0  0  0  0  0
   -3.9410   24.5420  -30.3210 C   0  0  0  0  0  0  0  0  0  0  0  0
   -3.6770   23.2570  -30.8380 C   0  0  0  0  0  0  0  0  0  0  0  0
   -4.6520   22.5890  -31.5920 C   0  0  0  0  0  0  0  0  0  0  0  0
   -5.8830   23.1970  -31.8420 C   0  0  0  0  0  0  0  0  0  0  0  0
   -6.1480   24.4780  -31.3430 C   0  0  0  0  0  0  0  0  0  0  0  0
   -5.1830   25.1420  -30.5800 C   0  0  0  0  0  0  0  0  0  0  0  0
   -5.4500   26.3810  -30.0950 F   0  0  0  0  0  0  0  0  0  0  0  0
   -6.8660   22.4580  -32.7120 C   0  0  0  0  0  0  0  0  0  0  0  0
   -6.9560   21.0170  -32.3520 N   0  0  2  0  0  0  0  0  0  0  0  0
   -7.9490   20.8310  -31.3080 C   0  0  0  0  0  0  0  0  0  0  0  0
   -8.0750   21.6670  -30.4230 O   0  0  0  0  0  0  0  0  0  0  0  0
   -8.8720   19.6410  -31.3240 C   0  0  0  0  0  0  0  0  0  0  0  0
   -8.3380   18.4410  -32.0940 C   0  0  0  0  0  0  0  0  0  0  0  0
   -9.4490   19.2880  -32.6870 C   0  0  0  0  0  0  0  0  0  0  0  0
   -5.6660   20.3570  -31.9680 C   0  0  0  0  0  0  0  0  0  0  0  0
   -4.4160   21.2300  -32.1770 C   0  0  0  0  0  0  0  0  0  0  0  0
   -2.7632   20.2975  -26.4984 H   0  0  0  0  0  0  0  0  0  0  0  0
   -3.6593   19.9470  -28.0153 H   0  0  0  0  0  0  0  0  0  0  0  0
   -1.8630   19.9579  -28.0153 H   0  0  0  0  0  0  0  0  0  0  0  0
   -3.2485   22.0528  -28.9123 H   0  0  0  0  0  0  0  0  0  0  0  0
   -3.3311   22.4395  -27.1404 H   0  0  0  0  0  0  0  0  0  0  0  0
   -1.6064   22.4734  -25.8749 H   0  0  0  0  0  0  0  0  0  0  0  0
   -0.1521   21.6304  -26.5082 H   0  0  0  0  0  0  0  0  0  0  0  0
   -0.2210   23.4254  -26.5082 H   0  0  0  0  0  0  0  0  0  0  0  0
   -0.3497   24.2606  -28.3541 H   0  0  0  0  0  0  0  0  0  0  0  0
   -1.3589   23.5943  -29.7357 H   0  0  0  0  0  0  0  0  0  0  0  0
   -3.2100   24.2675  -27.7427 H   0  0  0  0  0  0  0  0  0  0  0  0
   -2.0415   25.6278  -27.7579 H   0  0  0  0  0  0  0  0  0  0  0  0
   -2.7048   22.7781  -30.6495 H   0  0  0  0  0  0  0  0  0  0  0  0
   -7.1140   24.9612  -31.5510 H   0  0  0  0  0  0  0  0  0  0  0  0
   -7.8591   22.9162  -32.5940 H   0  0  0  0  0  0  0  0  0  0  0  0
   -6.5170   22.5269  -33.7529 H   0  0  0  0  0  0  0  0  0  0  0  0
   -7.3070   20.5290  -33.2110 H   0  0  0  0  0  0  0  0  0  0  0  0
   -9.2932   19.8068  -30.3215 H   0  0  0  0  0  0  0  0  0  0  0  0
   -7.3292   18.4729  -32.5313 H   0  0  0  0  0  0  0  0  0  0  0  0
   -8.2091   17.3709  -31.8742 H   0  0  0  0  0  0  0  0  0  0  0  0
   -9.2450   19.9334  -33.5541 H   0  0  0  0  0  0  0  0  0  0  0  0
  -10.4582   19.0852  -33.0748 H   0  0  0  0  0  0  0  0  0  0  0  0
   -5.7221   20.0864  -30.9033 H   0  0  0  0  0  0  0  0  0  0  0  0
   -5.5523   19.4844  -32.6280 H   0  0  0  0  0  0  0  0  0  0  0  0
   -3.5541   20.7613  -31.6794 H   0  0  0  0  0  0  0  0  0  0  0  0
   -4.2111   21.3249  -33.2536 H   0  0  0  0  0  0  0  0  0  0  0  0
  1  2  1  0
  2  3  1  0
  3  4  1  0
  3  5  1  0
  5  6  1  0
  6  7  1  0
  7  8  1  0
  8  9  2  0
  9 10  1  0
 10 11  2  0
 11 12  1  0
 12 13  2  0
 13 14  1  0
 11 15  1  0
 15 16  1  0
 16 17  1  0
 17 18  2  0
 17 19  1  0
 19 20  1  0
 20 21  1  0
 16 22  1  0
 22 23  1  0
 13  8  1  0
 21 19  1  0
 23 10  1  0
  1 24  1  0
  1 25  1  0
  1 26  1  0
  2 27  1  0
  2 28  1  0
  4 29  1  0
  4 30  1  0
  4 31  1  0
  5 32  1  0
  5 33  1  0
  6 34  1  0
  6 35  1  0
  9 36  1  0
 12 37  1  0
 15 38  1  0
 15 39  1  0
 16 40  1  6
 19 41  1  0
 20 42  1  0
 20 43  1  0
 21 44  1  0
 21 45  1  0
 22 46  1  0
 22 47  1  0
 23 48  1  0
 23 49  1  0
M  CHG  1  16   1
M  END
>  <UniqueID>  (21) 
21

>  <SMILES>  (21) 
CCN(C)CCOc1cc2c(cc1F)C[N@H+](C(=O)C1CC1)CC2

>  <Energy>  (21) 
323.72138288338374

>  <Genealogy>  (21) 
CCN(C)CCOc1cc2c(cc1F)C[NH+](C(=O)C1CC1)CC2 (protonated)
CCN(C)CCOc1cc2c(cc1F)C[N@H+](C(=O)C1CC1)CC2 (chirality)
CCN(C)CCOc1cc2c(cc1F)C[N@H+](C(=O)C1CC1)CC2 (3D coordinates assigned)
CCN(C)CCOc1cc2c(cc1F)C[N@H+](C(=O)C1CC1)CC2 (nonaromatic ring conformer: 323.72138288338374 kcal/mol)

>  <smiles>  (21) 
CCN(C)CCOc1cc2c(cc1F)CN(C(=O)C1CC1)CC2

>  <score_type>  (21) 
oracle

>  <origin>  (21) 
adg

>  <m_score__min__energy>  (21) 
-6.9299999999999997

>  <m_primary>  (21) 
energy

$$$$
