0:0
     RDKit          3D

 39 41  0  0  0  0  0  0  0  0999 V2000
   -0.8630   26.7970  -27.8620 C   0  0  0  0  0  0  0  0  0  0  0  0
   -1.4970   26.0370  -28.8870 O   0  0  0  0  0  0  0  0  0  0  0  0
   -1.7480   24.6580  -28.8210 C   0  0  0  0  0  0  0  0  0  0  0  0
   -1.0150   23.8120  -27.9630 C   0  0  0  0  0  0  0  0  0  0  0  0
   -1.3280   22.4530  -27.8720 C   0  0  0  0  0  0  0  0  0  0  0  0
   -2.3770   21.9240  -28.6250 C   0  0  0  0  0  0  0  0  0  0  0  0
   -3.1070   22.7500  -29.4840 C   0  0  0  0  0  0  0  0  0  0  0  0
   -2.7830   24.1060  -29.6110 C   0  0  0  0  0  0  0  0  0  0  0  0
   -3.5670   24.9150  -30.4980 N   0  0  0  0  0  0  0  0  0  0  0  0
   -4.9980   24.9520  -30.5290 C   0  0  0  0  0  0  0  0  0  0  0  0
   -5.6040   26.0130  -30.8420 O   0  0  0  0  0  0  0  0  0  0  0  0
   -5.7810   23.7220  -30.1930 C   0  0  0  0  0  0  0  0  0  0  0  0
   -5.8550   22.8350  -31.3630 N   0  0  0  0  0  0  0  0  0  0  0  0
   -4.7230   22.8130  -32.3030 C   0  0  0  0  0  0  0  0  0  0  0  0
   -4.4720   21.4200  -32.7980 C   0  0  0  0  0  0  0  0  0  0  0  0
   -3.3200   21.0830  -33.1810 O   0  0  0  0  0  0  0  0  0  0  0  0
   -5.5600   20.5000  -32.9110 N   0  0  0  0  0  0  0  0  0  0  0  0
   -6.8570   20.8490  -32.4120 C   0  0  0  0  0  0  0  0  0  0  0  0
   -7.9590   20.0200  -32.6740 C   0  0  0  0  0  0  0  0  0  0  0  0
   -9.2230   20.3620  -32.1910 C   0  0  0  0  0  0  0  0  0  0  0  0
   -9.3960   21.5300  -31.4450 C   0  0  0  0  0  0  0  0  0  0  0  0
   -8.3020   22.3550  -31.1690 C   0  0  0  0  0  0  0  0  0  0  0  0
   -7.0180   22.0190  -31.6430 C   0  0  0  0  0  0  0  0  0  0  0  0
   -1.1778   26.4197  -26.8778 H   0  0  0  0  0  0  0  0  0  0  0  0
    0.2288   26.7037  -27.9584 H   0  0  0  0  0  0  0  0  0  0  0  0
   -1.1506   27.8544  -27.9584 H   0  0  0  0  0  0  0  0  0  0  0  0
   -0.1916   24.2245  -27.3615 H   0  0  0  0  0  0  0  0  0  0  0  0
   -0.7464   21.7991  -27.2056 H   0  0  0  0  0  0  0  0  0  0  0  0
   -2.6294   20.8565  -28.5424 H   0  0  0  0  0  0  0  0  0  0  0  0
   -3.9423   22.3316  -30.0646 H   0  0  0  0  0  0  0  0  0  0  0  0
   -5.2879   23.1917  -29.3650 H   0  0  0  0  0  0  0  0  0  0  0  0
   -6.7996   24.0133  -29.8970 H   0  0  0  0  0  0  0  0  0  0  0  0
   -4.9519   23.4647  -33.1591 H   0  0  0  0  0  0  0  0  0  0  0  0
   -3.8230   23.1704  -31.7811 H   0  0  0  0  0  0  0  0  0  0  0  0
   -5.4040   19.5750  -33.3720 H   0  0  0  0  0  0  0  0  0  0  0  0
   -7.8262   19.0992  -33.2610 H   0  0  0  0  0  0  0  0  0  0  0  0
  -10.0846   19.7104  -32.3983 H   0  0  0  0  0  0  0  0  0  0  0  0
  -10.3954   21.8012  -31.0739 H   0  0  0  0  0  0  0  0  0  0  0  0
   -8.4441   23.2720  -30.5783 H   0  0  0  0  0  0  0  0  0  0  0  0
  1  2  1  0
  2  3  1  0
  3  4  2  0
  4  5  1  0
  5  6  2  0
  6  7  1  0
  7  8  2  0
  8  9  1  0
  9 10  1  0
 10 11  2  0
 10 12  1  0
 12 13  1  0
 13 14  1  0
 14 15  1  0
 15 16  2  0
 15 17  1  0
 17 18  1  0
 18 19  2  0
 19 20  1  0
 20 21  2  0
 21 22  1  0
 22 23  2  0
  8  3  1  0
 23 13  1  0
 23 18  1  0
  1 24  1  0
  1 25  1  0
  1 26  1  0
  4 27  1  0
  5 28  1  0
  6 29  1  0
  7 30  1  0
 12 31  1  0
 12 32  1  0
 14 33  1  0
 14 34  1  0
 17 35  1  0
 19 36  1  0
 20 37  1  0
 21 38  1  0
 22 39  1  0
M  CHG  1   9  -1
M  END
>  <UniqueID>  (1) 
1

>  <SMILES>  (1) 
COc1ccccc1[N-]C(=O)CN1CC(=O)Nc2ccccc21

>  <Energy>  (1) 
46.606784455473964

>  <Genealogy>  (1) 
COc1ccccc1[N-]C(=O)CN1CC(=O)Nc2ccccc21 (protonated)
COc1ccccc1[N-]C(=O)CN1CC(=O)Nc2ccccc21 (3D coordinates assigned)
COc1ccccc1[N-]C(=O)CN1CC(=O)Nc2ccccc21 (nonaromatic ring conformer: 46.606784455473964 kcal/mol)

>  <smiles>  (1) 
COc1ccccc1NC(=O)CN1CC(=O)Nc2ccccc21

>  <score_type>  (1) 
oracle

>  <origin>  (1) 
adg

>  <m_score__min__energy>  (1) 
-10.300000000000001

>  <m_primary>  (1) 
energy

$$$$
1:0
     RDKit          3D

 43 43  0  0  0  0  0  0  0  0999 V2000
   -9.8240   21.1220  -31.9670 C   0  0  0  0  0  0  0  0  0  0  0  0
   -8.3890   20.7900  -31.5700 C   0  0  0  0  0  0  0  0  0  0  0  0
   -7.6080   22.0460  -31.2960 C   0  0  0  0  0  0  0  0  0  0  0  0
   -6.8900   22.6720  -32.3270 C   0  0  0  0  0  0  0  0  0  0  0  0
   -6.1400   23.8240  -32.0670 C   0  0  0  0  0  0  0  0  0  0  0  0
   -6.0800   24.3510  -30.7680 C   0  0  0  0  0  0  0  0  0  0  0  0
   -5.3130   25.6140  -30.4980 C   0  0  0  0  0  0  0  0  0  0  0  0
   -3.8860   25.3000  -30.3590 N   0  0  0  0  0  0  0  0  0  0  0  0
   -3.6370   24.3460  -29.2660 C   0  0  0  0  0  0  0  0  0  0  0  0
   -3.5050   22.9300  -29.8260 C   0  0  0  0  0  0  0  0  0  0  0  0
   -3.2930   22.9710  -31.2790 N   0  0  0  0  0  0  0  0  0  0  0  0
   -2.5270   21.8070  -31.7570 C   0  0  0  0  0  0  0  0  0  0  0  0
   -3.0970   21.3160  -33.1010 C   0  0  0  0  0  0  0  0  0  0  0  0
   -4.4080   20.5420  -32.9080 C   0  0  0  0  0  0  0  0  0  0  0  0
   -2.0700   20.4390  -33.8290 C   0  0  0  0  0  0  0  0  0  0  0  0
   -6.7960   23.7230  -29.7370 C   0  0  0  0  0  0  0  0  0  0  0  0
   -7.5470   22.5740  -29.9970 C   0  0  0  0  0  0  0  0  0  0  0  0
  -10.4319   21.2626  -31.0611 H   0  0  0  0  0  0  0  0  0  0  0  0
   -9.8350   22.0464  -32.5631 H   0  0  0  0  0  0  0  0  0  0  0  0
  -10.2399   20.2964  -32.5631 H   0  0  0  0  0  0  0  0  0  0  0  0
   -8.4003   20.1670  -30.6635 H   0  0  0  0  0  0  0  0  0  0  0  0
   -7.9091   20.2495  -32.3992 H   0  0  0  0  0  0  0  0  0  0  0  0
   -6.9172   22.2547  -33.3444 H   0  0  0  0  0  0  0  0  0  0  0  0
   -5.5950   24.3187  -32.8844 H   0  0  0  0  0  0  0  0  0  0  0  0
   -5.4544   26.3146  -31.3341 H   0  0  0  0  0  0  0  0  0  0  0  0
   -5.6794   26.0736  -29.5682 H   0  0  0  0  0  0  0  0  0  0  0  0
   -3.5680   24.8640  -31.2580 H   0  0  0  0  0  0  0  0  0  0  0  0
   -2.7063   24.6208  -28.7480 H   0  0  0  0  0  0  0  0  0  0  0  0
   -4.4806   24.3775  -28.5608 H   0  0  0  0  0  0  0  0  0  0  0  0
   -2.6492   22.4300  -29.3489 H   0  0  0  0  0  0  0  0  0  0  0  0
   -4.4318   22.3759  -29.6164 H   0  0  0  0  0  0  0  0  0  0  0  0
   -2.7550   23.8430  -31.5000 H   0  0  0  0  0  0  0  0  0  0  0  0
   -1.4738   22.0945  -31.8914 H   0  0  0  0  0  0  0  0  0  0  0  0
   -2.6015   20.9973  -31.0162 H   0  0  0  0  0  0  0  0  0  0  0  0
   -3.3139   22.2029  -33.7146 H   0  0  0  0  0  0  0  0  0  0  0  0
   -4.6089   20.4234  -31.8330 H   0  0  0  0  0  0  0  0  0  0  0  0
   -5.2340   21.0973  -33.3763 H   0  0  0  0  0  0  0  0  0  0  0  0
   -4.3208   19.5505  -33.3763 H   0  0  0  0  0  0  0  0  0  0  0  0
   -1.4503   19.9098  -33.0901 H   0  0  0  0  0  0  0  0  0  0  0  0
   -2.5949   19.7062  -34.4594 H   0  0  0  0  0  0  0  0  0  0  0  0
   -1.4284   21.0722  -34.4594 H   0  0  0  0  0  0  0  0  0  0  0  0
   -6.7657   24.1378  -28.7187 H   0  0  0  0  0  0  0  0  0  0  0  0
   -8.0932   22.0807  -29.1795 H   0  0  0  0  0  0  0  0  0  0  0  0
  1  2  1  0
  2  3  1  0
  3  4  2  0
  4  5  1  0
  5  6  2  0
  6  7  1  0
  7  8  1  0
  8  9  1  0
  9 10  1  0
 10 11  1  0
 11 12  1  0
 12 13  1  0
 13 14  1  0
 13 15  1  0
  6 16  1  0
 16 17  2  0
 17  3  1  0
  1 18  1  0
  1 19  1  0
  1 20  1  0
  2 21  1  0
  2 22  1  0
  4 23  1  0
  5 24  1  0
  7 25  1  0
  7 26  1  0
  8 27  1  0
  9 28  1  0
  9 29  1  0
 10 30  1  0
 10 31  1  0
 11 32  1  0
 12 33  1  0
 12 34  1  0
 13 35  1  0
 14 36  1  0
 14 37  1  0
 14 38  1  0
 15 39  1  0
 15 40  1  0
 15 41  1  0
 16 42  1  0
 17 43  1  0
M  END
>  <UniqueID>  (2) 
2

>  <SMILES>  (2) 
CCc1ccc(CNCCNCC(C)C)cc1

>  <Energy>  (2) 
27.707677601069403

>  <Genealogy>  (2) 
CCc1ccc(CNCCNCC(C)C)cc1 (3D coordinates assigned)
CCc1ccc(CNCCNCC(C)C)cc1 (optimized conformer: 27.707677601069403 kcal/mol)

>  <smiles>  (2) 
CCc1ccc(CNCCNCC(C)C)cc1

>  <score_type>  (2) 
oracle

>  <origin>  (2) 
adg

>  <m_score__min__energy>  (2) 
-7.4500000000000002

>  <m_primary>  (2) 
energy

$$$$
2:0
     RDKit          3D

 40 42  0  0  0  0  0  0  0  0999 V2000
   -6.2690   15.2840  -34.2110 C   0  0  0  0  0  0  0  0  0  0  0  0
   -5.3790   16.3540  -34.5130 O   0  0  0  0  0  0  0  0  0  0  0  0
   -5.4850   17.6470  -33.9800 C   0  0  0  0  0  0  0  0  0  0  0  0
   -4.4210   18.5640  -34.0110 C   0  0  0  0  0  0  0  0  0  0  0  0
   -4.5720   19.8390  -33.4620 C   0  0  0  0  0  0  0  0  0  0  0  0
   -5.7870   20.2230  -32.8600 C   0  0  0  0  0  0  0  0  0  0  0  0
   -6.8690   19.3180  -32.8630 C   0  0  0  0  0  0  0  0  0  0  0  0
   -6.7020   18.0320  -33.4100 C   0  0  0  0  0  0  0  0  0  0  0  0
   -8.1370   19.7390  -32.3140 N   0  0  0  0  0  0  0  0  0  0  0  0
   -9.0990   18.7640  -31.7900 C   0  0  0  0  0  0  0  0  0  0  0  0
   -8.4710   21.1680  -32.3320 C   0  0  0  0  0  0  0  0  0  0  0  0
   -7.2830   22.0040  -31.9350 C   0  0  0  0  0  0  0  0  0  0  0  0
   -7.4870   23.2620  -31.3510 C   0  0  0  0  0  0  0  0  0  0  0  0
   -6.3970   24.0750  -30.9980 C   0  0  0  0  0  0  0  0  0  0  0  0
   -6.5680   25.3370  -30.4050 O   0  0  0  0  0  0  0  0  0  0  0  0
   -6.1460   25.6750  -29.0880 C   0  0  0  0  0  0  0  0  0  0  0  0
   -5.0920   23.6240  -31.2340 C   0  0  0  0  0  0  0  0  0  0  0  0
   -4.0240   24.4530  -30.8510 O   0  0  0  0  0  0  0  0  0  0  0  0
   -3.1440   24.1910  -29.7630 C   0  0  0  0  0  0  0  0  0  0  0  0
   -4.8850   22.3690  -31.8370 C   0  0  0  0  0  0  0  0  0  0  0  0
   -5.9740   21.5600  -32.2200 C   0  0  0  0  0  0  0  0  0  0  0  0
   -6.3575   15.1776  -33.1197 H   0  0  0  0  0  0  0  0  0  0  0  0
   -7.2590   15.4983  -34.6400 H   0  0  0  0  0  0  0  0  0  0  0  0
   -5.8780   14.3496  -34.6400 H   0  0  0  0  0  0  0  0  0  0  0  0
   -3.4638   18.2760  -34.4702 H   0  0  0  0  0  0  0  0  0  0  0  0
   -3.7342   20.5508  -33.4998 H   0  0  0  0  0  0  0  0  0  0  0  0
   -7.5404   17.3203  -33.3887 H   0  0  0  0  0  0  0  0  0  0  0  0
   -9.0793   18.7840  -30.6904 H   0  0  0  0  0  0  0  0  0  0  0  0
  -10.1090   19.0191  -32.1433 H   0  0  0  0  0  0  0  0  0  0  0  0
   -8.8303   17.7575  -32.1433 H   0  0  0  0  0  0  0  0  0  0  0  0
   -8.7872   21.4509  -33.3469 H   0  0  0  0  0  0  0  0  0  0  0  0
   -9.2828   21.3477  -31.6118 H   0  0  0  0  0  0  0  0  0  0  0  0
   -8.5119   23.6165  -31.1671 H   0  0  0  0  0  0  0  0  0  0  0  0
   -6.7861   25.1623  -28.3549 H   0  0  0  0  0  0  0  0  0  0  0  0
   -5.1014   25.3609  -28.9457 H   0  0  0  0  0  0  0  0  0  0  0  0
   -6.2244   26.7629  -28.9457 H   0  0  0  0  0  0  0  0  0  0  0  0
   -3.6770   24.3497  -28.8139 H   0  0  0  0  0  0  0  0  0  0  0  0
   -2.7938   23.1496  -29.8172 H   0  0  0  0  0  0  0  0  0  0  0  0
   -2.2813   24.8712  -29.8172 H   0  0  0  0  0  0  0  0  0  0  0  0
   -3.8585   22.0144  -32.0119 H   0  0  0  0  0  0  0  0  0  0  0  0
  1  2  1  0
  2  3  1  0
  3  4  2  0
  4  5  1  0
  5  6  2  0
  6  7  1  0
  7  8  2  0
  7  9  1  0
  9 10  1  0
  9 11  1  0
 11 12  1  0
 12 13  2  0
 13 14  1  0
 14 15  1  0
 15 16  1  0
 14 17  2  0
 17 18  1  0
 18 19  1  0
 17 20  1  0
 20 21  2  0
  8  3  1  0
 21 12  1  0
 21  6  1  0
  1 22  1  0
  1 23  1  0
  1 24  1  0
  4 25  1  0
  5 26  1  0
  8 27  1  0
 10 28  1  0
 10 29  1  0
 10 30  1  0
 11 31  1  0
 11 32  1  0
 13 33  1  0
 16 34  1  0
 16 35  1  0
 16 36  1  0
 19 37  1  0
 19 38  1  0
 19 39  1  0
 20 40  1  0
M  END
>  <UniqueID>  (3) 
3

>  <SMILES>  (3) 
COc1ccc2c(c1)N(C)Cc1cc(OC)c(OC)cc1-2

>  <Energy>  (3) 
48.26963433726965

>  <Genealogy>  (3) 
COc1ccc2c(c1)N(C)Cc1cc(OC)c(OC)cc1-2 (3D coordinates assigned)
COc1ccc2c(c1)N(C)Cc1cc(OC)c(OC)cc1-2 (nonaromatic ring conformer: 48.26963433726965 kcal/mol)

>  <smiles>  (3) 
COc1ccc2c(c1)N(C)Cc1cc(OC)c(OC)cc1-2

>  <score_type>  (3) 
oracle

>  <origin>  (3) 
adg

>  <m_score__min__energy>  (3) 
-7.5499999999999998

>  <m_primary>  (3) 
energy

$$$$
3:0
     RDKit          3D

 37 39  0  0  0  0  0  0  0  0999 V2000
   -5.9810   21.3070  -32.3200 C   0  0  0  0  0  0  0  0  0  0  0  0
   -7.3780   20.7860  -32.1830 C   0  0  0  0  0  0  0  0  0  0  0  0
   -8.4440   21.6040  -32.0490 N   0  0  0  0  0  0  0  0  0  0  0  0
   -9.5000   20.7690  -31.9920 C   0  0  0  0  0  0  0  0  0  0  0  0
   -9.0670   19.4670  -32.0920 C   0  0  0  0  0  0  0  0  0  0  0  0
   -7.7260   19.4770  -32.1980 N   0  0  0  0  0  0  0  0  0  0  0  0
   -6.8820   18.3190  -32.3240 C   0  0  0  0  0  0  0  0  0  0  0  0
   -6.4240   17.9100  -33.5820 C   0  0  0  0  0  0  0  0  0  0  0  0
   -5.6150   16.7810  -33.7010 C   0  0  0  0  0  0  0  0  0  0  0  0
   -5.2760   16.0460  -32.5550 C   0  0  0  0  0  0  0  0  0  0  0  0
   -4.4390   14.8790  -32.6590 N   0  0  0  0  0  0  0  0  0  0  0  0
   -3.0300   15.0200  -33.0610 C   0  0  0  0  0  0  0  0  0  0  0  0
   -2.2240   13.7500  -32.7480 C   0  0  0  0  0  0  0  0  0  0  0  0
   -2.5960   13.2100  -31.3620 C   0  0  0  0  0  0  0  0  0  0  0  0
   -4.1030   12.8940  -31.2290 C   0  0  0  0  0  0  0  0  0  0  0  0
   -4.9620   13.5480  -32.3220 C   0  0  0  0  0  0  0  0  0  0  0  0
   -5.7390   16.4550  -31.3370 N   0  0  0  0  0  0  0  0  0  0  0  0
   -6.5290   17.5560  -31.2020 C   0  0  0  0  0  0  0  0  0  0  0  0
   -5.5500   21.4677  -31.3208 H   0  0  0  0  0  0  0  0  0  0  0  0
   -5.3695   20.5765  -32.8699 H   0  0  0  0  0  0  0  0  0  0  0  0
   -5.9972   22.2595  -32.8699 H   0  0  0  0  0  0  0  0  0  0  0  0
  -10.5491   21.0810  -31.8822 H   0  0  0  0  0  0  0  0  0  0  0  0
   -9.7069   18.5723  -32.0863 H   0  0  0  0  0  0  0  0  0  0  0  0
   -6.7034   18.4813  -34.4795 H   0  0  0  0  0  0  0  0  0  0  0  0
   -5.2443   16.4680  -34.6882 H   0  0  0  0  0  0  0  0  0  0  0  0
   -2.9849   15.2141  -34.1428 H   0  0  0  0  0  0  0  0  0  0  0  0
   -2.5918   15.8546  -32.4941 H   0  0  0  0  0  0  0  0  0  0  0  0
   -2.4444   12.9845  -33.5066 H   0  0  0  0  0  0  0  0  0  0  0  0
   -1.1518   13.9954  -32.7598 H   0  0  0  0  0  0  0  0  0  0  0  0
   -2.0256   12.2874  -31.1792 H   0  0  0  0  0  0  0  0  0  0  0  0
   -2.3543   13.9907  -30.6257 H   0  0  0  0  0  0  0  0  0  0  0  0
   -4.2370   11.8037  -31.2859 H   0  0  0  0  0  0  0  0  0  0  0  0
   -4.4370   13.3041  -30.2645 H   0  0  0  0  0  0  0  0  0  0  0  0
   -4.9474   12.9148  -33.2214 H   0  0  0  0  0  0  0  0  0  0  0  0
   -5.9917   13.6538  -31.9499 H   0  0  0  0  0  0  0  0  0  0  0  0
   -5.4740   15.9290  -30.4740 H   0  0  0  0  0  0  0  0  0  0  0  0
   -6.8926   17.8487  -30.2059 H   0  0  0  0  0  0  0  0  0  0  0  0
  1  2  1  0
  2  3  2  0
  3  4  1  0
  4  5  2  0
  5  6  1  0
  6  7  1  0
  7  8  2  0
  8  9  1  0
  9 10  2  0
 10 11  1  0
 11 12  1  0
 12 13  1  0
 13 14  1  0
 14 15  1  0
 15 16  1  0
 10 17  1  0
 17 18  2  0
  6  2  1  0
 18  7  1  0
 16 11  1  0
  1 19  1  0
  1 20  1  0
  1 21  1  0
  4 22  1  0
  5 23  1  0
  8 24  1  0
  9 25  1  0
 12 26  1  0
 12 27  1  0
 13 28  1  0
 13 29  1  0
 14 30  1  0
 14 31  1  0
 15 32  1  0
 15 33  1  0
 16 34  1  0
 16 35  1  0
 17 36  1  0
 18 37  1  0
M  CHG  1  17   1
M  END
>  <UniqueID>  (4) 
4

>  <SMILES>  (4) 
Cc1nccn1-c1ccc(N2CCCCC2)[nH+]c1

>  <Energy>  (4) 
76.38431543278894

>  <Genealogy>  (4) 
Cc1nccn1-c1ccc(N2CCCCC2)[nH+]c1 (protonated)
Cc1nccn1-c1ccc(N2CCCCC2)[nH+]c1 (3D coordinates assigned)
Cc1nccn1-c1ccc(N2CCCCC2)[nH+]c1 (nonaromatic ring conformer: 76.38431543278894 kcal/mol)

>  <smiles>  (4) 
Cc1nccn1-c1ccc(N2CCCCC2)nc1

>  <score_type>  (4) 
oracle

>  <origin>  (4) 
adg

>  <m_score__min__energy>  (4) 
-5.6500000000000004

>  <m_primary>  (4) 
energy

$$$$
4:0
     RDKit          3D

 52 54  0  0  0  0  0  0  0  0999 V2000
   -5.2200   25.0070  -30.0930 C   0  0  0  0  0  0  0  0  0  0  0  0
   -3.8170   25.2520  -30.1020 O   0  0  0  0  0  0  0  0  0  0  0  0
   -2.8350   24.2640  -29.9190 C   0  0  0  0  0  0  0  0  0  0  0  0
   -3.0390   22.9340  -30.3210 C   0  0  0  0  0  0  0  0  0  0  0  0
   -2.0200   21.9830  -30.1850 C   0  0  0  0  0  0  0  0  0  0  0  0
   -2.2050   20.5800  -30.7150 C   0  0  0  0  0  0  0  0  0  0  0  0
   -2.2150   20.5030  -32.1940 N   0  0  0  0  0  0  0  0  0  0  0  0
   -3.1140   21.4430  -32.8920 C   0  0  0  0  0  0  0  0  0  0  0  0
   -4.4990   20.8440  -33.2430 C   0  0  0  0  0  0  0  0  0  0  0  0
   -4.5380   19.3660  -33.1870 N   0  0  0  0  0  0  0  0  0  0  0  0
   -5.7120   18.8510  -33.9300 C   0  0  0  0  0  0  0  0  0  0  0  0
   -6.9690   18.9500  -33.1110 C   0  0  0  0  0  0  0  0  0  0  0  0
   -7.8280   20.0420  -33.0760 C   0  0  0  0  0  0  0  0  0  0  0  0
   -8.8820   19.8850  -32.1700 C   0  0  0  0  0  0  0  0  0  0  0  0
   -8.8560   18.6750  -31.4900 C   0  0  0  0  0  0  0  0  0  0  0  0
   -7.5170   17.8000  -32.0120 S   0  0  0  0  0  0  0  0  0  0  0  0
   -3.2800   18.7980  -33.7080 C   0  0  0  0  0  0  0  0  0  0  0  0
   -2.1060   19.1490  -32.7800 C   0  0  0  0  0  0  0  0  0  0  0  0
   -0.8150   22.3550  -29.5800 C   0  0  0  0  0  0  0  0  0  0  0  0
   -0.5920   23.6780  -29.1540 C   0  0  0  0  0  0  0  0  0  0  0  0
    0.6260   24.0480  -28.5640 O   0  0  0  0  0  0  0  0  0  0  0  0
    1.0680   23.6390  -27.2740 C   0  0  0  0  0  0  0  0  0  0  0  0
   -1.6160   24.6440  -29.3330 C   0  0  0  0  0  0  0  0  0  0  0  0
   -1.4880   25.9970  -28.9640 O   0  0  0  0  0  0  0  0  0  0  0  0
   -0.8600   26.4990  -27.7900 C   0  0  0  0  0  0  0  0  0  0  0  0
   -5.5747   24.9451  -29.0536 H   0  0  0  0  0  0  0  0  0  0  0  0
   -5.7389   25.8281  -30.6092 H   0  0  0  0  0  0  0  0  0  0  0  0
   -5.4299   24.0586  -30.6092 H   0  0  0  0  0  0  0  0  0  0  0  0
   -4.0086   22.6363  -30.7468 H   0  0  0  0  0  0  0  0  0  0  0  0
   -1.3816   19.9547  -30.3395 H   0  0  0  0  0  0  0  0  0  0  0  0
   -3.1878   20.2298  -30.3664 H   0  0  0  0  0  0  0  0  0  0  0  0
   -3.2694   22.3188  -32.2448 H   0  0  0  0  0  0  0  0  0  0  0  0
   -2.6278   21.7023  -33.8441 H   0  0  0  0  0  0  0  0  0  0  0  0
   -5.2388   21.2384  -32.5308 H   0  0  0  0  0  0  0  0  0  0  0  0
   -4.7211   21.1329  -34.2809 H   0  0  0  0  0  0  0  0  0  0  0  0
   -4.6490   19.0830  -32.1870 H   0  0  0  0  0  0  0  0  0  0  0  0
   -5.8382   19.4390  -34.8510 H   0  0  0  0  0  0  0  0  0  0  0  0
   -5.5348   17.7908  -34.1636 H   0  0  0  0  0  0  0  0  0  0  0  0
   -7.6926   20.9391  -33.6980 H   0  0  0  0  0  0  0  0  0  0  0  0
   -9.6581   20.6482  -32.0113 H   0  0  0  0  0  0  0  0  0  0  0  0
   -9.5869   18.3443  -30.7374 H   0  0  0  0  0  0  0  0  0  0  0  0
   -3.3760   17.7041  -33.7724 H   0  0  0  0  0  0  0  0  0  0  0  0
   -3.0845   19.2208  -34.7045 H   0  0  0  0  0  0  0  0  0  0  0  0
   -2.0749   18.4147  -31.9616 H   0  0  0  0  0  0  0  0  0  0  0  0
   -1.1893   19.1271  -33.3877 H   0  0  0  0  0  0  0  0  0  0  0  0
   -0.0278   21.6005  -29.4346 H   0  0  0  0  0  0  0  0  0  0  0  0
    0.4921   24.1719  -26.5031 H   0  0  0  0  0  0  0  0  0  0  0  0
    0.9167   22.5553  -27.1611 H   0  0  0  0  0  0  0  0  0  0  0  0
    2.1367   23.8738  -27.1611 H   0  0  0  0  0  0  0  0  0  0  0  0
   -1.3666   26.0941  -26.9015 H   0  0  0  0  0  0  0  0  0  0  0  0
    0.1968   26.1939  -27.7805 H   0  0  0  0  0  0  0  0  0  0  0  0
   -0.9248   27.5971  -27.7805 H   0  0  0  0  0  0  0  0  0  0  0  0
  1  2  1  0
  2  3  1  0
  3  4  2  0
  4  5  1  0
  5  6  1  0
  6  7  1  0
  7  8  1  0
  8  9  1  0
  9 10  1  0
 10 11  1  0
 11 12  1  0
 12 13  2  0
 13 14  1  0
 14 15  2  0
 15 16  1  0
 10 17  1  0
 17 18  1  0
  5 19  2  0
 19 20  1  0
 20 21  1  0
 21 22  1  0
 20 23  2  0
 23 24  1  0
 24 25  1  0
 23  3  1  0
 18  7  1  0
 16 12  1  0
  1 26  1  0
  1 27  1  0
  1 28  1  0
  4 29  1  0
  6 30  1  0
  6 31  1  0
  8 32  1  0
  8 33  1  0
  9 34  1  0
  9 35  1  0
 10 36  1  0
 11 37  1  0
 11 38  1  0
 13 39  1  0
 14 40  1  0
 15 41  1  0
 17 42  1  0
 17 43  1  0
 18 44  1  0
 18 45  1  0
 19 46  1  0
 22 47  1  0
 22 48  1  0
 22 49  1  0
 25 50  1  0
 25 51  1  0
 25 52  1  0
M  CHG  1  10   1
M  END
>  <UniqueID>  (5) 
5

>  <SMILES>  (5) 
COc1cc(CN2CC[NH+](Cc3cccs3)CC2)cc(OC)c1OC

>  <Energy>  (5) 
92.89884306406158

>  <Genealogy>  (5) 
COc1cc(CN2CC[NH+](Cc3cccs3)CC2)cc(OC)c1OC (protonated)
COc1cc(CN2CC[NH+](Cc3cccs3)CC2)cc(OC)c1OC (3D coordinates assigned)
COc1cc(CN2CC[NH+](Cc3cccs3)CC2)cc(OC)c1OC (nonaromatic ring conformer: 92.89884306406158 kcal/mol)

>  <smiles>  (5) 
COc1cc(CN2CCN(Cc3cccs3)CC2)cc(OC)c1OC

>  <score_type>  (5) 
oracle

>  <origin>  (5) 
adg

>  <m_score__min__energy>  (5) 
-7.9699999999999998

>  <m_primary>  (5) 
energy

$$$$
5:0
     RDKit          3D

 59 61  0  0  0  0  0  0  0  0999 V2000
   -5.7624   23.1132  -31.1077 H   0  0  0  0  0  0  0  0  0  0  0  0
   -4.8350   23.4700  -30.6360 C   0  0  0  0  0  0  0  0  0  0  0  0
   -4.6530   24.8360  -30.3990 C   0  0  0  0  0  0  0  0  0  0  0  0
   -5.7140   25.8190  -30.7860 C   0  0  0  0  0  0  0  0  0  0  0  0
   -6.1705   26.2419  -29.8789 H   0  0  0  0  0  0  0  0  0  0  0  0
   -5.2651   26.6275  -31.3817 H   0  0  0  0  0  0  0  0  0  0  0  0
   -6.4859   25.3098  -31.3817 H   0  0  0  0  0  0  0  0  0  0  0  0
   -3.4950   25.2820  -29.8490 N   0  0  0  0  0  0  0  0  0  0  0  0
   -2.4950   24.4350  -29.4910 C   0  0  0  0  0  0  0  0  0  0  0  0
   -1.3290   24.9510  -28.9220 C   0  0  0  0  0  0  0  0  0  0  0  0
   -1.2234   26.0376  -28.7873 H   0  0  0  0  0  0  0  0  0  0  0  0
   -0.2870   24.0940  -28.5190 C   0  0  0  0  0  0  0  0  0  0  0  0
    0.9060   24.5700  -27.9470 O   0  0  0  0  0  0  0  0  0  0  0  0
    1.3030   24.4320  -26.5810 C   0  0  0  0  0  0  0  0  0  0  0  0
    2.1311   25.1267  -26.3772 H   0  0  0  0  0  0  0  0  0  0  0  0
    1.6168   23.3908  -26.4155 H   0  0  0  0  0  0  0  0  0  0  0  0
    0.1470   24.7430  -25.6290 C   0  0  0  0  0  0  0  0  0  0  0  0
    0.5411   24.8848  -24.6118 H   0  0  0  0  0  0  0  0  0  0  0  0
   -0.5650   23.9046  -25.6403 H   0  0  0  0  0  0  0  0  0  0  0  0
   -0.5190   25.9240  -26.0430 O   0  0  0  0  0  0  0  0  0  0  0  0
   -1.7390   26.1080  -25.3490 C   0  0  0  0  0  0  0  0  0  0  0  0
   -1.9976   27.1772  -25.3493 H   0  0  0  0  0  0  0  0  0  0  0  0
   -1.6184   25.7464  -24.3172 H   0  0  0  0  0  0  0  0  0  0  0  0
   -2.8630   25.3190  -26.0200 C   0  0  0  0  0  0  0  0  0  0  0  0
   -3.5053   24.8681  -25.2492 H   0  0  0  0  0  0  0  0  0  0  0  0
   -3.4623   25.9956  -26.6469 H   0  0  0  0  0  0  0  0  0  0  0  0
   -2.4303   24.5254  -26.6469 H   0  0  0  0  0  0  0  0  0  0  0  0
   -0.4180   22.7110  -28.7070 C   0  0  0  0  0  0  0  0  0  0  0  0
    0.6410   21.8840  -28.2970 O   0  0  0  0  0  0  0  0  0  0  0  0
    0.4970   20.5300  -27.8780 C   0  0  0  0  0  0  0  0  0  0  0  0
    0.4922   20.4848  -26.7789 H   0  0  0  0  0  0  0  0  0  0  0  0
   -0.4493   20.1248  -28.2658 H   0  0  0  0  0  0  0  0  0  0  0  0
    1.3369   19.9349  -28.2658 H   0  0  0  0  0  0  0  0  0  0  0  0
   -1.5910   22.1880  -29.2900 C   0  0  0  0  0  0  0  0  0  0  0  0
   -1.6887   21.1021  -29.4363 H   0  0  0  0  0  0  0  0  0  0  0  0
   -2.6390   23.0420  -29.6870 C   0  0  0  0  0  0  0  0  0  0  0  0
   -3.8310   22.5490  -30.2710 C   0  0  0  0  0  0  0  0  0  0  0  0
   -3.9670   21.2600  -30.4520 N   0  0  0  0  0  0  0  0  0  0  0  0
   -3.6750   20.4530  -31.6410 C   0  0  0  0  0  0  0  0  0  0  0  0
   -2.8394   20.9120  -32.1897 H   0  0  0  0  0  0  0  0  0  0  0  0
   -3.4131   19.4355  -31.3154 H   0  0  0  0  0  0  0  0  0  0  0  0
   -4.9010   20.3670  -32.5720 C   0  0  0  0  0  0  0  0  0  0  0  0
   -4.7995   21.1354  -33.3526 H   0  0  0  0  0  0  0  0  0  0  0  0
   -4.9198   19.3486  -32.9873 H   0  0  0  0  0  0  0  0  0  0  0  0
   -6.1940   20.5760  -31.8730 N   0  0  0  0  0  0  0  0  0  0  0  0
   -6.0150   20.6930  -30.8490 H   0  0  0  0  0  0  0  0  0  0  0  0
   -6.8990   21.7740  -32.3780 C   0  0  0  0  0  0  0  0  0  0  0  0
   -6.2600   22.6576  -32.2334 H   0  0  0  0  0  0  0  0  0  0  0  0
   -7.1168   21.6338  -33.4471 H   0  0  0  0  0  0  0  0  0  0  0  0
   -8.2320   21.9800  -31.6190 C   0  0  0  0  0  0  0  0  0  0  0  0
   -8.1254   22.8453  -30.9483 H   0  0  0  0  0  0  0  0  0  0  0  0
   -9.0205   22.1424  -32.3686 H   0  0  0  0  0  0  0  0  0  0  0  0
   -8.6000   20.8500  -30.8470 O   0  0  0  0  0  0  0  0  0  0  0  0
   -8.5220   19.6830  -31.6370 C   0  0  0  0  0  0  0  0  0  0  0  0
   -8.9185   18.8323  -31.0633 H   0  0  0  0  0  0  0  0  0  0  0  0
   -9.1127   19.8374  -32.5520 H   0  0  0  0  0  0  0  0  0  0  0  0
   -7.0600   19.3860  -32.0370 C   0  0  0  0  0  0  0  0  0  0  0  0
   -6.6746   18.5746  -31.4021 H   0  0  0  0  0  0  0  0  0  0  0  0
   -7.0472   19.0966  -33.0982 H   0  0  0  0  0  0  0  0  0  0  0  0
  1  2  1  0
  2  3  2  0
  3  4  1  0
  4  5  1  0
  4  6  1  0
  4  7  1  0
  3  8  1  0
  8  9  1  0
  9 10  2  0
 10 11  1  0
 10 12  1  0
 12 13  1  0
 13 14  1  0
 14 15  1  0
 14 16  1  0
 14 17  1  0
 17 18  1  0
 17 19  1  0
 17 20  1  0
 20 21  1  0
 21 22  1  0
 21 23  1  0
 21 24  1  0
 24 25  1  0
 24 26  1  0
 24 27  1  0
 12 28  2  0
 28 29  1  0
 29 30  1  0
 30 31  1  0
 30 32  1  0
 30 33  1  0
 28 34  1  0
 34 35  1  0
 34 36  2  0
 36 37  1  0
 37 38  2  0
 38 39  1  0
 39 40  1  0
 39 41  1  0
 39 42  1  0
 42 43  1  0
 42 44  1  0
 42 45  1  0
 45 46  1  0
 45 47  1  0
 47 48  1  0
 47 49  1  0
 47 50  1  0
 50 51  1  0
 50 52  1  0
 50 53  1  0
 53 54  1  0
 54 55  1  0
 54 56  1  0
 54 57  1  0
 57 58  1  0
 57 59  1  0
 37  2  1  0
 57 45  1  0
 36  9  1  0
M  CHG  2   8  -1  45   1
M  END
>  <UniqueID>  (6) 
6

>  <SMILES>  (6) 
CCOCCOc1cc2[n-]c(C)c/c(=N\CC[NH+]3CCOCC3)c2cc1OC

>  <Energy>  (6) 
76.01959051083175

>  <Genealogy>  (6) 
CCOCCOc1cc2[n-]c(C)cc(=NCC[NH+]3CCOCC3)c2cc1OC (protonated)
CCOCCOc1cc2[n-]c(C)c/c(=N\CC[NH+]3CCOCC3)c2cc1OC (cis-trans isomerization)
CCOCCOc1cc2[n-]c(C)c/c(=N\CC[NH+]3CCOCC3)c2cc1OC (3D coordinates assigned)
CCOCCOc1cc2[n-]c(C)c/c(=N\CC[NH+]3CCOCC3)c2cc1OC (nonaromatic ring conformer: 76.01959051083175 kcal/mol)

>  <smiles>  (6) 
CCOCCOc1cc2[nH]c(C)cc(=NCCN3CCOCC3)c2cc1OC

>  <score_type>  (6) 
oracle

>  <origin>  (6) 
adg

>  <m_score__min__energy>  (6) 
-8.2599999999999998

>  <m_primary>  (6) 
energy

$$$$
6:0
     RDKit          3D

 46 49  0  0  0  0  0  0  0  0999 V2000
   -0.3160   24.9600  -25.5990 C   0  0  0  0  0  0  0  0  0  0  0  0
   -0.5530   24.8000  -26.9940 O   0  0  0  0  0  0  0  0  0  0  0  0
   -1.8250   24.6710  -27.5710 C   0  0  0  0  0  0  0  0  0  0  0  0
   -1.9240   24.6560  -28.9670 C   0  0  0  0  0  0  0  0  0  0  0  0
   -3.1670   24.5290  -29.5910 C   0  0  0  0  0  0  0  0  0  0  0  0
   -4.3370   24.4090  -28.8230 C   0  0  0  0  0  0  0  0  0  0  0  0
   -5.6870   24.2620  -29.4920 C   0  0  0  0  0  0  0  0  0  0  0  0
   -6.0080   22.8420  -29.8040 N   0  0  1  0  0  0  0  0  0  0  0  0
   -7.4690   22.6340  -29.9960 C   0  0  0  0  0  0  0  0  0  0  0  0
   -8.0050   22.9420  -31.4330 C   0  0  1  0  0  0  0  0  0  0  0  0
   -6.8940   23.2380  -32.4360 C   0  0  0  0  0  0  0  0  0  0  0  0
   -5.8610   22.1400  -32.2780 C   0  0  1  0  0  0  0  0  0  0  0  0
   -5.1650   22.2610  -30.8950 C   0  0  0  0  0  0  0  0  0  0  0  0
   -6.5130   20.7720  -32.4540 C   0  0  0  0  0  0  0  0  0  0  0  0
   -5.6910   19.6810  -32.7730 C   0  0  0  0  0  0  0  0  0  0  0  0
   -6.2450   18.4140  -32.9140 C   0  0  0  0  0  0  0  0  0  0  0  0
   -7.6120   18.2360  -32.7430 C   0  0  0  0  0  0  0  0  0  0  0  0
   -8.4190   19.3320  -32.4260 C   0  0  0  0  0  0  0  0  0  0  0  0
   -9.6610   19.1510  -32.2940 O   0  0  0  0  0  0  0  0  0  0  0  0
   -7.8710   20.5830  -32.2650 N   0  0  0  0  0  0  0  0  0  0  0  0
   -8.7740   21.7230  -31.9750 C   0  0  0  0  0  0  0  0  0  0  0  0
   -4.2410   24.4260  -27.4230 C   0  0  0  0  0  0  0  0  0  0  0  0
   -2.9970   24.5550  -26.8000 C   0  0  0  0  0  0  0  0  0  0  0  0
   -1.0970   24.4327  -25.0315 H   0  0  0  0  0  0  0  0  0  0  0  0
    0.6686   24.5410  -25.3439 H   0  0  0  0  0  0  0  0  0  0  0  0
   -0.3365   26.0298  -25.3439 H   0  0  0  0  0  0  0  0  0  0  0  0
   -1.0140   24.7451  -29.5786 H   0  0  0  0  0  0  0  0  0  0  0  0
   -3.2301   24.5229  -30.6892 H   0  0  0  0  0  0  0  0  0  0  0  0
   -6.4609   24.6607  -28.8196 H   0  0  0  0  0  0  0  0  0  0  0  0
   -5.6562   24.8178  -30.4408 H   0  0  0  0  0  0  0  0  0  0  0  0
   -5.7750   22.3010  -28.9370 H   0  0  0  0  0  0  0  0  0  0  0  0
   -7.6955   21.5822  -29.7670 H   0  0  0  0  0  0  0  0  0  0  0  0
   -7.9687   23.3486  -29.3254 H   0  0  0  0  0  0  0  0  0  0  0  0
   -8.6445   23.8312  -31.3314 H   0  0  0  0  0  0  0  0  0  0  0  0
   -7.2967   23.2353  -33.4596 H   0  0  0  0  0  0  0  0  0  0  0  0
   -6.4502   24.2280  -32.2544 H   0  0  0  0  0  0  0  0  0  0  0  0
   -5.0931   22.2497  -33.0579 H   0  0  0  0  0  0  0  0  0  0  0  0
   -4.8519   21.2538  -30.5828 H   0  0  0  0  0  0  0  0  0  0  0  0
   -4.3266   22.9590  -31.0363 H   0  0  0  0  0  0  0  0  0  0  0  0
   -4.6097   19.8279  -32.9113 H   0  0  0  0  0  0  0  0  0  0  0  0
   -5.6031   17.5553  -33.1601 H   0  0  0  0  0  0  0  0  0  0  0  0
   -8.0574   17.2366  -32.8566 H   0  0  0  0  0  0  0  0  0  0  0  0
   -9.2906   22.0121  -32.9021 H   0  0  0  0  0  0  0  0  0  0  0  0
   -9.4908   21.4024  -31.2047 H   0  0  0  0  0  0  0  0  0  0  0  0
   -5.1513   24.3372  -26.8119 H   0  0  0  0  0  0  0  0  0  0  0  0
   -2.9332   24.5660  -25.7019 H   0  0  0  0  0  0  0  0  0  0  0  0
  1  2  1  0
  2  3  1  0
  3  4  2  0
  4  5  1  0
  5  6  2  0
  6  7  1  0
  7  8  1  0
  8  9  1  0
  9 10  1  0
 10 11  1  0
 11 12  1  0
 12 13  1  0
 12 14  1  0
 14 15  2  0
 15 16  1  0
 16 17  2  0
 17 18  1  0
 18 19  2  0
 18 20  1  0
 20 21  1  0
  6 22  1  0
 22 23  2  0
 23  3  1  0
 13  8  1  0
 20 14  1  0
 21 10  1  0
  1 24  1  0
  1 25  1  0
  1 26  1  0
  4 27  1  0
  5 28  1  0
  7 29  1  0
  7 30  1  0
  8 31  1  1
  9 32  1  0
  9 33  1  0
 10 34  1  1
 11 35  1  0
 11 36  1  0
 12 37  1  6
 13 38  1  0
 13 39  1  0
 15 40  1  0
 16 41  1  0
 17 42  1  0
 21 43  1  0
 21 44  1  0
 22 45  1  0
 23 46  1  0
M  CHG  1   8   1
M  END
>  <UniqueID>  (7) 
7

>  <SMILES>  (7) 
COc1ccc(C[N@@H+]2CC3C[C@@H](Cn4c3cccc4=O)C2)cc1

>  <Energy>  (7) 
73.25305545427427

>  <Genealogy>  (7) 
COc1ccc(C[NH+]2CC3CC(C2)c2cccc(=O)n2C3)cc1 (protonated)
COc1ccc(C[N@@H+]2CC3C[C@@H](Cn4c3cccc4=O)C2)cc1 (chirality)
COc1ccc(C[N@@H+]2CC3C[C@@H](Cn4c3cccc4=O)C2)cc1 (3D coordinates assigned)
COc1ccc(C[N@@H+]2CC3C[C@@H](Cn4c3cccc4=O)C2)cc1 (nonaromatic ring conformer: 73.25305545427427 kcal/mol)

>  <smiles>  (7) 
COc1ccc(CN2CC3CC(C2)c2cccc(=O)n2C3)cc1

>  <score_type>  (7) 
oracle

>  <origin>  (7) 
adg

>  <m_score__min__energy>  (7) 
-7.3099999999999996

>  <m_primary>  (7) 
energy

$$$$
7:0
     RDKit          3D

 39 41  0  0  0  0  0  0  0  0999 V2000
   -3.7140   24.1690  -27.5000 C   0  0  0  0  0  0  0  0  0  0  0  0
   -2.6870   23.9260  -28.5990 C   0  0  0  0  0  0  0  0  0  0  0  0
   -2.9230   24.8250  -29.7260 N   0  0  0  0  0  0  0  0  0  0  0  0
   -4.1510   24.9150  -30.4590 C   0  0  0  0  0  0  0  0  0  0  0  0
   -4.6210   26.0500  -30.7320 O   0  0  0  0  0  0  0  0  0  0  0  0
   -4.8790   23.7110  -30.9010 C   0  0  0  0  0  0  0  0  0  0  0  0
   -4.2070   22.7710  -31.6940 C   0  0  0  0  0  0  0  0  0  0  0  0
   -4.8510   21.6040  -32.1070 C   0  0  0  0  0  0  0  0  0  0  0  0
   -6.1830   21.3630  -31.7450 C   0  0  0  0  0  0  0  0  0  0  0  0
   -6.8360   20.1500  -32.1600 N   0  0  0  0  0  0  0  0  0  0  0  0
   -8.1700   19.8820  -32.2610 C   0  0  0  0  0  0  0  0  0  0  0  0
   -9.2580   20.8630  -31.9540 C   0  0  0  0  0  0  0  0  0  0  0  0
   -8.4360   18.6140  -32.6800 N   0  0  0  0  0  0  0  0  0  0  0  0
   -7.2100   18.0900  -32.8550 C   0  0  0  0  0  0  0  0  0  0  0  0
   -6.8680   16.8070  -33.2660 C   0  0  0  0  0  0  0  0  0  0  0  0
   -5.4980   16.5010  -33.3490 C   0  0  0  0  0  0  0  0  0  0  0  0
   -4.5360   17.4850  -33.0140 C   0  0  0  0  0  0  0  0  0  0  0  0
   -4.9290   18.7320  -32.6130 N   0  0  0  0  0  0  0  0  0  0  0  0
   -6.2560   19.0070  -32.5510 C   0  0  0  0  0  0  0  0  0  0  0  0
   -6.8650   22.3070  -30.9630 C   0  0  0  0  0  0  0  0  0  0  0  0
   -6.2330   23.4950  -30.5550 C   0  0  0  0  0  0  0  0  0  0  0  0
   -7.0090   24.4950  -29.7370 C   0  0  0  0  0  0  0  0  0  0  0  0
   -3.2332   24.0552  -26.5172 H   0  0  0  0  0  0  0  0  0  0  0  0
   -4.1183   25.1876  -27.5947 H   0  0  0  0  0  0  0  0  0  0  0  0
   -4.5319   23.4396  -27.5947 H   0  0  0  0  0  0  0  0  0  0  0  0
   -1.6784   24.1047  -28.1981 H   0  0  0  0  0  0  0  0  0  0  0  0
   -2.7772   22.8866  -28.9474 H   0  0  0  0  0  0  0  0  0  0  0  0
   -3.1644   22.9544  -31.9930 H   0  0  0  0  0  0  0  0  0  0  0  0
   -4.3097   20.8688  -32.7205 H   0  0  0  0  0  0  0  0  0  0  0  0
   -9.3665   20.9609  -30.8638 H   0  0  0  0  0  0  0  0  0  0  0  0
   -9.0021   21.8416  -32.3863 H   0  0  0  0  0  0  0  0  0  0  0  0
  -10.2050   20.5075  -32.3863 H   0  0  0  0  0  0  0  0  0  0  0  0
   -7.6374   16.0617  -33.5161 H   0  0  0  0  0  0  0  0  0  0  0  0
   -5.1746   15.5008  -33.6730 H   0  0  0  0  0  0  0  0  0  0  0  0
   -3.4645   17.2444  -33.0768 H   0  0  0  0  0  0  0  0  0  0  0  0
   -7.9065   22.1156  -30.6654 H   0  0  0  0  0  0  0  0  0  0  0  0
   -6.8527   24.2936  -28.6670 H   0  0  0  0  0  0  0  0  0  0  0  0
   -6.6608   25.5113  -29.9735 H   0  0  0  0  0  0  0  0  0  0  0  0
   -8.0799   24.4100  -29.9735 H   0  0  0  0  0  0  0  0  0  0  0  0
  1  2  1  0
  2  3  1  0
  3  4  1  0
  4  5  2  0
  4  6  1  0
  6  7  2  0
  7  8  1  0
  8  9  2  0
  9 10  1  0
 10 11  1  0
 11 12  1  0
 11 13  2  0
 13 14  1  0
 14 15  2  0
 15 16  1  0
 16 17  2  0
 17 18  1  0
 18 19  2  0
  9 20  1  0
 20 21  2  0
 21 22  1  0
 21  6  1  0
 19 10  1  0
 19 14  1  0
  1 23  1  0
  1 24  1  0
  1 25  1  0
  2 26  1  0
  2 27  1  0
  7 28  1  0
  8 29  1  0
 12 30  1  0
 12 31  1  0
 12 32  1  0
 15 33  1  0
 16 34  1  0
 17 35  1  0
 20 36  1  0
 22 37  1  0
 22 38  1  0
 22 39  1  0
M  CHG  1   3  -1
M  END
>  <UniqueID>  (8) 
8

>  <SMILES>  (8) 
CC[N-]C(=O)c1ccc(-n2c(C)nc3cccnc32)cc1C

>  <Energy>  (8) 
88.53159909006055

>  <Genealogy>  (8) 
CC[N-]C(=O)c1ccc(-n2c(C)nc3cccnc32)cc1C (protonated)
CC[N-]C(=O)c1ccc(-n2c(C)nc3cccnc32)cc1C (3D coordinates assigned)
CC[N-]C(=O)c1ccc(-n2c(C)nc3cccnc32)cc1C (optimized conformer: 88.53159909006055 kcal/mol)

>  <smiles>  (8) 
CCNC(=O)c1ccc(-n2c(C)nc3cccnc32)cc1C

>  <score_type>  (8) 
oracle

>  <origin>  (8) 
adg

>  <m_score__min__energy>  (8) 
-9.9600000000000009

>  <m_primary>  (8) 
energy

$$$$
8:0
     RDKit          3D

 54 56  0  0  0  0  0  0  0  0999 V2000
   -5.0040   15.8960  -32.4880 C   0  0  0  0  0  0  0  0  0  0  0  0
   -5.4270   16.8590  -33.4460 O   0  0  0  0  0  0  0  0  0  0  0  0
   -6.3900   17.8470  -33.2010 C   0  0  0  0  0  0  0  0  0  0  0  0
   -6.3240   19.1310  -33.7740 C   0  0  0  0  0  0  0  0  0  0  0  0
   -7.3150   20.0810  -33.5010 C   0  0  0  0  0  0  0  0  0  0  0  0
   -8.3850   19.7620  -32.6500 C   0  0  0  0  0  0  0  0  0  0  0  0
   -9.4630   20.7770  -32.3410 C   0  0  0  0  0  0  0  0  0  0  0  0
   -8.9830   21.9330  -31.5500 N   0  0  0  0  0  0  0  0  0  0  0  0
   -8.0280   21.6250  -30.4660 C   0  0  0  0  0  0  0  0  0  0  0  0
   -6.5490   21.7650  -30.9010 C   0  0  0  0  0  0  0  0  0  0  0  0
   -6.3190   22.7950  -31.9470 N   0  0  0  0  0  0  0  0  0  0  0  0
   -4.9720   23.3890  -31.7910 C   0  0  0  0  0  0  0  0  0  0  0  0
   -4.9410   24.5170  -30.7480 C   0  0  0  0  0  0  0  0  0  0  0  0
   -3.6030   24.8530  -30.3850 O   0  0  0  0  0  0  0  0  0  0  0  0
   -2.6930   24.0130  -29.7220 C   0  0  0  0  0  0  0  0  0  0  0  0
   -2.7770   22.6080  -29.7810 C   0  0  0  0  0  0  0  0  0  0  0  0
   -1.8760   21.8170  -29.0660 C   0  0  0  0  0  0  0  0  0  0  0  0
   -0.8830   22.4140  -28.2900 C   0  0  0  0  0  0  0  0  0  0  0  0
   -0.7740   23.8060  -28.2420 C   0  0  0  0  0  0  0  0  0  0  0  0
   -1.6750   24.6140  -28.9620 C   0  0  0  0  0  0  0  0  0  0  0  0
   -1.5890   26.0150  -28.9530 O   0  0  0  0  0  0  0  0  0  0  0  0
   -0.8950   26.7730  -27.9700 C   0  0  0  0  0  0  0  0  0  0  0  0
   -7.3800   23.8180  -31.9350 C   0  0  0  0  0  0  0  0  0  0  0  0
   -8.7020   23.1600  -32.3290 C   0  0  0  0  0  0  0  0  0  0  0  0
   -8.4500   18.4780  -32.0830 C   0  0  0  0  0  0  0  0  0  0  0  0
   -7.4600   17.5320  -32.3570 C   0  0  0  0  0  0  0  0  0  0  0  0
   -5.1758   16.2872  -31.4744 H   0  0  0  0  0  0  0  0  0  0  0  0
   -5.5769   14.9669  -32.6245 H   0  0  0  0  0  0  0  0  0  0  0  0
   -3.9322   15.6893  -32.6245 H   0  0  0  0  0  0  0  0  0  0  0  0
   -5.4881   19.3895  -34.4407 H   0  0  0  0  0  0  0  0  0  0  0  0
   -7.2552   21.0812  -33.9549 H   0  0  0  0  0  0  0  0  0  0  0  0
   -9.8700   21.1517  -33.2918 H   0  0  0  0  0  0  0  0  0  0  0  0
  -10.2224   20.2642  -31.7325 H   0  0  0  0  0  0  0  0  0  0  0  0
   -8.2136   22.3149  -29.6296 H   0  0  0  0  0  0  0  0  0  0  0  0
   -8.1869   20.5754  -30.1776 H   0  0  0  0  0  0  0  0  0  0  0  0
   -5.9525   22.0321  -30.0162 H   0  0  0  0  0  0  0  0  0  0  0  0
   -6.2538   20.7991  -31.3367 H   0  0  0  0  0  0  0  0  0  0  0  0
   -4.2730   22.5997  -31.4772 H   0  0  0  0  0  0  0  0  0  0  0  0
   -4.6850   23.8232  -32.7601 H   0  0  0  0  0  0  0  0  0  0  0  0
   -5.4321   25.4070  -31.1685 H   0  0  0  0  0  0  0  0  0  0  0  0
   -5.4677   24.1700  -29.8468 H   0  0  0  0  0  0  0  0  0  0  0  0
   -3.5566   22.1317  -30.3937 H   0  0  0  0  0  0  0  0  0  0  0  0
   -1.9495   20.7205  -29.1148 H   0  0  0  0  0  0  0  0  0  0  0  0
   -0.1847   21.7882  -27.7150 H   0  0  0  0  0  0  0  0  0  0  0  0
    0.0190   24.2728  -27.6393 H   0  0  0  0  0  0  0  0  0  0  0  0
   -1.2001   26.4397  -26.9671 H   0  0  0  0  0  0  0  0  0  0  0  0
    0.1884   26.6263  -28.0913 H   0  0  0  0  0  0  0  0  0  0  0  0
   -1.1365   27.8393  -28.0913 H   0  0  0  0  0  0  0  0  0  0  0  0
   -7.4673   24.2485  -30.9265 H   0  0  0  0  0  0  0  0  0  0  0  0
   -7.1345   24.6199  -32.6468 H   0  0  0  0  0  0  0  0  0  0  0  0
   -9.5172   23.8789  -32.1598 H   0  0  0  0  0  0  0  0  0  0  0  0
   -8.6275   22.8719  -33.3880 H   0  0  0  0  0  0  0  0  0  0  0  0
   -9.2866   18.2161  -31.4186 H   0  0  0  0  0  0  0  0  0  0  0  0
   -7.5222   16.5309  -31.9054 H   0  0  0  0  0  0  0  0  0  0  0  0
  1  2  1  0
  2  3  1  0
  3  4  2  0
  4  5  1  0
  5  6  2  0
  6  7  1  0
  7  8  1  0
  8  9  1  0
  9 10  1  0
 10 11  1  0
 11 12  1  0
 12 13  1  0
 13 14  1  0
 14 15  1  0
 15 16  2  0
 16 17  1  0
 17 18  2  0
 18 19  1  0
 19 20  2  0
 20 21  1  0
 21 22  1  0
 11 23  1  0
 23 24  1  0
  6 25  1  0
 25 26  2  0
 26  3  1  0
 24  8  1  0
 20 15  1  0
  1 27  1  0
  1 28  1  0
  1 29  1  0
  4 30  1  0
  5 31  1  0
  7 32  1  0
  7 33  1  0
  9 34  1  0
  9 35  1  0
 10 36  1  0
 10 37  1  0
 12 38  1  0
 12 39  1  0
 13 40  1  0
 13 41  1  0
 16 42  1  0
 17 43  1  0
 18 44  1  0
 19 45  1  0
 22 46  1  0
 22 47  1  0
 22 48  1  0
 23 49  1  0
 23 50  1  0
 24 51  1  0
 24 52  1  0
 25 53  1  0
 26 54  1  0
M  END
>  <UniqueID>  (9) 
9

>  <SMILES>  (9) 
COc1ccc(CN2CCN(CCOc3ccccc3OC)CC2)cc1

>  <Energy>  (9) 
66.48689779128169

>  <Genealogy>  (9) 
COc1ccc(CN2CCN(CCOc3ccccc3OC)CC2)cc1 (3D coordinates assigned)
COc1ccc(CN2CCN(CCOc3ccccc3OC)CC2)cc1 (nonaromatic ring conformer: 66.48689779128169 kcal/mol)

>  <smiles>  (9) 
COc1ccc(CN2CCN(CCOc3ccccc3OC)CC2)cc1

>  <score_type>  (9) 
oracle

>  <origin>  (9) 
adg

>  <m_score__min__energy>  (9) 
-9.0899999999999999

>  <m_primary>  (9) 
energy

$$$$
9:0
     RDKit          3D

 43 45  0  0  0  0  0  0  0  0999 V2000
   -9.8600   21.5600  -31.6360 C   0  0  0  0  0  0  0  0  0  0  0  0
   -8.5670   21.7380  -30.8450 C   0  0  0  0  0  0  0  0  0  0  0  0
   -7.3860   21.5560  -31.7010 N   0  0  0  0  0  0  0  0  0  0  0  0
   -7.5100   20.8050  -32.9620 C   0  0  0  0  0  0  0  0  0  0  0  0
   -6.8580   19.4500  -32.8440 C   0  0  0  0  0  0  0  0  0  0  0  0
   -7.0610   18.6670  -31.6990 C   0  0  0  0  0  0  0  0  0  0  0  0
   -6.4940   17.3920  -31.6060 C   0  0  0  0  0  0  0  0  0  0  0  0
   -5.7320   16.8850  -32.6610 C   0  0  0  0  0  0  0  0  0  0  0  0
   -5.5400   17.6470  -33.8240 C   0  0  0  0  0  0  0  0  0  0  0  0
   -4.7000   17.1170  -34.9470 C   0  0  0  0  0  0  0  0  0  0  0  0
   -6.0910   18.9360  -33.9040 C   0  0  0  0  0  0  0  0  0  0  0  0
   -6.1000   22.0460  -31.2640 C   0  0  0  0  0  0  0  0  0  0  0  0
   -4.9520   21.8070  -32.0370 C   0  0  0  0  0  0  0  0  0  0  0  0
   -3.6990   22.2490  -31.6050 C   0  0  0  0  0  0  0  0  0  0  0  0
   -3.5750   22.9390  -30.3920 C   0  0  0  0  0  0  0  0  0  0  0  0
   -2.3280   23.3830  -29.9370 C   0  0  0  0  0  0  0  0  0  0  0  0
   -2.2350   24.0680  -28.7230 C   0  0  0  0  0  0  0  0  0  0  0  0
   -0.9590   24.5300  -28.2440 C   0  0  0  0  0  0  0  0  0  0  0  0
    0.0680   24.9010  -27.8590 N   0  0  0  0  0  0  0  0  0  0  0  0
   -3.3950   24.3010  -27.9750 C   0  0  0  0  0  0  0  0  0  0  0  0
   -4.6030   23.8650  -28.4260 N   0  0  0  0  0  0  0  0  0  0  0  0
   -4.7230   23.1930  -29.6090 C   0  0  0  0  0  0  0  0  0  0  0  0
   -5.9770   22.7500  -30.0530 C   0  0  0  0  0  0  0  0  0  0  0  0
  -10.7031   21.4439  -30.9391 H   0  0  0  0  0  0  0  0  0  0  0  0
  -10.0269   22.4436  -32.2695 H   0  0  0  0  0  0  0  0  0  0  0  0
   -9.7819   20.6641  -32.2695 H   0  0  0  0  0  0  0  0  0  0  0  0
   -8.5460   22.7509  -30.4166 H   0  0  0  0  0  0  0  0  0  0  0  0
   -8.5395   20.9778  -30.0504 H   0  0  0  0  0  0  0  0  0  0  0  0
   -8.5758   20.6730  -33.2000 H   0  0  0  0  0  0  0  0  0  0  0  0
   -7.0069   21.3703  -33.7603 H   0  0  0  0  0  0  0  0  0  0  0  0
   -7.6692   19.0574  -30.8697 H   0  0  0  0  0  0  0  0  0  0  0  0
   -6.6485   16.7873  -30.7002 H   0  0  0  0  0  0  0  0  0  0  0  0
   -5.2808   15.8851  -32.5802 H   0  0  0  0  0  0  0  0  0  0  0  0
   -3.8376   16.5728  -34.5346 H   0  0  0  0  0  0  0  0  0  0  0  0
   -5.3023   16.4351  -35.5652 H   0  0  0  0  0  0  0  0  0  0  0  0
   -4.3438   17.9542  -35.5652 H   0  0  0  0  0  0  0  0  0  0  0  0
   -5.9213   19.5478  -34.8023 H   0  0  0  0  0  0  0  0  0  0  0  0
   -5.0402   21.2669  -32.9912 H   0  0  0  0  0  0  0  0  0  0  0  0
   -2.8073   22.0547  -32.2190 H   0  0  0  0  0  0  0  0  0  0  0  0
   -1.4236   23.1931  -30.5337 H   0  0  0  0  0  0  0  0  0  0  0  0
   -3.3300   24.8392  -27.0179 H   0  0  0  0  0  0  0  0  0  0  0  0
   -5.4500   24.0560  -27.8430 H   0  0  0  0  0  0  0  0  0  0  0  0
   -6.8728   22.9551  -29.4484 H   0  0  0  0  0  0  0  0  0  0  0  0
  1  2  1  0
  2  3  1  0
  3  4  1  0
  4  5  1  0
  5  6  2  0
  6  7  1  0
  7  8  2  0
  8  9  1  0
  9 10  1  0
  9 11  2  0
  3 12  1  0
 12 13  2  0
 13 14  1  0
 14 15  2  0
 15 16  1  0
 16 17  2  0
 17 18  1  0
 18 19  3  0
 17 20  1  0
 20 21  2  0
 21 22  1  0
 22 23  2  0
 11  5  1  0
 23 12  1  0
 22 15  1  0
  1 24  1  0
  1 25  1  0
  1 26  1  0
  2 27  1  0
  2 28  1  0
  4 29  1  0
  4 30  1  0
  6 31  1  0
  7 32  1  0
  8 33  1  0
 10 34  1  0
 10 35  1  0
 10 36  1  0
 11 37  1  0
 13 38  1  0
 14 39  1  0
 16 40  1  0
 20 41  1  0
 21 42  1  0
 23 43  1  0
M  CHG  1  21   1
M  END
>  <UniqueID>  (10) 
10

>  <SMILES>  (10) 
CCN(Cc1cccc(C)c1)c1ccc2cc(C#N)c[nH+]c2c1

>  <Energy>  (10) 
45.5853217054492

>  <Genealogy>  (10) 
CCN(Cc1cccc(C)c1)c1ccc2cc(C#N)c[nH+]c2c1 (protonated)
CCN(Cc1cccc(C)c1)c1ccc2cc(C#N)c[nH+]c2c1 (3D coordinates assigned)
CCN(Cc1cccc(C)c1)c1ccc2cc(C#N)c[nH+]c2c1 (optimized conformer: 45.5853217054492 kcal/mol)

>  <smiles>  (10) 
CCN(Cc1cccc(C)c1)c1ccc2cc(C#N)cnc2c1

>  <score_type>  (10) 
oracle

>  <origin>  (10) 
adg

>  <m_score__min__energy>  (10) 
-7.2699999999999996

>  <m_primary>  (10) 
energy

$$$$
10:0
     RDKit          3D

 41 43  0  0  0  0  0  0  0  0999 V2000
   -2.0160   24.8650  -28.1790 C   0  0  0  0  0  0  0  0  0  0  0  0
   -2.7220   25.2790  -29.3450 O   0  0  0  0  0  0  0  0  0  0  0  0
   -3.9100   24.6890  -29.8030 C   0  0  0  0  0  0  0  0  0  0  0  0
   -3.9640   23.2950  -29.9040 C   0  0  0  0  0  0  0  0  0  0  0  0
   -5.1230   22.6590  -30.3540 C   0  0  0  0  0  0  0  0  0  0  0  0
   -6.2560   23.4100  -30.7140 C   0  0  0  0  0  0  0  0  0  0  0  0
   -7.4740   22.7110  -31.1890 C   0  0  0  0  0  0  0  0  0  0  0  0
   -7.6290   21.3700  -31.2460 N   0  0  0  0  0  0  0  0  0  0  0  0
   -8.8710   21.1960  -31.7270 C   0  0  0  0  0  0  0  0  0  0  0  0
   -9.4830   19.8690  -32.0430 C   0  0  0  0  0  0  0  0  0  0  0  0
   -8.6670   19.1790  -33.0480 N   0  0  0  0  0  0  0  0  0  0  0  0
   -7.7370   18.2180  -32.4330 C   0  0  0  0  0  0  0  0  0  0  0  0
   -6.3360   18.3520  -32.9810 C   0  0  0  0  0  0  0  0  0  0  0  0
   -5.7220   17.2730  -33.6380 C   0  0  0  0  0  0  0  0  0  0  0  0
   -4.4340   17.4090  -34.1650 C   0  0  0  0  0  0  0  0  0  0  0  0
   -3.7520   18.6230  -34.0430 C   0  0  0  0  0  0  0  0  0  0  0  0
   -2.5030   18.7540  -34.5560 F   0  0  0  0  0  0  0  0  0  0  0  0
   -4.3590   19.7040  -33.3960 C   0  0  0  0  0  0  0  0  0  0  0  0
   -5.6470   19.5710  -32.8680 C   0  0  0  0  0  0  0  0  0  0  0  0
   -9.4310   22.4320  -31.9670 C   0  0  0  0  0  0  0  0  0  0  0  0
   -8.5480   23.3410  -31.6190 O   0  0  0  0  0  0  0  0  0  0  0  0
   -6.2010   24.8110  -30.6140 C   0  0  0  0  0  0  0  0  0  0  0  0
   -5.0390   25.4460  -30.1620 C   0  0  0  0  0  0  0  0  0  0  0  0
   -2.5665   25.1878  -27.2831 H   0  0  0  0  0  0  0  0  0  0  0  0
   -1.9225   23.7690  -28.1768 H   0  0  0  0  0  0  0  0  0  0  0  0
   -1.0138   25.3185  -28.1768 H   0  0  0  0  0  0  0  0  0  0  0  0
   -3.0854   22.6941  -29.6264 H   0  0  0  0  0  0  0  0  0  0  0  0
   -5.1498   21.5618  -30.4274 H   0  0  0  0  0  0  0  0  0  0  0  0
   -6.9490   20.6190  -30.9940 H   0  0  0  0  0  0  0  0  0  0  0  0
   -9.5298   19.2600  -31.1282 H   0  0  0  0  0  0  0  0  0  0  0  0
  -10.4990   20.0192  -32.4370 H   0  0  0  0  0  0  0  0  0  0  0  0
   -9.3000   18.6700  -33.7100 H   0  0  0  0  0  0  0  0  0  0  0  0
   -7.7115   18.3942  -31.3475 H   0  0  0  0  0  0  0  0  0  0  0  0
   -8.0956   17.2042  -32.6648 H   0  0  0  0  0  0  0  0  0  0  0  0
   -6.2567   16.3169  -33.7384 H   0  0  0  0  0  0  0  0  0  0  0  0
   -3.9570   16.5598  -34.6761 H   0  0  0  0  0  0  0  0  0  0  0  0
   -3.8228   20.6599  -33.3023 H   0  0  0  0  0  0  0  0  0  0  0  0
   -6.1225   20.4242  -32.3622 H   0  0  0  0  0  0  0  0  0  0  0  0
  -10.4343   22.6230  -32.3755 H   0  0  0  0  0  0  0  0  0  0  0  0
   -7.0784   25.4129  -30.8933 H   0  0  0  0  0  0  0  0  0  0  0  0
   -5.0087   26.5430  -30.0872 H   0  0  0  0  0  0  0  0  0  0  0  0
  1  2  1  0
  2  3  1  0
  3  4  2  0
  4  5  1  0
  5  6  2  0
  6  7  1  0
  7  8  2  0
  8  9  1  0
  9 10  1  0
 10 11  1  0
 11 12  1  0
 12 13  1  0
 13 14  2  0
 14 15  1  0
 15 16  2  0
 16 17  1  0
 16 18  1  0
 18 19  2  0
  9 20  2  0
 20 21  1  0
  6 22  1  0
 22 23  2  0
 23  3  1  0
 21  7  1  0
 19 13  1  0
  1 24  1  0
  1 25  1  0
  1 26  1  0
  4 27  1  0
  5 28  1  0
  8 29  1  0
 10 30  1  0
 10 31  1  0
 11 32  1  0
 12 33  1  0
 12 34  1  0
 14 35  1  0
 15 36  1  0
 18 37  1  0
 19 38  1  0
 20 39  1  0
 22 40  1  0
 23 41  1  0
M  CHG  1   8   1
M  END
>  <UniqueID>  (11) 
11

>  <SMILES>  (11) 
COc1ccc(-c2[nH+]c(CNCc3ccc(F)cc3)co2)cc1

>  <Energy>  (11) 
72.99573684681016

>  <Genealogy>  (11) 
COc1ccc(-c2[nH+]c(CNCc3ccc(F)cc3)co2)cc1 (protonated)
COc1ccc(-c2[nH+]c(CNCc3ccc(F)cc3)co2)cc1 (3D coordinates assigned)
COc1ccc(-c2[nH+]c(CNCc3ccc(F)cc3)co2)cc1 (optimized conformer: 72.99573684681016 kcal/mol)

>  <smiles>  (11) 
COc1ccc(-c2nc(CNCc3ccc(F)cc3)co2)cc1

>  <score_type>  (11) 
oracle

>  <origin>  (11) 
adg

>  <m_score__min__energy>  (11) 
-7.4400000000000004

>  <m_primary>  (11) 
energy

$$$$
11:0
     RDKit          3D

 47 51  0  0  0  0  0  0  0  0999 V2000
   -7.7620   20.0510  -32.7260 C   0  0  0  0  0  0  0  0  0  0  0  0
   -6.6260   19.6920  -32.5440 C   0  0  0  0  0  0  0  0  0  0  0  0
   -5.2420   19.2530  -32.3250 C   0  0  0  0  0  0  0  0  0  0  0  0
   -4.3720   20.3620  -32.1940 O   0  0  0  0  0  0  0  0  0  0  0  0
   -4.3390   20.8790  -30.8650 C   0  0  2  0  0  0  0  0  0  0  0  0
   -4.5480   22.3850  -30.9220 C   0  0  0  0  0  0  0  0  0  0  0  0
   -5.7380   22.8070  -31.5510 C   0  0  0  0  0  0  0  0  0  0  0  0
   -6.1320   24.1410  -31.5390 C   0  0  0  0  0  0  0  0  0  0  0  0
   -5.3680   25.0800  -30.8650 C   0  0  0  0  0  0  0  0  0  0  0  0
   -4.1880   24.6960  -30.2330 C   0  0  0  0  0  0  0  0  0  0  0  0
   -3.7090   23.3650  -30.2980 C   0  0  0  0  0  0  0  0  0  0  0  0
   -2.3840   23.0410  -29.5570 C   0  0  2  0  0  0  0  0  0  0  0  0
   -2.4270   22.2130  -28.2890 C   0  0  1  0  0  0  0  0  0  0  0  0
   -3.0080   23.1190  -27.2090 C   0  0  0  0  0  0  0  0  0  0  0  0
   -2.2030   24.4210  -27.2280 C   0  0  0  0  0  0  0  0  0  0  0  0
   -2.4200   25.2690  -26.3770 O   0  0  0  0  0  0  0  0  0  0  0  0
   -1.1000   24.6630  -28.2820 C   0  0  0  0  0  0  0  0  0  0  0  0
   -1.4800   24.1910  -29.6450 N   0  0  1  0  0  0  0  0  0  0  0  0
   -1.0120   22.8490  -30.0990 C   0  0  2  0  0  0  0  0  0  0  0  0
   -1.2970   22.0370  -31.3110 C   0  0  0  0  0  0  0  0  0  0  0  0
   -1.8520   20.8030  -31.1460 C   0  0  0  0  0  0  0  0  0  0  0  0
   -3.0260   20.4450  -30.1860 C   0  0  1  0  0  0  0  0  0  0  0  0
   -3.0470   20.8350  -28.6290 C   0  0  1  0  0  0  0  0  0  0  0  0
   -2.3520   19.8350  -27.8960 O   0  0  0  0  0  0  0  0  0  0  0  0
   -3.1250   19.3760  -26.8080 C   0  0  0  0  0  0  0  0  0  0  0  0
   -8.7988   20.3787  -32.8921 H   0  0  0  0  0  0  0  0  0  0  0  0
   -5.1971   18.6502  -31.4060 H   0  0  0  0  0  0  0  0  0  0  0  0
   -4.9221   18.6576  -33.1928 H   0  0  0  0  0  0  0  0  0  0  0  0
   -5.1514   20.4731  -30.2444 H   0  0  0  0  0  0  0  0  0  0  0  0
   -6.3684   22.0647  -32.0624 H   0  0  0  0  0  0  0  0  0  0  0  0
   -7.0482   24.4498  -32.0635 H   0  0  0  0  0  0  0  0  0  0  0  0
   -5.6939   26.1300  -30.8291 H   0  0  0  0  0  0  0  0  0  0  0  0
   -3.6135   25.4456  -29.6690 H   0  0  0  0  0  0  0  0  0  0  0  0
   -1.4714   21.8944  -27.8471 H   0  0  0  0  0  0  0  0  0  0  0  0
   -4.0669   23.3276  -27.4218 H   0  0  0  0  0  0  0  0  0  0  0  0
   -2.9478   22.6375  -26.2218 H   0  0  0  0  0  0  0  0  0  0  0  0
   -0.8926   25.7422  -28.3303 H   0  0  0  0  0  0  0  0  0  0  0  0
   -0.2160   24.0875  -27.9700 H   0  0  0  0  0  0  0  0  0  0  0  0
   -1.5690   24.8590  -30.4450 H   0  0  0  0  0  0  0  0  0  0  0  0
    0.0252   22.4986  -29.9924 H   0  0  0  0  0  0  0  0  0  0  0  0
   -1.0660   22.4220  -32.3152 H   0  0  0  0  0  0  0  0  0  0  0  0
   -1.4317   19.9830  -31.7469 H   0  0  0  0  0  0  0  0  0  0  0  0
   -2.8656   19.3639  -30.0615 H   0  0  0  0  0  0  0  0  0  0  0  0
   -4.1096   20.9019  -28.3526 H   0  0  0  0  0  0  0  0  0  0  0  0
   -2.6384   19.6649  -25.8647 H   0  0  0  0  0  0  0  0  0  0  0  0
   -4.1281   19.8249  -26.8556 H   0  0  0  0  0  0  0  0  0  0  0  0
   -3.2110   18.2804  -26.8556 H   0  0  0  0  0  0  0  0  0  0  0  0
  1  2  3  0
  2  3  1  0
  3  4  1  0
  4  5  1  0
  5  6  1  0
  6  7  2  0
  7  8  1  0
  8  9  2  0
  9 10  1  0
 10 11  2  0
 12 11  1  6
 12 13  1  0
 13 14  1  0
 14 15  1  0
 15 16  2  0
 15 17  1  0
 17 18  1  0
 18 19  1  0
 19 20  1  0
 20 21  2  0
 21 22  1  0
 22 23  1  0
 23 24  1  0
 24 25  1  0
 22  5  1  0
 11  6  1  0
 18 12  1  0
 19 12  1  0
 23 13  1  0
  1 26  1  0
  3 27  1  0
  3 28  1  0
  5 29  1  1
  7 30  1  0
  8 31  1  0
  9 32  1  0
 10 33  1  0
 13 34  1  1
 14 35  1  0
 14 36  1  0
 17 37  1  0
 17 38  1  0
 18 39  1  6
 19 40  1  1
 20 41  1  0
 21 42  1  0
 22 43  1  1
 23 44  1  1
 25 45  1  0
 25 46  1  0
 25 47  1  0
M  CHG  1  18   1
M  END
>  <UniqueID>  (12) 
12

>  <SMILES>  (12) 
C#CCO[C@@H]1c2ccccc2[C@]23C4CC(=O)C[NH+]2C3C=CC1C4OC

>  <Energy>  (12) 
499.47856419806544

>  <Genealogy>  (12) 
C#CCOC1c2ccccc2C23C4CC(=O)C[NH+]2C3C=CC1C4OC (protonated)
C#CCO[C@@H]1c2ccccc2[C@]23C4CC(=O)C[NH+]2C3C=CC1C4OC (chirality)
C#CCO[C@@H]1c2ccccc2[C@]23C4CC(=O)C[NH+]2C3C=CC1C4OC (3D coordinates assigned)
C#CCO[C@@H]1c2ccccc2[C@]23C4CC(=O)C[NH+]2C3C=CC1C4OC (nonaromatic ring conformer: 499.47856419806544 kcal/mol)

>  <smiles>  (12) 
C#CCOC1c2ccccc2C23C4CC(=O)CN2C3C=CC1C4OC

>  <score_type>  (12) 
oracle

>  <origin>  (12) 
adg

>  <m_score__min__energy>  (12) 
-4.1799999999999997

>  <m_primary>  (12) 
energy

$$$$
12:0
     RDKit          3D

 25 26  0  0  0  0  0  0  0  0999 V2000
   -4.3320   24.9550  -30.5640 N   0  0  0  0  0  0  0  0  0  0  0  0
   -5.5000   24.1690  -30.8120 C   0  0  0  0  0  0  0  0  0  0  0  0
   -6.0930   24.1680  -32.0830 C   0  0  0  0  0  0  0  0  0  0  0  0
   -7.2350   23.3980  -32.3250 C   0  0  0  0  0  0  0  0  0  0  0  0
   -7.7900   22.6220  -31.3000 C   0  0  0  0  0  0  0  0  0  0  0  0
   -9.2500   21.6300  -31.6130 S   0  0  0  0  0  0  0  0  0  0  0  0
   -8.2880   20.2120  -32.1410 C   0  0  0  0  0  0  0  0  0  0  0  0
   -7.2570   20.3730  -33.0760 C   0  0  0  0  0  0  0  0  0  0  0  0
   -6.5090   19.2650  -33.4900 C   0  0  0  0  0  0  0  0  0  0  0  0
   -6.7880   17.9980  -32.9680 C   0  0  0  0  0  0  0  0  0  0  0  0
   -7.8140   17.8360  -32.0320 C   0  0  0  0  0  0  0  0  0  0  0  0
   -8.5630   18.9420  -31.6160 C   0  0  0  0  0  0  0  0  0  0  0  0
   -7.2020   22.6240  -30.0300 C   0  0  0  0  0  0  0  0  0  0  0  0
   -6.0590   23.3930  -29.7870 C   0  0  0  0  0  0  0  0  0  0  0  0
   -3.5170   24.9240  -31.2170 H   0  0  0  0  0  0  0  0  0  0  0  0
   -4.2720   25.5750  -29.7250 H   0  0  0  0  0  0  0  0  0  0  0  0
   -5.6587   24.7744  -32.8915 H   0  0  0  0  0  0  0  0  0  0  0  0
   -7.6983   23.4019  -33.3227 H   0  0  0  0  0  0  0  0  0  0  0  0
   -7.0356   21.3700  -33.4845 H   0  0  0  0  0  0  0  0  0  0  0  0
   -5.7014   19.3908  -34.2262 H   0  0  0  0  0  0  0  0  0  0  0  0
   -6.1996   17.1277  -33.2942 H   0  0  0  0  0  0  0  0  0  0  0  0
   -8.0323   16.8386  -31.6226 H   0  0  0  0  0  0  0  0  0  0  0  0
   -9.3677   18.8148  -30.8769 H   0  0  0  0  0  0  0  0  0  0  0  0
   -7.6394   22.0198  -29.2215 H   0  0  0  0  0  0  0  0  0  0  0  0
   -5.5974   23.3888  -28.7885 H   0  0  0  0  0  0  0  0  0  0  0  0
  1  2  1  0
  2  3  2  0
  3  4  1  0
  4  5  2  0
  5  6  1  0
  6  7  1  0
  7  8  2  0
  8  9  1  0
  9 10  2  0
 10 11  1  0
 11 12  2  0
  5 13  1  0
 13 14  2  0
 14  2  1  0
 12  7  1  0
  1 15  1  0
  1 16  1  0
  3 17  1  0
  4 18  1  0
  8 19  1  0
  9 20  1  0
 10 21  1  0
 11 22  1  0
 12 23  1  0
 13 24  1  0
 14 25  1  0
M  END
>  <UniqueID>  (13) 
13

>  <SMILES>  (13) 
Nc1ccc(Sc2ccccc2)cc1

>  <Energy>  (13) 
20.037749019558003

>  <Genealogy>  (13) 
Nc1ccc(Sc2ccccc2)cc1 (3D coordinates assigned)
Nc1ccc(Sc2ccccc2)cc1 (optimized conformer: 20.037749019558003 kcal/mol)

>  <smiles>  (13) 
Nc1ccc(Sc2ccccc2)cc1

>  <score_type>  (13) 
oracle

>  <origin>  (13) 
adg

>  <m_score__min__energy>  (13) 
-7.2300000000000004

>  <m_primary>  (13) 
energy

$$$$
13:0
     RDKit          3D

 26 27  0  0  0  0  0  0  0  0999 V2000
   -8.3430   20.2450  -32.3370 C   0  0  0  0  0  0  0  0  0  0  0  0
   -7.1410   21.1060  -32.7040 C   0  0  0  0  0  0  0  0  0  0  0  0
   -6.9130   22.1560  -31.6650 C   0  0  0  0  0  0  0  0  0  0  0  0
   -6.3480   23.3540  -31.9300 N   0  0  0  0  0  0  0  0  0  0  0  0
   -6.3730   23.9680  -30.7320 C   0  0  0  0  0  0  0  0  0  0  0  0
   -5.8200   25.3350  -30.4800 C   0  0  0  0  0  0  0  0  0  0  0  0
   -4.4040   25.3880  -30.8410 N   0  0  0  0  0  0  0  0  0  0  0  0
   -3.4980   24.5550  -30.4200 C   0  0  0  0  0  0  0  0  0  0  0  0
   -2.6750   24.9240  -29.4030 N   0  0  0  0  0  0  0  0  0  0  0  0
   -1.7160   24.0810  -28.9380 C   0  0  0  0  0  0  0  0  0  0  0  0
   -1.5650   22.8160  -29.5040 C   0  0  0  0  0  0  0  0  0  0  0  0
   -2.4180   22.4500  -30.5450 C   0  0  0  0  0  0  0  0  0  0  0  0
   -3.3650   23.3210  -30.9820 N   0  0  0  0  0  0  0  0  0  0  0  0
   -6.9390   23.1330  -29.7940 C   0  0  0  0  0  0  0  0  0  0  0  0
   -7.2660   22.0230  -30.4060 O   0  0  0  0  0  0  0  0  0  0  0  0
   -8.4292   20.1833  -31.2421 H   0  0  0  0  0  0  0  0  0  0  0  0
   -9.2569   20.6952  -32.7519 H   0  0  0  0  0  0  0  0  0  0  0  0
   -8.2108   19.2349  -32.7519 H   0  0  0  0  0  0  0  0  0  0  0  0
   -6.2476   20.4684  -32.7766 H   0  0  0  0  0  0  0  0  0  0  0  0
   -7.3359   21.5966  -33.6691 H   0  0  0  0  0  0  0  0  0  0  0  0
   -6.3755   26.0674  -31.0841 H   0  0  0  0  0  0  0  0  0  0  0  0
   -5.9240   25.5697  -29.4104 H   0  0  0  0  0  0  0  0  0  0  0  0
   -1.0586   24.3969  -28.1146 H   0  0  0  0  0  0  0  0  0  0  0  0
   -0.7922   22.1236  -29.1386 H   0  0  0  0  0  0  0  0  0  0  0  0
   -2.3243   21.4582  -31.0114 H   0  0  0  0  0  0  0  0  0  0  0  0
   -7.0886   23.3575  -28.7276 H   0  0  0  0  0  0  0  0  0  0  0  0
  1  2  1  0
  2  3  1  0
  3  4  2  0
  4  5  1  0
  5  6  1  0
  6  7  1  0
  7  8  2  3
  8  9  1  0
  9 10  2  0
 10 11  1  0
 11 12  2  0
 12 13  1  0
  5 14  2  0
 14 15  1  0
 15  3  1  0
 13  8  1  0
  1 16  1  0
  1 17  1  0
  1 18  1  0
  2 19  1  0
  2 20  1  0
  6 21  1  0
  6 22  1  0
 10 23  1  0
 11 24  1  0
 12 25  1  0
 14 26  1  0
M  CHG  1  13  -1
M  END
>  <UniqueID>  (14) 
14

>  <SMILES>  (14) 
CCc1nc(CN=c2nccc[n-]2)co1

>  <Energy>  (14) 
51.1388992764201

>  <Genealogy>  (14) 
CCc1nc(CN=c2nccc[n-]2)co1 (protonated)
CCc1nc(CN=c2nccc[n-]2)co1 (3D coordinates assigned)
CCc1nc(CN=c2nccc[n-]2)co1 (optimized conformer: 51.1388992764201 kcal/mol)

>  <smiles>  (14) 
CCc1nc(CN=c2nccc[nH]2)co1

>  <score_type>  (14) 
oracle

>  <origin>  (14) 
adg

>  <m_score__min__energy>  (14) 
-6.7999999999999998

>  <m_primary>  (14) 
energy

$$$$
14:0
     RDKit          3D

 36 38  0  0  0  0  0  0  0  0999 V2000
   -1.8400   22.9850  -29.7240 C   0  0  0  0  0  0  0  0  0  0  0  0
   -2.7310   23.4300  -30.7400 O   0  0  0  0  0  0  0  0  0  0  0  0
   -3.9770   22.8470  -31.0200 C   0  0  0  0  0  0  0  0  0  0  0  0
   -4.1200   21.4620  -31.2250 C   0  0  0  0  0  0  0  0  0  0  0  0
   -5.3700   20.9170  -31.5120 C   0  0  0  0  0  0  0  0  0  0  0  0
   -6.4970   21.7400  -31.6070 C   0  0  0  0  0  0  0  0  0  0  0  0
   -7.7730   21.1560  -31.9120 N   0  0  0  0  0  0  0  0  0  0  0  0
   -8.9300   21.7230  -31.6150 N   0  0  0  0  0  0  0  0  0  0  0  0
   -9.8990   20.9650  -32.1040 N   0  0  0  0  0  0  0  0  0  0  0  0
   -9.4060   19.9010  -32.7190 N   0  0  0  0  0  0  0  0  0  0  0  0
   -8.0690   20.0220  -32.5890 C   0  0  0  0  0  0  0  0  0  0  0  0
   -7.1100   19.0040  -33.0700 C   0  0  0  0  0  0  0  0  0  0  0  0
   -6.2750   19.2960  -34.1620 C   0  0  0  0  0  0  0  0  0  0  0  0
   -5.3650   18.3430  -34.6300 C   0  0  0  0  0  0  0  0  0  0  0  0
   -5.2880   17.0880  -34.0200 C   0  0  0  0  0  0  0  0  0  0  0  0
   -6.1300   16.7810  -32.9480 C   0  0  0  0  0  0  0  0  0  0  0  0
   -7.0430   17.7300  -32.4770 C   0  0  0  0  0  0  0  0  0  0  0  0
   -6.3710   23.1210  -31.3690 C   0  0  0  0  0  0  0  0  0  0  0  0
   -7.4900   23.8880  -31.3750 F   0  0  0  0  0  0  0  0  0  0  0  0
   -5.1040   23.6830  -31.0910 C   0  0  0  0  0  0  0  0  0  0  0  0
   -4.9020   25.0580  -30.8770 O   0  0  0  0  0  0  0  0  0  0  0  0
   -5.7430   25.9130  -30.1100 C   0  0  0  0  0  0  0  0  0  0  0  0
   -2.2729   23.2012  -28.7362 H   0  0  0  0  0  0  0  0  0  0  0  0
   -1.6804   21.9014  -29.8252 H   0  0  0  0  0  0  0  0  0  0  0  0
   -0.8778   23.5084  -29.8252 H   0  0  0  0  0  0  0  0  0  0  0  0
   -3.2397   20.8057  -31.1583 H   0  0  0  0  0  0  0  0  0  0  0  0
   -5.4711   19.8324  -31.6649 H   0  0  0  0  0  0  0  0  0  0  0  0
  -10.9160   21.1790  -32.0180 H   0  0  0  0  0  0  0  0  0  0  0  0
   -6.3376   20.2793  -34.6511 H   0  0  0  0  0  0  0  0  0  0  0  0
   -4.7086   18.5816  -35.4798 H   0  0  0  0  0  0  0  0  0  0  0  0
   -4.5653   16.3426  -34.3834 H   0  0  0  0  0  0  0  0  0  0  0  0
   -6.0746   15.7903  -32.4733 H   0  0  0  0  0  0  0  0  0  0  0  0
   -7.7111   17.4794  -31.6399 H   0  0  0  0  0  0  0  0  0  0  0  0
   -5.5678   25.7349  -29.0388 H   0  0  0  0  0  0  0  0  0  0  0  0
   -5.5152   26.9622  -30.3493 H   0  0  0  0  0  0  0  0  0  0  0  0
   -6.7958   25.7026  -30.3493 H   0  0  0  0  0  0  0  0  0  0  0  0
  1  2  1  0
  2  3  1  0
  3  4  2  0
  4  5  1  0
  5  6  2  0
  6  7  1  0
  7  8  1  0
  8  9  2  0
  9 10  1  0
 10 11  2  0
 11 12  1  0
 12 13  2  0
 13 14  1  0
 14 15  2  0
 15 16  1  0
 16 17  2  0
  6 18  1  0
 18 19  1  0
 18 20  2  0
 20 21  1  0
 21 22  1  0
 20  3  1  0
 11  7  1  0
 17 12  1  0
  1 23  1  0
  1 24  1  0
  1 25  1  0
  4 26  1  0
  5 27  1  0
  9 28  1  0
 13 29  1  0
 14 30  1  0
 15 31  1  0
 16 32  1  0
 17 33  1  0
 22 34  1  0
 22 35  1  0
 22 36  1  0
M  CHG  1   9   1
M  END
>  <UniqueID>  (15) 
15

>  <SMILES>  (15) 
COc1ccc(-n2n[nH+]nc2-c2ccccc2)c(F)c1OC

>  <Energy>  (15) 
88.69898825751126

>  <Genealogy>  (15) 
COc1ccc(-n2n[nH+]nc2-c2ccccc2)c(F)c1OC (protonated)
COc1ccc(-n2n[nH+]nc2-c2ccccc2)c(F)c1OC (3D coordinates assigned)
COc1ccc(-n2n[nH+]nc2-c2ccccc2)c(F)c1OC (optimized conformer: 88.69898825751126 kcal/mol)

>  <smiles>  (15) 
COc1ccc(-n2nnnc2-c2ccccc2)c(F)c1OC

>  <score_type>  (15) 
oracle

>  <origin>  (15) 
adg

>  <m_score__min__energy>  (15) 
-7.7000000000000002

>  <m_primary>  (15) 
energy

$$$$
15:0
     RDKit          3D

 51 55  0  0  0  0  0  0  0  0999 V2000
   -7.5450   18.1700  -31.1760 O   0  0  0  0  0  0  0  0  0  0  0  0
   -7.4420   18.2730  -32.4050 C   0  0  0  0  0  0  0  0  0  0  0  0
   -7.2330   17.0020  -33.1760 C   0  0  0  0  0  0  0  0  0  0  0  0
   -5.7980   16.8770  -33.5370 C   0  0  0  0  0  0  0  0  0  0  0  0
   -5.3340   17.7350  -34.5240 C   0  0  0  0  0  0  0  0  0  0  0  0
   -4.0270   17.7260  -34.9550 C   0  0  0  0  0  0  0  0  0  0  0  0
   -3.1700   16.8220  -34.3690 C   0  0  0  0  0  0  0  0  0  0  0  0
   -3.6300   15.9800  -33.3990 C   0  0  0  0  0  0  0  0  0  0  0  0
   -4.9410   15.9730  -32.9530 C   0  0  0  0  0  0  0  0  0  0  0  0
   -7.5130   19.5140  -33.0740 N   0  0  0  0  0  0  0  0  0  0  0  0
   -7.7050   20.7720  -32.4540 C   0  0  0  0  0  0  0  0  0  0  0  0
   -8.9200   21.3710  -32.2630 C   0  0  0  0  0  0  0  0  0  0  0  0
   -9.0070   22.6040  -31.6590 C   0  0  0  0  0  0  0  0  0  0  0  0
   -7.8600   23.2400  -31.2440 C   0  0  0  0  0  0  0  0  0  0  0  0
   -6.5880   22.6730  -31.4150 C   0  0  0  0  0  0  0  0  0  0  0  0
   -5.4740   23.4580  -30.9780 C   0  0  0  0  0  0  0  0  0  0  0  0
   -5.3500   24.7900  -31.2460 N   0  0  0  0  0  0  0  0  0  0  0  0
   -4.2480   25.2710  -30.7060 N   0  0  0  0  0  0  0  0  0  0  0  0
   -3.5790   24.3110  -30.0540 C   0  0  0  0  0  0  0  0  0  0  0  0
   -2.4060   24.3130  -29.3340 C   0  0  0  0  0  0  0  0  0  0  0  0
   -1.9410   23.1570  -28.7400 C   0  0  0  0  0  0  0  0  0  0  0  0
   -2.7230   22.0260  -28.9170 C   0  0  0  0  0  0  0  0  0  0  0  0
   -2.2110   20.7990  -28.2740 C   0  0  0  0  0  0  0  0  0  0  0  0
   -2.9690   20.1300  -27.3270 C   0  0  0  0  0  0  0  0  0  0  0  0
   -2.4720   18.9700  -26.7280 C   0  0  0  0  0  0  0  0  0  0  0  0
   -1.2270   18.4910  -27.0780 C   0  0  0  0  0  0  0  0  0  0  0  0
   -0.5030   19.1580  -28.0030 N   0  0  0  0  0  0  0  0  0  0  0  0
   -0.9670   20.2810  -28.5940 C   0  0  0  0  0  0  0  0  0  0  0  0
   -3.8950   22.0270  -29.6370 C   0  0  0  0  0  0  0  0  0  0  0  0
   -4.3580   23.1670  -30.2290 C   0  0  0  0  0  0  0  0  0  0  0  0
   -6.5710   21.4510  -32.0200 C   0  0  0  0  0  0  0  0  0  0  0  0
   -7.5323   16.1434  -32.5570 H   0  0  0  0  0  0  0  0  0  0  0  0
   -7.8427   17.0219  -34.0913 H   0  0  0  0  0  0  0  0  0  0  0  0
   -6.0368   18.4487  -34.9787 H   0  0  0  0  0  0  0  0  0  0  0  0
   -3.6800   18.4156  -35.7387 H   0  0  0  0  0  0  0  0  0  0  0  0
   -2.1164   16.7786  -34.6822 H   0  0  0  0  0  0  0  0  0  0  0  0
   -2.9222   15.2693  -32.9474 H   0  0  0  0  0  0  0  0  0  0  0  0
   -5.2805   15.2787  -32.1702 H   0  0  0  0  0  0  0  0  0  0  0  0
   -7.4090   19.4580  -34.1290 H   0  0  0  0  0  0  0  0  0  0  0  0
   -9.8365   20.8617  -32.5957 H   0  0  0  0  0  0  0  0  0  0  0  0
   -9.9880   23.0785  -31.5088 H   0  0  0  0  0  0  0  0  0  0  0  0
   -7.9427   24.2254  -30.7623 H   0  0  0  0  0  0  0  0  0  0  0  0
   -5.9940   25.4080  -31.7970 H   0  0  0  0  0  0  0  0  0  0  0  0
   -1.8327   25.2461  -29.2308 H   0  0  0  0  0  0  0  0  0  0  0  0
   -1.0060   23.1345  -28.1609 H   0  0  0  0  0  0  0  0  0  0  0  0
   -3.9618   20.5120  -27.0468 H   0  0  0  0  0  0  0  0  0  0  0  0
   -3.0741   18.4382  -25.9766 H   0  0  0  0  0  0  0  0  0  0  0  0
   -0.8290   17.5784  -26.6104 H   0  0  0  0  0  0  0  0  0  0  0  0
   -0.3453   20.7933  -29.3431 H   0  0  0  0  0  0  0  0  0  0  0  0
   -4.4688   21.0939  -29.7375 H   0  0  0  0  0  0  0  0  0  0  0  0
   -5.5943   20.9695  -32.1754 H   0  0  0  0  0  0  0  0  0  0  0  0
  1  2  2  0
  2  3  1  0
  3  4  1  0
  4  5  2  0
  5  6  1  0
  6  7  2  0
  7  8  1  0
  8  9  2  0
  2 10  1  0
 10 11  1  0
 11 12  2  0
 12 13  1  0
 13 14  2  0
 14 15  1  0
 15 16  1  0
 16 17  1  0
 17 18  1  0
 18 19  2  0
 19 20  1  0
 20 21  2  0
 21 22  1  0
 22 23  1  0
 23 24  2  0
 24 25  1  0
 25 26  2  0
 26 27  1  0
 27 28  2  0
 22 29  2  0
 29 30  1  0
 15 31  2  0
  9  4  1  0
 31 11  1  0
 30 16  2  0
 30 19  1  0
 28 23  1  0
  3 32  1  0
  3 33  1  0
  5 34  1  0
  6 35  1  0
  7 36  1  0
  8 37  1  0
  9 38  1  0
 10 39  1  0
 12 40  1  0
 13 41  1  0
 14 42  1  0
 17 43  1  0
 20 44  1  0
 21 45  1  0
 24 46  1  0
 25 47  1  0
 26 48  1  0
 28 49  1  0
 29 50  1  0
 31 51  1  0
M  END
>  <smiles>  (16) 
O=C(Cc1ccccc1)Nc1cccc(-c2[nH]nc3ccc(-c4cccnc4)cc23)c1

>  <score_type>  (16) 
oracle

>  <origin>  (16) 
adg

>  <m_score__min__energy>  (16) 
-10.859999999999999

>  <m_primary>  (16) 
energy

$$$$
16:0
     RDKit          3D

 46 49  0  0  0  0  0  0  0  0999 V2000
   -0.1430   26.3020  -23.7040 C   0  0  0  0  0  0  0  0  0  0  0  0
    0.0380   25.1250  -24.4860 O   0  0  0  0  0  0  0  0  0  0  0  0
   -0.8050   24.7340  -25.5360 C   0  0  0  0  0  0  0  0  0  0  0  0
   -1.9500   25.4640  -25.8940 C   0  0  0  0  0  0  0  0  0  0  0  0
   -2.7490   25.0410  -26.9590 C   0  0  0  0  0  0  0  0  0  0  0  0
   -2.4320   23.8770  -27.6890 C   0  0  0  0  0  0  0  0  0  0  0  0
   -1.3090   23.1240  -27.2950 C   0  0  0  0  0  0  0  0  0  0  0  0
   -0.4960   23.5680  -26.2390 C   0  0  0  0  0  0  0  0  0  0  0  0
   -1.0480   21.8170  -27.8850 C   0  0  0  0  0  0  0  0  0  0  0  0
    0.1300   21.4570  -28.1570 O   0  0  0  0  0  0  0  0  0  0  0  0
   -2.1260   20.8880  -27.9790 N   0  0  0  0  0  0  0  0  0  0  0  0
   -1.9650   19.5870  -27.3300 C   0  0  0  0  0  0  0  0  0  0  0  0
   -3.1170   20.9960  -29.0480 C   0  0  0  0  0  0  0  0  0  0  0  0
   -3.4200   22.4010  -29.5310 C   0  0  0  0  0  0  0  0  0  0  0  0
   -4.1260   22.6910  -30.6980 C   0  0  0  0  0  0  0  0  0  0  0  0
   -4.7020   21.7640  -31.6950 C   0  0  0  0  0  0  0  0  0  0  0  0
   -6.0020   21.3930  -31.6670 N   0  0  0  0  0  0  0  0  0  0  0  0
   -6.3100   20.4970  -32.6460 C   0  0  0  0  0  0  0  0  0  0  0  0
   -7.6990   19.9400  -32.8090 C   0  0  0  0  0  0  0  0  0  0  0  0
   -7.7480   18.4830  -32.3390 C   0  0  0  0  0  0  0  0  0  0  0  0
   -8.7130   20.7960  -32.0440 C   0  0  0  0  0  0  0  0  0  0  0  0
   -5.2440   20.1300  -33.4640 C   0  0  0  0  0  0  0  0  0  0  0  0
   -3.8860   20.9610  -32.9310 S   0  0  0  0  0  0  0  0  0  0  0  0
   -4.2600   24.0230  -30.8220 N   0  0  0  0  0  0  0  0  0  0  0  0
   -3.6650   24.5280  -29.7270 C   0  0  0  0  0  0  0  0  0  0  0  0
   -3.1580   23.5800  -28.9060 N   0  0  0  0  0  0  0  0  0  0  0  0
   -0.1031   26.0423  -22.6358 H   0  0  0  0  0  0  0  0  0  0  0  0
    0.6549   27.0228  -23.9362 H   0  0  0  0  0  0  0  0  0  0  0  0
   -1.1206   26.7497  -23.9362 H   0  0  0  0  0  0  0  0  0  0  0  0
   -2.2186   26.3719  -25.3340 H   0  0  0  0  0  0  0  0  0  0  0  0
   -3.6399   25.6254  -27.2325 H   0  0  0  0  0  0  0  0  0  0  0  0
    0.3971   22.9886  -25.9619 H   0  0  0  0  0  0  0  0  0  0  0  0
   -1.9812   19.7175  -26.2379 H   0  0  0  0  0  0  0  0  0  0  0  0
   -2.7877   18.9223  -27.6320 H   0  0  0  0  0  0  0  0  0  0  0  0
   -1.0050   19.1429  -27.6320 H   0  0  0  0  0  0  0  0  0  0  0  0
   -2.7500   20.4160  -29.9076 H   0  0  0  0  0  0  0  0  0  0  0  0
   -4.0579   20.6188  -28.6208 H   0  0  0  0  0  0  0  0  0  0  0  0
   -7.9658   19.9661  -33.8758 H   0  0  0  0  0  0  0  0  0  0  0  0
   -7.7490   18.4523  -31.2394 H   0  0  0  0  0  0  0  0  0  0  0  0
   -8.6627   18.0054  -32.7200 H   0  0  0  0  0  0  0  0  0  0  0  0
   -6.8674   17.9450  -32.7200 H   0  0  0  0  0  0  0  0  0  0  0  0
   -8.5599   20.6668  -30.9624 H   0  0  0  0  0  0  0  0  0  0  0  0
   -8.5743   21.8543  -32.3101 H   0  0  0  0  0  0  0  0  0  0  0  0
   -9.7330   20.4817  -32.3101 H   0  0  0  0  0  0  0  0  0  0  0  0
   -5.2845   19.4238  -34.3064 H   0  0  0  0  0  0  0  0  0  0  0  0
   -3.5972   25.6061  -29.5193 H   0  0  0  0  0  0  0  0  0  0  0  0
  1  2  1  0
  2  3  1  0
  3  4  2  0
  4  5  1  0
  5  6  2  0
  6  7  1  0
  7  8  2  0
  7  9  1  0
  9 10  2  0
  9 11  1  0
 11 12  1  0
 11 13  1  0
 13 14  1  0
 14 15  2  0
 15 16  1  0
 16 17  2  0
 17 18  1  0
 18 19  1  0
 19 20  1  0
 19 21  1  0
 18 22  2  0
 22 23  1  0
 15 24  1  0
 24 25  2  0
 25 26  1  0
  8  3  1  0
 26 14  1  0
 26  6  1  0
 23 16  1  0
  1 27  1  0
  1 28  1  0
  1 29  1  0
  4 30  1  0
  5 31  1  0
  8 32  1  0
 12 33  1  0
 12 34  1  0
 12 35  1  0
 13 36  1  0
 13 37  1  0
 19 38  1  0
 20 39  1  0
 20 40  1  0
 20 41  1  0
 21 42  1  0
 21 43  1  0
 21 44  1  0
 22 45  1  0
 25 46  1  0
M  END
>  <UniqueID>  (17) 
16

>  <SMILES>  (17) 
COc1ccc2c(c1)C(=O)N(C)Cc1c(-c3nc(C(C)C)cs3)ncn1-2

>  <Energy>  (17) 
127.35012206018598

>  <Genealogy>  (17) 
COc1ccc2c(c1)C(=O)N(C)Cc1c(-c3nc(C(C)C)cs3)ncn1-2 (3D coordinates assigned)
COc1ccc2c(c1)C(=O)N(C)Cc1c(-c3nc(C(C)C)cs3)ncn1-2 (nonaromatic ring conformer: 127.35012206018598 kcal/mol)

>  <smiles>  (17) 
COc1ccc2c(c1)C(=O)N(C)Cc1c(-c3nc(C(C)C)cs3)ncn1-2

>  <score_type>  (17) 
oracle

>  <origin>  (17) 
adg

>  <m_score__min__energy>  (17) 
-7.6900000000000004

>  <m_primary>  (17) 
energy

$$$$
17:0
     RDKit          3D

 41 42  0  0  0  0  0  0  0  0999 V2000
   -2.4380   20.1500  -27.2260 C   0  0  0  0  0  0  0  0  0  0  0  0
   -1.6140   21.1440  -27.7950 O   0  0  0  0  0  0  0  0  0  0  0  0
   -1.9640   22.4050  -27.2630 C   0  0  0  0  0  0  0  0  0  0  0  0
   -1.3180   23.5140  -28.0950 C   0  0  0  0  0  0  0  0  0  0  0  0
   -2.1020   24.8230  -28.0050 C   0  0  0  0  0  0  0  0  0  0  0  0
   -2.4550   25.2740  -29.3460 N   0  0  0  0  0  0  0  0  0  0  0  0
   -3.5750   24.7830  -30.0890 C   0  0  0  0  0  0  0  0  0  0  0  0
   -4.2070   25.5810  -30.8310 O   0  0  0  0  0  0  0  0  0  0  0  0
   -4.0490   23.3600  -29.9390 C   0  0  0  0  0  0  0  0  0  0  0  0
   -3.7470   22.5650  -31.1350 N   0  0  0  0  0  0  0  0  0  0  0  0
   -2.5640   21.9700  -31.3870 C   0  0  0  0  0  0  0  0  0  0  0  0
   -2.6290   21.2690  -32.5720 C   0  0  0  0  0  0  0  0  0  0  0  0
   -3.9080   21.4370  -33.0630 C   0  0  0  0  0  0  0  0  0  0  0  0
   -4.5790   22.2370  -32.1530 C   0  0  0  0  0  0  0  0  0  0  0  0
   -5.9880   22.6770  -32.2870 C   0  0  0  0  0  0  0  0  0  0  0  0
   -6.2400   23.9050  -32.4130 O   0  0  0  0  0  0  0  0  0  0  0  0
   -7.1100   21.7090  -32.3030 C   0  0  0  0  0  0  0  0  0  0  0  0
   -8.3880   22.1050  -31.8670 C   0  0  0  0  0  0  0  0  0  0  0  0
   -9.4520   21.1970  -31.8740 C   0  0  0  0  0  0  0  0  0  0  0  0
   -9.2480   19.8810  -32.2990 C   0  0  0  0  0  0  0  0  0  0  0  0
   -7.9780   19.4710  -32.7140 C   0  0  0  0  0  0  0  0  0  0  0  0
   -6.9130   20.3770  -32.7150 C   0  0  0  0  0  0  0  0  0  0  0  0
   -2.3852   20.2137  -26.1291 H   0  0  0  0  0  0  0  0  0  0  0  0
   -3.4770   20.3039  -27.5526 H   0  0  0  0  0  0  0  0  0  0  0  0
   -2.0941   19.1575  -27.5526 H   0  0  0  0  0  0  0  0  0  0  0  0
   -3.0577   22.5206  -27.2862 H   0  0  0  0  0  0  0  0  0  0  0  0
   -1.6067   22.4738  -26.2249 H   0  0  0  0  0  0  0  0  0  0  0  0
   -0.2957   23.6855  -27.7268 H   0  0  0  0  0  0  0  0  0  0  0  0
   -1.3113   23.1918  -29.1467 H   0  0  0  0  0  0  0  0  0  0  0  0
   -3.0192   24.6611  -27.4198 H   0  0  0  0  0  0  0  0  0  0  0  0
   -1.4822   25.5874  -27.5135 H   0  0  0  0  0  0  0  0  0  0  0  0
   -3.5479   22.9056  -29.0716 H   0  0  0  0  0  0  0  0  0  0  0  0
   -5.1399   23.3720  -29.7982 H   0  0  0  0  0  0  0  0  0  0  0  0
   -1.6760   22.0345  -30.7410 H   0  0  0  0  0  0  0  0  0  0  0  0
   -1.8185   20.6881  -33.0365 H   0  0  0  0  0  0  0  0  0  0  0  0
   -4.3149   21.0175  -33.9949 H   0  0  0  0  0  0  0  0  0  0  0  0
   -8.5514   23.1354  -31.5184 H   0  0  0  0  0  0  0  0  0  0  0  0
  -10.4509   21.5190  -31.5445 H   0  0  0  0  0  0  0  0  0  0  0  0
  -10.0863   19.1688  -32.3068 H   0  0  0  0  0  0  0  0  0  0  0  0
   -7.8159   18.4332  -33.0406 H   0  0  0  0  0  0  0  0  0  0  0  0
   -5.9151   20.0472  -33.0396 H   0  0  0  0  0  0  0  0  0  0  0  0
  1  2  1  0
  2  3  1  0
  3  4  1  0
  4  5  1  0
  5  6  1  0
  6  7  1  0
  7  8  2  0
  7  9  1  0
  9 10  1  0
 10 11  1  0
 11 12  2  0
 12 13  1  0
 13 14  2  0
 14 15  1  0
 15 16  2  0
 15 17  1  0
 17 18  2  0
 18 19  1  0
 19 20  2  0
 20 21  1  0
 21 22  2  0
 14 10  1  0
 22 17  1  0
  1 23  1  0
  1 24  1  0
  1 25  1  0
  3 26  1  0
  3 27  1  0
  4 28  1  0
  4 29  1  0
  5 30  1  0
  5 31  1  0
  9 32  1  0
  9 33  1  0
 11 34  1  0
 12 35  1  0
 13 36  1  0
 18 37  1  0
 19 38  1  0
 20 39  1  0
 21 40  1  0
 22 41  1  0
M  CHG  1   6  -1
M  END
>  <UniqueID>  (18) 
17

>  <SMILES>  (18) 
COCCC[N-]C(=O)Cn1cccc1C(=O)c1ccccc1

>  <Energy>  (18) 
65.88864390819434

>  <Genealogy>  (18) 
COCCC[N-]C(=O)Cn1cccc1C(=O)c1ccccc1 (protonated)
COCCC[N-]C(=O)Cn1cccc1C(=O)c1ccccc1 (3D coordinates assigned)
COCCC[N-]C(=O)Cn1cccc1C(=O)c1ccccc1 (optimized conformer: 65.88864390819434 kcal/mol)

>  <smiles>  (18) 
COCCCNC(=O)Cn1cccc1C(=O)c1ccccc1

>  <score_type>  (18) 
oracle

>  <origin>  (18) 
adg

>  <m_score__min__energy>  (18) 
-9.7100000000000009

>  <m_primary>  (18) 
energy

$$$$
18:0
     RDKit          3D

 40 42  0  0  0  0  0  0  0  0999 V2000
   -1.4454   21.1415  -25.6799 H   0  0  0  0  0  0  0  0  0  0  0  0
   -1.6080   21.6550  -26.6390 C   0  0  0  0  0  0  0  0  0  0  0  0
   -2.3180   21.0230  -27.6560 C   0  0  0  0  0  0  0  0  0  0  0  0
   -2.8480   19.6370  -27.4640 C   0  0  0  0  0  0  0  0  0  0  0  0
   -2.9303   19.4217  -26.3884 H   0  0  0  0  0  0  0  0  0  0  0  0
   -3.8405   19.5560  -27.9312 H   0  0  0  0  0  0  0  0  0  0  0  0
   -2.1627   18.9144  -27.9312 H   0  0  0  0  0  0  0  0  0  0  0  0
   -2.5800   21.6900  -28.8070 N   0  0  0  0  0  0  0  0  0  0  0  0
   -2.1630   22.9620  -29.0440 C   0  0  0  0  0  0  0  0  0  0  0  0
   -2.5560   23.5100  -30.1630 N   0  0  0  0  0  0  0  0  0  0  0  0
   -3.8040   24.1400  -30.4860 C   0  0  0  0  0  0  0  0  0  0  0  0
   -3.8850   25.3990  -30.4780 O   0  0  0  0  0  0  0  0  0  0  0  0
   -5.0120   23.3200  -30.7350 C   0  0  0  0  0  0  0  0  0  0  0  0
   -6.2270   23.6330  -30.0990 C   0  0  0  0  0  0  0  0  0  0  0  0
   -6.2749   24.4863  -29.4064 H   0  0  0  0  0  0  0  0  0  0  0  0
   -7.3740   22.8710  -30.3380 C   0  0  0  0  0  0  0  0  0  0  0  0
   -8.3166   23.1254  -29.8313 H   0  0  0  0  0  0  0  0  0  0  0  0
   -7.3270   21.7840  -31.2210 C   0  0  0  0  0  0  0  0  0  0  0  0
   -8.4740   21.0140  -31.4690 C   0  0  0  0  0  0  0  0  0  0  0  0
   -9.4208   21.2626  -30.9673 H   0  0  0  0  0  0  0  0  0  0  0  0
   -8.4160   19.9320  -32.3520 C   0  0  0  0  0  0  0  0  0  0  0  0
   -9.3171   19.3305  -32.5423 H   0  0  0  0  0  0  0  0  0  0  0  0
   -7.2160   19.6120  -32.9940 C   0  0  0  0  0  0  0  0  0  0  0  0
   -7.1754   18.7600  -33.6885 H   0  0  0  0  0  0  0  0  0  0  0  0
   -6.0670   20.3730  -32.7550 C   0  0  0  0  0  0  0  0  0  0  0  0
   -5.1254   20.1180  -33.2632 H   0  0  0  0  0  0  0  0  0  0  0  0
   -6.1110   21.4610  -31.8690 C   0  0  0  0  0  0  0  0  0  0  0  0
   -4.9650   22.2300  -31.6230 C   0  0  0  0  0  0  0  0  0  0  0  0
   -4.0209   21.9789  -32.1287 H   0  0  0  0  0  0  0  0  0  0  0  0
   -1.3460   23.6130  -28.0670 C   0  0  0  0  0  0  0  0  0  0  0  0
   -0.6000   24.8580  -28.3640 C   0  0  0  0  0  0  0  0  0  0  0  0
    0.5280   25.0570  -27.8380 O   0  0  0  0  0  0  0  0  0  0  0  0
   -1.1380   25.8250  -29.2660 N   0  0  0  0  0  0  0  0  0  0  0  0
   -0.6170   26.7070  -29.4650 H   0  0  0  0  0  0  0  0  0  0  0  0
   -2.0570   25.6620  -29.7350 H   0  0  0  0  0  0  0  0  0  0  0  0
   -1.1010   22.9450  -26.8380 C   0  0  0  0  0  0  0  0  0  0  0  0
   -0.2630   23.5690  -25.7500 C   0  0  0  0  0  0  0  0  0  0  0  0
   -0.6593   23.2739  -24.7672 H   0  0  0  0  0  0  0  0  0  0  0  0
    0.7771   23.2237  -25.8447 H   0  0  0  0  0  0  0  0  0  0  0  0
   -0.2957   24.6644  -25.8447 H   0  0  0  0  0  0  0  0  0  0  0  0
  1  2  1  0
  2  3  2  0
  3  4  1  0
  4  5  1  0
  4  6  1  0
  4  7  1  0
  3  8  1  0
  8  9  1  0
  9 10  2  0
 10 11  1  0
 11 12  2  0
 11 13  1  0
 13 14  2  0
 14 15  1  0
 14 16  1  0
 16 17  1  0
 16 18  2  0
 18 19  1  0
 19 20  1  0
 19 21  2  0
 21 22  1  0
 21 23  1  0
 23 24  1  0
 23 25  2  0
 25 26  1  0
 25 27  1  0
 27 28  2  0
 28 29  1  0
  9 30  1  0
 30 31  1  0
 31 32  2  0
 31 33  1  0
 33 34  1  0
 33 35  1  0
 30 36  2  0
 36 37  1  0
 37 38  1  0
 37 39  1  0
 37 40  1  0
 36  2  1  0
 28 13  1  0
 27 18  1  0
M  CHG  1   8  -1
M  END
>  <UniqueID>  (19) 
18

>  <SMILES>  (19) 
Cc1cc(C)c(C(N)=O)/c(=N\C(=O)c2ccc3ccccc3c2)[n-]1

>  <Energy>  (19) 
66.30453987350107

>  <Genealogy>  (19) 
Cc1cc(C)c(C(N)=O)c(=NC(=O)c2ccc3ccccc3c2)[n-]1 (protonated)
Cc1cc(C)c(C(N)=O)/c(=N\C(=O)c2ccc3ccccc3c2)[n-]1 (cis-trans isomerization)
Cc1cc(C)c(C(N)=O)/c(=N\C(=O)c2ccc3ccccc3c2)[n-]1 (3D coordinates assigned)
Cc1cc(C)c(C(N)=O)/c(=N\C(=O)c2ccc3ccccc3c2)[n-]1 (optimized conformer: 66.30453987350107 kcal/mol)

>  <smiles>  (19) 
Cc1cc(C)c(C(N)=O)c(=NC(=O)c2ccc3ccccc3c2)[nH]1

>  <score_type>  (19) 
oracle

>  <origin>  (19) 
adg

>  <m_score__min__energy>  (19) 
-10.4

>  <m_primary>  (19) 
energy

$$$$
19:0
     RDKit          3D

 54 56  0  0  0  0  0  0  0  0999 V2000
   -6.4710   25.6740  -29.4180 C   0  0  0  0  0  0  0  0  0  0  0  0
   -5.4240   24.5640  -29.3120 C   0  0  0  0  0  0  0  0  0  0  0  0
   -4.4240   24.5430  -30.4840 C   0  0  0  0  0  0  0  0  0  0  0  0
   -4.3830   23.2810  -31.2570 N   0  0  0  0  0  0  0  0  0  0  0  0
   -3.8530   22.0960  -30.5500 C   0  0  0  0  0  0  0  0  0  0  0  0
   -2.4240   21.8110  -31.0190 C   0  0  0  0  0  0  0  0  0  0  0  0
   -2.4090   21.2270  -32.4280 C   0  0  0  0  0  0  0  0  0  0  0  0
   -5.3590   23.0050  -32.3490 C   0  0  2  0  0  0  0  0  0  0  0  0
   -6.5720   23.9610  -32.3430 C   0  0  0  0  0  0  0  0  0  0  0  0
   -7.7690   23.4480  -31.5410 C   0  0  0  0  0  0  0  0  0  0  0  0
   -8.1360   22.0510  -31.9220 C   0  0  0  0  0  0  0  0  0  0  0  0
   -9.4290   21.6520  -31.7860 N   0  0  0  0  0  0  0  0  0  0  0  0
   -9.8090   20.4000  -32.0340 N   0  0  0  0  0  0  0  0  0  0  0  0
   -8.9180   19.4550  -32.4180 C   0  0  0  0  0  0  0  0  0  0  0  0
   -7.5710   19.7910  -32.5570 C   0  0  0  0  0  0  0  0  0  0  0  0
   -6.6190   18.7820  -32.9190 N   0  0  0  0  0  0  0  0  0  0  0  0
   -5.8870   18.8920  -34.1830 C   0  0  0  0  0  0  0  0  0  0  0  0
   -5.7390   17.5120  -34.8630 C   0  0  0  0  0  0  0  0  0  0  0  0
   -5.8560   16.3700  -33.9350 N   0  0  0  0  0  0  0  0  0  0  0  0
   -5.3620   16.6910  -32.5910 C   0  0  0  0  0  0  0  0  0  0  0  0
   -6.2460   17.7600  -31.9390 C   0  0  0  0  0  0  0  0  0  0  0  0
   -7.1620   21.1170  -32.3200 C   0  0  0  0  0  0  0  0  0  0  0  0
   -5.7090   21.4990  -32.5080 C   0  0  0  0  0  0  0  0  0  0  0  0
   -6.7713   25.9924  -28.4088 H   0  0  0  0  0  0  0  0  0  0  0  0
   -6.0440   26.5302  -29.9607 H   0  0  0  0  0  0  0  0  0  0  0  0
   -7.3507   25.2977  -29.9607 H   0  0  0  0  0  0  0  0  0  0  0  0
   -4.8612   24.7054  -28.3775 H   0  0  0  0  0  0  0  0  0  0  0  0
   -5.9661   23.6071  -29.3343 H   0  0  0  0  0  0  0  0  0  0  0  0
   -4.6923   25.3561  -31.1745 H   0  0  0  0  0  0  0  0  0  0  0  0
   -3.4263   24.6578  -30.0352 H   0  0  0  0  0  0  0  0  0  0  0  0
   -3.8509   22.2873  -29.4668 H   0  0  0  0  0  0  0  0  0  0  0  0
   -4.4889   21.2259  -30.7705 H   0  0  0  0  0  0  0  0  0  0  0  0
   -1.8514   22.7502  -31.0143 H   0  0  0  0  0  0  0  0  0  0  0  0
   -1.9738   21.0772  -30.3343 H   0  0  0  0  0  0  0  0  0  0  0  0
   -2.3808   20.1289  -32.3695 H   0  0  0  0  0  0  0  0  0  0  0  0
   -3.3155   21.5424  -32.9653 H   0  0  0  0  0  0  0  0  0  0  0  0
   -1.5198   21.5885  -32.9653 H   0  0  0  0  0  0  0  0  0  0  0  0
   -4.8343   23.2480  -33.2847 H   0  0  0  0  0  0  0  0  0  0  0  0
   -6.2528   24.9209  -31.9109 H   0  0  0  0  0  0  0  0  0  0  0  0
   -6.9067   24.0544  -33.3867 H   0  0  0  0  0  0  0  0  0  0  0  0
   -7.5160   23.4701  -30.4707 H   0  0  0  0  0  0  0  0  0  0  0  0
   -8.6293   24.0982  -31.7581 H   0  0  0  0  0  0  0  0  0  0  0  0
   -9.2548   18.4274  -32.6194 H   0  0  0  0  0  0  0  0  0  0  0  0
   -6.4339   19.5677  -34.8571 H   0  0  0  0  0  0  0  0  0  0  0  0
   -4.8822   19.2864  -33.9713 H   0  0  0  0  0  0  0  0  0  0  0  0
   -6.5234   17.4176  -35.6284 H   0  0  0  0  0  0  0  0  0  0  0  0
   -4.7254   17.4739  -35.2885 H   0  0  0  0  0  0  0  0  0  0  0  0
   -6.8650   16.0940  -33.8630 H   0  0  0  0  0  0  0  0  0  0  0  0
   -5.3768   15.7815  -31.9724 H   0  0  0  0  0  0  0  0  0  0  0  0
   -4.3349   17.0767  -32.6706 H   0  0  0  0  0  0  0  0  0  0  0  0
   -7.1571   17.2859  -31.5453 H   0  0  0  0  0  0  0  0  0  0  0  0
   -5.6847   18.2373  -31.1222 H   0  0  0  0  0  0  0  0  0  0  0  0
   -5.1183   20.9392  -31.7679 H   0  0  0  0  0  0  0  0  0  0  0  0
   -5.4788   21.2569  -33.5560 H   0  0  0  0  0  0  0  0  0  0  0  0
  1  2  1  0
  2  3  1  0
  3  4  1  0
  4  5  1  0
  5  6  1  0
  6  7  1  0
  4  8  1  0
  8  9  1  0
  9 10  1  0
 10 11  1  0
 11 12  2  0
 12 13  1  0
 13 14  2  0
 14 15  1  0
 15 16  1  0
 16 17  1  0
 17 18  1  0
 18 19  1  0
 19 20  1  0
 20 21  1  0
 15 22  2  0
 22 23  1  0
 23  8  1  0
 22 11  1  0
 21 16  1  0
  1 24  1  0
  1 25  1  0
  1 26  1  0
  2 27  1  0
  2 28  1  0
  3 29  1  0
  3 30  1  0
  5 31  1  0
  5 32  1  0
  6 33  1  0
  6 34  1  0
  7 35  1  0
  7 36  1  0
  7 37  1  0
  8 38  1  6
  9 39  1  0
  9 40  1  0
 10 41  1  0
 10 42  1  0
 14 43  1  0
 17 44  1  0
 17 45  1  0
 18 46  1  0
 18 47  1  0
 19 48  1  0
 20 49  1  0
 20 50  1  0
 21 51  1  0
 21 52  1  0
 23 53  1  0
 23 54  1  0
M  END
>  <UniqueID>  (20) 
19

>  <SMILES>  (20) 
CCCN(CCC)[C@@H]1CCc2nncc(N3CCNCC3)c2C1

>  <Energy>  (20) 
76.74618865729914

>  <Genealogy>  (20) 
CCCN(CCC)[C@@H]1CCc2nncc(N3CCNCC3)c2C1 (chirality)
CCCN(CCC)[C@@H]1CCc2nncc(N3CCNCC3)c2C1 (3D coordinates assigned)
CCCN(CCC)[C@@H]1CCc2nncc(N3CCNCC3)c2C1 (nonaromatic ring conformer: 76.74618865729914 kcal/mol)

>  <smiles>  (20) 
CCCN(CCC)C1CCc2nncc(N3CCNCC3)c2C1

>  <score_type>  (20) 
oracle

>  <origin>  (20) 
adg

>  <m_score__min__energy>  (20) 
-8.4499999999999993

>  <m_primary>  (20) 
energy

$$$$
20:0
     RDKit          3D

 48 49  0  0  0  0  0  0  0  0999 V2000
   -5.8120   17.6300  -34.9630 C   0  0  0  0  0  0  0  0  0  0  0  0
   -4.6490   18.5400  -34.5510 C   0  0  0  0  0  0  0  0  0  0  0  0
   -4.1300   18.2220  -33.1930 N   0  0  0  0  0  0  0  0  0  0  0  0
   -2.6630   18.4680  -33.1390 C   0  0  0  0  0  0  0  0  0  0  0  0
   -2.2420   19.6520  -34.0170 C   0  0  0  0  0  0  0  0  0  0  0  0
   -4.4270   16.8030  -32.8510 C   0  0  0  0  0  0  0  0  0  0  0  0
   -5.6960   16.6430  -31.9900 C   0  0  0  0  0  0  0  0  0  0  0  0
   -6.0470   17.8860  -31.2960 N   0  0  0  0  0  0  0  0  0  0  0  0
   -7.1320   18.7440  -31.7190 C   0  0  0  0  0  0  0  0  0  0  0  0
   -8.4360   18.2220  -31.8690 C   0  0  0  0  0  0  0  0  0  0  0  0
   -9.4870   19.0320  -32.3000 C   0  0  0  0  0  0  0  0  0  0  0  0
   -9.2620   20.3760  -32.5850 C   0  0  0  0  0  0  0  0  0  0  0  0
   -7.9870   20.9180  -32.4330 C   0  0  0  0  0  0  0  0  0  0  0  0
   -6.9140   20.1210  -31.9990 C   0  0  0  0  0  0  0  0  0  0  0  0
   -5.3380   20.8970  -31.7520 S   0  0  0  0  0  0  0  0  0  0  0  0
   -4.6170   21.0450  -33.0620 O   0  0  0  0  0  0  0  0  0  0  0  0
   -4.5090   20.0350  -30.8430 O   0  0  0  0  0  0  0  0  0  0  0  0
   -5.5490   22.5040  -31.0590 C   0  0  0  0  0  0  0  0  0  0  0  0
   -6.7390   22.8400  -30.3970 C   0  0  0  0  0  0  0  0  0  0  0  0
   -6.9090   24.1210  -29.8640 C   0  0  0  0  0  0  0  0  0  0  0  0
   -5.8940   25.0720  -29.9900 C   0  0  0  0  0  0  0  0  0  0  0  0
   -4.7110   24.7460  -30.6590 C   0  0  0  0  0  0  0  0  0  0  0  0
   -4.5390   23.4660  -31.1960 C   0  0  0  0  0  0  0  0  0  0  0  0
   -6.3096   17.2406  -34.0626 H   0  0  0  0  0  0  0  0  0  0  0  0
   -6.5339   18.2056  -35.5610 H   0  0  0  0  0  0  0  0  0  0  0  0
   -5.4269   16.7909  -35.5610 H   0  0  0  0  0  0  0  0  0  0  0  0
   -3.8322   18.4196  -35.2779 H   0  0  0  0  0  0  0  0  0  0  0  0
   -5.0242   19.5739  -34.5318 H   0  0  0  0  0  0  0  0  0  0  0  0
   -4.6020   18.8480  -32.4970 H   0  0  0  0  0  0  0  0  0  0  0  0
   -2.3773   18.6796  -32.0980 H   0  0  0  0  0  0  0  0  0  0  0  0
   -2.1555   17.5688  -33.5184 H   0  0  0  0  0  0  0  0  0  0  0  0
   -1.9423   20.4949  -33.3769 H   0  0  0  0  0  0  0  0  0  0  0  0
   -1.3946   19.3545  -34.6521 H   0  0  0  0  0  0  0  0  0  0  0  0
   -3.0870   19.9563  -34.6521 H   0  0  0  0  0  0  0  0  0  0  0  0
   -4.5640   16.2387  -33.7852 H   0  0  0  0  0  0  0  0  0  0  0  0
   -3.5797   16.4226  -32.2616 H   0  0  0  0  0  0  0  0  0  0  0  0
   -6.5330   16.3509  -32.6413 H   0  0  0  0  0  0  0  0  0  0  0  0
   -5.4971   15.8731  -31.2300 H   0  0  0  0  0  0  0  0  0  0  0  0
   -5.4730   18.1570  -30.4690 H   0  0  0  0  0  0  0  0  0  0  0  0
   -8.6254   17.1623  -31.6429 H   0  0  0  0  0  0  0  0  0  0  0  0
  -10.4954   18.6079  -32.4149 H   0  0  0  0  0  0  0  0  0  0  0  0
  -10.0913   21.0108  -32.9305 H   0  0  0  0  0  0  0  0  0  0  0  0
   -7.8186   21.9821  -32.6553 H   0  0  0  0  0  0  0  0  0  0  0  0
   -7.5407   22.0934  -30.2970 H   0  0  0  0  0  0  0  0  0  0  0  0
   -7.8434   24.3803  -29.3447 H   0  0  0  0  0  0  0  0  0  0  0  0
   -6.0256   26.0771  -29.5629 H   0  0  0  0  0  0  0  0  0  0  0  0
   -3.9141   25.4971  -30.7634 H   0  0  0  0  0  0  0  0  0  0  0  0
   -3.6092   23.2139  -31.7269 H   0  0  0  0  0  0  0  0  0  0  0  0
  1  2  1  0
  2  3  1  0
  3  4  1  0
  4  5  1  0
  3  6  1  0
  6  7  1  0
  7  8  1  0
  8  9  1  0
  9 10  2  0
 10 11  1  0
 11 12  2  0
 12 13  1  0
 13 14  2  0
 14 15  1  0
 15 16  2  0
 15 17  2  0
 15 18  1  0
 18 19  2  0
 19 20  1  0
 20 21  2  0
 21 22  1  0
 22 23  2  0
 14  9  1  0
 23 18  1  0
  1 24  1  0
  1 25  1  0
  1 26  1  0
  2 27  1  0
  2 28  1  0
  3 29  1  0
  4 30  1  0
  4 31  1  0
  5 32  1  0
  5 33  1  0
  5 34  1  0
  6 35  1  0
  6 36  1  0
  7 37  1  0
  7 38  1  0
  8 39  1  0
 10 40  1  0
 11 41  1  0
 12 42  1  0
 13 43  1  0
 19 44  1  0
 20 45  1  0
 21 46  1  0
 22 47  1  0
 23 48  1  0
M  CHG  1   3   1
M  END
>  <UniqueID>  (21) 
20

>  <SMILES>  (21) 
CC[NH+](CC)CCNc1ccccc1S(=O)(=O)c1ccccc1

>  <Energy>  (21) 
49.072484826801244

>  <Genealogy>  (21) 
CC[NH+](CC)CCNc1ccccc1S(=O)(=O)c1ccccc1 (protonated)
CC[NH+](CC)CCNc1ccccc1S(=O)(=O)c1ccccc1 (3D coordinates assigned)
CC[NH+](CC)CCNc1ccccc1S(=O)(=O)c1ccccc1 (optimized conformer: 49.072484826801244 kcal/mol)

>  <smiles>  (21) 
CCN(CC)CCNc1ccccc1S(=O)(=O)c1ccccc1

>  <score_type>  (21) 
oracle

>  <origin>  (21) 
adg

>  <m_score__min__energy>  (21) 
-7.46

>  <m_primary>  (21) 
energy

$$$$
21:0
     RDKit          3D

 44 46  0  0  0  0  0  0  0  0999 V2000
   -5.2220   25.6780  -30.5260 C   0  0  0  0  0  0  0  0  0  0  0  0
   -3.8610   25.2950  -30.3540 O   0  0  0  0  0  0  0  0  0  0  0  0
   -3.4160   24.2710  -29.5010 C   0  0  0  0  0  0  0  0  0  0  0  0
   -3.0770   24.5420  -28.1590 C   0  0  0  0  0  0  0  0  0  0  0  0
   -2.6430   23.5210  -27.3140 C   0  0  0  0  0  0  0  0  0  0  0  0
   -2.5480   22.2180  -27.7890 C   0  0  0  0  0  0  0  0  0  0  0  0
   -2.8850   21.9260  -29.1100 C   0  0  0  0  0  0  0  0  0  0  0  0
   -3.3100   22.9420  -29.9940 C   0  0  0  0  0  0  0  0  0  0  0  0
   -3.6620   22.6080  -31.4110 C   0  0  0  0  0  0  0  0  0  0  0  0
   -4.6110   23.2080  -31.9850 O   0  0  0  0  0  0  0  0  0  0  0  0
   -2.8980   21.6170  -32.2020 C   0  0  0  0  0  0  0  0  0  0  0  0
   -1.5110   21.5250  -31.9910 C   0  0  0  0  0  0  0  0  0  0  0  0
   -0.7350   20.6280  -32.7250 C   0  0  0  0  0  0  0  0  0  0  0  0
   -1.3290   19.8230  -33.6950 C   0  0  0  0  0  0  0  0  0  0  0  0
   -2.7000   19.9160  -33.9380 C   0  0  0  0  0  0  0  0  0  0  0  0
   -3.5060   20.8110  -33.2060 C   0  0  0  0  0  0  0  0  0  0  0  0
   -4.9240   20.8740  -33.4990 N   0  0  0  0  0  0  0  0  0  0  0  0
   -5.7030   19.9430  -32.6650 C   0  0  0  0  0  0  0  0  0  0  0  0
   -7.0440   20.5140  -32.2740 C   0  0  0  0  0  0  0  0  0  0  0  0
   -7.1190   21.7340  -31.5800 C   0  0  0  0  0  0  0  0  0  0  0  0
   -8.3620   22.2840  -31.2540 C   0  0  0  0  0  0  0  0  0  0  0  0
   -9.5380   21.6280  -31.6260 C   0  0  0  0  0  0  0  0  0  0  0  0
   -9.4720   20.4110  -32.3110 C   0  0  0  0  0  0  0  0  0  0  0  0
   -8.2310   19.8500  -32.6270 C   0  0  0  0  0  0  0  0  0  0  0  0
   -5.6929   25.8105  -29.5408 H   0  0  0  0  0  0  0  0  0  0  0  0
   -5.2688   26.6242  -31.0850 H   0  0  0  0  0  0  0  0  0  0  0  0
   -5.7554   24.8951  -31.0850 H   0  0  0  0  0  0  0  0  0  0  0  0
   -3.1558   25.5697  -27.7748 H   0  0  0  0  0  0  0  0  0  0  0  0
   -2.3757   23.7468  -26.2711 H   0  0  0  0  0  0  0  0  0  0  0  0
   -2.2057   21.4145  -27.1203 H   0  0  0  0  0  0  0  0  0  0  0  0
   -2.8188   20.8884  -29.4691 H   0  0  0  0  0  0  0  0  0  0  0  0
   -1.0321   22.1681  -31.2380 H   0  0  0  0  0  0  0  0  0  0  0  0
    0.3466   20.5560  -32.5380 H   0  0  0  0  0  0  0  0  0  0  0  0
   -0.7163   19.1132  -34.2700 H   0  0  0  0  0  0  0  0  0  0  0  0
   -3.1580   19.2820  -34.7115 H   0  0  0  0  0  0  0  0  0  0  0  0
   -5.0620   20.6050  -34.5020 H   0  0  0  0  0  0  0  0  0  0  0  0
   -5.3110   21.8380  -33.4080 H   0  0  0  0  0  0  0  0  0  0  0  0
   -5.8649   19.0127  -33.2291 H   0  0  0  0  0  0  0  0  0  0  0  0
   -5.1328   19.7577  -31.7427 H   0  0  0  0  0  0  0  0  0  0  0  0
   -6.1957   22.2581  -31.2922 H   0  0  0  0  0  0  0  0  0  0  0  0
   -8.4143   23.2350  -30.7036 H   0  0  0  0  0  0  0  0  0  0  0  0
  -10.5154   22.0688  -31.3801 H   0  0  0  0  0  0  0  0  0  0  0  0
  -10.3983   19.8939  -32.6019 H   0  0  0  0  0  0  0  0  0  0  0  0
   -8.1837   18.8855  -33.1538 H   0  0  0  0  0  0  0  0  0  0  0  0
  1  2  1  0
  2  3  1  0
  3  4  2  0
  4  5  1  0
  5  6  2  0
  6  7  1  0
  7  8  2  0
  8  9  1  0
  9 10  2  0
  9 11  1  0
 11 12  2  0
 12 13  1  0
 13 14  2  0
 14 15  1  0
 15 16  2  0
 16 17  1  0
 17 18  1  0
 18 19  1  0
 19 20  2  0
 20 21  1  0
 21 22  2  0
 22 23  1  0
 23 24  2  0
  8  3  1  0
 16 11  1  0
 24 19  1  0
  1 25  1  0
  1 26  1  0
  1 27  1  0
  4 28  1  0
  5 29  1  0
  6 30  1  0
  7 31  1  0
 12 32  1  0
 13 33  1  0
 14 34  1  0
 15 35  1  0
 17 36  1  0
 17 37  1  0
 18 38  1  0
 18 39  1  0
 20 40  1  0
 21 41  1  0
 22 42  1  0
 23 43  1  0
 24 44  1  0
M  CHG  1  17   1
M  END
>  <UniqueID>  (22) 
21

>  <SMILES>  (22) 
COc1ccccc1C(=O)c1ccccc1[NH2+]Cc1ccccc1

>  <Energy>  (22) 
54.8125471492525

>  <Genealogy>  (22) 
COc1ccccc1C(=O)c1ccccc1[NH2+]Cc1ccccc1 (protonated)
COc1ccccc1C(=O)c1ccccc1[NH2+]Cc1ccccc1 (3D coordinates assigned)
COc1ccccc1C(=O)c1ccccc1[NH2+]Cc1ccccc1 (optimized conformer: 54.8125471492525 kcal/mol)

>  <smiles>  (22) 
COc1ccccc1C(=O)c1ccccc1NCc1ccccc1

>  <score_type>  (22) 
oracle

>  <origin>  (22) 
adg

>  <m_score__min__energy>  (22) 
-8.2799999999999994

>  <m_primary>  (22) 
energy

$$$$
22:0
     RDKit          3D

 56 58  0  0  0  0  0  0  0  0999 V2000
   -7.6134   15.9854  -33.0137 H   0  0  0  0  0  0  0  0  0  0  0  0
   -7.2430   17.0210  -33.0300 C   0  0  0  0  0  0  0  0  0  0  0  0
   -6.1130   17.3440  -33.7860 C   0  0  0  0  0  0  0  0  0  0  0  0
   -5.5959   16.5619  -34.3613 H   0  0  0  0  0  0  0  0  0  0  0  0
   -5.6380   18.6590  -33.8130 C   0  0  0  0  0  0  0  0  0  0  0  0
   -4.7491   18.9091  -34.4107 H   0  0  0  0  0  0  0  0  0  0  0  0
   -6.2930   19.6610  -33.0790 C   0  0  0  0  0  0  0  0  0  0  0  0
   -5.8240   20.9830  -33.0990 C   0  0  0  0  0  0  0  0  0  0  0  0
   -4.9367   21.2393  -33.6965 H   0  0  0  0  0  0  0  0  0  0  0  0
   -6.4830   21.9850  -32.3580 C   0  0  0  0  0  0  0  0  0  0  0  0
   -6.0220   23.3480  -32.3630 N   0  0  0  0  0  0  0  0  0  0  0  0
   -5.8190   23.8170  -33.2750 H   0  0  0  0  0  0  0  0  0  0  0  0
   -5.7390   24.0850  -31.1660 C   0  0  0  0  0  0  0  0  0  0  0  0
   -6.6960   24.6590  -30.4970 N   0  0  0  0  0  0  0  0  0  0  0  0
   -6.4840   25.5200  -29.3400 C   0  0  0  0  0  0  0  0  0  0  0  0
   -6.6275   24.9373  -28.4181 H   0  0  0  0  0  0  0  0  0  0  0  0
   -5.4602   25.9215  -29.3644 H   0  0  0  0  0  0  0  0  0  0  0  0
   -7.2044   26.3509  -29.3644 H   0  0  0  0  0  0  0  0  0  0  0  0
   -4.3490   24.2040  -30.6890 C   0  0  0  0  0  0  0  0  0  0  0  0
   -3.8720   25.3470  -30.4470 O   0  0  0  0  0  0  0  0  0  0  0  0
   -3.5390   23.0350  -30.4920 N   0  0  0  0  0  0  0  0  0  0  0  0
   -3.8990   22.1000  -30.7900 H   0  0  0  0  0  0  0  0  0  0  0  0
   -2.1890   23.1000  -29.9350 C   0  0  0  0  0  0  0  0  0  0  0  0
   -1.4761   23.3370  -30.7385 H   0  0  0  0  0  0  0  0  0  0  0  0
   -2.1586   23.8813  -29.1613 H   0  0  0  0  0  0  0  0  0  0  0  0
   -1.8090   21.7570  -29.3020 C   0  0  0  0  0  0  0  0  0  0  0  0
   -0.7138   21.7095  -29.2107 H   0  0  0  0  0  0  0  0  0  0  0  0
   -2.3046   21.7025  -28.3215 H   0  0  0  0  0  0  0  0  0  0  0  0
   -2.2840   20.5530  -30.1250 C   0  0  0  0  0  0  0  0  0  0  0  0
   -1.6168   19.6997  -29.9336 H   0  0  0  0  0  0  0  0  0  0  0  0
   -3.3145   20.3079  -29.8282 H   0  0  0  0  0  0  0  0  0  0  0  0
   -2.2690   20.8660  -31.5740 N   0  0  0  0  0  0  0  0  0  0  0  0
   -0.9170   21.2300  -32.0750 C   0  0  0  0  0  0  0  0  0  0  0  0
   -1.0024   22.1326  -32.6979 H   0  0  0  0  0  0  0  0  0  0  0  0
   -0.2710   21.4024  -31.2015 H   0  0  0  0  0  0  0  0  0  0  0  0
   -0.2820   20.1110  -32.9130 C   0  0  0  0  0  0  0  0  0  0  0  0
    0.7152   20.4341  -33.2465 H   0  0  0  0  0  0  0  0  0  0  0  0
   -0.2083   19.2077  -32.2897 H   0  0  0  0  0  0  0  0  0  0  0  0
   -1.1100   19.7960  -34.1000 N   0  0  0  0  0  0  0  0  0  0  0  0
   -0.7620   18.4670  -34.6260 C   0  0  0  0  0  0  0  0  0  0  0  0
   -0.5813   17.7770  -33.7886 H   0  0  0  0  0  0  0  0  0  0  0  0
   -1.5911   18.0876  -35.2414 H   0  0  0  0  0  0  0  0  0  0  0  0
    0.1466   18.5426  -35.2414 H   0  0  0  0  0  0  0  0  0  0  0  0
   -2.5700   19.9160  -33.8560 C   0  0  0  0  0  0  0  0  0  0  0  0
   -2.9110   20.8950  -34.2240 H   0  0  0  0  0  0  0  0  0  0  0  0
   -3.0690   19.0917  -34.3866 H   0  0  0  0  0  0  0  0  0  0  0  0
   -2.9230   19.7980  -32.3660 C   0  0  0  0  0  0  0  0  0  0  0  0
   -4.0135   19.8806  -32.2480 H   0  0  0  0  0  0  0  0  0  0  0  0
   -2.5657   18.8243  -31.9995 H   0  0  0  0  0  0  0  0  0  0  0  0
   -7.6180   21.6460  -31.6060 C   0  0  0  0  0  0  0  0  0  0  0  0
   -8.1403   22.4233  -31.0290 H   0  0  0  0  0  0  0  0  0  0  0  0
   -8.0920   20.3320  -31.5820 C   0  0  0  0  0  0  0  0  0  0  0  0
   -8.9827   20.0815  -30.9871 H   0  0  0  0  0  0  0  0  0  0  0  0
   -7.4370   19.3320  -32.3130 C   0  0  0  0  0  0  0  0  0  0  0  0
   -7.9050   18.0090  -32.2940 C   0  0  0  0  0  0  0  0  0  0  0  0
   -8.7933   17.7489  -31.6997 H   0  0  0  0  0  0  0  0  0  0  0  0
  1  2  1  0
  2  3  2  0
  3  4  1  0
  3  5  1  0
  5  6  1  0
  5  7  2  0
  7  8  1  0
  8  9  1  0
  8 10  2  0
 10 11  1  0
 11 12  1  0
 11 13  1  0
 13 14  2  0
 14 15  1  0
 15 16  1  0
 15 17  1  0
 15 18  1  0
 13 19  1  0
 19 20  2  0
 19 21  1  0
 21 22  1  0
 21 23  1  0
 23 24  1  0
 23 25  1  0
 23 26  1  0
 26 27  1  0
 26 28  1  0
 26 29  1  0
 29 30  1  0
 29 31  1  0
 29 32  1  0
 32 33  1  0
 33 34  1  0
 33 35  1  0
 33 36  1  0
 36 37  1  0
 36 38  1  0
 36 39  1  0
 39 40  1  0
 40 41  1  0
 40 42  1  0
 40 43  1  0
 39 44  1  0
 44 45  1  0
 44 46  1  0
 44 47  1  0
 47 48  1  0
 47 49  1  0
 10 50  1  0
 50 51  1  0
 50 52  2  0
 52 53  1  0
 52 54  1  0
 54 55  2  0
 55 56  1  0
 55  2  1  0
 54  7  1  0
 47 32  1  0
M  END
>  <UniqueID>  (23) 
22

>  <SMILES>  (23) 
C/N=C(\Nc1ccc2ccccc2c1)C(=O)NCCCN1CCN(C)CC1

>  <Energy>  (23) 
72.84632902458698

>  <Genealogy>  (23) 
C/N=C(\Nc1ccc2ccccc2c1)C(=O)NCCCN1CCN(C)CC1 (cis-trans isomerization)
C/N=C(\Nc1ccc2ccccc2c1)C(=O)NCCCN1CCN(C)CC1 (3D coordinates assigned)
C/N=C(\Nc1ccc2ccccc2c1)C(=O)NCCCN1CCN(C)CC1 (nonaromatic ring conformer: 72.84632902458698 kcal/mol)

>  <smiles>  (23) 
CN=C(Nc1ccc2ccccc2c1)C(=O)NCCCN1CCN(C)CC1

>  <score_type>  (23) 
oracle

>  <origin>  (23) 
adg

>  <m_score__min__energy>  (23) 
-9.6300000000000008

>  <m_primary>  (23) 
energy

$$$$
23:0
     RDKit          3D

 50 52  0  0  0  0  0  0  0  0999 V2000
   -7.8605   22.6769  -30.3115 H   0  0  0  0  0  0  0  0  0  0  0  0
   -7.2400   23.5840  -30.2650 C   0  0  0  0  0  0  0  0  0  0  0  0
   -6.5600   24.5780  -30.2140 C   0  0  0  0  0  0  0  0  0  0  0  0
   -5.7310   25.7890  -30.1500 C   0  0  0  0  0  0  0  0  0  0  0  0
   -6.1408   26.5429  -30.8383 H   0  0  0  0  0  0  0  0  0  0  0  0
   -5.7398   26.1671  -29.1171 H   0  0  0  0  0  0  0  0  0  0  0  0
   -4.3520   25.4960  -30.5280 N   0  0  0  0  0  0  0  0  0  0  0  0
   -3.4910   24.5520  -30.2380 C   0  0  0  0  0  0  0  0  0  0  0  0
   -2.4610   24.9360  -29.4350 N   0  0  0  0  0  0  0  0  0  0  0  0
   -1.5220   24.0900  -28.9550 C   0  0  0  0  0  0  0  0  0  0  0  0
   -0.7074   24.4735  -28.3231 H   0  0  0  0  0  0  0  0  0  0  0  0
   -1.5860   22.7410  -29.2590 C   0  0  0  0  0  0  0  0  0  0  0  0
   -0.8450   22.0436  -28.8412 H   0  0  0  0  0  0  0  0  0  0  0  0
   -2.5980   22.2710  -30.1000 C   0  0  0  0  0  0  0  0  0  0  0  0
   -2.6340   20.9050  -30.4140 C   0  0  0  0  0  0  0  0  0  0  0  0
   -1.8948   20.2232  -29.9682 H   0  0  0  0  0  0  0  0  0  0  0  0
   -3.5960   20.4050  -31.2840 C   0  0  0  0  0  0  0  0  0  0  0  0
   -3.6284   19.3281  -31.5061 H   0  0  0  0  0  0  0  0  0  0  0  0
   -4.5250   21.2700  -31.8790 C   0  0  0  0  0  0  0  0  0  0  0  0
   -5.4970   20.8240  -32.7920 O   0  0  0  0  0  0  0  0  0  0  0  0
   -6.8850   21.1570  -32.7580 C   0  0  0  0  0  0  0  0  0  0  0  0
   -7.1351   21.5634  -31.7669 H   0  0  0  0  0  0  0  0  0  0  0  0
   -7.0896   21.9047  -33.5385 H   0  0  0  0  0  0  0  0  0  0  0  0
   -7.7440   19.9160  -33.0250 C   0  0  0  0  0  0  0  0  0  0  0  0
   -8.8060   20.1876  -32.9330 H   0  0  0  0  0  0  0  0  0  0  0  0
   -7.5246   19.5510  -34.0392 H   0  0  0  0  0  0  0  0  0  0  0  0
   -7.4240   18.7950  -32.0230 C   0  0  0  0  0  0  0  0  0  0  0  0
   -6.6859   19.1653  -31.2963 H   0  0  0  0  0  0  0  0  0  0  0  0
   -8.3582   18.5052  -31.5197 H   0  0  0  0  0  0  0  0  0  0  0  0
   -6.8730   17.6010  -32.7020 N   0  0  0  0  0  0  0  0  0  0  0  0
   -5.7690   16.9860  -31.9190 C   0  0  0  0  0  0  0  0  0  0  0  0
   -5.1825   17.7855  -31.4428 H   0  0  0  0  0  0  0  0  0  0  0  0
   -6.2151   16.3194  -31.1663 H   0  0  0  0  0  0  0  0  0  0  0  0
   -4.8370   16.1470  -32.8050 C   0  0  0  0  0  0  0  0  0  0  0  0
   -4.0463   15.7131  -32.1752 H   0  0  0  0  0  0  0  0  0  0  0  0
   -5.4434   15.3647  -33.2849 H   0  0  0  0  0  0  0  0  0  0  0  0
   -4.2040   16.9520  -33.8780 N   0  0  0  0  0  0  0  0  0  0  0  0
   -2.8260   17.3280  -33.5260 C   0  0  0  0  0  0  0  0  0  0  0  0
   -2.7219   17.3564  -32.4313 H   0  0  0  0  0  0  0  0  0  0  0  0
   -2.1264   16.5879  -33.9417 H   0  0  0  0  0  0  0  0  0  0  0  0
   -2.5993   18.3208  -33.9417 H   0  0  0  0  0  0  0  0  0  0  0  0
   -4.9850   18.1520  -34.2560 C   0  0  0  0  0  0  0  0  0  0  0  0
   -4.6925   18.9896  -33.6057 H   0  0  0  0  0  0  0  0  0  0  0  0
   -4.7742   18.3862  -35.3099 H   0  0  0  0  0  0  0  0  0  0  0  0
   -6.4930   17.9050  -34.1060 C   0  0  0  0  0  0  0  0  0  0  0  0
   -7.0341   18.8052  -34.4328 H   0  0  0  0  0  0  0  0  0  0  0  0
   -6.7566   17.0342  -34.7243 H   0  0  0  0  0  0  0  0  0  0  0  0
   -4.4970   22.6330  -31.5630 C   0  0  0  0  0  0  0  0  0  0  0  0
   -5.2197   23.3076  -32.0452 H   0  0  0  0  0  0  0  0  0  0  0  0
   -3.5650   23.1700  -30.6400 C   0  0  0  0  0  0  0  0  0  0  0  0
  1  2  1  0
  2  3  3  0
  3  4  1  0
  4  5  1  0
  4  6  1  0
  4  7  1  0
  7  8  2  0
  8  9  1  0
  9 10  1  0
 10 11  1  0
 10 12  2  0
 12 13  1  0
 12 14  1  0
 14 15  2  0
 15 16  1  0
 15 17  1  0
 17 18  1  0
 17 19  2  0
 19 20  1  0
 20 21  1  0
 21 22  1  0
 21 23  1  0
 21 24  1  0
 24 25  1  0
 24 26  1  0
 24 27  1  0
 27 28  1  0
 27 29  1  0
 27 30  1  0
 30 31  1  0
 31 32  1  0
 31 33  1  0
 31 34  1  0
 34 35  1  0
 34 36  1  0
 34 37  1  0
 37 38  1  0
 38 39  1  0
 38 40  1  0
 38 41  1  0
 37 42  1  0
 42 43  1  0
 42 44  1  0
 42 45  1  0
 45 46  1  0
 45 47  1  0
 19 48  1  0
 48 49  1  0
 48 50  2  0
 50  8  1  0
 50 14  1  0
 45 30  1  0
M  CHG  1   9  -1
M  END
>  <UniqueID>  (24) 
23

>  <SMILES>  (24) 
C#CC/N=c1/[n-]ccc2ccc(OCCCN3CCN(C)CC3)cc12

>  <Energy>  (24) 
79.26931857096918

>  <Genealogy>  (24) 
C#CCN=c1[n-]ccc2ccc(OCCCN3CCN(C)CC3)cc12 (protonated)
C#CC/N=c1/[n-]ccc2ccc(OCCCN3CCN(C)CC3)cc12 (cis-trans isomerization)
C#CC/N=c1/[n-]ccc2ccc(OCCCN3CCN(C)CC3)cc12 (3D coordinates assigned)
C#CC/N=c1/[n-]ccc2ccc(OCCCN3CCN(C)CC3)cc12 (nonaromatic ring conformer: 79.26931857096918 kcal/mol)

>  <smiles>  (24) 
C#CCN=c1[nH]ccc2ccc(OCCCN3CCN(C)CC3)cc12

>  <score_type>  (24) 
oracle

>  <origin>  (24) 
adg

>  <m_score__min__energy>  (24) 
-9.1600000000000001

>  <m_primary>  (24) 
energy

$$$$
24:0
     RDKit          3D

 48 50  0  0  0  0  0  0  0  0999 V2000
   -2.3850   24.4700  -28.8110 C   0  0  0  0  0  0  0  0  0  0  0  0
   -3.1790   25.1040  -29.8080 O   0  0  0  0  0  0  0  0  0  0  0  0
   -4.4410   24.6530  -30.2200 C   0  0  0  0  0  0  0  0  0  0  0  0
   -5.6130   25.4090  -30.0270 C   0  0  0  0  0  0  0  0  0  0  0  0
   -6.8470   24.9170  -30.4610 C   0  0  0  0  0  0  0  0  0  0  0  0
   -6.9250   23.6690  -31.0850 C   0  0  0  0  0  0  0  0  0  0  0  0
   -5.7680   22.9020  -31.2730 C   0  0  0  0  0  0  0  0  0  0  0  0
   -5.8500   21.5740  -31.9170 C   0  0  0  0  0  0  0  0  0  0  0  0
   -4.9030   21.0410  -32.8030 C   0  0  0  0  0  0  0  0  0  0  0  0
   -3.6300   21.6820  -33.2950 C   0  0  0  0  0  0  0  0  0  0  0  0
   -2.3470   20.8810  -32.9620 C   0  0  0  0  0  0  0  0  0  0  0  0
   -1.4880   20.5020  -34.1120 N   0  0  0  0  0  0  0  0  0  0  0  0
   -1.3200   19.0450  -34.2610 C   0  0  0  0  0  0  0  0  0  0  0  0
   -0.1860   21.1910  -34.1150 C   0  0  0  0  0  0  0  0  0  0  0  0
   -5.3960   19.7980  -33.1610 C   0  0  0  0  0  0  0  0  0  0  0  0
   -4.8660   18.8070  -33.9900 C   0  0  0  0  0  0  0  0  0  0  0  0
   -5.6160   17.6330  -34.1790 C   0  0  0  0  0  0  0  0  0  0  0  0
   -6.8620   17.4710  -33.5400 C   0  0  0  0  0  0  0  0  0  0  0  0
   -7.3670   18.4770  -32.6980 C   0  0  0  0  0  0  0  0  0  0  0  0
   -6.6010   19.6340  -32.5210 C   0  0  0  0  0  0  0  0  0  0  0  0
   -6.8820   20.7050  -31.7500 N   0  0  0  0  0  0  0  0  0  0  0  0
   -8.0810   20.8970  -30.9300 C   0  0  0  0  0  0  0  0  0  0  0  0
   -4.5290   23.4030  -30.8450 C   0  0  0  0  0  0  0  0  0  0  0  0
   -2.7481   24.7599  -27.8140 H   0  0  0  0  0  0  0  0  0  0  0  0
   -2.4571   23.3782  -28.9243 H   0  0  0  0  0  0  0  0  0  0  0  0
   -1.3363   24.7819  -28.9243 H   0  0  0  0  0  0  0  0  0  0  0  0
   -5.5572   26.3902  -29.5329 H   0  0  0  0  0  0  0  0  0  0  0  0
   -7.7590   25.5135  -30.3111 H   0  0  0  0  0  0  0  0  0  0  0  0
   -7.8977   23.2879  -31.4295 H   0  0  0  0  0  0  0  0  0  0  0  0
   -3.6969   21.7878  -34.3879 H   0  0  0  0  0  0  0  0  0  0  0  0
   -3.5424   22.6491  -32.7782 H   0  0  0  0  0  0  0  0  0  0  0  0
   -1.7396   21.4914  -32.2775 H   0  0  0  0  0  0  0  0  0  0  0  0
   -2.6988   19.9305  -32.5345 H   0  0  0  0  0  0  0  0  0  0  0  0
   -1.9940   20.8310  -34.9700 H   0  0  0  0  0  0  0  0  0  0  0  0
   -1.2662   18.5785  -33.2663 H   0  0  0  0  0  0  0  0  0  0  0  0
   -2.1765   18.6318  -34.8140 H   0  0  0  0  0  0  0  0  0  0  0  0
   -0.3920   18.8376  -34.8140 H   0  0  0  0  0  0  0  0  0  0  0  0
    0.1399   21.3635  -33.0787 H   0  0  0  0  0  0  0  0  0  0  0  0
    0.5572   20.5682  -34.6343 H   0  0  0  0  0  0  0  0  0  0  0  0
   -0.2829   22.1559  -34.6343 H   0  0  0  0  0  0  0  0  0  0  0  0
   -3.8906   18.9410  -34.4806 H   0  0  0  0  0  0  0  0  0  0  0  0
   -5.2280   16.8356  -34.8298 H   0  0  0  0  0  0  0  0  0  0  0  0
   -7.4431   16.5511  -33.7014 H   0  0  0  0  0  0  0  0  0  0  0  0
   -8.3368   18.3578  -32.1928 H   0  0  0  0  0  0  0  0  0  0  0  0
   -7.8079   20.8533  -29.8653 H   0  0  0  0  0  0  0  0  0  0  0  0
   -8.5256   21.8778  -31.1545 H   0  0  0  0  0  0  0  0  0  0  0  0
   -8.8096   20.1041  -31.1545 H   0  0  0  0  0  0  0  0  0  0  0  0
   -3.6175   22.8076  -31.0021 H   0  0  0  0  0  0  0  0  0  0  0  0
  1  2  1  0
  2  3  1  0
  3  4  2  0
  4  5  1  0
  5  6  2  0
  6  7  1  0
  7  8  1  0
  8  9  2  0
  9 10  1  0
 10 11  1  0
 11 12  1  0
 12 13  1  0
 12 14  1  0
  9 15  1  0
 15 16  2  0
 16 17  1  0
 17 18  2  0
 18 19  1  0
 19 20  2  0
 20 21  1  0
 21 22  1  0
  7 23  2  0
 23  3  1  0
 21  8  1  0
 20 15  1  0
  1 24  1  0
  1 25  1  0
  1 26  1  0
  4 27  1  0
  5 28  1  0
  6 29  1  0
 10 30  1  0
 10 31  1  0
 11 32  1  0
 11 33  1  0
 12 34  1  0
 13 35  1  0
 13 36  1  0
 13 37  1  0
 14 38  1  0
 14 39  1  0
 14 40  1  0
 16 41  1  0
 17 42  1  0
 18 43  1  0
 19 44  1  0
 22 45  1  0
 22 46  1  0
 22 47  1  0
 23 48  1  0
M  CHG  1  12   1
M  END
>  <UniqueID>  (25) 
24

>  <SMILES>  (25) 
COc1cccc(-c2c(CC[NH+](C)C)c3ccccc3n2C)c1

>  <Energy>  (25) 
90.21676301693257

>  <Genealogy>  (25) 
COc1cccc(-c2c(CC[NH+](C)C)c3ccccc3n2C)c1 (protonated)
COc1cccc(-c2c(CC[NH+](C)C)c3ccccc3n2C)c1 (3D coordinates assigned)
COc1cccc(-c2c(CC[NH+](C)C)c3ccccc3n2C)c1 (optimized conformer: 90.21676301693257 kcal/mol)

>  <smiles>  (25) 
COc1cccc(-c2c(CCN(C)C)c3ccccc3n2C)c1

>  <score_type>  (25) 
oracle

>  <origin>  (25) 
adg

>  <m_score__min__energy>  (25) 
-8.3599999999999994

>  <m_primary>  (25) 
energy

$$$$
25:0
     RDKit          3D

 60 63  0  0  0  0  0  0  0  0999 V2000
   -8.0140   19.7640  -32.2220 C   0  0  0  0  0  0  0  0  0  0  0  0
   -7.1560   18.7220  -32.8900 C   0  0  0  0  0  0  0  0  0  0  0  0
   -7.6170   17.3990  -32.9850 C   0  0  0  0  0  0  0  0  0  0  0  0
   -6.8440   16.4270  -33.6070 C   0  0  0  0  0  0  0  0  0  0  0  0
   -5.5920   16.7520  -34.1280 C   0  0  0  0  0  0  0  0  0  0  0  0
   -5.0980   18.0590  -34.0330 C   0  0  0  0  0  0  0  0  0  0  0  0
   -3.7270   18.3660  -34.5790 C   0  0  0  0  0  0  0  0  0  0  0  0
   -5.8980   19.0640  -33.4350 C   0  0  0  0  0  0  0  0  0  0  0  0
   -5.4220   20.4180  -33.3430 N   0  0  0  0  0  0  0  0  0  0  0  0
   -4.5580   20.8440  -32.2770 C   0  0  0  0  0  0  0  0  0  0  0  0
   -3.8480   19.9910  -31.6750 O   0  0  0  0  0  0  0  0  0  0  0  0
   -4.4950   22.2310  -31.8880 N   0  0  0  0  0  0  0  0  0  0  0  0
   -5.5610   23.1720  -32.2420 C   0  0  0  0  0  0  0  0  0  0  0  0
   -5.9800   23.9450  -30.9840 C   0  0  0  0  0  0  0  0  0  0  0  0
   -4.8450   24.6210  -30.2940 N   0  0  0  0  0  0  0  0  0  0  0  0
   -4.9770   24.5260  -28.8220 C   0  0  0  0  0  0  0  0  0  0  0  0
   -3.8110   23.7800  -28.2230 C   0  0  0  0  0  0  0  0  0  0  0  0
   -3.8680   22.3880  -28.0500 C   0  0  0  0  0  0  0  0  0  0  0  0
   -2.7940   21.7070  -27.4750 C   0  0  0  0  0  0  0  0  0  0  0  0
   -1.6580   22.4070  -27.0600 C   0  0  0  0  0  0  0  0  0  0  0  0
   -1.5810   23.8020  -27.2400 C   0  0  0  0  0  0  0  0  0  0  0  0
   -0.4870   24.5570  -26.7910 O   0  0  0  0  0  0  0  0  0  0  0  0
   -0.5630   25.7870  -26.1200 C   0  0  0  0  0  0  0  0  0  0  0  0
   -0.7400   25.8630  -24.7250 C   0  0  0  0  0  0  0  0  0  0  0  0
   -0.8090   27.1140  -24.0930 C   0  0  0  0  0  0  0  0  0  0  0  0
   -0.6940   28.2830  -24.8490 C   0  0  0  0  0  0  0  0  0  0  0  0
   -0.4910   28.2100  -26.2300 C   0  0  0  0  0  0  0  0  0  0  0  0
   -0.4160   26.9660  -26.8620 C   0  0  0  0  0  0  0  0  0  0  0  0
   -2.6600   24.4780  -27.8230 C   0  0  0  0  0  0  0  0  0  0  0  0
   -3.4990   24.2040  -30.7650 C   0  0  0  0  0  0  0  0  0  0  0  0
   -3.4030   22.6910  -31.0170 C   0  0  0  0  0  0  0  0  0  0  0  0
   -7.9305   19.6626  -31.1299 H   0  0  0  0  0  0  0  0  0  0  0  0
   -7.6758   20.7662  -32.5241 H   0  0  0  0  0  0  0  0  0  0  0  0
   -9.0624   19.6243  -32.5241 H   0  0  0  0  0  0  0  0  0  0  0  0
   -8.5971   17.1306  -32.5639 H   0  0  0  0  0  0  0  0  0  0  0  0
   -7.2209   15.3968  -33.6889 H   0  0  0  0  0  0  0  0  0  0  0  0
   -4.9870   15.9749  -34.6180 H   0  0  0  0  0  0  0  0  0  0  0  0
   -3.0269   18.5228  -33.7452 H   0  0  0  0  0  0  0  0  0  0  0  0
   -3.3805   17.5232  -35.1951 H   0  0  0  0  0  0  0  0  0  0  0  0
   -3.7730   19.2761  -35.1951 H   0  0  0  0  0  0  0  0  0  0  0  0
   -5.5790   21.0650  -34.1460 H   0  0  0  0  0  0  0  0  0  0  0  0
   -5.1940   23.8764  -33.0030 H   0  0  0  0  0  0  0  0  0  0  0  0
   -6.4239   22.6226  -32.6464 H   0  0  0  0  0  0  0  0  0  0  0  0
   -6.7156   24.7096  -31.2744 H   0  0  0  0  0  0  0  0  0  0  0  0
   -6.3961   23.2113  -30.2779 H   0  0  0  0  0  0  0  0  0  0  0  0
   -5.0118   25.5402  -28.3975 H   0  0  0  0  0  0  0  0  0  0  0  0
   -5.9018   23.9787  -28.5871 H   0  0  0  0  0  0  0  0  0  0  0  0
   -4.7621   21.8322  -28.3687 H   0  0  0  0  0  0  0  0  0  0  0  0
   -2.8419   20.6154  -27.3480 H   0  0  0  0  0  0  0  0  0  0  0  0
   -0.8218   21.8673  -26.5916 H   0  0  0  0  0  0  0  0  0  0  0  0
   -0.8242   24.9413  -24.1305 H   0  0  0  0  0  0  0  0  0  0  0  0
   -0.9534   27.1740  -23.0042 H   0  0  0  0  0  0  0  0  0  0  0  0
   -0.7634   29.2639  -24.3560 H   0  0  0  0  0  0  0  0  0  0  0  0
   -0.3902   29.1329  -26.8200 H   0  0  0  0  0  0  0  0  0  0  0  0
   -0.2408   26.9123  -27.9466 H   0  0  0  0  0  0  0  0  0  0  0  0
   -2.6054   25.5669  -27.9691 H   0  0  0  0  0  0  0  0  0  0  0  0
   -3.2750   24.7323  -31.7035 H   0  0  0  0  0  0  0  0  0  0  0  0
   -2.7767   24.4564  -29.9747 H   0  0  0  0  0  0  0  0  0  0  0  0
   -2.4399   22.4671  -31.4990 H   0  0  0  0  0  0  0  0  0  0  0  0
   -3.4816   22.1695  -30.0517 H   0  0  0  0  0  0  0  0  0  0  0  0
  1  2  1  0
  2  3  2  0
  3  4  1  0
  4  5  2  0
  5  6  1  0
  6  7  1  0
  6  8  2  0
  8  9  1  0
  9 10  1  0
 10 11  2  0
 10 12  1  0
 12 13  1  0
 13 14  1  0
 14 15  1  0
 15 16  1  0
 16 17  1  0
 17 18  2  0
 18 19  1  0
 19 20  2  0
 20 21  1  0
 21 22  1  0
 22 23  1  0
 23 24  2  0
 24 25  1  0
 25 26  2  0
 26 27  1  0
 27 28  2  0
 21 29  2  0
 15 30  1  0
 30 31  1  0
  8  2  1  0
 31 12  1  0
 29 17  1  0
 28 23  1  0
  1 32  1  0
  1 33  1  0
  1 34  1  0
  3 35  1  0
  4 36  1  0
  5 37  1  0
  7 38  1  0
  7 39  1  0
  7 40  1  0
  9 41  1  0
 13 42  1  0
 13 43  1  0
 14 44  1  0
 14 45  1  0
 16 46  1  0
 16 47  1  0
 18 48  1  0
 19 49  1  0
 20 50  1  0
 24 51  1  0
 25 52  1  0
 26 53  1  0
 27 54  1  0
 28 55  1  0
 29 56  1  0
 30 57  1  0
 30 58  1  0
 31 59  1  0
 31 60  1  0
M  END
>  <UniqueID>  (26) 
25

>  <SMILES>  (26) 
Cc1cccc(C)c1NC(=O)N1CCN(Cc2cccc(Oc3ccccc3)c2)CC1

>  <Energy>  (26) 
85.0401019576733

>  <Genealogy>  (26) 
Cc1cccc(C)c1NC(=O)N1CCN(Cc2cccc(Oc3ccccc3)c2)CC1 (3D coordinates assigned)
Cc1cccc(C)c1NC(=O)N1CCN(Cc2cccc(Oc3ccccc3)c2)CC1 (nonaromatic ring conformer: 85.0401019576733 kcal/mol)

>  <smiles>  (26) 
Cc1cccc(C)c1NC(=O)N1CCN(Cc2cccc(Oc3ccccc3)c2)CC1

>  <score_type>  (26) 
oracle

>  <origin>  (26) 
adg

>  <m_score__min__energy>  (26) 
-9.5399999999999991

>  <m_primary>  (26) 
energy

$$$$
26:0
     RDKit          3D

 59 61  0  0  0  0  0  0  0  0999 V2000
   -5.5230   16.6750  -32.0970 C   0  0  0  0  0  0  0  0  0  0  0  0
   -6.1760   17.8510  -31.3570 C   0  0  0  0  0  0  0  0  0  0  0  0
   -6.7170   18.9130  -32.2480 N   0  0  0  0  0  0  0  0  0  0  0  0
   -8.1000   18.6400  -32.7210 C   0  0  0  0  0  0  0  0  0  0  0  0
   -9.1140   18.5410  -31.5760 C   0  0  0  0  0  0  0  0  0  0  0  0
   -5.8050   19.1690  -33.3970 C   0  0  0  0  0  0  0  0  0  0  0  0
   -4.7750   20.2780  -33.1010 C   0  0  0  0  0  0  0  0  0  0  0  0
   -4.7750   20.6490  -31.6830 N   0  0  0  0  0  0  0  0  0  0  0  0
   -4.2260   21.8950  -31.2160 C   0  0  0  0  0  0  0  0  0  0  0  0
   -2.8220   22.0250  -31.0880 C   0  0  0  0  0  0  0  0  0  0  0  0
   -1.8940   21.0070  -31.6380 C   0  0  0  0  0  0  0  0  0  0  0  0
   -1.5970   20.9850  -33.0130 C   0  0  0  0  0  0  0  0  0  0  0  0
   -0.7190   20.0260  -33.5300 C   0  0  0  0  0  0  0  0  0  0  0  0
   -0.1340   19.0830  -32.6830 C   0  0  0  0  0  0  0  0  0  0  0  0
   -0.4280   19.0920  -31.3170 C   0  0  0  0  0  0  0  0  0  0  0  0
   -1.3060   20.0470  -30.7950 C   0  0  0  0  0  0  0  0  0  0  0  0
   -2.2810   23.1530  -30.4620 C   0  0  0  0  0  0  0  0  0  0  0  0
   -3.1010   24.1760  -29.9740 C   0  0  0  0  0  0  0  0  0  0  0  0
   -2.5600   25.2970  -29.3180 O   0  0  0  0  0  0  0  0  0  0  0  0
   -1.8990   25.2620  -28.0560 C   0  0  0  0  0  0  0  0  0  0  0  0
   -4.4960   24.0900  -30.1520 C   0  0  0  0  0  0  0  0  0  0  0  0
   -5.3220   25.1250  -29.6790 C   0  0  0  0  0  0  0  0  0  0  0  0
   -6.6980   25.0730  -29.8590 C   0  0  0  0  0  0  0  0  0  0  0  0
   -7.2740   24.0040  -30.5330 C   0  0  0  0  0  0  0  0  0  0  0  0
   -6.4830   22.9520  -31.0320 C   0  0  0  0  0  0  0  0  0  0  0  0
   -7.0730   21.9120  -31.7690 O   0  0  0  0  0  0  0  0  0  0  0  0
   -8.4720   21.7490  -31.9830 C   0  0  0  0  0  0  0  0  0  0  0  0
   -5.0760   22.9650  -30.8090 C   0  0  0  0  0  0  0  0  0  0  0  0
   -5.1244   15.9571  -31.3651 H   0  0  0  0  0  0  0  0  0  0  0  0
   -6.2736   16.1766  -32.7281 H   0  0  0  0  0  0  0  0  0  0  0  0
   -4.7032   17.0487  -32.7281 H   0  0  0  0  0  0  0  0  0  0  0  0
   -7.0036   17.4578  -30.7484 H   0  0  0  0  0  0  0  0  0  0  0  0
   -5.3853   18.3202  -30.7531 H   0  0  0  0  0  0  0  0  0  0  0  0
   -6.7600   19.7830  -31.6690 H   0  0  0  0  0  0  0  0  0  0  0  0
   -8.4081   19.4544  -33.3931 H   0  0  0  0  0  0  0  0  0  0  0  0
   -8.0869   17.6675  -33.2349 H   0  0  0  0  0  0  0  0  0  0  0  0
   -8.5855   18.5926  -30.6127 H   0  0  0  0  0  0  0  0  0  0  0  0
   -9.8294   19.3736  -31.6468 H   0  0  0  0  0  0  0  0  0  0  0  0
   -9.6549   17.5858  -31.6468 H   0  0  0  0  0  0  0  0  0  0  0  0
   -5.2648   18.2400  -33.6318 H   0  0  0  0  0  0  0  0  0  0  0  0
   -6.4219   19.5046  -34.2436 H   0  0  0  0  0  0  0  0  0  0  0  0
   -3.7728   19.9171  -33.3757 H   0  0  0  0  0  0  0  0  0  0  0  0
   -5.0471   21.1666  -33.6894 H   0  0  0  0  0  0  0  0  0  0  0  0
   -5.2870   20.0410  -31.0060 H   0  0  0  0  0  0  0  0  0  0  0  0
   -2.0570   21.7249  -33.6845 H   0  0  0  0  0  0  0  0  0  0  0  0
   -0.4893   20.0151  -34.6057 H   0  0  0  0  0  0  0  0  0  0  0  0
    0.5588   18.3324  -33.0912 H   0  0  0  0  0  0  0  0  0  0  0  0
    0.0319   18.3468  -30.6513 H   0  0  0  0  0  0  0  0  0  0  0  0
   -1.5379   20.0474  -29.7197 H   0  0  0  0  0  0  0  0  0  0  0  0
   -1.1898   23.2372  -30.3513 H   0  0  0  0  0  0  0  0  0  0  0  0
   -2.6461   25.3016  -27.2496 H   0  0  0  0  0  0  0  0  0  0  0  0
   -1.3178   24.3318  -27.9721 H   0  0  0  0  0  0  0  0  0  0  0  0
   -1.2229   26.1256  -27.9721 H   0  0  0  0  0  0  0  0  0  0  0  0
   -4.8733   25.9853  -29.1607 H   0  0  0  0  0  0  0  0  0  0  0  0
   -7.3334   25.8807  -29.4667 H   0  0  0  0  0  0  0  0  0  0  0  0
   -8.3640   23.9790  -30.6790 H   0  0  0  0  0  0  0  0  0  0  0  0
   -8.9868   21.6890  -31.0128 H   0  0  0  0  0  0  0  0  0  0  0  0
   -8.8586   22.6082  -32.5507 H   0  0  0  0  0  0  0  0  0  0  0  0
   -8.6508   20.8240  -32.5507 H   0  0  0  0  0  0  0  0  0  0  0  0
  1  2  1  0
  2  3  1  0
  3  4  1  0
  4  5  1  0
  3  6  1  0
  6  7  1  0
  7  8  1  0
  8  9  1  0
  9 10  2  0
 10 11  1  0
 11 12  2  0
 12 13  1  0
 13 14  2  0
 14 15  1  0
 15 16  2  0
 10 17  1  0
 17 18  2  0
 18 19  1  0
 19 20  1  0
 18 21  1  0
 21 22  2  0
 22 23  1  0
 23 24  2  0
 24 25  1  0
 25 26  1  0
 26 27  1  0
 25 28  2  0
 28  9  1  0
 16 11  1  0
 28 21  1  0
  1 29  1  0
  1 30  1  0
  1 31  1  0
  2 32  1  0
  2 33  1  0
  3 34  1  0
  4 35  1  0
  4 36  1  0
  5 37  1  0
  5 38  1  0
  5 39  1  0
  6 40  1  0
  6 41  1  0
  7 42  1  0
  7 43  1  0
  8 44  1  0
 12 45  1  0
 13 46  1  0
 14 47  1  0
 15 48  1  0
 16 49  1  0
 17 50  1  0
 20 51  1  0
 20 52  1  0
 20 53  1  0
 22 54  1  0
 23 55  1  0
 24 56  1  0
 27 57  1  0
 27 58  1  0
 27 59  1  0
M  CHG  1   3   1
M  END
>  <UniqueID>  (27) 
26

>  <SMILES>  (27) 
CC[NH+](CC)CCNc1c(-c2ccccc2)cc(OC)c2cccc(OC)c12

>  <Energy>  (27) 
79.83523064589706

>  <Genealogy>  (27) 
CC[NH+](CC)CCNc1c(-c2ccccc2)cc(OC)c2cccc(OC)c12 (protonated)
CC[NH+](CC)CCNc1c(-c2ccccc2)cc(OC)c2cccc(OC)c12 (3D coordinates assigned)
CC[NH+](CC)CCNc1c(-c2ccccc2)cc(OC)c2cccc(OC)c12 (optimized conformer: 79.83523064589706 kcal/mol)

>  <smiles>  (27) 
CCN(CC)CCNc1c(-c2ccccc2)cc(OC)c2cccc(OC)c12

>  <score_type>  (27) 
oracle

>  <origin>  (27) 
adg

>  <m_score__min__energy>  (27) 
-7.1699999999999999

>  <m_primary>  (27) 
energy

$$$$
27:0
     RDKit          3D

 45 47  0  0  0  0  0  0  0  0999 V2000
   -2.4710   18.1400  -33.3950 C   0  0  0  0  0  0  0  0  0  0  0  0
   -2.0430   19.0100  -32.3520 O   0  0  0  0  0  0  0  0  0  0  0  0
   -2.6710   20.2200  -32.0240 C   0  0  0  0  0  0  0  0  0  0  0  0
   -2.5660   20.6890  -30.7090 C   0  0  0  0  0  0  0  0  0  0  0  0
   -3.1710   21.8900  -30.3320 C   0  0  0  0  0  0  0  0  0  0  0  0
   -3.8810   22.6540  -31.2730 C   0  0  0  0  0  0  0  0  0  0  0  0
   -4.5210   23.9320  -30.8970 C   0  0  0  0  0  0  0  0  0  0  0  0
   -3.8530   25.1010  -30.8390 N   0  0  0  0  0  0  0  0  0  0  0  0
   -4.6860   26.0470  -30.4310 N   0  0  0  0  0  0  0  0  0  0  0  0
   -5.8930   25.4930  -30.2140 C   0  0  0  0  0  0  0  0  0  0  0  0
   -5.8310   24.1440  -30.4900 C   0  0  0  0  0  0  0  0  0  0  0  0
   -6.9380   23.1480  -30.2870 C   0  0  0  0  0  0  0  0  0  0  0  0
   -7.8330   23.1220  -31.4630 N   0  0  0  0  0  0  0  0  0  0  0  0
   -7.1270   23.4640  -32.7100 C   0  0  0  0  0  0  0  0  0  0  0  0
   -8.6370   21.8820  -31.5620 C   0  0  0  0  0  0  0  0  0  0  0  0
   -7.8640   20.5750  -31.2440 C   0  0  1  0  0  0  0  0  0  0  0  0
   -8.7190   19.3250  -31.5790 C   0  0  0  0  0  0  0  0  0  0  0  0
   -7.8710   18.2370  -31.8710 O   0  0  0  0  0  0  0  0  0  0  0  0
   -7.1530   18.4960  -33.0650 C   0  0  0  0  0  0  0  0  0  0  0  0
   -6.6560   19.9550  -33.1600 C   0  0  0  0  0  0  0  0  0  0  0  0
   -6.5900   20.5470  -31.8790 O   0  0  0  0  0  0  0  0  0  0  0  0
   -4.0050   22.1750  -32.5860 C   0  0  0  0  0  0  0  0  0  0  0  0
   -3.4010   20.9730  -32.9630 C   0  0  0  0  0  0  0  0  0  0  0  0
   -2.9165   17.2344  -32.9574 H   0  0  0  0  0  0  0  0  0  0  0  0
   -3.2195   18.6532  -34.0166 H   0  0  0  0  0  0  0  0  0  0  0  0
   -1.6076   17.8603  -34.0166 H   0  0  0  0  0  0  0  0  0  0  0  0
   -2.0018   20.1062  -29.9660 H   0  0  0  0  0  0  0  0  0  0  0  0
   -3.0911   22.2397  -29.2921 H   0  0  0  0  0  0  0  0  0  0  0  0
   -6.7883   26.0319  -29.8704 H   0  0  0  0  0  0  0  0  0  0  0  0
   -6.5031   22.1482  -30.1409 H   0  0  0  0  0  0  0  0  0  0  0  0
   -7.5219   23.4406  -29.4019 H   0  0  0  0  0  0  0  0  0  0  0  0
   -6.1613   23.9318  -32.4681 H   0  0  0  0  0  0  0  0  0  0  0  0
   -6.9547   22.5495  -33.2965 H   0  0  0  0  0  0  0  0  0  0  0  0
   -7.7379   24.1661  -33.2965 H   0  0  0  0  0  0  0  0  0  0  0  0
   -9.4772   21.9623  -30.8565 H   0  0  0  0  0  0  0  0  0  0  0  0
   -8.9558   21.8041  -32.6119 H   0  0  0  0  0  0  0  0  0  0  0  0
   -7.6708   20.5539  -30.1613 H   0  0  0  0  0  0  0  0  0  0  0  0
   -9.3536   19.0735  -30.7164 H   0  0  0  0  0  0  0  0  0  0  0  0
   -9.3529   19.5390  -32.4521 H   0  0  0  0  0  0  0  0  0  0  0  0
   -6.2823   17.8249  -33.1041 H   0  0  0  0  0  0  0  0  0  0  0  0
   -7.8388   18.3243  -33.9077 H   0  0  0  0  0  0  0  0  0  0  0  0
   -5.6543   19.9659  -33.6143 H   0  0  0  0  0  0  0  0  0  0  0  0
   -7.3628   20.5287  -33.7775 H   0  0  0  0  0  0  0  0  0  0  0  0
   -4.5824   22.7505  -33.3244 H   0  0  0  0  0  0  0  0  0  0  0  0
   -3.4963   20.6134  -33.9982 H   0  0  0  0  0  0  0  0  0  0  0  0
  1  2  1  0
  2  3  1  0
  3  4  2  0
  4  5  1  0
  5  6  2  0
  6  7  1  0
  7  8  1  0
  8  9  1  0
  9 10  2  0
 10 11  1  0
 11 12  1  0
 12 13  1  0
 13 14  1  0
 13 15  1  0
 15 16  1  0
 16 17  1  0
 17 18  1  0
 18 19  1  0
 19 20  1  0
 20 21  1  0
  6 22  1  0
 22 23  2  0
 23  3  1  0
 11  7  2  0
 21 16  1  0
  1 24  1  0
  1 25  1  0
  1 26  1  0
  4 27  1  0
  5 28  1  0
 10 29  1  0
 12 30  1  0
 12 31  1  0
 14 32  1  0
 14 33  1  0
 14 34  1  0
 15 35  1  0
 15 36  1  0
 16 37  1  1
 17 38  1  0
 17 39  1  0
 19 40  1  0
 19 41  1  0
 20 42  1  0
 20 43  1  0
 22 44  1  0
 23 45  1  0
M  CHG  1   8  -1
M  END
>  <UniqueID>  (28) 
27

>  <SMILES>  (28) 
COc1ccc(-c2[n-]ncc2CN(C)C[C@H]2COCCO2)cc1

>  <Energy>  (28) 
93.0836832096708

>  <Genealogy>  (28) 
COc1ccc(-c2[n-]ncc2CN(C)CC2COCCO2)cc1 (protonated)
COc1ccc(-c2[n-]ncc2CN(C)C[C@H]2COCCO2)cc1 (chirality)
COc1ccc(-c2[n-]ncc2CN(C)C[C@H]2COCCO2)cc1 (3D coordinates assigned)
COc1ccc(-c2[n-]ncc2CN(C)C[C@H]2COCCO2)cc1 (nonaromatic ring conformer: 93.0836832096708 kcal/mol)

>  <smiles>  (28) 
COc1ccc(-c2[nH]ncc2CN(C)CC2COCCO2)cc1

>  <score_type>  (28) 
oracle

>  <origin>  (28) 
adg

>  <m_score__min__energy>  (28) 
-9.2300000000000004

>  <m_primary>  (28) 
energy

$$$$
28:0
     RDKit          3D

 38 40  0  0  0  0  0  0  0  0999 V2000
   -3.5260   21.8860  -32.6680 C   0  0  0  0  0  0  0  0  0  0  0  0
   -4.6730   20.9700  -33.0790 C   0  0  0  0  0  0  0  0  0  0  0  0
   -5.9350   21.4260  -32.4820 N   0  0  0  0  0  0  0  0  0  0  0  0
   -6.0390   22.7530  -31.9210 C   0  0  0  0  0  0  0  0  0  0  0  0
   -6.1890   23.7440  -32.6880 O   0  0  0  0  0  0  0  0  0  0  0  0
   -6.0590   22.9900  -30.4320 C   0  0  0  0  0  0  0  0  0  0  0  0
   -4.8500   23.6970  -30.0030 N   0  0  0  0  0  0  0  0  0  0  0  0
   -4.4230   24.9300  -30.3760 C   0  0  0  0  0  0  0  0  0  0  0  0
   -5.0210   25.6540  -31.2150 O   0  0  0  0  0  0  0  0  0  0  0  0
   -3.3010   25.2950  -29.7770 O   0  0  0  0  0  0  0  0  0  0  0  0
   -2.9780   24.2940  -28.9950 C   0  0  0  0  0  0  0  0  0  0  0  0
   -1.8830   24.1730  -28.1460 C   0  0  0  0  0  0  0  0  0  0  0  0
   -1.7600   22.9840  -27.4020 C   0  0  0  0  0  0  0  0  0  0  0  0
   -2.7240   21.9570  -27.5290 C   0  0  0  0  0  0  0  0  0  0  0  0
   -3.8220   22.1090  -28.3990 C   0  0  0  0  0  0  0  0  0  0  0  0
   -3.9140   23.3020  -29.1190 C   0  0  0  0  0  0  0  0  0  0  0  0
   -6.9980   20.4750  -32.3230 C   0  0  0  0  0  0  0  0  0  0  0  0
   -6.7060   19.1160  -32.1340 C   0  0  0  0  0  0  0  0  0  0  0  0
   -7.7420   18.1910  -31.9730 C   0  0  0  0  0  0  0  0  0  0  0  0
   -9.0730   18.6190  -31.9950 C   0  0  0  0  0  0  0  0  0  0  0  0
   -9.3680   19.9740  -32.1740 C   0  0  0  0  0  0  0  0  0  0  0  0
   -8.3340   20.9010  -32.3340 C   0  0  0  0  0  0  0  0  0  0  0  0
   -3.4686   21.9318  -31.5705 H   0  0  0  0  0  0  0  0  0  0  0  0
   -2.5804   21.4918  -33.0685 H   0  0  0  0  0  0  0  0  0  0  0  0
   -3.7013   22.8954  -33.0685 H   0  0  0  0  0  0  0  0  0  0  0  0
   -4.7674   20.9777  -34.1749 H   0  0  0  0  0  0  0  0  0  0  0  0
   -4.4592   19.9511  -32.7238 H   0  0  0  0  0  0  0  0  0  0  0  0
   -6.9412   23.5946  -30.1746 H   0  0  0  0  0  0  0  0  0  0  0  0
   -6.0998   22.0173  -29.9200 H   0  0  0  0  0  0  0  0  0  0  0  0
   -1.1388   24.9784  -28.0588 H   0  0  0  0  0  0  0  0  0  0  0  0
   -0.9088   22.8530  -26.7177 H   0  0  0  0  0  0  0  0  0  0  0  0
   -2.6158   21.0319  -26.9438 H   0  0  0  0  0  0  0  0  0  0  0  0
   -4.5783   21.3176  -28.5070 H   0  0  0  0  0  0  0  0  0  0  0  0
   -5.6596   18.7773  -32.1124 H   0  0  0  0  0  0  0  0  0  0  0  0
   -7.5098   17.1255  -31.8289 H   0  0  0  0  0  0  0  0  0  0  0  0
   -9.8875   17.8901  -31.8716 H   0  0  0  0  0  0  0  0  0  0  0  0
  -10.4150   20.3109  -32.1889 H   0  0  0  0  0  0  0  0  0  0  0  0
   -8.5689   21.9671  -32.4688 H   0  0  0  0  0  0  0  0  0  0  0  0
  1  2  1  0
  2  3  1  0
  3  4  1  0
  4  5  2  0
  4  6  1  0
  6  7  1  0
  7  8  1  0
  8  9  2  0
  8 10  1  0
 10 11  1  0
 11 12  2  0
 12 13  1  0
 13 14  2  0
 14 15  1  0
 15 16  2  0
  3 17  1  0
 17 18  2  0
 18 19  1  0
 19 20  2  0
 20 21  1  0
 21 22  2  0
 16  7  1  0
 22 17  1  0
 16 11  1  0
  1 23  1  0
  1 24  1  0
  1 25  1  0
  2 26  1  0
  2 27  1  0
  6 28  1  0
  6 29  1  0
 12 30  1  0
 13 31  1  0
 14 32  1  0
 15 33  1  0
 18 34  1  0
 19 35  1  0
 20 36  1  0
 21 37  1  0
 22 38  1  0
M  END
>  <UniqueID>  (29) 
28

>  <SMILES>  (29) 
CCN(C(=O)Cn1c(=O)oc2ccccc21)c1ccccc1

>  <Energy>  (29) 
84.62873182797432

>  <Genealogy>  (29) 
CCN(C(=O)Cn1c(=O)oc2ccccc21)c1ccccc1 (3D coordinates assigned)
CCN(C(=O)Cn1c(=O)oc2ccccc21)c1ccccc1 (optimized conformer: 84.62873182797432 kcal/mol)

>  <smiles>  (29) 
CCN(C(=O)Cn1c(=O)oc2ccccc21)c1ccccc1

>  <score_type>  (29) 
oracle

>  <origin>  (29) 
adg

>  <m_score__min__energy>  (29) 
-8.1899999999999995

>  <m_primary>  (29) 
energy

$$$$
29:0
     RDKit          3D

 32 33  0  0  0  0  0  0  0  0999 V2000
   -9.1810   21.0040  -31.8960 C   0  0  0  0  0  0  0  0  0  0  0  0
   -8.2020   19.9120  -32.0260 N   0  0  0  0  0  0  0  0  0  0  0  0
   -8.7940   18.6190  -31.6490 C   0  0  0  0  0  0  0  0  0  0  0  0
   -7.5420   19.8810  -33.3510 C   0  0  0  0  0  0  0  0  0  0  0  0
   -6.0230   20.1570  -33.3150 C   0  0  0  0  0  0  0  0  0  0  0  0
   -5.5380   20.1870  -31.9270 N   0  0  0  0  0  0  0  0  0  0  0  0
   -5.1310   21.5230  -31.5760 C   0  0  0  0  0  0  0  0  0  0  0  0
   -5.9300   22.6380  -31.9520 C   0  0  0  0  0  0  0  0  0  0  0  0
   -5.5610   23.9470  -31.5880 C   0  0  0  0  0  0  0  0  0  0  0  0
   -4.3970   24.1070  -30.8420 C   0  0  0  0  0  0  0  0  0  0  0  0
   -3.8630   25.2530  -30.3820 N   0  0  0  0  0  0  0  0  0  0  0  0
   -2.7570   24.9350  -29.7150 N   0  0  0  0  0  0  0  0  0  0  0  0
   -2.5960   23.5920  -29.7530 C   0  0  0  0  0  0  0  0  0  0  0  0
   -1.5060   22.8890  -29.1330 C   0  0  0  0  0  0  0  0  0  0  0  0
   -0.6290   22.3220  -28.6350 N   0  0  0  0  0  0  0  0  0  0  0  0
   -3.6320   23.0420  -30.4670 C   0  0  0  0  0  0  0  0  0  0  0  0
   -3.9600   21.7320  -30.8070 C   0  0  0  0  0  0  0  0  0  0  0  0
   -9.3637   21.2078  -30.8306 H   0  0  0  0  0  0  0  0  0  0  0  0
   -8.7866   21.9096  -32.3801 H   0  0  0  0  0  0  0  0  0  0  0  0
  -10.1241   20.7105  -32.3801 H   0  0  0  0  0  0  0  0  0  0  0  0
   -8.8309   18.5384  -30.5526 H   0  0  0  0  0  0  0  0  0  0  0  0
   -9.8135   18.5498  -32.0563 H   0  0  0  0  0  0  0  0  0  0  0  0
   -8.1802   17.8020  -32.0563 H   0  0  0  0  0  0  0  0  0  0  0  0
   -7.7002   18.8852  -33.7907 H   0  0  0  0  0  0  0  0  0  0  0  0
   -7.9934   20.6893  -33.9450 H   0  0  0  0  0  0  0  0  0  0  0  0
   -5.4975   19.3624  -33.8650 H   0  0  0  0  0  0  0  0  0  0  0  0
   -5.8276   21.1339  -33.7814 H   0  0  0  0  0  0  0  0  0  0  0  0
   -6.2970   19.8680  -31.2800 H   0  0  0  0  0  0  0  0  0  0  0  0
   -4.7260   19.5330  -31.8220 H   0  0  0  0  0  0  0  0  0  0  0  0
   -6.8485   22.4754  -32.5350 H   0  0  0  0  0  0  0  0  0  0  0  0
   -6.1715   24.8132  -31.8830 H   0  0  0  0  0  0  0  0  0  0  0  0
   -3.3307   20.8877  -30.4890 H   0  0  0  0  0  0  0  0  0  0  0  0
  1  2  1  0
  2  3  1  0
  2  4  1  0
  4  5  1  0
  5  6  1  0
  6  7  1  0
  7  8  2  0
  8  9  1  0
  9 10  2  0
 10 11  1  0
 11 12  1  0
 12 13  2  0
 13 14  1  0
 14 15  3  0
 13 16  1  0
 16 17  2  0
 17  7  1  0
 16 10  1  0
  1 18  1  0
  1 19  1  0
  1 20  1  0
  3 21  1  0
  3 22  1  0
  3 23  1  0
  4 24  1  0
  4 25  1  0
  5 26  1  0
  5 27  1  0
  6 28  1  0
  6 29  1  0
  8 30  1  0
  9 31  1  0
 17 32  1  0
M  CHG  2   6   1  11  -1
M  END
>  <UniqueID>  (30) 
29

>  <SMILES>  (30) 
CN(C)CC[NH2+]c1ccc2[n-]nc(C#N)c2c1

>  <Energy>  (30) 
71.36885822058548

>  <Genealogy>  (30) 
CN(C)CC[NH2+]c1ccc2[n-]nc(C#N)c2c1 (protonated)
CN(C)CC[NH2+]c1ccc2[n-]nc(C#N)c2c1 (3D coordinates assigned)
CN(C)CC[NH2+]c1ccc2[n-]nc(C#N)c2c1 (optimized conformer: 71.36885822058548 kcal/mol)

>  <smiles>  (30) 
CN(C)CCNc1ccc2[nH]nc(C#N)c2c1

>  <score_type>  (30) 
oracle

>  <origin>  (30) 
adg

>  <m_score__min__energy>  (30) 
-7.2000000000000002

>  <m_primary>  (30) 
energy

$$$$
30:0
     RDKit          3D

 40 41  0  0  0  0  0  0  0  0999 V2000
   -6.2400   25.6730  -29.9460 C   0  0  0  0  0  0  0  0  0  0  0  0
   -6.9230   24.3450  -30.2390 C   0  0  0  0  0  0  0  0  0  0  0  0
   -6.2490   23.6130  -31.7170 S   0  0  0  0  0  0  0  0  0  0  0  0
   -7.2830   23.7890  -33.0280 O   0  0  0  0  0  0  0  0  0  0  0  0
   -5.8470   21.9380  -31.4780 N   0  0  0  0  0  0  0  0  0  0  0  0
   -4.4710   21.6230  -31.0640 C   0  0  0  0  0  0  0  0  0  0  0  0
   -3.4640   22.6690  -31.5540 C   0  0  0  0  0  0  0  0  0  0  0  0
   -3.5740   23.8950  -30.8290 O   0  0  0  0  0  0  0  0  0  0  0  0
   -3.1910   24.1140  -29.4940 C   0  0  0  0  0  0  0  0  0  0  0  0
   -1.9020   24.5530  -29.1210 C   0  0  0  0  0  0  0  0  0  0  0  0
   -1.5990   24.7760  -27.7740 C   0  0  0  0  0  0  0  0  0  0  0  0
   -2.5670   24.5630  -26.7900 C   0  0  0  0  0  0  0  0  0  0  0  0
   -3.8420   24.1220  -27.1510 C   0  0  0  0  0  0  0  0  0  0  0  0
   -4.1490   23.8940  -28.4950 C   0  0  0  0  0  0  0  0  0  0  0  0
   -6.8470   20.9250  -31.7470 C   0  0  0  0  0  0  0  0  0  0  0  0
   -8.2270   21.2140  -31.6830 C   0  0  0  0  0  0  0  0  0  0  0  0
   -9.1740   20.2320  -31.9870 C   0  0  0  0  0  0  0  0  0  0  0  0
   -8.7640   18.9490  -32.3520 C   0  0  0  0  0  0  0  0  0  0  0  0
   -7.4050   18.6420  -32.4060 C   0  0  0  0  0  0  0  0  0  0  0  0
   -6.4530   19.6170  -32.1010 C   0  0  0  0  0  0  0  0  0  0  0  0
   -6.1668   25.8154  -28.8577 H   0  0  0  0  0  0  0  0  0  0  0  0
   -5.2311   25.6710  -30.3842 H   0  0  0  0  0  0  0  0  0  0  0  0
   -6.8285   26.4925  -30.3842 H   0  0  0  0  0  0  0  0  0  0  0  0
   -6.7653   23.6616  -29.3916 H   0  0  0  0  0  0  0  0  0  0  0  0
   -7.9986   24.5218  -30.3868 H   0  0  0  0  0  0  0  0  0  0  0  0
   -6.6970   23.6910  -33.8190 H   0  0  0  0  0  0  0  0  0  0  0  0
   -4.4325   21.5819  -29.9654 H   0  0  0  0  0  0  0  0  0  0  0  0
   -4.1973   20.6560  -31.5113 H   0  0  0  0  0  0  0  0  0  0  0  0
   -2.4467   22.2704  -31.4264 H   0  0  0  0  0  0  0  0  0  0  0  0
   -3.6779   22.8785  -32.6125 H   0  0  0  0  0  0  0  0  0  0  0  0
   -1.1346   24.7199  -29.8913 H   0  0  0  0  0  0  0  0  0  0  0  0
   -0.5942   25.1206  -27.4884 H   0  0  0  0  0  0  0  0  0  0  0  0
   -2.3254   24.7424  -25.7319 H   0  0  0  0  0  0  0  0  0  0  0  0
   -4.6051   23.9540  -26.3768 H   0  0  0  0  0  0  0  0  0  0  0  0
   -5.1525   23.5383  -28.7716 H   0  0  0  0  0  0  0  0  0  0  0  0
   -8.5602   22.2209  -31.3913 H   0  0  0  0  0  0  0  0  0  0  0  0
  -10.2465   20.4714  -31.9384 H   0  0  0  0  0  0  0  0  0  0  0  0
   -9.5122   18.1807  -32.5969 H   0  0  0  0  0  0  0  0  0  0  0  0
   -7.0820   17.6294  -32.6895 H   0  0  0  0  0  0  0  0  0  0  0  0
   -5.3835   19.3625  -32.1371 H   0  0  0  0  0  0  0  0  0  0  0  0
  1  2  1  0
  2  3  1  0
  3  4  1  6
  3  5  1  0
  5  6  1  0
  6  7  1  0
  7  8  1  0
  8  9  1  0
  9 10  2  0
 10 11  1  0
 11 12  2  0
 12 13  1  0
 13 14  2  0
  5 15  1  0
 15 16  2  0
 16 17  1  0
 17 18  2  0
 18 19  1  0
 19 20  2  0
 14  9  1  0
 20 15  1  0
  1 21  1  0
  1 22  1  0
  1 23  1  0
  2 24  1  0
  2 25  1  0
  4 26  1  0
  6 27  1  0
  6 28  1  0
  7 29  1  0
  7 30  1  0
 10 31  1  0
 11 32  1  0
 12 33  1  0
 13 34  1  0
 14 35  1  0
 16 36  1  0
 17 37  1  0
 18 38  1  0
 19 39  1  0
 20 40  1  0
M  CHG  1   3   1
M  END
>  <UniqueID>  (31) 
30

>  <SMILES>  (31) 
CC[S@+](O)N(CCOc1ccccc1)c1ccccc1

>  <Energy>  (31) 
33.134739678677576

>  <Genealogy>  (31) 
CC[S+](O)N(CCOc1ccccc1)c1ccccc1 (protonated)
CC[S@+](O)N(CCOc1ccccc1)c1ccccc1 (chirality)
CC[S@+](O)N(CCOc1ccccc1)c1ccccc1 (3D coordinates assigned)
CC[S@+](O)N(CCOc1ccccc1)c1ccccc1 (optimized conformer: 33.134739678677576 kcal/mol)

>  <smiles>  (31) 
CC[S+]([O-])N(CCOc1ccccc1)c1ccccc1

>  <score_type>  (31) 
oracle

>  <origin>  (31) 
adg

>  <m_score__min__energy>  (31) 
-6.6600000000000001

>  <m_primary>  (31) 
energy

$$$$
31:0
     RDKit          3D

 32 32  0  0  0  0  0  0  0  0999 V2000
   -4.3320   23.9270  -29.1090 C   0  0  0  0  0  0  0  0  0  0  0  0
   -5.3730   24.9030  -28.7770 N   0  0  0  0  0  0  0  0  0  0  0  0
   -5.9650   25.4720  -29.9980 C   0  0  0  0  0  0  0  0  0  0  0  0
   -5.7110   24.5690  -31.2230 C   0  0  0  0  0  0  0  0  0  0  0  0
   -6.8600   23.5850  -31.4930 C   0  0  0  0  0  0  0  0  0  0  0  0
   -6.3610   22.2800  -31.9570 N   0  0  0  0  0  0  0  0  0  0  0  0
   -4.9550   22.1420  -32.3490 C   0  0  0  0  0  0  0  0  0  0  0  0
   -7.2500   21.1500  -32.0900 C   0  0  0  0  0  0  0  0  0  0  0  0
   -6.7380   19.8600  -32.3310 C   0  0  0  0  0  0  0  0  0  0  0  0
   -7.6010   18.7680  -32.4590 C   0  0  0  0  0  0  0  0  0  0  0  0
   -8.9810   18.9470  -32.3400 C   0  0  0  0  0  0  0  0  0  0  0  0
   -9.5000   20.2180  -32.0850 C   0  0  0  0  0  0  0  0  0  0  0  0
   -8.6420   21.3130  -31.9540 C   0  0  0  0  0  0  0  0  0  0  0  0
   -3.9000   23.5220  -28.1820 H   0  0  0  0  0  0  0  0  0  0  0  0
   -4.7715   23.1079  -29.6971 H   0  0  0  0  0  0  0  0  0  0  0  0
   -3.5429   24.4183  -29.6971 H   0  0  0  0  0  0  0  0  0  0  0  0
   -6.1170   24.4220  -28.2190 H   0  0  0  0  0  0  0  0  0  0  0  0
   -4.9470   25.6570  -28.1950 H   0  0  0  0  0  0  0  0  0  0  0  0
   -7.0499   25.5801  -29.8524 H   0  0  0  0  0  0  0  0  0  0  0  0
   -5.4960   26.4491  -30.1861 H   0  0  0  0  0  0  0  0  0  0  0  0
   -5.5817   25.2083  -32.1088 H   0  0  0  0  0  0  0  0  0  0  0  0
   -4.8109   23.9732  -31.0112 H   0  0  0  0  0  0  0  0  0  0  0  0
   -7.4301   23.4388  -30.5637 H   0  0  0  0  0  0  0  0  0  0  0  0
   -7.4967   24.0095  -32.2832 H   0  0  0  0  0  0  0  0  0  0  0  0
   -4.3274   22.0804  -31.4477 H   0  0  0  0  0  0  0  0  0  0  0  0
   -4.8291   21.2272  -32.9467 H   0  0  0  0  0  0  0  0  0  0  0  0
   -4.6536   23.0149  -32.9467 H   0  0  0  0  0  0  0  0  0  0  0  0
   -5.6517   19.7111  -32.4191 H   0  0  0  0  0  0  0  0  0  0  0  0
   -7.1924   17.7655  -32.6539 H   0  0  0  0  0  0  0  0  0  0  0  0
   -9.6587   18.0872  -32.4471 H   0  0  0  0  0  0  0  0  0  0  0  0
  -10.5867   20.3575  -31.9870 H   0  0  0  0  0  0  0  0  0  0  0  0
   -9.0570   22.3096  -31.7431 H   0  0  0  0  0  0  0  0  0  0  0  0
  1  2  1  0
  2  3  1  0
  3  4  1  0
  4  5  1  0
  5  6  1  0
  6  7  1  0
  6  8  1  0
  8  9  2  0
  9 10  1  0
 10 11  2  0
 11 12  1  0
 12 13  2  0
 13  8  1  0
  1 14  1  0
  1 15  1  0
  1 16  1  0
  2 17  1  0
  2 18  1  0
  3 19  1  0
  3 20  1  0
  4 21  1  0
  4 22  1  0
  5 23  1  0
  5 24  1  0
  7 25  1  0
  7 26  1  0
  7 27  1  0
  9 28  1  0
 10 29  1  0
 11 30  1  0
 12 31  1  0
 13 32  1  0
M  CHG  1   2   1
M  END
>  <UniqueID>  (32) 
31

>  <SMILES>  (32) 
C[NH2+]CCCN(C)c1ccccc1

>  <Energy>  (32) 
28.57765240145124

>  <Genealogy>  (32) 
C[NH2+]CCCN(C)c1ccccc1 (protonated)
C[NH2+]CCCN(C)c1ccccc1 (3D coordinates assigned)
C[NH2+]CCCN(C)c1ccccc1 (optimized conformer: 28.57765240145124 kcal/mol)

>  <smiles>  (32) 
CNCCCN(C)c1ccccc1

>  <score_type>  (32) 
oracle

>  <origin>  (32) 
adg

>  <m_score__min__energy>  (32) 
-5.0800000000000001

>  <m_primary>  (32) 
energy

$$$$
32:0
     RDKit          3D

 46 49  0  0  0  0  0  0  0  0999 V2000
   -2.6250   22.7250  -30.0160 C   0  0  0  0  0  0  0  0  0  0  0  0
   -2.8610   24.1860  -29.6460 C   0  0  0  0  0  0  0  0  0  0  0  0
   -3.8890   24.7540  -30.4580 O   0  0  0  0  0  0  0  0  0  0  0  0
   -5.1150   24.1440  -30.7690 C   0  0  0  0  0  0  0  0  0  0  0  0
   -5.4910   23.8130  -32.0860 C   0  0  0  0  0  0  0  0  0  0  0  0
   -6.7210   23.1990  -32.3340 C   0  0  0  0  0  0  0  0  0  0  0  0
   -7.5920   22.8960  -31.2770 C   0  0  0  0  0  0  0  0  0  0  0  0
   -8.9120   22.2190  -31.5410 C   0  0  0  0  0  0  0  0  0  0  0  0
   -8.8550   20.8040  -31.1720 N   0  0  0  0  0  0  0  0  0  0  0  0
   -7.9810   19.8350  -31.7840 C   0  0  0  0  0  0  0  0  0  0  0  0
   -8.4630   18.5410  -32.0340 C   0  0  0  0  0  0  0  0  0  0  0  0
   -7.6350   17.5740  -32.6080 C   0  0  0  0  0  0  0  0  0  0  0  0
   -6.3160   17.8860  -32.9400 C   0  0  0  0  0  0  0  0  0  0  0  0
   -5.8130   19.1750  -32.7050 C   0  0  0  0  0  0  0  0  0  0  0  0
   -4.4110   19.4970  -33.0440 C   0  0  0  0  0  0  0  0  0  0  0  0
   -3.5780   18.6340  -33.6880 N   0  0  0  0  0  0  0  0  0  0  0  0
   -2.4460   19.3520  -33.7790 C   0  0  0  0  0  0  0  0  0  0  0  0
   -1.2370   18.9720  -34.3560 C   0  0  0  0  0  0  0  0  0  0  0  0
   -0.1810   19.9060  -34.3330 C   0  0  0  0  0  0  0  0  0  0  0  0
    1.3680   19.4890  -35.0420 Cl  0  0  0  0  0  0  0  0  0  0  0  0
   -0.3660   21.1790  -33.7400 C   0  0  0  0  0  0  0  0  0  0  0  0
   -1.6050   21.5260  -33.1680 C   0  0  0  0  0  0  0  0  0  0  0  0
   -2.6200   20.5750  -33.2110 C   0  0  0  0  0  0  0  0  0  0  0  0
   -3.8410   20.6570  -32.7580 O   0  0  0  0  0  0  0  0  0  0  0  0
   -6.6530   20.1480  -32.1370 C   0  0  0  0  0  0  0  0  0  0  0  0
   -7.2270   23.2470  -29.9680 C   0  0  0  0  0  0  0  0  0  0  0  0
   -5.9980   23.8630  -29.7190 C   0  0  0  0  0  0  0  0  0  0  0  0
   -2.5282   22.1255  -29.0988 H   0  0  0  0  0  0  0  0  0  0  0  0
   -3.4750   22.3548  -30.6080 H   0  0  0  0  0  0  0  0  0  0  0  0
   -1.7017   22.6412  -30.6080 H   0  0  0  0  0  0  0  0  0  0  0  0
   -3.1609   24.2467  -28.5894 H   0  0  0  0  0  0  0  0  0  0  0  0
   -1.9295   24.7471  -29.8120 H   0  0  0  0  0  0  0  0  0  0  0  0
   -4.8132   24.0390  -32.9223 H   0  0  0  0  0  0  0  0  0  0  0  0
   -7.0088   22.9511  -33.3663 H   0  0  0  0  0  0  0  0  0  0  0  0
   -9.6958   22.7144  -30.9492 H   0  0  0  0  0  0  0  0  0  0  0  0
   -9.1372   22.2938  -32.6151 H   0  0  0  0  0  0  0  0  0  0  0  0
   -9.4630   20.4940  -30.3790 H   0  0  0  0  0  0  0  0  0  0  0  0
   -9.5015   18.2863  -31.7757 H   0  0  0  0  0  0  0  0  0  0  0  0
   -8.0238   16.5629  -32.7991 H   0  0  0  0  0  0  0  0  0  0  0  0
   -5.6677   17.1184  -33.3878 H   0  0  0  0  0  0  0  0  0  0  0  0
   -1.1104   17.9795  -34.8130 H   0  0  0  0  0  0  0  0  0  0  0  0
    0.4636   21.9012  -33.7263 H   0  0  0  0  0  0  0  0  0  0  0  0
   -1.7645   22.5110  -32.7050 H   0  0  0  0  0  0  0  0  0  0  0  0
   -6.2698   21.1648  -31.9661 H   0  0  0  0  0  0  0  0  0  0  0  0
   -7.9122   23.0360  -29.1337 H   0  0  0  0  0  0  0  0  0  0  0  0
   -5.7213   24.1298  -28.6884 H   0  0  0  0  0  0  0  0  0  0  0  0
  1  2  1  0
  2  3  1  0
  3  4  1  0
  4  5  2  0
  5  6  1  0
  6  7  2  0
  7  8  1  0
  8  9  1  0
  9 10  1  0
 10 11  2  0
 11 12  1  0
 12 13  2  0
 13 14  1  0
 14 15  1  0
 15 16  2  0
 16 17  1  0
 17 18  2  0
 18 19  1  0
 19 20  1  0
 19 21  2  0
 21 22  1  0
 22 23  2  0
 23 24  1  0
 14 25  2  0
  7 26  1  0
 26 27  2  0
 27  4  1  0
 25 10  1  0
 24 15  1  0
 23 17  1  0
  1 28  1  0
  1 29  1  0
  1 30  1  0
  2 31  1  0
  2 32  1  0
  5 33  1  0
  6 34  1  0
  8 35  1  0
  8 36  1  0
  9 37  1  0
 11 38  1  0
 12 39  1  0
 13 40  1  0
 18 41  1  0
 21 42  1  0
 22 43  1  0
 25 44  1  0
 26 45  1  0
 27 46  1  0
M  END
>  <UniqueID>  (33) 
32

>  <SMILES>  (33) 
CCOc1ccc(CNc2cccc(-c3nc4cc(Cl)ccc4o3)c2)cc1

>  <Energy>  (33) 
84.48767097895762

>  <Genealogy>  (33) 
CCOc1ccc(CNc2cccc(-c3nc4cc(Cl)ccc4o3)c2)cc1 (3D coordinates assigned)
CCOc1ccc(CNc2cccc(-c3nc4cc(Cl)ccc4o3)c2)cc1 (optimized conformer: 84.48767097895762 kcal/mol)

>  <smiles>  (33) 
CCOc1ccc(CNc2cccc(-c3nc4cc(Cl)ccc4o3)c2)cc1

>  <score_type>  (33) 
oracle

>  <origin>  (33) 
adg

>  <m_score__min__energy>  (33) 
-9.0800000000000001

>  <m_primary>  (33) 
energy

$$$$
33:0
     RDKit          3D

 29 30  0  0  0  0  0  0  0  0999 V2000
   -5.0650   24.7210  -28.6470 N   0  0  0  0  0  0  0  0  0  0  0  0
   -4.9860   24.4370  -30.0420 C   0  0  0  0  0  0  0  0  0  0  0  0
   -4.6110   25.3420  -30.8360 O   0  0  0  0  0  0  0  0  0  0  0  0
   -5.3200   23.1270  -30.5250 N   0  0  0  0  0  0  0  0  0  0  0  0
   -5.3690   22.7800  -31.9220 C   0  0  0  0  0  0  0  0  0  0  0  0
   -5.3780   23.6900  -32.7940 O   0  0  0  0  0  0  0  0  0  0  0  0
   -5.4400   21.3630  -32.3530 C   0  0  0  0  0  0  0  0  0  0  0  0
   -6.6200   20.6140  -32.1950 C   0  0  0  0  0  0  0  0  0  0  0  0
   -6.6700   19.2760  -32.5990 C   0  0  0  0  0  0  0  0  0  0  0  0
   -5.5450   18.6560  -33.1650 C   0  0  0  0  0  0  0  0  0  0  0  0
   -5.6000   17.2350  -33.5970 C   0  0  0  0  0  0  0  0  0  0  0  0
   -6.8340   16.6010  -33.8190 C   0  0  0  0  0  0  0  0  0  0  0  0
   -6.8640   15.2640  -34.2240 C   0  0  0  0  0  0  0  0  0  0  0  0
   -5.7030   14.5800  -34.4020 N   0  0  0  0  0  0  0  0  0  0  0  0
   -4.4940   15.1630  -34.1960 C   0  0  0  0  0  0  0  0  0  0  0  0
   -4.4190   16.4980  -33.7900 C   0  0  0  0  0  0  0  0  0  0  0  0
   -4.3620   19.4010  -33.3130 C   0  0  0  0  0  0  0  0  0  0  0  0
   -4.3100   20.7380  -32.9080 C   0  0  0  0  0  0  0  0  0  0  0  0
   -5.3690   23.9860  -27.9700 H   0  0  0  0  0  0  0  0  0  0  0  0
   -4.8190   25.6700  -28.2860 H   0  0  0  0  0  0  0  0  0  0  0  0
   -5.5800   22.4050  -29.8170 H   0  0  0  0  0  0  0  0  0  0  0  0
   -7.5098   21.0839  -31.7506 H   0  0  0  0  0  0  0  0  0  0  0  0
   -7.6006   18.7035  -32.4719 H   0  0  0  0  0  0  0  0  0  0  0  0
   -7.7732   17.1552  -33.6745 H   0  0  0  0  0  0  0  0  0  0  0  0
   -7.8283   14.7645  -34.3990 H   0  0  0  0  0  0  0  0  0  0  0  0
   -3.5718   14.5832  -34.3490 H   0  0  0  0  0  0  0  0  0  0  0  0
   -3.4397   16.9701  -33.6222 H   0  0  0  0  0  0  0  0  0  0  0  0
   -3.4705   18.9283  -33.7508 H   0  0  0  0  0  0  0  0  0  0  0  0
   -3.3756   21.3065  -33.0248 H   0  0  0  0  0  0  0  0  0  0  0  0
  1  2  1  0
  2  3  2  0
  2  4  1  0
  4  5  1  0
  5  6  2  0
  5  7  1  0
  7  8  2  0
  8  9  1  0
  9 10  2  0
 10 11  1  0
 11 12  2  0
 12 13  1  0
 13 14  2  0
 14 15  1  0
 15 16  2  0
 10 17  1  0
 17 18  2  0
 18  7  1  0
 16 11  1  0
  1 19  1  0
  1 20  1  0
  4 21  1  0
  8 22  1  0
  9 23  1  0
 12 24  1  0
 13 25  1  0
 15 26  1  0
 16 27  1  0
 17 28  1  0
 18 29  1  0
M  END
>  <UniqueID>  (34) 
33

>  <SMILES>  (34) 
NC(=O)NC(=O)c1ccc(-c2ccncc2)cc1

>  <Energy>  (34) 
36.84797798292497

>  <Genealogy>  (34) 
NC(=O)NC(=O)c1ccc(-c2ccncc2)cc1 (3D coordinates assigned)
NC(=O)NC(=O)c1ccc(-c2ccncc2)cc1 (optimized conformer: 36.84797798292497 kcal/mol)

>  <smiles>  (34) 
NC(=O)NC(=O)c1ccc(-c2ccncc2)cc1

>  <score_type>  (34) 
oracle

>  <origin>  (34) 
adg

>  <m_score__min__energy>  (34) 
-7.1100000000000003

>  <m_primary>  (34) 
energy

$$$$
34:0
     RDKit          3D

 35 37  0  0  0  0  0  0  0  0999 V2000
   -2.5320   19.1920  -34.1760 C   0  0  0  0  0  0  0  0  0  0  0  0
   -3.9550   19.2230  -34.1920 O   0  0  0  0  0  0  0  0  0  0  0  0
   -4.7790   18.1060  -33.9800 C   0  0  0  0  0  0  0  0  0  0  0  0
   -4.4010   16.8130  -34.3950 C   0  0  0  0  0  0  0  0  0  0  0  0
   -5.2630   15.7300  -34.2090 C   0  0  0  0  0  0  0  0  0  0  0  0
   -6.5100   15.9200  -33.6160 C   0  0  0  0  0  0  0  0  0  0  0  0
   -6.8960   17.1940  -33.1940 C   0  0  0  0  0  0  0  0  0  0  0  0
   -6.0300   18.2870  -33.3530 C   0  0  0  0  0  0  0  0  0  0  0  0
   -6.4690   19.6200  -32.8970 C   0  0  0  0  0  0  0  0  0  0  0  0
   -7.6550   20.1610  -33.2270 N   0  0  0  0  0  0  0  0  0  0  0  0
   -7.7110   21.3780  -32.7150 N   0  0  0  0  0  0  0  0  0  0  0  0
   -6.5540   21.5600  -32.0440 C   0  0  0  0  0  0  0  0  0  0  0  0
   -6.2150   22.8270  -31.3690 C   0  0  0  0  0  0  0  0  0  0  0  0
   -7.1560   23.4510  -30.5390 C   0  0  0  0  0  0  0  0  0  0  0  0
   -6.8300   24.6390  -29.8840 C   0  0  0  0  0  0  0  0  0  0  0  0
   -5.5560   25.1850  -30.0520 C   0  0  0  0  0  0  0  0  0  0  0  0
   -4.6430   24.5540  -30.8380 N   0  0  0  0  0  0  0  0  0  0  0  0
   -4.9400   23.3970  -31.4910 C   0  0  0  0  0  0  0  0  0  0  0  0
   -5.7530   20.4720  -32.1290 N   0  0  0  0  0  0  0  0  0  0  0  0
   -4.3810   20.3170  -31.6400 C   0  0  0  0  0  0  0  0  0  0  0  0
   -2.1771   19.1843  -33.1349 H   0  0  0  0  0  0  0  0  0  0  0  0
   -2.1792   18.2860  -34.6904 H   0  0  0  0  0  0  0  0  0  0  0  0
   -2.1401   20.0818  -34.6904 H   0  0  0  0  0  0  0  0  0  0  0  0
   -3.4206   16.6559  -34.8685 H   0  0  0  0  0  0  0  0  0  0  0  0
   -4.9568   14.7239  -34.5315 H   0  0  0  0  0  0  0  0  0  0  0  0
   -7.1902   15.0662  -33.4804 H   0  0  0  0  0  0  0  0  0  0  0  0
   -7.8844   17.3417  -32.7344 H   0  0  0  0  0  0  0  0  0  0  0  0
   -8.4020   19.7290  -33.8170 H   0  0  0  0  0  0  0  0  0  0  0  0
   -8.1520   23.0041  -30.4038 H   0  0  0  0  0  0  0  0  0  0  0  0
   -7.5691   25.1403  -29.2418 H   0  0  0  0  0  0  0  0  0  0  0  0
   -5.2906   26.1262  -29.5483 H   0  0  0  0  0  0  0  0  0  0  0  0
   -4.1779   22.9083  -32.1158 H   0  0  0  0  0  0  0  0  0  0  0  0
   -4.3816   20.3171  -30.5400 H   0  0  0  0  0  0  0  0  0  0  0  0
   -3.9664   19.3663  -32.0064 H   0  0  0  0  0  0  0  0  0  0  0  0
   -3.7647   21.1512  -32.0064 H   0  0  0  0  0  0  0  0  0  0  0  0
  1  2  1  0
  2  3  1  0
  3  4  2  0
  4  5  1  0
  5  6  2  0
  6  7  1  0
  7  8  2  0
  8  9  1  0
  9 10  2  0
 10 11  1  0
 11 12  2  0
 12 13  1  0
 13 14  2  0
 14 15  1  0
 15 16  2  0
 16 17  1  0
 17 18  2  0
 12 19  1  0
 19 20  1  0
  8  3  1  0
 19  9  1  0
 18 13  1  0
  1 21  1  0
  1 22  1  0
  1 23  1  0
  4 24  1  0
  5 25  1  0
  6 26  1  0
  7 27  1  0
 10 28  1  0
 14 29  1  0
 15 30  1  0
 16 31  1  0
 18 32  1  0
 20 33  1  0
 20 34  1  0
 20 35  1  0
M  CHG  1  10   1
M  END
>  <UniqueID>  (35) 
34

>  <SMILES>  (35) 
COc1ccccc1-c1[nH+]nc(-c2cccnc2)n1C

>  <Energy>  (35) 
85.1232545735096

>  <Genealogy>  (35) 
COc1ccccc1-c1[nH+]nc(-c2cccnc2)n1C (protonated)
COc1ccccc1-c1[nH+]nc(-c2cccnc2)n1C (3D coordinates assigned)
COc1ccccc1-c1[nH+]nc(-c2cccnc2)n1C (optimized conformer: 85.1232545735096 kcal/mol)

>  <smiles>  (35) 
COc1ccccc1-c1nnc(-c2cccnc2)n1C

>  <score_type>  (35) 
oracle

>  <origin>  (35) 
adg

>  <m_score__min__energy>  (35) 
-7.1200000000000001

>  <m_primary>  (35) 
energy

$$$$
35:0
     RDKit          3D

 41 43  0  0  0  0  0  0  0  0999 V2000
   -6.8470   25.3070  -29.7040 C   0  0  0  0  0  0  0  0  0  0  0  0
   -5.4430   25.2100  -30.2910 C   0  0  0  0  0  0  0  0  0  0  0  0
   -5.3050   23.9820  -31.0880 N   0  0  0  0  0  0  0  0  0  0  0  0
   -6.1070   23.7890  -32.3030 C   0  0  0  0  0  0  0  0  0  0  0  0
   -6.8600   22.4900  -32.2180 C   0  0  0  0  0  0  0  0  0  0  0  0
   -8.1000   22.4310  -31.5680 C   0  0  0  0  0  0  0  0  0  0  0  0
   -8.7710   21.2140  -31.4420 C   0  0  0  0  0  0  0  0  0  0  0  0
   -8.2100   20.0370  -31.9560 C   0  0  0  0  0  0  0  0  0  0  0  0
   -8.9210   18.7990  -31.7550 C   0  0  0  0  0  0  0  0  0  0  0  0
   -9.4900   17.8040  -31.5920 N   0  0  0  0  0  0  0  0  0  0  0  0
   -6.9530   20.0780  -32.6060 C   0  0  0  0  0  0  0  0  0  0  0  0
   -6.3440   18.8890  -33.1470 N   0  0  0  0  0  0  0  0  0  0  0  0
   -5.8720   17.8320  -32.4550 C   0  0  0  0  0  0  0  0  0  0  0  0
   -5.3480   16.9210  -33.2920 N   0  0  0  0  0  0  0  0  0  0  0  0
   -5.5160   17.4680  -34.5110 C   0  0  0  0  0  0  0  0  0  0  0  0
   -6.1210   18.6700  -34.4340 N   0  0  0  0  0  0  0  0  0  0  0  0
   -6.2890   21.3130  -32.7220 C   0  0  0  0  0  0  0  0  0  0  0  0
   -4.3280   22.9900  -30.7200 C   0  0  0  0  0  0  0  0  0  0  0  0
   -4.1680   22.6130  -29.3770 C   0  0  0  0  0  0  0  0  0  0  0  0
   -3.2060   21.6630  -29.0200 C   0  0  0  0  0  0  0  0  0  0  0  0
   -2.3970   21.0850  -30.0020 C   0  0  0  0  0  0  0  0  0  0  0  0
   -1.4630   20.1640  -29.6550 F   0  0  0  0  0  0  0  0  0  0  0  0
   -2.5480   21.4560  -31.3410 C   0  0  0  0  0  0  0  0  0  0  0  0
   -3.5070   22.4070  -31.7000 C   0  0  0  0  0  0  0  0  0  0  0  0
   -6.7863   25.3028  -28.6057 H   0  0  0  0  0  0  0  0  0  0  0  0
   -7.3218   26.2401  -30.0414 H   0  0  0  0  0  0  0  0  0  0  0  0
   -7.4457   24.4481  -30.0414 H   0  0  0  0  0  0  0  0  0  0  0  0
   -5.2580   26.0827  -30.9346 H   0  0  0  0  0  0  0  0  0  0  0  0
   -4.7130   25.1858  -29.4685 H   0  0  0  0  0  0  0  0  0  0  0  0
   -6.8217   24.6190  -32.4040 H   0  0  0  0  0  0  0  0  0  0  0  0
   -5.4399   23.7645  -33.1773 H   0  0  0  0  0  0  0  0  0  0  0  0
   -8.5463   23.3478  -31.1554 H   0  0  0  0  0  0  0  0  0  0  0  0
   -9.7469   21.1782  -30.9358 H   0  0  0  0  0  0  0  0  0  0  0  0
   -5.9106   17.7302  -31.3604 H   0  0  0  0  0  0  0  0  0  0  0  0
   -4.9140   16.0020  -33.0520 H   0  0  0  0  0  0  0  0  0  0  0  0
   -5.1993   16.9935  -35.4515 H   0  0  0  0  0  0  0  0  0  0  0  0
   -5.3069   21.3557  -33.2157 H   0  0  0  0  0  0  0  0  0  0  0  0
   -4.8026   23.0672  -28.6018 H   0  0  0  0  0  0  0  0  0  0  0  0
   -3.0861   21.3707  -27.9663 H   0  0  0  0  0  0  0  0  0  0  0  0
   -1.9114   20.9990  -32.1130 H   0  0  0  0  0  0  0  0  0  0  0  0
   -3.6196   22.7004  -32.7542 H   0  0  0  0  0  0  0  0  0  0  0  0
  1  2  1  0
  2  3  1  0
  3  4  1  0
  4  5  1  0
  5  6  2  0
  6  7  1  0
  7  8  2  0
  8  9  1  0
  9 10  3  0
  8 11  1  0
 11 12  1  0
 12 13  1  0
 13 14  2  0
 14 15  1  0
 15 16  2  0
 11 17  2  0
  3 18  1  0
 18 19  2  0
 19 20  1  0
 20 21  2  0
 21 22  1  0
 21 23  1  0
 23 24  2  0
 17  5  1  0
 24 18  1  0
 16 12  1  0
  1 25  1  0
  1 26  1  0
  1 27  1  0
  2 28  1  0
  2 29  1  0
  4 30  1  0
  4 31  1  0
  6 32  1  0
  7 33  1  0
 13 34  1  0
 14 35  1  0
 15 36  1  0
 17 37  1  0
 19 38  1  0
 20 39  1  0
 23 40  1  0
 24 41  1  0
M  CHG  1  14   1
M  END
>  <UniqueID>  (36) 
35

>  <SMILES>  (36) 
CCN(Cc1ccc(C#N)c(-n2c[nH+]cn2)c1)c1ccc(F)cc1

>  <Energy>  (36) 
80.74789331155782

>  <Genealogy>  (36) 
CCN(Cc1ccc(C#N)c(-n2c[nH+]cn2)c1)c1ccc(F)cc1 (protonated)
CCN(Cc1ccc(C#N)c(-n2c[nH+]cn2)c1)c1ccc(F)cc1 (3D coordinates assigned)
CCN(Cc1ccc(C#N)c(-n2c[nH+]cn2)c1)c1ccc(F)cc1 (optimized conformer: 80.74789331155782 kcal/mol)

>  <smiles>  (36) 
CCN(Cc1ccc(C#N)c(-n2cncn2)c1)c1ccc(F)cc1

>  <score_type>  (36) 
oracle

>  <origin>  (36) 
adg

>  <m_score__min__energy>  (36) 
-7.2400000000000002

>  <m_primary>  (36) 
energy

$$$$
36:0
     RDKit          3D

 59 61  0  0  0  0  0  0  0  0999 V2000
    3.0480   20.8260  -34.7170 C   0  0  0  0  0  0  0  0  0  0  0  0
    1.8690   21.5500  -34.3750 O   0  0  0  0  0  0  0  0  0  0  0  0
    0.6670   20.9600  -33.9520 C   0  0  0  0  0  0  0  0  0  0  0  0
    0.3200   20.8650  -32.5930 C   0  0  0  0  0  0  0  0  0  0  0  0
   -0.8890   20.2830  -32.2110 C   0  0  0  0  0  0  0  0  0  0  0  0
   -1.7630   19.7610  -33.1770 C   0  0  0  0  0  0  0  0  0  0  0  0
   -3.0990   19.1920  -32.7560 C   0  0  0  0  0  0  0  0  0  0  0  0
   -3.9980   20.2580  -32.2580 N   0  0  0  0  0  0  0  0  0  0  0  0
   -5.3870   20.0200  -32.6830 C   0  0  0  0  0  0  0  0  0  0  0  0
   -6.3400   20.9720  -31.9410 C   0  0  0  0  0  0  0  0  0  0  0  0
   -5.7640   22.3210  -31.7440 N   0  0  0  0  0  0  0  0  0  0  0  0
   -5.6710   22.8070  -30.3480 C   0  0  0  0  0  0  0  0  0  0  0  0
   -4.2490   22.9440  -29.8360 C   0  0  0  0  0  0  0  0  0  0  0  0
   -3.5990   21.8130  -29.3140 C   0  0  0  0  0  0  0  0  0  0  0  0
   -2.3190   21.9140  -28.7810 C   0  0  0  0  0  0  0  0  0  0  0  0
   -1.6550   23.1370  -28.7780 C   0  0  0  0  0  0  0  0  0  0  0  0
   -2.2570   24.2790  -29.3370 C   0  0  0  0  0  0  0  0  0  0  0  0
   -1.6010   25.5170  -29.3230 O   0  0  0  0  0  0  0  0  0  0  0  0
   -0.8780   26.0400  -28.2160 C   0  0  0  0  0  0  0  0  0  0  0  0
   -3.5550   24.1760  -29.9040 C   0  0  0  0  0  0  0  0  0  0  0  0
   -4.1900   25.2570  -30.5400 O   0  0  0  0  0  0  0  0  0  0  0  0
   -5.4780   25.7760  -30.2180 C   0  0  0  0  0  0  0  0  0  0  0  0
   -4.6480   22.6790  -32.6400 C   0  0  0  0  0  0  0  0  0  0  0  0
   -3.5430   21.5960  -32.7070 C   0  0  0  0  0  0  0  0  0  0  0  0
   -1.4210   19.8520  -34.5350 C   0  0  0  0  0  0  0  0  0  0  0  0
   -0.2110   20.4570  -34.9280 C   0  0  0  0  0  0  0  0  0  0  0  0
    0.1540   20.5840  -36.2780 O   0  0  0  0  0  0  0  0  0  0  0  0
    0.8150   19.5760  -37.0340 C   0  0  0  0  0  0  0  0  0  0  0  0
    3.5634   20.5095  -33.7982 H   0  0  0  0  0  0  0  0  0  0  0  0
    2.7753   19.9395  -35.3084 H   0  0  0  0  0  0  0  0  0  0  0  0
    3.7153   21.4702  -35.3084 H   0  0  0  0  0  0  0  0  0  0  0  0
    1.0064   21.2522  -31.8256 H   0  0  0  0  0  0  0  0  0  0  0  0
   -1.1589   20.2329  -31.1458 H   0  0  0  0  0  0  0  0  0  0  0  0
   -3.5689   18.7003  -33.6206 H   0  0  0  0  0  0  0  0  0  0  0  0
   -2.9311   18.4685  -31.9446 H   0  0  0  0  0  0  0  0  0  0  0  0
   -3.9760   20.2170  -31.2150 H   0  0  0  0  0  0  0  0  0  0  0  0
   -5.4704   20.1936  -33.7660 H   0  0  0  0  0  0  0  0  0  0  0  0
   -5.6616   18.9813  -32.4469 H   0  0  0  0  0  0  0  0  0  0  0  0
   -7.2669   21.0675  -32.5255 H   0  0  0  0  0  0  0  0  0  0  0  0
   -6.5278   20.5433  -30.9455 H   0  0  0  0  0  0  0  0  0  0  0  0
   -6.1554   23.7930  -30.2919 H   0  0  0  0  0  0  0  0  0  0  0  0
   -6.1662   22.0555  -29.7155 H   0  0  0  0  0  0  0  0  0  0  0  0
   -4.1080   20.8379  -29.3272 H   0  0  0  0  0  0  0  0  0  0  0  0
   -1.8291   21.0237  -28.3600 H   0  0  0  0  0  0  0  0  0  0  0  0
   -0.6510   23.2114  -28.3348 H   0  0  0  0  0  0  0  0  0  0  0  0
   -1.3458   25.7016  -27.2797 H   0  0  0  0  0  0  0  0  0  0  0  0
    0.1620   25.6838  -28.2560 H   0  0  0  0  0  0  0  0  0  0  0  0
   -0.8909   27.1392  -28.2560 H   0  0  0  0  0  0  0  0  0  0  0  0
   -5.5920   25.8219  -29.1249 H   0  0  0  0  0  0  0  0  0  0  0  0
   -5.5823   26.7863  -30.6403 H   0  0  0  0  0  0  0  0  0  0  0  0
   -6.2536   25.1202  -30.6403 H   0  0  0  0  0  0  0  0  0  0  0  0
   -5.0489   22.8315  -33.6529 H   0  0  0  0  0  0  0  0  0  0  0  0
   -4.1854   23.5911  -32.2349 H   0  0  0  0  0  0  0  0  0  0  0  0
   -3.1976   21.5150  -33.7482 H   0  0  0  0  0  0  0  0  0  0  0  0
   -2.7399   21.9105  -32.0243 H   0  0  0  0  0  0  0  0  0  0  0  0
   -2.1026   19.4480  -35.2980 H   0  0  0  0  0  0  0  0  0  0  0  0
    1.2875   18.8554  -36.3502 H   0  0  0  0  0  0  0  0  0  0  0  0
    0.0832   19.0541  -37.6681 H   0  0  0  0  0  0  0  0  0  0  0  0
    1.5853   20.0392  -37.6681 H   0  0  0  0  0  0  0  0  0  0  0  0
  1  2  1  0
  2  3  1  0
  3  4  2  0
  4  5  1  0
  5  6  2  0
  6  7  1  0
  7  8  1  0
  8  9  1  0
  9 10  1  0
 10 11  1  0
 11 12  1  0
 12 13  1  0
 13 14  2  0
 14 15  1  0
 15 16  2  0
 16 17  1  0
 17 18  1  0
 18 19  1  0
 17 20  2  0
 20 21  1  0
 21 22  1  0
 11 23  1  0
 23 24  1  0
  6 25  1  0
 25 26  2  0
 26 27  1  0
 27 28  1  0
 26  3  1  0
 24  8  1  0
 20 13  1  0
  1 29  1  0
  1 30  1  0
  1 31  1  0
  4 32  1  0
  5 33  1  0
  7 34  1  0
  7 35  1  0
  8 36  1  0
  9 37  1  0
  9 38  1  0
 10 39  1  0
 10 40  1  0
 12 41  1  0
 12 42  1  0
 14 43  1  0
 15 44  1  0
 16 45  1  0
 19 46  1  0
 19 47  1  0
 19 48  1  0
 22 49  1  0
 22 50  1  0
 22 51  1  0
 23 52  1  0
 23 53  1  0
 24 54  1  0
 24 55  1  0
 25 56  1  0
 28 57  1  0
 28 58  1  0
 28 59  1  0
M  CHG  1   8   1
M  END
>  <UniqueID>  (37) 
36

>  <SMILES>  (37) 
COc1ccc(C[NH+]2CCN(Cc3cccc(OC)c3OC)CC2)cc1OC

>  <Energy>  (37) 
75.48595612015941

>  <Genealogy>  (37) 
COc1ccc(C[NH+]2CCN(Cc3cccc(OC)c3OC)CC2)cc1OC (protonated)
COc1ccc(C[NH+]2CCN(Cc3cccc(OC)c3OC)CC2)cc1OC (3D coordinates assigned)
COc1ccc(C[NH+]2CCN(Cc3cccc(OC)c3OC)CC2)cc1OC (nonaromatic ring conformer: 75.48595612015941 kcal/mol)

>  <smiles>  (37) 
COc1ccc(CN2CCN(Cc3cccc(OC)c3OC)CC2)cc1OC

>  <score_type>  (37) 
oracle

>  <origin>  (37) 
adg

>  <m_score__min__energy>  (37) 
-6.5599999999999996

>  <m_primary>  (37) 
energy

$$$$
37:0
     RDKit          3D

 56 59  0  0  1  0  0  0  0  0999 V2000
   -9.1810   21.2630  -31.0390 C   0  0  0  0  0  0  0  0  0  0  0  0
   -8.0610   20.7960  -31.8540 C   0  0  0  0  0  0  0  0  0  0  0  0
   -7.9270   19.4400  -32.1810 C   0  0  0  0  0  0  0  0  0  0  0  0
   -9.1270   18.3070  -31.5960 Cl  0  0  0  0  0  0  0  0  0  0  0  0
   -6.9190   18.9630  -32.9240 N   0  0  0  0  0  0  0  0  0  0  0  0
   -5.9760   19.7790  -33.3970 C   0  0  0  0  0  0  0  0  0  0  0  0
   -5.0250   19.3120  -34.0990 N   0  0  0  0  0  0  0  0  0  0  0  0
   -6.0050   23.5240  -31.4900 C   0  0  0  0  0  0  0  0  0  0  0  0
   -6.1410   24.7260  -30.8030 C   0  0  0  0  0  0  0  0  0  0  0  0
   -1.6070   18.5050  -32.9770 C   0  0  0  0  0  0  0  0  0  0  0  0
   -1.0770   19.7690  -32.7760 C   0  0  0  0  0  0  0  0  0  0  0  0
   -1.8540   20.9070  -33.0130 C   0  0  0  0  0  0  0  0  0  0  0  0
   -4.7450   22.8790  -31.4500 C   0  0  0  0  0  0  0  0  0  0  0  0
   -6.0690   21.0810  -33.1070 N   0  0  0  0  0  0  0  0  0  0  0  0
   -7.0730   21.6130  -32.3560 C   0  0  0  0  0  0  0  0  0  0  0  0
   -7.0210   22.8550  -32.1550 N   0  0  0  0  0  0  0  0  0  0  0  0
   -3.6900   19.5070  -33.6500 C   0  0  0  0  0  0  0  0  0  0  0  0
   -2.9210   18.3900  -33.4160 C   0  0  0  0  0  0  0  0  0  0  0  0
   -5.1050   25.3000  -30.0990 C   0  0  0  0  0  0  0  0  0  0  0  0
   -3.8670   24.6450  -30.0720 C   0  0  0  0  0  0  0  0  0  0  0  0
   -2.8750   25.2810  -29.3450 O   0  0  0  0  0  0  0  0  0  0  0  0
   -2.2720   24.6460  -28.2350 C   0  0  0  0  0  0  0  0  0  0  0  0
   -1.0960   23.7900  -28.6580 C   0  0  0  0  0  0  0  0  0  0  0  0
   -1.3140   22.4040  -28.4930 N   0  0  0  0  0  0  0  0  0  0  0  0
   -2.3060   21.9650  -27.6010 C   0  0  0  0  0  0  0  0  0  0  0  0
   -2.7300   20.5950  -28.1510 C   0  0  0  0  0  0  0  0  0  0  0  0
   -2.3010   20.6180  -29.5960 C   0  0  0  0  0  0  0  0  0  0  0  0
   -1.1160   21.5500  -29.5870 C   0  0  0  0  0  0  0  0  0  0  0  0
   -3.6940   23.4540  -30.7400 C   0  0  0  0  0  0  0  0  0  0  0  0
   -3.1530   20.7820  -33.4470 C   0  0  0  0  0  0  0  0  0  0  0  0
   -8.9282   21.1576  -29.9736 H   0  0  0  0  0  0  0  0  0  0  0  0
   -9.3831   22.3204  -31.2650 H   0  0  0  0  0  0  0  0  0  0  0  0
  -10.0744   20.6624  -31.2650 H   0  0  0  0  0  0  0  0  0  0  0  0
   -6.8770   17.9430  -33.1310 H   0  0  0  0  0  0  0  0  0  0  0  0
   -7.1141   25.2385  -30.8226 H   0  0  0  0  0  0  0  0  0  0  0  0
   -0.9984   17.6075  -32.7924 H   0  0  0  0  0  0  0  0  0  0  0  0
   -0.0392   19.8780  -32.4280 H   0  0  0  0  0  0  0  0  0  0  0  0
   -1.4244   21.9067  -32.8516 H   0  0  0  0  0  0  0  0  0  0  0  0
   -4.5967   21.9258  -31.9786 H   0  0  0  0  0  0  0  0  0  0  0  0
   -5.2990   21.7000  -33.5010 H   0  0  0  0  0  0  0  0  0  0  0  0
   -3.3525   17.3913  -33.5787 H   0  0  0  0  0  0  0  0  0  0  0  0
   -5.2471   26.2533  -29.5689 H   0  0  0  0  0  0  0  0  0  0  0  0
   -1.9201   25.4145  -27.5310 H   0  0  0  0  0  0  0  0  0  0  0  0
   -3.0208   23.9946  -27.7606 H   0  0  0  0  0  0  0  0  0  0  0  0
   -0.8890   23.9849  -29.7206 H   0  0  0  0  0  0  0  0  0  0  0  0
   -0.2505   24.0619  -28.0090 H   0  0  0  0  0  0  0  0  0  0  0  0
   -1.8999   21.8678  -26.5833 H   0  0  0  0  0  0  0  0  0  0  0  0
   -3.1485   22.6686  -27.5293 H   0  0  0  0  0  0  0  0  0  0  0  0
   -2.2226   19.7842  -27.6078 H   0  0  0  0  0  0  0  0  0  0  0  0
   -3.8094   20.4153  -28.0384 H   0  0  0  0  0  0  0  0  0  0  0  0
   -2.0106   19.6135  -29.9376 H   0  0  0  0  0  0  0  0  0  0  0  0
   -3.1002   20.9419  -30.2789 H   0  0  0  0  0  0  0  0  0  0  0  0
   -0.1819   20.9818  -29.4660 H   0  0  0  0  0  0  0  0  0  0  0  0
   -1.0327   22.1104  -30.5299 H   0  0  0  0  0  0  0  0  0  0  0  0
   -2.7159   22.9514  -30.7127 H   0  0  0  0  0  0  0  0  0  0  0  0
   -3.7643   21.6774  -33.6328 H   0  0  0  0  0  0  0  0  0  0  0  0
  1  2  1  0
  2  3  2  0
  3  4  1  0
  3  5  1  0
  5  6  1  0
  6  7  2  0
  7  8  1  0
  8  9  2  0
  9 10  1  0
 10 11  2  0
 11 12  1  0
 12 13  2  0
  6 14  1  0
 14 15  1  0
 15 16  2  0
 16 17  1  0
 17 18  2  0
 18 19  1  0
 19 20  2  0
 20 21  1  0
 21 22  1  0
 22 23  1  0
 23 24  1  0
 24 25  1  0
 25 26  1  0
 26 27  1  0
 27 28  1  0
 20 29  1  0
 29 30  2  0
 15  2  1  0
 30 17  1  0
 13  8  1  0
 28 24  1  0
  1 31  1  0
  1 32  1  0
  1 33  1  0
  5 34  1  0
  9 35  1  0
 10 36  1  0
 11 37  1  0
 12 38  1  0
 13 39  1  0
 14 40  1  0
 18 41  1  0
 19 42  1  0
 22 43  1  0
 22 44  1  0
 23 45  1  0
 23 46  1  0
 25 47  1  0
 25 48  1  0
 26 49  1  0
 26 50  1  0
 27 51  1  0
 27 52  1  0
 28 53  1  0
 28 54  1  0
 29 55  1  0
 30 56  1  0
M  END
>  <smiles>  (38) 
Cc1c(Cl)[nH]c(=Nc2ccccc2)[nH]c1=Nc1ccc(OCCN2CCCC2)cc1

>  <score_type>  (38) 
oracle

>  <origin>  (38) 
adg

>  <m_score__min__energy>  (38) 
-10.08

>  <m_primary>  (38) 
energy

$$$$
38:0
     RDKit          3D

 36 37  0  0  0  0  0  0  0  0999 V2000
   -3.0480   24.0940  -29.6840 C   0  0  0  0  0  0  0  0  0  0  0  0
   -3.8610   24.4410  -30.7990 O   0  0  0  0  0  0  0  0  0  0  0  0
   -4.9870   23.7140  -31.2180 C   0  0  0  0  0  0  0  0  0  0  0  0
   -4.8800   22.5840  -32.0510 C   0  0  0  0  0  0  0  0  0  0  0  0
   -6.0230   21.8770  -32.4330 C   0  0  0  0  0  0  0  0  0  0  0  0
   -7.2890   22.2780  -31.9810 C   0  0  0  0  0  0  0  0  0  0  0  0
   -8.5140   21.4770  -32.3460 C   0  0  0  0  0  0  0  0  0  0  0  0
   -8.1490   20.1060  -32.7330 N   0  0  0  0  0  0  0  0  0  0  0  0
   -8.9280   19.0890  -32.0070 C   0  0  0  0  0  0  0  0  0  0  0  0
   -8.0620   17.8500  -31.8030 C   0  0  0  0  0  0  0  0  0  0  0  0
   -6.3080   18.3030  -31.5710 S   0  0  0  0  0  0  0  0  0  0  0  0
   -5.8820   18.1720  -33.3130 C   0  0  0  0  0  0  0  0  0  0  0  0
   -6.3600   18.9890  -34.2680 N   0  0  0  0  0  0  0  0  0  0  0  0
   -5.8230   18.5490  -35.3980 N   0  0  0  0  0  0  0  0  0  0  0  0
   -5.0500   17.5000  -35.1560 N   0  0  0  0  0  0  0  0  0  0  0  0
   -5.0790   17.2430  -33.8620 N   0  0  0  0  0  0  0  0  0  0  0  0
   -4.3430   16.1630  -33.2160 C   0  0  0  0  0  0  0  0  0  0  0  0
   -7.3990   23.4120  -31.1640 C   0  0  0  0  0  0  0  0  0  0  0  0
   -6.2570   24.1250  -30.7840 C   0  0  0  0  0  0  0  0  0  0  0  0
   -6.4310   25.5280  -29.7400 Cl  0  0  0  0  0  0  0  0  0  0  0  0
   -3.5859   24.3236  -28.7524 H   0  0  0  0  0  0  0  0  0  0  0  0
   -2.8173   23.0190  -29.7188 H   0  0  0  0  0  0  0  0  0  0  0  0
   -2.1122   24.6711  -29.7188 H   0  0  0  0  0  0  0  0  0  0  0  0
   -3.8909   22.2559  -32.4031 H   0  0  0  0  0  0  0  0  0  0  0  0
   -5.9296   21.0011  -33.0918 H   0  0  0  0  0  0  0  0  0  0  0  0
   -9.1904   21.4385  -31.4794 H   0  0  0  0  0  0  0  0  0  0  0  0
   -9.0098   21.9627  -33.1994 H   0  0  0  0  0  0  0  0  0  0  0  0
   -8.3340   20.0020  -33.7590 H   0  0  0  0  0  0  0  0  0  0  0  0
   -9.2354   19.4888  -31.0294 H   0  0  0  0  0  0  0  0  0  0  0  0
   -9.8240   18.8239  -32.5874 H   0  0  0  0  0  0  0  0  0  0  0  0
   -8.4139   17.3087  -30.9124 H   0  0  0  0  0  0  0  0  0  0  0  0
   -8.1432   17.2163  -32.6985 H   0  0  0  0  0  0  0  0  0  0  0  0
   -4.4167   16.2711  -32.1238 H   0  0  0  0  0  0  0  0  0  0  0  0
   -4.7707   15.1957  -33.5184 H   0  0  0  0  0  0  0  0  0  0  0  0
   -3.2863   16.2073  -33.5184 H   0  0  0  0  0  0  0  0  0  0  0  0
   -8.3898   23.7433  -30.8195 H   0  0  0  0  0  0  0  0  0  0  0  0
  1  2  1  0
  2  3  1  0
  3  4  2  0
  4  5  1  0
  5  6  2  0
  6  7  1  0
  7  8  1  0
  8  9  1  0
  9 10  1  0
 10 11  1  0
 11 12  1  0
 12 13  2  0
 13 14  1  0
 14 15  2  0
 15 16  1  0
 16 17  1  0
  6 18  1  0
 18 19  2  0
 19 20  1  0
 19  3  1  0
 16 12  1  0
  1 21  1  0
  1 22  1  0
  1 23  1  0
  4 24  1  0
  5 25  1  0
  7 26  1  0
  7 27  1  0
  8 28  1  0
  9 29  1  0
  9 30  1  0
 10 31  1  0
 10 32  1  0
 17 33  1  0
 17 34  1  0
 17 35  1  0
 18 36  1  0
M  END
>  <UniqueID>  (39) 
37

>  <SMILES>  (39) 
COc1ccc(CNCCSc2nnnn2C)cc1Cl

>  <Energy>  (39) 
67.09735837881412

>  <Genealogy>  (39) 
COc1ccc(CNCCSc2nnnn2C)cc1Cl (3D coordinates assigned)
COc1ccc(CNCCSc2nnnn2C)cc1Cl (optimized conformer: 67.09735837881412 kcal/mol)

>  <smiles>  (39) 
COc1ccc(CNCCSc2nnnn2C)cc1Cl

>  <score_type>  (39) 
oracle

>  <origin>  (39) 
adg

>  <m_score__min__energy>  (39) 
-7.8600000000000003

>  <m_primary>  (39) 
energy

$$$$
39:0
     RDKit          3D

 42 44  0  0  0  0  0  0  0  0999 V2000
   -1.8710   25.5360  -26.7910 C   0  0  0  0  0  0  0  0  0  0  0  0
   -2.8730   24.5810  -27.2670 N   0  0  0  0  0  0  0  0  0  0  0  0
   -4.2550   24.6880  -26.8010 C   0  0  0  0  0  0  0  0  0  0  0  0
   -2.5060   23.5010  -28.1450 C   0  0  0  0  0  0  0  0  0  0  0  0
   -1.9890   22.3520  -27.6190 N   0  0  0  0  0  0  0  0  0  0  0  0
   -1.6250   21.3050  -28.4050 C   0  0  0  0  0  0  0  0  0  0  0  0
   -1.7760   21.3800  -29.7880 C   0  0  0  0  0  0  0  0  0  0  0  0
   -2.2910   22.5430  -30.3580 C   0  0  0  0  0  0  0  0  0  0  0  0
   -2.6430   23.6300  -29.5420 C   0  0  0  0  0  0  0  0  0  0  0  0
   -3.1620   24.8480  -30.0990 N   0  0  0  0  0  0  0  0  0  0  0  0
   -4.5240   25.1030  -30.4690 C   0  0  0  0  0  0  0  0  0  0  0  0
   -4.9550   26.2880  -30.4890 O   0  0  0  0  0  0  0  0  0  0  0  0
   -5.4490   23.9780  -30.7630 C   0  0  0  0  0  0  0  0  0  0  0  0
   -5.0150   22.9100  -31.5720 C   0  0  0  0  0  0  0  0  0  0  0  0
   -5.8670   21.8310  -31.8700 C   0  0  0  0  0  0  0  0  0  0  0  0
   -5.3990   20.7130  -32.7280 C   0  0  0  0  0  0  0  0  0  0  0  0
   -6.3110   19.7930  -33.2750 C   0  0  0  0  0  0  0  0  0  0  0  0
   -5.8570   18.7470  -34.0800 C   0  0  0  0  0  0  0  0  0  0  0  0
   -4.4910   18.6240  -34.3360 C   0  0  0  0  0  0  0  0  0  0  0  0
   -3.6160   19.5190  -33.8040 N   0  0  0  0  0  0  0  0  0  0  0  0
   -4.0330   20.5460  -33.0160 C   0  0  0  0  0  0  0  0  0  0  0  0
   -7.1680   21.8260  -31.3440 C   0  0  0  0  0  0  0  0  0  0  0  0
   -7.6080   22.8760  -30.5370 C   0  0  0  0  0  0  0  0  0  0  0  0
   -6.7600   23.9460  -30.2440 C   0  0  0  0  0  0  0  0  0  0  0  0
   -7.2240   24.9330  -29.4350 F   0  0  0  0  0  0  0  0  0  0  0  0
   -1.8641   25.5425  -25.6910 H   0  0  0  0  0  0  0  0  0  0  0  0
   -0.8783   25.2414  -27.1621 H   0  0  0  0  0  0  0  0  0  0  0  0
   -2.1176   26.5417  -27.1621 H   0  0  0  0  0  0  0  0  0  0  0  0
   -4.2720   24.6893  -25.7011 H   0  0  0  0  0  0  0  0  0  0  0  0
   -4.6969   25.6230  -27.1757 H   0  0  0  0  0  0  0  0  0  0  0  0
   -4.8356   23.8321  -27.1757 H   0  0  0  0  0  0  0  0  0  0  0  0
   -1.8830   22.2570  -26.5840 H   0  0  0  0  0  0  0  0  0  0  0  0
   -1.2096   20.3949  -27.9477 H   0  0  0  0  0  0  0  0  0  0  0  0
   -1.4914   20.5291  -30.4243 H   0  0  0  0  0  0  0  0  0  0  0  0
   -2.4218   22.6093  -31.4482 H   0  0  0  0  0  0  0  0  0  0  0  0
   -3.9926   22.9197  -31.9777 H   0  0  0  0  0  0  0  0  0  0  0  0
   -7.3862   19.8980  -33.0677 H   0  0  0  0  0  0  0  0  0  0  0  0
   -6.5693   18.0266  -34.5085 H   0  0  0  0  0  0  0  0  0  0  0  0
   -4.1217   17.8031  -34.9682 H   0  0  0  0  0  0  0  0  0  0  0  0
   -3.2969   21.2505  -32.6013 H   0  0  0  0  0  0  0  0  0  0  0  0
   -7.8453   20.9890  -31.5693 H   0  0  0  0  0  0  0  0  0  0  0  0
   -8.6294   22.8607  -30.1291 H   0  0  0  0  0  0  0  0  0  0  0  0
  1  2  1  0
  2  3  1  0
  2  4  1  0
  4  5  2  0
  5  6  1  0
  6  7  2  0
  7  8  1  0
  8  9  2  0
  9 10  1  0
 10 11  1  0
 11 12  2  0
 11 13  1  0
 13 14  2  0
 14 15  1  0
 15 16  1  0
 16 17  2  0
 17 18  1  0
 18 19  2  0
 19 20  1  0
 20 21  2  0
 15 22  2  0
 22 23  1  0
 23 24  2  0
 24 25  1  0
  9  4  1  0
 24 13  1  0
 21 16  1  0
  1 26  1  0
  1 27  1  0
  1 28  1  0
  3 29  1  0
  3 30  1  0
  3 31  1  0
  5 32  1  0
  6 33  1  0
  7 34  1  0
  8 35  1  0
 14 36  1  0
 17 37  1  0
 18 38  1  0
 19 39  1  0
 21 40  1  0
 22 41  1  0
 23 42  1  0
M  CHG  2   5   1  10  -1
M  END
>  <UniqueID>  (40) 
38

>  <SMILES>  (40) 
CN(C)c1[nH+]cccc1[N-]C(=O)c1cc(-c2cccnc2)ccc1F

>  <Energy>  (40) 
59.46746023426732

>  <Genealogy>  (40) 
CN(C)c1[nH+]cccc1[N-]C(=O)c1cc(-c2cccnc2)ccc1F (protonated)
CN(C)c1[nH+]cccc1[N-]C(=O)c1cc(-c2cccnc2)ccc1F (3D coordinates assigned)
CN(C)c1[nH+]cccc1[N-]C(=O)c1cc(-c2cccnc2)ccc1F (optimized conformer: 59.46746023426732 kcal/mol)

>  <smiles>  (40) 
CN(C)c1ncccc1NC(=O)c1cc(-c2cccnc2)ccc1F

>  <score_type>  (40) 
oracle

>  <origin>  (40) 
adg

>  <m_score__min__energy>  (40) 
-8.4499999999999993

>  <m_primary>  (40) 
energy

$$$$
40:0
     RDKit          3D

 48 51  0  0  0  0  0  0  0  0999 V2000
   -2.2720   24.9200  -28.6390 C   0  0  0  0  0  0  0  0  0  0  0  0
   -3.1050   25.2950  -29.7310 O   0  0  0  0  0  0  0  0  0  0  0  0
   -4.2320   24.5820  -30.1710 C   0  0  0  0  0  0  0  0  0  0  0  0
   -5.5120   25.1660  -30.1170 C   0  0  0  0  0  0  0  0  0  0  0  0
   -6.6320   24.4680  -30.5490 C   0  0  0  0  0  0  0  0  0  0  0  0
   -6.5080   23.1750  -31.0460 C   0  0  0  0  0  0  0  0  0  0  0  0
   -7.6220   22.5170  -31.4560 N   0  0  0  0  0  0  0  0  0  0  0  0
   -7.5900   21.2540  -31.9490 C   0  0  0  0  0  0  0  0  0  0  0  0
   -8.8870   20.6160  -32.3610 C   0  0  0  0  0  0  0  0  0  0  0  0
   -6.3560   20.5830  -32.0640 C   0  0  0  0  0  0  0  0  0  0  0  0
   -6.2840   19.2080  -32.6140 C   0  0  0  0  0  0  0  0  0  0  0  0
   -6.4110   18.1010  -31.7630 C   0  0  0  0  0  0  0  0  0  0  0  0
   -6.3410   16.8030  -32.2770 C   0  0  0  0  0  0  0  0  0  0  0  0
   -6.1350   16.5910  -33.6520 C   0  0  0  0  0  0  0  0  0  0  0  0
   -6.0600   15.2120  -34.2000 C   0  0  0  0  0  0  0  0  0  0  0  0
   -4.8160   14.5780  -34.3760 C   0  0  0  0  0  0  0  0  0  0  0  0
   -4.7490   13.2800  -34.8920 C   0  0  0  0  0  0  0  0  0  0  0  0
   -5.9200   12.6020  -35.2380 C   0  0  0  0  0  0  0  0  0  0  0  0
   -7.1620   13.2200  -35.0690 C   0  0  0  0  0  0  0  0  0  0  0  0
   -7.2340   14.5180  -34.5530 C   0  0  0  0  0  0  0  0  0  0  0  0
   -5.9990   17.7050  -34.5000 C   0  0  0  0  0  0  0  0  0  0  0  0
   -6.0710   19.0020  -33.9840 C   0  0  0  0  0  0  0  0  0  0  0  0
   -5.1810   21.2340  -31.6410 C   0  0  0  0  0  0  0  0  0  0  0  0
   -4.0760   20.6310  -31.7430 O   0  0  0  0  0  0  0  0  0  0  0  0
   -5.2410   22.5510  -31.1180 C   0  0  0  0  0  0  0  0  0  0  0  0
   -4.0870   23.2600  -30.6750 C   0  0  0  0  0  0  0  0  0  0  0  0
   -2.8370   22.6110  -30.7570 O   0  0  0  0  0  0  0  0  0  0  0  0
   -2.2260   21.7890  -29.7690 C   0  0  0  0  0  0  0  0  0  0  0  0
   -2.7828   25.1500  -27.6923 H   0  0  0  0  0  0  0  0  0  0  0  0
   -2.0635   23.8412  -28.6905 H   0  0  0  0  0  0  0  0  0  0  0  0
   -1.3261   25.4791  -28.6905 H   0  0  0  0  0  0  0  0  0  0  0  0
   -5.6263   26.1884  -29.7276 H   0  0  0  0  0  0  0  0  0  0  0  0
   -7.6239   24.9409  -30.4978 H   0  0  0  0  0  0  0  0  0  0  0  0
   -9.4585   20.3349  -31.4641 H   0  0  0  0  0  0  0  0  0  0  0  0
   -9.4723   21.3290  -32.9602 H   0  0  0  0  0  0  0  0  0  0  0  0
   -8.6794   19.7172  -32.9602 H   0  0  0  0  0  0  0  0  0  0  0  0
   -6.5666   18.2548  -30.6850 H   0  0  0  0  0  0  0  0  0  0  0  0
   -6.4478   15.9415  -31.6014 H   0  0  0  0  0  0  0  0  0  0  0  0
   -3.8901   15.1070  -34.1059 H   0  0  0  0  0  0  0  0  0  0  0  0
   -3.7722   12.7921  -35.0256 H   0  0  0  0  0  0  0  0  0  0  0  0
   -5.8647   11.5811  -35.6437 H   0  0  0  0  0  0  0  0  0  0  0  0
   -8.0837   12.6852  -35.3420 H   0  0  0  0  0  0  0  0  0  0  0  0
   -8.2140   15.0002  -34.4219 H   0  0  0  0  0  0  0  0  0  0  0  0
   -5.8348   17.5543  -35.5772 H   0  0  0  0  0  0  0  0  0  0  0  0
   -5.9599   19.8654  -34.6564 H   0  0  0  0  0  0  0  0  0  0  0  0
   -2.4981   22.1551  -28.7680 H   0  0  0  0  0  0  0  0  0  0  0  0
   -2.5746   20.7525  -29.8876 H   0  0  0  0  0  0  0  0  0  0  0  0
   -1.1330   21.8241  -29.8876 H   0  0  0  0  0  0  0  0  0  0  0  0
  1  2  1  0
  2  3  1  0
  3  4  2  0
  4  5  1  0
  5  6  2  0
  6  7  1  0
  7  8  1  0
  8  9  1  0
  8 10  2  0
 10 11  1  0
 11 12  2  0
 12 13  1  0
 13 14  2  0
 14 15  1  0
 15 16  2  0
 16 17  1  0
 17 18  2  0
 18 19  1  0
 19 20  2  0
 14 21  1  0
 21 22  2  0
 10 23  1  0
 23 24  2  0
 23 25  1  0
 25 26  2  0
 26 27  1  0
 27 28  1  0
 26  3  1  0
 25  6  1  0
 22 11  1  0
 20 15  1  0
  1 29  1  0
  1 30  1  0
  1 31  1  0
  4 32  1  0
  5 33  1  0
  9 34  1  0
  9 35  1  0
  9 36  1  0
 12 37  1  0
 13 38  1  0
 16 39  1  0
 17 40  1  0
 18 41  1  0
 19 42  1  0
 20 43  1  0
 21 44  1  0
 22 45  1  0
 28 46  1  0
 28 47  1  0
 28 48  1  0
M  CHG  1   7  -1
M  END
>  <UniqueID>  (41) 
39

>  <SMILES>  (41) 
COc1ccc2[n-]c(C)c(-c3ccc(-c4ccccc4)cc3)c(=O)c2c1OC

>  <Energy>  (41) 
74.77824965812673

>  <Genealogy>  (41) 
COc1ccc2[n-]c(C)c(-c3ccc(-c4ccccc4)cc3)c(=O)c2c1OC (protonated)
COc1ccc2[n-]c(C)c(-c3ccc(-c4ccccc4)cc3)c(=O)c2c1OC (3D coordinates assigned)
COc1ccc2[n-]c(C)c(-c3ccc(-c4ccccc4)cc3)c(=O)c2c1OC (optimized conformer: 74.77824965812673 kcal/mol)

>  <smiles>  (41) 
COc1ccc2[nH]c(C)c(-c3ccc(-c4ccccc4)cc3)c(=O)c2c1OC

>  <score_type>  (41) 
oracle

>  <origin>  (41) 
adg

>  <m_score__min__energy>  (41) 
-9.0299999999999994

>  <m_primary>  (41) 
energy

$$$$
41:0
     RDKit          3D

 44 44  0  0  0  0  0  0  0  0999 V2000
   -8.8440   21.9540  -31.6910 C   0  0  0  0  0  0  0  0  0  0  0  0
   -7.6450   22.3330  -30.8280 C   0  0  0  0  0  0  0  0  0  0  0  0
   -7.1990   23.7760  -31.1040 C   0  0  0  0  0  0  0  0  0  0  0  0
   -6.3070   24.3420  -29.9890 C   0  0  0  0  0  0  0  0  0  0  0  0
   -5.3930   25.4740  -30.4770 C   0  0  0  0  0  0  0  0  0  0  0  0
   -4.1140   24.9590  -30.8360 O   0  0  0  0  0  0  0  0  0  0  0  0
   -3.6380   23.7100  -30.4180 C   0  0  0  0  0  0  0  0  0  0  0  0
   -2.9720   23.6100  -29.3510 O   0  0  0  0  0  0  0  0  0  0  0  0
   -3.9170   22.5390  -31.2080 N   0  0  0  0  0  0  0  0  0  0  0  0
   -4.5500   22.6810  -32.5220 C   0  0  0  0  0  0  0  0  0  0  0  0
   -4.2850   21.4380  -33.3870 C   0  0  0  0  0  0  0  0  0  0  0  0
   -4.7160   20.1560  -32.7340 N   0  0  0  0  0  0  0  0  0  0  0  0
   -6.1570   19.9520  -33.0440 C   0  0  0  0  0  0  0  0  0  0  0  0
   -3.9820   18.9960  -33.3420 C   0  0  0  0  0  0  0  0  0  0  0  0
   -4.8150   18.0760  -34.2560 C   0  0  0  0  0  0  0  0  0  0  0  0
   -4.5630   20.1750  -31.2360 C   0  0  0  0  0  0  0  0  0  0  0  0
   -3.5390   21.2040  -30.7340 C   0  0  0  0  0  0  0  0  0  0  0  0
   -9.6918   21.6860  -31.0434 H   0  0  0  0  0  0  0  0  0  0  0  0
   -9.1232   22.8077  -32.3260 H   0  0  0  0  0  0  0  0  0  0  0  0
   -8.5818   21.0949  -32.3260 H   0  0  0  0  0  0  0  0  0  0  0  0
   -7.9217   22.2392  -29.7675 H   0  0  0  0  0  0  0  0  0  0  0  0
   -6.8119   21.6573  -31.0716 H   0  0  0  0  0  0  0  0  0  0  0  0
   -6.6369   23.7963  -32.0493 H   0  0  0  0  0  0  0  0  0  0  0  0
   -8.1034   24.4000  -31.1563 H   0  0  0  0  0  0  0  0  0  0  0  0
   -6.9512   24.7313  -29.1868 H   0  0  0  0  0  0  0  0  0  0  0  0
   -5.6620   23.5250  -29.6334 H   0  0  0  0  0  0  0  0  0  0  0  0
   -5.8492   25.9556  -31.3544 H   0  0  0  0  0  0  0  0  0  0  0  0
   -5.2681   26.2068  -29.6662 H   0  0  0  0  0  0  0  0  0  0  0  0
   -5.6350   22.8045  -32.3892 H   0  0  0  0  0  0  0  0  0  0  0  0
   -4.1259   23.5615  -33.0268 H   0  0  0  0  0  0  0  0  0  0  0  0
   -4.8332   21.5487  -34.3342 H   0  0  0  0  0  0  0  0  0  0  0  0
   -3.1978   21.3749  -33.5418 H   0  0  0  0  0  0  0  0  0  0  0  0
   -6.7260   19.8714  -32.1060 H   0  0  0  0  0  0  0  0  0  0  0  0
   -6.5310   20.8062  -33.6276 H   0  0  0  0  0  0  0  0  0  0  0  0
   -6.2792   19.0276  -33.6276 H   0  0  0  0  0  0  0  0  0  0  0  0
   -3.1497   19.3989  -33.9378 H   0  0  0  0  0  0  0  0  0  0  0  0
   -3.6659   18.3678  -32.4962 H   0  0  0  0  0  0  0  0  0  0  0  0
   -5.4259   17.4013  -33.6384 H   0  0  0  0  0  0  0  0  0  0  0  0
   -5.4726   18.6879  -34.8910 H   0  0  0  0  0  0  0  0  0  0  0  0
   -4.1410   17.4823  -34.8910 H   0  0  0  0  0  0  0  0  0  0  0  0
   -5.5403   20.4112  -30.7899 H   0  0  0  0  0  0  0  0  0  0  0  0
   -4.1949   19.1824  -30.9374 H   0  0  0  0  0  0  0  0  0  0  0  0
   -3.5205   21.1968  -29.6342 H   0  0  0  0  0  0  0  0  0  0  0  0
   -2.5410   20.9467  -31.1185 H   0  0  0  0  0  0  0  0  0  0  0  0
  1  2  1  0
  2  3  1  0
  3  4  1  0
  4  5  1  0
  5  6  1  0
  6  7  1  0
  7  8  2  0
  7  9  1  0
  9 10  1  0
 10 11  1  0
 11 12  1  0
 12 13  1  0
 12 14  1  0
 14 15  1  0
 12 16  1  0
 16 17  1  0
 17  9  1  0
  1 18  1  0
  1 19  1  0
  1 20  1  0
  2 21  1  0
  2 22  1  0
  3 23  1  0
  3 24  1  0
  4 25  1  0
  4 26  1  0
  5 27  1  0
  5 28  1  0
 10 29  1  0
 10 30  1  0
 11 31  1  0
 11 32  1  0
 13 33  1  0
 13 34  1  0
 13 35  1  0
 14 36  1  0
 14 37  1  0
 15 38  1  0
 15 39  1  0
 15 40  1  0
 16 41  1  0
 16 42  1  0
 17 43  1  0
 17 44  1  0
M  CHG  1  12   1
M  END
>  <UniqueID>  (42) 
40

>  <SMILES>  (42) 
CCCCCOC(=O)N1CC[N+](C)(CC)CC1

>  <Energy>  (42) 
45.80138560134667

>  <Genealogy>  (42) 
CCCCCOC(=O)N1CC[N+](C)(CC)CC1 (3D coordinates assigned)
CCCCCOC(=O)N1CC[N+](C)(CC)CC1 (nonaromatic ring conformer: 45.80138560134667 kcal/mol)

>  <smiles>  (42) 
CCCCCOC(=O)N1CC[N+](C)(CC)CC1

>  <score_type>  (42) 
oracle

>  <origin>  (42) 
adg

>  <m_score__min__energy>  (42) 
-5.0800000000000001

>  <m_primary>  (42) 
energy

$$$$
42:0
     RDKit          3D

 38 40  0  0  0  0  0  0  0  0999 V2000
   -5.6180   16.7450  -34.1580 C   0  0  0  0  0  0  0  0  0  0  0  0
   -6.7540   16.9240  -33.3180 O   0  0  0  0  0  0  0  0  0  0  0  0
   -7.2030   18.1680  -32.8500 C   0  0  0  0  0  0  0  0  0  0  0  0
   -6.4930   19.3150  -33.2260 C   0  0  0  0  0  0  0  0  0  0  0  0
   -6.9010   20.5780  -32.7880 C   0  0  0  0  0  0  0  0  0  0  0  0
   -8.0290   20.7120  -31.9640 C   0  0  0  0  0  0  0  0  0  0  0  0
   -8.4780   22.0810  -31.5090 C   0  0  0  0  0  0  0  0  0  0  0  0
   -7.6010   22.6360  -30.4610 N   0  0  0  0  0  0  0  0  0  0  0  0
   -7.2560   24.0550  -30.6680 C   0  0  0  0  0  0  0  0  0  0  0  0
   -5.7890   24.3110  -30.4780 C   0  0  0  0  0  0  0  0  0  0  0  0
   -5.1300   25.4920  -30.7330 C   0  0  0  0  0  0  0  0  0  0  0  0
   -3.8600   25.2920  -30.4840 O   0  0  0  0  0  0  0  0  0  0  0  0
   -3.7310   24.0410  -30.0970 C   0  0  0  0  0  0  0  0  0  0  0  0
   -2.4460   23.4290  -29.7320 C   0  0  0  0  0  0  0  0  0  0  0  0
   -1.9600   22.2470  -30.3120 C   0  0  0  0  0  0  0  0  0  0  0  0
   -0.7250   21.8520  -29.8170 C   0  0  0  0  0  0  0  0  0  0  0  0
   -0.2440   22.9750  -28.6630 S   0  0  0  0  0  0  0  0  0  0  0  0
   -1.5920   23.9710  -28.7770 C   0  0  0  0  0  0  0  0  0  0  0  0
   -4.9060   23.3770  -30.0770 N   0  0  0  0  0  0  0  0  0  0  0  0
   -8.7420   19.5640  -31.5840 C   0  0  0  0  0  0  0  0  0  0  0  0
   -8.3340   18.3020  -32.0230 C   0  0  0  0  0  0  0  0  0  0  0  0
   -4.7213   16.6037  -33.5368 H   0  0  0  0  0  0  0  0  0  0  0  0
   -5.7674   15.8593  -34.7930 H   0  0  0  0  0  0  0  0  0  0  0  0
   -5.4878   17.6337  -34.7930 H   0  0  0  0  0  0  0  0  0  0  0  0
   -5.6071   19.2212  -33.8713 H   0  0  0  0  0  0  0  0  0  0  0  0
   -6.3351   21.4714  -33.0907 H   0  0  0  0  0  0  0  0  0  0  0  0
   -8.4712   22.7613  -32.3734 H   0  0  0  0  0  0  0  0  0  0  0  0
   -9.4883   21.9812  -31.0855 H   0  0  0  0  0  0  0  0  0  0  0  0
   -6.7150   22.0790  -30.4190 H   0  0  0  0  0  0  0  0  0  0  0  0
   -8.0780   22.5310  -29.5350 H   0  0  0  0  0  0  0  0  0  0  0  0
   -7.5370   24.3430  -31.6917 H   0  0  0  0  0  0  0  0  0  0  0  0
   -7.8039   24.6499  -29.9225 H   0  0  0  0  0  0  0  0  0  0  0  0
   -5.5858   26.4305  -31.0815 H   0  0  0  0  0  0  0  0  0  0  0  0
   -2.5060   21.6869  -31.0854 H   0  0  0  0  0  0  0  0  0  0  0  0
   -0.1600   20.9602  -30.1259 H   0  0  0  0  0  0  0  0  0  0  0  0
   -1.7683   24.8898  -28.1985 H   0  0  0  0  0  0  0  0  0  0  0  0
   -9.6267   19.6586  -30.9371 H   0  0  0  0  0  0  0  0  0  0  0  0
   -8.8997   17.4083  -31.7207 H   0  0  0  0  0  0  0  0  0  0  0  0
  1  2  1  0
  2  3  1  0
  3  4  2  0
  4  5  1  0
  5  6  2  0
  6  7  1  0
  7  8  1  0
  8  9  1  0
  9 10  1  0
 10 11  2  0
 11 12  1  0
 12 13  1  0
 13 14  1  0
 14 15  1  0
 15 16  2  0
 16 17  1  0
 17 18  1  0
 13 19  2  0
  6 20  1  0
 20 21  2  0
 21  3  1  0
 19 10  1  0
 18 14  2  0
  1 22  1  0
  1 23  1  0
  1 24  1  0
  4 25  1  0
  5 26  1  0
  7 27  1  0
  7 28  1  0
  8 29  1  0
  8 30  1  0
  9 31  1  0
  9 32  1  0
 11 33  1  0
 15 34  1  0
 16 35  1  0
 18 36  1  0
 20 37  1  0
 21 38  1  0
M  CHG  1   8   1
M  END
>  <UniqueID>  (43) 
41

>  <SMILES>  (43) 
COc1ccc(C[NH2+]Cc2coc(-c3ccsc3)n2)cc1

>  <Energy>  (43) 
92.81382535124074

>  <Genealogy>  (43) 
COc1ccc(C[NH2+]Cc2coc(-c3ccsc3)n2)cc1 (protonated)
COc1ccc(C[NH2+]Cc2coc(-c3ccsc3)n2)cc1 (3D coordinates assigned)
COc1ccc(C[NH2+]Cc2coc(-c3ccsc3)n2)cc1 (optimized conformer: 92.81382535124074 kcal/mol)

>  <smiles>  (43) 
COc1ccc(CNCc2coc(-c3ccsc3)n2)cc1

>  <score_type>  (43) 
oracle

>  <origin>  (43) 
adg

>  <m_score__min__energy>  (43) 
-6.7800000000000002

>  <m_primary>  (43) 
energy

$$$$
43:0
     RDKit          3D

 46 49  0  0  0  0  0  0  0  0999 V2000
    0.1320   17.5940  -35.6100 C   0  0  0  0  0  0  0  0  0  0  0  0
    0.1580   18.2740  -34.3580 O   0  0  0  0  0  0  0  0  0  0  0  0
   -0.9170   19.0060  -33.8330 C   0  0  0  0  0  0  0  0  0  0  0  0
   -1.8090   18.4650  -32.8880 C   0  0  0  0  0  0  0  0  0  0  0  0
   -2.8650   19.2370  -32.3930 C   0  0  0  0  0  0  0  0  0  0  0  0
   -3.0410   20.5600  -32.8260 C   0  0  0  0  0  0  0  0  0  0  0  0
   -4.1570   21.3790  -32.2940 C   0  0  0  0  0  0  0  0  0  0  0  0
   -3.8780   22.6790  -31.8350 C   0  0  0  0  0  0  0  0  0  0  0  0
   -4.8880   23.4630  -31.2760 C   0  0  0  0  0  0  0  0  0  0  0  0
   -6.1810   22.9500  -31.1390 C   0  0  0  0  0  0  0  0  0  0  0  0
   -6.4820   21.6730  -31.6120 C   0  0  0  0  0  0  0  0  0  0  0  0
   -5.4840   20.8780  -32.2030 C   0  0  0  0  0  0  0  0  0  0  0  0
   -5.8630   19.5500  -32.7450 C   0  0  0  0  0  0  0  0  0  0  0  0
   -5.7100   19.2750  -34.1130 C   0  0  0  0  0  0  0  0  0  0  0  0
   -6.0720   18.0270  -34.6290 C   0  0  0  0  0  0  0  0  0  0  0  0
   -6.5860   17.0310  -33.7790 C   0  0  0  0  0  0  0  0  0  0  0  0
   -6.9670   15.7640  -34.2490 O   0  0  0  0  0  0  0  0  0  0  0  0
   -6.1540   14.5980  -34.1650 C   0  0  0  0  0  0  0  0  0  0  0  0
   -6.7260   17.3040  -32.4130 C   0  0  0  0  0  0  0  0  0  0  0  0
   -6.3630   18.5500  -31.8970 C   0  0  0  0  0  0  0  0  0  0  0  0
   -7.1650   23.7370  -30.5300 O   0  0  0  0  0  0  0  0  0  0  0  0
   -6.8180   24.9200  -29.8050 C   0  0  0  0  0  0  0  0  0  0  0  0
   -5.6840   25.6670  -30.5190 C   0  0  0  0  0  0  0  0  0  0  0  0
   -4.6230   24.7650  -30.8380 O   0  0  0  0  0  0  0  0  0  0  0  0
   -2.1580   21.0930  -33.7800 C   0  0  0  0  0  0  0  0  0  0  0  0
   -1.1030   20.3210  -34.2720 C   0  0  0  0  0  0  0  0  0  0  0  0
    0.0905   16.5085  -35.4369 H   0  0  0  0  0  0  0  0  0  0  0  0
   -0.7548   17.9086  -36.1798 H   0  0  0  0  0  0  0  0  0  0  0  0
    1.0402   17.8400  -36.1798 H   0  0  0  0  0  0  0  0  0  0  0  0
   -1.6750   17.4310  -32.5375 H   0  0  0  0  0  0  0  0  0  0  0  0
   -3.5617   18.8044  -31.6599 H   0  0  0  0  0  0  0  0  0  0  0  0
   -2.8571   23.0802  -31.9172 H   0  0  0  0  0  0  0  0  0  0  0  0
   -7.5074   21.2850  -31.5221 H   0  0  0  0  0  0  0  0  0  0  0  0
   -5.3027   20.0463  -34.7833 H   0  0  0  0  0  0  0  0  0  0  0  0
   -5.9544   17.8233  -35.7036 H   0  0  0  0  0  0  0  0  0  0  0  0
   -5.9796   14.3479  -33.1081 H   0  0  0  0  0  0  0  0  0  0  0  0
   -6.6639   13.7590  -34.6610 H   0  0  0  0  0  0  0  0  0  0  0  0
   -5.1904   14.7864  -34.6610 H   0  0  0  0  0  0  0  0  0  0  0  0
   -7.1253   16.5306  -31.7404 H   0  0  0  0  0  0  0  0  0  0  0  0
   -6.4696   18.7485  -30.8203 H   0  0  0  0  0  0  0  0  0  0  0  0
   -7.6986   25.5758  -29.7372 H   0  0  0  0  0  0  0  0  0  0  0  0
   -6.4815   24.6367  -28.7968 H   0  0  0  0  0  0  0  0  0  0  0  0
   -6.0712   26.1149  -31.4461 H   0  0  0  0  0  0  0  0  0  0  0  0
   -5.2983   26.4540  -29.8542 H   0  0  0  0  0  0  0  0  0  0  0  0
   -2.2981   22.1226  -34.1410 H   0  0  0  0  0  0  0  0  0  0  0  0
   -0.4119   20.7513  -35.0117 H   0  0  0  0  0  0  0  0  0  0  0  0
  1  2  1  0
  2  3  1  0
  3  4  2  0
  4  5  1  0
  5  6  2  0
  6  7  1  0
  7  8  2  0
  8  9  1  0
  9 10  2  0
 10 11  1  0
 11 12  2  0
 12 13  1  0
 13 14  2  0
 14 15  1  0
 15 16  2  0
 16 17  1  0
 17 18  1  0
 16 19  1  0
 19 20  2  0
 10 21  1  0
 21 22  1  0
 22 23  1  0
 23 24  1  0
  6 25  1  0
 25 26  2  0
 26  3  1  0
 12  7  1  0
 20 13  1  0
 24  9  1  0
  1 27  1  0
  1 28  1  0
  1 29  1  0
  4 30  1  0
  5 31  1  0
  8 32  1  0
 11 33  1  0
 14 34  1  0
 15 35  1  0
 18 36  1  0
 18 37  1  0
 18 38  1  0
 19 39  1  0
 20 40  1  0
 22 41  1  0
 22 42  1  0
 23 43  1  0
 23 44  1  0
 25 45  1  0
 26 46  1  0
M  END
>  <UniqueID>  (44) 
42

>  <SMILES>  (44) 
COc1ccc(-c2cc3c(cc2-c2ccc(OC)cc2)OCCO3)cc1

>  <Energy>  (44) 
62.00858663007634

>  <Genealogy>  (44) 
COc1ccc(-c2cc3c(cc2-c2ccc(OC)cc2)OCCO3)cc1 (3D coordinates assigned)
COc1ccc(-c2cc3c(cc2-c2ccc(OC)cc2)OCCO3)cc1 (nonaromatic ring conformer: 62.00858663007634 kcal/mol)

>  <smiles>  (44) 
COc1ccc(-c2cc3c(cc2-c2ccc(OC)cc2)OCCO3)cc1

>  <score_type>  (44) 
oracle

>  <origin>  (44) 
adg

>  <m_score__min__energy>  (44) 
-7.6799999999999997

>  <m_primary>  (44) 
energy

$$$$
44:0
     RDKit          3D

 43 44  0  0  0  0  0  0  0  0999 V2000
   -3.1230   18.7870  -26.2630 C   0  0  0  0  0  0  0  0  0  0  0  0
   -2.3680   19.6440  -26.6550 C   0  0  0  0  0  0  0  0  0  0  0  0
   -1.4430   20.6890  -27.1200 C   0  0  0  0  0  0  0  0  0  0  0  0
   -1.2170   20.6000  -28.5800 N   0  0  2  0  0  0  0  0  0  0  0  0
   -0.1940   19.5840  -28.8870 C   0  0  0  0  0  0  0  0  0  0  0  0
   -0.9130   21.9110  -29.2150 C   0  0  0  0  0  0  0  0  0  0  0  0
   -2.1370   22.7700  -29.5010 C   0  0  0  0  0  0  0  0  0  0  0  0
   -2.0660   24.1560  -29.3410 C   0  0  0  0  0  0  0  0  0  0  0  0
   -3.1030   24.9260  -29.6250 O   0  0  0  0  0  0  0  0  0  0  0  0
   -4.2500   24.4500  -30.0930 C   0  0  0  0  0  0  0  0  0  0  0  0
   -5.2790   25.3570  -30.3530 C   0  0  0  0  0  0  0  0  0  0  0  0
   -6.4980   24.9150  -30.8490 C   0  0  0  0  0  0  0  0  0  0  0  0
   -6.6890   23.5670  -31.1220 C   0  0  0  0  0  0  0  0  0  0  0  0
   -5.6820   22.6100  -30.8790 C   0  0  0  0  0  0  0  0  0  0  0  0
   -6.0220   21.1790  -31.2870 C   0  0  0  0  0  0  0  0  0  0  0  0
   -7.1490   21.1190  -32.3310 C   0  0  0  0  0  0  0  0  0  0  0  0
   -8.5060   20.6450  -31.7800 C   0  0  0  0  0  0  0  0  0  0  0  0
   -8.7110   19.1340  -31.9340 C   0  0  0  0  0  0  0  0  0  0  0  0
   -4.4310   23.0550  -30.3260 C   0  0  0  0  0  0  0  0  0  0  0  0
   -3.3360   22.2130  -29.9970 C   0  0  0  0  0  0  0  0  0  0  0  0
   -3.4020   20.9650  -30.1390 O   0  0  0  0  0  0  0  0  0  0  0  0
   -3.8108   18.0063  -25.9059 H   0  0  0  0  0  0  0  0  0  0  0  0
   -1.8691   21.6751  -26.8833 H   0  0  0  0  0  0  0  0  0  0  0  0
   -0.4779   20.5482  -26.6113 H   0  0  0  0  0  0  0  0  0  0  0  0
   -2.1030   20.2530  -29.0230 H   0  0  0  0  0  0  0  0  0  0  0  0
    0.2137   19.1791  -27.9490 H   0  0  0  0  0  0  0  0  0  0  0  0
   -0.6491   18.7701  -29.4705 H   0  0  0  0  0  0  0  0  0  0  0  0
    0.6167   20.0446  -29.4705 H   0  0  0  0  0  0  0  0  0  0  0  0
   -0.2478   22.4729  -28.5428 H   0  0  0  0  0  0  0  0  0  0  0  0
   -0.4509   21.6889  -30.1882 H   0  0  0  0  0  0  0  0  0  0  0  0
   -1.1352   24.6129  -28.9739 H   0  0  0  0  0  0  0  0  0  0  0  0
   -5.1228   26.4292  -30.1635 H   0  0  0  0  0  0  0  0  0  0  0  0
   -7.3126   25.6327  -31.0258 H   0  0  0  0  0  0  0  0  0  0  0  0
   -7.6518   23.2366  -31.5391 H   0  0  0  0  0  0  0  0  0  0  0  0
   -5.1222   20.7094  -31.7112 H   0  0  0  0  0  0  0  0  0  0  0  0
   -6.3687   20.6476  -30.3885 H   0  0  0  0  0  0  0  0  0  0  0  0
   -7.2820   22.1269  -32.7511 H   0  0  0  0  0  0  0  0  0  0  0  0
   -6.8402   20.3769  -33.0820 H   0  0  0  0  0  0  0  0  0  0  0  0
   -8.5608   20.9006  -30.7115 H   0  0  0  0  0  0  0  0  0  0  0  0
   -9.2942   21.1482  -32.3592 H   0  0  0  0  0  0  0  0  0  0  0  0
   -8.7741   18.6692  -30.9390 H   0  0  0  0  0  0  0  0  0  0  0  0
   -9.6430   18.9449  -32.4868 H   0  0  0  0  0  0  0  0  0  0  0  0
   -7.8630   18.7034  -32.4868 H   0  0  0  0  0  0  0  0  0  0  0  0
  1  2  3  0
  2  3  1  0
  3  4  1  0
  4  5  1  0
  4  6  1  0
  6  7  1  0
  7  8  2  0
  8  9  1  0
  9 10  1  0
 10 11  2  0
 11 12  1  0
 12 13  2  0
 13 14  1  0
 14 15  1  0
 15 16  1  0
 16 17  1  0
 17 18  1  0
 14 19  2  0
 19 20  1  0
 20 21  2  0
 20  7  1  0
 19 10  1  0
  1 22  1  0
  3 23  1  0
  3 24  1  0
  4 25  1  6
  5 26  1  0
  5 27  1  0
  5 28  1  0
  6 29  1  0
  6 30  1  0
  8 31  1  0
 11 32  1  0
 12 33  1  0
 13 34  1  0
 15 35  1  0
 15 36  1  0
 16 37  1  0
 16 38  1  0
 17 39  1  0
 17 40  1  0
 18 41  1  0
 18 42  1  0
 18 43  1  0
M  CHG  1   4   1
M  END
>  <UniqueID>  (45) 
43

>  <SMILES>  (45) 
C#CC[N@H+](C)Cc1coc2cccc(CCCC)c2c1=O

>  <Energy>  (45) 
54.26862107512274

>  <Genealogy>  (45) 
C#CC[NH+](C)Cc1coc2cccc(CCCC)c2c1=O (protonated)
C#CC[N@H+](C)Cc1coc2cccc(CCCC)c2c1=O (chirality)
C#CC[N@H+](C)Cc1coc2cccc(CCCC)c2c1=O (3D coordinates assigned)
C#CC[N@H+](C)Cc1coc2cccc(CCCC)c2c1=O (optimized conformer: 54.26862107512274 kcal/mol)

>  <smiles>  (45) 
C#CCN(C)Cc1coc2cccc(CCCC)c2c1=O

>  <score_type>  (45) 
oracle

>  <origin>  (45) 
adg

>  <m_score__min__energy>  (45) 
-6.2699999999999996

>  <m_primary>  (45) 
energy

$$$$
