0:0
     RDKit          3D

 62 64  0  0  0  0  0  0  0  0999 V2000
   -3.8330   23.6980  -27.4890 C   0  0  0  0  0  0  0  0  0  0  0  0
   -2.9340   22.6670  -28.1570 C   0  0  0  0  0  0  0  0  0  0  0  0
   -3.7110   21.5480  -28.5410 O   0  0  0  0  0  0  0  0  0  0  0  0
   -2.8980   20.4550  -28.7170 N   0  0  0  0  0  0  0  0  0  0  0  0
   -2.8600   19.6880  -27.4670 C   0  0  0  0  0  0  0  0  0  0  0  0
   -1.4200   19.3180  -27.0980 C   0  0  0  0  0  0  0  0  0  0  0  0
   -0.4890   20.5380  -27.1280 C   0  0  0  0  0  0  0  0  0  0  0  0
   -0.2330   20.9340  -28.4630 O   0  0  0  0  0  0  0  0  0  0  0  0
    0.2350   19.8500  -29.2480 C   0  0  0  0  0  0  0  0  0  0  0  0
    0.0850   20.1650  -30.7400 C   0  0  0  0  0  0  0  0  0  0  0  0
   -1.1130   20.8730  -31.0020 O   0  0  0  0  0  0  0  0  0  0  0  0
   -1.4570   20.7820  -32.3710 C   0  0  0  0  0  0  0  0  0  0  0  0
   -2.9800   20.6990  -32.5150 C   0  0  0  0  0  0  0  0  0  0  0  0
   -3.6540   20.8030  -31.2090 N   0  0  0  0  0  0  0  0  0  0  0  0
   -5.0430   21.1980  -31.3840 C   0  0  0  0  0  0  0  0  0  0  0  0
   -5.4510   22.5350  -31.1340 C   0  0  0  0  0  0  0  0  0  0  0  0
   -4.5150   23.5540  -30.8290 C   0  0  0  0  0  0  0  0  0  0  0  0
   -4.9340   24.8390  -30.4960 C   0  0  0  0  0  0  0  0  0  0  0  0
   -6.2860   25.1420  -30.4550 C   0  0  0  0  0  0  0  0  0  0  0  0
   -7.2270   24.1760  -30.7950 C   0  0  0  0  0  0  0  0  0  0  0  0
   -6.8340   22.8720  -31.1940 C   0  0  0  0  0  0  0  0  0  0  0  0
   -7.7610   21.9450  -31.6240 N   0  0  0  0  0  0  0  0  0  0  0  0
   -9.1340   22.3820  -31.9700 C   0  0  0  0  0  0  0  0  0  0  0  0
   -7.3970   20.6240  -31.7910 C   0  0  0  0  0  0  0  0  0  0  0  0
   -8.3720   19.6130  -31.9980 C   0  0  0  0  0  0  0  0  0  0  0  0
   -8.0030   18.3000  -32.2730 C   0  0  0  0  0  0  0  0  0  0  0  0
   -6.6630   17.9560  -32.3420 C   0  0  0  0  0  0  0  0  0  0  0  0
   -5.6820   18.9090  -32.0830 C   0  0  0  0  0  0  0  0  0  0  0  0
   -6.0270   20.2430  -31.7510 C   0  0  0  0  0  0  0  0  0  0  0  0
   -3.7504   23.6033  -26.3962 H   0  0  0  0  0  0  0  0  0  0  0  0
   -3.5221   24.7081  -27.7941 H   0  0  0  0  0  0  0  0  0  0  0  0
   -4.8760   23.5276  -27.7941 H   0  0  0  0  0  0  0  0  0  0  0  0
   -2.4640   23.1109  -29.0470 H   0  0  0  0  0  0  0  0  0  0  0  0
   -2.1518   22.3483  -27.4524 H   0  0  0  0  0  0  0  0  0  0  0  0
   -1.9220   20.6920  -29.0290 H   0  0  0  0  0  0  0  0  0  0  0  0
   -3.2947   20.2944  -26.6587 H   0  0  0  0  0  0  0  0  0  0  0  0
   -3.4373   18.7618  -27.6045 H   0  0  0  0  0  0  0  0  0  0  0  0
   -1.4116   18.8893  -26.0850 H   0  0  0  0  0  0  0  0  0  0  0  0
   -1.0543   18.5923  -27.8393 H   0  0  0  0  0  0  0  0  0  0  0  0
   -0.9652   21.3701  -26.5887 H   0  0  0  0  0  0  0  0  0  0  0  0
    0.4636   20.2703  -26.6476 H   0  0  0  0  0  0  0  0  0  0  0  0
    1.2961   19.6699  -29.0208 H   0  0  0  0  0  0  0  0  0  0  0  0
   -0.3602   18.9557  -29.0112 H   0  0  0  0  0  0  0  0  0  0  0  0
    0.9400   20.7765  -31.0641 H   0  0  0  0  0  0  0  0  0  0  0  0
    0.0524   19.2143  -31.2924 H   0  0  0  0  0  0  0  0  0  0  0  0
   -1.0873   21.6721  -32.9011 H   0  0  0  0  0  0  0  0  0  0  0  0
   -1.0000   19.8794  -32.8028 H   0  0  0  0  0  0  0  0  0  0  0  0
   -3.3230   21.5211  -33.1604 H   0  0  0  0  0  0  0  0  0  0  0  0
   -3.2316   19.7230  -32.9556 H   0  0  0  0  0  0  0  0  0  0  0  0
   -3.5820   19.9020  -30.6870 H   0  0  0  0  0  0  0  0  0  0  0  0
   -3.1520   21.4730  -30.5850 H   0  0  0  0  0  0  0  0  0  0  0  0
   -3.4393   23.3259  -30.8558 H   0  0  0  0  0  0  0  0  0  0  0  0
   -4.1904   25.6159  -30.2648 H   0  0  0  0  0  0  0  0  0  0  0  0
   -6.6149   26.1474  -30.1533 H   0  0  0  0  0  0  0  0  0  0  0  0
   -8.2970   24.4277  -30.7538 H   0  0  0  0  0  0  0  0  0  0  0  0
   -9.7045   22.5636  -31.0472 H   0  0  0  0  0  0  0  0  0  0  0  0
   -9.0860   23.3093  -32.5598 H   0  0  0  0  0  0  0  0  0  0  0  0
   -9.6308   21.5976  -32.5598 H   0  0  0  0  0  0  0  0  0  0  0  0
   -9.4393   19.8727  -31.9399 H   0  0  0  0  0  0  0  0  0  0  0  0
   -8.7760   17.5345  -32.4358 H   0  0  0  0  0  0  0  0  0  0  0  0
   -6.3734   16.9272  -32.6021 H   0  0  0  0  0  0  0  0  0  0  0  0
   -4.6215   18.6220  -32.1369 H   0  0  0  0  0  0  0  0  0  0  0  0
  1  2  1  0
  2  3  1  0
  3  4  1  0
  4  5  1  0
  5  6  1  0
  6  7  1  0
  7  8  1  0
  8  9  1  0
  9 10  1  0
 10 11  1  0
 11 12  1  0
 12 13  1  0
 13 14  1  0
 14 15  1  0
 15 16  2  0
 16 17  1  0
 17 18  2  0
 18 19  1  0
 19 20  2  0
 20 21  1  0
 21 22  2  0
 22 23  1  0
 22 24  1  0
 24 25  2  0
 25 26  1  0
 26 27  2  0
 27 28  1  0
 28 29  2  0
 29 15  1  0
 21 16  1  0
 29 24  1  0
  1 30  1  0
  1 31  1  0
  1 32  1  0
  2 33  1  0
  2 34  1  0
  4 35  1  0
  5 36  1  0
  5 37  1  0
  6 38  1  0
  6 39  1  0
  7 40  1  0
  7 41  1  0
  9 42  1  0
  9 43  1  0
 10 44  1  0
 10 45  1  0
 12 46  1  0
 12 47  1  0
 13 48  1  0
 13 49  1  0
 14 50  1  0
 14 51  1  0
 17 52  1  0
 18 53  1  0
 19 54  1  0
 20 55  1  0
 23 56  1  0
 23 57  1  0
 23 58  1  0
 25 59  1  0
 26 60  1  0
 27 61  1  0
 28 62  1  0
M  CHG  2  14   1  22   1
M  END
>  <UniqueID>  (1) 
1

>  <SMILES>  (1) 
CCONCCCOCCOCC[NH2+]c1c2ccccc2[n+](C)c2ccccc12

>  <Energy>  (1) 
89.82229154431896

>  <Genealogy>  (1) 
CCONCCCOCCOCC[NH2+]c1c2ccccc2[n+](C)c2ccccc12 (protonated)
CCONCCCOCCOCC[NH2+]c1c2ccccc2[n+](C)c2ccccc12 (3D coordinates assigned)
CCONCCCOCCOCC[NH2+]c1c2ccccc2[n+](C)c2ccccc12 (optimized conformer: 89.82229154431896 kcal/mol)

>  <smiles>  (1) 
CCONCCCOCCOCCNc1c2ccccc2[n+](C)c2ccccc12

>  <score_type>  (1) 
oracle

>  <origin>  (1) 
adg

>  <m_score__min__energy>  (1) 
-7.4100000000000001

>  <m_primary>  (1) 
energy

$$$$
1:0
     RDKit          3D

 62 64  0  0  0  0  0  0  0  0999 V2000
   -1.2890   26.4270  -26.2590 C   0  0  0  0  0  0  0  0  0  0  0  0
   -0.8310   27.1300  -27.5280 C   0  0  0  0  0  0  0  0  0  0  0  0
   -1.2170   26.3620  -28.6460 O   0  0  0  0  0  0  0  0  0  0  0  0
   -1.0210   24.9920  -28.3680 C   0  0  0  0  0  0  0  0  0  0  0  0
   -1.9640   24.1540  -29.2280 C   0  0  0  0  0  0  0  0  0  0  0  0
   -3.0710   24.9350  -29.6450 O   0  0  0  0  0  0  0  0  0  0  0  0
   -4.3010   24.3280  -29.2930 C   0  0  0  0  0  0  0  0  0  0  0  0
   -4.8210   23.4600  -30.4500 C   0  0  0  0  0  0  0  0  0  0  0  0
   -3.8740   23.4100  -31.5780 N   0  0  0  0  0  0  0  0  0  0  0  0
   -3.0020   22.2260  -31.5500 C   0  0  0  0  0  0  0  0  0  0  0  0
   -3.4380   21.1850  -32.5970 C   0  0  0  0  0  0  0  0  0  0  0  0
   -4.6470   21.5820  -33.3470 N   0  0  0  0  0  0  0  0  0  0  0  0
   -5.8050   20.7640  -33.0130 C   0  0  0  0  0  0  0  0  0  0  0  0
   -5.7510   19.3540  -33.1860 C   0  0  0  0  0  0  0  0  0  0  0  0
   -6.8710   18.5620  -32.8700 C   0  0  0  0  0  0  0  0  0  0  0  0
   -7.9640   19.1130  -32.2460 N   0  0  0  0  0  0  0  0  0  0  0  0
   -8.9710   18.2270  -31.6200 C   0  0  0  0  0  0  0  0  0  0  0  0
   -8.1100   20.4830  -32.1920 C   0  0  0  0  0  0  0  0  0  0  0  0
   -9.3410   21.0700  -31.7980 C   0  0  0  0  0  0  0  0  0  0  0  0
   -9.4790   22.4500  -31.6840 C   0  0  0  0  0  0  0  0  0  0  0  0
   -8.4050   23.2790  -31.9630 C   0  0  0  0  0  0  0  0  0  0  0  0
   -7.1940   22.7410  -32.3900 C   0  0  0  0  0  0  0  0  0  0  0  0
   -7.0240   21.3400  -32.5440 C   0  0  0  0  0  0  0  0  0  0  0  0
   -6.8030   17.0810  -33.2220 C   0  0  0  0  0  0  0  0  0  0  0  0
   -6.1500   16.8810  -34.5960 C   0  0  0  0  0  0  0  0  0  0  0  0
   -4.7930   17.6000  -34.7430 C   0  0  0  0  0  0  0  0  0  0  0  0
   -4.4970   18.6060  -33.6190 C   0  0  0  0  0  0  0  0  0  0  0  0
   -0.9272   26.9824  -25.3812 H   0  0  0  0  0  0  0  0  0  0  0  0
   -2.3880   26.3854  -26.2391 H   0  0  0  0  0  0  0  0  0  0  0  0
   -0.8830   25.4049  -26.2391 H   0  0  0  0  0  0  0  0  0  0  0  0
   -1.2963   28.1250  -27.5863 H   0  0  0  0  0  0  0  0  0  0  0  0
    0.2632   27.2420  -27.5153 H   0  0  0  0  0  0  0  0  0  0  0  0
    0.0203   24.7182  -28.5933 H   0  0  0  0  0  0  0  0  0  0  0  0
   -1.2304   24.8017  -27.3050 H   0  0  0  0  0  0  0  0  0  0  0  0
   -1.4217   23.7906  -30.1134 H   0  0  0  0  0  0  0  0  0  0  0  0
   -2.3288   23.3024  -28.6350 H   0  0  0  0  0  0  0  0  0  0  0  0
   -4.1524   23.6965  -28.4047 H   0  0  0  0  0  0  0  0  0  0  0  0
   -5.0387   25.1152  -29.0782 H   0  0  0  0  0  0  0  0  0  0  0  0
   -4.9850   22.4373  -30.0796 H   0  0  0  0  0  0  0  0  0  0  0  0
   -5.7568   23.9088  -30.8145 H   0  0  0  0  0  0  0  0  0  0  0  0
   -3.2810   24.2750  -31.5830 H   0  0  0  0  0  0  0  0  0  0  0  0
   -1.9686   22.5370  -31.7628 H   0  0  0  0  0  0  0  0  0  0  0  0
   -3.0728   21.7663  -30.5532 H   0  0  0  0  0  0  0  0  0  0  0  0
   -2.6144   21.0429  -33.3122 H   0  0  0  0  0  0  0  0  0  0  0  0
   -3.6803   20.2591  -32.0547 H   0  0  0  0  0  0  0  0  0  0  0  0
   -4.4570   21.5050  -34.3700 H   0  0  0  0  0  0  0  0  0  0  0  0
   -4.8120   22.6040  -33.2440 H   0  0  0  0  0  0  0  0  0  0  0  0
   -8.8912   18.2973  -30.5252 H   0  0  0  0  0  0  0  0  0  0  0  0
   -9.9784   18.5370  -31.9348 H   0  0  0  0  0  0  0  0  0  0  0  0
   -8.7918   17.1884  -31.9348 H   0  0  0  0  0  0  0  0  0  0  0  0
  -10.2021   20.4217  -31.5786 H   0  0  0  0  0  0  0  0  0  0  0  0
  -10.4411   22.8826  -31.3723 H   0  0  0  0  0  0  0  0  0  0  0  0
   -8.5094   24.3678  -31.8466 H   0  0  0  0  0  0  0  0  0  0  0  0
   -6.3530   23.4142  -32.6123 H   0  0  0  0  0  0  0  0  0  0  0  0
   -6.2092   16.5553  -32.4597 H   0  0  0  0  0  0  0  0  0  0  0  0
   -7.8257   16.6771  -33.2536 H   0  0  0  0  0  0  0  0  0  0  0  0
   -5.9921   15.8038  -34.7529 H   0  0  0  0  0  0  0  0  0  0  0  0
   -6.8294   17.3163  -35.3436 H   0  0  0  0  0  0  0  0  0  0  0  0
   -3.9972   16.8406  -34.7468 H   0  0  0  0  0  0  0  0  0  0  0  0
   -4.8345   18.1724  -35.6814 H   0  0  0  0  0  0  0  0  0  0  0  0
   -4.0892   18.0633  -32.7535 H   0  0  0  0  0  0  0  0  0  0  0  0
   -3.7738   19.3420  -34.0001 H   0  0  0  0  0  0  0  0  0  0  0  0
  1  2  1  0
  2  3  1  0
  3  4  1  0
  4  5  1  0
  5  6  1  0
  6  7  1  0
  7  8  1  0
  8  9  1  0
  9 10  1  0
 10 11  1  0
 11 12  1  0
 12 13  1  0
 13 14  2  0
 14 15  1  0
 15 16  2  0
 16 17  1  0
 16 18  1  0
 18 19  2  0
 19 20  1  0
 20 21  2  0
 21 22  1  0
 22 23  2  0
 15 24  1  0
 24 25  1  0
 25 26  1  0
 26 27  1  0
 23 13  1  0
 27 14  1  0
 23 18  1  0
  1 28  1  0
  1 29  1  0
  1 30  1  0
  2 31  1  0
  2 32  1  0
  4 33  1  0
  4 34  1  0
  5 35  1  0
  5 36  1  0
  7 37  1  0
  7 38  1  0
  8 39  1  0
  8 40  1  0
  9 41  1  0
 10 42  1  0
 10 43  1  0
 11 44  1  0
 11 45  1  0
 12 46  1  0
 12 47  1  0
 17 48  1  0
 17 49  1  0
 17 50  1  0
 19 51  1  0
 20 52  1  0
 21 53  1  0
 22 54  1  0
 24 55  1  0
 24 56  1  0
 25 57  1  0
 25 58  1  0
 26 59  1  0
 26 60  1  0
 27 61  1  0
 27 62  1  0
M  CHG  2  12   1  16   1
M  END
>  <UniqueID>  (2) 
2

>  <SMILES>  (2) 
CCOCCOCCNCC[NH2+]c1c2c([n+](C)c3ccccc13)CCCC2

>  <Energy>  (2) 
88.84292830952234

>  <Genealogy>  (2) 
CCOCCOCCNCC[NH2+]c1c2c([n+](C)c3ccccc13)CCCC2 (protonated)
CCOCCOCCNCC[NH2+]c1c2c([n+](C)c3ccccc13)CCCC2 (3D coordinates assigned)
CCOCCOCCNCC[NH2+]c1c2c([n+](C)c3ccccc13)CCCC2 (nonaromatic ring conformer: 88.84292830952234 kcal/mol)

>  <smiles>  (2) 
CCOCCOCCNCCNc1c2c([n+](C)c3ccccc13)CCCC2

>  <score_type>  (2) 
oracle

>  <origin>  (2) 
adg

>  <m_score__min__energy>  (2) 
-8.9299999999999997

>  <m_primary>  (2) 
energy

$$$$
2:0
     RDKit          3D

 75 78  0  0  0  0  0  0  0  0999 V2000
   -6.1340   25.6720  -29.4870 C   0  0  0  0  0  0  0  0  0  0  0  0
   -5.4300   25.6460  -30.8340 C   0  0  0  0  0  0  0  0  0  0  0  0
   -4.0780   25.3000  -30.6380 O   0  0  0  0  0  0  0  0  0  0  0  0
   -3.9430   23.8960  -30.5570 C   0  0  0  0  0  0  0  0  0  0  0  0
   -5.2120   23.2120  -31.1050 C   0  0  0  0  0  0  0  0  0  0  0  0
   -5.1030   22.5910  -32.4550 N   0  0  0  0  0  0  0  0  0  0  0  0
   -5.6110   21.2290  -32.5850 C   0  0  0  0  0  0  0  0  0  0  0  0
   -7.0030   20.9850  -32.4300 C   0  0  0  0  0  0  0  0  0  0  0  0
   -7.8860   21.9940  -31.9670 C   0  0  0  0  0  0  0  0  0  0  0  0
   -9.2590   21.7740  -31.8920 C   0  0  0  0  0  0  0  0  0  0  0  0
   -9.7880   20.5530  -32.2780 C   0  0  0  0  0  0  0  0  0  0  0  0
   -8.9440   19.5290  -32.6980 C   0  0  0  0  0  0  0  0  0  0  0  0
   -7.5350   19.7040  -32.7370 C   0  0  0  0  0  0  0  0  0  0  0  0
   -6.6970   18.6690  -33.0880 N   0  0  0  0  0  0  0  0  0  0  0  0
   -7.2130   17.2810  -33.1150 C   0  0  0  0  0  0  0  0  0  0  0  0
   -5.3650   18.9120  -33.3590 C   0  0  0  0  0  0  0  0  0  0  0  0
   -4.5740   17.9360  -34.0120 C   0  0  0  0  0  0  0  0  0  0  0  0
   -3.2130   18.1160  -34.1930 C   0  0  0  0  0  0  0  0  0  0  0  0
   -2.5920   19.2500  -33.7020 C   0  0  0  0  0  0  0  0  0  0  0  0
   -3.3360   20.2660  -33.0770 C   0  0  0  0  0  0  0  0  0  0  0  0
   -2.6730   21.3480  -32.4720 O   0  0  0  0  0  0  0  0  0  0  0  0
   -1.2850   21.4260  -32.1440 C   0  0  0  0  0  0  0  0  0  0  0  0
   -0.9910   20.5960  -30.8730 C   0  0  0  0  0  0  0  0  0  0  0  0
   -1.1860   21.3220  -29.5760 N   0  0  0  0  0  0  0  0  0  0  0  0
   -0.8410   22.7580  -29.7540 C   0  0  0  0  0  0  0  0  0  0  0  0
   -0.2370   20.7430  -28.5640 C   0  0  0  0  0  0  0  0  0  0  0  0
   -0.8640   19.5810  -27.7690 C   0  0  0  0  0  0  0  0  0  0  0  0
   -2.0430   20.0250  -26.9590 N   0  0  0  0  0  0  0  0  0  0  0  0
   -2.9930   18.8920  -26.8300 C   0  0  0  0  0  0  0  0  0  0  0  0
   -1.5970   20.4020  -25.5940 C   0  0  0  0  0  0  0  0  0  0  0  0
   -2.7390   21.1960  -27.5820 C   0  0  0  0  0  0  0  0  0  0  0  0
   -2.6090   21.1970  -29.1180 C   0  0  0  0  0  0  0  0  0  0  0  0
   -4.7630   20.1550  -33.0020 C   0  0  0  0  0  0  0  0  0  0  0  0
   -5.3854   25.6444  -28.6815 H   0  0  0  0  0  0  0  0  0  0  0  0
   -6.7298   26.5928  -29.4024 H   0  0  0  0  0  0  0  0  0  0  0  0
   -6.7961   24.7977  -29.4024 H   0  0  0  0  0  0  0  0  0  0  0  0
   -5.9102   24.9023  -31.4869 H   0  0  0  0  0  0  0  0  0  0  0  0
   -5.4954   26.6370  -31.3069 H   0  0  0  0  0  0  0  0  0  0  0  0
   -3.0729   23.5788  -31.1506 H   0  0  0  0  0  0  0  0  0  0  0  0
   -3.8023   23.6067  -29.5051 H   0  0  0  0  0  0  0  0  0  0  0  0
   -5.4982   22.4214  -30.3957 H   0  0  0  0  0  0  0  0  0  0  0  0
   -5.9526   24.0180  -31.2146 H   0  0  0  0  0  0  0  0  0  0  0  0
   -5.5770   23.2090  -33.1520 H   0  0  0  0  0  0  0  0  0  0  0  0
   -4.1230   22.6540  -32.8050 H   0  0  0  0  0  0  0  0  0  0  0  0
   -7.4784   22.9689  -31.6613 H   0  0  0  0  0  0  0  0  0  0  0  0
   -9.9240   22.5701  -31.5261 H   0  0  0  0  0  0  0  0  0  0  0  0
  -10.8760   20.3927  -32.2525 H   0  0  0  0  0  0  0  0  0  0  0  0
   -9.3766   18.5656  -33.0057 H   0  0  0  0  0  0  0  0  0  0  0  0
   -7.3473   16.9197  -32.0848 H   0  0  0  0  0  0  0  0  0  0  0  0
   -8.1793   17.2592  -33.6401 H   0  0  0  0  0  0  0  0  0  0  0  0
   -6.4956   16.6333  -33.6401 H   0  0  0  0  0  0  0  0  0  0  0  0
   -5.0501   17.0164  -34.3830 H   0  0  0  0  0  0  0  0  0  0  0  0
   -2.6249   17.3559  -34.7281 H   0  0  0  0  0  0  0  0  0  0  0  0
   -1.5019   19.3584  -33.8018 H   0  0  0  0  0  0  0  0  0  0  0  0
   -0.6907   21.0316  -32.9814 H   0  0  0  0  0  0  0  0  0  0  0  0
   -1.0181   22.4766  -31.9572 H   0  0  0  0  0  0  0  0  0  0  0  0
   -1.6576   19.7210  -30.8765 H   0  0  0  0  0  0  0  0  0  0  0  0
    0.0768   20.3359  -30.9191 H   0  0  0  0  0  0  0  0  0  0  0  0
   -0.7270   23.2326  -28.7682 H   0  0  0  0  0  0  0  0  0  0  0  0
    0.1028   22.8418  -30.3127 H   0  0  0  0  0  0  0  0  0  0  0  0
   -1.6438   23.2614  -30.3127 H   0  0  0  0  0  0  0  0  0  0  0  0
    0.6554   20.3712  -29.0887 H   0  0  0  0  0  0  0  0  0  0  0  0
    0.0185   21.5393  -27.8494 H   0  0  0  0  0  0  0  0  0  0  0  0
   -1.1912   18.8037  -28.4752 H   0  0  0  0  0  0  0  0  0  0  0  0
   -0.1024   19.1947  -27.0756 H   0  0  0  0  0  0  0  0  0  0  0  0
   -3.1698   18.6812  -25.7650 H   0  0  0  0  0  0  0  0  0  0  0  0
   -3.9449   19.1546  -27.3147 H   0  0  0  0  0  0  0  0  0  0  0  0
   -2.5684   18.0005  -27.3147 H   0  0  0  0  0  0  0  0  0  0  0  0
   -2.2150   19.8796  -24.8490 H   0  0  0  0  0  0  0  0  0  0  0  0
   -0.5430   20.1170  -25.4609 H   0  0  0  0  0  0  0  0  0  0  0  0
   -1.7026   21.4888  -25.4609 H   0  0  0  0  0  0  0  0  0  0  0  0
   -3.8057   21.1573  -27.3162 H   0  0  0  0  0  0  0  0  0  0  0  0
   -2.2662   22.1133  -27.2012 H   0  0  0  0  0  0  0  0  0  0  0  0
   -3.0230   20.2552  -29.5073 H   0  0  0  0  0  0  0  0  0  0  0  0
   -3.1596   22.0699  -29.4986 H   0  0  0  0  0  0  0  0  0  0  0  0
  1  2  1  0
  2  3  1  0
  3  4  1  0
  4  5  1  0
  5  6  1  0
  6  7  1  0
  7  8  2  0
  8  9  1  0
  9 10  2  0
 10 11  1  0
 11 12  2  0
 12 13  1  0
 13 14  2  0
 14 15  1  0
 14 16  1  0
 16 17  2  0
 17 18  1  0
 18 19  2  0
 19 20  1  0
 20 21  1  0
 21 22  1  0
 22 23  1  0
 23 24  1  0
 24 25  1  0
 24 26  1  0
 26 27  1  0
 27 28  1  0
 28 29  1  0
 28 30  1  0
 28 31  1  0
 31 32  1  0
 20 33  2  0
 33  7  1  0
 13  8  1  0
 33 16  1  0
 32 24  1  0
  1 34  1  0
  1 35  1  0
  1 36  1  0
  2 37  1  0
  2 38  1  0
  4 39  1  0
  4 40  1  0
  5 41  1  0
  5 42  1  0
  6 43  1  0
  6 44  1  0
  9 45  1  0
 10 46  1  0
 11 47  1  0
 12 48  1  0
 15 49  1  0
 15 50  1  0
 15 51  1  0
 17 52  1  0
 18 53  1  0
 19 54  1  0
 22 55  1  0
 22 56  1  0
 23 57  1  0
 23 58  1  0
 25 59  1  0
 25 60  1  0
 25 61  1  0
 26 62  1  0
 26 63  1  0
 27 64  1  0
 27 65  1  0
 29 66  1  0
 29 67  1  0
 29 68  1  0
 30 69  1  0
 30 70  1  0
 30 71  1  0
 31 72  1  0
 31 73  1  0
 32 74  1  0
 32 75  1  0
M  CHG  4   6   1  14   1  24   1  28   1
M  END
>  <UniqueID>  (3) 
3

>  <SMILES>  (3) 
CCOCC[NH2+]c1c2ccccc2[n+](C)c2cccc(OCC[N+]3(C)CC[N+](C)(C)CC3)c12

>  <Energy>  (3) 
137.3047590655024

>  <Genealogy>  (3) 
CCOCC[NH2+]c1c2ccccc2[n+](C)c2cccc(OCC[N+]3(C)CC[N+](C)(C)CC3)c12 (protonated)
CCOCC[NH2+]c1c2ccccc2[n+](C)c2cccc(OCC[N+]3(C)CC[N+](C)(C)CC3)c12 (3D coordinates assigned)
CCOCC[NH2+]c1c2ccccc2[n+](C)c2cccc(OCC[N+]3(C)CC[N+](C)(C)CC3)c12 (nonaromatic ring conformer: 137.3047590655024 kcal/mol)

>  <smiles>  (3) 
CCOCCNc1c2ccccc2[n+](C)c2cccc(OCC[N+]3(C)CC[N+](C)(C)CC3)c12

>  <score_type>  (3) 
oracle

>  <origin>  (3) 
adg

>  <m_score__min__energy>  (3) 
-8.1300000000000008

>  <m_primary>  (3) 
energy

$$$$
3:0
     RDKit          3D

 61 64  0  0  0  0  0  0  0  0999 V2000
   -1.3510   20.9830  -29.9060 C   0  0  0  0  0  0  0  0  0  0  0  0
   -2.7850   20.4690  -29.8420 C   0  0  0  0  0  0  0  0  0  0  0  0
   -3.7050   21.5430  -29.8590 O   0  0  0  0  0  0  0  0  0  0  0  0
   -3.2050   22.6560  -29.1390 C   0  0  0  0  0  0  0  0  0  0  0  0
   -3.0010   23.8590  -30.0680 C   0  0  0  0  0  0  0  0  0  0  0  0
   -4.2460   24.2960  -30.5720 O   0  0  0  0  0  0  0  0  0  0  0  0
   -5.1230   24.6260  -29.5140 C   0  0  0  0  0  0  0  0  0  0  0  0
   -6.5170   24.8890  -30.0760 C   0  0  0  0  0  0  0  0  0  0  0  0
   -7.0410   23.7030  -30.6540 O   0  0  0  0  0  0  0  0  0  0  0  0
   -7.1040   23.7990  -32.0630 C   0  0  0  0  0  0  0  0  0  0  0  0
   -5.7990   23.2730  -32.6860 C   0  0  0  0  0  0  0  0  0  0  0  0
   -5.1150   22.2490  -31.8700 N   0  0  0  0  0  0  0  0  0  0  0  0
   -5.3250   20.8980  -32.3530 C   0  0  0  0  0  0  0  0  0  0  0  0
   -6.5830   20.2400  -32.1880 C   0  0  0  0  0  0  0  0  0  0  0  0
   -7.6700   20.8730  -31.5360 C   0  0  0  0  0  0  0  0  0  0  0  0
   -8.8850   20.2190  -31.3560 C   0  0  0  0  0  0  0  0  0  0  0  0
   -9.0490   18.9170  -31.8040 C   0  0  0  0  0  0  0  0  0  0  0  0
   -8.0050   18.2600  -32.4450 C   0  0  0  0  0  0  0  0  0  0  0  0
   -6.7610   18.9010  -32.6750 C   0  0  0  0  0  0  0  0  0  0  0  0
   -5.7360   18.2530  -33.3410 N   0  0  0  0  0  0  0  0  0  0  0  0
   -5.9440   16.9280  -33.9590 C   0  0  0  0  0  0  0  0  0  0  0  0
   -4.5140   18.8650  -33.4190 C   0  0  0  0  0  0  0  0  0  0  0  0
   -3.3870   18.3080  -33.9210 N   0  0  0  0  0  0  0  0  0  0  0  0
   -2.4470   19.2600  -33.8380 C   0  0  0  0  0  0  0  0  0  0  0  0
   -1.1220   19.1340  -34.2560 C   0  0  0  0  0  0  0  0  0  0  0  0
   -0.2750   20.2400  -34.1210 C   0  0  0  0  0  0  0  0  0  0  0  0
   -0.7640   21.4430  -33.5830 C   0  0  0  0  0  0  0  0  0  0  0  0
   -2.1000   21.5520  -33.1630 C   0  0  0  0  0  0  0  0  0  0  0  0
   -2.9420   20.4270  -33.2850 C   0  0  0  0  0  0  0  0  0  0  0  0
   -4.2920   20.1650  -32.9820 C   0  0  0  0  0  0  0  0  0  0  0  0
   -0.9652   21.1213  -28.8852 H   0  0  0  0  0  0  0  0  0  0  0  0
   -0.7236   20.2538  -30.4395 H   0  0  0  0  0  0  0  0  0  0  0  0
   -1.3297   21.9447  -30.4395 H   0  0  0  0  0  0  0  0  0  0  0  0
   -2.9739   19.8186  -30.7088 H   0  0  0  0  0  0  0  0  0  0  0  0
   -2.9165   19.9070  -28.9056 H   0  0  0  0  0  0  0  0  0  0  0  0
   -3.9223   22.9270  -28.3503 H   0  0  0  0  0  0  0  0  0  0  0  0
   -2.2351   22.3833  -28.6974 H   0  0  0  0  0  0  0  0  0  0  0  0
   -2.5279   24.6775  -29.5057 H   0  0  0  0  0  0  0  0  0  0  0  0
   -2.3555   23.5618  -30.9076 H   0  0  0  0  0  0  0  0  0  0  0  0
   -5.1668   23.7910  -28.7993 H   0  0  0  0  0  0  0  0  0  0  0  0
   -4.7572   25.5274  -29.0006 H   0  0  0  0  0  0  0  0  0  0  0  0
   -7.1800   25.2218  -29.2638 H   0  0  0  0  0  0  0  0  0  0  0  0
   -6.4526   25.6687  -30.8493 H   0  0  0  0  0  0  0  0  0  0  0  0
   -7.9504   23.2006  -32.4313 H   0  0  0  0  0  0  0  0  0  0  0  0
   -7.2402   24.8529  -32.3470 H   0  0  0  0  0  0  0  0  0  0  0  0
   -6.0360   22.8331  -33.6660 H   0  0  0  0  0  0  0  0  0  0  0  0
   -5.1138   24.1302  -32.7617 H   0  0  0  0  0  0  0  0  0  0  0  0
   -4.1080   22.4700  -31.7780 H   0  0  0  0  0  0  0  0  0  0  0  0
   -5.4470   22.3250  -30.8830 H   0  0  0  0  0  0  0  0  0  0  0  0
   -7.5511   21.9016  -31.1648 H   0  0  0  0  0  0  0  0  0  0  0  0
   -9.7177   20.7363  -30.8569 H   0  0  0  0  0  0  0  0  0  0  0  0
  -10.0090   18.4020  -31.6516 H   0  0  0  0  0  0  0  0  0  0  0  0
   -8.1466   17.2221  -32.7806 H   0  0  0  0  0  0  0  0  0  0  0  0
   -6.0630   16.1703  -33.1705 H   0  0  0  0  0  0  0  0  0  0  0  0
   -6.8493   16.9527  -34.5834 H   0  0  0  0  0  0  0  0  0  0  0  0
   -5.0747   16.6741  -34.5834 H   0  0  0  0  0  0  0  0  0  0  0  0
   -3.2310   17.3390  -34.2770 H   0  0  0  0  0  0  0  0  0  0  0  0
   -0.7523   18.1892  -34.6810 H   0  0  0  0  0  0  0  0  0  0  0  0
    0.7762   20.1676  -34.4368 H   0  0  0  0  0  0  0  0  0  0  0  0
   -0.0926   22.3093  -33.4898 H   0  0  0  0  0  0  0  0  0  0  0  0
   -2.4820   22.4960  -32.7472 H   0  0  0  0  0  0  0  0  0  0  0  0
  1  2  1  0
  2  3  1  0
  3  4  1  0
  4  5  1  0
  5  6  1  0
  6  7  1  0
  7  8  1  0
  8  9  1  0
  9 10  1  0
 10 11  1  0
 11 12  1  0
 12 13  1  0
 13 14  2  0
 14 15  1  0
 15 16  2  0
 16 17  1  0
 17 18  2  0
 18 19  1  0
 19 20  2  0
 20 21  1  0
 20 22  1  0
 22 23  1  0
 23 24  1  0
 24 25  2  0
 25 26  1  0
 26 27  2  0
 27 28  1  0
 28 29  2  0
 29 30  1  0
 30 13  1  0
 19 14  1  0
 30 22  2  0
 29 24  1  0
  1 31  1  0
  1 32  1  0
  1 33  1  0
  2 34  1  0
  2 35  1  0
  4 36  1  0
  4 37  1  0
  5 38  1  0
  5 39  1  0
  7 40  1  0
  7 41  1  0
  8 42  1  0
  8 43  1  0
 10 44  1  0
 10 45  1  0
 11 46  1  0
 11 47  1  0
 12 48  1  0
 12 49  1  0
 15 50  1  0
 16 51  1  0
 17 52  1  0
 18 53  1  0
 21 54  1  0
 21 55  1  0
 21 56  1  0
 23 57  1  0
 25 58  1  0
 26 59  1  0
 27 60  1  0
 28 61  1  0
M  CHG  2  12   1  20   1
M  END
>  <UniqueID>  (4) 
4

>  <SMILES>  (4) 
CCOCCOCCOCC[NH2+]c1c2ccccc2[n+](C)c2[nH]c3ccccc3c12

>  <Energy>  (4) 
128.49284361798357

>  <Genealogy>  (4) 
CCOCCOCCOCC[NH2+]c1c2ccccc2[n+](C)c2[nH]c3ccccc3c12 (protonated)
CCOCCOCCOCC[NH2+]c1c2ccccc2[n+](C)c2[nH]c3ccccc3c12 (3D coordinates assigned)
CCOCCOCCOCC[NH2+]c1c2ccccc2[n+](C)c2[nH]c3ccccc3c12 (optimized conformer: 128.49284361798357 kcal/mol)

>  <smiles>  (4) 
CCOCCOCCOCCNc1c2ccccc2[n+](C)c2[nH]c3ccccc3c12

>  <score_type>  (4) 
oracle

>  <origin>  (4) 
adg

>  <m_score__min__energy>  (4) 
-9.1199999999999992

>  <m_primary>  (4) 
energy

$$$$
4:0
     RDKit          3D

 52 54  0  0  0  0  0  0  0  0999 V2000
   -4.5910   17.2070  -34.9180 C   0  0  0  0  0  0  0  0  0  0  0  0
   -3.9010   18.3500  -34.1830 C   0  0  0  0  0  0  0  0  0  0  0  0
   -4.9130   19.3230  -33.6410 C   0  0  0  0  0  0  0  0  0  0  0  0
   -6.2650   19.2140  -33.9900 C   0  0  0  0  0  0  0  0  0  0  0  0
   -7.1800   20.0790  -33.4770 N   0  0  0  0  0  0  0  0  0  0  0  0
   -6.8250   21.0710  -32.6100 C   0  0  0  0  0  0  0  0  0  0  0  0
   -5.4830   21.1900  -32.1970 C   0  0  0  0  0  0  0  0  0  0  0  0
   -4.5290   20.3160  -32.7320 C   0  0  0  0  0  0  0  0  0  0  0  0
   -5.0520   22.3000  -31.2700 C   0  0  0  0  0  0  0  0  0  0  0  0
   -6.1870   22.8110  -30.4730 N   0  0  0  0  0  0  0  0  0  0  0  0
   -5.7510   23.9520  -29.6420 C   0  0  0  0  0  0  0  0  0  0  0  0
   -4.9170   24.9030  -30.4600 C   0  0  0  0  0  0  0  0  0  0  0  0
   -5.5020   25.7160  -31.2230 O   0  0  0  0  0  0  0  0  0  0  0  0
   -3.4830   24.9290  -30.4000 N   0  0  0  0  0  0  0  0  0  0  0  0
   -2.6550   24.5240  -29.2680 C   0  0  0  0  0  0  0  0  0  0  0  0
   -1.7070   23.3820  -29.6460 C   0  0  0  0  0  0  0  0  0  0  0  0
   -2.4670   22.1190  -29.8130 N   0  0  0  0  0  0  0  0  0  0  0  0
   -1.6560   21.0400  -30.4240 C   0  0  0  0  0  0  0  0  0  0  0  0
   -0.8890   20.2150  -29.3700 C   0  0  0  0  0  0  0  0  0  0  0  0
   -0.7410   20.9430  -28.1700 O   0  0  0  0  0  0  0  0  0  0  0  0
   -2.0070   21.1290  -27.5610 C   0  0  0  0  0  0  0  0  0  0  0  0
   -3.0750   21.6570  -28.5490 C   0  0  0  0  0  0  0  0  0  0  0  0
   -7.2890   23.2090  -31.3710 C   0  0  0  0  0  0  0  0  0  0  0  0
   -7.8900   21.9650  -32.0300 C   0  0  0  0  0  0  0  0  0  0  0  0
   -5.0155   16.5038  -34.1863 H   0  0  0  0  0  0  0  0  0  0  0  0
   -5.3967   17.6103  -35.5491 H   0  0  0  0  0  0  0  0  0  0  0  0
   -3.8589   16.6819  -35.5491 H   0  0  0  0  0  0  0  0  0  0  0  0
   -3.3123   17.9397  -33.3493 H   0  0  0  0  0  0  0  0  0  0  0  0
   -3.2452   18.8795  -34.8897 H   0  0  0  0  0  0  0  0  0  0  0  0
   -6.5886   18.4237  -34.6834 H   0  0  0  0  0  0  0  0  0  0  0  0
   -8.1810   19.9700  -33.7570 H   0  0  0  0  0  0  0  0  0  0  0  0
   -3.4735   20.4100  -32.4369 H   0  0  0  0  0  0  0  0  0  0  0  0
   -4.2799   21.9159  -30.5871 H   0  0  0  0  0  0  0  0  0  0  0  0
   -4.6588   23.1264  -31.8803 H   0  0  0  0  0  0  0  0  0  0  0  0
   -6.6358   24.4817  -29.2592 H   0  0  0  0  0  0  0  0  0  0  0  0
   -5.1469   23.5751  -28.8036 H   0  0  0  0  0  0  0  0  0  0  0  0
   -2.0600   25.3866  -28.9337 H   0  0  0  0  0  0  0  0  0  0  0  0
   -3.3180   24.1705  -28.4645 H   0  0  0  0  0  0  0  0  0  0  0  0
   -1.1998   23.6284  -30.5905 H   0  0  0  0  0  0  0  0  0  0  0  0
   -0.9653   23.2511  -28.8443 H   0  0  0  0  0  0  0  0  0  0  0  0
   -2.3246   20.3675  -30.9814 H   0  0  0  0  0  0  0  0  0  0  0  0
   -0.9151   21.5106  -31.0870 H   0  0  0  0  0  0  0  0  0  0  0  0
   -1.4454   19.2889  -29.1630 H   0  0  0  0  0  0  0  0  0  0  0  0
    0.1108   19.9826  -29.7654 H   0  0  0  0  0  0  0  0  0  0  0  0
   -2.3480   20.1644  -27.1571 H   0  0  0  0  0  0  0  0  0  0  0  0
   -1.8864   21.8828  -26.7690 H   0  0  0  0  0  0  0  0  0  0  0  0
   -3.7870   20.8483  -28.7703 H   0  0  0  0  0  0  0  0  0  0  0  0
   -3.5839   22.5120  -28.0800 H   0  0  0  0  0  0  0  0  0  0  0  0
   -8.0661   23.7267  -30.7895 H   0  0  0  0  0  0  0  0  0  0  0  0
   -6.9007   23.8827  -32.1490 H   0  0  0  0  0  0  0  0  0  0  0  0
   -8.4568   21.4004  -31.2750 H   0  0  0  0  0  0  0  0  0  0  0  0
   -8.5448   22.2944  -32.8502 H   0  0  0  0  0  0  0  0  0  0  0  0
  1  2  1  0
  2  3  1  0
  3  4  2  0
  4  5  1  0
  5  6  2  0
  6  7  1  0
  7  8  2  0
  7  9  1  0
  9 10  1  0
 10 11  1  0
 11 12  1  0
 12 13  2  0
 12 14  1  0
 14 15  1  0
 15 16  1  0
 16 17  1  0
 17 18  1  0
 18 19  1  0
 19 20  1  0
 20 21  1  0
 21 22  1  0
 10 23  1  0
 23 24  1  0
  8  3  1  0
 22 17  1  0
 24  6  1  0
  1 25  1  0
  1 26  1  0
  1 27  1  0
  2 28  1  0
  2 29  1  0
  4 30  1  0
  5 31  1  0
  8 32  1  0
  9 33  1  0
  9 34  1  0
 11 35  1  0
 11 36  1  0
 15 37  1  0
 15 38  1  0
 16 39  1  0
 16 40  1  0
 18 41  1  0
 18 42  1  0
 19 43  1  0
 19 44  1  0
 21 45  1  0
 21 46  1  0
 22 47  1  0
 22 48  1  0
 23 49  1  0
 23 50  1  0
 24 51  1  0
 24 52  1  0
M  CHG  2   5   1  14  -1
M  END
>  <UniqueID>  (5) 
5

>  <SMILES>  (5) 
CCc1c[nH+]c2c(c1)CN(CC(=O)[N-]CCN1CCOCC1)CC2

>  <Energy>  (5) 
61.393688441340245

>  <Genealogy>  (5) 
CCc1c[nH+]c2c(c1)CN(CC(=O)[N-]CCN1CCOCC1)CC2 (protonated)
CCc1c[nH+]c2c(c1)CN(CC(=O)[N-]CCN1CCOCC1)CC2 (3D coordinates assigned)
CCc1c[nH+]c2c(c1)CN(CC(=O)[N-]CCN1CCOCC1)CC2 (nonaromatic ring conformer: 61.393688441340245 kcal/mol)

>  <smiles>  (5) 
CCc1cnc2c(c1)CN(CC(=O)NCCN1CCOCC1)CC2

>  <score_type>  (5) 
oracle

>  <origin>  (5) 
adg

>  <m_score__min__energy>  (5) 
-9.4600000000000009

>  <m_primary>  (5) 
energy

$$$$
5:0
     RDKit          3D

 50 52  0  0  0  0  0  0  0  0999 V2000
   -9.4660   21.2240  -30.8690 C   0  0  0  0  0  0  0  0  0  0  0  0
   -9.1310   21.1400  -32.3540 C   0  0  0  0  0  0  0  0  0  0  0  0
   -9.0580   19.7340  -32.7860 N   0  0  0  0  0  0  0  0  0  0  0  0
   -8.0830   18.9400  -32.0220 C   0  0  0  0  0  0  0  0  0  0  0  0
   -6.7700   18.8200  -32.7550 C   0  0  0  0  0  0  0  0  0  0  0  0
   -5.7700   19.7870  -32.8680 C   0  0  0  0  0  0  0  0  0  0  0  0
   -5.7630   21.1420  -32.2800 C   0  0  0  0  0  0  0  0  0  0  0  0
   -6.3380   21.3540  -31.0210 C   0  0  0  0  0  0  0  0  0  0  0  0
   -6.3350   22.6340  -30.4740 C   0  0  0  0  0  0  0  0  0  0  0  0
   -5.7430   23.6740  -31.1880 C   0  0  0  0  0  0  0  0  0  0  0  0
   -5.7340   25.3420  -30.5300 S   0  0  0  0  0  0  0  0  0  0  0  0
   -4.9800   24.8860  -28.9240 C   0  0  0  0  0  0  0  0  0  0  0  0
   -3.7470   23.9910  -29.1020 C   0  0  0  0  0  0  0  0  0  0  0  0
   -2.4990   24.7260  -28.7970 N   0  0  0  0  0  0  0  0  0  0  0  0
   -2.3430   24.9270  -27.3460 C   0  0  0  0  0  0  0  0  0  0  0  0
   -1.3350   23.9910  -29.3190 C   0  0  0  0  0  0  0  0  0  0  0  0
   -5.1770   23.4180  -32.3950 N   0  0  0  0  0  0  0  0  0  0  0  0
   -5.1800   22.1920  -32.9250 N   0  0  0  0  0  0  0  0  0  0  0  0
   -4.7020   19.2730  -33.5230 N   0  0  0  0  0  0  0  0  0  0  0  0
   -5.0790   18.0120  -33.8090 C   0  0  0  0  0  0  0  0  0  0  0  0
   -4.3020   17.0700  -34.4780 C   0  0  0  0  0  0  0  0  0  0  0  0
   -4.8420   15.7890  -34.6600 C   0  0  0  0  0  0  0  0  0  0  0  0
   -6.1230   15.4810  -34.1650 C   0  0  0  0  0  0  0  0  0  0  0  0
   -6.8510   13.7310  -34.3970 Br  0  0  0  0  0  0  0  0  0  0  0  0
   -6.8590   16.4680  -33.4930 C   0  0  0  0  0  0  0  0  0  0  0  0
   -6.3080   17.7050  -33.3550 N   0  0  0  0  0  0  0  0  0  0  0  0
   -8.5668   20.9985  -30.2769 H   0  0  0  0  0  0  0  0  0  0  0  0
   -9.8180   22.2382  -30.6293 H   0  0  0  0  0  0  0  0  0  0  0  0
  -10.2549   20.4959  -30.6293 H   0  0  0  0  0  0  0  0  0  0  0  0
   -9.9121   21.6563  -32.9314 H   0  0  0  0  0  0  0  0  0  0  0  0
   -8.1550   21.6171  -32.5267 H   0  0  0  0  0  0  0  0  0  0  0  0
   -8.7470   19.7210  -33.7850 H   0  0  0  0  0  0  0  0  0  0  0  0
   -7.9072   19.4276  -31.0518 H   0  0  0  0  0  0  0  0  0  0  0  0
   -8.4943   17.9291  -31.8842 H   0  0  0  0  0  0  0  0  0  0  0  0
   -6.7883   20.5160  -30.4688 H   0  0  0  0  0  0  0  0  0  0  0  0
   -6.7935   22.8219  -29.4919 H   0  0  0  0  0  0  0  0  0  0  0  0
   -4.6792   25.8048  -28.3992 H   0  0  0  0  0  0  0  0  0  0  0  0
   -5.7274   24.3238  -28.3450 H   0  0  0  0  0  0  0  0  0  0  0  0
   -3.8295   23.1287  -28.4241 H   0  0  0  0  0  0  0  0  0  0  0  0
   -3.7071   23.6602  -30.1503 H   0  0  0  0  0  0  0  0  0  0  0  0
   -2.9305   24.1701  -26.8057 H   0  0  0  0  0  0  0  0  0  0  0  0
   -1.2815   24.8298  -27.0744 H   0  0  0  0  0  0  0  0  0  0  0  0
   -2.7005   25.9312  -27.0744 H   0  0  0  0  0  0  0  0  0  0  0  0
   -0.7342   23.6116  -28.4793 H   0  0  0  0  0  0  0  0  0  0  0  0
   -1.6801   23.1467  -29.9339 H   0  0  0  0  0  0  0  0  0  0  0  0
   -0.7210   24.6655  -29.9339 H   0  0  0  0  0  0  0  0  0  0  0  0
   -4.6910   22.0470  -33.8330 H   0  0  0  0  0  0  0  0  0  0  0  0
   -3.2984   17.3223  -34.8511 H   0  0  0  0  0  0  0  0  0  0  0  0
   -4.2617   15.0209  -35.1923 H   0  0  0  0  0  0  0  0  0  0  0  0
   -7.8574   16.2477  -33.0873 H   0  0  0  0  0  0  0  0  0  0  0  0
  1  2  1  0
  2  3  1  0
  3  4  1  0
  4  5  1  0
  5  6  2  0
  6  7  1  0
  7  8  2  0
  8  9  1  0
  9 10  2  0
 10 11  1  0
 11 12  1  0
 12 13  1  0
 13 14  1  0
 14 15  1  0
 14 16  1  0
 10 17  1  0
 17 18  2  0
  6 19  1  0
 19 20  2  0
 20 21  1  0
 21 22  2  0
 22 23  1  0
 23 24  1  0
 23 25  2  0
 25 26  1  0
 26  5  1  0
 18  7  1  0
 26 20  1  0
  1 27  1  0
  1 28  1  0
  1 29  1  0
  2 30  1  0
  2 31  1  0
  3 32  1  0
  4 33  1  0
  4 34  1  0
  8 35  1  0
  9 36  1  0
 12 37  1  0
 12 38  1  0
 13 39  1  0
 13 40  1  0
 15 41  1  0
 15 42  1  0
 15 43  1  0
 16 44  1  0
 16 45  1  0
 16 46  1  0
 18 47  1  0
 21 48  1  0
 22 49  1  0
 25 50  1  0
M  CHG  1  18   1
M  END
>  <UniqueID>  (6) 
6

>  <SMILES>  (6) 
CCNCc1c(-c2ccc(SCCN(C)C)n[nH+]2)nc2ccc(Br)cn12

>  <Energy>  (6) 
84.58033255133196

>  <Genealogy>  (6) 
CCNCc1c(-c2ccc(SCCN(C)C)n[nH+]2)nc2ccc(Br)cn12 (protonated)
CCNCc1c(-c2ccc(SCCN(C)C)n[nH+]2)nc2ccc(Br)cn12 (3D coordinates assigned)
CCNCc1c(-c2ccc(SCCN(C)C)n[nH+]2)nc2ccc(Br)cn12 (optimized conformer: 84.58033255133196 kcal/mol)

>  <smiles>  (6) 
CCNCc1c(-c2ccc(SCCN(C)C)nn2)nc2ccc(Br)cn12

>  <score_type>  (6) 
oracle

>  <origin>  (6) 
adg

>  <m_score__min__energy>  (6) 
-8

>  <m_primary>  (6) 
energy

$$$$
6:0
     RDKit          3D

 69 73  0  0  0  0  0  0  0  0999 V2000
    1.3150   29.1000  -24.0020 C   0  0  0  0  0  0  0  0  0  0  0  0
    0.1290   28.3240  -24.6010 C   0  0  0  0  0  0  0  0  0  0  0  0
   -0.8470   29.3150  -25.2530 C   0  0  0  0  0  0  0  0  0  0  0  0
   -0.5450   27.5510  -23.5380 N   0  0  0  0  0  0  0  0  0  0  0  0
   -0.2070   26.1210  -23.5970 C   0  0  0  0  0  0  0  0  0  0  0  0
   -0.9320   25.4750  -24.7480 C   0  0  0  0  0  0  0  0  0  0  0  0
   -2.0970   26.0520  -25.2730 C   0  0  0  0  0  0  0  0  0  0  0  0
   -2.7340   25.4790  -26.3760 C   0  0  0  0  0  0  0  0  0  0  0  0
   -2.2130   24.3200  -26.9800 C   0  0  0  0  0  0  0  0  0  0  0  0
   -2.8870   23.7420  -28.1690 C   0  0  0  0  0  0  0  0  0  0  0  0
   -4.2760   23.8550  -28.3600 C   0  0  0  0  0  0  0  0  0  0  0  0
   -4.8670   23.2900  -29.4910 C   0  0  0  0  0  0  0  0  0  0  0  0
   -4.0770   22.6100  -30.4290 C   0  0  0  0  0  0  0  0  0  0  0  0
   -4.6030   22.0170  -31.5890 C   0  0  0  0  0  0  0  0  0  0  0  0
   -6.0020   22.0870  -31.9060 N   0  0  0  0  0  0  0  0  0  0  0  0
   -6.6270   23.4100  -31.9870 C   0  0  0  0  0  0  0  0  0  0  0  0
   -8.1210   23.2700  -32.2660 C   0  0  0  0  0  0  0  0  0  0  0  0
   -8.6520   22.2680  -31.4260 O   0  0  0  0  0  0  0  0  0  0  0  0
   -8.2400   20.9780  -31.8460 C   0  0  0  0  0  0  0  0  0  0  0  0
   -6.7620   20.8960  -32.3370 C   0  0  2  0  0  0  0  0  0  0  0  0
   -6.1110   19.5770  -31.8830 C   0  0  0  0  0  0  0  0  0  0  0  0
   -3.7630   21.4010  -32.4590 N   0  0  0  0  0  0  0  0  0  0  0  0
   -2.4190   21.3330  -32.2500 C   0  0  0  0  0  0  0  0  0  0  0  0
   -1.5780   20.6950  -33.2440 N   0  0  0  0  0  0  0  0  0  0  0  0
   -0.5530   21.4770  -33.9610 C   0  0  0  0  0  0  0  0  0  0  0  0
    0.3750   20.5920  -34.7920 C   0  0  0  0  0  0  0  0  0  0  0  0
   -0.3690   19.6270  -35.5010 O   0  0  0  0  0  0  0  0  0  0  0  0
   -0.8780   18.6840  -34.5830 C   0  0  0  0  0  0  0  0  0  0  0  0
   -1.9180   19.3140  -33.6450 C   0  0  0  0  0  0  0  0  0  0  0  0
   -1.8900   21.9040  -31.1260 N   0  0  0  0  0  0  0  0  0  0  0  0
   -2.6880   22.5320  -30.2180 C   0  0  0  0  0  0  0  0  0  0  0  0
   -2.1400   23.0950  -29.1080 N   0  0  0  0  0  0  0  0  0  0  0  0
   -1.0340   23.7530  -26.4590 C   0  0  0  0  0  0  0  0  0  0  0  0
   -0.4010   24.3270  -25.3540 C   0  0  0  0  0  0  0  0  0  0  0  0
    1.2598   29.0639  -22.9040 H   0  0  0  0  0  0  0  0  0  0  0  0
    2.2583   28.6439  -24.3369 H   0  0  0  0  0  0  0  0  0  0  0  0
    1.2748   30.1470  -24.3369 H   0  0  0  0  0  0  0  0  0  0  0  0
    0.4886   27.6224  -25.3681 H   0  0  0  0  0  0  0  0  0  0  0  0
   -1.3888   29.8652  -24.4696 H   0  0  0  0  0  0  0  0  0  0  0  0
   -0.2856   30.0250  -25.8781 H   0  0  0  0  0  0  0  0  0  0  0  0
   -1.5654   28.7645  -25.8781 H   0  0  0  0  0  0  0  0  0  0  0  0
   -0.2010   27.9020  -22.6110 H   0  0  0  0  0  0  0  0  0  0  0  0
    0.8780   26.0073  -23.7382 H   0  0  0  0  0  0  0  0  0  0  0  0
   -0.5101   25.6360  -22.6574 H   0  0  0  0  0  0  0  0  0  0  0  0
   -2.5118   26.9613  -24.8135 H   0  0  0  0  0  0  0  0  0  0  0  0
   -3.6505   25.9376  -26.7757 H   0  0  0  0  0  0  0  0  0  0  0  0
   -4.8937   24.3864  -27.6211 H   0  0  0  0  0  0  0  0  0  0  0  0
   -5.9524   23.3781  -29.6466 H   0  0  0  0  0  0  0  0  0  0  0  0
   -6.4833   23.9389  -31.0333 H   0  0  0  0  0  0  0  0  0  0  0  0
   -6.1604   23.9783  -32.8051 H   0  0  0  0  0  0  0  0  0  0  0  0
   -8.6254   24.2264  -32.0640 H   0  0  0  0  0  0  0  0  0  0  0  0
   -8.2788   22.9949  -33.3193 H   0  0  0  0  0  0  0  0  0  0  0  0
   -8.3587   20.2871  -30.9983 H   0  0  0  0  0  0  0  0  0  0  0  0
   -8.8700   20.7152  -32.7086 H   0  0  0  0  0  0  0  0  0  0  0  0
   -6.7495   20.8935  -33.4369 H   0  0  0  0  0  0  0  0  0  0  0  0
   -6.0913   19.5371  -30.7839 H   0  0  0  0  0  0  0  0  0  0  0  0
   -6.6936   18.7282  -32.2703 H   0  0  0  0  0  0  0  0  0  0  0  0
   -5.0829   19.5232  -32.2703 H   0  0  0  0  0  0  0  0  0  0  0  0
   -1.0562   22.1895  -34.6312 H   0  0  0  0  0  0  0  0  0  0  0  0
    0.0604   21.9965  -33.2101 H   0  0  0  0  0  0  0  0  0  0  0  0
    0.9293   21.2185  -35.5063 H   0  0  0  0  0  0  0  0  0  0  0  0
    1.0748   20.0772  -34.1173 H   0  0  0  0  0  0  0  0  0  0  0  0
   -1.3512   17.8623  -35.1405 H   0  0  0  0  0  0  0  0  0  0  0  0
   -0.0424   18.3130  -33.9713 H   0  0  0  0  0  0  0  0  0  0  0  0
   -2.8900   19.3285  -34.1598 H   0  0  0  0  0  0  0  0  0  0  0  0
   -1.9448   18.7046  -32.7296 H   0  0  0  0  0  0  0  0  0  0  0  0
   -0.8630   21.8880  -30.9430 H   0  0  0  0  0  0  0  0  0  0  0  0
   -0.6087   22.8521  -26.9253 H   0  0  0  0  0  0  0  0  0  0  0  0
    0.5200   23.8757  -24.9565 H   0  0  0  0  0  0  0  0  0  0  0  0
  1  2  1  0
  2  3  1  0
  2  4  1  0
  4  5  1  0
  5  6  1  0
  6  7  2  0
  7  8  1  0
  8  9  2  0
  9 10  1  0
 10 11  2  0
 11 12  1  0
 12 13  2  0
 13 14  1  0
 14 15  1  0
 15 16  1  0
 16 17  1  0
 17 18  1  0
 18 19  1  0
 19 20  1  0
 20 21  1  0
 14 22  2  0
 22 23  1  0
 23 24  1  0
 24 25  1  0
 25 26  1  0
 26 27  1  0
 27 28  1  0
 28 29  1  0
 23 30  2  0
 30 31  1  0
 31 32  2  0
  9 33  1  0
 33 34  2  0
 34  6  1  0
 32 10  1  0
 31 13  1  0
 20 15  1  0
 29 24  1  0
  1 35  1  0
  1 36  1  0
  1 37  1  0
  2 38  1  0
  3 39  1  0
  3 40  1  0
  3 41  1  0
  4 42  1  0
  5 43  1  0
  5 44  1  0
  7 45  1  0
  8 46  1  0
 11 47  1  0
 12 48  1  0
 16 49  1  0
 16 50  1  0
 17 51  1  0
 17 52  1  0
 19 53  1  0
 19 54  1  0
 20 55  1  6
 21 56  1  0
 21 57  1  0
 21 58  1  0
 25 59  1  0
 25 60  1  0
 26 61  1  0
 26 62  1  0
 28 63  1  0
 28 64  1  0
 29 65  1  0
 29 66  1  0
 30 67  1  0
 33 68  1  0
 34 69  1  0
M  CHG  1  30   1
M  END
>  <UniqueID>  (7) 
7

>  <SMILES>  (7) 
CC(C)NCc1ccc(-c2ccc3c(N4CCOC[C@@H]4C)nc(N4CCOCC4)[nH+]c3n2)cc1

>  <Energy>  (7) 
94.0147574531797

>  <Genealogy>  (7) 
CC(C)NCc1ccc(-c2ccc3c(N4CCOCC4C)nc(N4CCOCC4)[nH+]c3n2)cc1 (protonated)
CC(C)NCc1ccc(-c2ccc3c(N4CCOC[C@@H]4C)nc(N4CCOCC4)[nH+]c3n2)cc1 (chirality)
CC(C)NCc1ccc(-c2ccc3c(N4CCOC[C@@H]4C)nc(N4CCOCC4)[nH+]c3n2)cc1 (3D coordinates assigned)
CC(C)NCc1ccc(-c2ccc3c(N4CCOC[C@@H]4C)nc(N4CCOCC4)[nH+]c3n2)cc1 (nonaromatic ring conformer: 94.0147574531797 kcal/mol)

>  <smiles>  (7) 
CC(C)NCc1ccc(-c2ccc3c(N4CCOCC4C)nc(N4CCOCC4)nc3n2)cc1

>  <score_type>  (7) 
oracle

>  <origin>  (7) 
adg

>  <m_score__min__energy>  (7) 
-8.3800000000000008

>  <m_primary>  (7) 
energy

$$$$
7:0
     RDKit          3D

 69 71  0  0  0  0  0  0  0  0999 V2000
   -2.3990   19.1690  -26.4520 C   0  0  0  0  0  0  0  0  0  0  0  0
   -2.7280   20.2130  -27.5150 C   0  0  0  0  0  0  0  0  0  0  0  0
   -1.5070   21.0910  -27.8240 C   0  0  0  0  0  0  0  0  0  0  0  0
   -1.4950   22.4050  -27.0250 C   0  0  0  0  0  0  0  0  0  0  0  0
   -0.9600   23.6120  -27.8270 C   0  0  0  0  0  0  0  0  0  0  0  0
   -1.9830   24.7470  -27.9660 C   0  0  0  0  0  0  0  0  0  0  0  0
   -2.4220   24.8820  -29.3580 N   0  0  0  0  0  0  0  0  0  0  0  0
   -3.1380   23.8620  -30.0770 C   0  0  0  0  0  0  0  0  0  0  0  0
   -2.4210   22.8520  -30.7190 C   0  0  0  0  0  0  0  0  0  0  0  0
   -3.0870   21.8340  -31.3960 C   0  0  0  0  0  0  0  0  0  0  0  0
   -4.4960   21.8150  -31.4670 C   0  0  0  0  0  0  0  0  0  0  0  0
   -5.1720   20.7470  -32.0850 C   0  0  0  0  0  0  0  0  0  0  0  0
   -4.4370   19.6170  -32.5890 N   0  0  0  0  0  0  0  0  0  0  0  0
   -3.4040   19.7780  -33.6120 C   0  0  0  0  0  0  0  0  0  0  0  0
   -3.0180   18.4190  -34.2010 C   0  0  0  0  0  0  0  0  0  0  0  0
   -3.9790   17.3730  -33.7900 N   0  0  0  0  0  0  0  0  0  0  0  0
   -5.0350   17.0970  -34.7900 C   0  0  0  0  0  0  0  0  0  0  0  0
   -6.4420   17.0130  -34.1920 C   0  0  0  0  0  0  0  0  0  0  0  0
   -3.4190   16.1670  -33.1270 C   0  0  0  0  0  0  0  0  0  0  0  0
   -4.4520   15.2690  -32.4300 C   0  0  0  0  0  0  0  0  0  0  0  0
   -6.5780   20.7630  -32.1480 C   0  0  0  0  0  0  0  0  0  0  0  0
   -7.2910   19.6820  -32.7150 C   0  0  0  0  0  0  0  0  0  0  0  0
   -8.6830   19.6650  -32.7080 C   0  0  0  0  0  0  0  0  0  0  0  0
   -9.3880   20.7130  -32.1280 C   0  0  0  0  0  0  0  0  0  0  0  0
   -8.7080   21.7980  -31.5800 C   0  0  0  0  0  0  0  0  0  0  0  0
   -7.2900   21.8680  -31.6100 C   0  0  0  0  0  0  0  0  0  0  0  0
   -6.6060   22.9630  -31.1160 N   0  0  0  0  0  0  0  0  0  0  0  0
   -7.3320   24.2210  -30.8270 C   0  0  0  0  0  0  0  0  0  0  0  0
   -5.2370   22.8970  -30.9270 C   0  0  0  0  0  0  0  0  0  0  0  0
   -4.5360   23.8890  -30.1950 C   0  0  0  0  0  0  0  0  0  0  0  0
   -2.5371   19.6072  -25.4526 H   0  0  0  0  0  0  0  0  0  0  0  0
   -3.0680   18.3036  -26.5686 H   0  0  0  0  0  0  0  0  0  0  0  0
   -1.3547   18.8435  -26.5686 H   0  0  0  0  0  0  0  0  0  0  0  0
   -3.0445   19.7009  -28.4357 H   0  0  0  0  0  0  0  0  0  0  0  0
   -3.5342   20.8572  -27.1342 H   0  0  0  0  0  0  0  0  0  0  0  0
   -0.5966   20.5239  -27.5800 H   0  0  0  0  0  0  0  0  0  0  0  0
   -1.5525   21.3547  -28.8909 H   0  0  0  0  0  0  0  0  0  0  0  0
   -2.5241   22.6277  -26.7066 H   0  0  0  0  0  0  0  0  0  0  0  0
   -0.8157   22.2577  -26.1724 H   0  0  0  0  0  0  0  0  0  0  0  0
   -0.0694   24.0049  -27.3148 H   0  0  0  0  0  0  0  0  0  0  0  0
   -0.7293   23.2540  -28.8412 H   0  0  0  0  0  0  0  0  0  0  0  0
   -2.8548   24.5269  -27.3323 H   0  0  0  0  0  0  0  0  0  0  0  0
   -1.5104   25.6892  -27.6515 H   0  0  0  0  0  0  0  0  0  0  0  0
   -2.0090   25.6720  -29.9060 H   0  0  0  0  0  0  0  0  0  0  0  0
   -1.3214   22.8601  -30.6901 H   0  0  0  0  0  0  0  0  0  0  0  0
   -2.5077   21.0348  -31.8814 H   0  0  0  0  0  0  0  0  0  0  0  0
   -4.4370   18.7320  -32.0330 H   0  0  0  0  0  0  0  0  0  0  0  0
   -3.7871   20.4251  -34.4148 H   0  0  0  0  0  0  0  0  0  0  0  0
   -2.5143   20.2323  -33.1515 H   0  0  0  0  0  0  0  0  0  0  0  0
   -3.0118   18.4910  -35.2986 H   0  0  0  0  0  0  0  0  0  0  0  0
   -2.0201   18.1452  -33.8280 H   0  0  0  0  0  0  0  0  0  0  0  0
   -5.0234   17.9028  -35.5387 H   0  0  0  0  0  0  0  0  0  0  0  0
   -4.8129   16.1131  -35.2289 H   0  0  0  0  0  0  0  0  0  0  0  0
   -6.3746   17.0170  -33.0941 H   0  0  0  0  0  0  0  0  0  0  0  0
   -7.0346   17.8774  -34.5262 H   0  0  0  0  0  0  0  0  0  0  0  0
   -6.9276   16.0843  -34.5262 H   0  0  0  0  0  0  0  0  0  0  0  0
   -2.9048   15.5656  -33.8912 H   0  0  0  0  0  0  0  0  0  0  0  0
   -2.7490   16.5350  -32.3360 H   0  0  0  0  0  0  0  0  0  0  0  0
   -4.3434   15.3634  -31.3394 H   0  0  0  0  0  0  0  0  0  0  0  0
   -5.4654   15.5781  -32.7257 H   0  0  0  0  0  0  0  0  0  0  0  0
   -4.2869   14.2224  -32.7257 H   0  0  0  0  0  0  0  0  0  0  0  0
   -6.7394   18.8445  -33.1670 H   0  0  0  0  0  0  0  0  0  0  0  0
   -9.2250   18.8221  -33.1615 H   0  0  0  0  0  0  0  0  0  0  0  0
  -10.4873   20.6854  -32.1016 H   0  0  0  0  0  0  0  0  0  0  0  0
   -9.2795   22.6152  -31.1157 H   0  0  0  0  0  0  0  0  0  0  0  0
   -7.4106   24.3572  -29.7383 H   0  0  0  0  0  0  0  0  0  0  0  0
   -6.7844   25.0690  -31.2640 H   0  0  0  0  0  0  0  0  0  0  0  0
   -8.3402   24.1712  -31.2640 H   0  0  0  0  0  0  0  0  0  0  0  0
   -5.1010   24.6979  -29.7087 H   0  0  0  0  0  0  0  0  0  0  0  0
  1  2  1  0
  2  3  1  0
  3  4  1  0
  4  5  1  0
  5  6  1  0
  6  7  1  0
  7  8  1  0
  8  9  2  0
  9 10  1  0
 10 11  2  0
 11 12  1  0
 12 13  1  0
 13 14  1  0
 14 15  1  0
 15 16  1  0
 16 17  1  0
 17 18  1  0
 16 19  1  0
 19 20  1  0
 12 21  2  0
 21 22  1  0
 22 23  2  0
 23 24  1  0
 24 25  2  0
 25 26  1  0
 26 27  2  0
 27 28  1  0
 27 29  1  0
 29 30  2  0
 30  8  1  0
 29 11  1  0
 26 21  1  0
  1 31  1  0
  1 32  1  0
  1 33  1  0
  2 34  1  0
  2 35  1  0
  3 36  1  0
  3 37  1  0
  4 38  1  0
  4 39  1  0
  5 40  1  0
  5 41  1  0
  6 42  1  0
  6 43  1  0
  7 44  1  0
  9 45  1  0
 10 46  1  0
 13 47  1  0
 14 48  1  0
 14 49  1  0
 15 50  1  0
 15 51  1  0
 17 52  1  0
 17 53  1  0
 18 54  1  0
 18 55  1  0
 18 56  1  0
 19 57  1  0
 19 58  1  0
 20 59  1  0
 20 60  1  0
 20 61  1  0
 22 62  1  0
 23 63  1  0
 24 64  1  0
 25 65  1  0
 28 66  1  0
 28 67  1  0
 28 68  1  0
 30 69  1  0
M  CHG  1  27   1
M  END
>  <UniqueID>  (8) 
8

>  <SMILES>  (8) 
CCCCCCNc1ccc2c(NCCN(CC)CC)c3ccccc3[n+](C)c2c1

>  <Energy>  (8) 
93.57777354362958

>  <Genealogy>  (8) 
CCCCCCNc1ccc2c(NCCN(CC)CC)c3ccccc3[n+](C)c2c1 (3D coordinates assigned)
CCCCCCNc1ccc2c(NCCN(CC)CC)c3ccccc3[n+](C)c2c1 (optimized conformer: 93.57777354362958 kcal/mol)

>  <smiles>  (8) 
CCCCCCNc1ccc2c(NCCN(CC)CC)c3ccccc3[n+](C)c2c1

>  <score_type>  (8) 
oracle

>  <origin>  (8) 
adg

>  <m_score__min__energy>  (8) 
-8.4299999999999997

>  <m_primary>  (8) 
energy

$$$$
8:0
     RDKit          3D

 46 48  0  0  0  0  0  0  0  0999 V2000
   -2.4580   24.1000  -29.2580 C   0  0  0  0  0  0  0  0  0  0  0  0
   -3.9370   24.4800  -29.2760 C   0  0  0  0  0  0  0  0  0  0  0  0
   -4.3240   24.9840  -30.6020 N   0  0  0  0  0  0  0  0  0  0  0  0
   -5.3650   24.1440  -31.2110 C   0  0  0  0  0  0  0  0  0  0  0  0
   -5.2630   22.7180  -30.6680 C   0  0  0  0  0  0  0  0  0  0  0  0
   -5.9430   21.7500  -31.5980 C   0  0  0  0  0  0  0  0  0  0  0  0
   -5.3440   20.8940  -32.5260 C   0  0  0  0  0  0  0  0  0  0  0  0
   -3.8750   20.8610  -32.8430 C   0  0  0  0  0  0  0  0  0  0  0  0
   -6.2910   20.1530  -33.1680 N   0  0  0  0  0  0  0  0  0  0  0  0
   -6.0780   19.2210  -34.2810 C   0  0  0  0  0  0  0  0  0  0  0  0
   -5.5900   17.8930  -33.7650 C   0  0  0  0  0  0  0  0  0  0  0  0
   -4.8810   17.0170  -34.6070 C   0  0  0  0  0  0  0  0  0  0  0  0
   -4.4530   15.7730  -34.1300 C   0  0  0  0  0  0  0  0  0  0  0  0
   -4.7300   15.3950  -32.8140 C   0  0  0  0  0  0  0  0  0  0  0  0
   -5.4360   16.2600  -31.9710 C   0  0  0  0  0  0  0  0  0  0  0  0
   -5.8670   17.5030  -32.4440 C   0  0  0  0  0  0  0  0  0  0  0  0
   -7.4780   20.5210  -32.6280 C   0  0  0  0  0  0  0  0  0  0  0  0
   -8.7590   20.0480  -32.9420 C   0  0  0  0  0  0  0  0  0  0  0  0
   -9.8530   20.5790  -32.2390 C   0  0  0  0  0  0  0  0  0  0  0  0
   -9.6580   21.5610  -31.2450 C   0  0  0  0  0  0  0  0  0  0  0  0
   -8.3660   22.0220  -30.9460 C   0  0  0  0  0  0  0  0  0  0  0  0
   -7.2960   21.4810  -31.6620 C   0  0  0  0  0  0  0  0  0  0  0  0
   -2.1147   24.0118  -28.2167 H   0  0  0  0  0  0  0  0  0  0  0  0
   -2.3205   23.1373  -29.7722 H   0  0  0  0  0  0  0  0  0  0  0  0
   -1.8735   24.8771  -29.7722 H   0  0  0  0  0  0  0  0  0  0  0  0
   -4.5414   23.5930  -29.0355 H   0  0  0  0  0  0  0  0  0  0  0  0
   -4.1099   25.2706  -28.5310 H   0  0  0  0  0  0  0  0  0  0  0  0
   -3.4800   24.9360  -31.2190 H   0  0  0  0  0  0  0  0  0  0  0  0
   -6.3554   24.5570  -30.9691 H   0  0  0  0  0  0  0  0  0  0  0  0
   -5.2267   24.1280  -32.3022 H   0  0  0  0  0  0  0  0  0  0  0  0
   -4.2025   22.4426  -30.5711 H   0  0  0  0  0  0  0  0  0  0  0  0
   -5.7573   22.6750  -29.6862 H   0  0  0  0  0  0  0  0  0  0  0  0
   -3.2980   20.8480  -31.9066 H   0  0  0  0  0  0  0  0  0  0  0  0
   -3.6462   19.9575  -33.4272 H   0  0  0  0  0  0  0  0  0  0  0  0
   -3.6058   21.7533  -33.4272 H   0  0  0  0  0  0  0  0  0  0  0  0
   -7.0265   19.0750  -34.8186 H   0  0  0  0  0  0  0  0  0  0  0  0
   -5.3210   19.6412  -34.9595 H   0  0  0  0  0  0  0  0  0  0  0  0
   -4.6622   17.3110  -35.6442 H   0  0  0  0  0  0  0  0  0  0  0  0
   -3.8979   15.0921  -34.7920 H   0  0  0  0  0  0  0  0  0  0  0  0
   -4.3929   14.4168  -32.4404 H   0  0  0  0  0  0  0  0  0  0  0  0
   -5.6523   15.9617  -30.9346 H   0  0  0  0  0  0  0  0  0  0  0  0
   -6.4253   18.1785  -31.7791 H   0  0  0  0  0  0  0  0  0  0  0  0
   -8.9040   19.2818  -33.7178 H   0  0  0  0  0  0  0  0  0  0  0  0
  -10.8700   20.2263  -32.4653 H   0  0  0  0  0  0  0  0  0  0  0  0
  -10.5232   21.9678  -30.7011 H   0  0  0  0  0  0  0  0  0  0  0  0
   -8.2016   22.7858  -30.1716 H   0  0  0  0  0  0  0  0  0  0  0  0
  1  2  1  0
  2  3  1  0
  3  4  1  0
  4  5  1  0
  5  6  1  0
  6  7  2  0
  7  8  1  0
  7  9  1  0
  9 10  1  0
 10 11  1  0
 11 12  2  0
 12 13  1  0
 13 14  2  0
 14 15  1  0
 15 16  2  0
  9 17  1  0
 17 18  2  0
 18 19  1  0
 19 20  2  0
 20 21  1  0
 21 22  2  0
 22  6  1  0
 16 11  1  0
 22 17  1  0
  1 23  1  0
  1 24  1  0
  1 25  1  0
  2 26  1  0
  2 27  1  0
  3 28  1  0
  4 29  1  0
  4 30  1  0
  5 31  1  0
  5 32  1  0
  8 33  1  0
  8 34  1  0
  8 35  1  0
 10 36  1  0
 10 37  1  0
 12 38  1  0
 13 39  1  0
 14 40  1  0
 15 41  1  0
 16 42  1  0
 18 43  1  0
 19 44  1  0
 20 45  1  0
 21 46  1  0
M  END
>  <UniqueID>  (9) 
9

>  <SMILES>  (9) 
CCNCCc1c(C)n(Cc2ccccc2)c2ccccc12

>  <Energy>  (9) 
73.77430311652552

>  <Genealogy>  (9) 
CCNCCc1c(C)n(Cc2ccccc2)c2ccccc12 (3D coordinates assigned)
CCNCCc1c(C)n(Cc2ccccc2)c2ccccc12 (optimized conformer: 73.77430311652552 kcal/mol)

>  <smiles>  (9) 
CCNCCc1c(C)n(Cc2ccccc2)c2ccccc12

>  <score_type>  (9) 
oracle

>  <origin>  (9) 
adg

>  <m_score__min__energy>  (9) 
-8.9100000000000001

>  <m_primary>  (9) 
energy

$$$$
9:0
     RDKit          3D

 61 63  0  0  0  0  0  0  0  0999 V2000
   -6.3490   25.2460  -29.7340 C   0  0  0  0  0  0  0  0  0  0  0  0
   -5.1330   25.3610  -30.6480 C   0  0  0  0  0  0  0  0  0  0  0  0
   -3.9410   25.1420  -29.9170 O   0  0  0  0  0  0  0  0  0  0  0  0
   -4.1900   24.4460  -28.7070 C   0  0  0  0  0  0  0  0  0  0  0  0
   -2.9800   24.5480  -27.7820 C   0  0  0  0  0  0  0  0  0  0  0  0
   -1.8410   24.0450  -28.4460 O   0  0  0  0  0  0  0  0  0  0  0  0
   -1.7860   22.6420  -28.2990 C   0  0  0  0  0  0  0  0  0  0  0  0
   -0.7900   22.0540  -29.3050 C   0  0  0  0  0  0  0  0  0  0  0  0
   -1.3790   21.9310  -30.7180 C   0  0  0  0  0  0  0  0  0  0  0  0
   -2.3410   23.0110  -30.9810 N   0  0  0  0  0  0  0  0  0  0  0  0
   -3.6720   22.4940  -31.3550 C   0  0  0  0  0  0  0  0  0  0  0  0
   -3.6120   21.4080  -32.4470 C   0  0  0  0  0  0  0  0  0  0  0  0
   -4.7280   21.5250  -33.4000 N   0  0  0  0  0  0  0  0  0  0  0  0
   -5.8380   20.6730  -32.9990 C   0  0  0  0  0  0  0  0  0  0  0  0
   -5.7840   19.2690  -33.2000 C   0  0  0  0  0  0  0  0  0  0  0  0
   -4.6060   18.6260  -33.6560 C   0  0  0  0  0  0  0  0  0  0  0  0
   -4.5940   17.2660  -33.9450 C   0  0  0  0  0  0  0  0  0  0  0  0
   -5.7490   16.5130  -33.7960 C   0  0  0  0  0  0  0  0  0  0  0  0
   -6.9090   17.1050  -33.3060 C   0  0  0  0  0  0  0  0  0  0  0  0
   -6.9390   18.4780  -32.9420 C   0  0  0  0  0  0  0  0  0  0  0  0
   -8.0570   19.0410  -32.3610 N   0  0  0  0  0  0  0  0  0  0  0  0
   -9.1330   18.1680  -31.8320 C   0  0  0  0  0  0  0  0  0  0  0  0
   -8.1540   20.4120  -32.2220 C   0  0  0  0  0  0  0  0  0  0  0  0
   -9.3760   21.0320  -31.8470 C   0  0  0  0  0  0  0  0  0  0  0  0
   -9.4480   22.4010  -31.6060 C   0  0  0  0  0  0  0  0  0  0  0  0
   -8.3140   23.1890  -31.7350 C   0  0  0  0  0  0  0  0  0  0  0  0
   -7.1150   22.6240  -32.1600 C   0  0  0  0  0  0  0  0  0  0  0  0
   -7.0240   21.2420  -32.4640 C   0  0  0  0  0  0  0  0  0  0  0  0
   -6.0227   25.2769  -28.6840 H   0  0  0  0  0  0  0  0  0  0  0  0
   -7.0351   26.0833  -29.9295 H   0  0  0  0  0  0  0  0  0  0  0  0
   -6.8660   24.2950  -29.9295 H   0  0  0  0  0  0  0  0  0  0  0  0
   -5.2097   24.6106  -31.4486 H   0  0  0  0  0  0  0  0  0  0  0  0
   -5.1057   26.3730  -31.0782 H   0  0  0  0  0  0  0  0  0  0  0  0
   -5.0665   24.8857  -28.2086 H   0  0  0  0  0  0  0  0  0  0  0  0
   -4.3797   23.3867  -28.9346 H   0  0  0  0  0  0  0  0  0  0  0  0
   -2.8123   25.6009  -27.5113 H   0  0  0  0  0  0  0  0  0  0  0  0
   -3.1634   23.9614  -26.8697 H   0  0  0  0  0  0  0  0  0  0  0  0
   -1.4626   22.3941  -27.2773 H   0  0  0  0  0  0  0  0  0  0  0  0
   -2.7837   22.2176  -28.4848 H   0  0  0  0  0  0  0  0  0  0  0  0
    0.0942   22.7070  -29.3477 H   0  0  0  0  0  0  0  0  0  0  0  0
   -0.5309   21.0410  -28.9633 H   0  0  0  0  0  0  0  0  0  0  0  0
   -0.5637   21.9877  -31.4543 H   0  0  0  0  0  0  0  0  0  0  0  0
   -1.9024   20.9668  -30.7979 H   0  0  0  0  0  0  0  0  0  0  0  0
   -2.4010   23.6360  -30.1440 H   0  0  0  0  0  0  0  0  0  0  0  0
   -4.1455   22.0648  -30.4597 H   0  0  0  0  0  0  0  0  0  0  0  0
   -4.2499   23.3372  -31.7614 H   0  0  0  0  0  0  0  0  0  0  0  0
   -2.6639   21.5076  -32.9958 H   0  0  0  0  0  0  0  0  0  0  0  0
   -3.6849   20.4265  -31.9558 H   0  0  0  0  0  0  0  0  0  0  0  0
   -4.4110   21.2870  -34.3650 H   0  0  0  0  0  0  0  0  0  0  0  0
   -5.0340   22.5190  -33.4920 H   0  0  0  0  0  0  0  0  0  0  0  0
   -3.6848   19.2135  -33.7835 H   0  0  0  0  0  0  0  0  0  0  0  0
   -3.6669   16.7866  -34.2924 H   0  0  0  0  0  0  0  0  0  0  0  0
   -5.7481   15.4465  -34.0655 H   0  0  0  0  0  0  0  0  0  0  0  0
   -7.8203   16.4983  -33.1984 H   0  0  0  0  0  0  0  0  0  0  0  0
   -9.1118   18.1852  -30.7323 H   0  0  0  0  0  0  0  0  0  0  0  0
  -10.1085   18.5331  -32.1857 H   0  0  0  0  0  0  0  0  0  0  0  0
   -8.9768   17.1382  -32.1857 H   0  0  0  0  0  0  0  0  0  0  0  0
  -10.2831   20.4181  -31.7451 H   0  0  0  0  0  0  0  0  0  0  0  0
  -10.4047   22.8581  -31.3131 H   0  0  0  0  0  0  0  0  0  0  0  0
   -8.3622   24.2627  -31.5010 H   0  0  0  0  0  0  0  0  0  0  0  0
   -6.2233   23.2601  -32.2617 H   0  0  0  0  0  0  0  0  0  0  0  0
  1  2  1  0
  2  3  1  0
  3  4  1  0
  4  5  1  0
  5  6  1  0
  6  7  1  0
  7  8  1  0
  8  9  1  0
  9 10  1  0
 10 11  1  0
 11 12  1  0
 12 13  1  0
 13 14  1  0
 14 15  2  0
 15 16  1  0
 16 17  2  0
 17 18  1  0
 18 19  2  0
 19 20  1  0
 20 21  2  0
 21 22  1  0
 21 23  1  0
 23 24  2  0
 24 25  1  0
 25 26  2  0
 26 27  1  0
 27 28  2  0
 28 14  1  0
 20 15  1  0
 28 23  1  0
  1 29  1  0
  1 30  1  0
  1 31  1  0
  2 32  1  0
  2 33  1  0
  4 34  1  0
  4 35  1  0
  5 36  1  0
  5 37  1  0
  7 38  1  0
  7 39  1  0
  8 40  1  0
  8 41  1  0
  9 42  1  0
  9 43  1  0
 10 44  1  0
 11 45  1  0
 11 46  1  0
 12 47  1  0
 12 48  1  0
 13 49  1  0
 13 50  1  0
 16 51  1  0
 17 52  1  0
 18 53  1  0
 19 54  1  0
 22 55  1  0
 22 56  1  0
 22 57  1  0
 24 58  1  0
 25 59  1  0
 26 60  1  0
 27 61  1  0
M  CHG  2  13   1  21   1
M  END
>  <UniqueID>  (10) 
10

>  <SMILES>  (10) 
CCOCCOCCCNCC[NH2+]c1c2ccccc2[n+](C)c2ccccc12

>  <Energy>  (10) 
86.32947138702576

>  <Genealogy>  (10) 
CCOCCOCCCNCC[NH2+]c1c2ccccc2[n+](C)c2ccccc12 (protonated)
CCOCCOCCCNCC[NH2+]c1c2ccccc2[n+](C)c2ccccc12 (3D coordinates assigned)
CCOCCOCCCNCC[NH2+]c1c2ccccc2[n+](C)c2ccccc12 (optimized conformer: 86.32947138702576 kcal/mol)

>  <smiles>  (10) 
CCOCCOCCCNCCNc1c2ccccc2[n+](C)c2ccccc12

>  <score_type>  (10) 
oracle

>  <origin>  (10) 
adg

>  <m_score__min__energy>  (10) 
-8.5600000000000005

>  <m_primary>  (10) 
energy

$$$$
10:0
     RDKit          3D

 73 76  0  0  0  0  0  0  0  0999 V2000
    0.7600   20.7210  -35.4160 C   0  0  0  0  0  0  0  0  0  0  0  0
   -0.0950   21.8930  -34.9630 C   0  0  0  0  0  0  0  0  0  0  0  0
   -0.7230   21.5640  -33.7410 O   0  0  0  0  0  0  0  0  0  0  0  0
   -0.0350   20.5110  -33.0910 C   0  0  0  0  0  0  0  0  0  0  0  0
   -0.9920   19.3710  -32.6940 C   0  0  0  0  0  0  0  0  0  0  0  0
   -1.9180   18.9610  -33.8460 C   0  0  0  0  0  0  0  0  0  0  0  0
   -2.9770   19.9570  -34.0430 N   0  0  0  0  0  0  0  0  0  0  0  0
   -4.2290   19.8040  -33.3590 C   0  0  0  0  0  0  0  0  0  0  0  0
   -4.9760   18.6330  -33.6010 C   0  0  0  0  0  0  0  0  0  0  0  0
   -4.3740   17.5020  -34.1990 C   0  0  0  0  0  0  0  0  0  0  0  0
   -5.1090   16.3420  -34.4270 C   0  0  0  0  0  0  0  0  0  0  0  0
   -6.4460   16.2830  -34.0590 C   0  0  0  0  0  0  0  0  0  0  0  0
   -7.0630   17.3900  -33.4770 C   0  0  0  0  0  0  0  0  0  0  0  0
   -6.3460   18.5930  -33.2530 C   0  0  0  0  0  0  0  0  0  0  0  0
   -6.9530   19.7160  -32.7350 N   0  0  0  0  0  0  0  0  0  0  0  0
   -8.4190   19.7340  -32.5270 C   0  0  0  0  0  0  0  0  0  0  0  0
   -6.2000   20.8060  -32.3580 C   0  0  0  0  0  0  0  0  0  0  0  0
   -6.8110   21.8520  -31.7450 N   0  0  0  0  0  0  0  0  0  0  0  0
   -6.1600   22.9400  -31.2900 C   0  0  0  0  0  0  0  0  0  0  0  0
   -6.8970   23.9650  -30.6830 C   0  0  0  0  0  0  0  0  0  0  0  0
   -6.2480   25.0750  -30.1470 C   0  0  0  0  0  0  0  0  0  0  0  0
   -4.8590   25.1590  -30.2020 C   0  0  0  0  0  0  0  0  0  0  0  0
   -4.1150   24.1400  -30.8020 C   0  0  0  0  0  0  0  0  0  0  0  0
   -4.7550   23.0140  -31.3790 C   0  0  0  0  0  0  0  0  0  0  0  0
   -4.0450   21.9480  -32.0140 C   0  0  0  0  0  0  0  0  0  0  0  0
   -2.5940   21.9160  -31.9300 N   0  0  0  0  0  0  0  0  0  0  0  0
   -2.1280   21.9450  -30.5310 C   0  0  0  0  0  0  0  0  0  0  0  0
   -2.7430   20.7760  -29.7260 C   0  0  0  0  0  0  0  0  0  0  0  0
   -2.8350   21.0210  -28.2670 N   0  0  0  0  0  0  0  0  0  0  0  0
   -2.0890   20.0340  -27.4520 C   0  0  0  0  0  0  0  0  0  0  0  0
   -3.0690   19.1250  -26.7180 C   0  0  0  0  0  0  0  0  0  0  0  0
   -2.5530   22.4230  -27.8890 C   0  0  0  0  0  0  0  0  0  0  0  0
   -3.8530   23.1580  -27.5750 C   0  0  0  0  0  0  0  0  0  0  0  0
   -4.7960   20.8560  -32.5890 C   0  0  0  0  0  0  0  0  0  0  0  0
    1.1485   20.1885  -34.5353 H   0  0  0  0  0  0  0  0  0  0  0  0
    0.1496   20.0338  -36.0203 H   0  0  0  0  0  0  0  0  0  0  0  0
    1.6008   21.0924  -36.0203 H   0  0  0  0  0  0  0  0  0  0  0  0
    0.5406   22.7799  -34.8231 H   0  0  0  0  0  0  0  0  0  0  0  0
   -0.8585   22.1100  -35.7246 H   0  0  0  0  0  0  0  0  0  0  0  0
    0.7328   20.1127  -33.7706 H   0  0  0  0  0  0  0  0  0  0  0  0
    0.4227   20.9120  -32.1746 H   0  0  0  0  0  0  0  0  0  0  0  0
   -0.3956   18.4976  -32.3915 H   0  0  0  0  0  0  0  0  0  0  0  0
   -1.6221   19.7326  -31.8680 H   0  0  0  0  0  0  0  0  0  0  0  0
   -1.3276   18.8748  -34.7701 H   0  0  0  0  0  0  0  0  0  0  0  0
   -2.3836   17.9958  -33.5977 H   0  0  0  0  0  0  0  0  0  0  0  0
   -2.7080   20.9210  -34.3480 H   0  0  0  0  0  0  0  0  0  0  0  0
   -3.3131   17.5392  -34.4873 H   0  0  0  0  0  0  0  0  0  0  0  0
   -4.6299   15.4716  -34.8991 H   0  0  0  0  0  0  0  0  0  0  0  0
   -7.0207   15.3602  -34.2269 H   0  0  0  0  0  0  0  0  0  0  0  0
   -8.1224   17.3292  -33.1871 H   0  0  0  0  0  0  0  0  0  0  0  0
   -8.6363   19.7367  -31.4487 H   0  0  0  0  0  0  0  0  0  0  0  0
   -8.8438   20.6374  -32.9889 H   0  0  0  0  0  0  0  0  0  0  0  0
   -8.8659   18.8413  -32.9889 H   0  0  0  0  0  0  0  0  0  0  0  0
   -7.9933   23.8931  -30.6293 H   0  0  0  0  0  0  0  0  0  0  0  0
   -6.8312   25.8832  -29.6815 H   0  0  0  0  0  0  0  0  0  0  0  0
   -4.3455   26.0312  -29.7713 H   0  0  0  0  0  0  0  0  0  0  0  0
   -3.0177   24.2122  -30.8271 H   0  0  0  0  0  0  0  0  0  0  0  0
   -2.2360   21.0540  -32.4000 H   0  0  0  0  0  0  0  0  0  0  0  0
   -2.1640   22.6810  -32.4870 H   0  0  0  0  0  0  0  0  0  0  0  0
   -1.0316   21.8580  -30.5137 H   0  0  0  0  0  0  0  0  0  0  0  0
   -2.4426   22.8943  -30.0728 H   0  0  0  0  0  0  0  0  0  0  0  0
   -3.7575   20.5905  -30.1087 H   0  0  0  0  0  0  0  0  0  0  0  0
   -2.0715   19.9149  -29.8588 H   0  0  0  0  0  0  0  0  0  0  0  0
   -1.4493   19.4266  -28.1091 H   0  0  0  0  0  0  0  0  0  0  0  0
   -1.4663   20.5656  -26.7174 H   0  0  0  0  0  0  0  0  0  0  0  0
   -2.9387   19.2459  -25.6325 H   0  0  0  0  0  0  0  0  0  0  0  0
   -4.0984   19.3952  -26.9960 H   0  0  0  0  0  0  0  0  0  0  0  0
   -2.8768   18.0782  -26.9960 H   0  0  0  0  0  0  0  0  0  0  0  0
   -1.9049   22.4360  -27.0003 H   0  0  0  0  0  0  0  0  0  0  0  0
   -2.0510   22.9262  -28.7285 H   0  0  0  0  0  0  0  0  0  0  0  0
   -3.9796   23.2296  -26.4847 H   0  0  0  0  0  0  0  0  0  0  0  0
   -3.8162   24.1689  -28.0070 H   0  0  0  0  0  0  0  0  0  0  0  0
   -4.7003   22.6053  -28.0070 H   0  0  0  0  0  0  0  0  0  0  0  0
  1  2  1  0
  2  3  1  0
  3  4  1  0
  4  5  1  0
  5  6  1  0
  6  7  1  0
  7  8  1  0
  8  9  2  0
  9 10  1  0
 10 11  2  0
 11 12  1  0
 12 13  2  0
 13 14  1  0
 14 15  2  0
 15 16  1  0
 15 17  1  0
 17 18  2  0
 18 19  1  0
 19 20  2  0
 20 21  1  0
 21 22  2  0
 22 23  1  0
 23 24  2  0
 24 25  1  0
 25 26  1  0
 26 27  1  0
 27 28  1  0
 28 29  1  0
 29 30  1  0
 30 31  1  0
 29 32  1  0
 32 33  1  0
 25 34  2  0
 34  8  1  0
 14  9  1  0
 34 17  1  0
 24 19  1  0
  1 35  1  0
  1 36  1  0
  1 37  1  0
  2 38  1  0
  2 39  1  0
  4 40  1  0
  4 41  1  0
  5 42  1  0
  5 43  1  0
  6 44  1  0
  6 45  1  0
  7 46  1  0
 10 47  1  0
 11 48  1  0
 12 49  1  0
 13 50  1  0
 16 51  1  0
 16 52  1  0
 16 53  1  0
 20 54  1  0
 21 55  1  0
 22 56  1  0
 23 57  1  0
 26 58  1  0
 26 59  1  0
 27 60  1  0
 27 61  1  0
 28 62  1  0
 28 63  1  0
 30 64  1  0
 30 65  1  0
 31 66  1  0
 31 67  1  0
 31 68  1  0
 32 69  1  0
 32 70  1  0
 33 71  1  0
 33 72  1  0
 33 73  1  0
M  CHG  2  15   1  26   1
M  END
>  <UniqueID>  (11) 
11

>  <SMILES>  (11) 
CCOCCCNc1c2ccccc2[n+](C)c2nc3ccccc3c([NH2+]CCN(CC)CC)c12

>  <Energy>  (11) 
113.42281066139435

>  <Genealogy>  (11) 
CCOCCCNc1c2ccccc2[n+](C)c2nc3ccccc3c([NH2+]CCN(CC)CC)c12 (protonated)
CCOCCCNc1c2ccccc2[n+](C)c2nc3ccccc3c([NH2+]CCN(CC)CC)c12 (3D coordinates assigned)
CCOCCCNc1c2ccccc2[n+](C)c2nc3ccccc3c([NH2+]CCN(CC)CC)c12 (optimized conformer: 113.42281066139435 kcal/mol)

>  <smiles>  (11) 
CCOCCCNc1c2ccccc2[n+](C)c2nc3ccccc3c(NCCN(CC)CC)c12

>  <score_type>  (11) 
oracle

>  <origin>  (11) 
adg

>  <m_score__min__energy>  (11) 
-9.1199999999999992

>  <m_primary>  (11) 
energy

$$$$
11:0
     RDKit          3D

 37 39  0  0  0  0  0  0  0  0999 V2000
   -4.4150   23.6300  -28.7970 C   0  0  0  0  0  0  0  0  0  0  0  0
   -4.9180   22.9480  -30.0640 C   0  0  0  0  0  0  0  0  0  0  0  0
   -4.9480   23.9160  -31.1870 N   0  0  0  0  0  0  0  0  0  0  0  0
   -5.2720   25.2680  -30.7020 C   0  0  0  0  0  0  0  0  0  0  0  0
   -5.9050   23.5210  -32.2470 C   0  0  0  0  0  0  0  0  0  0  0  0
   -5.8970   22.0090  -32.4620 C   0  0  0  0  0  0  0  0  0  0  0  0
   -4.7120   21.3000  -32.8380 C   0  0  0  0  0  0  0  0  0  0  0  0
   -3.4600   21.9270  -33.0640 C   0  0  0  0  0  0  0  0  0  0  0  0
   -2.3380   21.1760  -33.4260 C   0  0  0  0  0  0  0  0  0  0  0  0
   -2.4310   19.7960  -33.5730 C   0  0  0  0  0  0  0  0  0  0  0  0
   -3.6490   19.1550  -33.3660 C   0  0  0  0  0  0  0  0  0  0  0  0
   -4.7840   19.8920  -33.0050 C   0  0  0  0  0  0  0  0  0  0  0  0
   -5.9540   19.2370  -32.8260 N   0  0  0  0  0  0  0  0  0  0  0  0
   -7.0990   19.8720  -32.4900 C   0  0  0  0  0  0  0  0  0  0  0  0
   -8.2710   19.1220  -32.3360 C   0  0  0  0  0  0  0  0  0  0  0  0
   -9.4690   19.7500  -31.9980 C   0  0  0  0  0  0  0  0  0  0  0  0
   -9.5040   21.1300  -31.8140 C   0  0  0  0  0  0  0  0  0  0  0  0
   -8.3400   21.8900  -31.9620 C   0  0  0  0  0  0  0  0  0  0  0  0
   -7.1100   21.2750  -32.3010 C   0  0  0  0  0  0  0  0  0  0  0  0
   -4.8057   23.1003  -27.9157 H   0  0  0  0  0  0  0  0  0  0  0  0
   -3.3153   23.6078  -28.7805 H   0  0  0  0  0  0  0  0  0  0  0  0
   -4.7610   24.6740  -28.7805 H   0  0  0  0  0  0  0  0  0  0  0  0
   -4.2466   22.1150  -30.3197 H   0  0  0  0  0  0  0  0  0  0  0  0
   -5.9356   22.5688  -29.8887 H   0  0  0  0  0  0  0  0  0  0  0  0
   -5.2731   25.2725  -29.6020 H   0  0  0  0  0  0  0  0  0  0  0  0
   -4.5191   25.9801  -31.0708 H   0  0  0  0  0  0  0  0  0  0  0  0
   -6.2659   25.5615  -31.0708 H   0  0  0  0  0  0  0  0  0  0  0  0
   -6.9169   23.8363  -31.9526 H   0  0  0  0  0  0  0  0  0  0  0  0
   -5.6052   24.0083  -33.1865 H   0  0  0  0  0  0  0  0  0  0  0  0
   -3.3708   23.0178  -32.9530 H   0  0  0  0  0  0  0  0  0  0  0  0
   -1.3750   21.6798  -33.5958 H   0  0  0  0  0  0  0  0  0  0  0  0
   -1.5422   19.2114  -33.8528 H   0  0  0  0  0  0  0  0  0  0  0  0
   -3.7206   18.0640  -33.4865 H   0  0  0  0  0  0  0  0  0  0  0  0
   -8.2466   18.0321  -32.4824 H   0  0  0  0  0  0  0  0  0  0  0  0
  -10.3865   19.1555  -31.8767 H   0  0  0  0  0  0  0  0  0  0  0  0
  -10.4511   21.6239  -31.5512 H   0  0  0  0  0  0  0  0  0  0  0  0
   -8.3799   22.9792  -31.8133 H   0  0  0  0  0  0  0  0  0  0  0  0
  1  2  1  0
  2  3  1  0
  3  4  1  0
  3  5  1  0
  5  6  1  0
  6  7  2  0
  7  8  1  0
  8  9  2  0
  9 10  1  0
 10 11  2  0
 11 12  1  0
 12 13  2  0
 13 14  1  0
 14 15  2  0
 15 16  1  0
 16 17  2  0
 17 18  1  0
 18 19  2  0
 19  6  1  0
 12  7  1  0
 19 14  1  0
  1 20  1  0
  1 21  1  0
  1 22  1  0
  2 23  1  0
  2 24  1  0
  4 25  1  0
  4 26  1  0
  4 27  1  0
  5 28  1  0
  5 29  1  0
  8 30  1  0
  9 31  1  0
 10 32  1  0
 11 33  1  0
 15 34  1  0
 16 35  1  0
 17 36  1  0
 18 37  1  0
M  END
>  <UniqueID>  (12) 
12

>  <SMILES>  (12) 
CCN(C)Cc1c2ccccc2nc2ccccc12

>  <Energy>  (12) 
52.35335148170529

>  <Genealogy>  (12) 
CCN(C)Cc1c2ccccc2nc2ccccc12 (3D coordinates assigned)
CCN(C)Cc1c2ccccc2nc2ccccc12 (optimized conformer: 52.35335148170529 kcal/mol)

>  <smiles>  (12) 
CCN(C)Cc1c2ccccc2nc2ccccc12

>  <score_type>  (12) 
oracle

>  <origin>  (12) 
adg

>  <m_score__min__energy>  (12) 
-7.6200000000000001

>  <m_primary>  (12) 
energy

$$$$
12:0
     RDKit          3D

 52 54  0  0  0  0  0  0  0  0999 V2000
   -2.7800   19.6440  -33.7760 C   0  0  0  0  0  0  0  0  0  0  0  0
   -3.3280   20.9140  -33.1300 C   0  0  0  0  0  0  0  0  0  0  0  0
   -2.4790   21.3390  -32.0030 N   0  0  0  0  0  0  0  0  0  0  0  0
   -1.0270   21.1470  -32.0870 C   0  0  0  0  0  0  0  0  0  0  0  0
   -3.0520   21.9010  -30.7990 C   0  0  0  0  0  0  0  0  0  0  0  0
   -3.9630   22.9700  -30.8670 C   0  0  0  0  0  0  0  0  0  0  0  0
   -4.5190   23.4930  -29.6930 C   0  0  0  0  0  0  0  0  0  0  0  0
   -5.5130   24.6230  -29.7630 C   0  0  0  0  0  0  0  0  0  0  0  0
   -6.8400   24.1320  -30.1610 N   0  0  0  0  0  0  0  0  0  0  0  0
   -6.9260   23.8050  -31.5960 C   0  0  0  0  0  0  0  0  0  0  0  0
   -7.6300   22.4910  -31.8440 C   0  0  0  0  0  0  0  0  0  0  0  0
   -9.0100   22.3730  -31.6370 C   0  0  0  0  0  0  0  0  0  0  0  0
   -9.6410   21.1540  -31.8840 C   0  0  0  0  0  0  0  0  0  0  0  0
   -8.9190   20.0900  -32.3240 N   0  0  0  0  0  0  0  0  0  0  0  0
   -7.5760   20.1630  -32.5400 C   0  0  0  0  0  0  0  0  0  0  0  0
   -6.8680   18.9980  -33.0070 N   0  0  0  0  0  0  0  0  0  0  0  0
   -6.8650   17.7380  -32.2860 C   0  0  0  0  0  0  0  0  0  0  0  0
   -5.8770   16.8430  -33.0210 C   0  0  0  0  0  0  0  0  0  0  0  0
   -5.6720   17.4840  -34.3900 C   0  0  0  0  0  0  0  0  0  0  0  0
   -6.0900   18.9400  -34.2360 C   0  0  0  0  0  0  0  0  0  0  0  0
   -6.9070   21.3770  -32.2980 C   0  0  0  0  0  0  0  0  0  0  0  0
   -4.1440   22.9500  -28.4580 C   0  0  0  0  0  0  0  0  0  0  0  0
   -3.2320   21.8970  -28.4220 C   0  0  0  0  0  0  0  0  0  0  0  0
   -2.7090   21.3980  -29.5740 N   0  0  0  0  0  0  0  0  0  0  0  0
   -2.4745   18.9360  -32.9915 H   0  0  0  0  0  0  0  0  0  0  0  0
   -3.5600   19.1846  -34.4010 H   0  0  0  0  0  0  0  0  0  0  0  0
   -1.9107   19.8963  -34.4010 H   0  0  0  0  0  0  0  0  0  0  0  0
   -3.3572   21.7166  -33.8816 H   0  0  0  0  0  0  0  0  0  0  0  0
   -4.3392   20.7068  -32.7497 H   0  0  0  0  0  0  0  0  0  0  0  0
   -0.6052   21.0912  -31.0726 H   0  0  0  0  0  0  0  0  0  0  0  0
   -0.8113   20.2125  -32.6257 H   0  0  0  0  0  0  0  0  0  0  0  0
   -0.5758   21.9933  -32.6257 H   0  0  0  0  0  0  0  0  0  0  0  0
   -4.2391   23.3957  -31.8430 H   0  0  0  0  0  0  0  0  0  0  0  0
   -5.5871   25.0990  -28.7741 H   0  0  0  0  0  0  0  0  0  0  0  0
   -5.1674   25.3483  -30.5143 H   0  0  0  0  0  0  0  0  0  0  0  0
   -7.0620   23.2770  -29.5990 H   0  0  0  0  0  0  0  0  0  0  0  0
   -7.4800   24.6053  -32.1085 H   0  0  0  0  0  0  0  0  0  0  0  0
   -5.9001   23.7151  -31.9826 H   0  0  0  0  0  0  0  0  0  0  0  0
   -9.5924   23.2360  -31.2820 H   0  0  0  0  0  0  0  0  0  0  0  0
  -10.7244   21.0536  -31.7225 H   0  0  0  0  0  0  0  0  0  0  0  0
   -6.5418   17.8924  -31.2459 H   0  0  0  0  0  0  0  0  0  0  0  0
   -7.8687   17.2895  -32.2498 H   0  0  0  0  0  0  0  0  0  0  0  0
   -4.9238   16.7951  -32.4741 H   0  0  0  0  0  0  0  0  0  0  0  0
   -6.2528   15.8130  -33.1091 H   0  0  0  0  0  0  0  0  0  0  0  0
   -4.6153   17.4188  -34.6886 H   0  0  0  0  0  0  0  0  0  0  0  0
   -6.2613   16.9747  -35.1667 H   0  0  0  0  0  0  0  0  0  0  0  0
   -5.2040   19.5875  -34.1601 H   0  0  0  0  0  0  0  0  0  0  0  0
   -6.6716   19.2894  -35.1018 H   0  0  0  0  0  0  0  0  0  0  0  0
   -5.8222   21.4526  -32.4639 H   0  0  0  0  0  0  0  0  0  0  0  0
   -4.5656   23.3511  -27.5245 H   0  0  0  0  0  0  0  0  0  0  0  0
   -2.9330   21.4663  -27.4550 H   0  0  0  0  0  0  0  0  0  0  0  0
   -2.0450   20.5960  -29.5000 H   0  0  0  0  0  0  0  0  0  0  0  0
  1  2  1  0
  2  3  1  0
  3  4  1  0
  3  5  1  0
  5  6  2  0
  6  7  1  0
  7  8  1  0
  8  9  1  0
  9 10  1  0
 10 11  1  0
 11 12  2  0
 12 13  1  0
 13 14  2  0
 14 15  1  0
 15 16  1  0
 16 17  1  0
 17 18  1  0
 18 19  1  0
 19 20  1  0
 15 21  2  0
  7 22  2  0
 22 23  1  0
 23 24  2  0
 24  5  1  0
 21 11  1  0
 20 16  1  0
  1 25  1  0
  1 26  1  0
  1 27  1  0
  2 28  1  0
  2 29  1  0
  4 30  1  0
  4 31  1  0
  4 32  1  0
  6 33  1  0
  8 34  1  0
  8 35  1  0
  9 36  1  0
 10 37  1  0
 10 38  1  0
 12 39  1  0
 13 40  1  0
 17 41  1  0
 17 42  1  0
 18 43  1  0
 18 44  1  0
 19 45  1  0
 19 46  1  0
 20 47  1  0
 20 48  1  0
 21 49  1  0
 22 50  1  0
 23 51  1  0
 24 52  1  0
M  CHG  1  24   1
M  END
>  <UniqueID>  (13) 
13

>  <SMILES>  (13) 
CCN(C)c1cc(CNCc2ccnc(N3CCCC3)c2)cc[nH+]1

>  <Energy>  (13) 
51.79374179067105

>  <Genealogy>  (13) 
CCN(C)c1cc(CNCc2ccnc(N3CCCC3)c2)cc[nH+]1 (protonated)
CCN(C)c1cc(CNCc2ccnc(N3CCCC3)c2)cc[nH+]1 (3D coordinates assigned)
CCN(C)c1cc(CNCc2ccnc(N3CCCC3)c2)cc[nH+]1 (nonaromatic ring conformer: 51.79374179067105 kcal/mol)

>  <smiles>  (13) 
CCN(C)c1cc(CNCc2ccnc(N3CCCC3)c2)ccn1

>  <score_type>  (13) 
oracle

>  <origin>  (13) 
adg

>  <m_score__min__energy>  (13) 
-7.3799999999999999

>  <m_primary>  (13) 
energy

$$$$
13:0
     RDKit          3D

 50 52  0  0  0  0  0  0  0  0999 V2000
   -2.3500   24.2690  -29.2870 C   0  0  0  0  0  0  0  0  0  0  0  0
   -3.1920   24.9170  -30.2350 O   0  0  0  0  0  0  0  0  0  0  0  0
   -4.5530   24.6270  -30.4140 C   0  0  0  0  0  0  0  0  0  0  0  0
   -5.4820   25.2580  -29.5790 C   0  0  0  0  0  0  0  0  0  0  0  0
   -6.8470   25.0130  -29.7260 C   0  0  0  0  0  0  0  0  0  0  0  0
   -7.2990   24.1230  -30.7030 C   0  0  0  0  0  0  0  0  0  0  0  0
   -6.3840   23.4530  -31.5320 C   0  0  0  0  0  0  0  0  0  0  0  0
   -6.8760   22.5080  -32.6140 C   0  0  0  0  0  0  0  0  0  0  0  0
   -7.0900   21.1000  -32.1850 N   0  0  1  0  0  0  0  0  0  0  0  0
   -8.1860   20.9430  -31.2210 C   0  0  0  0  0  0  0  0  0  0  0  0
   -8.5520   19.4740  -31.2360 C   0  0  0  0  0  0  0  0  0  0  0  0
   -8.2470   19.0200  -32.6520 C   0  0  0  0  0  0  0  0  0  0  0  0
   -7.3570   20.1170  -33.2630 C   0  0  2  0  0  0  0  0  0  0  0  0
   -6.0610   19.5120  -33.8470 C   0  0  0  0  0  0  0  0  0  0  0  0
   -4.9050   20.3530  -33.5100 N   0  0  0  0  0  0  0  0  0  0  0  0
   -3.6390   19.6340  -33.6910 C   0  0  0  0  0  0  0  0  0  0  0  0
   -2.5390   20.3230  -32.9280 C   0  0  0  0  0  0  0  0  0  0  0  0
   -1.2480   20.4310  -33.4730 C   0  0  0  0  0  0  0  0  0  0  0  0
   -0.2250   21.0420  -32.7420 C   0  0  0  0  0  0  0  0  0  0  0  0
   -0.4810   21.5450  -31.4630 C   0  0  0  0  0  0  0  0  0  0  0  0
   -1.7610   21.4390  -30.9140 C   0  0  0  0  0  0  0  0  0  0  0  0
   -2.7880   20.8290  -31.6430 C   0  0  0  0  0  0  0  0  0  0  0  0
   -5.0120   23.7320  -31.4000 C   0  0  0  0  0  0  0  0  0  0  0  0
   -2.6804   24.5232  -28.2691 H   0  0  0  0  0  0  0  0  0  0  0  0
   -2.4074   23.1798  -29.4298 H   0  0  0  0  0  0  0  0  0  0  0  0
   -1.3118   24.6033  -29.4298 H   0  0  0  0  0  0  0  0  0  0  0  0
   -5.1329   25.9526  -28.8007 H   0  0  0  0  0  0  0  0  0  0  0  0
   -7.5694   25.5219  -29.0709 H   0  0  0  0  0  0  0  0  0  0  0  0
   -8.3779   23.9457  -30.8240 H   0  0  0  0  0  0  0  0  0  0  0  0
   -7.8328   22.8959  -32.9934 H   0  0  0  0  0  0  0  0  0  0  0  0
   -6.0793   22.4753  -33.3718 H   0  0  0  0  0  0  0  0  0  0  0  0
   -6.2170   20.8130  -31.6790 H   0  0  0  0  0  0  0  0  0  0  0  0
   -7.8561   21.2439  -30.2157 H   0  0  0  0  0  0  0  0  0  0  0  0
   -9.0472   21.5742  -31.4857 H   0  0  0  0  0  0  0  0  0  0  0  0
   -7.9446   18.9147  -30.5092 H   0  0  0  0  0  0  0  0  0  0  0  0
   -9.6026   19.3022  -30.9591 H   0  0  0  0  0  0  0  0  0  0  0  0
   -7.7141   18.0578  -32.6391 H   0  0  0  0  0  0  0  0  0  0  0  0
   -9.1672   18.8736  -33.2367 H   0  0  0  0  0  0  0  0  0  0  0  0
   -7.8555   20.6166  -34.1067 H   0  0  0  0  0  0  0  0  0  0  0  0
   -5.9108   18.5055  -33.4293 H   0  0  0  0  0  0  0  0  0  0  0  0
   -6.1549   19.4574  -34.9416 H   0  0  0  0  0  0  0  0  0  0  0  0
   -4.9060   21.1740  -34.1610 H   0  0  0  0  0  0  0  0  0  0  0  0
   -3.7492   18.6043  -33.3202 H   0  0  0  0  0  0  0  0  0  0  0  0
   -3.3819   19.6212  -34.7605 H   0  0  0  0  0  0  0  0  0  0  0  0
   -1.0420   20.0335  -34.4778 H   0  0  0  0  0  0  0  0  0  0  0  0
    0.7831   21.1271  -33.1739 H   0  0  0  0  0  0  0  0  0  0  0  0
    0.3257   22.0243  -30.8889 H   0  0  0  0  0  0  0  0  0  0  0  0
   -1.9619   21.8354  -29.9078 H   0  0  0  0  0  0  0  0  0  0  0  0
   -3.7945   20.7458  -31.2070 H   0  0  0  0  0  0  0  0  0  0  0  0
   -4.2902   23.2465  -32.0733 H   0  0  0  0  0  0  0  0  0  0  0  0
  1  2  1  0
  2  3  1  0
  3  4  2  0
  4  5  1  0
  5  6  2  0
  6  7  1  0
  7  8  1  0
  8  9  1  0
  9 10  1  0
 10 11  1  0
 11 12  1  0
 12 13  1  0
 13 14  1  0
 14 15  1  0
 15 16  1  0
 16 17  1  0
 17 18  2  0
 18 19  1  0
 19 20  2  0
 20 21  1  0
 21 22  2  0
  7 23  2  0
 23  3  1  0
 13  9  1  0
 22 17  1  0
  1 24  1  0
  1 25  1  0
  1 26  1  0
  4 27  1  0
  5 28  1  0
  6 29  1  0
  8 30  1  0
  8 31  1  0
  9 32  1  1
 10 33  1  0
 10 34  1  0
 11 35  1  0
 11 36  1  0
 12 37  1  0
 12 38  1  0
 13 39  1  6
 14 40  1  0
 14 41  1  0
 15 42  1  0
 16 43  1  0
 16 44  1  0
 18 45  1  0
 19 46  1  0
 20 47  1  0
 21 48  1  0
 22 49  1  0
 23 50  1  0
M  CHG  1   9   1
M  END
>  <UniqueID>  (14) 
14

>  <SMILES>  (14) 
COc1cccc(C[N@H+]2CCC[C@@H]2CNCc2ccccc2)c1

>  <Energy>  (14) 
55.69566062268891

>  <Genealogy>  (14) 
COc1cccc(C[NH+]2CCCC2CNCc2ccccc2)c1 (protonated)
COc1cccc(C[N@H+]2CCC[C@@H]2CNCc2ccccc2)c1 (chirality)
COc1cccc(C[N@H+]2CCC[C@@H]2CNCc2ccccc2)c1 (3D coordinates assigned)
COc1cccc(C[N@H+]2CCC[C@@H]2CNCc2ccccc2)c1 (nonaromatic ring conformer: 55.69566062268891 kcal/mol)

>  <smiles>  (14) 
COc1cccc(CN2CCCC2CNCc2ccccc2)c1

>  <score_type>  (14) 
oracle

>  <origin>  (14) 
adg

>  <m_score__min__energy>  (14) 
-7.3200000000000003

>  <m_primary>  (14) 
energy

$$$$
14:0
     RDKit          3D

 60 63  0  0  0  0  0  0  0  0999 V2000
    1.6140   25.7520  -35.9540 C   0  0  0  0  0  0  0  0  0  0  0  0
    0.5340   24.8870  -36.6040 C   0  0  0  0  0  0  0  0  0  0  0  0
   -0.7450   25.7120  -36.8280 C   0  0  0  0  0  0  0  0  0  0  0  0
    0.2810   23.7140  -35.7440 N   0  0  0  0  0  0  0  0  0  0  0  0
    1.0760   22.5390  -36.1330 C   0  0  0  0  0  0  0  0  0  0  0  0
    0.5280   21.2820  -35.4530 C   0  0  0  0  0  0  0  0  0  0  0  0
   -0.5170   21.6490  -34.4880 N   0  0  0  0  0  0  0  0  0  0  0  0
   -0.4680   20.8110  -33.2750 C   0  0  0  0  0  0  0  0  0  0  0  0
   -1.8450   20.2340  -32.8760 C   0  0  0  0  0  0  0  0  0  0  0  0
   -2.8710   20.3480  -33.9330 N   0  0  0  0  0  0  0  0  0  0  0  0
   -4.2210   20.3070  -33.3960 C   0  0  0  0  0  0  0  0  0  0  0  0
   -4.7120   21.4080  -32.6780 C   0  0  0  0  0  0  0  0  0  0  0  0
   -6.0020   21.4240  -32.1830 C   0  0  0  0  0  0  0  0  0  0  0  0
   -6.8990   20.4280  -32.4630 N   0  0  0  0  0  0  0  0  0  0  0  0
   -8.3370   20.6420  -32.2290 C   0  0  0  0  0  0  0  0  0  0  0  0
   -6.4300   19.2560  -33.0310 C   0  0  0  0  0  0  0  0  0  0  0  0
   -7.2500   18.1050  -33.1110 C   0  0  0  0  0  0  0  0  0  0  0  0
   -6.7950   16.9360  -33.7160 C   0  0  0  0  0  0  0  0  0  0  0  0
   -5.5130   16.8780  -34.2430 C   0  0  0  0  0  0  0  0  0  0  0  0
   -4.6620   17.9770  -34.1510 C   0  0  0  0  0  0  0  0  0  0  0  0
   -5.0860   19.1790  -33.5340 C   0  0  0  0  0  0  0  0  0  0  0  0
   -6.1760   22.6600  -31.4070 C   0  0  0  0  0  0  0  0  0  0  0  0
   -7.1930   23.0740  -30.5320 C   0  0  0  0  0  0  0  0  0  0  0  0
   -7.0400   24.2920  -29.8500 C   0  0  0  0  0  0  0  0  0  0  0  0
   -5.8700   25.0550  -30.0080 C   0  0  0  0  0  0  0  0  0  0  0  0
   -4.8340   24.5940  -30.8310 C   0  0  0  0  0  0  0  0  0  0  0  0
   -5.0040   23.3880  -31.5120 C   0  0  0  0  0  0  0  0  0  0  0  0
   -3.9760   22.6740  -32.3250 C   0  0  0  0  0  0  0  0  0  0  0  0
    1.5289   25.6838  -34.8594 H   0  0  0  0  0  0  0  0  0  0  0  0
    2.6066   25.3963  -36.2674 H   0  0  0  0  0  0  0  0  0  0  0  0
    1.4837   26.7983  -36.2674 H   0  0  0  0  0  0  0  0  0  0  0  0
    0.8728   24.5354  -37.5897 H   0  0  0  0  0  0  0  0  0  0  0  0
   -1.1767   25.9905  -35.8553 H   0  0  0  0  0  0  0  0  0  0  0  0
   -0.4996   26.6225  -37.3944 H   0  0  0  0  0  0  0  0  0  0  0  0
   -1.4732   25.1130  -37.3944 H   0  0  0  0  0  0  0  0  0  0  0  0
   -0.7360   23.4620  -35.7750 H   0  0  0  0  0  0  0  0  0  0  0  0
    1.0272   22.4123  -37.2246 H   0  0  0  0  0  0  0  0  0  0  0  0
    2.1192   22.6913  -35.8192 H   0  0  0  0  0  0  0  0  0  0  0  0
    0.1020   20.6121  -36.2144 H   0  0  0  0  0  0  0  0  0  0  0  0
    1.3460   20.7717  -34.9234 H   0  0  0  0  0  0  0  0  0  0  0  0
   -1.4480   21.5650  -34.9530 H   0  0  0  0  0  0  0  0  0  0  0  0
    0.2223   19.9740  -33.4563 H   0  0  0  0  0  0  0  0  0  0  0  0
   -0.1314   21.4534  -32.4480 H   0  0  0  0  0  0  0  0  0  0  0  0
   -1.7166   19.1693  -32.6313 H   0  0  0  0  0  0  0  0  0  0  0  0
   -2.2023   20.8241  -32.0192 H   0  0  0  0  0  0  0  0  0  0  0  0
   -2.7440   19.5350  -34.5800 H   0  0  0  0  0  0  0  0  0  0  0  0
   -2.7030   21.1710  -34.5460 H   0  0  0  0  0  0  0  0  0  0  0  0
   -8.5321   20.6710  -31.1468 H   0  0  0  0  0  0  0  0  0  0  0  0
   -8.6444   21.5958  -32.6827 H   0  0  0  0  0  0  0  0  0  0  0  0
   -8.9088   19.8191  -32.6827 H   0  0  0  0  0  0  0  0  0  0  0  0
   -8.2649   18.1344  -32.6877 H   0  0  0  0  0  0  0  0  0  0  0  0
   -7.4535   16.0569  -33.7761 H   0  0  0  0  0  0  0  0  0  0  0  0
   -5.1662   15.9582  -34.7367 H   0  0  0  0  0  0  0  0  0  0  0  0
   -3.6447   17.9101  -34.5641 H   0  0  0  0  0  0  0  0  0  0  0  0
   -8.0914   22.4568  -30.3837 H   0  0  0  0  0  0  0  0  0  0  0  0
   -7.8412   24.6515  -29.1876 H   0  0  0  0  0  0  0  0  0  0  0  0
   -5.7675   26.0167  -29.4840 H   0  0  0  0  0  0  0  0  0  0  0  0
   -3.9042   25.1719  -30.9383 H   0  0  0  0  0  0  0  0  0  0  0  0
   -3.7038   23.2464  -33.2240 H   0  0  0  0  0  0  0  0  0  0  0  0
   -3.0208   22.5114  -31.8043 H   0  0  0  0  0  0  0  0  0  0  0  0
  1  2  1  0
  2  3  1  0
  2  4  1  0
  4  5  1  0
  5  6  1  0
  6  7  1  0
  7  8  1  0
  8  9  1  0
  9 10  1  0
 10 11  1  0
 11 12  2  0
 12 13  1  0
 13 14  2  0
 14 15  1  0
 14 16  1  0
 16 17  2  0
 17 18  1  0
 18 19  2  0
 19 20  1  0
 20 21  2  0
 13 22  1  0
 22 23  2  0
 23 24  1  0
 24 25  2  0
 25 26  1  0
 26 27  2  0
 27 28  1  0
 21 11  1  0
 27 22  1  0
 28 12  1  0
 21 16  1  0
  1 29  1  0
  1 30  1  0
  1 31  1  0
  2 32  1  0
  3 33  1  0
  3 34  1  0
  3 35  1  0
  4 36  1  0
  5 37  1  0
  5 38  1  0
  6 39  1  0
  6 40  1  0
  7 41  1  0
  8 42  1  0
  8 43  1  0
  9 44  1  0
  9 45  1  0
 10 46  1  0
 10 47  1  0
 15 48  1  0
 15 49  1  0
 15 50  1  0
 17 51  1  0
 18 52  1  0
 19 53  1  0
 20 54  1  0
 23 55  1  0
 24 56  1  0
 25 57  1  0
 26 58  1  0
 28 59  1  0
 28 60  1  0
M  CHG  2  10   1  14   1
M  END
>  <UniqueID>  (15) 
15

>  <SMILES>  (15) 
CC(C)NCCNCC[NH2+]c1c2c([n+](C)c3ccccc13)-c1ccccc1C2

>  <Energy>  (15) 
102.44427457064282

>  <Genealogy>  (15) 
CC(C)NCCNCC[NH2+]c1c2c([n+](C)c3ccccc13)-c1ccccc1C2 (protonated)
CC(C)NCCNCC[NH2+]c1c2c([n+](C)c3ccccc13)-c1ccccc1C2 (3D coordinates assigned)
CC(C)NCCNCC[NH2+]c1c2c([n+](C)c3ccccc13)-c1ccccc1C2 (nonaromatic ring conformer: 102.44427457064282 kcal/mol)

>  <smiles>  (15) 
CC(C)NCCNCCNc1c2c([n+](C)c3ccccc13)-c1ccccc1C2

>  <score_type>  (15) 
oracle

>  <origin>  (15) 
adg

>  <m_score__min__energy>  (15) 
-9.2300000000000004

>  <m_primary>  (15) 
energy

$$$$
15:0
     RDKit          3D

 49 51  0  0  0  0  0  0  0  0999 V2000
   -3.8740   26.5440  -30.1990 H   0  0  0  0  0  0  0  0  0  0  0  0
   -4.1780   25.6720  -30.6120 O   0  0  0  0  0  0  0  0  0  0  0  0
   -3.5880   24.4340  -30.3440 C   0  0  0  0  0  0  0  0  0  0  0  0
   -4.0960   23.2260  -30.8740 C   0  0  0  0  0  0  0  0  0  0  0  0
   -3.5470   21.9890  -30.4540 C   0  0  0  0  0  0  0  0  0  0  0  0
   -2.3950   21.9740  -29.6250 C   0  0  0  0  0  0  0  0  0  0  0  0
   -1.7360   20.7720  -29.2800 C   0  0  0  0  0  0  0  0  0  0  0  0
   -2.1165   19.8139  -29.6637 H   0  0  0  0  0  0  0  0  0  0  0  0
   -0.6080   20.7870  -28.4580 C   0  0  0  0  0  0  0  0  0  0  0  0
   -0.1117   19.8420  -28.1921 H   0  0  0  0  0  0  0  0  0  0  0  0
   -0.1080   21.9930  -27.9730 C   0  0  0  0  0  0  0  0  0  0  0  0
    0.7749   21.9974  -27.3169 H   0  0  0  0  0  0  0  0  0  0  0  0
   -0.7250   23.1950  -28.3180 C   0  0  0  0  0  0  0  0  0  0  0  0
   -0.3205   24.1451  -27.9390 H   0  0  0  0  0  0  0  0  0  0  0  0
   -1.8620   23.2010  -29.1480 C   0  0  0  0  0  0  0  0  0  0  0  0
   -2.4730   24.4150  -29.5020 C   0  0  0  0  0  0  0  0  0  0  0  0
   -1.9780   25.6230  -29.0150 O   0  0  0  0  0  0  0  0  0  0  0  0
   -4.1970   20.7670  -30.8580 N   0  0  0  0  0  0  0  0  0  0  0  0
   -4.0850   19.8910  -30.3030 H   0  0  0  0  0  0  0  0  0  0  0  0
   -5.1320   20.7470  -31.9400 C   0  0  0  0  0  0  0  0  0  0  0  0
   -5.7130   19.6200  -32.2510 N   0  0  0  0  0  0  0  0  0  0  0  0
   -5.2270   18.2740  -31.9500 C   0  0  0  0  0  0  0  0  0  0  0  0
   -4.4077   18.3391  -31.2189 H   0  0  0  0  0  0  0  0  0  0  0  0
   -4.8671   17.8076  -32.8789 H   0  0  0  0  0  0  0  0  0  0  0  0
   -6.3570   17.4180  -31.3680 C   0  0  0  0  0  0  0  0  0  0  0  0
   -6.0343   17.0005  -30.4028 H   0  0  0  0  0  0  0  0  0  0  0  0
   -6.5882   16.6070  -32.0743 H   0  0  0  0  0  0  0  0  0  0  0  0
   -7.5660   18.2290  -31.1640 N   0  0  0  0  0  0  0  0  0  0  0  0
   -7.2890   19.1760  -30.8130 H   0  0  0  0  0  0  0  0  0  0  0  0
   -8.3610   18.3770  -32.3960 C   0  0  0  0  0  0  0  0  0  0  0  0
   -9.0999   17.5633  -32.4400 H   0  0  0  0  0  0  0  0  0  0  0  0
   -7.6686   18.3377  -33.2499 H   0  0  0  0  0  0  0  0  0  0  0  0
   -9.1040   19.7240  -32.4540 C   0  0  0  0  0  0  0  0  0  0  0  0
  -10.1511   19.5490  -32.7420 H   0  0  0  0  0  0  0  0  0  0  0  0
   -8.6134   20.3723  -33.1950 H   0  0  0  0  0  0  0  0  0  0  0  0
   -9.0670   20.3590  -31.1890 O   0  0  0  0  0  0  0  0  0  0  0  0
   -8.2710   21.5290  -31.2250 C   0  0  0  0  0  0  0  0  0  0  0  0
   -7.3326   21.3121  -31.7564 H   0  0  0  0  0  0  0  0  0  0  0  0
   -8.0582   21.8463  -30.1935 H   0  0  0  0  0  0  0  0  0  0  0  0
   -9.0070   22.6540  -31.9450 C   0  0  0  0  0  0  0  0  0  0  0  0
   -9.4520   23.3342  -31.2039 H   0  0  0  0  0  0  0  0  0  0  0  0
   -8.2983   23.2113  -32.5752 H   0  0  0  0  0  0  0  0  0  0  0  0
   -9.8015   22.2279  -32.5752 H   0  0  0  0  0  0  0  0  0  0  0  0
   -5.3140   22.0110  -32.7380 C   0  0  0  0  0  0  0  0  0  0  0  0
   -4.5008   22.0961  -33.4738 H   0  0  0  0  0  0  0  0  0  0  0  0
   -6.2851   21.9728  -33.2533 H   0  0  0  0  0  0  0  0  0  0  0  0
   -5.2880   23.2300  -31.8130 C   0  0  0  0  0  0  0  0  0  0  0  0
   -5.2469   24.1396  -32.4303 H   0  0  0  0  0  0  0  0  0  0  0  0
   -6.1979   23.1987  -31.1957 H   0  0  0  0  0  0  0  0  0  0  0  0
  1  2  1  0
  2  3  1  0
  3  4  2  0
  4  5  1  0
  5  6  2  0
  6  7  1  0
  7  8  1  0
  7  9  2  0
  9 10  1  0
  9 11  1  0
 11 12  1  0
 11 13  2  0
 13 14  1  0
 13 15  1  0
 15 16  2  0
 16 17  1  0
  5 18  1  0
 18 19  1  0
 18 20  1  0
 20 21  2  0
 21 22  1  0
 22 23  1  0
 22 24  1  0
 22 25  1  0
 25 26  1  0
 25 27  1  0
 25 28  1  0
 28 29  1  0
 28 30  1  0
 30 31  1  0
 30 32  1  0
 30 33  1  0
 33 34  1  0
 33 35  1  0
 33 36  1  0
 36 37  1  0
 37 38  1  0
 37 39  1  0
 37 40  1  0
 40 41  1  0
 40 42  1  0
 40 43  1  0
 20 44  1  0
 44 45  1  0
 44 46  1  0
 44 47  1  0
 47 48  1  0
 47 49  1  0
 16  3  1  0
 47  4  1  0
 15  6  1  0
M  CHG  1  17  -1
M  END
>  <UniqueID>  (16) 
16

>  <SMILES>  (16) 
CCOCCNCC/N=C1\CCc2c(O)c([O-])c3ccccc3c2N1

>  <Energy>  (16) 
59.82856299470721

>  <Genealogy>  (16) 
CCOCCNCCN=C1CCc2c(O)c([O-])c3ccccc3c2N1 (protonated)
CCOCCNCC/N=C1\CCc2c(O)c([O-])c3ccccc3c2N1 (cis-trans isomerization)
CCOCCNCC/N=C1\CCc2c(O)c([O-])c3ccccc3c2N1 (3D coordinates assigned)
CCOCCNCC/N=C1\CCc2c(O)c([O-])c3ccccc3c2N1 (nonaromatic ring conformer: 59.82856299470721 kcal/mol)

>  <smiles>  (16) 
CCOCCNCCN=C1CCc2c(O)c(O)c3ccccc3c2N1

>  <score_type>  (16) 
oracle

>  <origin>  (16) 
adg

>  <m_score__min__energy>  (16) 
-10.82

>  <m_primary>  (16) 
energy

$$$$
16:0
     RDKit          3D

 54 55  0  0  0  0  0  0  0  0999 V2000
   -6.3730   25.2840  -29.9520 C   0  0  0  0  0  0  0  0  0  0  0  0
   -5.7560   24.6760  -31.2020 C   0  0  0  0  0  0  0  0  0  0  0  0
   -4.4700   24.1850  -30.8890 O   0  0  0  0  0  0  0  0  0  0  0  0
   -4.1710   24.4720  -29.5400 C   0  0  0  0  0  0  0  0  0  0  0  0
   -4.0740   23.1680  -28.7530 C   0  0  0  0  0  0  0  0  0  0  0  0
   -3.3890   22.1920  -29.5180 O   0  0  0  0  0  0  0  0  0  0  0  0
   -2.0480   22.0730  -29.0930 C   0  0  0  0  0  0  0  0  0  0  0  0
   -1.2420   21.3630  -30.1700 C   0  0  0  0  0  0  0  0  0  0  0  0
   -2.1150   20.9210  -31.1890 O   0  0  0  0  0  0  0  0  0  0  0  0
   -1.8240   21.5710  -32.4120 C   0  0  0  0  0  0  0  0  0  0  0  0
   -3.1290   21.9220  -33.1410 C   0  0  0  0  0  0  0  0  0  0  0  0
   -4.3010   21.9080  -32.2470 N   0  0  0  0  0  0  0  0  0  0  0  0
   -5.1150   20.7210  -32.4350 C   0  0  0  0  0  0  0  0  0  0  0  0
   -4.4650   19.5210  -32.7410 C   0  0  0  0  0  0  0  0  0  0  0  0
   -5.1850   18.3530  -32.9370 C   0  0  0  0  0  0  0  0  0  0  0  0
   -6.5480   18.3340  -32.8480 N   0  0  0  0  0  0  0  0  0  0  0  0
   -7.2140   17.0370  -33.0890 C   0  0  0  0  0  0  0  0  0  0  0  0
   -6.4420   16.2180  -34.1200 C   0  0  0  0  0  0  0  0  0  0  0  0
   -7.2400   19.4840  -32.5100 C   0  0  0  0  0  0  0  0  0  0  0  0
   -8.6480   19.4810  -32.3520 C   0  0  0  0  0  0  0  0  0  0  0  0
   -9.3370   20.6440  -32.0170 C   0  0  0  0  0  0  0  0  0  0  0  0
   -8.6490   21.8340  -31.8270 C   0  0  0  0  0  0  0  0  0  0  0  0
   -7.2650   21.8740  -31.9660 C   0  0  0  0  0  0  0  0  0  0  0  0
   -6.5320   20.7120  -32.3040 C   0  0  0  0  0  0  0  0  0  0  0  0
   -5.9146   24.8323  -29.0599 H   0  0  0  0  0  0  0  0  0  0  0  0
   -6.1949   26.3695  -29.9460 H   0  0  0  0  0  0  0  0  0  0  0  0
   -7.4557   25.0900  -29.9460 H   0  0  0  0  0  0  0  0  0  0  0  0
   -6.3883   23.8506  -31.5611 H   0  0  0  0  0  0  0  0  0  0  0  0
   -5.6797   25.4415  -31.9882 H   0  0  0  0  0  0  0  0  0  0  0  0
   -3.2117   25.0073  -29.4827 H   0  0  0  0  0  0  0  0  0  0  0  0
   -4.9668   25.1001  -29.1132 H   0  0  0  0  0  0  0  0  0  0  0  0
   -3.5261   23.3475  -27.8162 H   0  0  0  0  0  0  0  0  0  0  0  0
   -5.0877   22.8051  -28.5277 H   0  0  0  0  0  0  0  0  0  0  0  0
   -1.6272   23.0743  -28.9189 H   0  0  0  0  0  0  0  0  0  0  0  0
   -2.0069   21.4935  -28.1589 H   0  0  0  0  0  0  0  0  0  0  0  0
   -0.5031   22.0583  -30.5948 H   0  0  0  0  0  0  0  0  0  0  0  0
   -0.7194   20.5001  -29.7315 H   0  0  0  0  0  0  0  0  0  0  0  0
   -1.2599   22.4934  -32.2096 H   0  0  0  0  0  0  0  0  0  0  0  0
   -1.2249   20.9000  -33.0450 H   0  0  0  0  0  0  0  0  0  0  0  0
   -3.0299   22.9276  -33.5757 H   0  0  0  0  0  0  0  0  0  0  0  0
   -3.2927   21.1585  -33.9158 H   0  0  0  0  0  0  0  0  0  0  0  0
   -4.8870   22.7440  -32.4850 H   0  0  0  0  0  0  0  0  0  0  0  0
   -4.0170   22.0630  -31.2570 H   0  0  0  0  0  0  0  0  0  0  0  0
   -3.3685   19.5040  -32.8272 H   0  0  0  0  0  0  0  0  0  0  0  0
   -4.6476   17.4217  -33.1691 H   0  0  0  0  0  0  0  0  0  0  0  0
   -7.2629   16.4751  -32.1446 H   0  0  0  0  0  0  0  0  0  0  0  0
   -8.2272   17.2255  -33.4736 H   0  0  0  0  0  0  0  0  0  0  0  0
   -5.7760   15.5115  -33.6029 H   0  0  0  0  0  0  0  0  0  0  0  0
   -7.1504   15.6601  -34.7500 H   0  0  0  0  0  0  0  0  0  0  0  0
   -5.8432   16.8922  -34.7500 H   0  0  0  0  0  0  0  0  0  0  0  0
   -9.2063   18.5443  -32.4964 H   0  0  0  0  0  0  0  0  0  0  0  0
  -10.4308   20.6192  -31.9026 H   0  0  0  0  0  0  0  0  0  0  0  0
   -9.1999   22.7495  -31.5654 H   0  0  0  0  0  0  0  0  0  0  0  0
   -6.7325   22.8239  -31.8107 H   0  0  0  0  0  0  0  0  0  0  0  0
  1  2  1  0
  2  3  1  0
  3  4  1  0
  4  5  1  0
  5  6  1  0
  6  7  1  0
  7  8  1  0
  8  9  1  0
  9 10  1  0
 10 11  1  0
 11 12  1  0
 12 13  1  0
 13 14  2  0
 14 15  1  0
 15 16  2  0
 16 17  1  0
 17 18  1  0
 16 19  1  0
 19 20  2  0
 20 21  1  0
 21 22  2  0
 22 23  1  0
 23 24  2  0
 24 13  1  0
 24 19  1  0
  1 25  1  0
  1 26  1  0
  1 27  1  0
  2 28  1  0
  2 29  1  0
  4 30  1  0
  4 31  1  0
  5 32  1  0
  5 33  1  0
  7 34  1  0
  7 35  1  0
  8 36  1  0
  8 37  1  0
 10 38  1  0
 10 39  1  0
 11 40  1  0
 11 41  1  0
 12 42  1  0
 12 43  1  0
 14 44  1  0
 15 45  1  0
 17 46  1  0
 17 47  1  0
 18 48  1  0
 18 49  1  0
 18 50  1  0
 20 51  1  0
 21 52  1  0
 22 53  1  0
 23 54  1  0
M  CHG  2  12   1  16   1
M  END
>  <UniqueID>  (17) 
17

>  <SMILES>  (17) 
CCOCCOCCOCC[NH2+]c1cc[n+](CC)c2ccccc12

>  <Energy>  (17) 
60.76991708456162

>  <Genealogy>  (17) 
CCOCCOCCOCC[NH2+]c1cc[n+](CC)c2ccccc12 (protonated)
CCOCCOCCOCC[NH2+]c1cc[n+](CC)c2ccccc12 (3D coordinates assigned)
CCOCCOCCOCC[NH2+]c1cc[n+](CC)c2ccccc12 (optimized conformer: 60.76991708456162 kcal/mol)

>  <smiles>  (17) 
CCOCCOCCOCCNc1cc[n+](CC)c2ccccc12

>  <score_type>  (17) 
oracle

>  <origin>  (17) 
adg

>  <m_score__min__energy>  (17) 
-7.2699999999999996

>  <m_primary>  (17) 
energy

$$$$
17:0
     RDKit          3D

 55 58  0  0  0  0  0  0  0  0999 V2000
   -6.6270   25.3020  -29.7210 C   0  0  0  0  0  0  0  0  0  0  0  0
   -5.1910   25.3070  -30.2190 C   0  0  0  0  0  0  0  0  0  0  0  0
   -4.3440   24.7190  -29.2350 O   0  0  0  0  0  0  0  0  0  0  0  0
   -3.2300   23.9520  -29.5860 C   0  0  0  0  0  0  0  0  0  0  0  0
   -1.9670   24.1530  -28.9890 C   0  0  0  0  0  0  0  0  0  0  0  0
   -1.7930   25.1030  -27.9230 N   0  0  0  0  0  0  0  0  0  0  0  0
   -2.7170   25.1060  -26.7810 C   0  0  0  0  0  0  0  0  0  0  0  0
   -1.9410   25.3660  -25.4870 C   0  0  0  0  0  0  0  0  0  0  0  0
   -1.1140   26.6700  -25.5430 C   0  0  0  0  0  0  0  0  0  0  0  0
   -0.8670   27.1910  -26.9710 C   0  0  0  0  0  0  0  0  0  0  0  0
   -0.6680   26.0470  -27.9710 C   0  0  0  0  0  0  0  0  0  0  0  0
   -0.8790   23.3510  -29.3900 C   0  0  0  0  0  0  0  0  0  0  0  0
   -1.0350   22.3630  -30.3720 C   0  0  0  0  0  0  0  0  0  0  0  0
   -2.2880   22.1840  -30.9910 C   0  0  0  0  0  0  0  0  0  0  0  0
   -3.3560   22.9500  -30.5470 C   0  0  0  0  0  0  0  0  0  0  0  0
   -4.7500   22.4410  -31.2980 S   0  0  0  0  0  0  0  0  0  0  0  0
   -4.0340   21.2080  -32.2070 C   0  0  0  0  0  0  0  0  0  0  0  0
   -4.8290   20.3840  -32.9990 C   0  0  0  0  0  0  0  0  0  0  0  0
   -4.5180   19.1360  -33.5960 C   0  0  0  0  0  0  0  0  0  0  0  0
   -5.5080   18.3840  -34.0940 N   0  0  0  0  0  0  0  0  0  0  0  0
   -6.8410   18.3010  -33.4550 C   0  0  0  0  0  0  0  0  0  0  0  0
   -5.3460   17.5710  -35.3200 C   0  0  0  0  0  0  0  0  0  0  0  0
   -3.1800   18.6700  -33.6830 C   0  0  0  0  0  0  0  0  0  0  0  0
   -1.9750   19.3280  -33.4430 C   0  0  0  0  0  0  0  0  0  0  0  0
   -1.7030   20.5160  -32.7640 C   0  0  0  0  0  0  0  0  0  0  0  0
   -0.3690   21.0350  -32.9060 N   0  0  0  0  0  0  0  0  0  0  0  0
   -0.0760   21.7380  -33.8940 O   0  0  0  0  0  0  0  0  0  0  0  0
    0.6340   20.6240  -32.0560 O   0  0  0  0  0  0  0  0  0  0  0  0
   -2.6440   21.2280  -31.9940 C   0  0  0  0  0  0  0  0  0  0  0  0
   -6.6336   25.3020  -28.6210 H   0  0  0  0  0  0  0  0  0  0  0  0
   -7.1465   26.1983  -30.0908 H   0  0  0  0  0  0  0  0  0  0  0  0
   -7.1402   24.4021  -30.0908 H   0  0  0  0  0  0  0  0  0  0  0  0
   -5.1248   24.7288  -31.1524 H   0  0  0  0  0  0  0  0  0  0  0  0
   -4.8716   26.3429  -30.4055 H   0  0  0  0  0  0  0  0  0  0  0  0
   -3.4685   25.8969  -26.9214 H   0  0  0  0  0  0  0  0  0  0  0  0
   -3.2162   24.1280  -26.7150 H   0  0  0  0  0  0  0  0  0  0  0  0
   -2.6570   25.4382  -24.6551 H   0  0  0  0  0  0  0  0  0  0  0  0
   -1.2386   24.5313  -25.3459 H   0  0  0  0  0  0  0  0  0  0  0  0
   -1.6524   27.4462  -24.9794 H   0  0  0  0  0  0  0  0  0  0  0  0
   -0.1283   26.4420  -25.1112 H   0  0  0  0  0  0  0  0  0  0  0  0
   -1.7336   27.7912  -27.2853 H   0  0  0  0  0  0  0  0  0  0  0  0
    0.0515   27.7962  -26.9586 H   0  0  0  0  0  0  0  0  0  0  0  0
   -0.5926   26.4653  -28.9856 H   0  0  0  0  0  0  0  0  0  0  0  0
    0.2534   25.5073  -27.7068 H   0  0  0  0  0  0  0  0  0  0  0  0
    0.1065   23.5028  -28.9255 H   0  0  0  0  0  0  0  0  0  0  0  0
   -0.1823   21.7298  -30.6583 H   0  0  0  0  0  0  0  0  0  0  0  0
   -5.8468   20.7552  -33.1894 H   0  0  0  0  0  0  0  0  0  0  0  0
   -6.7244   18.3083  -32.3612 H   0  0  0  0  0  0  0  0  0  0  0  0
   -7.4503   19.1629  -33.7645 H   0  0  0  0  0  0  0  0  0  0  0  0
   -7.3387   17.3701  -33.7645 H   0  0  0  0  0  0  0  0  0  0  0  0
   -5.1380   16.5270  -35.0428 H   0  0  0  0  0  0  0  0  0  0  0  0
   -6.2706   17.6153  -35.9142 H   0  0  0  0  0  0  0  0  0  0  0  0
   -4.5090   17.9664  -35.9142 H   0  0  0  0  0  0  0  0  0  0  0  0
   -3.0775   17.6186  -33.9897 H   0  0  0  0  0  0  0  0  0  0  0  0
   -1.0891   18.8260  -33.8591 H   0  0  0  0  0  0  0  0  0  0  0  0
  1  2  1  0
  2  3  1  0
  3  4  1  0
  4  5  2  0
  5  6  1  0
  6  7  1  0
  7  8  1  0
  8  9  1  0
  9 10  1  0
 10 11  1  0
  5 12  1  0
 12 13  2  0
 13 14  1  0
 14 15  2  0
 15 16  1  0
 16 17  1  0
 17 18  2  0
 18 19  1  0
 19 20  2  3
 20 21  1  0
 20 22  1  0
 19 23  1  0
 23 24  2  0
 24 25  1  0
 25 26  1  0
 26 27  2  0
 26 28  1  0
 25 29  2  0
 15  4  1  0
 29 17  1  0
 11  6  1  0
 29 14  1  0
  1 30  1  0
  1 31  1  0
  1 32  1  0
  2 33  1  0
  2 34  1  0
  7 35  1  0
  7 36  1  0
  8 37  1  0
  8 38  1  0
  9 39  1  0
  9 40  1  0
 10 41  1  0
 10 42  1  0
 11 43  1  0
 11 44  1  0
 12 45  1  0
 13 46  1  0
 18 47  1  0
 21 48  1  0
 21 49  1  0
 21 50  1  0
 22 51  1  0
 22 52  1  0
 22 53  1  0
 23 54  1  0
 24 55  1  0
M  CHG  3  20   1  26   1  28  -1
M  END
>  <UniqueID>  (18) 
18

>  <SMILES>  (18) 
CCOc1c(N2CCCCC2)ccc2c1sc1cc(=[N+](C)C)ccc([N+](=O)[O-])c12

>  <Energy>  (18) 
144.34142569174492

>  <Genealogy>  (18) 
CCOc1c(N2CCCCC2)ccc2c1sc1cc(=[N+](C)C)ccc([N+](=O)[O-])c12 (3D coordinates assigned)
CCOc1c(N2CCCCC2)ccc2c1sc1cc(=[N+](C)C)ccc([N+](=O)[O-])c12 (nonaromatic ring conformer: 144.34142569174492 kcal/mol)

>  <smiles>  (18) 
CCOc1c(N2CCCCC2)ccc2c1sc1cc(=[N+](C)C)ccc([N+](=O)[O-])c12

>  <score_type>  (18) 
oracle

>  <origin>  (18) 
adg

>  <m_score__min__energy>  (18) 
-7.7199999999999998

>  <m_primary>  (18) 
energy

$$$$
18:0
     RDKit          3D

 44 46  0  0  0  0  0  0  0  0999 V2000
   -5.0000   15.6530  -31.9690 C   0  0  0  0  0  0  0  0  0  0  0  0
   -5.3680   14.9820  -33.2850 C   0  0  0  0  0  0  0  0  0  0  0  0
   -6.1600   15.8610  -34.0740 O   0  0  0  0  0  0  0  0  0  0  0  0
   -6.4320   17.1970  -33.7520 C   0  0  0  0  0  0  0  0  0  0  0  0
   -7.5990   17.5820  -33.0680 C   0  0  0  0  0  0  0  0  0  0  0  0
   -7.8080   18.9170  -32.7060 C   0  0  0  0  0  0  0  0  0  0  0  0
   -6.8520   19.8770  -33.0460 C   0  0  0  0  0  0  0  0  0  0  0  0
   -5.7120   19.5070  -33.7690 C   0  0  0  0  0  0  0  0  0  0  0  0
   -5.5000   18.1730  -34.1150 C   0  0  0  0  0  0  0  0  0  0  0  0
   -4.0330   17.7240  -34.9690 Cl  0  0  0  0  0  0  0  0  0  0  0  0
   -7.0430   21.2820  -32.5530 C   0  0  0  0  0  0  0  0  0  0  0  0
   -7.6190   21.2460  -31.1940 N   0  0  1  0  0  0  0  0  0  0  0  0
   -7.6300   22.5940  -30.5830 C   0  0  0  0  0  0  0  0  0  0  0  0
   -6.9150   23.6300  -31.4670 C   0  0  0  0  0  0  0  0  0  0  0  0
   -5.5330   23.8020  -31.0340 N   0  0  0  0  0  0  0  0  0  0  0  0
   -4.5400   22.7460  -30.9430 C   0  0  0  0  0  0  0  0  0  0  0  0
   -3.2190   23.4520  -30.5560 C   0  0  0  0  0  0  0  0  0  0  0  0
   -3.5210   24.8730  -30.4590 N   0  0  0  0  0  0  0  0  0  0  0  0
   -4.8860   25.0230  -30.7620 C   0  0  0  0  0  0  0  0  0  0  0  0
   -5.4580   26.1370  -30.8030 O   0  0  0  0  0  0  0  0  0  0  0  0
   -8.9900   20.6900  -31.2520 C   0  0  0  0  0  0  0  0  0  0  0  0
   -9.0780   19.3260  -31.9920 C   0  0  0  0  0  0  0  0  0  0  0  0
   -5.3425   15.0285  -31.1307 H   0  0  0  0  0  0  0  0  0  0  0  0
   -3.9083   15.7758  -31.9127 H   0  0  0  0  0  0  0  0  0  0  0  0
   -5.4833   16.6395  -31.9127 H   0  0  0  0  0  0  0  0  0  0  0  0
   -4.4492   14.7278  -33.8338 H   0  0  0  0  0  0  0  0  0  0  0  0
   -5.9425   14.0676  -33.0759 H   0  0  0  0  0  0  0  0  0  0  0  0
   -8.3558   16.8250  -32.8149 H   0  0  0  0  0  0  0  0  0  0  0  0
   -4.9798   20.2724  -34.0657 H   0  0  0  0  0  0  0  0  0  0  0  0
   -6.0719   21.7980  -32.5274 H   0  0  0  0  0  0  0  0  0  0  0  0
   -7.7235   21.8212  -33.2284 H   0  0  0  0  0  0  0  0  0  0  0  0
   -7.0500   20.6090  -30.5910 H   0  0  0  0  0  0  0  0  0  0  0  0
   -8.6735   22.9101  -30.4377 H   0  0  0  0  0  0  0  0  0  0  0  0
   -7.0955   22.5378  -29.6232 H   0  0  0  0  0  0  0  0  0  0  0  0
   -6.9271   23.2850  -32.5114 H   0  0  0  0  0  0  0  0  0  0  0  0
   -7.4381   24.5938  -31.3806 H   0  0  0  0  0  0  0  0  0  0  0  0
   -4.8255   22.0154  -30.1718 H   0  0  0  0  0  0  0  0  0  0  0  0
   -4.4449   22.1931  -31.8892 H   0  0  0  0  0  0  0  0  0  0  0  0
   -2.8556   23.0741  -29.5890 H   0  0  0  0  0  0  0  0  0  0  0  0
   -2.4340   23.2629  -31.3030 H   0  0  0  0  0  0  0  0  0  0  0  0
   -9.3527   20.5512  -30.2228 H   0  0  0  0  0  0  0  0  0  0  0  0
   -9.6040   21.4048  -31.8194 H   0  0  0  0  0  0  0  0  0  0  0  0
   -9.3221   18.5490  -31.2526 H   0  0  0  0  0  0  0  0  0  0  0  0
   -9.8503   19.4395  -32.7671 H   0  0  0  0  0  0  0  0  0  0  0  0
  1  2  1  0
  2  3  1  0
  3  4  1  0
  4  5  2  0
  5  6  1  0
  6  7  2  0
  7  8  1  0
  8  9  2  0
  9 10  1  0
  7 11  1  0
 11 12  1  0
 12 13  1  0
 13 14  1  0
 14 15  1  0
 15 16  1  0
 16 17  1  0
 17 18  1  0
 18 19  1  0
 19 20  2  0
 12 21  1  0
 21 22  1  0
  9  4  1  0
 19 15  1  0
 22  6  1  0
  1 23  1  0
  1 24  1  0
  1 25  1  0
  2 26  1  0
  2 27  1  0
  5 28  1  0
  8 29  1  0
 11 30  1  0
 11 31  1  0
 12 32  1  1
 13 33  1  0
 13 34  1  0
 14 35  1  0
 14 36  1  0
 16 37  1  0
 16 38  1  0
 17 39  1  0
 17 40  1  0
 21 41  1  0
 21 42  1  0
 22 43  1  0
 22 44  1  0
M  CHG  2  12   1  18  -1
M  END
>  <UniqueID>  (19) 
19

>  <SMILES>  (19) 
CCOc1cc2c(cc1Cl)C[N@@H+](CCN1CC[N-]C1=O)CC2

>  <Energy>  (19) 
61.41560229834967

>  <Genealogy>  (19) 
CCOc1cc2c(cc1Cl)C[NH+](CCN1CC[N-]C1=O)CC2 (protonated)
CCOc1cc2c(cc1Cl)C[N@@H+](CCN1CC[N-]C1=O)CC2 (chirality)
CCOc1cc2c(cc1Cl)C[N@@H+](CCN1CC[N-]C1=O)CC2 (3D coordinates assigned)
CCOc1cc2c(cc1Cl)C[N@@H+](CCN1CC[N-]C1=O)CC2 (nonaromatic ring conformer: 61.41560229834967 kcal/mol)

>  <smiles>  (19) 
CCOc1cc2c(cc1Cl)CN(CCN1CCNC1=O)CC2

>  <score_type>  (19) 
oracle

>  <origin>  (19) 
adg

>  <m_score__min__energy>  (19) 
-8.4800000000000004

>  <m_primary>  (19) 
energy

$$$$
19:0
     RDKit          3D

 54 58  0  0  0  0  0  0  0  0999 V2000
   -7.5750   18.2590  -31.5780 C   0  0  0  0  0  0  0  0  0  0  0  0
   -8.8330   18.7000  -32.3320 C   0  0  0  0  0  0  0  0  0  0  0  0
   -8.7110   20.0650  -32.8720 N   0  0  0  0  0  0  0  0  0  0  0  0
   -9.6700   21.0040  -32.2700 C   0  0  0  0  0  0  0  0  0  0  0  0
   -8.9220   22.2040  -31.6690 C   0  0  0  0  0  0  0  0  0  0  0  0
   -7.4140   21.9420  -31.5080 C   0  0  0  0  0  0  0  0  0  0  0  0
   -6.6710   21.9500  -32.7850 N   0  0  0  0  0  0  0  0  0  0  0  0
   -5.3430   21.3700  -32.6540 C   0  0  0  0  0  0  0  0  0  0  0  0
   -4.3690   22.0240  -31.8830 C   0  0  0  0  0  0  0  0  0  0  0  0
   -3.0940   21.5050  -31.7300 C   0  0  0  0  0  0  0  0  0  0  0  0
   -2.6780   20.4010  -32.4250 N   0  0  0  0  0  0  0  0  0  0  0  0
   -1.2410   20.0870  -32.5110 C   0  0  0  0  0  0  0  0  0  0  0  0
   -3.6230   19.6440  -33.0940 C   0  0  0  0  0  0  0  0  0  0  0  0
   -3.2960   18.3710  -33.6230 C   0  0  0  0  0  0  0  0  0  0  0  0
   -4.2290   17.6250  -34.3370 C   0  0  0  0  0  0  0  0  0  0  0  0
   -5.5110   18.1160  -34.5350 C   0  0  0  0  0  0  0  0  0  0  0  0
   -5.8830   19.3460  -34.0000 C   0  0  0  0  0  0  0  0  0  0  0  0
   -4.9690   20.1270  -33.2510 C   0  0  0  0  0  0  0  0  0  0  0  0
   -2.3380   22.3790  -30.7980 C   0  0  0  0  0  0  0  0  0  0  0  0
   -1.0970   22.2070  -30.1500 C   0  0  0  0  0  0  0  0  0  0  0  0
   -0.7180   23.2080  -29.2480 C   0  0  0  0  0  0  0  0  0  0  0  0
   -1.5150   24.2810  -28.9690 C   0  0  0  0  0  0  0  0  0  0  0  0
   -2.7730   24.4490  -29.5530 C   0  0  0  0  0  0  0  0  0  0  0  0
   -3.1630   23.4590  -30.4680 C   0  0  0  0  0  0  0  0  0  0  0  0
   -4.4420   23.2820  -31.1280 C   0  0  0  0  0  0  0  0  0  0  0  0
   -5.4240   24.0670  -31.0430 O   0  0  0  0  0  0  0  0  0  0  0  0
   -0.8890   25.0860  -28.0360 O   0  0  0  0  0  0  0  0  0  0  0  0
    0.3740   24.4870  -27.7090 C   0  0  0  0  0  0  0  0  0  0  0  0
    0.4390   23.2920  -28.4990 O   0  0  0  0  0  0  0  0  0  0  0  0
   -7.7557   18.3223  -30.4948 H   0  0  0  0  0  0  0  0  0  0  0  0
   -7.3300   17.2214  -31.8488 H   0  0  0  0  0  0  0  0  0  0  0  0
   -6.7358   18.9165  -31.8488 H   0  0  0  0  0  0  0  0  0  0  0  0
   -9.0080   18.0040  -33.1657 H   0  0  0  0  0  0  0  0  0  0  0  0
   -9.6718   18.6932  -31.6204 H   0  0  0  0  0  0  0  0  0  0  0  0
   -8.8490   20.0470  -33.9100 H   0  0  0  0  0  0  0  0  0  0  0  0
  -10.3669   21.3591  -33.0435 H   0  0  0  0  0  0  0  0  0  0  0  0
  -10.2280   20.4899  -31.4735 H   0  0  0  0  0  0  0  0  0  0  0  0
   -9.0600   23.0721  -32.3303 H   0  0  0  0  0  0  0  0  0  0  0  0
   -9.3369   22.3869  -30.6668 H   0  0  0  0  0  0  0  0  0  0  0  0
   -6.9934   22.7221  -30.8564 H   0  0  0  0  0  0  0  0  0  0  0  0
   -7.3063   20.9347  -31.0793 H   0  0  0  0  0  0  0  0  0  0  0  0
   -6.5630   22.9430  -33.0940 H   0  0  0  0  0  0  0  0  0  0  0  0
   -7.2280   21.5220  -33.5530 H   0  0  0  0  0  0  0  0  0  0  0  0
   -0.8243   19.9959  -31.4971 H   0  0  0  0  0  0  0  0  0  0  0  0
   -1.1047   19.1379  -33.0501 H   0  0  0  0  0  0  0  0  0  0  0  0
   -0.7212   20.8928  -33.0501 H   0  0  0  0  0  0  0  0  0  0  0  0
   -2.2858   17.9647  -33.4664 H   0  0  0  0  0  0  0  0  0  0  0  0
   -3.9489   16.6429  -34.7456 H   0  0  0  0  0  0  0  0  0  0  0  0
   -6.2374   17.5305  -35.1177 H   0  0  0  0  0  0  0  0  0  0  0  0
   -6.9054   19.7183  -34.1618 H   0  0  0  0  0  0  0  0  0  0  0  0
   -0.4599   21.3314  -30.3435 H   0  0  0  0  0  0  0  0  0  0  0  0
   -3.4189   25.3057  -29.3102 H   0  0  0  0  0  0  0  0  0  0  0  0
    1.2008   25.1652  -27.9666 H   0  0  0  0  0  0  0  0  0  0  0  0
    0.4619   24.2741  -26.6334 H   0  0  0  0  0  0  0  0  0  0  0  0
  1  2  1  0
  2  3  1  0
  3  4  1  0
  4  5  1  0
  5  6  1  0
  6  7  1  0
  7  8  1  0
  8  9  2  0
  9 10  1  0
 10 11  2  0
 11 12  1  0
 11 13  1  0
 13 14  2  0
 14 15  1  0
 15 16  2  0
 16 17  1  0
 17 18  2  0
 10 19  1  0
 19 20  2  0
 20 21  1  0
 21 22  2  0
 22 23  1  0
 23 24  2  0
 24 25  1  0
 25 26  2  0
 22 27  1  0
 27 28  1  0
 28 29  1  0
 18  8  1  0
 24 19  1  0
 25  9  1  0
 18 13  1  0
 29 21  1  0
  1 30  1  0
  1 31  1  0
  1 32  1  0
  2 33  1  0
  2 34  1  0
  3 35  1  0
  4 36  1  0
  4 37  1  0
  5 38  1  0
  5 39  1  0
  6 40  1  0
  6 41  1  0
  7 42  1  0
  7 43  1  0
 12 44  1  0
 12 45  1  0
 12 46  1  0
 14 47  1  0
 15 48  1  0
 16 49  1  0
 17 50  1  0
 20 51  1  0
 23 52  1  0
 28 53  1  0
 28 54  1  0
M  CHG  2   7   1  11   1
M  END
>  <UniqueID>  (20) 
20

>  <SMILES>  (20) 
CCNCCC[NH2+]c1c2c([n+](C)c3ccccc13)-c1cc3c(cc1C2=O)OCO3

>  <Energy>  (20) 
138.84467412238556

>  <Genealogy>  (20) 
CCNCCC[NH2+]c1c2c([n+](C)c3ccccc13)-c1cc3c(cc1C2=O)OCO3 (protonated)
CCNCCC[NH2+]c1c2c([n+](C)c3ccccc13)-c1cc3c(cc1C2=O)OCO3 (3D coordinates assigned)
CCNCCC[NH2+]c1c2c([n+](C)c3ccccc13)-c1cc3c(cc1C2=O)OCO3 (nonaromatic ring conformer: 138.84467412238556 kcal/mol)

>  <smiles>  (20) 
CCNCCCNc1c2c([n+](C)c3ccccc13)-c1cc3c(cc1C2=O)OCO3

>  <score_type>  (20) 
oracle

>  <origin>  (20) 
adg

>  <m_score__min__energy>  (20) 
-8.8900000000000006

>  <m_primary>  (20) 
energy

$$$$
20:0
     RDKit          3D

 74 76  0  0  0  0  0  0  0  0999 V2000
   -6.5850   25.6690  -29.4270 C   0  0  0  0  0  0  0  0  0  0  0  0
   -5.4120   25.4150  -30.3700 C   0  0  0  0  0  0  0  0  0  0  0  0
   -4.7160   24.0840  -30.0530 C   0  0  0  0  0  0  0  0  0  0  0  0
   -3.2450   24.1980  -30.1770 N   0  0  0  0  0  0  0  0  0  0  0  0
   -2.6040   24.5120  -28.8770 C   0  0  0  0  0  0  0  0  0  0  0  0
   -3.1940   23.7310  -27.6750 C   0  0  0  0  0  0  0  0  0  0  0  0
   -4.0300   24.6160  -26.7490 C   0  0  0  0  0  0  0  0  0  0  0  0
   -2.6100   23.0420  -30.8600 C   0  0  0  0  0  0  0  0  0  0  0  0
   -3.6230   21.9110  -31.0620 C   0  0  0  0  0  0  0  0  0  0  0  0
   -4.2700   22.0040  -32.3680 N   0  0  0  0  0  0  0  0  0  0  0  0
   -5.3340   21.1030  -32.6940 C   0  0  0  0  0  0  0  0  0  0  0  0
   -6.6490   21.4830  -32.3730 C   0  0  0  0  0  0  0  0  0  0  0  0
   -6.9510   22.8150  -32.0120 C   0  0  0  0  0  0  0  0  0  0  0  0
   -8.2580   23.1960  -31.7180 C   0  0  0  0  0  0  0  0  0  0  0  0
   -9.2860   22.2630  -31.7900 C   0  0  0  0  0  0  0  0  0  0  0  0
   -9.0080   20.9400  -32.1310 C   0  0  0  0  0  0  0  0  0  0  0  0
   -7.6800   20.5160  -32.3980 C   0  0  0  0  0  0  0  0  0  0  0  0
   -7.3760   19.1990  -32.6700 N   0  0  0  0  0  0  0  0  0  0  0  0
   -8.3590   18.1410  -32.3510 C   0  0  0  0  0  0  0  0  0  0  0  0
   -6.1500   18.8690  -33.2210 C   0  0  0  0  0  0  0  0  0  0  0  0
   -5.9330   17.5850  -33.7730 C   0  0  0  0  0  0  0  0  0  0  0  0
   -4.7050   17.2250  -34.2990 C   0  0  0  0  0  0  0  0  0  0  0  0
   -3.6650   18.1350  -34.3310 C   0  0  0  0  0  0  0  0  0  0  0  0
   -3.8170   19.4430  -33.8330 C   0  0  0  0  0  0  0  0  0  0  0  0
   -2.7450   20.3960  -34.0490 N   0  0  0  0  0  0  0  0  0  0  0  0
   -1.4820   20.4320  -33.2950 C   0  0  0  0  0  0  0  0  0  0  0  0
   -0.2460   20.1880  -34.1820 C   0  0  0  0  0  0  0  0  0  0  0  0
   -0.1070   21.1730  -35.3580 C   0  0  0  0  0  0  0  0  0  0  0  0
    0.7480   22.3450  -35.0540 N   0  0  0  0  0  0  0  0  0  0  0  0
    2.1600   21.9220  -35.0180 C   0  0  0  0  0  0  0  0  0  0  0  0
    0.5920   23.4100  -36.0630 C   0  0  0  0  0  0  0  0  0  0  0  0
   -5.0800   19.8210  -33.2490 C   0  0  0  0  0  0  0  0  0  0  0  0
   -6.2406   25.5944  -28.3850 H   0  0  0  0  0  0  0  0  0  0  0  0
   -6.9898   26.6756  -29.6082 H   0  0  0  0  0  0  0  0  0  0  0  0
   -7.3700   24.9200  -29.6082 H   0  0  0  0  0  0  0  0  0  0  0  0
   -5.7844   25.3865  -31.4047 H   0  0  0  0  0  0  0  0  0  0  0  0
   -4.6814   26.2270  -30.2400 H   0  0  0  0  0  0  0  0  0  0  0  0
   -4.9660   23.7861  -29.0240 H   0  0  0  0  0  0  0  0  0  0  0  0
   -5.0659   23.3311  -30.7746 H   0  0  0  0  0  0  0  0  0  0  0  0
   -1.5332   24.2717  -28.9529 H   0  0  0  0  0  0  0  0  0  0  0  0
   -2.7875   25.5790  -28.6826 H   0  0  0  0  0  0  0  0  0  0  0  0
   -3.8327   22.9224  -28.0601 H   0  0  0  0  0  0  0  0  0  0  0  0
   -2.3508   23.3387  -27.0876 H   0  0  0  0  0  0  0  0  0  0  0  0
   -3.7993   24.3717  -25.7016 H   0  0  0  0  0  0  0  0  0  0  0  0
   -3.7931   25.6731  -26.9397 H   0  0  0  0  0  0  0  0  0  0  0  0
   -5.0989   24.4396  -26.9397 H   0  0  0  0  0  0  0  0  0  0  0  0
   -2.2296   23.3657  -31.8401 H   0  0  0  0  0  0  0  0  0  0  0  0
   -1.7847   22.6708  -30.2347 H   0  0  0  0  0  0  0  0  0  0  0  0
   -3.1011   20.9454  -30.9888 H   0  0  0  0  0  0  0  0  0  0  0  0
   -4.3968   21.9956  -30.2848 H   0  0  0  0  0  0  0  0  0  0  0  0
   -4.1940   22.8850  -32.9260 H   0  0  0  0  0  0  0  0  0  0  0  0
   -6.1438   23.5606  -31.9625 H   0  0  0  0  0  0  0  0  0  0  0  0
   -8.4767   24.2346  -31.4290 H   0  0  0  0  0  0  0  0  0  0  0  0
  -10.3209   22.5692  -31.5775 H   0  0  0  0  0  0  0  0  0  0  0  0
   -9.8311   20.2131  -32.1941 H   0  0  0  0  0  0  0  0  0  0  0  0
   -8.4504   18.0426  -31.2592 H   0  0  0  0  0  0  0  0  0  0  0  0
   -9.3368   18.4081  -32.7783 H   0  0  0  0  0  0  0  0  0  0  0  0
   -8.0209   17.1854  -32.7783 H   0  0  0  0  0  0  0  0  0  0  0  0
   -6.7579   16.8573  -33.7843 H   0  0  0  0  0  0  0  0  0  0  0  0
   -4.5555   16.2092  -34.6938 H   0  0  0  0  0  0  0  0  0  0  0  0
   -2.6969   17.8303  -34.7551 H   0  0  0  0  0  0  0  0  0  0  0  0
   -2.6960   20.8870  -34.9650 H   0  0  0  0  0  0  0  0  0  0  0  0
   -1.3843   21.4199  -32.8212 H   0  0  0  0  0  0  0  0  0  0  0  0
   -1.5189   19.6226  -32.5511 H   0  0  0  0  0  0  0  0  0  0  0  0
    0.6522   20.2734  -33.5528 H   0  0  0  0  0  0  0  0  0  0  0  0
   -0.3656   19.1867  -34.6214 H   0  0  0  0  0  0  0  0  0  0  0  0
    0.3311   20.6353  -36.2118 H   0  0  0  0  0  0  0  0  0  0  0  0
   -1.1142   21.5573  -35.5770 H   0  0  0  0  0  0  0  0  0  0  0  0
    2.4869   21.8241  -33.9723 H   0  0  0  0  0  0  0  0  0  0  0  0
    2.2655   20.9528  -35.5274 H   0  0  0  0  0  0  0  0  0  0  0  0
    2.7810   22.6735  -35.5274 H   0  0  0  0  0  0  0  0  0  0  0  0
    0.4504   24.3765  -35.5571 H   0  0  0  0  0  0  0  0  0  0  0  0
    1.4933   23.4540  -36.6921 H   0  0  0  0  0  0  0  0  0  0  0  0
   -0.2840   23.1936  -36.6921 H   0  0  0  0  0  0  0  0  0  0  0  0
  1  2  1  0
  2  3  1  0
  3  4  1  0
  4  5  1  0
  5  6  1  0
  6  7  1  0
  4  8  1  0
  8  9  1  0
  9 10  1  0
 10 11  1  0
 11 12  2  0
 12 13  1  0
 13 14  2  0
 14 15  1  0
 15 16  2  0
 16 17  1  0
 17 18  2  0
 18 19  1  0
 18 20  1  0
 20 21  2  0
 21 22  1  0
 22 23  2  0
 23 24  1  0
 24 25  1  0
 25 26  1  0
 26 27  1  0
 27 28  1  0
 28 29  1  0
 29 30  1  0
 29 31  1  0
 24 32  2  0
 32 11  1  0
 17 12  1  0
 32 20  1  0
  1 33  1  0
  1 34  1  0
  1 35  1  0
  2 36  1  0
  2 37  1  0
  3 38  1  0
  3 39  1  0
  5 40  1  0
  5 41  1  0
  6 42  1  0
  6 43  1  0
  7 44  1  0
  7 45  1  0
  7 46  1  0
  8 47  1  0
  8 48  1  0
  9 49  1  0
  9 50  1  0
 10 51  1  0
 13 52  1  0
 14 53  1  0
 15 54  1  0
 16 55  1  0
 19 56  1  0
 19 57  1  0
 19 58  1  0
 21 59  1  0
 22 60  1  0
 23 61  1  0
 25 62  1  0
 26 63  1  0
 26 64  1  0
 27 65  1  0
 27 66  1  0
 28 67  1  0
 28 68  1  0
 30 69  1  0
 30 70  1  0
 30 71  1  0
 31 72  1  0
 31 73  1  0
 31 74  1  0
M  CHG  1  18   1
M  END
>  <UniqueID>  (21) 
21

>  <SMILES>  (21) 
CCCN(CCC)CCNc1c2ccccc2[n+](C)c2cccc(NCCCN(C)C)c12

>  <Energy>  (21) 
106.0471029176089

>  <Genealogy>  (21) 
CCCN(CCC)CCNc1c2ccccc2[n+](C)c2cccc(NCCCN(C)C)c12 (3D coordinates assigned)
CCCN(CCC)CCNc1c2ccccc2[n+](C)c2cccc(NCCCN(C)C)c12 (optimized conformer: 106.0471029176089 kcal/mol)

>  <smiles>  (21) 
CCCN(CCC)CCNc1c2ccccc2[n+](C)c2cccc(NCCCN(C)C)c12

>  <score_type>  (21) 
oracle

>  <origin>  (21) 
adg

>  <m_score__min__energy>  (21) 
-9.7100000000000009

>  <m_primary>  (21) 
energy

$$$$
21:0
     RDKit          3D

 56 58  0  0  0  0  0  0  0  0999 V2000
   -1.5510   19.6670  -27.5220 C   0  0  0  0  0  0  0  0  0  0  0  0
   -2.6590   20.4120  -28.2480 C   0  0  0  0  0  0  0  0  0  0  0  0
   -2.2460   20.6780  -29.5720 O   0  0  0  0  0  0  0  0  0  0  0  0
   -0.9250   20.2160  -29.7840 C   0  0  0  0  0  0  0  0  0  0  0  0
   -0.6580   20.0150  -31.2750 C   0  0  0  0  0  0  0  0  0  0  0  0
   -0.6650   21.2700  -31.9180 O   0  0  0  0  0  0  0  0  0  0  0  0
   -1.1650   21.1340  -33.2320 C   0  0  0  0  0  0  0  0  0  0  0  0
   -2.6380   21.5450  -33.2620 C   0  0  0  0  0  0  0  0  0  0  0  0
   -3.1540   21.8310  -31.9170 N   0  0  0  0  0  0  0  0  0  0  0  0
   -4.5610   21.8120  -31.6140 C   0  0  0  0  0  0  0  0  0  0  0  0
   -5.3440   20.7280  -32.0510 C   0  0  0  0  0  0  0  0  0  0  0  0
   -4.7380   19.5710  -32.5880 C   0  0  0  0  0  0  0  0  0  0  0  0
   -5.5120   18.5330  -33.1000 C   0  0  0  0  0  0  0  0  0  0  0  0
   -6.8980   18.6300  -33.0890 C   0  0  0  0  0  0  0  0  0  0  0  0
   -7.5170   19.7440  -32.5270 C   0  0  0  0  0  0  0  0  0  0  0  0
   -6.7560   20.7950  -31.9500 C   0  0  0  0  0  0  0  0  0  0  0  0
   -7.3570   21.8690  -31.3240 N   0  0  0  0  0  0  0  0  0  0  0  0
   -8.7960   21.8080  -30.9800 C   0  0  0  0  0  0  0  0  0  0  0  0
   -6.6100   22.9810  -30.9790 C   0  0  0  0  0  0  0  0  0  0  0  0
   -7.2370   24.1900  -30.5920 C   0  0  0  0  0  0  0  0  0  0  0  0
   -6.4930   25.2860  -30.1790 C   0  0  0  0  0  0  0  0  0  0  0  0
   -5.1110   25.2140  -30.1270 C   0  0  0  0  0  0  0  0  0  0  0  0
   -4.4350   24.0550  -30.5460 C   0  0  0  0  0  0  0  0  0  0  0  0
   -3.0320   23.9720  -30.4530 O   0  0  0  0  0  0  0  0  0  0  0  0
   -2.2720   23.7420  -29.2650 C   0  0  0  0  0  0  0  0  0  0  0  0
   -3.1750   23.7090  -28.0360 C   0  0  0  0  0  0  0  0  0  0  0  0
   -5.1860   22.9450  -31.0380 C   0  0  0  0  0  0  0  0  0  0  0  0
   -1.6948   19.7637  -26.4357 H   0  0  0  0  0  0  0  0  0  0  0  0
   -1.5793   18.6037  -27.8024 H   0  0  0  0  0  0  0  0  0  0  0  0
   -0.5770   20.0944  -27.8024 H   0  0  0  0  0  0  0  0  0  0  0  0
   -3.5694   19.7949  -28.2630 H   0  0  0  0  0  0  0  0  0  0  0  0
   -2.8715   21.3582  -27.7288 H   0  0  0  0  0  0  0  0  0  0  0  0
   -0.2150   20.9561  -29.3862 H   0  0  0  0  0  0  0  0  0  0  0  0
   -0.7994   19.2525  -29.2683 H   0  0  0  0  0  0  0  0  0  0  0  0
    0.3227   19.5361  -31.4124 H   0  0  0  0  0  0  0  0  0  0  0  0
   -1.4386   19.3722  -31.7080 H   0  0  0  0  0  0  0  0  0  0  0  0
   -0.5901   21.7801  -33.9118 H   0  0  0  0  0  0  0  0  0  0  0  0
   -1.0699   20.0865  -33.5539 H   0  0  0  0  0  0  0  0  0  0  0  0
   -2.7430   22.4472  -33.8825 H   0  0  0  0  0  0  0  0  0  0  0  0
   -3.2172   20.7078  -33.6786 H   0  0  0  0  0  0  0  0  0  0  0  0
   -2.4770   22.0250  -31.1460 H   0  0  0  0  0  0  0  0  0  0  0  0
   -3.6412   19.4888  -32.6020 H   0  0  0  0  0  0  0  0  0  0  0  0
   -5.0264   17.6366  -33.5130 H   0  0  0  0  0  0  0  0  0  0  0  0
   -7.5079   17.8251  -33.5252 H   0  0  0  0  0  0  0  0  0  0  0  0
   -8.6150   19.8109  -32.5302 H   0  0  0  0  0  0  0  0  0  0  0  0
   -8.9116   21.8031  -29.8861 H   0  0  0  0  0  0  0  0  0  0  0  0
   -9.3107   22.6851  -31.3992 H   0  0  0  0  0  0  0  0  0  0  0  0
   -9.2346   20.8905  -31.3992 H   0  0  0  0  0  0  0  0  0  0  0  0
   -8.3343   24.2618  -30.6192 H   0  0  0  0  0  0  0  0  0  0  0  0
   -7.0036   26.2169  -29.8914 H   0  0  0  0  0  0  0  0  0  0  0  0
   -4.5356   26.0738  -29.7534 H   0  0  0  0  0  0  0  0  0  0  0  0
   -1.7494   22.7781  -29.3533 H   0  0  0  0  0  0  0  0  0  0  0  0
   -1.5494   24.5629  -29.1469 H   0  0  0  0  0  0  0  0  0  0  0  0
   -2.5571   23.7316  -27.1263 H   0  0  0  0  0  0  0  0  0  0  0  0
   -3.8424   24.5834  -28.0477 H   0  0  0  0  0  0  0  0  0  0  0  0
   -3.7768   22.7883  -28.0477 H   0  0  0  0  0  0  0  0  0  0  0  0
  1  2  1  0
  2  3  1  0
  3  4  1  0
  4  5  1  0
  5  6  1  0
  6  7  1  0
  7  8  1  0
  8  9  1  0
  9 10  1  0
 10 11  2  0
 11 12  1  0
 12 13  2  0
 13 14  1  0
 14 15  2  0
 15 16  1  0
 16 17  2  0
 17 18  1  0
 17 19  1  0
 19 20  2  0
 20 21  1  0
 21 22  2  0
 22 23  1  0
 23 24  1  0
 24 25  1  0
 25 26  1  0
 23 27  2  0
 27 10  1  0
 16 11  1  0
 27 19  1  0
  1 28  1  0
  1 29  1  0
  1 30  1  0
  2 31  1  0
  2 32  1  0
  4 33  1  0
  4 34  1  0
  5 35  1  0
  5 36  1  0
  7 37  1  0
  7 38  1  0
  8 39  1  0
  8 40  1  0
  9 41  1  0
 12 42  1  0
 13 43  1  0
 14 44  1  0
 15 45  1  0
 18 46  1  0
 18 47  1  0
 18 48  1  0
 20 49  1  0
 21 50  1  0
 22 51  1  0
 25 52  1  0
 25 53  1  0
 26 54  1  0
 26 55  1  0
 26 56  1  0
M  CHG  1  17   1
M  END
>  <UniqueID>  (22) 
22

>  <SMILES>  (22) 
CCOCCOCCNc1c2ccccc2[n+](C)c2cccc(OCC)c12

>  <Energy>  (22) 
78.69281037574147

>  <Genealogy>  (22) 
CCOCCOCCNc1c2ccccc2[n+](C)c2cccc(OCC)c12 (3D coordinates assigned)
CCOCCOCCNc1c2ccccc2[n+](C)c2cccc(OCC)c12 (optimized conformer: 78.69281037574147 kcal/mol)

>  <smiles>  (22) 
CCOCCOCCNc1c2ccccc2[n+](C)c2cccc(OCC)c12

>  <score_type>  (22) 
oracle

>  <origin>  (22) 
adg

>  <m_score__min__energy>  (22) 
-8.3000000000000007

>  <m_primary>  (22) 
energy

$$$$
22:0
     RDKit          3D

 43 45  0  0  0  0  0  0  0  0999 V2000
    0.6790   20.7030  -36.4750 C   0  0  0  0  0  0  0  0  0  0  0  0
    0.4290   21.6350  -35.2870 C   0  0  0  0  0  0  0  0  0  0  0  0
   -0.8300   21.3320  -34.5890 N   0  0  0  0  0  0  0  0  0  0  0  0
   -0.7180   21.4870  -33.1330 C   0  0  0  0  0  0  0  0  0  0  0  0
   -2.1110   21.5260  -32.4950 C   0  0  0  0  0  0  0  0  0  0  0  0
   -3.1530   21.1340  -33.4480 N   0  0  0  0  0  0  0  0  0  0  0  0
   -4.4370   20.6760  -33.0010 C   0  0  0  0  0  0  0  0  0  0  0  0
   -5.3240   21.5920  -32.4050 C   0  0  0  0  0  0  0  0  0  0  0  0
   -4.8790   22.8680  -32.0060 C   0  0  0  0  0  0  0  0  0  0  0  0
   -5.7370   23.7450  -31.3530 C   0  0  0  0  0  0  0  0  0  0  0  0
   -7.0290   23.3470  -31.0360 C   0  0  0  0  0  0  0  0  0  0  0  0
   -7.5030   22.0880  -31.4180 C   0  0  0  0  0  0  0  0  0  0  0  0
   -9.1660   21.5700  -30.5980 Br  0  0  0  0  0  0  0  0  0  0  0  0
   -6.6770   21.2180  -32.1950 C   0  0  0  0  0  0  0  0  0  0  0  0
   -7.1390   20.0470  -32.7600 N   0  0  0  0  0  0  0  0  0  0  0  0
   -8.5590   19.9090  -33.1400 C   0  0  0  0  0  0  0  0  0  0  0  0
   -6.2460   19.0580  -33.1260 C   0  0  0  0  0  0  0  0  0  0  0  0
   -6.6970   17.7510  -33.4270 C   0  0  0  0  0  0  0  0  0  0  0  0
   -5.8090   16.7550  -33.8150 C   0  0  0  0  0  0  0  0  0  0  0  0
   -6.4540   15.0020  -34.2190 Br  0  0  0  0  0  0  0  0  0  0  0  0
   -4.4480   17.0210  -33.8750 C   0  0  0  0  0  0  0  0  0  0  0  0
   -3.9530   18.2900  -33.5650 C   0  0  0  0  0  0  0  0  0  0  0  0
   -2.0340   18.4060  -33.5030 Br  0  0  0  0  0  0  0  0  0  0  0  0
   -4.8530   19.3430  -33.2190 C   0  0  0  0  0  0  0  0  0  0  0  0
    0.9475   19.7022  -36.1057 H   0  0  0  0  0  0  0  0  0  0  0  0
   -0.2329   20.6358  -37.0865 H   0  0  0  0  0  0  0  0  0  0  0  0
    1.5021   21.1012  -37.0865 H   0  0  0  0  0  0  0  0  0  0  0  0
    1.2611   21.5303  -34.5752 H   0  0  0  0  0  0  0  0  0  0  0  0
    0.3569   22.6612  -35.6764 H   0  0  0  0  0  0  0  0  0  0  0  0
   -1.5890   21.9590  -34.9470 H   0  0  0  0  0  0  0  0  0  0  0  0
   -0.1530   20.6384  -32.7199 H   0  0  0  0  0  0  0  0  0  0  0  0
   -0.1960   22.4297  -32.9120 H   0  0  0  0  0  0  0  0  0  0  0  0
   -2.1312   20.8345  -31.6398 H   0  0  0  0  0  0  0  0  0  0  0  0
   -2.3119   22.5579  -32.1713 H   0  0  0  0  0  0  0  0  0  0  0  0
   -2.8740   20.9340  -34.4350 H   0  0  0  0  0  0  0  0  0  0  0  0
   -3.8426   23.1729  -32.2133 H   0  0  0  0  0  0  0  0  0  0  0  0
   -5.3923   24.7552  -31.0871 H   0  0  0  0  0  0  0  0  0  0  0  0
   -7.6870   24.0296  -30.4782 H   0  0  0  0  0  0  0  0  0  0  0  0
   -9.1773   19.8489  -32.2322 H   0  0  0  0  0  0  0  0  0  0  0  0
   -8.8657   20.7816  -33.7354 H   0  0  0  0  0  0  0  0  0  0  0  0
   -8.6919   18.9937  -33.7354 H   0  0  0  0  0  0  0  0  0  0  0  0
   -7.7697   17.5192  -33.3525 H   0  0  0  0  0  0  0  0  0  0  0  0
   -3.7508   16.2230  -34.1702 H   0  0  0  0  0  0  0  0  0  0  0  0
  1  2  1  0
  2  3  1  0
  3  4  1  0
  4  5  1  0
  5  6  1  0
  6  7  1  0
  7  8  2  0
  8  9  1  0
  9 10  2  0
 10 11  1  0
 11 12  2  0
 12 13  1  0
 12 14  1  0
 14 15  2  0
 15 16  1  0
 15 17  1  0
 17 18  2  0
 18 19  1  0
 19 20  1  0
 19 21  2  0
 21 22  1  0
 22 23  1  0
 22 24  2  0
 24  7  1  0
 14  8  1  0
 24 17  1  0
  1 25  1  0
  1 26  1  0
  1 27  1  0
  2 28  1  0
  2 29  1  0
  3 30  1  0
  4 31  1  0
  4 32  1  0
  5 33  1  0
  5 34  1  0
  6 35  1  0
  9 36  1  0
 10 37  1  0
 11 38  1  0
 16 39  1  0
 16 40  1  0
 16 41  1  0
 18 42  1  0
 21 43  1  0
M  CHG  1  15   1
M  END
>  <UniqueID>  (23) 
23

>  <SMILES>  (23) 
CCNCCNc1c2cccc(Br)c2[n+](C)c2cc(Br)cc(Br)c12

>  <Energy>  (23) 
81.58936395318356

>  <Genealogy>  (23) 
CCNCCNc1c2cccc(Br)c2[n+](C)c2cc(Br)cc(Br)c12 (3D coordinates assigned)
CCNCCNc1c2cccc(Br)c2[n+](C)c2cc(Br)cc(Br)c12 (optimized conformer: 81.58936395318356 kcal/mol)

>  <smiles>  (23) 
CCNCCNc1c2cccc(Br)c2[n+](C)c2cc(Br)cc(Br)c12

>  <score_type>  (23) 
oracle

>  <origin>  (23) 
adg

>  <m_score__min__energy>  (23) 
-8.7300000000000004

>  <m_primary>  (23) 
energy

$$$$
23:0
     RDKit          3D

 46 48  0  0  0  0  0  0  0  0999 V2000
   -6.4810   18.7670  -33.7400 C   0  0  0  0  0  0  0  0  0  0  0  0
   -7.1080   19.9170  -33.0940 N   0  0  0  0  0  0  0  0  0  0  0  0
   -8.3970   20.0380  -32.6870 C   0  0  0  0  0  0  0  0  0  0  0  0
   -9.2740   19.1540  -32.8840 O   0  0  0  0  0  0  0  0  0  0  0  0
   -8.6370   21.1970  -32.0230 N   0  0  0  0  0  0  0  0  0  0  0  0
   -9.8700   21.6050  -31.3560 C   0  0  0  0  0  0  0  0  0  0  0  0
   -7.4350   21.8050  -31.9770 C   0  0  0  0  0  0  0  0  0  0  0  0
   -7.0830   22.9940  -31.3400 C   0  0  0  0  0  0  0  0  0  0  0  0
   -5.7280   23.3850  -31.3740 C   0  0  0  0  0  0  0  0  0  0  0  0
   -5.2070   24.8270  -30.5040 S   0  0  0  0  0  0  0  0  0  0  0  0
   -5.7400   24.7930  -29.0990 O   0  0  0  0  0  0  0  0  0  0  0  0
   -5.7590   26.0450  -31.1910 O   0  0  0  0  0  0  0  0  0  0  0  0
   -3.4700   24.9310  -30.4700 N   0  0  0  0  0  0  0  0  0  0  0  0
   -2.9640   24.8790  -29.0970 C   0  0  0  0  0  0  0  0  0  0  0  0
   -1.9500   23.7380  -28.9480 C   0  0  0  0  0  0  0  0  0  0  0  0
   -1.5300   23.5170  -27.4890 C   0  0  0  0  0  0  0  0  0  0  0  0
   -1.2780   24.7860  -26.8040 N   0  0  0  0  0  0  0  0  0  0  0  0
   -2.1050   25.3230  -25.7360 C   0  0  0  0  0  0  0  0  0  0  0  0
   -1.4460   26.6520  -25.3180 C   0  0  0  0  0  0  0  0  0  0  0  0
   -0.0890   26.7360  -26.0350 C   0  0  0  0  0  0  0  0  0  0  0  0
   -0.1210   25.5840  -26.9560 C   0  0  0  0  0  0  0  0  0  0  0  0
    0.7920   25.3240  -27.7850 O   0  0  0  0  0  0  0  0  0  0  0  0
   -4.7730   22.5790  -32.0400 C   0  0  0  0  0  0  0  0  0  0  0  0
   -5.1600   21.3840  -32.6750 C   0  0  0  0  0  0  0  0  0  0  0  0
   -6.5080   21.0300  -32.6230 C   0  0  0  0  0  0  0  0  0  0  0  0
   -6.1040   18.0755  -32.9721 H   0  0  0  0  0  0  0  0  0  0  0  0
   -7.2219   18.2497  -34.3672 H   0  0  0  0  0  0  0  0  0  0  0  0
   -5.6448   19.1096  -34.3672 H   0  0  0  0  0  0  0  0  0  0  0  0
   -9.7298   21.5586  -30.2660 H   0  0  0  0  0  0  0  0  0  0  0  0
  -10.1224   22.6346  -31.6498 H   0  0  0  0  0  0  0  0  0  0  0  0
  -10.6867   20.9292  -31.6498 H   0  0  0  0  0  0  0  0  0  0  0  0
   -7.8380   23.6079  -30.8271 H   0  0  0  0  0  0  0  0  0  0  0  0
   -2.4747   25.8337  -28.8539 H   0  0  0  0  0  0  0  0  0  0  0  0
   -3.8057   24.7024  -28.4112 H   0  0  0  0  0  0  0  0  0  0  0  0
   -2.4025   22.8109  -29.3299 H   0  0  0  0  0  0  0  0  0  0  0  0
   -1.0503   24.0116  -29.5187 H   0  0  0  0  0  0  0  0  0  0  0  0
   -2.3337   22.9807  -26.9632 H   0  0  0  0  0  0  0  0  0  0  0  0
   -0.5988   22.9315  -27.4833 H   0  0  0  0  0  0  0  0  0  0  0  0
   -3.1286   25.5007  -26.0974 H   0  0  0  0  0  0  0  0  0  0  0  0
   -2.1755   24.6238  -24.8897 H   0  0  0  0  0  0  0  0  0  0  0  0
   -2.0825   27.4979  -25.6169 H   0  0  0  0  0  0  0  0  0  0  0  0
   -1.3127   26.6938  -24.2269 H   0  0  0  0  0  0  0  0  0  0  0  0
    0.0061   27.6814  -26.5893 H   0  0  0  0  0  0  0  0  0  0  0  0
    0.7660   26.7110  -25.3434 H   0  0  0  0  0  0  0  0  0  0  0  0
   -3.7181   22.8900  -32.0613 H   0  0  0  0  0  0  0  0  0  0  0  0
   -4.4250   20.7514  -33.1941 H   0  0  0  0  0  0  0  0  0  0  0  0
  1  2  1  0
  2  3  1  0
  3  4  2  0
  3  5  1  0
  5  6  1  0
  5  7  1  0
  7  8  2  0
  8  9  1  0
  9 10  1  0
 10 11  2  0
 10 12  2  0
 10 13  1  0
 13 14  1  0
 14 15  1  0
 15 16  1  0
 16 17  1  0
 17 18  1  0
 18 19  1  0
 19 20  1  0
 20 21  1  0
 21 22  2  0
  9 23  2  0
 23 24  1  0
 24 25  2  0
 25  2  1  0
 25  7  1  0
 21 17  1  0
  1 26  1  0
  1 27  1  0
  1 28  1  0
  6 29  1  0
  6 30  1  0
  6 31  1  0
  8 32  1  0
 14 33  1  0
 14 34  1  0
 15 35  1  0
 15 36  1  0
 16 37  1  0
 16 38  1  0
 18 39  1  0
 18 40  1  0
 19 41  1  0
 19 42  1  0
 20 43  1  0
 20 44  1  0
 23 45  1  0
 24 46  1  0
M  CHG  1  13  -1
M  END
>  <UniqueID>  (24) 
24

>  <SMILES>  (24) 
Cn1c(=O)n(C)c2cc(S(=O)(=O)[N-]CCCN3CCCC3=O)ccc21

>  <Energy>  (24) 
86.36232390797734

>  <Genealogy>  (24) 
Cn1c(=O)n(C)c2cc(S(=O)(=O)[N-]CCCN3CCCC3=O)ccc21 (protonated)
Cn1c(=O)n(C)c2cc(S(=O)(=O)[N-]CCCN3CCCC3=O)ccc21 (3D coordinates assigned)
Cn1c(=O)n(C)c2cc(S(=O)(=O)[N-]CCCN3CCCC3=O)ccc21 (nonaromatic ring conformer: 86.36232390797734 kcal/mol)

>  <smiles>  (24) 
Cn1c(=O)n(C)c2cc(S(=O)(=O)NCCCN3CCCC3=O)ccc21

>  <score_type>  (24) 
oracle

>  <origin>  (24) 
adg

>  <m_score__min__energy>  (24) 
-10.49

>  <m_primary>  (24) 
energy

$$$$
24:0
     RDKit          3D

 39 41  0  0  0  0  0  0  0  0999 V2000
   -2.8010   22.7770  -30.5230 C   0  0  0  0  0  0  0  0  0  0  0  0
   -3.0400   24.0120  -29.6630 C   0  0  0  0  0  0  0  0  0  0  0  0
   -3.6780   25.0380  -30.4200 O   0  0  0  0  0  0  0  0  0  0  0  0
   -5.0070   25.4280  -30.2160 C   0  0  0  0  0  0  0  0  0  0  0  0
   -5.3790   26.6070  -30.4650 O   0  0  0  0  0  0  0  0  0  0  0  0
   -6.0040   24.4230  -29.7250 C   0  0  0  0  0  0  0  0  0  0  0  0
   -7.0700   24.1160  -30.7840 C   0  0  0  0  0  0  0  0  0  0  0  0
   -6.8330   22.7810  -31.4450 C   0  0  0  0  0  0  0  0  0  0  0  0
   -5.6610   22.5520  -32.1720 C   0  0  0  0  0  0  0  0  0  0  0  0
   -5.4110   21.3030  -32.7440 C   0  0  0  0  0  0  0  0  0  0  0  0
   -6.3300   20.2350  -32.5960 C   0  0  0  0  0  0  0  0  0  0  0  0
   -7.5150   20.4770  -31.8460 C   0  0  0  0  0  0  0  0  0  0  0  0
   -8.4520   19.4560  -31.6560 C   0  0  0  0  0  0  0  0  0  0  0  0
   -8.2430   18.1940  -32.1970 C   0  0  0  0  0  0  0  0  0  0  0  0
   -7.0920   17.9230  -32.9430 C   0  0  0  0  0  0  0  0  0  0  0  0
   -6.9080   16.6370  -33.4790 C   0  0  0  0  0  0  0  0  0  0  0  0
   -5.7700   16.3410  -34.2260 C   0  0  0  0  0  0  0  0  0  0  0  0
   -4.8060   17.3210  -34.4460 C   0  0  0  0  0  0  0  0  0  0  0  0
   -4.9700   18.6060  -33.9210 C   0  0  0  0  0  0  0  0  0  0  0  0
   -6.1150   18.9380  -33.1560 C   0  0  0  0  0  0  0  0  0  0  0  0
   -7.7550   21.7410  -31.2850 C   0  0  0  0  0  0  0  0  0  0  0  0
   -2.6323   21.9052  -29.8738 H   0  0  0  0  0  0  0  0  0  0  0  0
   -3.6809   22.5965  -31.1580 H   0  0  0  0  0  0  0  0  0  0  0  0
   -1.9173   22.9378  -31.1580 H   0  0  0  0  0  0  0  0  0  0  0  0
   -3.6808   23.7403  -28.8112 H   0  0  0  0  0  0  0  0  0  0  0  0
   -2.0696   24.3875  -29.3063 H   0  0  0  0  0  0  0  0  0  0  0  0
   -5.4759   23.4922  -29.4707 H   0  0  0  0  0  0  0  0  0  0  0  0
   -6.5087   24.8440  -28.8430 H   0  0  0  0  0  0  0  0  0  0  0  0
   -8.0585   24.1042  -30.3015 H   0  0  0  0  0  0  0  0  0  0  0  0
   -7.0180   24.8956  -31.5583 H   0  0  0  0  0  0  0  0  0  0  0  0
   -4.9287   23.3636  -32.2946 H   0  0  0  0  0  0  0  0  0  0  0  0
   -4.4862   21.1459  -33.3184 H   0  0  0  0  0  0  0  0  0  0  0  0
   -9.3631   19.6545  -31.0725 H   0  0  0  0  0  0  0  0  0  0  0  0
   -8.9889   17.4015  -32.0373 H   0  0  0  0  0  0  0  0  0  0  0  0
   -7.6671   15.8595  -33.3077 H   0  0  0  0  0  0  0  0  0  0  0  0
   -5.6330   15.3321  -34.6424 H   0  0  0  0  0  0  0  0  0  0  0  0
   -3.9093   17.0825  -35.0369 H   0  0  0  0  0  0  0  0  0  0  0  0
   -4.1997   19.3696  -34.1043 H   0  0  0  0  0  0  0  0  0  0  0  0
   -8.6783   21.9158  -30.7132 H   0  0  0  0  0  0  0  0  0  0  0  0
  1  2  1  0
  2  3  1  0
  3  4  1  0
  4  5  2  0
  4  6  1  0
  6  7  1  0
  7  8  1  0
  8  9  2  0
  9 10  1  0
 10 11  2  0
 11 12  1  0
 12 13  1  0
 13 14  2  0
 14 15  1  0
 15 16  2  0
 16 17  1  0
 17 18  2  0
 18 19  1  0
 19 20  2  0
 12 21  2  0
 21  8  1  0
 20 11  1  0
 20 15  1  0
  1 22  1  0
  1 23  1  0
  1 24  1  0
  2 25  1  0
  2 26  1  0
  6 27  1  0
  6 28  1  0
  7 29  1  0
  7 30  1  0
  9 31  1  0
 10 32  1  0
 13 33  1  0
 14 34  1  0
 16 35  1  0
 17 36  1  0
 18 37  1  0
 19 38  1  0
 21 39  1  0
M  END
>  <UniqueID>  (25) 
25

>  <SMILES>  (25) 
CCOC(=O)CCc1ccc2c(ccc3ccccc32)c1

>  <Energy>  (25) 
43.13519443001396

>  <Genealogy>  (25) 
CCOC(=O)CCc1ccc2c(ccc3ccccc32)c1 (3D coordinates assigned)
CCOC(=O)CCc1ccc2c(ccc3ccccc32)c1 (optimized conformer: 43.13519443001396 kcal/mol)

>  <smiles>  (25) 
CCOC(=O)CCc1ccc2c(ccc3ccccc32)c1

>  <score_type>  (25) 
oracle

>  <origin>  (25) 
adg

>  <m_score__min__energy>  (25) 
-9.2699999999999996

>  <m_primary>  (25) 
energy

$$$$
