0:0
     RDKit          3D

 54 57  0  0  0  0  0  0  0  0999 V2000
   -1.3060   30.5100  -25.2180 C   0  0  0  0  0  0  0  0  0  0  0  0
   -0.3980   29.6160  -24.8250 C   0  0  0  0  0  0  0  0  0  0  0  0
   -0.6050   28.1550  -24.8770 C   0  0  0  0  0  0  0  0  0  0  0  0
   -0.5630   27.2970  -23.7740 C   0  0  0  0  0  0  0  0  0  0  0  0
   -0.8550   25.7380  -24.3260 S   0  0  0  0  0  0  0  0  0  0  0  0
   -1.0240   26.2040  -25.9360 C   0  0  0  0  0  0  0  0  0  0  0  0
   -1.3120   25.3020  -27.0740 C   0  0  0  0  0  0  0  0  0  0  0  0
   -0.2680   24.8490  -27.8980 C   0  0  0  0  0  0  0  0  0  0  0  0
   -0.5290   23.9980  -28.9750 C   0  0  0  0  0  0  0  0  0  0  0  0
   -1.8410   23.5790  -29.2530 C   0  0  0  0  0  0  0  0  0  0  0  0
   -2.1180   22.6840  -30.4030 C   0  0  0  0  0  0  0  0  0  0  0  0
   -3.3660   22.7180  -31.0490 C   0  0  0  0  0  0  0  0  0  0  0  0
   -3.6470   21.8370  -32.0960 C   0  0  0  0  0  0  0  0  0  0  0  0
   -2.6890   20.8980  -32.5070 C   0  0  0  0  0  0  0  0  0  0  0  0
   -3.0300   19.8630  -33.5460 C   0  0  0  0  0  0  0  0  0  0  0  0
   -4.3360   19.2450  -33.2530 N   0  0  0  0  0  0  0  0  0  0  0  0
   -5.4670   20.0080  -33.8070 C   0  0  0  0  0  0  0  0  0  0  0  0
   -6.7560   19.7070  -33.0750 C   0  0  0  0  0  0  0  0  0  0  0  0
   -7.6190   20.7600  -32.7250 C   0  0  0  0  0  0  0  0  0  0  0  0
   -8.7850   20.5080  -32.0000 C   0  0  0  0  0  0  0  0  0  0  0  0
   -9.1060   19.2040  -31.6230 C   0  0  0  0  0  0  0  0  0  0  0  0
   -8.2700   18.1450  -31.9800 C   0  0  0  0  0  0  0  0  0  0  0  0
   -7.0900   18.3840  -32.7140 C   0  0  0  0  0  0  0  0  0  0  0  0
   -6.2260   17.3390  -33.0840 O   0  0  0  0  0  0  0  0  0  0  0  0
   -6.5380   16.3360  -34.0450 C   0  0  0  0  0  0  0  0  0  0  0  0
   -1.4280   20.8910  -31.8950 C   0  0  0  0  0  0  0  0  0  0  0  0
   -1.1450   21.7720  -30.8490 C   0  0  0  0  0  0  0  0  0  0  0  0
   -2.8870   24.0320  -28.4300 C   0  0  0  0  0  0  0  0  0  0  0  0
   -2.6250   24.8840  -27.3520 C   0  0  0  0  0  0  0  0  0  0  0  0
   -0.8610   27.5400  -26.0650 N   0  0  0  0  0  0  0  0  0  0  0  0
   -1.0840   31.5853  -25.1511 H   0  0  0  0  0  0  0  0  0  0  0  0
   -2.2771   30.1722  -25.6091 H   0  0  0  0  0  0  0  0  0  0  0  0
    0.5622   29.9891  -24.4392 H   0  0  0  0  0  0  0  0  0  0  0  0
   -0.3727   27.5905  -22.7311 H   0  0  0  0  0  0  0  0  0  0  0  0
    0.7648   25.1674  -27.6932 H   0  0  0  0  0  0  0  0  0  0  0  0
    0.2998   23.6531  -29.6107 H   0  0  0  0  0  0  0  0  0  0  0  0
   -4.1273   23.4440  -30.7275 H   0  0  0  0  0  0  0  0  0  0  0  0
   -4.6236   21.8796  -32.6004 H   0  0  0  0  0  0  0  0  0  0  0  0
   -3.0709   20.3431  -34.5349 H   0  0  0  0  0  0  0  0  0  0  0  0
   -2.2567   19.0807  -33.5347 H   0  0  0  0  0  0  0  0  0  0  0  0
   -4.3460   18.3040  -33.7120 H   0  0  0  0  0  0  0  0  0  0  0  0
   -5.2494   21.0827  -33.7189 H   0  0  0  0  0  0  0  0  0  0  0  0
   -5.5943   19.7170  -34.8601 H   0  0  0  0  0  0  0  0  0  0  0  0
   -7.3738   21.7897  -33.0245 H   0  0  0  0  0  0  0  0  0  0  0  0
   -9.4516   21.3389  -31.7256 H   0  0  0  0  0  0  0  0  0  0  0  0
  -10.0202   19.0098  -31.0429 H   0  0  0  0  0  0  0  0  0  0  0  0
   -8.5332   17.1179  -31.6871 H   0  0  0  0  0  0  0  0  0  0  0  0
   -6.8263   15.4092  -33.5273 H   0  0  0  0  0  0  0  0  0  0  0  0
   -7.3720   16.6787  -34.6751 H   0  0  0  0  0  0  0  0  0  0  0  0
   -5.6568   16.1451  -34.6751 H   0  0  0  0  0  0  0  0  0  0  0  0
   -0.6565   20.1872  -32.2407 H   0  0  0  0  0  0  0  0  0  0  0  0
   -0.1545   21.7524  -30.3709 H   0  0  0  0  0  0  0  0  0  0  0  0
   -3.9197   23.7139  -28.6355 H   0  0  0  0  0  0  0  0  0  0  0  0
   -3.4535   25.2299  -26.7164 H   0  0  0  0  0  0  0  0  0  0  0  0
  1  2  2  0
  2  3  1  0
  3  4  2  0
  4  5  1  0
  5  6  1  0
  6  7  1  0
  7  8  2  0
  8  9  1  0
  9 10  2  0
 10 11  1  0
 11 12  2  0
 12 13  1  0
 13 14  2  0
 14 15  1  0
 15 16  1  0
 16 17  1  0
 17 18  1  0
 18 19  2  0
 19 20  1  0
 20 21  2  0
 21 22  1  0
 22 23  2  0
 23 24  1  0
 24 25  1  0
 14 26  1  0
 26 27  2  0
 10 28  1  0
 28 29  2  0
  6 30  2  0
 30  3  1  0
 29  7  1  0
 27 11  1  0
 23 18  1  0
  1 31  1  0
  1 32  1  0
  2 33  1  0
  4 34  1  0
  8 35  1  0
  9 36  1  0
 12 37  1  0
 13 38  1  0
 15 39  1  0
 15 40  1  0
 16 41  1  0
 17 42  1  0
 17 43  1  0
 19 44  1  0
 20 45  1  0
 21 46  1  0
 22 47  1  0
 25 48  1  0
 25 49  1  0
 25 50  1  0
 26 51  1  0
 27 52  1  0
 28 53  1  0
 29 54  1  0
M  END
>  <UniqueID>  (1) 
1

>  <SMILES>  (1) 
C=Cc1csc(-c2ccc(-c3ccc(CNCc4ccccc4OC)cc3)cc2)n1

>  <Energy>  (1) 
88.70080105748929

>  <Genealogy>  (1) 
C=Cc1csc(-c2ccc(-c3ccc(CNCc4ccccc4OC)cc3)cc2)n1 (3D coordinates assigned)
C=Cc1csc(-c2ccc(-c3ccc(CNCc4ccccc4OC)cc3)cc2)n1 (optimized conformer: 88.70080105748929 kcal/mol)

>  <smiles>  (1) 
C=Cc1csc(-c2ccc(-c3ccc(CNCc4ccccc4OC)cc3)cc2)n1

>  <score_type>  (1) 
oracle

>  <origin>  (1) 
adg

>  <m_score__min__energy>  (1) 
-10.59

>  <m_primary>  (1) 
energy

$$$$
1:0
     RDKit          3D

 35 37  0  0  0  0  0  0  0  0999 V2000
   -1.5520   26.1910  -25.4040 C   0  0  0  0  0  0  0  0  0  0  0  0
   -2.2490   25.4600  -26.5130 C   0  0  0  0  0  0  0  0  0  0  0  0
   -1.6180   25.2900  -27.7530 C   0  0  0  0  0  0  0  0  0  0  0  0
   -2.2810   24.6420  -28.7990 C   0  0  0  0  0  0  0  0  0  0  0  0
   -3.5930   24.1640  -28.6290 C   0  0  0  0  0  0  0  0  0  0  0  0
   -4.2810   23.4780  -29.7500 C   0  0  0  0  0  0  0  0  0  0  0  0
   -5.5580   22.9350  -29.7400 C   0  0  0  0  0  0  0  0  0  0  0  0
   -5.7310   22.4300  -31.0140 C   0  0  0  0  0  0  0  0  0  0  0  0
   -6.9500   21.7430  -31.4980 C   0  0  0  0  0  0  0  0  0  0  0  0
   -8.2050   22.3750  -31.4510 C   0  0  0  0  0  0  0  0  0  0  0  0
   -9.3490   21.7080  -31.8980 C   0  0  0  0  0  0  0  0  0  0  0  0
   -9.2540   20.4020  -32.3860 C   0  0  0  0  0  0  0  0  0  0  0  0
   -8.0150   19.7590  -32.4200 C   0  0  0  0  0  0  0  0  0  0  0  0
   -6.8670   20.4220  -31.9730 C   0  0  0  0  0  0  0  0  0  0  0  0
   -4.6010   22.6480  -31.7210 N   0  0  0  0  0  0  0  0  0  0  0  0
   -4.3130   22.2480  -33.0940 C   0  0  0  0  0  0  0  0  0  0  0  0
   -3.7250   23.2900  -30.9640 N   0  0  0  0  0  0  0  0  0  0  0  0
   -4.2270   24.3540  -27.3870 C   0  0  0  0  0  0  0  0  0  0  0  0
   -3.5620   25.0020  -26.3410 C   0  0  0  0  0  0  0  0  0  0  0  0
   -1.9107   25.8148  -24.4346 H   0  0  0  0  0  0  0  0  0  0  0  0
   -0.4670   26.0274  -25.4821 H   0  0  0  0  0  0  0  0  0  0  0  0
   -1.7671   27.2669  -25.4821 H   0  0  0  0  0  0  0  0  0  0  0  0
   -0.5962   25.6684  -27.9036 H   0  0  0  0  0  0  0  0  0  0  0  0
   -1.7719   24.5045  -29.7644 H   0  0  0  0  0  0  0  0  0  0  0  0
   -6.2728   22.9119  -28.9042 H   0  0  0  0  0  0  0  0  0  0  0  0
   -8.2870   23.4000  -31.0603 H   0  0  0  0  0  0  0  0  0  0  0  0
  -10.3261   22.2121  -31.8656 H   0  0  0  0  0  0  0  0  0  0  0  0
  -10.1546   19.8809  -32.7431 H   0  0  0  0  0  0  0  0  0  0  0  0
   -7.9414   18.7290  -32.7990 H   0  0  0  0  0  0  0  0  0  0  0  0
   -5.8949   19.9076  -31.9932 H   0  0  0  0  0  0  0  0  0  0  0  0
   -3.6703   21.3553  -33.0887 H   0  0  0  0  0  0  0  0  0  0  0  0
   -5.2547   22.0187  -33.6143 H   0  0  0  0  0  0  0  0  0  0  0  0
   -3.7969   23.0683  -33.6143 H   0  0  0  0  0  0  0  0  0  0  0  0
   -5.2542   23.9898  -27.2376 H   0  0  0  0  0  0  0  0  0  0  0  0
   -4.0724   25.1529  -25.3783 H   0  0  0  0  0  0  0  0  0  0  0  0
  1  2  1  0
  2  3  2  0
  3  4  1  0
  4  5  2  0
  5  6  1  0
  6  7  1  0
  7  8  2  0
  8  9  1  0
  9 10  2  0
 10 11  1  0
 11 12  2  0
 12 13  1  0
 13 14  2  0
  8 15  1  0
 15 16  1  0
 15 17  1  0
  5 18  1  0
 18 19  2  0
 19  2  1  0
 17  6  2  0
 14  9  1  0
  1 20  1  0
  1 21  1  0
  1 22  1  0
  3 23  1  0
  4 24  1  0
  7 25  1  0
 10 26  1  0
 11 27  1  0
 12 28  1  0
 13 29  1  0
 14 30  1  0
 16 31  1  0
 16 32  1  0
 16 33  1  0
 18 34  1  0
 19 35  1  0
M  END
>  <UniqueID>  (2) 
2

>  <SMILES>  (2) 
Cc1ccc(-c2cc(-c3ccccc3)n(C)n2)cc1

>  <Energy>  (2) 
72.3361893929009

>  <Genealogy>  (2) 
Cc1ccc(-c2cc(-c3ccccc3)n(C)n2)cc1 (3D coordinates assigned)
Cc1ccc(-c2cc(-c3ccccc3)n(C)n2)cc1 (optimized conformer: 72.3361893929009 kcal/mol)

>  <smiles>  (2) 
Cc1ccc(-c2cc(-c3ccccc3)n(C)n2)cc1

>  <score_type>  (2) 
oracle

>  <origin>  (2) 
adg

>  <m_score__min__energy>  (2) 
-7.5099999999999998

>  <m_primary>  (2) 
energy

$$$$
2:0
     RDKit          3D

 59 61  0  0  0  0  0  0  0  0999 V2000
   -4.1570   24.5540  -26.7430 C   0  0  0  0  0  0  0  0  0  0  0  0
   -3.1280   25.3210  -25.9000 C   0  0  0  0  0  0  0  0  0  0  0  0
   -1.8870   25.6820  -26.6310 N   0  0  0  0  0  0  0  0  0  0  0  0
   -0.8570   26.3630  -25.8150 C   0  0  0  0  0  0  0  0  0  0  0  0
   -1.2500   26.4310  -24.3390 C   0  0  0  0  0  0  0  0  0  0  0  0
   -1.3340   24.5480  -27.4050 C   0  0  0  0  0  0  0  0  0  0  0  0
   -1.2480   24.9330  -28.8830 C   0  0  0  0  0  0  0  0  0  0  0  0
   -2.5340   25.2940  -29.3880 O   0  0  0  0  0  0  0  0  0  0  0  0
   -3.4790   24.4040  -29.9280 C   0  0  0  0  0  0  0  0  0  0  0  0
   -3.2870   23.0100  -29.9500 C   0  0  0  0  0  0  0  0  0  0  0  0
   -4.2570   22.1710  -30.5020 C   0  0  0  0  0  0  0  0  0  0  0  0
   -5.4370   22.7020  -31.0540 C   0  0  0  0  0  0  0  0  0  0  0  0
   -6.4580   21.7900  -31.6300 C   0  0  0  0  0  0  0  0  0  0  0  0
   -7.8150   22.1420  -31.7110 C   0  0  0  0  0  0  0  0  0  0  0  0
   -8.7000   21.2730  -32.2630 N   0  0  0  0  0  0  0  0  0  0  0  0
   -8.3090   20.0620  -32.7340 C   0  0  0  0  0  0  0  0  0  0  0  0
   -6.9560   19.6940  -32.6590 C   0  0  0  0  0  0  0  0  0  0  0  0
   -6.4600   18.3920  -33.1750 C   0  0  0  0  0  0  0  0  0  0  0  0
   -7.2410   17.2360  -33.0210 C   0  0  0  0  0  0  0  0  0  0  0  0
   -6.7960   16.0020  -33.5030 C   0  0  0  0  0  0  0  0  0  0  0  0
   -5.5540   15.8880  -34.1610 C   0  0  0  0  0  0  0  0  0  0  0  0
   -5.0890   14.6070  -34.6600 N   0  0  0  0  0  0  0  0  0  0  0  0
   -5.9540   13.4210  -34.5970 C   0  0  0  0  0  0  0  0  0  0  0  0
   -3.7450   14.4740  -35.2360 C   0  0  0  0  0  0  0  0  0  0  0  0
   -4.7800   17.0550  -34.3260 C   0  0  0  0  0  0  0  0  0  0  0  0
   -5.2270   18.2880  -33.8430 C   0  0  0  0  0  0  0  0  0  0  0  0
   -6.0740   20.5780  -32.1160 N   0  0  0  0  0  0  0  0  0  0  0  0
   -5.6270   24.0970  -31.0240 C   0  0  0  0  0  0  0  0  0  0  0  0
   -4.6550   24.9360  -30.4700 C   0  0  0  0  0  0  0  0  0  0  0  0
   -4.8630   26.2760  -30.4490 F   0  0  0  0  0  0  0  0  0  0  0  0
   -4.8592   24.0306  -26.0775 H   0  0  0  0  0  0  0  0  0  0  0  0
   -4.7112   25.2611  -27.3777 H   0  0  0  0  0  0  0  0  0  0  0  0
   -3.6377   23.8209  -27.3777 H   0  0  0  0  0  0  0  0  0  0  0  0
   -3.5988   26.2482  -25.5414 H   0  0  0  0  0  0  0  0  0  0  0  0
   -2.8279   24.6500  -25.0817 H   0  0  0  0  0  0  0  0  0  0  0  0
    0.0902   25.8111  -25.9055 H   0  0  0  0  0  0  0  0  0  0  0  0
   -0.7539   27.3929  -26.1875 H   0  0  0  0  0  0  0  0  0  0  0  0
   -0.3577   26.2766  -23.7145 H   0  0  0  0  0  0  0  0  0  0  0  0
   -1.6844   27.4176  -24.1203 H   0  0  0  0  0  0  0  0  0  0  0  0
   -1.9906   25.6477  -24.1203 H   0  0  0  0  0  0  0  0  0  0  0  0
   -0.3289   24.3040  -27.0306 H   0  0  0  0  0  0  0  0  0  0  0  0
   -1.9900   23.6723  -27.2918 H   0  0  0  0  0  0  0  0  0  0  0  0
   -0.5640   25.7873  -28.9940 H   0  0  0  0  0  0  0  0  0  0  0  0
   -0.8756   24.0683  -29.4518 H   0  0  0  0  0  0  0  0  0  0  0  0
   -2.3666   22.5785  -29.5295 H   0  0  0  0  0  0  0  0  0  0  0  0
   -4.0967   21.0827  -30.5053 H   0  0  0  0  0  0  0  0  0  0  0  0
   -8.1585   23.1150  -31.3299 H   0  0  0  0  0  0  0  0  0  0  0  0
   -9.0468   19.3734  -33.1715 H   0  0  0  0  0  0  0  0  0  0  0  0
   -8.2153   17.3021  -32.5147 H   0  0  0  0  0  0  0  0  0  0  0  0
   -7.4226   15.1082  -33.3674 H   0  0  0  0  0  0  0  0  0  0  0  0
   -6.1437   13.1610  -33.5451 H   0  0  0  0  0  0  0  0  0  0  0  0
   -6.9086   13.6363  -35.0993 H   0  0  0  0  0  0  0  0  0  0  0  0
   -5.4573   12.5778  -35.0993 H   0  0  0  0  0  0  0  0  0  0  0  0
   -3.0045   14.4007  -34.4259 H   0  0  0  0  0  0  0  0  0  0  0  0
   -3.7002   13.5670  -35.8568 H   0  0  0  0  0  0  0  0  0  0  0  0
   -3.5234   15.3546  -35.8568 H   0  0  0  0  0  0  0  0  0  0  0  0
   -3.8106   16.9941  -34.8422 H   0  0  0  0  0  0  0  0  0  0  0  0
   -4.6081   19.1860  -33.9868 H   0  0  0  0  0  0  0  0  0  0  0  0
   -6.5483   24.5307  -31.4401 H   0  0  0  0  0  0  0  0  0  0  0  0
  1  2  1  0
  2  3  1  0
  3  4  1  0
  4  5  1  0
  3  6  1  0
  6  7  1  0
  7  8  1  0
  8  9  1  0
  9 10  2  0
 10 11  1  0
 11 12  2  0
 12 13  1  0
 13 14  2  0
 14 15  1  0
 15 16  2  0
 16 17  1  0
 17 18  1  0
 18 19  2  0
 19 20  1  0
 20 21  2  0
 21 22  1  0
 22 23  1  0
 22 24  1  0
 21 25  1  0
 25 26  2  0
 17 27  2  0
 12 28  1  0
 28 29  2  0
 29 30  1  0
 29  9  1  0
 27 13  1  0
 26 18  1  0
  1 31  1  0
  1 32  1  0
  1 33  1  0
  2 34  1  0
  2 35  1  0
  4 36  1  0
  4 37  1  0
  5 38  1  0
  5 39  1  0
  5 40  1  0
  6 41  1  0
  6 42  1  0
  7 43  1  0
  7 44  1  0
 10 45  1  0
 11 46  1  0
 14 47  1  0
 16 48  1  0
 19 49  1  0
 20 50  1  0
 23 51  1  0
 23 52  1  0
 23 53  1  0
 24 54  1  0
 24 55  1  0
 24 56  1  0
 25 57  1  0
 26 58  1  0
 28 59  1  0
M  END
>  <UniqueID>  (3) 
3

>  <SMILES>  (3) 
CCN(CC)CCOc1ccc(-c2cncc(-c3ccc(N(C)C)cc3)n2)cc1F

>  <Energy>  (3) 
73.59783591055802

>  <Genealogy>  (3) 
CCN(CC)CCOc1ccc(-c2cncc(-c3ccc(N(C)C)cc3)n2)cc1F (3D coordinates assigned)
CCN(CC)CCOc1ccc(-c2cncc(-c3ccc(N(C)C)cc3)n2)cc1F (optimized conformer: 73.59783591055802 kcal/mol)

>  <smiles>  (3) 
CCN(CC)CCOc1ccc(-c2cncc(-c3ccc(N(C)C)cc3)n2)cc1F

>  <score_type>  (3) 
oracle

>  <origin>  (3) 
adg

>  <m_score__min__energy>  (3) 
-8.5899999999999999

>  <m_primary>  (3) 
energy

$$$$
3:0
     RDKit          3D

 40 41  0  0  1  0  0  0  0  0999 V2000
   -6.3170   25.3840  -29.6640 C   0  0  0  0  0  0  0  0  0  0  0  0
   -5.3800   25.6960  -30.8010 C   0  0  0  0  0  0  0  0  0  0  0  0
   -4.0510   25.2430  -30.4620 N   0  0  0  0  0  0  0  0  0  0  0  0
   -4.1920   24.0620  -29.6160 C   0  0  0  0  0  0  0  0  0  0  0  0
   -3.6670   22.8690  -30.4050 C   0  0  0  0  0  0  0  0  0  0  0  0
   -4.2170   22.9160  -31.7250 N   0  0  0  0  0  0  0  0  0  0  0  0
   -5.2440   22.2440  -32.0470 C   0  0  0  0  0  0  0  0  0  0  0  0
   -6.4810   22.6980  -31.6490 C   0  0  0  0  0  0  0  0  0  0  0  0
   -7.6130   21.9730  -31.9680 C   0  0  0  0  0  0  0  0  0  0  0  0
   -8.9860   22.4070  -31.5730 C   0  0  0  0  0  0  0  0  0  0  0  0
   -7.4300   20.8330  -32.6690 N   0  0  0  0  0  0  0  0  0  0  0  0
   -6.2110   20.3980  -33.0540 C   0  0  0  0  0  0  0  0  0  0  0  0
   -6.1390   19.2340  -33.7460 N   0  0  0  0  0  0  0  0  0  0  0  0
   -4.9540   18.7550  -34.1440 C   0  0  0  0  0  0  0  0  0  0  0  0
   -4.8640   17.4910  -34.8820 C   0  0  0  0  0  0  0  0  0  0  0  0
   -3.8330   19.4650  -33.8350 C   0  0  0  0  0  0  0  0  0  0  0  0
   -3.8650   20.6550  -33.1320 C   0  0  0  0  0  0  0  0  0  0  0  0
   -2.6450   21.4190  -32.8150 C   0  0  0  0  0  0  0  0  0  0  0  0
   -5.0830   21.0910  -32.7540 N   0  0  0  0  0  0  0  0  0  0  0  0
   -5.8023   25.5554  -28.7071 H   0  0  0  0  0  0  0  0  0  0  0  0
   -7.2003   26.0365  -29.7272 H   0  0  0  0  0  0  0  0  0  0  0  0
   -6.6328   24.3322  -29.7272 H   0  0  0  0  0  0  0  0  0  0  0  0
   -5.7225   25.1819  -31.7111 H   0  0  0  0  0  0  0  0  0  0  0  0
   -5.3652   26.7814  -30.9792 H   0  0  0  0  0  0  0  0  0  0  0  0
   -3.5260   24.9250  -31.3230 H   0  0  0  0  0  0  0  0  0  0  0  0
   -3.6070   24.1889  -28.6932 H   0  0  0  0  0  0  0  0  0  0  0  0
   -5.2448   23.9089  -29.3363 H   0  0  0  0  0  0  0  0  0  0  0  0
   -2.5693   22.9148  -30.4592 H   0  0  0  0  0  0  0  0  0  0  0  0
   -3.9608   21.9322  -29.9090 H   0  0  0  0  0  0  0  0  0  0  0  0
   -6.5680   23.6347  -31.0790 H   0  0  0  0  0  0  0  0  0  0  0  0
   -9.0616   22.4309  -30.4759 H   0  0  0  0  0  0  0  0  0  0  0  0
   -9.1833   23.4113  -31.9761 H   0  0  0  0  0  0  0  0  0  0  0  0
   -9.7247   21.6985  -31.9761 H   0  0  0  0  0  0  0  0  0  0  0  0
   -4.8044   16.6543  -34.1703 H   0  0  0  0  0  0  0  0  0  0  0  0
   -5.7559   17.3715  -35.5146 H   0  0  0  0  0  0  0  0  0  0  0  0
   -3.9642   17.4990  -35.5146 H   0  0  0  0  0  0  0  0  0  0  0  0
   -2.8577   19.0734  -34.1598 H   0  0  0  0  0  0  0  0  0  0  0  0
   -2.5306   21.4907  -31.7233 H   0  0  0  0  0  0  0  0  0  0  0  0
   -1.7703   20.9070  -33.2426 H   0  0  0  0  0  0  0  0  0  0  0  0
   -2.7237   22.4294  -33.2426 H   0  0  0  0  0  0  0  0  0  0  0  0
  1  2  1  0
  2  3  1  0
  3  4  1  0
  4  5  1  0
  5  6  1  0
  6  7  2  0
  7  8  1  0
  8  9  2  0
  9 10  1  0
  9 11  1  0
 11 12  2  0
 12 13  1  0
 13 14  2  0
 14 15  1  0
 14 16  1  0
 16 17  2  0
 17 18  1  0
 17 19  1  0
 19  7  1  0
 19 12  1  0
  1 20  1  0
  1 21  1  0
  1 22  1  0
  2 23  1  0
  2 24  1  0
  3 25  1  0
  4 26  1  0
  4 27  1  0
  5 28  1  0
  5 29  1  0
  8 30  1  0
 10 31  1  0
 10 32  1  0
 10 33  1  0
 15 34  1  0
 15 35  1  0
 15 36  1  0
 16 37  1  0
 18 38  1  0
 18 39  1  0
 18 40  1  0
M  END
>  <smiles>  (4) 
CCNCCN=c1cc(C)nc2nc(C)cc(C)n12

>  <score_type>  (4) 
oracle

>  <origin>  (4) 
adg

>  <m_score__min__energy>  (4) 
-7.5899999999999999

>  <m_primary>  (4) 
energy

$$$$
4:0
     RDKit          3D

 33 34  0  0  0  0  0  0  0  0999 V2000
   -1.8190   25.6470  -28.9760 O   0  0  0  0  0  0  0  0  0  0  0  0
   -2.7310   24.8180  -29.2430 C   0  0  0  0  0  0  0  0  0  0  0  0
   -2.9670   23.6560  -28.3300 C   0  0  0  0  0  0  0  0  0  0  0  0
   -1.6770   22.8820  -28.0360 C   0  0  0  0  0  0  0  0  0  0  0  0
   -1.6960   21.5590  -28.7120 N   0  0  0  0  0  0  0  0  0  0  0  0
   -0.6410   20.6680  -28.2000 C   0  0  0  0  0  0  0  0  0  0  0  0
   -1.2430   19.8080  -27.0930 C   0  0  0  0  0  0  0  0  0  0  0  0
   -2.7420   20.0120  -27.1910 C   0  0  0  0  0  0  0  0  0  0  0  0
   -2.9450   20.8270  -28.4540 C   0  0  0  0  0  0  0  0  0  0  0  0
   -3.4830   24.9270  -30.4550 N   0  0  0  0  0  0  0  0  0  0  0  0
   -4.5260   24.0250  -30.8420 C   0  0  0  0  0  0  0  0  0  0  0  0
   -4.1770   22.8400  -31.5020 C   0  0  0  0  0  0  0  0  0  0  0  0
   -5.1630   21.9330  -31.8970 C   0  0  0  0  0  0  0  0  0  0  0  0
   -6.5060   22.1960  -31.6200 C   0  0  0  0  0  0  0  0  0  0  0  0
   -6.8630   23.3600  -30.9340 C   0  0  0  0  0  0  0  0  0  0  0  0
   -5.8810   24.2750  -30.5350 C   0  0  0  0  0  0  0  0  0  0  0  0
   -6.3740   25.6680  -29.5780 Cl  0  0  0  0  0  0  0  0  0  0  0  0
   -3.3810   24.0286  -27.3814 H   0  0  0  0  0  0  0  0  0  0  0  0
   -3.6672   22.9700  -28.8291 H   0  0  0  0  0  0  0  0  0  0  0  0
   -0.8163   23.4620  -28.4004 H   0  0  0  0  0  0  0  0  0  0  0  0
   -1.5972   22.7246  -26.9502 H   0  0  0  0  0  0  0  0  0  0  0  0
   -0.2698   20.0249  -29.0116 H   0  0  0  0  0  0  0  0  0  0  0  0
    0.2002   21.2590  -27.8087 H   0  0  0  0  0  0  0  0  0  0  0  0
   -0.9883   18.7491  -27.2474 H   0  0  0  0  0  0  0  0  0  0  0  0
   -0.8569   20.0895  -26.1022 H   0  0  0  0  0  0  0  0  0  0  0  0
   -3.2597   19.0445  -27.2677 H   0  0  0  0  0  0  0  0  0  0  0  0
   -3.1493   20.5174  -26.3029 H   0  0  0  0  0  0  0  0  0  0  0  0
   -3.1712   20.1602  -29.2991 H   0  0  0  0  0  0  0  0  0  0  0  0
   -3.7862   21.5255  -28.3338 H   0  0  0  0  0  0  0  0  0  0  0  0
   -3.1192   22.6221  -31.7107 H   0  0  0  0  0  0  0  0  0  0  0  0
   -4.8813   21.0110  -32.4266 H   0  0  0  0  0  0  0  0  0  0  0  0
   -7.2830   21.4870  -31.9417 H   0  0  0  0  0  0  0  0  0  0  0  0
   -7.9207   23.5584  -30.7063 H   0  0  0  0  0  0  0  0  0  0  0  0
  1  2  2  0
  2  3  1  0
  3  4  1  0
  4  5  1  0
  5  6  1  0
  6  7  1  0
  7  8  1  0
  8  9  1  0
  2 10  1  0
 10 11  1  0
 11 12  2  0
 12 13  1  0
 13 14  2  0
 14 15  1  0
 15 16  2  0
 16 17  1  0
  9  5  1  0
 16 11  1  0
  3 18  1  0
  3 19  1  0
  4 20  1  0
  4 21  1  0
  6 22  1  0
  6 23  1  0
  7 24  1  0
  7 25  1  0
  8 26  1  0
  8 27  1  0
  9 28  1  0
  9 29  1  0
 12 30  1  0
 13 31  1  0
 14 32  1  0
 15 33  1  0
M  CHG  1  10  -1
M  END
>  <UniqueID>  (5) 
4

>  <SMILES>  (5) 
O=C(CCN1CCCC1)[N-]c1ccccc1Cl

>  <Energy>  (5) 
40.33982032573075

>  <Genealogy>  (5) 
O=C(CCN1CCCC1)[N-]c1ccccc1Cl (protonated)
O=C(CCN1CCCC1)[N-]c1ccccc1Cl (3D coordinates assigned)
O=C(CCN1CCCC1)[N-]c1ccccc1Cl (nonaromatic ring conformer: 40.33982032573075 kcal/mol)

>  <smiles>  (5) 
O=C(CCN1CCCC1)Nc1ccccc1Cl

>  <score_type>  (5) 
oracle

>  <origin>  (5) 
adg

>  <m_score__min__energy>  (5) 
-8.1799999999999997

>  <m_primary>  (5) 
energy

$$$$
5:0
     RDKit          3D

 65 67  0  0  0  0  0  0  0  0999 V2000
   -4.5900   14.7050  -32.3550 C   0  0  0  0  0  0  0  0  0  0  0  0
   -5.5450   15.1870  -33.4380 C   0  0  0  0  0  0  0  0  0  0  0  0
   -5.6990   16.6560  -33.3400 N   0  0  0  0  0  0  0  0  0  0  0  0
   -4.7590   17.4240  -34.1820 C   0  0  0  0  0  0  0  0  0  0  0  0
   -5.4870   18.0900  -35.3480 C   0  0  0  0  0  0  0  0  0  0  0  0
   -7.1040   17.1250  -33.4110 C   0  0  0  0  0  0  0  0  0  0  0  0
   -7.6580   17.7870  -32.1220 C   0  0  0  0  0  0  0  0  0  0  0  0
   -8.8800   18.6980  -32.3240 C   0  0  0  0  0  0  0  0  0  0  0  0
   -8.5300   19.9440  -33.0130 N   0  0  0  0  0  0  0  0  0  0  0  0
   -7.7720   21.0030  -32.4040 C   0  0  0  0  0  0  0  0  0  0  0  0
   -8.4320   22.0570  -31.7510 C   0  0  0  0  0  0  0  0  0  0  0  0
   -7.7100   23.0710  -31.1240 C   0  0  0  0  0  0  0  0  0  0  0  0
   -6.3100   23.0550  -31.1380 C   0  0  0  0  0  0  0  0  0  0  0  0
   -5.5850   24.0760  -30.5050 C   0  0  0  0  0  0  0  0  0  0  0  0
   -4.1850   24.0860  -30.5480 C   0  0  0  0  0  0  0  0  0  0  0  0
   -3.4790   25.1390  -29.8790 N   0  0  0  0  0  0  0  0  0  0  0  0
   -2.3990   24.9580  -28.9570 C   0  0  0  0  0  0  0  0  0  0  0  0
   -1.2910   25.5290  -29.1520 O   0  0  0  0  0  0  0  0  0  0  0  0
   -2.6280   24.1680  -27.7010 C   0  0  0  0  0  0  0  0  0  0  0  0
   -2.5280   25.0380  -26.4400 C   0  0  0  0  0  0  0  0  0  0  0  0
   -1.1150   25.3740  -26.1330 N   0  0  0  0  0  0  0  0  0  0  0  0
   -0.7900   25.1210  -24.7170 C   0  0  0  0  0  0  0  0  0  0  0  0
   -0.9080   26.4410  -23.9560 C   0  0  0  0  0  0  0  0  0  0  0  0
   -1.1270   27.5060  -25.0130 C   0  0  0  0  0  0  0  0  0  0  0  0
   -0.8510   26.8060  -26.3310 C   0  0  0  0  0  0  0  0  0  0  0  0
   -3.5060   23.0430  -31.1980 C   0  0  0  0  0  0  0  0  0  0  0  0
   -4.2190   22.0140  -31.8180 C   0  0  0  0  0  0  0  0  0  0  0  0
   -5.6250   22.0070  -31.7990 C   0  0  0  0  0  0  0  0  0  0  0  0
   -6.3570   20.9790  -32.4300 C   0  0  0  0  0  0  0  0  0  0  0  0
   -5.6650   19.9600  -33.0970 O   0  0  0  0  0  0  0  0  0  0  0  0
   -5.0187   14.9214  -31.3653 H   0  0  0  0  0  0  0  0  0  0  0  0
   -4.4353   13.6209  -32.4585 H   0  0  0  0  0  0  0  0  0  0  0  0
   -3.6259   15.2245  -32.4585 H   0  0  0  0  0  0  0  0  0  0  0  0
   -5.1403   14.9256  -34.4269 H   0  0  0  0  0  0  0  0  0  0  0  0
   -6.5249   14.7053  -33.3046 H   0  0  0  0  0  0  0  0  0  0  0  0
   -4.2777   18.1997  -33.5683 H   0  0  0  0  0  0  0  0  0  0  0  0
   -4.0066   16.7319  -34.5881 H   0  0  0  0  0  0  0  0  0  0  0  0
   -6.2459   18.7842  -34.9580 H   0  0  0  0  0  0  0  0  0  0  0  0
   -4.7635   18.6454  -35.9629 H   0  0  0  0  0  0  0  0  0  0  0  0
   -5.9759   17.3200  -35.9629 H   0  0  0  0  0  0  0  0  0  0  0  0
   -7.1740   17.8608  -34.2257 H   0  0  0  0  0  0  0  0  0  0  0  0
   -7.7135   16.2233  -33.5708 H   0  0  0  0  0  0  0  0  0  0  0  0
   -7.9430   16.9859  -31.4241 H   0  0  0  0  0  0  0  0  0  0  0  0
   -6.8542   18.4358  -31.7438 H   0  0  0  0  0  0  0  0  0  0  0  0
   -9.6289   18.1594  -32.9232 H   0  0  0  0  0  0  0  0  0  0  0  0
   -9.2762   18.9590  -31.3316 H   0  0  0  0  0  0  0  0  0  0  0  0
   -8.8480   20.0580  -34.0010 H   0  0  0  0  0  0  0  0  0  0  0  0
   -9.5316   22.0825  -31.7343 H   0  0  0  0  0  0  0  0  0  0  0  0
   -8.2428   23.8881  -30.6155 H   0  0  0  0  0  0  0  0  0  0  0  0
   -6.1203   24.8748  -29.9708 H   0  0  0  0  0  0  0  0  0  0  0  0
   -3.6316   23.7197  -27.7430 H   0  0  0  0  0  0  0  0  0  0  0  0
   -1.8461   23.3967  -27.6409 H   0  0  0  0  0  0  0  0  0  0  0  0
   -3.0919   25.9688  -26.6001 H   0  0  0  0  0  0  0  0  0  0  0  0
   -2.9450   24.4741  -25.5926 H   0  0  0  0  0  0  0  0  0  0  0  0
   -1.4939   24.3862  -24.2991 H   0  0  0  0  0  0  0  0  0  0  0  0
    0.2308   24.7210  -24.6274 H   0  0  0  0  0  0  0  0  0  0  0  0
   -1.7607   26.4086  -23.2618 H   0  0  0  0  0  0  0  0  0  0  0  0
   -0.0097   26.6446  -23.3546 H   0  0  0  0  0  0  0  0  0  0  0  0
   -2.1620   27.8772  -24.9806 H   0  0  0  0  0  0  0  0  0  0  0  0
   -0.4766   28.3803  -24.8628 H   0  0  0  0  0  0  0  0  0  0  0  0
   -1.5122   27.2052  -27.1142 H   0  0  0  0  0  0  0  0  0  0  0  0
    0.1903   26.9686  -26.6460 H   0  0  0  0  0  0  0  0  0  0  0  0
   -2.4062   23.0361  -31.2192 H   0  0  0  0  0  0  0  0  0  0  0  0
   -3.6762   21.2027  -32.3251 H   0  0  0  0  0  0  0  0  0  0  0  0
   -4.9360   20.1330  -33.7740 H   0  0  0  0  0  0  0  0  0  0  0  0
  1  2  1  0
  2  3  1  0
  3  4  1  0
  4  5  1  0
  3  6  1  0
  6  7  1  0
  7  8  1  0
  8  9  1  0
  9 10  1  0
 10 11  2  0
 11 12  1  0
 12 13  2  0
 13 14  1  0
 14 15  2  0
 15 16  1  0
 16 17  1  0
 17 18  2  0
 17 19  1  0
 19 20  1  0
 20 21  1  0
 21 22  1  0
 22 23  1  0
 23 24  1  0
 24 25  1  0
 15 26  1  0
 26 27  2  0
 27 28  1  0
 28 29  2  0
 29 30  1  0
 29 10  1  0
 28 13  1  0
 25 21  1  0
  1 31  1  0
  1 32  1  0
  1 33  1  0
  2 34  1  0
  2 35  1  0
  4 36  1  0
  4 37  1  0
  5 38  1  0
  5 39  1  0
  5 40  1  0
  6 41  1  0
  6 42  1  0
  7 43  1  0
  7 44  1  0
  8 45  1  0
  8 46  1  0
  9 47  1  0
 11 48  1  0
 12 49  1  0
 14 50  1  0
 19 51  1  0
 19 52  1  0
 20 53  1  0
 20 54  1  0
 22 55  1  0
 22 56  1  0
 23 57  1  0
 23 58  1  0
 24 59  1  0
 24 60  1  0
 25 61  1  0
 25 62  1  0
 26 63  1  0
 27 64  1  0
 30 65  1  0
M  CHG  1  16  -1
M  END
>  <UniqueID>  (6) 
5

>  <SMILES>  (6) 
CCN(CC)CCCNc1ccc2cc([N-]C(=O)CCN3CCCC3)ccc2c1O

>  <Energy>  (6) 
77.08247520772717

>  <Genealogy>  (6) 
CCN(CC)CCCNc1ccc2cc([N-]C(=O)CCN3CCCC3)ccc2c1O (protonated)
CCN(CC)CCCNc1ccc2cc([N-]C(=O)CCN3CCCC3)ccc2c1O (3D coordinates assigned)
CCN(CC)CCCNc1ccc2cc([N-]C(=O)CCN3CCCC3)ccc2c1O (nonaromatic ring conformer: 77.08247520772717 kcal/mol)

>  <smiles>  (6) 
CCN(CC)CCCNc1ccc2cc(NC(=O)CCN3CCCC3)ccc2c1O

>  <score_type>  (6) 
oracle

>  <origin>  (6) 
adg

>  <m_score__min__energy>  (6) 
-10.460000000000001

>  <m_primary>  (6) 
energy

$$$$
6:0
     RDKit          3D

 35 36  0  0  0  0  0  0  0  0999 V2000
   -7.6220   22.3770  -29.7300 C   0  0  0  0  0  0  0  0  0  0  0  0
   -7.2340   22.4150  -31.1500 N   0  0  0  0  0  0  0  0  0  0  0  0
   -7.0120   23.8120  -31.6050 C   0  0  0  0  0  0  0  0  0  0  0  0
   -6.1450   24.5670  -30.5940 C   0  0  0  0  0  0  0  0  0  0  0  0
   -4.6810   24.3110  -30.8240 C   0  0  0  0  0  0  0  0  0  0  0  0
   -3.8800   25.2810  -30.7600 O   0  0  0  0  0  0  0  0  0  0  0  0
   -4.1460   22.9560  -31.0630 C   0  0  0  0  0  0  0  0  0  0  0  0
   -3.6400   22.0680  -30.1170 C   0  0  0  0  0  0  0  0  0  0  0  0
   -3.1920   20.8630  -30.6690 C   0  0  0  0  0  0  0  0  0  0  0  0
   -3.3400   20.7890  -32.0480 C   0  0  0  0  0  0  0  0  0  0  0  0
   -4.0300   22.2260  -32.5760 S   0  0  0  0  0  0  0  0  0  0  0  0
   -8.2380   21.7110  -31.9740 C   0  0  0  0  0  0  0  0  0  0  0  0
   -7.7110   20.3670  -32.4040 C   0  0  0  0  0  0  0  0  0  0  0  0
   -8.2570   19.1810  -31.8860 C   0  0  0  0  0  0  0  0  0  0  0  0
   -7.7840   17.9400  -32.3210 C   0  0  0  0  0  0  0  0  0  0  0  0
   -6.7650   17.8720  -33.2760 C   0  0  0  0  0  0  0  0  0  0  0  0
   -6.1760   16.3130  -33.8240 Cl  0  0  0  0  0  0  0  0  0  0  0  0
   -6.2160   19.0490  -33.7950 C   0  0  0  0  0  0  0  0  0  0  0  0
   -6.6860   20.2910  -33.3600 C   0  0  0  0  0  0  0  0  0  0  0  0
   -6.7233   22.4650  -29.1019 H   0  0  0  0  0  0  0  0  0  0  0  0
   -8.3038   23.2127  -29.5137 H   0  0  0  0  0  0  0  0  0  0  0  0
   -8.1287   21.4249  -29.5137 H   0  0  0  0  0  0  0  0  0  0  0  0
   -6.5046   23.7998  -32.5809 H   0  0  0  0  0  0  0  0  0  0  0  0
   -7.9842   24.3191  -31.6929 H   0  0  0  0  0  0  0  0  0  0  0  0
   -6.3390   25.6453  -30.6916 H   0  0  0  0  0  0  0  0  0  0  0  0
   -6.4031   24.2125  -29.5852 H   0  0  0  0  0  0  0  0  0  0  0  0
   -3.5968   22.2921  -29.0409 H   0  0  0  0  0  0  0  0  0  0  0  0
   -2.7622   20.0493  -30.0664 H   0  0  0  0  0  0  0  0  0  0  0  0
   -3.0549   19.9376  -32.6835 H   0  0  0  0  0  0  0  0  0  0  0  0
   -9.1562   21.5694  -31.3850 H   0  0  0  0  0  0  0  0  0  0  0  0
   -8.4536   22.3139  -32.8684 H   0  0  0  0  0  0  0  0  0  0  0  0
   -9.0596   19.2292  -31.1354 H   0  0  0  0  0  0  0  0  0  0  0  0
   -8.2144   17.0144  -31.9111 H   0  0  0  0  0  0  0  0  0  0  0  0
   -5.4139   18.9970  -34.5459 H   0  0  0  0  0  0  0  0  0  0  0  0
   -6.2502   21.2144  -33.7691 H   0  0  0  0  0  0  0  0  0  0  0  0
  1  2  1  0
  2  3  1  0
  3  4  1  0
  4  5  1  0
  5  6  2  0
  5  7  1  0
  7  8  2  0
  8  9  1  0
  9 10  2  0
 10 11  1  0
  2 12  1  0
 12 13  1  0
 13 14  2  0
 14 15  1  0
 15 16  2  0
 16 17  1  0
 16 18  1  0
 18 19  2  0
 11  7  1  0
 19 13  1  0
  1 20  1  0
  1 21  1  0
  1 22  1  0
  3 23  1  0
  3 24  1  0
  4 25  1  0
  4 26  1  0
  8 27  1  0
  9 28  1  0
 10 29  1  0
 12 30  1  0
 12 31  1  0
 14 32  1  0
 15 33  1  0
 18 34  1  0
 19 35  1  0
M  END
>  <UniqueID>  (7) 
6

>  <SMILES>  (7) 
CN(CCC(=O)c1cccs1)Cc1ccc(Cl)cc1

>  <Energy>  (7) 
58.56943285517414

>  <Genealogy>  (7) 
CN(CCC(=O)c1cccs1)Cc1ccc(Cl)cc1 (3D coordinates assigned)
CN(CCC(=O)c1cccs1)Cc1ccc(Cl)cc1 (optimized conformer: 58.56943285517414 kcal/mol)

>  <smiles>  (7) 
CN(CCC(=O)c1cccs1)Cc1ccc(Cl)cc1

>  <score_type>  (7) 
oracle

>  <origin>  (7) 
adg

>  <m_score__min__energy>  (7) 
-7.7199999999999998

>  <m_primary>  (7) 
energy

$$$$
7:0
     RDKit          3D

 33 34  0  0  0  0  0  0  0  0999 V2000
   -5.4760   25.5730  -30.4430 C   0  0  0  0  0  0  0  0  0  0  0  0
   -4.9490   24.4890  -31.2010 O   0  0  0  0  0  0  0  0  0  0  0  0
   -5.6130   23.2710  -31.4070 C   0  0  0  0  0  0  0  0  0  0  0  0
   -4.9230   22.0570  -31.5970 C   0  0  0  0  0  0  0  0  0  0  0  0
   -5.6310   20.8700  -31.8000 C   0  0  0  0  0  0  0  0  0  0  0  0
   -7.0310   20.8760  -31.8190 C   0  0  0  0  0  0  0  0  0  0  0  0
   -7.9060   19.3750  -32.0950 S   0  0  0  0  0  0  0  0  0  0  0  0
   -8.8810   19.5270  -33.2290 O   0  0  0  0  0  0  0  0  0  0  0  0
   -8.6630   19.0190  -30.8460 O   0  0  0  0  0  0  0  0  0  0  0  0
   -6.7820   18.1120  -32.4820 N   0  0  0  0  0  0  0  0  0  0  0  0
   -6.4720   17.1200  -31.6650 N   0  0  0  0  0  0  0  0  0  0  0  0
   -5.5510   16.3450  -32.2680 C   0  0  0  0  0  0  0  0  0  0  0  0
   -4.9920   15.0900  -31.6850 C   0  0  0  0  0  0  0  0  0  0  0  0
   -5.2750   16.8520  -33.5260 C   0  0  0  0  0  0  0  0  0  0  0  0
   -6.0790   17.9750  -33.6270 C   0  0  0  0  0  0  0  0  0  0  0  0
   -6.1080   18.9250  -34.7830 C   0  0  0  0  0  0  0  0  0  0  0  0
   -7.7200   22.0810  -31.6280 C   0  0  0  0  0  0  0  0  0  0  0  0
   -7.0130   23.2700  -31.4240 C   0  0  0  0  0  0  0  0  0  0  0  0
   -5.3703   25.3556  -29.3699 H   0  0  0  0  0  0  0  0  0  0  0  0
   -4.9247   26.4931  -30.6868 H   0  0  0  0  0  0  0  0  0  0  0  0
   -6.5402   25.7077  -30.6868 H   0  0  0  0  0  0  0  0  0  0  0  0
   -3.8231   22.0440  -31.5854 H   0  0  0  0  0  0  0  0  0  0  0  0
   -5.0858   19.9258  -31.9457 H   0  0  0  0  0  0  0  0  0  0  0  0
   -6.8800   16.9760  -30.7150 H   0  0  0  0  0  0  0  0  0  0  0  0
   -5.0195   15.1517  -30.5871 H   0  0  0  0  0  0  0  0  0  0  0  0
   -5.5927   14.2312  -32.0191 H   0  0  0  0  0  0  0  0  0  0  0  0
   -3.9518   14.9621  -32.0191 H   0  0  0  0  0  0  0  0  0  0  0  0
   -4.5756   16.4533  -34.2756 H   0  0  0  0  0  0  0  0  0  0  0  0
   -6.1395   19.9585  -34.4076 H   0  0  0  0  0  0  0  0  0  0  0  0
   -5.2052   18.7848  -35.3956 H   0  0  0  0  0  0  0  0  0  0  0  0
   -7.0006   18.7300  -35.3956 H   0  0  0  0  0  0  0  0  0  0  0  0
   -8.8199   22.0917  -31.6386 H   0  0  0  0  0  0  0  0  0  0  0  0
   -7.5611   24.2121  -31.2757 H   0  0  0  0  0  0  0  0  0  0  0  0
  1  2  1  0
  2  3  1  0
  3  4  2  0
  4  5  1  0
  5  6  2  0
  6  7  1  0
  7  8  2  0
  7  9  2  0
  7 10  1  0
 10 11  1  0
 11 12  2  0
 12 13  1  0
 12 14  1  0
 14 15  2  0
 15 16  1  0
  6 17  1  0
 17 18  2  0
 18  3  1  0
 15 10  1  0
  1 19  1  0
  1 20  1  0
  1 21  1  0
  4 22  1  0
  5 23  1  0
 11 24  1  0
 13 25  1  0
 13 26  1  0
 13 27  1  0
 14 28  1  0
 16 29  1  0
 16 30  1  0
 16 31  1  0
 17 32  1  0
 18 33  1  0
M  CHG  1  11   1
M  END
>  <UniqueID>  (8) 
7

>  <SMILES>  (8) 
COc1ccc(S(=O)(=O)n2[nH+]c(C)cc2C)cc1

>  <Energy>  (8) 
61.79743819390434

>  <Genealogy>  (8) 
COc1ccc(S(=O)(=O)n2[nH+]c(C)cc2C)cc1 (protonated)
COc1ccc(S(=O)(=O)n2[nH+]c(C)cc2C)cc1 (3D coordinates assigned)
COc1ccc(S(=O)(=O)n2[nH+]c(C)cc2C)cc1 (optimized conformer: 61.79743819390434 kcal/mol)

>  <smiles>  (8) 
COc1ccc(S(=O)(=O)n2nc(C)cc2C)cc1

>  <score_type>  (8) 
oracle

>  <origin>  (8) 
adg

>  <m_score__min__energy>  (8) 
-7.5499999999999998

>  <m_primary>  (8) 
energy

$$$$
8:0
     RDKit          3D

 59 63  0  0  0  0  0  0  0  0999 V2000
    2.2740   22.3990  -35.3230 C   0  0  0  0  0  0  0  0  0  0  0  0
    0.8950   22.4890  -34.9760 O   0  0  0  0  0  0  0  0  0  0  0  0
    0.0920   21.3880  -34.6380 C   0  0  0  0  0  0  0  0  0  0  0  0
   -0.8910   21.5570  -33.6550 C   0  0  0  0  0  0  0  0  0  0  0  0
   -1.7370   20.5010  -33.3040 C   0  0  0  0  0  0  0  0  0  0  0  0
   -1.6120   19.2520  -33.9350 C   0  0  0  0  0  0  0  0  0  0  0  0
   -2.5740   18.1350  -33.6240 C   0  0  0  0  0  0  0  0  0  0  0  0
   -3.8730   18.3580  -34.2940 N   0  0  0  0  0  0  0  0  0  0  0  0
   -4.6680   17.1100  -34.4000 C   0  0  0  0  0  0  0  0  0  0  0  0
   -5.7290   16.9990  -33.2960 C   0  0  0  0  0  0  0  0  0  0  0  0
   -6.6970   18.1270  -33.3420 N   0  0  0  0  0  0  0  0  0  0  0  0
   -7.3290   18.3440  -32.0230 C   0  0  0  0  0  0  0  0  0  0  0  0
   -7.9740   19.7050  -31.9640 C   0  0  0  0  0  0  0  0  0  0  0  0
   -9.3180   19.8950  -32.3480 C   0  0  0  0  0  0  0  0  0  0  0  0
   -9.8900   21.1810  -32.3380 C   0  0  0  0  0  0  0  0  0  0  0  0
   -9.1140   22.2790  -31.9470 C   0  0  0  0  0  0  0  0  0  0  0  0
   -7.8230   22.0560  -31.5900 N   0  0  0  0  0  0  0  0  0  0  0  0
   -6.8830   22.9200  -31.1870 C   0  0  0  0  0  0  0  0  0  0  0  0
   -5.7260   22.1820  -30.9430 C   0  0  0  0  0  0  0  0  0  0  0  0
   -4.4200   22.7020  -30.4700 C   0  0  0  0  0  0  0  0  0  0  0  0
   -3.2220   21.9980  -30.7020 C   0  0  0  0  0  0  0  0  0  0  0  0
   -2.0000   22.5150  -30.2570 C   0  0  0  0  0  0  0  0  0  0  0  0
   -1.9580   23.7340  -29.5770 C   0  0  0  0  0  0  0  0  0  0  0  0
   -3.1390   24.4410  -29.3400 C   0  0  0  0  0  0  0  0  0  0  0  0
   -4.3620   23.9310  -29.7840 C   0  0  0  0  0  0  0  0  0  0  0  0
   -5.9560   20.8700  -31.2010 N   0  0  0  0  0  0  0  0  0  0  0  0
   -7.2490   20.8420  -31.5900 C   0  0  0  0  0  0  0  0  0  0  0  0
   -6.1150   19.3770  -33.8880 C   0  0  0  0  0  0  0  0  0  0  0  0
   -4.6040   19.4660  -33.6370 C   0  0  0  0  0  0  0  0  0  0  0  0
   -0.6110   19.0700  -34.8990 C   0  0  0  0  0  0  0  0  0  0  0  0
    0.2360   20.1280  -35.2510 C   0  0  0  0  0  0  0  0  0  0  0  0
    2.8809   22.3594  -34.4064 H   0  0  0  0  0  0  0  0  0  0  0  0
    2.4444   21.4878  -35.9152 H   0  0  0  0  0  0  0  0  0  0  0  0
    2.5613   23.2803  -35.9152 H   0  0  0  0  0  0  0  0  0  0  0  0
   -0.9985   22.5304  -33.1541 H   0  0  0  0  0  0  0  0  0  0  0  0
   -2.5044   20.6487  -32.5299 H   0  0  0  0  0  0  0  0  0  0  0  0
   -2.1468   17.1835  -33.9735 H   0  0  0  0  0  0  0  0  0  0  0  0
   -2.7390   18.1047  -32.5369 H   0  0  0  0  0  0  0  0  0  0  0  0
   -5.1719   17.0936  -35.3777 H   0  0  0  0  0  0  0  0  0  0  0  0
   -3.9775   16.2609  -34.2894 H   0  0  0  0  0  0  0  0  0  0  0  0
   -6.2776   16.0541  -33.4236 H   0  0  0  0  0  0  0  0  0  0  0  0
   -5.2145   17.0306  -32.3242 H   0  0  0  0  0  0  0  0  0  0  0  0
   -8.0956   17.5727  -31.8577 H   0  0  0  0  0  0  0  0  0  0  0  0
   -6.5553   18.2830  -31.2435 H   0  0  0  0  0  0  0  0  0  0  0  0
   -9.9241   19.0309  -32.6578 H   0  0  0  0  0  0  0  0  0  0  0  0
  -10.9396   21.3225  -32.6353 H   0  0  0  0  0  0  0  0  0  0  0  0
   -9.5383   23.2937  -31.9295 H   0  0  0  0  0  0  0  0  0  0  0  0
   -7.0015   24.0074  -31.0704 H   0  0  0  0  0  0  0  0  0  0  0  0
   -3.2472   21.0366  -31.2359 H   0  0  0  0  0  0  0  0  0  0  0  0
   -1.0693   21.9592  -30.4435 H   0  0  0  0  0  0  0  0  0  0  0  0
   -0.9957   24.1370  -29.2283 H   0  0  0  0  0  0  0  0  0  0  0  0
   -3.1064   25.4005  -28.8031 H   0  0  0  0  0  0  0  0  0  0  0  0
   -5.2879   24.4944  -29.5961 H   0  0  0  0  0  0  0  0  0  0  0  0
   -6.2972   19.4094  -34.9723 H   0  0  0  0  0  0  0  0  0  0  0  0
   -6.5943   20.2256  -33.3780 H   0  0  0  0  0  0  0  0  0  0  0  0
   -4.2326   20.4225  -34.0334 H   0  0  0  0  0  0  0  0  0  0  0  0
   -4.4319   19.3949  -32.5529 H   0  0  0  0  0  0  0  0  0  0  0  0
   -0.4899   18.0893  -35.3823 H   0  0  0  0  0  0  0  0  0  0  0  0
    1.0175   19.9745  -36.0098 H   0  0  0  0  0  0  0  0  0  0  0  0
  1  2  1  0
  2  3  1  0
  3  4  2  0
  4  5  1  0
  5  6  2  0
  6  7  1  0
  7  8  1  0
  8  9  1  0
  9 10  1  0
 10 11  1  0
 11 12  1  0
 12 13  1  0
 13 14  2  0
 14 15  1  0
 15 16  2  0
 16 17  1  0
 17 18  1  0
 18 19  2  0
 19 20  1  0
 20 21  2  0
 21 22  1  0
 22 23  2  0
 23 24  1  0
 24 25  2  0
 19 26  1  0
 26 27  2  0
 11 28  1  0
 28 29  1  0
  6 30  1  0
 30 31  2  0
 31  3  1  0
 29  8  1  0
 27 13  1  0
 27 17  1  0
 25 20  1  0
  1 32  1  0
  1 33  1  0
  1 34  1  0
  4 35  1  0
  5 36  1  0
  7 37  1  0
  7 38  1  0
  9 39  1  0
  9 40  1  0
 10 41  1  0
 10 42  1  0
 12 43  1  0
 12 44  1  0
 14 45  1  0
 15 46  1  0
 16 47  1  0
 18 48  1  0
 21 49  1  0
 22 50  1  0
 23 51  1  0
 24 52  1  0
 25 53  1  0
 28 54  1  0
 28 55  1  0
 29 56  1  0
 29 57  1  0
 30 58  1  0
 31 59  1  0
M  END
>  <UniqueID>  (9) 
8

>  <SMILES>  (9) 
COc1ccc(CN2CCN(Cc3cccn4cc(-c5ccccc5)nc34)CC2)cc1

>  <Energy>  (9) 
112.50039419869086

>  <Genealogy>  (9) 
COc1ccc(CN2CCN(Cc3cccn4cc(-c5ccccc5)nc34)CC2)cc1 (3D coordinates assigned)
COc1ccc(CN2CCN(Cc3cccn4cc(-c5ccccc5)nc34)CC2)cc1 (nonaromatic ring conformer: 112.50039419869086 kcal/mol)

>  <smiles>  (9) 
COc1ccc(CN2CCN(Cc3cccn4cc(-c5ccccc5)nc34)CC2)cc1

>  <score_type>  (9) 
oracle

>  <origin>  (9) 
adg

>  <m_score__min__energy>  (9) 
-9.6899999999999995

>  <m_primary>  (9) 
energy

$$$$
9:0
     RDKit          3D

 50 52  0  0  0  0  0  0  0  0999 V2000
   -2.0860   25.6900  -25.6650 C   0  0  0  0  0  0  0  0  0  0  0  0
   -0.9510   25.5900  -26.6780 C   0  0  0  0  0  0  0  0  0  0  0  0
   -1.4710   25.1490  -28.0160 C   0  0  0  0  0  0  0  0  0  0  0  0
   -1.2230   25.8490  -29.0330 O   0  0  0  0  0  0  0  0  0  0  0  0
   -2.2650   23.9520  -28.1370 N   0  0  0  0  0  0  0  0  0  0  0  0
   -3.7300   24.1130  -28.2080 C   0  0  0  0  0  0  0  0  0  0  0  0
   -4.4230   22.9220  -28.9000 C   0  0  0  0  0  0  0  0  0  0  0  0
   -3.5900   22.4090  -30.0630 C   0  0  0  0  0  0  0  0  0  0  0  0
   -4.1750   22.0530  -31.3000 C   0  0  0  0  0  0  0  0  0  0  0  0
   -5.6310   22.1360  -31.5260 C   0  0  0  0  0  0  0  0  0  0  0  0
   -6.3740   20.9540  -31.6710 C   0  0  0  0  0  0  0  0  0  0  0  0
   -7.7510   21.0090  -31.8910 C   0  0  0  0  0  0  0  0  0  0  0  0
   -8.4640   19.8630  -32.0360 F   0  0  0  0  0  0  0  0  0  0  0  0
   -8.3970   22.2460  -31.9650 C   0  0  0  0  0  0  0  0  0  0  0  0
   -7.6660   23.4300  -31.8200 C   0  0  0  0  0  0  0  0  0  0  0  0
   -6.2740   23.3870  -31.5990 C   0  0  0  0  0  0  0  0  0  0  0  0
   -5.5060   24.5550  -31.4470 O   0  0  0  0  0  0  0  0  0  0  0  0
   -5.7410   25.5510  -30.4580 C   0  0  0  0  0  0  0  0  0  0  0  0
   -3.3620   21.6080  -32.3480 C   0  0  0  0  0  0  0  0  0  0  0  0
   -1.9830   21.5080  -32.1790 C   0  0  0  0  0  0  0  0  0  0  0  0
   -1.3910   21.8350  -30.9590 C   0  0  0  0  0  0  0  0  0  0  0  0
   -0.0430   21.7350  -30.8790 F   0  0  0  0  0  0  0  0  0  0  0  0
   -2.1930   22.2650  -29.8730 C   0  0  0  0  0  0  0  0  0  0  0  0
   -1.6840   22.6370  -28.4830 C   0  0  1  0  0  0  0  0  0  0  0  0
   -0.1610   22.5440  -28.2040 C   0  0  0  0  0  0  0  0  0  0  0  0
    0.2810   21.1190  -27.8390 C   0  0  0  0  0  0  0  0  0  0  0  0
   -0.8340   20.3250  -27.5430 O   0  0  0  0  0  0  0  0  0  0  0  0
   -1.6725   25.6536  -24.6463 H   0  0  0  0  0  0  0  0  0  0  0  0
   -2.6234   26.6390  -25.8089 H   0  0  0  0  0  0  0  0  0  0  0  0
   -2.7810   24.8496  -25.8089 H   0  0  0  0  0  0  0  0  0  0  0  0
   -0.4731   26.5751  -26.7832 H   0  0  0  0  0  0  0  0  0  0  0  0
   -0.2218   24.8483  -26.3200 H   0  0  0  0  0  0  0  0  0  0  0  0
   -4.1246   24.2049  -27.1853 H   0  0  0  0  0  0  0  0  0  0  0  0
   -3.9384   25.0132  -28.8048 H   0  0  0  0  0  0  0  0  0  0  0  0
   -4.5592   22.1109  -28.1695 H   0  0  0  0  0  0  0  0  0  0  0  0
   -5.3960   23.2589  -29.2871 H   0  0  0  0  0  0  0  0  0  0  0  0
   -5.8682   19.9791  -31.6109 H   0  0  0  0  0  0  0  0  0  0  0  0
   -9.4825   22.2888  -32.1376 H   0  0  0  0  0  0  0  0  0  0  0  0
   -8.1803   24.4006  -31.8788 H   0  0  0  0  0  0  0  0  0  0  0  0
   -5.6360   25.1062  -29.4575 H   0  0  0  0  0  0  0  0  0  0  0  0
   -5.0102   26.3646  -30.5761 H   0  0  0  0  0  0  0  0  0  0  0  0
   -6.7584   25.9521  -30.5761 H   0  0  0  0  0  0  0  0  0  0  0  0
   -3.8151   21.3351  -33.3125 H   0  0  0  0  0  0  0  0  0  0  0  0
   -1.3549   21.1679  -33.0155 H   0  0  0  0  0  0  0  0  0  0  0  0
   -2.0312   21.8411  -27.8077 H   0  0  0  0  0  0  0  0  0  0  0  0
    0.3834   22.8629  -29.1051 H   0  0  0  0  0  0  0  0  0  0  0  0
    0.0634   23.1950  -27.3462 H   0  0  0  0  0  0  0  0  0  0  0  0
    0.8247   20.6790  -28.6880 H   0  0  0  0  0  0  0  0  0  0  0  0
    0.9342   21.1624  -26.9550 H   0  0  0  0  0  0  0  0  0  0  0  0
   -0.5790   19.3880  -27.7580 H   0  0  0  0  0  0  0  0  0  0  0  0
  1  2  1  0
  2  3  1  0
  3  4  2  0
  3  5  1  0
  5  6  1  0
  6  7  1  0
  7  8  1  0
  8  9  2  0
  9 10  1  0
 10 11  2  0
 11 12  1  0
 12 13  1  0
 12 14  2  0
 14 15  1  0
 15 16  2  0
 16 17  1  0
 17 18  1  0
  9 19  1  0
 19 20  2  0
 20 21  1  0
 21 22  1  0
 21 23  2  0
 23 24  1  0
 24 25  1  0
 25 26  1  0
 26 27  1  0
 24  5  1  0
 23  8  1  0
 16 10  1  0
  1 28  1  0
  1 29  1  0
  1 30  1  0
  2 31  1  0
  2 32  1  0
  6 33  1  0
  6 34  1  0
  7 35  1  0
  7 36  1  0
 11 37  1  0
 14 38  1  0
 15 39  1  0
 18 40  1  0
 18 41  1  0
 18 42  1  0
 19 43  1  0
 20 44  1  0
 24 45  1  1
 25 46  1  0
 25 47  1  0
 26 48  1  0
 26 49  1  0
 27 50  1  0
M  END
>  <UniqueID>  (10) 
9

>  <SMILES>  (10) 
CCC(=O)N1CCc2c(-c3cc(F)ccc3OC)ccc(F)c2[C@H]1CCO

>  <Energy>  (10) 
72.37167258420655

>  <Genealogy>  (10) 
CCC(=O)N1CCc2c(-c3cc(F)ccc3OC)ccc(F)c2[C@H]1CCO (chirality)
CCC(=O)N1CCc2c(-c3cc(F)ccc3OC)ccc(F)c2[C@H]1CCO (3D coordinates assigned)
CCC(=O)N1CCc2c(-c3cc(F)ccc3OC)ccc(F)c2[C@H]1CCO (nonaromatic ring conformer: 72.37167258420655 kcal/mol)

>  <smiles>  (10) 
CCC(=O)N1CCc2c(-c3cc(F)ccc3OC)ccc(F)c2C1CCO

>  <score_type>  (10) 
oracle

>  <origin>  (10) 
adg

>  <m_score__min__energy>  (10) 
-7.8700000000000001

>  <m_primary>  (10) 
energy

$$$$
10:0
     RDKit          3D

 47 49  0  0  0  0  0  0  0  0999 V2000
   -6.4940   16.5890  -34.1610 C   0  0  0  0  0  0  0  0  0  0  0  0
   -6.4780   17.9510  -33.5410 C   0  0  0  0  0  0  0  0  0  0  0  0
   -7.7860   18.6160  -32.7260 S   0  0  0  0  0  0  0  0  0  0  0  0
   -7.0320   20.0710  -32.3400 C   0  0  0  0  0  0  0  0  0  0  0  0
   -5.7320   20.0680  -32.8440 C   0  0  0  0  0  0  0  0  0  0  0  0
   -5.4110   18.8610  -33.5310 C   0  0  0  0  0  0  0  0  0  0  0  0
   -4.0810   18.5460  -34.1610 C   0  0  0  0  0  0  0  0  0  0  0  0
   -4.9200   21.2000  -32.6410 C   0  0  0  0  0  0  0  0  0  0  0  0
   -3.5990   21.2710  -33.1950 N   0  0  0  0  0  0  0  0  0  0  0  0
   -2.4360   20.8870  -32.3910 C   0  0  0  0  0  0  0  0  0  0  0  0
   -1.1030   21.3460  -33.0300 C   0  0  0  0  0  0  0  0  0  0  0  0
   -0.8760   20.9120  -34.4310 N   0  0  0  0  0  0  0  0  0  0  0  0
    0.2980   21.5540  -35.0510 C   0  0  0  0  0  0  0  0  0  0  0  0
   -0.8150   19.4480  -34.5780 C   0  0  0  0  0  0  0  0  0  0  0  0
   -5.4360   22.2800  -31.8860 C   0  0  0  0  0  0  0  0  0  0  0  0
   -4.6360   23.4040  -31.5930 C   0  0  0  0  0  0  0  0  0  0  0  0
   -5.1440   24.4700  -30.8540 C   0  0  0  0  0  0  0  0  0  0  0  0
   -6.4520   24.4340  -30.3860 C   0  0  0  0  0  0  0  0  0  0  0  0
   -7.2610   23.3300  -30.6440 C   0  0  0  0  0  0  0  0  0  0  0  0
   -6.7780   22.2280  -31.3930 C   0  0  0  0  0  0  0  0  0  0  0  0
   -7.5680   21.1220  -31.6420 N   0  0  0  0  0  0  0  0  0  0  0  0
   -8.9600   21.0600  -31.1530 C   0  0  0  0  0  0  0  0  0  0  0  0
   -6.5030   15.8257  -33.3690 H   0  0  0  0  0  0  0  0  0  0  0  0
   -7.3935   16.4807  -34.7849 H   0  0  0  0  0  0  0  0  0  0  0  0
   -5.5973   16.4596  -34.7849 H   0  0  0  0  0  0  0  0  0  0  0  0
   -3.3345   18.3692  -33.3726 H   0  0  0  0  0  0  0  0  0  0  0  0
   -4.1752   17.6453  -34.7854 H   0  0  0  0  0  0  0  0  0  0  0  0
   -3.7612   19.3932  -34.7854 H   0  0  0  0  0  0  0  0  0  0  0  0
   -3.4830   21.7020  -34.1390 H   0  0  0  0  0  0  0  0  0  0  0  0
   -2.5273   21.3454  -31.3953 H   0  0  0  0  0  0  0  0  0  0  0  0
   -2.4184   19.7890  -32.3275 H   0  0  0  0  0  0  0  0  0  0  0  0
   -1.0795   22.4456  -33.0091 H   0  0  0  0  0  0  0  0  0  0  0  0
   -0.3078   20.8706  -32.4370 H   0  0  0  0  0  0  0  0  0  0  0  0
   -1.7140   21.2310  -34.9750 H   0  0  0  0  0  0  0  0  0  0  0  0
    0.9724   21.9228  -34.2642 H   0  0  0  0  0  0  0  0  0  0  0  0
    0.8295   20.8210  -35.6756 H   0  0  0  0  0  0  0  0  0  0  0  0
   -0.0323   22.3970  -35.6756 H   0  0  0  0  0  0  0  0  0  0  0  0
   -0.7955   18.9801  -33.5827 H   0  0  0  0  0  0  0  0  0  0  0  0
   -1.6993   19.0978  -35.1306 H   0  0  0  0  0  0  0  0  0  0  0  0
    0.0954   19.1726  -35.1306 H   0  0  0  0  0  0  0  0  0  0  0  0
   -3.5971   23.4393  -31.9528 H   0  0  0  0  0  0  0  0  0  0  0  0
   -4.5085   25.3421  -30.6405 H   0  0  0  0  0  0  0  0  0  0  0  0
   -6.8504   25.2816  -29.8090 H   0  0  0  0  0  0  0  0  0  0  0  0
   -8.2917   23.3131  -30.2601 H   0  0  0  0  0  0  0  0  0  0  0  0
   -8.9625   21.0599  -30.0530 H   0  0  0  0  0  0  0  0  0  0  0  0
   -9.5171   21.9342  -31.5209 H   0  0  0  0  0  0  0  0  0  0  0  0
   -9.4372   20.1397  -31.5209 H   0  0  0  0  0  0  0  0  0  0  0  0
  1  2  1  0
  2  3  1  0
  3  4  1  0
  4  5  2  0
  5  6  1  0
  6  7  1  0
  5  8  1  0
  8  9  1  0
  9 10  1  0
 10 11  1  0
 11 12  1  0
 12 13  1  0
 12 14  1  0
  8 15  2  0
 15 16  1  0
 16 17  2  0
 17 18  1  0
 18 19  2  0
 19 20  1  0
 20 21  2  0
 21 22  1  0
  6  2  2  0
 20 15  1  0
 21  4  1  0
  1 23  1  0
  1 24  1  0
  1 25  1  0
  7 26  1  0
  7 27  1  0
  7 28  1  0
  9 29  1  0
 10 30  1  0
 10 31  1  0
 11 32  1  0
 11 33  1  0
 12 34  1  0
 13 35  1  0
 13 36  1  0
 13 37  1  0
 14 38  1  0
 14 39  1  0
 14 40  1  0
 16 41  1  0
 17 42  1  0
 18 43  1  0
 19 44  1  0
 22 45  1  0
 22 46  1  0
 22 47  1  0
M  CHG  2  12   1  21   1
M  END
>  <UniqueID>  (11) 
10

>  <SMILES>  (11) 
Cc1sc2c(c1C)c(NCC[NH+](C)C)c1ccccc1[n+]2C

>  <Energy>  (11) 
99.33243021148579

>  <Genealogy>  (11) 
Cc1sc2c(c1C)c(NCC[NH+](C)C)c1ccccc1[n+]2C (protonated)
Cc1sc2c(c1C)c(NCC[NH+](C)C)c1ccccc1[n+]2C (3D coordinates assigned)
Cc1sc2c(c1C)c(NCC[NH+](C)C)c1ccccc1[n+]2C (optimized conformer: 99.33243021148579 kcal/mol)

>  <smiles>  (11) 
Cc1sc2c(c1C)c(NCCN(C)C)c1ccccc1[n+]2C

>  <score_type>  (11) 
oracle

>  <origin>  (11) 
adg

>  <m_score__min__energy>  (11) 
-7.0599999999999996

>  <m_primary>  (11) 
energy

$$$$
11:0
     RDKit          3D

 40 43  0  0  0  0  0  0  0  0999 V2000
   -8.2310   18.7750  -32.2630 C   0  0  0  0  0  0  0  0  0  0  0  0
   -7.9100   20.2320  -32.0400 C   0  0  0  0  0  0  0  0  0  0  0  0
   -8.9940   21.1190  -31.8260 C   0  0  0  0  0  0  0  0  0  0  0  0
   -8.7750   22.4730  -31.5650 C   0  0  0  0  0  0  0  0  0  0  0  0
   -7.4680   22.9220  -31.5340 C   0  0  0  0  0  0  0  0  0  0  0  0
   -7.0650   24.1430  -31.2970 O   0  0  0  0  0  0  0  0  0  0  0  0
   -5.7550   24.1040  -31.3780 C   0  0  0  0  0  0  0  0  0  0  0  0
   -5.0280   25.1230  -31.2320 O   0  0  0  0  0  0  0  0  0  0  0  0
   -5.2700   22.8660  -31.6530 N   0  0  0  0  0  0  0  0  0  0  0  0
   -6.3860   22.1020  -31.7670 C   0  0  0  0  0  0  0  0  0  0  0  0
   -6.5590   20.7160  -32.0340 C   0  0  0  0  0  0  0  0  0  0  0  0
   -5.4290   19.7010  -32.1350 C   0  0  0  0  0  0  0  0  0  0  0  0
   -4.0580   20.2070  -32.5630 C   0  0  0  0  0  0  0  0  0  0  0  0
   -3.4910   21.2130  -31.6570 N   0  0  0  0  0  0  0  0  0  0  0  0
   -3.2490   20.8340  -30.2410 C   0  0  0  0  0  0  0  0  0  0  0  0
   -3.1060   22.0090  -29.2930 C   0  0  0  0  0  0  0  0  0  0  0  0
   -1.8790   22.6900  -29.1940 C   0  0  0  0  0  0  0  0  0  0  0  0
   -1.7540   23.8040  -28.3600 C   0  0  0  0  0  0  0  0  0  0  0  0
   -2.8440   24.2400  -27.6040 C   0  0  0  0  0  0  0  0  0  0  0  0
   -4.0570   23.5510  -27.6700 C   0  0  0  0  0  0  0  0  0  0  0  0
   -4.1870   22.4350  -28.5020 C   0  0  0  0  0  0  0  0  0  0  0  0
   -3.8690   22.5900  -31.9760 C   0  0  0  0  0  0  0  0  0  0  0  0
   -8.3420   18.2711  -31.2915 H   0  0  0  0  0  0  0  0  0  0  0  0
   -9.1696   18.6890  -32.8301 H   0  0  0  0  0  0  0  0  0  0  0  0
   -7.4154   18.3025  -32.8301 H   0  0  0  0  0  0  0  0  0  0  0  0
  -10.0240   20.7349  -31.8661 H   0  0  0  0  0  0  0  0  0  0  0  0
   -9.6156   23.1605  -31.3897 H   0  0  0  0  0  0  0  0  0  0  0  0
   -5.3135   19.2385  -31.1437 H   0  0  0  0  0  0  0  0  0  0  0  0
   -5.7382   19.0207  -32.9422 H   0  0  0  0  0  0  0  0  0  0  0  0
   -3.3693   19.3503  -32.6053 H   0  0  0  0  0  0  0  0  0  0  0  0
   -4.1856   20.6918  -33.5421 H   0  0  0  0  0  0  0  0  0  0  0  0
   -4.0945   20.2183  -29.9005 H   0  0  0  0  0  0  0  0  0  0  0  0
   -2.2901   20.2955  -30.2199 H   0  0  0  0  0  0  0  0  0  0  0  0
   -1.0128   22.3434  -29.7767 H   0  0  0  0  0  0  0  0  0  0  0  0
   -0.7947   24.3388  -28.2988 H   0  0  0  0  0  0  0  0  0  0  0  0
   -2.7474   25.1247  -26.9575 H   0  0  0  0  0  0  0  0  0  0  0  0
   -4.9124   23.8873  -27.0657 H   0  0  0  0  0  0  0  0  0  0  0  0
   -5.1403   21.8874  -28.5378 H   0  0  0  0  0  0  0  0  0  0  0  0
   -3.2305   23.2756  -31.3995 H   0  0  0  0  0  0  0  0  0  0  0  0
   -3.7362   22.7354  -33.0582 H   0  0  0  0  0  0  0  0  0  0  0  0
  1  2  1  0
  2  3  2  0
  3  4  1  0
  4  5  2  0
  5  6  1  0
  6  7  1  0
  7  8  2  0
  7  9  1  0
  9 10  1  0
 10 11  2  0
 11 12  1  0
 12 13  1  0
 13 14  1  0
 14 15  1  0
 15 16  1  0
 16 17  2  0
 17 18  1  0
 18 19  2  0
 19 20  1  0
 20 21  2  0
 14 22  1  0
 11  2  1  0
 21 16  1  0
 10  5  1  0
 22  9  1  0
  1 23  1  0
  1 24  1  0
  1 25  1  0
  3 26  1  0
  4 27  1  0
 12 28  1  0
 12 29  1  0
 13 30  1  0
 13 31  1  0
 15 32  1  0
 15 33  1  0
 17 34  1  0
 18 35  1  0
 19 36  1  0
 20 37  1  0
 21 38  1  0
 22 39  1  0
 22 40  1  0
M  END
>  <UniqueID>  (12) 
11

>  <SMILES>  (12) 
Cc1ccc2oc(=O)n3c2c1CCN(Cc1ccccc1)C3

>  <Energy>  (12) 
105.0932201866854

>  <Genealogy>  (12) 
Cc1ccc2oc(=O)n3c2c1CCN(Cc1ccccc1)C3 (3D coordinates assigned)
Cc1ccc2oc(=O)n3c2c1CCN(Cc1ccccc1)C3 (nonaromatic ring conformer: 105.0932201866854 kcal/mol)

>  <smiles>  (12) 
Cc1ccc2oc(=O)n3c2c1CCN(Cc1ccccc1)C3

>  <score_type>  (12) 
oracle

>  <origin>  (12) 
adg

>  <m_score__min__energy>  (12) 
-6.5800000000000001

>  <m_primary>  (12) 
energy

$$$$
12:0
     RDKit          3D

 49 51  0  0  0  0  0  0  0  0999 V2000
   -8.7770   20.3650  -32.7860 H   0  0  0  0  0  0  0  0  0  0  0  0
   -8.1020   21.0120  -32.3160 N   0  0  0  0  0  0  0  0  0  0  0  0
   -6.6870   20.7770  -32.4840 C   0  0  0  0  0  0  0  0  0  0  0  0
   -6.3230   19.7120  -33.1570 N   0  0  0  0  0  0  0  0  0  0  0  0
   -5.5170   19.7940  -33.8140 H   0  0  0  0  0  0  0  0  0  0  0  0
   -6.9580   18.4210  -33.0810 C   0  0  0  0  0  0  0  0  0  0  0  0
   -8.2170   18.3450  -33.0670 O   0  0  0  0  0  0  0  0  0  0  0  0
   -6.1360   17.1450  -33.1320 C   0  0  2  0  0  0  0  0  0  0  0  0
   -6.8530   15.9790  -33.8770 C   0  0  0  0  0  0  0  0  0  0  0  0
   -7.3463   16.3379  -34.7924 H   0  0  0  0  0  0  0  0  0  0  0  0
   -7.6492   15.5073  -33.2824 H   0  0  0  0  0  0  0  0  0  0  0  0
   -5.6930   15.0210  -34.2110 C   0  0  0  0  0  0  0  0  0  0  0  0
   -5.5887   14.8876  -35.2979 H   0  0  0  0  0  0  0  0  0  0  0  0
   -5.8329   14.0074  -33.8073 H   0  0  0  0  0  0  0  0  0  0  0  0
   -4.4640   15.7570  -33.6170 C   0  0  2  0  0  0  0  0  0  0  0  0
   -3.1280   15.2420  -34.1710 C   0  0  0  0  0  0  0  0  0  0  0  0
   -2.4597   14.9844  -33.3361 H   0  0  0  0  0  0  0  0  0  0  0  0
   -3.3066   14.3483  -34.7869 H   0  0  0  0  0  0  0  0  0  0  0  0
   -2.6605   16.0243  -34.7869 H   0  0  0  0  0  0  0  0  0  0  0  0
   -4.5840   15.6160  -32.0780 C   0  0  0  0  0  0  0  0  0  0  0  0
   -3.6554   15.9283  -31.5778 H   0  0  0  0  0  0  0  0  0  0  0  0
   -4.7586   14.5815  -31.7475 H   0  0  0  0  0  0  0  0  0  0  0  0
   -5.7460   16.5700  -31.7380 C   0  0  0  0  0  0  0  0  0  0  0  0
   -5.4170   17.3690  -31.0573 H   0  0  0  0  0  0  0  0  0  0  0  0
   -6.5809   16.0742  -31.2212 H   0  0  0  0  0  0  0  0  0  0  0  0
   -4.7810   17.2510  -33.8680 C   0  0  0  0  0  0  0  0  0  0  0  0
   -4.8910   17.6530  -35.3730 C   0  0  0  0  0  0  0  0  0  0  0  0
   -5.1806   18.7114  -35.4496 H   0  0  0  0  0  0  0  0  0  0  0  0
   -3.9186   17.5024  -35.8648 H   0  0  0  0  0  0  0  0  0  0  0  0
   -5.6512   17.0283  -35.8648 H   0  0  0  0  0  0  0  0  0  0  0  0
   -3.7660   18.2480  -33.2270 C   0  0  0  0  0  0  0  0  0  0  0  0
   -3.8314   18.1837  -32.1308 H   0  0  0  0  0  0  0  0  0  0  0  0
   -2.7462   17.9908  -33.5492 H   0  0  0  0  0  0  0  0  0  0  0  0
   -4.0049   19.2723  -33.5492 H   0  0  0  0  0  0  0  0  0  0  0  0
   -5.6330   21.7150  -31.8880 C   0  0  0  0  0  0  0  0  0  0  0  0
   -5.6423   21.5644  -30.7984 H   0  0  0  0  0  0  0  0  0  0  0  0
   -4.7021   21.4397  -32.4053 H   0  0  0  0  0  0  0  0  0  0  0  0
   -5.7740   23.2340  -32.1410 C   0  0  0  0  0  0  0  0  0  0  0  0
   -4.8354   23.7223  -31.8402 H   0  0  0  0  0  0  0  0  0  0  0  0
   -5.9945   23.3569  -33.2116 H   0  0  0  0  0  0  0  0  0  0  0  0
   -6.9270   23.8950  -31.3750 C   0  0  0  0  0  0  0  0  0  0  0  0
   -6.8373   23.6389  -30.3090 H   0  0  0  0  0  0  0  0  0  0  0  0
   -6.8585   24.9816  -31.5319 H   0  0  0  0  0  0  0  0  0  0  0  0
   -8.3000   23.4300  -31.8820 C   0  0  0  0  0  0  0  0  0  0  0  0
   -9.0635   24.1286  -31.5091 H   0  0  0  0  0  0  0  0  0  0  0  0
   -8.2499   23.4133  -32.9807 H   0  0  0  0  0  0  0  0  0  0  0  0
   -8.6740   22.0150  -31.4270 C   0  0  0  0  0  0  0  0  0  0  0  0
   -8.2924   21.8522  -30.4082 H   0  0  0  0  0  0  0  0  0  0  0  0
   -9.7695   21.9182  -31.4484 H   0  0  0  0  0  0  0  0  0  0  0  0
  1  2  1  0
  2  3  1  0
  3  4  2  0
  4  5  1  0
  4  6  1  0
  6  7  2  0
  8  6  1  6
  8  9  1  0
  9 10  1  0
  9 11  1  0
  9 12  1  0
 12 13  1  0
 12 14  1  0
 12 15  1  0
 15 16  1  1
 16 17  1  0
 16 18  1  0
 16 19  1  0
 15 20  1  0
 20 21  1  0
 20 22  1  0
 20 23  1  0
 23 24  1  0
 23 25  1  0
 15 26  1  0
 26 27  1  0
 27 28  1  0
 27 29  1  0
 27 30  1  0
 26 31  1  0
 31 32  1  0
 31 33  1  0
 31 34  1  0
  3 35  1  0
 35 36  1  0
 35 37  1  0
 35 38  1  0
 38 39  1  0
 38 40  1  0
 38 41  1  0
 41 42  1  0
 41 43  1  0
 41 44  1  0
 44 45  1  0
 44 46  1  0
 44 47  1  0
 47 48  1  0
 47 49  1  0
 47  2  1  0
 23  8  1  0
 26  8  1  0
M  CHG  1   4   1
M  END
>  <UniqueID>  (13) 
12

>  <SMILES>  (13) 
CC12CCC(C(=O)/[NH+]=C3\CCCCCN3)(CC1)C2(C)C

>  <Energy>  (13) 
92.94203235945378

>  <Genealogy>  (13) 
CC12CCC(C(=O)[NH+]=C3CCCCCN3)(CC1)C2(C)C (protonated)
CC12CCC(C(=O)/[NH+]=C3\CCCCCN3)(CC1)C2(C)C (cis-trans isomerization)
CC12CCC(C(=O)/[NH+]=C3\CCCCCN3)(CC1)C2(C)C (3D coordinates assigned)
CC12CCC(C(=O)/[NH+]=C3\CCCCCN3)(CC1)C2(C)C (nonaromatic ring conformer: 92.94203235945378 kcal/mol)

>  <smiles>  (13) 
CC12CCC(C(=O)N=C3CCCCCN3)(CC1)C2(C)C

>  <score_type>  (13) 
oracle

>  <origin>  (13) 
adg

>  <m_score__min__energy>  (13) 
-5.4199999999999999

>  <m_primary>  (13) 
energy

$$$$
13:0
     RDKit          3D

 40 42  0  0  0  0  0  0  0  0999 V2000
   -1.2450   25.7160  -28.1640 C   0  0  0  0  0  0  0  0  0  0  0  0
   -1.9900   25.2730  -29.2950 O   0  0  0  0  0  0  0  0  0  0  0  0
   -2.2370   23.9260  -29.6150 C   0  0  0  0  0  0  0  0  0  0  0  0
   -1.2400   22.9430  -29.4580 C   0  0  0  0  0  0  0  0  0  0  0  0
   -1.5060   21.6070  -29.7590 C   0  0  0  0  0  0  0  0  0  0  0  0
   -2.7650   21.2320  -30.2180 C   0  0  0  0  0  0  0  0  0  0  0  0
   -3.7650   22.1920  -30.3830 C   0  0  0  0  0  0  0  0  0  0  0  0
   -3.5200   23.5500  -30.0900 C   0  0  0  0  0  0  0  0  0  0  0  0
   -4.5870   24.5690  -30.3010 C   0  0  0  0  0  0  0  0  0  0  0  0
   -4.2980   25.6750  -30.8360 O   0  0  0  0  0  0  0  0  0  0  0  0
   -6.0240   24.3240  -29.9280 C   0  0  0  0  0  0  0  0  0  0  0  0
   -6.7290   23.4820  -30.9970 C   0  0  0  0  0  0  0  0  0  0  0  0
   -7.7840   22.5720  -30.3700 C   0  0  0  0  0  0  0  0  0  0  0  0
   -9.0840   22.1990  -31.5920 S   0  0  0  0  0  0  0  0  0  0  0  0
   -8.2550   20.7340  -32.1960 C   0  0  0  0  0  0  0  0  0  0  0  0
   -7.2100   20.7740  -33.0590 N   0  0  0  0  0  0  0  0  0  0  0  0
   -6.7800   19.5200  -33.3500 C   0  0  0  0  0  0  0  0  0  0  0  0
   -5.7190   19.2300  -34.2090 C   0  0  0  0  0  0  0  0  0  0  0  0
   -5.3750   17.8850  -34.4270 C   0  0  0  0  0  0  0  0  0  0  0  0
   -6.0900   16.8520  -33.7870 C   0  0  0  0  0  0  0  0  0  0  0  0
   -7.1540   17.1560  -32.9250 C   0  0  0  0  0  0  0  0  0  0  0  0
   -7.4760   18.4950  -32.7260 C   0  0  0  0  0  0  0  0  0  0  0  0
   -8.6850   19.1540  -31.7640 S   0  0  0  0  0  0  0  0  0  0  0  0
   -1.7608   25.4093  -27.2421 H   0  0  0  0  0  0  0  0  0  0  0  0
   -0.2405   25.2684  -28.1884 H   0  0  0  0  0  0  0  0  0  0  0  0
   -1.1586   26.8123  -28.1884 H   0  0  0  0  0  0  0  0  0  0  0  0
   -0.2426   23.2316  -29.0947 H   0  0  0  0  0  0  0  0  0  0  0  0
   -0.7191   20.8487  -29.6333 H   0  0  0  0  0  0  0  0  0  0  0  0
   -2.9726   20.1773  -30.4512 H   0  0  0  0  0  0  0  0  0  0  0  0
   -4.7570   21.8855  -30.7462 H   0  0  0  0  0  0  0  0  0  0  0  0
   -6.0609   23.7905  -28.9667 H   0  0  0  0  0  0  0  0  0  0  0  0
   -6.5373   25.2936  -29.8484 H   0  0  0  0  0  0  0  0  0  0  0  0
   -7.2164   24.1530  -31.7197 H   0  0  0  0  0  0  0  0  0  0  0  0
   -5.9786   22.8539  -31.4994 H   0  0  0  0  0  0  0  0  0  0  0  0
   -7.3100   21.6346  -30.0436 H   0  0  0  0  0  0  0  0  0  0  0  0
   -8.2343   23.0809  -29.5050 H   0  0  0  0  0  0  0  0  0  0  0  0
   -5.1628   20.0386  -34.7058 H   0  0  0  0  0  0  0  0  0  0  0  0
   -4.5423   17.6365  -35.1015 H   0  0  0  0  0  0  0  0  0  0  0  0
   -5.8121   15.8026  -33.9645 H   0  0  0  0  0  0  0  0  0  0  0  0
   -7.7182   16.3579  -32.4203 H   0  0  0  0  0  0  0  0  0  0  0  0
  1  2  1  0
  2  3  1  0
  3  4  2  0
  4  5  1  0
  5  6  2  0
  6  7  1  0
  7  8  2  0
  8  9  1  0
  9 10  2  0
  9 11  1  0
 11 12  1  0
 12 13  1  0
 13 14  1  0
 14 15  1  0
 15 16  2  0
 16 17  1  0
 17 18  2  0
 18 19  1  0
 19 20  2  0
 20 21  1  0
 21 22  2  0
 22 23  1  0
  8  3  1  0
 23 15  1  0
 22 17  1  0
  1 24  1  0
  1 25  1  0
  1 26  1  0
  4 27  1  0
  5 28  1  0
  6 29  1  0
  7 30  1  0
 11 31  1  0
 11 32  1  0
 12 33  1  0
 12 34  1  0
 13 35  1  0
 13 36  1  0
 18 37  1  0
 19 38  1  0
 20 39  1  0
 21 40  1  0
M  END
>  <UniqueID>  (14) 
13

>  <SMILES>  (14) 
COc1ccccc1C(=O)CCCSc1nc2ccccc2s1

>  <Energy>  (14) 
71.18369825722134

>  <Genealogy>  (14) 
COc1ccccc1C(=O)CCCSc1nc2ccccc2s1 (3D coordinates assigned)
COc1ccccc1C(=O)CCCSc1nc2ccccc2s1 (optimized conformer: 71.18369825722134 kcal/mol)

>  <smiles>  (14) 
COc1ccccc1C(=O)CCCSc1nc2ccccc2s1

>  <score_type>  (14) 
oracle

>  <origin>  (14) 
adg

>  <m_score__min__energy>  (14) 
-9.9499999999999993

>  <m_primary>  (14) 
energy

$$$$
14:0
     RDKit          3D

 35 37  0  0  0  0  0  0  0  0999 V2000
   -3.9340   21.7060  -31.7500 C   0  0  0  0  0  0  0  0  0  0  0  0
   -4.9920   22.6000  -32.3900 C   0  0  0  0  0  0  0  0  0  0  0  0
   -6.3290   22.2360  -31.9110 N   0  0  0  0  0  0  0  0  0  0  0  0
   -7.1380   22.9180  -31.0530 C   0  0  0  0  0  0  0  0  0  0  0  0
   -6.8080   24.2540  -30.4510 C   0  0  0  0  0  0  0  0  0  0  0  0
   -5.7410   24.1220  -29.4630 N   0  0  0  0  0  0  0  0  0  0  0  0
   -4.4010   24.5740  -29.7150 C   0  0  0  0  0  0  0  0  0  0  0  0
   -4.0870   25.0060  -30.8570 O   0  0  0  0  0  0  0  0  0  0  0  0
   -3.3830   24.5450  -28.6490 C   0  0  0  0  0  0  0  0  0  0  0  0
   -3.6430   24.5220  -27.2820 C   0  0  0  0  0  0  0  0  0  0  0  0
   -2.4840   24.4810  -26.4970 C   0  0  0  0  0  0  0  0  0  0  0  0
   -1.3170   24.4700  -27.2450 C   0  0  0  0  0  0  0  0  0  0  0  0
    0.4570   24.4150  -26.5500 Br  0  0  0  0  0  0  0  0  0  0  0  0
   -1.7140   24.5110  -28.8760 S   0  0  0  0  0  0  0  0  0  0  0  0
   -8.2950   22.2640  -30.7670 N   0  0  0  0  0  0  0  0  0  0  0  0
   -8.1880   21.1300  -31.4810 C   0  0  0  0  0  0  0  0  0  0  0  0
   -9.1030   20.0820  -31.5500 C   0  0  0  0  0  0  0  0  0  0  0  0
   -8.7750   18.9790  -32.3580 C   0  0  0  0  0  0  0  0  0  0  0  0
   -7.5540   18.9500  -33.0700 C   0  0  0  0  0  0  0  0  0  0  0  0
   -6.6500   20.0260  -32.9780 C   0  0  0  0  0  0  0  0  0  0  0  0
   -7.0090   21.1050  -32.1680 C   0  0  0  0  0  0  0  0  0  0  0  0
   -4.0120   21.7719  -30.6548 H   0  0  0  0  0  0  0  0  0  0  0  0
   -4.0933   20.6648  -32.0669 H   0  0  0  0  0  0  0  0  0  0  0  0
   -2.9339   22.0368  -32.0669 H   0  0  0  0  0  0  0  0  0  0  0  0
   -4.7866   23.6485  -32.1283 H   0  0  0  0  0  0  0  0  0  0  0  0
   -4.9567   22.4680  -33.4815 H   0  0  0  0  0  0  0  0  0  0  0  0
   -6.4809   24.9387  -31.2474 H   0  0  0  0  0  0  0  0  0  0  0  0
   -7.7053   24.6507  -29.9536 H   0  0  0  0  0  0  0  0  0  0  0  0
   -5.9750   23.6780  -28.5480 H   0  0  0  0  0  0  0  0  0  0  0  0
   -4.6587   24.5348  -26.8598 H   0  0  0  0  0  0  0  0  0  0  0  0
   -2.4983   24.4597  -25.3973 H   0  0  0  0  0  0  0  0  0  0  0  0
  -10.0500   20.1161  -30.9914 H   0  0  0  0  0  0  0  0  0  0  0  0
   -9.4733   18.1327  -32.4367 H   0  0  0  0  0  0  0  0  0  0  0  0
   -7.3086   18.0820  -33.6995 H   0  0  0  0  0  0  0  0  0  0  0  0
   -5.6955   20.0166  -33.5246 H   0  0  0  0  0  0  0  0  0  0  0  0
  1  2  1  0
  2  3  1  0
  3  4  1  0
  4  5  1  0
  5  6  1  0
  6  7  1  0
  7  8  2  0
  7  9  1  0
  9 10  2  0
 10 11  1  0
 11 12  2  0
 12 13  1  0
 12 14  1  0
  4 15  2  0
 15 16  1  0
 16 17  2  0
 17 18  1  0
 18 19  2  0
 19 20  1  0
 20 21  2  0
 21  3  1  0
 14  9  1  0
 21 16  1  0
  1 22  1  0
  1 23  1  0
  1 24  1  0
  2 25  1  0
  2 26  1  0
  5 27  1  0
  5 28  1  0
  6 29  1  0
 10 30  1  0
 11 31  1  0
 17 32  1  0
 18 33  1  0
 19 34  1  0
 20 35  1  0
M  END
>  <UniqueID>  (15) 
14

>  <SMILES>  (15) 
CCn1c(CNC(=O)c2ccc(Br)s2)nc2ccccc21

>  <Energy>  (15) 
93.08743634840269

>  <Genealogy>  (15) 
CCn1c(CNC(=O)c2ccc(Br)s2)nc2ccccc21 (3D coordinates assigned)
CCn1c(CNC(=O)c2ccc(Br)s2)nc2ccccc21 (optimized conformer: 93.08743634840269 kcal/mol)

>  <smiles>  (15) 
CCn1c(CNC(=O)c2ccc(Br)s2)nc2ccccc21

>  <score_type>  (15) 
oracle

>  <origin>  (15) 
adg

>  <m_score__min__energy>  (15) 
-8.4700000000000006

>  <m_primary>  (15) 
energy

$$$$
15:0
     RDKit          3D

 39 41  0  0  0  0  0  0  0  0999 V2000
    1.4090   24.2430  -36.9470 N   0  0  0  0  0  0  0  0  0  0  0  0
    1.3610   23.3160  -36.2560 C   0  0  0  0  0  0  0  0  0  0  0  0
    1.3010   22.1660  -35.3980 C   0  0  0  0  0  0  0  0  0  0  0  0
    2.3160   21.2640  -35.4010 N   0  0  0  0  0  0  0  0  0  0  0  0
    2.2760   20.1710  -34.5980 C   0  0  0  0  0  0  0  0  0  0  0  0
    1.1840   19.9620  -33.7550 C   0  0  0  0  0  0  0  0  0  0  0  0
    1.1410   18.8450  -32.9870 F   0  0  0  0  0  0  0  0  0  0  0  0
    0.1400   20.9040  -33.7550 C   0  0  0  0  0  0  0  0  0  0  0  0
   -1.0140   20.7610  -32.9010 N   0  0  0  0  0  0  0  0  0  0  0  0
   -0.8830   20.8520  -31.4360 C   0  0  0  0  0  0  0  0  0  0  0  0
   -2.1930   21.3090  -30.7770 C   0  0  0  0  0  0  0  0  0  0  0  0
   -2.8590   22.4060  -31.6250 C   0  0  0  0  0  0  0  0  0  0  0  0
   -4.3180   23.0450  -30.8030 S   0  0  0  0  0  0  0  0  0  0  0  0
   -4.5040   24.4960  -31.1510 O   0  0  0  0  0  0  0  0  0  0  0  0
   -4.1530   22.9260  -29.3140 O   0  0  0  0  0  0  0  0  0  0  0  0
   -5.7340   22.1220  -31.3000 C   0  0  0  0  0  0  0  0  0  0  0  0
   -5.6100   20.7540  -31.5800 C   0  0  0  0  0  0  0  0  0  0  0  0
   -6.7250   20.0180  -31.9940 C   0  0  0  0  0  0  0  0  0  0  0  0
   -7.9660   20.6460  -32.1370 C   0  0  0  0  0  0  0  0  0  0  0  0
   -9.4870   19.6410  -32.7060 Br  0  0  0  0  0  0  0  0  0  0  0  0
   -8.0920   22.0130  -31.8660 C   0  0  0  0  0  0  0  0  0  0  0  0
   -6.9780   22.7510  -31.4500 C   0  0  0  0  0  0  0  0  0  0  0  0
   -3.2040   21.9020  -33.0510 C   0  0  0  0  0  0  0  0  0  0  0  0
   -2.3600   20.6910  -33.4840 C   0  0  0  0  0  0  0  0  0  0  0  0
    0.2300   21.9820  -34.5840 N   0  0  0  0  0  0  0  0  0  0  0  0
    3.1056   19.4487  -34.6116 H   0  0  0  0  0  0  0  0  0  0  0  0
   -0.6108   19.8625  -31.0401 H   0  0  0  0  0  0  0  0  0  0  0  0
   -0.1054   21.5954  -31.2063 H   0  0  0  0  0  0  0  0  0  0  0  0
   -2.8757   20.4507  -30.6918 H   0  0  0  0  0  0  0  0  0  0  0  0
   -1.9709   21.7124  -29.7780 H   0  0  0  0  0  0  0  0  0  0  0  0
   -2.1334   23.2255  -31.7340 H   0  0  0  0  0  0  0  0  0  0  0  0
   -4.6337   20.2584  -31.4739 H   0  0  0  0  0  0  0  0  0  0  0  0
   -6.6254   18.9435  -32.2074 H   0  0  0  0  0  0  0  0  0  0  0  0
   -9.0676   22.5081  -31.9800 H   0  0  0  0  0  0  0  0  0  0  0  0
   -7.0786   23.8262  -31.2404 H   0  0  0  0  0  0  0  0  0  0  0  0
   -4.2656   21.6148  -33.0734 H   0  0  0  0  0  0  0  0  0  0  0  0
   -2.9841   22.7219  -33.7506 H   0  0  0  0  0  0  0  0  0  0  0  0
   -2.8527   19.7678  -33.1450 H   0  0  0  0  0  0  0  0  0  0  0  0
   -2.2711   20.6959  -34.5804 H   0  0  0  0  0  0  0  0  0  0  0  0
  1  2  3  0
  2  3  1  0
  3  4  2  0
  4  5  1  0
  5  6  2  0
  6  7  1  0
  6  8  1  0
  8  9  1  0
  9 10  1  0
 10 11  1  0
 11 12  1  0
 12 13  1  0
 13 14  2  0
 13 15  2  0
 13 16  1  0
 16 17  2  0
 17 18  1  0
 18 19  2  0
 19 20  1  0
 19 21  1  0
 21 22  2  0
 12 23  1  0
 23 24  1  0
  8 25  2  0
 25  3  1  0
 24  9  1  0
 22 16  1  0
  5 26  1  0
 10 27  1  0
 10 28  1  0
 11 29  1  0
 11 30  1  0
 12 31  1  0
 17 32  1  0
 18 33  1  0
 21 34  1  0
 22 35  1  0
 23 36  1  0
 23 37  1  0
 24 38  1  0
 24 39  1  0
M  END
>  <UniqueID>  (16) 
15

>  <SMILES>  (16) 
N#Cc1ncc(F)c(N2CCC(S(=O)(=O)c3ccc(Br)cc3)CC2)n1

>  <Energy>  (16) 
43.484261352582315

>  <Genealogy>  (16) 
N#Cc1ncc(F)c(N2CCC(S(=O)(=O)c3ccc(Br)cc3)CC2)n1 (3D coordinates assigned)
N#Cc1ncc(F)c(N2CCC(S(=O)(=O)c3ccc(Br)cc3)CC2)n1 (nonaromatic ring conformer: 43.484261352582315 kcal/mol)

>  <smiles>  (16) 
N#Cc1ncc(F)c(N2CCC(S(=O)(=O)c3ccc(Br)cc3)CC2)n1

>  <score_type>  (16) 
oracle

>  <origin>  (16) 
adg

>  <m_score__min__energy>  (16) 
-8.9700000000000006

>  <m_primary>  (16) 
energy

$$$$
16:0
     RDKit          3D

 47 49  0  0  0  0  0  0  0  0999 V2000
   -3.9410   24.4530  -27.0980 C   0  0  0  0  0  0  0  0  0  0  0  0
   -4.3310   24.0990  -28.5360 C   0  0  0  0  0  0  0  0  0  0  0  0
   -5.5500   24.8170  -28.9720 N   0  0  0  0  0  0  0  0  0  0  0  0
   -5.9480   24.5020  -30.3560 C   0  0  0  0  0  0  0  0  0  0  0  0
   -4.9330   23.5880  -31.0610 C   0  0  0  0  0  0  0  0  0  0  0  0
   -5.4570   23.1290  -32.3470 N   0  0  0  0  0  0  0  0  0  0  0  0
   -5.6150   21.7320  -32.6490 C   0  0  0  0  0  0  0  0  0  0  0  0
   -6.8650   21.1110  -32.5050 C   0  0  0  0  0  0  0  0  0  0  0  0
   -7.9550   21.8150  -31.9470 C   0  0  0  0  0  0  0  0  0  0  0  0
   -9.1930   21.2000  -31.7860 C   0  0  0  0  0  0  0  0  0  0  0  0
   -9.3620   19.8740  -32.1580 C   0  0  0  0  0  0  0  0  0  0  0  0
   -8.2980   19.1530  -32.6980 C   0  0  0  0  0  0  0  0  0  0  0  0
   -7.0250   19.7530  -32.8970 C   0  0  0  0  0  0  0  0  0  0  0  0
   -5.9570   19.0530  -33.4390 N   0  0  0  0  0  0  0  0  0  0  0  0
   -6.1770   17.7170  -34.0510 C   0  0  0  0  0  0  0  0  0  0  0  0
   -6.0480   16.6040  -33.0100 C   0  0  0  0  0  0  0  0  0  0  0  0
   -4.6880   19.6130  -33.4320 C   0  0  0  0  0  0  0  0  0  0  0  0
   -3.5320   18.8700  -33.7930 C   0  0  0  0  0  0  0  0  0  0  0  0
   -2.2680   19.4600  -33.8170 C   0  0  0  0  0  0  0  0  0  0  0  0
   -2.1150   20.7970  -33.4750 C   0  0  0  0  0  0  0  0  0  0  0  0
   -3.2200   21.5490  -33.0910 C   0  0  0  0  0  0  0  0  0  0  0  0
   -4.5070   20.9720  -33.0520 C   0  0  0  0  0  0  0  0  0  0  0  0
   -4.5687   23.8832  -26.3970 H   0  0  0  0  0  0  0  0  0  0  0  0
   -2.8834   24.2000  -26.9320 H   0  0  0  0  0  0  0  0  0  0  0  0
   -4.0907   25.5301  -26.9320 H   0  0  0  0  0  0  0  0  0  0  0  0
   -3.5011   24.3687  -29.2058 H   0  0  0  0  0  0  0  0  0  0  0  0
   -4.5394   23.0197  -28.5759 H   0  0  0  0  0  0  0  0  0  0  0  0
   -5.3540   25.8450  -28.9340 H   0  0  0  0  0  0  0  0  0  0  0  0
   -6.3570   24.6430  -28.3270 H   0  0  0  0  0  0  0  0  0  0  0  0
   -6.9251   23.9971  -30.3369 H   0  0  0  0  0  0  0  0  0  0  0  0
   -5.9953   25.4475  -30.9161 H   0  0  0  0  0  0  0  0  0  0  0  0
   -4.0004   24.1464  -31.2296 H   0  0  0  0  0  0  0  0  0  0  0  0
   -4.7432   22.7120  -30.4233 H   0  0  0  0  0  0  0  0  0  0  0  0
   -5.7630   23.8360  -33.0550 H   0  0  0  0  0  0  0  0  0  0  0  0
   -7.8238   22.8619  -31.6360 H   0  0  0  0  0  0  0  0  0  0  0  0
  -10.0372   21.7649  -31.3640 H   0  0  0  0  0  0  0  0  0  0  0  0
  -10.3406   19.3892  -32.0262 H   0  0  0  0  0  0  0  0  0  0  0  0
   -8.4466   18.0990  -32.9755 H   0  0  0  0  0  0  0  0  0  0  0  0
   -7.1859   17.6843  -34.4882 H   0  0  0  0  0  0  0  0  0  0  0  0
   -5.4131   17.5590  -34.8265 H   0  0  0  0  0  0  0  0  0  0  0  0
   -6.0983   17.0384  -32.0007 H   0  0  0  0  0  0  0  0  0  0  0  0
   -6.8686   15.8832  -33.1403 H   0  0  0  0  0  0  0  0  0  0  0  0
   -5.0843   16.0900  -33.1403 H   0  0  0  0  0  0  0  0  0  0  0  0
   -3.6358   17.8077  -34.0590 H   0  0  0  0  0  0  0  0  0  0  0  0
   -1.3901   18.8643  -34.1077 H   0  0  0  0  0  0  0  0  0  0  0  0
   -1.1186   21.2619  -33.5078 H   0  0  0  0  0  0  0  0  0  0  0  0
   -3.0892   22.6056  -32.8145 H   0  0  0  0  0  0  0  0  0  0  0  0
  1  2  1  0
  2  3  1  0
  3  4  1  0
  4  5  1  0
  5  6  1  0
  6  7  1  0
  7  8  2  0
  8  9  1  0
  9 10  2  0
 10 11  1  0
 11 12  2  0
 12 13  1  0
 13 14  2  0
 14 15  1  0
 15 16  1  0
 14 17  1  0
 17 18  2  0
 18 19  1  0
 19 20  2  0
 20 21  1  0
 21 22  2  0
 22  7  1  0
 13  8  1  0
 22 17  1  0
  1 23  1  0
  1 24  1  0
  1 25  1  0
  2 26  1  0
  2 27  1  0
  3 28  1  0
  3 29  1  0
  4 30  1  0
  4 31  1  0
  5 32  1  0
  5 33  1  0
  6 34  1  0
  9 35  1  0
 10 36  1  0
 11 37  1  0
 12 38  1  0
 15 39  1  0
 15 40  1  0
 16 41  1  0
 16 42  1  0
 16 43  1  0
 18 44  1  0
 19 45  1  0
 20 46  1  0
 21 47  1  0
M  CHG  2   3   1  14   1
M  END
>  <UniqueID>  (17) 
16

>  <SMILES>  (17) 
CC[NH2+]CCNc1c2ccccc2[n+](CC)c2ccccc12

>  <Energy>  (17) 
71.21170614755246

>  <Genealogy>  (17) 
CC[NH2+]CCNc1c2ccccc2[n+](CC)c2ccccc12 (protonated)
CC[NH2+]CCNc1c2ccccc2[n+](CC)c2ccccc12 (3D coordinates assigned)
CC[NH2+]CCNc1c2ccccc2[n+](CC)c2ccccc12 (optimized conformer: 71.21170614755246 kcal/mol)

>  <smiles>  (17) 
CCNCCNc1c2ccccc2[n+](CC)c2ccccc12

>  <score_type>  (17) 
oracle

>  <origin>  (17) 
adg

>  <m_score__min__energy>  (17) 
-7.3700000000000001

>  <m_primary>  (17) 
energy

$$$$
17:0
     RDKit          3D

 48 49  0  0  0  0  0  0  0  0999 V2000
   -5.5910   23.0310  -29.4800 C   0  0  0  0  0  0  0  0  0  0  0  0
   -4.6070   22.6160  -28.3850 C   0  0  0  0  0  0  0  0  0  0  0  0
   -3.5310   23.5960  -28.1320 N   0  0  0  0  0  0  0  0  0  0  0  0
   -3.8240   24.6420  -27.1270 C   0  0  0  0  0  0  0  0  0  0  0  0
   -2.6010   25.1540  -26.3530 C   0  0  0  0  0  0  0  0  0  0  0  0
   -2.6510   24.1240  -29.5530 S   0  0  0  0  0  0  0  0  0  0  0  0
   -1.5220   25.0220  -29.1290 O   0  0  0  0  0  0  0  0  0  0  0  0
   -3.5440   24.8960  -30.4840 O   0  0  0  0  0  0  0  0  0  0  0  0
   -1.9830   22.7420  -30.4190 C   0  0  0  0  0  0  0  0  0  0  0  0
   -0.8800   22.0470  -29.9080 C   0  0  0  0  0  0  0  0  0  0  0  0
   -0.3440   20.9670  -30.6130 C   0  0  0  0  0  0  0  0  0  0  0  0
   -0.9090   20.5730  -31.8290 C   0  0  0  0  0  0  0  0  0  0  0  0
   -2.0240   21.2480  -32.3500 C   0  0  0  0  0  0  0  0  0  0  0  0
   -2.5890   20.8140  -33.6050 N   0  0  0  0  0  0  0  0  0  0  0  0
   -3.3080   19.5540  -33.7970 C   0  0  0  0  0  0  0  0  0  0  0  0
   -4.6710   19.6180  -33.1710 C   0  0  0  0  0  0  0  0  0  0  0  0
   -5.1300   18.5950  -32.5930 O   0  0  0  0  0  0  0  0  0  0  0  0
   -5.4450   20.8260  -33.2540 N   0  0  0  0  0  0  0  0  0  0  0  0
   -6.7800   20.9620  -32.7390 C   0  0  0  0  0  0  0  0  0  0  0  0
   -7.2250   22.1630  -32.1570 C   0  0  0  0  0  0  0  0  0  0  0  0
   -8.5350   22.2710  -31.6800 C   0  0  0  0  0  0  0  0  0  0  0  0
   -9.4140   21.1910  -31.7930 C   0  0  0  0  0  0  0  0  0  0  0  0
   -8.9870   20.0020  -32.3900 C   0  0  0  0  0  0  0  0  0  0  0  0
   -9.8420   18.9570  -32.5070 F   0  0  0  0  0  0  0  0  0  0  0  0
   -7.6780   19.8900  -32.8690 C   0  0  0  0  0  0  0  0  0  0  0  0
   -2.5570   22.3350  -31.6310 C   0  0  0  0  0  0  0  0  0  0  0  0
   -6.5110   23.4190  -29.0184 H   0  0  0  0  0  0  0  0  0  0  0  0
   -5.1358   23.8138  -30.1045 H   0  0  0  0  0  0  0  0  0  0  0  0
   -5.8339   22.1587  -30.1045 H   0  0  0  0  0  0  0  0  0  0  0  0
   -5.1705   22.4742  -27.4510 H   0  0  0  0  0  0  0  0  0  0  0  0
   -4.1182   21.6941  -28.7333 H   0  0  0  0  0  0  0  0  0  0  0  0
   -4.2821   25.4965  -27.6465 H   0  0  0  0  0  0  0  0  0  0  0  0
   -4.4885   24.1782  -26.3831 H   0  0  0  0  0  0  0  0  0  0  0  0
   -2.7912   25.0744  -25.2725 H   0  0  0  0  0  0  0  0  0  0  0  0
   -1.7209   24.5488  -26.6160 H   0  0  0  0  0  0  0  0  0  0  0  0
   -2.4146   26.2057  -26.6160 H   0  0  0  0  0  0  0  0  0  0  0  0
   -0.4348   22.3522  -28.9495 H   0  0  0  0  0  0  0  0  0  0  0  0
    0.5246   20.4254  -30.2103 H   0  0  0  0  0  0  0  0  0  0  0  0
   -0.4762   19.7267  -32.3826 H   0  0  0  0  0  0  0  0  0  0  0  0
   -2.4320   21.4070  -34.4520 H   0  0  0  0  0  0  0  0  0  0  0  0
   -3.4146   19.3601  -34.8745 H   0  0  0  0  0  0  0  0  0  0  0  0
   -2.7370   18.7453  -33.3174 H   0  0  0  0  0  0  0  0  0  0  0  0
   -5.0800   21.6000  -33.8550 H   0  0  0  0  0  0  0  0  0  0  0  0
   -6.5401   23.0200  -32.0769 H   0  0  0  0  0  0  0  0  0  0  0  0
   -8.8742   23.2083  -31.2148 H   0  0  0  0  0  0  0  0  0  0  0  0
  -10.4423   21.2767  -31.4120 H   0  0  0  0  0  0  0  0  0  0  0  0
   -7.3498   18.9570  -33.3504 H   0  0  0  0  0  0  0  0  0  0  0  0
   -3.4334   22.8705  -32.0249 H   0  0  0  0  0  0  0  0  0  0  0  0
  1  2  1  0
  2  3  1  0
  3  4  1  0
  4  5  1  0
  3  6  1  0
  6  7  2  0
  6  8  2  0
  6  9  1  0
  9 10  2  0
 10 11  1  0
 11 12  2  0
 12 13  1  0
 13 14  1  0
 14 15  1  0
 15 16  1  0
 16 17  2  0
 16 18  1  0
 18 19  1  0
 19 20  2  0
 20 21  1  0
 21 22  2  0
 22 23  1  0
 23 24  1  0
 23 25  2  0
 13 26  2  0
 26  9  1  0
 25 19  1  0
  1 27  1  0
  1 28  1  0
  1 29  1  0
  2 30  1  0
  2 31  1  0
  4 32  1  0
  4 33  1  0
  5 34  1  0
  5 35  1  0
  5 36  1  0
 10 37  1  0
 11 38  1  0
 12 39  1  0
 14 40  1  0
 15 41  1  0
 15 42  1  0
 18 43  1  0
 20 44  1  0
 21 45  1  0
 22 46  1  0
 25 47  1  0
 26 48  1  0
M  END
>  <UniqueID>  (18) 
17

>  <SMILES>  (18) 
CCN(CC)S(=O)(=O)c1cccc(NCC(=O)Nc2cccc(F)c2)c1

>  <Energy>  (18) 
54.01249327291167

>  <Genealogy>  (18) 
CCN(CC)S(=O)(=O)c1cccc(NCC(=O)Nc2cccc(F)c2)c1 (3D coordinates assigned)
CCN(CC)S(=O)(=O)c1cccc(NCC(=O)Nc2cccc(F)c2)c1 (optimized conformer: 54.01249327291167 kcal/mol)

>  <smiles>  (18) 
CCN(CC)S(=O)(=O)c1cccc(NCC(=O)Nc2cccc(F)c2)c1

>  <score_type>  (18) 
oracle

>  <origin>  (18) 
adg

>  <m_score__min__energy>  (18) 
-9.0299999999999994

>  <m_primary>  (18) 
energy

$$$$
18:0
     RDKit          3D

 52 55  0  0  0  0  0  0  0  0999 V2000
    1.7940   22.2990  -35.3520 C   0  0  0  0  0  0  0  0  0  0  0  0
    0.2650   22.2970  -35.4940 C   0  0  0  0  0  0  0  0  0  0  0  0
   -0.4170   21.1580  -34.8240 N   0  0  1  0  0  0  0  0  0  0  0  0
    0.0550   19.8620  -35.3480 C   0  0  0  0  0  0  0  0  0  0  0  0
   -0.3320   21.1660  -33.3420 C   0  0  0  0  0  0  0  0  0  0  0  0
   -1.6440   20.7810  -32.6330 C   0  0  0  0  0  0  0  0  0  0  0  0
   -2.8050   20.9500  -33.5070 N   0  0  0  0  0  0  0  0  0  0  0  0
   -3.9540   20.0820  -33.4520 C   0  0  0  0  0  0  0  0  0  0  0  0
   -5.1980   20.5540  -33.0200 C   0  0  0  0  0  0  0  0  0  0  0  0
   -6.2820   19.6980  -32.9090 C   0  0  0  0  0  0  0  0  0  0  0  0
   -6.1640   18.3460  -33.1170 N   0  0  0  0  0  0  0  0  0  0  0  0
   -7.2290   17.4330  -32.6690 C   0  0  0  0  0  0  0  0  0  0  0  0
   -4.9950   17.8630  -33.6800 C   0  0  0  0  0  0  0  0  0  0  0  0
   -4.8910   16.5290  -34.1420 C   0  0  0  0  0  0  0  0  0  0  0  0
   -3.6930   16.0400  -34.6630 C   0  0  0  0  0  0  0  0  0  0  0  0
   -2.5760   16.8640  -34.7450 C   0  0  0  0  0  0  0  0  0  0  0  0
   -2.6530   18.1920  -34.3320 C   0  0  0  0  0  0  0  0  0  0  0  0
   -3.8550   18.7190  -33.8170 C   0  0  0  0  0  0  0  0  0  0  0  0
   -7.4270   20.4790  -32.4250 C   0  0  0  0  0  0  0  0  0  0  0  0
   -8.7960   20.1750  -32.3520 C   0  0  0  0  0  0  0  0  0  0  0  0
   -9.6850   21.1680  -31.9120 C   0  0  0  0  0  0  0  0  0  0  0  0
   -9.2150   22.4550  -31.6000 C   0  0  0  0  0  0  0  0  0  0  0  0
   -7.8560   22.7660  -31.7480 C   0  0  0  0  0  0  0  0  0  0  0  0
   -6.9810   21.7640  -32.1710 C   0  0  0  0  0  0  0  0  0  0  0  0
   -5.5400   21.9330  -32.5230 C   0  0  0  0  0  0  0  0  0  0  0  0
    2.0632   22.2994  -34.2854 H   0  0  0  0  0  0  0  0  0  0  0  0
    2.2082   21.4014  -35.8344 H   0  0  0  0  0  0  0  0  0  0  0  0
    2.2059   23.1977  -35.8344 H   0  0  0  0  0  0  0  0  0  0  0  0
   -0.1211   23.2313  -35.0604 H   0  0  0  0  0  0  0  0  0  0  0  0
    0.0516   22.1998  -36.5687 H   0  0  0  0  0  0  0  0  0  0  0  0
   -1.4280   21.2170  -35.0820 H   0  0  0  0  0  0  0  0  0  0  0  0
    0.2983   19.1939  -34.5087 H   0  0  0  0  0  0  0  0  0  0  0  0
   -0.7346   19.4056  -35.9630 H   0  0  0  0  0  0  0  0  0  0  0  0
    0.9532   20.0203  -35.9630 H   0  0  0  0  0  0  0  0  0  0  0  0
    0.4474   20.4521  -33.0372 H   0  0  0  0  0  0  0  0  0  0  0  0
   -0.1027   22.1997  -33.0438 H   0  0  0  0  0  0  0  0  0  0  0  0
   -1.5840   19.7280  -32.3207 H   0  0  0  0  0  0  0  0  0  0  0  0
   -1.7705   21.4448  -31.7650 H   0  0  0  0  0  0  0  0  0  0  0  0
   -2.7780   21.6960  -34.2380 H   0  0  0  0  0  0  0  0  0  0  0  0
   -7.2546   17.4110  -31.5695 H   0  0  0  0  0  0  0  0  0  0  0  0
   -8.1985   17.7849  -33.0514 H   0  0  0  0  0  0  0  0  0  0  0  0
   -7.0294   16.4211  -33.0514 H   0  0  0  0  0  0  0  0  0  0  0  0
   -5.7685   15.8678  -34.0893 H   0  0  0  0  0  0  0  0  0  0  0  0
   -3.6317   14.9981  -35.0104 H   0  0  0  0  0  0  0  0  0  0  0  0
   -1.6286   16.4659  -35.1373 H   0  0  0  0  0  0  0  0  0  0  0  0
   -1.7654   18.8373  -34.4086 H   0  0  0  0  0  0  0  0  0  0  0  0
   -9.1646   19.1778  -32.6342 H   0  0  0  0  0  0  0  0  0  0  0  0
  -10.7558   20.9374  -31.8108 H   0  0  0  0  0  0  0  0  0  0  0  0
   -9.9161   23.2215  -31.2382 H   0  0  0  0  0  0  0  0  0  0  0  0
   -7.4864   23.7799  -31.5349 H   0  0  0  0  0  0  0  0  0  0  0  0
   -5.4029   22.6904  -33.3088 H   0  0  0  0  0  0  0  0  0  0  0  0
   -4.9099   22.2831  -31.6921 H   0  0  0  0  0  0  0  0  0  0  0  0
  1  2  1  0
  2  3  1  0
  3  4  1  0
  3  5  1  0
  5  6  1  0
  6  7  1  0
  7  8  1  0
  8  9  2  0
  9 10  1  0
 10 11  2  0
 11 12  1  0
 11 13  1  0
 13 14  2  0
 14 15  1  0
 15 16  2  0
 16 17  1  0
 17 18  2  0
 10 19  1  0
 19 20  2  0
 20 21  1  0
 21 22  2  0
 22 23  1  0
 23 24  2  0
 24 25  1  0
 18  8  1  0
 24 19  1  0
 25  9  1  0
 18 13  1  0
  1 26  1  0
  1 27  1  0
  1 28  1  0
  2 29  1  0
  2 30  1  0
  3 31  1  1
  4 32  1  0
  4 33  1  0
  4 34  1  0
  5 35  1  0
  5 36  1  0
  6 37  1  0
  6 38  1  0
  7 39  1  0
 12 40  1  0
 12 41  1  0
 12 42  1  0
 14 43  1  0
 15 44  1  0
 16 45  1  0
 17 46  1  0
 20 47  1  0
 21 48  1  0
 22 49  1  0
 23 50  1  0
 25 51  1  0
 25 52  1  0
M  CHG  2   3   1  11   1
M  END
>  <UniqueID>  (19) 
18

>  <SMILES>  (19) 
CC[N@@H+](C)CCNc1c2c([n+](C)c3ccccc13)-c1ccccc1C2

>  <Energy>  (19) 
99.20269453613709

>  <Genealogy>  (19) 
CC[NH+](C)CCNc1c2c([n+](C)c3ccccc13)-c1ccccc1C2 (protonated)
CC[N@@H+](C)CCNc1c2c([n+](C)c3ccccc13)-c1ccccc1C2 (chirality)
CC[N@@H+](C)CCNc1c2c([n+](C)c3ccccc13)-c1ccccc1C2 (3D coordinates assigned)
CC[N@@H+](C)CCNc1c2c([n+](C)c3ccccc13)-c1ccccc1C2 (nonaromatic ring conformer: 99.20269453613709 kcal/mol)

>  <smiles>  (19) 
CCN(C)CCNc1c2c([n+](C)c3ccccc13)-c1ccccc1C2

>  <score_type>  (19) 
oracle

>  <origin>  (19) 
adg

>  <m_score__min__energy>  (19) 
-7.6299999999999999

>  <m_primary>  (19) 
energy

$$$$
19:0
     RDKit          3D

 42 44  0  0  0  0  0  0  0  0999 V2000
   -1.3200   25.0120  -28.4150 C   0  0  0  0  0  0  0  0  0  0  0  0
   -2.3600   25.2930  -29.3440 O   0  0  0  0  0  0  0  0  0  0  0  0
   -3.5710   24.5910  -29.4070 C   0  0  0  0  0  0  0  0  0  0  0  0
   -3.7800   23.3870  -28.7070 C   0  0  0  0  0  0  0  0  0  0  0  0
   -4.9910   22.7030  -28.8290 C   0  0  0  0  0  0  0  0  0  0  0  0
   -6.0050   23.1960  -29.6650 C   0  0  0  0  0  0  0  0  0  0  0  0
   -7.2250   22.4630  -29.8750 N   0  0  0  0  0  0  0  0  0  0  0  0
   -8.0040   22.5150  -31.1260 C   0  0  2  0  0  0  0  0  0  0  0  0
   -9.2610   21.6140  -31.0460 C   0  0  0  0  0  0  0  0  0  0  0  0
   -9.4780   20.7920  -32.3210 C   0  0  0  0  0  0  0  0  0  0  0  0
   -8.2260   19.9670  -32.6370 C   0  0  0  0  0  0  0  0  0  0  0  0
   -7.0050   20.7920  -32.6270 N   0  0  0  0  0  0  0  0  0  0  0  0
   -5.7240   20.2370  -33.0140 C   0  0  0  0  0  0  0  0  0  0  0  0
   -5.6800   19.3420  -33.9040 O   0  0  0  0  0  0  0  0  0  0  0  0
   -4.4420   20.7010  -32.4400 C   0  0  0  0  0  0  0  0  0  0  0  0
   -3.5490   21.5500  -33.0680 C   0  0  0  0  0  0  0  0  0  0  0  0
   -2.5090   21.7240  -32.1820 C   0  0  0  0  0  0  0  0  0  0  0  0
   -2.8310   20.9800  -31.0670 C   0  0  0  0  0  0  0  0  0  0  0  0
   -3.9810   20.3790  -31.2520 O   0  0  0  0  0  0  0  0  0  0  0  0
   -7.1190   22.2380  -32.3650 C   0  0  0  0  0  0  0  0  0  0  0  0
   -5.8150   24.4190  -30.3230 C   0  0  0  0  0  0  0  0  0  0  0  0
   -4.6050   25.1080  -30.1980 C   0  0  0  0  0  0  0  0  0  0  0  0
   -1.7058   25.1162  -27.3902 H   0  0  0  0  0  0  0  0  0  0  0  0
   -0.9593   23.9842  -28.5682 H   0  0  0  0  0  0  0  0  0  0  0  0
   -0.4907   25.7183  -28.5682 H   0  0  0  0  0  0  0  0  0  0  0  0
   -2.9858   22.9838  -28.0614 H   0  0  0  0  0  0  0  0  0  0  0  0
   -5.1515   21.7716  -28.2662 H   0  0  0  0  0  0  0  0  0  0  0  0
   -7.7420   22.1640  -29.0190 H   0  0  0  0  0  0  0  0  0  0  0  0
   -8.3762   23.5422  -31.2543 H   0  0  0  0  0  0  0  0  0  0  0  0
   -9.1466   20.9240  -30.1970 H   0  0  0  0  0  0  0  0  0  0  0  0
  -10.1345   22.2706  -30.9198 H   0  0  0  0  0  0  0  0  0  0  0  0
  -10.3326   20.1148  -32.1759 H   0  0  0  0  0  0  0  0  0  0  0  0
   -9.6791   21.4753  -33.1592 H   0  0  0  0  0  0  0  0  0  0  0  0
   -8.1243   19.1727  -31.8829 H   0  0  0  0  0  0  0  0  0  0  0  0
   -8.3428   19.5446  -33.6460 H   0  0  0  0  0  0  0  0  0  0  0  0
   -3.6488   21.9948  -34.0691 H   0  0  0  0  0  0  0  0  0  0  0  0
   -1.6054   22.3327  -32.3333 H   0  0  0  0  0  0  0  0  0  0  0  0
   -2.2154   20.9024  -30.1587 H   0  0  0  0  0  0  0  0  0  0  0  0
   -6.1148   22.6507  -32.1880 H   0  0  0  0  0  0  0  0  0  0  0  0
   -7.5859   22.7144  -33.2397 H   0  0  0  0  0  0  0  0  0  0  0  0
   -6.6223   24.8389  -30.9410 H   0  0  0  0  0  0  0  0  0  0  0  0
   -4.4639   26.0633  -30.7248 H   0  0  0  0  0  0  0  0  0  0  0  0
  1  2  1  0
  2  3  1  0
  3  4  2  0
  4  5  1  0
  5  6  2  0
  6  7  1  0
  7  8  1  0
  8  9  1  0
  9 10  1  0
 10 11  1  0
 11 12  1  0
 12 13  1  0
 13 14  2  0
 13 15  1  0
 15 16  2  0
 16 17  1  0
 17 18  2  0
 18 19  1  0
 12 20  1  0
  6 21  1  0
 21 22  2  0
 22  3  1  0
 20  8  1  0
 19 15  1  0
  1 23  1  0
  1 24  1  0
  1 25  1  0
  4 26  1  0
  5 27  1  0
  7 28  1  0
  8 29  1  6
  9 30  1  0
  9 31  1  0
 10 32  1  0
 10 33  1  0
 11 34  1  0
 11 35  1  0
 16 36  1  0
 17 37  1  0
 18 38  1  0
 20 39  1  0
 20 40  1  0
 21 41  1  0
 22 42  1  0
M  END
>  <UniqueID>  (20) 
19

>  <SMILES>  (20) 
COc1ccc(N[C@@H]2CCCN(C(=O)c3ccco3)C2)cc1

>  <Energy>  (20) 
74.377316902416

>  <Genealogy>  (20) 
COc1ccc(N[C@@H]2CCCN(C(=O)c3ccco3)C2)cc1 (chirality)
COc1ccc(N[C@@H]2CCCN(C(=O)c3ccco3)C2)cc1 (3D coordinates assigned)
COc1ccc(N[C@@H]2CCCN(C(=O)c3ccco3)C2)cc1 (nonaromatic ring conformer: 74.377316902416 kcal/mol)

>  <smiles>  (20) 
COc1ccc(NC2CCCN(C(=O)c3ccco3)C2)cc1

>  <score_type>  (20) 
oracle

>  <origin>  (20) 
adg

>  <m_score__min__energy>  (20) 
-7.6600000000000001

>  <m_primary>  (20) 
energy

$$$$
20:0
     RDKit          3D

 36 37  0  0  0  0  0  0  0  0999 V2000
   -6.0510   16.3950  -33.8740 C   0  0  0  0  0  0  0  0  0  0  0  0
   -7.2250   16.7590  -33.1570 O   0  0  0  0  0  0  0  0  0  0  0  0
   -7.5140   18.0590  -32.7180 C   0  0  0  0  0  0  0  0  0  0  0  0
   -8.4460   18.3220  -31.6960 C   0  0  0  0  0  0  0  0  0  0  0  0
   -8.6980   19.6360  -31.2920 C   0  0  0  0  0  0  0  0  0  0  0  0
   -8.0210   20.7060  -31.8960 C   0  0  0  0  0  0  0  0  0  0  0  0
   -8.2700   22.1200  -31.4320 C   0  0  0  0  0  0  0  0  0  0  0  0
   -7.0990   22.6950  -30.7500 N   0  0  0  0  0  0  0  0  0  0  0  0
   -7.0340   24.1660  -30.8410 C   0  0  0  0  0  0  0  0  0  0  0  0
   -6.1650   24.7750  -29.7310 C   0  0  0  0  0  0  0  0  0  0  0  0
   -4.4220   24.9160  -30.2620 S   0  0  0  0  0  0  0  0  0  0  0  0
   -4.3480   23.2740  -30.9870 C   0  0  0  0  0  0  0  0  0  0  0  0
   -4.6370   23.0040  -32.2710 N   0  0  0  0  0  0  0  0  0  0  0  0
   -4.5120   21.6880  -32.3810 N   0  0  0  0  0  0  0  0  0  0  0  0
   -4.1690   21.1640  -31.2130 N   0  0  0  0  0  0  0  0  0  0  0  0
   -4.0470   22.1400  -30.3320 N   0  0  0  0  0  0  0  0  0  0  0  0
   -3.8300   21.9430  -28.9040 C   0  0  0  0  0  0  0  0  0  0  0  0
   -7.0880   20.4430  -32.9120 C   0  0  0  0  0  0  0  0  0  0  0  0
   -6.8440   19.1290  -33.3210 C   0  0  0  0  0  0  0  0  0  0  0  0
   -5.2494   16.1465  -33.1629 H   0  0  0  0  0  0  0  0  0  0  0  0
   -6.2640   15.5207  -34.5067 H   0  0  0  0  0  0  0  0  0  0  0  0
   -5.7321   17.2364  -34.5067 H   0  0  0  0  0  0  0  0  0  0  0  0
   -8.9784   17.4893  -31.2132 H   0  0  0  0  0  0  0  0  0  0  0  0
   -9.4313   19.8323  -30.4959 H   0  0  0  0  0  0  0  0  0  0  0  0
   -8.5120   22.7424  -32.3061 H   0  0  0  0  0  0  0  0  0  0  0  0
   -9.1027   22.0983  -30.7136 H   0  0  0  0  0  0  0  0  0  0  0  0
   -6.2220   22.2450  -31.1050 H   0  0  0  0  0  0  0  0  0  0  0  0
   -6.6084   24.4426  -31.8169 H   0  0  0  0  0  0  0  0  0  0  0  0
   -8.0552   24.5582  -30.7257 H   0  0  0  0  0  0  0  0  0  0  0  0
   -6.5474   25.7764  -29.4841 H   0  0  0  0  0  0  0  0  0  0  0  0
   -6.2098   24.1161  -28.8513 H   0  0  0  0  0  0  0  0  0  0  0  0
   -4.5276   22.5763  -28.3363 H   0  0  0  0  0  0  0  0  0  0  0  0
   -4.0030   20.8870  -28.6491 H   0  0  0  0  0  0  0  0  0  0  0  0
   -2.7956   22.2170  -28.6491 H   0  0  0  0  0  0  0  0  0  0  0  0
   -6.5471   21.2743  -33.3878 H   0  0  0  0  0  0  0  0  0  0  0  0
   -6.1184   18.9343  -34.1245 H   0  0  0  0  0  0  0  0  0  0  0  0
  1  2  1  0
  2  3  1  0
  3  4  2  0
  4  5  1  0
  5  6  2  0
  6  7  1  0
  7  8  1  0
  8  9  1  0
  9 10  1  0
 10 11  1  0
 11 12  1  0
 12 13  2  0
 13 14  1  0
 14 15  2  0
 15 16  1  0
 16 17  1  0
  6 18  1  0
 18 19  2  0
 19  3  1  0
 16 12  1  0
  1 20  1  0
  1 21  1  0
  1 22  1  0
  4 23  1  0
  5 24  1  0
  7 25  1  0
  7 26  1  0
  8 27  1  0
  9 28  1  0
  9 29  1  0
 10 30  1  0
 10 31  1  0
 17 32  1  0
 17 33  1  0
 17 34  1  0
 18 35  1  0
 19 36  1  0
M  END
>  <UniqueID>  (21) 
20

>  <SMILES>  (21) 
COc1ccc(CNCCSc2nnnn2C)cc1

>  <Energy>  (21) 
69.0579259594836

>  <Genealogy>  (21) 
COc1ccc(CNCCSc2nnnn2C)cc1 (3D coordinates assigned)
COc1ccc(CNCCSc2nnnn2C)cc1 (optimized conformer: 69.0579259594836 kcal/mol)

>  <smiles>  (21) 
COc1ccc(CNCCSc2nnnn2C)cc1

>  <score_type>  (21) 
oracle

>  <origin>  (21) 
adg

>  <m_score__min__energy>  (21) 
-7.5499999999999998

>  <m_primary>  (21) 
energy

$$$$
21:0
     RDKit          3D

 36 37  0  0  1  0  0  0  0  0999 V2000
   -6.1620   25.0030  -29.6700 C   0  0  0  0  0  0  0  0  0  0  0  0
   -5.2660   25.6610  -30.6910 C   0  0  0  0  0  0  0  0  0  0  0  0
   -3.8980   25.4080  -30.4590 O   0  0  0  0  0  0  0  0  0  0  0  0
   -3.3920   24.1590  -30.1440 C   0  0  0  0  0  0  0  0  0  0  0  0
   -3.7090   23.1580  -30.8440 O   0  0  0  0  0  0  0  0  0  0  0  0
   -2.4960   24.0270  -29.0010 C   0  0  2  0  0  0  0  0  0  0  0  0
   -3.1980   24.0870  -27.6670 C   0  0  0  0  0  0  0  0  0  0  0  0
   -2.1480   23.5260  -26.7270 C   0  0  0  0  0  0  0  0  0  0  0  0
   -1.0480   23.0090  -27.6010 C   0  0  2  0  0  0  0  0  0  0  0  0
   -0.2460   21.9130  -27.0560 C   0  0  0  0  0  0  0  0  0  0  0  0
   -0.3050   24.1950  -28.1050 C   0  0  0  0  0  0  0  0  0  0  0  0
    0.8410   24.5340  -27.8840 O   0  0  0  0  0  0  0  0  0  0  0  0
   -1.3000   24.9200  -28.9810 C   0  0  0  0  0  0  0  0  0  0  0  0
   -1.8240   22.6610  -28.8810 C   0  0  0  0  0  0  0  0  0  0  0  0
   -0.8930   22.3620  -30.0160 C   0  0  0  0  0  0  0  0  0  0  0  0
   -2.8070   21.5680  -28.6220 C   0  0  0  0  0  0  0  0  0  0  0  0
   -5.8142   25.2584  -28.6582 H   0  0  0  0  0  0  0  0  0  0  0  0
   -7.1940   25.3594  -29.8039 H   0  0  0  0  0  0  0  0  0  0  0  0
   -6.1308   23.9116  -29.8039 H   0  0  0  0  0  0  0  0  0  0  0  0
   -5.5300   25.2798  -31.6885 H   0  0  0  0  0  0  0  0  0  0  0  0
   -5.4199   26.7476  -30.6166 H   0  0  0  0  0  0  0  0  0  0  0  0
   -3.4601   25.1215  -27.4004 H   0  0  0  0  0  0  0  0  0  0  0  0
   -4.1504   23.5370  -27.6440 H   0  0  0  0  0  0  0  0  0  0  0  0
   -1.7689   24.3159  -26.0619 H   0  0  0  0  0  0  0  0  0  0  0  0
   -2.5617   22.7326  -26.0871 H   0  0  0  0  0  0  0  0  0  0  0  0
   -0.2731   21.9501  -25.9570 H   0  0  0  0  0  0  0  0  0  0  0  0
   -0.6558   20.9521  -27.4007 H   0  0  0  0  0  0  0  0  0  0  0  0
    0.7938   22.0129  -27.4007 H   0  0  0  0  0  0  0  0  0  0  0  0
   -1.5536   25.9009  -28.5526 H   0  0  0  0  0  0  0  0  0  0  0  0
   -0.9063   25.1165  -29.9891 H   0  0  0  0  0  0  0  0  0  0  0  0
    0.0829   22.0486  -29.6169 H   0  0  0  0  0  0  0  0  0  0  0  0
   -1.3138   21.5538  -30.6323 H   0  0  0  0  0  0  0  0  0  0  0  0
   -0.7645   23.2641  -30.6323 H   0  0  0  0  0  0  0  0  0  0  0  0
   -2.9281   21.4333  -27.5370 H   0  0  0  0  0  0  0  0  0  0  0  0
   -3.7764   21.8332  -29.0691 H   0  0  0  0  0  0  0  0  0  0  0  0
   -2.4408   20.6320  -29.0691 H   0  0  0  0  0  0  0  0  0  0  0  0
  1  2  1  0
  2  3  1  0
  3  4  1  0
  4  5  2  0
  6  4  1  6
  6  7  1  0
  7  8  1  0
  8  9  1  0
  9 10  1  1
  9 11  1  0
 11 12  2  0
 11 13  1  0
  9 14  1  0
 14 15  1  0
 14 16  1  0
 13  6  1  0
 14  6  1  0
  1 17  1  0
  1 18  1  0
  1 19  1  0
  2 20  1  0
  2 21  1  0
  7 22  1  0
  7 23  1  0
  8 24  1  0
  8 25  1  0
 10 26  1  0
 10 27  1  0
 10 28  1  0
 13 29  1  0
 13 30  1  0
 15 31  1  0
 15 32  1  0
 15 33  1  0
 16 34  1  0
 16 35  1  0
 16 36  1  0
M  END
>  <smiles>  (22) 
CCOC(=O)C12CCC(C)(C(=O)C1)C2(C)C

>  <score_type>  (22) 
oracle

>  <origin>  (22) 
adg

>  <m_score__min__energy>  (22) 
-6.5599999999999996

>  <m_primary>  (22) 
energy

$$$$
22:0
     RDKit          3D

 80 84  0  0  0  0  0  0  0  0999 V2000
    0.9690   26.0280  -26.1920 C   0  0  0  0  0  0  0  0  0  0  0  0
    0.1190   25.7420  -27.2980 O   0  0  0  0  0  0  0  0  0  0  0  0
   -1.2290   25.3650  -27.1880 C   0  0  0  0  0  0  0  0  0  0  0  0
   -2.0070   25.6920  -26.0620 C   0  0  0  0  0  0  0  0  0  0  0  0
   -3.3450   25.3040  -25.9940 C   0  0  0  0  0  0  0  0  0  0  0  0
   -3.9200   24.5770  -27.0360 C   0  0  0  0  0  0  0  0  0  0  0  0
   -3.1600   24.2290  -28.1650 C   0  0  0  0  0  0  0  0  0  0  0  0
   -3.7770   23.4050  -29.2300 C   0  0  0  0  0  0  0  0  0  0  0  0
   -3.0030   22.4840  -29.9470 C   0  0  0  0  0  0  0  0  0  0  0  0
   -3.5730   21.6780  -30.9470 C   0  0  0  0  0  0  0  0  0  0  0  0
   -2.6450   20.9110  -31.8080 C   0  0  0  0  0  0  0  0  0  0  0  0
   -2.3820   21.3250  -33.1230 C   0  0  0  0  0  0  0  0  0  0  0  0
   -1.5000   20.5990  -33.9270 C   0  0  0  0  0  0  0  0  0  0  0  0
   -0.8950   19.4250  -33.4390 C   0  0  0  0  0  0  0  0  0  0  0  0
    0.0230   18.6750  -34.1940 O   0  0  0  0  0  0  0  0  0  0  0  0
   -0.3240   17.7310  -35.2070 C   0  0  0  0  0  0  0  0  0  0  0  0
   -0.9570   16.4750  -34.5740 C   0  0  0  0  0  0  0  0  0  0  0  0
   -2.3750   16.6370  -34.1830 N   0  0  0  0  0  0  0  0  0  0  0  0
   -2.7590   15.7600  -33.0650 C   0  0  0  0  0  0  0  0  0  0  0  0
   -3.3040   16.4990  -35.3150 C   0  0  0  0  0  0  0  0  0  0  0  0
   -1.2140   18.9800  -32.1510 C   0  0  0  0  0  0  0  0  0  0  0  0
   -2.0820   19.7150  -31.3410 C   0  0  0  0  0  0  0  0  0  0  0  0
   -4.9750   21.7510  -31.1860 C   0  0  0  0  0  0  0  0  0  0  0  0
   -5.6920   20.8750  -32.0460 C   0  0  0  0  0  0  0  0  0  0  0  0
   -5.1370   19.6360  -32.5160 N   0  0  0  0  0  0  0  0  0  0  0  0
   -5.3920   18.4170  -31.7410 C   0  0  0  0  0  0  0  0  0  0  0  0
   -5.7380   17.2570  -32.6820 C   0  0  0  0  0  0  0  0  0  0  0  0
   -6.5600   17.7320  -33.7290 O   0  0  0  0  0  0  0  0  0  0  0  0
   -5.8130   18.5410  -34.6290 C   0  0  0  0  0  0  0  0  0  0  0  0
   -4.8070   19.4910  -33.9370 C   0  0  0  0  0  0  0  0  0  0  0  0
   -7.0060   21.1150  -32.2950 N   0  0  0  0  0  0  0  0  0  0  0  0
   -7.6750   22.1480  -31.7240 C   0  0  0  0  0  0  0  0  0  0  0  0
   -9.0650   22.3690  -32.0270 N   0  0  0  0  0  0  0  0  0  0  0  0
  -10.0140   21.2520  -31.9530 C   0  0  0  0  0  0  0  0  0  0  0  0
   -9.5250   23.7150  -32.3810 C   0  0  0  0  0  0  0  0  0  0  0  0
   -7.0370   22.9370  -30.8220 N   0  0  0  0  0  0  0  0  0  0  0  0
   -5.7250   22.7550  -30.5260 C   0  0  0  0  0  0  0  0  0  0  0  0
   -5.1300   23.5630  -29.5550 C   0  0  0  0  0  0  0  0  0  0  0  0
   -1.8100   24.6480  -28.2470 C   0  0  0  0  0  0  0  0  0  0  0  0
   -1.0290   24.3640  -29.3710 O   0  0  0  0  0  0  0  0  0  0  0  0
   -0.1550   23.2400  -29.4150 C   0  0  0  0  0  0  0  0  0  0  0  0
    0.4244   25.8448  -25.2540 H   0  0  0  0  0  0  0  0  0  0  0  0
    1.8560   25.3788  -26.2338 H   0  0  0  0  0  0  0  0  0  0  0  0
    1.2832   27.0813  -26.2338 H   0  0  0  0  0  0  0  0  0  0  0  0
   -1.5578   26.2563  -25.2315 H   0  0  0  0  0  0  0  0  0  0  0  0
   -3.9492   25.5725  -25.1149 H   0  0  0  0  0  0  0  0  0  0  0  0
   -4.9756   24.2741  -26.9734 H   0  0  0  0  0  0  0  0  0  0  0  0
   -1.9301   22.3899  -29.7234 H   0  0  0  0  0  0  0  0  0  0  0  0
   -2.8725   22.2250  -33.5223 H   0  0  0  0  0  0  0  0  0  0  0  0
   -1.2770   20.9463  -34.9466 H   0  0  0  0  0  0  0  0  0  0  0  0
   -1.0443   18.1905  -35.8998 H   0  0  0  0  0  0  0  0  0  0  0  0
    0.5866   17.4378  -35.7500 H   0  0  0  0  0  0  0  0  0  0  0  0
   -0.8925   15.6529  -35.3020 H   0  0  0  0  0  0  0  0  0  0  0  0
   -0.3970   16.2730  -33.6490 H   0  0  0  0  0  0  0  0  0  0  0  0
   -2.5387   16.2631  -32.1119 H   0  0  0  0  0  0  0  0  0  0  0  0
   -3.8354   15.5410  -33.1238 H   0  0  0  0  0  0  0  0  0  0  0  0
   -2.1899   14.8205  -33.1238 H   0  0  0  0  0  0  0  0  0  0  0  0
   -4.3251   16.3473  -34.9350 H   0  0  0  0  0  0  0  0  0  0  0  0
   -3.2728   17.4116  -35.9283 H   0  0  0  0  0  0  0  0  0  0  0  0
   -3.0089   15.6348  -35.9283 H   0  0  0  0  0  0  0  0  0  0  0  0
   -0.7773   18.0435  -31.7737 H   0  0  0  0  0  0  0  0  0  0  0  0
   -2.3254   19.3536  -30.3310 H   0  0  0  0  0  0  0  0  0  0  0  0
   -4.4932   18.1596  -31.1615 H   0  0  0  0  0  0  0  0  0  0  0  0
   -6.2382   18.5934  -31.0607 H   0  0  0  0  0  0  0  0  0  0  0  0
   -4.8125   16.8375  -33.1033 H   0  0  0  0  0  0  0  0  0  0  0  0
   -6.2715   16.4753  -32.1214 H   0  0  0  0  0  0  0  0  0  0  0  0
   -5.2534   17.8787  -35.3059 H   0  0  0  0  0  0  0  0  0  0  0  0
   -6.5368   19.1770  -35.1598 H   0  0  0  0  0  0  0  0  0  0  0  0
   -3.7924   19.0772  -34.0333 H   0  0  0  0  0  0  0  0  0  0  0  0
   -4.8591   20.4787  -34.4185 H   0  0  0  0  0  0  0  0  0  0  0  0
  -10.2172   21.0128  -30.8987 H   0  0  0  0  0  0  0  0  0  0  0  0
  -10.9525   21.5345  -32.4524 H   0  0  0  0  0  0  0  0  0  0  0  0
   -9.5836   20.3715  -32.4524 H   0  0  0  0  0  0  0  0  0  0  0  0
   -9.7211   24.2887  -31.4632 H   0  0  0  0  0  0  0  0  0  0  0  0
   -8.7497   24.2236  -32.9727 H   0  0  0  0  0  0  0  0  0  0  0  0
  -10.4495   23.6427  -32.9727 H   0  0  0  0  0  0  0  0  0  0  0  0
   -5.7287   24.3296  -29.0413 H   0  0  0  0  0  0  0  0  0  0  0  0
    0.0896   22.9254  -28.3897 H   0  0  0  0  0  0  0  0  0  0  0  0
   -0.6489   22.4120  -29.9446 H   0  0  0  0  0  0  0  0  0  0  0  0
    0.7692   23.5146  -29.9446 H   0  0  0  0  0  0  0  0  0  0  0  0
  1  2  1  0
  2  3  1  0
  3  4  2  0
  4  5  1  0
  5  6  2  0
  6  7  1  0
  7  8  1  0
  8  9  2  0
  9 10  1  0
 10 11  1  0
 11 12  2  0
 12 13  1  0
 13 14  2  0
 14 15  1  0
 15 16  1  0
 16 17  1  0
 17 18  1  0
 18 19  1  0
 18 20  1  0
 14 21  1  0
 21 22  2  0
 10 23  2  0
 23 24  1  0
 24 25  1  0
 25 26  1  0
 26 27  1  0
 27 28  1  0
 28 29  1  0
 29 30  1  0
 24 31  2  0
 31 32  1  0
 32 33  1  0
 33 34  1  0
 33 35  1  0
 32 36  2  0
 36 37  1  0
 37 38  2  0
  7 39  2  0
 39 40  1  0
 40 41  1  0
 39  3  1  0
 38  8  1  0
 22 11  1  0
 37 23  1  0
 30 25  1  0
  1 42  1  0
  1 43  1  0
  1 44  1  0
  4 45  1  0
  5 46  1  0
  6 47  1  0
  9 48  1  0
 12 49  1  0
 13 50  1  0
 16 51  1  0
 16 52  1  0
 17 53  1  0
 17 54  1  0
 19 55  1  0
 19 56  1  0
 19 57  1  0
 20 58  1  0
 20 59  1  0
 20 60  1  0
 21 61  1  0
 22 62  1  0
 26 63  1  0
 26 64  1  0
 27 65  1  0
 27 66  1  0
 29 67  1  0
 29 68  1  0
 30 69  1  0
 30 70  1  0
 34 71  1  0
 34 72  1  0
 34 73  1  0
 35 74  1  0
 35 75  1  0
 35 76  1  0
 38 77  1  0
 41 78  1  0
 41 79  1  0
 41 80  1  0
M  END
>  <UniqueID>  (23) 
21

>  <SMILES>  (23) 
COc1cccc(-c2cc(-c3ccc(OCCN(C)C)cc3)c3c(N4CCOCC4)nc(N(C)C)nc3c2)c1OC

>  <Energy>  (23) 
122.09076917801589

>  <Genealogy>  (23) 
COc1cccc(-c2cc(-c3ccc(OCCN(C)C)cc3)c3c(N4CCOCC4)nc(N(C)C)nc3c2)c1OC (3D coordinates assigned)
COc1cccc(-c2cc(-c3ccc(OCCN(C)C)cc3)c3c(N4CCOCC4)nc(N(C)C)nc3c2)c1OC (nonaromatic ring conformer: 122.09076917801589 kcal/mol)

>  <smiles>  (23) 
COc1cccc(-c2cc(-c3ccc(OCCN(C)C)cc3)c3c(N4CCOCC4)nc(N(C)C)nc3c2)c1OC

>  <score_type>  (23) 
oracle

>  <origin>  (23) 
adg

>  <m_score__min__energy>  (23) 
-8.5600000000000005

>  <m_primary>  (23) 
energy

$$$$
23:0
     RDKit          3D

 64 66  0  0  0  0  0  0  0  0999 V2000
   -0.3860   22.8830  -25.5350 C   0  0  0  0  0  0  0  0  0  0  0  0
   -0.5850   21.8750  -26.6660 C   0  0  0  0  0  0  0  0  0  0  0  0
   -1.6710   22.2830  -27.5860 N   0  0  0  0  0  0  0  0  0  0  0  0
   -2.6210   21.1770  -27.8400 C   0  0  0  0  0  0  0  0  0  0  0  0
   -2.3030   19.9920  -26.9340 C   0  0  0  0  0  0  0  0  0  0  0  0
   -2.3460   23.5560  -27.2220 C   0  0  0  0  0  0  0  0  0  0  0  0
   -1.9320   24.7780  -28.0620 C   0  0  0  0  0  0  0  0  0  0  0  0
   -2.7880   24.9300  -29.1890 O   0  0  0  0  0  0  0  0  0  0  0  0
   -3.0960   23.9090  -30.1000 C   0  0  0  0  0  0  0  0  0  0  0  0
   -4.3870   23.7290  -30.6200 C   0  0  0  0  0  0  0  0  0  0  0  0
   -4.6420   22.7000  -31.5270 C   0  0  0  0  0  0  0  0  0  0  0  0
   -3.6190   21.8300  -31.9460 C   0  0  0  0  0  0  0  0  0  0  0  0
   -2.3170   21.9950  -31.3990 C   0  0  0  0  0  0  0  0  0  0  0  0
   -2.0750   23.0440  -30.4940 C   0  0  0  0  0  0  0  0  0  0  0  0
   -1.1690   21.0970  -31.7870 C   0  0  0  0  0  0  0  0  0  0  0  0
   -1.4930   19.6220  -31.5070 C   0  0  0  0  0  0  0  0  0  0  0  0
   -2.3240   18.9640  -32.6220 C   0  0  0  0  0  0  0  0  0  0  0  0
   -3.7490   19.3340  -32.4720 N   0  0  0  0  0  0  0  0  0  0  0  0
   -4.6260   18.3620  -33.1630 C   0  0  0  0  0  0  0  0  0  0  0  0
   -5.8940   18.0550  -32.3460 C   0  0  0  0  0  0  0  0  0  0  0  0
   -7.1820   18.3660  -33.1230 C   0  0  0  0  0  0  0  0  0  0  0  0
   -7.8540   19.6170  -32.6180 C   0  0  0  0  0  0  0  0  0  0  0  0
   -9.2570   19.6960  -32.5590 C   0  0  0  0  0  0  0  0  0  0  0  0
   -9.8770   20.8700  -32.1190 C   0  0  0  0  0  0  0  0  0  0  0  0
   -9.1040   21.9730  -31.7430 C   0  0  0  0  0  0  0  0  0  0  0  0
   -7.7100   21.9040  -31.8060 C   0  0  0  0  0  0  0  0  0  0  0  0
   -7.0850   20.7320  -32.2450 C   0  0  0  0  0  0  0  0  0  0  0  0
   -4.0140   20.7250  -32.9250 C   0  0  0  0  0  0  0  0  0  0  0  0
   -0.4869   22.3718  -24.5663 H   0  0  0  0  0  0  0  0  0  0  0  0
    0.6172   23.3275  -25.6123 H   0  0  0  0  0  0  0  0  0  0  0  0
   -1.1450   23.6754  -25.6123 H   0  0  0  0  0  0  0  0  0  0  0  0
    0.3517   21.7916  -27.2367 H   0  0  0  0  0  0  0  0  0  0  0  0
   -0.8637   20.9103  -26.2170 H   0  0  0  0  0  0  0  0  0  0  0  0
   -3.6452   21.5241  -27.6385 H   0  0  0  0  0  0  0  0  0  0  0  0
   -2.5318   20.8607  -28.8898 H   0  0  0  0  0  0  0  0  0  0  0  0
   -2.3862   20.3021  -25.8819 H   0  0  0  0  0  0  0  0  0  0  0  0
   -3.0142   19.1768  -27.1333 H   0  0  0  0  0  0  0  0  0  0  0  0
   -1.2793   19.6424  -27.1333 H   0  0  0  0  0  0  0  0  0  0  0  0
   -3.4302   23.4127  -27.3402 H   0  0  0  0  0  0  0  0  0  0  0  0
   -2.0437   23.7783  -26.1880 H   0  0  0  0  0  0  0  0  0  0  0  0
   -1.9932   25.6819  -27.4382 H   0  0  0  0  0  0  0  0  0  0  0  0
   -0.9024   24.6281  -28.4189 H   0  0  0  0  0  0  0  0  0  0  0  0
   -5.2008   24.4016  -30.3114 H   0  0  0  0  0  0  0  0  0  0  0  0
   -5.6603   22.5667  -31.9212 H   0  0  0  0  0  0  0  0  0  0  0  0
   -1.0619   23.1850  -30.0894 H   0  0  0  0  0  0  0  0  0  0  0  0
   -0.9644   21.2211  -32.8607 H   0  0  0  0  0  0  0  0  0  0  0  0
   -0.2907   21.3787  -31.1876 H   0  0  0  0  0  0  0  0  0  0  0  0
   -0.5475   19.0696  -31.4028 H   0  0  0  0  0  0  0  0  0  0  0  0
   -2.0940   19.5875  -30.5864 H   0  0  0  0  0  0  0  0  0  0  0  0
   -1.9587   19.3082  -33.6008 H   0  0  0  0  0  0  0  0  0  0  0  0
   -2.2239   17.8708  -32.5517 H   0  0  0  0  0  0  0  0  0  0  0  0
   -4.9221   18.7791  -34.1368 H   0  0  0  0  0  0  0  0  0  0  0  0
   -4.0649   17.4243  -33.2889 H   0  0  0  0  0  0  0  0  0  0  0  0
   -5.8919   16.9880  -32.0785 H   0  0  0  0  0  0  0  0  0  0  0  0
   -5.8794   18.6953  -31.4517 H   0  0  0  0  0  0  0  0  0  0  0  0
   -6.9326   18.5004  -34.1859 H   0  0  0  0  0  0  0  0  0  0  0  0
   -7.8768   17.5249  -32.9824 H   0  0  0  0  0  0  0  0  0  0  0  0
   -9.8682   18.8323  -32.8597 H   0  0  0  0  0  0  0  0  0  0  0  0
  -10.9744   20.9258  -32.0686 H   0  0  0  0  0  0  0  0  0  0  0  0
   -9.5937   22.8954  -31.3975 H   0  0  0  0  0  0  0  0  0  0  0  0
   -7.1031   22.7724  -31.5100 H   0  0  0  0  0  0  0  0  0  0  0  0
   -5.9874   20.6833  -32.2983 H   0  0  0  0  0  0  0  0  0  0  0  0
   -3.4573   20.8874  -33.8597 H   0  0  0  0  0  0  0  0  0  0  0  0
   -5.1058   20.8002  -33.0357 H   0  0  0  0  0  0  0  0  0  0  0  0
  1  2  1  0
  2  3  1  0
  3  4  1  0
  4  5  1  0
  3  6  1  0
  6  7  1  0
  7  8  1  0
  8  9  1  0
  9 10  2  0
 10 11  1  0
 11 12  2  0
 12 13  1  0
 13 14  2  0
 13 15  1  0
 15 16  1  0
 16 17  1  0
 17 18  1  0
 18 19  1  0
 19 20  1  0
 20 21  1  0
 21 22  1  0
 22 23  2  0
 23 24  1  0
 24 25  2  0
 25 26  1  0
 26 27  2  0
 18 28  1  0
 14  9  1  0
 27 22  1  0
 28 12  1  0
  1 29  1  0
  1 30  1  0
  1 31  1  0
  2 32  1  0
  2 33  1  0
  4 34  1  0
  4 35  1  0
  5 36  1  0
  5 37  1  0
  5 38  1  0
  6 39  1  0
  6 40  1  0
  7 41  1  0
  7 42  1  0
 10 43  1  0
 11 44  1  0
 14 45  1  0
 15 46  1  0
 15 47  1  0
 16 48  1  0
 16 49  1  0
 17 50  1  0
 17 51  1  0
 19 52  1  0
 19 53  1  0
 20 54  1  0
 20 55  1  0
 21 56  1  0
 21 57  1  0
 23 58  1  0
 24 59  1  0
 25 60  1  0
 26 61  1  0
 27 62  1  0
 28 63  1  0
 28 64  1  0
M  END
>  <UniqueID>  (24) 
22

>  <SMILES>  (24) 
CCN(CC)CCOc1ccc2c(c1)CCCN(CCCc1ccccc1)C2

>  <Energy>  (24) 
73.34270601599097

>  <Genealogy>  (24) 
CCN(CC)CCOc1ccc2c(c1)CCCN(CCCc1ccccc1)C2 (3D coordinates assigned)
CCN(CC)CCOc1ccc2c(c1)CCCN(CCCc1ccccc1)C2 (nonaromatic ring conformer: 73.34270601599097 kcal/mol)

>  <smiles>  (24) 
CCN(CC)CCOc1ccc2c(c1)CCCN(CCCc1ccccc1)C2

>  <score_type>  (24) 
oracle

>  <origin>  (24) 
adg

>  <m_score__min__energy>  (24) 
-6.6500000000000004

>  <m_primary>  (24) 
energy

$$$$
24:0
     RDKit          3D

 59 62  0  0  0  0  0  0  0  0999 V2000
   -9.0420   20.4860  -32.1610 C   0  0  0  0  0  0  0  0  0  0  0  0
   -8.7030   19.1050  -32.2350 O   0  0  0  0  0  0  0  0  0  0  0  0
   -7.4350   18.6170  -32.5860 C   0  0  0  0  0  0  0  0  0  0  0  0
   -6.8390   17.5270  -31.9320 C   0  0  0  0  0  0  0  0  0  0  0  0
   -5.5730   17.0770  -32.3170 C   0  0  0  0  0  0  0  0  0  0  0  0
   -4.8580   17.7060  -33.3650 C   0  0  0  0  0  0  0  0  0  0  0  0
   -3.5310   17.2380  -33.7680 N   0  0  0  0  0  0  0  0  0  0  0  0
   -2.4770   17.1080  -32.7380 C   0  0  0  0  0  0  0  0  0  0  0  0
   -1.1030   16.6170  -33.2400 C   0  0  0  0  0  0  0  0  0  0  0  0
   -0.8200   16.9290  -34.6500 N   0  0  0  0  0  0  0  0  0  0  0  0
   -0.5540   18.3400  -34.8840 C   0  0  0  0  0  0  0  0  0  0  0  0
   -0.0920   18.7180  -35.9960 O   0  0  0  0  0  0  0  0  0  0  0  0
   -0.7830   19.3630  -33.8240 C   0  0  0  0  0  0  0  0  0  0  0  0
   -2.0680   19.8930  -33.5900 C   0  0  0  0  0  0  0  0  0  0  0  0
   -2.2840   20.8340  -32.5750 C   0  0  0  0  0  0  0  0  0  0  0  0
   -3.9080   21.4640  -32.2850 S   0  0  0  0  0  0  0  0  0  0  0  0
   -4.6420   20.5280  -31.3670 O   0  0  0  0  0  0  0  0  0  0  0  0
   -4.6590   21.5210  -33.5860 O   0  0  0  0  0  0  0  0  0  0  0  0
   -3.8670   23.0580  -31.5720 N   0  0  0  0  0  0  0  0  0  0  0  0
   -3.2190   23.0170  -30.2500 C   0  0  0  0  0  0  0  0  0  0  0  0
   -3.4020   24.3570  -29.5100 C   0  0  0  0  0  0  0  0  0  0  0  0
   -3.8710   25.3630  -30.3880 O   0  0  0  0  0  0  0  0  0  0  0  0
   -5.1680   25.0280  -30.8540 C   0  0  0  0  0  0  0  0  0  0  0  0
   -5.2260   23.6060  -31.4540 C   0  0  0  0  0  0  0  0  0  0  0  0
   -1.2100   21.2620  -31.7870 C   0  0  0  0  0  0  0  0  0  0  0  0
    0.0680   20.7490  -32.0080 C   0  0  0  0  0  0  0  0  0  0  0  0
    0.2860   19.8050  -33.0160 C   0  0  0  0  0  0  0  0  0  0  0  0
    1.5480   19.3440  -33.2110 F   0  0  0  0  0  0  0  0  0  0  0  0
   -1.8970   16.4060  -35.5040 C   0  0  0  0  0  0  0  0  0  0  0  0
   -3.2520   17.0480  -35.2060 C   0  0  0  0  0  0  0  0  0  0  0  0
   -5.4810   18.7990  -34.0140 C   0  0  0  0  0  0  0  0  0  0  0  0
   -6.7470   19.2430  -33.6250 C   0  0  0  0  0  0  0  0  0  0  0  0
   -9.1164   20.7893  -31.1063 H   0  0  0  0  0  0  0  0  0  0  0  0
   -8.2635   21.0819  -32.6598 H   0  0  0  0  0  0  0  0  0  0  0  0
  -10.0080   20.6537  -32.6598 H   0  0  0  0  0  0  0  0  0  0  0  0
   -7.3717   17.0240  -31.1115 H   0  0  0  0  0  0  0  0  0  0  0  0
   -5.1238   16.2184  -31.7963 H   0  0  0  0  0  0  0  0  0  0  0  0
   -2.3338   18.0957  -32.2754 H   0  0  0  0  0  0  0  0  0  0  0  0
   -2.8340   16.3347  -32.0418 H   0  0  0  0  0  0  0  0  0  0  0  0
   -0.3238   17.0862  -32.6214 H   0  0  0  0  0  0  0  0  0  0  0  0
   -1.1148   15.5200  -33.1592 H   0  0  0  0  0  0  0  0  0  0  0  0
    0.0470   16.3900  -34.8810 H   0  0  0  0  0  0  0  0  0  0  0  0
   -2.9126   19.5632  -34.2128 H   0  0  0  0  0  0  0  0  0  0  0  0
   -3.6689   22.2105  -29.6525 H   0  0  0  0  0  0  0  0  0  0  0  0
   -2.1432   22.8349  -30.3897 H   0  0  0  0  0  0  0  0  0  0  0  0
   -4.1301   24.2219  -28.6966 H   0  0  0  0  0  0  0  0  0  0  0  0
   -2.4273   24.6704  -29.1078 H   0  0  0  0  0  0  0  0  0  0  0  0
   -5.8725   25.0853  -30.0111 H   0  0  0  0  0  0  0  0  0  0  0  0
   -5.4342   25.7399  -31.6492 H   0  0  0  0  0  0  0  0  0  0  0  0
   -5.8253   22.9574  -30.7982 H   0  0  0  0  0  0  0  0  0  0  0  0
   -5.6863   23.6521  -32.4520 H   0  0  0  0  0  0  0  0  0  0  0  0
   -1.3738   22.0043  -30.9919 H   0  0  0  0  0  0  0  0  0  0  0  0
    0.9090   21.0890  -31.3858 H   0  0  0  0  0  0  0  0  0  0  0  0
   -1.6387   16.6016  -36.5552 H   0  0  0  0  0  0  0  0  0  0  0  0
   -1.9883   15.3288  -35.3006 H   0  0  0  0  0  0  0  0  0  0  0  0
   -3.2821   18.0324  -35.6959 H   0  0  0  0  0  0  0  0  0  0  0  0
   -4.0187   16.3574  -35.5873 H   0  0  0  0  0  0  0  0  0  0  0  0
   -4.9594   19.3072  -34.8384 H   0  0  0  0  0  0  0  0  0  0  0  0
   -7.2068   20.0967  -34.1445 H   0  0  0  0  0  0  0  0  0  0  0  0
  1  2  1  0
  2  3  1  0
  3  4  2  0
  4  5  1  0
  5  6  2  0
  6  7  1  0
  7  8  1  0
  8  9  1  0
  9 10  1  0
 10 11  1  0
 11 12  2  0
 11 13  1  0
 13 14  2  0
 14 15  1  0
 15 16  1  0
 16 17  2  0
 16 18  2  0
 16 19  1  0
 19 20  1  0
 20 21  1  0
 21 22  1  0
 22 23  1  0
 23 24  1  0
 15 25  2  0
 25 26  1  0
 26 27  2  0
 27 28  1  0
 10 29  1  0
 29 30  1  0
  6 31  1  0
 31 32  2  0
 32  3  1  0
 30  7  1  0
 27 13  1  0
 24 19  1  0
  1 33  1  0
  1 34  1  0
  1 35  1  0
  4 36  1  0
  5 37  1  0
  8 38  1  0
  8 39  1  0
  9 40  1  0
  9 41  1  0
 10 42  1  0
 14 43  1  0
 20 44  1  0
 20 45  1  0
 21 46  1  0
 21 47  1  0
 23 48  1  0
 23 49  1  0
 24 50  1  0
 24 51  1  0
 25 52  1  0
 26 53  1  0
 29 54  1  0
 29 55  1  0
 30 56  1  0
 30 57  1  0
 31 58  1  0
 32 59  1  0
M  CHG  1  10   1
M  END
>  <UniqueID>  (25) 
23

>  <SMILES>  (25) 
COc1ccc(N2CC[NH+](C(=O)c3cc(S(=O)(=O)N4CCOCC4)ccc3F)CC2)cc1

>  <Energy>  (25) 
85.21955484245835

>  <Genealogy>  (25) 
COc1ccc(N2CC[NH+](C(=O)c3cc(S(=O)(=O)N4CCOCC4)ccc3F)CC2)cc1 (protonated)
COc1ccc(N2CC[NH+](C(=O)c3cc(S(=O)(=O)N4CCOCC4)ccc3F)CC2)cc1 (3D coordinates assigned)
COc1ccc(N2CC[NH+](C(=O)c3cc(S(=O)(=O)N4CCOCC4)ccc3F)CC2)cc1 (nonaromatic ring conformer: 85.21955484245835 kcal/mol)

>  <smiles>  (25) 
COc1ccc(N2CCN(C(=O)c3cc(S(=O)(=O)N4CCOCC4)ccc3F)CC2)cc1

>  <score_type>  (25) 
oracle

>  <origin>  (25) 
adg

>  <m_score__min__energy>  (25) 
-9.2300000000000004

>  <m_primary>  (25) 
energy

$$$$
25:0
     RDKit          3D

 48 51  0  0  0  0  0  0  0  0999 V2000
   -9.0230   23.1830  -31.6540 O   0  0  0  0  0  0  0  0  0  0  0  0
   -7.8940   22.7470  -32.0100 C   0  0  0  0  0  0  0  0  0  0  0  0
   -6.7670   23.7350  -32.1520 C   0  0  0  0  0  0  0  0  0  0  0  0
   -6.0810   23.9170  -30.8770 N   0  0  0  0  0  0  0  0  0  0  0  0
   -5.4280   22.9740  -30.1700 C   0  0  0  0  0  0  0  0  0  0  0  0
   -4.9700   23.5960  -29.0290 C   0  0  0  0  0  0  0  0  0  0  0  0
   -4.2320   22.9660  -27.8880 C   0  0  0  0  0  0  0  0  0  0  0  0
   -3.1010   23.8150  -27.4650 N   0  0  0  0  0  0  0  0  0  0  0  0
   -3.5780   24.9140  -26.6030 C   0  0  0  0  0  0  0  0  0  0  0  0
   -2.3880   25.6430  -25.9480 C   0  0  0  0  0  0  0  0  0  0  0  0
   -1.0960   25.5150  -26.7700 C   0  0  0  0  0  0  0  0  0  0  0  0
   -1.4020   25.5010  -28.2690 C   0  0  0  0  0  0  0  0  0  0  0  0
   -2.3650   24.3510  -28.6390 C   0  0  0  0  0  0  0  0  0  0  0  0
   -5.3720   24.8810  -29.0740 N   0  0  0  0  0  0  0  0  0  0  0  0
   -6.0450   25.0560  -30.2000 N   0  0  0  0  0  0  0  0  0  0  0  0
   -7.7130   21.2860  -32.2400 C   0  0  0  0  0  0  0  0  0  0  0  0
   -8.5620   20.3670  -31.5950 C   0  0  0  0  0  0  0  0  0  0  0  0
   -8.4070   18.9910  -31.7860 C   0  0  0  0  0  0  0  0  0  0  0  0
   -7.4000   18.5040  -32.6270 C   0  0  0  0  0  0  0  0  0  0  0  0
   -7.2370   17.1240  -32.8230 C   0  0  0  0  0  0  0  0  0  0  0  0
   -6.2270   16.6500  -33.6660 C   0  0  0  0  0  0  0  0  0  0  0  0
   -5.3770   17.5470  -34.3180 C   0  0  0  0  0  0  0  0  0  0  0  0
   -5.5310   18.9230  -34.1310 C   0  0  0  0  0  0  0  0  0  0  0  0
   -6.5410   19.4130  -33.2860 C   0  0  0  0  0  0  0  0  0  0  0  0
   -6.7030   20.7930  -33.0920 C   0  0  0  0  0  0  0  0  0  0  0  0
   -6.0503   23.3614  -32.8982 H   0  0  0  0  0  0  0  0  0  0  0  0
   -7.1810   24.7020  -32.4736 H   0  0  0  0  0  0  0  0  0  0  0  0
   -5.2885   21.9189  -30.4480 H   0  0  0  0  0  0  0  0  0  0  0  0
   -4.9213   22.8346  -27.0409 H   0  0  0  0  0  0  0  0  0  0  0  0
   -3.8395   21.9921  -28.2157 H   0  0  0  0  0  0  0  0  0  0  0  0
   -4.1498   25.6295  -27.2121 H   0  0  0  0  0  0  0  0  0  0  0  0
   -4.2164   24.4937  -25.8119 H   0  0  0  0  0  0  0  0  0  0  0  0
   -2.6388   26.7094  -25.8485 H   0  0  0  0  0  0  0  0  0  0  0  0
   -2.2086   25.1771  -24.9678 H   0  0  0  0  0  0  0  0  0  0  0  0
   -0.4395   26.3683  -26.5444 H   0  0  0  0  0  0  0  0  0  0  0  0
   -0.6019   24.5691  -26.5032 H   0  0  0  0  0  0  0  0  0  0  0  0
   -1.8650   26.4589  -28.5484 H   0  0  0  0  0  0  0  0  0  0  0  0
   -0.4579   25.3494  -28.8128 H   0  0  0  0  0  0  0  0  0  0  0  0
   -3.0959   24.7264  -29.3703 H   0  0  0  0  0  0  0  0  0  0  0  0
   -1.7584   23.5314  -29.0515 H   0  0  0  0  0  0  0  0  0  0  0  0
   -5.2080   25.6190  -28.3550 H   0  0  0  0  0  0  0  0  0  0  0  0
   -9.3580   20.7366  -30.9318 H   0  0  0  0  0  0  0  0  0  0  0  0
   -9.0795   18.2878  -31.2730 H   0  0  0  0  0  0  0  0  0  0  0  0
   -7.9047   16.4142  -32.3128 H   0  0  0  0  0  0  0  0  0  0  0  0
   -6.1013   15.5676  -33.8163 H   0  0  0  0  0  0  0  0  0  0  0  0
   -4.5844   17.1688  -34.9804 H   0  0  0  0  0  0  0  0  0  0  0  0
   -4.8594   19.6250  -34.6469 H   0  0  0  0  0  0  0  0  0  0  0  0
   -6.0355   21.4976  -33.6097 H   0  0  0  0  0  0  0  0  0  0  0  0
  1  2  2  0
  2  3  1  0
  3  4  1  0
  4  5  1  0
  5  6  2  0
  6  7  1  0
  7  8  1  0
  8  9  1  0
  9 10  1  0
 10 11  1  0
 11 12  1  0
 12 13  1  0
  6 14  1  0
 14 15  2  0
  2 16  1  0
 16 17  2  0
 17 18  1  0
 18 19  2  0
 19 20  1  0
 20 21  2  0
 21 22  1  0
 22 23  2  0
 23 24  1  0
 24 25  2  0
 15  4  1  0
 25 16  1  0
 13  8  1  0
 24 19  1  0
  3 26  1  0
  3 27  1  0
  5 28  1  0
  7 29  1  0
  7 30  1  0
  9 31  1  0
  9 32  1  0
 10 33  1  0
 10 34  1  0
 11 35  1  0
 11 36  1  0
 12 37  1  0
 12 38  1  0
 13 39  1  0
 13 40  1  0
 14 41  1  0
 17 42  1  0
 18 43  1  0
 20 44  1  0
 21 45  1  0
 22 46  1  0
 23 47  1  0
 25 48  1  0
M  CHG  1  14   1
M  END
>  <UniqueID>  (26) 
24

>  <SMILES>  (26) 
O=C(Cn1cc(CN2CCCCC2)[nH+]n1)c1ccc2ccccc2c1

>  <Energy>  (26) 
93.70573841813763

>  <Genealogy>  (26) 
O=C(Cn1cc(CN2CCCCC2)[nH+]n1)c1ccc2ccccc2c1 (protonated)
O=C(Cn1cc(CN2CCCCC2)[nH+]n1)c1ccc2ccccc2c1 (3D coordinates assigned)
O=C(Cn1cc(CN2CCCCC2)[nH+]n1)c1ccc2ccccc2c1 (nonaromatic ring conformer: 93.70573841813763 kcal/mol)

>  <smiles>  (26) 
O=C(Cn1cc(CN2CCCCC2)nn1)c1ccc2ccccc2c1

>  <score_type>  (26) 
oracle

>  <origin>  (26) 
adg

>  <m_score__min__energy>  (26) 
-9.7300000000000004

>  <m_primary>  (26) 
energy

$$$$
26:0
     RDKit          3D

 42 43  0  0  0  0  0  0  0  0999 V2000
   -3.9410   25.6060  -30.6650 O   0  0  0  0  0  0  0  0  0  0  0  0
   -5.3160   25.3270  -30.6740 C   0  0  0  0  0  0  0  0  0  0  0  0
   -5.6050   24.0060  -31.3930 C   0  0  0  0  0  0  0  0  0  0  0  0
   -5.6410   22.8780  -30.4320 N   0  0  0  0  0  0  0  0  0  0  0  0
   -5.3190   23.2920  -29.0370 C   0  0  0  0  0  0  0  0  0  0  0  0
   -4.1500   22.5160  -28.4020 C   0  0  0  0  0  0  0  0  0  0  0  0
   -2.9320   22.4330  -29.3470 C   0  0  0  0  0  0  0  0  0  0  0  0
   -2.1480   23.7690  -29.4270 C   0  0  0  0  0  0  0  0  0  0  0  0
   -2.5330   24.7410  -28.3820 N   0  0  0  0  0  0  0  0  0  0  0  0
   -1.4480   25.6720  -28.0420 C   0  0  0  0  0  0  0  0  0  0  0  0
   -1.0130   25.4780  -26.6130 C   0  0  0  0  0  0  0  0  0  0  0  0
   -1.1360   26.5170  -25.6800 C   0  0  0  0  0  0  0  0  0  0  0  0
   -0.7100   26.3140  -24.3650 C   0  0  0  0  0  0  0  0  0  0  0  0
   -0.1760   25.1190  -23.9950 N   0  0  0  0  0  0  0  0  0  0  0  0
   -0.0420   24.0960  -24.8830 C   0  0  0  0  0  0  0  0  0  0  0  0
   -0.4570   24.2570  -26.2070 C   0  0  0  0  0  0  0  0  0  0  0  0
   -3.3460   21.9500  -30.7660 C   0  0  0  0  0  0  0  0  0  0  0  0
   -4.8580   21.7150  -30.9050 C   0  0  0  0  0  0  0  0  0  0  0  0
   -3.5030   24.9140  -31.2250 H   0  0  0  0  0  0  0  0  0  0  0  0
   -5.6755   25.2577  -29.6367 H   0  0  0  0  0  0  0  0  0  0  0  0
   -5.8337   26.1369  -31.2089 H   0  0  0  0  0  0  0  0  0  0  0  0
   -6.5781   24.0777  -31.9009 H   0  0  0  0  0  0  0  0  0  0  0  0
   -4.8035   23.8204  -32.1231 H   0  0  0  0  0  0  0  0  0  0  0  0
   -5.0592   24.3609  -29.0456 H   0  0  0  0  0  0  0  0  0  0  0  0
   -6.2098   23.0747  -28.4293 H   0  0  0  0  0  0  0  0  0  0  0  0
   -3.8469   23.0254  -27.4754 H   0  0  0  0  0  0  0  0  0  0  0  0
   -4.4929   21.4910  -28.1977 H   0  0  0  0  0  0  0  0  0  0  0  0
   -2.2523   21.6856  -28.9118 H   0  0  0  0  0  0  0  0  0  0  0  0
   -1.0752   23.5502  -29.3210 H   0  0  0  0  0  0  0  0  0  0  0  0
   -2.3860   24.2266  -30.3986 H   0  0  0  0  0  0  0  0  0  0  0  0
   -3.3760   25.2930  -28.6690 H   0  0  0  0  0  0  0  0  0  0  0  0
   -0.5923   25.4892  -28.7086 H   0  0  0  0  0  0  0  0  0  0  0  0
   -1.8124   26.7025  -28.1655 H   0  0  0  0  0  0  0  0  0  0  0  0
   -1.5645   27.4844  -25.9808 H   0  0  0  0  0  0  0  0  0  0  0  0
   -0.8068   27.1233  -23.6264 H   0  0  0  0  0  0  0  0  0  0  0  0
    0.1380   24.9840  -23.0070 H   0  0  0  0  0  0  0  0  0  0  0  0
    0.3942   23.1402  -24.5571 H   0  0  0  0  0  0  0  0  0  0  0  0
   -0.3483   23.4315  -26.9259 H   0  0  0  0  0  0  0  0  0  0  0  0
   -3.0414   22.7124  -31.4981 H   0  0  0  0  0  0  0  0  0  0  0  0
   -2.8464   20.9862  -30.9433 H   0  0  0  0  0  0  0  0  0  0  0  0
   -5.0942   21.5337  -31.9639 H   0  0  0  0  0  0  0  0  0  0  0  0
   -5.1273   20.8469  -30.2854 H   0  0  0  0  0  0  0  0  0  0  0  0
  1  2  1  0
  2  3  1  0
  3  4  1  0
  4  5  1  0
  5  6  1  0
  6  7  1  0
  7  8  1  0
  8  9  1  0
  9 10  1  0
 10 11  1  0
 11 12  2  0
 12 13  1  0
 13 14  2  0
 14 15  1  0
 15 16  2  0
  7 17  1  0
 17 18  1  0
 18  4  1  0
 16 11  1  0
  1 19  1  0
  2 20  1  0
  2 21  1  0
  3 22  1  0
  3 23  1  0
  5 24  1  0
  5 25  1  0
  6 26  1  0
  6 27  1  0
  7 28  1  0
  8 29  1  0
  8 30  1  0
  9 31  1  0
 10 32  1  0
 10 33  1  0
 12 34  1  0
 13 35  1  0
 14 36  1  0
 15 37  1  0
 16 38  1  0
 17 39  1  0
 17 40  1  0
 18 41  1  0
 18 42  1  0
M  CHG  1  14   1
M  END
>  <UniqueID>  (27) 
25

>  <SMILES>  (27) 
OCCN1CCC(CNCc2cc[nH+]cc2)CC1

>  <Energy>  (27) 
51.78545301225854

>  <Genealogy>  (27) 
OCCN1CCC(CNCc2cc[nH+]cc2)CC1 (protonated)
OCCN1CCC(CNCc2cc[nH+]cc2)CC1 (3D coordinates assigned)
OCCN1CCC(CNCc2cc[nH+]cc2)CC1 (nonaromatic ring conformer: 51.78545301225854 kcal/mol)

>  <smiles>  (27) 
OCCN1CCC(CNCc2ccncc2)CC1

>  <score_type>  (27) 
oracle

>  <origin>  (27) 
adg

>  <m_score__min__energy>  (27) 
-6.9800000000000004

>  <m_primary>  (27) 
energy

$$$$
27:0
     RDKit          3D

 64 67  0  0  0  0  0  0  0  0999 V2000
   -6.3070   15.9090  -33.9860 C   0  0  0  0  0  0  0  0  0  0  0  0
   -5.3750   16.1200  -32.7990 C   0  0  0  0  0  0  0  0  0  0  0  0
   -4.0290   16.5350  -33.2620 N   0  0  0  0  0  0  0  0  0  0  0  0
   -3.0970   15.3830  -33.3570 C   0  0  0  0  0  0  0  0  0  0  0  0
   -3.4800   14.1940  -32.4670 C   0  0  0  0  0  0  0  0  0  0  0  0
   -4.1190   17.3500  -34.4980 C   0  0  0  0  0  0  0  0  0  0  0  0
   -4.2730   18.8560  -34.2290 C   0  0  0  0  0  0  0  0  0  0  0  0
   -4.4310   19.1490  -32.8020 N   0  0  0  0  0  0  0  0  0  0  0  0
   -5.2840   20.2050  -32.3230 C   0  0  0  0  0  0  0  0  0  0  0  0
   -6.6800   20.0410  -32.3320 C   0  0  0  0  0  0  0  0  0  0  0  0
   -7.2640   18.8000  -32.6660 C   0  0  0  0  0  0  0  0  0  0  0  0
   -8.6450   18.6340  -32.6400 C   0  0  0  0  0  0  0  0  0  0  0  0
   -9.4680   19.6950  -32.2790 C   0  0  0  0  0  0  0  0  0  0  0  0
   -8.9160   20.9310  -31.9520 C   0  0  0  0  0  0  0  0  0  0  0  0
   -7.5140   21.1420  -31.9940 C   0  0  0  0  0  0  0  0  0  0  0  0
   -6.9530   22.3710  -31.7040 N   0  0  0  0  0  0  0  0  0  0  0  0
   -7.8050   23.5800  -31.6510 C   0  0  0  0  0  0  0  0  0  0  0  0
   -5.5950   22.4680  -31.4630 C   0  0  0  0  0  0  0  0  0  0  0  0
   -5.0250   23.6210  -30.8650 C   0  0  0  0  0  0  0  0  0  0  0  0
   -3.6530   23.7080  -30.6120 C   0  0  0  0  0  0  0  0  0  0  0  0
   -3.1240   24.9110  -30.0400 N   0  0  0  0  0  0  0  0  0  0  0  0
   -2.1740   24.9830  -28.9700 C   0  0  0  0  0  0  0  0  0  0  0  0
   -1.2440   25.8310  -29.0400 O   0  0  0  0  0  0  0  0  0  0  0  0
   -2.3460   24.1910  -27.7010 C   0  0  0  0  0  0  0  0  0  0  0  0
   -1.6390   22.8380  -27.8000 C   0  0  0  0  0  0  0  0  0  0  0  0
   -2.5980   21.7450  -27.5390 N   0  0  0  0  0  0  0  0  0  0  0  0
   -1.9540   20.5540  -26.9320 C   0  0  0  0  0  0  0  0  0  0  0  0
   -2.2680   20.5540  -28.3570 C   0  0  0  0  0  0  0  0  0  0  0  0
   -2.8180   22.6480  -30.9760 C   0  0  0  0  0  0  0  0  0  0  0  0
   -3.3540   21.4900  -31.5310 C   0  0  0  0  0  0  0  0  0  0  0  0
   -4.7360   21.3850  -31.7880 C   0  0  0  0  0  0  0  0  0  0  0  0
   -7.3192   15.6799  -33.6213 H   0  0  0  0  0  0  0  0  0  0  0  0
   -6.3356   16.8234  -34.5968 H   0  0  0  0  0  0  0  0  0  0  0  0
   -5.9390   15.0714  -34.5968 H   0  0  0  0  0  0  0  0  0  0  0  0
   -5.7907   16.9026  -32.1472 H   0  0  0  0  0  0  0  0  0  0  0  0
   -5.2844   15.1736  -32.2456 H   0  0  0  0  0  0  0  0  0  0  0  0
   -3.0767   15.0401  -34.4020 H   0  0  0  0  0  0  0  0  0  0  0  0
   -2.1162   15.7382  -33.0079 H   0  0  0  0  0  0  0  0  0  0  0  0
   -3.3870   14.4826  -31.4096 H   0  0  0  0  0  0  0  0  0  0  0  0
   -4.5187   13.8987  -32.6766 H   0  0  0  0  0  0  0  0  0  0  0  0
   -2.8089   13.3480  -32.6766 H   0  0  0  0  0  0  0  0  0  0  0  0
   -3.2027   17.1931  -35.0861 H   0  0  0  0  0  0  0  0  0  0  0  0
   -5.0209   17.0233  -35.0363 H   0  0  0  0  0  0  0  0  0  0  0  0
   -3.3776   19.3758  -34.6006 H   0  0  0  0  0  0  0  0  0  0  0  0
   -5.1797   19.2012  -34.7475 H   0  0  0  0  0  0  0  0  0  0  0  0
   -3.9660   18.5210  -32.1090 H   0  0  0  0  0  0  0  0  0  0  0  0
   -6.6199   17.9547  -32.9500 H   0  0  0  0  0  0  0  0  0  0  0  0
   -9.0865   17.6621  -32.9054 H   0  0  0  0  0  0  0  0  0  0  0  0
  -10.5590   19.5576  -32.2516 H   0  0  0  0  0  0  0  0  0  0  0  0
   -9.5785   21.7577  -31.6561 H   0  0  0  0  0  0  0  0  0  0  0  0
   -7.9947   23.8492  -30.6014 H   0  0  0  0  0  0  0  0  0  0  0  0
   -7.2926   24.4121  -32.1561 H   0  0  0  0  0  0  0  0  0  0  0  0
   -8.7609   23.3773  -32.1561 H   0  0  0  0  0  0  0  0  0  0  0  0
   -5.6767   24.4649  -30.5945 H   0  0  0  0  0  0  0  0  0  0  0  0
   -1.9193   24.7594  -26.8614 H   0  0  0  0  0  0  0  0  0  0  0  0
   -3.4198   24.0147  -27.5404 H   0  0  0  0  0  0  0  0  0  0  0  0
   -1.2185   22.7200  -28.8096 H   0  0  0  0  0  0  0  0  0  0  0  0
   -0.8332   22.7968  -27.0524 H   0  0  0  0  0  0  0  0  0  0  0  0
   -0.9062   20.6056  -26.6010 H   0  0  0  0  0  0  0  0  0  0  0  0
   -2.1905   19.8916  -26.0863 H   0  0  0  0  0  0  0  0  0  0  0  0
   -1.4561   20.6051  -29.0974 H   0  0  0  0  0  0  0  0  0  0  0  0
   -2.8380   19.8908  -29.0243 H   0  0  0  0  0  0  0  0  0  0  0  0
   -1.7317   22.7295  -30.8230 H   0  0  0  0  0  0  0  0  0  0  0  0
   -2.6910   20.6460  -31.7722 H   0  0  0  0  0  0  0  0  0  0  0  0
  1  2  1  0
  2  3  1  0
  3  4  1  0
  4  5  1  0
  3  6  1  0
  6  7  1  0
  7  8  1  0
  8  9  1  0
  9 10  2  0
 10 11  1  0
 11 12  2  0
 12 13  1  0
 13 14  2  0
 14 15  1  0
 15 16  2  0
 16 17  1  0
 16 18  1  0
 18 19  2  0
 19 20  1  0
 20 21  1  0
 21 22  1  0
 22 23  2  0
 22 24  1  0
 24 25  1  0
 25 26  1  0
 26 27  1  0
 27 28  1  0
 20 29  2  0
 29 30  1  0
 30 31  2  0
 31  9  1  0
 15 10  1  0
 31 18  1  0
 28 26  1  0
  1 32  1  0
  1 33  1  0
  1 34  1  0
  2 35  1  0
  2 36  1  0
  4 37  1  0
  4 38  1  0
  5 39  1  0
  5 40  1  0
  5 41  1  0
  6 42  1  0
  6 43  1  0
  7 44  1  0
  7 45  1  0
  8 46  1  0
 11 47  1  0
 12 48  1  0
 13 49  1  0
 14 50  1  0
 17 51  1  0
 17 52  1  0
 17 53  1  0
 19 54  1  0
 24 55  1  0
 24 56  1  0
 25 57  1  0
 25 58  1  0
 27 59  1  0
 27 60  1  0
 28 61  1  0
 28 62  1  0
 29 63  1  0
 30 64  1  0
M  CHG  2  16   1  21  -1
M  END
>  <UniqueID>  (28) 
26

>  <SMILES>  (28) 
CCN(CC)CCNc1c2ccccc2[n+](C)c2cc([N-]C(=O)CCN3CC3)ccc12

>  <Energy>  (28) 
430.0778775884606

>  <Genealogy>  (28) 
CCN(CC)CCNc1c2ccccc2[n+](C)c2cc([N-]C(=O)CCN3CC3)ccc12 (protonated)
CCN(CC)CCNc1c2ccccc2[n+](C)c2cc([N-]C(=O)CCN3CC3)ccc12 (3D coordinates assigned)
CCN(CC)CCNc1c2ccccc2[n+](C)c2cc([N-]C(=O)CCN3CC3)ccc12 (nonaromatic ring conformer: 430.0778775884606 kcal/mol)

>  <smiles>  (28) 
CCN(CC)CCNc1c2ccccc2[n+](C)c2cc(NC(=O)CCN3CC3)ccc12

>  <score_type>  (28) 
oracle

>  <origin>  (28) 
adg

>  <m_score__min__energy>  (28) 
-9.8499999999999996

>  <m_primary>  (28) 
energy

$$$$
28:0
     RDKit          3D

 66 69  0  0  0  0  0  0  0  0999 V2000
    1.0310   24.3250  -27.4810 C   0  0  0  0  0  0  0  0  0  0  0  0
    0.3300   25.4760  -27.8950 O   0  0  0  0  0  0  0  0  0  0  0  0
   -0.8500   25.6390  -27.1290 C   0  0  0  0  0  0  0  0  0  0  0  0
   -2.0450   25.0210  -27.8630 C   0  0  0  0  0  0  0  0  0  0  0  0
   -1.6940   24.7000  -29.2470 N   0  0  0  0  0  0  0  0  0  0  0  0
   -2.3370   23.6880  -30.0480 C   0  0  0  0  0  0  0  0  0  0  0  0
   -3.6660   23.8260  -30.4960 C   0  0  0  0  0  0  0  0  0  0  0  0
   -4.2540   22.8340  -31.2830 C   0  0  0  0  0  0  0  0  0  0  0  0
   -3.5250   21.6970  -31.6400 C   0  0  0  0  0  0  0  0  0  0  0  0
   -4.0910   20.7480  -32.4160 N   0  0  0  0  0  0  0  0  0  0  0  0
   -3.4080   19.6480  -32.8240 C   0  0  0  0  0  0  0  0  0  0  0  0
   -4.2840   18.4960  -33.8980 S   0  0  0  0  0  0  0  0  0  0  0  0
   -5.6950   19.6110  -34.2160 C   0  0  0  0  0  0  0  0  0  0  0  0
   -6.7890   19.3910  -33.2040 C   0  0  0  0  0  0  0  0  0  0  0  0
   -7.2410   18.0860  -32.9400 C   0  0  0  0  0  0  0  0  0  0  0  0
   -8.2780   17.8670  -32.0310 C   0  0  0  0  0  0  0  0  0  0  0  0
   -8.8670   18.9450  -31.3710 C   0  0  0  0  0  0  0  0  0  0  0  0
   -8.4200   20.2450  -31.6130 C   0  0  0  0  0  0  0  0  0  0  0  0
   -7.3780   20.4820  -32.5320 C   0  0  0  0  0  0  0  0  0  0  0  0
   -6.9100   21.7800  -32.8010 O   0  0  0  0  0  0  0  0  0  0  0  0
   -7.4480   22.9670  -32.2280 C   0  0  0  0  0  0  0  0  0  0  0  0
   -2.1080   19.4470  -32.4120 N   0  0  0  0  0  0  0  0  0  0  0  0
   -1.3590   18.2200  -32.7710 C   0  0  0  0  0  0  0  0  0  0  0  0
    0.0350   18.5420  -33.3360 C   0  0  0  0  0  0  0  0  0  0  0  0
    0.0730   19.8870  -33.9530 N   0  0  0  0  0  0  0  0  0  0  0  0
    1.4420   20.4350  -33.9200 C   0  0  0  0  0  0  0  0  0  0  0  0
    1.4780   21.8430  -34.5500 C   0  0  0  0  0  0  0  0  0  0  0  0
    0.2570   22.1890  -35.1770 O   0  0  0  0  0  0  0  0  0  0  0  0
   -0.1170   21.1740  -36.0850 C   0  0  0  0  0  0  0  0  0  0  0  0
   -0.4220   19.8540  -35.3490 C   0  0  0  0  0  0  0  0  0  0  0  0
   -1.5070   20.3810  -31.5960 C   0  0  0  0  0  0  0  0  0  0  0  0
   -0.3290   20.1960  -31.1790 O   0  0  0  0  0  0  0  0  0  0  0  0
   -2.2010   21.5410  -31.2080 C   0  0  0  0  0  0  0  0  0  0  0  0
   -1.6130   22.5400  -30.4080 C   0  0  0  0  0  0  0  0  0  0  0  0
    1.0549   24.2858  -26.3820 H   0  0  0  0  0  0  0  0  0  0  0  0
    0.5254   23.4284  -27.8690 H   0  0  0  0  0  0  0  0  0  0  0  0
    2.0596   24.3628  -27.8690 H   0  0  0  0  0  0  0  0  0  0  0  0
   -0.7237   25.1413  -26.1562 H   0  0  0  0  0  0  0  0  0  0  0  0
   -1.0361   26.7127  -26.9792 H   0  0  0  0  0  0  0  0  0  0  0  0
   -2.3495   24.0996  -27.3450 H   0  0  0  0  0  0  0  0  0  0  0  0
   -2.8708   25.7477  -27.8676 H   0  0  0  0  0  0  0  0  0  0  0  0
   -0.9330   25.2690  -29.6860 H   0  0  0  0  0  0  0  0  0  0  0  0
   -4.2440   24.7214  -30.2238 H   0  0  0  0  0  0  0  0  0  0  0  0
   -5.2940   22.9480  -31.6228 H   0  0  0  0  0  0  0  0  0  0  0  0
   -5.3513   20.6541  -34.1546 H   0  0  0  0  0  0  0  0  0  0  0  0
   -6.0940   19.3978  -35.2187 H   0  0  0  0  0  0  0  0  0  0  0  0
   -6.7746   17.2320  -33.4530 H   0  0  0  0  0  0  0  0  0  0  0  0
   -8.6305   16.8435  -31.8354 H   0  0  0  0  0  0  0  0  0  0  0  0
   -9.6860   18.7704  -30.6578 H   0  0  0  0  0  0  0  0  0  0  0  0
   -8.8840   21.0899  -31.0831 H   0  0  0  0  0  0  0  0  0  0  0  0
   -7.4142   22.8925  -31.1310 H   0  0  0  0  0  0  0  0  0  0  0  0
   -6.8547   23.8336  -32.5551 H   0  0  0  0  0  0  0  0  0  0  0  0
   -8.4908   23.0920  -32.5551 H   0  0  0  0  0  0  0  0  0  0  0  0
   -1.2428   17.5985  -31.8709 H   0  0  0  0  0  0  0  0  0  0  0  0
   -1.9275   17.6897  -33.5492 H   0  0  0  0  0  0  0  0  0  0  0  0
    0.7698   18.5030  -32.5184 H   0  0  0  0  0  0  0  0  0  0  0  0
    0.2728   17.7995  -34.1120 H   0  0  0  0  0  0  0  0  0  0  0  0
    1.7815   20.4974  -32.8756 H   0  0  0  0  0  0  0  0  0  0  0  0
    2.1038   19.7715  -34.4959 H   0  0  0  0  0  0  0  0  0  0  0  0
    1.6887   22.5778  -33.7590 H   0  0  0  0  0  0  0  0  0  0  0  0
    2.2614   21.8431  -35.3222 H   0  0  0  0  0  0  0  0  0  0  0  0
   -1.0151   21.4954  -36.6328 H   0  0  0  0  0  0  0  0  0  0  0  0
    0.7188   21.0014  -36.7790 H   0  0  0  0  0  0  0  0  0  0  0  0
   -1.5101   19.6927  -35.3393 H   0  0  0  0  0  0  0  0  0  0  0  0
    0.0889   19.0362  -35.8784 H   0  0  0  0  0  0  0  0  0  0  0  0
   -0.5759   22.4197  -30.0617 H   0  0  0  0  0  0  0  0  0  0  0  0
  1  2  1  0
  2  3  1  0
  3  4  1  0
  4  5  1  0
  5  6  1  0
  6  7  2  0
  7  8  1  0
  8  9  2  0
  9 10  1  0
 10 11  2  0
 11 12  1  0
 12 13  1  0
 13 14  1  0
 14 15  2  0
 15 16  1  0
 16 17  2  0
 17 18  1  0
 18 19  2  0
 19 20  1  0
 20 21  1  0
 11 22  1  0
 22 23  1  0
 23 24  1  0
 24 25  1  0
 25 26  1  0
 26 27  1  0
 27 28  1  0
 28 29  1  0
 29 30  1  0
 22 31  1  0
 31 32  2  0
 31 33  1  0
 33 34  2  0
 34  6  1  0
 33  9  1  0
 19 14  1  0
 30 25  1  0
  1 35  1  0
  1 36  1  0
  1 37  1  0
  3 38  1  0
  3 39  1  0
  4 40  1  0
  4 41  1  0
  5 42  1  0
  7 43  1  0
  8 44  1  0
 13 45  1  0
 13 46  1  0
 15 47  1  0
 16 48  1  0
 17 49  1  0
 18 50  1  0
 21 51  1  0
 21 52  1  0
 21 53  1  0
 23 54  1  0
 23 55  1  0
 24 56  1  0
 24 57  1  0
 26 58  1  0
 26 59  1  0
 27 60  1  0
 27 61  1  0
 29 62  1  0
 29 63  1  0
 30 64  1  0
 30 65  1  0
 34 66  1  0
M  END
>  <UniqueID>  (29) 
27

>  <SMILES>  (29) 
COCCNc1ccc2nc(SCc3ccccc3OC)n(CCN3CCOCC3)c(=O)c2c1

>  <Energy>  (29) 
80.24778618287253

>  <Genealogy>  (29) 
COCCNc1ccc2nc(SCc3ccccc3OC)n(CCN3CCOCC3)c(=O)c2c1 (3D coordinates assigned)
COCCNc1ccc2nc(SCc3ccccc3OC)n(CCN3CCOCC3)c(=O)c2c1 (nonaromatic ring conformer: 80.24778618287253 kcal/mol)

>  <smiles>  (29) 
COCCNc1ccc2nc(SCc3ccccc3OC)n(CCN3CCOCC3)c(=O)c2c1

>  <score_type>  (29) 
oracle

>  <origin>  (29) 
adg

>  <m_score__min__energy>  (29) 
-9.1099999999999994

>  <m_primary>  (29) 
energy

$$$$
29:0
     RDKit          3D

 56 60  0  0  0  0  0  0  0  0999 V2000
   -1.8560   20.9190  -29.9660 O   0  0  0  0  0  0  0  0  0  0  0  0
   -2.8120   21.7350  -30.0560 C   0  0  0  0  0  0  0  0  0  0  0  0
   -3.0190   22.7880  -29.1150 N   0  0  0  0  0  0  0  0  0  0  0  0
   -2.4790   22.8140  -27.7550 C   0  0  0  0  0  0  0  0  0  0  0  0
   -2.0120   24.2020  -27.4080 C   0  0  0  0  0  0  0  0  0  0  0  0
   -2.4720   24.8390  -26.2430 C   0  0  0  0  0  0  0  0  0  0  0  0
   -1.9960   26.1070  -25.8960 C   0  0  0  0  0  0  0  0  0  0  0  0
   -1.0520   26.7470  -26.7060 C   0  0  0  0  0  0  0  0  0  0  0  0
   -0.4000   28.4770  -26.2290 Br  0  0  0  0  0  0  0  0  0  0  0  0
   -0.5860   26.1180  -27.8650 C   0  0  0  0  0  0  0  0  0  0  0  0
   -1.0620   24.8510  -28.2140 C   0  0  0  0  0  0  0  0  0  0  0  0
   -4.1990   23.4440  -29.5620 C   0  0  0  0  0  0  0  0  0  0  0  0
   -4.8150   24.5510  -28.9700 C   0  0  0  0  0  0  0  0  0  0  0  0
   -5.9780   25.0650  -29.5620 C   0  0  0  0  0  0  0  0  0  0  0  0
   -6.5030   24.4770  -30.7270 C   0  0  0  0  0  0  0  0  0  0  0  0
   -5.8670   23.3710  -31.3100 C   0  0  0  0  0  0  0  0  0  0  0  0
   -4.7080   22.8660  -30.7110 C   0  0  0  0  0  0  0  0  0  0  0  0
   -3.8610   21.6920  -31.1460 C   0  0  1  0  0  0  0  0  0  0  0  0
   -3.2170   21.9250  -32.5380 C   0  0  0  0  0  0  0  0  0  0  0  0
   -3.9780   21.1640  -33.6310 C   0  0  0  0  0  0  0  0  0  0  0  0
   -3.9520   19.6920  -33.4100 N   0  0  2  0  0  0  0  0  0  0  0  0
   -5.0230   19.0530  -34.2140 C   0  0  0  0  0  0  0  0  0  0  0  0
   -6.3470   19.0230  -33.4810 C   0  0  0  0  0  0  0  0  0  0  0  0
   -6.7930   17.8350  -32.8770 C   0  0  0  0  0  0  0  0  0  0  0  0
   -8.0130   17.8060  -32.1950 C   0  0  0  0  0  0  0  0  0  0  0  0
   -8.7970   18.9590  -32.1120 C   0  0  0  0  0  0  0  0  0  0  0  0
   -8.3650   20.1430  -32.7150 C   0  0  0  0  0  0  0  0  0  0  0  0
   -7.1460   20.1770  -33.3980 C   0  0  0  0  0  0  0  0  0  0  0  0
   -4.0280   19.2980  -31.9700 C   0  0  0  0  0  0  0  0  0  0  0  0
   -4.6710   20.3740  -31.0830 C   0  0  0  0  0  0  0  0  0  0  0  0
   -3.2626   22.5066  -27.0469 H   0  0  0  0  0  0  0  0  0  0  0  0
   -1.6258   22.1224  -27.6942 H   0  0  0  0  0  0  0  0  0  0  0  0
   -3.2106   24.3373  -25.6005 H   0  0  0  0  0  0  0  0  0  0  0  0
   -2.3642   26.6018  -24.9852 H   0  0  0  0  0  0  0  0  0  0  0  0
    0.1559   26.6210  -28.5026 H   0  0  0  0  0  0  0  0  0  0  0  0
   -0.6905   24.3592  -29.1251 H   0  0  0  0  0  0  0  0  0  0  0  0
   -4.3971   25.0082  -28.0610 H   0  0  0  0  0  0  0  0  0  0  0  0
   -6.4825   25.9330  -29.1126 H   0  0  0  0  0  0  0  0  0  0  0  0
   -7.4165   24.8864  -31.1830 H   0  0  0  0  0  0  0  0  0  0  0  0
   -6.2725   22.9089  -32.2222 H   0  0  0  0  0  0  0  0  0  0  0  0
   -3.2373   23.0005  -32.7681 H   0  0  0  0  0  0  0  0  0  0  0  0
   -2.1812   21.5558  -32.5108 H   0  0  0  0  0  0  0  0  0  0  0  0
   -5.0243   21.5034  -33.6366 H   0  0  0  0  0  0  0  0  0  0  0  0
   -3.4862   21.3709  -34.5929 H   0  0  0  0  0  0  0  0  0  0  0  0
   -3.0280   19.3560  -33.7760 H   0  0  0  0  0  0  0  0  0  0  0  0
   -5.1486   19.6179  -35.1495 H   0  0  0  0  0  0  0  0  0  0  0  0
   -4.7226   18.0134  -34.4115 H   0  0  0  0  0  0  0  0  0  0  0  0
   -6.1796   16.9242  -32.9411 H   0  0  0  0  0  0  0  0  0  0  0  0
   -8.3561   16.8736  -31.7229 H   0  0  0  0  0  0  0  0  0  0  0  0
   -9.7549   18.9348  -31.5717 H   0  0  0  0  0  0  0  0  0  0  0  0
   -8.9850   21.0495  -32.6522 H   0  0  0  0  0  0  0  0  0  0  0  0
   -6.8102   21.1108  -33.8727 H   0  0  0  0  0  0  0  0  0  0  0  0
   -4.6240   18.3769  -31.8903 H   0  0  0  0  0  0  0  0  0  0  0  0
   -2.9969   19.1542  -31.6150 H   0  0  0  0  0  0  0  0  0  0  0  0
   -5.6968   20.5637  -31.4319 H   0  0  0  0  0  0  0  0  0  0  0  0
   -4.6814   20.0150  -30.0433 H   0  0  0  0  0  0  0  0  0  0  0  0
  1  2  2  0
  2  3  1  0
  3  4  1  0
  4  5  1  0
  5  6  2  0
  6  7  1  0
  7  8  2  0
  8  9  1  0
  8 10  1  0
 10 11  2  0
  3 12  1  0
 12 13  2  0
 13 14  1  0
 14 15  2  0
 15 16  1  0
 16 17  2  0
 17 18  1  0
 18 19  1  6
 19 20  1  0
 20 21  1  0
 21 22  1  0
 22 23  1  0
 23 24  2  0
 24 25  1  0
 25 26  2  0
 26 27  1  0
 27 28  2  0
 21 29  1  0
 29 30  1  0
 18  2  1  0
 28 23  1  0
 11  5  1  0
 17 12  1  0
 30 18  1  0
  4 31  1  0
  4 32  1  0
  6 33  1  0
  7 34  1  0
 10 35  1  0
 11 36  1  0
 13 37  1  0
 14 38  1  0
 15 39  1  0
 16 40  1  0
 19 41  1  0
 19 42  1  0
 20 43  1  0
 20 44  1  0
 21 45  1  6
 22 46  1  0
 22 47  1  0
 24 48  1  0
 25 49  1  0
 26 50  1  0
 27 51  1  0
 28 52  1  0
 29 53  1  0
 29 54  1  0
 30 55  1  0
 30 56  1  0
M  CHG  1  21   1
M  END
>  <UniqueID>  (30) 
28

>  <SMILES>  (30) 
O=C1N(Cc2ccc(Br)cc2)c2ccccc2C12CC[NH+](Cc1ccccc1)CC2

>  <Energy>  (30) 
89.53256263521938

>  <Genealogy>  (30) 
O=C1N(Cc2ccc(Br)cc2)c2ccccc2C12CC[NH+](Cc1ccccc1)CC2 (protonated)
O=C1N(Cc2ccc(Br)cc2)c2ccccc2C12CC[NH+](Cc1ccccc1)CC2 (3D coordinates assigned)
O=C1N(Cc2ccc(Br)cc2)c2ccccc2C12CC[NH+](Cc1ccccc1)CC2 (nonaromatic ring conformer: 89.53256263521938 kcal/mol)

>  <smiles>  (30) 
O=C1N(Cc2ccc(Br)cc2)c2ccccc2C12CCN(Cc1ccccc1)CC2

>  <score_type>  (30) 
oracle

>  <origin>  (30) 
adg

>  <m_score__min__energy>  (30) 
-9.0099999999999998

>  <m_primary>  (30) 
energy

$$$$
30:0
     RDKit          3D

 49 51  0  0  0  0  0  0  0  0999 V2000
   -3.7930   22.6730  -30.0200 C   0  0  0  0  0  0  0  0  0  0  0  0
   -4.0310   24.1260  -30.4260 C   0  0  0  0  0  0  0  0  0  0  0  0
   -5.4720   24.5810  -30.1540 C   0  0  0  0  0  0  0  0  0  0  0  0
   -6.4850   23.5880  -30.6620 C   0  0  0  0  0  0  0  0  0  0  0  0
   -7.2470   22.8320  -29.7580 C   0  0  0  0  0  0  0  0  0  0  0  0
   -8.1980   21.9210  -30.2260 C   0  0  0  0  0  0  0  0  0  0  0  0
   -8.4160   21.7660  -31.6050 C   0  0  0  0  0  0  0  0  0  0  0  0
   -9.5080   20.8510  -32.1140 C   0  0  0  0  0  0  0  0  0  0  0  0
   -8.9860   19.7280  -32.9160 N   0  0  0  0  0  0  0  0  0  0  0  0
   -7.9950   18.8920  -32.2140 C   0  0  0  0  0  0  0  0  0  0  0  0
   -6.5770   19.1730  -32.6590 C   0  0  0  0  0  0  0  0  0  0  0  0
   -5.7080   19.9140  -31.8430 C   0  0  0  0  0  0  0  0  0  0  0  0
   -4.3640   20.0650  -32.1970 C   0  0  0  0  0  0  0  0  0  0  0  0
   -3.8710   19.4980  -33.3840 C   0  0  0  0  0  0  0  0  0  0  0  0
   -2.4270   19.5890  -33.7180 C   0  0  0  0  0  0  0  0  0  0  0  0
   -1.5220   18.5500  -33.4940 C   0  0  0  0  0  0  0  0  0  0  0  0
    0.0020   19.0690  -33.9790 S   0  0  0  0  0  0  0  0  0  0  0  0
   -0.5360   20.5900  -34.4420 C   0  0  0  0  0  0  0  0  0  0  0  0
    0.3140   21.6360  -35.0820 C   0  0  0  0  0  0  0  0  0  0  0  0
   -1.8670   20.7120  -34.2530 N   0  0  0  0  0  0  0  0  0  0  0  0
   -4.7610   18.8140  -34.2310 C   0  0  0  0  0  0  0  0  0  0  0  0
   -6.1020   18.6580  -33.8750 C   0  0  0  0  0  0  0  0  0  0  0  0
   -7.6120   22.4820  -32.5080 C   0  0  0  0  0  0  0  0  0  0  0  0
   -6.6580   23.3900  -32.0400 C   0  0  0  0  0  0  0  0  0  0  0  0
   -3.7804   22.5962  -28.9228 H   0  0  0  0  0  0  0  0  0  0  0  0
   -4.5999   22.0430  -30.4224 H   0  0  0  0  0  0  0  0  0  0  0  0
   -2.8272   22.3333  -30.4224 H   0  0  0  0  0  0  0  0  0  0  0  0
   -3.3440   24.7691  -29.8564 H   0  0  0  0  0  0  0  0  0  0  0  0
   -3.8528   24.2053  -31.5086 H   0  0  0  0  0  0  0  0  0  0  0  0
   -5.6070   24.7020  -29.0690 H   0  0  0  0  0  0  0  0  0  0  0  0
   -5.6332   25.5311  -30.6845 H   0  0  0  0  0  0  0  0  0  0  0  0
   -7.0951   22.9570  -28.6757 H   0  0  0  0  0  0  0  0  0  0  0  0
   -8.7794   21.3216  -29.5100 H   0  0  0  0  0  0  0  0  0  0  0  0
  -10.0546   20.4424  -31.2512 H   0  0  0  0  0  0  0  0  0  0  0  0
  -10.1623   21.4477  -32.7666 H   0  0  0  0  0  0  0  0  0  0  0  0
   -8.6190   20.0570  -33.8380 H   0  0  0  0  0  0  0  0  0  0  0  0
   -8.0707   19.0878  -31.1342 H   0  0  0  0  0  0  0  0  0  0  0  0
   -8.2169   17.8413  -32.4525 H   0  0  0  0  0  0  0  0  0  0  0  0
   -6.0864   20.3782  -30.9203 H   0  0  0  0  0  0  0  0  0  0  0  0
   -3.6873   20.6322  -31.5410 H   0  0  0  0  0  0  0  0  0  0  0  0
   -1.7639   17.5629  -33.0732 H   0  0  0  0  0  0  0  0  0  0  0  0
    0.8034   22.2383  -34.3024 H   0  0  0  0  0  0  0  0  0  0  0  0
    1.0796   21.1540  -35.7077 H   0  0  0  0  0  0  0  0  0  0  0  0
   -0.3144   22.2868  -35.7077 H   0  0  0  0  0  0  0  0  0  0  0  0
   -2.4010   21.5700  -34.5170 H   0  0  0  0  0  0  0  0  0  0  0  0
   -4.3975   18.3982  -35.1823 H   0  0  0  0  0  0  0  0  0  0  0  0
   -6.7897   18.1288  -34.5510 H   0  0  0  0  0  0  0  0  0  0  0  0
   -7.7342   22.3269  -33.5901 H   0  0  0  0  0  0  0  0  0  0  0  0
   -6.0399   23.9520  -32.7556 H   0  0  0  0  0  0  0  0  0  0  0  0
  1  2  1  0
  2  3  1  0
  3  4  1  0
  4  5  2  0
  5  6  1  0
  6  7  2  0
  7  8  1  0
  8  9  1  0
  9 10  1  0
 10 11  1  0
 11 12  2  0
 12 13  1  0
 13 14  2  0
 14 15  1  0
 15 16  2  0
 16 17  1  0
 17 18  1  0
 18 19  1  0
 18 20  2  0
 14 21  1  0
 21 22  2  0
  7 23  1  0
 23 24  2  0
 24  4  1  0
 22 11  1  0
 20 15  1  0
  1 25  1  0
  1 26  1  0
  1 27  1  0
  2 28  1  0
  2 29  1  0
  3 30  1  0
  3 31  1  0
  5 32  1  0
  6 33  1  0
  8 34  1  0
  8 35  1  0
  9 36  1  0
 10 37  1  0
 10 38  1  0
 12 39  1  0
 13 40  1  0
 16 41  1  0
 19 42  1  0
 19 43  1  0
 19 44  1  0
 20 45  1  0
 21 46  1  0
 22 47  1  0
 23 48  1  0
 24 49  1  0
M  CHG  1  20   1
M  END
>  <UniqueID>  (31) 
29

>  <SMILES>  (31) 
CCCc1ccc(CNCc2ccc(-c3csc(C)[nH+]3)cc2)cc1

>  <Energy>  (31) 
73.85200019593435

>  <Genealogy>  (31) 
CCCc1ccc(CNCc2ccc(-c3csc(C)[nH+]3)cc2)cc1 (protonated)
CCCc1ccc(CNCc2ccc(-c3csc(C)[nH+]3)cc2)cc1 (3D coordinates assigned)
CCCc1ccc(CNCc2ccc(-c3csc(C)[nH+]3)cc2)cc1 (optimized conformer: 73.85200019593435 kcal/mol)

>  <smiles>  (31) 
CCCc1ccc(CNCc2ccc(-c3csc(C)n3)cc2)cc1

>  <score_type>  (31) 
oracle

>  <origin>  (31) 
adg

>  <m_score__min__energy>  (31) 
-8.8800000000000008

>  <m_primary>  (31) 
energy

$$$$
31:0
     RDKit          3D

 48 50  0  0  0  0  0  0  0  0999 V2000
    5.0070   19.8950  -37.7250 C   0  0  0  0  0  0  0  0  0  0  0  0
    3.9260   20.8140  -37.6100 O   0  0  0  0  0  0  0  0  0  0  0  0
    2.9780   20.7980  -36.5760 C   0  0  0  0  0  0  0  0  0  0  0  0
    2.9010   19.7500  -35.6430 C   0  0  0  0  0  0  0  0  0  0  0  0
    1.9400   19.7780  -34.6310 C   0  0  0  0  0  0  0  0  0  0  0  0
    1.0380   20.8500  -34.5310 C   0  0  0  0  0  0  0  0  0  0  0  0
    0.0230   20.8720  -33.4060 C   0  0  0  0  0  0  0  0  0  0  0  0
   -1.3530   21.1390  -33.8960 N   0  0  0  0  0  0  0  0  0  0  0  0
   -2.2210   21.6470  -32.7980 C   0  0  0  0  0  0  0  0  0  0  0  0
   -3.7120   21.4070  -33.0670 C   0  0  0  0  0  0  0  0  0  0  0  0
   -3.9620   19.9710  -33.2460 N   0  0  0  0  0  0  0  0  0  0  0  0
   -5.2600   19.4080  -32.9470 C   0  0  0  0  0  0  0  0  0  0  0  0
   -5.4470   18.0140  -32.9190 C   0  0  0  0  0  0  0  0  0  0  0  0
   -6.7030   17.4720  -32.6300 C   0  0  0  0  0  0  0  0  0  0  0  0
   -7.7850   18.3130  -32.3670 C   0  0  0  0  0  0  0  0  0  0  0  0
   -7.6150   19.7000  -32.3930 C   0  0  0  0  0  0  0  0  0  0  0  0
   -8.9780   20.7560  -32.0670 Cl  0  0  0  0  0  0  0  0  0  0  0  0
   -6.3590   20.2470  -32.6810 C   0  0  0  0  0  0  0  0  0  0  0  0
   -2.8640   19.1190  -33.7170 C   0  0  0  0  0  0  0  0  0  0  0  0
   -1.9040   19.9380  -34.5910 C   0  0  0  0  0  0  0  0  0  0  0  0
    1.1080   21.9060  -35.4610 C   0  0  0  0  0  0  0  0  0  0  0  0
    0.1990   22.9730  -35.3480 O   0  0  0  0  0  0  0  0  0  0  0  0
    0.2760   24.1840  -36.0930 C   0  0  0  0  0  0  0  0  0  0  0  0
    2.0820   21.8670  -36.4790 C   0  0  0  0  0  0  0  0  0  0  0  0
    5.3493   19.6040  -36.7209 H   0  0  0  0  0  0  0  0  0  0  0  0
    4.6718   19.0011  -38.2715 H   0  0  0  0  0  0  0  0  0  0  0  0
    5.8353   20.3697  -38.2715 H   0  0  0  0  0  0  0  0  0  0  0  0
    3.6009   18.9041  -35.7104 H   0  0  0  0  0  0  0  0  0  0  0  0
    1.8886   18.9530  -33.9052 H   0  0  0  0  0  0  0  0  0  0  0  0
    0.0351   19.8959  -32.8990 H   0  0  0  0  0  0  0  0  0  0  0  0
    0.2996   21.6845  -32.7180 H   0  0  0  0  0  0  0  0  0  0  0  0
   -1.2890   21.8970  -34.6170 H   0  0  0  0  0  0  0  0  0  0  0  0
   -1.9444   21.1351  -31.8645 H   0  0  0  0  0  0  0  0  0  0  0  0
   -2.0658   22.7336  -32.7256 H   0  0  0  0  0  0  0  0  0  0  0  0
   -4.3007   21.7763  -32.2143 H   0  0  0  0  0  0  0  0  0  0  0  0
   -4.0062   21.9429  -33.9815 H   0  0  0  0  0  0  0  0  0  0  0  0
   -4.5985   17.3453  -33.1261 H   0  0  0  0  0  0  0  0  0  0  0  0
   -6.8385   16.3806  -32.6099 H   0  0  0  0  0  0  0  0  0  0  0  0
   -8.7720   17.8842  -32.1391 H   0  0  0  0  0  0  0  0  0  0  0  0
   -6.2298   21.3392  -32.6996 H   0  0  0  0  0  0  0  0  0  0  0  0
   -2.3166   18.7179  -32.8513 H   0  0  0  0  0  0  0  0  0  0  0  0
   -3.2778   18.2913  -34.3117 H   0  0  0  0  0  0  0  0  0  0  0  0
   -1.0654   19.2916  -34.8891 H   0  0  0  0  0  0  0  0  0  0  0  0
   -2.4781   20.2974  -35.4577 H   0  0  0  0  0  0  0  0  0  0  0  0
    0.3303   25.0374  -35.4010 H   0  0  0  0  0  0  0  0  0  0  0  0
    1.1749   24.1681  -36.7267 H   0  0  0  0  0  0  0  0  0  0  0  0
   -0.6177   24.2821  -36.7267 H   0  0  0  0  0  0  0  0  0  0  0  0
    2.1381   22.6892  -37.2075 H   0  0  0  0  0  0  0  0  0  0  0  0
  1  2  1  0
  2  3  1  0
  3  4  2  0
  4  5  1  0
  5  6  2  0
  6  7  1  0
  7  8  1  0
  8  9  1  0
  9 10  1  0
 10 11  1  0
 11 12  1  0
 12 13  2  0
 13 14  1  0
 14 15  2  0
 15 16  1  0
 16 17  1  0
 16 18  2  0
 11 19  1  0
 19 20  1  0
  6 21  1  0
 21 22  1  0
 22 23  1  0
 21 24  2  0
 24  3  1  0
 20  8  1  0
 18 12  1  0
  1 25  1  0
  1 26  1  0
  1 27  1  0
  4 28  1  0
  5 29  1  0
  7 30  1  0
  7 31  1  0
  8 32  1  0
  9 33  1  0
  9 34  1  0
 10 35  1  0
 10 36  1  0
 13 37  1  0
 14 38  1  0
 15 39  1  0
 18 40  1  0
 19 41  1  0
 19 42  1  0
 20 43  1  0
 20 44  1  0
 23 45  1  0
 23 46  1  0
 23 47  1  0
 24 48  1  0
M  CHG  1   8   1
M  END
>  <UniqueID>  (32) 
30

>  <SMILES>  (32) 
COc1ccc(C[NH+]2CCN(c3cccc(Cl)c3)CC2)c(OC)c1

>  <Energy>  (32) 
59.600924319908174

>  <Genealogy>  (32) 
COc1ccc(C[NH+]2CCN(c3cccc(Cl)c3)CC2)c(OC)c1 (protonated)
COc1ccc(C[NH+]2CCN(c3cccc(Cl)c3)CC2)c(OC)c1 (3D coordinates assigned)
COc1ccc(C[NH+]2CCN(c3cccc(Cl)c3)CC2)c(OC)c1 (nonaromatic ring conformer: 59.600924319908174 kcal/mol)

>  <smiles>  (32) 
COc1ccc(CN2CCN(c3cccc(Cl)c3)CC2)c(OC)c1

>  <score_type>  (32) 
oracle

>  <origin>  (32) 
adg

>  <m_score__min__energy>  (32) 
-6.4299999999999997

>  <m_primary>  (32) 
energy

$$$$
32:0
     RDKit          3D

 63 66  0  0  0  0  0  0  0  0999 V2000
   -4.4790   17.8600  -34.7630 O   0  0  0  0  0  0  0  0  0  0  0  0
   -4.9250   18.8330  -34.0980 C   0  0  0  0  0  0  0  0  0  0  0  0
   -6.4050   19.0950  -34.1030 C   0  0  0  0  0  0  0  0  0  0  0  0
   -6.8570   19.8950  -32.8520 C   0  0  0  0  0  0  0  0  0  0  0  0
   -6.7740   19.0340  -31.5790 C   0  0  0  0  0  0  0  0  0  0  0  0
   -8.1050   18.2930  -31.4790 C   0  0  0  0  0  0  0  0  0  0  0  0
   -9.0950   19.0370  -32.3720 C   0  0  0  0  0  0  0  0  0  0  0  0
   -8.3510   20.2350  -32.9520 C   0  0  0  0  0  0  0  0  0  0  0  0
   -6.0100   21.1830  -32.7380 C   0  0  0  0  0  0  0  0  0  0  0  0
   -4.5390   20.8780  -32.7220 C   0  0  0  0  0  0  0  0  0  0  0  0
   -3.7560   21.6900  -32.1590 O   0  0  0  0  0  0  0  0  0  0  0  0
   -4.0220   19.7090  -33.3900 N   0  0  0  0  0  0  0  0  0  0  0  0
   -2.5750   19.4500  -33.4150 C   0  0  0  0  0  0  0  0  0  0  0  0
   -1.8520   20.5650  -34.1810 C   0  0  0  0  0  0  0  0  0  0  0  0
   -0.4930   20.9260  -33.5620 C   0  0  0  0  0  0  0  0  0  0  0  0
   -0.4380   20.6430  -32.0520 C   0  0  0  0  0  0  0  0  0  0  0  0
   -0.7330   21.9140  -31.2400 C   0  0  0  0  0  0  0  0  0  0  0  0
   -0.6410   21.6840  -29.7770 N   0  0  0  0  0  0  0  0  0  0  0  0
   -1.6210   20.7060  -29.2540 C   0  0  0  0  0  0  0  0  0  0  0  0
   -3.0650   21.1930  -29.4460 C   0  0  0  0  0  0  0  0  0  0  0  0
   -3.1570   22.6460  -29.2450 N   0  0  0  0  0  0  0  0  0  0  0  0
   -4.2880   23.3950  -29.7460 C   0  0  0  0  0  0  0  0  0  0  0  0
   -5.6020   22.9040  -29.6280 C   0  0  0  0  0  0  0  0  0  0  0  0
   -6.6660   23.6510  -30.1380 C   0  0  0  0  0  0  0  0  0  0  0  0
   -6.4220   24.8760  -30.7590 C   0  0  0  0  0  0  0  0  0  0  0  0
   -5.1090   25.3390  -30.8600 C   0  0  0  0  0  0  0  0  0  0  0  0
   -4.0860   24.5980  -30.3580 N   0  0  0  0  0  0  0  0  0  0  0  0
   -2.0990   23.3080  -28.4690 C   0  0  0  0  0  0  0  0  0  0  0  0
   -0.6970   22.9610  -29.0210 C   0  0  0  0  0  0  0  0  0  0  0  0
   -6.6609   19.6709  -35.0046 H   0  0  0  0  0  0  0  0  0  0  0  0
   -6.9224   18.1243  -34.0914 H   0  0  0  0  0  0  0  0  0  0  0  0
   -5.9433   18.3171  -31.6569 H   0  0  0  0  0  0  0  0  0  0  0  0
   -6.5914   19.6524  -30.6878 H   0  0  0  0  0  0  0  0  0  0  0  0
   -7.9876   17.2559  -31.8264 H   0  0  0  0  0  0  0  0  0  0  0  0
   -8.4605   18.2608  -30.4385 H   0  0  0  0  0  0  0  0  0  0  0  0
   -9.4430   18.3790  -33.1819 H   0  0  0  0  0  0  0  0  0  0  0  0
   -9.9773   19.3596  -31.7998 H   0  0  0  0  0  0  0  0  0  0  0  0
   -8.6379   20.3910  -34.0024 H   0  0  0  0  0  0  0  0  0  0  0  0
   -8.5908   21.1601  -32.4073 H   0  0  0  0  0  0  0  0  0  0  0  0
   -6.2306   21.8326  -33.5979 H   0  0  0  0  0  0  0  0  0  0  0  0
   -6.2682   21.6820  -31.7923 H   0  0  0  0  0  0  0  0  0  0  0  0
   -2.1946   19.4117  -32.3836 H   0  0  0  0  0  0  0  0  0  0  0  0
   -2.3903   18.4896  -33.9186 H   0  0  0  0  0  0  0  0  0  0  0  0
   -1.6894   20.2319  -35.2167 H   0  0  0  0  0  0  0  0  0  0  0  0
   -2.4858   21.4629  -34.1367 H   0  0  0  0  0  0  0  0  0  0  0  0
    0.2894   20.3346  -34.0601 H   0  0  0  0  0  0  0  0  0  0  0  0
   -0.3378   22.0056  -33.7048 H   0  0  0  0  0  0  0  0  0  0  0  0
   -1.1858   19.8758  -31.8028 H   0  0  0  0  0  0  0  0  0  0  0  0
    0.5737   20.2934  -31.7986 H   0  0  0  0  0  0  0  0  0  0  0  0
   -0.0063   22.6901  -31.5221 H   0  0  0  0  0  0  0  0  0  0  0  0
   -1.7634   22.2255  -31.4666 H   0  0  0  0  0  0  0  0  0  0  0  0
   -1.4923   19.7523  -29.7867 H   0  0  0  0  0  0  0  0  0  0  0  0
   -1.4407   20.5819  -28.1760 H   0  0  0  0  0  0  0  0  0  0  0  0
   -3.3954   20.9485  -30.4663 H   0  0  0  0  0  0  0  0  0  0  0  0
   -3.7069   20.6934  -28.7055 H   0  0  0  0  0  0  0  0  0  0  0  0
   -5.7896   21.9377  -29.1370 H   0  0  0  0  0  0  0  0  0  0  0  0
   -7.6955   23.2737  -30.0501 H   0  0  0  0  0  0  0  0  0  0  0  0
   -7.2544   25.4701  -31.1643 H   0  0  0  0  0  0  0  0  0  0  0  0
   -4.9021   26.3039  -31.3460 H   0  0  0  0  0  0  0  0  0  0  0  0
   -2.2449   24.3971  -28.5204 H   0  0  0  0  0  0  0  0  0  0  0  0
   -2.1595   22.9561  -27.4286 H   0  0  0  0  0  0  0  0  0  0  0  0
   -0.3791   23.7732  -29.6912 H   0  0  0  0  0  0  0  0  0  0  0  0
   -0.0342   22.8434  -28.1510 H   0  0  0  0  0  0  0  0  0  0  0  0
  1  2  2  0
  2  3  1  0
  3  4  1  0
  4  5  1  0
  5  6  1  0
  6  7  1  0
  7  8  1  0
  4  9  1  0
  9 10  1  0
 10 11  2  0
 10 12  1  0
 12 13  1  0
 13 14  1  0
 14 15  1  0
 15 16  1  0
 16 17  1  0
 17 18  1  0
 18 19  1  0
 19 20  1  0
 20 21  1  0
 21 22  1  0
 22 23  2  0
 23 24  1  0
 24 25  2  0
 25 26  1  0
 26 27  2  0
 21 28  1  0
 28 29  1  0
 12  2  1  0
 29 18  1  0
  8  4  1  0
 27 22  1  0
  3 30  1  0
  3 31  1  0
  5 32  1  0
  5 33  1  0
  6 34  1  0
  6 35  1  0
  7 36  1  0
  7 37  1  0
  8 38  1  0
  8 39  1  0
  9 40  1  0
  9 41  1  0
 13 42  1  0
 13 43  1  0
 14 44  1  0
 14 45  1  0
 15 46  1  0
 15 47  1  0
 16 48  1  0
 16 49  1  0
 17 50  1  0
 17 51  1  0
 19 52  1  0
 19 53  1  0
 20 54  1  0
 20 55  1  0
 23 56  1  0
 24 57  1  0
 25 58  1  0
 26 59  1  0
 28 60  1  0
 28 61  1  0
 29 62  1  0
 29 63  1  0
M  END
>  <UniqueID>  (33) 
31

>  <SMILES>  (33) 
O=C1CC2(CCCC2)CC(=O)N1CCCCCN1CCN(c2ccccn2)CC1

>  <Energy>  (33) 
71.44360727654984

>  <Genealogy>  (33) 
O=C1CC2(CCCC2)CC(=O)N1CCCCCN1CCN(c2ccccn2)CC1 (3D coordinates assigned)
O=C1CC2(CCCC2)CC(=O)N1CCCCCN1CCN(c2ccccn2)CC1 (nonaromatic ring conformer: 71.44360727654984 kcal/mol)

>  <smiles>  (33) 
O=C1CC2(CCCC2)CC(=O)N1CCCCCN1CCN(c2ccccn2)CC1

>  <score_type>  (33) 
oracle

>  <origin>  (33) 
adg

>  <m_score__min__energy>  (33) 
-9.3300000000000001

>  <m_primary>  (33) 
energy

$$$$
33:0
     RDKit          3D

 51 52  0  0  0  0  0  0  0  0999 V2000
   -1.9290   21.5290  -31.5800 C   0  0  0  0  0  0  0  0  0  0  0  0
   -1.1930   21.7130  -30.2530 C   0  0  0  0  0  0  0  0  0  0  0  0
   -2.1250   21.6900  -29.1020 N   0  0  0  0  0  0  0  0  0  0  0  0
   -2.2770   20.3320  -28.5290 C   0  0  0  0  0  0  0  0  0  0  0  0
   -1.9620   20.3490  -27.0340 C   0  0  0  0  0  0  0  0  0  0  0  0
   -3.4280   22.3620  -29.3480 C   0  0  0  0  0  0  0  0  0  0  0  0
   -3.9570   23.2010  -28.1700 C   0  0  0  0  0  0  0  0  0  0  0  0
   -4.2970   24.5100  -28.6160 O   0  0  0  0  0  0  0  0  0  0  0  0
   -4.7390   24.7770  -29.9140 C   0  0  0  0  0  0  0  0  0  0  0  0
   -3.9190   25.1100  -30.8120 O   0  0  0  0  0  0  0  0  0  0  0  0
   -6.1770   24.6390  -30.2120 C   0  0  0  0  0  0  0  0  0  0  0  0
   -6.6870   24.1710  -31.3600 C   0  0  0  0  0  0  0  0  0  0  0  0
   -6.5880   22.7660  -31.8110 C   0  0  0  0  0  0  0  0  0  0  0  0
   -5.3070   22.2330  -32.0020 C   0  0  0  0  0  0  0  0  0  0  0  0
   -5.1400   20.9330  -32.4820 C   0  0  0  0  0  0  0  0  0  0  0  0
   -6.2550   20.1320  -32.7740 C   0  0  0  0  0  0  0  0  0  0  0  0
   -6.0780   18.7540  -33.2980 C   0  0  0  0  0  0  0  0  0  0  0  0
   -6.9790   17.7310  -32.9440 C   0  0  0  0  0  0  0  0  0  0  0  0
   -6.8110   16.4350  -33.4420 C   0  0  0  0  0  0  0  0  0  0  0  0
   -5.7450   16.1440  -34.2980 C   0  0  0  0  0  0  0  0  0  0  0  0
   -4.8440   17.1500  -34.6550 C   0  0  0  0  0  0  0  0  0  0  0  0
   -5.0070   18.4470  -34.1590 C   0  0  0  0  0  0  0  0  0  0  0  0
   -7.5430   20.6520  -32.5520 C   0  0  0  0  0  0  0  0  0  0  0  0
   -7.7270   21.9530  -32.0520 C   0  0  0  0  0  0  0  0  0  0  0  0
   -9.0660   22.4140  -31.7820 N   0  0  0  0  0  0  0  0  0  0  0  0
   -9.5110   23.4440  -32.3320 O   0  0  0  0  0  0  0  0  0  0  0  0
   -9.8310   21.7920  -30.8210 O   0  0  0  0  0  0  0  0  0  0  0  0
   -2.9790   21.2665  -31.3836 H   0  0  0  0  0  0  0  0  0  0  0  0
   -1.8867   22.4654  -32.1557 H   0  0  0  0  0  0  0  0  0  0  0  0
   -1.4510   20.7227  -32.1557 H   0  0  0  0  0  0  0  0  0  0  0  0
   -0.4612   20.9002  -30.1355 H   0  0  0  0  0  0  0  0  0  0  0  0
   -0.6939   22.6931  -30.2707 H   0  0  0  0  0  0  0  0  0  0  0  0
   -3.3115   19.9890  -28.6780 H   0  0  0  0  0  0  0  0  0  0  0  0
   -1.5774   19.6500  -29.0344 H   0  0  0  0  0  0  0  0  0  0  0  0
   -2.8997   20.2984  -26.4611 H   0  0  0  0  0  0  0  0  0  0  0  0
   -1.3314   19.4836  -26.7823 H   0  0  0  0  0  0  0  0  0  0  0  0
   -1.4282   21.2773  -26.7823 H   0  0  0  0  0  0  0  0  0  0  0  0
   -3.3109   23.0274  -30.2161 H   0  0  0  0  0  0  0  0  0  0  0  0
   -4.1631   21.5600  -29.5104 H   0  0  0  0  0  0  0  0  0  0  0  0
   -4.8506   22.7160  -27.7501 H   0  0  0  0  0  0  0  0  0  0  0  0
   -3.1748   23.2745  -27.4001 H   0  0  0  0  0  0  0  0  0  0  0  0
   -6.8876   24.9445  -29.4298 H   0  0  0  0  0  0  0  0  0  0  0  0
   -7.2160   24.8816  -32.0121 H   0  0  0  0  0  0  0  0  0  0  0  0
   -4.4229   22.8455  -31.7712 H   0  0  0  0  0  0  0  0  0  0  0  0
   -4.1264   20.5330  -32.6326 H   0  0  0  0  0  0  0  0  0  0  0  0
   -7.8205   17.9529  -32.2713 H   0  0  0  0  0  0  0  0  0  0  0  0
   -7.5196   15.6426  -33.1593 H   0  0  0  0  0  0  0  0  0  0  0  0
   -5.6158   15.1243  -34.6899 H   0  0  0  0  0  0  0  0  0  0  0  0
   -4.0044   16.9213  -35.3278 H   0  0  0  0  0  0  0  0  0  0  0  0
   -4.2929   19.2338  -34.4436 H   0  0  0  0  0  0  0  0  0  0  0  0
   -8.4223   20.0293  -32.7737 H   0  0  0  0  0  0  0  0  0  0  0  0
  1  2  1  0
  2  3  1  0
  3  4  1  0
  4  5  1  0
  3  6  1  0
  6  7  1  0
  7  8  1  0
  8  9  1  0
  9 10  2  0
  9 11  1  0
 11 12  2  3
 12 13  1  0
 13 14  2  0
 14 15  1  0
 15 16  2  0
 16 17  1  0
 17 18  2  0
 18 19  1  0
 19 20  2  0
 20 21  1  0
 21 22  2  0
 16 23  1  0
 23 24  2  0
 24 25  1  0
 25 26  2  0
 25 27  1  0
 24 13  1  0
 22 17  1  0
  1 28  1  0
  1 29  1  0
  1 30  1  0
  2 31  1  0
  2 32  1  0
  4 33  1  0
  4 34  1  0
  5 35  1  0
  5 36  1  0
  5 37  1  0
  6 38  1  0
  6 39  1  0
  7 40  1  0
  7 41  1  0
 11 42  1  0
 12 43  1  0
 14 44  1  0
 15 45  1  0
 18 46  1  0
 19 47  1  0
 20 48  1  0
 21 49  1  0
 22 50  1  0
 23 51  1  0
M  CHG  2  25   1  27  -1
M  END
>  <UniqueID>  (34) 
32

>  <SMILES>  (34) 
CCN(CC)CCOC(=O)C=Cc1ccc(-c2ccccc2)cc1[N+](=O)[O-]

>  <Energy>  (34) 
68.30197799428002

>  <Genealogy>  (34) 
CCN(CC)CCOC(=O)C=Cc1ccc(-c2ccccc2)cc1[N+](=O)[O-] (3D coordinates assigned)
CCN(CC)CCOC(=O)C=Cc1ccc(-c2ccccc2)cc1[N+](=O)[O-] (optimized conformer: 68.30197799428002 kcal/mol)

>  <smiles>  (34) 
CCN(CC)CCOC(=O)C=Cc1ccc(-c2ccccc2)cc1[N+](=O)[O-]

>  <score_type>  (34) 
oracle

>  <origin>  (34) 
adg

>  <m_score__min__energy>  (34) 
-8.9199999999999999

>  <m_primary>  (34) 
energy

$$$$
34:0
     RDKit          3D

 54 55  0  0  1  0  0  0  0  0999 V2000
   -5.7460   17.9360  -34.7370 C   0  0  0  0  0  0  0  0  0  0  0  0
   -6.0950   19.3020  -34.2280 C   0  0  0  0  0  0  0  0  0  0  0  0
   -6.4030   19.3710  -32.8480 N   0  0  0  0  0  0  0  0  0  0  0  0
   -5.1600   19.7110  -32.0770 C   0  0  0  0  0  0  0  0  0  0  0  0
   -4.4370   20.8590  -32.6940 C   0  0  0  0  0  0  0  0  0  0  0  0
   -6.9260   18.2190  -32.1920 C   0  0  0  0  0  0  0  0  0  0  0  0
   -8.3020   18.3770  -31.6110 C   0  0  0  0  0  0  0  0  0  0  0  0
   -8.4600   19.7820  -31.2440 N   0  0  0  0  0  0  0  0  0  0  0  0
   -9.3930   20.5290  -31.9800 C   0  0  0  0  0  0  0  0  0  0  0  0
   -9.5150   21.9660  -31.5960 C   0  0  0  0  0  0  0  0  0  0  0  0
   -8.1850   22.5890  -31.3550 C   0  0  0  0  0  0  0  0  0  0  0  0
   -7.5690   22.6610  -30.1270 C   0  0  0  0  0  0  0  0  0  0  0  0
   -6.3420   23.2810  -29.9870 C   0  0  0  0  0  0  0  0  0  0  0  0
   -5.6680   23.8590  -31.0590 C   0  0  0  0  0  0  0  0  0  0  0  0
   -4.4470   24.4880  -30.7880 N   0  0  0  0  0  0  0  0  0  0  0  0
   -3.4340   24.0420  -30.1700 C   0  0  0  0  0  0  0  0  0  0  0  0
   -3.1000   24.5500  -28.9240 C   0  0  0  0  0  0  0  0  0  0  0  0
   -2.0060   24.0030  -28.3060 C   0  0  0  0  0  0  0  0  0  0  0  0
   -1.2610   23.0190  -28.8400 N   0  0  0  0  0  0  0  0  0  0  0  0
   -0.1180   22.4220  -28.2150 C   0  0  0  0  0  0  0  0  0  0  0  0
   -1.6240   22.5510  -30.0680 C   0  0  0  0  0  0  0  0  0  0  0  0
   -0.7410   21.3570  -30.7420 S   0  0  0  0  0  0  0  0  0  0  0  0
   -2.6930   23.0480  -30.7290 N   0  0  0  0  0  0  0  0  0  0  0  0
   -6.2900   23.7810  -32.2780 C   0  0  0  0  0  0  0  0  0  0  0  0
   -7.5290   23.1560  -32.4300 C   0  0  0  0  0  0  0  0  0  0  0  0
   -5.5735   17.2607  -33.8860 H   0  0  0  0  0  0  0  0  0  0  0  0
   -6.5744   17.5501  -35.3492 H   0  0  0  0  0  0  0  0  0  0  0  0
   -4.8340   17.9948  -35.3492 H   0  0  0  0  0  0  0  0  0  0  0  0
   -5.2385   19.9653  -34.4190 H   0  0  0  0  0  0  0  0  0  0  0  0
   -7.0101   19.6012  -34.7601 H   0  0  0  0  0  0  0  0  0  0  0  0
   -5.4388   19.9754  -31.0463 H   0  0  0  0  0  0  0  0  0  0  0  0
   -4.4944   18.8353  -32.0878 H   0  0  0  0  0  0  0  0  0  0  0  0
   -4.0303   21.5047  -31.9017 H   0  0  0  0  0  0  0  0  0  0  0  0
   -3.6135   20.4812  -33.3178 H   0  0  0  0  0  0  0  0  0  0  0  0
   -5.1335   21.4384  -33.3178 H   0  0  0  0  0  0  0  0  0  0  0  0
   -6.9587   17.3978  -32.9231 H   0  0  0  0  0  0  0  0  0  0  0  0
   -6.2577   18.0262  -31.3398 H   0  0  0  0  0  0  0  0  0  0  0  0
   -9.0600   18.0952  -32.3566 H   0  0  0  0  0  0  0  0  0  0  0  0
   -8.4304   17.7282  -30.7321 H   0  0  0  0  0  0  0  0  0  0  0  0
   -7.5100   20.2050  -31.3310 H   0  0  0  0  0  0  0  0  0  0  0  0
   -9.1012   20.4854  -33.0397 H   0  0  0  0  0  0  0  0  0  0  0  0
  -10.3736   20.0769  -31.7699 H   0  0  0  0  0  0  0  0  0  0  0  0
  -10.0209   22.5096  -32.4075 H   0  0  0  0  0  0  0  0  0  0  0  0
  -10.0930   22.0222  -30.6618 H   0  0  0  0  0  0  0  0  0  0  0  0
   -8.0589   22.2199  -29.2464 H   0  0  0  0  0  0  0  0  0  0  0  0
   -5.8799   23.3193  -28.9895 H   0  0  0  0  0  0  0  0  0  0  0  0
   -3.6853   25.3539  -28.4538 H   0  0  0  0  0  0  0  0  0  0  0  0
   -1.7210   24.3909  -27.3169 H   0  0  0  0  0  0  0  0  0  0  0  0
   -0.2265   22.4787  -27.1218 H   0  0  0  0  0  0  0  0  0  0  0  0
   -0.0409   21.3684  -28.5217 H   0  0  0  0  0  0  0  0  0  0  0  0
    0.7907   22.9606  -28.5217 H   0  0  0  0  0  0  0  0  0  0  0  0
   -2.9770   22.6990  -31.6660 H   0  0  0  0  0  0  0  0  0  0  0  0
   -5.8005   24.2221  -33.1588 H   0  0  0  0  0  0  0  0  0  0  0  0
   -7.9925   23.1143  -33.4267 H   0  0  0  0  0  0  0  0  0  0  0  0
  1  2  1  0
  2  3  1  0
  3  4  1  0
  4  5  1  0
  3  6  1  0
  6  7  1  0
  7  8  1  0
  8  9  1  0
  9 10  1  0
 10 11  1  0
 11 12  2  0
 12 13  1  0
 13 14  2  0
 14 15  1  0
 15 16  2  0
 16 17  1  0
 17 18  2  0
 18 19  1  0
 19 20  1  0
 19 21  1  0
 21 22  2  0
 21 23  1  0
 14 24  1  0
 24 25  2  0
 25 11  1  0
 23 16  1  0
  1 26  1  0
  1 27  1  0
  1 28  1  0
  2 29  1  0
  2 30  1  0
  4 31  1  0
  4 32  1  0
  5 33  1  0
  5 34  1  0
  5 35  1  0
  6 36  1  0
  6 37  1  0
  7 38  1  0
  7 39  1  0
  8 40  1  0
  9 41  1  0
  9 42  1  0
 10 43  1  0
 10 44  1  0
 12 45  1  0
 13 46  1  0
 17 47  1  0
 18 48  1  0
 20 49  1  0
 20 50  1  0
 20 51  1  0
 23 52  1  0
 24 53  1  0
 25 54  1  0
M  END
>  <smiles>  (35) 
CCN(CC)CCNCCc1ccc(N=c2ccn(C)c(=S)[nH]2)cc1

>  <score_type>  (35) 
oracle

>  <origin>  (35) 
adg

>  <m_score__min__energy>  (35) 
-8.2899999999999991

>  <m_primary>  (35) 
energy

$$$$
35:0
     RDKit          3D

 55 57  0  0  0  0  0  0  0  0999 V2000
   -7.2420   18.2170  -31.3960 C   0  0  0  0  0  0  0  0  0  0  0  0
   -7.9910   18.2860  -32.7210 C   0  0  0  0  0  0  0  0  0  0  0  0
   -8.8000   19.5100  -32.7790 N   0  0  0  0  0  0  0  0  0  0  0  0
   -8.5700   20.3830  -31.6170 C   0  0  0  0  0  0  0  0  0  0  0  0
   -8.2460   21.8390  -32.0010 C   0  0  0  0  0  0  0  0  0  0  0  0
   -6.8440   22.1640  -31.7230 N   0  0  0  0  0  0  0  0  0  0  0  0
   -6.4210   23.1420  -30.8900 C   0  0  0  0  0  0  0  0  0  0  0  0
   -5.0320   23.2030  -30.8730 C   0  0  0  0  0  0  0  0  0  0  0  0
   -4.2390   24.1290  -30.0370 C   0  0  0  0  0  0  0  0  0  0  0  0
   -3.8420   25.2140  -30.5410 O   0  0  0  0  0  0  0  0  0  0  0  0
   -3.8260   23.7910  -28.6280 C   0  0  0  0  0  0  0  0  0  0  0  0
   -2.5060   24.3820  -28.0760 C   0  0  0  0  0  0  0  0  0  0  0  0
   -2.5160   24.7520  -26.5820 C   0  0  0  0  0  0  0  0  0  0  0  0
   -1.6390   25.2970  -28.9670 C   0  0  0  0  0  0  0  0  0  0  0  0
   -2.5890   22.8800  -28.4420 C   0  0  0  0  0  0  0  0  0  0  0  0
   -1.7900   22.3920  -29.6680 C   0  0  0  0  0  0  0  0  0  0  0  0
   -2.6820   21.8660  -27.2860 C   0  0  0  0  0  0  0  0  0  0  0  0
   -4.6030   22.2210  -31.7570 C   0  0  0  0  0  0  0  0  0  0  0  0
   -3.3270   21.8540  -32.1910 C   0  0  0  0  0  0  0  0  0  0  0  0
   -3.2060   20.8080  -33.1250 C   0  0  0  0  0  0  0  0  0  0  0  0
   -1.9180   20.4430  -33.5440 O   0  0  0  0  0  0  0  0  0  0  0  0
   -0.7160   21.0110  -33.0360 C   0  0  0  0  0  0  0  0  0  0  0  0
   -4.3730   20.1650  -33.6130 C   0  0  0  0  0  0  0  0  0  0  0  0
   -5.6460   20.5680  -33.1800 C   0  0  0  0  0  0  0  0  0  0  0  0
   -5.7320   21.6060  -32.2490 C   0  0  0  0  0  0  0  0  0  0  0  0
   -7.9598   18.2831  -30.5651 H   0  0  0  0  0  0  0  0  0  0  0  0
   -6.6951   17.2647  -31.3331 H   0  0  0  0  0  0  0  0  0  0  0  0
   -6.5303   19.0534  -31.3331 H   0  0  0  0  0  0  0  0  0  0  0  0
   -7.2667   18.2888  -33.5489 H   0  0  0  0  0  0  0  0  0  0  0  0
   -8.6532   17.4118  -32.8067 H   0  0  0  0  0  0  0  0  0  0  0  0
   -8.5910   20.0260  -33.6650 H   0  0  0  0  0  0  0  0  0  0  0  0
   -9.4764   20.3801  -30.9938 H   0  0  0  0  0  0  0  0  0  0  0  0
   -7.6955   19.9862  -31.0805 H   0  0  0  0  0  0  0  0  0  0  0  0
   -8.4398   21.9779  -33.0748 H   0  0  0  0  0  0  0  0  0  0  0  0
   -8.8825   22.5060  -31.4010 H   0  0  0  0  0  0  0  0  0  0  0  0
   -7.0839   23.7981  -30.3069 H   0  0  0  0  0  0  0  0  0  0  0  0
   -4.8697   23.7778  -28.2808 H   0  0  0  0  0  0  0  0  0  0  0  0
   -2.4912   23.8339  -25.9767 H   0  0  0  0  0  0  0  0  0  0  0  0
   -1.6342   25.3676  -26.3508 H   0  0  0  0  0  0  0  0  0  0  0  0
   -3.4298   25.3190  -26.3508 H   0  0  0  0  0  0  0  0  0  0  0  0
   -1.0213   25.9489  -28.3318 H   0  0  0  0  0  0  0  0  0  0  0  0
   -0.9870   24.6793  -29.6021 H   0  0  0  0  0  0  0  0  0  0  0  0
   -2.2909   25.9148  -29.6021 H   0  0  0  0  0  0  0  0  0  0  0  0
   -0.8967   21.8464  -29.3300 H   0  0  0  0  0  0  0  0  0  0  0  0
   -2.4199   21.7243  -30.2741 H   0  0  0  0  0  0  0  0  0  0  0  0
   -1.4836   23.2573  -30.2741 H   0  0  0  0  0  0  0  0  0  0  0  0
   -2.6331   22.3996  -26.3254 H   0  0  0  0  0  0  0  0  0  0  0  0
   -3.6341   21.3192  -27.3536 H   0  0  0  0  0  0  0  0  0  0  0  0
   -1.8453   21.1551  -27.3536 H   0  0  0  0  0  0  0  0  0  0  0  0
   -2.4345   22.3722  -31.8104 H   0  0  0  0  0  0  0  0  0  0  0  0
   -0.7410   20.9992  -31.9363 H   0  0  0  0  0  0  0  0  0  0  0  0
    0.1448   20.4244  -33.3895 H   0  0  0  0  0  0  0  0  0  0  0  0
   -0.6227   22.0485  -33.3895 H   0  0  0  0  0  0  0  0  0  0  0  0
   -4.2792   19.3428  -34.3376 H   0  0  0  0  0  0  0  0  0  0  0  0
   -6.5532   20.0787  -33.5642 H   0  0  0  0  0  0  0  0  0  0  0  0
  1  2  1  0
  2  3  1  0
  3  4  1  0
  4  5  1  0
  5  6  1  0
  6  7  1  0
  7  8  2  0
  8  9  1  0
  9 10  2  0
  9 11  1  0
 11 12  1  0
 12 13  1  0
 12 14  1  0
 12 15  1  0
 15 16  1  0
 15 17  1  0
  8 18  1  0
 18 19  2  0
 19 20  1  0
 20 21  1  0
 21 22  1  0
 20 23  2  0
 23 24  1  0
 24 25  2  0
 25  6  1  0
 15 11  1  0
 25 18  1  0
  1 26  1  0
  1 27  1  0
  1 28  1  0
  2 29  1  0
  2 30  1  0
  3 31  1  0
  4 32  1  0
  4 33  1  0
  5 34  1  0
  5 35  1  0
  7 36  1  0
 11 37  1  0
 13 38  1  0
 13 39  1  0
 13 40  1  0
 14 41  1  0
 14 42  1  0
 14 43  1  0
 16 44  1  0
 16 45  1  0
 16 46  1  0
 17 47  1  0
 17 48  1  0
 17 49  1  0
 19 50  1  0
 22 51  1  0
 22 52  1  0
 22 53  1  0
 23 54  1  0
 24 55  1  0
M  END
>  <UniqueID>  (36) 
33

>  <SMILES>  (36) 
CCNCCn1cc(C(=O)C2C(C)(C)C2(C)C)c2cc(OC)ccc21

>  <Energy>  (36) 
361.9302305105223

>  <Genealogy>  (36) 
CCNCCn1cc(C(=O)C2C(C)(C)C2(C)C)c2cc(OC)ccc21 (3D coordinates assigned)
CCNCCn1cc(C(=O)C2C(C)(C)C2(C)C)c2cc(OC)ccc21 (nonaromatic ring conformer: 361.9302305105223 kcal/mol)

>  <smiles>  (36) 
CCNCCn1cc(C(=O)C2C(C)(C)C2(C)C)c2cc(OC)ccc21

>  <score_type>  (36) 
oracle

>  <origin>  (36) 
adg

>  <m_score__min__energy>  (36) 
-8.7100000000000009

>  <m_primary>  (36) 
energy

$$$$
36:0
     RDKit          3D

 74 79  0  0  0  0  0  0  0  0999 V2000
   -4.8670   12.6972  -34.1538 H   0  0  0  0  0  0  0  0  0  0  0  0
   -4.7730   13.7890  -34.0580 C   0  0  0  0  0  0  0  0  0  0  0  0
   -3.5260   14.3940  -34.2100 C   0  0  0  0  0  0  0  0  0  0  0  0
   -2.4120   13.5660  -34.4250 O   0  0  0  0  0  0  0  0  0  0  0  0
   -1.5820   13.0440  -33.3920 C   0  0  0  0  0  0  0  0  0  0  0  0
   -2.0051   13.3101  -32.4121 H   0  0  0  0  0  0  0  0  0  0  0  0
   -1.5281   11.9491  -33.4830 H   0  0  0  0  0  0  0  0  0  0  0  0
   -0.5718   13.4697  -33.4830 H   0  0  0  0  0  0  0  0  0  0  0  0
   -3.4240   15.7960  -34.1350 C   0  0  0  0  0  0  0  0  0  0  0  0
   -2.4332   16.2679  -34.2095 H   0  0  0  0  0  0  0  0  0  0  0  0
   -4.5670   16.6110  -33.9660 C   0  0  0  0  0  0  0  0  0  0  0  0
   -4.5520   18.0460  -33.9600 C   0  0  0  0  0  0  0  0  0  0  0  0
   -3.5830   18.7990  -34.4290 N   0  0  0  0  0  0  0  0  0  0  0  0
   -2.1730   19.0240  -34.1060 C   0  0  0  0  0  0  0  0  0  0  0  0
   -1.5585   18.5822  -34.9042 H   0  0  0  0  0  0  0  0  0  0  0  0
   -2.0307   20.1115  -34.0221 H   0  0  0  0  0  0  0  0  0  0  0  0
   -1.7420   18.4060  -32.7600 C   0  0  0  0  0  0  0  0  0  0  0  0
   -1.8978   19.1570  -31.9715 H   0  0  0  0  0  0  0  0  0  0  0  0
   -2.3537   17.5025  -32.6202 H   0  0  0  0  0  0  0  0  0  0  0  0
   -0.2720   17.9520  -32.7080 C   0  0  0  0  0  0  0  0  0  0  0  0
   -0.2046   17.0485  -32.0843 H   0  0  0  0  0  0  0  0  0  0  0  0
    0.0527   17.7583  -33.7410 H   0  0  0  0  0  0  0  0  0  0  0  0
    0.6180   18.9770  -32.1480 N   0  0  0  0  0  0  0  0  0  0  0  0
    0.4320   18.9890  -31.1200 H   0  0  0  0  0  0  0  0  0  0  0  0
    0.3100   20.3190  -32.6610 C   0  0  0  0  0  0  0  0  0  0  0  0
    1.2495   20.8568  -32.8562 H   0  0  0  0  0  0  0  0  0  0  0  0
   -0.2698   20.2211  -33.5907 H   0  0  0  0  0  0  0  0  0  0  0  0
   -0.5210   21.1070  -31.6360 C   0  0  0  0  0  0  0  0  0  0  0  0
   -0.3026   22.1781  -31.7587 H   0  0  0  0  0  0  0  0  0  0  0  0
   -1.5793   20.8757  -31.8270 H   0  0  0  0  0  0  0  0  0  0  0  0
   -0.2230   20.7110  -30.1780 C   0  0  0  0  0  0  0  0  0  0  0  0
   -0.6488   19.7157  -29.9828 H   0  0  0  0  0  0  0  0  0  0  0  0
    0.8678   20.7020  -30.0366 H   0  0  0  0  0  0  0  0  0  0  0  0
   -0.8020   21.6690  -29.2390 N   0  0  0  0  0  0  0  0  0  0  0  0
   -1.3930   22.8350  -29.3580 C   0  0  0  0  0  0  0  0  0  0  0  0
   -2.6530   23.0650  -30.0110 C   0  0  0  0  0  0  0  0  0  0  0  0
   -3.2740   22.1660  -30.9110 C   0  0  0  0  0  0  0  0  0  0  0  0
   -2.7616   21.2299  -31.1780 H   0  0  0  0  0  0  0  0  0  0  0  0
   -4.5260   22.4450  -31.4670 C   0  0  0  0  0  0  0  0  0  0  0  0
   -4.9975   21.7169  -32.1434 H   0  0  0  0  0  0  0  0  0  0  0  0
   -5.1800   23.6370  -31.1710 C   0  0  0  0  0  0  0  0  0  0  0  0
   -6.7490   23.9800  -31.8750 Cl  0  0  0  0  0  0  0  0  0  0  0  0
   -4.5620   24.5760  -30.3490 C   0  0  0  0  0  0  0  0  0  0  0  0
   -5.0659   25.5297  -30.1333 H   0  0  0  0  0  0  0  0  0  0  0  0
   -3.3020   24.3130  -29.7950 C   0  0  0  0  0  0  0  0  0  0  0  0
   -2.7040   25.2890  -29.0720 N   0  0  0  0  0  0  0  0  0  0  0  0
   -1.4690   25.1420  -28.5420 C   0  0  0  0  0  0  0  0  0  0  0  0
   -0.8960   26.2070  -27.8400 C   0  0  0  0  0  0  0  0  0  0  0  0
   -1.4581   27.1441  -27.7137 H   0  0  0  0  0  0  0  0  0  0  0  0
    0.3840   26.0880  -27.2990 C   0  0  0  0  0  0  0  0  0  0  0  0
    0.8266   26.9303  -26.7471 H   0  0  0  0  0  0  0  0  0  0  0  0
    1.1100   24.8950  -27.4570 C   0  0  0  0  0  0  0  0  0  0  0  0
    2.4170   24.7410  -26.9680 O   0  0  0  0  0  0  0  0  0  0  0  0
    2.8600   25.2070  -25.7000 C   0  0  0  0  0  0  0  0  0  0  0  0
    2.3370   24.6568  -24.9040 H   0  0  0  0  0  0  0  0  0  0  0  0
    3.9438   25.0436  -25.6075 H   0  0  0  0  0  0  0  0  0  0  0  0
    2.6420   26.2812  -25.6075 H   0  0  0  0  0  0  0  0  0  0  0  0
    0.5210   23.8190  -28.1280 C   0  0  0  0  0  0  0  0  0  0  0  0
    1.0747   22.8732  -28.2220 H   0  0  0  0  0  0  0  0  0  0  0  0
   -0.7730   23.9240  -28.6880 C   0  0  0  0  0  0  0  0  0  0  0  0
   -5.7030   18.7280  -33.4850 C   0  0  0  0  0  0  0  0  0  0  0  0
   -5.7280   20.1340  -33.3230 C   0  0  0  0  0  0  0  0  0  0  0  0
   -4.8444   20.7298  -33.5955 H   0  0  0  0  0  0  0  0  0  0  0  0
   -6.8650   20.7720  -32.8200 C   0  0  0  0  0  0  0  0  0  0  0  0
   -6.8623   21.8624  -32.6749 H   0  0  0  0  0  0  0  0  0  0  0  0
   -8.0040   20.0310  -32.5010 C   0  0  0  0  0  0  0  0  0  0  0  0
   -9.4160   20.8310  -31.8340 Cl  0  0  0  0  0  0  0  0  0  0  0  0
   -8.0140   18.6490  -32.6970 C   0  0  0  0  0  0  0  0  0  0  0  0
   -8.9231   18.0703  -32.4766 H   0  0  0  0  0  0  0  0  0  0  0  0
   -6.8710   17.9980  -33.1730 C   0  0  0  0  0  0  0  0  0  0  0  0
   -6.8920   16.6540  -33.3260 N   0  0  0  0  0  0  0  0  0  0  0  0
   -5.8000   15.9510  -33.7060 C   0  0  0  0  0  0  0  0  0  0  0  0
   -5.8980   14.5590  -33.7860 C   0  0  0  0  0  0  0  0  0  0  0  0
   -6.8713   14.0698  -33.6328 H   0  0  0  0  0  0  0  0  0  0  0  0
  1  2  1  0
  2  3  2  0
  3  4  1  0
  4  5  1  0
  5  6  1  0
  5  7  1  0
  5  8  1  0
  3  9  1  0
  9 10  1  0
  9 11  2  0
 11 12  1  0
 12 13  2  0
 13 14  1  0
 14 15  1  0
 14 16  1  0
 14 17  1  0
 17 18  1  0
 17 19  1  0
 17 20  1  0
 20 21  1  0
 20 22  1  0
 20 23  1  0
 23 24  1  0
 23 25  1  0
 25 26  1  0
 25 27  1  0
 25 28  1  0
 28 29  1  0
 28 30  1  0
 28 31  1  0
 31 32  1  0
 31 33  1  0
 31 34  1  0
 34 35  2  0
 35 36  1  0
 36 37  2  0
 37 38  1  0
 37 39  1  0
 39 40  1  0
 39 41  2  0
 41 42  1  0
 41 43  1  0
 43 44  1  0
 43 45  2  0
 45 46  1  0
 46 47  1  0
 47 48  2  0
 48 49  1  0
 48 50  1  0
 50 51  1  0
 50 52  2  0
 52 53  1  0
 53 54  1  0
 54 55  1  0
 54 56  1  0
 54 57  1  0
 52 58  1  0
 58 59  1  0
 58 60  2  0
 12 61  1  0
 61 62  2  0
 62 63  1  0
 62 64  1  0
 64 65  1  0
 64 66  2  0
 66 67  1  0
 66 68  1  0
 68 69  1  0
 68 70  2  0
 70 71  1  0
 71 72  1  0
 72 73  2  0
 73 74  1  0
 73  2  1  0
 72 11  1  0
 60 35  1  0
 70 61  1  0
 45 36  1  0
 60 47  1  0
M  CHG  2  46  -1  71  -1
M  END
>  <UniqueID>  (37) 
34

>  <SMILES>  (37) 
COc1ccc2[n-]c3cc(Cl)ccc3/c(=N/CCCNCCC/N=c3\c4ccc(Cl)cc4[n-]c4ccc(OC)cc34)c2c1

>  <Energy>  (37) 
121.82361089574997

>  <Genealogy>  (37) 
COc1ccc2[n-]c3cc(Cl)ccc3c(=NCCCNCCCN=c3c4ccc(Cl)cc4[n-]c4ccc(OC)cc34)c2c1 (protonated)
COc1ccc2[n-]c3cc(Cl)ccc3/c(=N/CCCNCCC/N=c3\c4ccc(Cl)cc4[n-]c4ccc(OC)cc34)c2c1 (cis-trans isomerization)
COc1ccc2[n-]c3cc(Cl)ccc3/c(=N/CCCNCCC/N=c3\c4ccc(Cl)cc4[n-]c4ccc(OC)cc34)c2c1 (3D coordinates assigned)
COc1ccc2[n-]c3cc(Cl)ccc3/c(=N/CCCNCCC/N=c3\c4ccc(Cl)cc4[n-]c4ccc(OC)cc34)c2c1 (optimized conformer: 121.82361089574997 kcal/mol)

>  <smiles>  (37) 
COc1ccc2[nH]c3cc(Cl)ccc3c(=NCCCNCCCN=c3c4ccc(Cl)cc4[nH]c4ccc(OC)cc34)c2c1

>  <score_type>  (37) 
oracle

>  <origin>  (37) 
adg

>  <m_score__min__energy>  (37) 
-10.99

>  <m_primary>  (37) 
energy

$$$$
37:0
     RDKit          3D

 34 35  0  0  0  0  0  0  0  0999 V2000
   -2.4280   24.4260  -28.9790 C   0  0  0  0  0  0  0  0  0  0  0  0
   -3.2060   24.9220  -30.0630 O   0  0  0  0  0  0  0  0  0  0  0  0
   -4.4390   24.3850  -30.4650 C   0  0  0  0  0  0  0  0  0  0  0  0
   -5.6100   25.0440  -30.0730 C   0  0  0  0  0  0  0  0  0  0  0  0
   -6.8630   24.5490  -30.4470 C   0  0  0  0  0  0  0  0  0  0  0  0
   -6.9600   23.3780  -31.2110 C   0  0  0  0  0  0  0  0  0  0  0  0
   -8.3040   22.8630  -31.6480 C   0  0  0  0  0  0  0  0  0  0  0  0
   -8.5560   21.5570  -31.0260 N   0  0  0  0  0  0  0  0  0  0  0  0
   -9.1070   20.6020  -31.9950 C   0  0  0  0  0  0  0  0  0  0  0  0
   -8.0350   19.6540  -32.4660 C   0  0  0  0  0  0  0  0  0  0  0  0
   -7.1190   20.0570  -33.4480 C   0  0  0  0  0  0  0  0  0  0  0  0
   -6.1180   19.1760  -33.8600 C   0  0  0  0  0  0  0  0  0  0  0  0
   -6.0300   17.9350  -33.3090 N   0  0  0  0  0  0  0  0  0  0  0  0
   -6.9050   17.5190  -32.3520 C   0  0  0  0  0  0  0  0  0  0  0  0
   -7.9200   18.3710  -31.9110 C   0  0  0  0  0  0  0  0  0  0  0  0
   -5.7890   22.7230  -31.6200 C   0  0  0  0  0  0  0  0  0  0  0  0
   -4.5360   23.2180  -31.2450 C   0  0  0  0  0  0  0  0  0  0  0  0
   -2.8935   24.7228  -28.0276 H   0  0  0  0  0  0  0  0  0  0  0  0
   -2.3775   23.3286  -29.0359 H   0  0  0  0  0  0  0  0  0  0  0  0
   -1.4118   24.8433  -29.0359 H   0  0  0  0  0  0  0  0  0  0  0  0
   -5.5439   25.9588  -29.4657 H   0  0  0  0  0  0  0  0  0  0  0  0
   -7.7760   25.0806  -30.1405 H   0  0  0  0  0  0  0  0  0  0  0  0
   -9.0860   23.5725  -31.3397 H   0  0  0  0  0  0  0  0  0  0  0  0
   -8.3161   22.7552  -32.7426 H   0  0  0  0  0  0  0  0  0  0  0  0
   -7.6360   21.1800  -30.6990 H   0  0  0  0  0  0  0  0  0  0  0  0
   -9.9150   20.0275  -31.5184 H   0  0  0  0  0  0  0  0  0  0  0  0
   -9.4977   21.1572  -32.8605 H   0  0  0  0  0  0  0  0  0  0  0  0
   -7.1889   21.0614  -33.8910 H   0  0  0  0  0  0  0  0  0  0  0  0
   -5.3984   19.4857  -34.6321 H   0  0  0  0  0  0  0  0  0  0  0  0
   -5.2750   17.2860  -33.6270 H   0  0  0  0  0  0  0  0  0  0  0  0
   -6.8121   16.5094  -31.9253 H   0  0  0  0  0  0  0  0  0  0  0  0
   -8.6241   18.0383  -31.1341 H   0  0  0  0  0  0  0  0  0  0  0  0
   -5.8566   21.8159  -32.2385 H   0  0  0  0  0  0  0  0  0  0  0  0
   -3.6226   22.6929  -31.5611 H   0  0  0  0  0  0  0  0  0  0  0  0
  1  2  1  0
  2  3  1  0
  3  4  2  0
  4  5  1  0
  5  6  2  0
  6  7  1  0
  7  8  1  0
  8  9  1  0
  9 10  1  0
 10 11  2  0
 11 12  1  0
 12 13  2  0
 13 14  1  0
 14 15  2  0
  6 16  1  0
 16 17  2  0
 17  3  1  0
 15 10  1  0
  1 18  1  0
  1 19  1  0
  1 20  1  0
  4 21  1  0
  5 22  1  0
  7 23  1  0
  7 24  1  0
  8 25  1  0
  9 26  1  0
  9 27  1  0
 11 28  1  0
 12 29  1  0
 13 30  1  0
 14 31  1  0
 15 32  1  0
 16 33  1  0
 17 34  1  0
M  CHG  1  13   1
M  END
>  <UniqueID>  (38) 
35

>  <SMILES>  (38) 
COc1ccc(CNCc2cc[nH+]cc2)cc1

>  <Energy>  (38) 
31.61268703153526

>  <Genealogy>  (38) 
COc1ccc(CNCc2cc[nH+]cc2)cc1 (protonated)
COc1ccc(CNCc2cc[nH+]cc2)cc1 (3D coordinates assigned)
COc1ccc(CNCc2cc[nH+]cc2)cc1 (optimized conformer: 31.61268703153526 kcal/mol)

>  <smiles>  (38) 
COc1ccc(CNCc2ccncc2)cc1

>  <score_type>  (38) 
oracle

>  <origin>  (38) 
adg

>  <m_score__min__energy>  (38) 
-6.3899999999999997

>  <m_primary>  (38) 
energy

$$$$
38:0
     RDKit          3D

 45 47  0  0  0  0  0  0  0  0999 V2000
   -5.8580   24.2610  -30.7290 C   0  0  0  0  0  0  0  0  0  0  0  0
   -5.4680   22.9170  -30.4550 O   0  0  0  0  0  0  0  0  0  0  0  0
   -5.6460   21.8770  -31.3770 C   0  0  0  0  0  0  0  0  0  0  0  0
   -4.5180   21.3260  -32.0220 C   0  0  0  0  0  0  0  0  0  0  0  0
   -3.1250   21.8590  -31.7430 C   0  0  0  0  0  0  0  0  0  0  0  0
   -2.8600   22.0160  -30.2850 N   0  0  0  0  0  0  0  0  0  0  0  0
   -2.5000   23.4280  -29.9900 C   0  0  0  0  0  0  0  0  0  0  0  0
   -2.3510   23.7420  -28.4890 C   0  0  0  0  0  0  0  0  0  0  0  0
   -3.0620   22.6980  -27.6130 C   0  0  0  0  0  0  0  0  0  0  0  0
   -2.2020   21.4670  -27.3020 C   0  0  0  0  0  0  0  0  0  0  0  0
   -2.2250   20.4030  -28.4100 C   0  0  0  0  0  0  0  0  0  0  0  0
   -1.8870   21.0020  -29.7910 C   0  0  0  0  0  0  0  0  0  0  0  0
   -4.6870   20.2780  -32.9380 C   0  0  0  0  0  0  0  0  0  0  0  0
   -5.9530   19.7550  -33.2140 C   0  0  0  0  0  0  0  0  0  0  0  0
   -6.0460   18.6600  -34.1520 C   0  0  0  0  0  0  0  0  0  0  0  0
   -6.1210   17.7830  -34.9020 N   0  0  0  0  0  0  0  0  0  0  0  0
   -7.0960   20.3190  -32.6030 C   0  0  0  0  0  0  0  0  0  0  0  0
   -8.3930   19.8420  -32.8900 C   0  0  0  0  0  0  0  0  0  0  0  0
   -9.5140   20.4480  -32.3230 C   0  0  0  0  0  0  0  0  0  0  0  0
   -9.3640   21.5430  -31.4750 C   0  0  0  0  0  0  0  0  0  0  0  0
   -8.0910   22.0260  -31.1700 C   0  0  0  0  0  0  0  0  0  0  0  0
   -6.9410   21.4060  -31.6990 C   0  0  0  0  0  0  0  0  0  0  0  0
   -6.0138   24.7980  -29.7817 H   0  0  0  0  0  0  0  0  0  0  0  0
   -5.0679   24.7612  -31.3083 H   0  0  0  0  0  0  0  0  0  0  0  0
   -6.7931   24.2606  -31.3083 H   0  0  0  0  0  0  0  0  0  0  0  0
   -2.3879   21.1588  -32.1629 H   0  0  0  0  0  0  0  0  0  0  0  0
   -3.0461   22.8528  -32.2079 H   0  0  0  0  0  0  0  0  0  0  0  0
   -3.7540   21.8320  -29.7720 H   0  0  0  0  0  0  0  0  0  0  0  0
   -1.5435   23.6508  -30.4855 H   0  0  0  0  0  0  0  0  0  0  0  0
   -3.3280   24.0494  -30.3620 H   0  0  0  0  0  0  0  0  0  0  0  0
   -1.2815   23.7530  -28.2322 H   0  0  0  0  0  0  0  0  0  0  0  0
   -2.8143   24.7211  -28.2973 H   0  0  0  0  0  0  0  0  0  0  0  0
   -3.3424   23.1751  -26.6623 H   0  0  0  0  0  0  0  0  0  0  0  0
   -3.9367   22.3449  -28.1789 H   0  0  0  0  0  0  0  0  0  0  0  0
   -1.1624   21.7967  -27.1584 H   0  0  0  0  0  0  0  0  0  0  0  0
   -2.6223   21.0005  -26.3989 H   0  0  0  0  0  0  0  0  0  0  0  0
   -1.4865   19.6239  -28.1701 H   0  0  0  0  0  0  0  0  0  0  0  0
   -3.2412   19.9849  -28.4596 H   0  0  0  0  0  0  0  0  0  0  0  0
   -0.8984   21.4797  -29.7245 H   0  0  0  0  0  0  0  0  0  0  0  0
   -1.9174   20.1677  -30.5072 H   0  0  0  0  0  0  0  0  0  0  0  0
   -3.8070   19.8599  -33.4486 H   0  0  0  0  0  0  0  0  0  0  0  0
   -8.5209   18.9845  -33.5670 H   0  0  0  0  0  0  0  0  0  0  0  0
  -10.5190   20.0603  -32.5460 H   0  0  0  0  0  0  0  0  0  0  0  0
  -10.2522   22.0285  -31.0444 H   0  0  0  0  0  0  0  0  0  0  0  0
   -7.9838   22.8995  -30.5100 H   0  0  0  0  0  0  0  0  0  0  0  0
  1  2  1  0
  2  3  1  0
  3  4  2  0
  4  5  1  0
  5  6  1  0
  6  7  1  0
  7  8  1  0
  8  9  1  0
  9 10  1  0
 10 11  1  0
 11 12  1  0
  4 13  1  0
 13 14  2  0
 14 15  1  0
 15 16  3  0
 14 17  1  0
 17 18  2  0
 18 19  1  0
 19 20  2  0
 20 21  1  0
 21 22  2  0
 22  3  1  0
 12  6  1  0
 22 17  1  0
  1 23  1  0
  1 24  1  0
  1 25  1  0
  5 26  1  0
  5 27  1  0
  6 28  1  0
  7 29  1  0
  7 30  1  0
  8 31  1  0
  8 32  1  0
  9 33  1  0
  9 34  1  0
 10 35  1  0
 10 36  1  0
 11 37  1  0
 11 38  1  0
 12 39  1  0
 12 40  1  0
 13 41  1  0
 18 42  1  0
 19 43  1  0
 20 44  1  0
 21 45  1  0
M  CHG  1   6   1
M  END
>  <UniqueID>  (39) 
36

>  <SMILES>  (39) 
COc1c(C[NH+]2CCCCCC2)cc(C#N)c2ccccc12

>  <Energy>  (39) 
68.03254806782212

>  <Genealogy>  (39) 
COc1c(C[NH+]2CCCCCC2)cc(C#N)c2ccccc12 (protonated)
COc1c(C[NH+]2CCCCCC2)cc(C#N)c2ccccc12 (3D coordinates assigned)
COc1c(C[NH+]2CCCCCC2)cc(C#N)c2ccccc12 (nonaromatic ring conformer: 68.03254806782212 kcal/mol)

>  <smiles>  (39) 
COc1c(CN2CCCCCC2)cc(C#N)c2ccccc12

>  <score_type>  (39) 
oracle

>  <origin>  (39) 
adg

>  <m_score__min__energy>  (39) 
-5.4400000000000004

>  <m_primary>  (39) 
energy

$$$$
39:0
     RDKit          3D

 41 44  0  0  0  0  0  0  0  0999 V2000
   -6.0670   18.4140  -31.6590 C   0  0  0  0  0  0  0  0  0  0  0  0
   -5.1900   19.4500  -32.2370 N   0  0  2  0  0  0  0  0  0  0  0  0
   -4.0840   19.8020  -31.2980 C   0  0  0  0  0  0  0  0  0  0  0  0
   -3.1110   20.8800  -31.8960 C   0  0  1  0  0  0  0  0  0  0  0  0
   -3.7210   21.5290  -33.1000 C   0  0  0  0  0  0  0  0  0  0  0  0
   -5.0000   21.8400  -32.9410 C   0  0  0  0  0  0  0  0  0  0  0  0
   -5.2970   23.1450  -32.3160 C   0  0  0  0  0  0  0  0  0  0  0  0
   -4.6510   23.6060  -31.2310 C   0  0  0  0  0  0  0  0  0  0  0  0
   -4.7420   25.0370  -30.7920 C   0  0  0  0  0  0  0  0  0  0  0  0
   -3.8500   25.1190  -29.6950 O   0  0  0  0  0  0  0  0  0  0  0  0
   -3.3060   23.8830  -29.3940 C   0  0  0  0  0  0  0  0  0  0  0  0
   -2.5020   23.7090  -28.4400 O   0  0  0  0  0  0  0  0  0  0  0  0
   -3.8160   22.7940  -30.2670 C   0  0  2  0  0  0  0  0  0  0  0  0
   -2.6650   21.9680  -30.8890 C   0  0  0  0  0  0  0  0  0  0  0  0
   -5.9290   20.6410  -32.7990 C   0  0  2  0  0  0  0  0  0  0  0  0
   -7.2490   20.9870  -32.0980 C   0  0  0  0  0  0  0  0  0  0  0  0
   -8.4990   20.6220  -32.6340 C   0  0  0  0  0  0  0  0  0  0  0  0
   -9.6820   20.9220  -31.9540 C   0  0  0  0  0  0  0  0  0  0  0  0
   -9.6370   21.5850  -30.7270 C   0  0  0  0  0  0  0  0  0  0  0  0
   -8.4060   21.9490  -30.1780 C   0  0  0  0  0  0  0  0  0  0  0  0
   -7.2200   21.6500  -30.8540 C   0  0  0  0  0  0  0  0  0  0  0  0
   -6.0224   18.4666  -30.5612 H   0  0  0  0  0  0  0  0  0  0  0  0
   -7.1017   18.5818  -31.9924 H   0  0  0  0  0  0  0  0  0  0  0  0
   -5.7307   17.4212  -31.9924 H   0  0  0  0  0  0  0  0  0  0  0  0
   -4.7240   18.9810  -33.0510 H   0  0  0  0  0  0  0  0  0  0  0  0
   -4.5214   20.1974  -30.3694 H   0  0  0  0  0  0  0  0  0  0  0  0
   -3.4992   18.8892  -31.1115 H   0  0  0  0  0  0  0  0  0  0  0  0
   -2.2023   20.3268  -32.1756 H   0  0  0  0  0  0  0  0  0  0  0  0
   -3.1622   21.7283  -34.0263 H   0  0  0  0  0  0  0  0  0  0  0  0
   -6.0855   23.7703  -32.7602 H   0  0  0  0  0  0  0  0  0  0  0  0
   -4.4298   25.7142  -31.6007 H   0  0  0  0  0  0  0  0  0  0  0  0
   -5.7675   25.3325  -30.5254 H   0  0  0  0  0  0  0  0  0  0  0  0
   -4.3950   21.9971  -29.7775 H   0  0  0  0  0  0  0  0  0  0  0  0
   -1.9911   22.6620  -31.4126 H   0  0  0  0  0  0  0  0  0  0  0  0
   -2.1825   21.4365  -30.0555 H   0  0  0  0  0  0  0  0  0  0  0  0
   -6.2551   20.3352  -33.8041 H   0  0  0  0  0  0  0  0  0  0  0  0
   -8.5445   20.0950  -33.5985 H   0  0  0  0  0  0  0  0  0  0  0  0
  -10.6515   20.6348  -32.3870 H   0  0  0  0  0  0  0  0  0  0  0  0
  -10.5696   21.8204  -30.1933 H   0  0  0  0  0  0  0  0  0  0  0  0
   -8.3696   22.4723  -29.2112 H   0  0  0  0  0  0  0  0  0  0  0  0
   -6.2542   21.9347  -30.4111 H   0  0  0  0  0  0  0  0  0  0  0  0
  1  2  1  0
  2  3  1  0
  3  4  1  0
  4  5  1  0
  5  6  2  0
  6  7  1  0
  7  8  2  0
  8  9  1  0
  9 10  1  0
 10 11  1  0
 11 12  2  0
 11 13  1  0
 13 14  1  0
  6 15  1  0
 15 16  1  0
 16 17  2  0
 17 18  1  0
 18 19  2  0
 19 20  1  0
 20 21  2  0
 15  2  1  0
 21 16  1  0
 14  4  1  0
 13  8  1  0
  1 22  1  0
  1 23  1  0
  1 24  1  0
  2 25  1  6
  3 26  1  0
  3 27  1  0
  4 28  1  6
  5 29  1  0
  7 30  1  0
  9 31  1  0
  9 32  1  0
 13 33  1  1
 14 34  1  0
 14 35  1  0
 15 36  1  6
 17 37  1  0
 18 38  1  0
 19 39  1  0
 20 40  1  0
 21 41  1  0
M  CHG  1   2   1
M  END
>  <UniqueID>  (40) 
37

>  <SMILES>  (40) 
C[N@@H+]1C[C@H]2C=C(C=C3COC(=O)C3C2)C1c1ccccc1

>  <Energy>  (40) 
119.61232268265489

>  <Genealogy>  (40) 
C[NH+]1CC2C=C(C=C3COC(=O)C3C2)C1c1ccccc1 (protonated)
C[N@@H+]1C[C@H]2C=C(C=C3COC(=O)C3C2)C1c1ccccc1 (chirality)
C[N@@H+]1C[C@H]2C=C(C=C3COC(=O)C3C2)C1c1ccccc1 (3D coordinates assigned)
C[N@@H+]1C[C@H]2C=C(C=C3COC(=O)C3C2)C1c1ccccc1 (nonaromatic ring conformer: 119.61232268265489 kcal/mol)

>  <smiles>  (40) 
CN1CC2C=C(C=C3COC(=O)C3C2)C1c1ccccc1

>  <score_type>  (40) 
oracle

>  <origin>  (40) 
adg

>  <m_score__min__energy>  (40) 
-5.8099999999999996

>  <m_primary>  (40) 
energy

$$$$
40:0
     RDKit          3D

 42 43  0  0  0  0  0  0  0  0999 V2000
   -6.4980   16.5750  -34.2160 C   0  0  0  0  0  0  0  0  0  0  0  0
   -5.7320   17.6960  -34.9140 C   0  0  0  0  0  0  0  0  0  0  0  0
   -6.0740   19.0720  -34.2820 C   0  0  0  0  0  0  0  0  0  0  0  0
   -5.2280   19.5010  -33.1070 N   0  0  0  0  0  0  0  0  0  0  0  0
   -4.1770   18.4750  -32.8340 C   0  0  0  0  0  0  0  0  0  0  0  0
   -4.5480   20.8050  -33.4610 C   0  0  0  0  0  0  0  0  0  0  0  0
   -3.2900   21.2350  -32.6440 C   0  0  0  0  0  0  0  0  0  0  0  0
   -3.5000   22.3310  -31.6000 C   0  0  0  0  0  0  0  0  0  0  0  0
   -6.1230   19.6570  -31.8840 C   0  0  2  0  0  0  0  0  0  0  0  0
   -7.0320   18.4030  -31.5940 C   0  0  0  0  0  0  0  0  0  0  0  0
   -8.4240   18.8950  -31.7610 C   0  0  0  0  0  0  0  0  0  0  0  0
   -9.4520   18.1710  -31.6840 O   0  0  0  0  0  0  0  0  0  0  0  0
   -8.4380   20.3170  -31.9570 C   0  0  0  0  0  0  0  0  0  0  0  0
   -9.5480   21.1630  -31.9740 C   0  0  0  0  0  0  0  0  0  0  0  0
   -9.3330   22.5450  -31.9680 C   0  0  0  0  0  0  0  0  0  0  0  0
   -8.0270   23.0520  -31.8880 C   0  0  0  0  0  0  0  0  0  0  0  0
   -6.9280   22.1790  -31.8510 C   0  0  0  0  0  0  0  0  0  0  0  0
   -7.1440   20.7950  -31.9610 C   0  0  0  0  0  0  0  0  0  0  0  0
   -6.4145   16.6973  -33.1260 H   0  0  0  0  0  0  0  0  0  0  0  0
   -7.5573   16.6167  -34.5095 H   0  0  0  0  0  0  0  0  0  0  0  0
   -6.0742   15.6033  -34.5095 H   0  0  0  0  0  0  0  0  0  0  0  0
   -4.6521   17.5116  -34.8145 H   0  0  0  0  0  0  0  0  0  0  0  0
   -6.0206   17.7133  -35.9753 H   0  0  0  0  0  0  0  0  0  0  0  0
   -5.9688   19.8358  -35.0665 H   0  0  0  0  0  0  0  0  0  0  0  0
   -7.0937   18.9648  -33.8837 H   0  0  0  0  0  0  0  0  0  0  0  0
   -4.0547   18.3556  -31.7474 H   0  0  0  0  0  0  0  0  0  0  0  0
   -4.4786   17.5143  -33.2768 H   0  0  0  0  0  0  0  0  0  0  0  0
   -3.2238   18.7997  -33.2768 H   0  0  0  0  0  0  0  0  0  0  0  0
   -4.2423   20.7359  -34.5154 H   0  0  0  0  0  0  0  0  0  0  0  0
   -5.2987   21.5731  -33.2233 H   0  0  0  0  0  0  0  0  0  0  0  0
   -2.9092   20.3445  -32.1225 H   0  0  0  0  0  0  0  0  0  0  0  0
   -2.5949   21.6630  -33.3813 H   0  0  0  0  0  0  0  0  0  0  0  0
   -3.4171   21.8981  -30.5922 H   0  0  0  0  0  0  0  0  0  0  0  0
   -2.7350   23.1109  -31.7282 H   0  0  0  0  0  0  0  0  0  0  0  0
   -4.4992   22.7729  -31.7282 H   0  0  0  0  0  0  0  0  0  0  0  0
   -5.3629   19.8363  -31.1093 H   0  0  0  0  0  0  0  0  0  0  0  0
   -6.8181   17.5957  -32.3099 H   0  0  0  0  0  0  0  0  0  0  0  0
   -6.8568   17.9868  -30.5910 H   0  0  0  0  0  0  0  0  0  0  0  0
  -10.5683   20.7523  -31.9917 H   0  0  0  0  0  0  0  0  0  0  0  0
  -10.1880   23.2347  -32.0260 H   0  0  0  0  0  0  0  0  0  0  0  0
   -7.8634   24.1392  -31.8541 H   0  0  0  0  0  0  0  0  0  0  0  0
   -5.9080   22.5746  -31.7370 H   0  0  0  0  0  0  0  0  0  0  0  0
  1  2  1  0
  2  3  1  0
  3  4  1  0
  4  5  1  0
  4  6  1  0
  6  7  1  0
  7  8  1  0
  4  9  1  0
  9 10  1  0
 10 11  1  0
 11 12  2  0
 11 13  1  0
 13 14  2  0
 14 15  1  0
 15 16  2  0
 16 17  1  0
 17 18  2  0
 18  9  1  0
 18 13  1  0
  1 19  1  0
  1 20  1  0
  1 21  1  0
  2 22  1  0
  2 23  1  0
  3 24  1  0
  3 25  1  0
  5 26  1  0
  5 27  1  0
  5 28  1  0
  6 29  1  0
  6 30  1  0
  7 31  1  0
  7 32  1  0
  8 33  1  0
  8 34  1  0
  8 35  1  0
  9 36  1  1
 10 37  1  0
 10 38  1  0
 14 39  1  0
 15 40  1  0
 16 41  1  0
 17 42  1  0
M  CHG  1   4   1
M  END
>  <UniqueID>  (41) 
38

>  <SMILES>  (41) 
CCC[N+](C)(CCC)[C@@H]1CC(=O)c2ccccc21

>  <Energy>  (41) 
82.20326487026803

>  <Genealogy>  (41) 
CCC[N+](C)(CCC)[C@@H]1CC(=O)c2ccccc21 (chirality)
CCC[N+](C)(CCC)[C@@H]1CC(=O)c2ccccc21 (3D coordinates assigned)
CCC[N+](C)(CCC)[C@@H]1CC(=O)c2ccccc21 (nonaromatic ring conformer: 82.20326487026803 kcal/mol)

>  <smiles>  (41) 
CCC[N+](C)(CCC)C1CC(=O)c2ccccc21

>  <score_type>  (41) 
oracle

>  <origin>  (41) 
adg

>  <m_score__min__energy>  (41) 
-6.2800000000000002

>  <m_primary>  (41) 
energy

$$$$
41:0
     RDKit          3D

 49 51  0  0  0  0  0  0  0  0999 V2000
   -9.2960   21.9160  -31.5320 C   0  0  0  0  0  0  0  0  0  0  0  0
   -8.2860   22.9930  -31.9150 C   0  0  0  0  0  0  0  0  0  0  0  0
   -6.9250   22.5990  -31.4810 N   0  0  0  0  0  0  0  0  0  0  0  0
   -6.8040   21.1260  -31.3840 C   0  0  0  0  0  0  0  0  0  0  0  0
   -6.6350   20.5050  -32.7700 C   0  0  0  0  0  0  0  0  0  0  0  0
   -6.5650   23.2500  -30.1990 C   0  0  0  0  0  0  0  0  0  0  0  0
   -5.9790   24.6460  -30.4490 C   0  0  0  0  0  0  0  0  0  0  0  0
   -4.6080   24.5700  -30.8450 O   0  0  0  0  0  0  0  0  0  0  0  0
   -3.8570   23.3910  -31.0030 C   0  0  0  0  0  0  0  0  0  0  0  0
   -3.9400   22.6090  -32.1720 C   0  0  0  0  0  0  0  0  0  0  0  0
   -3.1840   21.4370  -32.3030 C   0  0  0  0  0  0  0  0  0  0  0  0
   -3.2590   20.6640  -33.4730 C   0  0  0  0  0  0  0  0  0  0  0  0
   -2.5000   19.4960  -33.5940 C   0  0  0  0  0  0  0  0  0  0  0  0
   -1.6640   19.0900  -32.5500 C   0  0  0  0  0  0  0  0  0  0  0  0
   -1.5820   19.8500  -31.3790 C   0  0  0  0  0  0  0  0  0  0  0  0
   -2.3390   21.0260  -31.2470 C   0  0  0  0  0  0  0  0  0  0  0  0
   -2.2670   21.7920  -30.0790 C   0  0  0  0  0  0  0  0  0  0  0  0
   -3.0150   22.9740  -29.9480 C   0  0  0  0  0  0  0  0  0  0  0  0
   -2.9090   23.7620  -28.6960 C   0  0  0  0  0  0  0  0  0  0  0  0
   -3.9910   23.8400  -27.8030 C   0  0  0  0  0  0  0  0  0  0  0  0
   -3.8880   24.5930  -26.6300 C   0  0  0  0  0  0  0  0  0  0  0  0
   -2.7050   25.2780  -26.3390 C   0  0  0  0  0  0  0  0  0  0  0  0
   -1.6260   25.2130  -27.2240 C   0  0  0  0  0  0  0  0  0  0  0  0
   -1.7260   24.4620  -28.3990 C   0  0  0  0  0  0  0  0  0  0  0  0
   -9.3607   21.8471  -30.4361 H   0  0  0  0  0  0  0  0  0  0  0  0
  -10.2830   22.1765  -31.9419 H   0  0  0  0  0  0  0  0  0  0  0  0
   -8.9727   20.9478  -31.9419 H   0  0  0  0  0  0  0  0  0  0  0  0
   -8.2943   23.1265  -33.0068 H   0  0  0  0  0  0  0  0  0  0  0  0
   -8.5615   23.9350  -31.4182 H   0  0  0  0  0  0  0  0  0  0  0  0
   -5.9284   20.8756  -30.7670 H   0  0  0  0  0  0  0  0  0  0  0  0
   -7.7207   20.7254  -30.9266 H   0  0  0  0  0  0  0  0  0  0  0  0
   -6.3474   19.4484  -32.6658 H   0  0  0  0  0  0  0  0  0  0  0  0
   -7.5846   20.5740  -33.3210 H   0  0  0  0  0  0  0  0  0  0  0  0
   -5.8513   21.0456  -33.3210 H   0  0  0  0  0  0  0  0  0  0  0  0
   -7.4660   23.3425  -29.5748 H   0  0  0  0  0  0  0  0  0  0  0  0
   -5.8101   22.6344  -29.6880 H   0  0  0  0  0  0  0  0  0  0  0  0
   -6.5553   25.1392  -31.2456 H   0  0  0  0  0  0  0  0  0  0  0  0
   -6.0388   25.2205  -29.5129 H   0  0  0  0  0  0  0  0  0  0  0  0
   -4.6053   22.9220  -32.9902 H   0  0  0  0  0  0  0  0  0  0  0  0
   -3.9168   20.9783  -34.2967 H   0  0  0  0  0  0  0  0  0  0  0  0
   -2.5610   18.8950  -34.5133 H   0  0  0  0  0  0  0  0  0  0  0  0
   -1.0690   18.1702  -32.6498 H   0  0  0  0  0  0  0  0  0  0  0  0
   -0.9234   19.5263  -30.5596 H   0  0  0  0  0  0  0  0  0  0  0  0
   -1.6174   21.4653  -29.2536 H   0  0  0  0  0  0  0  0  0  0  0  0
   -4.9253   23.3049  -28.0285 H   0  0  0  0  0  0  0  0  0  0  0  0
   -4.7390   24.6466  -25.9351 H   0  0  0  0  0  0  0  0  0  0  0  0
   -2.6236   25.8677  -25.4140 H   0  0  0  0  0  0  0  0  0  0  0  0
   -0.6957   25.7539  -26.9959 H   0  0  0  0  0  0  0  0  0  0  0  0
   -0.8750   24.4184  -29.0947 H   0  0  0  0  0  0  0  0  0  0  0  0
  1  2  1  0
  2  3  1  0
  3  4  1  0
  4  5  1  0
  3  6  1  0
  6  7  1  0
  7  8  1  0
  8  9  1  0
  9 10  2  0
 10 11  1  0
 11 12  2  0
 12 13  1  0
 13 14  2  0
 14 15  1  0
 15 16  2  0
 16 17  1  0
 17 18  2  0
 18 19  1  0
 19 20  2  0
 20 21  1  0
 21 22  2  0
 22 23  1  0
 23 24  2  0
 18  9  1  0
 24 19  1  0
 16 11  1  0
  1 25  1  0
  1 26  1  0
  1 27  1  0
  2 28  1  0
  2 29  1  0
  4 30  1  0
  4 31  1  0
  5 32  1  0
  5 33  1  0
  5 34  1  0
  6 35  1  0
  6 36  1  0
  7 37  1  0
  7 38  1  0
 10 39  1  0
 12 40  1  0
 13 41  1  0
 14 42  1  0
 15 43  1  0
 17 44  1  0
 20 45  1  0
 21 46  1  0
 22 47  1  0
 23 48  1  0
 24 49  1  0
M  END
>  <UniqueID>  (42) 
39

>  <SMILES>  (42) 
CCN(CC)CCOc1cc2ccccc2cc1-c1ccccc1

>  <Energy>  (42) 
55.047928354300105

>  <Genealogy>  (42) 
CCN(CC)CCOc1cc2ccccc2cc1-c1ccccc1 (3D coordinates assigned)
CCN(CC)CCOc1cc2ccccc2cc1-c1ccccc1 (optimized conformer: 55.047928354300105 kcal/mol)

>  <smiles>  (42) 
CCN(CC)CCOc1cc2ccccc2cc1-c1ccccc1

>  <score_type>  (42) 
oracle

>  <origin>  (42) 
adg

>  <m_score__min__energy>  (42) 
-8.2400000000000002

>  <m_primary>  (42) 
energy

$$$$
42:0
     RDKit          3D

 44 46  0  0  0  0  0  0  0  0999 V2000
   -1.1450   20.6480  -31.9650 C   0  0  0  0  0  0  0  0  0  0  0  0
   -1.7030   21.9410  -31.7620 O   0  0  0  0  0  0  0  0  0  0  0  0
   -1.8440   22.5640  -30.5100 C   0  0  0  0  0  0  0  0  0  0  0  0
   -0.7400   22.7800  -29.6620 C   0  0  0  0  0  0  0  0  0  0  0  0
   -0.9060   23.4190  -28.4310 C   0  0  0  0  0  0  0  0  0  0  0  0
   -2.1730   23.8470  -28.0310 C   0  0  0  0  0  0  0  0  0  0  0  0
   -3.2760   23.6380  -28.8590 C   0  0  0  0  0  0  0  0  0  0  0  0
   -3.1240   22.9970  -30.1000 C   0  0  0  0  0  0  0  0  0  0  0  0
   -4.3120   22.7690  -30.9570 C   0  0  0  0  0  0  0  0  0  0  0  0
   -4.5940   21.4700  -31.4150 C   0  0  0  0  0  0  0  0  0  0  0  0
   -5.7150   21.2160  -32.2210 C   0  0  0  0  0  0  0  0  0  0  0  0
   -5.9970   19.8410  -32.7070 C   0  0  0  0  0  0  0  0  0  0  0  0
   -6.9900   19.0540  -32.0930 C   0  0  0  0  0  0  0  0  0  0  0  0
   -7.2530   17.7620  -32.5530 C   0  0  0  0  0  0  0  0  0  0  0  0
   -6.5350   17.2390  -33.6340 C   0  0  0  0  0  0  0  0  0  0  0  0
   -6.8730   15.5780  -34.2200 S   0  0  0  0  0  0  0  0  0  0  0  0
   -5.1970   14.9750  -33.8460 C   0  0  0  0  0  0  0  0  0  0  0  0
   -5.5450   18.0120  -34.2490 C   0  0  0  0  0  0  0  0  0  0  0  0
   -5.2780   19.3050  -33.7910 C   0  0  0  0  0  0  0  0  0  0  0  0
   -6.5640   22.2810  -32.5590 C   0  0  0  0  0  0  0  0  0  0  0  0
   -6.2950   23.5750  -32.1080 C   0  0  0  0  0  0  0  0  0  0  0  0
   -5.1660   23.8340  -31.3080 C   0  0  0  0  0  0  0  0  0  0  0  0
   -4.8590   25.1300  -30.8610 O   0  0  0  0  0  0  0  0  0  0  0  0
   -5.7400   25.9550  -30.1050 C   0  0  0  0  0  0  0  0  0  0  0  0
   -0.9426   20.1789  -30.9908 H   0  0  0  0  0  0  0  0  0  0  0  0
   -1.8551   20.0268  -32.5306 H   0  0  0  0  0  0  0  0  0  0  0  0
   -0.2059   20.7386  -32.5306 H   0  0  0  0  0  0  0  0  0  0  0  0
    0.2603   22.4429  -29.9716 H   0  0  0  0  0  0  0  0  0  0  0  0
   -0.0377   23.5850  -27.7764 H   0  0  0  0  0  0  0  0  0  0  0  0
   -2.3019   24.3499  -27.0612 H   0  0  0  0  0  0  0  0  0  0  0  0
   -4.2719   23.9775  -28.5381 H   0  0  0  0  0  0  0  0  0  0  0  0
   -3.9266   20.6407  -31.1378 H   0  0  0  0  0  0  0  0  0  0  0  0
   -7.5623   19.4595  -31.2456 H   0  0  0  0  0  0  0  0  0  0  0  0
   -8.0275   17.1532  -32.0637 H   0  0  0  0  0  0  0  0  0  0  0  0
   -5.0599   14.9257  -32.7557 H   0  0  0  0  0  0  0  0  0  0  0  0
   -5.0631   13.9723  -34.2781 H   0  0  0  0  0  0  0  0  0  0  0  0
   -4.4550   15.6626  -34.2781 H   0  0  0  0  0  0  0  0  0  0  0  0
   -4.9750   17.6012  -35.0954 H   0  0  0  0  0  0  0  0  0  0  0  0
   -4.4999   19.9082  -34.2817 H   0  0  0  0  0  0  0  0  0  0  0  0
   -7.4493   22.0949  -33.1848 H   0  0  0  0  0  0  0  0  0  0  0  0
   -6.9711   24.3989  -32.3802 H   0  0  0  0  0  0  0  0  0  0  0  0
   -5.5650   25.7911  -29.0315 H   0  0  0  0  0  0  0  0  0  0  0  0
   -5.5538   27.0111  -30.3498 H   0  0  0  0  0  0  0  0  0  0  0  0
   -6.7816   25.7000  -30.3498 H   0  0  0  0  0  0  0  0  0  0  0  0
  1  2  1  0
  2  3  1  0
  3  4  2  0
  4  5  1  0
  5  6  2  0
  6  7  1  0
  7  8  2  0
  8  9  1  0
  9 10  2  0
 10 11  1  0
 11 12  1  0
 12 13  2  0
 13 14  1  0
 14 15  2  0
 15 16  1  0
 16 17  1  0
 15 18  1  0
 18 19  2  0
 11 20  2  0
 20 21  1  0
 21 22  2  0
 22 23  1  0
 23 24  1  0
  8  3  1  0
 22  9  1  0
 19 12  1  0
  1 25  1  0
  1 26  1  0
  1 27  1  0
  4 28  1  0
  5 29  1  0
  6 30  1  0
  7 31  1  0
 10 32  1  0
 13 33  1  0
 14 34  1  0
 17 35  1  0
 17 36  1  0
 17 37  1  0
 18 38  1  0
 19 39  1  0
 20 40  1  0
 21 41  1  0
 24 42  1  0
 24 43  1  0
 24 44  1  0
M  END
>  <UniqueID>  (43) 
40

>  <SMILES>  (43) 
COc1ccccc1-c1cc(-c2ccc(SC)cc2)ccc1OC

>  <Energy>  (43) 
53.13737855331161

>  <Genealogy>  (43) 
COc1ccccc1-c1cc(-c2ccc(SC)cc2)ccc1OC (3D coordinates assigned)
COc1ccccc1-c1cc(-c2ccc(SC)cc2)ccc1OC (optimized conformer: 53.13737855331161 kcal/mol)

>  <smiles>  (43) 
COc1ccccc1-c1cc(-c2ccc(SC)cc2)ccc1OC

>  <score_type>  (43) 
oracle

>  <origin>  (43) 
adg

>  <m_score__min__energy>  (43) 
-7.9900000000000002

>  <m_primary>  (43) 
energy

$$$$
43:0
     RDKit          3D

 41 43  0  0  0  0  0  0  0  0999 V2000
   -5.4070   18.1660  -32.2880 C   0  0  0  0  0  0  0  0  0  0  0  0
   -6.7030   18.9290  -32.2320 C   0  0  0  0  0  0  0  0  0  0  0  0
   -7.9030   18.2180  -32.0680 C   0  0  0  0  0  0  0  0  0  0  0  0
   -9.1220   18.8950  -31.9920 C   0  0  0  0  0  0  0  0  0  0  0  0
   -9.1590   20.2850  -32.0990 C   0  0  0  0  0  0  0  0  0  0  0  0
   -7.9760   21.0040  -32.2780 C   0  0  0  0  0  0  0  0  0  0  0  0
   -6.7450   20.3370  -32.3600 C   0  0  0  0  0  0  0  0  0  0  0  0
   -5.5520   21.1030  -32.5710 N   0  0  0  0  0  0  0  0  0  0  0  0
   -4.6240   20.8410  -33.4740 N   0  0  0  0  0  0  0  0  0  0  0  0
   -3.5900   21.6490  -33.2960 N   0  0  0  0  0  0  0  0  0  0  0  0
   -3.8200   22.4400  -32.2550 N   0  0  0  0  0  0  0  0  0  0  0  0
   -5.0440   22.0890  -31.8110 C   0  0  0  0  0  0  0  0  0  0  0  0
   -5.8090   22.7520  -30.3310 S   0  0  0  0  0  0  0  0  0  0  0  0
   -6.1620   24.3810  -31.0750 C   0  0  0  0  0  0  0  0  0  0  0  0
   -5.0750   25.3280  -30.7010 C   0  0  0  0  0  0  0  0  0  0  0  0
   -5.3460   26.5330  -30.4440 O   0  0  0  0  0  0  0  0  0  0  0  0
   -3.7340   24.8450  -30.5880 N   0  0  0  0  0  0  0  0  0  0  0  0
   -3.0970   24.5790  -29.3070 C   0  0  0  0  0  0  0  0  0  0  0  0
   -2.6300   23.1520  -29.2670 C   0  0  0  0  0  0  0  0  0  0  0  0
   -3.1900   22.2550  -28.3420 C   0  0  0  0  0  0  0  0  0  0  0  0
   -2.7550   20.9260  -28.2980 C   0  0  0  0  0  0  0  0  0  0  0  0
   -1.7560   20.4870  -29.1710 C   0  0  0  0  0  0  0  0  0  0  0  0
   -1.1820   21.3790  -30.0820 C   0  0  0  0  0  0  0  0  0  0  0  0
   -1.6110   22.7090  -30.1250 C   0  0  0  0  0  0  0  0  0  0  0  0
   -5.0580   17.9605  -31.2653 H   0  0  0  0  0  0  0  0  0  0  0  0
   -5.5635   17.2159  -32.8198 H   0  0  0  0  0  0  0  0  0  0  0  0
   -4.6522   18.7639  -32.8198 H   0  0  0  0  0  0  0  0  0  0  0  0
   -7.8825   17.1204  -31.9989 H   0  0  0  0  0  0  0  0  0  0  0  0
  -10.0551   18.3307  -31.8474 H   0  0  0  0  0  0  0  0  0  0  0  0
  -10.1211   20.8152  -32.0423 H   0  0  0  0  0  0  0  0  0  0  0  0
   -8.0095   22.1008  -32.3552 H   0  0  0  0  0  0  0  0  0  0  0  0
   -4.6860   20.1000  -34.2070 H   0  0  0  0  0  0  0  0  0  0  0  0
   -6.2075   24.2848  -32.1698 H   0  0  0  0  0  0  0  0  0  0  0  0
   -7.1276   24.7577  -30.7065 H   0  0  0  0  0  0  0  0  0  0  0  0
   -2.2352   25.2506  -29.1795 H   0  0  0  0  0  0  0  0  0  0  0  0
   -3.8193   24.7514  -28.4954 H   0  0  0  0  0  0  0  0  0  0  0  0
   -3.9730   22.5987  -27.6501 H   0  0  0  0  0  0  0  0  0  0  0  0
   -3.1998   20.2259  -27.5755 H   0  0  0  0  0  0  0  0  0  0  0  0
   -1.4212   19.4396  -29.1415 H   0  0  0  0  0  0  0  0  0  0  0  0
   -0.3922   21.0340  -30.7655 H   0  0  0  0  0  0  0  0  0  0  0  0
   -1.1482   23.4112  -30.8340 H   0  0  0  0  0  0  0  0  0  0  0  0
  1  2  1  0
  2  3  2  0
  3  4  1  0
  4  5  2  0
  5  6  1  0
  6  7  2  0
  7  8  1  0
  8  9  1  0
  9 10  2  0
 10 11  1  0
 11 12  2  0
 12 13  1  0
 13 14  1  0
 14 15  1  0
 15 16  2  0
 15 17  1  0
 17 18  1  0
 18 19  1  0
 19 20  2  0
 20 21  1  0
 21 22  2  0
 22 23  1  0
 23 24  2  0
  7  2  1  0
 12  8  1  0
 24 19  1  0
  1 25  1  0
  1 26  1  0
  1 27  1  0
  3 28  1  0
  4 29  1  0
  5 30  1  0
  6 31  1  0
  9 32  1  0
 14 33  1  0
 14 34  1  0
 18 35  1  0
 18 36  1  0
 20 37  1  0
 21 38  1  0
 22 39  1  0
 23 40  1  0
 24 41  1  0
M  CHG  2   9   1  17  -1
M  END
>  <UniqueID>  (44) 
41

>  <SMILES>  (44) 
Cc1ccccc1-n1[nH+]nnc1SCC(=O)[N-]Cc1ccccc1

>  <Energy>  (44) 
79.32479778377007

>  <Genealogy>  (44) 
Cc1ccccc1-n1[nH+]nnc1SCC(=O)[N-]Cc1ccccc1 (protonated)
Cc1ccccc1-n1[nH+]nnc1SCC(=O)[N-]Cc1ccccc1 (3D coordinates assigned)
Cc1ccccc1-n1[nH+]nnc1SCC(=O)[N-]Cc1ccccc1 (optimized conformer: 79.32479778377007 kcal/mol)

>  <smiles>  (44) 
Cc1ccccc1-n1nnnc1SCC(=O)NCc1ccccc1

>  <score_type>  (44) 
oracle

>  <origin>  (44) 
adg

>  <m_score__min__energy>  (44) 
-10.76

>  <m_primary>  (44) 
energy

$$$$
