0:0
     RDKit          3D

 38 40  0  0  0  0  0  0  0  0999 V2000
   -0.8210   28.3970  -25.1180 C   0  0  0  0  0  0  0  0  0  0  0  0
   -0.6810   27.4310  -24.4130 C   0  0  0  0  0  0  0  0  0  0  0  0
   -0.5150   26.2480  -23.5510 C   0  0  0  0  0  0  0  0  0  0  0  0
    0.4450   25.2920  -24.1250 N   0  0  0  0  0  0  0  0  0  0  0  0
   -0.2050   24.3710  -25.0290 C   0  0  0  0  0  0  0  0  0  0  0  0
   -0.2620   23.0000  -24.7260 C   0  0  0  0  0  0  0  0  0  0  0  0
   -0.8660   22.1020  -25.6080 C   0  0  0  0  0  0  0  0  0  0  0  0
   -1.4170   22.5610  -26.8080 C   0  0  0  0  0  0  0  0  0  0  0  0
   -2.0040   21.6880  -27.6620 N   0  0  0  0  0  0  0  0  0  0  0  0
   -2.5430   22.1050  -28.8350 C   0  0  0  0  0  0  0  0  0  0  0  0
   -2.5020   23.4240  -29.1940 N   0  0  0  0  0  0  0  0  0  0  0  0
   -3.1270   23.8400  -30.4610 C   0  0  0  0  0  0  0  0  0  0  0  0
   -4.5120   23.2590  -30.5750 C   0  0  0  0  0  0  0  0  0  0  0  0
   -4.7620   22.1770  -31.4350 C   0  0  0  0  0  0  0  0  0  0  0  0
   -6.0560   21.6630  -31.5630 C   0  0  0  0  0  0  0  0  0  0  0  0
   -7.1110   22.2290  -30.8380 C   0  0  0  0  0  0  0  0  0  0  0  0
   -8.7340   21.5840  -31.0020 Cl  0  0  0  0  0  0  0  0  0  0  0  0
   -6.8690   23.3100  -29.9850 C   0  0  0  0  0  0  0  0  0  0  0  0
   -5.5770   23.8260  -29.8550 C   0  0  0  0  0  0  0  0  0  0  0  0
   -1.9250   24.3450  -28.3550 C   0  0  0  0  0  0  0  0  0  0  0  0
   -1.8950   25.5660  -28.6750 O   0  0  0  0  0  0  0  0  0  0  0  0
   -1.3620   23.9300  -27.1340 C   0  0  0  0  0  0  0  0  0  0  0  0
   -0.7530   24.8300  -26.2410 C   0  0  0  0  0  0  0  0  0  0  0  0
   -0.9489   29.2795  -25.7621 H   0  0  0  0  0  0  0  0  0  0  0  0
   -0.1501   26.5725  -22.5653 H   0  0  0  0  0  0  0  0  0  0  0  0
   -1.4900   25.7464  -23.4624 H   0  0  0  0  0  0  0  0  0  0  0  0
    0.9360   24.7720  -23.3590 H   0  0  0  0  0  0  0  0  0  0  0  0
    1.1770   25.8270  -24.6490 H   0  0  0  0  0  0  0  0  0  0  0  0
    0.1731   22.6310  -23.7855 H   0  0  0  0  0  0  0  0  0  0  0  0
   -0.9084   21.0316  -25.3583 H   0  0  0  0  0  0  0  0  0  0  0  0
   -3.0185   21.3737  -29.5052 H   0  0  0  0  0  0  0  0  0  0  0  0
   -3.1902   24.9378  -30.4914 H   0  0  0  0  0  0  0  0  0  0  0  0
   -2.5152   23.4749  -31.2991 H   0  0  0  0  0  0  0  0  0  0  0  0
   -3.9365   21.7322  -32.0101 H   0  0  0  0  0  0  0  0  0  0  0  0
   -6.2452   20.8125  -32.2345 H   0  0  0  0  0  0  0  0  0  0  0  0
   -7.6977   23.7553  -29.4149 H   0  0  0  0  0  0  0  0  0  0  0  0
   -5.3929   24.6797  -29.1862 H   0  0  0  0  0  0  0  0  0  0  0  0
   -0.7048   25.8999  -26.4918 H   0  0  0  0  0  0  0  0  0  0  0  0
  1  2  3  0
  2  3  1  0
  3  4  1  0
  4  5  1  0
  5  6  2  0
  6  7  1  0
  7  8  2  0
  8  9  1  0
  9 10  2  0
 10 11  1  0
 11 12  1  0
 12 13  1  0
 13 14  2  0
 14 15  1  0
 15 16  2  0
 16 17  1  0
 16 18  1  0
 18 19  2  0
 11 20  1  0
 20 21  2  0
 20 22  1  0
 22 23  2  0
 23  5  1  0
 22  8  1  0
 19 13  1  0
  1 24  1  0
  3 25  1  0
  3 26  1  0
  4 27  1  0
  4 28  1  0
  6 29  1  0
  7 30  1  0
 10 31  1  0
 12 32  1  0
 12 33  1  0
 14 34  1  0
 15 35  1  0
 18 36  1  0
 19 37  1  0
 23 38  1  0
M  CHG  1   4   1
M  END
>  <UniqueID>  (1) 
1

>  <SMILES>  (1) 
C#CC[NH2+]c1ccc2ncn(Cc3ccc(Cl)cc3)c(=O)c2c1

>  <Energy>  (1) 
45.00553901143056

>  <Genealogy>  (1) 
C#CC[NH2+]c1ccc2ncn(Cc3ccc(Cl)cc3)c(=O)c2c1 (protonated)
C#CC[NH2+]c1ccc2ncn(Cc3ccc(Cl)cc3)c(=O)c2c1 (3D coordinates assigned)
C#CC[NH2+]c1ccc2ncn(Cc3ccc(Cl)cc3)c(=O)c2c1 (optimized conformer: 45.00553901143056 kcal/mol)

>  <smiles>  (1) 
C#CCNc1ccc2ncn(Cc3ccc(Cl)cc3)c(=O)c2c1

>  <score_type>  (1) 
oracle

>  <origin>  (1) 
adg

>  <m_score__min__energy>  (1) 
-7.3399999999999999

>  <m_primary>  (1) 
energy

$$$$
1:0
     RDKit          3D

 53 55  0  0  0  0  0  0  0  0999 V2000
   -0.1170   21.5260  -34.5790 C   0  0  0  0  0  0  0  0  0  0  0  0
   -1.2080   20.8000  -33.8770 C   0  0  0  0  0  0  0  0  0  0  0  0
   -1.6080   19.5150  -34.1950 C   0  0  0  0  0  0  0  0  0  0  0  0
   -2.6140   19.2000  -33.3480 N   0  0  0  0  0  0  0  0  0  0  0  0
   -2.8560   20.2290  -32.5220 C   0  0  0  0  0  0  0  0  0  0  0  0
   -3.9010   20.2000  -31.4770 C   0  0  0  0  0  0  0  0  0  0  0  0
   -5.2190   19.9490  -31.9170 N   0  0  0  0  0  0  0  0  0  0  0  0
   -5.7420   18.6710  -31.5660 C   0  0  0  0  0  0  0  0  0  0  0  0
   -7.2200   18.5730  -31.8110 C   0  0  0  0  0  0  0  0  0  0  0  0
   -7.6920   19.3450  -32.8990 N   0  0  0  0  0  0  0  0  0  0  0  0
   -8.7990   20.2080  -32.6410 C   0  0  0  0  0  0  0  0  0  0  0  0
   -8.3700   21.2860  -31.6570 C   0  0  0  0  0  0  0  0  0  0  0  0
   -7.7140   22.3290  -32.3390 O   0  0  0  0  0  0  0  0  0  0  0  0
   -7.6590   23.4850  -31.5510 C   0  0  0  0  0  0  0  0  0  0  0  0
   -6.4380   23.4380  -30.6790 C   0  0  0  0  0  0  0  0  0  0  0  0
   -5.2240   23.2800  -31.5690 C   0  0  0  0  0  0  0  0  0  0  0  0
   -4.0120   23.7980  -30.8190 C   0  0  0  0  0  0  0  0  0  0  0  0
   -4.0580   25.1730  -30.6440 O   0  0  0  0  0  0  0  0  0  0  0  0
   -5.3490   25.6770  -30.4990 C   0  0  0  0  0  0  0  0  0  0  0  0
   -6.2620   24.6600  -29.8360 C   0  0  0  0  0  0  0  0  0  0  0  0
   -6.7350   19.8030  -33.8450 C   0  0  0  0  0  0  0  0  0  0  0  0
   -5.5310   20.4270  -33.2310 C   0  0  0  0  0  0  0  0  0  0  0  0
   -1.9880   21.2020  -32.8570 N   0  0  0  0  0  0  0  0  0  0  0  0
    0.5598   21.9764  -33.8379 H   0  0  0  0  0  0  0  0  0  0  0  0
    0.4458   20.8217  -35.2092 H   0  0  0  0  0  0  0  0  0  0  0  0
   -0.5493   22.3171  -35.2092 H   0  0  0  0  0  0  0  0  0  0  0  0
   -1.1890   18.8733  -34.9841 H   0  0  0  0  0  0  0  0  0  0  0  0
   -3.0900   18.2540  -33.3970 H   0  0  0  0  0  0  0  0  0  0  0  0
   -3.6327   19.4133  -30.7565 H   0  0  0  0  0  0  0  0  0  0  0  0
   -3.9213   21.2153  -31.0543 H   0  0  0  0  0  0  0  0  0  0  0  0
   -5.2323   17.9032  -32.1665 H   0  0  0  0  0  0  0  0  0  0  0  0
   -5.5686   18.5205  -30.4902 H   0  0  0  0  0  0  0  0  0  0  0  0
   -7.4656   17.5188  -32.0070 H   0  0  0  0  0  0  0  0  0  0  0  0
   -7.7110   18.9720  -30.9111 H   0  0  0  0  0  0  0  0  0  0  0  0
   -9.1279   20.6763  -33.5804 H   0  0  0  0  0  0  0  0  0  0  0  0
   -9.6308   19.6273  -32.2156 H   0  0  0  0  0  0  0  0  0  0  0  0
   -9.2579   21.6869  -31.1463 H   0  0  0  0  0  0  0  0  0  0  0  0
   -7.6810   20.8478  -30.9200 H   0  0  0  0  0  0  0  0  0  0  0  0
   -7.6110   24.3705  -32.2018 H   0  0  0  0  0  0  0  0  0  0  0  0
   -8.5583   23.5421  -30.9202 H   0  0  0  0  0  0  0  0  0  0  0  0
   -6.5593   22.5896  -29.9894 H   0  0  0  0  0  0  0  0  0  0  0  0
   -5.0812   22.2181  -31.8180 H   0  0  0  0  0  0  0  0  0  0  0  0
   -5.3623   23.8460  -32.5020 H   0  0  0  0  0  0  0  0  0  0  0  0
   -3.9726   23.3154  -29.8313 H   0  0  0  0  0  0  0  0  0  0  0  0
   -3.1175   23.5609  -31.4137 H   0  0  0  0  0  0  0  0  0  0  0  0
   -5.3126   26.5850  -29.8792 H   0  0  0  0  0  0  0  0  0  0  0  0
   -5.7487   25.9064  -31.4978 H   0  0  0  0  0  0  0  0  0  0  0  0
   -5.8254   24.3662  -28.8701 H   0  0  0  0  0  0  0  0  0  0  0  0
   -7.2492   25.1255  -29.6989 H   0  0  0  0  0  0  0  0  0  0  0  0
   -6.4093   18.9450  -34.4514 H   0  0  0  0  0  0  0  0  0  0  0  0
   -7.2273   20.5820  -34.4457 H   0  0  0  0  0  0  0  0  0  0  0  0
   -4.6688   20.2254  -33.8837 H   0  0  0  0  0  0  0  0  0  0  0  0
   -5.7519   21.4998  -33.1294 H   0  0  0  0  0  0  0  0  0  0  0  0
  1  2  1  0
  2  3  2  0
  3  4  1  0
  4  5  1  0
  5  6  1  0
  6  7  1  0
  7  8  1  0
  8  9  1  0
  9 10  1  0
 10 11  1  0
 11 12  1  0
 12 13  1  0
 13 14  1  0
 14 15  1  0
 15 16  1  0
 16 17  1  0
 17 18  1  0
 18 19  1  0
 19 20  1  0
 10 21  1  0
 21 22  1  0
  5 23  2  0
 23  2  1  0
 22  7  1  0
 20 15  1  0
  1 24  1  0
  1 25  1  0
  1 26  1  0
  3 27  1  0
  4 28  1  0
  6 29  1  0
  6 30  1  0
  8 31  1  0
  8 32  1  0
  9 33  1  0
  9 34  1  0
 11 35  1  0
 11 36  1  0
 12 37  1  0
 12 38  1  0
 14 39  1  0
 14 40  1  0
 15 41  1  0
 16 42  1  0
 16 43  1  0
 17 44  1  0
 17 45  1  0
 19 46  1  0
 19 47  1  0
 20 48  1  0
 20 49  1  0
 21 50  1  0
 21 51  1  0
 22 52  1  0
 22 53  1  0
M  END
>  <smiles>  (2) 
Cc1c[nH]c(CN2CCN(CCOCC3CCOCC3)CC2)n1

>  <score_type>  (2) 
oracle

>  <origin>  (2) 
adg

>  <m_score__min__energy>  (2) 
-8.3100000000000005

>  <m_primary>  (2) 
energy

$$$$
2:0
     RDKit          3D

 48 50  0  0  0  0  0  0  0  0999 V2000
   -4.5700   14.7660  -32.6040 C   0  0  0  0  0  0  0  0  0  0  0  0
   -4.8990   15.7950  -33.5310 O   0  0  0  0  0  0  0  0  0  0  0  0
   -5.5860   16.9710  -33.1990 C   0  0  0  0  0  0  0  0  0  0  0  0
   -6.0540   17.2310  -31.8960 C   0  0  0  0  0  0  0  0  0  0  0  0
   -6.7300   18.4210  -31.6140 C   0  0  0  0  0  0  0  0  0  0  0  0
   -6.9570   19.3650  -32.6270 C   0  0  0  0  0  0  0  0  0  0  0  0
   -7.6560   20.6620  -32.3070 C   0  0  0  0  0  0  0  0  0  0  0  0
   -6.8170   21.8200  -32.6810 N   0  0  0  0  0  0  0  0  0  0  0  0
   -5.3730   21.4700  -32.6800 C   0  0  0  0  0  0  0  0  0  0  0  0
   -4.6560   21.8720  -31.3820 C   0  0  0  0  0  0  0  0  0  0  0  0
   -4.8510   23.3010  -31.1040 N   0  0  0  0  0  0  0  0  0  0  0  0
   -3.9080   24.0460  -30.3060 C   0  0  0  0  0  0  0  0  0  0  0  0
   -3.8080   25.2940  -30.4620 O   0  0  0  0  0  0  0  0  0  0  0  0
   -3.0260   23.3750  -29.2850 C   0  0  0  0  0  0  0  0  0  0  0  0
   -2.5370   24.3780  -28.2740 C   0  0  0  0  0  0  0  0  0  0  0  0
   -3.2010   24.5340  -27.0450 C   0  0  0  0  0  0  0  0  0  0  0  0
   -2.7280   25.4520  -26.1000 C   0  0  0  0  0  0  0  0  0  0  0  0
   -1.5870   26.2140  -26.3720 C   0  0  0  0  0  0  0  0  0  0  0  0
   -0.9140   26.0550  -27.5890 C   0  0  0  0  0  0  0  0  0  0  0  0
   -1.3830   25.1380  -28.5360 C   0  0  0  0  0  0  0  0  0  0  0  0
   -5.9820   23.9930  -31.7310 C   0  0  0  0  0  0  0  0  0  0  0  0
   -7.1580   23.0240  -31.8770 C   0  0  0  0  0  0  0  0  0  0  0  0
   -6.4870   19.1070  -33.9240 C   0  0  0  0  0  0  0  0  0  0  0  0
   -5.8090   17.9170  -34.2050 C   0  0  0  0  0  0  0  0  0  0  0  0
   -4.6909   15.1442  -31.5782 H   0  0  0  0  0  0  0  0  0  0  0  0
   -5.2379   13.9058  -32.7588 H   0  0  0  0  0  0  0  0  0  0  0  0
   -3.5269   14.4528  -32.7588 H   0  0  0  0  0  0  0  0  0  0  0  0
   -5.8865   16.4939  -31.0969 H   0  0  0  0  0  0  0  0  0  0  0  0
   -7.0862   18.6188  -30.5922 H   0  0  0  0  0  0  0  0  0  0  0  0
   -8.6027   20.7081  -32.8652 H   0  0  0  0  0  0  0  0  0  0  0  0
   -7.8459   20.7009  -31.2242 H   0  0  0  0  0  0  0  0  0  0  0  0
   -5.2764   20.3821  -32.8107 H   0  0  0  0  0  0  0  0  0  0  0  0
   -4.9000   22.0273  -33.5020 H   0  0  0  0  0  0  0  0  0  0  0  0
   -5.0628   21.2826  -30.5470 H   0  0  0  0  0  0  0  0  0  0  0  0
   -3.5795   21.6771  -31.4969 H   0  0  0  0  0  0  0  0  0  0  0  0
   -3.6000   22.5910  -28.7694 H   0  0  0  0  0  0  0  0  0  0  0  0
   -2.1589   22.9332  -29.7977 H   0  0  0  0  0  0  0  0  0  0  0  0
   -4.0954   23.9326  -26.8250 H   0  0  0  0  0  0  0  0  0  0  0  0
   -3.2545   25.5743  -25.1419 H   0  0  0  0  0  0  0  0  0  0  0  0
   -1.2188   26.9378  -25.6300 H   0  0  0  0  0  0  0  0  0  0  0  0
   -0.0148   26.6520  -27.8012 H   0  0  0  0  0  0  0  0  0  0  0  0
   -0.8475   25.0111  -29.4884 H   0  0  0  0  0  0  0  0  0  0  0  0
   -6.2844   24.8441  -31.1032 H   0  0  0  0  0  0  0  0  0  0  0  0
   -5.6826   24.3574  -32.7248 H   0  0  0  0  0  0  0  0  0  0  0  0
   -7.4723   22.6993  -30.8741 H   0  0  0  0  0  0  0  0  0  0  0  0
   -7.9627   23.5572  -32.4045 H   0  0  0  0  0  0  0  0  0  0  0  0
   -6.6528   19.8444  -34.7232 H   0  0  0  0  0  0  0  0  0  0  0  0
   -5.4479   17.7230  -35.2258 H   0  0  0  0  0  0  0  0  0  0  0  0
  1  2  1  0
  2  3  1  0
  3  4  2  0
  4  5  1  0
  5  6  2  0
  6  7  1  0
  7  8  1  0
  8  9  1  0
  9 10  1  0
 10 11  1  0
 11 12  1  0
 12 13  2  0
 12 14  1  0
 14 15  1  0
 15 16  2  0
 16 17  1  0
 17 18  2  0
 18 19  1  0
 19 20  2  0
 11 21  1  0
 21 22  1  0
  6 23  1  0
 23 24  2  0
 24  3  1  0
 22  8  1  0
 20 15  1  0
  1 25  1  0
  1 26  1  0
  1 27  1  0
  4 28  1  0
  5 29  1  0
  7 30  1  0
  7 31  1  0
  9 32  1  0
  9 33  1  0
 10 34  1  0
 10 35  1  0
 14 36  1  0
 14 37  1  0
 16 38  1  0
 17 39  1  0
 18 40  1  0
 19 41  1  0
 20 42  1  0
 21 43  1  0
 21 44  1  0
 22 45  1  0
 22 46  1  0
 23 47  1  0
 24 48  1  0
M  END
>  <UniqueID>  (3) 
2

>  <SMILES>  (3) 
COc1ccc(CN2CCN(C(=O)Cc3ccccc3)CC2)cc1

>  <Energy>  (3) 
55.99113032839774

>  <Genealogy>  (3) 
COc1ccc(CN2CCN(C(=O)Cc3ccccc3)CC2)cc1 (3D coordinates assigned)
COc1ccc(CN2CCN(C(=O)Cc3ccccc3)CC2)cc1 (nonaromatic ring conformer: 55.99113032839774 kcal/mol)

>  <smiles>  (3) 
COc1ccc(CN2CCN(C(=O)Cc3ccccc3)CC2)cc1

>  <score_type>  (3) 
oracle

>  <origin>  (3) 
adg

>  <m_score__min__energy>  (3) 
-8.5800000000000001

>  <m_primary>  (3) 
energy

$$$$
3:0
     RDKit          3D

 43 45  0  0  0  0  0  0  0  0999 V2000
   -2.2280   24.9140  -28.6510 C   0  0  0  0  0  0  0  0  0  0  0  0
   -3.1080   25.2660  -29.7120 O   0  0  0  0  0  0  0  0  0  0  0  0
   -4.1800   24.4740  -30.1500 C   0  0  0  0  0  0  0  0  0  0  0  0
   -5.4990   24.6940  -29.7310 C   0  0  0  0  0  0  0  0  0  0  0  0
   -6.5370   23.8810  -30.1910 C   0  0  0  0  0  0  0  0  0  0  0  0
   -6.2880   22.8150  -31.0900 C   0  0  0  0  0  0  0  0  0  0  0  0
   -4.9480   22.6010  -31.5060 C   0  0  0  0  0  0  0  0  0  0  0  0
   -3.9150   23.4280  -31.0340 C   0  0  0  0  0  0  0  0  0  0  0  0
   -4.6380   21.5650  -32.3880 C   0  0  0  0  0  0  0  0  0  0  0  0
   -5.6270   20.7170  -32.8780 C   0  0  0  0  0  0  0  0  0  0  0  0
   -5.1130   19.4090  -34.0090 S   0  0  0  0  0  0  0  0  0  0  0  0
   -4.2940   18.4340  -32.7010 C   0  0  0  0  0  0  0  0  0  0  0  0
   -4.5760   16.9410  -32.8850 C   0  0  0  0  0  0  0  0  0  0  0  0
   -5.9540   16.5980  -32.4660 N   0  0  0  0  0  0  0  0  0  0  0  0
   -6.4320   17.5110  -31.4130 C   0  0  0  0  0  0  0  0  0  0  0  0
   -6.8650   16.6660  -33.6200 C   0  0  0  0  0  0  0  0  0  0  0  0
   -6.9730   20.9020  -32.4910 C   0  0  0  0  0  0  0  0  0  0  0  0
   -7.9860   20.0540  -32.9870 C   0  0  0  0  0  0  0  0  0  0  0  0
   -9.3140   20.2300  -32.6050 C   0  0  0  0  0  0  0  0  0  0  0  0
   -9.6570   21.2500  -31.7280 C   0  0  0  0  0  0  0  0  0  0  0  0
   -8.6780   22.1050  -31.2230 C   0  0  0  0  0  0  0  0  0  0  0  0
   -7.3160   21.9550  -31.5880 C   0  0  0  0  0  0  0  0  0  0  0  0
   -2.7193   25.1105  -27.6866 H   0  0  0  0  0  0  0  0  0  0  0  0
   -1.9757   23.8457  -28.7230 H   0  0  0  0  0  0  0  0  0  0  0  0
   -1.3086   25.5136  -28.7230 H   0  0  0  0  0  0  0  0  0  0  0  0
   -5.7189   25.5152  -29.0329 H   0  0  0  0  0  0  0  0  0  0  0  0
   -7.5652   24.0716  -29.8495 H   0  0  0  0  0  0  0  0  0  0  0  0
   -2.8820   23.2480  -31.3664 H   0  0  0  0  0  0  0  0  0  0  0  0
   -3.5942   21.4160  -32.7014 H   0  0  0  0  0  0  0  0  0  0  0  0
   -3.2085   18.6053  -32.7486 H   0  0  0  0  0  0  0  0  0  0  0  0
   -4.6870   18.7512  -31.7238 H   0  0  0  0  0  0  0  0  0  0  0  0
   -4.4488   16.6805  -33.9461 H   0  0  0  0  0  0  0  0  0  0  0  0
   -3.8715   16.3748  -32.2580 H   0  0  0  0  0  0  0  0  0  0  0  0
   -6.2072   17.0816  -30.4256 H   0  0  0  0  0  0  0  0  0  0  0  0
   -5.9272   18.4831  -31.5136 H   0  0  0  0  0  0  0  0  0  0  0  0
   -7.5185   17.6499  -31.5136 H   0  0  0  0  0  0  0  0  0  0  0  0
   -7.9028   16.7435  -33.2638 H   0  0  0  0  0  0  0  0  0  0  0  0
   -6.6197   17.5483  -34.2293 H   0  0  0  0  0  0  0  0  0  0  0  0
   -6.7534   15.7570  -34.2293 H   0  0  0  0  0  0  0  0  0  0  0  0
   -7.7238   19.2442  -33.6837 H   0  0  0  0  0  0  0  0  0  0  0  0
  -10.0921   19.5597  -32.9989 H   0  0  0  0  0  0  0  0  0  0  0  0
  -10.7072   21.3846  -31.4297 H   0  0  0  0  0  0  0  0  0  0  0  0
   -8.9670   22.9090  -30.5301 H   0  0  0  0  0  0  0  0  0  0  0  0
  1  2  1  0
  2  3  1  0
  3  4  2  0
  4  5  1  0
  5  6  2  0
  6  7  1  0
  7  8  2  0
  7  9  1  0
  9 10  2  0
 10 11  1  0
 11 12  1  0
 12 13  1  0
 13 14  1  0
 14 15  1  0
 14 16  1  0
 10 17  1  0
 17 18  2  0
 18 19  1  0
 19 20  2  0
 20 21  1  0
 21 22  2  0
  8  3  1  0
 22 17  1  0
 22  6  1  0
  1 23  1  0
  1 24  1  0
  1 25  1  0
  4 26  1  0
  5 27  1  0
  8 28  1  0
  9 29  1  0
 12 30  1  0
 12 31  1  0
 13 32  1  0
 13 33  1  0
 15 34  1  0
 15 35  1  0
 15 36  1  0
 16 37  1  0
 16 38  1  0
 16 39  1  0
 18 40  1  0
 19 41  1  0
 20 42  1  0
 21 43  1  0
M  END
>  <UniqueID>  (4) 
3

>  <SMILES>  (4) 
COc1ccc2c(c1)cc(SCCN(C)C)c1ccccc12

>  <Energy>  (4) 
52.36307191640685

>  <Genealogy>  (4) 
COc1ccc2c(c1)cc(SCCN(C)C)c1ccccc12 (3D coordinates assigned)
COc1ccc2c(c1)cc(SCCN(C)C)c1ccccc12 (optimized conformer: 52.36307191640685 kcal/mol)

>  <smiles>  (4) 
COc1ccc2c(c1)cc(SCCN(C)C)c1ccccc12

>  <score_type>  (4) 
oracle

>  <origin>  (4) 
adg

>  <m_score__min__energy>  (4) 
-8.9199999999999999

>  <m_primary>  (4) 
energy

$$$$
4:0
     RDKit          3D

 27 28  0  0  0  0  0  0  0  0999 V2000
   -2.4125   20.8948  -33.2389 H   0  0  0  0  0  0  0  0  0  0  0  0
   -3.4600   21.1110  -32.9820 C   0  0  0  0  0  0  0  0  0  0  0  0
   -4.4620   20.2010  -33.3190 C   0  0  0  0  0  0  0  0  0  0  0  0
   -4.2018   19.2655  -33.8359 H   0  0  0  0  0  0  0  0  0  0  0  0
   -5.7950   20.4740  -33.0020 C   0  0  0  0  0  0  0  0  0  0  0  0
   -6.5797   19.7518  -33.2715 H   0  0  0  0  0  0  0  0  0  0  0  0
   -6.1410   21.6690  -32.3390 C   0  0  0  0  0  0  0  0  0  0  0  0
   -5.1210   22.5810  -31.9850 C   0  0  0  0  0  0  0  0  0  0  0  0
   -3.7850   22.2960  -32.3190 C   0  0  0  0  0  0  0  0  0  0  0  0
   -2.9913   23.0109  -32.0564 H   0  0  0  0  0  0  0  0  0  0  0  0
   -5.4650   23.8150  -31.2470 C   0  0  0  0  0  0  0  0  0  0  0  0
   -4.5990   24.7100  -31.0490 O   0  0  0  0  0  0  0  0  0  0  0  0
   -6.8350   23.9730  -30.6590 C   0  0  0  0  0  0  0  0  0  0  0  0
   -7.0350   25.0424  -30.4965 H   0  0  0  0  0  0  0  0  0  0  0  0
   -6.8718   23.4235  -29.7068 H   0  0  0  0  0  0  0  0  0  0  0  0
   -7.9060   23.4000  -31.5930 C   0  0  0  0  0  0  0  0  0  0  0  0
   -7.9854   24.0424  -32.4824 H   0  0  0  0  0  0  0  0  0  0  0  0
   -8.8599   23.3687  -31.0461 H   0  0  0  0  0  0  0  0  0  0  0  0
   -7.5630   21.9890  -32.0330 C   0  0  0  0  0  0  0  0  0  0  0  0
   -8.4820   21.0940  -32.2800 N   0  0  0  0  0  0  0  0  0  0  0  0
   -8.7740   19.8880  -31.5070 C   0  0  0  0  0  0  0  0  0  0  0  0
   -9.8314   19.8999  -31.2041 H   0  0  0  0  0  0  0  0  0  0  0  0
   -8.1242   19.8695  -30.6196 H   0  0  0  0  0  0  0  0  0  0  0  0
   -8.5050   18.6380  -32.3400 C   0  0  0  0  0  0  0  0  0  0  0  0
   -8.3213   17.7842  -31.6712 H   0  0  0  0  0  0  0  0  0  0  0  0
   -9.3780   18.4254  -32.9746 H   0  0  0  0  0  0  0  0  0  0  0  0
   -7.6219   18.8033  -32.9746 H   0  0  0  0  0  0  0  0  0  0  0  0
  1  2  1  0
  2  3  2  0
  3  4  1  0
  3  5  1  0
  5  6  1  0
  5  7  2  0
  7  8  1  0
  8  9  2  0
  9 10  1  0
  8 11  1  0
 11 12  2  0
 11 13  1  0
 13 14  1  0
 13 15  1  0
 13 16  1  0
 16 17  1  0
 16 18  1  0
 16 19  1  0
 19 20  2  0
 20 21  1  0
 21 22  1  0
 21 23  1  0
 21 24  1  0
 24 25  1  0
 24 26  1  0
 24 27  1  0
  9  2  1  0
 19  7  1  0
M  END
>  <UniqueID>  (5) 
4

>  <SMILES>  (5) 
CC/N=C1\CCC(=O)c2ccccc21

>  <Energy>  (5) 
27.905374269572484

>  <Genealogy>  (5) 
CC/N=C1\CCC(=O)c2ccccc21 (cis-trans isomerization)
CC/N=C1\CCC(=O)c2ccccc21 (3D coordinates assigned)
CC/N=C1\CCC(=O)c2ccccc21 (nonaromatic ring conformer: 27.905374269572484 kcal/mol)

>  <smiles>  (5) 
CCN=C1CCC(=O)c2ccccc21

>  <score_type>  (5) 
oracle

>  <origin>  (5) 
adg

>  <m_score__min__energy>  (5) 
-6.71

>  <m_primary>  (5) 
energy

$$$$
5:0
     RDKit          3D

 67 71  0  0  0  0  0  0  0  0999 V2000
   -6.5190   24.7950  -30.0550 C   0  0  0  0  0  0  0  0  0  0  0  0
   -6.0570   23.3840  -29.7060 C   0  0  0  0  0  0  0  0  0  0  0  0
   -4.5680   23.3570  -29.4630 C   0  0  0  0  0  0  0  0  0  0  0  0
   -3.9790   24.3390  -28.6530 C   0  0  0  0  0  0  0  0  0  0  0  0
   -2.5990   24.3300  -28.3880 C   0  0  0  0  0  0  0  0  0  0  0  0
   -1.8010   23.2880  -28.9210 C   0  0  0  0  0  0  0  0  0  0  0  0
   -2.3980   22.3000  -29.7160 C   0  0  0  0  0  0  0  0  0  0  0  0
   -3.7640   22.3420  -30.0090 C   0  0  0  0  0  0  0  0  0  0  0  0
   -4.3100   21.3840  -30.8620 O   0  0  0  0  0  0  0  0  0  0  0  0
   -5.0750   21.8430  -32.3210 S   0  0  0  0  0  0  0  0  0  0  0  0
   -4.3150   21.2780  -33.4880 O   0  0  0  0  0  0  0  0  0  0  0  0
   -5.0610   23.3420  -32.4260 O   0  0  0  0  0  0  0  0  0  0  0  0
   -6.7410   21.2510  -32.3620 C   0  0  0  0  0  0  0  0  0  0  0  0
   -7.7880   22.1030  -31.9770 C   0  0  0  0  0  0  0  0  0  0  0  0
   -9.1050   21.6400  -31.9630 C   0  0  0  0  0  0  0  0  0  0  0  0
   -9.3870   20.3240  -32.3290 C   0  0  0  0  0  0  0  0  0  0  0  0
   -8.3550   19.4640  -32.7080 C   0  0  0  0  0  0  0  0  0  0  0  0
   -7.0210   19.9170  -32.7270 C   0  0  0  0  0  0  0  0  0  0  0  0
   -5.9580   19.0690  -33.0820 O   0  0  0  0  0  0  0  0  0  0  0  0
   -5.7380   18.5500  -34.3890 C   0  0  0  0  0  0  0  0  0  0  0  0
   -0.2970   23.2860  -28.7870 C   0  0  0  0  0  0  0  0  0  0  0  0
    0.1790   24.1030  -27.5890 C   0  0  0  0  0  0  0  0  0  0  0  0
   -0.4610   25.5020  -27.6270 C   0  0  1  0  0  0  0  0  0  0  0  0
   -2.0120   25.4270  -27.5130 C   0  0  2  0  0  0  0  0  0  0  0  0
   -2.5110   25.2870  -26.0460 C   0  0  0  0  0  0  0  0  0  0  0  0
   -1.9020   26.3400  -25.0830 C   0  0  0  0  0  0  0  0  0  0  0  0
   -0.3570   26.3350  -25.1380 C   0  0  2  0  0  0  0  0  0  0  0  0
    0.2070   25.0490  -24.4520 C   0  0  0  0  0  0  0  0  0  0  0  0
    0.3170   27.5830  -24.5190 C   0  0  1  0  0  0  0  0  0  0  0  0
    0.4730   27.4890  -23.1260 O   0  0  0  0  0  0  0  0  0  0  0  0
    1.6820   27.6830  -25.2420 C   0  0  0  0  0  0  0  0  0  0  0  0
    1.5420   26.8990  -26.5620 C   0  0  0  0  0  0  0  0  0  0  0  0
    0.0660   26.5310  -26.6030 C   0  0  1  0  0  0  0  0  0  0  0  0
   -6.7039   25.3597  -29.1293 H   0  0  0  0  0  0  0  0  0  0  0  0
   -5.7396   25.3009  -30.6437 H   0  0  0  0  0  0  0  0  0  0  0  0
   -7.4467   24.7420  -30.6437 H   0  0  0  0  0  0  0  0  0  0  0  0
   -6.5776   23.0476  -28.7973 H   0  0  0  0  0  0  0  0  0  0  0  0
   -6.2908   22.7161  -30.5481 H   0  0  0  0  0  0  0  0  0  0  0  0
   -4.6080   25.1296  -28.2178 H   0  0  0  0  0  0  0  0  0  0  0  0
   -1.7828   21.4800  -30.1149 H   0  0  0  0  0  0  0  0  0  0  0  0
   -7.5697   23.1408  -31.6848 H   0  0  0  0  0  0  0  0  0  0  0  0
   -9.9211   22.3138  -31.6630 H   0  0  0  0  0  0  0  0  0  0  0  0
  -10.4259   19.9627  -32.3189 H   0  0  0  0  0  0  0  0  0  0  0  0
   -8.5845   18.4268  -32.9935 H   0  0  0  0  0  0  0  0  0  0  0  0
   -5.3097   17.5395  -34.3150 H   0  0  0  0  0  0  0  0  0  0  0  0
   -6.6941   18.5042  -34.9310 H   0  0  0  0  0  0  0  0  0  0  0  0
   -5.0402   19.2052  -34.9310 H   0  0  0  0  0  0  0  0  0  0  0  0
    0.0459   22.2479  -28.6659 H   0  0  0  0  0  0  0  0  0  0  0  0
    0.1223   23.7444  -29.6948 H   0  0  0  0  0  0  0  0  0  0  0  0
   -0.1129   23.5926  -26.6593 H   0  0  0  0  0  0  0  0  0  0  0  0
    1.2738   24.2024  -27.6281 H   0  0  0  0  0  0  0  0  0  0  0  0
   -0.1513   25.8790  -28.6129 H   0  0  0  0  0  0  0  0  0  0  0  0
   -2.3791   26.3944  -27.8863 H   0  0  0  0  0  0  0  0  0  0  0  0
   -3.6052   25.3993  -26.0380 H   0  0  0  0  0  0  0  0  0  0  0  0
   -2.1911   24.2973  -25.6880 H   0  0  0  0  0  0  0  0  0  0  0  0
   -2.2662   27.3379  -25.3687 H   0  0  0  0  0  0  0  0  0  0  0  0
   -2.2107   26.0879  -24.0577 H   0  0  0  0  0  0  0  0  0  0  0  0
    0.1565   25.1642  -23.3592 H   0  0  0  0  0  0  0  0  0  0  0  0
   -0.3918   24.1781  -24.7570 H   0  0  0  0  0  0  0  0  0  0  0  0
    1.2533   24.8996  -24.7570 H   0  0  0  0  0  0  0  0  0  0  0  0
   -0.3023   28.4815  -24.6573 H   0  0  0  0  0  0  0  0  0  0  0  0
    0.2410   28.3800  -22.7560 H   0  0  0  0  0  0  0  0  0  0  0  0
    1.9247   28.7355  -25.4500 H   0  0  0  0  0  0  0  0  0  0  0  0
    2.4904   27.2705  -24.6204 H   0  0  0  0  0  0  0  0  0  0  0  0
    1.8145   27.5271  -27.4229 H   0  0  0  0  0  0  0  0  0  0  0  0
    2.2034   26.0214  -26.6108 H   0  0  0  0  0  0  0  0  0  0  0  0
   -0.4682   27.3649  -27.0817 H   0  0  0  0  0  0  0  0  0  0  0  0
  1  2  1  0
  2  3  1  0
  3  4  2  0
  4  5  1  0
  5  6  2  0
  6  7  1  0
  7  8  2  0
  8  9  1  0
  9 10  1  0
 10 11  2  0
 10 12  2  0
 10 13  1  0
 13 14  2  0
 14 15  1  0
 15 16  2  0
 16 17  1  0
 17 18  2  0
 18 19  1  0
 19 20  1  0
  6 21  1  0
 21 22  1  0
 22 23  1  0
 23 24  1  0
 24 25  1  0
 25 26  1  0
 26 27  1  0
 27 28  1  1
 27 29  1  0
 29 30  1  0
 29 31  1  0
 31 32  1  0
 32 33  1  0
  8  3  1  0
 18 13  1  0
 33 23  1  0
 24  5  1  0
 33 27  1  0
  1 34  1  0
  1 35  1  0
  1 36  1  0
  2 37  1  0
  2 38  1  0
  4 39  1  0
  7 40  1  0
 14 41  1  0
 15 42  1  0
 16 43  1  0
 17 44  1  0
 20 45  1  0
 20 46  1  0
 20 47  1  0
 21 48  1  0
 21 49  1  0
 22 50  1  0
 22 51  1  0
 23 52  1  6
 24 53  1  6
 25 54  1  0
 25 55  1  0
 26 56  1  0
 26 57  1  0
 28 58  1  0
 28 59  1  0
 28 60  1  0
 29 61  1  1
 30 62  1  0
 31 63  1  0
 31 64  1  0
 32 65  1  0
 32 66  1  0
 33 67  1  6
M  END
>  <UniqueID>  (6) 
5

>  <SMILES>  (6) 
CCc1cc2c(cc1OS(=O)(=O)c1ccccc1OC)CC[C@@H]1C3CCC(O)C3(C)CC[C@H]21

>  <Energy>  (6) 
90.83113947170884

>  <Genealogy>  (6) 
CCc1cc2c(cc1OS(=O)(=O)c1ccccc1OC)CC[C@@H]1C3CCC(O)C3(C)CC[C@H]21 (chirality)
CCc1cc2c(cc1OS(=O)(=O)c1ccccc1OC)CC[C@@H]1C3CCC(O)C3(C)CC[C@H]21 (3D coordinates assigned)
CCc1cc2c(cc1OS(=O)(=O)c1ccccc1OC)CC[C@@H]1C3CCC(O)C3(C)CC[C@H]21 (nonaromatic ring conformer: 90.83113947170884 kcal/mol)

>  <smiles>  (6) 
CCc1cc2c(cc1OS(=O)(=O)c1ccccc1OC)CCC1C2CCC2(C)C(O)CCC12

>  <score_type>  (6) 
oracle

>  <origin>  (6) 
adg

>  <m_score__min__energy>  (6) 
-10.710000000000001

>  <m_primary>  (6) 
energy

$$$$
6:0
     RDKit          3D

 52 55  0  0  0  0  0  0  0  0999 V2000
   -8.7460   19.4600  -31.5850 C   0  0  0  0  0  0  0  0  0  0  0  0
   -8.3980   20.6830  -32.4250 C   0  0  0  0  0  0  0  0  0  0  0  0
   -6.9450   20.7920  -32.5830 N   0  0  0  0  0  0  0  0  0  0  0  0
   -6.1040   19.9110  -33.2020 C   0  0  0  0  0  0  0  0  0  0  0  0
   -6.4240   18.6820  -33.7870 C   0  0  0  0  0  0  0  0  0  0  0  0
   -5.3740   17.9010  -34.3020 C   0  0  0  0  0  0  0  0  0  0  0  0
   -4.0350   18.3440  -34.2180 C   0  0  0  0  0  0  0  0  0  0  0  0
   -3.7240   19.5810  -33.6280 C   0  0  0  0  0  0  0  0  0  0  0  0
   -4.7820   20.3430  -33.1530 C   0  0  0  0  0  0  0  0  0  0  0  0
   -4.8310   21.5440  -32.5050 C   0  0  0  0  0  0  0  0  0  0  0  0
   -4.0360   22.4770  -31.8990 C   0  0  0  0  0  0  0  0  0  0  0  0
   -4.9570   23.2760  -31.1990 C   0  0  0  0  0  0  0  0  0  0  0  0
   -4.5670   24.3340  -30.2490 C   0  0  0  0  0  0  0  0  0  0  0  0
   -3.8620   25.2950  -30.6540 O   0  0  0  0  0  0  0  0  0  0  0  0
   -4.9710   24.2970  -28.8730 N   0  0  0  0  0  0  0  0  0  0  0  0
   -4.5080   23.3110  -27.8980 C   0  0  0  0  0  0  0  0  0  0  0  0
   -3.2100   23.7910  -27.2250 C   0  0  0  0  0  0  0  0  0  0  0  0
   -2.3670   24.7040  -28.0440 N   0  0  0  0  0  0  0  0  0  0  0  0
   -1.5510   24.0230  -29.0810 C   0  0  0  0  0  0  0  0  0  0  0  0
   -0.1120   23.7460  -28.6240 C   0  0  0  0  0  0  0  0  0  0  0  0
    0.4960   24.9270  -28.1550 O   0  0  0  0  0  0  0  0  0  0  0  0
   -0.1570   25.3450  -26.9760 C   0  0  0  0  0  0  0  0  0  0  0  0
   -1.6220   25.7220  -27.2550 C   0  0  0  0  0  0  0  0  0  0  0  0
   -6.2460   22.8590  -31.4000 N   0  0  0  0  0  0  0  0  0  0  0  0
   -7.4500   23.3270  -30.7150 C   0  0  0  0  0  0  0  0  0  0  0  0
   -6.1050   21.7890  -32.2060 C   0  0  0  0  0  0  0  0  0  0  0  0
   -8.6733   19.7156  -30.5176 H   0  0  0  0  0  0  0  0  0  0  0  0
   -9.7718   19.1366  -31.8156 H   0  0  0  0  0  0  0  0  0  0  0  0
   -8.0441   18.6450  -31.8156 H   0  0  0  0  0  0  0  0  0  0  0  0
   -8.8651   20.5878  -33.4163 H   0  0  0  0  0  0  0  0  0  0  0  0
   -8.7725   21.5847  -31.9183 H   0  0  0  0  0  0  0  0  0  0  0  0
   -7.4667   18.3361  -33.8428 H   0  0  0  0  0  0  0  0  0  0  0  0
   -5.5978   16.9338  -34.7758 H   0  0  0  0  0  0  0  0  0  0  0  0
   -3.2273   17.7139  -34.6187 H   0  0  0  0  0  0  0  0  0  0  0  0
   -2.6844   19.9309  -33.5461 H   0  0  0  0  0  0  0  0  0  0  0  0
   -2.9417   22.5779  -31.9474 H   0  0  0  0  0  0  0  0  0  0  0  0
   -5.2830   23.1685  -27.1305 H   0  0  0  0  0  0  0  0  0  0  0  0
   -4.3109   22.3613  -28.4168 H   0  0  0  0  0  0  0  0  0  0  0  0
   -3.4827   24.3195  -26.2996 H   0  0  0  0  0  0  0  0  0  0  0  0
   -2.6042   22.8886  -27.0561 H   0  0  0  0  0  0  0  0  0  0  0  0
   -3.0760   25.2590  -28.5840 H   0  0  0  0  0  0  0  0  0  0  0  0
   -2.0301   23.0649  -29.3311 H   0  0  0  0  0  0  0  0  0  0  0  0
   -1.4971   24.6939  -29.9510 H   0  0  0  0  0  0  0  0  0  0  0  0
   -0.1269   23.0012  -27.8146 H   0  0  0  0  0  0  0  0  0  0  0  0
    0.4648   23.3665  -29.4803 H   0  0  0  0  0  0  0  0  0  0  0  0
   -0.1308   24.5263  -26.2418 H   0  0  0  0  0  0  0  0  0  0  0  0
    0.3628   26.2326  -26.5860 H   0  0  0  0  0  0  0  0  0  0  0  0
   -2.1346   25.8562  -26.2911 H   0  0  0  0  0  0  0  0  0  0  0  0
   -1.6056   26.6428  -27.8566 H   0  0  0  0  0  0  0  0  0  0  0  0
   -7.2991   23.2683  -29.6270 H   0  0  0  0  0  0  0  0  0  0  0  0
   -7.6530   24.3695  -31.0013 H   0  0  0  0  0  0  0  0  0  0  0  0
   -8.3038   22.6952  -31.0013 H   0  0  0  0  0  0  0  0  0  0  0  0
  1  2  1  0
  2  3  1  0
  3  4  1  0
  4  5  2  0
  5  6  1  0
  6  7  2  0
  7  8  1  0
  8  9  2  0
  9 10  1  0
 10 11  1  0
 11 12  2  0
 12 13  1  0
 13 14  2  0
 13 15  1  0
 15 16  1  0
 16 17  1  0
 17 18  1  0
 18 19  1  0
 19 20  1  0
 20 21  1  0
 21 22  1  0
 22 23  1  0
 12 24  1  0
 24 25  1  0
 24 26  1  0
 26  3  1  0
  9  4  1  0
 26 10  2  0
 23 18  1  0
  1 27  1  0
  1 28  1  0
  1 29  1  0
  2 30  1  0
  2 31  1  0
  5 32  1  0
  6 33  1  0
  7 34  1  0
  8 35  1  0
 11 36  1  0
 16 37  1  0
 16 38  1  0
 17 39  1  0
 17 40  1  0
 18 41  1  0
 19 42  1  0
 19 43  1  0
 20 44  1  0
 20 45  1  0
 22 46  1  0
 22 47  1  0
 23 48  1  0
 23 49  1  0
 25 50  1  0
 25 51  1  0
 25 52  1  0
M  CHG  2  15  -1  18   1
M  END
>  <UniqueID>  (7) 
6

>  <SMILES>  (7) 
CCn1c2ccccc2c2cc(C(=O)[N-]CC[NH+]3CCOCC3)n(C)c21

>  <Energy>  (7) 
156.24082340151975

>  <Genealogy>  (7) 
CCn1c2ccccc2c2cc(C(=O)[N-]CC[NH+]3CCOCC3)n(C)c21 (protonated)
CCn1c2ccccc2c2cc(C(=O)[N-]CC[NH+]3CCOCC3)n(C)c21 (3D coordinates assigned)
CCn1c2ccccc2c2cc(C(=O)[N-]CC[NH+]3CCOCC3)n(C)c21 (nonaromatic ring conformer: 156.24082340151975 kcal/mol)

>  <smiles>  (7) 
CCn1c2ccccc2c2cc(C(=O)NCCN3CCOCC3)n(C)c21

>  <score_type>  (7) 
oracle

>  <origin>  (7) 
adg

>  <m_score__min__energy>  (7) 
-9.1099999999999994

>  <m_primary>  (7) 
energy

$$$$
7:0
     RDKit          3D

 39 40  0  0  0  0  0  0  0  0999 V2000
   -5.7100   25.6870  -30.1240 C   0  0  0  0  0  0  0  0  0  0  0  0
   -4.6340   25.0880  -30.8350 O   0  0  0  0  0  0  0  0  0  0  0  0
   -4.6400   23.7440  -31.2170 C   0  0  0  0  0  0  0  0  0  0  0  0
   -3.5620   23.0940  -31.2920 O   0  0  0  0  0  0  0  0  0  0  0  0
   -5.9150   23.0910  -31.5290 C   0  0  0  0  0  0  0  0  0  0  0  0
   -6.1290   21.7280  -31.6220 C   0  0  0  0  0  0  0  0  0  0  0  0
   -7.4670   21.5880  -31.9270 C   0  0  0  0  0  0  0  0  0  0  0  0
   -8.3050   20.0570  -32.1770 S   0  0  0  0  0  0  0  0  0  0  0  0
   -9.4970   20.3030  -33.0600 O   0  0  0  0  0  0  0  0  0  0  0  0
   -8.8040   19.5330  -30.8590 O   0  0  0  0  0  0  0  0  0  0  0  0
   -7.2710   18.8610  -32.9210 N   0  0  0  0  0  0  0  0  0  0  0  0
   -6.4980   18.1450  -31.8950 C   0  0  0  0  0  0  0  0  0  0  0  0
   -5.7290   16.9590  -32.5130 C   0  0  0  0  0  0  0  0  0  0  0  0
   -5.6000   17.0740  -34.0470 C   0  0  0  0  0  0  0  0  0  0  0  0
   -4.5210   16.1270  -34.5800 C   0  0  0  0  0  0  0  0  0  0  0  0
   -5.3080   18.5290  -34.4510 C   0  0  0  0  0  0  0  0  0  0  0  0
   -6.3740   19.5050  -33.9020 C   0  0  0  0  0  0  0  0  0  0  0  0
   -7.9830   22.8720  -32.0080 C   0  0  0  0  0  0  0  0  0  0  0  0
   -9.3860   23.2600  -32.3410 C   0  0  0  0  0  0  0  0  0  0  0  0
   -7.0310   23.7440  -31.7640 O   0  0  0  0  0  0  0  0  0  0  0  0
   -5.5344   25.5892  -29.0425 H   0  0  0  0  0  0  0  0  0  0  0  0
   -5.7771   26.7523  -30.3897 H   0  0  0  0  0  0  0  0  0  0  0  0
   -6.6508   25.1828  -30.3897 H   0  0  0  0  0  0  0  0  0  0  0  0
   -5.3894   20.9258  -31.4824 H   0  0  0  0  0  0  0  0  0  0  0  0
   -5.7796   18.8397  -31.4352 H   0  0  0  0  0  0  0  0  0  0  0  0
   -7.1947   17.7559  -31.1379 H   0  0  0  0  0  0  0  0  0  0  0  0
   -4.7203   16.9261  -32.0755 H   0  0  0  0  0  0  0  0  0  0  0  0
   -6.2951   16.0420  -32.2927 H   0  0  0  0  0  0  0  0  0  0  0  0
   -6.5572   16.7752  -34.4991 H   0  0  0  0  0  0  0  0  0  0  0  0
   -3.9914   15.6622  -33.7354 H   0  0  0  0  0  0  0  0  0  0  0  0
   -4.9907   15.3443  -35.1937 H   0  0  0  0  0  0  0  0  0  0  0  0
   -3.8058   16.6943  -35.1937 H   0  0  0  0  0  0  0  0  0  0  0  0
   -4.3236   18.8176  -34.0539 H   0  0  0  0  0  0  0  0  0  0  0  0
   -5.3255   18.5878  -35.5493 H   0  0  0  0  0  0  0  0  0  0  0  0
   -5.8636   20.3485  -33.4142 H   0  0  0  0  0  0  0  0  0  0  0  0
   -6.9889   19.8432  -34.7491 H   0  0  0  0  0  0  0  0  0  0  0  0
   -9.9534   23.4169  -31.4118 H   0  0  0  0  0  0  0  0  0  0  0  0
   -9.3797   24.1901  -32.9283 H   0  0  0  0  0  0  0  0  0  0  0  0
   -9.8584   22.4588  -32.9283 H   0  0  0  0  0  0  0  0  0  0  0  0
  1  2  1  0
  2  3  1  0
  3  4  2  0
  3  5  1  0
  5  6  2  0
  6  7  1  0
  7  8  1  0
  8  9  2  0
  8 10  2  0
  8 11  1  0
 11 12  1  0
 12 13  1  0
 13 14  1  0
 14 15  1  0
 14 16  1  0
 16 17  1  0
  7 18  2  0
 18 19  1  0
 18 20  1  0
 20  5  1  0
 17 11  1  0
  1 21  1  0
  1 22  1  0
  1 23  1  0
  6 24  1  0
 12 25  1  0
 12 26  1  0
 13 27  1  0
 13 28  1  0
 14 29  1  0
 15 30  1  0
 15 31  1  0
 15 32  1  0
 16 33  1  0
 16 34  1  0
 17 35  1  0
 17 36  1  0
 19 37  1  0
 19 38  1  0
 19 39  1  0
M  END
>  <UniqueID>  (8) 
7

>  <SMILES>  (8) 
COC(=O)c1cc(S(=O)(=O)N2CCC(C)CC2)c(C)o1

>  <Energy>  (8) 
60.718622528644175

>  <Genealogy>  (8) 
COC(=O)c1cc(S(=O)(=O)N2CCC(C)CC2)c(C)o1 (3D coordinates assigned)
COC(=O)c1cc(S(=O)(=O)N2CCC(C)CC2)c(C)o1 (nonaromatic ring conformer: 60.718622528644175 kcal/mol)

>  <smiles>  (8) 
COC(=O)c1cc(S(=O)(=O)N2CCC(C)CC2)c(C)o1

>  <score_type>  (8) 
oracle

>  <origin>  (8) 
adg

>  <m_score__min__energy>  (8) 
-7.8799999999999999

>  <m_primary>  (8) 
energy

$$$$
8:0
     RDKit          3D

 42 44  0  0  0  0  0  0  0  0999 V2000
   -3.9840   21.6670  -31.3630 C   0  0  0  0  0  0  0  0  0  0  0  0
   -4.3560   23.0500  -30.9370 C   0  0  0  0  0  0  0  0  0  0  0  0
   -3.4910   24.0830  -30.9220 N   0  0  0  0  0  0  0  0  0  0  0  0
   -4.1350   25.1180  -30.4660 O   0  0  0  0  0  0  0  0  0  0  0  0
   -5.3780   24.8120  -30.1720 C   0  0  0  0  0  0  0  0  0  0  0  0
   -6.3820   25.7890  -29.6520 C   0  0  0  0  0  0  0  0  0  0  0  0
   -5.5800   23.4730  -30.4470 C   0  0  0  0  0  0  0  0  0  0  0  0
   -6.8450   22.6690  -30.2640 C   0  0  0  0  0  0  0  0  0  0  0  0
   -7.7120   22.6960  -31.4710 N   0  0  0  0  0  0  0  0  0  0  0  0
   -7.0180   22.2220  -32.7010 C   0  0  0  0  0  0  0  0  0  0  0  0
   -7.1820   20.7090  -32.9580 C   0  0  0  0  0  0  0  0  0  0  0  0
   -7.4560   20.0090  -31.6960 N   0  0  0  0  0  0  0  0  0  0  0  0
   -7.3060   18.5410  -31.7870 C   0  0  0  0  0  0  0  0  0  0  0  0
   -6.2760   18.0960  -32.7920 C   0  0  0  0  0  0  0  0  0  0  0  0
   -6.4850   17.2040  -33.8360 C   0  0  0  0  0  0  0  0  0  0  0  0
   -5.3440   16.9950  -34.6220 C   0  0  0  0  0  0  0  0  0  0  0  0
   -4.2390   17.7250  -34.2040 C   0  0  0  0  0  0  0  0  0  0  0  0
   -4.6820   18.6320  -32.8590 S   0  0  0  0  0  0  0  0  0  0  0  0
   -8.7430   20.4270  -31.1060 C   0  0  0  0  0  0  0  0  0  0  0  0
   -8.9700   21.9490  -31.2450 C   0  0  0  0  0  0  0  0  0  0  0  0
   -3.8159   21.0421  -30.4735 H   0  0  0  0  0  0  0  0  0  0  0  0
   -4.7984   21.2371  -31.9646 H   0  0  0  0  0  0  0  0  0  0  0  0
   -3.0638   21.7037  -31.9646 H   0  0  0  0  0  0  0  0  0  0  0  0
   -6.3697   25.7770  -28.5521 H   0  0  0  0  0  0  0  0  0  0  0  0
   -6.1313   26.7983  -30.0105 H   0  0  0  0  0  0  0  0  0  0  0  0
   -7.3841   25.5109  -30.0105 H   0  0  0  0  0  0  0  0  0  0  0  0
   -6.5724   21.6255  -30.0479 H   0  0  0  0  0  0  0  0  0  0  0  0
   -7.4108   23.1174  -29.4340 H   0  0  0  0  0  0  0  0  0  0  0  0
   -7.9920   23.6920  -31.6360 H   0  0  0  0  0  0  0  0  0  0  0  0
   -7.4276   22.7678  -33.5638 H   0  0  0  0  0  0  0  0  0  0  0  0
   -5.9437   22.4107  -32.5586 H   0  0  0  0  0  0  0  0  0  0  0  0
   -8.0190   20.5467  -33.6531 H   0  0  0  0  0  0  0  0  0  0  0  0
   -6.2518   20.3151  -33.3934 H   0  0  0  0  0  0  0  0  0  0  0  0
   -7.0122   18.1605  -30.7976 H   0  0  0  0  0  0  0  0  0  0  0  0
   -8.2742   18.1403  -32.1218 H   0  0  0  0  0  0  0  0  0  0  0  0
   -7.4497   16.7110  -34.0267 H   0  0  0  0  0  0  0  0  0  0  0  0
   -5.3253   16.3170  -35.4880 H   0  0  0  0  0  0  0  0  0  0  0  0
   -3.2439   17.7121  -34.6727 H   0  0  0  0  0  0  0  0  0  0  0  0
   -9.5589   19.8969  -31.6191 H   0  0  0  0  0  0  0  0  0  0  0  0
   -8.7241   20.1804  -30.0342 H   0  0  0  0  0  0  0  0  0  0  0  0
   -9.6434   22.1281  -32.0962 H   0  0  0  0  0  0  0  0  0  0  0  0
   -9.4043   22.3078  -30.3002 H   0  0  0  0  0  0  0  0  0  0  0  0
  1  2  1  0
  2  3  2  0
  3  4  1  0
  4  5  1  0
  5  6  1  0
  5  7  2  0
  7  8  1  0
  8  9  1  0
  9 10  1  0
 10 11  1  0
 11 12  1  0
 12 13  1  0
 13 14  1  0
 14 15  2  0
 15 16  1  0
 16 17  2  0
 17 18  1  0
 12 19  1  0
 19 20  1  0
  7  2  1  0
 20  9  1  0
 18 14  1  0
  1 21  1  0
  1 22  1  0
  1 23  1  0
  6 24  1  0
  6 25  1  0
  6 26  1  0
  8 27  1  0
  8 28  1  0
  9 29  1  0
 10 30  1  0
 10 31  1  0
 11 32  1  0
 11 33  1  0
 13 34  1  0
 13 35  1  0
 15 36  1  0
 16 37  1  0
 17 38  1  0
 19 39  1  0
 19 40  1  0
 20 41  1  0
 20 42  1  0
M  CHG  1   9   1
M  END
>  <UniqueID>  (9) 
8

>  <SMILES>  (9) 
Cc1noc(C)c1C[NH+]1CCN(Cc2cccs2)CC1

>  <Energy>  (9) 
110.10144888055765

>  <Genealogy>  (9) 
Cc1noc(C)c1C[NH+]1CCN(Cc2cccs2)CC1 (protonated)
Cc1noc(C)c1C[NH+]1CCN(Cc2cccs2)CC1 (3D coordinates assigned)
Cc1noc(C)c1C[NH+]1CCN(Cc2cccs2)CC1 (nonaromatic ring conformer: 110.10144888055765 kcal/mol)

>  <smiles>  (9) 
Cc1noc(C)c1CN1CCN(Cc2cccs2)CC1

>  <score_type>  (9) 
oracle

>  <origin>  (9) 
adg

>  <m_score__min__energy>  (9) 
-7.7400000000000002

>  <m_primary>  (9) 
energy

$$$$
9:0
     RDKit          3D

 27 29  0  0  0  0  0  0  0  0999 V2000
   -6.5622   18.9075  -33.0155 H   0  0  0  0  0  0  0  0  0  0  0  0
   -6.0890   19.7940  -32.5680 C   0  0  0  0  0  0  0  0  0  0  0  0
   -4.8160   19.6890  -31.9990 C   0  0  0  0  0  0  0  0  0  0  0  0
   -4.2935   18.7210  -32.0013 H   0  0  0  0  0  0  0  0  0  0  0  0
   -4.2040   20.8090  -31.4270 C   0  0  0  0  0  0  0  0  0  0  0  0
   -3.2023   20.7224  -30.9807 H   0  0  0  0  0  0  0  0  0  0  0  0
   -4.8710   22.0430  -31.4240 C   0  0  0  0  0  0  0  0  0  0  0  0
   -6.1680   22.1540  -32.0030 C   0  0  0  0  0  0  0  0  0  0  0  0
   -6.7650   21.0190  -32.5720 C   0  0  0  0  0  0  0  0  0  0  0  0
   -7.7661   21.0923  -33.0220 H   0  0  0  0  0  0  0  0  0  0  0  0
   -6.8400   23.4020  -32.0000 C   0  0  0  0  0  0  0  0  0  0  0  0
   -7.8409   23.4844  -32.4489 H   0  0  0  0  0  0  0  0  0  0  0  0
   -6.2360   24.5360  -31.4270 C   0  0  0  0  0  0  0  0  0  0  0  0
   -6.7496   25.5087  -31.4185 H   0  0  0  0  0  0  0  0  0  0  0  0
   -4.9680   24.3890  -30.8710 C   0  0  0  0  0  0  0  0  0  0  0  0
   -4.2210   25.3340  -30.2800 N   0  0  0  0  0  0  0  0  0  0  0  0
   -3.1030   24.6470  -29.9320 C   0  0  0  0  0  0  0  0  0  0  0  0
   -2.1120   25.2250  -29.3200 N   0  0  0  0  0  0  0  0  0  0  0  0
   -1.2500   24.6140  -28.3500 C   0  0  0  0  0  0  0  0  0  0  0  0
   -0.0510   24.3810  -28.6620 O   0  0  0  0  0  0  0  0  0  0  0  0
   -1.7230   24.2790  -27.0760 O   0  0  0  0  0  0  0  0  0  0  0  0
   -2.8230   24.9400  -26.4650 C   0  0  0  0  0  0  0  0  0  0  0  0
   -2.7246   24.8809  -25.3710 H   0  0  0  0  0  0  0  0  0  0  0  0
   -2.8352   25.9952  -26.7756 H   0  0  0  0  0  0  0  0  0  0  0  0
   -3.7604   24.4555  -26.7756 H   0  0  0  0  0  0  0  0  0  0  0  0
   -3.1140   23.3310  -30.2730 N   0  0  0  0  0  0  0  0  0  0  0  0
   -4.3100   23.1960  -30.8670 C   0  0  0  0  0  0  0  0  0  0  0  0
  1  2  1  0
  2  3  2  0
  3  4  1  0
  3  5  1  0
  5  6  1  0
  5  7  2  0
  7  8  1  0
  8  9  2  0
  9 10  1  0
  8 11  1  0
 11 12  1  0
 11 13  2  0
 13 14  1  0
 13 15  1  0
 15 16  1  0
 16 17  1  0
 17 18  2  0
 18 19  1  0
 19 20  2  0
 19 21  1  0
 21 22  1  0
 22 23  1  0
 22 24  1  0
 22 25  1  0
 17 26  1  0
 26 27  1  0
  9  2  1  0
 27 15  2  0
 27  7  1  0
M  CHG  2  16  -1  26  -1
M  END
>  <UniqueID>  (10) 
9

>  <SMILES>  (10) 
COC(=O)/N=c1/[n-]c2ccc3ccccc3c2[n-]1

>  <Energy>  (10) 
66.44901336635395

>  <Genealogy>  (10) 
COC(=O)N=c1[n-]c2ccc3ccccc3c2[n-]1 (protonated)
COC(=O)/N=c1/[n-]c2ccc3ccccc3c2[n-]1 (cis-trans isomerization)
COC(=O)/N=c1/[n-]c2ccc3ccccc3c2[n-]1 (3D coordinates assigned)
COC(=O)/N=c1/[n-]c2ccc3ccccc3c2[n-]1 (optimized conformer: 66.44901336635395 kcal/mol)

>  <smiles>  (10) 
COC(=O)N=c1[nH]c2ccc3ccccc3c2[nH]1

>  <score_type>  (10) 
oracle

>  <origin>  (10) 
adg

>  <m_score__min__energy>  (10) 
-8.8900000000000006

>  <m_primary>  (10) 
energy

$$$$
10:0
     RDKit          3D

 55 58  0  0  0  0  0  0  0  0999 V2000
    0.1470   21.0940  -34.3260 C   0  0  0  0  0  0  0  0  0  0  0  0
   -0.9880   20.8310  -33.3760 C   0  0  0  0  0  0  0  0  0  0  0  0
   -2.1890   20.2820  -33.8380 C   0  0  0  0  0  0  0  0  0  0  0  0
   -3.2150   20.0060  -32.9720 N   0  0  0  0  0  0  0  0  0  0  0  0
   -4.4800   19.4480  -33.4930 C   0  0  1  0  0  0  0  0  0  0  0  0
   -4.2180   18.4110  -34.5820 C   0  0  0  0  0  0  0  0  0  0  0  0
   -5.2810   17.3760  -34.3220 C   0  0  2  0  0  0  0  0  0  0  0  0
   -6.4380   17.6260  -35.0880 O   0  0  0  0  0  0  0  0  0  0  0  0
   -5.5160   17.5280  -32.8160 C   0  0  2  0  0  0  0  0  0  0  0  0
   -6.9250   17.1370  -32.3410 C   0  0  0  0  0  0  0  0  0  0  0  0
   -7.9050   18.1650  -32.7150 N   0  0  0  0  0  0  0  0  0  0  0  0
   -8.3610   18.9290  -31.5410 C   0  0  0  0  0  0  0  0  0  0  0  0
   -8.2570   20.4190  -31.7650 C   0  0  0  0  0  0  0  0  0  0  0  0
   -9.3930   21.2400  -31.6640 C   0  0  0  0  0  0  0  0  0  0  0  0
   -9.2820   22.6200  -31.8570 C   0  0  0  0  0  0  0  0  0  0  0  0
   -8.0420   23.1900  -32.1590 C   0  0  0  0  0  0  0  0  0  0  0  0
   -6.9050   22.3790  -32.2620 C   0  0  0  0  0  0  0  0  0  0  0  0
   -5.3200   23.1060  -32.6770 S   0  0  0  0  0  0  0  0  0  0  0  0
   -4.9990   23.5870  -30.9800 C   0  0  0  0  0  0  0  0  0  0  0  0
   -3.9750   22.9640  -30.2560 C   0  0  0  0  0  0  0  0  0  0  0  0
   -3.7390   23.3260  -28.9250 C   0  0  0  0  0  0  0  0  0  0  0  0
   -4.5240   24.3130  -28.3160 C   0  0  0  0  0  0  0  0  0  0  0  0
   -4.2300   24.7630  -26.6470 Cl  0  0  0  0  0  0  0  0  0  0  0  0
   -5.5440   24.9390  -29.0410 C   0  0  0  0  0  0  0  0  0  0  0  0
   -5.7790   24.5800  -30.3720 C   0  0  0  0  0  0  0  0  0  0  0  0
   -7.0100   20.9990  -32.0530 C   0  0  0  0  0  0  0  0  0  0  0  0
   -5.2360   18.8620  -32.4510 O   0  0  0  0  0  0  0  0  0  0  0  0
   -3.0700   20.3060  -31.6400 C   0  0  0  0  0  0  0  0  0  0  0  0
   -4.0130   20.1090  -30.8270 O   0  0  0  0  0  0  0  0  0  0  0  0
   -1.9020   20.8170  -31.1760 N   0  0  0  0  0  0  0  0  0  0  0  0
   -0.8600   21.0740  -32.0020 C   0  0  0  0  0  0  0  0  0  0  0  0
    0.2120   21.5320  -31.5250 O   0  0  0  0  0  0  0  0  0  0  0  0
    1.0623   21.3061  -33.7540 H   0  0  0  0  0  0  0  0  0  0  0  0
    0.3073   20.2092  -34.9596 H   0  0  0  0  0  0  0  0  0  0  0  0
   -0.0981   21.9591  -34.9596 H   0  0  0  0  0  0  0  0  0  0  0  0
   -2.3115   20.0691  -34.9102 H   0  0  0  0  0  0  0  0  0  0  0  0
   -5.0529   20.2794  -33.9295 H   0  0  0  0  0  0  0  0  0  0  0  0
   -4.3308   18.8515  -35.5836 H   0  0  0  0  0  0  0  0  0  0  0  0
   -3.1972   18.0019  -34.5565 H   0  0  0  0  0  0  0  0  0  0  0  0
   -4.9960   16.3522  -34.6059 H   0  0  0  0  0  0  0  0  0  0  0  0
   -6.9460   18.3650  -34.6580 H   0  0  0  0  0  0  0  0  0  0  0  0
   -4.8391   16.8184  -32.3178 H   0  0  0  0  0  0  0  0  0  0  0  0
   -7.2098   16.1813  -32.8051 H   0  0  0  0  0  0  0  0  0  0  0  0
   -6.9141   17.0420  -31.2452 H   0  0  0  0  0  0  0  0  0  0  0  0
   -7.4740   18.8200  -33.4070 H   0  0  0  0  0  0  0  0  0  0  0  0
   -9.4107   18.6725  -31.3353 H   0  0  0  0  0  0  0  0  0  0  0  0
   -7.7151   18.6657  -30.6904 H   0  0  0  0  0  0  0  0  0  0  0  0
  -10.3722   20.7955  -31.4324 H   0  0  0  0  0  0  0  0  0  0  0  0
  -10.1731   23.2592  -31.7710 H   0  0  0  0  0  0  0  0  0  0  0  0
   -7.9593   24.2756  -32.3158 H   0  0  0  0  0  0  0  0  0  0  0  0
   -3.3561   22.1901  -30.7335 H   0  0  0  0  0  0  0  0  0  0  0  0
   -2.9358   22.8346  -28.3563 H   0  0  0  0  0  0  0  0  0  0  0  0
   -6.1615   25.7141  -28.5636 H   0  0  0  0  0  0  0  0  0  0  0  0
   -6.5771   25.0776  -30.9425 H   0  0  0  0  0  0  0  0  0  0  0  0
   -6.1126   20.3659  -32.1145 H   0  0  0  0  0  0  0  0  0  0  0  0
  1  2  1  0
  2  3  2  0
  3  4  1  0
  4  5  1  0
  5  6  1  0
  6  7  1  0
  7  8  1  0
  7  9  1  0
  9 10  1  0
 10 11  1  0
 11 12  1  0
 12 13  1  0
 13 14  2  0
 14 15  1  0
 15 16  2  0
 16 17  1  0
 17 18  1  0
 18 19  1  0
 19 20  2  0
 20 21  1  0
 21 22  2  0
 22 23  1  0
 22 24  1  0
 24 25  2  0
 17 26  2  0
  9 27  1  0
  4 28  1  0
 28 29  2  0
 28 30  1  0
 30 31  1  0
 31 32  2  0
 31  2  1  0
 27  5  1  0
 26 13  1  0
 25 19  1  0
  1 33  1  0
  1 34  1  0
  1 35  1  0
  3 36  1  0
  5 37  1  6
  6 38  1  0
  6 39  1  0
  7 40  1  1
  8 41  1  0
  9 42  1  1
 10 43  1  0
 10 44  1  0
 11 45  1  0
 12 46  1  0
 12 47  1  0
 14 48  1  0
 15 49  1  0
 16 50  1  0
 20 51  1  0
 21 52  1  0
 24 53  1  0
 25 54  1  0
 26 55  1  0
M  CHG  1  30  -1
M  END
>  <UniqueID>  (11) 
10

>  <SMILES>  (11) 
Cc1cn([C@H]2C[C@H](O)C(CNCc3cccc(Sc4ccc(Cl)cc4)c3)O2)c(=O)[n-]c1=O

>  <Energy>  (11) 
59.622527950686674

>  <Genealogy>  (11) 
Cc1cn(C2CC(O)C(CNCc3cccc(Sc4ccc(Cl)cc4)c3)O2)c(=O)[n-]c1=O (protonated)
Cc1cn([C@H]2C[C@H](O)C(CNCc3cccc(Sc4ccc(Cl)cc4)c3)O2)c(=O)[n-]c1=O (chirality)
Cc1cn([C@H]2C[C@H](O)C(CNCc3cccc(Sc4ccc(Cl)cc4)c3)O2)c(=O)[n-]c1=O (3D coordinates assigned)
Cc1cn([C@H]2C[C@H](O)C(CNCc3cccc(Sc4ccc(Cl)cc4)c3)O2)c(=O)[n-]c1=O (nonaromatic ring conformer: 59.622527950686674 kcal/mol)

>  <smiles>  (11) 
Cc1cn(C2CC(O)C(CNCc3cccc(Sc4ccc(Cl)cc4)c3)O2)c(=O)[nH]c1=O

>  <score_type>  (11) 
oracle

>  <origin>  (11) 
adg

>  <m_score__min__energy>  (11) 
-10.630000000000001

>  <m_primary>  (11) 
energy

$$$$
11:0
     RDKit          3D

 36 36  0  0  0  0  0  0  0  0999 V2000
   -4.7913   22.7322  -32.8689 H   0  0  0  0  0  0  0  0  0  0  0  0
   -5.3430   22.8040  -31.9200 C   0  0  0  0  0  0  0  0  0  0  0  0
   -4.6370   23.4410  -30.7870 C   0  0  0  0  0  0  0  0  0  0  0  0
   -4.2120   22.7700  -29.8070 O   0  0  0  0  0  0  0  0  0  0  0  0
   -4.4060   24.8210  -30.8430 O   0  0  0  0  0  0  0  0  0  0  0  0
   -5.3750   25.7980  -30.4710 C   0  0  0  0  0  0  0  0  0  0  0  0
   -5.9958   26.0419  -31.3457 H   0  0  0  0  0  0  0  0  0  0  0  0
   -4.8513   26.6962  -30.1118 H   0  0  0  0  0  0  0  0  0  0  0  0
   -6.2690   25.2730  -29.3540 C   0  0  0  0  0  0  0  0  0  0  0  0
   -5.8286   25.5316  -28.3797 H   0  0  0  0  0  0  0  0  0  0  0  0
   -7.2666   25.7287  -29.4380 H   0  0  0  0  0  0  0  0  0  0  0  0
   -6.3570   24.1798  -29.4380 H   0  0  0  0  0  0  0  0  0  0  0  0
   -6.6030   22.2990  -31.9070 C   0  0  0  0  0  0  0  0  0  0  0  0
   -6.8450   20.8760  -32.1370 N   0  0  0  0  0  0  0  0  0  0  0  0
   -5.8170   19.9800  -32.7040 C   0  0  0  0  0  0  0  0  0  0  0  0
   -4.8486   20.5017  -32.7041 H   0  0  0  0  0  0  0  0  0  0  0  0
   -5.7715   19.0713  -32.0858 H   0  0  0  0  0  0  0  0  0  0  0  0
   -6.1620   19.5690  -34.1400 C   0  0  0  0  0  0  0  0  0  0  0  0
   -7.2462   19.6701  -34.2958 H   0  0  0  0  0  0  0  0  0  0  0  0
   -5.6183   20.2213  -34.8392 H   0  0  0  0  0  0  0  0  0  0  0  0
   -5.7800   18.2250  -34.3720 O   0  0  0  0  0  0  0  0  0  0  0  0
   -6.1650   17.4050  -33.2920 C   0  0  0  0  0  0  0  0  0  0  0  0
   -5.9274   17.9110  -32.3446 H   0  0  0  0  0  0  0  0  0  0  0  0
   -7.2470   17.2138  -33.3443 H   0  0  0  0  0  0  0  0  0  0  0  0
   -5.6210   16.4504  -33.3443 H   0  0  0  0  0  0  0  0  0  0  0  0
   -8.1340   20.3120  -31.8010 C   0  0  0  0  0  0  0  0  0  0  0  0
   -8.3350   19.0700  -31.8820 O   0  0  0  0  0  0  0  0  0  0  0  0
   -9.2470   21.1850  -31.3140 C   0  0  0  0  0  0  0  0  0  0  0  0
   -9.1878   21.2780  -30.2195 H   0  0  0  0  0  0  0  0  0  0  0  0
  -10.2124   20.7374  -31.5928 H   0  0  0  0  0  0  0  0  0  0  0  0
   -9.1260   22.5630  -31.9470 C   0  0  0  0  0  0  0  0  0  0  0  0
   -9.9404   23.2034  -31.5773 H   0  0  0  0  0  0  0  0  0  0  0  0
   -9.1907   22.4581  -33.0401 H   0  0  0  0  0  0  0  0  0  0  0  0
   -7.7840   23.2020  -31.5920 C   0  0  0  0  0  0  0  0  0  0  0  0
   -7.7761   23.4291  -30.5157 H   0  0  0  0  0  0  0  0  0  0  0  0
   -7.6780   24.1122  -32.2006 H   0  0  0  0  0  0  0  0  0  0  0  0
  1  2  1  0
  2  3  1  0
  3  4  2  0
  3  5  1  0
  5  6  1  0
  6  7  1  0
  6  8  1  0
  6  9  1  0
  9 10  1  0
  9 11  1  0
  9 12  1  0
  2 13  2  0
 13 14  1  0
 14 15  1  0
 15 16  1  0
 15 17  1  0
 15 18  1  0
 18 19  1  0
 18 20  1  0
 18 21  1  0
 21 22  1  0
 22 23  1  0
 22 24  1  0
 22 25  1  0
 14 26  1  0
 26 27  2  0
 26 28  1  0
 28 29  1  0
 28 30  1  0
 28 31  1  0
 31 32  1  0
 31 33  1  0
 31 34  1  0
 34 35  1  0
 34 36  1  0
 34 13  1  0
M  END
>  <UniqueID>  (12) 
11

>  <SMILES>  (12) 
CCOC(=O)/C=C1\CCCC(=O)N1CCOC

>  <Energy>  (12) 
33.87245442109813

>  <Genealogy>  (12) 
CCOC(=O)/C=C1\CCCC(=O)N1CCOC (cis-trans isomerization)
CCOC(=O)/C=C1\CCCC(=O)N1CCOC (3D coordinates assigned)
CCOC(=O)/C=C1\CCCC(=O)N1CCOC (nonaromatic ring conformer: 33.87245442109813 kcal/mol)

>  <smiles>  (12) 
CCOC(=O)C=C1CCCC(=O)N1CCOC

>  <score_type>  (12) 
oracle

>  <origin>  (12) 
adg

>  <m_score__min__energy>  (12) 
-5.9800000000000004

>  <m_primary>  (12) 
energy

$$$$
12:0
     RDKit          3D

 41 44  0  0  0  0  0  0  0  0999 V2000
   -1.6040   25.3320  -28.0510 C   0  0  0  0  0  0  0  0  0  0  0  0
   -2.2680   25.2290  -29.3060 O   0  0  0  0  0  0  0  0  0  0  0  0
   -2.7370   24.0280  -29.8630 C   0  0  0  0  0  0  0  0  0  0  0  0
   -2.0840   22.8000  -29.6450 C   0  0  0  0  0  0  0  0  0  0  0  0
   -2.5770   21.6270  -30.2200 C   0  0  0  0  0  0  0  0  0  0  0  0
   -3.7190   21.6600  -31.0300 C   0  0  0  0  0  0  0  0  0  0  0  0
   -4.2240   20.4410  -31.5980 N   0  0  0  0  0  0  0  0  0  0  0  0
   -5.3780   19.8910  -31.2370 N   0  0  0  0  0  0  0  0  0  0  0  0
   -5.5680   18.7700  -31.9720 C   0  0  0  0  0  0  0  0  0  0  0  0
   -4.4820   18.6060  -32.8130 C   0  0  0  0  0  0  0  0  0  0  0  0
   -4.1560   17.6360  -33.7690 C   0  0  0  0  0  0  0  0  0  0  0  0
   -5.0260   16.4730  -34.0590 C   0  0  0  0  0  0  0  0  0  0  0  0
   -6.4240   16.6020  -34.0650 C   0  0  0  0  0  0  0  0  0  0  0  0
   -7.2280   15.4910  -34.3290 C   0  0  0  0  0  0  0  0  0  0  0  0
   -6.6270   14.2560  -34.5780 C   0  0  0  0  0  0  0  0  0  0  0  0
   -5.2730   14.1420  -34.5580 N   0  0  0  0  0  0  0  0  0  0  0  0
   -4.4690   15.2080  -34.3030 C   0  0  0  0  0  0  0  0  0  0  0  0
   -2.9310   17.8160  -34.4510 C   0  0  0  0  0  0  0  0  0  0  0  0
   -2.1150   18.8760  -34.1540 N   0  0  0  0  0  0  0  0  0  0  0  0
   -2.4460   19.8090  -33.2140 C   0  0  0  0  0  0  0  0  0  0  0  0
   -3.6660   19.6710  -32.5550 C   0  0  0  0  0  0  0  0  0  0  0  0
   -4.3860   22.8770  -31.2280 C   0  0  0  0  0  0  0  0  0  0  0  0
   -3.8940   24.0670  -30.6540 C   0  0  0  0  0  0  0  0  0  0  0  0
   -4.5320   25.3040  -30.8440 O   0  0  0  0  0  0  0  0  0  0  0  0
   -5.7670   25.6760  -30.2440 C   0  0  0  0  0  0  0  0  0  0  0  0
   -2.3365   25.2184  -27.2382 H   0  0  0  0  0  0  0  0  0  0  0  0
   -0.8436   24.5411  -27.9725 H   0  0  0  0  0  0  0  0  0  0  0  0
   -1.1189   26.3161  -27.9725 H   0  0  0  0  0  0  0  0  0  0  0  0
   -1.1806   22.7644  -29.0184 H   0  0  0  0  0  0  0  0  0  0  0  0
   -2.0652   20.6709  -30.0356 H   0  0  0  0  0  0  0  0  0  0  0  0
   -6.4396   18.1018  -31.9107 H   0  0  0  0  0  0  0  0  0  0  0  0
   -6.8865   17.5791  -33.8616 H   0  0  0  0  0  0  0  0  0  0  0  0
   -8.3236   15.5882  -34.3406 H   0  0  0  0  0  0  0  0  0  0  0  0
   -7.2498   13.3745  -34.7905 H   0  0  0  0  0  0  0  0  0  0  0  0
   -3.3767   15.0786  -34.2878 H   0  0  0  0  0  0  0  0  0  0  0  0
   -2.6298   17.0979  -35.2279 H   0  0  0  0  0  0  0  0  0  0  0  0
   -1.7695   20.6452  -32.9836 H   0  0  0  0  0  0  0  0  0  0  0  0
   -5.3017   22.9037  -31.8369 H   0  0  0  0  0  0  0  0  0  0  0  0
   -5.6665   25.6457  -29.1490 H   0  0  0  0  0  0  0  0  0  0  0  0
   -6.0357   26.6949  -30.5595 H   0  0  0  0  0  0  0  0  0  0  0  0
   -6.5538   24.9750  -30.5595 H   0  0  0  0  0  0  0  0  0  0  0  0
  1  2  1  0
  2  3  1  0
  3  4  2  0
  4  5  1  0
  5  6  2  0
  6  7  1  0
  7  8  1  0
  8  9  2  0
  9 10  1  0
 10 11  2  0
 11 12  1  0
 12 13  2  0
 13 14  1  0
 14 15  2  0
 15 16  1  0
 16 17  2  0
 11 18  1  0
 18 19  2  0
 19 20  1  0
 20 21  2  0
  6 22  1  0
 22 23  2  0
 23 24  1  0
 24 25  1  0
 23  3  1  0
 21  7  1  0
 21 10  1  0
 17 12  1  0
  1 26  1  0
  1 27  1  0
  1 28  1  0
  4 29  1  0
  5 30  1  0
  9 31  1  0
 13 32  1  0
 14 33  1  0
 15 34  1  0
 17 35  1  0
 18 36  1  0
 20 37  1  0
 22 38  1  0
 25 39  1  0
 25 40  1  0
 25 41  1  0
M  END
>  <UniqueID>  (13) 
12

>  <SMILES>  (13) 
COc1ccc(-n2ncc3c(-c4cccnc4)cncc32)cc1OC

>  <Energy>  (13) 
97.11725828036238

>  <Genealogy>  (13) 
COc1ccc(-n2ncc3c(-c4cccnc4)cncc32)cc1OC (3D coordinates assigned)
COc1ccc(-n2ncc3c(-c4cccnc4)cncc32)cc1OC (optimized conformer: 97.11725828036238 kcal/mol)

>  <smiles>  (13) 
COc1ccc(-n2ncc3c(-c4cccnc4)cncc32)cc1OC

>  <score_type>  (13) 
oracle

>  <origin>  (13) 
adg

>  <m_score__min__energy>  (13) 
-7.6900000000000004

>  <m_primary>  (13) 
energy

$$$$
13:0
     RDKit          3D

 40 42  0  0  0  0  0  0  0  0999 V2000
   -6.2130   25.6080  -29.3350 C   0  0  0  0  0  0  0  0  0  0  0  0
   -5.3680   25.6870  -30.6020 C   0  0  0  0  0  0  0  0  0  0  0  0
   -4.7570   24.4270  -30.8830 O   0  0  0  0  0  0  0  0  0  0  0  0
   -5.4240   23.2720  -31.3270 C   0  0  0  0  0  0  0  0  0  0  0  0
   -6.7830   23.0310  -31.0510 C   0  0  0  0  0  0  0  0  0  0  0  0
   -7.4080   21.8680  -31.5180 C   0  0  0  0  0  0  0  0  0  0  0  0
   -6.6670   20.9060  -32.2270 C   0  0  0  0  0  0  0  0  0  0  0  0
   -5.3180   21.1550  -32.5210 C   0  0  0  0  0  0  0  0  0  0  0  0
   -4.6910   22.3320  -32.0670 C   0  0  0  0  0  0  0  0  0  0  0  0
   -3.3380   22.6030  -32.3330 O   0  0  0  0  0  0  0  0  0  0  0  0
   -2.3170   21.6150  -32.4240 C   0  0  0  0  0  0  0  0  0  0  0  0
   -7.3630   19.6680  -32.6840 C   0  0  0  0  0  0  0  0  0  0  0  0
   -6.6230   18.4360  -33.0410 C   0  0  0  0  0  0  0  0  0  0  0  0
   -6.1120   18.2650  -34.3400 C   0  0  0  0  0  0  0  0  0  0  0  0
   -5.3950   17.1120  -34.6730 C   0  0  0  0  0  0  0  0  0  0  0  0
   -5.1760   16.1230  -33.7120 C   0  0  0  0  0  0  0  0  0  0  0  0
   -5.6670   16.2870  -32.4150 C   0  0  0  0  0  0  0  0  0  0  0  0
   -6.3840   17.4400  -32.0750 C   0  0  0  0  0  0  0  0  0  0  0  0
   -6.8630   17.5710  -30.8110 F   0  0  0  0  0  0  0  0  0  0  0  0
   -8.6660   19.6340  -32.6860 N   0  0  0  0  0  0  0  0  0  0  0  0
   -9.4940   20.7960  -32.3520 C   0  0  0  0  0  0  0  0  0  0  0  0
   -8.8610   21.6040  -31.2130 C   0  0  0  0  0  0  0  0  0  0  0  0
   -5.5583   25.6692  -28.4532 H   0  0  0  0  0  0  0  0  0  0  0  0
   -6.9287   26.4431  -29.3189 H   0  0  0  0  0  0  0  0  0  0  0  0
   -6.7615   24.6547  -29.3189 H   0  0  0  0  0  0  0  0  0  0  0  0
   -6.0113   25.9725  -31.4474 H   0  0  0  0  0  0  0  0  0  0  0  0
   -4.5773   26.4370  -30.4525 H   0  0  0  0  0  0  0  0  0  0  0  0
   -7.3586   23.7618  -30.4640 H   0  0  0  0  0  0  0  0  0  0  0  0
   -4.7449   20.4248  -33.1112 H   0  0  0  0  0  0  0  0  0  0  0  0
   -2.0064   21.3144  -31.4125 H   0  0  0  0  0  0  0  0  0  0  0  0
   -2.7024   20.7382  -32.9649 H   0  0  0  0  0  0  0  0  0  0  0  0
   -1.4533   22.0290  -32.9649 H   0  0  0  0  0  0  0  0  0  0  0  0
   -6.2776   19.0437  -35.0991 H   0  0  0  0  0  0  0  0  0  0  0  0
   -5.0031   16.9838  -35.6928 H   0  0  0  0  0  0  0  0  0  0  0  0
   -4.6162   15.2139  -33.9768 H   0  0  0  0  0  0  0  0  0  0  0  0
   -5.4898   15.5081  -31.6587 H   0  0  0  0  0  0  0  0  0  0  0  0
   -9.5900   21.4380  -33.2400 H   0  0  0  0  0  0  0  0  0  0  0  0
  -10.4838   20.4429  -32.0271 H   0  0  0  0  0  0  0  0  0  0  0  0
   -9.3914   22.5618  -31.1065 H   0  0  0  0  0  0  0  0  0  0  0  0
   -8.9367   21.0314  -30.2768 H   0  0  0  0  0  0  0  0  0  0  0  0
  1  2  1  0
  2  3  1  0
  3  4  1  0
  4  5  2  0
  5  6  1  0
  6  7  2  0
  7  8  1  0
  8  9  2  0
  9 10  1  0
 10 11  1  0
  7 12  1  0
 12 13  1  0
 13 14  2  0
 14 15  1  0
 15 16  2  0
 16 17  1  0
 17 18  2  0
 18 19  1  0
 12 20  2  0
 20 21  1  0
 21 22  1  0
  9  4  1  0
 18 13  1  0
 22  6  1  0
  1 23  1  0
  1 24  1  0
  1 25  1  0
  2 26  1  0
  2 27  1  0
  5 28  1  0
  8 29  1  0
 11 30  1  0
 11 31  1  0
 11 32  1  0
 14 33  1  0
 15 34  1  0
 16 35  1  0
 17 36  1  0
 21 37  1  0
 21 38  1  0
 22 39  1  0
 22 40  1  0
M  END
>  <UniqueID>  (14) 
13

>  <SMILES>  (14) 
CCOc1cc2c(cc1OC)C(c1ccccc1F)=NCC2

>  <Energy>  (14) 
47.43510520059721

>  <Genealogy>  (14) 
CCOc1cc2c(cc1OC)C(c1ccccc1F)=NCC2 (3D coordinates assigned)
CCOc1cc2c(cc1OC)C(c1ccccc1F)=NCC2 (nonaromatic ring conformer: 47.43510520059721 kcal/mol)

>  <smiles>  (14) 
CCOc1cc2c(cc1OC)C(c1ccccc1F)=NCC2

>  <score_type>  (14) 
oracle

>  <origin>  (14) 
adg

>  <m_score__min__energy>  (14) 
-8.2699999999999996

>  <m_primary>  (14) 
energy

$$$$
14:0
     RDKit          3D

 41 43  0  0  0  0  0  0  0  0999 V2000
   -0.1100   24.0710  -27.1910 C   0  0  0  0  0  0  0  0  0  0  0  0
   -0.2240   23.8100  -28.5860 O   0  0  0  0  0  0  0  0  0  0  0  0
   -1.4400   23.7190  -29.2810 C   0  0  0  0  0  0  0  0  0  0  0  0
   -1.8700   22.5230  -29.8910 C   0  0  0  0  0  0  0  0  0  0  0  0
   -3.0970   22.4750  -30.5790 C   0  0  0  0  0  0  0  0  0  0  0  0
   -3.5600   21.3060  -31.2050 C   0  0  0  0  0  0  0  0  0  0  0  0
   -2.8670   20.2500  -31.1760 O   0  0  0  0  0  0  0  0  0  0  0  0
   -4.7940   21.3210  -31.8800 C   0  0  0  0  0  0  0  0  0  0  0  0
   -5.2770   20.1040  -32.5710 C   0  0  0  0  0  0  0  0  0  0  0  0
   -4.5590   19.5730  -33.6510 C   0  0  0  0  0  0  0  0  0  0  0  0
   -5.0070   18.4190  -34.2950 C   0  0  0  0  0  0  0  0  0  0  0  0
   -6.1810   17.7710  -33.8640 C   0  0  0  0  0  0  0  0  0  0  0  0
   -6.6620   16.6090  -34.4870 O   0  0  0  0  0  0  0  0  0  0  0  0
   -6.2720   15.2860  -34.1350 C   0  0  0  0  0  0  0  0  0  0  0  0
   -6.9010   18.2940  -32.7770 C   0  0  0  0  0  0  0  0  0  0  0  0
   -8.0660   17.6260  -32.3670 O   0  0  0  0  0  0  0  0  0  0  0  0
   -9.0990   18.2120  -31.5830 C   0  0  0  0  0  0  0  0  0  0  0  0
   -6.4430   19.4600  -32.1340 C   0  0  0  0  0  0  0  0  0  0  0  0
   -5.5380   22.5240  -31.8930 C   0  0  0  0  0  0  0  0  0  0  0  0
   -6.8200   22.6060  -32.5240 N   0  0  0  0  0  0  0  0  0  0  0  0
   -5.0580   23.6110  -31.2950 O   0  0  0  0  0  0  0  0  0  0  0  0
   -3.8960   23.6350  -30.6540 C   0  0  0  0  0  0  0  0  0  0  0  0
   -3.4660   24.8190  -30.0500 C   0  0  0  0  0  0  0  0  0  0  0  0
   -2.2470   24.8620  -29.3680 C   0  0  0  0  0  0  0  0  0  0  0  0
   -1.8360   26.0490  -28.7720 O   0  0  0  0  0  0  0  0  0  0  0  0
   -0.4874   23.2070  -26.6243 H   0  0  0  0  0  0  0  0  0  0  0  0
    0.9458   24.2443  -26.9355 H   0  0  0  0  0  0  0  0  0  0  0  0
   -0.7003   24.9633  -26.9355 H   0  0  0  0  0  0  0  0  0  0  0  0
   -1.2426   21.6216  -29.8289 H   0  0  0  0  0  0  0  0  0  0  0  0
   -3.6381   20.0682  -33.9926 H   0  0  0  0  0  0  0  0  0  0  0  0
   -4.4394   18.0126  -35.1451 H   0  0  0  0  0  0  0  0  0  0  0  0
   -6.2441   15.1912  -33.0394 H   0  0  0  0  0  0  0  0  0  0  0  0
   -6.9968   14.5683  -34.5468 H   0  0  0  0  0  0  0  0  0  0  0  0
   -5.2738   15.0762  -34.5468 H   0  0  0  0  0  0  0  0  0  0  0  0
   -8.8682   18.0811  -30.5155 H   0  0  0  0  0  0  0  0  0  0  0  0
   -9.1705   19.2851  -31.8138 H   0  0  0  0  0  0  0  0  0  0  0  0
  -10.0568   17.7227  -31.8138 H   0  0  0  0  0  0  0  0  0  0  0  0
   -7.0050   19.8691  -31.2814 H   0  0  0  0  0  0  0  0  0  0  0  0
   -7.6950   22.2840  -32.0560 H   0  0  0  0  0  0  0  0  0  0  0  0
   -6.9040   23.0550  -33.4620 H   0  0  0  0  0  0  0  0  0  0  0  0
   -4.0904   25.7225  -30.1116 H   0  0  0  0  0  0  0  0  0  0  0  0
  1  2  1  0
  2  3  1  0
  3  4  2  0
  4  5  1  0
  5  6  1  0
  6  7  2  0
  6  8  1  0
  8  9  1  0
  9 10  2  0
 10 11  1  0
 11 12  2  0
 12 13  1  0
 13 14  1  0
 12 15  1  0
 15 16  1  0
 16 17  1  0
 15 18  2  0
  8 19  2  0
 19 20  1  0
 19 21  1  0
 21 22  1  0
 22 23  1  0
 23 24  2  0
 24 25  1  0
 24  3  1  0
 22  5  2  0
 18  9  1  0
  1 26  1  0
  1 27  1  0
  1 28  1  0
  4 29  1  0
 10 30  1  0
 11 31  1  0
 14 32  1  0
 14 33  1  0
 14 34  1  0
 17 35  1  0
 17 36  1  0
 17 37  1  0
 18 38  1  0
 20 39  1  0
 20 40  1  0
 23 41  1  0
M  CHG  1  25  -1
M  END
>  <UniqueID>  (15) 
14

>  <SMILES>  (15) 
COc1cc2c(=O)c(-c3ccc(OC)c(OC)c3)c(N)oc2cc1[O-]

>  <Energy>  (15) 
55.179796384571716

>  <Genealogy>  (15) 
COc1cc2c(=O)c(-c3ccc(OC)c(OC)c3)c(N)oc2cc1[O-] (protonated)
COc1cc2c(=O)c(-c3ccc(OC)c(OC)c3)c(N)oc2cc1[O-] (3D coordinates assigned)
COc1cc2c(=O)c(-c3ccc(OC)c(OC)c3)c(N)oc2cc1[O-] (optimized conformer: 55.179796384571716 kcal/mol)

>  <smiles>  (15) 
COc1cc2c(=O)c(-c3ccc(OC)c(OC)c3)c(N)oc2cc1O

>  <score_type>  (15) 
oracle

>  <origin>  (15) 
adg

>  <m_score__min__energy>  (15) 
-8.6799999999999997

>  <m_primary>  (15) 
energy

$$$$
15:0
     RDKit          3D

 55 58  0  0  0  0  0  0  0  0999 V2000
   -0.0530   20.4450  -29.5810 C   0  0  0  0  0  0  0  0  0  0  0  0
   -0.5110   21.4290  -30.4820 O   0  0  0  0  0  0  0  0  0  0  0  0
   -1.4950   20.8910  -31.3430 C   0  0  0  0  0  0  0  0  0  0  0  0
   -1.3750   21.5090  -32.7360 C   0  0  0  0  0  0  0  0  0  0  0  0
   -2.6620   21.8710  -33.2310 O   0  0  0  0  0  0  0  0  0  0  0  0
   -3.8040   21.0920  -33.0120 C   0  0  0  0  0  0  0  0  0  0  0  0
   -4.8950   21.5830  -32.2760 C   0  0  0  0  0  0  0  0  0  0  0  0
   -4.8630   22.9130  -31.6250 C   0  0  0  0  0  0  0  0  0  0  0  0
   -5.4470   23.8790  -32.1890 O   0  0  0  0  0  0  0  0  0  0  0  0
   -4.1820   23.1290  -30.3720 N   0  0  0  0  0  0  0  0  0  0  0  0
   -3.6090   24.4560  -30.0940 C   0  0  0  0  0  0  0  0  0  0  0  0
   -3.0880   24.5690  -28.6570 C   0  0  0  0  0  0  0  0  0  0  0  0
   -2.3280   23.3670  -28.2840 N   0  0  0  0  0  0  0  0  0  0  0  0
   -1.1670   23.4770  -27.4350 C   0  0  0  0  0  0  0  0  0  0  0  0
   -1.0900   22.7510  -26.2310 C   0  0  0  0  0  0  0  0  0  0  0  0
    0.0350   22.8620  -25.4080 C   0  0  0  0  0  0  0  0  0  0  0  0
    1.0920   23.6980  -25.7740 C   0  0  0  0  0  0  0  0  0  0  0  0
    1.0260   24.4270  -26.9630 C   0  0  0  0  0  0  0  0  0  0  0  0
   -0.0960   24.3180  -27.7910 C   0  0  0  0  0  0  0  0  0  0  0  0
   -2.8490   22.0330  -28.6220 C   0  0  0  0  0  0  0  0  0  0  0  0
   -4.2170   22.1160  -29.3080 C   0  0  0  0  0  0  0  0  0  0  0  0
   -6.0380   20.7900  -32.1470 C   0  0  0  0  0  0  0  0  0  0  0  0
   -6.0760   19.4980  -32.7030 C   0  0  0  0  0  0  0  0  0  0  0  0
   -7.2290   18.6900  -32.5600 C   0  0  0  0  0  0  0  0  0  0  0  0
   -8.6790   19.2300  -31.7130 Cl  0  0  0  0  0  0  0  0  0  0  0  0
   -7.2370   17.4100  -33.1070 C   0  0  0  0  0  0  0  0  0  0  0  0
   -6.1230   16.9350  -33.7850 C   0  0  0  0  0  0  0  0  0  0  0  0
   -4.9990   17.7470  -33.9150 C   0  0  0  0  0  0  0  0  0  0  0  0
   -4.9740   19.0130  -33.3820 N   0  0  0  0  0  0  0  0  0  0  0  0
   -3.8510   19.7950  -33.5350 C   0  0  0  0  0  0  0  0  0  0  0  0
   -2.8440   19.3620  -34.1630 O   0  0  0  0  0  0  0  0  0  0  0  0
   -0.2135   20.7898  -28.5488 H   0  0  0  0  0  0  0  0  0  0  0  0
   -0.6085   19.5099  -29.7458 H   0  0  0  0  0  0  0  0  0  0  0  0
    1.0201   20.2679  -29.7458 H   0  0  0  0  0  0  0  0  0  0  0  0
   -1.3575   19.8021  -31.4159 H   0  0  0  0  0  0  0  0  0  0  0  0
   -2.4909   21.1182  -30.9349 H   0  0  0  0  0  0  0  0  0  0  0  0
   -0.7420   22.4069  -32.6810 H   0  0  0  0  0  0  0  0  0  0  0  0
   -0.9253   20.7710  -33.4165 H   0  0  0  0  0  0  0  0  0  0  0  0
   -2.7752   24.6350  -30.7888 H   0  0  0  0  0  0  0  0  0  0  0  0
   -4.4053   25.2034  -30.2256 H   0  0  0  0  0  0  0  0  0  0  0  0
   -2.4330   25.4492  -28.5785 H   0  0  0  0  0  0  0  0  0  0  0  0
   -3.9463   24.6702  -27.9765 H   0  0  0  0  0  0  0  0  0  0  0  0
   -1.9201   22.0923  -25.9360 H   0  0  0  0  0  0  0  0  0  0  0  0
    0.0875   22.2895  -24.4702 H   0  0  0  0  0  0  0  0  0  0  0  0
    1.9766   23.7822  -25.1256 H   0  0  0  0  0  0  0  0  0  0  0  0
    1.8575   25.0879  -27.2489 H   0  0  0  0  0  0  0  0  0  0  0  0
   -0.1417   24.8937  -28.7272 H   0  0  0  0  0  0  0  0  0  0  0  0
   -2.1401   21.5345  -29.2995 H   0  0  0  0  0  0  0  0  0  0  0  0
   -2.9677   21.4644  -27.6879 H   0  0  0  0  0  0  0  0  0  0  0  0
   -4.4664   21.1374  -29.7441 H   0  0  0  0  0  0  0  0  0  0  0  0
   -4.9783   22.3968  -28.5653 H   0  0  0  0  0  0  0  0  0  0  0  0
   -6.9142   21.1783  -31.6071 H   0  0  0  0  0  0  0  0  0  0  0  0
   -8.1281   16.7737  -33.0017 H   0  0  0  0  0  0  0  0  0  0  0  0
   -6.1278   15.9234  -34.2170 H   0  0  0  0  0  0  0  0  0  0  0  0
   -4.1173   17.3687  -34.4530 H   0  0  0  0  0  0  0  0  0  0  0  0
  1  2  1  0
  2  3  1  0
  3  4  1  0
  4  5  1  0
  5  6  1  0
  6  7  2  0
  7  8  1  0
  8  9  2  0
  8 10  1  0
 10 11  1  0
 11 12  1  0
 12 13  1  0
 13 14  1  0
 14 15  2  0
 15 16  1  0
 16 17  2  0
 17 18  1  0
 18 19  2  0
 13 20  1  0
 20 21  1  0
  7 22  1  0
 22 23  2  0
 23 24  1  0
 24 25  1  0
 24 26  2  0
 26 27  1  0
 27 28  2  0
 28 29  1  0
 29 30  1  0
 30 31  2  0
 30  6  1  0
 21 10  1  0
 29 23  1  0
 19 14  1  0
  1 32  1  0
  1 33  1  0
  1 34  1  0
  3 35  1  0
  3 36  1  0
  4 37  1  0
  4 38  1  0
 11 39  1  0
 11 40  1  0
 12 41  1  0
 12 42  1  0
 15 43  1  0
 16 44  1  0
 17 45  1  0
 18 46  1  0
 19 47  1  0
 20 48  1  0
 20 49  1  0
 21 50  1  0
 21 51  1  0
 22 52  1  0
 26 53  1  0
 27 54  1  0
 28 55  1  0
M  END
>  <UniqueID>  (16) 
15

>  <SMILES>  (16) 
COCCOc1c(C(=O)N2CCN(c3ccccc3)CC2)cc2c(Cl)cccn2c1=O

>  <Energy>  (16) 
81.27962513955836

>  <Genealogy>  (16) 
COCCOc1c(C(=O)N2CCN(c3ccccc3)CC2)cc2c(Cl)cccn2c1=O (3D coordinates assigned)
COCCOc1c(C(=O)N2CCN(c3ccccc3)CC2)cc2c(Cl)cccn2c1=O (nonaromatic ring conformer: 81.27962513955836 kcal/mol)

>  <smiles>  (16) 
COCCOc1c(C(=O)N2CCN(c3ccccc3)CC2)cc2c(Cl)cccn2c1=O

>  <score_type>  (16) 
oracle

>  <origin>  (16) 
adg

>  <m_score__min__energy>  (16) 
-9.1500000000000004

>  <m_primary>  (16) 
energy

$$$$
16:0
     RDKit          3D

 37 39  0  0  0  0  0  0  0  0999 V2000
   -3.8440   22.3090  -28.5030 C   0  0  0  0  0  0  0  0  0  0  0  0
   -4.1370   22.8160  -29.8020 O   0  0  0  0  0  0  0  0  0  0  0  0
   -3.6160   22.2940  -30.9980 C   0  0  0  0  0  0  0  0  0  0  0  0
   -2.2350   22.0680  -31.1680 C   0  0  0  0  0  0  0  0  0  0  0  0
   -1.7490   21.5270  -32.3600 C   0  0  0  0  0  0  0  0  0  0  0  0
   -2.6270   21.2090  -33.3960 C   0  0  0  0  0  0  0  0  0  0  0  0
   -3.9970   21.4330  -33.2440 C   0  0  0  0  0  0  0  0  0  0  0  0
   -4.5020   21.9710  -32.0480 C   0  0  0  0  0  0  0  0  0  0  0  0
   -5.9590   22.2060  -31.9100 C   0  0  0  0  0  0  0  0  0  0  0  0
   -6.5310   23.4100  -31.5420 C   0  0  0  0  0  0  0  0  0  0  0  0
   -7.8990   23.2310  -31.5920 C   0  0  0  0  0  0  0  0  0  0  0  0
   -8.1100   21.9210  -31.9780 C   0  0  0  0  0  0  0  0  0  0  0  0
   -9.4600   21.2920  -32.1440 C   0  0  0  0  0  0  0  0  0  0  0  0
   -6.9270   21.2980  -32.1870 N   0  0  0  0  0  0  0  0  0  0  0  0
   -6.7380   19.9150  -32.5390 C   0  0  0  0  0  0  0  0  0  0  0  0
   -6.9730   18.9060  -31.5910 C   0  0  0  0  0  0  0  0  0  0  0  0
   -6.7750   17.5640  -31.9280 C   0  0  0  0  0  0  0  0  0  0  0  0
   -6.3420   17.2210  -33.2120 C   0  0  0  0  0  0  0  0  0  0  0  0
   -6.1050   18.2210  -34.1600 C   0  0  0  0  0  0  0  0  0  0  0  0
   -5.6790   17.8870  -35.4040 F   0  0  0  0  0  0  0  0  0  0  0  0
   -6.3010   19.5640  -33.8260 C   0  0  0  0  0  0  0  0  0  0  0  0
   -4.2417   22.9971  -27.7425 H   0  0  0  0  0  0  0  0  0  0  0  0
   -4.3097   21.3198  -28.3818 H   0  0  0  0  0  0  0  0  0  0  0  0
   -2.7544   22.2186  -28.3818 H   0  0  0  0  0  0  0  0  0  0  0  0
   -1.5360   22.3194  -30.3567 H   0  0  0  0  0  0  0  0  0  0  0  0
   -0.6701   21.3510  -32.4824 H   0  0  0  0  0  0  0  0  0  0  0  0
   -2.2403   20.7817  -34.3329 H   0  0  0  0  0  0  0  0  0  0  0  0
   -4.6854   21.1867  -34.0659 H   0  0  0  0  0  0  0  0  0  0  0  0
   -5.9991   24.3317  -31.2634 H   0  0  0  0  0  0  0  0  0  0  0  0
   -8.6697   23.9834  -31.3685 H   0  0  0  0  0  0  0  0  0  0  0  0
   -9.8944   21.0896  -31.1539 H   0  0  0  0  0  0  0  0  0  0  0  0
  -10.1176   21.9765  -32.7000 H   0  0  0  0  0  0  0  0  0  0  0  0
   -9.3589   20.3482  -32.7000 H   0  0  0  0  0  0  0  0  0  0  0  0
   -7.3141   19.1727  -30.5798 H   0  0  0  0  0  0  0  0  0  0  0  0
   -6.9601   16.7771  -31.1820 H   0  0  0  0  0  0  0  0  0  0  0  0
   -6.1877   16.1645  -33.4766 H   0  0  0  0  0  0  0  0  0  0  0  0
   -6.1122   20.3482  -34.5739 H   0  0  0  0  0  0  0  0  0  0  0  0
  1  2  1  0
  2  3  1  0
  3  4  2  0
  4  5  1  0
  5  6  2  0
  6  7  1  0
  7  8  2  0
  8  9  1  0
  9 10  2  0
 10 11  1  0
 11 12  2  0
 12 13  1  0
 12 14  1  0
 14 15  1  0
 15 16  2  0
 16 17  1  0
 17 18  2  0
 18 19  1  0
 19 20  1  0
 19 21  2  0
  8  3  1  0
 14  9  1  0
 21 15  1  0
  1 22  1  0
  1 23  1  0
  1 24  1  0
  4 25  1  0
  5 26  1  0
  6 27  1  0
  7 28  1  0
 10 29  1  0
 11 30  1  0
 13 31  1  0
 13 32  1  0
 13 33  1  0
 16 34  1  0
 17 35  1  0
 18 36  1  0
 21 37  1  0
M  END
>  <UniqueID>  (17) 
16

>  <SMILES>  (17) 
COc1ccccc1-c1ccc(C)n1-c1cccc(F)c1

>  <Energy>  (17) 
74.79402620368973

>  <Genealogy>  (17) 
COc1ccccc1-c1ccc(C)n1-c1cccc(F)c1 (3D coordinates assigned)
COc1ccccc1-c1ccc(C)n1-c1cccc(F)c1 (optimized conformer: 74.79402620368973 kcal/mol)

>  <smiles>  (17) 
COc1ccccc1-c1ccc(C)n1-c1cccc(F)c1

>  <score_type>  (17) 
oracle

>  <origin>  (17) 
adg

>  <m_score__min__energy>  (17) 
-7.0999999999999996

>  <m_primary>  (17) 
energy

$$$$
17:0
     RDKit          3D

 52 52  0  0  0  0  0  0  0  0999 V2000
   -2.4360   18.4830  -33.1220 C   0  0  0  0  0  0  0  0  0  0  0  0
   -2.3200   19.5470  -34.2170 C   0  0  0  0  0  0  0  0  0  0  0  0
   -2.2290   20.9320  -33.6740 N   0  0  0  0  0  0  0  0  0  0  0  0
   -0.8790   21.5300  -33.8790 C   0  0  0  0  0  0  0  0  0  0  0  0
   -0.1010   20.9630  -35.0770 C   0  0  0  0  0  0  0  0  0  0  0  0
   -2.6240   20.9740  -32.2350 C   0  0  0  0  0  0  0  0  0  0  0  0
   -4.1560   21.1070  -31.9700 C   0  0  1  0  0  0  0  0  0  0  0  0
   -4.5380   22.0830  -30.8190 C   0  0  0  0  0  0  0  0  0  0  0  0
   -3.9300   23.5030  -30.8480 C   0  0  0  0  0  0  0  0  0  0  0  0
   -4.9210   24.5390  -31.2140 N   0  0  0  0  0  0  0  0  0  0  0  0
   -5.3860   25.2850  -30.0290 C   0  0  0  0  0  0  0  0  0  0  0  0
   -6.0800   23.9140  -31.8740 C   0  0  0  0  0  0  0  0  0  0  0  0
   -4.9200   21.3530  -33.2140 N   0  0  0  0  0  0  0  0  0  0  0  0
   -6.3030   20.8590  -33.1520 C   0  0  0  0  0  0  0  0  0  0  0  0
   -6.3250   19.3650  -33.3410 C   0  0  0  0  0  0  0  0  0  0  0  0
   -6.8850   18.5270  -32.3630 C   0  0  0  0  0  0  0  0  0  0  0  0
   -6.8740   17.1400  -32.5350 C   0  0  0  0  0  0  0  0  0  0  0  0
   -6.3010   16.5800  -33.6810 C   0  0  0  0  0  0  0  0  0  0  0  0
   -5.7390   17.4080  -34.6560 C   0  0  0  0  0  0  0  0  0  0  0  0
   -5.7490   18.7950  -34.4890 C   0  0  0  0  0  0  0  0  0  0  0  0
   -2.3834   18.9655  -32.1349 H   0  0  0  0  0  0  0  0  0  0  0  0
   -3.3968   17.9569  -33.2223 H   0  0  0  0  0  0  0  0  0  0  0  0
   -1.6111   17.7622  -33.2223 H   0  0  0  0  0  0  0  0  0  0  0  0
   -1.4165   19.3427  -34.8103 H   0  0  0  0  0  0  0  0  0  0  0  0
   -3.2329   19.4919  -34.8282 H   0  0  0  0  0  0  0  0  0  0  0  0
   -2.8980   21.5300  -34.2120 H   0  0  0  0  0  0  0  0  0  0  0  0
   -1.0032   22.6122  -34.0322 H   0  0  0  0  0  0  0  0  0  0  0  0
   -0.2910   21.2847  -32.9823 H   0  0  0  0  0  0  0  0  0  0  0  0
    0.7379   20.3516  -34.7132 H   0  0  0  0  0  0  0  0  0  0  0  0
   -0.7710   20.3400  -35.6876 H   0  0  0  0  0  0  0  0  0  0  0  0
    0.2869   21.7916  -35.6876 H   0  0  0  0  0  0  0  0  0  0  0  0
   -2.2758   20.0453  -31.7593 H   0  0  0  0  0  0  0  0  0  0  0  0
   -2.1623   21.8812  -31.8182 H   0  0  0  0  0  0  0  0  0  0  0  0
   -4.4631   20.1204  -31.5927 H   0  0  0  0  0  0  0  0  0  0  0  0
   -5.6323   22.1942  -30.8325 H   0  0  0  0  0  0  0  0  0  0  0  0
   -4.1195   21.6206  -29.9129 H   0  0  0  0  0  0  0  0  0  0  0  0
   -3.5297   23.7353  -29.8501 H   0  0  0  0  0  0  0  0  0  0  0  0
   -3.1406   23.5118  -31.6140 H   0  0  0  0  0  0  0  0  0  0  0  0
   -5.0610   24.7635  -29.1166 H   0  0  0  0  0  0  0  0  0  0  0  0
   -4.9597   26.2989  -30.0435 H   0  0  0  0  0  0  0  0  0  0  0  0
   -6.4841   25.3487  -30.0435 H   0  0  0  0  0  0  0  0  0  0  0  0
   -6.7775   23.5378  -31.1111 H   0  0  0  0  0  0  0  0  0  0  0  0
   -6.5903   24.6592  -32.5019 H   0  0  0  0  0  0  0  0  0  0  0  0
   -5.7377   23.0782  -32.5019 H   0  0  0  0  0  0  0  0  0  0  0  0
   -4.9410   22.3680  -33.4540 H   0  0  0  0  0  0  0  0  0  0  0  0
   -6.7354   21.1086  -32.1719 H   0  0  0  0  0  0  0  0  0  0  0  0
   -6.8920   21.3329  -33.9511 H   0  0  0  0  0  0  0  0  0  0  0  0
   -7.3338   18.9637  -31.4586 H   0  0  0  0  0  0  0  0  0  0  0  0
   -7.3168   16.4879  -31.7677 H   0  0  0  0  0  0  0  0  0  0  0  0
   -6.2927   15.4882  -33.8148 H   0  0  0  0  0  0  0  0  0  0  0  0
   -5.2877   16.9669  -35.5570 H   0  0  0  0  0  0  0  0  0  0  0  0
   -5.3045   19.4430  -35.2587 H   0  0  0  0  0  0  0  0  0  0  0  0
  1  2  1  0
  2  3  1  0
  3  4  1  0
  4  5  1  0
  3  6  1  0
  6  7  1  0
  7  8  1  0
  8  9  1  0
  9 10  1  0
 10 11  1  0
 10 12  1  0
  7 13  1  0
 13 14  1  0
 14 15  1  0
 15 16  2  0
 16 17  1  0
 17 18  2  0
 18 19  1  0
 19 20  2  0
 20 15  1  0
  1 21  1  0
  1 22  1  0
  1 23  1  0
  2 24  1  0
  2 25  1  0
  3 26  1  0
  4 27  1  0
  4 28  1  0
  5 29  1  0
  5 30  1  0
  5 31  1  0
  6 32  1  0
  6 33  1  0
  7 34  1  1
  8 35  1  0
  8 36  1  0
  9 37  1  0
  9 38  1  0
 11 39  1  0
 11 40  1  0
 11 41  1  0
 12 42  1  0
 12 43  1  0
 12 44  1  0
 13 45  1  0
 14 46  1  0
 14 47  1  0
 16 48  1  0
 17 49  1  0
 18 50  1  0
 19 51  1  0
 20 52  1  0
M  CHG  1   3   1
M  END
>  <UniqueID>  (18) 
17

>  <SMILES>  (18) 
CC[NH+](CC)C[C@@H](CCN(C)C)NCc1ccccc1

>  <Energy>  (18) 
57.558624761540116

>  <Genealogy>  (18) 
CC[NH+](CC)CC(CCN(C)C)NCc1ccccc1 (protonated)
CC[NH+](CC)C[C@@H](CCN(C)C)NCc1ccccc1 (chirality)
CC[NH+](CC)C[C@@H](CCN(C)C)NCc1ccccc1 (3D coordinates assigned)
CC[NH+](CC)C[C@@H](CCN(C)C)NCc1ccccc1 (optimized conformer: 57.558624761540116 kcal/mol)

>  <smiles>  (18) 
CCN(CC)CC(CCN(C)C)NCc1ccccc1

>  <score_type>  (18) 
oracle

>  <origin>  (18) 
adg

>  <m_score__min__energy>  (18) 
-5.9800000000000004

>  <m_primary>  (18) 
energy

$$$$
18:0
     RDKit          3D

 38 39  0  0  0  0  0  0  0  0999 V2000
   -8.7630   18.1810  -31.9880 C   0  0  0  0  0  0  0  0  0  0  0  0
   -7.6570   19.0960  -32.3150 N   0  0  0  0  0  0  0  0  0  0  0  0
   -6.4870   18.5540  -32.7670 C   0  0  0  0  0  0  0  0  0  0  0  0
   -5.3990   19.3560  -33.0940 C   0  0  0  0  0  0  0  0  0  0  0  0
   -5.4840   20.7440  -32.9670 C   0  0  0  0  0  0  0  0  0  0  0  0
   -4.3360   21.5580  -33.2710 N   0  0  0  0  0  0  0  0  0  0  0  0
   -3.3570   21.9560  -32.2590 C   0  0  0  0  0  0  0  0  0  0  0  0
   -2.0240   21.2100  -32.4590 C   0  0  0  0  0  0  0  0  0  0  0  0
   -1.7540   20.8520  -33.8740 N   0  0  0  0  0  0  0  0  0  0  0  0
   -2.0190   19.4250  -34.1400 C   0  0  0  0  0  0  0  0  0  0  0  0
   -0.3520   21.1640  -34.2040 C   0  0  0  0  0  0  0  0  0  0  0  0
   -6.6880   21.3160  -32.5040 C   0  0  0  0  0  0  0  0  0  0  0  0
   -6.8380   22.7150  -32.3860 C   0  0  0  0  0  0  0  0  0  0  0  0
   -8.0350   23.2640  -31.9320 C   0  0  0  0  0  0  0  0  0  0  0  0
   -9.1020   22.4380  -31.5950 C   0  0  0  0  0  0  0  0  0  0  0  0
   -8.9850   21.0530  -31.7160 C   0  0  0  0  0  0  0  0  0  0  0  0
   -7.7830   20.4640  -32.1760 C   0  0  0  0  0  0  0  0  0  0  0  0
   -8.8610   18.0999  -30.8954 H   0  0  0  0  0  0  0  0  0  0  0  0
   -9.6997   18.5717  -32.4122 H   0  0  0  0  0  0  0  0  0  0  0  0
   -8.5547   17.1877  -32.4122 H   0  0  0  0  0  0  0  0  0  0  0  0
   -6.4041   17.4624  -32.8743 H   0  0  0  0  0  0  0  0  0  0  0  0
   -4.4675   18.8950  -33.4542 H   0  0  0  0  0  0  0  0  0  0  0  0
   -4.2460   21.9690  -34.2270 H   0  0  0  0  0  0  0  0  0  0  0  0
   -3.1788   23.0387  -32.3367 H   0  0  0  0  0  0  0  0  0  0  0  0
   -3.7558   21.7021  -31.2658 H   0  0  0  0  0  0  0  0  0  0  0  0
   -1.2072   21.8537  -32.1005 H   0  0  0  0  0  0  0  0  0  0  0  0
   -2.0912   20.2688  -31.8936 H   0  0  0  0  0  0  0  0  0  0  0  0
   -2.3600   21.4260  -34.5060 H   0  0  0  0  0  0  0  0  0  0  0  0
   -2.1190   18.8866  -33.1860 H   0  0  0  0  0  0  0  0  0  0  0  0
   -2.9508   19.3263  -34.7161 H   0  0  0  0  0  0  0  0  0  0  0  0
   -1.1847   18.9983  -34.7161 H   0  0  0  0  0  0  0  0  0  0  0  0
    0.2235   21.2921  -33.2753 H   0  0  0  0  0  0  0  0  0  0  0  0
    0.0786   20.3397  -34.7915 H   0  0  0  0  0  0  0  0  0  0  0  0
   -0.3116   22.0931  -34.7915 H   0  0  0  0  0  0  0  0  0  0  0  0
   -6.0020   23.3774  -32.6550 H   0  0  0  0  0  0  0  0  0  0  0  0
   -8.1368   24.3554  -31.8396 H   0  0  0  0  0  0  0  0  0  0  0  0
  -10.0421   22.8785  -31.2315 H   0  0  0  0  0  0  0  0  0  0  0  0
   -9.8376   20.4107  -31.4506 H   0  0  0  0  0  0  0  0  0  0  0  0
  1  2  1  0
  2  3  2  0
  3  4  1  0
  4  5  2  0
  5  6  1  0
  6  7  1  0
  7  8  1  0
  8  9  1  0
  9 10  1  0
  9 11  1  0
  5 12  1  0
 12 13  2  0
 13 14  1  0
 14 15  2  0
 15 16  1  0
 16 17  2  0
 17  2  1  0
 17 12  1  0
  1 18  1  0
  1 19  1  0
  1 20  1  0
  3 21  1  0
  4 22  1  0
  6 23  1  0
  7 24  1  0
  7 25  1  0
  8 26  1  0
  8 27  1  0
  9 28  1  0
 10 29  1  0
 10 30  1  0
 10 31  1  0
 11 32  1  0
 11 33  1  0
 11 34  1  0
 13 35  1  0
 14 36  1  0
 15 37  1  0
 16 38  1  0
M  CHG  2   2   1   9   1
M  END
>  <UniqueID>  (19) 
18

>  <SMILES>  (19) 
C[n+]1ccc(NCC[NH+](C)C)c2ccccc21

>  <Energy>  (19) 
48.1788006694956

>  <Genealogy>  (19) 
C[n+]1ccc(NCC[NH+](C)C)c2ccccc21 (protonated)
C[n+]1ccc(NCC[NH+](C)C)c2ccccc21 (3D coordinates assigned)
C[n+]1ccc(NCC[NH+](C)C)c2ccccc21 (optimized conformer: 48.1788006694956 kcal/mol)

>  <smiles>  (19) 
CN(C)CCNc1cc[n+](C)c2ccccc12

>  <score_type>  (19) 
oracle

>  <origin>  (19) 
adg

>  <m_score__min__energy>  (19) 
-5.4199999999999999

>  <m_primary>  (19) 
energy

$$$$
19:0
     RDKit          3D

 43 44  0  0  0  0  0  0  0  0999 V2000
   -4.6070   18.3700  -34.2090 C   0  0  0  0  0  0  0  0  0  0  0  0
   -4.6320   19.6900  -33.4460 C   0  0  0  0  0  0  0  0  0  0  0  0
   -5.8210   20.4180  -33.7470 O   0  0  0  0  0  0  0  0  0  0  0  0
   -6.8820   20.5350  -32.8430 C   0  0  0  0  0  0  0  0  0  0  0  0
   -7.3030   21.7860  -32.3120 C   0  0  0  0  0  0  0  0  0  0  0  0
   -6.5490   22.9780  -32.6110 N   0  0  0  0  0  0  0  0  0  0  0  0
   -6.5120   24.1640  -31.7550 C   0  0  0  0  0  0  0  0  0  0  0  0
   -5.6490   23.8980  -30.5190 C   0  0  0  0  0  0  0  0  0  0  0  0
   -4.2120   24.0080  -30.8650 N   0  0  0  0  0  0  0  0  0  0  0  0
   -3.6970   22.7410  -31.4330 C   0  0  0  0  0  0  0  0  0  0  0  0
   -4.1970   21.5550  -30.6100 C   0  0  0  0  0  0  0  0  0  0  0  0
   -3.4090   24.4370  -29.6950 C   0  0  0  0  0  0  0  0  0  0  0  0
   -4.1690   24.1610  -28.4000 C   0  0  0  0  0  0  0  0  0  0  0  0
   -8.4260   21.8260  -31.4320 C   0  0  0  0  0  0  0  0  0  0  0  0
   -9.1040   20.6470  -31.0670 C   0  0  0  0  0  0  0  0  0  0  0  0
   -8.6300   19.4530  -31.5940 C   0  0  0  0  0  0  0  0  0  0  0  0
   -9.0830   18.2050  -31.4240 N   0  0  0  0  0  0  0  0  0  0  0  0
   -8.3020   17.4480  -32.1500 O   0  0  0  0  0  0  0  0  0  0  0  0
   -7.3690   18.1120  -32.7880 N   0  0  0  0  0  0  0  0  0  0  0  0
   -7.5700   19.3960  -32.4350 C   0  0  0  0  0  0  0  0  0  0  0  0
   -4.5912   17.5338  -33.4945 H   0  0  0  0  0  0  0  0  0  0  0  0
   -5.5039   18.2950  -34.8414 H   0  0  0  0  0  0  0  0  0  0  0  0
   -3.7079   18.3290  -34.8414 H   0  0  0  0  0  0  0  0  0  0  0  0
   -4.5968   19.4846  -32.3659 H   0  0  0  0  0  0  0  0  0  0  0  0
   -3.7610   20.2911  -33.7460 H   0  0  0  0  0  0  0  0  0  0  0  0
   -5.9400   22.9890  -33.4590 H   0  0  0  0  0  0  0  0  0  0  0  0
   -6.0872   25.0067  -32.3201 H   0  0  0  0  0  0  0  0  0  0  0  0
   -7.5355   24.4056  -31.4325 H   0  0  0  0  0  0  0  0  0  0  0  0
   -5.8927   24.6355  -29.7401 H   0  0  0  0  0  0  0  0  0  0  0  0
   -5.8528   22.8817  -30.1508 H   0  0  0  0  0  0  0  0  0  0  0  0
   -4.0484   22.6380  -32.4703 H   0  0  0  0  0  0  0  0  0  0  0  0
   -2.5974   22.7570  -31.4101 H   0  0  0  0  0  0  0  0  0  0  0  0
   -4.1000   21.7852  -29.5387 H   0  0  0  0  0  0  0  0  0  0  0  0
   -5.2531   21.3618  -30.8493 H   0  0  0  0  0  0  0  0  0  0  0  0
   -3.5979   20.6640  -30.8493 H   0  0  0  0  0  0  0  0  0  0  0  0
   -2.4594   23.8820  -29.6836 H   0  0  0  0  0  0  0  0  0  0  0  0
   -3.2139   25.5168  -29.7718 H   0  0  0  0  0  0  0  0  0  0  0  0
   -3.5247   24.3950  -27.5397 H   0  0  0  0  0  0  0  0  0  0  0  0
   -5.0715   24.7888  -28.3636 H   0  0  0  0  0  0  0  0  0  0  0  0
   -4.4584   23.1004  -28.3636 H   0  0  0  0  0  0  0  0  0  0  0  0
   -8.7671   22.7926  -31.0328 H   0  0  0  0  0  0  0  0  0  0  0  0
   -9.9727   20.6709  -30.3926 H   0  0  0  0  0  0  0  0  0  0  0  0
   -9.8890   17.8820  -30.8450 H   0  0  0  0  0  0  0  0  0  0  0  0
  1  2  1  0
  2  3  1  0
  3  4  1  0
  4  5  2  0
  5  6  1  0
  6  7  1  0
  7  8  1  0
  8  9  1  0
  9 10  1  0
 10 11  1  0
  9 12  1  0
 12 13  1  0
  5 14  1  0
 14 15  2  0
 15 16  1  0
 16 17  2  0
 17 18  1  0
 18 19  1  0
 19 20  2  0
 20  4  1  0
 20 16  1  0
  1 21  1  0
  1 22  1  0
  1 23  1  0
  2 24  1  0
  2 25  1  0
  6 26  1  0
  7 27  1  0
  7 28  1  0
  8 29  1  0
  8 30  1  0
 10 31  1  0
 10 32  1  0
 11 33  1  0
 11 34  1  0
 11 35  1  0
 12 36  1  0
 12 37  1  0
 13 38  1  0
 13 39  1  0
 13 40  1  0
 14 41  1  0
 15 42  1  0
 17 43  1  0
M  CHG  1  17   1
M  END
>  <UniqueID>  (20) 
19

>  <SMILES>  (20) 
CCOc1c(NCCN(CC)CC)ccc2[nH+]onc12

>  <Energy>  (20) 
87.77633756869919

>  <Genealogy>  (20) 
CCOc1c(NCCN(CC)CC)ccc2[nH+]onc12 (protonated)
CCOc1c(NCCN(CC)CC)ccc2[nH+]onc12 (3D coordinates assigned)
CCOc1c(NCCN(CC)CC)ccc2[nH+]onc12 (optimized conformer: 87.77633756869919 kcal/mol)

>  <smiles>  (20) 
CCOc1c(NCCN(CC)CC)ccc2nonc12

>  <score_type>  (20) 
oracle

>  <origin>  (20) 
adg

>  <m_score__min__energy>  (20) 
-6.8300000000000001

>  <m_primary>  (20) 
energy

$$$$
20:0
     RDKit          3D

 38 39  0  0  0  0  0  0  0  0999 V2000
   -4.4768   21.7545  -29.5643 H   0  0  0  0  0  0  0  0  0  0  0  0
   -4.5630   22.8410  -29.4160 C   0  0  0  0  0  0  0  0  0  0  0  0
   -5.7530   23.3730  -29.4240 N   0  0  0  0  0  0  0  0  0  0  0  0
   -6.6840   23.4140  -30.5530 C   0  0  0  0  0  0  0  0  0  0  0  0
   -6.1164   23.2808  -31.4858 H   0  0  0  0  0  0  0  0  0  0  0  0
   -7.1973   24.3867  -30.5335 H   0  0  0  0  0  0  0  0  0  0  0  0
   -7.7500   22.3160  -30.4620 C   0  0  0  0  0  0  0  0  0  0  0  0
   -8.5937   22.6795  -29.8570 H   0  0  0  0  0  0  0  0  0  0  0  0
   -7.3050   21.4252  -29.9946 H   0  0  0  0  0  0  0  0  0  0  0  0
   -8.2390   21.9550  -31.8150 N   0  0  0  0  0  0  0  0  0  0  0  0
   -9.3130   20.9340  -31.7910 C   0  0  0  0  0  0  0  0  0  0  0  0
   -9.9690   21.0956  -32.6591 H   0  0  0  0  0  0  0  0  0  0  0  0
   -9.8530   21.0484  -30.8395 H   0  0  0  0  0  0  0  0  0  0  0  0
   -8.7750   19.4870  -31.8440 C   0  0  0  0  0  0  0  0  0  0  0  0
   -8.8209   19.1216  -32.8805 H   0  0  0  0  0  0  0  0  0  0  0  0
   -9.3931   18.8538  -31.1906 H   0  0  0  0  0  0  0  0  0  0  0  0
   -7.3800   19.4370  -31.3740 N   0  0  0  0  0  0  0  0  0  0  0  0
   -6.9290   18.0330  -31.2480 C   0  0  0  0  0  0  0  0  0  0  0  0
   -7.7097   17.4497  -30.7379 H   0  0  0  0  0  0  0  0  0  0  0  0
   -5.9936   18.0182  -30.6694 H   0  0  0  0  0  0  0  0  0  0  0  0
   -6.6600   17.4140  -32.6190 C   0  0  0  0  0  0  0  0  0  0  0  0
   -6.2246   16.4121  -32.4899 H   0  0  0  0  0  0  0  0  0  0  0  0
   -7.6046   17.3342  -33.1770 H   0  0  0  0  0  0  0  0  0  0  0  0
   -5.9572   18.0501  -33.1770 H   0  0  0  0  0  0  0  0  0  0  0  0
   -6.5030   20.2100  -32.2840 C   0  0  0  0  0  0  0  0  0  0  0  0
   -6.3015   19.6052  -33.1805 H   0  0  0  0  0  0  0  0  0  0  0  0
   -5.5747   20.4430  -31.7418 H   0  0  0  0  0  0  0  0  0  0  0  0
   -7.1470   21.5460  -32.7190 C   0  0  0  0  0  0  0  0  0  0  0  0
   -7.5520   21.4304  -33.7352 H   0  0  0  0  0  0  0  0  0  0  0  0
   -6.3699   22.3238  -32.6857 H   0  0  0  0  0  0  0  0  0  0  0  0
   -3.3290   23.6180  -29.2190 C   0  0  0  0  0  0  0  0  0  0  0  0
   -3.0270   24.8810  -29.6870 C   0  0  0  0  0  0  0  0  0  0  0  0
   -3.8610   25.6640  -30.4760 O   0  0  0  0  0  0  0  0  0  0  0  0
   -1.8210   25.3020  -29.2500 N   0  0  0  0  0  0  0  0  0  0  0  0
   -1.3520   24.3010  -28.4750 C   0  0  0  0  0  0  0  0  0  0  0  0
   -0.3821   24.3091  -27.9562 H   0  0  0  0  0  0  0  0  0  0  0  0
   -2.2620   23.2680  -28.4270 C   0  0  0  0  0  0  0  0  0  0  0  0
   -2.1190   22.0850  -27.7140 O   0  0  0  0  0  0  0  0  0  0  0  0
  1  2  1  0
  2  3  2  0
  3  4  1  0
  4  5  1  0
  4  6  1  0
  4  7  1  0
  7  8  1  0
  7  9  1  0
  7 10  1  0
 10 11  1  0
 11 12  1  0
 11 13  1  0
 11 14  1  0
 14 15  1  0
 14 16  1  0
 14 17  1  0
 17 18  1  0
 18 19  1  0
 18 20  1  0
 18 21  1  0
 21 22  1  0
 21 23  1  0
 21 24  1  0
 17 25  1  0
 25 26  1  0
 25 27  1  0
 25 28  1  0
 28 29  1  0
 28 30  1  0
  2 31  1  0
 31 32  2  0
 32 33  1  0
 32 34  1  0
 34 35  1  0
 35 36  1  0
 35 37  2  0
 37 38  1  0
 28 10  1  0
 37 31  1  0
M  CHG  3  33  -1  34  -1  38  -1
M  END
>  <UniqueID>  (21) 
20

>  <SMILES>  (21) 
CCN1CCN(CC/N=C\c2c([O-])c[n-]c2[O-])CC1

>  <Energy>  (21) 
79.33492246649152

>  <Genealogy>  (21) 
CCN1CCN(CCN=Cc2c([O-])c[n-]c2[O-])CC1 (protonated)
CCN1CCN(CC/N=C\c2c([O-])c[n-]c2[O-])CC1 (cis-trans isomerization)
CCN1CCN(CC/N=C\c2c([O-])c[n-]c2[O-])CC1 (3D coordinates assigned)
CCN1CCN(CC/N=C\c2c([O-])c[n-]c2[O-])CC1 (nonaromatic ring conformer: 79.33492246649152 kcal/mol)

>  <smiles>  (21) 
CCN1CCN(CCN=Cc2c(O)c[nH]c2O)CC1

>  <score_type>  (21) 
oracle

>  <origin>  (21) 
adg

>  <m_score__min__energy>  (21) 
-11.08

>  <m_primary>  (21) 
energy

$$$$
21:0
     RDKit          3D

 39 41  0  0  0  0  0  0  0  0999 V2000
   -5.9240   18.8420  -34.0570 C   0  0  0  0  0  0  0  0  0  0  0  0
   -6.5060   19.8510  -33.1200 C   0  0  0  0  0  0  0  0  0  0  0  0
   -7.8910   19.9880  -32.9930 C   0  0  0  0  0  0  0  0  0  0  0  0
   -8.3890   20.9590  -32.1210 C   0  0  0  0  0  0  0  0  0  0  0  0
   -9.8620   21.1530  -31.9620 C   0  0  0  0  0  0  0  0  0  0  0  0
   -7.5240   21.7590  -31.4420 N   0  0  0  0  0  0  0  0  0  0  0  0
   -6.1750   21.6290  -31.5800 C   0  0  0  0  0  0  0  0  0  0  0  0
   -5.2770   22.4930  -30.8480 N   0  0  0  0  0  0  0  0  0  0  0  0
   -5.7270   23.1580  -29.6150 C   0  0  0  0  0  0  0  0  0  0  0  0
   -4.5830   23.2490  -28.6030 C   0  0  0  0  0  0  0  0  0  0  0  0
   -3.3670   23.7650  -29.2450 N   0  0  0  0  0  0  0  0  0  0  0  0
   -2.4780   24.6670  -28.5520 C   0  0  0  0  0  0  0  0  0  0  0  0
   -1.5940   25.2970  -29.1950 O   0  0  0  0  0  0  0  0  0  0  0  0
   -2.6070   24.9200  -27.0750 C   0  0  0  0  0  0  0  0  0  0  0  0
   -1.4150   24.4590  -26.2490 C   0  0  0  0  0  0  0  0  0  0  0  0
   -1.6270   25.9390  -26.5100 C   0  0  0  0  0  0  0  0  0  0  0  0
   -2.9170   23.0940  -30.4710 C   0  0  0  0  0  0  0  0  0  0  0  0
   -4.0580   23.0130  -31.4850 C   0  0  0  0  0  0  0  0  0  0  0  0
   -5.6840   20.6770  -32.4210 N   0  0  0  0  0  0  0  0  0  0  0  0
   -5.4565   18.0314  -33.4787 H   0  0  0  0  0  0  0  0  0  0  0  0
   -6.7216   18.4273  -34.6909 H   0  0  0  0  0  0  0  0  0  0  0  0
   -5.1656   19.3248  -34.6909 H   0  0  0  0  0  0  0  0  0  0  0  0
   -8.5742   19.3451  -33.5673 H   0  0  0  0  0  0  0  0  0  0  0  0
  -10.1140   21.1862  -30.8918 H   0  0  0  0  0  0  0  0  0  0  0  0
  -10.1609   22.0983  -32.4386 H   0  0  0  0  0  0  0  0  0  0  0  0
  -10.3954   20.3174  -32.4386 H   0  0  0  0  0  0  0  0  0  0  0  0
   -6.0759   24.1725  -29.8582 H   0  0  0  0  0  0  0  0  0  0  0  0
   -6.5448   22.5697  -29.1733 H   0  0  0  0  0  0  0  0  0  0  0  0
   -4.8755   23.9250  -27.7860 H   0  0  0  0  0  0  0  0  0  0  0  0
   -4.3770   22.2432  -28.2082 H   0  0  0  0  0  0  0  0  0  0  0  0
   -3.6966   24.7773  -27.0259 H   0  0  0  0  0  0  0  0  0  0  0  0
   -1.5707   24.0511  -25.2394 H   0  0  0  0  0  0  0  0  0  0  0  0
   -0.5865   23.7529  -26.4071 H   0  0  0  0  0  0  0  0  0  0  0  0
   -1.9365   26.6032  -25.6896 H   0  0  0  0  0  0  0  0  0  0  0  0
   -1.0159   26.7487  -26.9354 H   0  0  0  0  0  0  0  0  0  0  0  0
   -2.0826   23.6614  -30.9091 H   0  0  0  0  0  0  0  0  0  0  0  0
   -2.5905   22.0741  -30.2197 H   0  0  0  0  0  0  0  0  0  0  0  0
   -4.2589   24.0178  -31.8849 H   0  0  0  0  0  0  0  0  0  0  0  0
   -3.7637   22.3332  -32.2982 H   0  0  0  0  0  0  0  0  0  0  0  0
  1  2  1  0
  2  3  2  0
  3  4  1  0
  4  5  1  0
  4  6  2  0
  6  7  1  0
  7  8  1  0
  8  9  1  0
  9 10  1  0
 10 11  1  0
 11 12  1  0
 12 13  2  0
 12 14  1  0
 14 15  1  0
 15 16  1  0
 11 17  1  0
 17 18  1  0
  7 19  2  0
 19  2  1  0
 18  8  1  0
 16 14  1  0
  1 20  1  0
  1 21  1  0
  1 22  1  0
  3 23  1  0
  5 24  1  0
  5 25  1  0
  5 26  1  0
  9 27  1  0
  9 28  1  0
 10 29  1  0
 10 30  1  0
 14 31  1  0
 15 32  1  0
 15 33  1  0
 16 34  1  0
 16 35  1  0
 17 36  1  0
 17 37  1  0
 18 38  1  0
 18 39  1  0
M  END
>  <UniqueID>  (22) 
21

>  <SMILES>  (22) 
Cc1cc(C)nc(N2CCN(C(=O)C3CC3)CC2)n1

>  <Energy>  (22) 
301.5453435362763

>  <Genealogy>  (22) 
Cc1cc(C)nc(N2CCN(C(=O)C3CC3)CC2)n1 (3D coordinates assigned)
Cc1cc(C)nc(N2CCN(C(=O)C3CC3)CC2)n1 (nonaromatic ring conformer: 301.5453435362763 kcal/mol)

>  <smiles>  (22) 
Cc1cc(C)nc(N2CCN(C(=O)C3CC3)CC2)n1

>  <score_type>  (22) 
oracle

>  <origin>  (22) 
adg

>  <m_score__min__energy>  (22) 
-6.8399999999999999

>  <m_primary>  (22) 
energy

$$$$
22:0
     RDKit          3D

 41 42  0  0  0  0  0  0  0  0999 V2000
   -2.9080   20.0120  -27.4820 C   0  0  0  0  0  0  0  0  0  0  0  0
   -3.0920   21.0940  -28.3880 O   0  0  0  0  0  0  0  0  0  0  0  0
   -2.3570   22.2900  -28.3630 C   0  0  0  0  0  0  0  0  0  0  0  0
   -1.0760   22.3660  -27.7780 C   0  0  0  0  0  0  0  0  0  0  0  0
   -0.3710   23.5710  -27.7760 C   0  0  0  0  0  0  0  0  0  0  0  0
   -0.9330   24.7120  -28.3480 C   0  0  0  0  0  0  0  0  0  0  0  0
   -2.2010   24.6510  -28.9310 C   0  0  0  0  0  0  0  0  0  0  0  0
   -2.9150   23.4400  -28.9540 C   0  0  0  0  0  0  0  0  0  0  0  0
   -4.2310   23.3760  -29.5290 N   0  0  0  0  0  0  0  0  0  0  0  0
   -4.7470   24.3600  -30.4410 C   0  0  0  0  0  0  0  0  0  0  0  0
   -4.0400   25.3420  -30.7930 O   0  0  0  0  0  0  0  0  0  0  0  0
   -6.1220   24.2030  -31.0240 C   0  0  0  0  0  0  0  0  0  0  0  0
   -6.5300   22.7820  -31.0840 N   0  0  0  0  0  0  0  0  0  0  0  0
   -7.9420   22.4800  -30.7440 C   0  0  0  0  0  0  0  0  0  0  0  0
   -8.7950   22.0020  -31.9370 C   0  0  0  0  0  0  0  0  0  0  0  0
   -8.4870   20.5710  -32.3790 C   0  0  0  0  0  0  0  0  0  0  0  0
   -7.3080   19.9440  -31.6220 C   0  0  0  0  0  0  0  0  0  0  0  0
   -5.9620   20.4970  -32.1100 C   0  0  0  0  0  0  0  0  0  0  0  0
   -5.9250   22.0330  -32.2140 C   0  0  0  0  0  0  0  0  0  0  0  0
   -2.9713   20.3841  -26.4488 H   0  0  0  0  0  0  0  0  0  0  0  0
   -3.6907   19.2572  -27.6485 H   0  0  0  0  0  0  0  0  0  0  0  0
   -1.9198   19.5584  -27.6485 H   0  0  0  0  0  0  0  0  0  0  0  0
   -0.6297   21.4706  -27.3206 H   0  0  0  0  0  0  0  0  0  0  0  0
    0.6299   23.6206  -27.3223 H   0  0  0  0  0  0  0  0  0  0  0  0
   -0.3771   25.6612  -28.3401 H   0  0  0  0  0  0  0  0  0  0  0  0
   -2.6433   25.5553  -29.3745 H   0  0  0  0  0  0  0  0  0  0  0  0
   -4.7960   22.5120  -29.3630 H   0  0  0  0  0  0  0  0  0  0  0  0
   -6.8398   24.7542  -30.3987 H   0  0  0  0  0  0  0  0  0  0  0  0
   -6.1078   24.6001  -32.0497 H   0  0  0  0  0  0  0  0  0  0  0  0
   -7.9504   21.6916  -29.9769 H   0  0  0  0  0  0  0  0  0  0  0  0
   -8.3898   23.4220  -30.3946 H   0  0  0  0  0  0  0  0  0  0  0  0
   -9.8554   22.0559  -31.6494 H   0  0  0  0  0  0  0  0  0  0  0  0
   -8.5564   22.6590  -32.7863 H   0  0  0  0  0  0  0  0  0  0  0  0
   -9.3805   19.9525  -32.2083 H   0  0  0  0  0  0  0  0  0  0  0  0
   -8.2084   20.6105  -33.4424 H   0  0  0  0  0  0  0  0  0  0  0  0
   -7.4158   20.1633  -30.5495 H   0  0  0  0  0  0  0  0  0  0  0  0
   -7.3202   18.8595  -31.8056 H   0  0  0  0  0  0  0  0  0  0  0  0
   -5.1795   20.1776  -31.4059 H   0  0  0  0  0  0  0  0  0  0  0  0
   -5.8008   20.1021  -33.1239 H   0  0  0  0  0  0  0  0  0  0  0  0
   -4.8713   22.3386  -32.2931 H   0  0  0  0  0  0  0  0  0  0  0  0
   -6.5367   22.2830  -33.0934 H   0  0  0  0  0  0  0  0  0  0  0  0
  1  2  1  0
  2  3  1  0
  3  4  2  0
  4  5  1  0
  5  6  2  0
  6  7  1  0
  7  8  2  0
  8  9  1  0
  9 10  1  0
 10 11  2  0
 10 12  1  0
 12 13  1  0
 13 14  1  0
 14 15  1  0
 15 16  1  0
 16 17  1  0
 17 18  1  0
 18 19  1  0
  8  3  1  0
 19 13  1  0
  1 20  1  0
  1 21  1  0
  1 22  1  0
  4 23  1  0
  5 24  1  0
  6 25  1  0
  7 26  1  0
  9 27  1  0
 12 28  1  0
 12 29  1  0
 14 30  1  0
 14 31  1  0
 15 32  1  0
 15 33  1  0
 16 34  1  0
 16 35  1  0
 17 36  1  0
 17 37  1  0
 18 38  1  0
 18 39  1  0
 19 40  1  0
 19 41  1  0
M  END
>  <UniqueID>  (23) 
22

>  <SMILES>  (23) 
COc1ccccc1NC(=O)CN1CCCCCC1

>  <Energy>  (23) 
53.791112816672666

>  <Genealogy>  (23) 
COc1ccccc1NC(=O)CN1CCCCCC1 (3D coordinates assigned)
COc1ccccc1NC(=O)CN1CCCCCC1 (nonaromatic ring conformer: 53.791112816672666 kcal/mol)

>  <smiles>  (23) 
COc1ccccc1NC(=O)CN1CCCCCC1

>  <score_type>  (23) 
oracle

>  <origin>  (23) 
adg

>  <m_score__min__energy>  (23) 
-5.5

>  <m_primary>  (23) 
energy

$$$$
23:0
     RDKit          3D

 36 39  0  0  0  0  0  0  0  0999 V2000
   -2.9010   14.8460  -36.0000 C   0  0  0  0  0  0  0  0  0  0  0  0
   -3.9060   14.7480  -34.9950 O   0  0  0  0  0  0  0  0  0  0  0  0
   -4.6220   15.8420  -34.4830 C   0  0  0  0  0  0  0  0  0  0  0  0
   -4.5710   17.0530  -35.1790 C   0  0  0  0  0  0  0  0  0  0  0  0
   -5.2660   18.1720  -34.7110 C   0  0  0  0  0  0  0  0  0  0  0  0
   -6.0250   18.0990  -33.5300 C   0  0  0  0  0  0  0  0  0  0  0  0
   -6.7590   19.2940  -33.0460 C   0  0  0  0  0  0  0  0  0  0  0  0
   -8.1170   19.3470  -32.6960 C   0  0  0  0  0  0  0  0  0  0  0  0
   -8.3110   20.6040  -32.2950 N   0  0  0  0  0  0  0  0  0  0  0  0
   -9.1610   21.1780  -31.4700 N   0  0  0  0  0  0  0  0  0  0  0  0
   -8.5370   22.2910  -31.0050 C   0  0  0  0  0  0  0  0  0  0  0  0
   -7.2290   22.3630  -31.5350 C   0  0  0  0  0  0  0  0  0  0  0  0
   -6.1360   23.2940  -31.1680 C   0  0  0  0  0  0  0  0  0  0  0  0
   -6.4140   24.6340  -30.8490 C   0  0  0  0  0  0  0  0  0  0  0  0
   -5.3700   25.4950  -30.5020 C   0  0  0  0  0  0  0  0  0  0  0  0
   -4.0910   25.0400  -30.4690 N   0  0  0  0  0  0  0  0  0  0  0  0
   -3.7890   23.7480  -30.7680 C   0  0  0  0  0  0  0  0  0  0  0  0
   -4.8030   22.8530  -31.1190 C   0  0  0  0  0  0  0  0  0  0  0  0
   -7.1740   21.2390  -32.3390 C   0  0  0  0  0  0  0  0  0  0  0  0
   -6.1460   20.4880  -32.7760 N   0  0  0  0  0  0  0  0  0  0  0  0
   -6.0790   16.8780  -32.8330 C   0  0  0  0  0  0  0  0  0  0  0  0
   -5.3830   15.7600  -33.3040 C   0  0  0  0  0  0  0  0  0  0  0  0
   -1.9142   14.9422  -35.5236 H   0  0  0  0  0  0  0  0  0  0  0  0
   -2.9192   13.9418  -36.6262 H   0  0  0  0  0  0  0  0  0  0  0  0
   -3.0936   15.7296  -36.6262 H   0  0  0  0  0  0  0  0  0  0  0  0
   -3.9788   17.1262  -36.1031 H   0  0  0  0  0  0  0  0  0  0  0  0
   -5.2186   19.1173  -35.2714 H   0  0  0  0  0  0  0  0  0  0  0  0
   -8.8561   18.5336  -32.7421 H   0  0  0  0  0  0  0  0  0  0  0  0
  -10.0740   20.7800  -31.1570 H   0  0  0  0  0  0  0  0  0  0  0  0
   -8.9828   23.0261  -30.3188 H   0  0  0  0  0  0  0  0  0  0  0  0
   -7.4498   25.0036  -30.8724 H   0  0  0  0  0  0  0  0  0  0  0  0
   -5.5848   26.5451  -30.2547 H   0  0  0  0  0  0  0  0  0  0  0  0
   -2.7438   23.4068  -30.7334 H   0  0  0  0  0  0  0  0  0  0  0  0
   -4.5585   21.8071  -31.3561 H   0  0  0  0  0  0  0  0  0  0  0  0
   -6.6732   16.8021  -31.9104 H   0  0  0  0  0  0  0  0  0  0  0  0
   -5.4314   14.8116  -32.7489 H   0  0  0  0  0  0  0  0  0  0  0  0
  1  2  1  0
  2  3  1  0
  3  4  2  0
  4  5  1  0
  5  6  2  0
  6  7  1  0
  7  8  2  0
  8  9  1  0
  9 10  1  0
 10 11  2  0
 11 12  1  0
 12 13  1  0
 13 14  2  0
 14 15  1  0
 15 16  2  0
 16 17  1  0
 17 18  2  0
 12 19  2  0
 19 20  1  0
  6 21  1  0
 21 22  2  0
 22  3  1  0
 20  7  1  0
 19  9  1  0
 18 13  1  0
  1 23  1  0
  1 24  1  0
  1 25  1  0
  4 26  1  0
  5 27  1  0
  8 28  1  0
 10 29  1  0
 11 30  1  0
 14 31  1  0
 15 32  1  0
 17 33  1  0
 18 34  1  0
 21 35  1  0
 22 36  1  0
M  CHG  2  10   1  20  -1
M  END
>  <UniqueID>  (24) 
23

>  <SMILES>  (24) 
COc1ccc(-c2cn3[nH+]cc(-c4ccncc4)c3[n-]2)cc1

>  <Energy>  (24) 
134.35194034903506

>  <Genealogy>  (24) 
COc1ccc(-c2cn3[nH+]cc(-c4ccncc4)c3[n-]2)cc1 (protonated)
COc1ccc(-c2cn3[nH+]cc(-c4ccncc4)c3[n-]2)cc1 (3D coordinates assigned)
COc1ccc(-c2cn3[nH+]cc(-c4ccncc4)c3[n-]2)cc1 (optimized conformer: 134.35194034903506 kcal/mol)

>  <smiles>  (24) 
COc1ccc(-c2cn3ncc(-c4ccncc4)c3[nH]2)cc1

>  <score_type>  (24) 
oracle

>  <origin>  (24) 
adg

>  <m_score__min__energy>  (24) 
-7.5

>  <m_primary>  (24) 
energy

$$$$
24:0
     RDKit          3D

 40 42  0  0  0  0  0  0  0  0999 V2000
   -3.9810   17.7270  -34.2550 C   0  0  0  0  0  0  0  0  0  0  0  0
   -3.6960   18.7670  -33.3240 O   0  0  0  0  0  0  0  0  0  0  0  0
   -4.5990   19.7780  -32.9490 C   0  0  0  0  0  0  0  0  0  0  0  0
   -5.9860   19.6100  -33.0620 C   0  0  0  0  0  0  0  0  0  0  0  0
   -6.8810   20.6390  -32.7080 C   0  0  0  0  0  0  0  0  0  0  0  0
   -8.2670   20.4470  -32.8380 O   0  0  0  0  0  0  0  0  0  0  0  0
   -8.9970   19.3340  -32.3310 C   0  0  0  0  0  0  0  0  0  0  0  0
   -6.3690   21.8730  -32.2180 C   0  0  0  0  0  0  0  0  0  0  0  0
   -7.1860   22.9750  -31.8280 C   0  0  0  0  0  0  0  0  0  0  0  0
   -8.6940   22.9670  -31.9000 C   0  0  0  0  0  0  0  0  0  0  0  0
   -6.5690   24.1380  -31.3460 C   0  0  0  0  0  0  0  0  0  0  0  0
   -5.1820   24.1960  -31.2580 C   0  0  0  0  0  0  0  0  0  0  0  0
   -4.6220   25.2360  -30.8230 O   0  0  0  0  0  0  0  0  0  0  0  0
   -4.4440   23.1610  -31.6270 O   0  0  0  0  0  0  0  0  0  0  0  0
   -4.9600   22.0290  -32.0980 C   0  0  0  0  0  0  0  0  0  0  0  0
   -4.0880   20.9900  -32.4650 C   0  0  0  0  0  0  0  0  0  0  0  0
   -2.6240   21.1710  -32.3710 C   0  0  0  0  0  0  0  0  0  0  0  0
   -1.9890   21.6150  -33.3650 O   0  0  0  0  0  0  0  0  0  0  0  0
   -1.9070   20.9470  -31.0740 C   0  0  0  0  0  0  0  0  0  0  0  0
   -2.4460   21.8780  -30.0350 C   0  0  0  0  0  0  0  0  0  0  0  0
   -3.4190   21.5670  -29.0930 C   0  0  0  0  0  0  0  0  0  0  0  0
   -3.6430   22.6000  -28.1740 C   0  0  0  0  0  0  0  0  0  0  0  0
   -2.8400   23.7140  -28.3800 C   0  0  0  0  0  0  0  0  0  0  0  0
   -1.8450   23.4120  -29.7020 S   0  0  0  0  0  0  0  0  0  0  0  0
   -4.2335   16.8057  -33.7096 H   0  0  0  0  0  0  0  0  0  0  0  0
   -4.8310   18.0235  -34.8871 H   0  0  0  0  0  0  0  0  0  0  0  0
   -3.0986   17.5488  -34.8871 H   0  0  0  0  0  0  0  0  0  0  0  0
   -6.3841   18.6548  -33.4349 H   0  0  0  0  0  0  0  0  0  0  0  0
   -8.9825   19.3562  -31.2313 H   0  0  0  0  0  0  0  0  0  0  0  0
  -10.0372   19.3857  -32.6851 H   0  0  0  0  0  0  0  0  0  0  0  0
   -8.5351   18.4006  -32.6851 H   0  0  0  0  0  0  0  0  0  0  0  0
   -9.1097   22.9648  -30.8816 H   0  0  0  0  0  0  0  0  0  0  0  0
   -9.0403   23.8633  -32.4354 H   0  0  0  0  0  0  0  0  0  0  0  0
   -9.0308   22.0671  -32.4354 H   0  0  0  0  0  0  0  0  0  0  0  0
   -7.1788   25.0005  -31.0389 H   0  0  0  0  0  0  0  0  0  0  0  0
   -2.0575   19.9074  -30.7474 H   0  0  0  0  0  0  0  0  0  0  0  0
   -0.8326   21.1377  -31.2131 H   0  0  0  0  0  0  0  0  0  0  0  0
   -3.9578   20.6083  -29.0713 H   0  0  0  0  0  0  0  0  0  0  0  0
   -4.3854   22.5349  -27.3649 H   0  0  0  0  0  0  0  0  0  0  0  0
   -2.8525   24.6365  -27.7809 H   0  0  0  0  0  0  0  0  0  0  0  0
  1  2  1  0
  2  3  1  0
  3  4  2  0
  4  5  1  0
  5  6  1  0
  6  7  1  0
  5  8  2  0
  8  9  1  0
  9 10  1  0
  9 11  2  0
 11 12  1  0
 12 13  2  0
 12 14  1  0
 14 15  1  0
 15 16  2  0
 16 17  1  0
 17 18  2  0
 17 19  1  0
 19 20  1  0
 20 21  2  0
 21 22  1  0
 22 23  2  0
 23 24  1  0
 16  3  1  0
 24 20  1  0
 15  8  1  0
  1 25  1  0
  1 26  1  0
  1 27  1  0
  4 28  1  0
  7 29  1  0
  7 30  1  0
  7 31  1  0
 10 32  1  0
 10 33  1  0
 10 34  1  0
 11 35  1  0
 19 36  1  0
 19 37  1  0
 21 38  1  0
 22 39  1  0
 23 40  1  0
M  END
>  <UniqueID>  (25) 
24

>  <SMILES>  (25) 
COc1cc(OC)c2c(C)cc(=O)oc2c1C(=O)Cc1cccs1

>  <Energy>  (25) 
79.88140679143198

>  <Genealogy>  (25) 
COc1cc(OC)c2c(C)cc(=O)oc2c1C(=O)Cc1cccs1 (3D coordinates assigned)
COc1cc(OC)c2c(C)cc(=O)oc2c1C(=O)Cc1cccs1 (optimized conformer: 79.88140679143198 kcal/mol)

>  <smiles>  (25) 
COc1cc(OC)c2c(C)cc(=O)oc2c1C(=O)Cc1cccs1

>  <score_type>  (25) 
oracle

>  <origin>  (25) 
adg

>  <m_score__min__energy>  (25) 
-7.71

>  <m_primary>  (25) 
energy

$$$$
25:0
     RDKit          3D

 44 46  0  0  0  0  0  0  0  0999 V2000
   -6.1320   16.7680  -32.5400 C   0  0  0  0  0  0  0  0  0  0  0  0
   -6.8630   18.0840  -32.4570 C   0  0  0  0  0  0  0  0  0  0  0  0
   -7.9800   18.1850  -31.6080 C   0  0  0  0  0  0  0  0  0  0  0  0
   -8.7170   19.3670  -31.5400 C   0  0  0  0  0  0  0  0  0  0  0  0
   -8.3600   20.4610  -32.3270 C   0  0  0  0  0  0  0  0  0  0  0  0
   -7.2600   20.3770  -33.1820 C   0  0  0  0  0  0  0  0  0  0  0  0
   -6.4940   19.2000  -33.2550 C   0  0  0  0  0  0  0  0  0  0  0  0
   -5.2940   19.1720  -34.1850 C   0  0  0  0  0  0  0  0  0  0  0  0
   -4.2590   20.1570  -33.8090 N   0  0  0  0  0  0  0  0  0  0  0  0
   -3.5510   19.8590  -32.5470 C   0  0  0  0  0  0  0  0  0  0  0  0
   -3.7960   20.9100  -31.4460 C   0  0  1  0  0  0  0  0  0  0  0  0
   -2.6370   21.9180  -31.3820 C   0  0  0  0  0  0  0  0  0  0  0  0
   -2.9520   22.9770  -30.4110 N   0  0  0  0  0  0  0  0  0  0  0  0
   -1.9250   23.4470  -29.4750 C   0  0  0  0  0  0  0  0  0  0  0  0
   -4.2900   23.5240  -30.4000 C   0  0  0  0  0  0  0  0  0  0  0  0
   -4.6010   24.7370  -29.7560 C   0  0  0  0  0  0  0  0  0  0  0  0
   -5.9040   25.2440  -29.8010 C   0  0  0  0  0  0  0  0  0  0  0  0
   -6.9050   24.5490  -30.4870 C   0  0  0  0  0  0  0  0  0  0  0  0
   -6.6080   23.3410  -31.1230 C   0  0  0  0  0  0  0  0  0  0  0  0
   -5.3100   22.8230  -31.0700 C   0  0  0  0  0  0  0  0  0  0  0  0
   -5.0220   21.6030  -31.6900 O   0  0  0  0  0  0  0  0  0  0  0  0
   -5.9265   16.3980  -31.5247 H   0  0  0  0  0  0  0  0  0  0  0  0
   -6.7532   16.0368  -33.0779 H   0  0  0  0  0  0  0  0  0  0  0  0
   -5.1829   16.9090  -33.0779 H   0  0  0  0  0  0  0  0  0  0  0  0
   -8.2751   17.3231  -30.9916 H   0  0  0  0  0  0  0  0  0  0  0  0
   -9.5819   19.4363  -30.8639 H   0  0  0  0  0  0  0  0  0  0  0  0
   -8.9455   21.3907  -32.2741 H   0  0  0  0  0  0  0  0  0  0  0  0
   -6.9891   21.2415  -33.8059 H   0  0  0  0  0  0  0  0  0  0  0  0
   -4.8497   18.1661  -34.1562 H   0  0  0  0  0  0  0  0  0  0  0  0
   -5.6488   19.4309  -35.1935 H   0  0  0  0  0  0  0  0  0  0  0  0
   -4.7050   21.1010  -33.7440 H   0  0  0  0  0  0  0  0  0  0  0  0
   -3.5460   20.2120  -34.5720 H   0  0  0  0  0  0  0  0  0  0  0  0
   -3.8927   18.8808  -32.1778 H   0  0  0  0  0  0  0  0  0  0  0  0
   -2.4737   19.8657  -32.7691 H   0  0  0  0  0  0  0  0  0  0  0  0
   -3.8590   20.3851  -30.4814 H   0  0  0  0  0  0  0  0  0  0  0  0
   -1.7182   21.3990  -31.0714 H   0  0  0  0  0  0  0  0  0  0  0  0
   -2.4906   22.3673  -32.3753 H   0  0  0  0  0  0  0  0  0  0  0  0
   -2.2700   23.2891  -28.4425 H   0  0  0  0  0  0  0  0  0  0  0  0
   -0.9937   22.8855  -29.6403 H   0  0  0  0  0  0  0  0  0  0  0  0
   -1.7412   24.5189  -29.6403 H   0  0  0  0  0  0  0  0  0  0  0  0
   -3.8168   25.2877  -29.2158 H   0  0  0  0  0  0  0  0  0  0  0  0
   -6.1418   26.1916  -29.2956 H   0  0  0  0  0  0  0  0  0  0  0  0
   -7.9271   24.9538  -30.5259 H   0  0  0  0  0  0  0  0  0  0  0  0
   -7.3953   22.7972  -31.6656 H   0  0  0  0  0  0  0  0  0  0  0  0
  1  2  1  0
  2  3  2  0
  3  4  1  0
  4  5  2  0
  5  6  1  0
  6  7  2  0
  7  8  1  0
  8  9  1  0
  9 10  1  0
 10 11  1  0
 11 12  1  0
 12 13  1  0
 13 14  1  0
 13 15  1  0
 15 16  2  0
 16 17  1  0
 17 18  2  0
 18 19  1  0
 19 20  2  0
 20 21  1  0
  7  2  1  0
 21 11  1  0
 20 15  1  0
  1 22  1  0
  1 23  1  0
  1 24  1  0
  3 25  1  0
  4 26  1  0
  5 27  1  0
  6 28  1  0
  8 29  1  0
  8 30  1  0
  9 31  1  0
  9 32  1  0
 10 33  1  0
 10 34  1  0
 11 35  1  1
 12 36  1  0
 12 37  1  0
 14 38  1  0
 14 39  1  0
 14 40  1  0
 16 41  1  0
 17 42  1  0
 18 43  1  0
 19 44  1  0
M  CHG  1   9   1
M  END
>  <UniqueID>  (26) 
25

>  <SMILES>  (26) 
Cc1ccccc1C[NH2+]C[C@H]1CN(C)c2ccccc2O1

>  <Energy>  (26) 
47.89961096698361

>  <Genealogy>  (26) 
Cc1ccccc1C[NH2+]CC1CN(C)c2ccccc2O1 (protonated)
Cc1ccccc1C[NH2+]C[C@H]1CN(C)c2ccccc2O1 (chirality)
Cc1ccccc1C[NH2+]C[C@H]1CN(C)c2ccccc2O1 (3D coordinates assigned)
Cc1ccccc1C[NH2+]C[C@H]1CN(C)c2ccccc2O1 (nonaromatic ring conformer: 47.89961096698361 kcal/mol)

>  <smiles>  (26) 
Cc1ccccc1CNCC1CN(C)c2ccccc2O1

>  <score_type>  (26) 
oracle

>  <origin>  (26) 
adg

>  <m_score__min__energy>  (26) 
-6.9900000000000002

>  <m_primary>  (26) 
energy

$$$$
26:0
     RDKit          3D

 43 45  0  0  0  0  0  0  0  0999 V2000
   -2.2270   20.4670  -31.6960 C   0  0  0  0  0  0  0  0  0  0  0  0
   -3.0610   20.2060  -32.9440 C   0  0  0  0  0  0  0  0  0  0  0  0
   -4.3850   20.8000  -32.7930 N   0  0  0  0  0  0  0  0  0  0  0  0
   -5.5160   20.1350  -32.4680 C   0  0  0  0  0  0  0  0  0  0  0  0
   -6.5190   21.0720  -32.3240 C   0  0  0  0  0  0  0  0  0  0  0  0
   -5.9300   22.2650  -32.5990 C   0  0  0  0  0  0  0  0  0  0  0  0
   -4.6220   22.1030  -32.8710 N   0  0  0  0  0  0  0  0  0  0  0  0
   -6.6880   23.5400  -32.5390 C   0  0  0  0  0  0  0  0  0  0  0  0
   -7.7150   23.4650  -31.4750 N   0  0  0  0  0  0  0  0  0  0  0  0
   -7.2260   23.8690  -30.1370 C   0  0  0  0  0  0  0  0  0  0  0  0
   -5.7620   24.2040  -30.1230 C   0  0  0  0  0  0  0  0  0  0  0  0
   -5.2020   25.4090  -30.4770 C   0  0  0  0  0  0  0  0  0  0  0  0
   -3.8640   25.2990  -30.4360 N   0  0  0  0  0  0  0  0  0  0  0  0
   -3.6560   24.0240  -30.0400 C   0  0  0  0  0  0  0  0  0  0  0  0
   -2.2980   23.4170  -29.9440 C   0  0  0  0  0  0  0  0  0  0  0  0
   -4.7890   23.3170  -29.8500 N   0  0  0  0  0  0  0  0  0  0  0  0
   -8.5970   22.2550  -31.4720 C   0  0  0  0  0  0  0  0  0  0  0  0
   -7.9890   20.9380  -32.0790 C   0  0  2  0  0  0  0  0  0  0  0  0
   -8.3160   19.7030  -31.2210 C   0  0  0  0  0  0  0  0  0  0  0  0
   -8.7520   18.6490  -32.0550 O   0  0  0  0  0  0  0  0  0  0  0  0
   -7.6640   17.8030  -32.3490 C   0  0  0  0  0  0  0  0  0  0  0  0
   -2.8370   20.2761  -30.8008 H   0  0  0  0  0  0  0  0  0  0  0  0
   -1.3527   19.7995  -31.6931 H   0  0  0  0  0  0  0  0  0  0  0  0
   -1.8892   21.5138  -31.6931 H   0  0  0  0  0  0  0  0  0  0  0  0
   -2.5598   20.6504  -33.8165 H   0  0  0  0  0  0  0  0  0  0  0  0
   -3.1666   19.1205  -33.0870 H   0  0  0  0  0  0  0  0  0  0  0  0
   -5.6182   19.0471  -32.3415 H   0  0  0  0  0  0  0  0  0  0  0  0
   -5.9956   24.3662  -32.3202 H   0  0  0  0  0  0  0  0  0  0  0  0
   -7.1807   23.7148  -33.5068 H   0  0  0  0  0  0  0  0  0  0  0  0
   -7.7912   24.7542  -29.8100 H   0  0  0  0  0  0  0  0  0  0  0  0
   -7.3741   23.0140  -29.4609 H   0  0  0  0  0  0  0  0  0  0  0  0
   -5.7600   26.3169  -30.7498 H   0  0  0  0  0  0  0  0  0  0  0  0
   -2.0249   23.2949  -28.8854 H   0  0  0  0  0  0  0  0  0  0  0  0
   -2.3000   22.4341  -30.4379 H   0  0  0  0  0  0  0  0  0  0  0  0
   -1.5669   24.0740  -30.4379 H   0  0  0  0  0  0  0  0  0  0  0  0
   -8.8718   22.0451  -30.4278 H   0  0  0  0  0  0  0  0  0  0  0  0
   -9.4432   22.5117  -32.1263 H   0  0  0  0  0  0  0  0  0  0  0  0
   -8.4693   20.7819  -33.0562 H   0  0  0  0  0  0  0  0  0  0  0  0
   -7.4151   19.3883  -30.6738 H   0  0  0  0  0  0  0  0  0  0  0  0
   -9.1119   19.9557  -30.5050 H   0  0  0  0  0  0  0  0  0  0  0  0
   -7.2101   17.4501  -31.4112 H   0  0  0  0  0  0  0  0  0  0  0  0
   -8.0176   16.9403  -32.9326 H   0  0  0  0  0  0  0  0  0  0  0  0
   -6.9150   18.3583  -32.9326 H   0  0  0  0  0  0  0  0  0  0  0  0
  1  2  1  0
  2  3  1  0
  3  4  1  0
  4  5  2  0
  5  6  1  0
  6  7  2  0
  6  8  1  0
  8  9  1  0
  9 10  1  0
 10 11  1  0
 11 12  2  0
 12 13  1  0
 13 14  1  0
 14 15  1  0
 14 16  2  0
  9 17  1  0
 17 18  1  0
 18 19  1  0
 19 20  1  0
 20 21  1  0
  7  3  1  0
 16 11  1  0
 18  5  1  0
  1 22  1  0
  1 23  1  0
  1 24  1  0
  2 25  1  0
  2 26  1  0
  4 27  1  0
  8 28  1  0
  8 29  1  0
 10 30  1  0
 10 31  1  0
 12 32  1  0
 15 33  1  0
 15 34  1  0
 15 35  1  0
 17 36  1  0
 17 37  1  0
 18 38  1  6
 19 39  1  0
 19 40  1  0
 21 41  1  0
 21 42  1  0
 21 43  1  0
M  CHG  1  13  -1
M  END
>  <UniqueID>  (27) 
26

>  <SMILES>  (27) 
CCn1cc2c(n1)CN(Cc1c[n-]c(C)n1)C[C@@H]2COC

>  <Energy>  (27) 
109.65691737149375

>  <Genealogy>  (27) 
CCn1cc2c(n1)CN(Cc1c[n-]c(C)n1)CC2COC (protonated)
CCn1cc2c(n1)CN(Cc1c[n-]c(C)n1)C[C@@H]2COC (chirality)
CCn1cc2c(n1)CN(Cc1c[n-]c(C)n1)C[C@@H]2COC (3D coordinates assigned)
CCn1cc2c(n1)CN(Cc1c[n-]c(C)n1)C[C@@H]2COC (nonaromatic ring conformer: 109.65691737149375 kcal/mol)

>  <smiles>  (27) 
CCn1cc2c(n1)CN(Cc1c[nH]c(C)n1)CC2COC

>  <score_type>  (27) 
oracle

>  <origin>  (27) 
adg

>  <m_score__min__energy>  (27) 
-8.3699999999999992

>  <m_primary>  (27) 
energy

$$$$
27:0
     RDKit          3D

 40 41  0  0  0  0  0  0  0  0999 V2000
   -9.3062   21.3659  -31.8992 H   0  0  0  0  0  0  0  0  0  0  0  0
   -8.2080   21.3590  -31.9610 C   0  0  0  0  0  0  0  0  0  0  0  0
   -7.5420   22.4160  -31.4750 C   0  0  0  0  0  0  0  0  0  0  0  0
   -7.6323   22.6421  -30.4023 H   0  0  0  0  0  0  0  0  0  0  0  0
   -6.6710   23.3150  -32.3290 C   0  0  0  0  0  0  0  0  0  0  0  0
   -7.2961   24.1273  -32.7283 H   0  0  0  0  0  0  0  0  0  0  0  0
   -6.2419   22.6875  -33.1241 H   0  0  0  0  0  0  0  0  0  0  0  0
   -5.5380   23.9160  -31.5920 N   0  0  0  0  0  0  0  0  0  0  0  0
   -5.9780   24.9800  -30.6710 C   0  0  0  0  0  0  0  0  0  0  0  0
   -5.8399   24.6459  -29.6321 H   0  0  0  0  0  0  0  0  0  0  0  0
   -5.3812   25.8871  -30.8469 H   0  0  0  0  0  0  0  0  0  0  0  0
   -7.0412   25.2007  -30.8469 H   0  0  0  0  0  0  0  0  0  0  0  0
   -4.7000   22.9070  -30.9130 C   0  0  0  0  0  0  0  0  0  0  0  0
   -5.3352   22.2774  -30.2726 H   0  0  0  0  0  0  0  0  0  0  0  0
   -3.9436   23.4195  -30.3005 H   0  0  0  0  0  0  0  0  0  0  0  0
   -4.0100   22.0460  -31.9270 C   0  0  0  0  0  0  0  0  0  0  0  0
   -3.1610   20.9890  -31.6620 C   0  0  0  0  0  0  0  0  0  0  0  0
   -2.8674   20.5797  -30.6841 H   0  0  0  0  0  0  0  0  0  0  0  0
   -2.7680   20.5680  -32.9200 C   0  0  0  0  0  0  0  0  0  0  0  0
   -1.8440   19.4390  -33.2290 C   0  0  0  0  0  0  0  0  0  0  0  0
   -1.4807   18.9951  -32.2904 H   0  0  0  0  0  0  0  0  0  0  0  0
   -2.3799   18.6757  -33.8123 H   0  0  0  0  0  0  0  0  0  0  0  0
   -0.9898   19.8134  -33.8123 H   0  0  0  0  0  0  0  0  0  0  0  0
   -3.3430   21.3250  -33.8270 O   0  0  0  0  0  0  0  0  0  0  0  0
   -4.0930   22.2210  -33.2580 N   0  0  0  0  0  0  0  0  0  0  0  0
   -4.6470   22.9470  -33.7640 H   0  0  0  0  0  0  0  0  0  0  0  0
   -7.5520   20.1830  -32.5760 C   0  0  0  0  0  0  0  0  0  0  0  0
   -6.4660   20.3710  -33.4480 C   0  0  0  0  0  0  0  0  0  0  0  0
   -6.1283   21.3899  -33.6885 H   0  0  0  0  0  0  0  0  0  0  0  0
   -5.8130   19.2730  -34.0110 C   0  0  0  0  0  0  0  0  0  0  0  0
   -4.9725   19.4294  -34.7031 H   0  0  0  0  0  0  0  0  0  0  0  0
   -6.2250   17.9780  -33.6970 C   0  0  0  0  0  0  0  0  0  0  0  0
   -5.7103   17.1147  -34.1440 H   0  0  0  0  0  0  0  0  0  0  0  0
   -7.2900   17.7750  -32.8160 C   0  0  0  0  0  0  0  0  0  0  0  0
   -7.6049   16.7510  -32.5666 H   0  0  0  0  0  0  0  0  0  0  0  0
   -7.9620   18.8700  -32.2460 C   0  0  0  0  0  0  0  0  0  0  0  0
   -9.1050   18.6270  -31.2960 C   0  0  0  0  0  0  0  0  0  0  0  0
   -8.7434   18.7039  -30.2600 H   0  0  0  0  0  0  0  0  0  0  0  0
   -9.8900   19.3783  -31.4671 H   0  0  0  0  0  0  0  0  0  0  0  0
   -9.5165   17.6213  -31.4671 H   0  0  0  0  0  0  0  0  0  0  0  0
  1  2  1  0
  2  3  2  0
  3  4  1  0
  3  5  1  0
  5  6  1  0
  5  7  1  0
  5  8  1  0
  8  9  1  0
  9 10  1  0
  9 11  1  0
  9 12  1  0
  8 13  1  0
 13 14  1  0
 13 15  1  0
 13 16  1  0
 16 17  1  0
 17 18  1  0
 17 19  2  0
 19 20  1  0
 20 21  1  0
 20 22  1  0
 20 23  1  0
 19 24  1  0
 24 25  1  0
 25 26  1  0
  2 27  1  0
 27 28  2  0
 28 29  1  0
 28 30  1  0
 30 31  1  0
 30 32  2  0
 32 33  1  0
 32 34  1  0
 34 35  1  0
 34 36  2  0
 36 37  1  0
 37 38  1  0
 37 39  1  0
 37 40  1  0
 25 16  2  0
 36 27  1  0
M  CHG  1  25   1
M  END
>  <UniqueID>  (28) 
27

>  <SMILES>  (28) 
Cc1cc(CN(C)C/C=C\c2ccccc2C)[nH+]o1

>  <Energy>  (28) 
77.19964862466966

>  <Genealogy>  (28) 
Cc1cc(CN(C)CC=Cc2ccccc2C)[nH+]o1 (protonated)
Cc1cc(CN(C)C/C=C\c2ccccc2C)[nH+]o1 (cis-trans isomerization)
Cc1cc(CN(C)C/C=C\c2ccccc2C)[nH+]o1 (3D coordinates assigned)
Cc1cc(CN(C)C/C=C\c2ccccc2C)[nH+]o1 (optimized conformer: 77.19964862466966 kcal/mol)

>  <smiles>  (28) 
Cc1cc(CN(C)CC=Cc2ccccc2C)no1

>  <score_type>  (28) 
oracle

>  <origin>  (28) 
adg

>  <m_score__min__energy>  (28) 
-6.9400000000000004

>  <m_primary>  (28) 
energy

$$$$
28:0
     RDKit          3D

 51 54  0  0  0  0  0  0  0  0999 V2000
   -4.5910   24.9330  -26.8330 C   0  0  0  0  0  0  0  0  0  0  0  0
   -3.5050   24.9550  -25.9130 O   0  0  0  0  0  0  0  0  0  0  0  0
   -2.2370   25.4930  -26.1910 C   0  0  0  0  0  0  0  0  0  0  0  0
   -1.7220   26.5970  -25.4820 C   0  0  0  0  0  0  0  0  0  0  0  0
   -0.4590   27.1090  -25.7930 C   0  0  0  0  0  0  0  0  0  0  0  0
    0.3010   26.5310  -26.8110 C   0  0  0  0  0  0  0  0  0  0  0  0
   -0.1970   25.4370  -27.5200 C   0  0  0  0  0  0  0  0  0  0  0  0
   -1.4610   24.9100  -27.2130 C   0  0  0  0  0  0  0  0  0  0  0  0
   -1.9740   23.7500  -27.9780 C   0  0  0  0  0  0  0  0  0  0  0  0
   -2.5750   23.9740  -29.2290 C   0  0  0  0  0  0  0  0  0  0  0  0
   -2.6450   25.2780  -29.7200 O   0  0  0  0  0  0  0  0  0  0  0  0
   -3.0960   22.9360  -29.9570 N   0  0  0  0  0  0  0  0  0  0  0  0
   -3.7540   23.2260  -31.2500 C   0  0  0  0  0  0  0  0  0  0  0  0
   -5.2810   23.0620  -31.1520 C   0  0  0  0  0  0  0  0  0  0  0  0
   -5.6660   21.6620  -30.9170 N   0  0  0  0  0  0  0  0  0  0  0  0
   -7.0360   21.4560  -31.3150 C   0  0  0  0  0  0  0  0  0  0  0  0
   -7.4730   20.1880  -31.7380 C   0  0  0  0  0  0  0  0  0  0  0  0
   -8.7940   19.9990  -32.1560 C   0  0  0  0  0  0  0  0  0  0  0  0
   -9.6880   21.0740  -32.1610 C   0  0  0  0  0  0  0  0  0  0  0  0
   -9.2610   22.3400  -31.7530 C   0  0  0  0  0  0  0  0  0  0  0  0
   -7.9400   22.5350  -31.3360 C   0  0  0  0  0  0  0  0  0  0  0  0
   -3.0430   21.6500  -29.4780 C   0  0  0  0  0  0  0  0  0  0  0  0
   -3.5380   20.7020  -30.1520 O   0  0  0  0  0  0  0  0  0  0  0  0
   -2.4420   21.3740  -28.2340 C   0  0  0  0  0  0  0  0  0  0  0  0
   -2.3750   20.0560  -27.7350 C   0  0  0  0  0  0  0  0  0  0  0  0
   -1.7720   19.7960  -26.5040 C   0  0  0  0  0  0  0  0  0  0  0  0
   -1.2260   20.8380  -25.7580 C   0  0  0  0  0  0  0  0  0  0  0  0
   -1.2840   22.1480  -26.2350 C   0  0  0  0  0  0  0  0  0  0  0  0
   -1.8980   22.4360  -27.4740 C   0  0  0  0  0  0  0  0  0  0  0  0
   -5.5409   24.9138  -26.2786 H   0  0  0  0  0  0  0  0  0  0  0  0
   -4.5539   25.8321  -27.4657 H   0  0  0  0  0  0  0  0  0  0  0  0
   -4.5175   24.0362  -27.4657 H   0  0  0  0  0  0  0  0  0  0  0  0
   -2.3170   27.0580  -24.6799 H   0  0  0  0  0  0  0  0  0  0  0  0
   -0.0631   27.9697  -25.2340 H   0  0  0  0  0  0  0  0  0  0  0  0
    1.2934   26.9381  -27.0547 H   0  0  0  0  0  0  0  0  0  0  0  0
    0.4040   24.9856  -28.3232 H   0  0  0  0  0  0  0  0  0  0  0  0
   -3.5233   24.2603  -31.5450 H   0  0  0  0  0  0  0  0  0  0  0  0
   -3.3765   22.5134  -31.9981 H   0  0  0  0  0  0  0  0  0  0  0  0
   -5.6526   23.6780  -30.3198 H   0  0  0  0  0  0  0  0  0  0  0  0
   -5.7213   23.3819  -32.1079 H   0  0  0  0  0  0  0  0  0  0  0  0
   -5.5630   21.4290  -29.9030 H   0  0  0  0  0  0  0  0  0  0  0  0
   -5.0390   21.0250  -31.4630 H   0  0  0  0  0  0  0  0  0  0  0  0
   -6.7720   19.3403  -31.7401 H   0  0  0  0  0  0  0  0  0  0  0  0
   -9.1302   19.0034  -32.4813 H   0  0  0  0  0  0  0  0  0  0  0  0
  -10.7279   20.9228  -32.4863 H   0  0  0  0  0  0  0  0  0  0  0  0
   -9.9649   23.1852  -31.7596 H   0  0  0  0  0  0  0  0  0  0  0  0
   -7.6063   23.5354  -31.0233 H   0  0  0  0  0  0  0  0  0  0  0  0
   -2.8010   19.2279  -28.3204 H   0  0  0  0  0  0  0  0  0  0  0  0
   -1.7276   18.7656  -26.1216 H   0  0  0  0  0  0  0  0  0  0  0  0
   -0.7477   20.6275  -24.7900 H   0  0  0  0  0  0  0  0  0  0  0  0
   -0.8474   22.9641  -25.6405 H   0  0  0  0  0  0  0  0  0  0  0  0
  1  2  1  0
  2  3  1  0
  3  4  2  0
  4  5  1  0
  5  6  2  0
  6  7  1  0
  7  8  2  0
  8  9  1  0
  9 10  2  0
 10 11  1  0
 10 12  1  0
 12 13  1  0
 13 14  1  0
 14 15  1  0
 15 16  1  0
 16 17  2  0
 17 18  1  0
 18 19  2  0
 19 20  1  0
 20 21  2  0
 12 22  1  0
 22 23  2  0
 22 24  1  0
 24 25  2  0
 25 26  1  0
 26 27  2  0
 27 28  1  0
 28 29  2  0
  8  3  1  0
 29  9  1  0
 21 16  1  0
 29 24  1  0
  1 30  1  0
  1 31  1  0
  1 32  1  0
  4 33  1  0
  5 34  1  0
  6 35  1  0
  7 36  1  0
 13 37  1  0
 13 38  1  0
 14 39  1  0
 14 40  1  0
 15 41  1  0
 15 42  1  0
 17 43  1  0
 18 44  1  0
 19 45  1  0
 20 46  1  0
 21 47  1  0
 25 48  1  0
 26 49  1  0
 27 50  1  0
 28 51  1  0
M  CHG  2  11  -1  15   1
M  END
>  <UniqueID>  (29) 
28

>  <SMILES>  (29) 
COc1ccccc1-c1c([O-])n(CC[NH2+]c2ccccc2)c(=O)c2ccccc12

>  <Energy>  (29) 
71.30540704567326

>  <Genealogy>  (29) 
COc1ccccc1-c1c([O-])n(CC[NH2+]c2ccccc2)c(=O)c2ccccc12 (protonated)
COc1ccccc1-c1c([O-])n(CC[NH2+]c2ccccc2)c(=O)c2ccccc12 (3D coordinates assigned)
COc1ccccc1-c1c([O-])n(CC[NH2+]c2ccccc2)c(=O)c2ccccc12 (optimized conformer: 71.30540704567326 kcal/mol)

>  <smiles>  (29) 
COc1ccccc1-c1c(O)n(CCNc2ccccc2)c(=O)c2ccccc12

>  <score_type>  (29) 
oracle

>  <origin>  (29) 
adg

>  <m_score__min__energy>  (29) 
-11.4

>  <m_primary>  (29) 
energy

$$$$
29:0
     RDKit          3D

 60 63  0  0  0  0  0  0  0  0999 V2000
   -5.2530   25.6580  -30.4450 C   0  0  0  0  0  0  0  0  0  0  0  0
   -3.8870   25.3170  -30.5280 O   0  0  0  0  0  0  0  0  0  0  0  0
   -3.5590   24.4360  -29.4740 C   0  0  0  0  0  0  0  0  0  0  0  0
   -2.4410   23.4950  -29.9200 C   0  0  0  0  0  0  0  0  0  0  0  0
   -2.9400   22.0520  -30.0820 C   0  0  0  0  0  0  0  0  0  0  0  0
   -2.8510   21.6360  -31.4870 N   0  0  0  0  0  0  0  0  0  0  0  0
   -3.8130   21.5890  -32.4630 C   0  0  0  0  0  0  0  0  0  0  0  0
   -5.3010   21.8390  -32.2960 C   0  0  2  0  0  0  0  0  0  0  0  0
   -5.7090   23.3050  -32.4790 C   0  0  0  0  0  0  0  0  0  0  0  0
   -7.2270   23.4290  -32.3700 C   0  0  0  0  0  0  0  0  0  0  0  0
   -7.7160   22.8590  -31.0290 C   0  0  0  0  0  0  0  0  0  0  0  0
   -7.3030   21.4540  -30.8110 N   0  0  1  0  0  0  0  0  0  0  0  0
   -8.2610   20.3100  -31.7450 S   0  0  0  0  0  0  0  0  0  0  0  0
   -9.1620   21.0120  -32.7240 O   0  0  0  0  0  0  0  0  0  0  0  0
   -9.1170   19.4540  -30.8520 O   0  0  0  0  0  0  0  0  0  0  0  0
   -7.1670   19.2650  -32.6460 C   0  0  0  0  0  0  0  0  0  0  0  0
   -6.7570   18.0380  -32.1070 C   0  0  0  0  0  0  0  0  0  0  0  0
   -5.8720   17.2190  -32.8130 C   0  0  0  0  0  0  0  0  0  0  0  0
   -5.3910   17.6170  -34.0710 C   0  0  0  0  0  0  0  0  0  0  0  0
   -4.4100   16.7570  -34.8100 C   0  0  0  0  0  0  0  0  0  0  0  0
   -5.7810   18.8570  -34.5960 C   0  0  0  0  0  0  0  0  0  0  0  0
   -6.6660   19.6760  -33.8880 C   0  0  0  0  0  0  0  0  0  0  0  0
   -5.8450   21.2510  -30.9740 C   0  0  0  0  0  0  0  0  0  0  0  0
   -3.3190   21.2050  -33.6710 N   0  0  0  0  0  0  0  0  0  0  0  0
   -2.0100   21.0250  -33.4360 C   0  0  0  0  0  0  0  0  0  0  0  0
   -1.0330   20.6340  -34.3480 C   0  0  0  0  0  0  0  0  0  0  0  0
    0.2890   20.5120  -33.8790 C   0  0  0  0  0  0  0  0  0  0  0  0
    0.5930   20.7800  -32.5250 C   0  0  0  0  0  0  0  0  0  0  0  0
   -0.4190   21.1720  -31.6310 C   0  0  0  0  0  0  0  0  0  0  0  0
   -1.7220   21.2820  -32.1300 C   0  0  0  0  0  0  0  0  0  0  0  0
   -5.5489   25.7319  -29.3881 H   0  0  0  0  0  0  0  0  0  0  0  0
   -5.4202   26.6254  -30.9411 H   0  0  0  0  0  0  0  0  0  0  0  0
   -5.8553   24.8826  -30.9411 H   0  0  0  0  0  0  0  0  0  0  0  0
   -3.2223   25.0171  -28.6028 H   0  0  0  0  0  0  0  0  0  0  0  0
   -4.4464   23.8453  -29.2028 H   0  0  0  0  0  0  0  0  0  0  0  0
   -2.0448   23.8450  -30.8846 H   0  0  0  0  0  0  0  0  0  0  0  0
   -1.6598   23.5014  -29.1456 H   0  0  0  0  0  0  0  0  0  0  0  0
   -2.3214   21.3830  -29.4657 H   0  0  0  0  0  0  0  0  0  0  0  0
   -3.9902   21.9986  -29.7592 H   0  0  0  0  0  0  0  0  0  0  0  0
   -5.7798   21.2950  -33.1236 H   0  0  0  0  0  0  0  0  0  0  0  0
   -5.2342   23.9178  -31.6986 H   0  0  0  0  0  0  0  0  0  0  0  0
   -5.3830   23.6551  -33.4695 H   0  0  0  0  0  0  0  0  0  0  0  0
   -7.5098   24.4899  -32.4377 H   0  0  0  0  0  0  0  0  0  0  0  0
   -7.6913   22.8611  -33.1897 H   0  0  0  0  0  0  0  0  0  0  0  0
   -7.3049   23.4751  -30.2157 H   0  0  0  0  0  0  0  0  0  0  0  0
   -8.8157   22.8794  -31.0449 H   0  0  0  0  0  0  0  0  0  0  0  0
   -7.5190   21.2410  -29.8090 H   0  0  0  0  0  0  0  0  0  0  0  0
   -7.1335   17.7184  -31.1241 H   0  0  0  0  0  0  0  0  0  0  0  0
   -5.5509   16.2592  -32.3820 H   0  0  0  0  0  0  0  0  0  0  0  0
   -3.7857   16.2097  -34.0883 H   0  0  0  0  0  0  0  0  0  0  0  0
   -4.9543   16.0398  -35.4419 H   0  0  0  0  0  0  0  0  0  0  0  0
   -3.7702   17.3905  -35.4419 H   0  0  0  0  0  0  0  0  0  0  0  0
   -5.3890   19.1872  -35.5693 H   0  0  0  0  0  0  0  0  0  0  0  0
   -6.9698   20.6463  -34.3077 H   0  0  0  0  0  0  0  0  0  0  0  0
   -5.3267   21.7367  -30.1341 H   0  0  0  0  0  0  0  0  0  0  0  0
   -5.6625   20.1664  -30.9948 H   0  0  0  0  0  0  0  0  0  0  0  0
   -1.2853   20.4276  -35.3986 H   0  0  0  0  0  0  0  0  0  0  0  0
    1.0889   20.2067  -34.5696 H   0  0  0  0  0  0  0  0  0  0  0  0
    1.6288   20.6812  -32.1680 H   0  0  0  0  0  0  0  0  0  0  0  0
   -0.1943   21.3849  -30.5755 H   0  0  0  0  0  0  0  0  0  0  0  0
  1  2  1  0
  2  3  1  0
  3  4  1  0
  4  5  1  0
  5  6  1  0
  6  7  1  0
  7  8  1  0
  8  9  1  0
  9 10  1  0
 10 11  1  0
 11 12  1  0
 12 13  1  0
 13 14  2  0
 13 15  2  0
 13 16  1  0
 16 17  2  0
 17 18  1  0
 18 19  2  0
 19 20  1  0
 19 21  1  0
 21 22  2  0
 12 23  1  0
  7 24  2  0
 24 25  1  0
 25 26  2  0
 26 27  1  0
 27 28  2  0
 28 29  1  0
 29 30  2  0
 30  6  1  0
 23  8  1  0
 30 25  1  0
 22 16  1  0
  1 31  1  0
  1 32  1  0
  1 33  1  0
  3 34  1  0
  3 35  1  0
  4 36  1  0
  4 37  1  0
  5 38  1  0
  5 39  1  0
  8 40  1  6
  9 41  1  0
  9 42  1  0
 10 43  1  0
 10 44  1  0
 11 45  1  0
 11 46  1  0
 12 47  1  1
 17 48  1  0
 18 49  1  0
 20 50  1  0
 20 51  1  0
 20 52  1  0
 21 53  1  0
 22 54  1  0
 23 55  1  0
 23 56  1  0
 26 57  1  0
 27 58  1  0
 28 59  1  0
 29 60  1  0
M  CHG  1  12   1
M  END
>  <UniqueID>  (30) 
29

>  <SMILES>  (30) 
COCCCn1c([C@@H]2CCC[N@@H+](S(=O)(=O)c3ccc(C)cc3)C2)nc2ccccc21

>  <Energy>  (30) 
100.26526813026351

>  <Genealogy>  (30) 
COCCCn1c(C2CCC[NH+](S(=O)(=O)c3ccc(C)cc3)C2)nc2ccccc21 (protonated)
COCCCn1c([C@@H]2CCC[N@@H+](S(=O)(=O)c3ccc(C)cc3)C2)nc2ccccc21 (chirality)
COCCCn1c([C@@H]2CCC[N@@H+](S(=O)(=O)c3ccc(C)cc3)C2)nc2ccccc21 (3D coordinates assigned)
COCCCn1c([C@@H]2CCC[N@@H+](S(=O)(=O)c3ccc(C)cc3)C2)nc2ccccc21 (nonaromatic ring conformer: 100.26526813026351 kcal/mol)

>  <smiles>  (30) 
COCCCn1c(C2CCCN(S(=O)(=O)c3ccc(C)cc3)C2)nc2ccccc21

>  <score_type>  (30) 
oracle

>  <origin>  (30) 
adg

>  <m_score__min__energy>  (30) 
-9.4600000000000009

>  <m_primary>  (30) 
energy

$$$$
30:0
     RDKit          3D

 44 46  0  0  0  0  0  0  0  0999 V2000
   -2.4490   24.9450  -26.9270 C   0  0  0  0  0  0  0  0  0  0  0  0
   -1.5960   24.9620  -28.1910 C   0  0  0  0  0  0  0  0  0  0  0  0
   -2.3860   25.2930  -29.3320 O   0  0  0  0  0  0  0  0  0  0  0  0
   -3.4810   24.5550  -29.8100 C   0  0  0  0  0  0  0  0  0  0  0  0
   -4.6340   25.1610  -30.3490 C   0  0  0  0  0  0  0  0  0  0  0  0
   -5.6930   24.3750  -30.8110 C   0  0  0  0  0  0  0  0  0  0  0  0
   -5.6150   22.9760  -30.7540 C   0  0  0  0  0  0  0  0  0  0  0  0
   -6.7060   22.1630  -31.2080 N   0  0  0  0  0  0  0  0  0  0  0  0
   -7.9760   22.5350  -31.1180 N   0  0  0  0  0  0  0  0  0  0  0  0
   -8.7400   21.5250  -31.5870 C   0  0  0  0  0  0  0  0  0  0  0  0
  -10.2330   21.5380  -31.5900 C   0  0  0  0  0  0  0  0  0  0  0  0
   -7.9180   20.4760  -31.9570 C   0  0  0  0  0  0  0  0  0  0  0  0
   -6.6430   20.9150  -31.7250 C   0  0  0  0  0  0  0  0  0  0  0  0
   -5.4510   19.9960  -31.7820 C   0  0  0  0  0  0  0  0  0  0  0  0
   -5.7020   18.8140  -32.7730 C   0  0  0  0  0  0  0  0  0  0  0  0
   -5.6600   19.3330  -34.2290 C   0  0  0  0  0  0  0  0  0  0  0  0
   -4.5800   17.7720  -32.5970 C   0  0  0  0  0  0  0  0  0  0  0  0
   -7.0800   18.1260  -32.4930 C   0  0  0  0  0  0  0  0  0  0  0  0
   -8.2170   19.1130  -32.4030 C   0  0  0  0  0  0  0  0  0  0  0  0
   -9.3990   18.7510  -32.6410 O   0  0  0  0  0  0  0  0  0  0  0  0
   -4.4820   22.3730  -30.1920 C   0  0  0  0  0  0  0  0  0  0  0  0
   -3.4220   23.1590  -29.7310 C   0  0  0  0  0  0  0  0  0  0  0  0
   -1.7947   24.9580  -26.0429 H   0  0  0  0  0  0  0  0  0  0  0  0
   -3.1017   25.8303  -26.9132 H   0  0  0  0  0  0  0  0  0  0  0  0
   -3.0659   24.0344  -26.9132 H   0  0  0  0  0  0  0  0  0  0  0  0
   -0.7970   25.7094  -28.0767 H   0  0  0  0  0  0  0  0  0  0  0  0
   -1.1658   23.9605  -28.3390 H   0  0  0  0  0  0  0  0  0  0  0  0
   -4.7004   26.2575  -30.4062 H   0  0  0  0  0  0  0  0  0  0  0  0
   -6.5928   24.8563  -31.2217 H   0  0  0  0  0  0  0  0  0  0  0  0
  -10.6017   21.5412  -30.5536 H   0  0  0  0  0  0  0  0  0  0  0  0
  -10.5908   22.4393  -32.1093 H   0  0  0  0  0  0  0  0  0  0  0  0
  -10.6064   20.6431  -32.1093 H   0  0  0  0  0  0  0  0  0  0  0  0
   -4.5726   20.5666  -32.1178 H   0  0  0  0  0  0  0  0  0  0  0  0
   -5.2801   19.5810  -30.7777 H   0  0  0  0  0  0  0  0  0  0  0  0
   -5.5713   20.4294  -34.2250 H   0  0  0  0  0  0  0  0  0  0  0  0
   -4.7942   18.8970  -34.7489 H   0  0  0  0  0  0  0  0  0  0  0  0
   -6.5846   19.0418  -34.7489 H   0  0  0  0  0  0  0  0  0  0  0  0
   -4.3999   17.6047  -31.5248 H   0  0  0  0  0  0  0  0  0  0  0  0
   -4.8809   16.8257  -33.0703 H   0  0  0  0  0  0  0  0  0  0  0  0
   -3.6585   18.1419  -33.0703 H   0  0  0  0  0  0  0  0  0  0  0  0
   -7.2920   17.4186  -33.3083 H   0  0  0  0  0  0  0  0  0  0  0  0
   -7.0051   17.6167  -31.5209 H   0  0  0  0  0  0  0  0  0  0  0  0
   -4.4265   21.2772  -30.1133 H   0  0  0  0  0  0  0  0  0  0  0  0
   -2.5322   22.6752  -29.3017 H   0  0  0  0  0  0  0  0  0  0  0  0
  1  2  1  0
  2  3  1  0
  3  4  1  0
  4  5  2  0
  5  6  1  0
  6  7  2  0
  7  8  1  0
  8  9  1  0
  9 10  2  0
 10 11  1  0
 10 12  1  0
 12 13  2  0
 13 14  1  0
 14 15  1  0
 15 16  1  0
 15 17  1  0
 15 18  1  0
 18 19  1  0
 19 20  2  0
  7 21  1  0
 21 22  2  0
 22  4  1  0
 13  8  1  0
 19 12  1  0
  1 23  1  0
  1 24  1  0
  1 25  1  0
  2 26  1  0
  2 27  1  0
  5 28  1  0
  6 29  1  0
 11 30  1  0
 11 31  1  0
 11 32  1  0
 14 33  1  0
 14 34  1  0
 16 35  1  0
 16 36  1  0
 16 37  1  0
 17 38  1  0
 17 39  1  0
 17 40  1  0
 18 41  1  0
 18 42  1  0
 21 43  1  0
 22 44  1  0
M  END
>  <UniqueID>  (31) 
30

>  <SMILES>  (31) 
CCOc1ccc(-n2nc(C)c3c2CC(C)(C)CC3=O)cc1

>  <Energy>  (31) 
79.21735581359931

>  <Genealogy>  (31) 
CCOc1ccc(-n2nc(C)c3c2CC(C)(C)CC3=O)cc1 (3D coordinates assigned)
CCOc1ccc(-n2nc(C)c3c2CC(C)(C)CC3=O)cc1 (nonaromatic ring conformer: 79.21735581359931 kcal/mol)

>  <smiles>  (31) 
CCOc1ccc(-n2nc(C)c3c2CC(C)(C)CC3=O)cc1

>  <score_type>  (31) 
oracle

>  <origin>  (31) 
adg

>  <m_score__min__energy>  (31) 
-8.7200000000000006

>  <m_primary>  (31) 
energy

$$$$
31:0
     RDKit          3D

 40 41  0  0  0  0  0  0  0  0999 V2000
   -5.8630   18.7370  -34.1400 C   0  0  0  0  0  0  0  0  0  0  0  0
   -6.8780   17.8360  -33.4370 C   0  0  0  0  0  0  0  0  0  0  0  0
   -7.0480   18.1770  -31.9460 C   0  0  0  0  0  0  0  0  0  0  0  0
   -8.3820   18.8600  -31.6010 C   0  0  0  0  0  0  0  0  0  0  0  0
   -8.7990   20.2470  -32.7230 S   0  0  0  0  0  0  0  0  0  0  0  0
   -7.6960   21.4250  -31.9430 C   0  0  0  0  0  0  0  0  0  0  0  0
   -6.4640   21.7320  -32.5290 C   0  0  0  0  0  0  0  0  0  0  0  0
   -5.6110   22.6320  -31.8920 C   0  0  0  0  0  0  0  0  0  0  0  0
   -5.9930   23.2190  -30.6790 C   0  0  0  0  0  0  0  0  0  0  0  0
   -4.9030   24.3140  -29.8310 S   0  0  0  0  0  0  0  0  0  0  0  0
   -5.7180   25.2420  -28.9740 O   0  0  0  0  0  0  0  0  0  0  0  0
   -4.1610   25.1500  -30.8350 O   0  0  0  0  0  0  0  0  0  0  0  0
   -3.7520   23.4610  -28.8210 N   0  0  0  0  0  0  0  0  0  0  0  0
   -2.5500   23.0250  -29.5660 C   0  0  0  0  0  0  0  0  0  0  0  0
   -1.3290   23.9250  -29.3130 C   0  0  0  0  0  0  0  0  0  0  0  0
   -1.7370   25.2430  -29.0320 O   0  0  0  0  0  0  0  0  0  0  0  0
   -2.3660   25.2860  -27.7660 C   0  0  0  0  0  0  0  0  0  0  0  0
   -3.4410   24.1890  -27.5770 C   0  0  0  0  0  0  0  0  0  0  0  0
   -7.2490   22.9080  -30.1430 C   0  0  0  0  0  0  0  0  0  0  0  0
   -8.0630   22.0250  -30.7800 N   0  0  0  0  0  0  0  0  0  0  0  0
   -5.2628   19.2698  -33.3878 H   0  0  0  0  0  0  0  0  0  0  0  0
   -5.2016   18.1231  -34.7691 H   0  0  0  0  0  0  0  0  0  0  0  0
   -6.3941   19.4665  -34.7691 H   0  0  0  0  0  0  0  0  0  0  0  0
   -7.8518   17.9478  -33.9361 H   0  0  0  0  0  0  0  0  0  0  0  0
   -6.5029   16.8038  -33.4994 H   0  0  0  0  0  0  0  0  0  0  0  0
   -6.9799   17.2429  -31.3691 H   0  0  0  0  0  0  0  0  0  0  0  0
   -6.2527   18.8940  -31.6942 H   0  0  0  0  0  0  0  0  0  0  0  0
   -9.1840   18.1095  -31.6609 H   0  0  0  0  0  0  0  0  0  0  0  0
   -8.2806   19.2793  -30.5891 H   0  0  0  0  0  0  0  0  0  0  0  0
   -6.1711   21.2683  -33.4825 H   0  0  0  0  0  0  0  0  0  0  0  0
   -4.6385   22.8810  -32.3417 H   0  0  0  0  0  0  0  0  0  0  0  0
   -2.2994   21.9991  -29.2582 H   0  0  0  0  0  0  0  0  0  0  0  0
   -2.7871   23.0847  -30.6385 H   0  0  0  0  0  0  0  0  0  0  0  0
   -0.7607   23.5318  -28.4571 H   0  0  0  0  0  0  0  0  0  0  0  0
   -0.6997   23.9323  -30.2152 H   0  0  0  0  0  0  0  0  0  0  0  0
   -1.5970   25.1582  -26.9899 H   0  0  0  0  0  0  0  0  0  0  0  0
   -2.8761   26.2576  -27.6894 H   0  0  0  0  0  0  0  0  0  0  0  0
   -3.0768   23.4672  -26.8311 H   0  0  0  0  0  0  0  0  0  0  0  0
   -4.3649   24.6890  -27.2508 H   0  0  0  0  0  0  0  0  0  0  0  0
   -7.5774   23.3791  -29.2048 H   0  0  0  0  0  0  0  0  0  0  0  0
  1  2  1  0
  2  3  1  0
  3  4  1  0
  4  5  1  0
  5  6  1  0
  6  7  2  0
  7  8  1  0
  8  9  2  0
  9 10  1  0
 10 11  2  0
 10 12  2  0
 10 13  1  0
 13 14  1  0
 14 15  1  0
 15 16  1  0
 16 17  1  0
 17 18  1  0
  9 19  1  0
 19 20  2  0
 20  6  1  0
 18 13  1  0
  1 21  1  0
  1 22  1  0
  1 23  1  0
  2 24  1  0
  2 25  1  0
  3 26  1  0
  3 27  1  0
  4 28  1  0
  4 29  1  0
  7 30  1  0
  8 31  1  0
 14 32  1  0
 14 33  1  0
 15 34  1  0
 15 35  1  0
 17 36  1  0
 17 37  1  0
 18 38  1  0
 18 39  1  0
 19 40  1  0
M  END
>  <UniqueID>  (32) 
31

>  <SMILES>  (32) 
CCCCSc1ccc(S(=O)(=O)N2CCOCC2)cn1

>  <Energy>  (32) 
41.105471549773355

>  <Genealogy>  (32) 
CCCCSc1ccc(S(=O)(=O)N2CCOCC2)cn1 (3D coordinates assigned)
CCCCSc1ccc(S(=O)(=O)N2CCOCC2)cn1 (nonaromatic ring conformer: 41.105471549773355 kcal/mol)

>  <smiles>  (32) 
CCCCSc1ccc(S(=O)(=O)N2CCOCC2)cn1

>  <score_type>  (32) 
oracle

>  <origin>  (32) 
adg

>  <m_score__min__energy>  (32) 
-8.2799999999999994

>  <m_primary>  (32) 
energy

$$$$
32:0
     RDKit          3D

 50 51  0  0  0  0  0  0  0  0999 V2000
   -6.0930   17.0470  -32.1000 C   0  0  0  0  0  0  0  0  0  0  0  0
   -6.7560   17.0130  -33.4750 C   0  0  0  0  0  0  0  0  0  0  0  0
   -6.1080   17.9920  -34.4650 C   0  0  0  0  0  0  0  0  0  0  0  0
   -5.5380   19.1670  -33.7720 N   0  0  0  0  0  0  0  0  0  0  0  0
   -4.1750   19.3480  -33.7460 C   0  0  0  0  0  0  0  0  0  0  0  0
   -3.4070   18.5380  -34.3300 O   0  0  0  0  0  0  0  0  0  0  0  0
   -3.6320   20.4060  -33.0910 N   0  0  0  0  0  0  0  0  0  0  0  0
   -4.4030   21.3150  -32.4500 C   0  0  0  0  0  0  0  0  0  0  0  0
   -3.8070   22.3900  -31.7830 C   0  0  0  0  0  0  0  0  0  0  0  0
   -4.6010   23.3490  -31.1340 C   0  0  0  0  0  0  0  0  0  0  0  0
   -3.9790   24.4830  -30.4230 C   0  0  0  0  0  0  0  0  0  0  0  0
   -4.1800   25.6530  -30.8430 O   0  0  0  0  0  0  0  0  0  0  0  0
   -3.1330   24.2970  -29.2830 N   0  0  0  0  0  0  0  0  0  0  0  0
   -1.6880   24.1090  -29.3450 C   0  0  0  0  0  0  0  0  0  0  0  0
   -1.2940   22.6890  -28.9030 C   0  0  0  0  0  0  0  0  0  0  0  0
   -2.3790   21.6690  -28.9210 N   0  0  0  0  0  0  0  0  0  0  0  0
   -2.8640   21.3100  -27.5610 C   0  0  0  0  0  0  0  0  0  0  0  0
   -2.5100   19.8680  -27.1780 C   0  0  0  0  0  0  0  0  0  0  0  0
   -2.1010   20.5170  -29.8320 C   0  0  0  0  0  0  0  0  0  0  0  0
   -1.0170   20.7490  -30.9000 C   0  0  0  0  0  0  0  0  0  0  0  0
   -5.9950   23.1970  -31.1250 C   0  0  0  0  0  0  0  0  0  0  0  0
   -6.5960   22.1200  -31.7850 C   0  0  0  0  0  0  0  0  0  0  0  0
   -5.8030   21.1720  -32.4570 C   0  0  0  0  0  0  0  0  0  0  0  0
   -6.3560   20.0690  -33.1330 C   0  0  0  0  0  0  0  0  0  0  0  0
   -7.6100   19.9090  -33.1430 O   0  0  0  0  0  0  0  0  0  0  0  0
   -6.8665   17.0073  -31.3189 H   0  0  0  0  0  0  0  0  0  0  0  0
   -5.4214   16.1821  -31.9953 H   0  0  0  0  0  0  0  0  0  0  0  0
   -5.5134   17.9760  -31.9953 H   0  0  0  0  0  0  0  0  0  0  0  0
   -6.6734   15.9941  -33.8813 H   0  0  0  0  0  0  0  0  0  0  0  0
   -7.8064   17.3136  -33.3470 H   0  0  0  0  0  0  0  0  0  0  0  0
   -5.3042   17.4723  -35.0070 H   0  0  0  0  0  0  0  0  0  0  0  0
   -6.8848   18.3447  -35.1594 H   0  0  0  0  0  0  0  0  0  0  0  0
   -2.7112   22.4847  -31.7667 H   0  0  0  0  0  0  0  0  0  0  0  0
   -1.3489   24.2704  -30.3789 H   0  0  0  0  0  0  0  0  0  0  0  0
   -1.2126   24.8309  -28.6647 H   0  0  0  0  0  0  0  0  0  0  0  0
   -0.4938   22.3394  -29.5719 H   0  0  0  0  0  0  0  0  0  0  0  0
   -0.9951   22.7817  -27.8484 H   0  0  0  0  0  0  0  0  0  0  0  0
   -3.1750   22.1830  -29.3720 H   0  0  0  0  0  0  0  0  0  0  0  0
   -2.4055   21.9926  -26.8304 H   0  0  0  0  0  0  0  0  0  0  0  0
   -3.9604   21.3984  -27.5608 H   0  0  0  0  0  0  0  0  0  0  0  0
   -2.4871   19.7748  -26.0822 H   0  0  0  0  0  0  0  0  0  0  0  0
   -3.2667   19.1833  -27.5885 H   0  0  0  0  0  0  0  0  0  0  0  0
   -1.5222   19.6115  -27.5885 H   0  0  0  0  0  0  0  0  0  0  0  0
   -1.7855   19.6654  -29.2114 H   0  0  0  0  0  0  0  0  0  0  0  0
   -3.0344   20.3463  -30.3884 H   0  0  0  0  0  0  0  0  0  0  0  0
   -0.0552   20.9549  -30.4075 H   0  0  0  0  0  0  0  0  0  0  0  0
   -0.9226   19.8507  -31.5278 H   0  0  0  0  0  0  0  0  0  0  0  0
   -1.2986   21.6072  -31.5278 H   0  0  0  0  0  0  0  0  0  0  0  0
   -6.6206   23.9302  -30.5949 H   0  0  0  0  0  0  0  0  0  0  0  0
   -7.6909   22.0141  -31.7785 H   0  0  0  0  0  0  0  0  0  0  0  0
  1  2  1  0
  2  3  1  0
  3  4  1  0
  4  5  1  0
  5  6  2  0
  5  7  1  0
  7  8  1  0
  8  9  2  0
  9 10  1  0
 10 11  1  0
 11 12  2  0
 11 13  1  0
 13 14  1  0
 14 15  1  0
 15 16  1  0
 16 17  1  0
 17 18  1  0
 16 19  1  0
 19 20  1  0
 10 21  2  0
 21 22  1  0
 22 23  2  0
 23 24  1  0
 24 25  2  0
 24  4  1  0
 23  8  1  0
  1 26  1  0
  1 27  1  0
  1 28  1  0
  2 29  1  0
  2 30  1  0
  3 31  1  0
  3 32  1  0
  9 33  1  0
 14 34  1  0
 14 35  1  0
 15 36  1  0
 15 37  1  0
 16 38  1  0
 17 39  1  0
 17 40  1  0
 18 41  1  0
 18 42  1  0
 18 43  1  0
 19 44  1  0
 19 45  1  0
 20 46  1  0
 20 47  1  0
 20 48  1  0
 21 49  1  0
 22 50  1  0
M  CHG  3   7  -1  13  -1  16   1
M  END
>  <UniqueID>  (33) 
32

>  <SMILES>  (33) 
CCCn1c(=O)[n-]c2cc(C(=O)[N-]CC[NH+](CC)CC)ccc2c1=O

>  <Energy>  (33) 
64.78661962740844

>  <Genealogy>  (33) 
CCCn1c(=O)[n-]c2cc(C(=O)[N-]CC[NH+](CC)CC)ccc2c1=O (protonated)
CCCn1c(=O)[n-]c2cc(C(=O)[N-]CC[NH+](CC)CC)ccc2c1=O (3D coordinates assigned)
CCCn1c(=O)[n-]c2cc(C(=O)[N-]CC[NH+](CC)CC)ccc2c1=O (optimized conformer: 64.78661962740844 kcal/mol)

>  <smiles>  (33) 
CCCn1c(=O)[nH]c2cc(C(=O)NCCN(CC)CC)ccc2c1=O

>  <score_type>  (33) 
oracle

>  <origin>  (33) 
adg

>  <m_score__min__energy>  (33) 
-8.4499999999999993

>  <m_primary>  (33) 
energy

$$$$
33:0
     RDKit          3D

 40 42  0  0  0  0  0  0  0  0999 V2000
   -8.3440   18.4920  -32.3580 C   0  0  0  0  0  0  0  0  0  0  0  0
   -8.3410   19.9540  -32.0160 C   0  0  0  0  0  0  0  0  0  0  0  0
   -9.4840   20.7370  -32.2440 C   0  0  0  0  0  0  0  0  0  0  0  0
   -9.4710   22.1030  -31.9530 C   0  0  0  0  0  0  0  0  0  0  0  0
   -8.3200   22.7000  -31.4390 C   0  0  0  0  0  0  0  0  0  0  0  0
   -7.1660   21.9340  -31.2050 C   0  0  0  0  0  0  0  0  0  0  0  0
   -5.9160   22.6020  -30.6940 C   0  0  0  0  0  0  0  0  0  0  0  0
   -4.7100   22.0890  -31.4340 C   0  0  0  0  0  0  0  0  0  0  0  0
   -4.5960   22.2680  -32.8180 C   0  0  0  0  0  0  0  0  0  0  0  0
   -3.5210   21.7790  -33.4900 N   0  0  0  0  0  0  0  0  0  0  0  0
   -2.5160   21.1010  -32.8580 C   0  0  0  0  0  0  0  0  0  0  0  0
   -2.6100   20.8650  -31.4680 C   0  0  0  0  0  0  0  0  0  0  0  0
   -3.7100   21.3770  -30.7650 C   0  0  0  0  0  0  0  0  0  0  0  0
   -1.5230   20.1330  -30.7300 C   0  0  0  0  0  0  0  0  0  0  0  0
   -0.1720   20.8570  -30.8620 C   0  0  0  0  0  0  0  0  0  0  0  0
    0.5960   20.4760  -32.0620 N   0  0  0  0  0  0  0  0  0  0  0  0
    0.0620   21.0610  -33.3020 C   0  0  0  0  0  0  0  0  0  0  0  0
   -1.3590   20.5620  -33.6850 C   0  0  0  0  0  0  0  0  0  0  0  0
   -7.1770   20.5590  -31.5090 C   0  0  0  0  0  0  0  0  0  0  0  0
   -6.0600   19.8100  -31.3140 F   0  0  0  0  0  0  0  0  0  0  0  0
   -8.3452   17.8988  -31.4317 H   0  0  0  0  0  0  0  0  0  0  0  0
   -9.2426   18.2549  -32.9464 H   0  0  0  0  0  0  0  0  0  0  0  0
   -7.4463   18.2512  -32.9464 H   0  0  0  0  0  0  0  0  0  0  0  0
  -10.3933   20.2728  -32.6534 H   0  0  0  0  0  0  0  0  0  0  0  0
  -10.3713   22.7099  -32.1297 H   0  0  0  0  0  0  0  0  0  0  0  0
   -8.3159   23.7771  -31.2155 H   0  0  0  0  0  0  0  0  0  0  0  0
   -5.9983   23.6887  -30.8433 H   0  0  0  0  0  0  0  0  0  0  0  0
   -5.8017   22.3764  -29.6235 H   0  0  0  0  0  0  0  0  0  0  0  0
   -5.3824   22.8084  -33.3653 H   0  0  0  0  0  0  0  0  0  0  0  0
   -3.4770   21.9350  -34.5220 H   0  0  0  0  0  0  0  0  0  0  0  0
   -3.7866   21.2173  -29.6794 H   0  0  0  0  0  0  0  0  0  0  0  0
   -1.7929   20.0694  -29.6655 H   0  0  0  0  0  0  0  0  0  0  0  0
   -1.4226   19.1285  -31.1669 H   0  0  0  0  0  0  0  0  0  0  0  0
   -0.3619   21.9398  -30.9018 H   0  0  0  0  0  0  0  0  0  0  0  0
    0.4326   20.5657  -29.9905 H   0  0  0  0  0  0  0  0  0  0  0  0
    1.6110   20.7020  -31.9450 H   0  0  0  0  0  0  0  0  0  0  0  0
    0.0216   22.1532  -33.1780 H   0  0  0  0  0  0  0  0  0  0  0  0
    0.7351   20.7471  -34.1134 H   0  0  0  0  0  0  0  0  0  0  0  0
   -1.5395   20.8416  -34.7335 H   0  0  0  0  0  0  0  0  0  0  0  0
   -1.3468   19.4786  -33.4951 H   0  0  0  0  0  0  0  0  0  0  0  0
  1  2  1  0
  2  3  2  0
  3  4  1  0
  4  5  2  0
  5  6  1  0
  6  7  1  0
  7  8  1  0
  8  9  2  0
  9 10  1  0
 10 11  2  0
 11 12  1  0
 12 13  2  0
 12 14  1  0
 14 15  1  0
 15 16  1  0
 16 17  1  0
 17 18  1  0
  6 19  2  0
 19 20  1  0
 19  2  1  0
 13  8  1  0
 18 11  1  0
  1 21  1  0
  1 22  1  0
  1 23  1  0
  3 24  1  0
  4 25  1  0
  5 26  1  0
  7 27  1  0
  7 28  1  0
  9 29  1  0
 10 30  1  0
 13 31  1  0
 14 32  1  0
 14 33  1  0
 15 34  1  0
 15 35  1  0
 16 36  1  0
 17 37  1  0
 17 38  1  0
 18 39  1  0
 18 40  1  0
M  CHG  1  10   1
M  END
>  <UniqueID>  (34) 
33

>  <SMILES>  (34) 
Cc1cccc(Cc2c[nH+]c3c(c2)CCNCC3)c1F

>  <Energy>  (34) 
50.737098199380604

>  <Genealogy>  (34) 
Cc1cccc(Cc2c[nH+]c3c(c2)CCNCC3)c1F (protonated)
Cc1cccc(Cc2c[nH+]c3c(c2)CCNCC3)c1F (3D coordinates assigned)
Cc1cccc(Cc2c[nH+]c3c(c2)CCNCC3)c1F (nonaromatic ring conformer: 50.737098199380604 kcal/mol)

>  <smiles>  (34) 
Cc1cccc(Cc2cnc3c(c2)CCNCC3)c1F

>  <score_type>  (34) 
oracle

>  <origin>  (34) 
adg

>  <m_score__min__energy>  (34) 
-6.3399999999999999

>  <m_primary>  (34) 
energy

$$$$
34:0
     RDKit          3D

 40 42  0  0  0  0  0  0  0  0999 V2000
   -2.9430   21.9580  -31.8190 C   0  0  0  0  0  0  0  0  0  0  0  0
   -4.1550   22.7710  -31.5010 C   0  0  0  0  0  0  0  0  0  0  0  0
   -4.1120   23.9940  -30.9290 N   0  0  0  0  0  0  0  0  0  0  0  0
   -5.3620   24.4060  -30.7690 N   0  0  0  0  0  0  0  0  0  0  0  0
   -5.7260   25.6690  -30.1390 C   0  0  0  0  0  0  0  0  0  0  0  0
   -6.2080   23.4520  -31.2070 C   0  0  0  0  0  0  0  0  0  0  0  0
   -5.4750   22.4120  -31.7240 C   0  0  0  0  0  0  0  0  0  0  0  0
   -6.0650   21.1140  -32.2050 C   0  0  2  0  0  0  0  0  0  0  0  0
   -5.3270   20.6540  -33.3990 N   0  0  0  0  0  0  0  0  0  0  0  0
   -6.0630   19.6690  -34.2080 C   0  0  0  0  0  0  0  0  0  0  0  0
   -5.6000   18.2530  -33.9520 C   0  0  0  0  0  0  0  0  0  0  0  0
   -4.5070   17.7460  -34.6800 C   0  0  0  0  0  0  0  0  0  0  0  0
   -4.0350   16.4530  -34.4430 C   0  0  0  0  0  0  0  0  0  0  0  0
   -4.6470   15.6500  -33.4800 C   0  0  0  0  0  0  0  0  0  0  0  0
   -5.7350   16.1370  -32.7530 C   0  0  0  0  0  0  0  0  0  0  0  0
   -6.2180   17.4320  -32.9810 C   0  0  0  0  0  0  0  0  0  0  0  0
   -7.7310   18.0160  -31.9550 Br  0  0  0  0  0  0  0  0  0  0  0  0
   -7.5790   21.3120  -32.5050 C   0  0  0  0  0  0  0  0  0  0  0  0
   -8.2880   22.0830  -31.3720 C   0  0  0  0  0  0  0  0  0  0  0  0
   -7.7070   23.5000  -31.2010 C   0  0  0  0  0  0  0  0  0  0  0  0
   -2.4621   21.6354  -30.8837 H   0  0  0  0  0  0  0  0  0  0  0  0
   -3.2375   21.0740  -32.4037 H   0  0  0  0  0  0  0  0  0  0  0  0
   -2.2368   22.5658  -32.4037 H   0  0  0  0  0  0  0  0  0  0  0  0
   -5.6934   25.5560  -29.0453 H   0  0  0  0  0  0  0  0  0  0  0  0
   -5.0166   26.4508  -30.4481 H   0  0  0  0  0  0  0  0  0  0  0  0
   -6.7427   25.9534  -30.4481 H   0  0  0  0  0  0  0  0  0  0  0  0
   -5.9724   20.3407  -31.4282 H   0  0  0  0  0  0  0  0  0  0  0  0
   -5.0090   21.4540  -33.9940 H   0  0  0  0  0  0  0  0  0  0  0  0
   -7.1333   19.7404  -33.9642 H   0  0  0  0  0  0  0  0  0  0  0  0
   -5.8753   19.8973  -35.2676 H   0  0  0  0  0  0  0  0  0  0  0  0
   -4.0207   18.3732  -35.4417 H   0  0  0  0  0  0  0  0  0  0  0  0
   -3.1793   16.0671  -35.0165 H   0  0  0  0  0  0  0  0  0  0  0  0
   -4.2722   14.6328  -33.2935 H   0  0  0  0  0  0  0  0  0  0  0  0
   -6.2160   15.4997  -31.9964 H   0  0  0  0  0  0  0  0  0  0  0  0
   -7.6859   21.8775  -33.4425 H   0  0  0  0  0  0  0  0  0  0  0  0
   -8.0452   20.3192  -32.5888 H   0  0  0  0  0  0  0  0  0  0  0  0
   -9.3590   22.1625  -31.6100 H   0  0  0  0  0  0  0  0  0  0  0  0
   -8.1346   21.5322  -30.4323 H   0  0  0  0  0  0  0  0  0  0  0  0
   -8.0530   24.1364  -32.0288 H   0  0  0  0  0  0  0  0  0  0  0  0
   -8.0480   23.9131  -30.2402 H   0  0  0  0  0  0  0  0  0  0  0  0
  1  2  1  0
  2  3  2  0
  3  4  1  0
  4  5  1  0
  4  6  1  0
  6  7  2  0
  7  8  1  0
  8  9  1  0
  9 10  1  0
 10 11  1  0
 11 12  2  0
 12 13  1  0
 13 14  2  0
 14 15  1  0
 15 16  2  0
 16 17  1  0
  8 18  1  0
 18 19  1  0
 19 20  1  0
  7  2  1  0
 16 11  1  0
 20  6  1  0
  1 21  1  0
  1 22  1  0
  1 23  1  0
  5 24  1  0
  5 25  1  0
  5 26  1  0
  8 27  1  1
  9 28  1  0
 10 29  1  0
 10 30  1  0
 12 31  1  0
 13 32  1  0
 14 33  1  0
 15 34  1  0
 18 35  1  0
 18 36  1  0
 19 37  1  0
 19 38  1  0
 20 39  1  0
 20 40  1  0
M  END
>  <UniqueID>  (35) 
34

>  <SMILES>  (35) 
Cc1nn(C)c2c1[C@H](NCc1ccccc1Br)CCC2

>  <Energy>  (35) 
72.7620279596421

>  <Genealogy>  (35) 
Cc1nn(C)c2c1[C@H](NCc1ccccc1Br)CCC2 (chirality)
Cc1nn(C)c2c1[C@H](NCc1ccccc1Br)CCC2 (3D coordinates assigned)
Cc1nn(C)c2c1[C@H](NCc1ccccc1Br)CCC2 (nonaromatic ring conformer: 72.7620279596421 kcal/mol)

>  <smiles>  (35) 
Cc1nn(C)c2c1C(NCc1ccccc1Br)CCC2

>  <score_type>  (35) 
oracle

>  <origin>  (35) 
adg

>  <m_score__min__energy>  (35) 
-8.6899999999999995

>  <m_primary>  (35) 
energy

$$$$
35:0
     RDKit          3D

 46 49  0  0  0  0  0  0  0  0999 V2000
   -5.2037   26.6029  -30.4173 H   0  0  0  0  0  0  0  0  0  0  0  0
   -4.7870   25.5890  -30.5090 C   0  0  0  0  0  0  0  0  0  0  0  0
   -3.5900   25.2970  -29.9410 N   0  0  0  0  0  0  0  0  0  0  0  0
   -3.0370   24.0590  -30.0320 C   0  0  0  0  0  0  0  0  0  0  0  0
   -1.7960   23.8110  -29.4340 C   0  0  0  0  0  0  0  0  0  0  0  0
   -1.2787   24.6151  -28.8901 H   0  0  0  0  0  0  0  0  0  0  0  0
   -1.2130   22.5460  -29.5260 C   0  0  0  0  0  0  0  0  0  0  0  0
   -0.2377   22.3553  -29.0543 H   0  0  0  0  0  0  0  0  0  0  0  0
   -1.8660   21.5220  -30.2160 C   0  0  0  0  0  0  0  0  0  0  0  0
   -1.4023   20.5270  -30.2867 H   0  0  0  0  0  0  0  0  0  0  0  0
   -3.1060   21.7560  -30.8170 C   0  0  0  0  0  0  0  0  0  0  0  0
   -3.6140   20.9444  -31.3585 H   0  0  0  0  0  0  0  0  0  0  0  0
   -3.7090   23.0290  -30.7320 C   0  0  0  0  0  0  0  0  0  0  0  0
   -4.9630   23.3060  -31.3240 C   0  0  0  0  0  0  0  0  0  0  0  0
   -5.5830   22.3700  -31.9920 N   0  0  0  0  0  0  0  0  0  0  0  0
   -6.9800   22.0510  -31.9150 C   0  0  0  0  0  0  0  0  0  0  0  0
   -7.9430   23.0650  -32.0300 C   0  0  0  0  0  0  0  0  0  0  0  0
   -7.6253   24.1098  -32.1624 H   0  0  0  0  0  0  0  0  0  0  0  0
   -9.3030   22.7530  -31.9770 C   0  0  0  0  0  0  0  0  0  0  0  0
  -10.0541   23.5509  -32.0733 H   0  0  0  0  0  0  0  0  0  0  0  0
   -9.7100   21.4300  -31.8020 C   0  0  0  0  0  0  0  0  0  0  0  0
  -10.7819   21.1861  -31.7639 H   0  0  0  0  0  0  0  0  0  0  0  0
   -8.7590   20.4140  -31.6750 C   0  0  0  0  0  0  0  0  0  0  0  0
   -9.0855   19.3725  -31.5384 H   0  0  0  0  0  0  0  0  0  0  0  0
   -7.3860   20.7170  -31.7210 C   0  0  0  0  0  0  0  0  0  0  0  0
   -6.3990   19.6780  -31.6030 N   0  0  0  0  0  0  0  0  0  0  0  0
   -5.8770   19.5720  -30.7040 H   0  0  0  0  0  0  0  0  0  0  0  0
   -6.1510   18.7150  -32.6360 C   0  0  0  0  0  0  0  0  0  0  0  0
   -6.9970   17.6020  -32.7350 C   0  0  0  0  0  0  0  0  0  0  0  0
   -7.8390   17.4916  -32.0358 H   0  0  0  0  0  0  0  0  0  0  0  0
   -6.7780   16.6330  -33.7150 C   0  0  0  0  0  0  0  0  0  0  0  0
   -7.4566   15.7711  -33.7966 H   0  0  0  0  0  0  0  0  0  0  0  0
   -5.7000   16.7560  -34.5910 C   0  0  0  0  0  0  0  0  0  0  0  0
   -5.5318   15.9925  -35.3648 H   0  0  0  0  0  0  0  0  0  0  0  0
   -4.8330   17.8470  -34.4880 C   0  0  0  0  0  0  0  0  0  0  0  0
   -3.9766   17.9295  -35.1734 H   0  0  0  0  0  0  0  0  0  0  0  0
   -5.0460   18.8410  -33.5150 C   0  0  0  0  0  0  0  0  0  0  0  0
   -4.0350   19.9580  -33.3770 C   0  0  0  0  0  0  0  0  0  0  0  0
   -3.9247   20.2133  -32.3127 H   0  0  0  0  0  0  0  0  0  0  0  0
   -4.3943   20.8269  -33.9478 H   0  0  0  0  0  0  0  0  0  0  0  0
   -2.6760   19.5410  -33.9330 C   0  0  0  0  0  0  0  0  0  0  0  0
   -1.9884   19.3300  -33.1007 H   0  0  0  0  0  0  0  0  0  0  0  0
   -2.7936   18.6376  -34.5495 H   0  0  0  0  0  0  0  0  0  0  0  0
   -2.2667   20.3549  -34.5495 H   0  0  0  0  0  0  0  0  0  0  0  0
   -5.4920   24.6090  -31.2090 C   0  0  0  0  0  0  0  0  0  0  0  0
   -6.4601   24.8523  -31.6711 H   0  0  0  0  0  0  0  0  0  0  0  0
  1  2  1  0
  2  3  1  0
  3  4  1  0
  4  5  2  0
  5  6  1  0
  5  7  1  0
  7  8  1  0
  7  9  2  0
  9 10  1  0
  9 11  1  0
 11 12  1  0
 11 13  2  0
 13 14  1  0
 14 15  2  0
 15 16  1  0
 16 17  2  0
 17 18  1  0
 17 19  1  0
 19 20  1  0
 19 21  2  0
 21 22  1  0
 21 23  1  0
 23 24  1  0
 23 25  2  0
 25 26  1  0
 26 27  1  0
 26 28  1  0
 28 29  2  0
 29 30  1  0
 29 31  1  0
 31 32  1  0
 31 33  2  0
 33 34  1  0
 33 35  1  0
 35 36  1  0
 35 37  2  0
 37 38  1  0
 38 39  1  0
 38 40  1  0
 38 41  1  0
 41 42  1  0
 41 43  1  0
 41 44  1  0
 14 45  1  0
 45 46  1  0
 45  2  2  0
 13  4  1  0
 25 16  1  0
 37 28  1  0
M  CHG  1   3  -1
M  END
>  <UniqueID>  (36) 
35

>  <SMILES>  (36) 
CCc1ccccc1Nc1ccccc1/N=c1\cc[n-]c2ccccc12

>  <Energy>  (36) 
69.62188542416895

>  <Genealogy>  (36) 
CCc1ccccc1Nc1ccccc1N=c1cc[n-]c2ccccc12 (protonated)
CCc1ccccc1Nc1ccccc1/N=c1\cc[n-]c2ccccc12 (cis-trans isomerization)
CCc1ccccc1Nc1ccccc1/N=c1\cc[n-]c2ccccc12 (3D coordinates assigned)
CCc1ccccc1Nc1ccccc1/N=c1\cc[n-]c2ccccc12 (optimized conformer: 69.62188542416895 kcal/mol)

>  <smiles>  (36) 
CCc1ccccc1Nc1ccccc1N=c1cc[nH]c2ccccc12

>  <score_type>  (36) 
oracle

>  <origin>  (36) 
adg

>  <m_score__min__energy>  (36) 
-10.69

>  <m_primary>  (36) 
energy

$$$$
36:0
     RDKit          3D

 55 56  0  0  0  0  0  0  0  0999 V2000
   -3.6440   24.2180  -28.2890 C   0  0  0  0  0  0  0  0  0  0  0  0
   -3.3430   24.5320  -29.7490 C   0  0  0  0  0  0  0  0  0  0  0  0
   -4.3340   23.8530  -30.6150 N   0  0  0  0  0  0  0  0  0  0  0  0
   -5.3700   24.7820  -31.1340 C   0  0  0  0  0  0  0  0  0  0  0  0
   -6.3700   25.2670  -30.0730 C   0  0  0  0  0  0  0  0  0  0  0  0
   -4.8590   22.6070  -30.0090 C   0  0  0  0  0  0  0  0  0  0  0  0
   -3.7960   21.4990  -29.9310 C   0  0  0  0  0  0  0  0  0  0  0  0
   -2.5660   21.8950  -30.6310 N   0  0  0  0  0  0  0  0  0  0  0  0
   -2.0540   20.8430  -31.5260 C   0  0  0  0  0  0  0  0  0  0  0  0
   -1.9750   21.3770  -32.9580 C   0  0  0  0  0  0  0  0  0  0  0  0
   -3.2970   21.1780  -33.7230 C   0  0  0  0  0  0  0  0  0  0  0  0
   -4.4400   21.7900  -33.0250 N   0  0  0  0  0  0  0  0  0  0  0  0
   -5.5120   20.8390  -32.8190 C   0  0  0  0  0  0  0  0  0  0  0  0
   -5.2500   19.4610  -32.9430 C   0  0  0  0  0  0  0  0  0  0  0  0
   -6.2630   18.5080  -32.7260 C   0  0  0  0  0  0  0  0  0  0  0  0
   -6.0300   17.1290  -32.8330 O   0  0  0  0  0  0  0  0  0  0  0  0
   -6.4220   16.3300  -33.9450 C   0  0  0  0  0  0  0  0  0  0  0  0
   -7.5480   18.9370  -32.3890 C   0  0  0  0  0  0  0  0  0  0  0  0
   -7.8310   20.3010  -32.2540 C   0  0  0  0  0  0  0  0  0  0  0  0
   -9.1140   20.7380  -31.8950 C   0  0  0  0  0  0  0  0  0  0  0  0
   -9.3670   22.1010  -31.7470 C   0  0  0  0  0  0  0  0  0  0  0  0
   -8.3380   23.0180  -31.9640 C   0  0  0  0  0  0  0  0  0  0  0  0
   -7.1000   22.5830  -32.3160 N   0  0  0  0  0  0  0  0  0  0  0  0
   -6.8140   21.2600  -32.4670 C   0  0  0  0  0  0  0  0  0  0  0  0
   -3.0286   24.8599  -27.6415 H   0  0  0  0  0  0  0  0  0  0  0  0
   -4.7087   24.4052  -28.0856 H   0  0  0  0  0  0  0  0  0  0  0  0
   -3.4120   23.1622  -28.0856 H   0  0  0  0  0  0  0  0  0  0  0  0
   -3.3996   25.6188  -29.9094 H   0  0  0  0  0  0  0  0  0  0  0  0
   -2.3327   24.1762  -29.9996 H   0  0  0  0  0  0  0  0  0  0  0  0
   -4.8634   25.6615  -31.5580 H   0  0  0  0  0  0  0  0  0  0  0  0
   -5.9501   24.2221  -31.8824 H   0  0  0  0  0  0  0  0  0  0  0  0
   -5.9643   25.0702  -29.0697 H   0  0  0  0  0  0  0  0  0  0  0  0
   -6.5389   26.3471  -30.1949 H   0  0  0  0  0  0  0  0  0  0  0  0
   -7.3227   24.7309  -30.1949 H   0  0  0  0  0  0  0  0  0  0  0  0
   -5.2113   22.8306  -28.9912 H   0  0  0  0  0  0  0  0  0  0  0  0
   -5.6767   22.2424  -30.6481 H   0  0  0  0  0  0  0  0  0  0  0  0
   -3.5604   21.3010  -28.8749 H   0  0  0  0  0  0  0  0  0  0  0  0
   -4.1971   20.5957  -30.4138 H   0  0  0  0  0  0  0  0  0  0  0  0
   -2.7800   22.7410  -31.2090 H   0  0  0  0  0  0  0  0  0  0  0  0
   -1.0509   20.5369  -31.1941 H   0  0  0  0  0  0  0  0  0  0  0  0
   -2.7329   19.9780  -31.4969 H   0  0  0  0  0  0  0  0  0  0  0  0
   -1.7431   22.4517  -32.9237 H   0  0  0  0  0  0  0  0  0  0  0  0
   -1.1896   20.8165  -33.4863 H   0  0  0  0  0  0  0  0  0  0  0  0
   -3.2029   21.6364  -34.7185 H   0  0  0  0  0  0  0  0  0  0  0  0
   -3.4854   20.0968  -33.7969 H   0  0  0  0  0  0  0  0  0  0  0  0
   -4.1220   22.2180  -32.1250 H   0  0  0  0  0  0  0  0  0  0  0  0
   -4.8020   22.5760  -33.6140 H   0  0  0  0  0  0  0  0  0  0  0  0
   -4.2384   19.1242  -33.2135 H   0  0  0  0  0  0  0  0  0  0  0  0
   -6.8796   15.3974  -33.5832 H   0  0  0  0  0  0  0  0  0  0  0  0
   -7.1509   16.8834  -34.5553 H   0  0  0  0  0  0  0  0  0  0  0  0
   -5.5383   16.0922  -34.5553 H   0  0  0  0  0  0  0  0  0  0  0  0
   -8.3452   18.1964  -32.2281 H   0  0  0  0  0  0  0  0  0  0  0  0
   -9.9193   20.0069  -31.7305 H   0  0  0  0  0  0  0  0  0  0  0  0
  -10.3700   22.4508  -31.4614 H   0  0  0  0  0  0  0  0  0  0  0  0
   -8.5295   24.0952  -31.8499 H   0  0  0  0  0  0  0  0  0  0  0  0
  1  2  1  0
  2  3  1  0
  3  4  1  0
  4  5  1  0
  3  6  1  0
  6  7  1  0
  7  8  1  0
  8  9  1  0
  9 10  1  0
 10 11  1  0
 11 12  1  0
 12 13  1  0
 13 14  2  0
 14 15  1  0
 15 16  1  0
 16 17  1  0
 15 18  2  0
 18 19  1  0
 19 20  2  0
 20 21  1  0
 21 22  2  0
 22 23  1  0
 23 24  2  0
 24 13  1  0
 24 19  1  0
  1 25  1  0
  1 26  1  0
  1 27  1  0
  2 28  1  0
  2 29  1  0
  4 30  1  0
  4 31  1  0
  5 32  1  0
  5 33  1  0
  5 34  1  0
  6 35  1  0
  6 36  1  0
  7 37  1  0
  7 38  1  0
  8 39  1  0
  9 40  1  0
  9 41  1  0
 10 42  1  0
 10 43  1  0
 11 44  1  0
 11 45  1  0
 12 46  1  0
 12 47  1  0
 14 48  1  0
 17 49  1  0
 17 50  1  0
 17 51  1  0
 18 52  1  0
 20 53  1  0
 21 54  1  0
 22 55  1  0
M  CHG  1  12   1
M  END
>  <UniqueID>  (37) 
36

>  <SMILES>  (37) 
CCN(CC)CCNCCC[NH2+]c1cc(OC)cc2cccnc12

>  <Energy>  (37) 
53.57939053634486

>  <Genealogy>  (37) 
CCN(CC)CCNCCC[NH2+]c1cc(OC)cc2cccnc12 (protonated)
CCN(CC)CCNCCC[NH2+]c1cc(OC)cc2cccnc12 (3D coordinates assigned)
CCN(CC)CCNCCC[NH2+]c1cc(OC)cc2cccnc12 (optimized conformer: 53.57939053634486 kcal/mol)

>  <smiles>  (37) 
CCN(CC)CCNCCCNc1cc(OC)cc2cccnc12

>  <score_type>  (37) 
oracle

>  <origin>  (37) 
adg

>  <m_score__min__energy>  (37) 
-7

>  <m_primary>  (37) 
energy

$$$$
37:0
     RDKit          3D

 15 15  0  0  0  0  0  0  0  0999 V2000
   -5.7340   18.9680  -33.9510 Br  0  0  0  0  0  0  0  0  0  0  0  0
   -5.8830   19.3540  -32.0600 C   0  0  0  0  0  0  0  0  0  0  0  0
   -6.6390   20.6400  -31.8550 C   0  0  0  0  0  0  0  0  0  0  0  0
   -5.9280   21.8060  -31.5190 C   0  0  0  0  0  0  0  0  0  0  0  0
   -6.6040   23.0100  -31.2960 C   0  0  0  0  0  0  0  0  0  0  0  0
   -5.6240   24.5870  -30.8490 Br  0  0  0  0  0  0  0  0  0  0  0  0
   -7.9960   23.0570  -31.3940 C   0  0  0  0  0  0  0  0  0  0  0  0
   -8.7140   21.9030  -31.7120 C   0  0  0  0  0  0  0  0  0  0  0  0
   -8.0490   20.6930  -31.9370 C   0  0  0  0  0  0  0  0  0  0  0  0
   -9.1090   19.1450  -32.3430 Br  0  0  0  0  0  0  0  0  0  0  0  0
   -6.4191   18.5329  -31.5617 H   0  0  0  0  0  0  0  0  0  0  0  0
   -4.8749   19.4555  -31.6316 H   0  0  0  0  0  0  0  0  0  0  0  0
   -4.8321   21.7708  -31.4309 H   0  0  0  0  0  0  0  0  0  0  0  0
   -8.5274   24.0044  -31.2204 H   0  0  0  0  0  0  0  0  0  0  0  0
   -9.8107   21.9453  -31.7862 H   0  0  0  0  0  0  0  0  0  0  0  0
  1  2  1  0
  2  3  1  0
  3  4  2  0
  4  5  1  0
  5  6  1  0
  5  7  2  0
  7  8  1  0
  8  9  2  0
  9 10  1  0
  9  3  1  0
  2 11  1  0
  2 12  1  0
  4 13  1  0
  7 14  1  0
  8 15  1  0
M  END
>  <UniqueID>  (38) 
37

>  <SMILES>  (38) 
BrCc1cc(Br)ccc1Br

>  <Energy>  (38) 
13.703875586632375

>  <Genealogy>  (38) 
BrCc1cc(Br)ccc1Br (3D coordinates assigned)
BrCc1cc(Br)ccc1Br (optimized conformer: 13.703875586632375 kcal/mol)

>  <smiles>  (38) 
BrCc1cc(Br)ccc1Br

>  <score_type>  (38) 
oracle

>  <origin>  (38) 
adg

>  <m_score__min__energy>  (38) 
-6.0800000000000001

>  <m_primary>  (38) 
energy

$$$$
38:0
     RDKit          3D

 35 37  0  0  0  0  0  0  0  0999 V2000
   -8.8650   18.6850  -31.6790 C   0  0  0  0  0  0  0  0  0  0  0  0
   -9.1750   19.9800  -32.4200 C   0  0  0  0  0  0  0  0  0  0  0  0
   -8.0660   20.9310  -32.2760 N   0  0  0  0  0  0  0  0  0  0  0  0
   -8.3480   22.2700  -31.7310 C   0  0  0  0  0  0  0  0  0  0  0  0
   -7.1070   23.0170  -31.2960 C   0  0  0  0  0  0  0  0  0  0  0  0
   -7.2370   24.1500  -30.4790 C   0  0  0  0  0  0  0  0  0  0  0  0
   -6.1120   24.9000  -30.1230 C   0  0  0  0  0  0  0  0  0  0  0  0
   -4.8420   24.5440  -30.6050 C   0  0  0  0  0  0  0  0  0  0  0  0
   -3.6610   25.2750  -30.2470 N   0  0  0  0  0  0  0  0  0  0  0  0
   -2.6460   24.8470  -29.3340 C   0  0  0  0  0  0  0  0  0  0  0  0
   -2.6770   23.6690  -28.8880 O   0  0  0  0  0  0  0  0  0  0  0  0
   -1.5700   25.7200  -28.9750 N   0  0  0  0  0  0  0  0  0  0  0  0
   -1.2720   26.0640  -27.5920 C   0  0  0  0  0  0  0  0  0  0  0  0
   -2.1870   25.3900  -26.5880 C   0  0  0  0  0  0  0  0  0  0  0  0
   -0.7660   24.8820  -26.7870 C   0  0  0  0  0  0  0  0  0  0  0  0
   -4.7090   23.4040  -31.4080 C   0  0  0  0  0  0  0  0  0  0  0  0
   -5.8320   22.6480  -31.7610 C   0  0  0  0  0  0  0  0  0  0  0  0
   -5.6720   21.4910  -32.5790 N   0  0  0  0  0  0  0  0  0  0  0  0
   -6.7740   20.6280  -32.8340 C   0  0  0  0  0  0  0  0  0  0  0  0
   -6.6000   19.5960  -33.5350 O   0  0  0  0  0  0  0  0  0  0  0  0
   -8.9078   18.8638  -30.5945 H   0  0  0  0  0  0  0  0  0  0  0  0
   -9.6052   17.9191  -31.9538 H   0  0  0  0  0  0  0  0  0  0  0  0
   -7.8582   18.3373  -31.9538 H   0  0  0  0  0  0  0  0  0  0  0  0
   -9.3269   19.7595  -33.4869 H   0  0  0  0  0  0  0  0  0  0  0  0
  -10.0850   20.4262  -31.9925 H   0  0  0  0  0  0  0  0  0  0  0  0
   -8.8568   22.8616  -32.5063 H   0  0  0  0  0  0  0  0  0  0  0  0
   -8.9725   22.1306  -30.8362 H   0  0  0  0  0  0  0  0  0  0  0  0
   -8.2310   24.4504  -30.1159 H   0  0  0  0  0  0  0  0  0  0  0  0
   -6.2222   25.7727  -29.4625 H   0  0  0  0  0  0  0  0  0  0  0  0
   -0.9362   27.0973  -27.7639 H   0  0  0  0  0  0  0  0  0  0  0  0
   -2.4605   25.9092  -25.6576 H   0  0  0  0  0  0  0  0  0  0  0  0
   -3.1885   24.9370  -26.6292 H   0  0  0  0  0  0  0  0  0  0  0  0
   -0.0120   25.0340  -26.0006 H   0  0  0  0  0  0  0  0  0  0  0  0
   -0.3139   23.9095  -27.0318 H   0  0  0  0  0  0  0  0  0  0  0  0
   -3.7134   23.1007  -31.7640 H   0  0  0  0  0  0  0  0  0  0  0  0
  1  2  1  0
  2  3  1  0
  3  4  1  0
  4  5  1  0
  5  6  2  0
  6  7  1  0
  7  8  2  0
  8  9  1  0
  9 10  1  0
 10 11  2  0
 10 12  1  0
 12 13  1  0
 13 14  1  0
 14 15  1  0
  8 16  1  0
 16 17  2  0
 17 18  1  0
 18 19  1  0
 19 20  2  0
 19  3  1  0
 17  5  1  0
 15 13  1  0
  1 21  1  0
  1 22  1  0
  1 23  1  0
  2 24  1  0
  2 25  1  0
  4 26  1  0
  4 27  1  0
  6 28  1  0
  7 29  1  0
 13 30  1  0
 14 31  1  0
 14 32  1  0
 15 33  1  0
 15 34  1  0
 16 35  1  0
M  CHG  3   9  -1  12  -1  18  -1
M  END
>  <UniqueID>  (39) 
38

>  <SMILES>  (39) 
CCN1Cc2ccc([N-]C(=O)[N-]C3CC3)cc2[N-]C1=O

>  <Energy>  (39) 
299.4020319239576

>  <Genealogy>  (39) 
CCN1Cc2ccc([N-]C(=O)[N-]C3CC3)cc2[N-]C1=O (protonated)
CCN1Cc2ccc([N-]C(=O)[N-]C3CC3)cc2[N-]C1=O (3D coordinates assigned)
CCN1Cc2ccc([N-]C(=O)[N-]C3CC3)cc2[N-]C1=O (nonaromatic ring conformer: 299.4020319239576 kcal/mol)

>  <smiles>  (39) 
CCN1Cc2ccc(NC(=O)NC3CC3)cc2NC1=O

>  <score_type>  (39) 
oracle

>  <origin>  (39) 
adg

>  <m_score__min__energy>  (39) 
-11.140000000000001

>  <m_primary>  (39) 
energy

$$$$
39:0
     RDKit          3D

 34 36  0  0  0  0  0  0  0  0999 V2000
   -5.3920   25.5630  -30.1510 C   0  0  0  0  0  0  0  0  0  0  0  0
   -4.6640   24.5500  -30.8360 O   0  0  0  0  0  0  0  0  0  0  0  0
   -5.2460   23.4240  -31.4400 C   0  0  0  0  0  0  0  0  0  0  0  0
   -4.4710   22.6750  -32.3290 C   0  0  0  0  0  0  0  0  0  0  0  0
   -4.9950   21.5460  -32.9590 C   0  0  0  0  0  0  0  0  0  0  0  0
   -6.3190   21.1350  -32.7080 C   0  0  0  0  0  0  0  0  0  0  0  0
   -6.8960   19.9920  -33.3200 C   0  0  0  0  0  0  0  0  0  0  0  0
   -6.1380   19.0890  -34.2630 C   0  0  0  0  0  0  0  0  0  0  0  0
   -5.7440   17.7990  -33.5890 C   0  0  0  0  0  0  0  0  0  0  0  0
   -5.0370   16.8150  -34.3030 C   0  0  0  0  0  0  0  0  0  0  0  0
   -4.6650   15.6200  -33.6790 C   0  0  0  0  0  0  0  0  0  0  0  0
   -4.9870   15.4010  -32.3360 C   0  0  0  0  0  0  0  0  0  0  0  0
   -4.5190   13.9010  -31.5550 Cl  0  0  0  0  0  0  0  0  0  0  0  0
   -5.6760   16.3810  -31.6150 C   0  0  0  0  0  0  0  0  0  0  0  0
   -6.0490   17.5770  -32.2360 C   0  0  0  0  0  0  0  0  0  0  0  0
   -8.1820   19.6550  -33.0220 N   0  0  0  0  0  0  0  0  0  0  0  0
   -8.9480   20.3750  -32.1650 C   0  0  0  0  0  0  0  0  0  0  0  0
   -8.4260   21.5060  -31.5420 C   0  0  0  0  0  0  0  0  0  0  0  0
   -7.1080   21.8930  -31.8070 C   0  0  0  0  0  0  0  0  0  0  0  0
   -6.5700   23.0280  -31.1810 C   0  0  0  0  0  0  0  0  0  0  0  0
   -5.2882   25.4186  -29.0655 H   0  0  0  0  0  0  0  0  0  0  0  0
   -4.9959   26.5508  -30.4290 H   0  0  0  0  0  0  0  0  0  0  0  0
   -6.4546   25.5025  -30.4290 H   0  0  0  0  0  0  0  0  0  0  0  0
   -3.4342   22.9795  -32.5348 H   0  0  0  0  0  0  0  0  0  0  0  0
   -4.3690   20.9717  -33.6578 H   0  0  0  0  0  0  0  0  0  0  0  0
   -6.7755   18.8602  -35.1298 H   0  0  0  0  0  0  0  0  0  0  0  0
   -5.2218   19.6088  -34.5798 H   0  0  0  0  0  0  0  0  0  0  0  0
   -4.7753   16.9862  -35.3576 H   0  0  0  0  0  0  0  0  0  0  0  0
   -4.1185   14.8515  -34.2453 H   0  0  0  0  0  0  0  0  0  0  0  0
   -5.9251   16.2108  -30.5572 H   0  0  0  0  0  0  0  0  0  0  0  0
   -6.5840   18.3479  -31.6620 H   0  0  0  0  0  0  0  0  0  0  0  0
   -9.9836   20.0650  -31.9616 H   0  0  0  0  0  0  0  0  0  0  0  0
   -9.0457   22.0909  -30.8464 H   0  0  0  0  0  0  0  0  0  0  0  0
   -7.1882   23.6117  -30.4831 H   0  0  0  0  0  0  0  0  0  0  0  0
  1  2  1  0
  2  3  1  0
  3  4  2  0
  4  5  1  0
  5  6  2  0
  6  7  1  0
  7  8  1  0
  8  9  1  0
  9 10  2  0
 10 11  1  0
 11 12  2  0
 12 13  1  0
 12 14  1  0
 14 15  2  0
  7 16  2  0
 16 17  1  0
 17 18  2  0
 18 19  1  0
 19 20  2  0
 20  3  1  0
 19  6  1  0
 15  9  1  0
  1 21  1  0
  1 22  1  0
  1 23  1  0
  4 24  1  0
  5 25  1  0
  8 26  1  0
  8 27  1  0
 10 28  1  0
 11 29  1  0
 14 30  1  0
 15 31  1  0
 17 32  1  0
 18 33  1  0
 20 34  1  0
M  END
>  <UniqueID>  (40) 
39

>  <SMILES>  (40) 
COc1ccc2c(Cc3ccc(Cl)cc3)nccc2c1

>  <Energy>  (40) 
40.82420633318179

>  <Genealogy>  (40) 
COc1ccc2c(Cc3ccc(Cl)cc3)nccc2c1 (3D coordinates assigned)
COc1ccc2c(Cc3ccc(Cl)cc3)nccc2c1 (optimized conformer: 40.82420633318179 kcal/mol)

>  <smiles>  (40) 
COc1ccc2c(Cc3ccc(Cl)cc3)nccc2c1

>  <score_type>  (40) 
oracle

>  <origin>  (40) 
adg

>  <m_score__min__energy>  (40) 
-7.9199999999999999

>  <m_primary>  (40) 
energy

$$$$
40:0
     RDKit          3D

 56 59  0  0  0  0  0  0  0  0999 V2000
   -6.9000   24.9810  -29.9240 C   0  0  0  0  0  0  0  0  0  0  0  0
   -5.8640   23.9460  -30.0680 N   0  0  0  0  0  0  0  0  0  0  0  0
   -4.4790   24.3040  -29.8500 C   0  0  0  0  0  0  0  0  0  0  0  0
   -3.7980   24.7690  -30.8070 O   0  0  0  0  0  0  0  0  0  0  0  0
   -3.8460   24.2000  -28.4840 C   0  0  0  0  0  0  0  0  0  0  0  0
   -2.9060   23.0250  -28.3900 C   0  0  0  0  0  0  0  0  0  0  0  0
   -1.7000   23.0220  -29.1090 C   0  0  0  0  0  0  0  0  0  0  0  0
   -0.8430   21.9200  -29.0540 C   0  0  0  0  0  0  0  0  0  0  0  0
   -1.1860   20.7980  -28.2850 C   0  0  0  0  0  0  0  0  0  0  0  0
   -0.3340   19.6840  -28.2240 C   0  0  0  0  0  0  0  0  0  0  0  0
   -0.6900   18.5710  -27.4580 C   0  0  0  0  0  0  0  0  0  0  0  0
   -1.8940   18.5600  -26.7490 C   0  0  0  0  0  0  0  0  0  0  0  0
   -2.7510   19.6630  -26.8010 C   0  0  0  0  0  0  0  0  0  0  0  0
   -2.4060   20.7880  -27.5660 C   0  0  0  0  0  0  0  0  0  0  0  0
   -3.2580   21.9010  -27.6270 C   0  0  0  0  0  0  0  0  0  0  0  0
   -6.1800   22.5890  -30.5730 C   0  0  1  0  0  0  0  0  0  0  0  0
   -7.5080   22.5390  -31.3720 C   0  0  0  0  0  0  0  0  0  0  0  0
   -8.1510   21.2120  -31.2620 N   0  0  0  0  0  0  0  0  0  0  0  0
   -7.2590   20.1000  -31.6240 C   0  0  0  0  0  0  0  0  0  0  0  0
   -8.1130   19.0160  -32.2730 C   0  0  0  0  0  0  0  0  0  0  0  0
   -9.4950   19.6220  -32.4300 C   0  0  0  0  0  0  0  0  0  0  0  0
   -9.2980   21.1000  -32.1670 C   0  0  0  0  0  0  0  0  0  0  0  0
   -4.9970   22.0290  -31.3430 C   0  0  0  0  0  0  0  0  0  0  0  0
   -4.1060   21.1420  -30.7100 C   0  0  0  0  0  0  0  0  0  0  0  0
   -3.0070   20.6250  -31.4000 C   0  0  0  0  0  0  0  0  0  0  0  0
   -2.7770   20.9940  -32.7270 C   0  0  0  0  0  0  0  0  0  0  0  0
   -3.6460   21.8810  -33.3650 C   0  0  0  0  0  0  0  0  0  0  0  0
   -4.7470   22.4000  -32.6790 C   0  0  0  0  0  0  0  0  0  0  0  0
   -7.0864   25.1672  -28.8560 H   0  0  0  0  0  0  0  0  0  0  0  0
   -6.5593   25.9102  -30.4042 H   0  0  0  0  0  0  0  0  0  0  0  0
   -7.8288   24.6394  -30.4042 H   0  0  0  0  0  0  0  0  0  0  0  0
   -3.2833   25.1232  -28.2812 H   0  0  0  0  0  0  0  0  0  0  0  0
   -4.6485   24.0556  -27.7456 H   0  0  0  0  0  0  0  0  0  0  0  0
   -1.4276   23.8947  -29.7208 H   0  0  0  0  0  0  0  0  0  0  0  0
    0.1031   21.9322  -29.6151 H   0  0  0  0  0  0  0  0  0  0  0  0
    0.6151   19.6873  -28.7800 H   0  0  0  0  0  0  0  0  0  0  0  0
   -0.0198   17.6999  -27.4129 H   0  0  0  0  0  0  0  0  0  0  0  0
   -2.1683   17.6805  -26.1480 H   0  0  0  0  0  0  0  0  0  0  0  0
   -3.6978   19.6493  -26.2412 H   0  0  0  0  0  0  0  0  0  0  0  0
   -4.2083   21.8926  -27.0730 H   0  0  0  0  0  0  0  0  0  0  0  0
   -6.3528   21.9344  -29.7060 H   0  0  0  0  0  0  0  0  0  0  0  0
   -8.1932   23.3032  -30.9765 H   0  0  0  0  0  0  0  0  0  0  0  0
   -7.2832   22.7293  -32.4318 H   0  0  0  0  0  0  0  0  0  0  0  0
   -6.4934   20.4488  -32.3327 H   0  0  0  0  0  0  0  0  0  0  0  0
   -6.7493   19.7075  -30.7317 H   0  0  0  0  0  0  0  0  0  0  0  0
   -7.7013   18.7399  -33.2550 H   0  0  0  0  0  0  0  0  0  0  0  0
   -8.1379   18.0999  -31.6646 H   0  0  0  0  0  0  0  0  0  0  0  0
   -9.8778   19.4567  -33.4479 H   0  0  0  0  0  0  0  0  0  0  0  0
  -10.2278   19.1711  -31.7446 H   0  0  0  0  0  0  0  0  0  0  0  0
   -9.0921   21.6295  -33.1089 H   0  0  0  0  0  0  0  0  0  0  0  0
  -10.1994   21.5490  -31.7244 H   0  0  0  0  0  0  0  0  0  0  0  0
   -4.2767   20.8533  -29.6624 H   0  0  0  0  0  0  0  0  0  0  0  0
   -2.3219   19.9264  -30.8974 H   0  0  0  0  0  0  0  0  0  0  0  0
   -1.9114   20.5859  -33.2694 H   0  0  0  0  0  0  0  0  0  0  0  0
   -3.4635   22.1719  -34.4100 H   0  0  0  0  0  0  0  0  0  0  0  0
   -5.4238   23.1036  -33.1859 H   0  0  0  0  0  0  0  0  0  0  0  0
  1  2  1  0
  2  3  1  0
  3  4  2  0
  3  5  1  0
  5  6  1  0
  6  7  2  0
  7  8  1  0
  8  9  2  0
  9 10  1  0
 10 11  2  0
 11 12  1  0
 12 13  2  0
 13 14  1  0
 14 15  2  0
  2 16  1  0
 16 17  1  0
 17 18  1  0
 18 19  1  0
 19 20  1  0
 20 21  1  0
 21 22  1  0
 16 23  1  0
 23 24  2  0
 24 25  1  0
 25 26  2  0
 26 27  1  0
 27 28  2  0
 15  6  1  0
 22 18  1  0
 28 23  1  0
 14  9  1  0
  1 29  1  0
  1 30  1  0
  1 31  1  0
  5 32  1  0
  5 33  1  0
  7 34  1  0
  8 35  1  0
 10 36  1  0
 11 37  1  0
 12 38  1  0
 13 39  1  0
 15 40  1  0
 16 41  1  1
 17 42  1  0
 17 43  1  0
 19 44  1  0
 19 45  1  0
 20 46  1  0
 20 47  1  0
 21 48  1  0
 21 49  1  0
 22 50  1  0
 22 51  1  0
 24 52  1  0
 25 53  1  0
 26 54  1  0
 27 55  1  0
 28 56  1  0
M  END
>  <UniqueID>  (41) 
40

>  <SMILES>  (41) 
CN(C(=O)Cc1ccc2ccccc2c1)[C@@H](CN1CCCC1)c1ccccc1

>  <Energy>  (41) 
66.0789908493261

>  <Genealogy>  (41) 
CN(C(=O)Cc1ccc2ccccc2c1)[C@@H](CN1CCCC1)c1ccccc1 (chirality)
CN(C(=O)Cc1ccc2ccccc2c1)[C@@H](CN1CCCC1)c1ccccc1 (3D coordinates assigned)
CN(C(=O)Cc1ccc2ccccc2c1)[C@@H](CN1CCCC1)c1ccccc1 (nonaromatic ring conformer: 66.0789908493261 kcal/mol)

>  <smiles>  (41) 
CN(C(=O)Cc1ccc2ccccc2c1)C(CN1CCCC1)c1ccccc1

>  <score_type>  (41) 
oracle

>  <origin>  (41) 
adg

>  <m_score__min__energy>  (41) 
-10.279999999999999

>  <m_primary>  (41) 
energy

$$$$
41:0
     RDKit          3D

 39 42  0  0  0  0  0  0  0  0999 V2000
   -9.2280   18.3190  -31.8770 O   0  0  0  0  0  0  0  0  0  0  0  0
   -8.0770   18.5550  -32.3310 C   0  0  0  0  0  0  0  0  0  0  0  0
   -7.3430   17.5530  -32.8920 N   0  0  0  0  0  0  0  0  0  0  0  0
   -6.0860   17.7720  -33.3950 C   0  0  0  0  0  0  0  0  0  0  0  0
   -5.3190   16.6540  -33.9980 C   0  0  0  0  0  0  0  0  0  0  0  0
   -5.7380   15.3200  -33.8230 C   0  0  0  0  0  0  0  0  0  0  0  0
   -5.0140   14.2680  -34.3930 C   0  0  0  0  0  0  0  0  0  0  0  0
   -3.8640   14.5320  -35.1420 C   0  0  0  0  0  0  0  0  0  0  0  0
   -3.1640   13.5110  -35.6930 F   0  0  0  0  0  0  0  0  0  0  0  0
   -3.4380   15.8500  -35.3240 C   0  0  0  0  0  0  0  0  0  0  0  0
   -4.1590   16.9060  -34.7560 C   0  0  0  0  0  0  0  0  0  0  0  0
   -5.5460   19.0250  -33.3370 N   0  0  0  0  0  0  0  0  0  0  0  0
   -6.2640   20.0290  -32.7820 C   0  0  0  0  0  0  0  0  0  0  0  0
   -5.8000   21.6300  -32.6070 S   0  0  0  0  0  0  0  0  0  0  0  0
   -7.2440   22.0960  -31.8470 C   0  0  0  0  0  0  0  0  0  0  0  0
   -7.5490   23.4890  -31.3740 C   0  0  0  0  0  0  0  0  0  0  0  0
   -6.8890   23.8400  -30.0960 N   0  0  0  0  0  0  0  0  0  0  0  0
   -6.7330   25.2890  -29.8530 C   0  0  0  0  0  0  0  0  0  0  0  0
   -5.3800   25.8470  -30.3580 C   0  0  0  0  0  0  0  0  0  0  0  0
   -4.5140   24.8420  -30.8460 O   0  0  0  0  0  0  0  0  0  0  0  0
   -4.3870   23.8220  -29.8820 C   0  0  0  0  0  0  0  0  0  0  0  0
   -5.6960   23.0280  -29.7630 C   0  0  0  0  0  0  0  0  0  0  0  0
   -8.1000   20.9960  -31.7420 C   0  0  0  0  0  0  0  0  0  0  0  0
   -7.5280   19.8340  -32.2700 C   0  0  0  0  0  0  0  0  0  0  0  0
   -6.6414   15.1045  -33.2336 H   0  0  0  0  0  0  0  0  0  0  0  0
   -5.3505   13.2303  -34.2515 H   0  0  0  0  0  0  0  0  0  0  0  0
   -2.5339   16.0580  -35.9151 H   0  0  0  0  0  0  0  0  0  0  0  0
   -3.8172   17.9412  -34.9026 H   0  0  0  0  0  0  0  0  0  0  0  0
   -7.2140   24.1989  -32.1446 H   0  0  0  0  0  0  0  0  0  0  0  0
   -8.6341   23.5400  -31.2008 H   0  0  0  0  0  0  0  0  0  0  0  0
   -7.5457   25.8202  -30.3700 H   0  0  0  0  0  0  0  0  0  0  0  0
   -6.7664   25.4446  -28.7646 H   0  0  0  0  0  0  0  0  0  0  0  0
   -5.5774   26.5634  -31.1691 H   0  0  0  0  0  0  0  0  0  0  0  0
   -4.8807   26.3230  -29.5011 H   0  0  0  0  0  0  0  0  0  0  0  0
   -3.5764   23.1409  -30.1804 H   0  0  0  0  0  0  0  0  0  0  0  0
   -4.1588   24.2796  -28.9081 H   0  0  0  0  0  0  0  0  0  0  0  0
   -5.6511   22.1702  -30.4502 H   0  0  0  0  0  0  0  0  0  0  0  0
   -5.7951   22.7055  -28.7160 H   0  0  0  0  0  0  0  0  0  0  0  0
   -9.1049   21.0391  -31.2967 H   0  0  0  0  0  0  0  0  0  0  0  0
  1  2  2  0
  2  3  1  0
  3  4  1  0
  4  5  1  0
  5  6  2  0
  6  7  1  0
  7  8  2  0
  8  9  1  0
  8 10  1  0
 10 11  2  0
  4 12  2  0
 12 13  1  0
 13 14  1  0
 14 15  1  0
 15 16  1  0
 16 17  1  0
 17 18  1  0
 18 19  1  0
 19 20  1  0
 20 21  1  0
 21 22  1  0
 15 23  2  0
 23 24  1  0
 24  2  1  0
 11  5  1  0
 24 13  2  0
 22 17  1  0
  6 25  1  0
  7 26  1  0
 10 27  1  0
 11 28  1  0
 16 29  1  0
 16 30  1  0
 18 31  1  0
 18 32  1  0
 19 33  1  0
 19 34  1  0
 21 35  1  0
 21 36  1  0
 22 37  1  0
 22 38  1  0
 23 39  1  0
M  CHG  1   3  -1
M  END
>  <UniqueID>  (42) 
41

>  <SMILES>  (42) 
O=c1[n-]c(-c2ccc(F)cc2)nc2sc(CN3CCOCC3)cc12

>  <Energy>  (42) 
91.75993850682607

>  <Genealogy>  (42) 
O=c1[n-]c(-c2ccc(F)cc2)nc2sc(CN3CCOCC3)cc12 (protonated)
O=c1[n-]c(-c2ccc(F)cc2)nc2sc(CN3CCOCC3)cc12 (3D coordinates assigned)
O=c1[n-]c(-c2ccc(F)cc2)nc2sc(CN3CCOCC3)cc12 (nonaromatic ring conformer: 91.75993850682607 kcal/mol)

>  <smiles>  (42) 
O=c1[nH]c(-c2ccc(F)cc2)nc2sc(CN3CCOCC3)cc12

>  <score_type>  (42) 
oracle

>  <origin>  (42) 
adg

>  <m_score__min__energy>  (42) 
-8.5199999999999996

>  <m_primary>  (42) 
energy

$$$$
42:0
     RDKit          3D

 36 37  0  0  0  0  0  0  0  0999 V2000
   -4.6480   24.2710  -30.4800 C   0  0  0  0  0  0  0  0  0  0  0  0
   -5.6870   23.3070  -30.9560 C   0  0  0  0  0  0  0  0  0  0  0  0
   -7.2630   23.2430  -30.3440 S   0  0  0  0  0  0  0  0  0  0  0  0
   -7.7440   21.9900  -31.3440 C   0  0  0  0  0  0  0  0  0  0  0  0
   -8.9690   21.4180  -31.3840 N   0  0  0  0  0  0  0  0  0  0  0  0
   -9.1920   20.4080  -32.2680 C   0  0  0  0  0  0  0  0  0  0  0  0
   -8.1970   19.9800  -33.1010 N   0  0  0  0  0  0  0  0  0  0  0  0
   -6.9500   20.5520  -33.0780 C   0  0  0  0  0  0  0  0  0  0  0  0
   -5.9230   20.1210  -33.9320 O   0  0  0  0  0  0  0  0  0  0  0  0
   -5.2240   18.8800  -33.8290 C   0  0  0  0  0  0  0  0  0  0  0  0
   -6.1150   17.6950  -34.2340 C   0  0  0  0  0  0  0  0  0  0  0  0
   -6.3750   16.6900  -33.0870 C   0  0  0  0  0  0  0  0  0  0  0  0
   -6.4810   17.4370  -31.7520 C   0  0  0  0  0  0  0  0  0  0  0  0
   -5.2780   15.6180  -33.0010 C   0  0  0  0  0  0  0  0  0  0  0  0
   -6.7090   21.5910  -32.1680 C   0  0  0  0  0  0  0  0  0  0  0  0
   -5.5260   22.3350  -31.9600 C   0  0  0  0  0  0  0  0  0  0  0  0
   -4.2500   22.1240  -32.7250 C   0  0  0  0  0  0  0  0  0  0  0  0
   -4.6352   24.2828  -29.3801 H   0  0  0  0  0  0  0  0  0  0  0  0
   -3.6613   23.9613  -30.8548 H   0  0  0  0  0  0  0  0  0  0  0  0
   -4.8830   25.2781  -30.8548 H   0  0  0  0  0  0  0  0  0  0  0  0
  -10.1825   19.9316  -32.3125 H   0  0  0  0  0  0  0  0  0  0  0  0
   -8.4150   19.1950  -33.7500 H   0  0  0  0  0  0  0  0  0  0  0  0
   -4.3455   18.9088  -34.4904 H   0  0  0  0  0  0  0  0  0  0  0  0
   -4.9212   18.7410  -32.7807 H   0  0  0  0  0  0  0  0  0  0  0  0
   -7.0832   18.0897  -34.5756 H   0  0  0  0  0  0  0  0  0  0  0  0
   -5.5812   17.1479  -35.0251 H   0  0  0  0  0  0  0  0  0  0  0  0
   -7.3241   16.1776  -33.3031 H   0  0  0  0  0  0  0  0  0  0  0  0
   -6.3795   16.7217  -30.9225 H   0  0  0  0  0  0  0  0  0  0  0  0
   -5.6805   18.1888  -31.6879 H   0  0  0  0  0  0  0  0  0  0  0  0
   -7.4590   17.9364  -31.6879 H   0  0  0  0  0  0  0  0  0  0  0  0
   -5.0577   15.4027  -31.9450 H   0  0  0  0  0  0  0  0  0  0  0  0
   -5.6231   14.6995  -33.4982 H   0  0  0  0  0  0  0  0  0  0  0  0
   -4.3677   15.9842  -33.4982 H   0  0  0  0  0  0  0  0  0  0  0  0
   -3.4177   21.9864  -32.0190 H   0  0  0  0  0  0  0  0  0  0  0  0
   -4.3456   21.2295  -33.3580 H   0  0  0  0  0  0  0  0  0  0  0  0
   -4.0526   23.0017  -33.3580 H   0  0  0  0  0  0  0  0  0  0  0  0
  1  2  1  0
  2  3  1  0
  3  4  1  0
  4  5  2  0
  5  6  1  0
  6  7  2  0
  7  8  1  0
  8  9  1  0
  9 10  1  0
 10 11  1  0
 11 12  1  0
 12 13  1  0
 12 14  1  0
  8 15  2  0
 15 16  1  0
 16 17  1  0
 16  2  2  0
 15  4  1  0
  1 18  1  0
  1 19  1  0
  1 20  1  0
  6 21  1  0
  7 22  1  0
 10 23  1  0
 10 24  1  0
 11 25  1  0
 11 26  1  0
 12 27  1  0
 13 28  1  0
 13 29  1  0
 13 30  1  0
 14 31  1  0
 14 32  1  0
 14 33  1  0
 17 34  1  0
 17 35  1  0
 17 36  1  0
M  CHG  1   7   1
M  END
>  <UniqueID>  (43) 
42

>  <SMILES>  (43) 
Cc1sc2nc[nH+]c(OCCC(C)C)c2c1C

>  <Energy>  (43) 
60.578707458172055

>  <Genealogy>  (43) 
Cc1sc2nc[nH+]c(OCCC(C)C)c2c1C (protonated)
Cc1sc2nc[nH+]c(OCCC(C)C)c2c1C (3D coordinates assigned)
Cc1sc2nc[nH+]c(OCCC(C)C)c2c1C (optimized conformer: 60.578707458172055 kcal/mol)

>  <smiles>  (43) 
Cc1sc2ncnc(OCCC(C)C)c2c1C

>  <score_type>  (43) 
oracle

>  <origin>  (43) 
adg

>  <m_score__min__energy>  (43) 
-6.1100000000000003

>  <m_primary>  (43) 
energy

$$$$
43:0
     RDKit          3D

 39 40  0  0  0  0  0  0  0  0999 V2000
   -9.0710   21.7190  -31.5760 C   0  0  0  0  0  0  0  0  0  0  0  0
   -9.0910   20.3110  -32.1930 C   0  0  0  0  0  0  0  0  0  0  0  0
   -7.7720   19.6200  -32.1870 N   0  0  0  0  0  0  0  0  0  0  0  0
   -7.8740   18.1720  -31.8620 C   0  0  0  0  0  0  0  0  0  0  0  0
   -6.5120   17.5130  -31.6100 C   0  0  0  0  0  0  0  0  0  0  0  0
   -7.0510   19.8310  -33.4770 C   0  0  0  0  0  0  0  0  0  0  0  0
   -5.5860   20.2730  -33.2850 C   0  0  0  0  0  0  0  0  0  0  0  0
   -5.2540   20.4360  -31.9080 O   0  0  0  0  0  0  0  0  0  0  0  0
   -4.2580   21.2890  -31.3960 C   0  0  0  0  0  0  0  0  0  0  0  0
   -2.9620   20.8270  -31.0890 C   0  0  0  0  0  0  0  0  0  0  0  0
   -1.9970   21.7010  -30.5800 C   0  0  0  0  0  0  0  0  0  0  0  0
   -2.3030   23.0450  -30.3710 C   0  0  0  0  0  0  0  0  0  0  0  0
   -3.5810   23.5260  -30.6700 C   0  0  0  0  0  0  0  0  0  0  0  0
   -3.8760   24.8370  -30.4620 N   0  0  0  0  0  0  0  0  0  0  0  0
   -5.1070   25.3470  -30.7340 C   0  0  0  0  0  0  0  0  0  0  0  0
   -6.1090   24.5200  -31.2430 C   0  0  0  0  0  0  0  0  0  0  0  0
   -5.8410   23.1690  -31.4680 C   0  0  0  0  0  0  0  0  0  0  0  0
   -4.5650   22.6500  -31.1870 C   0  0  0  0  0  0  0  0  0  0  0  0
   -9.0721   21.6386  -30.4789 H   0  0  0  0  0  0  0  0  0  0  0  0
   -8.1652   22.2501  -31.9038 H   0  0  0  0  0  0  0  0  0  0  0  0
   -9.9613   22.2757  -31.9038 H   0  0  0  0  0  0  0  0  0  0  0  0
   -9.8045   19.6961  -31.6248 H   0  0  0  0  0  0  0  0  0  0  0  0
   -9.3773   20.4337  -33.2480 H   0  0  0  0  0  0  0  0  0  0  0  0
   -7.2180   20.0720  -31.4220 H   0  0  0  0  0  0  0  0  0  0  0  0
   -8.4900   18.0590  -30.9577 H   0  0  0  0  0  0  0  0  0  0  0  0
   -8.3235   17.6720  -32.7326 H   0  0  0  0  0  0  0  0  0  0  0  0
   -6.3398   17.4297  -30.5268 H   0  0  0  0  0  0  0  0  0  0  0  0
   -6.5009   16.5099  -32.0613 H   0  0  0  0  0  0  0  0  0  0  0  0
   -5.7186   18.1268  -32.0613 H   0  0  0  0  0  0  0  0  0  0  0  0
   -7.0609   18.8874  -34.0422 H   0  0  0  0  0  0  0  0  0  0  0  0
   -7.5697   20.6382  -34.0149 H   0  0  0  0  0  0  0  0  0  0  0  0
   -4.9246   19.5104  -33.7220 H   0  0  0  0  0  0  0  0  0  0  0  0
   -5.4559   21.2449  -33.7835 H   0  0  0  0  0  0  0  0  0  0  0  0
   -2.7078   19.7692  -31.2514 H   0  0  0  0  0  0  0  0  0  0  0  0
   -0.9904   21.3261  -30.3430 H   0  0  0  0  0  0  0  0  0  0  0  0
   -1.5385   23.7271  -29.9707 H   0  0  0  0  0  0  0  0  0  0  0  0
   -5.3129   26.4122  -30.5526 H   0  0  0  0  0  0  0  0  0  0  0  0
   -7.1048   24.9307  -31.4657 H   0  0  0  0  0  0  0  0  0  0  0  0
   -6.6277   22.5106  -31.8650 H   0  0  0  0  0  0  0  0  0  0  0  0
  1  2  1  0
  2  3  1  0
  3  4  1  0
  4  5  1  0
  3  6  1  0
  6  7  1  0
  7  8  1  0
  8  9  1  0
  9 10  2  0
 10 11  1  0
 11 12  2  0
 12 13  1  0
 13 14  2  0
 14 15  1  0
 15 16  2  0
 16 17  1  0
 17 18  2  0
 18  9  1  0
 18 13  1  0
  1 19  1  0
  1 20  1  0
  1 21  1  0
  2 22  1  0
  2 23  1  0
  3 24  1  0
  4 25  1  0
  4 26  1  0
  5 27  1  0
  5 28  1  0
  5 29  1  0
  6 30  1  0
  6 31  1  0
  7 32  1  0
  7 33  1  0
 10 34  1  0
 11 35  1  0
 12 36  1  0
 15 37  1  0
 16 38  1  0
 17 39  1  0
M  CHG  1   3   1
M  END
>  <UniqueID>  (44) 
43

>  <SMILES>  (44) 
CC[NH+](CC)CCOc1cccc2ncccc12

>  <Energy>  (44) 
45.66238151307974

>  <Genealogy>  (44) 
CC[NH+](CC)CCOc1cccc2ncccc12 (protonated)
CC[NH+](CC)CCOc1cccc2ncccc12 (3D coordinates assigned)
CC[NH+](CC)CCOc1cccc2ncccc12 (optimized conformer: 45.66238151307974 kcal/mol)

>  <smiles>  (44) 
CCN(CC)CCOc1cccc2ncccc12

>  <score_type>  (44) 
oracle

>  <origin>  (44) 
adg

>  <m_score__min__energy>  (44) 
-5.2599999999999998

>  <m_primary>  (44) 
energy

$$$$
44:0
     RDKit          3D

 51 54  0  0  0  0  0  0  0  0999 V2000
   -3.4520   24.1590  -27.4030 C   0  0  0  0  0  0  0  0  0  0  0  0
   -4.3060   23.1410  -28.1520 C   0  0  0  0  0  0  0  0  0  0  0  0
   -3.5470   22.5480  -29.2580 N   0  0  0  0  0  0  0  0  0  0  0  0
   -3.6800   22.7920  -30.5920 C   0  0  0  0  0  0  0  0  0  0  0  0
   -4.6830   23.6530  -31.1490 N   0  0  0  0  0  0  0  0  0  0  0  0
   -5.0110   24.8980  -30.4510 C   0  0  0  0  0  0  0  0  0  0  0  0
   -6.2180   24.6940  -29.5350 C   0  0  0  0  0  0  0  0  0  0  0  0
   -6.9710   23.3800  -29.8080 C   0  0  0  0  0  0  0  0  0  0  0  0
   -7.6160   23.2820  -31.1320 N   0  0  0  0  0  0  0  0  0  0  0  0
   -8.7660   21.9730  -31.3350 S   0  0  0  0  0  0  0  0  0  0  0  0
   -9.8240   22.3820  -32.3220 O   0  0  0  0  0  0  0  0  0  0  0  0
   -9.4420   21.7220  -30.0160 O   0  0  0  0  0  0  0  0  0  0  0  0
   -8.0240   20.4610  -31.8760 C   0  0  0  0  0  0  0  0  0  0  0  0
   -6.7550   20.4720  -32.4780 C   0  0  0  0  0  0  0  0  0  0  0  0
   -6.1750   19.2810  -32.9250 C   0  0  0  0  0  0  0  0  0  0  0  0
   -6.8470   18.0670  -32.7550 C   0  0  0  0  0  0  0  0  0  0  0  0
   -8.0920   18.0420  -32.1220 C   0  0  0  0  0  0  0  0  0  0  0  0
   -8.6730   19.2320  -31.6710 C   0  0  0  0  0  0  0  0  0  0  0  0
   -6.8750   23.7060  -32.3340 C   0  0  0  0  0  0  0  0  0  0  0  0
   -5.4140   23.2400  -32.3510 C   0  0  0  0  0  0  0  0  0  0  0  0
   -2.7010   22.2370  -31.3520 N   0  0  0  0  0  0  0  0  0  0  0  0
   -1.9330   21.6150  -30.4410 C   0  0  0  0  0  0  0  0  0  0  0  0
   -0.7590   20.9010  -30.6730 C   0  0  0  0  0  0  0  0  0  0  0  0
   -0.0820   20.3750  -29.5570 C   0  0  0  0  0  0  0  0  0  0  0  0
   -0.5810   20.5830  -28.2530 C   0  0  0  0  0  0  0  0  0  0  0  0
   -1.7670   21.3140  -28.0510 C   0  0  0  0  0  0  0  0  0  0  0  0
   -2.4250   21.8090  -29.1810 C   0  0  0  0  0  0  0  0  0  0  0  0
   -3.5740   24.0136  -26.3195 H   0  0  0  0  0  0  0  0  0  0  0  0
   -2.3950   24.0216  -27.6747 H   0  0  0  0  0  0  0  0  0  0  0  0
   -3.7711   25.1760  -27.6747 H   0  0  0  0  0  0  0  0  0  0  0  0
   -4.6141   22.3459  -27.4571 H   0  0  0  0  0  0  0  0  0  0  0  0
   -5.1906   23.6511  -28.5610 H   0  0  0  0  0  0  0  0  0  0  0  0
   -4.1472   25.2134  -29.8474 H   0  0  0  0  0  0  0  0  0  0  0  0
   -5.2546   25.6705  -31.1952 H   0  0  0  0  0  0  0  0  0  0  0  0
   -5.8681   24.6863  -28.4922 H   0  0  0  0  0  0  0  0  0  0  0  0
   -6.9191   25.5190  -29.7295 H   0  0  0  0  0  0  0  0  0  0  0  0
   -6.2520   22.5523  -29.7189 H   0  0  0  0  0  0  0  0  0  0  0  0
   -7.7862   23.3396  -29.0706 H   0  0  0  0  0  0  0  0  0  0  0  0
   -6.2147   21.4226  -32.5984 H   0  0  0  0  0  0  0  0  0  0  0  0
   -5.1884   19.2992  -33.4112 H   0  0  0  0  0  0  0  0  0  0  0  0
   -6.3958   17.1323  -33.1194 H   0  0  0  0  0  0  0  0  0  0  0  0
   -8.6161   17.0856  -31.9780 H   0  0  0  0  0  0  0  0  0  0  0  0
   -9.6431   19.2053  -31.1531 H   0  0  0  0  0  0  0  0  0  0  0  0
   -7.3820   23.2932  -33.2186 H   0  0  0  0  0  0  0  0  0  0  0  0
   -6.8627   24.8059  -32.3340 H   0  0  0  0  0  0  0  0  0  0  0  0
   -5.3938   22.1422  -32.4173 H   0  0  0  0  0  0  0  0  0  0  0  0
   -4.9232   23.7046  -33.2189 H   0  0  0  0  0  0  0  0  0  0  0  0
   -0.3748   20.7536  -31.6931 H   0  0  0  0  0  0  0  0  0  0  0  0
    0.8429   19.7975  -29.7019 H   0  0  0  0  0  0  0  0  0  0  0  0
   -0.0394   20.1710  -27.3887 H   0  0  0  0  0  0  0  0  0  0  0  0
   -2.1622   21.4896  -27.0396 H   0  0  0  0  0  0  0  0  0  0  0  0
  1  2  1  0
  2  3  1  0
  3  4  1  0
  4  5  1  0
  5  6  1  0
  6  7  1  0
  7  8  1  0
  8  9  1  0
  9 10  1  0
 10 11  2  0
 10 12  2  0
 10 13  1  0
 13 14  2  0
 14 15  1  0
 15 16  2  0
 16 17  1  0
 17 18  2  0
  9 19  1  0
 19 20  1  0
  4 21  2  0
 21 22  1  0
 22 23  2  0
 23 24  1  0
 24 25  2  0
 25 26  1  0
 26 27  2  0
 27  3  1  0
 20  5  1  0
 27 22  1  0
 18 13  1  0
  1 28  1  0
  1 29  1  0
  1 30  1  0
  2 31  1  0
  2 32  1  0
  6 33  1  0
  6 34  1  0
  7 35  1  0
  7 36  1  0
  8 37  1  0
  8 38  1  0
 14 39  1  0
 15 40  1  0
 16 41  1  0
 17 42  1  0
 18 43  1  0
 19 44  1  0
 19 45  1  0
 20 46  1  0
 20 47  1  0
 23 48  1  0
 24 49  1  0
 25 50  1  0
 26 51  1  0
M  END
>  <UniqueID>  (45) 
44

>  <SMILES>  (45) 
CCn1c(N2CCCN(S(=O)(=O)c3ccccc3)CC2)nc2ccccc21

>  <Energy>  (45) 
105.17489108465645

>  <Genealogy>  (45) 
CCn1c(N2CCCN(S(=O)(=O)c3ccccc3)CC2)nc2ccccc21 (3D coordinates assigned)
CCn1c(N2CCCN(S(=O)(=O)c3ccccc3)CC2)nc2ccccc21 (nonaromatic ring conformer: 105.17489108465645 kcal/mol)

>  <smiles>  (45) 
CCn1c(N2CCCN(S(=O)(=O)c3ccccc3)CC2)nc2ccccc21

>  <score_type>  (45) 
oracle

>  <origin>  (45) 
adg

>  <m_score__min__energy>  (45) 
-6.8200000000000003

>  <m_primary>  (45) 
energy

$$$$
45:0
     RDKit          3D

 46 48  0  0  0  0  0  0  0  0999 V2000
   -8.4560   18.6470  -32.3400 C   0  0  0  0  0  0  0  0  0  0  0  0
   -7.8610   19.6980  -33.0940 O   0  0  0  0  0  0  0  0  0  0  0  0
   -6.7030   20.3940  -32.7120 C   0  0  0  0  0  0  0  0  0  0  0  0
   -5.4810   20.2380  -33.3900 C   0  0  0  0  0  0  0  0  0  0  0  0
   -4.3390   20.9360  -32.9760 C   0  0  0  0  0  0  0  0  0  0  0  0
   -4.4000   21.7880  -31.8530 C   0  0  0  0  0  0  0  0  0  0  0  0
   -5.6410   21.9860  -31.2180 C   0  0  0  0  0  0  0  0  0  0  0  0
   -6.7850   21.2760  -31.6260 C   0  0  0  0  0  0  0  0  0  0  0  0
   -8.0220   21.4230  -30.9810 O   0  0  0  0  0  0  0  0  0  0  0  0
   -9.1840   21.9930  -31.5780 C   0  0  0  0  0  0  0  0  0  0  0  0
   -3.1720   22.6030  -31.4490 C   0  0  1  0  0  0  0  0  0  0  0  0
   -3.1330   22.9410  -29.9560 C   0  0  0  0  0  0  0  0  0  0  0  0
   -3.4920   24.2380  -29.5130 C   0  0  0  0  0  0  0  0  0  0  0  0
   -3.8860   25.2020  -30.4560 O   0  0  0  0  0  0  0  0  0  0  0  0
   -5.2360   25.5140  -30.7850 C   0  0  0  0  0  0  0  0  0  0  0  0
   -3.4460   24.5380  -28.1390 C   0  0  0  0  0  0  0  0  0  0  0  0
   -3.0400   23.5780  -27.2170 C   0  0  0  0  0  0  0  0  0  0  0  0
   -2.6680   22.3070  -27.6450 C   0  0  0  0  0  0  0  0  0  0  0  0
   -2.7030   21.9740  -29.0110 C   0  0  0  0  0  0  0  0  0  0  0  0
   -2.3270   20.6960  -29.4610 O   0  0  0  0  0  0  0  0  0  0  0  0
   -1.1900   19.9740  -29.0020 C   0  0  0  0  0  0  0  0  0  0  0  0
   -1.8440   21.9220  -31.8460 C   0  0  0  0  0  0  0  0  0  0  0  0
   -1.9050   21.3800  -33.2380 C   0  0  0  0  0  0  0  0  0  0  0  0
   -0.8710   21.3620  -33.9570 O   0  0  0  0  0  0  0  0  0  0  0  0
   -3.1200   20.8020  -33.7180 N   0  0  0  0  0  0  0  0  0  0  0  0
   -8.3387   18.8543  -31.2661 H   0  0  0  0  0  0  0  0  0  0  0  0
   -9.5261   18.5798  -32.5857 H   0  0  0  0  0  0  0  0  0  0  0  0
   -7.9629   17.6949  -32.5857 H   0  0  0  0  0  0  0  0  0  0  0  0
   -5.4211   19.5607  -34.2547 H   0  0  0  0  0  0  0  0  0  0  0  0
   -5.7172   22.7067  -30.3905 H   0  0  0  0  0  0  0  0  0  0  0  0
   -9.8729   22.3309  -30.7898 H   0  0  0  0  0  0  0  0  0  0  0  0
   -8.8924   22.8503  -32.2024 H   0  0  0  0  0  0  0  0  0  0  0  0
   -9.6835   21.2376  -32.2024 H   0  0  0  0  0  0  0  0  0  0  0  0
   -3.2739   23.5414  -32.0138 H   0  0  0  0  0  0  0  0  0  0  0  0
   -5.8170   25.6483  -29.8607 H   0  0  0  0  0  0  0  0  0  0  0  0
   -5.2646   26.4424  -31.3742 H   0  0  0  0  0  0  0  0  0  0  0  0
   -5.6691   24.6923  -31.3742 H   0  0  0  0  0  0  0  0  0  0  0  0
   -3.7337   25.5409  -27.7904 H   0  0  0  0  0  0  0  0  0  0  0  0
   -3.0130   23.8248  -26.1454 H   0  0  0  0  0  0  0  0  0  0  0  0
   -2.3439   21.5567  -26.9088 H   0  0  0  0  0  0  0  0  0  0  0  0
   -1.1794   19.9673  -27.9021 H   0  0  0  0  0  0  0  0  0  0  0  0
   -1.2373   18.9401  -29.3745 H   0  0  0  0  0  0  0  0  0  0  0  0
   -0.2743   20.4565  -29.3745 H   0  0  0  0  0  0  0  0  0  0  0  0
   -1.0307   22.6601  -31.7844 H   0  0  0  0  0  0  0  0  0  0  0  0
   -1.6638   21.0848  -31.1556 H   0  0  0  0  0  0  0  0  0  0  0  0
   -3.1130   20.2870  -34.6290 H   0  0  0  0  0  0  0  0  0  0  0  0
  1  2  1  0
  2  3  1  0
  3  4  2  0
  4  5  1  0
  5  6  2  0
  6  7  1  0
  7  8  2  0
  8  9  1  0
  9 10  1  0
  6 11  1  0
 11 12  1  0
 12 13  2  0
 13 14  1  0
 14 15  1  0
 13 16  1  0
 16 17  2  0
 17 18  1  0
 18 19  2  0
 19 20  1  0
 20 21  1  0
 11 22  1  0
 22 23  1  0
 23 24  2  0
 23 25  1  0
  8  3  1  0
 19 12  1  0
 25  5  1  0
  1 26  1  0
  1 27  1  0
  1 28  1  0
  4 29  1  0
  7 30  1  0
 10 31  1  0
 10 32  1  0
 10 33  1  0
 11 34  1  6
 15 35  1  0
 15 36  1  0
 15 37  1  0
 16 38  1  0
 17 39  1  0
 18 40  1  0
 21 41  1  0
 21 42  1  0
 21 43  1  0
 22 44  1  0
 22 45  1  0
 25 46  1  0
M  END
>  <UniqueID>  (46) 
45

>  <SMILES>  (46) 
COc1cc2c(cc1OC)[C@@H](c1c(OC)cccc1OC)CC(=O)N2

>  <Energy>  (46) 
50.01177812036975

>  <Genealogy>  (46) 
COc1cc2c(cc1OC)[C@@H](c1c(OC)cccc1OC)CC(=O)N2 (chirality)
COc1cc2c(cc1OC)[C@@H](c1c(OC)cccc1OC)CC(=O)N2 (3D coordinates assigned)
COc1cc2c(cc1OC)[C@@H](c1c(OC)cccc1OC)CC(=O)N2 (nonaromatic ring conformer: 50.01177812036975 kcal/mol)

>  <smiles>  (46) 
COc1cc2c(cc1OC)C(c1c(OC)cccc1OC)CC(=O)N2

>  <score_type>  (46) 
oracle

>  <origin>  (46) 
adg

>  <m_score__min__energy>  (46) 
-6.9100000000000001

>  <m_primary>  (46) 
energy

$$$$
46:0
     RDKit          3D

 36 37  0  0  0  0  0  0  0  0999 V2000
   -2.0563   19.9977  -33.4821 H   0  0  0  0  0  0  0  0  0  0  0  0
   -3.1510   19.9980  -33.3740 C   0  0  0  0  0  0  0  0  0  0  0  0
   -3.9030   18.9500  -33.9130 C   0  0  0  0  0  0  0  0  0  0  0  0
   -3.3957   18.1192  -34.4253 H   0  0  0  0  0  0  0  0  0  0  0  0
   -5.3080   18.9530  -33.8030 C   0  0  0  0  0  0  0  0  0  0  0  0
   -6.1140   17.9280  -34.3230 O   0  0  0  0  0  0  0  0  0  0  0  0
   -6.6510   16.8420  -33.5710 C   0  0  0  0  0  0  0  0  0  0  0  0
   -7.6180   17.3250  -32.7130 F   0  0  0  0  0  0  0  0  0  0  0  0
   -7.2300   15.9140  -34.4190 F   0  0  0  0  0  0  0  0  0  0  0  0
   -5.6540   16.2390  -32.8250 F   0  0  0  0  0  0  0  0  0  0  0  0
   -5.9370   20.0240  -33.1560 C   0  0  0  0  0  0  0  0  0  0  0  0
   -7.0336   20.0414  -33.0712 H   0  0  0  0  0  0  0  0  0  0  0  0
   -5.1840   21.0710  -32.6170 C   0  0  0  0  0  0  0  0  0  0  0  0
   -5.6908   21.9160  -32.1280 H   0  0  0  0  0  0  0  0  0  0  0  0
   -3.7830   21.0470  -32.6980 C   0  0  0  0  0  0  0  0  0  0  0  0
   -2.9990   22.1440  -32.2070 N   0  0  0  0  0  0  0  0  0  0  0  0
   -3.2510   22.9400  -31.2020 C   0  0  0  0  0  0  0  0  0  0  0  0
   -4.4360   23.5960  -31.2000 N   0  0  0  0  0  0  0  0  0  0  0  0
   -4.7780   24.4350  -30.1940 C   0  0  0  0  0  0  0  0  0  0  0  0
   -6.3590   25.2760  -30.2380 S   0  0  0  0  0  0  0  0  0  0  0  0
   -7.2380   23.8310  -30.9060 C   0  0  0  0  0  0  0  0  0  0  0  0
   -7.6132   23.2142  -30.0761 H   0  0  0  0  0  0  0  0  0  0  0  0
   -8.0836   24.1691  -31.5230 H   0  0  0  0  0  0  0  0  0  0  0  0
   -6.5489   23.2356  -31.5230 H   0  0  0  0  0  0  0  0  0  0  0  0
   -3.9210   24.6330  -29.1620 N   0  0  0  0  0  0  0  0  0  0  0  0
   -4.2020   25.2880  -28.3970 H   0  0  0  0  0  0  0  0  0  0  0  0
   -2.7330   24.0170  -29.1180 N   0  0  0  0  0  0  0  0  0  0  0  0
   -1.8260   24.3040  -27.9950 C   0  0  0  0  0  0  0  0  0  0  0  0
   -1.0742   23.5043  -27.9224 H   0  0  0  0  0  0  0  0  0  0  0  0
   -2.4126   24.3557  -27.0659 H   0  0  0  0  0  0  0  0  0  0  0  0
   -1.1210   25.6390  -28.2110 C   0  0  0  0  0  0  0  0  0  0  0  0
   -0.8829   26.0898  -27.2363 H   0  0  0  0  0  0  0  0  0  0  0  0
   -0.1916   25.4756  -28.7763 H   0  0  0  0  0  0  0  0  0  0  0  0
   -1.7800   26.3144  -28.7763 H   0  0  0  0  0  0  0  0  0  0  0  0
   -2.3480   23.1830  -30.1380 C   0  0  0  0  0  0  0  0  0  0  0  0
   -1.1900   22.6820  -30.1370 O   0  0  0  0  0  0  0  0  0  0  0  0
  1  2  1  0
  2  3  2  0
  3  4  1  0
  3  5  1  0
  5  6  1  0
  6  7  1  0
  7  8  1  0
  7  9  1  0
  7 10  1  0
  5 11  2  0
 11 12  1  0
 11 13  1  0
 13 14  1  0
 13 15  2  0
 15 16  1  0
 16 17  2  0
 17 18  1  0
 18 19  2  0
 19 20  1  0
 20 21  1  0
 21 22  1  0
 21 23  1  0
 21 24  1  0
 19 25  1  0
 25 26  1  0
 25 27  1  0
 27 28  1  0
 28 29  1  0
 28 30  1  0
 28 31  1  0
 31 32  1  0
 31 33  1  0
 31 34  1  0
 27 35  1  0
 35 36  2  0
 15  2  1  0
 35 17  1  0
M  END
>  <UniqueID>  (47) 
46

>  <SMILES>  (47) 
CCn1[nH]c(SC)n/c(=N/c2ccc(OC(F)(F)F)cc2)c1=O

>  <Energy>  (47) 
44.68718875389365

>  <Genealogy>  (47) 
CCn1[nH]c(SC)n/c(=N/c2ccc(OC(F)(F)F)cc2)c1=O (cis-trans isomerization)
CCn1[nH]c(SC)n/c(=N/c2ccc(OC(F)(F)F)cc2)c1=O (3D coordinates assigned)
CCn1[nH]c(SC)n/c(=N/c2ccc(OC(F)(F)F)cc2)c1=O (optimized conformer: 44.68718875389365 kcal/mol)

>  <smiles>  (47) 
CCn1[nH]c(SC)nc(=Nc2ccc(OC(F)(F)F)cc2)c1=O

>  <score_type>  (47) 
oracle

>  <origin>  (47) 
adg

>  <m_score__min__energy>  (47) 
-6.2000000000000002

>  <m_primary>  (47) 
energy

$$$$
