0:0
     RDKit          3D

 53 54  0  0  0  0  0  0  0  0999 V2000
   -3.7100   18.8500  -33.7840 C   0  0  0  0  0  0  0  0  0  0  0  0
   -4.6210   18.1290  -32.7790 C   0  0  0  0  0  0  0  0  0  0  0  0
   -6.0320   17.9940  -33.2220 N   0  0  0  0  0  0  0  0  0  0  0  0
   -6.2060   17.1240  -34.4120 C   0  0  0  0  0  0  0  0  0  0  0  0
   -6.8180   15.7750  -34.0420 C   0  0  0  0  0  0  0  0  0  0  0  0
   -6.9270   17.5800  -32.1190 C   0  0  0  0  0  0  0  0  0  0  0  0
   -8.1830   18.4720  -32.0940 C   0  0  0  0  0  0  0  0  0  0  0  0
   -8.1230   19.5510  -33.0980 N   0  0  0  0  0  0  0  0  0  0  0  0
   -7.4870   20.7290  -32.5550 C   0  0  0  0  0  0  0  0  0  0  0  0
   -8.2350   21.6750  -31.8340 C   0  0  0  0  0  0  0  0  0  0  0  0
   -7.6590   22.8870  -31.4520 C   0  0  0  0  0  0  0  0  0  0  0  0
   -6.3280   23.1820  -31.7930 C   0  0  0  0  0  0  0  0  0  0  0  0
   -5.7440   24.5500  -31.5080 C   0  0  0  0  0  0  0  0  0  0  0  0
   -4.7210   24.5450  -30.4330 N   0  0  0  0  0  0  0  0  0  0  0  0
   -5.2980   24.5300  -29.0660 C   0  0  0  0  0  0  0  0  0  0  0  0
   -4.2380   24.1890  -28.0140 C   0  0  0  0  0  0  0  0  0  0  0  0
   -3.6600   22.7820  -28.2540 C   0  0  0  0  0  0  0  0  0  0  0  0
   -3.6740   22.3740  -29.7390 C   0  0  0  0  0  0  0  0  0  0  0  0
   -3.5940   23.6040  -30.6550 C   0  0  0  0  0  0  0  0  0  0  0  0
   -5.5530   22.1950  -32.4250 C   0  0  0  0  0  0  0  0  0  0  0  0
   -6.1300   20.9840  -32.8130 C   0  0  0  0  0  0  0  0  0  0  0  0
   -2.9605   19.4432  -33.2395 H   0  0  0  0  0  0  0  0  0  0  0  0
   -3.2012   18.1073  -34.4161 H   0  0  0  0  0  0  0  0  0  0  0  0
   -4.3159   19.5158  -34.4161 H   0  0  0  0  0  0  0  0  0  0  0  0
   -4.2155   17.1209  -32.6079 H   0  0  0  0  0  0  0  0  0  0  0  0
   -4.6342   18.7444  -31.8674 H   0  0  0  0  0  0  0  0  0  0  0  0
   -6.8678   17.6305  -35.1300 H   0  0  0  0  0  0  0  0  0  0  0  0
   -5.2139   16.9412  -34.8506 H   0  0  0  0  0  0  0  0  0  0  0  0
   -6.8611   15.6799  -32.9470 H   0  0  0  0  0  0  0  0  0  0  0  0
   -7.8348   15.7077  -34.4562 H   0  0  0  0  0  0  0  0  0  0  0  0
   -6.1990   14.9655  -34.4562 H   0  0  0  0  0  0  0  0  0  0  0  0
   -7.2275   16.5324  -32.2679 H   0  0  0  0  0  0  0  0  0  0  0  0
   -6.3925   17.6835  -31.1632 H   0  0  0  0  0  0  0  0  0  0  0  0
   -9.0649   17.8471  -32.2985 H   0  0  0  0  0  0  0  0  0  0  0  0
   -8.2440   18.9398  -31.1003 H   0  0  0  0  0  0  0  0  0  0  0  0
   -9.1000   19.7970  -33.3840 H   0  0  0  0  0  0  0  0  0  0  0  0
   -7.6230   19.2150  -33.9540 H   0  0  0  0  0  0  0  0  0  0  0  0
   -9.2806   21.4588  -31.5692 H   0  0  0  0  0  0  0  0  0  0  0  0
   -8.2508   23.6167  -30.8799 H   0  0  0  0  0  0  0  0  0  0  0  0
   -5.2784   24.9287  -32.4299 H   0  0  0  0  0  0  0  0  0  0  0  0
   -6.5706   25.1894  -31.1648 H   0  0  0  0  0  0  0  0  0  0  0  0
   -5.7163   25.5227  -28.8435 H   0  0  0  0  0  0  0  0  0  0  0  0
   -6.0813   23.7585  -29.0300 H   0  0  0  0  0  0  0  0  0  0  0  0
   -3.4244   24.9272  -28.0698 H   0  0  0  0  0  0  0  0  0  0  0  0
   -4.7087   24.2113  -27.0200 H   0  0  0  0  0  0  0  0  0  0  0  0
   -2.6205   22.7635  -27.8946 H   0  0  0  0  0  0  0  0  0  0  0  0
   -4.2941   22.0671  -27.7091 H   0  0  0  0  0  0  0  0  0  0  0  0
   -2.8119   21.7209  -29.9396 H   0  0  0  0  0  0  0  0  0  0  0  0
   -4.6171   21.8470  -29.9460 H   0  0  0  0  0  0  0  0  0  0  0  0
   -2.6488   24.1311  -30.4581 H   0  0  0  0  0  0  0  0  0  0  0  0
   -3.6482   23.2529  -31.6961 H   0  0  0  0  0  0  0  0  0  0  0  0
   -4.4851   22.3774  -32.6153 H   0  0  0  0  0  0  0  0  0  0  0  0
   -5.5184   20.2255  -33.3235 H   0  0  0  0  0  0  0  0  0  0  0  0
  1  2  1  0
  2  3  1  0
  3  4  1  0
  4  5  1  0
  3  6  1  0
  6  7  1  0
  7  8  1  0
  8  9  1  0
  9 10  2  0
 10 11  1  0
 11 12  2  0
 12 13  1  0
 13 14  1  0
 14 15  1  0
 15 16  1  0
 16 17  1  0
 17 18  1  0
 18 19  1  0
 12 20  1  0
 20 21  2  0
 21  9  1  0
 19 14  1  0
  1 22  1  0
  1 23  1  0
  1 24  1  0
  2 25  1  0
  2 26  1  0
  4 27  1  0
  4 28  1  0
  5 29  1  0
  5 30  1  0
  5 31  1  0
  6 32  1  0
  6 33  1  0
  7 34  1  0
  7 35  1  0
  8 36  1  0
  8 37  1  0
 10 38  1  0
 11 39  1  0
 13 40  1  0
 13 41  1  0
 15 42  1  0
 15 43  1  0
 16 44  1  0
 16 45  1  0
 17 46  1  0
 17 47  1  0
 18 48  1  0
 18 49  1  0
 19 50  1  0
 19 51  1  0
 20 52  1  0
 21 53  1  0
M  CHG  1   8   1
M  END
>  <UniqueID>  (1) 
1

>  <SMILES>  (1) 
CCN(CC)CC[NH2+]c1ccc(CN2CCCCC2)cc1

>  <Energy>  (1) 
60.54414937136529

>  <Genealogy>  (1) 
CCN(CC)CC[NH2+]c1ccc(CN2CCCCC2)cc1 (protonated)
CCN(CC)CC[NH2+]c1ccc(CN2CCCCC2)cc1 (3D coordinates assigned)
CCN(CC)CC[NH2+]c1ccc(CN2CCCCC2)cc1 (nonaromatic ring conformer: 60.54414937136529 kcal/mol)

>  <smiles>  (1) 
CCN(CC)CCNc1ccc(CN2CCCCC2)cc1

>  <score_type>  (1) 
oracle

>  <origin>  (1) 
adg

>  <m_score__min__energy>  (1) 
-6.75

>  <m_primary>  (1) 
energy

$$$$
1:0
     RDKit          3D

 46 48  0  0  0  0  0  0  0  0999 V2000
   -5.5742   19.5418  -33.8508 H   0  0  0  0  0  0  0  0  0  0  0  0
   -5.8640   20.3640  -33.1800 C   0  0  0  0  0  0  0  0  0  0  0  0
   -7.1940   20.4990  -32.7790 C   0  0  0  0  0  0  0  0  0  0  0  0
   -7.9459   19.7807  -33.1377 H   0  0  0  0  0  0  0  0  0  0  0  0
   -7.5840   21.5450  -31.9200 C   0  0  0  0  0  0  0  0  0  0  0  0
   -9.0310   21.6550  -31.5130 C   0  0  0  0  0  0  0  0  0  0  0  0
   -9.1038   21.6605  -30.4154 H   0  0  0  0  0  0  0  0  0  0  0  0
   -9.4546   22.5879  -31.9133 H   0  0  0  0  0  0  0  0  0  0  0  0
   -9.5907   20.7968  -31.9133 H   0  0  0  0  0  0  0  0  0  0  0  0
   -6.6040   22.4670  -31.4650 C   0  0  0  0  0  0  0  0  0  0  0  0
   -6.9150   23.5490  -30.6230 C   0  0  0  0  0  0  0  0  0  0  0  0
   -7.9516   23.6864  -30.2815 H   0  0  0  0  0  0  0  0  0  0  0  0
   -5.9260   24.4590  -30.2090 C   0  0  0  0  0  0  0  0  0  0  0  0
   -6.3860   25.6660  -29.4270 C   0  0  0  0  0  0  0  0  0  0  0  0
   -6.3064   25.4572  -28.3499 H   0  0  0  0  0  0  0  0  0  0  0  0
   -5.7541   26.5299  -29.6807 H   0  0  0  0  0  0  0  0  0  0  0  0
   -7.4326   25.8902  -29.6807 H   0  0  0  0  0  0  0  0  0  0  0  0
   -4.5730   24.2200  -30.6070 C   0  0  0  0  0  0  0  0  0  0  0  0
   -3.5480   24.9440  -30.2460 N   0  0  0  0  0  0  0  0  0  0  0  0
   -2.7660   24.9020  -29.0460 C   0  0  0  0  0  0  0  0  0  0  0  0
   -1.6940   25.5600  -28.9750 O   0  0  0  0  0  0  0  0  0  0  0  0
   -3.2970   24.2130  -27.8240 C   0  0  0  0  0  0  0  0  0  0  0  0
   -3.0028   24.7816  -26.9295 H   0  0  0  0  0  0  0  0  0  0  0  0
   -4.3936   24.1587  -27.8904 H   0  0  0  0  0  0  0  0  0  0  0  0
   -2.7500   22.8410  -27.7330 N   0  0  0  0  0  0  0  0  0  0  0  0
   -3.5170   21.9040  -28.5850 C   0  0  0  0  0  0  0  0  0  0  0  0
   -4.4830   21.6900  -28.1044 H   0  0  0  0  0  0  0  0  0  0  0  0
   -3.6701   22.3715  -29.5689 H   0  0  0  0  0  0  0  0  0  0  0  0
   -2.7530   20.5870  -28.7840 C   0  0  0  0  0  0  0  0  0  0  0  0
   -2.5922   20.1198  -27.8012 H   0  0  0  0  0  0  0  0  0  0  0  0
   -3.3572   19.9446  -29.4414 H   0  0  0  0  0  0  0  0  0  0  0  0
   -1.4340   20.7910  -29.4370 N   0  0  0  0  0  0  0  0  0  0  0  0
   -1.4580   20.3680  -30.8470 C   0  0  0  0  0  0  0  0  0  0  0  0
   -1.5202   19.2710  -30.8997 H   0  0  0  0  0  0  0  0  0  0  0  0
   -2.3325   20.8093  -31.3474 H   0  0  0  0  0  0  0  0  0  0  0  0
   -0.5391   20.7076  -31.3474 H   0  0  0  0  0  0  0  0  0  0  0  0
   -0.9220   22.1750  -29.3260 C   0  0  0  0  0  0  0  0  0  0  0  0
    0.1724   22.1626  -29.4366 H   0  0  0  0  0  0  0  0  0  0  0  0
   -1.3852   22.7821  -30.1178 H   0  0  0  0  0  0  0  0  0  0  0  0
   -1.2810   22.7930  -27.9670 C   0  0  0  0  0  0  0  0  0  0  0  0
   -0.8166   22.1910  -27.1720 H   0  0  0  0  0  0  0  0  0  0  0  0
   -0.9076   23.8277  -27.9612 H   0  0  0  0  0  0  0  0  0  0  0  0
   -4.3140   23.1790  -31.4440 N   0  0  0  0  0  0  0  0  0  0  0  0
   -5.2650   22.3150  -31.8810 C   0  0  0  0  0  0  0  0  0  0  0  0
   -4.9020   21.2680  -32.7330 C   0  0  0  0  0  0  0  0  0  0  0  0
   -3.8549   21.1573  -33.0513 H   0  0  0  0  0  0  0  0  0  0  0  0
  1  2  1  0
  2  3  2  0
  3  4  1  0
  3  5  1  0
  5  6  1  0
  6  7  1  0
  6  8  1  0
  6  9  1  0
  5 10  2  0
 10 11  1  0
 11 12  1  0
 11 13  2  0
 13 14  1  0
 14 15  1  0
 14 16  1  0
 14 17  1  0
 13 18  1  0
 18 19  2  0
 19 20  1  0
 20 21  2  0
 20 22  1  0
 22 23  1  0
 22 24  1  0
 22 25  1  0
 25 26  1  0
 26 27  1  0
 26 28  1  0
 26 29  1  0
 29 30  1  0
 29 31  1  0
 29 32  1  0
 32 33  1  0
 33 34  1  0
 33 35  1  0
 33 36  1  0
 32 37  1  0
 37 38  1  0
 37 39  1  0
 37 40  1  0
 40 41  1  0
 40 42  1  0
 18 43  1  0
 43 44  1  0
 44 45  2  0
 45 46  1  0
 45  2  1  0
 44 10  1  0
 40 25  1  0
M  CHG  1  43  -1
M  END
>  <UniqueID>  (2) 
2

>  <SMILES>  (2) 
Cc1cc2c(C)cccc2[n-]/c1=N/C(=O)CN1CCN(C)CC1

>  <Energy>  (2) 
80.05050665775502

>  <Genealogy>  (2) 
Cc1cc2c(C)cccc2[n-]c1=NC(=O)CN1CCN(C)CC1 (protonated)
Cc1cc2c(C)cccc2[n-]/c1=N/C(=O)CN1CCN(C)CC1 (cis-trans isomerization)
Cc1cc2c(C)cccc2[n-]/c1=N/C(=O)CN1CCN(C)CC1 (3D coordinates assigned)
Cc1cc2c(C)cccc2[n-]/c1=N/C(=O)CN1CCN(C)CC1 (nonaromatic ring conformer: 80.05050665775502 kcal/mol)

>  <smiles>  (2) 
Cc1cc2c(C)cccc2[nH]c1=NC(=O)CN1CCN(C)CC1

>  <score_type>  (2) 
oracle

>  <origin>  (2) 
adg

>  <m_score__min__energy>  (2) 
-10.07

>  <m_primary>  (2) 
energy

$$$$
2:0
     RDKit          3D

 58 60  0  0  0  0  0  0  0  0999 V2000
   -5.7280   24.9380  -30.6580 C   0  0  0  0  0  0  0  0  0  0  0  0
   -5.1660   23.5720  -31.0190 C   0  0  0  0  0  0  0  0  0  0  0  0
   -5.8290   23.0800  -32.1790 O   0  0  0  0  0  0  0  0  0  0  0  0
   -7.0440   22.3760  -32.1670 C   0  0  0  0  0  0  0  0  0  0  0  0
   -8.2790   23.0230  -31.9590 C   0  0  0  0  0  0  0  0  0  0  0  0
   -9.4650   22.2860  -31.9190 C   0  0  0  0  0  0  0  0  0  0  0  0
   -9.4350   20.9000  -32.0860 C   0  0  0  0  0  0  0  0  0  0  0  0
   -8.2190   20.2490  -32.3000 C   0  0  0  0  0  0  0  0  0  0  0  0
   -7.0210   20.9790  -32.3510 C   0  0  0  0  0  0  0  0  0  0  0  0
   -5.7790   20.2880  -32.5710 N   0  0  0  0  0  0  0  0  0  0  0  0
   -4.8310   20.1020  -31.4680 C   0  0  0  0  0  0  0  0  0  0  0  0
   -3.3760   20.2650  -31.9540 C   0  0  0  0  0  0  0  0  0  0  0  0
   -3.1520   19.8150  -33.3600 N   0  0  0  0  0  0  0  0  0  0  0  0
   -1.7790   19.2870  -33.5700 C   0  0  0  0  0  0  0  0  0  0  0  0
   -0.6650   20.3680  -33.6400 C   0  0  1  0  0  0  0  0  0  0  0  0
   -1.2380   21.6220  -33.9060 O   0  0  0  0  0  0  0  0  0  0  0  0
    0.1220   20.4260  -32.3150 C   0  0  0  0  0  0  0  0  0  0  0  0
   -0.2110   21.5920  -31.5570 O   0  0  0  0  0  0  0  0  0  0  0  0
   -0.9260   21.6130  -30.3490 C   0  0  0  0  0  0  0  0  0  0  0  0
   -1.0640   20.4810  -29.5240 C   0  0  0  0  0  0  0  0  0  0  0  0
   -1.7780   20.5680  -28.3260 C   0  0  0  0  0  0  0  0  0  0  0  0
   -2.3690   21.7730  -27.9430 C   0  0  0  0  0  0  0  0  0  0  0  0
   -2.2690   22.9070  -28.7690 C   0  0  0  0  0  0  0  0  0  0  0  0
   -2.8590   24.2280  -28.3430 C   0  0  0  0  0  0  0  0  0  0  0  0
   -4.2230   24.1040  -28.1510 F   0  0  0  0  0  0  0  0  0  0  0  0
   -2.6260   25.1690  -29.3300 F   0  0  0  0  0  0  0  0  0  0  0  0
   -2.2920   24.6660  -27.1590 F   0  0  0  0  0  0  0  0  0  0  0  0
   -1.5310   22.8180  -29.9630 C   0  0  0  0  0  0  0  0  0  0  0  0
   -4.2010   18.8990  -33.8590 C   0  0  0  0  0  0  0  0  0  0  0  0
   -5.5600   19.6040  -33.8490 C   0  0  0  0  0  0  0  0  0  0  0  0
   -5.7698   25.0397  -29.5635 H   0  0  0  0  0  0  0  0  0  0  0  0
   -5.0798   25.7230  -31.0747 H   0  0  0  0  0  0  0  0  0  0  0  0
   -6.7410   25.0395  -31.0747 H   0  0  0  0  0  0  0  0  0  0  0  0
   -4.0884   23.6603  -31.2217 H   0  0  0  0  0  0  0  0  0  0  0  0
   -5.3246   22.8762  -30.1819 H   0  0  0  0  0  0  0  0  0  0  0  0
   -8.3090   24.1147  -31.8274 H   0  0  0  0  0  0  0  0  0  0  0  0
  -10.4245   22.7985  -31.7556 H   0  0  0  0  0  0  0  0  0  0  0  0
  -10.3697   20.3212  -32.0489 H   0  0  0  0  0  0  0  0  0  0  0  0
   -8.1993   19.1568  -32.4295 H   0  0  0  0  0  0  0  0  0  0  0  0
   -5.0355   20.8505  -30.6883 H   0  0  0  0  0  0  0  0  0  0  0  0
   -4.9544   19.0846  -31.0685 H   0  0  0  0  0  0  0  0  0  0  0  0
   -3.1049   21.3287  -31.8838 H   0  0  0  0  0  0  0  0  0  0  0  0
   -2.7522   19.6259  -31.3118 H   0  0  0  0  0  0  0  0  0  0  0  0
   -3.2080   20.6760  -33.9580 H   0  0  0  0  0  0  0  0  0  0  0  0
   -1.5435   18.6073  -32.7378 H   0  0  0  0  0  0  0  0  0  0  0  0
   -1.7871   18.7889  -34.5507 H   0  0  0  0  0  0  0  0  0  0  0  0
    0.0309   20.1019  -34.4492 H   0  0  0  0  0  0  0  0  0  0  0  0
   -1.0220   22.2080  -33.1350 H   0  0  0  0  0  0  0  0  0  0  0  0
   -0.1156   19.5325  -31.7190 H   0  0  0  0  0  0  0  0  0  0  0  0
    1.1952   20.4646  -32.5530 H   0  0  0  0  0  0  0  0  0  0  0  0
   -0.6086   19.5254  -29.8231 H   0  0  0  0  0  0  0  0  0  0  0  0
   -1.8748   19.6820  -27.6813 H   0  0  0  0  0  0  0  0  0  0  0  0
   -2.9156   21.8361  -26.9905 H   0  0  0  0  0  0  0  0  0  0  0  0
   -1.4268   23.7063  -30.6033 H   0  0  0  0  0  0  0  0  0  0  0  0
   -3.9576   18.5918  -34.8868 H   0  0  0  0  0  0  0  0  0  0  0  0
   -4.2483   18.0146  -33.2066 H   0  0  0  0  0  0  0  0  0  0  0  0
   -5.5898   20.3425  -34.6637 H   0  0  0  0  0  0  0  0  0  0  0  0
   -6.3501   18.8513  -33.9875 H   0  0  0  0  0  0  0  0  0  0  0  0
  1  2  1  0
  2  3  1  0
  3  4  1  0
  4  5  2  0
  5  6  1  0
  6  7  2  0
  7  8  1  0
  8  9  2  0
  9 10  1  0
 10 11  1  0
 11 12  1  0
 12 13  1  0
 13 14  1  0
 14 15  1  0
 15 16  1  0
 15 17  1  0
 17 18  1  0
 18 19  1  0
 19 20  2  0
 20 21  1  0
 21 22  2  0
 22 23  1  0
 23 24  1  0
 24 25  1  0
 24 26  1  0
 24 27  1  0
 23 28  2  0
 13 29  1  0
 29 30  1  0
  9  4  1  0
 30 10  1  0
 28 19  1  0
  1 31  1  0
  1 32  1  0
  1 33  1  0
  2 34  1  0
  2 35  1  0
  5 36  1  0
  6 37  1  0
  7 38  1  0
  8 39  1  0
 11 40  1  0
 11 41  1  0
 12 42  1  0
 12 43  1  0
 13 44  1  0
 14 45  1  0
 14 46  1  0
 15 47  1  6
 16 48  1  0
 17 49  1  0
 17 50  1  0
 20 51  1  0
 21 52  1  0
 22 53  1  0
 28 54  1  0
 29 55  1  0
 29 56  1  0
 30 57  1  0
 30 58  1  0
M  CHG  1  13   1
M  END
>  <UniqueID>  (3) 
3

>  <SMILES>  (3) 
CCOc1ccccc1N1CC[NH+](C[C@@H](O)COc2cccc(C(F)(F)F)c2)CC1

>  <Energy>  (3) 
70.51113150497474

>  <Genealogy>  (3) 
CCOc1ccccc1N1CC[NH+](CC(O)COc2cccc(C(F)(F)F)c2)CC1 (protonated)
CCOc1ccccc1N1CC[NH+](C[C@@H](O)COc2cccc(C(F)(F)F)c2)CC1 (chirality)
CCOc1ccccc1N1CC[NH+](C[C@@H](O)COc2cccc(C(F)(F)F)c2)CC1 (3D coordinates assigned)
CCOc1ccccc1N1CC[NH+](C[C@@H](O)COc2cccc(C(F)(F)F)c2)CC1 (nonaromatic ring conformer: 70.51113150497474 kcal/mol)

>  <smiles>  (3) 
CCOc1ccccc1N1CCN(CC(O)COc2cccc(C(F)(F)F)c2)CC1

>  <score_type>  (3) 
oracle

>  <origin>  (3) 
adg

>  <m_score__min__energy>  (3) 
-7.4199999999999999

>  <m_primary>  (3) 
energy

$$$$
3:0
     RDKit          3D

 54 57  0  0  0  0  0  0  0  0999 V2000
   -9.2710   19.5680  -32.5920 C   0  0  0  0  0  0  0  0  0  0  0  0
   -7.8380   20.0070  -32.6420 C   0  0  0  0  0  0  0  0  0  0  0  0
   -6.8570   19.3850  -33.4100 C   0  0  0  0  0  0  0  0  0  0  0  0
   -5.7130   20.1000  -33.1510 C   0  0  0  0  0  0  0  0  0  0  0  0
   -4.4660   19.9130  -33.6510 N   0  0  0  0  0  0  0  0  0  0  0  0
   -3.4690   20.7630  -33.2580 C   0  0  0  0  0  0  0  0  0  0  0  0
   -2.0710   20.5800  -33.7890 C   0  0  0  0  0  0  0  0  0  0  0  0
   -1.5070   19.1710  -33.5370 C   0  0  0  0  0  0  0  0  0  0  0  0
   -2.3750   18.1340  -34.1390 N   0  0  0  0  0  0  0  0  0  0  0  0
   -1.5860   17.2190  -34.9900 C   0  0  0  0  0  0  0  0  0  0  0  0
   -2.4190   16.0010  -35.4430 C   0  0  0  0  0  0  0  0  0  0  0  0
   -3.8540   16.2090  -35.2110 N   0  0  0  0  0  0  0  0  0  0  0  0
   -4.1350   16.4350  -33.7830 C   0  0  0  0  0  0  0  0  0  0  0  0
   -3.1050   17.3680  -33.1140 C   0  0  0  0  0  0  0  0  0  0  0  0
   -3.7380   21.7560  -32.3520 N   0  0  0  0  0  0  0  0  0  0  0  0
   -4.9880   21.9590  -31.8460 C   0  0  0  0  0  0  0  0  0  0  0  0
   -5.2050   23.0340  -30.9260 N   0  0  0  0  0  0  0  0  0  0  0  0
   -4.5080   23.0400  -29.6370 C   0  0  0  0  0  0  0  0  0  0  0  0
   -3.5960   24.2850  -29.5160 C   0  0  0  0  0  0  0  0  0  0  0  0
   -3.8720   25.3060  -30.4640 O   0  0  0  0  0  0  0  0  0  0  0  0
   -5.2650   25.4690  -30.6360 C   0  0  0  0  0  0  0  0  0  0  0  0
   -5.8180   24.2740  -31.4140 C   0  0  0  0  0  0  0  0  0  0  0  0
   -6.0100   21.0990  -32.2690 C   0  0  0  0  0  0  0  0  0  0  0  0
   -7.3270   21.0680  -31.9580 N   0  0  0  0  0  0  0  0  0  0  0  0
   -8.0520   21.9370  -31.0300 C   0  0  0  0  0  0  0  0  0  0  0  0
   -9.5883   19.4708  -31.5433 H   0  0  0  0  0  0  0  0  0  0  0  0
   -9.9010   20.3143  -33.0980 H   0  0  0  0  0  0  0  0  0  0  0  0
   -9.3748   18.5968  -33.0980 H   0  0  0  0  0  0  0  0  0  0  0  0
   -6.9723   18.5162  -34.0748 H   0  0  0  0  0  0  0  0  0  0  0  0
   -4.2790   19.1370  -34.3260 H   0  0  0  0  0  0  0  0  0  0  0  0
   -2.0821   20.7634  -34.8735 H   0  0  0  0  0  0  0  0  0  0  0  0
   -1.4231   21.2917  -33.2564 H   0  0  0  0  0  0  0  0  0  0  0  0
   -0.5030   19.1012  -33.9810 H   0  0  0  0  0  0  0  0  0  0  0  0
   -1.4621   19.0017  -32.4510 H   0  0  0  0  0  0  0  0  0  0  0  0
   -1.2424   17.7669  -35.8798 H   0  0  0  0  0  0  0  0  0  0  0  0
   -0.7333   16.8514  -34.4002 H   0  0  0  0  0  0  0  0  0  0  0  0
   -2.2519   15.8343  -36.5174 H   0  0  0  0  0  0  0  0  0  0  0  0
   -2.0991   15.1283  -34.8547 H   0  0  0  0  0  0  0  0  0  0  0  0
   -4.1630   17.0500  -35.7560 H   0  0  0  0  0  0  0  0  0  0  0  0
   -5.1332   16.8872  -33.6881 H   0  0  0  0  0  0  0  0  0  0  0  0
   -4.0798   15.4607  -33.2753 H   0  0  0  0  0  0  0  0  0  0  0  0
   -3.6277   18.0650  -32.4425 H   0  0  0  0  0  0  0  0  0  0  0  0
   -2.3891   16.7613  -32.5401 H   0  0  0  0  0  0  0  0  0  0  0  0
   -5.2499   23.0552  -28.8250 H   0  0  0  0  0  0  0  0  0  0  0  0
   -3.8850   22.1361  -29.5667 H   0  0  0  0  0  0  0  0  0  0  0  0
   -3.7217   24.7075  -28.5082 H   0  0  0  0  0  0  0  0  0  0  0  0
   -2.5688   23.9432  -29.7112 H   0  0  0  0  0  0  0  0  0  0  0  0
   -5.7533   25.5253  -29.6519 H   0  0  0  0  0  0  0  0  0  0  0  0
   -5.4629   26.3967  -31.1930 H   0  0  0  0  0  0  0  0  0  0  0  0
   -6.9079   24.2212  -31.2753 H   0  0  0  0  0  0  0  0  0  0  0  0
   -5.5847   24.3976  -32.4818 H   0  0  0  0  0  0  0  0  0  0  0  0
   -7.8124   21.6498  -29.9956 H   0  0  0  0  0  0  0  0  0  0  0  0
   -7.7546   22.9826  -31.1985 H   0  0  0  0  0  0  0  0  0  0  0  0
   -9.1339   21.8318  -31.1985 H   0  0  0  0  0  0  0  0  0  0  0  0
  1  2  1  0
  2  3  2  0
  3  4  1  0
  4  5  2  0
  5  6  1  0
  6  7  1  0
  7  8  1  0
  8  9  1  0
  9 10  1  0
 10 11  1  0
 11 12  1  0
 12 13  1  0
 13 14  1  0
  6 15  2  0
 15 16  1  0
 16 17  1  0
 17 18  1  0
 18 19  1  0
 19 20  1  0
 20 21  1  0
 21 22  1  0
 16 23  2  0
 23 24  1  0
 24 25  1  0
 24  2  1  0
 23  4  1  0
 14  9  1  0
 22 17  1  0
  1 26  1  0
  1 27  1  0
  1 28  1  0
  3 29  1  0
  5 30  1  0
  7 31  1  0
  7 32  1  0
  8 33  1  0
  8 34  1  0
 10 35  1  0
 10 36  1  0
 11 37  1  0
 11 38  1  0
 12 39  1  0
 13 40  1  0
 13 41  1  0
 14 42  1  0
 14 43  1  0
 18 44  1  0
 18 45  1  0
 19 46  1  0
 19 47  1  0
 21 48  1  0
 21 49  1  0
 22 50  1  0
 22 51  1  0
 25 52  1  0
 25 53  1  0
 25 54  1  0
M  CHG  1   5   1
M  END
>  <UniqueID>  (4) 
4

>  <SMILES>  (4) 
Cc1cc2[nH+]c(CCN3CCNCC3)nc(N3CCOCC3)c2n1C

>  <Energy>  (4) 
109.06639145212306

>  <Genealogy>  (4) 
Cc1cc2[nH+]c(CCN3CCNCC3)nc(N3CCOCC3)c2n1C (protonated)
Cc1cc2[nH+]c(CCN3CCNCC3)nc(N3CCOCC3)c2n1C (3D coordinates assigned)
Cc1cc2[nH+]c(CCN3CCNCC3)nc(N3CCOCC3)c2n1C (nonaromatic ring conformer: 109.06639145212306 kcal/mol)

>  <smiles>  (4) 
Cc1cc2nc(CCN3CCNCC3)nc(N3CCOCC3)c2n1C

>  <score_type>  (4) 
oracle

>  <origin>  (4) 
adg

>  <m_score__min__energy>  (4) 
-7.6699999999999999

>  <m_primary>  (4) 
energy

$$$$
4:0
     RDKit          3D

 43 45  0  0  0  0  0  0  0  0999 V2000
   -9.4940   21.5740  -30.9020 C   0  0  0  0  0  0  0  0  0  0  0  0
   -8.9480   20.1870  -31.2260 C   0  0  0  0  0  0  0  0  0  0  0  0
   -8.6050   20.0600  -32.7120 C   0  0  0  0  0  0  0  0  0  0  0  0
   -7.3040   19.4060  -32.8810 N   0  0  0  0  0  0  0  0  0  0  0  0
   -7.1710   18.1800  -33.3630 N   0  0  0  0  0  0  0  0  0  0  0  0
   -5.8570   17.8930  -33.4750 C   0  0  0  0  0  0  0  0  0  0  0  0
   -5.3080   16.6120  -33.9870 C   0  0  0  0  0  0  0  0  0  0  0  0
   -4.0520   16.5710  -34.6220 C   0  0  0  0  0  0  0  0  0  0  0  0
   -3.5390   15.3620  -35.1020 C   0  0  0  0  0  0  0  0  0  0  0  0
   -4.2710   14.1820  -34.9540 C   0  0  0  0  0  0  0  0  0  0  0  0
   -5.5170   14.2090  -34.3250 C   0  0  0  0  0  0  0  0  0  0  0  0
   -6.0340   15.4140  -33.8430 C   0  0  0  0  0  0  0  0  0  0  0  0
   -5.1240   18.9910  -33.0480 C   0  0  0  0  0  0  0  0  0  0  0  0
   -6.0710   19.9270  -32.6720 C   0  0  0  0  0  0  0  0  0  0  0  0
   -5.7630   21.2840  -32.1720 C   0  0  0  0  0  0  0  0  0  0  0  0
   -6.6770   22.3290  -32.3810 C   0  0  0  0  0  0  0  0  0  0  0  0
   -6.3900   23.6220  -31.9300 C   0  0  0  0  0  0  0  0  0  0  0  0
   -5.1750   23.8910  -31.2750 C   0  0  0  0  0  0  0  0  0  0  0  0
   -4.8410   25.1700  -30.8030 O   0  0  0  0  0  0  0  0  0  0  0  0
   -5.7360   26.0270  -30.1030 C   0  0  0  0  0  0  0  0  0  0  0  0
   -4.2570   22.8510  -31.0850 C   0  0  0  0  0  0  0  0  0  0  0  0
   -4.5440   21.5600  -31.5350 C   0  0  0  0  0  0  0  0  0  0  0  0
   -9.5446   21.7024  -29.8107 H   0  0  0  0  0  0  0  0  0  0  0  0
   -8.8299   22.3389  -31.3308 H   0  0  0  0  0  0  0  0  0  0  0  0
  -10.5013   21.6809  -31.3308 H   0  0  0  0  0  0  0  0  0  0  0  0
   -8.0391   20.0115  -30.6318 H   0  0  0  0  0  0  0  0  0  0  0  0
   -9.7207   19.4430  -30.9823 H   0  0  0  0  0  0  0  0  0  0  0  0
   -9.3797   19.4611  -33.2131 H   0  0  0  0  0  0  0  0  0  0  0  0
   -8.5596   21.0656  -33.1554 H   0  0  0  0  0  0  0  0  0  0  0  0
   -7.9720   17.5570  -33.6080 H   0  0  0  0  0  0  0  0  0  0  0  0
   -3.4701   17.4968  -34.7414 H   0  0  0  0  0  0  0  0  0  0  0  0
   -2.5570   15.3404  -35.5971 H   0  0  0  0  0  0  0  0  0  0  0  0
   -3.8661   13.2319  -35.3328 H   0  0  0  0  0  0  0  0  0  0  0  0
   -6.0931   13.2792  -34.2086 H   0  0  0  0  0  0  0  0  0  0  0  0
   -7.0158   15.4271  -33.3471 H   0  0  0  0  0  0  0  0  0  0  0  0
   -4.0294   19.0946  -33.0155 H   0  0  0  0  0  0  0  0  0  0  0  0
   -7.6248   22.1299  -32.9026 H   0  0  0  0  0  0  0  0  0  0  0  0
   -7.1178   24.4315  -32.0884 H   0  0  0  0  0  0  0  0  0  0  0  0
   -5.5982   25.8950  -29.0197 H   0  0  0  0  0  0  0  0  0  0  0  0
   -5.5296   27.0729  -30.3741 H   0  0  0  0  0  0  0  0  0  0  0  0
   -6.7720   25.7755  -30.3741 H   0  0  0  0  0  0  0  0  0  0  0  0
   -3.3021   23.0521  -30.5773 H   0  0  0  0  0  0  0  0  0  0  0  0
   -3.8093   20.7545  -31.3889 H   0  0  0  0  0  0  0  0  0  0  0  0
  1  2  1  0
  2  3  1  0
  3  4  1  0
  4  5  1  0
  5  6  2  0
  6  7  1  0
  7  8  2  0
  8  9  1  0
  9 10  2  0
 10 11  1  0
 11 12  2  0
  6 13  1  0
 13 14  2  0
 14 15  1  0
 15 16  2  0
 16 17  1  0
 17 18  2  0
 18 19  1  0
 19 20  1  0
 18 21  1  0
 21 22  2  0
 14  4  1  0
 22 15  1  0
 12  7  1  0
  1 23  1  0
  1 24  1  0
  1 25  1  0
  2 26  1  0
  2 27  1  0
  3 28  1  0
  3 29  1  0
  5 30  1  0
  8 31  1  0
  9 32  1  0
 10 33  1  0
 11 34  1  0
 12 35  1  0
 13 36  1  0
 16 37  1  0
 17 38  1  0
 20 39  1  0
 20 40  1  0
 20 41  1  0
 21 42  1  0
 22 43  1  0
M  CHG  1   5   1
M  END
>  <UniqueID>  (5) 
5

>  <SMILES>  (5) 
CCCn1[nH+]c(-c2ccccc2)cc1-c1ccc(OC)cc1

>  <Energy>  (5) 
77.32273992833116

>  <Genealogy>  (5) 
CCCn1[nH+]c(-c2ccccc2)cc1-c1ccc(OC)cc1 (protonated)
CCCn1[nH+]c(-c2ccccc2)cc1-c1ccc(OC)cc1 (3D coordinates assigned)
CCCn1[nH+]c(-c2ccccc2)cc1-c1ccc(OC)cc1 (optimized conformer: 77.32273992833116 kcal/mol)

>  <smiles>  (5) 
CCCn1nc(-c2ccccc2)cc1-c1ccc(OC)cc1

>  <score_type>  (5) 
oracle

>  <origin>  (5) 
adg

>  <m_score__min__energy>  (5) 
-7.3799999999999999

>  <m_primary>  (5) 
energy

$$$$
5:0
     RDKit          3D

 47 48  0  0  0  0  0  0  0  0999 V2000
   -6.4460   16.2870  -33.9190 C   0  0  0  0  0  0  0  0  0  0  0  0
   -6.2270   17.6410  -34.6000 C   0  0  0  0  0  0  0  0  0  0  0  0
   -6.6030   18.7840  -33.7370 N   0  0  0  0  0  0  0  0  0  0  0  0
   -7.6240   18.4730  -32.7030 C   0  0  0  0  0  0  0  0  0  0  0  0
   -8.8640   19.3780  -32.7310 C   0  0  0  0  0  0  0  0  0  0  0  0
   -5.1640   19.4920  -33.0320 S   0  0  0  0  0  0  0  0  0  0  0  0
   -4.6030   18.5970  -31.9620 O   0  0  0  0  0  0  0  0  0  0  0  0
   -4.1090   19.7010  -34.0830 O   0  0  0  0  0  0  0  0  0  0  0  0
   -5.5780   21.0430  -32.3040 C   0  0  0  0  0  0  0  0  0  0  0  0
   -6.5520   21.1290  -31.3010 C   0  0  0  0  0  0  0  0  0  0  0  0
   -6.8530   22.3650  -30.7270 C   0  0  0  0  0  0  0  0  0  0  0  0
   -6.1720   23.5050  -31.1630 C   0  0  0  0  0  0  0  0  0  0  0  0
   -6.5400   25.1050  -30.4460 S   0  0  0  0  0  0  0  0  0  0  0  0
   -5.3790   24.8810  -29.0600 C   0  0  0  0  0  0  0  0  0  0  0  0
   -4.0300   24.5100  -29.5940 C   0  0  0  0  0  0  0  0  0  0  0  0
   -3.5090   25.2330  -30.4860 O   0  0  0  0  0  0  0  0  0  0  0  0
   -3.3440   23.3270  -29.1450 N   0  0  0  0  0  0  0  0  0  0  0  0
   -2.0440   22.9300  -29.6560 C   0  0  0  0  0  0  0  0  0  0  0  0
   -1.6210   21.7310  -28.8160 C   0  0  0  0  0  0  0  0  0  0  0  0
   -2.8910   21.2330  -28.1300 C   0  0  0  0  0  0  0  0  0  0  0  0
   -3.8630   22.4040  -28.1490 C   0  0  0  0  0  0  0  0  0  0  0  0
   -5.2220   23.4020  -32.1310 N   0  0  0  0  0  0  0  0  0  0  0  0
   -4.9120   22.2080  -32.7030 C   0  0  0  0  0  0  0  0  0  0  0  0
   -6.4248   16.4181  -32.8270 H   0  0  0  0  0  0  0  0  0  0  0  0
   -7.4219   15.8786  -34.2204 H   0  0  0  0  0  0  0  0  0  0  0  0
   -5.6486   15.5918  -34.2204 H   0  0  0  0  0  0  0  0  0  0  0  0
   -5.1630   17.7342  -34.8631 H   0  0  0  0  0  0  0  0  0  0  0  0
   -6.8715   17.6721  -35.4909 H   0  0  0  0  0  0  0  0  0  0  0  0
   -7.0120   19.5250  -34.3520 H   0  0  0  0  0  0  0  0  0  0  0  0
   -7.9549   17.4343  -32.8501 H   0  0  0  0  0  0  0  0  0  0  0  0
   -7.1401   18.6402  -31.7294 H   0  0  0  0  0  0  0  0  0  0  0  0
   -9.1754   19.6053  -31.7008 H   0  0  0  0  0  0  0  0  0  0  0  0
   -8.6230   20.3140  -33.2561 H   0  0  0  0  0  0  0  0  0  0  0  0
   -9.6820   18.8631  -33.2561 H   0  0  0  0  0  0  0  0  0  0  0  0
   -7.0790   20.2234  -30.9661 H   0  0  0  0  0  0  0  0  0  0  0  0
   -7.6178   22.4411  -29.9401 H   0  0  0  0  0  0  0  0  0  0  0  0
   -5.3026   25.8189  -28.4904 H   0  0  0  0  0  0  0  0  0  0  0  0
   -5.7452   24.0804  -28.4006 H   0  0  0  0  0  0  0  0  0  0  0  0
   -2.1182   22.6484  -30.7168 H   0  0  0  0  0  0  0  0  0  0  0  0
   -1.3138   23.7501  -29.5908 H   0  0  0  0  0  0  0  0  0  0  0  0
   -1.1988   20.9438  -29.4579 H   0  0  0  0  0  0  0  0  0  0  0  0
   -0.8463   22.0033  -28.0840 H   0  0  0  0  0  0  0  0  0  0  0  0
   -3.3119   20.3776  -28.6788 H   0  0  0  0  0  0  0  0  0  0  0  0
   -2.6885   20.8933  -27.1036 H   0  0  0  0  0  0  0  0  0  0  0  0
   -4.8702   22.0624  -28.4300 H   0  0  0  0  0  0  0  0  0  0  0  0
   -3.9483   22.8781  -27.1601 H   0  0  0  0  0  0  0  0  0  0  0  0
   -4.1361   22.1573  -33.4811 H   0  0  0  0  0  0  0  0  0  0  0  0
  1  2  1  0
  2  3  1  0
  3  4  1  0
  4  5  1  0
  3  6  1  0
  6  7  2  0
  6  8  2  0
  6  9  1  0
  9 10  2  0
 10 11  1  0
 11 12  2  0
 12 13  1  0
 13 14  1  0
 14 15  1  0
 15 16  2  0
 15 17  1  0
 17 18  1  0
 18 19  1  0
 19 20  1  0
 20 21  1  0
 12 22  1  0
 22 23  2  0
 23  9  1  0
 21 17  1  0
  1 24  1  0
  1 25  1  0
  1 26  1  0
  2 27  1  0
  2 28  1  0
  3 29  1  0
  4 30  1  0
  4 31  1  0
  5 32  1  0
  5 33  1  0
  5 34  1  0
 10 35  1  0
 11 36  1  0
 14 37  1  0
 14 38  1  0
 18 39  1  0
 18 40  1  0
 19 41  1  0
 19 42  1  0
 20 43  1  0
 20 44  1  0
 21 45  1  0
 21 46  1  0
 23 47  1  0
M  CHG  1   3   1
M  END
>  <UniqueID>  (6) 
6

>  <SMILES>  (6) 
CC[NH+](CC)S(=O)(=O)c1ccc(SCC(=O)N2CCCC2)nc1

>  <Energy>  (6) 
39.31122875239579

>  <Genealogy>  (6) 
CC[NH+](CC)S(=O)(=O)c1ccc(SCC(=O)N2CCCC2)nc1 (protonated)
CC[NH+](CC)S(=O)(=O)c1ccc(SCC(=O)N2CCCC2)nc1 (3D coordinates assigned)
CC[NH+](CC)S(=O)(=O)c1ccc(SCC(=O)N2CCCC2)nc1 (nonaromatic ring conformer: 39.31122875239579 kcal/mol)

>  <smiles>  (6) 
CCN(CC)S(=O)(=O)c1ccc(SCC(=O)N2CCCC2)nc1

>  <score_type>  (6) 
oracle

>  <origin>  (6) 
adg

>  <m_score__min__energy>  (6) 
-7.96

>  <m_primary>  (6) 
energy

$$$$
6:0
     RDKit          3D

 32 34  0  0  0  0  0  0  0  0999 V2000
   -5.4060   25.2020  -30.7810 C   0  0  0  0  0  0  0  0  0  0  0  0
   -4.0430   24.7930  -30.8200 O   0  0  0  0  0  0  0  0  0  0  0  0
   -3.4200   23.9900  -29.8510 C   0  0  0  0  0  0  0  0  0  0  0  0
   -2.8370   24.5490  -28.6950 C   0  0  0  0  0  0  0  0  0  0  0  0
   -2.1790   23.7380  -27.7690 C   0  0  0  0  0  0  0  0  0  0  0  0
   -2.0890   22.3640  -27.9820 C   0  0  0  0  0  0  0  0  0  0  0  0
   -2.6660   21.7930  -29.1170 C   0  0  0  0  0  0  0  0  0  0  0  0
   -3.3510   22.5900  -30.0510 C   0  0  0  0  0  0  0  0  0  0  0  0
   -3.9570   21.9410  -31.2360 C   0  0  0  0  0  0  0  0  0  0  0  0
   -3.1970   21.6110  -32.3680 C   0  0  0  0  0  0  0  0  0  0  0  0
   -3.8060   21.0410  -33.4390 N   0  0  0  0  0  0  0  0  0  0  0  0
   -5.1390   20.7800  -33.4420 C   0  0  0  0  0  0  0  0  0  0  0  0
   -5.9140   21.1150  -32.3200 C   0  0  0  0  0  0  0  0  0  0  0  0
   -7.3340   20.8780  -32.2750 N   0  0  0  0  0  0  0  0  0  0  0  0
   -8.1910   21.4320  -31.3920 C   0  0  0  0  0  0  0  0  0  0  0  0
   -9.4620   20.9580  -31.6500 C   0  0  0  0  0  0  0  0  0  0  0  0
   -9.3100   20.0970  -32.7190 C   0  0  0  0  0  0  0  0  0  0  0  0
   -8.0130   20.0680  -33.0750 N   0  0  0  0  0  0  0  0  0  0  0  0
   -5.2940   21.6940  -31.2540 N   0  0  0  0  0  0  0  0  0  0  0  0
   -5.7298   25.2992  -29.7343 H   0  0  0  0  0  0  0  0  0  0  0  0
   -5.5125   26.1717  -31.2893 H   0  0  0  0  0  0  0  0  0  0  0  0
   -6.0288   24.4512  -31.2893 H   0  0  0  0  0  0  0  0  0  0  0  0
   -2.9014   25.6333  -28.5216 H   0  0  0  0  0  0  0  0  0  0  0  0
   -1.7306   24.1845  -26.8692 H   0  0  0  0  0  0  0  0  0  0  0  0
   -1.5625   21.7286  -27.2546 H   0  0  0  0  0  0  0  0  0  0  0  0
   -2.5841   20.7086  -29.2826 H   0  0  0  0  0  0  0  0  0  0  0  0
   -2.1158   21.8126  -32.3876 H   0  0  0  0  0  0  0  0  0  0  0  0
   -5.6086   20.3090  -34.3182 H   0  0  0  0  0  0  0  0  0  0  0  0
   -7.9215   22.1437  -30.5978 H   0  0  0  0  0  0  0  0  0  0  0  0
  -10.3921   21.2109  -31.1200 H   0  0  0  0  0  0  0  0  0  0  0  0
  -10.1182   19.5274  -33.2011 H   0  0  0  0  0  0  0  0  0  0  0  0
   -7.6150   19.4840  -33.8410 H   0  0  0  0  0  0  0  0  0  0  0  0
  1  2  1  0
  2  3  1  0
  3  4  2  0
  4  5  1  0
  5  6  2  0
  6  7  1  0
  7  8  2  0
  8  9  1  0
  9 10  2  0
 10 11  1  0
 11 12  2  0
 12 13  1  0
 13 14  1  0
 14 15  1  0
 15 16  2  0
 16 17  1  0
 17 18  2  0
 13 19  2  0
  8  3  1  0
 19  9  1  0
 18 14  1  0
  1 20  1  0
  1 21  1  0
  1 22  1  0
  4 23  1  0
  5 24  1  0
  6 25  1  0
  7 26  1  0
 10 27  1  0
 12 28  1  0
 15 29  1  0
 16 30  1  0
 17 31  1  0
 18 32  1  0
M  CHG  1  18   1
M  END
>  <UniqueID>  (7) 
7

>  <SMILES>  (7) 
COc1ccccc1-c1cncc(-n2ccc[nH+]2)n1

>  <Energy>  (7) 
73.48242830057464

>  <Genealogy>  (7) 
COc1ccccc1-c1cncc(-n2ccc[nH+]2)n1 (protonated)
COc1ccccc1-c1cncc(-n2ccc[nH+]2)n1 (3D coordinates assigned)
COc1ccccc1-c1cncc(-n2ccc[nH+]2)n1 (optimized conformer: 73.48242830057464 kcal/mol)

>  <smiles>  (7) 
COc1ccccc1-c1cncc(-n2cccn2)n1

>  <score_type>  (7) 
oracle

>  <origin>  (7) 
adg

>  <m_score__min__energy>  (7) 
-6.4800000000000004

>  <m_primary>  (7) 
energy

$$$$
7:0
     RDKit          3D

 32 33  0  0  0  0  0  0  0  0999 V2000
   -2.4280   24.2730  -28.8670 C   0  0  0  0  0  0  0  0  0  0  0  0
   -3.1630   24.9350  -29.8910 O   0  0  0  0  0  0  0  0  0  0  0  0
   -4.4230   24.5250  -30.3530 C   0  0  0  0  0  0  0  0  0  0  0  0
   -5.6140   25.1810  -29.9840 C   0  0  0  0  0  0  0  0  0  0  0  0
   -6.8450   24.7330  -30.4720 C   0  0  0  0  0  0  0  0  0  0  0  0
   -6.9000   23.6280  -31.3290 C   0  0  0  0  0  0  0  0  0  0  0  0
   -8.4790   23.0540  -31.9550 S   0  0  0  0  0  0  0  0  0  0  0  0
   -8.4160   21.4860  -31.0290 C   0  0  0  0  0  0  0  0  0  0  0  0
   -8.6430   20.3390  -31.9690 C   0  0  0  0  0  0  0  0  0  0  0  0
   -9.8170   20.0910  -32.3540 O   0  0  0  0  0  0  0  0  0  0  0  0
   -7.5520   19.5570  -32.4830 N   0  0  0  0  0  0  0  0  0  0  0  0
   -7.5620   18.1100  -32.5560 C   0  0  0  0  0  0  0  0  0  0  0  0
   -6.4240   17.8140  -33.4940 C   0  0  0  0  0  0  0  0  0  0  0  0
   -6.1100   19.1870  -34.0770 C   0  0  0  0  0  0  0  0  0  0  0  0
   -6.5270   20.1540  -33.1460 O   0  0  0  0  0  0  0  0  0  0  0  0
   -5.7210   22.9760  -31.7020 C   0  0  0  0  0  0  0  0  0  0  0  0
   -4.4890   23.4220  -31.2150 C   0  0  0  0  0  0  0  0  0  0  0  0
   -2.7930   24.6017  -27.8827 H   0  0  0  0  0  0  0  0  0  0  0  0
   -2.5627   23.1856  -28.9636 H   0  0  0  0  0  0  0  0  0  0  0  0
   -1.3605   24.5203  -28.9636 H   0  0  0  0  0  0  0  0  0  0  0  0
   -5.5751   26.0490  -29.3094 H   0  0  0  0  0  0  0  0  0  0  0  0
   -7.7717   25.2498  -30.1820 H   0  0  0  0  0  0  0  0  0  0  0  0
   -7.4296   21.3805  -30.5537 H   0  0  0  0  0  0  0  0  0  0  0  0
   -9.1983   21.4859  -30.2557 H   0  0  0  0  0  0  0  0  0  0  0  0
   -7.3862   17.6624  -31.5667 H   0  0  0  0  0  0  0  0  0  0  0  0
   -8.5238   17.6984  -32.8958 H   0  0  0  0  0  0  0  0  0  0  0  0
   -5.5585   17.4050  -32.9521 H   0  0  0  0  0  0  0  0  0  0  0  0
   -6.6694   17.0600  -34.2564 H   0  0  0  0  0  0  0  0  0  0  0  0
   -5.0284   19.2800  -34.2542 H   0  0  0  0  0  0  0  0  0  0  0  0
   -6.6314   19.3261  -35.0356 H   0  0  0  0  0  0  0  0  0  0  0  0
   -5.7629   22.1106  -32.3798 H   0  0  0  0  0  0  0  0  0  0  0  0
   -3.5649   22.9036  -31.5104 H   0  0  0  0  0  0  0  0  0  0  0  0
  1  2  1  0
  2  3  1  0
  3  4  2  0
  4  5  1  0
  5  6  2  0
  6  7  1  0
  7  8  1  0
  8  9  1  0
  9 10  2  0
  9 11  1  0
 11 12  1  0
 12 13  1  0
 13 14  1  0
 14 15  1  0
  6 16  1  0
 16 17  2  0
 17  3  1  0
 15 11  1  0
  1 18  1  0
  1 19  1  0
  1 20  1  0
  4 21  1  0
  5 22  1  0
  8 23  1  0
  8 24  1  0
 12 25  1  0
 12 26  1  0
 13 27  1  0
 13 28  1  0
 14 29  1  0
 14 30  1  0
 16 31  1  0
 17 32  1  0
M  END
>  <UniqueID>  (8) 
8

>  <SMILES>  (8) 
COc1ccc(SCC(=O)N2CCCO2)cc1

>  <Energy>  (8) 
33.173146034907056

>  <Genealogy>  (8) 
COc1ccc(SCC(=O)N2CCCO2)cc1 (3D coordinates assigned)
COc1ccc(SCC(=O)N2CCCO2)cc1 (nonaromatic ring conformer: 33.173146034907056 kcal/mol)

>  <smiles>  (8) 
COc1ccc(SCC(=O)N2CCCO2)cc1

>  <score_type>  (8) 
oracle

>  <origin>  (8) 
adg

>  <m_score__min__energy>  (8) 
-7.2400000000000002

>  <m_primary>  (8) 
energy

$$$$
8:0
     RDKit          3D

 68 72  0  0  0  0  0  0  0  0999 V2000
   -3.0310   19.4880  -32.0230 O   0  0  0  0  0  0  0  0  0  0  0  0
   -4.0130   20.2740  -31.9570 C   0  0  0  0  0  0  0  0  0  0  0  0
   -3.8270   21.4950  -31.4630 O   0  0  0  0  0  0  0  0  0  0  0  0
   -4.8090   22.3840  -31.3320 C   0  0  0  0  0  0  0  0  0  0  0  0
   -4.5410   23.6640  -30.8050 C   0  0  0  0  0  0  0  0  0  0  0  0
   -3.1250   24.0310  -30.4130 C   0  0  0  0  0  0  0  0  0  0  0  0
   -3.1140   24.8430  -29.1770 N   0  0  0  0  0  0  0  0  0  0  0  0
   -1.7340   25.2360  -28.7910 C   0  0  0  0  0  0  0  0  0  0  0  0
   -1.1750   24.3810  -27.6420 C   0  0  0  0  0  0  0  0  0  0  0  0
   -2.0380   24.4440  -26.4400 N   0  0  0  0  0  0  0  0  0  0  0  0
   -1.4870   25.2160  -25.3030 C   0  0  0  0  0  0  0  0  0  0  0  0
   -0.4390   24.4660  -24.4530 C   0  0  0  0  0  0  0  0  0  0  0  0
   -0.4110   23.0970  -24.7580 O   0  0  0  0  0  0  0  0  0  0  0  0
   -3.4670   24.7170  -26.7120 C   0  0  0  0  0  0  0  0  0  0  0  0
   -3.8720   24.1780  -28.0870 C   0  0  0  0  0  0  0  0  0  0  0  0
   -5.5920   24.5980  -30.6870 C   0  0  0  0  0  0  0  0  0  0  0  0
   -5.3460   25.8760  -30.1850 O   0  0  0  0  0  0  0  0  0  0  0  0
   -6.8910   24.2440  -31.0780 C   0  0  0  0  0  0  0  0  0  0  0  0
   -7.1560   22.9750  -31.5930 C   0  0  0  0  0  0  0  0  0  0  0  0
   -6.1200   22.0430  -31.7250 C   0  0  0  0  0  0  0  0  0  0  0  0
   -6.3530   20.7690  -32.2490 C   0  0  0  0  0  0  0  0  0  0  0  0
   -5.2940   19.8630  -32.3810 C   0  0  0  0  0  0  0  0  0  0  0  0
   -5.5360   18.5140  -32.9510 C   0  0  0  0  0  0  0  0  0  0  0  0
   -4.6160   17.9470  -33.8490 C   0  0  0  0  0  0  0  0  0  0  0  0
   -4.8370   16.6740  -34.3800 C   0  0  0  0  0  0  0  0  0  0  0  0
   -5.9790   15.9440  -34.0200 C   0  0  0  0  0  0  0  0  0  0  0  0
   -6.1990   14.5620  -34.5810 C   0  0  0  0  0  0  0  0  0  0  0  0
   -5.7610   13.5280  -33.6150 N   0  0  0  0  0  0  0  0  0  0  0  0
   -4.8360   14.0690  -32.5900 C   0  0  0  0  0  0  0  0  0  0  0  0
   -3.3530   13.9080  -32.9810 C   0  0  0  0  0  0  0  0  0  0  0  0
   -3.2100   13.8390  -34.3830 O   0  0  0  0  0  0  0  0  0  0  0  0
   -3.7770   12.6340  -34.8680 C   0  0  0  0  0  0  0  0  0  0  0  0
   -5.1770   12.3410  -34.2760 C   0  0  0  0  0  0  0  0  0  0  0  0
   -6.8940   16.5010  -33.1140 C   0  0  0  0  0  0  0  0  0  0  0  0
   -6.6740   17.7750  -32.5830 C   0  0  0  0  0  0  0  0  0  0  0  0
   -2.5477   23.1100  -30.2442 H   0  0  0  0  0  0  0  0  0  0  0  0
   -2.6768   24.6214  -31.2258 H   0  0  0  0  0  0  0  0  0  0  0  0
   -1.0775   25.1223  -29.6663 H   0  0  0  0  0  0  0  0  0  0  0  0
   -1.7697   26.2789  -28.4432 H   0  0  0  0  0  0  0  0  0  0  0  0
   -1.1064   23.3354  -27.9768 H   0  0  0  0  0  0  0  0  0  0  0  0
   -0.1841   24.7754  -27.3728 H   0  0  0  0  0  0  0  0  0  0  0  0
   -1.0142   26.1245  -25.7044 H   0  0  0  0  0  0  0  0  0  0  0  0
   -2.3343   25.4246  -24.6332 H   0  0  0  0  0  0  0  0  0  0  0  0
    0.5542   24.8960  -24.6497 H   0  0  0  0  0  0  0  0  0  0  0  0
   -0.7121   24.5770  -23.3932 H   0  0  0  0  0  0  0  0  0  0  0  0
   -1.1280   22.9390  -25.4260 H   0  0  0  0  0  0  0  0  0  0  0  0
   -4.0804   24.2307  -25.9392 H   0  0  0  0  0  0  0  0  0  0  0  0
   -3.6265   25.8053  -26.6992 H   0  0  0  0  0  0  0  0  0  0  0  0
   -3.6717   23.0969  -28.1203 H   0  0  0  0  0  0  0  0  0  0  0  0
   -4.9424   24.3827  -28.2363 H   0  0  0  0  0  0  0  0  0  0  0  0
   -4.9650   26.0190  -29.2570 H   0  0  0  0  0  0  0  0  0  0  0  0
   -7.7083   24.9733  -30.9778 H   0  0  0  0  0  0  0  0  0  0  0  0
   -8.1790   22.7067  -31.8954 H   0  0  0  0  0  0  0  0  0  0  0  0
   -7.3679   20.4780  -32.5576 H   0  0  0  0  0  0  0  0  0  0  0  0
   -3.7153   18.5096  -34.1359 H   0  0  0  0  0  0  0  0  0  0  0  0
   -4.1112   16.2417  -35.0845 H   0  0  0  0  0  0  0  0  0  0  0  0
   -7.2693   14.4256  -34.7952 H   0  0  0  0  0  0  0  0  0  0  0  0
   -5.6084   14.4569  -35.5030 H   0  0  0  0  0  0  0  0  0  0  0  0
   -5.0495   15.1394  -32.4534 H   0  0  0  0  0  0  0  0  0  0  0  0
   -4.9984   13.4997  -31.6629 H   0  0  0  0  0  0  0  0  0  0  0  0
   -2.7844   14.7701  -32.6023 H   0  0  0  0  0  0  0  0  0  0  0  0
   -2.9712   12.9750  -32.5409 H   0  0  0  0  0  0  0  0  0  0  0  0
   -3.8672   12.7049  -35.9620 H   0  0  0  0  0  0  0  0  0  0  0  0
   -3.1127   11.8123  -34.5622 H   0  0  0  0  0  0  0  0  0  0  0  0
   -5.8462   12.0225  -35.0888 H   0  0  0  0  0  0  0  0  0  0  0  0
   -5.0658   11.5516  -33.5181 H   0  0  0  0  0  0  0  0  0  0  0  0
   -7.7887   15.9324  -32.8202 H   0  0  0  0  0  0  0  0  0  0  0  0
   -7.3964   18.2025  -31.8721 H   0  0  0  0  0  0  0  0  0  0  0  0
  1  2  2  0
  2  3  1  0
  3  4  1  0
  4  5  2  0
  5  6  1  0
  6  7  1  0
  7  8  1  0
  8  9  1  0
  9 10  1  0
 10 11  1  0
 11 12  1  0
 12 13  1  0
 10 14  1  0
 14 15  1  0
  5 16  1  0
 16 17  1  0
 16 18  2  0
 18 19  1  0
 19 20  2  0
 20 21  1  0
 21 22  2  0
 22 23  1  0
 23 24  2  0
 24 25  1  0
 25 26  2  0
 26 27  1  0
 27 28  1  0
 28 29  1  0
 29 30  1  0
 30 31  1  0
 31 32  1  0
 32 33  1  0
 26 34  1  0
 34 35  2  0
 22  2  1  0
 35 23  1  0
 20  4  1  0
 33 28  1  0
 15  7  1  0
  6 36  1  0
  6 37  1  0
  8 38  1  0
  8 39  1  0
  9 40  1  0
  9 41  1  0
 11 42  1  0
 11 43  1  0
 12 44  1  0
 12 45  1  0
 13 46  1  0
 14 47  1  0
 14 48  1  0
 15 49  1  0
 15 50  1  0
 17 51  1  0
 18 52  1  0
 19 53  1  0
 21 54  1  0
 24 55  1  0
 25 56  1  0
 27 57  1  0
 27 58  1  0
 29 59  1  0
 29 60  1  0
 30 61  1  0
 30 62  1  0
 32 63  1  0
 32 64  1  0
 33 65  1  0
 33 66  1  0
 34 67  1  0
 35 68  1  0
M  END
>  <UniqueID>  (9) 
9

>  <SMILES>  (9) 
O=c1oc2c(CN3CCN(CCO)CC3)c(O)ccc2cc1-c1ccc(CN2CCOCC2)cc1

>  <Energy>  (9) 
111.26262665839269

>  <Genealogy>  (9) 
O=c1oc2c(CN3CCN(CCO)CC3)c(O)ccc2cc1-c1ccc(CN2CCOCC2)cc1 (3D coordinates assigned)
O=c1oc2c(CN3CCN(CCO)CC3)c(O)ccc2cc1-c1ccc(CN2CCOCC2)cc1 (nonaromatic ring conformer: 111.26262665839269 kcal/mol)

>  <smiles>  (9) 
O=c1oc2c(CN3CCN(CCO)CC3)c(O)ccc2cc1-c1ccc(CN2CCOCC2)cc1

>  <score_type>  (9) 
oracle

>  <origin>  (9) 
adg

>  <m_score__min__energy>  (9) 
-8.9700000000000006

>  <m_primary>  (9) 
energy

$$$$
9:0
     RDKit          3D

 35 35  0  0  0  0  0  0  0  0999 V2000
   -4.2080   20.8770  -32.9670 C   0  0  0  0  0  0  0  0  0  0  0  0
   -3.2450   21.9200  -32.4000 C   0  0  0  0  0  0  0  0  0  0  0  0
   -3.4460   22.1220  -30.9460 N   0  0  0  0  0  0  0  0  0  0  0  0
   -3.5020   20.8350  -30.2170 C   0  0  0  0  0  0  0  0  0  0  0  0
   -2.7600   20.9490  -28.8890 C   0  0  0  0  0  0  0  0  0  0  0  0
   -2.5010   23.0850  -30.3260 C   0  0  0  0  0  0  0  0  0  0  0  0
   -3.1760   24.2430  -29.5590 C   0  0  0  0  0  0  0  0  0  0  0  0
   -3.8120   25.1540  -30.4530 O   0  0  0  0  0  0  0  0  0  0  0  0
   -5.2000   25.3080  -30.5450 C   0  0  0  0  0  0  0  0  0  0  0  0
   -5.7350   26.4160  -30.2620 O   0  0  0  0  0  0  0  0  0  0  0  0
   -6.0380   24.1660  -30.9650 C   0  0  0  0  0  0  0  0  0  0  0  0
   -6.7680   23.4190  -30.0270 C   0  0  0  0  0  0  0  0  0  0  0  0
   -7.5460   22.3390  -30.4430 C   0  0  0  0  0  0  0  0  0  0  0  0
   -7.5900   22.0070  -31.7980 C   0  0  0  0  0  0  0  0  0  0  0  0
   -8.5640   20.6490  -32.3350 Cl  0  0  0  0  0  0  0  0  0  0  0  0
   -6.8770   22.7350  -32.7010 N   0  0  0  0  0  0  0  0  0  0  0  0
   -6.1120   23.7940  -32.3180 C   0  0  0  0  0  0  0  0  0  0  0  0
   -4.6999   20.3442  -32.1399 H   0  0  0  0  0  0  0  0  0  0  0  0
   -4.9684   21.3774  -33.5846 H   0  0  0  0  0  0  0  0  0  0  0  0
   -3.6486   20.1589  -33.5846 H   0  0  0  0  0  0  0  0  0  0  0  0
   -2.2125   21.5825  -32.5732 H   0  0  0  0  0  0  0  0  0  0  0  0
   -3.4390   22.8762  -32.9080 H   0  0  0  0  0  0  0  0  0  0  0  0
   -4.5526   20.5717  -30.0248 H   0  0  0  0  0  0  0  0  0  0  0  0
   -3.0252   20.0550  -30.8287 H   0  0  0  0  0  0  0  0  0  0  0  0
   -3.4740   20.8393  -28.0594 H   0  0  0  0  0  0  0  0  0  0  0  0
   -1.9991   20.1572  -28.8250 H   0  0  0  0  0  0  0  0  0  0  0  0
   -2.2719   21.9327  -28.8250 H   0  0  0  0  0  0  0  0  0  0  0  0
   -1.8615   22.5332  -29.6213 H   0  0  0  0  0  0  0  0  0  0  0  0
   -1.9367   23.5440  -31.1512 H   0  0  0  0  0  0  0  0  0  0  0  0
   -3.9298   23.8279  -28.8738 H   0  0  0  0  0  0  0  0  0  0  0  0
   -2.4011   24.7882  -29.0001 H   0  0  0  0  0  0  0  0  0  0  0  0
   -6.7262   23.6863  -28.9608 H   0  0  0  0  0  0  0  0  0  0  0  0
   -8.1201   21.7538  -29.7096 H   0  0  0  0  0  0  0  0  0  0  0  0
   -6.9140   22.4770  -33.7130 H   0  0  0  0  0  0  0  0  0  0  0  0
   -5.5482   24.3621  -33.0726 H   0  0  0  0  0  0  0  0  0  0  0  0
  1  2  1  0
  2  3  1  0
  3  4  1  0
  4  5  1  0
  3  6  1  0
  6  7  1  0
  7  8  1  0
  8  9  1  0
  9 10  2  0
  9 11  1  0
 11 12  2  0
 12 13  1  0
 13 14  2  0
 14 15  1  0
 14 16  1  0
 16 17  2  0
 17 11  1  0
  1 18  1  0
  1 19  1  0
  1 20  1  0
  2 21  1  0
  2 22  1  0
  4 23  1  0
  4 24  1  0
  5 25  1  0
  5 26  1  0
  5 27  1  0
  6 28  1  0
  6 29  1  0
  7 30  1  0
  7 31  1  0
 12 32  1  0
 13 33  1  0
 16 34  1  0
 17 35  1  0
M  CHG  1  16   1
M  END
>  <UniqueID>  (10) 
10

>  <SMILES>  (10) 
CCN(CC)CCOC(=O)c1ccc(Cl)[nH+]c1

>  <Energy>  (10) 
31.868928961895556

>  <Genealogy>  (10) 
CCN(CC)CCOC(=O)c1ccc(Cl)[nH+]c1 (protonated)
CCN(CC)CCOC(=O)c1ccc(Cl)[nH+]c1 (3D coordinates assigned)
CCN(CC)CCOC(=O)c1ccc(Cl)[nH+]c1 (optimized conformer: 31.868928961895556 kcal/mol)

>  <smiles>  (10) 
CCN(CC)CCOC(=O)c1ccc(Cl)nc1

>  <score_type>  (10) 
oracle

>  <origin>  (10) 
adg

>  <m_score__min__energy>  (10) 
-5.7400000000000002

>  <m_primary>  (10) 
energy

$$$$
10:0
     RDKit          3D

 38 40  0  0  0  0  0  0  0  0999 V2000
   -1.8100   25.2990  -27.5060 C   0  0  0  0  0  0  0  0  0  0  0  0
   -1.9940   25.3090  -28.9180 O   0  0  0  0  0  0  0  0  0  0  0  0
   -2.4260   24.2060  -29.6710 C   0  0  0  0  0  0  0  0  0  0  0  0
   -1.7440   22.9740  -29.6510 C   0  0  0  0  0  0  0  0  0  0  0  0
   -2.2040   21.9000  -30.4140 C   0  0  0  0  0  0  0  0  0  0  0  0
   -3.3450   22.0390  -31.2100 C   0  0  0  0  0  0  0  0  0  0  0  0
   -3.8190   20.9290  -31.9960 N   0  0  0  0  0  0  0  0  0  0  0  0
   -3.0280   20.3830  -32.9790 C   0  0  0  0  0  0  0  0  0  0  0  0
   -1.6560   20.9180  -33.2770 C   0  0  0  0  0  0  0  0  0  0  0  0
   -3.4810   19.3310  -33.7100 N   0  0  0  0  0  0  0  0  0  0  0  0
   -4.7100   18.7990  -33.5040 C   0  0  0  0  0  0  0  0  0  0  0  0
   -5.1430   17.7160  -34.2790 C   0  0  0  0  0  0  0  0  0  0  0  0
   -6.4120   17.1680  -34.0690 C   0  0  0  0  0  0  0  0  0  0  0  0
   -7.2510   17.7000  -33.0850 C   0  0  0  0  0  0  0  0  0  0  0  0
   -6.8260   18.7820  -32.3080 C   0  0  0  0  0  0  0  0  0  0  0  0
   -5.5500   19.3390  -32.5120 C   0  0  0  0  0  0  0  0  0  0  0  0
   -5.0720   20.4250  -31.7580 C   0  0  0  0  0  0  0  0  0  0  0  0
   -5.7990   20.9300  -30.8550 O   0  0  0  0  0  0  0  0  0  0  0  0
   -4.0320   23.2600  -31.2330 C   0  0  0  0  0  0  0  0  0  0  0  0
   -3.5760   24.3490  -30.4660 C   0  0  0  0  0  0  0  0  0  0  0  0
   -4.2350   25.5880  -30.4660 O   0  0  0  0  0  0  0  0  0  0  0  0
   -5.6400   25.7530  -30.3010 C   0  0  0  0  0  0  0  0  0  0  0  0
   -2.7895   25.3522  -27.0082 H   0  0  0  0  0  0  0  0  0  0  0  0
   -1.2979   24.3717  -27.2095 H   0  0  0  0  0  0  0  0  0  0  0  0
   -1.2005   26.1653  -27.2095 H   0  0  0  0  0  0  0  0  0  0  0  0
   -0.8434   22.8576  -29.0302 H   0  0  0  0  0  0  0  0  0  0  0  0
   -1.6669   20.9404  -30.3891 H   0  0  0  0  0  0  0  0  0  0  0  0
   -1.1295   21.1233  -32.3332 H   0  0  0  0  0  0  0  0  0  0  0  0
   -1.0907   20.1744  -33.8580 H   0  0  0  0  0  0  0  0  0  0  0  0
   -1.7433   21.8480  -33.8580 H   0  0  0  0  0  0  0  0  0  0  0  0
   -4.4843   17.2962  -35.0535 H   0  0  0  0  0  0  0  0  0  0  0  0
   -6.7508   16.3173  -34.6786 H   0  0  0  0  0  0  0  0  0  0  0  0
   -8.2485   17.2660  -32.9217 H   0  0  0  0  0  0  0  0  0  0  0  0
   -7.4900   19.1984  -31.5362 H   0  0  0  0  0  0  0  0  0  0  0  0
   -4.9333   23.3684  -31.8542 H   0  0  0  0  0  0  0  0  0  0  0  0
   -5.8824   25.7815  -29.2284 H   0  0  0  0  0  0  0  0  0  0  0  0
   -5.9566   26.6945  -30.7736 H   0  0  0  0  0  0  0  0  0  0  0  0
   -6.1661   24.9105  -30.7736 H   0  0  0  0  0  0  0  0  0  0  0  0
  1  2  1  0
  2  3  1  0
  3  4  2  0
  4  5  1  0
  5  6  2  0
  6  7  1  0
  7  8  1  0
  8  9  1  0
  8 10  2  0
 10 11  1  0
 11 12  2  0
 12 13  1  0
 13 14  2  0
 14 15  1  0
 15 16  2  0
 16 17  1  0
 17 18  2  0
  6 19  1  0
 19 20  2  0
 20 21  1  0
 21 22  1  0
 20  3  1  0
 17  7  1  0
 16 11  1  0
  1 23  1  0
  1 24  1  0
  1 25  1  0
  4 26  1  0
  5 27  1  0
  9 28  1  0
  9 29  1  0
  9 30  1  0
 12 31  1  0
 13 32  1  0
 14 33  1  0
 15 34  1  0
 19 35  1  0
 22 36  1  0
 22 37  1  0
 22 38  1  0
M  END
>  <UniqueID>  (11) 
11

>  <SMILES>  (11) 
COc1ccc(-n2c(C)nc3ccccc3c2=O)cc1OC

>  <Energy>  (11) 
53.023920342496744

>  <Genealogy>  (11) 
COc1ccc(-n2c(C)nc3ccccc3c2=O)cc1OC (3D coordinates assigned)
COc1ccc(-n2c(C)nc3ccccc3c2=O)cc1OC (optimized conformer: 53.023920342496744 kcal/mol)

>  <smiles>  (11) 
COc1ccc(-n2c(C)nc3ccccc3c2=O)cc1OC

>  <score_type>  (11) 
oracle

>  <origin>  (11) 
adg

>  <m_score__min__energy>  (11) 
-7.71

>  <m_primary>  (11) 
energy

$$$$
11:0
     RDKit          3D

 54 57  0  0  0  0  0  0  0  0999 V2000
   -3.9570   25.6690  -31.6010 H   0  0  0  0  0  0  0  0  0  0  0  0
   -3.8770   25.1460  -30.7000 N   0  0  0  0  0  0  0  0  0  0  0  0
   -3.9340   23.8510  -30.5980 C   0  0  0  0  0  0  0  0  0  0  0  0
   -2.8700   23.1030  -30.0390 C   0  0  0  0  0  0  0  0  0  0  0  0
   -1.6520   23.7520  -29.6000 C   0  0  0  0  0  0  0  0  0  0  0  0
   -0.6780   24.2690  -29.2480 N   0  0  0  0  0  0  0  0  0  0  0  0
   -2.9970   21.7000  -29.9450 C   0  0  0  0  0  0  0  0  0  0  0  0
   -1.9280   20.8520  -29.3660 C   0  0  0  0  0  0  0  0  0  0  0  0
   -2.0790   20.3460  -28.0650 C   0  0  0  0  0  0  0  0  0  0  0  0
   -2.9864   20.5799  -27.4889 H   0  0  0  0  0  0  0  0  0  0  0  0
   -1.0840   19.5480  -27.4990 C   0  0  0  0  0  0  0  0  0  0  0  0
   -1.2113   19.1515  -26.4809 H   0  0  0  0  0  0  0  0  0  0  0  0
    0.0720   19.2520  -28.2220 C   0  0  0  0  0  0  0  0  0  0  0  0
    0.8516   18.6175  -27.7753 H   0  0  0  0  0  0  0  0  0  0  0  0
    0.2410   19.7600  -29.5120 C   0  0  0  0  0  0  0  0  0  0  0  0
    1.1559   19.5256  -30.0760 H   0  0  0  0  0  0  0  0  0  0  0  0
   -0.7530   20.5710  -30.0960 C   0  0  0  0  0  0  0  0  0  0  0  0
   -0.6030   21.1200  -31.3800 O   0  0  0  0  0  0  0  0  0  0  0  0
   -1.1560   20.5620  -32.5670 C   0  0  0  0  0  0  0  0  0  0  0  0
   -1.9072   19.8040  -32.3004 H   0  0  0  0  0  0  0  0  0  0  0  0
   -1.6320   21.3576  -33.1590 H   0  0  0  0  0  0  0  0  0  0  0  0
   -0.3561   20.0932  -33.1590 H   0  0  0  0  0  0  0  0  0  0  0  0
   -4.1550   21.0820  -30.4270 C   0  0  0  0  0  0  0  0  0  0  0  0
   -4.2546   19.9878  -30.3746 H   0  0  0  0  0  0  0  0  0  0  0  0
   -5.1880   21.8510  -30.9760 C   0  0  0  0  0  0  0  0  0  0  0  0
   -6.4150   21.1940  -31.4900 C   0  0  0  0  0  0  0  0  0  0  0  0
   -7.5700   21.9500  -31.7550 C   0  0  0  0  0  0  0  0  0  0  0  0
   -7.5690   23.0342  -31.5689 H   0  0  0  0  0  0  0  0  0  0  0  0
   -8.7180   21.3320  -32.2530 C   0  0  0  0  0  0  0  0  0  0  0  0
   -9.6207   21.9296  -32.4477 H   0  0  0  0  0  0  0  0  0  0  0  0
   -8.7260   19.9600  -32.5050 C   0  0  0  0  0  0  0  0  0  0  0  0
   -9.6362   19.4805  -32.8943 H   0  0  0  0  0  0  0  0  0  0  0  0
   -7.5770   19.1870  -32.2640 C   0  0  0  0  0  0  0  0  0  0  0  0
   -7.5840   17.7000  -32.5590 C   0  0  0  0  0  0  0  0  0  0  0  0
   -7.5796   17.1576  -31.6020 H   0  0  0  0  0  0  0  0  0  0  0  0
   -8.4855   17.4984  -33.1562 H   0  0  0  0  0  0  0  0  0  0  0  0
   -6.4270   17.2390  -33.3610 N   0  0  0  0  0  0  0  0  0  0  0  0
   -5.2450   16.8310  -32.5700 C   0  0  0  0  0  0  0  0  0  0  0  0
   -5.5219   16.7955  -31.5060 H   0  0  0  0  0  0  0  0  0  0  0  0
   -4.9184   15.8417  -32.9231 H   0  0  0  0  0  0  0  0  0  0  0  0
   -4.0780   17.8170  -32.7500 C   0  0  0  0  0  0  0  0  0  0  0  0
   -4.3949   18.8032  -32.3798 H   0  0  0  0  0  0  0  0  0  0  0  0
   -3.2239   17.4147  -32.1854 H   0  0  0  0  0  0  0  0  0  0  0  0
   -3.6580   17.9570  -34.1020 O   0  0  0  0  0  0  0  0  0  0  0  0
   -4.7050   17.7890  -35.0530 C   0  0  0  0  0  0  0  0  0  0  0  0
   -4.5043   18.4490  -35.9098 H   0  0  0  0  0  0  0  0  0  0  0  0
   -4.7149   16.7255  -35.3337 H   0  0  0  0  0  0  0  0  0  0  0  0
   -6.1030   18.1200  -34.5030 C   0  0  0  0  0  0  0  0  0  0  0  0
   -6.1230   19.1681  -34.1698 H   0  0  0  0  0  0  0  0  0  0  0  0
   -6.8467   17.9630  -35.2982 H   0  0  0  0  0  0  0  0  0  0  0  0
   -6.4350   19.8080  -31.7300 C   0  0  0  0  0  0  0  0  0  0  0  0
   -5.5463   19.2032  -31.4969 H   0  0  0  0  0  0  0  0  0  0  0  0
   -5.0510   23.2070  -31.0440 N   0  0  0  0  0  0  0  0  0  0  0  0
   -5.8340   23.7810  -31.4370 H   0  0  0  0  0  0  0  0  0  0  0  0
  1  2  1  0
  2  3  2  0
  3  4  1  0
  4  5  1  0
  5  6  3  0
  4  7  2  0
  7  8  1  0
  8  9  2  0
  9 10  1  0
  9 11  1  0
 11 12  1  0
 11 13  2  0
 13 14  1  0
 13 15  1  0
 15 16  1  0
 15 17  2  0
 17 18  1  0
 18 19  1  0
 19 20  1  0
 19 21  1  0
 19 22  1  0
  7 23  1  0
 23 24  1  0
 23 25  2  0
 25 26  1  0
 26 27  2  0
 27 28  1  0
 27 29  1  0
 29 30  1  0
 29 31  2  0
 31 32  1  0
 31 33  1  0
 33 34  1  0
 34 35  1  0
 34 36  1  0
 34 37  1  0
 37 38  1  0
 38 39  1  0
 38 40  1  0
 38 41  1  0
 41 42  1  0
 41 43  1  0
 41 44  1  0
 44 45  1  0
 45 46  1  0
 45 47  1  0
 45 48  1  0
 48 49  1  0
 48 50  1  0
 33 51  2  0
 51 52  1  0
 25 53  1  0
 53 54  1  0
 53  3  1  0
 17  8  1  0
 51 26  1  0
 48 37  1  0
M  END
>  <UniqueID>  (12) 
12

>  <SMILES>  (12) 
[H]/N=c1/[nH]c(-c2cccc(CN3CCOCC3)c2)cc(-c2ccccc2OC)c1C#N

>  <Energy>  (12) 
88.43165938360649

>  <Genealogy>  (12) 
[H]/N=c1/[nH]c(-c2cccc(CN3CCOCC3)c2)cc(-c2ccccc2OC)c1C#N (cis-trans isomerization)
[H]/N=c1/[nH]c(-c2cccc(CN3CCOCC3)c2)cc(-c2ccccc2OC)c1C#N (3D coordinates assigned)
[H]/N=c1/[nH]c(-c2cccc(CN3CCOCC3)c2)cc(-c2ccccc2OC)c1C#N (nonaromatic ring conformer: 88.43165938360649 kcal/mol)

>  <smiles>  (12) 
COc1ccccc1-c1cc(-c2cccc(CN3CCOCC3)c2)[nH]c(=N)c1C#N

>  <score_type>  (12) 
oracle

>  <origin>  (12) 
adg

>  <m_score__min__energy>  (12) 
-9.0700000000000003

>  <m_primary>  (12) 
energy

$$$$
12:0
     RDKit          3D

 49 50  0  0  0  0  0  0  0  0999 V2000
   -3.2230   15.1740  -34.2730 C   0  0  0  0  0  0  0  0  0  0  0  0
   -4.1940   16.2660  -34.1470 N   0  0  0  0  0  0  0  0  0  0  0  0
   -4.2830   17.2910  -35.1900 C   0  0  0  0  0  0  0  0  0  0  0  0
   -5.0200   16.3410  -32.9650 C   0  0  0  0  0  0  0  0  0  0  0  0
   -4.8140   15.5360  -32.0150 O   0  0  0  0  0  0  0  0  0  0  0  0
   -6.0810   17.3100  -32.8610 N   0  0  0  0  0  0  0  0  0  0  0  0
   -6.7600   17.6100  -31.6300 C   0  0  0  0  0  0  0  0  0  0  0  0
   -6.3700   17.1090  -30.5410 O   0  0  0  0  0  0  0  0  0  0  0  0
   -7.9540   18.5190  -31.6290 C   0  0  0  0  0  0  0  0  0  0  0  0
   -8.0480   19.2470  -32.8520 O   0  0  0  0  0  0  0  0  0  0  0  0
   -7.0110   20.0410  -33.3610 C   0  0  0  0  0  0  0  0  0  0  0  0
   -6.4670   19.7430  -34.4610 O   0  0  0  0  0  0  0  0  0  0  0  0
   -6.5580   21.2270  -32.6070 C   0  0  0  0  0  0  0  0  0  0  0  0
   -5.1870   21.4420  -32.3780 C   0  0  0  0  0  0  0  0  0  0  0  0
   -4.7550   22.5620  -31.6630 C   0  0  0  0  0  0  0  0  0  0  0  0
   -5.6860   23.4750  -31.1530 C   0  0  0  0  0  0  0  0  0  0  0  0
   -5.1690   24.8380  -30.1640 S   0  0  0  0  0  0  0  0  0  0  0  0
   -5.3400   24.4770  -28.7150 O   0  0  0  0  0  0  0  0  0  0  0  0
   -6.0070   26.0520  -30.4580 O   0  0  0  0  0  0  0  0  0  0  0  0
   -3.4870   25.1710  -30.4740 N   0  0  0  0  0  0  0  0  0  0  0  0
   -2.6420   24.8050  -29.3320 C   0  0  0  0  0  0  0  0  0  0  0  0
   -2.4450   23.3140  -29.2420 C   0  0  0  0  0  0  0  0  0  0  0  0
   -3.0620   22.5770  -28.2180 C   0  0  0  0  0  0  0  0  0  0  0  0
   -2.9210   21.1870  -28.1660 C   0  0  0  0  0  0  0  0  0  0  0  0
   -2.1500   20.5260  -29.1250 C   0  0  0  0  0  0  0  0  0  0  0  0
   -1.5120   21.2540  -30.1330 C   0  0  0  0  0  0  0  0  0  0  0  0
   -1.6560   22.6430  -30.1930 C   0  0  0  0  0  0  0  0  0  0  0  0
   -7.0510   23.2700  -31.3820 C   0  0  0  0  0  0  0  0  0  0  0  0
   -7.4850   22.1580  -32.1080 C   0  0  0  0  0  0  0  0  0  0  0  0
   -2.9211   14.8344  -33.2712 H   0  0  0  0  0  0  0  0  0  0  0  0
   -3.6810   14.3375  -34.8211 H   0  0  0  0  0  0  0  0  0  0  0  0
   -2.3387   15.5311  -34.8211 H   0  0  0  0  0  0  0  0  0  0  0  0
   -4.3691   18.2831  -34.7227 H   0  0  0  0  0  0  0  0  0  0  0  0
   -3.3786   17.2574  -35.8152 H   0  0  0  0  0  0  0  0  0  0  0  0
   -5.1681   17.1021  -35.8152 H   0  0  0  0  0  0  0  0  0  0  0  0
   -6.3930   17.8190  -33.7170 H   0  0  0  0  0  0  0  0  0  0  0  0
   -8.8645   17.9155  -31.4996 H   0  0  0  0  0  0  0  0  0  0  0  0
   -7.8447   19.2373  -30.8031 H   0  0  0  0  0  0  0  0  0  0  0  0
   -4.4495   20.7232  -32.7646 H   0  0  0  0  0  0  0  0  0  0  0  0
   -3.6797   22.7270  -31.5002 H   0  0  0  0  0  0  0  0  0  0  0  0
   -1.6604   25.2884  -29.4450 H   0  0  0  0  0  0  0  0  0  0  0  0
   -3.1426   25.1416  -28.4122 H   0  0  0  0  0  0  0  0  0  0  0  0
   -3.6589   23.0957  -27.4534 H   0  0  0  0  0  0  0  0  0  0  0  0
   -3.4175   20.6136  -27.3694 H   0  0  0  0  0  0  0  0  0  0  0  0
   -2.0449   19.4317  -29.0868 H   0  0  0  0  0  0  0  0  0  0  0  0
   -0.8955   20.7331  -30.8804 H   0  0  0  0  0  0  0  0  0  0  0  0
   -1.1506   23.2129  -30.9866 H   0  0  0  0  0  0  0  0  0  0  0  0
   -7.7859   23.9877  -30.9886 H   0  0  0  0  0  0  0  0  0  0  0  0
   -8.5597   22.0102  -32.2903 H   0  0  0  0  0  0  0  0  0  0  0  0
  1  2  1  0
  2  3  1  0
  2  4  1  0
  4  5  2  0
  4  6  1  0
  6  7  1  0
  7  8  2  0
  7  9  1  0
  9 10  1  0
 10 11  1  0
 11 12  2  0
 11 13  1  0
 13 14  2  0
 14 15  1  0
 15 16  2  0
 16 17  1  0
 17 18  2  0
 17 19  2  0
 17 20  1  0
 20 21  1  0
 21 22  1  0
 22 23  2  0
 23 24  1  0
 24 25  2  0
 25 26  1  0
 26 27  2  0
 16 28  1  0
 28 29  2  0
 29 13  1  0
 27 22  1  0
  1 30  1  0
  1 31  1  0
  1 32  1  0
  3 33  1  0
  3 34  1  0
  3 35  1  0
  6 36  1  0
  9 37  1  0
  9 38  1  0
 14 39  1  0
 15 40  1  0
 21 41  1  0
 21 42  1  0
 23 43  1  0
 24 44  1  0
 25 45  1  0
 26 46  1  0
 27 47  1  0
 28 48  1  0
 29 49  1  0
M  CHG  1  20  -1
M  END
>  <UniqueID>  (13) 
13

>  <SMILES>  (13) 
CN(C)C(=O)NC(=O)COC(=O)c1ccc(S(=O)(=O)[N-]Cc2ccccc2)cc1

>  <Energy>  (13) 
39.977237163290674

>  <Genealogy>  (13) 
CN(C)C(=O)NC(=O)COC(=O)c1ccc(S(=O)(=O)[N-]Cc2ccccc2)cc1 (protonated)
CN(C)C(=O)NC(=O)COC(=O)c1ccc(S(=O)(=O)[N-]Cc2ccccc2)cc1 (3D coordinates assigned)
CN(C)C(=O)NC(=O)COC(=O)c1ccc(S(=O)(=O)[N-]Cc2ccccc2)cc1 (optimized conformer: 39.977237163290674 kcal/mol)

>  <smiles>  (13) 
CN(C)C(=O)NC(=O)COC(=O)c1ccc(S(=O)(=O)NCc2ccccc2)cc1

>  <score_type>  (13) 
oracle

>  <origin>  (13) 
adg

>  <m_score__min__energy>  (13) 
-9.9299999999999997

>  <m_primary>  (13) 
energy

$$$$
13:0
     RDKit          3D

 51 53  0  0  0  0  0  0  0  0999 V2000
    0.1520   20.2550  -31.9570 C   0  0  0  0  0  0  0  0  0  0  0  0
   -1.0730   21.0490  -31.5880 C   0  0  0  0  0  0  0  0  0  0  0  0
   -0.9960   21.9370  -30.5010 C   0  0  0  0  0  0  0  0  0  0  0  0
   -2.0900   22.7260  -30.1460 C   0  0  0  0  0  0  0  0  0  0  0  0
   -3.2800   22.6480  -30.8730 C   0  0  0  0  0  0  0  0  0  0  0  0
   -4.6620   23.6370  -30.4050 S   0  0  0  0  0  0  0  0  0  0  0  0
   -4.7280   23.6990  -28.9050 O   0  0  0  0  0  0  0  0  0  0  0  0
   -4.4890   25.0350  -30.9350 O   0  0  0  0  0  0  0  0  0  0  0  0
   -6.1320   22.9310  -31.0290 N   0  0  0  0  0  0  0  0  0  0  0  0
   -6.7540   23.8420  -32.0060 C   0  0  0  0  0  0  0  0  0  0  0  0
   -8.1920   23.3940  -32.3410 C   0  0  0  0  0  0  0  0  0  0  0  0
   -8.4280   22.0760  -31.8870 O   0  0  0  0  0  0  0  0  0  0  0  0
   -8.3650   22.0380  -30.4710 C   0  0  0  0  0  0  0  0  0  0  0  0
   -7.0610   22.6560  -29.9230 C   0  0  0  0  0  0  0  0  0  0  0  0
   -3.3810   21.7490  -31.9410 C   0  0  0  0  0  0  0  0  0  0  0  0
   -2.2960   20.9290  -32.2960 C   0  0  0  0  0  0  0  0  0  0  0  0
   -2.4760   19.9710  -33.4090 C   0  0  0  0  0  0  0  0  0  0  0  0
   -2.0290   20.2620  -34.5520 O   0  0  0  0  0  0  0  0  0  0  0  0
   -3.1910   18.7450  -33.2100 N   0  0  0  0  0  0  0  0  0  0  0  0
   -3.2360   17.7130  -34.2450 C   0  0  0  0  0  0  0  0  0  0  0  0
   -4.5750   17.7420  -34.9860 C   0  0  0  0  0  0  0  0  0  0  0  0
   -5.6900   18.1310  -34.0520 C   0  0  0  0  0  0  0  0  0  0  0  0
   -6.1250   19.4650  -33.9850 C   0  0  0  0  0  0  0  0  0  0  0  0
   -7.1380   19.8320  -33.0930 C   0  0  0  0  0  0  0  0  0  0  0  0
   -7.7170   18.8720  -32.2580 C   0  0  0  0  0  0  0  0  0  0  0  0
   -8.6990   19.2290  -31.3930 F   0  0  0  0  0  0  0  0  0  0  0  0
   -7.2810   17.5440  -32.3100 C   0  0  0  0  0  0  0  0  0  0  0  0
   -6.2670   17.1750  -33.2000 C   0  0  0  0  0  0  0  0  0  0  0  0
    0.6636   19.9234  -31.0414 H   0  0  0  0  0  0  0  0  0  0  0  0
   -0.1448   19.3771  -32.5496 H   0  0  0  0  0  0  0  0  0  0  0  0
    0.8322   20.8844  -32.5496 H   0  0  0  0  0  0  0  0  0  0  0  0
   -0.0624   22.0105  -29.9239 H   0  0  0  0  0  0  0  0  0  0  0  0
   -2.0153   23.4126  -29.2898 H   0  0  0  0  0  0  0  0  0  0  0  0
   -6.7825   24.8574  -31.5838 H   0  0  0  0  0  0  0  0  0  0  0  0
   -6.1573   23.8259  -32.9300 H   0  0  0  0  0  0  0  0  0  0  0  0
   -8.9045   24.0759  -31.8537 H   0  0  0  0  0  0  0  0  0  0  0  0
   -8.3226   23.4185  -33.4329 H   0  0  0  0  0  0  0  0  0  0  0  0
   -9.2197   22.5984  -30.0642 H   0  0  0  0  0  0  0  0  0  0  0  0
   -8.3914   20.9825  -30.1624 H   0  0  0  0  0  0  0  0  0  0  0  0
   -7.2944   23.5957  -29.4010 H   0  0  0  0  0  0  0  0  0  0  0  0
   -6.5914   21.9481  -29.2242 H   0  0  0  0  0  0  0  0  0  0  0  0
   -4.3206   21.6834  -32.5092 H   0  0  0  0  0  0  0  0  0  0  0  0
   -3.7090   18.6040  -32.3130 H   0  0  0  0  0  0  0  0  0  0  0  0
   -2.4223   17.8882  -34.9642 H   0  0  0  0  0  0  0  0  0  0  0  0
   -3.1199   16.7294  -33.7664 H   0  0  0  0  0  0  0  0  0  0  0  0
   -4.5186   18.4733  -35.8058 H   0  0  0  0  0  0  0  0  0  0  0  0
   -4.7810   16.7378  -35.3849 H   0  0  0  0  0  0  0  0  0  0  0  0
   -5.6672   20.2239  -34.6365 H   0  0  0  0  0  0  0  0  0  0  0  0
   -7.4793   20.8768  -33.0486 H   0  0  0  0  0  0  0  0  0  0  0  0
   -7.7356   16.7897  -31.6509 H   0  0  0  0  0  0  0  0  0  0  0  0
   -5.9200   16.1317  -33.2328 H   0  0  0  0  0  0  0  0  0  0  0  0
  1  2  1  0
  2  3  2  0
  3  4  1  0
  4  5  2  0
  5  6  1  0
  6  7  2  0
  6  8  2  0
  6  9  1  0
  9 10  1  0
 10 11  1  0
 11 12  1  0
 12 13  1  0
 13 14  1  0
  5 15  1  0
 15 16  2  0
 16 17  1  0
 17 18  2  0
 17 19  1  0
 19 20  1  0
 20 21  1  0
 21 22  1  0
 22 23  2  0
 23 24  1  0
 24 25  2  0
 25 26  1  0
 25 27  1  0
 27 28  2  0
 16  2  1  0
 28 22  1  0
 14  9  1  0
  1 29  1  0
  1 30  1  0
  1 31  1  0
  3 32  1  0
  4 33  1  0
 10 34  1  0
 10 35  1  0
 11 36  1  0
 11 37  1  0
 13 38  1  0
 13 39  1  0
 14 40  1  0
 14 41  1  0
 15 42  1  0
 19 43  1  0
 20 44  1  0
 20 45  1  0
 21 46  1  0
 21 47  1  0
 23 48  1  0
 24 49  1  0
 27 50  1  0
 28 51  1  0
M  END
>  <UniqueID>  (14) 
14

>  <SMILES>  (14) 
Cc1ccc(S(=O)(=O)N2CCOCC2)cc1C(=O)NCCc1ccc(F)cc1

>  <Energy>  (14) 
59.87442730607489

>  <Genealogy>  (14) 
Cc1ccc(S(=O)(=O)N2CCOCC2)cc1C(=O)NCCc1ccc(F)cc1 (3D coordinates assigned)
Cc1ccc(S(=O)(=O)N2CCOCC2)cc1C(=O)NCCc1ccc(F)cc1 (nonaromatic ring conformer: 59.87442730607489 kcal/mol)

>  <smiles>  (14) 
Cc1ccc(S(=O)(=O)N2CCOCC2)cc1C(=O)NCCc1ccc(F)cc1

>  <score_type>  (14) 
oracle

>  <origin>  (14) 
adg

>  <m_score__min__energy>  (14) 
-9.4000000000000004

>  <m_primary>  (14) 
energy

$$$$
15:0
     RDKit          3D

 28 28  0  0  0  0  0  0  0  0999 V2000
   -0.8380   26.8710  -27.8280 C   0  0  0  0  0  0  0  0  0  0  0  0
   -1.2510   26.0440  -28.9090 O   0  0  0  0  0  0  0  0  0  0  0  0
   -0.9560   24.6800  -28.9720 C   0  0  0  0  0  0  0  0  0  0  0  0
    0.2040   24.2580  -28.7110 O   0  0  0  0  0  0  0  0  0  0  0  0
   -2.0140   23.7240  -29.4080 C   0  0  0  0  0  0  0  0  0  0  0  0
   -3.3200   24.3030  -29.1340 N   0  0  0  0  0  0  0  0  0  0  0  0
   -4.2600   24.6280  -30.1610 C   0  0  0  0  0  0  0  0  0  0  0  0
   -4.1200   25.6750  -30.8480 O   0  0  0  0  0  0  0  0  0  0  0  0
   -5.3840   23.6880  -30.4540 C   0  0  0  0  0  0  0  0  0  0  0  0
   -5.2910   23.0780  -32.1740 S   0  0  0  0  0  0  0  0  0  0  0  0
   -6.8130   22.1230  -32.0970 C   0  0  0  0  0  0  0  0  0  0  0  0
   -7.9430   22.6660  -31.4690 C   0  0  0  0  0  0  0  0  0  0  0  0
   -9.1340   21.9370  -31.4140 C   0  0  0  0  0  0  0  0  0  0  0  0
   -9.2000   20.6620  -31.9810 C   0  0  0  0  0  0  0  0  0  0  0  0
   -8.0730   20.1110  -32.5970 C   0  0  0  0  0  0  0  0  0  0  0  0
   -6.8770   20.8370  -32.6520 C   0  0  0  0  0  0  0  0  0  0  0  0
   -5.7900   20.2930  -33.2530 F   0  0  0  0  0  0  0  0  0  0  0  0
   -1.0837   26.3790  -26.8753 H   0  0  0  0  0  0  0  0  0  0  0  0
    0.2481   27.0355  -27.8863 H   0  0  0  0  0  0  0  0  0  0  0  0
   -1.3590   27.8380  -27.8863 H   0  0  0  0  0  0  0  0  0  0  0  0
   -1.9151   23.5317  -30.4865 H   0  0  0  0  0  0  0  0  0  0  0  0
   -1.9061   22.7763  -28.8601 H   0  0  0  0  0  0  0  0  0  0  0  0
   -5.3273   22.8326  -29.7648 H   0  0  0  0  0  0  0  0  0  0  0  0
   -6.3350   24.2248  -30.3220 H   0  0  0  0  0  0  0  0  0  0  0  0
   -7.8919   23.6682  -31.0185 H   0  0  0  0  0  0  0  0  0  0  0  0
  -10.0199   22.3673  -30.9240 H   0  0  0  0  0  0  0  0  0  0  0  0
  -10.1396   20.0913  -31.9426 H   0  0  0  0  0  0  0  0  0  0  0  0
   -8.1256   19.1053  -33.0394 H   0  0  0  0  0  0  0  0  0  0  0  0
  1  2  1  0
  2  3  1  0
  3  4  2  0
  3  5  1  0
  5  6  1  0
  6  7  1  0
  7  8  2  0
  7  9  1  0
  9 10  1  0
 10 11  1  0
 11 12  2  0
 12 13  1  0
 13 14  2  0
 14 15  1  0
 15 16  2  0
 16 17  1  0
 16 11  1  0
  1 18  1  0
  1 19  1  0
  1 20  1  0
  5 21  1  0
  5 22  1  0
  9 23  1  0
  9 24  1  0
 12 25  1  0
 13 26  1  0
 14 27  1  0
 15 28  1  0
M  CHG  1   6  -1
M  END
>  <UniqueID>  (15) 
15

>  <SMILES>  (15) 
COC(=O)C[N-]C(=O)CSc1ccccc1F

>  <Energy>  (15) 
13.468507564890501

>  <Genealogy>  (15) 
COC(=O)C[N-]C(=O)CSc1ccccc1F (protonated)
COC(=O)C[N-]C(=O)CSc1ccccc1F (3D coordinates assigned)
COC(=O)C[N-]C(=O)CSc1ccccc1F (optimized conformer: 13.468507564890501 kcal/mol)

>  <smiles>  (15) 
COC(=O)CNC(=O)CSc1ccccc1F

>  <score_type>  (15) 
oracle

>  <origin>  (15) 
adg

>  <m_score__min__energy>  (15) 
-8.5500000000000007

>  <m_primary>  (15) 
energy

$$$$
16:0
     RDKit          3D

 49 49  0  0  0  0  0  0  0  0999 V2000
   -9.4370   21.5840  -30.6860 C   0  0  0  0  0  0  0  0  0  0  0  0
   -8.7280   21.8060  -31.9570 N   0  0  0  0  0  0  0  0  0  0  0  0
   -7.9470   23.0500  -31.9280 C   0  0  0  0  0  0  0  0  0  0  0  0
   -7.9420   20.6320  -32.3970 C   0  0  0  0  0  0  0  0  0  0  0  0
   -8.7570   19.3250  -32.5730 C   0  0  0  0  0  0  0  0  0  0  0  0
   -8.3170   18.2250  -31.5940 C   0  0  0  0  0  0  0  0  0  0  0  0
   -6.8720   17.7920  -31.8640 C   0  0  0  0  0  0  0  0  0  0  0  0
   -6.7670   17.0170  -33.1840 C   0  0  0  0  0  0  0  0  0  0  0  0
   -6.1680   17.8750  -34.3090 C   0  0  0  0  0  0  0  0  0  0  0  0
   -4.7360   18.1410  -34.0880 N   0  0  0  0  0  0  0  0  0  0  0  0
   -3.7440   17.2240  -34.6610 C   0  0  0  0  0  0  0  0  0  0  0  0
   -4.2960   19.3370  -33.4050 C   0  0  0  0  0  0  0  0  0  0  0  0
   -3.1310   19.3290  -32.6170 C   0  0  0  0  0  0  0  0  0  0  0  0
   -2.7200   20.4810  -31.9410 C   0  0  0  0  0  0  0  0  0  0  0  0
   -3.4660   21.6690  -32.0430 C   0  0  0  0  0  0  0  0  0  0  0  0
   -3.1000   22.8480  -31.3770 O   0  0  0  0  0  0  0  0  0  0  0  0
   -3.7830   23.3800  -30.2450 C   0  0  0  0  0  0  0  0  0  0  0  0
   -3.4930   24.8390  -30.1370 C   0  0  0  0  0  0  0  0  0  0  0  0
   -4.1710   25.6700  -30.7980 O   0  0  0  0  0  0  0  0  0  0  0  0
   -2.4350   25.2820  -29.3530 O   0  0  0  0  0  0  0  0  0  0  0  0
   -4.6210   21.6820  -32.8320 C   0  0  0  0  0  0  0  0  0  0  0  0
   -5.0350   20.5300  -33.5050 C   0  0  0  0  0  0  0  0  0  0  0  0
   -8.7591   21.7962  -29.8461 H   0  0  0  0  0  0  0  0  0  0  0  0
  -10.3092   22.2520  -30.6311 H   0  0  0  0  0  0  0  0  0  0  0  0
   -9.7724   20.5378  -30.6311 H   0  0  0  0  0  0  0  0  0  0  0  0
   -7.7630   23.3431  -30.8839 H   0  0  0  0  0  0  0  0  0  0  0  0
   -6.9860   22.8916  -32.4392 H   0  0  0  0  0  0  0  0  0  0  0  0
   -8.5073   23.8467  -32.4392 H   0  0  0  0  0  0  0  0  0  0  0  0
   -7.4762   20.8761  -33.3631 H   0  0  0  0  0  0  0  0  0  0  0  0
   -7.2129   20.4337  -31.5976 H   0  0  0  0  0  0  0  0  0  0  0  0
   -9.8208   19.5460  -32.4014 H   0  0  0  0  0  0  0  0  0  0  0  0
   -8.5823   18.9552  -33.5942 H   0  0  0  0  0  0  0  0  0  0  0  0
   -8.3909   18.6086  -30.5657 H   0  0  0  0  0  0  0  0  0  0  0  0
   -8.9741   17.3533  -31.7296 H   0  0  0  0  0  0  0  0  0  0  0  0
   -6.2333   18.6858  -31.9200 H   0  0  0  0  0  0  0  0  0  0  0  0
   -6.5446   17.1347  -31.0450 H   0  0  0  0  0  0  0  0  0  0  0  0
   -6.1259   16.1367  -33.0290 H   0  0  0  0  0  0  0  0  0  0  0  0
   -7.7825   16.7213  -33.4861 H   0  0  0  0  0  0  0  0  0  0  0  0
   -6.2886   17.3442  -35.2649 H   0  0  0  0  0  0  0  0  0  0  0  0
   -6.6975   18.8391  -34.3239 H   0  0  0  0  0  0  0  0  0  0  0  0
   -3.1988   16.7200  -33.8494 H   0  0  0  0  0  0  0  0  0  0  0  0
   -4.2545   16.4728  -35.2816 H   0  0  0  0  0  0  0  0  0  0  0  0
   -3.0351   17.7918  -35.2816 H   0  0  0  0  0  0  0  0  0  0  0  0
   -2.5375   18.4068  -32.5320 H   0  0  0  0  0  0  0  0  0  0  0  0
   -1.8083   20.4585  -31.3259 H   0  0  0  0  0  0  0  0  0  0  0  0
   -4.8659   23.2282  -30.3641 H   0  0  0  0  0  0  0  0  0  0  0  0
   -3.4418   22.8674  -29.3335 H   0  0  0  0  0  0  0  0  0  0  0  0
   -5.2084   22.6075  -32.9233 H   0  0  0  0  0  0  0  0  0  0  0  0
   -5.9474   20.5559  -34.1189 H   0  0  0  0  0  0  0  0  0  0  0  0
  1  2  1  0
  2  3  1  0
  2  4  1  0
  4  5  1  0
  5  6  1  0
  6  7  1  0
  7  8  1  0
  8  9  1  0
  9 10  1  0
 10 11  1  0
 10 12  1  0
 12 13  2  0
 13 14  1  0
 14 15  2  0
 15 16  1  0
 16 17  1  0
 17 18  1  0
 18 19  2  0
 18 20  1  0
 15 21  1  0
 21 22  2  0
 22 12  1  0
  1 23  1  0
  1 24  1  0
  1 25  1  0
  3 26  1  0
  3 27  1  0
  3 28  1  0
  4 29  1  0
  4 30  1  0
  5 31  1  0
  5 32  1  0
  6 33  1  0
  6 34  1  0
  7 35  1  0
  7 36  1  0
  8 37  1  0
  8 38  1  0
  9 39  1  0
  9 40  1  0
 11 41  1  0
 11 42  1  0
 11 43  1  0
 13 44  1  0
 14 45  1  0
 17 46  1  0
 17 47  1  0
 21 48  1  0
 22 49  1  0
M  CHG  1  20  -1
M  END
>  <UniqueID>  (16) 
16

>  <SMILES>  (16) 
CN(C)CCCCCCN(C)c1ccc(OCC(=O)[O-])cc1

>  <Energy>  (16) 
42.33333664558927

>  <Genealogy>  (16) 
CN(C)CCCCCCN(C)c1ccc(OCC(=O)[O-])cc1 (protonated)
CN(C)CCCCCCN(C)c1ccc(OCC(=O)[O-])cc1 (3D coordinates assigned)
CN(C)CCCCCCN(C)c1ccc(OCC(=O)[O-])cc1 (optimized conformer: 42.33333664558927 kcal/mol)

>  <smiles>  (16) 
CN(C)CCCCCCN(C)c1ccc(OCC(=O)O)cc1

>  <score_type>  (16) 
oracle

>  <origin>  (16) 
adg

>  <m_score__min__energy>  (16) 
-9.75

>  <m_primary>  (16) 
energy

$$$$
17:0
     RDKit          3D

 47 49  0  0  1  0  0  0  0  0999 V2000
   -6.4580   25.3040  -29.8090 C   0  0  0  0  0  0  0  0  0  0  0  0
   -5.3070   24.9280  -30.6890 C   0  0  0  0  0  0  0  0  0  0  0  0
   -4.3080   24.2270  -29.9590 N   0  0  0  0  0  0  0  0  0  0  0  0
   -4.6350   23.6170  -28.7460 C   0  0  0  0  0  0  0  0  0  0  0  0
   -3.9180   24.1710  -27.5530 C   0  0  0  0  0  0  0  0  0  0  0  0
   -3.3790   23.5050  -30.7870 C   0  0  0  0  0  0  0  0  0  0  0  0
   -3.8570   22.1490  -31.2340 C   0  0  0  0  0  0  0  0  0  0  0  0
   -4.8620   22.2620  -32.2760 N   0  0  0  0  0  0  0  0  0  0  0  0
   -5.5720   21.2550  -32.5820 C   0  0  0  0  0  0  0  0  0  0  0  0
   -5.0880   20.0900  -33.0690 N   0  0  0  0  0  0  0  0  0  0  0  0
   -5.9180   19.0660  -33.3260 C   0  0  0  0  0  0  0  0  0  0  0  0
   -5.3330   17.8390  -33.8670 C   0  0  0  0  0  0  0  0  0  0  0  0
   -4.1500   17.8580  -34.5840 C   0  0  0  0  0  0  0  0  0  0  0  0
   -3.6360   16.6660  -35.0960 C   0  0  0  0  0  0  0  0  0  0  0  0
   -4.2600   15.4710  -34.9150 C   0  0  0  0  0  0  0  0  0  0  0  0
   -5.4090   15.4640  -34.2160 N   0  0  0  0  0  0  0  0  0  0  0  0
   -5.9320   16.5990  -33.7090 C   0  0  0  0  0  0  0  0  0  0  0  0
   -7.2370   19.1460  -33.1120 N   0  0  0  0  0  0  0  0  0  0  0  0
   -7.7680   20.3020  -32.6210 C   0  0  0  0  0  0  0  0  0  0  0  0
   -9.1080   20.4140  -32.3940 C   0  0  0  0  0  0  0  0  0  0  0  0
   -9.7000   21.5620  -31.8990 C   0  0  0  0  0  0  0  0  0  0  0  0
   -8.8830   22.6330  -31.6270 C   0  0  0  0  0  0  0  0  0  0  0  0
   -7.5280   22.5080  -31.8600 C   0  0  0  0  0  0  0  0  0  0  0  0
   -6.9510   21.3620  -32.3520 C   0  0  0  0  0  0  0  0  0  0  0  0
   -6.1604   25.2068  -28.7545 H   0  0  0  0  0  0  0  0  0  0  0  0
   -6.7508   26.3445  -30.0129 H   0  0  0  0  0  0  0  0  0  0  0  0
   -7.3086   24.6370  -30.0129 H   0  0  0  0  0  0  0  0  0  0  0  0
   -5.6731   24.2856  -31.5034 H   0  0  0  0  0  0  0  0  0  0  0  0
   -4.8614   25.8495  -31.0917 H   0  0  0  0  0  0  0  0  0  0  0  0
   -5.7161   23.7375  -28.5824 H   0  0  0  0  0  0  0  0  0  0  0  0
   -4.3250   22.5652  -28.8338 H   0  0  0  0  0  0  0  0  0  0  0  0
   -4.3960   23.8016  -26.6337 H   0  0  0  0  0  0  0  0  0  0  0  0
   -2.8666   23.8484  -27.5746 H   0  0  0  0  0  0  0  0  0  0  0  0
   -3.9649   25.2698  -27.5746 H   0  0  0  0  0  0  0  0  0  0  0  0
   -3.1772   24.1098  -31.6834 H   0  0  0  0  0  0  0  0  0  0  0  0
   -2.4840   23.3316  -30.1715 H   0  0  0  0  0  0  0  0  0  0  0  0
   -3.0012   21.5771  -31.6219 H   0  0  0  0  0  0  0  0  0  0  0  0
   -4.3073   21.6372  -30.3707 H   0  0  0  0  0  0  0  0  0  0  0  0
   -3.6181   18.8065  -34.7494 H   0  0  0  0  0  0  0  0  0  0  0  0
   -2.6949   16.6937  -35.6649 H   0  0  0  0  0  0  0  0  0  0  0  0
   -3.8391   14.5417  -35.3264 H   0  0  0  0  0  0  0  0  0  0  0  0
   -6.8748   16.5381  -33.1456 H   0  0  0  0  0  0  0  0  0  0  0  0
   -7.9120   18.3950  -33.2880 H   0  0  0  0  0  0  0  0  0  0  0  0
   -9.7499   19.5486  -32.6155 H   0  0  0  0  0  0  0  0  0  0  0  0
  -10.7855   21.6157  -31.7292 H   0  0  0  0  0  0  0  0  0  0  0  0
   -9.3002   23.5709  -31.2316 H   0  0  0  0  0  0  0  0  0  0  0  0
   -6.8782   23.3681  -31.6410 H   0  0  0  0  0  0  0  0  0  0  0  0
  1  2  1  0
  2  3  1  0
  3  4  1  0
  4  5  1  0
  3  6  1  0
  6  7  1  0
  7  8  1  0
  8  9  2  0
  9 10  1  0
 10 11  2  0
 11 12  1  0
 12 13  2  0
 13 14  1  0
 14 15  2  0
 15 16  1  0
 16 17  2  0
 11 18  1  0
 18 19  1  0
 19 20  2  0
 20 21  1  0
 21 22  2  0
 22 23  1  0
 23 24  2  0
 24  9  1  0
 17 12  1  0
 24 19  1  0
  1 25  1  0
  1 26  1  0
  1 27  1  0
  2 28  1  0
  2 29  1  0
  4 30  1  0
  4 31  1  0
  5 32  1  0
  5 33  1  0
  5 34  1  0
  6 35  1  0
  6 36  1  0
  7 37  1  0
  7 38  1  0
 13 39  1  0
 14 40  1  0
 15 41  1  0
 17 42  1  0
 18 43  1  0
 20 44  1  0
 21 45  1  0
 22 46  1  0
 23 47  1  0
M  END
>  <smiles>  (17) 
CCN(CC)CCN=c1nc(-c2cccnc2)[nH]c2ccccc12

>  <score_type>  (17) 
oracle

>  <origin>  (17) 
adg

>  <m_score__min__energy>  (17) 
-7.7199999999999998

>  <m_primary>  (17) 
energy

$$$$
18:0
     RDKit          3D

 31 32  0  0  0  0  0  0  0  0999 V2000
   -0.8570   26.7930  -27.9740 C   0  0  0  0  0  0  0  0  0  0  0  0
   -1.5650   26.0280  -28.9440 O   0  0  0  0  0  0  0  0  0  0  0  0
   -1.8020   24.6470  -28.8480 C   0  0  0  0  0  0  0  0  0  0  0  0
   -1.0560   23.8180  -27.9870 C   0  0  0  0  0  0  0  0  0  0  0  0
   -1.3310   22.4520  -27.9100 C   0  0  0  0  0  0  0  0  0  0  0  0
   -2.3540   21.9000  -28.6800 C   0  0  0  0  0  0  0  0  0  0  0  0
   -3.1010   22.7100  -29.5390 C   0  0  0  0  0  0  0  0  0  0  0  0
   -2.8170   24.0840  -29.6430 C   0  0  0  0  0  0  0  0  0  0  0  0
   -3.5900   24.9490  -30.4900 N   0  0  0  0  0  0  0  0  0  0  0  0
   -4.9740   25.2840  -30.3310 C   0  0  0  0  0  0  0  0  0  0  0  0
   -5.3750   26.4690  -30.4860 O   0  0  0  0  0  0  0  0  0  0  0  0
   -5.9510   24.2120  -29.9710 C   0  0  0  0  0  0  0  0  0  0  0  0
   -7.0200   23.8080  -31.3950 S   0  0  0  0  0  0  0  0  0  0  0  0
   -5.9090   22.5720  -32.0730 C   0  0  0  0  0  0  0  0  0  0  0  0
   -6.3880   21.3500  -32.4210 N   0  0  0  0  0  0  0  0  0  0  0  0
   -5.5840   20.4230  -32.9430 N   0  0  0  0  0  0  0  0  0  0  0  0
   -4.2650   20.6740  -33.1410 C   0  0  0  0  0  0  0  0  0  0  0  0
   -3.7570   21.9200  -32.7830 C   0  0  0  0  0  0  0  0  0  0  0  0
   -4.5890   22.8520  -32.2510 N   0  0  0  0  0  0  0  0  0  0  0  0
   -1.1546   26.4715  -26.9650 H   0  0  0  0  0  0  0  0  0  0  0  0
    0.2244   26.6392  -28.1038 H   0  0  0  0  0  0  0  0  0  0  0  0
   -1.0939   27.8593  -28.1038 H   0  0  0  0  0  0  0  0  0  0  0  0
   -0.2525   24.2498  -27.3722 H   0  0  0  0  0  0  0  0  0  0  0  0
   -0.7397   21.8097  -27.2408 H   0  0  0  0  0  0  0  0  0  0  0  0
   -2.5734   20.8243  -28.6110 H   0  0  0  0  0  0  0  0  0  0  0  0
   -3.9142   22.2718  -30.1362 H   0  0  0  0  0  0  0  0  0  0  0  0
   -5.4008   23.3099  -29.6652 H   0  0  0  0  0  0  0  0  0  0  0  0
   -6.5827   24.5720  -29.1456 H   0  0  0  0  0  0  0  0  0  0  0  0
   -3.6086   19.9064  -33.5768 H   0  0  0  0  0  0  0  0  0  0  0  0
   -2.6908   22.1474  -32.9299 H   0  0  0  0  0  0  0  0  0  0  0  0
   -4.2120   23.7890  -31.9860 H   0  0  0  0  0  0  0  0  0  0  0  0
  1  2  1  0
  2  3  1  0
  3  4  2  0
  4  5  1  0
  5  6  2  0
  6  7  1  0
  7  8  2  0
  8  9  1  0
  9 10  1  0
 10 11  2  0
 10 12  1  0
 12 13  1  0
 13 14  1  0
 14 15  2  0
 15 16  1  0
 16 17  2  0
 17 18  1  0
 18 19  2  0
  8  3  1  0
 19 14  1  0
  1 20  1  0
  1 21  1  0
  1 22  1  0
  4 23  1  0
  5 24  1  0
  6 25  1  0
  7 26  1  0
 12 27  1  0
 12 28  1  0
 17 29  1  0
 18 30  1  0
 19 31  1  0
M  CHG  2   9  -1  19   1
M  END
>  <UniqueID>  (18) 
17

>  <SMILES>  (18) 
COc1ccccc1[N-]C(=O)CSc1nncc[nH+]1

>  <Energy>  (18) 
30.029676101879787

>  <Genealogy>  (18) 
COc1ccccc1[N-]C(=O)CSc1nncc[nH+]1 (protonated)
COc1ccccc1[N-]C(=O)CSc1nncc[nH+]1 (3D coordinates assigned)
COc1ccccc1[N-]C(=O)CSc1nncc[nH+]1 (optimized conformer: 30.029676101879787 kcal/mol)

>  <smiles>  (18) 
COc1ccccc1NC(=O)CSc1nccnn1

>  <score_type>  (18) 
oracle

>  <origin>  (18) 
adg

>  <m_score__min__energy>  (18) 
-8.6899999999999995

>  <m_primary>  (18) 
energy

$$$$
19:0
     RDKit          3D

 41 43  0  0  0  0  0  0  0  0999 V2000
   -5.2220   20.5360  -32.8990 C   0  0  0  0  0  0  0  0  0  0  0  0
   -6.6110   20.4740  -33.5250 C   0  0  0  0  0  0  0  0  0  0  0  0
   -7.4330   19.4650  -32.8540 N   0  0  0  0  0  0  0  0  0  0  0  0
   -8.6500   19.6170  -32.2960 C   0  0  0  0  0  0  0  0  0  0  0  0
   -9.5860   21.1460  -32.2720 S   0  0  0  0  0  0  0  0  0  0  0  0
   -8.5800   21.8760  -30.9360 C   0  0  0  0  0  0  0  0  0  0  0  0
   -7.5950   22.9070  -31.5020 C   0  0  0  0  0  0  0  0  0  0  0  0
   -6.6710   23.4200  -30.4640 N   0  0  0  0  0  0  0  0  0  0  0  0
   -5.3880   22.6750  -30.4660 C   0  0  0  0  0  0  0  0  0  0  0  0
   -4.2770   23.4520  -31.1950 C   0  0  0  0  0  0  0  0  0  0  0  0
   -4.0050   24.7270  -30.6290 O   0  0  0  0  0  0  0  0  0  0  0  0
   -5.1240   25.3150  -29.9820 C   0  0  0  0  0  0  0  0  0  0  0  0
   -6.4750   24.8850  -30.5780 C   0  0  0  0  0  0  0  0  0  0  0  0
   -9.0930   18.4670  -31.7540 N   0  0  0  0  0  0  0  0  0  0  0  0
   -8.1540   17.5560  -31.9620 N   0  0  0  0  0  0  0  0  0  0  0  0
   -7.1460   18.1680  -32.6150 C   0  0  0  0  0  0  0  0  0  0  0  0
   -5.9040   17.4660  -33.0840 C   0  0  0  0  0  0  0  0  0  0  0  0
   -6.1710   16.1910  -33.8670 C   0  0  0  0  0  0  0  0  0  0  0  0
   -5.6930   17.4370  -34.5900 C   0  0  0  0  0  0  0  0  0  0  0  0
   -5.3133   20.5319  -31.8028 H   0  0  0  0  0  0  0  0  0  0  0  0
   -4.6353   19.6631  -33.2213 H   0  0  0  0  0  0  0  0  0  0  0  0
   -4.7154   21.4577  -33.2213 H   0  0  0  0  0  0  0  0  0  0  0  0
   -7.0951   21.4571  -33.4291 H   0  0  0  0  0  0  0  0  0  0  0  0
   -6.5105   20.2018  -34.5860 H   0  0  0  0  0  0  0  0  0  0  0  0
   -9.2446   22.3706  -30.2123 H   0  0  0  0  0  0  0  0  0  0  0  0
   -8.0097   21.0745  -30.4437 H   0  0  0  0  0  0  0  0  0  0  0  0
   -7.0047   22.4332  -32.3001 H   0  0  0  0  0  0  0  0  0  0  0  0
   -8.1772   23.7566  -31.8884 H   0  0  0  0  0  0  0  0  0  0  0  0
   -5.0763   22.4999  -29.4257 H   0  0  0  0  0  0  0  0  0  0  0  0
   -5.5453   21.7245  -30.9968 H   0  0  0  0  0  0  0  0  0  0  0  0
   -3.3549   22.8532  -31.1610 H   0  0  0  0  0  0  0  0  0  0  0  0
   -4.6277   23.6252  -32.2231 H   0  0  0  0  0  0  0  0  0  0  0  0
   -5.1040   25.0257  -28.9209 H   0  0  0  0  0  0  0  0  0  0  0  0
   -5.0418   26.4032  -30.1202 H   0  0  0  0  0  0  0  0  0  0  0  0
   -7.2846   25.3981  -30.0382 H   0  0  0  0  0  0  0  0  0  0  0  0
   -6.4865   25.1554  -31.6442 H   0  0  0  0  0  0  0  0  0  0  0  0
   -5.2804   17.7479  -32.2228 H   0  0  0  0  0  0  0  0  0  0  0  0
   -5.4987   15.3273  -33.7569 H   0  0  0  0  0  0  0  0  0  0  0  0
   -7.0284   15.5104  -33.9751 H   0  0  0  0  0  0  0  0  0  0  0  0
   -4.6744   17.4762  -35.0035 H   0  0  0  0  0  0  0  0  0  0  0  0
   -6.0604   18.0330  -35.4384 H   0  0  0  0  0  0  0  0  0  0  0  0
  1  2  1  0
  2  3  1  0
  3  4  1  0
  4  5  1  0
  5  6  1  0
  6  7  1  0
  7  8  1  0
  8  9  1  0
  9 10  1  0
 10 11  1  0
 11 12  1  0
 12 13  1  0
  4 14  2  0
 14 15  1  0
 15 16  2  0
 16 17  1  0
 17 18  1  0
 18 19  1  0
 16  3  1  0
 19 17  1  0
 13  8  1  0
  1 20  1  0
  1 21  1  0
  1 22  1  0
  2 23  1  0
  2 24  1  0
  6 25  1  0
  6 26  1  0
  7 27  1  0
  7 28  1  0
  9 29  1  0
  9 30  1  0
 10 31  1  0
 10 32  1  0
 12 33  1  0
 12 34  1  0
 13 35  1  0
 13 36  1  0
 17 37  1  0
 18 38  1  0
 18 39  1  0
 19 40  1  0
 19 41  1  0
M  END
>  <UniqueID>  (19) 
18

>  <SMILES>  (19) 
CCn1c(SCCN2CCOCC2)nnc1C1CC1

>  <Energy>  (19) 
344.0087516694193

>  <Genealogy>  (19) 
CCn1c(SCCN2CCOCC2)nnc1C1CC1 (3D coordinates assigned)
CCn1c(SCCN2CCOCC2)nnc1C1CC1 (nonaromatic ring conformer: 344.0087516694193 kcal/mol)

>  <smiles>  (19) 
CCn1c(SCCN2CCOCC2)nnc1C1CC1

>  <score_type>  (19) 
oracle

>  <origin>  (19) 
adg

>  <m_score__min__energy>  (19) 
-7.8700000000000001

>  <m_primary>  (19) 
energy

$$$$
20:0
     RDKit          3D

 61 64  0  0  0  0  0  0  0  0999 V2000
   -6.3395   24.3264  -28.7827 H   0  0  0  0  0  0  0  0  0  0  0  0
   -6.0020   24.4440  -29.8230 C   0  0  0  0  0  0  0  0  0  0  0  0
   -4.6050   24.8200  -30.0800 C   0  0  0  0  0  0  0  0  0  0  0  0
   -4.2950   25.3020  -31.2030 O   0  0  0  0  0  0  0  0  0  0  0  0
   -3.6280   24.6350  -29.0920 O   0  0  0  0  0  0  0  0  0  0  0  0
   -3.9040   24.0790  -27.8080 C   0  0  0  0  0  0  0  0  0  0  0  0
   -4.9466   24.2981  -27.5342 H   0  0  0  0  0  0  0  0  0  0  0  0
   -3.2194   24.5237  -27.0708 H   0  0  0  0  0  0  0  0  0  0  0  0
   -3.6940   22.5510  -27.8300 C   0  0  0  0  0  0  0  0  0  0  0  0
   -4.2451   22.1368  -28.6871 H   0  0  0  0  0  0  0  0  0  0  0  0
   -4.0603   22.1618  -26.8686 H   0  0  0  0  0  0  0  0  0  0  0  0
   -2.2740   22.1480  -27.9480 N   0  0  0  0  0  0  0  0  0  0  0  0
   -1.3400   23.2980  -27.8940 C   0  0  0  0  0  0  0  0  0  0  0  0
   -0.5217   23.0733  -27.1941 H   0  0  0  0  0  0  0  0  0  0  0  0
   -1.8798   24.1932  -27.5515 H   0  0  0  0  0  0  0  0  0  0  0  0
   -0.7660   23.5510  -29.2820 C   0  0  0  0  0  0  0  0  0  0  0  0
    0.2370   23.9931  -29.1890 H   0  0  0  0  0  0  0  0  0  0  0  0
   -0.6980   22.5995  -29.8297 H   0  0  0  0  0  0  0  0  0  0  0  0
   -1.4225   24.2432  -29.8297 H   0  0  0  0  0  0  0  0  0  0  0  0
   -1.9140   21.0510  -27.0230 C   0  0  0  0  0  0  0  0  0  0  0  0
   -0.8409   20.8314  -27.1244 H   0  0  0  0  0  0  0  0  0  0  0  0
   -2.1449   21.3668  -25.9949 H   0  0  0  0  0  0  0  0  0  0  0  0
   -2.7150   19.7900  -27.3390 C   0  0  0  0  0  0  0  0  0  0  0  0
   -3.0224   19.3060  -26.4002 H   0  0  0  0  0  0  0  0  0  0  0  0
   -3.6079   20.0593  -27.9222 H   0  0  0  0  0  0  0  0  0  0  0  0
   -2.0917   19.0962  -27.9222 H   0  0  0  0  0  0  0  0  0  0  0  0
   -6.8770   24.2400  -30.8160 C   0  0  0  0  0  0  0  0  0  0  0  0
   -7.2664   25.1121  -31.3618 H   0  0  0  0  0  0  0  0  0  0  0  0
   -7.3430   22.8910  -31.2110 C   0  0  0  0  0  0  0  0  0  0  0  0
   -8.6790   22.7460  -31.6140 C   0  0  0  0  0  0  0  0  0  0  0  0
   -9.3388   23.6259  -31.6333 H   0  0  0  0  0  0  0  0  0  0  0  0
   -9.1820   21.4990  -31.9910 C   0  0  0  0  0  0  0  0  0  0  0  0
  -10.2316   21.4021  -32.3056 H   0  0  0  0  0  0  0  0  0  0  0  0
   -8.3530   20.3740  -31.9690 C   0  0  0  0  0  0  0  0  0  0  0  0
   -8.8280   19.1180  -32.3700 C   0  0  0  0  0  0  0  0  0  0  0  0
   -9.8710   19.0030  -32.6999 H   0  0  0  0  0  0  0  0  0  0  0  0
   -7.9750   18.0130  -32.3500 C   0  0  0  0  0  0  0  0  0  0  0  0
   -8.3414   17.0235  -32.6609 H   0  0  0  0  0  0  0  0  0  0  0  0
   -6.6530   18.1750  -31.9320 C   0  0  0  0  0  0  0  0  0  0  0  0
   -5.9721   17.3112  -31.9181 H   0  0  0  0  0  0  0  0  0  0  0  0
   -6.2050   19.3980  -31.5420 N   0  0  0  0  0  0  0  0  0  0  0  0
   -7.0120   20.4950  -31.5390 C   0  0  0  0  0  0  0  0  0  0  0  0
   -6.5150   21.7480  -31.1250 C   0  0  0  0  0  0  0  0  0  0  0  0
   -5.2050   21.8740  -30.6380 O   0  0  0  0  0  0  0  0  0  0  0  0
   -4.0420   21.5910  -31.3710 C   0  0  0  0  0  0  0  0  0  0  0  0
   -3.9870   21.7490  -32.7690 C   0  0  0  0  0  0  0  0  0  0  0  0
   -4.8721   22.1090  -33.3140 H   0  0  0  0  0  0  0  0  0  0  0  0
   -2.8140   21.4510  -33.4680 C   0  0  0  0  0  0  0  0  0  0  0  0
   -2.7769   21.5855  -34.5591 H   0  0  0  0  0  0  0  0  0  0  0  0
   -1.6840   20.9810  -32.7830 C   0  0  0  0  0  0  0  0  0  0  0  0
   -0.5010   20.6790  -33.4760 C   0  0  0  0  0  0  0  0  0  0  0  0
   -0.4536   20.8122  -34.5669 H   0  0  0  0  0  0  0  0  0  0  0  0
    0.6170   20.2090  -32.7800 C   0  0  0  0  0  0  0  0  0  0  0  0
    1.5433   19.9760  -33.3255 H   0  0  0  0  0  0  0  0  0  0  0  0
    0.5630   20.0340  -31.3950 C   0  0  0  0  0  0  0  0  0  0  0  0
    1.4456   19.6616  -30.8544 H   0  0  0  0  0  0  0  0  0  0  0  0
   -0.6100   20.3310  -30.6940 C   0  0  0  0  0  0  0  0  0  0  0  0
   -0.6481   20.1922  -29.6035 H   0  0  0  0  0  0  0  0  0  0  0  0
   -1.7390   20.8060  -31.3800 C   0  0  0  0  0  0  0  0  0  0  0  0
   -2.9220   21.1080  -30.6870 C   0  0  0  0  0  0  0  0  0  0  0  0
   -2.9683   20.9636  -29.5975 H   0  0  0  0  0  0  0  0  0  0  0  0
  1  2  1  0
  2  3  1  0
  3  4  2  0
  3  5  1  0
  5  6  1  0
  6  7  1  0
  6  8  1  0
  6  9  1  0
  9 10  1  0
  9 11  1  0
  9 12  1  0
 12 13  1  0
 13 14  1  0
 13 15  1  0
 13 16  1  0
 16 17  1  0
 16 18  1  0
 16 19  1  0
 12 20  1  0
 20 21  1  0
 20 22  1  0
 20 23  1  0
 23 24  1  0
 23 25  1  0
 23 26  1  0
  2 27  2  0
 27 28  1  0
 27 29  1  0
 29 30  2  0
 30 31  1  0
 30 32  1  0
 32 33  1  0
 32 34  2  0
 34 35  1  0
 35 36  1  0
 35 37  2  0
 37 38  1  0
 37 39  1  0
 39 40  1  0
 39 41  2  0
 41 42  1  0
 42 43  2  0
 43 44  1  0
 44 45  1  0
 45 46  2  0
 46 47  1  0
 46 48  1  0
 48 49  1  0
 48 50  2  0
 50 51  1  0
 51 52  1  0
 51 53  2  0
 53 54  1  0
 53 55  1  0
 55 56  1  0
 55 57  2  0
 57 58  1  0
 57 59  1  0
 59 60  2  0
 60 61  1  0
 43 29  1  0
 60 45  1  0
 42 34  1  0
 59 50  1  0
M  END
>  <UniqueID>  (20) 
19

>  <SMILES>  (20) 
CCN(CC)CCOC(=O)/C=C/c1ccc2cccnc2c1Oc1ccc2ccccc2c1

>  <Energy>  (20) 
80.19433173938319

>  <Genealogy>  (20) 
CCN(CC)CCOC(=O)/C=C/c1ccc2cccnc2c1Oc1ccc2ccccc2c1 (cis-trans isomerization)
CCN(CC)CCOC(=O)/C=C/c1ccc2cccnc2c1Oc1ccc2ccccc2c1 (3D coordinates assigned)
CCN(CC)CCOC(=O)/C=C/c1ccc2cccnc2c1Oc1ccc2ccccc2c1 (optimized conformer: 80.19433173938319 kcal/mol)

>  <smiles>  (20) 
CCN(CC)CCOC(=O)C=Cc1ccc2cccnc2c1Oc1ccc2ccccc2c1

>  <score_type>  (20) 
oracle

>  <origin>  (20) 
adg

>  <m_score__min__energy>  (20) 
-10.26

>  <m_primary>  (20) 
energy

$$$$
21:0
     RDKit          3D

 46 47  0  0  0  0  0  0  0  0999 V2000
   -6.1060   18.7180  -33.9000 C   0  0  0  0  0  0  0  0  0  0  0  0
   -6.5900   20.1080  -33.4690 C   0  0  0  0  0  0  0  0  0  0  0  0
   -7.3430   20.0900  -32.1870 N   0  0  0  0  0  0  0  0  0  0  0  0
   -7.5920   18.7180  -31.6680 C   0  0  0  0  0  0  0  0  0  0  0  0
   -9.0750   18.3270  -31.5890 C   0  0  0  0  0  0  0  0  0  0  0  0
   -8.6160   20.8550  -32.3050 C   0  0  0  0  0  0  0  0  0  0  0  0
   -8.5610   22.2230  -31.6080 C   0  0  0  0  0  0  0  0  0  0  0  0
   -7.4850   22.2500  -30.6760 O   0  0  0  0  0  0  0  0  0  0  0  0
   -6.7470   23.4050  -30.4020 C   0  0  0  0  0  0  0  0  0  0  0  0
   -7.2280   24.3190  -29.6770 O   0  0  0  0  0  0  0  0  0  0  0  0
   -5.3840   23.5770  -31.0080 C   0  0  1  0  0  0  0  0  0  0  0  0
   -4.8490   24.9650  -30.8230 C   0  0  0  0  0  0  0  0  0  0  0  0
   -5.5000   26.0210  -31.0370 O   0  0  0  0  0  0  0  0  0  0  0  0
   -3.5230   24.9670  -30.4060 O   0  0  0  0  0  0  0  0  0  0  0  0
   -3.0560   23.6350  -30.4780 C   0  0  1  0  0  0  0  0  0  0  0  0
   -2.0050   23.2160  -29.4960 C   0  0  0  0  0  0  0  0  0  0  0  0
   -1.7970   21.8850  -29.3230 C   0  0  0  0  0  0  0  0  0  0  0  0
   -0.7070   21.4270  -28.3960 C   0  0  0  0  0  0  0  0  0  0  0  0
   -2.6340   20.8390  -30.0830 C   0  0  0  0  0  0  0  0  0  0  0  0
   -3.9630   21.3840  -30.5880 C   0  0  0  0  0  0  0  0  0  0  0  0
   -4.7420   20.6740  -31.2060 O   0  0  0  0  0  0  0  0  0  0  0  0
   -4.3060   22.8010  -30.2400 C   0  0  2  0  0  0  0  0  0  0  0  0
   -5.8944   18.1104  -33.0077 H   0  0  0  0  0  0  0  0  0  0  0  0
   -6.8864   18.2280  -34.5007 H   0  0  0  0  0  0  0  0  0  0  0  0
   -5.1900   18.8186  -34.5007 H   0  0  0  0  0  0  0  0  0  0  0  0
   -5.7142   20.7632  -33.3518 H   0  0  0  0  0  0  0  0  0  0  0  0
   -7.2755   20.4735  -34.2478 H   0  0  0  0  0  0  0  0  0  0  0  0
   -6.7450   20.5600  -31.4660 H   0  0  0  0  0  0  0  0  0  0  0  0
   -7.0827   18.0024  -32.3302 H   0  0  0  0  0  0  0  0  0  0  0  0
   -7.2078   18.6986  -30.6375 H   0  0  0  0  0  0  0  0  0  0  0  0
   -9.3775   18.2472  -30.5344 H   0  0  0  0  0  0  0  0  0  0  0  0
   -9.6839   19.0953  -32.0880 H   0  0  0  0  0  0  0  0  0  0  0  0
   -9.2259   17.3584  -32.0880 H   0  0  0  0  0  0  0  0  0  0  0  0
   -8.8321   21.0136  -33.3718 H   0  0  0  0  0  0  0  0  0  0  0  0
   -9.4015   20.2650  -31.8103 H   0  0  0  0  0  0  0  0  0  0  0  0
   -8.4106   23.0102  -32.3614 H   0  0  0  0  0  0  0  0  0  0  0  0
   -9.5069   22.3950  -31.0736 H   0  0  0  0  0  0  0  0  0  0  0  0
   -5.5382   23.2665  -32.0519 H   0  0  0  0  0  0  0  0  0  0  0  0
   -2.5504   23.5064  -31.4464 H   0  0  0  0  0  0  0  0  0  0  0  0
   -1.4218   23.9607  -28.9344 H   0  0  0  0  0  0  0  0  0  0  0  0
   -1.0309   21.5631  -27.3536 H   0  0  0  0  0  0  0  0  0  0  0  0
   -0.4939   20.3633  -28.5778 H   0  0  0  0  0  0  0  0  0  0  0  0
    0.2019   22.0193  -28.5778 H   0  0  0  0  0  0  0  0  0  0  0  0
   -2.0510   20.4851  -30.9460 H   0  0  0  0  0  0  0  0  0  0  0  0
   -2.8616   20.0273  -29.3763 H   0  0  0  0  0  0  0  0  0  0  0  0
   -4.7042   22.6767  -29.2222 H   0  0  0  0  0  0  0  0  0  0  0  0
  1  2  1  0
  2  3  1  0
  3  4  1  0
  4  5  1  0
  3  6  1  0
  6  7  1  0
  7  8  1  0
  8  9  1  0
  9 10  2  0
  9 11  1  0
 11 12  1  0
 12 13  2  0
 12 14  1  0
 14 15  1  0
 15 16  1  0
 16 17  2  0
 17 18  1  0
 17 19  1  0
 19 20  1  0
 20 21  2  0
 20 22  1  0
 22 11  1  0
 22 15  1  0
  1 23  1  0
  1 24  1  0
  1 25  1  0
  2 26  1  0
  2 27  1  0
  3 28  1  0
  4 29  1  0
  4 30  1  0
  5 31  1  0
  5 32  1  0
  5 33  1  0
  6 34  1  0
  6 35  1  0
  7 36  1  0
  7 37  1  0
 11 38  1  6
 15 39  1  6
 16 40  1  0
 18 41  1  0
 18 42  1  0
 18 43  1  0
 19 44  1  0
 19 45  1  0
 22 46  1  1
M  CHG  1   3   1
M  END
>  <UniqueID>  (21) 
20

>  <SMILES>  (21) 
CC[NH+](CC)CCOC(=O)[C@H]1C(=O)O[C@H]2C=C(C)CC(=O)C12

>  <Energy>  (21) 
65.24533567198591

>  <Genealogy>  (21) 
CC[NH+](CC)CCOC(=O)C1C(=O)OC2C=C(C)CC(=O)C21 (protonated)
CC[NH+](CC)CCOC(=O)[C@H]1C(=O)O[C@H]2C=C(C)CC(=O)C12 (chirality)
CC[NH+](CC)CCOC(=O)[C@H]1C(=O)O[C@H]2C=C(C)CC(=O)C12 (3D coordinates assigned)
CC[NH+](CC)CCOC(=O)[C@H]1C(=O)O[C@H]2C=C(C)CC(=O)C12 (nonaromatic ring conformer: 65.24533567198591 kcal/mol)

>  <smiles>  (21) 
CCN(CC)CCOC(=O)C1C(=O)OC2C=C(C)CC(=O)C21

>  <score_type>  (21) 
oracle

>  <origin>  (21) 
adg

>  <m_score__min__energy>  (21) 
-5.9800000000000004

>  <m_primary>  (21) 
energy

$$$$
22:0
     RDKit          3D

 49 50  0  0  0  0  0  0  0  0999 V2000
   -9.8380   21.5540  -31.8780 C   0  0  0  0  0  0  0  0  0  0  0  0
   -8.6500   21.1760  -30.9980 C   0  0  0  0  0  0  0  0  0  0  0  0
   -7.5280   20.6870  -31.8310 N   0  0  0  0  0  0  0  0  0  0  0  0
   -6.9260   21.7890  -32.6180 C   0  0  0  0  0  0  0  0  0  0  0  0
   -6.4180   22.8870  -31.6870 C   0  0  0  0  0  0  0  0  0  0  0  0
   -7.9610   19.5770  -32.7110 C   0  0  0  0  0  0  0  0  0  0  0  0
   -8.0530   18.2770  -31.9100 C   0  0  0  0  0  0  0  0  0  0  0  0
   -6.4480   17.5210  -31.7170 S   0  0  0  0  0  0  0  0  0  0  0  0
   -6.1140   17.1440  -30.1140 O   0  0  0  0  0  0  0  0  0  0  0  0
   -5.1470   18.4520  -32.4380 C   0  0  0  0  0  0  0  0  0  0  0  0
   -4.6830   19.6070  -31.8000 C   0  0  0  0  0  0  0  0  0  0  0  0
   -3.6440   20.3510  -32.3670 C   0  0  0  0  0  0  0  0  0  0  0  0
   -3.0730   19.9610  -33.5880 C   0  0  0  0  0  0  0  0  0  0  0  0
   -1.9870   20.7290  -34.1350 N   0  0  0  0  0  0  0  0  0  0  0  0
   -0.6590   20.2110  -34.3360 C   0  0  0  0  0  0  0  0  0  0  0  0
   -0.4220   18.9900  -34.1250 O   0  0  0  0  0  0  0  0  0  0  0  0
    0.4470   21.0850  -34.7990 C   0  0  0  0  0  0  0  0  0  0  0  0
    0.1960   22.2790  -35.5020 C   0  0  0  0  0  0  0  0  0  0  0  0
    1.2570   23.0830  -35.9310 C   0  0  0  0  0  0  0  0  0  0  0  0
    2.5750   22.7040  -35.6710 C   0  0  0  0  0  0  0  0  0  0  0  0
    2.8370   21.5160  -34.9870 C   0  0  0  0  0  0  0  0  0  0  0  0
    1.7810   20.7060  -34.5570 C   0  0  0  0  0  0  0  0  0  0  0  0
   -3.5330   18.7890  -34.2160 C   0  0  0  0  0  0  0  0  0  0  0  0
   -4.5710   18.0450  -33.6470 C   0  0  0  0  0  0  0  0  0  0  0  0
  -10.6934   21.8262  -31.2422 H   0  0  0  0  0  0  0  0  0  0  0  0
   -9.5662   22.4100  -32.5131 H   0  0  0  0  0  0  0  0  0  0  0  0
  -10.1108   20.6983  -32.5131 H   0  0  0  0  0  0  0  0  0  0  0  0
   -8.3226   22.0600  -30.4312 H   0  0  0  0  0  0  0  0  0  0  0  0
   -8.9568   20.3772  -30.3067 H   0  0  0  0  0  0  0  0  0  0  0  0
   -6.0854   21.3962  -33.2088 H   0  0  0  0  0  0  0  0  0  0  0  0
   -7.6907   22.2113  -33.2865 H   0  0  0  0  0  0  0  0  0  0  0  0
   -6.5616   22.5767  -30.6415 H   0  0  0  0  0  0  0  0  0  0  0  0
   -5.3481   23.0606  -31.8743 H   0  0  0  0  0  0  0  0  0  0  0  0
   -6.9783   23.8149  -31.8743 H   0  0  0  0  0  0  0  0  0  0  0  0
   -8.9477   19.8132  -33.1360 H   0  0  0  0  0  0  0  0  0  0  0  0
   -7.2260   19.4506  -33.5196 H   0  0  0  0  0  0  0  0  0  0  0  0
   -8.4675   18.4974  -30.9152 H   0  0  0  0  0  0  0  0  0  0  0  0
   -8.7034   17.5776  -32.4557 H   0  0  0  0  0  0  0  0  0  0  0  0
   -6.0830   16.1550  -30.0940 H   0  0  0  0  0  0  0  0  0  0  0  0
   -5.1360   19.9303  -30.8512 H   0  0  0  0  0  0  0  0  0  0  0  0
   -3.2714   21.2488  -31.8521 H   0  0  0  0  0  0  0  0  0  0  0  0
   -2.2080   21.7020  -34.4420 H   0  0  0  0  0  0  0  0  0  0  0  0
   -0.8401   22.5810  -35.7149 H   0  0  0  0  0  0  0  0  0  0  0  0
    1.0522   24.0169  -36.4750 H   0  0  0  0  0  0  0  0  0  0  0  0
    3.4069   23.3415  -36.0051 H   0  0  0  0  0  0  0  0  0  0  0  0
    3.8760   21.2161  -34.7857 H   0  0  0  0  0  0  0  0  0  0  0  0
    1.9943   19.7665  -34.0261 H   0  0  0  0  0  0  0  0  0  0  0  0
   -3.0740   18.4566  -35.1588 H   0  0  0  0  0  0  0  0  0  0  0  0
   -4.9358   17.1377  -34.1506 H   0  0  0  0  0  0  0  0  0  0  0  0
  1  2  1  0
  2  3  1  0
  3  4  1  0
  4  5  1  0
  3  6  1  0
  6  7  1  0
  7  8  1  0
  8  9  1  1
  8 10  1  0
 10 11  2  0
 11 12  1  0
 12 13  2  0
 13 14  1  0
 14 15  1  0
 15 16  2  0
 15 17  1  0
 17 18  2  0
 18 19  1  0
 19 20  2  0
 20 21  1  0
 21 22  2  0
 13 23  1  0
 23 24  2  0
 24 10  1  0
 22 17  1  0
  1 25  1  0
  1 26  1  0
  1 27  1  0
  2 28  1  0
  2 29  1  0
  4 30  1  0
  4 31  1  0
  5 32  1  0
  5 33  1  0
  5 34  1  0
  6 35  1  0
  6 36  1  0
  7 37  1  0
  7 38  1  0
  9 39  1  0
 11 40  1  0
 12 41  1  0
 14 42  1  0
 18 43  1  0
 19 44  1  0
 20 45  1  0
 21 46  1  0
 22 47  1  0
 23 48  1  0
 24 49  1  0
M  CHG  1   8   1
M  END
>  <UniqueID>  (22) 
21

>  <SMILES>  (22) 
CCN(CC)CC[S@+](O)c1ccc(NC(=O)c2ccccc2)cc1

>  <Energy>  (22) 
48.25637600147019

>  <Genealogy>  (22) 
CCN(CC)CC[S+](O)c1ccc(NC(=O)c2ccccc2)cc1 (protonated)
CCN(CC)CC[S@+](O)c1ccc(NC(=O)c2ccccc2)cc1 (chirality)
CCN(CC)CC[S@+](O)c1ccc(NC(=O)c2ccccc2)cc1 (3D coordinates assigned)
CCN(CC)CC[S@+](O)c1ccc(NC(=O)c2ccccc2)cc1 (optimized conformer: 48.25637600147019 kcal/mol)

>  <smiles>  (22) 
CCN(CC)CC[S+]([O-])c1ccc(NC(=O)c2ccccc2)cc1

>  <score_type>  (22) 
oracle

>  <origin>  (22) 
adg

>  <m_score__min__energy>  (22) 
-7.6900000000000004

>  <m_primary>  (22) 
energy

$$$$
23:0
     RDKit          3D

 62 63  0  0  0  0  0  0  0  0999 V2000
   -4.6070   13.5900  -31.5930 C   0  0  0  0  0  0  0  0  0  0  0  0
   -4.2370   14.8790  -32.3390 C   0  0  0  0  0  0  0  0  0  0  0  0
   -5.1400   15.2600  -33.4620 N   0  0  0  0  0  0  0  0  0  0  0  0
   -5.7160   14.1280  -34.2420 C   0  0  0  0  0  0  0  0  0  0  0  0
   -7.2110   14.2380  -34.5710 C   0  0  0  0  0  0  0  0  0  0  0  0
   -4.7180   16.4460  -34.2590 C   0  0  0  0  0  0  0  0  0  0  0  0
   -5.8300   17.4460  -34.6120 C   0  0  0  0  0  0  0  0  0  0  0  0
   -6.9360   17.2260  -33.7440 O   0  0  0  0  0  0  0  0  0  0  0  0
   -7.0060   17.7470  -32.4470 C   0  0  0  0  0  0  0  0  0  0  0  0
   -6.6200   17.0490  -31.4700 O   0  0  0  0  0  0  0  0  0  0  0  0
   -7.5660   19.1020  -32.2180 C   0  0  0  0  0  0  0  0  0  0  0  0
   -8.9450   19.3210  -32.4000 C   0  0  0  0  0  0  0  0  0  0  0  0
   -9.4880   20.5970  -32.2560 C   0  0  0  0  0  0  0  0  0  0  0  0
   -8.6680   21.6740  -31.9280 C   0  0  0  0  0  0  0  0  0  0  0  0
   -7.3020   21.4770  -31.7290 C   0  0  0  0  0  0  0  0  0  0  0  0
   -6.7350   20.1920  -31.8620 C   0  0  0  0  0  0  0  0  0  0  0  0
   -5.3660   19.9680  -31.6330 O   0  0  0  0  0  0  0  0  0  0  0  0
   -4.2940   20.5980  -32.3330 C   0  0  0  0  0  0  0  0  0  0  0  0
   -3.7540   21.7610  -31.5410 C   0  0  0  0  0  0  0  0  0  0  0  0
   -4.4000   23.0010  -31.5710 C   0  0  0  0  0  0  0  0  0  0  0  0
   -3.9030   24.0830  -30.8240 C   0  0  0  0  0  0  0  0  0  0  0  0
   -4.5290   25.3400  -30.8360 O   0  0  0  0  0  0  0  0  0  0  0  0
   -5.7630   25.6350  -30.1900 C   0  0  0  0  0  0  0  0  0  0  0  0
   -2.7470   23.9250  -30.0390 C   0  0  0  0  0  0  0  0  0  0  0  0
   -2.3100   25.0580  -29.3250 O   0  0  0  0  0  0  0  0  0  0  0  0
   -1.9130   25.1000  -27.9590 C   0  0  0  0  0  0  0  0  0  0  0  0
   -2.0890   22.6690  -30.0010 C   0  0  0  0  0  0  0  0  0  0  0  0
   -0.9240   22.5050  -29.2330 O   0  0  0  0  0  0  0  0  0  0  0  0
   -0.7980   21.6290  -28.1170 C   0  0  0  0  0  0  0  0  0  0  0  0
   -2.6160   21.5960  -30.7440 C   0  0  0  0  0  0  0  0  0  0  0  0
   -4.5563   13.7666  -30.5085 H   0  0  0  0  0  0  0  0  0  0  0  0
   -5.6282   13.2875  -31.8679 H   0  0  0  0  0  0  0  0  0  0  0  0
   -3.9017   12.7919  -31.8679 H   0  0  0  0  0  0  0  0  0  0  0  0
   -4.2383   15.7030  -31.6103 H   0  0  0  0  0  0  0  0  0  0  0  0
   -3.2550   14.6883  -32.7965 H   0  0  0  0  0  0  0  0  0  0  0  0
   -5.9810   15.6250  -32.9530 H   0  0  0  0  0  0  0  0  0  0  0  0
   -5.1654   14.0575  -35.1917 H   0  0  0  0  0  0  0  0  0  0  0  0
   -5.6151   13.2403  -33.6003 H   0  0  0  0  0  0  0  0  0  0  0  0
   -7.7899   14.2806  -33.6366 H   0  0  0  0  0  0  0  0  0  0  0  0
   -7.3914   15.1518  -35.1561 H   0  0  0  0  0  0  0  0  0  0  0  0
   -7.5232   13.3604  -35.1561 H   0  0  0  0  0  0  0  0  0  0  0  0
   -3.9510   16.9841  -33.6827 H   0  0  0  0  0  0  0  0  0  0  0  0
   -4.3593   16.0476  -35.2195 H   0  0  0  0  0  0  0  0  0  0  0  0
   -5.4580   18.4732  -34.4839 H   0  0  0  0  0  0  0  0  0  0  0  0
   -6.1413   17.3055  -35.6576 H   0  0  0  0  0  0  0  0  0  0  0  0
   -9.6007   18.4765  -32.6585 H   0  0  0  0  0  0  0  0  0  0  0  0
  -10.5670   20.7536  -32.4018 H   0  0  0  0  0  0  0  0  0  0  0  0
   -9.0985   22.6811  -31.8258 H   0  0  0  0  0  0  0  0  0  0  0  0
   -6.6607   22.3312  -31.4660 H   0  0  0  0  0  0  0  0  0  0  0  0
   -3.4889   19.8663  -32.4954 H   0  0  0  0  0  0  0  0  0  0  0  0
   -4.6704   20.9700  -33.2973 H   0  0  0  0  0  0  0  0  0  0  0  0
   -5.3041   23.1306  -32.1840 H   0  0  0  0  0  0  0  0  0  0  0  0
   -5.6231   25.6016  -29.0994 H   0  0  0  0  0  0  0  0  0  0  0  0
   -6.1008   26.6392  -30.4857 H   0  0  0  0  0  0  0  0  0  0  0  0
   -6.5185   24.8921  -30.4857 H   0  0  0  0  0  0  0  0  0  0  0  0
   -2.8006   25.0061  -27.3161 H   0  0  0  0  0  0  0  0  0  0  0  0
   -1.2213   24.2700  -27.7525 H   0  0  0  0  0  0  0  0  0  0  0  0
   -1.4102   26.0563  -27.7525 H   0  0  0  0  0  0  0  0  0  0  0  0
   -0.8813   22.2078  -27.1853 H   0  0  0  0  0  0  0  0  0  0  0  0
   -1.5967   20.8735  -28.1519 H   0  0  0  0  0  0  0  0  0  0  0  0
    0.1813   21.1292  -28.1519 H   0  0  0  0  0  0  0  0  0  0  0  0
   -2.1256   20.6125  -30.6973 H   0  0  0  0  0  0  0  0  0  0  0  0
  1  2  1  0
  2  3  1  0
  3  4  1  0
  4  5  1  0
  3  6  1  0
  6  7  1  0
  7  8  1  0
  8  9  1  0
  9 10  2  0
  9 11  1  0
 11 12  2  0
 12 13  1  0
 13 14  2  0
 14 15  1  0
 15 16  2  0
 16 17  1  0
 17 18  1  0
 18 19  1  0
 19 20  2  0
 20 21  1  0
 21 22  1  0
 22 23  1  0
 21 24  2  0
 24 25  1  0
 25 26  1  0
 24 27  1  0
 27 28  1  0
 28 29  1  0
 27 30  2  0
 16 11  1  0
 30 19  1  0
  1 31  1  0
  1 32  1  0
  1 33  1  0
  2 34  1  0
  2 35  1  0
  3 36  1  0
  4 37  1  0
  4 38  1  0
  5 39  1  0
  5 40  1  0
  5 41  1  0
  6 42  1  0
  6 43  1  0
  7 44  1  0
  7 45  1  0
 12 46  1  0
 13 47  1  0
 14 48  1  0
 15 49  1  0
 18 50  1  0
 18 51  1  0
 20 52  1  0
 23 53  1  0
 23 54  1  0
 23 55  1  0
 26 56  1  0
 26 57  1  0
 26 58  1  0
 29 59  1  0
 29 60  1  0
 29 61  1  0
 30 62  1  0
M  CHG  1   3   1
M  END
>  <UniqueID>  (23) 
22

>  <SMILES>  (23) 
CC[NH+](CC)CCOC(=O)c1ccccc1OCc1cc(OC)c(OC)c(OC)c1

>  <Energy>  (23) 
74.06149971731693

>  <Genealogy>  (23) 
CC[NH+](CC)CCOC(=O)c1ccccc1OCc1cc(OC)c(OC)c(OC)c1 (protonated)
CC[NH+](CC)CCOC(=O)c1ccccc1OCc1cc(OC)c(OC)c(OC)c1 (3D coordinates assigned)
CC[NH+](CC)CCOC(=O)c1ccccc1OCc1cc(OC)c(OC)c(OC)c1 (optimized conformer: 74.06149971731693 kcal/mol)

>  <smiles>  (23) 
CCN(CC)CCOC(=O)c1ccccc1OCc1cc(OC)c(OC)c(OC)c1

>  <score_type>  (23) 
oracle

>  <origin>  (23) 
adg

>  <m_score__min__energy>  (23) 
-7.04

>  <m_primary>  (23) 
energy

$$$$
24:0
     RDKit          3D

 31 32  0  0  0  0  0  0  0  0999 V2000
   -7.9960   18.6650  -32.1700 C   0  0  0  0  0  0  0  0  0  0  0  0
   -8.7640   19.5360  -33.0660 N   0  0  0  0  0  0  0  0  0  0  0  0
   -9.5010   20.5870  -32.3410 C   0  0  0  0  0  0  0  0  0  0  0  0
   -8.6370   21.3470  -31.3180 C   0  0  0  0  0  0  0  0  0  0  0  0
   -8.0760   22.5750  -31.8870 N   0  0  0  0  0  0  0  0  0  0  0  0
   -6.7100   22.9910  -31.6940 C   0  0  0  0  0  0  0  0  0  0  0  0
   -6.4270   24.2180  -31.0710 C   0  0  0  0  0  0  0  0  0  0  0  0
   -5.0990   24.5880  -30.8500 C   0  0  0  0  0  0  0  0  0  0  0  0
   -4.8390   25.6830  -30.2860 O   0  0  0  0  0  0  0  0  0  0  0  0
   -4.1060   23.7920  -31.2260 O   0  0  0  0  0  0  0  0  0  0  0  0
   -4.3110   22.6240  -31.8260 C   0  0  0  0  0  0  0  0  0  0  0  0
   -3.2120   21.8450  -32.2010 C   0  0  0  0  0  0  0  0  0  0  0  0
   -3.4050   20.6240  -32.8520 C   0  0  0  0  0  0  0  0  0  0  0  0
   -4.6980   20.1800  -33.1370 C   0  0  0  0  0  0  0  0  0  0  0  0
   -5.8060   20.9470  -32.7650 C   0  0  0  0  0  0  0  0  0  0  0  0
   -5.6290   22.1730  -32.0910 C   0  0  0  0  0  0  0  0  0  0  0  0
   -8.2230   18.9225  -31.1249 H   0  0  0  0  0  0  0  0  0  0  0  0
   -8.2682   17.6157  -32.3565 H   0  0  0  0  0  0  0  0  0  0  0  0
   -6.9208   18.8037  -32.3565 H   0  0  0  0  0  0  0  0  0  0  0  0
   -9.4600   18.9440  -33.5760 H   0  0  0  0  0  0  0  0  0  0  0  0
   -8.1230   19.9580  -33.7780 H   0  0  0  0  0  0  0  0  0  0  0  0
   -9.8891   21.3093  -33.0742 H   0  0  0  0  0  0  0  0  0  0  0  0
  -10.3059   20.0899  -31.7797 H   0  0  0  0  0  0  0  0  0  0  0  0
   -9.2600   21.6087  -30.4500 H   0  0  0  0  0  0  0  0  0  0  0  0
   -7.8025   20.6942  -31.0224 H   0  0  0  0  0  0  0  0  0  0  0  0
   -8.7200   23.1740  -32.4490 H   0  0  0  0  0  0  0  0  0  0  0  0
   -7.2462   24.8827  -30.7594 H   0  0  0  0  0  0  0  0  0  0  0  0
   -2.1922   22.1947  -31.9827 H   0  0  0  0  0  0  0  0  0  0  0  0
   -2.5377   20.0119  -33.1403 H   0  0  0  0  0  0  0  0  0  0  0  0
   -4.8454   19.2219  -33.6569 H   0  0  0  0  0  0  0  0  0  0  0  0
   -6.8207   20.5925  -32.9991 H   0  0  0  0  0  0  0  0  0  0  0  0
  1  2  1  0
  2  3  1  0
  3  4  1  0
  4  5  1  0
  5  6  1  0
  6  7  2  0
  7  8  1  0
  8  9  2  0
  8 10  1  0
 10 11  1  0
 11 12  2  0
 12 13  1  0
 13 14  2  0
 14 15  1  0
 15 16  2  0
 16  6  1  0
 16 11  1  0
  1 17  1  0
  1 18  1  0
  1 19  1  0
  2 20  1  0
  2 21  1  0
  3 22  1  0
  3 23  1  0
  4 24  1  0
  4 25  1  0
  5 26  1  0
  7 27  1  0
 12 28  1  0
 13 29  1  0
 14 30  1  0
 15 31  1  0
M  CHG  1   2   1
M  END
>  <UniqueID>  (24) 
23

>  <SMILES>  (24) 
C[NH2+]CCNc1cc(=O)oc2ccccc12

>  <Energy>  (24) 
36.07702649382349

>  <Genealogy>  (24) 
C[NH2+]CCNc1cc(=O)oc2ccccc12 (protonated)
C[NH2+]CCNc1cc(=O)oc2ccccc12 (3D coordinates assigned)
C[NH2+]CCNc1cc(=O)oc2ccccc12 (optimized conformer: 36.07702649382349 kcal/mol)

>  <smiles>  (24) 
CNCCNc1cc(=O)oc2ccccc12

>  <score_type>  (24) 
oracle

>  <origin>  (24) 
adg

>  <m_score__min__energy>  (24) 
-6.21

>  <m_primary>  (24) 
energy

$$$$
25:0
     RDKit          3D

 44 46  0  0  0  0  0  0  0  0999 V2000
   -5.1090   25.4410  -30.3860 C   0  0  0  0  0  0  0  0  0  0  0  0
   -4.3520   24.3350  -30.8660 O   0  0  0  0  0  0  0  0  0  0  0  0
   -4.8790   23.0590  -31.1300 C   0  0  0  0  0  0  0  0  0  0  0  0
   -6.2420   22.7700  -30.9660 C   0  0  0  0  0  0  0  0  0  0  0  0
   -6.7610   21.4890  -31.2330 C   0  0  0  0  0  0  0  0  0  0  0  0
   -5.9030   20.4870  -31.7820 C   0  0  0  0  0  0  0  0  0  0  0  0
   -4.5220   20.7770  -31.8620 C   0  0  0  0  0  0  0  0  0  0  0  0
   -4.0120   22.0450  -31.5570 C   0  0  0  0  0  0  0  0  0  0  0  0
   -2.5420   22.3250  -31.7060 C   0  0  0  0  0  0  0  0  0  0  0  0
   -6.3690   19.0670  -32.1610 C   0  0  2  0  0  0  0  0  0  0  0  0
   -5.2660   18.2760  -32.8540 C   0  0  0  0  0  0  0  0  0  0  0  0
   -4.8570   17.0250  -32.3500 C   0  0  0  0  0  0  0  0  0  0  0  0
   -3.8400   16.3070  -32.9840 C   0  0  0  0  0  0  0  0  0  0  0  0
   -3.2160   16.8300  -34.1190 C   0  0  0  0  0  0  0  0  0  0  0  0
   -3.6070   18.0730  -34.6230 C   0  0  0  0  0  0  0  0  0  0  0  0
   -4.6260   18.7950  -33.9930 C   0  0  0  0  0  0  0  0  0  0  0  0
   -7.6200   19.0240  -33.0820 C   0  0  0  0  0  0  0  0  0  0  0  0
   -8.8860   19.3900  -32.4090 N   0  0  0  0  0  0  0  0  0  0  0  0
   -9.0990   18.6120  -31.1760 C   0  0  0  0  0  0  0  0  0  0  0  0
   -9.0400   20.8320  -32.1470 C   0  0  0  0  0  0  0  0  0  0  0  0
   -8.2320   21.2770  -30.9250 C   0  0  0  0  0  0  0  0  0  0  0  0
   -5.1065   25.4373  -29.2860 H   0  0  0  0  0  0  0  0  0  0  0  0
   -4.6616   26.3774  -30.7506 H   0  0  0  0  0  0  0  0  0  0  0  0
   -6.1439   25.3629  -30.7506 H   0  0  0  0  0  0  0  0  0  0  0  0
   -6.9213   23.5632  -30.6206 H   0  0  0  0  0  0  0  0  0  0  0  0
   -3.8271   19.9830  -32.1731 H   0  0  0  0  0  0  0  0  0  0  0  0
   -2.0826   22.4125  -30.7103 H   0  0  0  0  0  0  0  0  0  0  0  0
   -2.0660   21.5014  -32.2583 H   0  0  0  0  0  0  0  0  0  0  0  0
   -2.4021   23.2659  -32.2583 H   0  0  0  0  0  0  0  0  0  0  0  0
   -6.6356   18.6155  -31.1940 H   0  0  0  0  0  0  0  0  0  0  0  0
   -5.3410   16.6118  -31.4528 H   0  0  0  0  0  0  0  0  0  0  0  0
   -3.5302   15.3283  -32.5888 H   0  0  0  0  0  0  0  0  0  0  0  0
   -2.4158   16.2625  -34.6166 H   0  0  0  0  0  0  0  0  0  0  0  0
   -3.1132   18.4841  -35.5158 H   0  0  0  0  0  0  0  0  0  0  0  0
   -4.9284   19.7748  -34.3912 H   0  0  0  0  0  0  0  0  0  0  0  0
   -7.4583   19.7237  -33.9152 H   0  0  0  0  0  0  0  0  0  0  0  0
   -7.7304   17.9811  -33.4139 H   0  0  0  0  0  0  0  0  0  0  0  0
   -8.9228   19.2555  -30.3014 H   0  0  0  0  0  0  0  0  0  0  0  0
  -10.1329   18.2370  -31.1530 H   0  0  0  0  0  0  0  0  0  0  0  0
   -8.4003   17.7627  -31.1530 H   0  0  0  0  0  0  0  0  0  0  0  0
   -8.6926   21.3930  -33.0271 H   0  0  0  0  0  0  0  0  0  0  0  0
  -10.1028   21.0314  -31.9454 H   0  0  0  0  0  0  0  0  0  0  0  0
   -8.6521   22.2228  -30.5522 H   0  0  0  0  0  0  0  0  0  0  0  0
   -8.2994   20.4747  -30.1755 H   0  0  0  0  0  0  0  0  0  0  0  0
  1  2  1  0
  2  3  1  0
  3  4  2  0
  4  5  1  0
  5  6  2  0
  6  7  1  0
  7  8  2  0
  8  9  1  0
  6 10  1  0
 10 11  1  0
 11 12  2  0
 12 13  1  0
 13 14  2  0
 14 15  1  0
 15 16  2  0
 10 17  1  0
 17 18  1  0
 18 19  1  0
 18 20  1  0
 20 21  1  0
  8  3  1  0
 16 11  1  0
 21  5  1  0
  1 22  1  0
  1 23  1  0
  1 24  1  0
  4 25  1  0
  7 26  1  0
  9 27  1  0
  9 28  1  0
  9 29  1  0
 10 30  1  1
 12 31  1  0
 13 32  1  0
 14 33  1  0
 15 34  1  0
 16 35  1  0
 17 36  1  0
 17 37  1  0
 19 38  1  0
 19 39  1  0
 19 40  1  0
 20 41  1  0
 20 42  1  0
 21 43  1  0
 21 44  1  0
M  END
>  <UniqueID>  (25) 
24

>  <SMILES>  (25) 
COc1cc2c(cc1C)[C@H](c1ccccc1)CN(C)CC2

>  <Energy>  (25) 
62.27475668383356

>  <Genealogy>  (25) 
COc1cc2c(cc1C)[C@H](c1ccccc1)CN(C)CC2 (chirality)
COc1cc2c(cc1C)[C@H](c1ccccc1)CN(C)CC2 (3D coordinates assigned)
COc1cc2c(cc1C)[C@H](c1ccccc1)CN(C)CC2 (nonaromatic ring conformer: 62.27475668383356 kcal/mol)

>  <smiles>  (25) 
COc1cc2c(cc1C)C(c1ccccc1)CN(C)CC2

>  <score_type>  (25) 
oracle

>  <origin>  (25) 
adg

>  <m_score__min__energy>  (25) 
-6.4100000000000001

>  <m_primary>  (25) 
energy

$$$$
26:0
     RDKit          3D

 59 62  0  0  0  0  0  0  0  0999 V2000
    0.6060   22.1980  -35.3960 C   0  0  0  0  0  0  0  0  0  0  0  0
    0.1790   21.5460  -34.1480 N   0  0  0  0  0  0  0  0  0  0  0  0
    1.1170   20.4610  -33.7810 C   0  0  0  0  0  0  0  0  0  0  0  0
    0.4890   19.4530  -32.7900 C   0  0  0  0  0  0  0  0  0  0  0  0
   -0.6220   20.0460  -32.0170 N   0  0  0  0  0  0  0  0  0  0  0  0
   -0.1410   21.0580  -31.0500 C   0  0  0  0  0  0  0  0  0  0  0  0
   -1.1330   21.2430  -29.9330 C   0  0  0  0  0  0  0  0  0  0  0  0
   -1.9150   20.2930  -29.6650 O   0  0  0  0  0  0  0  0  0  0  0  0
   -1.2180   22.4720  -29.1840 N   0  0  0  0  0  0  0  0  0  0  0  0
   -0.9310   22.5980  -27.8000 C   0  0  0  0  0  0  0  0  0  0  0  0
   -0.6140   21.6240  -27.0660 O   0  0  0  0  0  0  0  0  0  0  0  0
   -1.0700   23.9780  -27.2950 C   0  0  0  0  0  0  0  0  0  0  0  0
   -1.3660   24.7930  -28.5620 C   0  0  0  0  0  0  0  0  0  0  0  0
   -1.5780   23.7840  -29.7180 C   0  0  2  0  0  0  0  0  0  0  0  0
   -3.0090   23.7950  -30.1900 C   0  0  0  0  0  0  0  0  0  0  0  0
   -3.5670   24.8980  -30.4410 O   0  0  0  0  0  0  0  0  0  0  0  0
   -3.7400   22.5690  -30.3290 N   0  0  0  0  0  0  0  0  0  0  0  0
   -5.0250   22.5010  -31.0290 C   0  0  2  0  0  0  0  0  0  0  0  0
   -6.1210   23.1810  -30.1970 C   0  0  0  0  0  0  0  0  0  0  0  0
   -7.4390   23.2080  -30.9740 C   0  0  0  0  0  0  0  0  0  0  0  0
   -7.7990   21.8560  -31.5450 C   0  0  0  0  0  0  0  0  0  0  0  0
   -9.1200   21.6270  -31.9640 C   0  0  0  0  0  0  0  0  0  0  0  0
   -9.4740   20.4130  -32.5580 C   0  0  0  0  0  0  0  0  0  0  0  0
   -8.5110   19.4210  -32.7500 C   0  0  0  0  0  0  0  0  0  0  0  0
   -7.1890   19.6410  -32.3510 C   0  0  0  0  0  0  0  0  0  0  0  0
   -6.8180   20.8580  -31.7630 C   0  0  0  0  0  0  0  0  0  0  0  0
   -5.3960   21.0300  -31.2840 C   0  0  0  0  0  0  0  0  0  0  0  0
   -1.7020   20.5560  -32.9000 C   0  0  0  0  0  0  0  0  0  0  0  0
   -1.1930   21.0350  -34.2750 C   0  0  0  0  0  0  0  0  0  0  0  0
    1.1943   23.0964  -35.1577 H   0  0  0  0  0  0  0  0  0  0  0  0
    1.2228   21.5005  -35.9817 H   0  0  0  0  0  0  0  0  0  0  0  0
   -0.2799   22.4846  -35.9817 H   0  0  0  0  0  0  0  0  0  0  0  0
    1.4106   19.9230  -34.6945 H   0  0  0  0  0  0  0  0  0  0  0  0
    1.9868   20.9201  -33.2884 H   0  0  0  0  0  0  0  0  0  0  0  0
    0.1057   18.5916  -33.3567 H   0  0  0  0  0  0  0  0  0  0  0  0
    1.2704   19.1492  -32.0779 H   0  0  0  0  0  0  0  0  0  0  0  0
    0.8193   20.7263  -30.6284 H   0  0  0  0  0  0  0  0  0  0  0  0
   -0.0176   22.0169  -31.5748 H   0  0  0  0  0  0  0  0  0  0  0  0
   -1.8996   24.0524  -26.5765 H   0  0  0  0  0  0  0  0  0  0  0  0
   -0.1775   24.3301  -26.7569 H   0  0  0  0  0  0  0  0  0  0  0  0
   -2.2740   25.3969  -28.4178 H   0  0  0  0  0  0  0  0  0  0  0  0
   -0.5349   25.4769  -28.7888 H   0  0  0  0  0  0  0  0  0  0  0  0
   -0.9597   24.0449  -30.5895 H   0  0  0  0  0  0  0  0  0  0  0  0
   -3.2760   21.6760  -30.0390 H   0  0  0  0  0  0  0  0  0  0  0  0
   -4.9371   23.0268  -31.9912 H   0  0  0  0  0  0  0  0  0  0  0  0
   -6.2638   22.6230  -29.2599 H   0  0  0  0  0  0  0  0  0  0  0  0
   -5.8141   24.2143  -29.9778 H   0  0  0  0  0  0  0  0  0  0  0  0
   -8.2426   23.5302  -30.2954 H   0  0  0  0  0  0  0  0  0  0  0  0
   -7.3179   23.9060  -31.8155 H   0  0  0  0  0  0  0  0  0  0  0  0
   -9.8809   22.4088  -31.8235 H   0  0  0  0  0  0  0  0  0  0  0  0
  -10.5129   20.2387  -32.8747 H   0  0  0  0  0  0  0  0  0  0  0  0
   -8.7924   18.4650  -33.2157 H   0  0  0  0  0  0  0  0  0  0  0  0
   -6.4352   18.8538  -32.4996 H   0  0  0  0  0  0  0  0  0  0  0  0
   -5.2710   20.4687  -30.3463 H   0  0  0  0  0  0  0  0  0  0  0  0
   -4.7325   20.6545  -32.0769 H   0  0  0  0  0  0  0  0  0  0  0  0
   -2.4320   19.7489  -33.0601 H   0  0  0  0  0  0  0  0  0  0  0  0
   -2.1488   21.4265  -32.3975 H   0  0  0  0  0  0  0  0  0  0  0  0
   -1.2049   20.1927  -34.9824 H   0  0  0  0  0  0  0  0  0  0  0  0
   -1.8470   21.8387  -34.6443 H   0  0  0  0  0  0  0  0  0  0  0  0
  1  2  1  0
  2  3  1  0
  3  4  1  0
  4  5  1  0
  5  6  1  0
  6  7  1  0
  7  8  2  0
  7  9  1  0
  9 10  1  0
 10 11  2  0
 10 12  1  0
 12 13  1  0
 13 14  1  0
 14 15  1  0
 15 16  2  0
 15 17  1  0
 17 18  1  0
 18 19  1  0
 19 20  1  0
 20 21  1  0
 21 22  2  0
 22 23  1  0
 23 24  2  0
 24 25  1  0
 25 26  2  0
 26 27  1  0
  5 28  1  0
 28 29  1  0
 29  2  1  0
 14  9  1  0
 27 18  1  0
 26 21  1  0
  1 30  1  0
  1 31  1  0
  1 32  1  0
  3 33  1  0
  3 34  1  0
  4 35  1  0
  4 36  1  0
  6 37  1  0
  6 38  1  0
 12 39  1  0
 12 40  1  0
 13 41  1  0
 13 42  1  0
 14 43  1  6
 17 44  1  0
 18 45  1  6
 19 46  1  0
 19 47  1  0
 20 48  1  0
 20 49  1  0
 22 50  1  0
 23 51  1  0
 24 52  1  0
 25 53  1  0
 27 54  1  0
 27 55  1  0
 28 56  1  0
 28 57  1  0
 29 58  1  0
 29 59  1  0
M  END
>  <UniqueID>  (26) 
25

>  <SMILES>  (26) 
CN1CCN(CC(=O)N2C(=O)CC[C@@H]2C(=O)N[C@@H]2CCc3ccccc3C2)CC1

>  <Energy>  (26) 
73.24123537884742

>  <Genealogy>  (26) 
CN1CCN(CC(=O)N2C(=O)CC[C@@H]2C(=O)N[C@@H]2CCc3ccccc3C2)CC1 (chirality)
CN1CCN(CC(=O)N2C(=O)CC[C@@H]2C(=O)N[C@@H]2CCc3ccccc3C2)CC1 (3D coordinates assigned)
CN1CCN(CC(=O)N2C(=O)CC[C@@H]2C(=O)N[C@@H]2CCc3ccccc3C2)CC1 (nonaromatic ring conformer: 73.24123537884742 kcal/mol)

>  <smiles>  (26) 
CN1CCN(CC(=O)N2C(=O)CCC2C(=O)NC2CCc3ccccc3C2)CC1

>  <score_type>  (26) 
oracle

>  <origin>  (26) 
adg

>  <m_score__min__energy>  (26) 
-9.6199999999999992

>  <m_primary>  (26) 
energy

$$$$
27:0
     RDKit          3D

 42 44  0  0  0  0  0  0  0  0999 V2000
   -1.9240   24.9300  -27.9660 C   0  0  0  0  0  0  0  0  0  0  0  0
   -2.3300   24.9410  -29.3300 O   0  0  0  0  0  0  0  0  0  0  0  0
   -2.7270   23.8040  -30.0520 C   0  0  0  0  0  0  0  0  0  0  0  0
   -1.9930   22.6050  -30.0180 C   0  0  0  0  0  0  0  0  0  0  0  0
   -2.4180   21.4940  -30.7480 C   0  0  0  0  0  0  0  0  0  0  0  0
   -3.5830   21.5550  -31.5280 C   0  0  0  0  0  0  0  0  0  0  0  0
   -4.0410   20.3810  -32.3050 C   0  0  0  0  0  0  0  0  0  0  0  0
   -5.1700   19.6910  -32.0210 N   0  0  0  0  0  0  0  0  0  0  0  0
   -5.3720   18.6540  -32.8790 C   0  0  0  0  0  0  0  0  0  0  0  0
   -6.5500   17.7300  -32.7360 C   0  0  0  0  0  0  0  0  0  0  0  0
   -7.3850   18.0780  -31.5710 N   0  0  0  0  0  0  0  0  0  0  0  0
   -8.6490   18.7460  -31.9310 C   0  0  0  0  0  0  0  0  0  0  0  0
   -8.5910   20.2260  -31.6900 C   0  0  0  0  0  0  0  0  0  0  0  0
   -9.5580   21.1430  -32.0470 C   0  0  0  0  0  0  0  0  0  0  0  0
   -9.0920   22.3640  -31.6090 C   0  0  0  0  0  0  0  0  0  0  0  0
   -7.8720   22.1150  -31.0120 C   0  0  0  0  0  0  0  0  0  0  0  0
   -7.6010   20.8320  -31.0750 O   0  0  0  0  0  0  0  0  0  0  0  0
   -4.3980   18.4980  -33.8610 C   0  0  0  0  0  0  0  0  0  0  0  0
   -3.2570   19.7100  -33.6380 S   0  0  0  0  0  0  0  0  0  0  0  0
   -4.3170   22.7530  -31.5620 C   0  0  0  0  0  0  0  0  0  0  0  0
   -3.8950   23.8790  -30.8270 C   0  0  0  0  0  0  0  0  0  0  0  0
   -4.6070   25.0890  -30.8410 O   0  0  0  0  0  0  0  0  0  0  0  0
   -5.7930   25.3380  -30.0950 C   0  0  0  0  0  0  0  0  0  0  0  0
   -2.8130   24.9541  -27.3186 H   0  0  0  0  0  0  0  0  0  0  0  0
   -1.3469   24.0159  -27.7626 H   0  0  0  0  0  0  0  0  0  0  0  0
   -1.2983   25.8115  -27.7626 H   0  0  0  0  0  0  0  0  0  0  0  0
   -1.0773   22.5423  -29.4117 H   0  0  0  0  0  0  0  0  0  0  0  0
   -1.8346   20.5622  -30.7116 H   0  0  0  0  0  0  0  0  0  0  0  0
   -7.1648   17.7944  -33.6459 H   0  0  0  0  0  0  0  0  0  0  0  0
   -6.1664   16.7098  -32.5874 H   0  0  0  0  0  0  0  0  0  0  0  0
   -7.6070   17.2070  -31.0340 H   0  0  0  0  0  0  0  0  0  0  0  0
   -6.8340   18.7040  -30.9380 H   0  0  0  0  0  0  0  0  0  0  0  0
   -8.8540   18.5675  -32.9969 H   0  0  0  0  0  0  0  0  0  0  0  0
   -9.4459   18.3295  -31.2974 H   0  0  0  0  0  0  0  0  0  0  0  0
  -10.5036   20.9417  -32.5717 H   0  0  0  0  0  0  0  0  0  0  0  0
   -9.5907   23.3388  -31.7137 H   0  0  0  0  0  0  0  0  0  0  0  0
   -7.2248   22.8768  -30.5529 H   0  0  0  0  0  0  0  0  0  0  0  0
   -4.3790   17.7224  -34.6408 H   0  0  0  0  0  0  0  0  0  0  0  0
   -5.2320   22.8125  -32.1697 H   0  0  0  0  0  0  0  0  0  0  0  0
   -5.5665   25.2904  -29.0196 H   0  0  0  0  0  0  0  0  0  0  0  0
   -6.1801   26.3370  -30.3444 H   0  0  0  0  0  0  0  0  0  0  0  0
   -6.5492   24.5790  -30.3444 H   0  0  0  0  0  0  0  0  0  0  0  0
  1  2  1  0
  2  3  1  0
  3  4  2  0
  4  5  1  0
  5  6  2  0
  6  7  1  0
  7  8  2  0
  8  9  1  0
  9 10  1  0
 10 11  1  0
 11 12  1  0
 12 13  1  0
 13 14  2  0
 14 15  1  0
 15 16  2  0
 16 17  1  0
  9 18  2  0
 18 19  1  0
  6 20  1  0
 20 21  2  0
 21 22  1  0
 22 23  1  0
 21  3  1  0
 19  7  1  0
 17 13  1  0
  1 24  1  0
  1 25  1  0
  1 26  1  0
  4 27  1  0
  5 28  1  0
 10 29  1  0
 10 30  1  0
 11 31  1  0
 11 32  1  0
 12 33  1  0
 12 34  1  0
 14 35  1  0
 15 36  1  0
 16 37  1  0
 18 38  1  0
 20 39  1  0
 23 40  1  0
 23 41  1  0
 23 42  1  0
M  CHG  1  11   1
M  END
>  <UniqueID>  (27) 
26

>  <SMILES>  (27) 
COc1ccc(-c2nc(C[NH2+]Cc3ccco3)cs2)cc1OC

>  <Energy>  (27) 
97.79676607041634

>  <Genealogy>  (27) 
COc1ccc(-c2nc(C[NH2+]Cc3ccco3)cs2)cc1OC (protonated)
COc1ccc(-c2nc(C[NH2+]Cc3ccco3)cs2)cc1OC (3D coordinates assigned)
COc1ccc(-c2nc(C[NH2+]Cc3ccco3)cs2)cc1OC (optimized conformer: 97.79676607041634 kcal/mol)

>  <smiles>  (27) 
COc1ccc(-c2nc(CNCc3ccco3)cs2)cc1OC

>  <score_type>  (27) 
oracle

>  <origin>  (27) 
adg

>  <m_score__min__energy>  (27) 
-7.3099999999999996

>  <m_primary>  (27) 
energy

$$$$
28:0
     RDKit          3D

 67 71  0  0  0  0  0  0  0  0999 V2000
   -2.0680   18.8670  -27.0270 C   0  0  0  0  0  0  0  0  0  0  0  0
   -1.1510   19.1840  -28.2080 C   0  0  0  0  0  0  0  0  0  0  0  0
   -0.4710   20.5000  -28.1380 N   0  0  0  0  0  0  0  0  0  0  0  0
    1.0000   20.4330  -28.2290 C   0  0  0  0  0  0  0  0  0  0  0  0
    1.5600   19.0320  -27.9720 C   0  0  0  0  0  0  0  0  0  0  0  0
   -0.9870   21.4980  -27.1710 C   0  0  0  0  0  0  0  0  0  0  0  0
   -1.7070   22.6580  -27.9030 C   0  0  0  0  0  0  0  0  0  0  0  0
   -1.0210   22.9730  -29.2670 C   0  0  0  0  0  0  0  0  0  0  0  0
   -1.9140   22.7100  -30.4910 C   0  0  0  0  0  0  0  0  0  0  0  0
   -2.6670   21.4650  -30.3160 N   0  0  0  0  0  0  0  0  0  0  0  0
   -2.6170   20.4440  -31.3450 C   0  0  0  0  0  0  0  0  0  0  0  0
   -3.7970   20.0630  -32.0450 C   0  0  0  0  0  0  0  0  0  0  0  0
   -5.0900   20.7270  -31.7990 C   0  0  0  0  0  0  0  0  0  0  0  0
   -5.3050   22.0920  -31.9910 C   0  0  0  0  0  0  0  0  0  0  0  0
   -6.6710   22.2580  -31.9350 C   0  0  0  0  0  0  0  0  0  0  0  0
   -7.4400   23.4000  -32.1100 C   0  0  0  0  0  0  0  0  0  0  0  0
   -8.8360   23.2560  -32.0870 C   0  0  0  0  0  0  0  0  0  0  0  0
   -9.4260   21.9860  -31.9000 C   0  0  0  0  0  0  0  0  0  0  0  0
   -8.6220   20.8480  -31.7290 C   0  0  0  0  0  0  0  0  0  0  0  0
   -7.2350   21.0240  -31.7510 C   0  0  0  0  0  0  0  0  0  0  0  0
   -6.2770   20.0760  -31.6760 N   0  0  0  0  0  0  0  0  0  0  0  0
   -6.4970   18.6270  -31.6050 C   0  0  0  0  0  0  0  0  0  0  0  0
   -3.7450   19.1000  -33.0720 C   0  0  0  0  0  0  0  0  0  0  0  0
   -2.5380   18.4800  -33.4090 C   0  0  0  0  0  0  0  0  0  0  0  0
   -2.4790   17.5670  -34.4160 F   0  0  0  0  0  0  0  0  0  0  0  0
   -1.3940   18.8460  -32.7030 C   0  0  0  0  0  0  0  0  0  0  0  0
    0.1720   18.2590  -32.8920 S   0  0  0  0  0  0  0  0  0  0  0  0
    0.7650   19.2090  -31.6330 C   0  0  0  0  0  0  0  0  0  0  0  0
    2.2160   19.3010  -31.2810 C   0  0  0  0  0  0  0  0  0  0  0  0
   -0.2010   19.9810  -31.0840 N   0  0  0  0  0  0  0  0  0  0  0  0
   -1.4110   19.7930  -31.6850 C   0  0  0  0  0  0  0  0  0  0  0  0
   -3.4750   21.2610  -29.1020 C   0  0  0  0  0  0  0  0  0  0  0  0
   -3.2180   22.3660  -28.0640 C   0  0  0  0  0  0  0  0  0  0  0  0
   -1.5306   19.0528  -26.0853 H   0  0  0  0  0  0  0  0  0  0  0  0
   -2.9601   19.5089  -27.0729 H   0  0  0  0  0  0  0  0  0  0  0  0
   -2.3732   17.8112  -27.0729 H   0  0  0  0  0  0  0  0  0  0  0  0
   -0.3782   18.4029  -28.2592 H   0  0  0  0  0  0  0  0  0  0  0  0
   -1.7967   19.2186  -29.0979 H   0  0  0  0  0  0  0  0  0  0  0  0
    1.3020   20.7499  -29.2381 H   0  0  0  0  0  0  0  0  0  0  0  0
    1.4048   21.0936  -27.4482 H   0  0  0  0  0  0  0  0  0  0  0  0
    1.6295   18.8581  -26.8881 H   0  0  0  0  0  0  0  0  0  0  0  0
    0.8925   18.2821  -28.4216 H   0  0  0  0  0  0  0  0  0  0  0  0
    2.5605   18.9489  -28.4216 H   0  0  0  0  0  0  0  0  0  0  0  0
   -1.6974   21.0059  -26.4904 H   0  0  0  0  0  0  0  0  0  0  0  0
   -0.1380   21.9120  -26.6074 H   0  0  0  0  0  0  0  0  0  0  0  0
   -1.6190   23.5611  -27.2811 H   0  0  0  0  0  0  0  0  0  0  0  0
   -0.7312   24.0341  -29.2717 H   0  0  0  0  0  0  0  0  0  0  0  0
   -0.1567   22.2979  -29.3523 H   0  0  0  0  0  0  0  0  0  0  0  0
   -2.6188   23.5459  -30.6118 H   0  0  0  0  0  0  0  0  0  0  0  0
   -1.2780   22.6198  -31.3839 H   0  0  0  0  0  0  0  0  0  0  0  0
   -4.5448   22.8704  -32.1528 H   0  0  0  0  0  0  0  0  0  0  0  0
   -6.9717   24.3838  -32.2615 H   0  0  0  0  0  0  0  0  0  0  0  0
   -9.4770   24.1406  -32.2158 H   0  0  0  0  0  0  0  0  0  0  0  0
  -10.5216   21.8883  -31.8883 H   0  0  0  0  0  0  0  0  0  0  0  0
   -9.0674   19.8529  -31.5829 H   0  0  0  0  0  0  0  0  0  0  0  0
   -6.5444   18.3145  -30.5514 H   0  0  0  0  0  0  0  0  0  0  0  0
   -7.4437   18.3749  -32.1052 H   0  0  0  0  0  0  0  0  0  0  0  0
   -5.6678   18.1053  -32.1052 H   0  0  0  0  0  0  0  0  0  0  0  0
   -4.6639   18.8330  -33.6146 H   0  0  0  0  0  0  0  0  0  0  0  0
    2.3281   19.3081  -30.1868 H   0  0  0  0  0  0  0  0  0  0  0  0
    2.7503   18.4349  -31.6987 H   0  0  0  0  0  0  0  0  0  0  0  0
    2.6366   20.2276  -31.6987 H   0  0  0  0  0  0  0  0  0  0  0  0
   -0.0150   20.6170  -30.2830 H   0  0  0  0  0  0  0  0  0  0  0  0
   -4.5403   21.2682  -29.3759 H   0  0  0  0  0  0  0  0  0  0  0  0
   -3.1926   20.2956  -28.6567 H   0  0  0  0  0  0  0  0  0  0  0  0
   -3.7264   23.2858  -28.3888 H   0  0  0  0  0  0  0  0  0  0  0  0
   -3.6068   22.0230  -27.0938 H   0  0  0  0  0  0  0  0  0  0  0  0
  1  2  1  0
  2  3  1  0
  3  4  1  0
  4  5  1  0
  3  6  1  0
  6  7  1  0
  7  8  1  0
  8  9  1  0
  9 10  1  0
 10 11  1  0
 11 12  1  0
 12 13  1  0
 13 14  2  0
 14 15  1  0
 15 16  2  0
 16 17  1  0
 17 18  2  0
 18 19  1  0
 19 20  2  0
 20 21  1  0
 21 22  1  0
 12 23  2  0
 23 24  1  0
 24 25  1  0
 24 26  2  0
 26 27  1  0
 27 28  1  0
 28 29  1  0
 28 30  2  0
 30 31  1  0
 10 32  1  0
 32 33  1  0
 33  7  1  0
 31 11  2  0
 21 13  1  0
 31 26  1  0
 20 15  1  0
  1 34  1  0
  1 35  1  0
  1 36  1  0
  2 37  1  0
  2 38  1  0
  4 39  1  0
  4 40  1  0
  5 41  1  0
  5 42  1  0
  5 43  1  0
  6 44  1  0
  6 45  1  0
  7 46  1  0
  8 47  1  0
  8 48  1  0
  9 49  1  0
  9 50  1  0
 14 51  1  0
 16 52  1  0
 17 53  1  0
 18 54  1  0
 19 55  1  0
 22 56  1  0
 22 57  1  0
 22 58  1  0
 23 59  1  0
 29 60  1  0
 29 61  1  0
 29 62  1  0
 30 63  1  0
 32 64  1  0
 32 65  1  0
 33 66  1  0
 33 67  1  0
M  CHG  1  30   1
M  END
>  <UniqueID>  (28) 
27

>  <SMILES>  (28) 
CCN(CC)CC1CCN(c2c(-c3cc4ccccc4n3C)cc(F)c3sc(C)[nH+]c23)CC1

>  <Energy>  (28) 
157.21363930954934

>  <Genealogy>  (28) 
CCN(CC)CC1CCN(c2c(-c3cc4ccccc4n3C)cc(F)c3sc(C)[nH+]c23)CC1 (protonated)
CCN(CC)CC1CCN(c2c(-c3cc4ccccc4n3C)cc(F)c3sc(C)[nH+]c23)CC1 (3D coordinates assigned)
CCN(CC)CC1CCN(c2c(-c3cc4ccccc4n3C)cc(F)c3sc(C)[nH+]c23)CC1 (nonaromatic ring conformer: 157.21363930954934 kcal/mol)

>  <smiles>  (28) 
CCN(CC)CC1CCN(c2c(-c3cc4ccccc4n3C)cc(F)c3sc(C)nc23)CC1

>  <score_type>  (28) 
oracle

>  <origin>  (28) 
adg

>  <m_score__min__energy>  (28) 
-7.9100000000000001

>  <m_primary>  (28) 
energy

$$$$
29:0
     RDKit          3D

 49 52  0  0  0  0  0  0  0  0999 V2000
   -6.1220   25.4450  -29.6540 C   0  0  0  0  0  0  0  0  0  0  0  0
   -4.7980   25.4270  -30.1760 O   0  0  0  0  0  0  0  0  0  0  0  0
   -4.0750   24.2620  -30.4740 C   0  0  0  0  0  0  0  0  0  0  0  0
   -4.6410   23.1980  -31.2040 C   0  0  0  0  0  0  0  0  0  0  0  0
   -3.8860   22.0510  -31.4800 C   0  0  0  0  0  0  0  0  0  0  0  0
   -4.4220   20.9830  -32.2030 C   0  0  0  0  0  0  0  0  0  0  0  0
   -3.6390   19.8470  -32.4460 C   0  0  0  0  0  0  0  0  0  0  0  0
   -4.1850   18.7190  -33.2310 C   0  0  0  0  0  0  0  0  0  0  0  0
   -3.4140   17.9270  -34.0030 N   0  0  0  0  0  0  0  0  0  0  0  0
   -4.2590   17.0650  -34.5970 C   0  0  0  0  0  0  0  0  0  0  0  0
   -5.5400   17.3390  -34.1710 C   0  0  0  0  0  0  0  0  0  0  0  0
   -5.4950   18.3750  -33.3040 N   0  0  0  0  0  0  0  0  0  0  0  0
   -6.6320   18.9360  -32.5570 C   0  0  0  0  0  0  0  0  0  0  0  0
   -7.3060   20.0590  -33.3650 C   0  0  0  0  0  0  0  0  0  0  0  0
   -8.4210   20.7500  -32.5520 C   0  0  0  0  0  0  0  0  0  0  0  0
   -9.0930   19.8240  -31.5180 C   0  0  0  0  0  0  0  0  0  0  0  0
   -9.0820   18.3610  -31.9730 C   0  0  0  0  0  0  0  0  0  0  0  0
   -7.6470   17.8290  -32.1730 C   0  0  0  0  0  0  0  0  0  0  0  0
   -2.3140   19.8370  -31.9730 C   0  0  0  0  0  0  0  0  0  0  0  0
   -1.5700   18.8410  -32.1770 O   0  0  0  0  0  0  0  0  0  0  0  0
   -1.8340   20.8740  -31.2920 O   0  0  0  0  0  0  0  0  0  0  0  0
   -2.5560   21.9600  -31.0300 C   0  0  0  0  0  0  0  0  0  0  0  0
   -1.9920   23.0130  -30.3080 C   0  0  0  0  0  0  0  0  0  0  0  0
   -2.7460   24.1700  -30.0250 C   0  0  0  0  0  0  0  0  0  0  0  0
   -2.2130   25.2470  -29.3010 O   0  0  0  0  0  0  0  0  0  0  0  0
   -1.7560   25.1660  -27.9530 C   0  0  0  0  0  0  0  0  0  0  0  0
   -6.0828   25.4445  -28.5547 H   0  0  0  0  0  0  0  0  0  0  0  0
   -6.6410   26.3503  -30.0019 H   0  0  0  0  0  0  0  0  0  0  0  0
   -6.6655   24.5542  -30.0019 H   0  0  0  0  0  0  0  0  0  0  0  0
   -5.6799   23.2684  -31.5585 H   0  0  0  0  0  0  0  0  0  0  0  0
   -5.4542   21.0336  -32.5799 H   0  0  0  0  0  0  0  0  0  0  0  0
   -2.3810   17.9830  -34.1390 H   0  0  0  0  0  0  0  0  0  0  0  0
   -3.9743   16.2730  -35.3052 H   0  0  0  0  0  0  0  0  0  0  0  0
   -6.4485   16.8037  -34.4843 H   0  0  0  0  0  0  0  0  0  0  0  0
   -6.2506   19.3716  -31.6217 H   0  0  0  0  0  0  0  0  0  0  0  0
   -6.5474   20.8070  -33.6389 H   0  0  0  0  0  0  0  0  0  0  0  0
   -7.7591   19.6138  -34.2630 H   0  0  0  0  0  0  0  0  0  0  0  0
   -7.9832   21.6070  -32.0191 H   0  0  0  0  0  0  0  0  0  0  0  0
   -9.1996   21.0561  -33.2662 H   0  0  0  0  0  0  0  0  0  0  0  0
   -8.5521   19.9042  -30.5635 H   0  0  0  0  0  0  0  0  0  0  0  0
  -10.1408   20.1396  -31.4062 H   0  0  0  0  0  0  0  0  0  0  0  0
   -9.5850   17.7481  -31.2106 H   0  0  0  0  0  0  0  0  0  0  0  0
   -9.6044   18.3015  -32.9392 H   0  0  0  0  0  0  0  0  0  0  0  0
   -7.3144   17.3600  -31.2352 H   0  0  0  0  0  0  0  0  0  0  0  0
   -7.6781   17.1115  -33.0062 H   0  0  0  0  0  0  0  0  0  0  0  0
   -0.9520   22.9395  -29.9574 H   0  0  0  0  0  0  0  0  0  0  0  0
   -2.6040   25.3163  -27.2687 H   0  0  0  0  0  0  0  0  0  0  0  0
   -1.3124   24.1752  -27.7751 H   0  0  0  0  0  0  0  0  0  0  0  0
   -0.9989   25.9440  -27.7751 H   0  0  0  0  0  0  0  0  0  0  0  0
  1  2  1  0
  2  3  1  0
  3  4  2  0
  4  5  1  0
  5  6  1  0
  6  7  2  0
  7  8  1  0
  8  9  2  0
  9 10  1  0
 10 11  2  0
 11 12  1  0
 12 13  1  0
 13 14  1  0
 14 15  1  0
 15 16  1  0
 16 17  1  0
 17 18  1  0
  7 19  1  0
 19 20  2  0
 19 21  1  0
 21 22  1  0
 22 23  1  0
 23 24  2  0
 24 25  1  0
 25 26  1  0
 24  3  1  0
 22  5  2  0
 12  8  1  0
 18 13  1  0
  1 27  1  0
  1 28  1  0
  1 29  1  0
  4 30  1  0
  6 31  1  0
  9 32  1  0
 10 33  1  0
 11 34  1  0
 13 35  1  0
 14 36  1  0
 14 37  1  0
 15 38  1  0
 15 39  1  0
 16 40  1  0
 16 41  1  0
 17 42  1  0
 17 43  1  0
 18 44  1  0
 18 45  1  0
 23 46  1  0
 26 47  1  0
 26 48  1  0
 26 49  1  0
M  CHG  1   9   1
M  END
>  <UniqueID>  (29) 
28

>  <SMILES>  (29) 
COc1cc2cc(-c3[nH+]ccn3C3CCCCC3)c(=O)oc2cc1OC

>  <Energy>  (29) 
93.12325732337894

>  <Genealogy>  (29) 
COc1cc2cc(-c3[nH+]ccn3C3CCCCC3)c(=O)oc2cc1OC (protonated)
COc1cc2cc(-c3[nH+]ccn3C3CCCCC3)c(=O)oc2cc1OC (3D coordinates assigned)
COc1cc2cc(-c3[nH+]ccn3C3CCCCC3)c(=O)oc2cc1OC (nonaromatic ring conformer: 93.12325732337894 kcal/mol)

>  <smiles>  (29) 
COc1cc2cc(-c3nccn3C3CCCCC3)c(=O)oc2cc1OC

>  <score_type>  (29) 
oracle

>  <origin>  (29) 
adg

>  <m_score__min__energy>  (29) 
-8.3100000000000005

>  <m_primary>  (29) 
energy

$$$$
30:0
     RDKit          3D

 57 60  0  0  0  0  0  0  0  0999 V2000
   -6.1290   19.3880  -33.9180 C   0  0  0  0  0  0  0  0  0  0  0  0
   -7.2080   20.0330  -33.2470 O   0  0  0  0  0  0  0  0  0  0  0  0
   -7.0760   21.1910  -32.4660 C   0  0  0  0  0  0  0  0  0  0  0  0
   -8.1860   21.9050  -31.9930 C   0  0  0  0  0  0  0  0  0  0  0  0
   -8.0060   23.0380  -31.2070 C   0  0  0  0  0  0  0  0  0  0  0  0
   -6.7170   23.4970  -30.9030 C   0  0  0  0  0  0  0  0  0  0  0  0
   -6.5670   24.6180  -30.0850 C   0  0  0  0  0  0  0  0  0  0  0  0
   -5.3030   25.0650  -29.7300 C   0  0  0  0  0  0  0  0  0  0  0  0
   -4.1600   24.4120  -30.1970 C   0  0  0  0  0  0  0  0  0  0  0  0
   -2.9100   24.8530  -29.7620 O   0  0  0  0  0  0  0  0  0  0  0  0
   -4.2670   23.3120  -31.0840 C   0  0  0  0  0  0  0  0  0  0  0  0
   -2.9770   22.6740  -31.6020 C   0  0  0  0  0  0  0  0  0  0  0  0
   -2.5070   21.5030  -30.8200 N   0  0  0  0  0  0  0  0  0  0  0  0
   -3.2990   21.1260  -29.6370 C   0  0  0  0  0  0  0  0  0  0  0  0
   -2.7960   21.7960  -28.3370 C   0  0  0  0  0  0  0  0  0  0  0  0
   -1.4410   22.3720  -28.4790 N   0  0  0  0  0  0  0  0  0  0  0  0
   -0.8620   22.7200  -27.1580 C   0  0  0  0  0  0  0  0  0  0  0  0
   -0.9910   24.2010  -26.9200 C   0  0  0  0  0  0  0  0  0  0  0  0
   -2.0760   24.6900  -26.1740 C   0  0  0  0  0  0  0  0  0  0  0  0
   -2.1940   26.0560  -25.9090 C   0  0  0  0  0  0  0  0  0  0  0  0
   -1.2380   26.9470  -26.3970 C   0  0  0  0  0  0  0  0  0  0  0  0
   -0.1660   26.4780  -27.1600 C   0  0  0  0  0  0  0  0  0  0  0  0
   -0.0370   25.1030  -27.4400 C   0  0  0  0  0  0  0  0  0  0  0  0
    1.0190   24.6030  -28.2180 O   0  0  0  0  0  0  0  0  0  0  0  0
    2.3830   24.5770  -27.8120 C   0  0  0  0  0  0  0  0  0  0  0  0
   -0.5690   21.4470  -29.2210 C   0  0  0  0  0  0  0  0  0  0  0  0
   -1.0470   21.3220  -30.6750 C   0  0  0  0  0  0  0  0  0  0  0  0
   -5.5710   22.8120  -31.4000 C   0  0  0  0  0  0  0  0  0  0  0  0
   -5.7860   21.6340  -32.1520 C   0  0  0  0  0  0  0  0  0  0  0  0
   -5.4322   18.9715  -33.1757 H   0  0  0  0  0  0  0  0  0  0  0  0
   -6.5218   18.5764  -34.5481 H   0  0  0  0  0  0  0  0  0  0  0  0
   -5.6001   20.1182  -34.5481 H   0  0  0  0  0  0  0  0  0  0  0  0
   -9.2025   21.5679  -32.2444 H   0  0  0  0  0  0  0  0  0  0  0  0
   -8.8826   23.5786  -30.8206 H   0  0  0  0  0  0  0  0  0  0  0  0
   -7.4574   25.1505  -29.7194 H   0  0  0  0  0  0  0  0  0  0  0  0
   -5.1996   25.9422  -29.0744 H   0  0  0  0  0  0  0  0  0  0  0  0
   -2.2080   24.2110  -29.4130 H   0  0  0  0  0  0  0  0  0  0  0  0
   -3.1483   22.3476  -32.6384 H   0  0  0  0  0  0  0  0  0  0  0  0
   -2.1937   23.4412  -31.5139 H   0  0  0  0  0  0  0  0  0  0  0  0
   -4.3441   21.4255  -29.8044 H   0  0  0  0  0  0  0  0  0  0  0  0
   -3.2004   20.0382  -29.5070 H   0  0  0  0  0  0  0  0  0  0  0  0
   -3.4937   22.6012  -28.0633 H   0  0  0  0  0  0  0  0  0  0  0  0
   -2.7469   21.0188  -27.5602 H   0  0  0  0  0  0  0  0  0  0  0  0
   -1.3998   22.1748  -26.3683 H   0  0  0  0  0  0  0  0  0  0  0  0
    0.2018   22.4404  -27.1422 H   0  0  0  0  0  0  0  0  0  0  0  0
   -2.8378   23.9923  -25.7960 H   0  0  0  0  0  0  0  0  0  0  0  0
   -3.0412   26.4296  -25.3152 H   0  0  0  0  0  0  0  0  0  0  0  0
   -1.3285   28.0217  -26.1804 H   0  0  0  0  0  0  0  0  0  0  0  0
    0.5823   27.1866  -27.5447 H   0  0  0  0  0  0  0  0  0  0  0  0
    2.4386   24.5759  -26.7134 H   0  0  0  0  0  0  0  0  0  0  0  0
    2.8651   23.6695  -28.2044 H   0  0  0  0  0  0  0  0  0  0  0  0
    2.8994   25.4655  -28.2044 H   0  0  0  0  0  0  0  0  0  0  0  0
    0.4620   21.8303  -29.2088 H   0  0  0  0  0  0  0  0  0  0  0  0
   -0.6061   20.4566  -28.7437 H   0  0  0  0  0  0  0  0  0  0  0  0
   -0.5371   22.0872  -31.2787 H   0  0  0  0  0  0  0  0  0  0  0  0
   -0.8061   20.3038  -31.0145 H   0  0  0  0  0  0  0  0  0  0  0  0
   -4.9191   21.0521  -32.4983 H   0  0  0  0  0  0  0  0  0  0  0  0
  1  2  1  0
  2  3  1  0
  3  4  2  0
  4  5  1  0
  5  6  2  0
  6  7  1  0
  7  8  2  0
  8  9  1  0
  9 10  1  0
  9 11  2  0
 11 12  1  0
 12 13  1  0
 13 14  1  0
 14 15  1  0
 15 16  1  0
 16 17  1  0
 17 18  1  0
 18 19  2  0
 19 20  1  0
 20 21  2  0
 21 22  1  0
 22 23  2  0
 23 24  1  0
 24 25  1  0
 16 26  1  0
 26 27  1  0
 11 28  1  0
 28 29  2  0
 29  3  1  0
 28  6  1  0
 27 13  1  0
 23 18  1  0
  1 30  1  0
  1 31  1  0
  1 32  1  0
  4 33  1  0
  5 34  1  0
  7 35  1  0
  8 36  1  0
 10 37  1  0
 12 38  1  0
 12 39  1  0
 14 40  1  0
 14 41  1  0
 15 42  1  0
 15 43  1  0
 17 44  1  0
 17 45  1  0
 19 46  1  0
 20 47  1  0
 21 48  1  0
 22 49  1  0
 25 50  1  0
 25 51  1  0
 25 52  1  0
 26 53  1  0
 26 54  1  0
 27 55  1  0
 27 56  1  0
 29 57  1  0
M  END
>  <UniqueID>  (30) 
29

>  <SMILES>  (30) 
COc1ccc2ccc(O)c(CN3CCN(Cc4ccccc4OC)CC3)c2c1

>  <Energy>  (30) 
79.96369092453247

>  <Genealogy>  (30) 
COc1ccc2ccc(O)c(CN3CCN(Cc4ccccc4OC)CC3)c2c1 (3D coordinates assigned)
COc1ccc2ccc(O)c(CN3CCN(Cc4ccccc4OC)CC3)c2c1 (nonaromatic ring conformer: 79.96369092453247 kcal/mol)

>  <smiles>  (30) 
COc1ccc2ccc(O)c(CN3CCN(Cc4ccccc4OC)CC3)c2c1

>  <score_type>  (30) 
oracle

>  <origin>  (30) 
adg

>  <m_score__min__energy>  (30) 
-10.23

>  <m_primary>  (30) 
energy

$$$$
31:0
     RDKit          3D

 49 53  0  0  0  0  0  0  0  0999 V2000
    0.3010   17.2490  -27.5360 C   0  0  0  0  0  0  0  0  0  0  0  0
    1.2880   18.5790  -28.2950 S   0  0  0  0  0  0  0  0  0  0  0  0
   -0.1500   19.4420  -28.9360 C   0  0  0  0  0  0  0  0  0  0  0  0
   -0.1900   19.8390  -30.2770 C   0  0  0  0  0  0  0  0  0  0  0  0
   -1.3090   20.5130  -30.7780 C   0  0  0  0  0  0  0  0  0  0  0  0
   -2.3930   20.8020  -29.9350 C   0  0  0  0  0  0  0  0  0  0  0  0
   -3.5730   21.5250  -30.4510 C   0  0  0  0  0  0  0  0  0  0  0  0
   -4.6470   20.7830  -30.8260 N   0  0  0  0  0  0  0  0  0  0  0  0
   -5.7810   21.3470  -31.3100 C   0  0  0  0  0  0  0  0  0  0  0  0
   -5.8540   22.7470  -31.4270 C   0  0  0  0  0  0  0  0  0  0  0  0
   -7.0270   23.3290  -31.9370 C   0  0  0  0  0  0  0  0  0  0  0  0
   -8.0730   22.5460  -32.3110 N   0  0  0  0  0  0  0  0  0  0  0  0
   -8.0320   21.1910  -32.2090 C   0  0  0  0  0  0  0  0  0  0  0  0
   -9.1360   20.4290  -32.6090 C   0  0  0  0  0  0  0  0  0  0  0  0
   -9.1010   19.0350  -32.5090 C   0  0  0  0  0  0  0  0  0  0  0  0
   -7.9630   18.3970  -32.0080 C   0  0  0  0  0  0  0  0  0  0  0  0
   -6.8540   19.1460  -31.6060 C   0  0  0  0  0  0  0  0  0  0  0  0
   -6.8760   20.5520  -31.7020 C   0  0  0  0  0  0  0  0  0  0  0  0
   -4.7470   23.5150  -31.0250 C   0  0  0  0  0  0  0  0  0  0  0  0
   -4.7920   24.7730  -31.1310 O   0  0  0  0  0  0  0  0  0  0  0  0
   -3.6190   22.9020  -30.5300 N   0  0  0  0  0  0  0  0  0  0  0  0
   -2.4810   23.7330  -30.0740 C   0  0  0  0  0  0  0  0  0  0  0  0
   -2.6700   24.2840  -28.6740 C   0  0  0  0  0  0  0  0  0  0  0  0
   -1.5980   24.9640  -28.0680 C   0  0  0  0  0  0  0  0  0  0  0  0
   -1.7170   25.4710  -26.7710 C   0  0  0  0  0  0  0  0  0  0  0  0
   -2.9070   25.2930  -26.0600 C   0  0  0  0  0  0  0  0  0  0  0  0
   -3.9770   24.6060  -26.6420 C   0  0  0  0  0  0  0  0  0  0  0  0
   -3.8620   24.0940  -27.9400 C   0  0  0  0  0  0  0  0  0  0  0  0
   -2.3610   20.3780  -28.5990 C   0  0  0  0  0  0  0  0  0  0  0  0
   -1.2430   19.7010  -28.1000 C   0  0  0  0  0  0  0  0  0  0  0  0
    0.3598   17.3283  -26.4404 H   0  0  0  0  0  0  0  0  0  0  0  0
   -0.7476   17.3431  -27.8546 H   0  0  0  0  0  0  0  0  0  0  0  0
    0.6949   16.2726  -27.8546 H   0  0  0  0  0  0  0  0  0  0  0  0
    0.6607   19.6206  -30.9393 H   0  0  0  0  0  0  0  0  0  0  0  0
   -1.3391   20.8170  -31.8347 H   0  0  0  0  0  0  0  0  0  0  0  0
   -7.0989   24.4224  -32.0339 H   0  0  0  0  0  0  0  0  0  0  0  0
  -10.0334   20.9283  -33.0030 H   0  0  0  0  0  0  0  0  0  0  0  0
   -9.9703   18.4396  -32.8250 H   0  0  0  0  0  0  0  0  0  0  0  0
   -7.9402   17.3000  -31.9298 H   0  0  0  0  0  0  0  0  0  0  0  0
   -5.9614   18.6369  -31.2135 H   0  0  0  0  0  0  0  0  0  0  0  0
   -1.5699   23.1167  -30.0876 H   0  0  0  0  0  0  0  0  0  0  0  0
   -2.4076   24.5919  -30.7573 H   0  0  0  0  0  0  0  0  0  0  0  0
   -0.6564   25.0981  -28.6206 H   0  0  0  0  0  0  0  0  0  0  0  0
   -0.8754   26.0093  -26.3106 H   0  0  0  0  0  0  0  0  0  0  0  0
   -3.0022   25.6942  -25.0402 H   0  0  0  0  0  0  0  0  0  0  0  0
   -4.9115   24.4675  -26.0785 H   0  0  0  0  0  0  0  0  0  0  0  0
   -4.7013   23.5428  -28.3891 H   0  0  0  0  0  0  0  0  0  0  0  0
   -3.2188   20.5785  -27.9402 H   0  0  0  0  0  0  0  0  0  0  0  0
   -1.2226   19.3721  -27.0505 H   0  0  0  0  0  0  0  0  0  0  0  0
  1  2  1  0
  2  3  1  0
  3  4  2  0
  4  5  1  0
  5  6  2  0
  6  7  1  0
  7  8  2  0
  8  9  1  0
  9 10  2  0
 10 11  1  0
 11 12  2  0
 12 13  1  0
 13 14  2  0
 14 15  1  0
 15 16  2  0
 16 17  1  0
 17 18  2  0
 10 19  1  0
 19 20  2  0
 19 21  1  0
 21 22  1  0
 22 23  1  0
 23 24  2  0
 24 25  1  0
 25 26  2  0
 26 27  1  0
 27 28  2  0
  6 29  1  0
 29 30  2  0
 30  3  1  0
 21  7  1  0
 28 23  1  0
 18  9  1  0
 18 13  1  0
  1 31  1  0
  1 32  1  0
  1 33  1  0
  4 34  1  0
  5 35  1  0
 11 36  1  0
 14 37  1  0
 15 38  1  0
 16 39  1  0
 17 40  1  0
 22 41  1  0
 22 42  1  0
 24 43  1  0
 25 44  1  0
 26 45  1  0
 27 46  1  0
 28 47  1  0
 29 48  1  0
 30 49  1  0
M  END
>  <UniqueID>  (31) 
30

>  <SMILES>  (31) 
CSc1ccc(-c2nc3c(cnc4ccccc43)c(=O)n2Cc2ccccc2)cc1

>  <Energy>  (31) 
72.11469818750567

>  <Genealogy>  (31) 
CSc1ccc(-c2nc3c(cnc4ccccc43)c(=O)n2Cc2ccccc2)cc1 (3D coordinates assigned)
CSc1ccc(-c2nc3c(cnc4ccccc43)c(=O)n2Cc2ccccc2)cc1 (optimized conformer: 72.11469818750567 kcal/mol)

>  <smiles>  (31) 
CSc1ccc(-c2nc3c(cnc4ccccc43)c(=O)n2Cc2ccccc2)cc1

>  <score_type>  (31) 
oracle

>  <origin>  (31) 
adg

>  <m_score__min__energy>  (31) 
-9.6899999999999995

>  <m_primary>  (31) 
energy

$$$$
32:0
     RDKit          3D

 29 31  0  0  0  0  0  0  0  0999 V2000
   -5.8460   25.4440  -30.2110 C   0  0  0  0  0  0  0  0  0  0  0  0
   -6.2180   24.1400  -30.7700 N   0  0  0  0  0  0  0  0  0  0  0  0
   -7.5460   23.7940  -30.8430 C   0  0  0  0  0  0  0  0  0  0  0  0
   -7.8890   22.5620  -31.3880 C   0  0  0  0  0  0  0  0  0  0  0  0
   -9.1220   22.0630  -31.5740 N   0  0  0  0  0  0  0  0  0  0  0  0
   -8.9520   20.8600  -32.1630 C   0  0  0  0  0  0  0  0  0  0  0  0
   -7.5960   20.5910  -32.3420 C   0  0  0  0  0  0  0  0  0  0  0  0
   -7.0220   19.3680  -32.9450 C   0  0  0  0  0  0  0  0  0  0  0  0
   -7.4030   18.0940  -32.4890 C   0  0  0  0  0  0  0  0  0  0  0  0
   -6.8640   16.9440  -33.0740 C   0  0  0  0  0  0  0  0  0  0  0  0
   -5.9490   17.0550  -34.1230 C   0  0  0  0  0  0  0  0  0  0  0  0
   -5.5760   18.3170  -34.5940 C   0  0  0  0  0  0  0  0  0  0  0  0
   -6.1140   19.4700  -34.0120 C   0  0  0  0  0  0  0  0  0  0  0  0
   -6.9310   21.7020  -31.8450 C   0  0  0  0  0  0  0  0  0  0  0  0
   -5.5820   22.0460  -31.8140 C   0  0  0  0  0  0  0  0  0  0  0  0
   -5.2410   23.2940  -31.2590 C   0  0  0  0  0  0  0  0  0  0  0  0
   -4.0260   23.6310  -31.2210 O   0  0  0  0  0  0  0  0  0  0  0  0
   -5.8614   25.3899  -29.1124 H   0  0  0  0  0  0  0  0  0  0  0  0
   -4.8351   25.7136  -30.5507 H   0  0  0  0  0  0  0  0  0  0  0  0
   -6.5625   26.2064  -30.5507 H   0  0  0  0  0  0  0  0  0  0  0  0
   -8.3240   24.4799  -30.4766 H   0  0  0  0  0  0  0  0  0  0  0  0
  -10.0310   22.5160  -31.3240 H   0  0  0  0  0  0  0  0  0  0  0  0
   -9.7693   20.1864  -32.4601 H   0  0  0  0  0  0  0  0  0  0  0  0
   -8.1289   18.0013  -31.6677 H   0  0  0  0  0  0  0  0  0  0  0  0
   -7.1612   15.9504  -32.7073 H   0  0  0  0  0  0  0  0  0  0  0  0
   -5.5219   16.1494  -34.5786 H   0  0  0  0  0  0  0  0  0  0  0  0
   -4.8586   18.4038  -35.4233 H   0  0  0  0  0  0  0  0  0  0  0  0
   -5.8246   20.4610  -34.3917 H   0  0  0  0  0  0  0  0  0  0  0  0
   -4.8113   21.3676  -32.2086 H   0  0  0  0  0  0  0  0  0  0  0  0
  1  2  1  0
  2  3  1  0
  3  4  2  0
  4  5  1  0
  5  6  1  0
  6  7  2  0
  7  8  1  0
  8  9  2  0
  9 10  1  0
 10 11  2  0
 11 12  1  0
 12 13  2  0
  7 14  1  0
 14 15  2  0
 15 16  1  0
 16 17  2  0
 16  2  1  0
 14  4  1  0
 13  8  1  0
  1 18  1  0
  1 19  1  0
  1 20  1  0
  3 21  1  0
  5 22  1  0
  6 23  1  0
  9 24  1  0
 10 25  1  0
 11 26  1  0
 12 27  1  0
 13 28  1  0
 15 29  1  0
M  END
>  <UniqueID>  (32) 
31

>  <SMILES>  (32) 
Cn1cc2[nH]cc(-c3ccccc3)c2cc1=O

>  <Energy>  (32) 
71.63594825331955

>  <Genealogy>  (32) 
Cn1cc2[nH]cc(-c3ccccc3)c2cc1=O (3D coordinates assigned)
Cn1cc2[nH]cc(-c3ccccc3)c2cc1=O (optimized conformer: 71.63594825331955 kcal/mol)

>  <smiles>  (32) 
Cn1cc2[nH]cc(-c3ccccc3)c2cc1=O

>  <score_type>  (32) 
oracle

>  <origin>  (32) 
adg

>  <m_score__min__energy>  (32) 
-7.4400000000000004

>  <m_primary>  (32) 
energy

$$$$
33:0
     RDKit          3D

 47 50  0  0  0  0  0  0  0  0999 V2000
   -5.7270   18.1250  -35.0930 C   0  0  0  0  0  0  0  0  0  0  0  0
   -6.1710   17.0060  -34.1520 C   0  0  0  0  0  0  0  0  0  0  0  0
   -5.4360   17.0340  -32.7990 C   0  0  0  0  0  0  0  0  0  0  0  0
   -4.8800   18.4120  -32.4060 C   0  0  0  0  0  0  0  0  0  0  0  0
   -5.9610   19.4510  -32.2900 C   0  0  0  0  0  0  0  0  0  0  0  0
   -7.2260   19.1320  -31.9070 N   0  0  0  0  0  0  0  0  0  0  0  0
   -7.8480   20.3220  -31.8860 C   0  0  0  0  0  0  0  0  0  0  0  0
   -9.1790   20.5740  -31.5620 C   0  0  0  0  0  0  0  0  0  0  0  0
   -9.6240   21.9080  -31.6090 C   0  0  0  0  0  0  0  0  0  0  0  0
   -8.7370   22.9440  -31.9740 C   0  0  0  0  0  0  0  0  0  0  0  0
   -7.3970   22.6570  -32.2940 C   0  0  0  0  0  0  0  0  0  0  0  0
   -6.9880   21.3210  -32.2380 C   0  0  0  0  0  0  0  0  0  0  0  0
   -5.7790   20.7870  -32.4930 N   0  0  0  0  0  0  0  0  0  0  0  0
   -4.5690   21.4750  -32.9600 C   0  0  0  0  0  0  0  0  0  0  0  0
   -3.9610   22.2960  -31.8520 C   0  0  0  0  0  0  0  0  0  0  0  0
   -2.7000   21.9680  -31.3360 C   0  0  0  0  0  0  0  0  0  0  0  0
   -2.1350   22.7270  -30.3080 C   0  0  0  0  0  0  0  0  0  0  0  0
   -2.8170   23.8380  -29.7790 C   0  0  0  0  0  0  0  0  0  0  0  0
   -2.2210   24.6090  -28.7140 N   0  0  0  0  0  0  0  0  0  0  0  0
   -2.5070   24.5410  -27.3960 C   0  0  0  0  0  0  0  0  0  0  0  0
   -1.7180   25.4530  -26.7290 C   0  0  0  0  0  0  0  0  0  0  0  0
   -0.9640   26.0550  -27.7140 C   0  0  0  0  0  0  0  0  0  0  0  0
   -1.2870   25.5280  -28.9110 N   0  0  0  0  0  0  0  0  0  0  0  0
   -4.0820   24.1670  -30.3030 C   0  0  0  0  0  0  0  0  0  0  0  0
   -4.6440   23.4060  -31.3320 C   0  0  0  0  0  0  0  0  0  0  0  0
   -5.3849   18.9872  -34.5017 H   0  0  0  0  0  0  0  0  0  0  0  0
   -4.9034   17.7654  -35.7274 H   0  0  0  0  0  0  0  0  0  0  0  0
   -6.5731   18.4279  -35.7274 H   0  0  0  0  0  0  0  0  0  0  0  0
   -7.2504   17.1103  -33.9673 H   0  0  0  0  0  0  0  0  0  0  0  0
   -5.9296   16.0497  -34.6391 H   0  0  0  0  0  0  0  0  0  0  0  0
   -6.1407   16.7120  -32.0181 H   0  0  0  0  0  0  0  0  0  0  0  0
   -4.5699   16.3632  -32.8987 H   0  0  0  0  0  0  0  0  0  0  0  0
   -4.3685   18.3237  -31.4362 H   0  0  0  0  0  0  0  0  0  0  0  0
   -4.1871   18.7338  -33.1974 H   0  0  0  0  0  0  0  0  0  0  0  0
   -9.8595   19.7574  -31.2789 H   0  0  0  0  0  0  0  0  0  0  0  0
  -10.6689   22.1451  -31.3600 H   0  0  0  0  0  0  0  0  0  0  0  0
   -9.0960   23.9832  -32.0085 H   0  0  0  0  0  0  0  0  0  0  0  0
   -6.6959   23.4556  -32.5782 H   0  0  0  0  0  0  0  0  0  0  0  0
   -3.8367   20.7274  -33.2989 H   0  0  0  0  0  0  0  0  0  0  0  0
   -4.8413   22.1457  -33.7882 H   0  0  0  0  0  0  0  0  0  0  0  0
   -2.1508   21.1064  -31.7435 H   0  0  0  0  0  0  0  0  0  0  0  0
   -1.1474   22.4533  -29.9084 H   0  0  0  0  0  0  0  0  0  0  0  0
   -3.2456   23.8704  -26.9327 H   0  0  0  0  0  0  0  0  0  0  0  0
   -1.6948   25.6561  -25.6482 H   0  0  0  0  0  0  0  0  0  0  0  0
   -0.2149   26.8433  -27.5482 H   0  0  0  0  0  0  0  0  0  0  0  0
   -4.6322   25.0297  -29.8993 H   0  0  0  0  0  0  0  0  0  0  0  0
   -5.6294   23.6794  -31.7373 H   0  0  0  0  0  0  0  0  0  0  0  0
  1  2  1  0
  2  3  1  0
  3  4  1  0
  4  5  1  0
  5  6  2  0
  6  7  1  0
  7  8  2  0
  8  9  1  0
  9 10  2  0
 10 11  1  0
 11 12  2  0
 12 13  1  0
 13 14  1  0
 14 15  1  0
 15 16  2  0
 16 17  1  0
 17 18  2  0
 18 19  1  0
 19 20  1  0
 20 21  2  0
 21 22  1  0
 22 23  2  0
 18 24  1  0
 24 25  2  0
 13  5  1  0
 25 15  1  0
 12  7  1  0
 23 19  1  0
  1 26  1  0
  1 27  1  0
  1 28  1  0
  2 29  1  0
  2 30  1  0
  3 31  1  0
  3 32  1  0
  4 33  1  0
  4 34  1  0
  8 35  1  0
  9 36  1  0
 10 37  1  0
 11 38  1  0
 14 39  1  0
 14 40  1  0
 16 41  1  0
 17 42  1  0
 20 43  1  0
 21 44  1  0
 22 45  1  0
 24 46  1  0
 25 47  1  0
M  END
>  <UniqueID>  (33) 
32

>  <SMILES>  (33) 
CCCCc1nc2ccccc2n1Cc1ccc(-n2cccn2)cc1

>  <Energy>  (33) 
112.84680327542506

>  <Genealogy>  (33) 
CCCCc1nc2ccccc2n1Cc1ccc(-n2cccn2)cc1 (3D coordinates assigned)
CCCCc1nc2ccccc2n1Cc1ccc(-n2cccn2)cc1 (optimized conformer: 112.84680327542506 kcal/mol)

>  <smiles>  (33) 
CCCCc1nc2ccccc2n1Cc1ccc(-n2cccn2)cc1

>  <score_type>  (33) 
oracle

>  <origin>  (33) 
adg

>  <m_score__min__energy>  (33) 
-8.3599999999999994

>  <m_primary>  (33) 
energy

$$$$
34:0
     RDKit          3D

 54 56  0  0  0  0  0  0  0  0999 V2000
   -6.8950   17.0270  -32.9410 C   0  0  0  0  0  0  0  0  0  0  0  0
   -6.4580   17.4950  -31.5600 C   0  0  0  0  0  0  0  0  0  0  0  0
   -6.9190   18.8220  -31.3180 O   0  0  0  0  0  0  0  0  0  0  0  0
   -7.8050   19.4930  -32.1670 C   0  0  0  0  0  0  0  0  0  0  0  0
   -9.0400   19.2200  -32.1650 O   0  0  0  0  0  0  0  0  0  0  0  0
   -7.2880   20.5620  -33.0770 C   0  0  0  0  0  0  0  0  0  0  0  0
   -5.8750   20.8550  -32.7650 N   0  0  0  0  0  0  0  0  0  0  0  0
   -5.5370   21.9620  -32.0040 C   0  0  0  0  0  0  0  0  0  0  0  0
   -6.7940   23.0770  -31.3380 S   0  0  0  0  0  0  0  0  0  0  0  0
   -5.7070   23.7250  -30.0170 C   0  0  0  0  0  0  0  0  0  0  0  0
   -4.9330   24.9330  -30.4750 C   0  0  0  0  0  0  0  0  0  0  0  0
   -5.5460   25.9850  -30.7980 O   0  0  0  0  0  0  0  0  0  0  0  0
   -3.5000   24.9510  -30.4610 N   0  0  0  0  0  0  0  0  0  0  0  0
   -2.6640   24.7110  -29.2880 C   0  0  0  0  0  0  0  0  0  0  0  0
   -2.0800   23.2880  -29.3200 C   0  0  1  0  0  0  0  0  0  0  0  0
   -1.1570   23.0190  -28.1260 C   0  0  0  0  0  0  0  0  0  0  0  0
   -1.9790   22.1280  -27.2470 C   0  0  0  0  0  0  0  0  0  0  0  0
   -2.9180   21.4700  -28.2320 C   0  0  0  0  0  0  0  0  0  0  0  0
   -3.1410   22.3540  -29.3070 O   0  0  0  0  0  0  0  0  0  0  0  0
   -4.2290   22.2440  -31.7360 N   0  0  0  0  0  0  0  0  0  0  0  0
   -3.2610   21.4390  -32.2260 C   0  0  0  0  0  0  0  0  0  0  0  0
   -1.6060   21.6150  -32.0070 S   0  0  0  0  0  0  0  0  0  0  0  0
   -1.2040   20.2520  -32.9260 C   0  0  0  0  0  0  0  0  0  0  0  0
    0.2000   19.7890  -33.1570 C   0  0  0  0  0  0  0  0  0  0  0  0
   -2.3750   19.6490  -33.4200 C   0  0  0  0  0  0  0  0  0  0  0  0
   -2.3840   18.4150  -34.2800 C   0  0  0  0  0  0  0  0  0  0  0  0
   -3.5390   20.3390  -33.0060 C   0  0  0  0  0  0  0  0  0  0  0  0
   -4.8830   20.0470  -33.2840 C   0  0  0  0  0  0  0  0  0  0  0  0
   -5.1770   19.0550  -34.0060 O   0  0  0  0  0  0  0  0  0  0  0  0
   -7.6424   16.2266  -32.8374 H   0  0  0  0  0  0  0  0  0  0  0  0
   -7.3356   17.8711  -33.4918 H   0  0  0  0  0  0  0  0  0  0  0  0
   -6.0227   16.6451  -33.4918 H   0  0  0  0  0  0  0  0  0  0  0  0
   -6.8776   16.8207  -30.7989 H   0  0  0  0  0  0  0  0  0  0  0  0
   -5.3592   17.4834  -31.5096 H   0  0  0  0  0  0  0  0  0  0  0  0
   -7.3671   20.2215  -34.1200 H   0  0  0  0  0  0  0  0  0  0  0  0
   -7.8847   21.4751  -32.9348 H   0  0  0  0  0  0  0  0  0  0  0  0
   -6.3257   24.0051  -29.1517 H   0  0  0  0  0  0  0  0  0  0  0  0
   -4.9869   22.9379  -29.7486 H   0  0  0  0  0  0  0  0  0  0  0  0
   -1.8400   25.4396  -29.2764 H   0  0  0  0  0  0  0  0  0  0  0  0
   -3.2818   24.8201  -28.3844 H   0  0  0  0  0  0  0  0  0  0  0  0
   -1.4812   23.1874  -30.2372 H   0  0  0  0  0  0  0  0  0  0  0  0
   -0.2347   22.5129  -28.4474 H   0  0  0  0  0  0  0  0  0  0  0  0
   -0.8300   23.9391  -27.6197 H   0  0  0  0  0  0  0  0  0  0  0  0
   -1.3504   21.3822  -26.7384 H   0  0  0  0  0  0  0  0  0  0  0  0
   -2.4978   22.6666  -26.4403 H   0  0  0  0  0  0  0  0  0  0  0  0
   -2.4678   20.5388  -28.6064 H   0  0  0  0  0  0  0  0  0  0  0  0
   -3.8721   21.2338  -27.7382 H   0  0  0  0  0  0  0  0  0  0  0  0
   -3.9740   23.0750  -31.1560 H   0  0  0  0  0  0  0  0  0  0  0  0
    0.6961   19.6254  -32.1889 H   0  0  0  0  0  0  0  0  0  0  0  0
    0.1867   18.8477  -33.7259 H   0  0  0  0  0  0  0  0  0  0  0  0
    0.7493   20.5536  -33.7259 H   0  0  0  0  0  0  0  0  0  0  0  0
   -2.3905   17.5212  -33.6388 H   0  0  0  0  0  0  0  0  0  0  0  0
   -3.2822   18.4172  -34.9151 H   0  0  0  0  0  0  0  0  0  0  0  0
   -1.4859   18.4041  -34.9151 H   0  0  0  0  0  0  0  0  0  0  0  0
  1  2  1  0
  2  3  1  0
  3  4  1  0
  4  5  2  0
  4  6  1  0
  6  7  1  0
  7  8  1  0
  8  9  1  0
  9 10  1  0
 10 11  1  0
 11 12  2  0
 11 13  1  0
 13 14  1  0
 14 15  1  0
 15 16  1  0
 16 17  1  0
 17 18  1  0
 18 19  1  0
  8 20  2  0
 20 21  1  0
 21 22  1  0
 22 23  1  0
 23 24  1  0
 23 25  2  0
 25 26  1  0
 25 27  1  0
 27 28  1  0
 28 29  2  0
 28  7  1  0
 19 15  1  0
 27 21  2  0
  1 30  1  0
  1 31  1  0
  1 32  1  0
  2 33  1  0
  2 34  1  0
  6 35  1  0
  6 36  1  0
 10 37  1  0
 10 38  1  0
 14 39  1  0
 14 40  1  0
 15 41  1  6
 16 42  1  0
 16 43  1  0
 17 44  1  0
 17 45  1  0
 18 46  1  0
 18 47  1  0
 20 48  1  0
 24 49  1  0
 24 50  1  0
 24 51  1  0
 26 52  1  0
 26 53  1  0
 26 54  1  0
M  CHG  2  13  -1  20   1
M  END
>  <UniqueID>  (34) 
33

>  <SMILES>  (34) 
CCOC(=O)Cn1c(SCC(=O)[N-]C[C@H]2CCCO2)[nH+]c2sc(C)c(C)c2c1=O

>  <Energy>  (34) 
79.73212785623281

>  <Genealogy>  (34) 
CCOC(=O)Cn1c(SCC(=O)[N-]CC2CCCO2)[nH+]c2sc(C)c(C)c2c1=O (protonated)
CCOC(=O)Cn1c(SCC(=O)[N-]C[C@H]2CCCO2)[nH+]c2sc(C)c(C)c2c1=O (chirality)
CCOC(=O)Cn1c(SCC(=O)[N-]C[C@H]2CCCO2)[nH+]c2sc(C)c(C)c2c1=O (3D coordinates assigned)
CCOC(=O)Cn1c(SCC(=O)[N-]C[C@H]2CCCO2)[nH+]c2sc(C)c(C)c2c1=O (nonaromatic ring conformer: 79.73212785623281 kcal/mol)

>  <smiles>  (34) 
CCOC(=O)Cn1c(SCC(=O)NCC2CCCO2)nc2sc(C)c(C)c2c1=O

>  <score_type>  (34) 
oracle

>  <origin>  (34) 
adg

>  <m_score__min__energy>  (34) 
-8.9700000000000006

>  <m_primary>  (34) 
energy

$$$$
35:0
     RDKit          3D

 40 41  0  0  0  0  0  0  0  0999 V2000
   -5.7310   15.8290  -33.7950 C   0  0  0  0  0  0  0  0  0  0  0  0
   -6.8520   16.8590  -33.7210 C   0  0  0  0  0  0  0  0  0  0  0  0
   -6.3030   18.2150  -33.4040 C   0  0  0  0  0  0  0  0  0  0  0  0
   -6.8600   19.1190  -32.4980 C   0  0  0  0  0  0  0  0  0  0  0  0
   -6.1620   20.3310  -32.4660 C   0  0  0  0  0  0  0  0  0  0  0  0
   -6.4330   21.4570  -31.6890 C   0  0  0  0  0  0  0  0  0  0  0  0
   -7.4150   21.4540  -30.8950 O   0  0  0  0  0  0  0  0  0  0  0  0
   -5.6210   22.5620  -31.8050 N   0  0  0  0  0  0  0  0  0  0  0  0
   -5.8880   23.7790  -31.0210 C   0  0  0  0  0  0  0  0  0  0  0  0
   -4.6160   24.3640  -30.4580 C   0  0  0  0  0  0  0  0  0  0  0  0
   -4.2450   25.5090  -30.8400 O   0  0  0  0  0  0  0  0  0  0  0  0
   -3.8210   23.6460  -29.4870 N   0  0  0  0  0  0  0  0  0  0  0  0
   -2.7940   24.3620  -28.7150 C   0  0  0  0  0  0  0  0  0  0  0  0
   -3.2410   24.5400  -27.2680 C   0  0  0  0  0  0  0  0  0  0  0  0
   -3.9500   22.1900  -29.3170 C   0  0  0  0  0  0  0  0  0  0  0  0
   -2.7360   21.4760  -29.9000 C   0  0  0  0  0  0  0  0  0  0  0  0
   -4.5750   22.5610  -32.6990 C   0  0  0  0  0  0  0  0  0  0  0  0
   -4.3100   21.4630  -33.4630 N   0  0  0  0  0  0  0  0  0  0  0  0
   -5.0970   20.3710  -33.3370 C   0  0  0  0  0  0  0  0  0  0  0  0
   -4.9720   18.9240  -34.1790 S   0  0  0  0  0  0  0  0  0  0  0  0
   -5.4242   15.5471  -32.7769 H   0  0  0  0  0  0  0  0  0  0  0  0
   -6.0875   14.9369  -34.3307 H   0  0  0  0  0  0  0  0  0  0  0  0
   -4.8722   16.2596  -34.3307 H   0  0  0  0  0  0  0  0  0  0  0  0
   -7.3721   16.8972  -34.6895 H   0  0  0  0  0  0  0  0  0  0  0  0
   -7.5511   16.5649  -32.9243 H   0  0  0  0  0  0  0  0  0  0  0  0
   -7.7448   18.9035  -31.8810 H   0  0  0  0  0  0  0  0  0  0  0  0
   -6.3674   24.5253  -31.6715 H   0  0  0  0  0  0  0  0  0  0  0  0
   -6.5461   23.5112  -30.1812 H   0  0  0  0  0  0  0  0  0  0  0  0
   -1.8575   23.7853  -28.7363 H   0  0  0  0  0  0  0  0  0  0  0  0
   -2.6387   25.3541  -29.1640 H   0  0  0  0  0  0  0  0  0  0  0  0
   -2.4342   24.2187  -26.5928 H   0  0  0  0  0  0  0  0  0  0  0  0
   -3.4734   25.5993  -27.0837 H   0  0  0  0  0  0  0  0  0  0  0  0
   -4.1379   23.9304  -27.0837 H   0  0  0  0  0  0  0  0  0  0  0  0
   -4.0276   21.9560  -28.2450 H   0  0  0  0  0  0  0  0  0  0  0  0
   -4.8521   21.8482  -29.8455 H   0  0  0  0  0  0  0  0  0  0  0  0
   -2.1021   21.1032  -29.0820 H   0  0  0  0  0  0  0  0  0  0  0  0
   -3.0702   20.6306  -30.5194 H   0  0  0  0  0  0  0  0  0  0  0  0
   -2.1596   22.1790  -30.5194 H   0  0  0  0  0  0  0  0  0  0  0  0
   -3.9448   23.4570  -32.7986 H   0  0  0  0  0  0  0  0  0  0  0  0
   -3.5140   21.4690  -34.1400 H   0  0  0  0  0  0  0  0  0  0  0  0
  1  2  1  0
  2  3  1  0
  3  4  2  0
  4  5  1  0
  5  6  1  0
  6  7  2  0
  6  8  1  0
  8  9  1  0
  9 10  1  0
 10 11  2  0
 10 12  1  0
 12 13  1  0
 13 14  1  0
 12 15  1  0
 15 16  1  0
  8 17  1  0
 17 18  2  0
 18 19  1  0
 19 20  1  0
 20  3  1  0
 19  5  2  0
  1 21  1  0
  1 22  1  0
  1 23  1  0
  2 24  1  0
  2 25  1  0
  4 26  1  0
  9 27  1  0
  9 28  1  0
 13 29  1  0
 13 30  1  0
 14 31  1  0
 14 32  1  0
 14 33  1  0
 15 34  1  0
 15 35  1  0
 16 36  1  0
 16 37  1  0
 16 38  1  0
 17 39  1  0
 18 40  1  0
M  CHG  1  18   1
M  END
>  <UniqueID>  (35) 
34

>  <SMILES>  (35) 
CCc1cc2c(=O)n(CC(=O)N(CC)CC)c[nH+]c2s1

>  <Energy>  (35) 
63.60211226585884

>  <Genealogy>  (35) 
CCc1cc2c(=O)n(CC(=O)N(CC)CC)c[nH+]c2s1 (protonated)
CCc1cc2c(=O)n(CC(=O)N(CC)CC)c[nH+]c2s1 (3D coordinates assigned)
CCc1cc2c(=O)n(CC(=O)N(CC)CC)c[nH+]c2s1 (optimized conformer: 63.60211226585884 kcal/mol)

>  <smiles>  (35) 
CCc1cc2c(=O)n(CC(=O)N(CC)CC)cnc2s1

>  <score_type>  (35) 
oracle

>  <origin>  (35) 
adg

>  <m_score__min__energy>  (35) 
-6.8200000000000003

>  <m_primary>  (35) 
energy

$$$$
36:0
     RDKit          3D

 60 63  0  0  0  0  0  0  0  0999 V2000
   -2.4550   14.3100  -34.0110 C   0  0  0  0  0  0  0  0  0  0  0  0
   -3.0910   15.6320  -34.1780 N   0  0  1  0  0  0  0  0  0  0  0  0
   -2.4250   16.3800  -35.2790 C   0  0  0  0  0  0  0  0  0  0  0  0
   -1.3790   17.3490  -34.7670 C   0  0  0  0  0  0  0  0  0  0  0  0
   -0.5440   17.8490  -35.5650 O   0  0  0  0  0  0  0  0  0  0  0  0
   -1.3340   17.7480  -33.3910 N   0  0  0  0  0  0  0  0  0  0  0  0
   -1.8270   18.9770  -32.8400 C   0  0  0  0  0  0  0  0  0  0  0  0
   -1.2730   19.4570  -31.6520 C   0  0  0  0  0  0  0  0  0  0  0  0
   -1.7450   20.6390  -31.0730 C   0  0  0  0  0  0  0  0  0  0  0  0
   -2.8030   21.3700  -31.6640 C   0  0  0  0  0  0  0  0  0  0  0  0
   -3.2950   22.6080  -31.0640 N   0  0  0  0  0  0  0  0  0  0  0  0
   -4.5390   23.2190  -31.5800 C   0  0  0  0  0  0  0  0  0  0  0  0
   -4.9820   24.4610  -30.8010 C   0  0  0  0  0  0  0  0  0  0  0  0
   -3.8730   25.2430  -30.4270 O   0  0  0  0  0  0  0  0  0  0  0  0
   -3.1420   24.5390  -29.4520 C   0  0  0  0  0  0  0  0  0  0  0  0
   -2.4660   23.3050  -30.0570 C   0  0  0  0  0  0  0  0  0  0  0  0
   -3.3790   20.8450  -32.8460 C   0  0  0  0  0  0  0  0  0  0  0  0
   -2.9010   19.6650  -33.4190 C   0  0  0  0  0  0  0  0  0  0  0  0
   -4.5430   15.4700  -34.4490 C   0  0  0  0  0  0  0  0  0  0  0  0
   -5.3410   16.6630  -33.9750 C   0  0  0  0  0  0  0  0  0  0  0  0
   -5.3770   17.8350  -34.7440 C   0  0  0  0  0  0  0  0  0  0  0  0
   -6.0970   18.9490  -34.3020 C   0  0  0  0  0  0  0  0  0  0  0  0
   -6.7940   18.9110  -33.0810 C   0  0  0  0  0  0  0  0  0  0  0  0
   -7.5570   20.0950  -32.6100 C   0  0  0  0  0  0  0  0  0  0  0  0
   -6.9070   21.3250  -32.3910 C   0  0  0  0  0  0  0  0  0  0  0  0
   -7.6290   22.4380  -31.9490 C   0  0  0  0  0  0  0  0  0  0  0  0
   -9.0040   22.3380  -31.7220 C   0  0  0  0  0  0  0  0  0  0  0  0
   -9.6590   21.1240  -31.9360 C   0  0  0  0  0  0  0  0  0  0  0  0
   -8.9440   20.0070  -32.3780 C   0  0  0  0  0  0  0  0  0  0  0  0
   -6.7550   17.7330  -32.3130 C   0  0  0  0  0  0  0  0  0  0  0  0
   -6.0340   16.6210  -32.7560 C   0  0  0  0  0  0  0  0  0  0  0  0
   -2.3479   14.0874  -32.9391 H   0  0  0  0  0  0  0  0  0  0  0  0
   -3.0810   13.5395  -34.4847 H   0  0  0  0  0  0  0  0  0  0  0  0
   -1.4623   14.3182  -34.4847 H   0  0  0  0  0  0  0  0  0  0  0  0
   -2.9540   16.1550  -33.2800 H   0  0  0  0  0  0  0  0  0  0  0  0
   -1.9392   15.6590  -35.9529 H   0  0  0  0  0  0  0  0  0  0  0  0
   -3.1961   16.9639  -35.8028 H   0  0  0  0  0  0  0  0  0  0  0  0
   -0.4577   18.9003  -31.1669 H   0  0  0  0  0  0  0  0  0  0  0  0
   -1.2866   21.0067  -30.1431 H   0  0  0  0  0  0  0  0  0  0  0  0
   -4.3758   23.5066  -32.6291 H   0  0  0  0  0  0  0  0  0  0  0  0
   -5.3360   22.4687  -31.4705 H   0  0  0  0  0  0  0  0  0  0  0  0
   -5.6501   25.0635  -31.4340 H   0  0  0  0  0  0  0  0  0  0  0  0
   -5.5051   24.1355  -29.8897 H   0  0  0  0  0  0  0  0  0  0  0  0
   -2.3711   25.2019  -29.0322 H   0  0  0  0  0  0  0  0  0  0  0  0
   -3.8358   24.2079  -28.6652 H   0  0  0  0  0  0  0  0  0  0  0  0
   -1.5291   23.6227  -30.5379 H   0  0  0  0  0  0  0  0  0  0  0  0
   -2.2950   22.5956  -29.2339 H   0  0  0  0  0  0  0  0  0  0  0  0
   -4.2173   21.3758  -33.3209 H   0  0  0  0  0  0  0  0  0  0  0  0
   -3.3716   19.2724  -34.3325 H   0  0  0  0  0  0  0  0  0  0  0  0
   -4.6915   15.3505  -35.5324 H   0  0  0  0  0  0  0  0  0  0  0  0
   -4.8956   14.5841  -33.9005 H   0  0  0  0  0  0  0  0  0  0  0  0
   -4.8356   17.8782  -35.7006 H   0  0  0  0  0  0  0  0  0  0  0  0
   -6.1185   19.8626  -34.9142 H   0  0  0  0  0  0  0  0  0  0  0  0
   -5.8248   21.4107  -32.5687 H   0  0  0  0  0  0  0  0  0  0  0  0
   -7.1131   23.3947  -31.7796 H   0  0  0  0  0  0  0  0  0  0  0  0
   -9.5699   23.2151  -31.3750 H   0  0  0  0  0  0  0  0  0  0  0  0
  -10.7414   21.0460  -31.7562 H   0  0  0  0  0  0  0  0  0  0  0  0
   -9.4672   19.0540  -32.5456 H   0  0  0  0  0  0  0  0  0  0  0  0
   -7.2962   17.6869  -31.3565 H   0  0  0  0  0  0  0  0  0  0  0  0
   -6.0097   15.7067  -32.1449 H   0  0  0  0  0  0  0  0  0  0  0  0
  1  2  1  0
  2  3  1  0
  3  4  1  0
  4  5  2  0
  4  6  1  0
  6  7  1  0
  7  8  2  0
  8  9  1  0
  9 10  2  0
 10 11  1  0
 11 12  1  0
 12 13  1  0
 13 14  1  0
 14 15  1  0
 15 16  1  0
 10 17  1  0
 17 18  2  0
  2 19  1  0
 19 20  1  0
 20 21  2  0
 21 22  1  0
 22 23  2  0
 23 24  1  0
 24 25  2  0
 25 26  1  0
 26 27  2  0
 27 28  1  0
 28 29  2  0
 23 30  1  0
 30 31  2  0
 18  7  1  0
 31 20  1  0
 16 11  1  0
 29 24  1  0
  1 32  1  0
  1 33  1  0
  1 34  1  0
  2 35  1  1
  3 36  1  0
  3 37  1  0
  8 38  1  0
  9 39  1  0
 12 40  1  0
 12 41  1  0
 13 42  1  0
 13 43  1  0
 15 44  1  0
 15 45  1  0
 16 46  1  0
 16 47  1  0
 17 48  1  0
 18 49  1  0
 19 50  1  0
 19 51  1  0
 21 52  1  0
 22 53  1  0
 25 54  1  0
 26 55  1  0
 27 56  1  0
 28 57  1  0
 29 58  1  0
 30 59  1  0
 31 60  1  0
M  CHG  2   2   1   6  -1
M  END
>  <UniqueID>  (36) 
35

>  <SMILES>  (36) 
C[N@@H+](CC(=O)[N-]c1ccc(N2CCOCC2)cc1)Cc1ccc(-c2ccccc2)cc1

>  <Energy>  (36) 
85.12523591919425

>  <Genealogy>  (36) 
C[NH+](CC(=O)[N-]c1ccc(N2CCOCC2)cc1)Cc1ccc(-c2ccccc2)cc1 (protonated)
C[N@@H+](CC(=O)[N-]c1ccc(N2CCOCC2)cc1)Cc1ccc(-c2ccccc2)cc1 (chirality)
C[N@@H+](CC(=O)[N-]c1ccc(N2CCOCC2)cc1)Cc1ccc(-c2ccccc2)cc1 (3D coordinates assigned)
C[N@@H+](CC(=O)[N-]c1ccc(N2CCOCC2)cc1)Cc1ccc(-c2ccccc2)cc1 (nonaromatic ring conformer: 85.12523591919425 kcal/mol)

>  <smiles>  (36) 
CN(CC(=O)Nc1ccc(N2CCOCC2)cc1)Cc1ccc(-c2ccccc2)cc1

>  <score_type>  (36) 
oracle

>  <origin>  (36) 
adg

>  <m_score__min__energy>  (36) 
-10.460000000000001

>  <m_primary>  (36) 
energy

$$$$
37:0
     RDKit          3D

 35 38  0  0  1  0  0  0  0  0999 V2000
   -2.1450   25.7590  -25.8020 C   0  0  0  0  0  0  0  0  0  0  0  0
   -3.2110   24.9670  -26.1890 C   0  0  0  0  0  0  0  0  0  0  0  0
   -3.2140   24.5370  -27.5090 C   0  0  0  0  0  0  0  0  0  0  0  0
   -2.1990   24.8810  -28.3940 C   0  0  0  0  0  0  0  0  0  0  0  0
   -2.3430   24.3580  -29.7250 N   0  0  0  0  0  0  0  0  0  0  0  0
   -3.5410   24.4070  -30.2530 C   0  0  0  0  0  0  0  0  0  0  0  0
   -3.9780   23.2800  -30.8160 N   0  0  0  0  0  0  0  0  0  0  0  0
   -5.1980   23.2710  -31.3730 C   0  0  0  0  0  0  0  0  0  0  0  0
   -5.7390   22.0680  -32.0060 C   0  0  0  0  0  0  0  0  0  0  0  0
   -5.0560   21.1230  -32.7710 C   0  0  0  0  0  0  0  0  0  0  0  0
   -5.9390   20.1810  -33.1550 N   0  0  0  0  0  0  0  0  0  0  0  0
   -7.1490   20.4950  -32.6610 C   0  0  0  0  0  0  0  0  0  0  0  0
   -8.3570   19.8400  -32.7840 C   0  0  0  0  0  0  0  0  0  0  0  0
   -9.5010   20.3350  -32.1930 C   0  0  0  0  0  0  0  0  0  0  0  0
   -9.3670   21.5120  -31.4780 C   0  0  0  0  0  0  0  0  0  0  0  0
   -8.1320   22.1290  -31.3870 C   0  0  0  0  0  0  0  0  0  0  0  0
   -7.0230   21.6300  -31.9720 N   0  0  0  0  0  0  0  0  0  0  0  0
   -5.9910   24.4010  -31.3680 C   0  0  0  0  0  0  0  0  0  0  0  0
   -5.4750   25.5320  -30.7690 C   0  0  0  0  0  0  0  0  0  0  0  0
   -4.2480   25.5470  -30.2070 N   0  0  0  0  0  0  0  0  0  0  0  0
   -1.1510   25.6620  -28.0060 C   0  0  0  0  0  0  0  0  0  0  0  0
   -1.1280   26.1070  -26.6850 C   0  0  0  0  0  0  0  0  0  0  0  0
   -2.1002   26.1244  -24.7654 H   0  0  0  0  0  0  0  0  0  0  0  0
   -4.0134   24.6926  -25.4884 H   0  0  0  0  0  0  0  0  0  0  0  0
   -4.0425   23.9067  -27.8643 H   0  0  0  0  0  0  0  0  0  0  0  0
   -3.9842   21.1433  -33.0176 H   0  0  0  0  0  0  0  0  0  0  0  0
   -8.4089   18.9065  -33.3636 H   0  0  0  0  0  0  0  0  0  0  0  0
  -10.4691   19.8209  -32.2853 H   0  0  0  0  0  0  0  0  0  0  0  0
  -10.2422   21.9571  -30.9820 H   0  0  0  0  0  0  0  0  0  0  0  0
   -8.0507   23.0647  -30.8143 H   0  0  0  0  0  0  0  0  0  0  0  0
   -6.9926   24.3999  -31.8226 H   0  0  0  0  0  0  0  0  0  0  0  0
   -6.0821   26.4491  -30.7489 H   0  0  0  0  0  0  0  0  0  0  0  0
   -3.8750   26.4280  -29.7540 H   0  0  0  0  0  0  0  0  0  0  0  0
   -0.3510   25.9318  -28.7111 H   0  0  0  0  0  0  0  0  0  0  0  0
   -0.2977   26.7394  -26.3376 H   0  0  0  0  0  0  0  0  0  0  0  0
  1  2  2  0
  2  3  1  0
  3  4  2  0
  4  5  1  0
  5  6  2  0
  6  7  1  0
  7  8  2  0
  8  9  1  0
  9 10  2  0
 10 11  1  0
 11 12  2  0
 12 13  1  0
 13 14  2  0
 14 15  1  0
 15 16  2  0
 16 17  1  0
  8 18  1  0
 18 19  2  0
 19 20  1  0
  4 21  1  0
 21 22  2  0
 22  1  1  0
 20  6  1  0
 17  9  1  0
 17 12  1  0
  1 23  1  0
  2 24  1  0
  3 25  1  0
 10 26  1  0
 13 27  1  0
 14 28  1  0
 15 29  1  0
 16 30  1  0
 18 31  1  0
 19 32  1  0
 20 33  1  0
 21 34  1  0
 22 35  1  0
M  END
>  <smiles>  (37) 
c1ccc(N=c2nc(-c3cnc4ccccn34)cc[nH]2)cc1

>  <score_type>  (37) 
oracle

>  <origin>  (37) 
adg

>  <m_score__min__energy>  (37) 
-8.4700000000000006

>  <m_primary>  (37) 
energy

$$$$
38:0
     RDKit          3D

 50 52  0  0  0  0  0  0  0  0999 V2000
   -8.0540   18.1820  -31.6380 C   0  0  0  0  0  0  0  0  0  0  0  0
   -6.9580   17.9630  -32.6490 C   0  0  0  0  0  0  0  0  0  0  0  0
   -6.4450   16.6570  -32.7590 C   0  0  0  0  0  0  0  0  0  0  0  0
   -5.4650   16.3490  -33.7010 C   0  0  0  0  0  0  0  0  0  0  0  0
   -4.9810   17.3370  -34.5500 C   0  0  0  0  0  0  0  0  0  0  0  0
   -5.4570   18.6440  -34.4440 C   0  0  0  0  0  0  0  0  0  0  0  0
   -6.4140   18.9970  -33.4690 C   0  0  0  0  0  0  0  0  0  0  0  0
   -6.8500   20.4610  -33.4100 C   0  0  0  0  0  0  0  0  0  0  0  0
   -6.6260   21.1470  -32.1050 N   0  0  0  0  0  0  0  0  0  0  0  0
   -5.5510   22.1740  -32.1490 C   0  0  0  0  0  0  0  0  0  0  0  0
   -6.1130   23.6050  -32.1260 C   0  0  0  0  0  0  0  0  0  0  0  0
   -6.9160   23.8660  -30.9030 N   0  0  0  0  0  0  0  0  0  0  0  0
   -6.1250   24.5710  -29.8710 C   0  0  0  0  0  0  0  0  0  0  0  0
   -5.2040   25.6330  -30.4900 C   0  0  0  0  0  0  0  0  0  0  0  0
   -3.8390   25.2170  -30.4500 O   0  0  0  0  0  0  0  0  0  0  0  0
   -3.3410   24.1070  -29.7460 C   0  0  0  0  0  0  0  0  0  0  0  0
   -2.8670   22.9450  -30.3870 C   0  0  0  0  0  0  0  0  0  0  0  0
   -2.3800   21.8740  -29.6310 C   0  0  0  0  0  0  0  0  0  0  0  0
   -2.3660   21.9470  -28.2360 C   0  0  0  0  0  0  0  0  0  0  0  0
   -1.7540   20.6020  -27.2910 Cl  0  0  0  0  0  0  0  0  0  0  0  0
   -2.8420   23.0940  -27.5930 C   0  0  0  0  0  0  0  0  0  0  0  0
   -3.3300   24.1660  -28.3460 C   0  0  0  0  0  0  0  0  0  0  0  0
   -7.5680   22.6460  -30.3560 C   0  0  0  0  0  0  0  0  0  0  0  0
   -7.8770   21.6350  -31.4680 C   0  0  0  0  0  0  0  0  0  0  0  0
   -7.6384   18.0990  -30.6229 H   0  0  0  0  0  0  0  0  0  0  0  0
   -8.4858   19.1842  -31.7766 H   0  0  0  0  0  0  0  0  0  0  0  0
   -8.8378   17.4227  -31.7766 H   0  0  0  0  0  0  0  0  0  0  0  0
   -6.8229   15.8681  -32.0920 H   0  0  0  0  0  0  0  0  0  0  0  0
   -5.0744   15.3232  -33.7725 H   0  0  0  0  0  0  0  0  0  0  0  0
   -4.2219   17.0882  -35.3062 H   0  0  0  0  0  0  0  0  0  0  0  0
   -5.0793   19.4136  -35.1332 H   0  0  0  0  0  0  0  0  0  0  0  0
   -6.2926   21.0117  -34.1821 H   0  0  0  0  0  0  0  0  0  0  0  0
   -7.9389   20.4576  -33.5656 H   0  0  0  0  0  0  0  0  0  0  0  0
   -6.2640   20.3950  -31.4690 H   0  0  0  0  0  0  0  0  0  0  0  0
   -4.8946   22.0372  -31.2770 H   0  0  0  0  0  0  0  0  0  0  0  0
   -4.9980   22.0437  -33.0909 H   0  0  0  0  0  0  0  0  0  0  0  0
   -5.2749   24.3167  -32.1596 H   0  0  0  0  0  0  0  0  0  0  0  0
   -6.7719   23.7263  -32.9985 H   0  0  0  0  0  0  0  0  0  0  0  0
   -6.8135   25.0621  -29.1676 H   0  0  0  0  0  0  0  0  0  0  0  0
   -5.4967   23.8305  -29.3545 H   0  0  0  0  0  0  0  0  0  0  0  0
   -5.4987   25.7977  -31.5369 H   0  0  0  0  0  0  0  0  0  0  0  0
   -5.3029   26.5620  -29.9093 H   0  0  0  0  0  0  0  0  0  0  0  0
   -2.8801   22.8802  -31.4850 H   0  0  0  0  0  0  0  0  0  0  0  0
   -2.0067   20.9711  -30.1365 H   0  0  0  0  0  0  0  0  0  0  0  0
   -2.8324   23.1527  -26.4946 H   0  0  0  0  0  0  0  0  0  0  0  0
   -3.7086   25.0636  -27.8351 H   0  0  0  0  0  0  0  0  0  0  0  0
   -6.8950   22.1779  -29.6226 H   0  0  0  0  0  0  0  0  0  0  0  0
   -8.5152   22.9410  -29.8809 H   0  0  0  0  0  0  0  0  0  0  0  0
   -8.4186   20.7801  -31.0369 H   0  0  0  0  0  0  0  0  0  0  0  0
   -8.4902   22.1322  -32.2340 H   0  0  0  0  0  0  0  0  0  0  0  0
  1  2  1  0
  2  3  2  0
  3  4  1  0
  4  5  2  0
  5  6  1  0
  6  7  2  0
  7  8  1  0
  8  9  1  0
  9 10  1  0
 10 11  1  0
 11 12  1  0
 12 13  1  0
 13 14  1  0
 14 15  1  0
 15 16  1  0
 16 17  2  0
 17 18  1  0
 18 19  2  0
 19 20  1  0
 19 21  1  0
 21 22  2  0
 12 23  1  0
 23 24  1  0
  7  2  1  0
 24  9  1  0
 22 16  1  0
  1 25  1  0
  1 26  1  0
  1 27  1  0
  3 28  1  0
  4 29  1  0
  5 30  1  0
  6 31  1  0
  8 32  1  0
  8 33  1  0
  9 34  1  0
 10 35  1  0
 10 36  1  0
 11 37  1  0
 11 38  1  0
 13 39  1  0
 13 40  1  0
 14 41  1  0
 14 42  1  0
 17 43  1  0
 18 44  1  0
 21 45  1  0
 22 46  1  0
 23 47  1  0
 23 48  1  0
 24 49  1  0
 24 50  1  0
M  CHG  1   9   1
M  END
>  <UniqueID>  (38) 
36

>  <SMILES>  (38) 
Cc1ccccc1C[NH+]1CCN(CCOc2ccc(Cl)cc2)CC1

>  <Energy>  (38) 
72.50885670236947

>  <Genealogy>  (38) 
Cc1ccccc1C[NH+]1CCN(CCOc2ccc(Cl)cc2)CC1 (protonated)
Cc1ccccc1C[NH+]1CCN(CCOc2ccc(Cl)cc2)CC1 (3D coordinates assigned)
Cc1ccccc1C[NH+]1CCN(CCOc2ccc(Cl)cc2)CC1 (nonaromatic ring conformer: 72.50885670236947 kcal/mol)

>  <smiles>  (38) 
Cc1ccccc1CN1CCN(CCOc2ccc(Cl)cc2)CC1

>  <score_type>  (38) 
oracle

>  <origin>  (38) 
adg

>  <m_score__min__energy>  (38) 
-8.6500000000000004

>  <m_primary>  (38) 
energy

$$$$
39:0
     RDKit          3D

 42 45  0  0  0  0  0  0  0  0999 V2000
   -5.2583   20.9800  -34.5435 H   0  0  0  0  0  0  0  0  0  0  0  0
   -5.1030   20.8710  -33.4600 C   0  0  0  0  0  0  0  0  0  0  0  0
   -6.1850   20.9540  -32.6560 C   0  0  0  0  0  0  0  0  0  0  0  0
   -6.3510   22.1490  -31.7910 C   0  0  0  0  0  0  0  0  0  0  0  0
   -5.7840   23.3850  -32.1520 C   0  0  0  0  0  0  0  0  0  0  0  0
   -5.2175   23.4731  -33.0908 H   0  0  0  0  0  0  0  0  0  0  0  0
   -5.9360   24.5020  -31.3250 C   0  0  0  0  0  0  0  0  0  0  0  0
   -5.4891   25.4645  -31.6147 H   0  0  0  0  0  0  0  0  0  0  0  0
   -6.6540   24.3980  -30.1320 C   0  0  0  0  0  0  0  0  0  0  0  0
   -6.7731   25.2781  -29.4830 H   0  0  0  0  0  0  0  0  0  0  0  0
   -7.2210   23.1760  -29.7630 C   0  0  0  0  0  0  0  0  0  0  0  0
   -7.7870   23.0954  -28.8233 H   0  0  0  0  0  0  0  0  0  0  0  0
   -7.0710   22.0550  -30.5850 C   0  0  0  0  0  0  0  0  0  0  0  0
   -7.5178   21.0948  -30.2878 H   0  0  0  0  0  0  0  0  0  0  0  0
   -7.2350   19.8580  -32.5900 C   0  0  0  0  0  0  0  0  0  0  0  0
   -8.0040   20.1429  -31.8569 H   0  0  0  0  0  0  0  0  0  0  0  0
   -7.6747   19.7394  -33.5913 H   0  0  0  0  0  0  0  0  0  0  0  0
   -6.6480   18.5790  -32.1910 N   0  0  0  0  0  0  0  0  0  0  0  0
   -6.7220   18.0660  -30.9660 N   0  0  0  0  0  0  0  0  0  0  0  0
   -6.1130   16.8850  -30.9220 N   0  0  0  0  0  0  0  0  0  0  0  0
   -6.0360   16.2770  -30.0760 H   0  0  0  0  0  0  0  0  0  0  0  0
   -5.6330   16.6460  -32.1530 C   0  0  0  0  0  0  0  0  0  0  0  0
   -4.9200   15.5500  -32.6270 C   0  0  0  0  0  0  0  0  0  0  0  0
   -4.6680   14.7032  -31.9717 H   0  0  0  0  0  0  0  0  0  0  0  0
   -4.5340   15.5700  -33.9820 C   0  0  0  0  0  0  0  0  0  0  0  0
   -3.9707   14.7232  -34.4011 H   0  0  0  0  0  0  0  0  0  0  0  0
   -4.8650   16.6710  -34.8090 C   0  0  0  0  0  0  0  0  0  0  0  0
   -4.5546   16.6733  -35.8643 H   0  0  0  0  0  0  0  0  0  0  0  0
   -5.5890   17.7640  -34.2910 C   0  0  0  0  0  0  0  0  0  0  0  0
   -5.8510   18.6280  -34.9194 H   0  0  0  0  0  0  0  0  0  0  0  0
   -5.9590   17.7030  -32.9470 C   0  0  0  0  0  0  0  0  0  0  0  0
   -3.7280   20.6440  -32.9810 C   0  0  0  0  0  0  0  0  0  0  0  0
   -2.9690   19.5990  -33.5280 C   0  0  0  0  0  0  0  0  0  0  0  0
   -3.4040   18.9540  -34.3056 H   0  0  0  0  0  0  0  0  0  0  0  0
   -1.6620   19.3750  -33.0880 C   0  0  0  0  0  0  0  0  0  0  0  0
   -1.0645   18.5644  -33.5306 H   0  0  0  0  0  0  0  0  0  0  0  0
   -1.1130   20.1800  -32.0860 C   0  0  0  0  0  0  0  0  0  0  0  0
   -0.0815   20.0066  -31.7456 H   0  0  0  0  0  0  0  0  0  0  0  0
   -1.8730   21.2050  -31.5160 C   0  0  0  0  0  0  0  0  0  0  0  0
   -1.4429   21.8312  -30.7205 H   0  0  0  0  0  0  0  0  0  0  0  0
   -3.1810   21.4350  -31.9570 C   0  0  0  0  0  0  0  0  0  0  0  0
   -3.7815   22.2361  -31.5013 H   0  0  0  0  0  0  0  0  0  0  0  0
  1  2  1  0
  2  3  2  0
  3  4  1  0
  4  5  2  0
  5  6  1  0
  5  7  1  0
  7  8  1  0
  7  9  2  0
  9 10  1  0
  9 11  1  0
 11 12  1  0
 11 13  2  0
 13 14  1  0
  3 15  1  0
 15 16  1  0
 15 17  1  0
 15 18  1  0
 18 19  1  0
 19 20  2  0
 20 21  1  0
 20 22  1  0
 22 23  2  0
 23 24  1  0
 23 25  1  0
 25 26  1  0
 25 27  2  0
 27 28  1  0
 27 29  1  0
 29 30  1  0
 29 31  2  0
  2 32  1  0
 32 33  2  0
 33 34  1  0
 33 35  1  0
 35 36  1  0
 35 37  2  0
 37 38  1  0
 37 39  1  0
 39 40  1  0
 39 41  2  0
 41 42  1  0
 13  4  1  0
 31 18  1  0
 41 32  1  0
 31 22  1  0
M  CHG  1  20   1
M  END
>  <UniqueID>  (39) 
37

>  <SMILES>  (39) 
C(=C(\Cn1n[nH+]c2ccccc21)c1ccccc1)\c1ccccc1

>  <Energy>  (39) 
101.25017350008547

>  <Genealogy>  (39) 
C(=C(Cn1n[nH+]c2ccccc21)c1ccccc1)c1ccccc1 (protonated)
C(=C(\Cn1n[nH+]c2ccccc21)c1ccccc1)\c1ccccc1 (cis-trans isomerization)
C(=C(\Cn1n[nH+]c2ccccc21)c1ccccc1)\c1ccccc1 (3D coordinates assigned)
C(=C(\Cn1n[nH+]c2ccccc21)c1ccccc1)\c1ccccc1 (optimized conformer: 101.25017350008547 kcal/mol)

>  <smiles>  (39) 
C(=C(Cn1nnc2ccccc21)c1ccccc1)c1ccccc1

>  <score_type>  (39) 
oracle

>  <origin>  (39) 
adg

>  <m_score__min__energy>  (39) 
-8.6899999999999995

>  <m_primary>  (39) 
energy

$$$$
40:0
     RDKit          3D

 51 53  0  0  0  0  0  0  0  0999 V2000
   -4.1720   23.0400  -29.0060 C   0  0  0  0  0  0  0  0  0  0  0  0
   -2.8810   23.8250  -29.2010 C   0  0  0  0  0  0  0  0  0  0  0  0
   -2.0760   23.2120  -30.2620 N   0  0  0  0  0  0  0  0  0  0  0  0
   -1.6170   21.8800  -29.8570 C   0  0  0  0  0  0  0  0  0  0  0  0
   -1.9190   20.8170  -30.9410 C   0  0  0  0  0  0  0  0  0  0  0  0
   -2.1440   21.3290  -32.3230 N   0  0  1  0  0  0  0  0  0  0  0  0
   -0.9180   21.3480  -33.1440 C   0  0  0  0  0  0  0  0  0  0  0  0
   -3.2460   20.6270  -33.0350 C   0  0  0  0  0  0  0  0  0  0  0  0
   -4.6170   21.1920  -32.6780 C   0  0  0  0  0  0  0  0  0  0  0  0
   -4.6890   22.5610  -32.3720 C   0  0  0  0  0  0  0  0  0  0  0  0
   -5.8940   23.1570  -32.0190 C   0  0  0  0  0  0  0  0  0  0  0  0
   -7.0710   22.4060  -31.9840 C   0  0  0  0  0  0  0  0  0  0  0  0
   -8.2820   23.0260  -31.6380 C   0  0  0  0  0  0  0  0  0  0  0  0
   -9.4690   22.2930  -31.6240 C   0  0  0  0  0  0  0  0  0  0  0  0
   -9.4590   20.9410  -31.9630 C   0  0  0  0  0  0  0  0  0  0  0  0
   -8.2620   20.3100  -32.3080 C   0  0  0  0  0  0  0  0  0  0  0  0
   -7.0420   21.0260  -32.3110 C   0  0  0  0  0  0  0  0  0  0  0  0
   -5.8040   20.4090  -32.6530 C   0  0  0  0  0  0  0  0  0  0  0  0
   -5.7660   18.9650  -32.9950 C   0  0  0  0  0  0  0  0  0  0  0  0
   -5.7910   17.9970  -31.9780 C   0  0  0  0  0  0  0  0  0  0  0  0
   -5.8140   16.6370  -32.3010 C   0  0  0  0  0  0  0  0  0  0  0  0
   -5.8070   16.2370  -33.6400 C   0  0  0  0  0  0  0  0  0  0  0  0
   -5.7870   17.1950  -34.6580 C   0  0  0  0  0  0  0  0  0  0  0  0
   -5.7760   18.5560  -34.3380 C   0  0  0  0  0  0  0  0  0  0  0  0
   -4.3693   22.9200  -27.9305 H   0  0  0  0  0  0  0  0  0  0  0  0
   -5.0061   23.5840  -29.4733 H   0  0  0  0  0  0  0  0  0  0  0  0
   -4.0728   22.0492  -29.4733 H   0  0  0  0  0  0  0  0  0  0  0  0
   -3.1234   24.8610  -29.4803 H   0  0  0  0  0  0  0  0  0  0  0  0
   -2.3078   23.8157  -28.2622 H   0  0  0  0  0  0  0  0  0  0  0  0
   -1.2280   23.8060  -30.3980 H   0  0  0  0  0  0  0  0  0  0  0  0
   -0.5312   21.9143  -29.6839 H   0  0  0  0  0  0  0  0  0  0  0  0
   -2.1534   21.5965  -28.9394 H   0  0  0  0  0  0  0  0  0  0  0  0
   -1.0671   20.1220  -30.9755 H   0  0  0  0  0  0  0  0  0  0  0  0
   -2.8706   20.3540  -30.6410 H   0  0  0  0  0  0  0  0  0  0  0  0
   -2.4170   22.3360  -32.2210 H   0  0  0  0  0  0  0  0  0  0  0  0
   -0.0364   21.3617  -32.4862 H   0  0  0  0  0  0  0  0  0  0  0  0
   -0.8879   20.4502  -33.7789 H   0  0  0  0  0  0  0  0  0  0  0  0
   -0.9157   22.2463  -33.7789 H   0  0  0  0  0  0  0  0  0  0  0  0
   -3.0909   20.7327  -34.1189 H   0  0  0  0  0  0  0  0  0  0  0  0
   -3.2265   19.5709  -32.7280 H   0  0  0  0  0  0  0  0  0  0  0  0
   -3.7754   23.1723  -32.4125 H   0  0  0  0  0  0  0  0  0  0  0  0
   -5.9208   24.2271  -31.7656 H   0  0  0  0  0  0  0  0  0  0  0  0
   -8.2951   24.0944  -31.3768 H   0  0  0  0  0  0  0  0  0  0  0  0
  -10.4138   22.7825  -31.3451 H   0  0  0  0  0  0  0  0  0  0  0  0
  -10.3983   20.3685  -31.9587 H   0  0  0  0  0  0  0  0  0  0  0  0
   -8.2678   19.2443  -32.5805 H   0  0  0  0  0  0  0  0  0  0  0  0
   -5.7925   18.3099  -30.9235 H   0  0  0  0  0  0  0  0  0  0  0  0
   -5.8376   15.8820  -31.5014 H   0  0  0  0  0  0  0  0  0  0  0  0
   -5.8172   15.1666  -33.8934 H   0  0  0  0  0  0  0  0  0  0  0  0
   -5.7799   16.8779  -35.7113 H   0  0  0  0  0  0  0  0  0  0  0  0
   -5.7752   19.3083  -35.1406 H   0  0  0  0  0  0  0  0  0  0  0  0
  1  2  1  0
  2  3  1  0
  3  4  1  0
  4  5  1  0
  5  6  1  0
  6  7  1  0
  6  8  1  0
  8  9  1  0
  9 10  2  0
 10 11  1  0
 11 12  2  0
 12 13  1  0
 13 14  2  0
 14 15  1  0
 15 16  2  0
 16 17  1  0
 17 18  2  0
 18 19  1  0
 19 20  2  0
 20 21  1  0
 21 22  2  0
 22 23  1  0
 23 24  2  0
 18  9  1  0
 24 19  1  0
 17 12  1  0
  1 25  1  0
  1 26  1  0
  1 27  1  0
  2 28  1  0
  2 29  1  0
  3 30  1  0
  4 31  1  0
  4 32  1  0
  5 33  1  0
  5 34  1  0
  6 35  1  1
  7 36  1  0
  7 37  1  0
  7 38  1  0
  8 39  1  0
  8 40  1  0
 10 41  1  0
 11 42  1  0
 13 43  1  0
 14 44  1  0
 15 45  1  0
 16 46  1  0
 20 47  1  0
 21 48  1  0
 22 49  1  0
 23 50  1  0
 24 51  1  0
M  CHG  1   6   1
M  END
>  <UniqueID>  (40) 
38

>  <SMILES>  (40) 
CCNCC[N@@H+](C)Cc1ccc2ccccc2c1-c1ccccc1

>  <Energy>  (40) 
66.78162150824731

>  <Genealogy>  (40) 
CCNCC[NH+](C)Cc1ccc2ccccc2c1-c1ccccc1 (protonated)
CCNCC[N@@H+](C)Cc1ccc2ccccc2c1-c1ccccc1 (chirality)
CCNCC[N@@H+](C)Cc1ccc2ccccc2c1-c1ccccc1 (3D coordinates assigned)
CCNCC[N@@H+](C)Cc1ccc2ccccc2c1-c1ccccc1 (optimized conformer: 66.78162150824731 kcal/mol)

>  <smiles>  (40) 
CCNCCN(C)Cc1ccc2ccccc2c1-c1ccccc1

>  <score_type>  (40) 
oracle

>  <origin>  (40) 
adg

>  <m_score__min__energy>  (40) 
-8.2200000000000006

>  <m_primary>  (40) 
energy

$$$$
41:0
     RDKit          3D

 26 26  0  0  0  0  0  0  0  0999 V2000
   -2.0329   26.2997  -26.6125 H   0  0  0  0  0  0  0  0  0  0  0  0
   -1.5220   25.4450  -26.1450 C   0  0  0  0  0  0  0  0  0  0  0  0
   -1.3090   24.2650  -26.8730 C   0  0  0  0  0  0  0  0  0  0  0  0
   -1.7600   24.1710  -28.3050 C   0  0  0  0  0  0  0  0  0  0  0  0
   -1.7563   23.1165  -28.6180 H   0  0  0  0  0  0  0  0  0  0  0  0
   -1.0724   24.7540  -28.9353 H   0  0  0  0  0  0  0  0  0  0  0  0
   -3.1110   24.7120  -28.4490 N   0  0  0  0  0  0  0  0  0  0  0  0
   -3.5300   25.2170  -27.6370 H   0  0  0  0  0  0  0  0  0  0  0  0
   -3.8900   24.5670  -29.6470 C   0  0  0  0  0  0  0  0  0  0  0  0
   -3.3880   23.9200  -30.6630 N   0  0  0  0  0  0  0  0  0  0  0  0
   -3.5500   22.5010  -30.9530 C   0  0  0  0  0  0  0  0  0  0  0  0
   -3.6142   21.9390  -30.0096 H   0  0  0  0  0  0  0  0  0  0  0  0
   -4.4714   22.3484  -31.5341 H   0  0  0  0  0  0  0  0  0  0  0  0
   -2.6867   22.1446  -31.5341 H   0  0  0  0  0  0  0  0  0  0  0  0
   -5.1740   25.2100  -29.7130 N   0  0  0  0  0  0  0  0  0  0  0  0
   -5.3370   26.0450  -29.1070 H   0  0  0  0  0  0  0  0  0  0  0  0
   -6.3130   24.5600  -30.2100 C   0  0  0  0  0  0  0  0  0  0  0  0
   -7.2530   24.0250  -30.6220 N   0  0  0  0  0  0  0  0  0  0  0  0
   -0.6490   23.1930  -26.2570 C   0  0  0  0  0  0  0  0  0  0  0  0
   -0.4675   22.2611  -26.8125 H   0  0  0  0  0  0  0  0  0  0  0  0
   -0.2230   23.3170  -24.9310 C   0  0  0  0  0  0  0  0  0  0  0  0
    0.2939   22.4791  -24.4404 H   0  0  0  0  0  0  0  0  0  0  0  0
   -0.4460   24.4710  -24.2460 N   0  0  0  0  0  0  0  0  0  0  0  0
   -0.1210   24.5480  -23.2560 H   0  0  0  0  0  0  0  0  0  0  0  0
   -1.0810   25.5270  -24.8230 C   0  0  0  0  0  0  0  0  0  0  0  0
   -1.2475   26.4485  -24.2458 H   0  0  0  0  0  0  0  0  0  0  0  0
  1  2  1  0
  2  3  2  0
  3  4  1  0
  4  5  1  0
  4  6  1  0
  4  7  1  0
  7  8  1  0
  7  9  1  0
  9 10  2  0
 10 11  1  0
 11 12  1  0
 11 13  1  0
 11 14  1  0
  9 15  1  0
 15 16  1  0
 15 17  1  0
 17 18  3  0
  3 19  1  0
 19 20  1  0
 19 21  2  0
 21 22  1  0
 21 23  1  0
 23 24  1  0
 23 25  2  0
 25 26  1  0
 25  2  1  0
M  CHG  1  23   1
M  END
>  <UniqueID>  (41) 
39

>  <SMILES>  (41) 
C/N=C(\NC#N)NCc1cc[nH+]cc1

>  <Energy>  (41) 
23.582580458223546

>  <Genealogy>  (41) 
CN=C(NC#N)NCc1cc[nH+]cc1 (protonated)
C/N=C(\NC#N)NCc1cc[nH+]cc1 (cis-trans isomerization)
C/N=C(\NC#N)NCc1cc[nH+]cc1 (3D coordinates assigned)
C/N=C(\NC#N)NCc1cc[nH+]cc1 (optimized conformer: 23.582580458223546 kcal/mol)

>  <smiles>  (41) 
CN=C(NC#N)NCc1ccncc1

>  <score_type>  (41) 
oracle

>  <origin>  (41) 
adg

>  <m_score__min__energy>  (41) 
-4.9299999999999997

>  <m_primary>  (41) 
energy

$$$$
42:0
     RDKit          3D

 53 56  0  0  0  0  0  0  0  0999 V2000
   -4.6180   22.2180  -32.7080 C   0  0  0  0  0  0  0  0  0  0  0  0
   -5.3250   20.9890  -32.5760 O   0  0  0  0  0  0  0  0  0  0  0  0
   -6.7140   20.8820  -32.4010 C   0  0  0  0  0  0  0  0  0  0  0  0
   -7.4910   21.9690  -31.9500 C   0  0  0  0  0  0  0  0  0  0  0  0
   -8.8670   21.8220  -31.7610 C   0  0  0  0  0  0  0  0  0  0  0  0
   -9.4830   20.5970  -32.0170 C   0  0  0  0  0  0  0  0  0  0  0  0
   -8.7260   19.5150  -32.4670 C   0  0  0  0  0  0  0  0  0  0  0  0
   -7.3420   19.6480  -32.6660 C   0  0  0  0  0  0  0  0  0  0  0  0
   -6.5840   18.5250  -33.1490 N   0  0  0  0  0  0  0  0  0  0  0  0
   -6.1750   17.4610  -32.2210 C   0  0  0  0  0  0  0  0  0  0  0  0
   -4.9600   16.7040  -32.7770 C   0  0  0  0  0  0  0  0  0  0  0  0
   -4.0140   17.6550  -33.3990 N   0  0  0  0  0  0  0  0  0  0  0  0
   -2.6650   17.0780  -33.6350 C   0  0  0  0  0  0  0  0  0  0  0  0
   -1.4980   17.6320  -32.7730 C   0  0  0  0  0  0  0  0  0  0  0  0
   -1.1810   19.0480  -33.0470 N   0  0  0  0  0  0  0  0  0  0  0  0
   -1.8700   20.0690  -32.2890 C   0  0  0  0  0  0  0  0  0  0  0  0
   -2.7690   19.7660  -31.4600 O   0  0  0  0  0  0  0  0  0  0  0  0
   -1.4950   21.5070  -32.4640 C   0  0  0  0  0  0  0  0  0  0  0  0
   -1.1300   21.7620  -33.8160 O   0  0  0  0  0  0  0  0  0  0  0  0
   -0.4170   20.8330  -34.5770 C   0  0  0  0  0  0  0  0  0  0  0  0
    0.2630   21.2660  -35.7190 C   0  0  0  0  0  0  0  0  0  0  0  0
    1.0220   20.3660  -36.4660 C   0  0  0  0  0  0  0  0  0  0  0  0
    1.1060   19.0310  -36.0720 C   0  0  0  0  0  0  0  0  0  0  0  0
    0.4110   18.5830  -34.9440 C   0  0  0  0  0  0  0  0  0  0  0  0
   -0.3890   19.4740  -34.1930 C   0  0  0  0  0  0  0  0  0  0  0  0
   -4.5790   18.3370  -34.5960 C   0  0  0  0  0  0  0  0  0  0  0  0
   -6.1130   18.4890  -34.5380 C   0  0  0  0  0  0  0  0  0  0  0  0
   -4.3880   22.6178  -31.7094 H   0  0  0  0  0  0  0  0  0  0  0  0
   -3.6814   22.0449  -33.2583 H   0  0  0  0  0  0  0  0  0  0  0  0
   -5.2384   22.9407  -33.2583 H   0  0  0  0  0  0  0  0  0  0  0  0
   -7.0110   22.9375  -31.7460 H   0  0  0  0  0  0  0  0  0  0  0  0
   -9.4665   22.6746  -31.4093 H   0  0  0  0  0  0  0  0  0  0  0  0
  -10.5664   20.4840  -31.8640 H   0  0  0  0  0  0  0  0  0  0  0  0
   -9.2164   18.5510  -32.6674 H   0  0  0  0  0  0  0  0  0  0  0  0
   -5.9110   17.9077  -31.2510 H   0  0  0  0  0  0  0  0  0  0  0  0
   -7.0094   16.7550  -32.0973 H   0  0  0  0  0  0  0  0  0  0  0  0
   -4.4556   16.1720  -31.9569 H   0  0  0  0  0  0  0  0  0  0  0  0
   -5.2993   15.9834  -33.5357 H   0  0  0  0  0  0  0  0  0  0  0  0
   -3.8530   18.4090  -32.6870 H   0  0  0  0  0  0  0  0  0  0  0  0
   -2.7301   15.9959  -33.4484 H   0  0  0  0  0  0  0  0  0  0  0  0
   -2.4128   17.3573  -34.6686 H   0  0  0  0  0  0  0  0  0  0  0  0
   -1.7732   17.5362  -31.7123 H   0  0  0  0  0  0  0  0  0  0  0  0
   -0.6026   17.0459  -33.0275 H   0  0  0  0  0  0  0  0  0  0  0  0
   -2.3525   22.1409  -32.1940 H   0  0  0  0  0  0  0  0  0  0  0  0
   -0.6379   21.7347  -31.8132 H   0  0  0  0  0  0  0  0  0  0  0  0
    0.1991   22.3194  -36.0291 H   0  0  0  0  0  0  0  0  0  0  0  0
    1.5542   20.7088  -37.3656 H   0  0  0  0  0  0  0  0  0  0  0  0
    1.7217   18.3270  -36.6510 H   0  0  0  0  0  0  0  0  0  0  0  0
    0.4876   17.5289  -34.6389 H   0  0  0  0  0  0  0  0  0  0  0  0
   -4.1306   19.3385  -34.6725 H   0  0  0  0  0  0  0  0  0  0  0  0
   -4.3441   17.7127  -35.4707 H   0  0  0  0  0  0  0  0  0  0  0  0
   -6.4014   19.4242  -35.0403 H   0  0  0  0  0  0  0  0  0  0  0  0
   -6.5708   17.6249  -35.0418 H   0  0  0  0  0  0  0  0  0  0  0  0
  1  2  1  0
  2  3  1  0
  3  4  2  0
  4  5  1  0
  5  6  2  0
  6  7  1  0
  7  8  2  0
  8  9  1  0
  9 10  1  0
 10 11  1  0
 11 12  1  0
 12 13  1  0
 13 14  1  0
 14 15  1  0
 15 16  1  0
 16 17  2  0
 16 18  1  0
 18 19  1  0
 19 20  1  0
 20 21  2  0
 21 22  1  0
 22 23  2  0
 23 24  1  0
 24 25  2  0
 12 26  1  0
 26 27  1  0
  8  3  1  0
 27  9  1  0
 25 15  1  0
 25 20  1  0
  1 28  1  0
  1 29  1  0
  1 30  1  0
  4 31  1  0
  5 32  1  0
  6 33  1  0
  7 34  1  0
 10 35  1  0
 10 36  1  0
 11 37  1  0
 11 38  1  0
 12 39  1  0
 13 40  1  0
 13 41  1  0
 14 42  1  0
 14 43  1  0
 18 44  1  0
 18 45  1  0
 21 46  1  0
 22 47  1  0
 23 48  1  0
 24 49  1  0
 26 50  1  0
 26 51  1  0
 27 52  1  0
 27 53  1  0
M  CHG  1  12   1
M  END
>  <UniqueID>  (42) 
40

>  <SMILES>  (42) 
COc1ccccc1N1CC[NH+](CCN2C(=O)COc3ccccc32)CC1

>  <Energy>  (42) 
77.95541478257785

>  <Genealogy>  (42) 
COc1ccccc1N1CC[NH+](CCN2C(=O)COc3ccccc32)CC1 (protonated)
COc1ccccc1N1CC[NH+](CCN2C(=O)COc3ccccc32)CC1 (3D coordinates assigned)
COc1ccccc1N1CC[NH+](CCN2C(=O)COc3ccccc32)CC1 (nonaromatic ring conformer: 77.95541478257785 kcal/mol)

>  <smiles>  (42) 
COc1ccccc1N1CCN(CCN2C(=O)COc3ccccc32)CC1

>  <score_type>  (42) 
oracle

>  <origin>  (42) 
adg

>  <m_score__min__energy>  (42) 
-7.5499999999999998

>  <m_primary>  (42) 
energy

$$$$
43:0
     RDKit          3D

 53 55  0  0  0  0  0  0  0  0999 V2000
    0.2990   20.8400  -36.1280 C   0  0  0  0  0  0  0  0  0  0  0  0
   -0.0580   21.4990  -34.7840 C   0  0  0  0  0  0  0  0  0  0  0  0
   -0.6290   20.5850  -33.7510 N   0  0  0  0  0  0  0  0  0  0  0  0
   -0.3970   19.1450  -34.0390 C   0  0  0  0  0  0  0  0  0  0  0  0
   -1.6960   18.3440  -34.1980 C   0  0  0  0  0  0  0  0  0  0  0  0
   -0.3000   21.0000  -32.3590 C   0  0  0  0  0  0  0  0  0  0  0  0
   -1.5140   21.2550  -31.4490 C   0  0  0  0  0  0  0  0  0  0  0  0
   -2.6290   20.4840  -31.8890 O   0  0  0  0  0  0  0  0  0  0  0  0
   -3.5880   20.9550  -32.7940 C   0  0  0  0  0  0  0  0  0  0  0  0
   -3.2320   21.5900  -33.8230 O   0  0  0  0  0  0  0  0  0  0  0  0
   -5.0200   20.6840  -32.5430 C   0  0  0  0  0  0  0  0  0  0  0  0
   -5.8360   21.5110  -31.7580 C   0  0  0  0  0  0  0  0  0  0  0  0
   -5.5120   22.8240  -31.2770 N   0  0  0  0  0  0  0  0  0  0  0  0
   -4.2880   23.3870  -31.2420 C   0  0  0  0  0  0  0  0  0  0  0  0
   -4.2970   24.6130  -30.6770 N   0  0  0  0  0  0  0  0  0  0  0  0
   -5.5850   24.7970  -30.3220 C   0  0  0  0  0  0  0  0  0  0  0  0
   -6.1080   26.0460  -29.6960 C   0  0  0  0  0  0  0  0  0  0  0  0
   -6.3370   23.7040  -30.6850 C   0  0  0  0  0  0  0  0  0  0  0  0
   -7.3340   20.7790  -31.5290 S   0  0  0  0  0  0  0  0  0  0  0  0
   -6.9770   19.4040  -32.4200 C   0  0  0  0  0  0  0  0  0  0  0  0
   -5.6900   19.5050  -32.9470 C   0  0  0  0  0  0  0  0  0  0  0  0
   -5.0690   18.3620  -33.7170 C   0  0  0  0  0  0  0  0  0  0  0  0
   -6.1250   17.3610  -34.2210 C   0  0  0  0  0  0  0  0  0  0  0  0
   -7.1480   17.0180  -33.1270 C   0  0  0  0  0  0  0  0  0  0  0  0
   -7.9190   18.2700  -32.6860 C   0  0  0  0  0  0  0  0  0  0  0  0
    0.8155   19.8866  -35.9431 H   0  0  0  0  0  0  0  0  0  0  0  0
   -0.6214   20.6534  -36.7008 H   0  0  0  0  0  0  0  0  0  0  0  0
    0.9581   21.5090  -36.7008 H   0  0  0  0  0  0  0  0  0  0  0  0
    0.8587   21.9457  -34.3716 H   0  0  0  0  0  0  0  0  0  0  0  0
   -0.8471   22.2321  -35.0076 H   0  0  0  0  0  0  0  0  0  0  0  0
   -1.6660   20.7220  -33.8240 H   0  0  0  0  0  0  0  0  0  0  0  0
    0.1805   19.0635  -34.9717 H   0  0  0  0  0  0  0  0  0  0  0  0
    0.1446   18.7227  -33.1798 H   0  0  0  0  0  0  0  0  0  0  0  0
   -2.0979   18.0962  -33.2045 H   0  0  0  0  0  0  0  0  0  0  0  0
   -2.4321   18.9453  -34.7518 H   0  0  0  0  0  0  0  0  0  0  0  0
   -1.4893   17.4163  -34.7518 H   0  0  0  0  0  0  0  0  0  0  0  0
    0.3078   20.2056  -31.9014 H   0  0  0  0  0  0  0  0  0  0  0  0
    0.2269   21.9619  -32.4429 H   0  0  0  0  0  0  0  0  0  0  0  0
   -1.2605   20.9712  -30.4169 H   0  0  0  0  0  0  0  0  0  0  0  0
   -1.7764   22.3224  -31.4911 H   0  0  0  0  0  0  0  0  0  0  0  0
   -3.3812   22.9009  -31.6311 H   0  0  0  0  0  0  0  0  0  0  0  0
   -6.0685   25.9516  -28.6008 H   0  0  0  0  0  0  0  0  0  0  0  0
   -5.4921   26.9006  -30.0128 H   0  0  0  0  0  0  0  0  0  0  0  0
   -7.1490   26.2068  -30.0128 H   0  0  0  0  0  0  0  0  0  0  0  0
   -7.4169   23.5740  -30.5206 H   0  0  0  0  0  0  0  0  0  0  0  0
   -4.5264   18.7707  -34.5822 H   0  0  0  0  0  0  0  0  0  0  0  0
   -4.3908   17.8251  -33.0375 H   0  0  0  0  0  0  0  0  0  0  0  0
   -6.6541   17.8021  -35.0786 H   0  0  0  0  0  0  0  0  0  0  0  0
   -5.6089   16.4341  -34.5117 H   0  0  0  0  0  0  0  0  0  0  0  0
   -7.8595   16.2764  -33.5190 H   0  0  0  0  0  0  0  0  0  0  0  0
   -6.6100   16.6122  -32.2576 H   0  0  0  0  0  0  0  0  0  0  0  0
   -8.6200   18.5617  -33.4819 H   0  0  0  0  0  0  0  0  0  0  0  0
   -8.4675   18.0406  -31.7605 H   0  0  0  0  0  0  0  0  0  0  0  0
  1  2  1  0
  2  3  1  0
  3  4  1  0
  4  5  1  0
  3  6  1  0
  6  7  1  0
  7  8  1  0
  8  9  1  0
  9 10  2  0
  9 11  1  0
 11 12  2  0
 12 13  1  0
 13 14  1  0
 14 15  2  0
 15 16  1  0
 16 17  1  0
 16 18  2  0
 12 19  1  0
 19 20  1  0
 20 21  2  0
 21 22  1  0
 22 23  1  0
 23 24  1  0
 24 25  1  0
 21 11  1  0
 18 13  1  0
 25 20  1  0
  1 26  1  0
  1 27  1  0
  1 28  1  0
  2 29  1  0
  2 30  1  0
  3 31  1  0
  4 32  1  0
  4 33  1  0
  5 34  1  0
  5 35  1  0
  5 36  1  0
  6 37  1  0
  6 38  1  0
  7 39  1  0
  7 40  1  0
 14 41  1  0
 17 42  1  0
 17 43  1  0
 17 44  1  0
 18 45  1  0
 22 46  1  0
 22 47  1  0
 23 48  1  0
 23 49  1  0
 24 50  1  0
 24 51  1  0
 25 52  1  0
 25 53  1  0
M  CHG  1   3   1
M  END
>  <UniqueID>  (43) 
41

>  <SMILES>  (43) 
CC[NH+](CC)CCOC(=O)c1c(-n2cnc(C)c2)sc2c1CCCC2

>  <Energy>  (43) 
117.68212933158868

>  <Genealogy>  (43) 
CC[NH+](CC)CCOC(=O)c1c(-n2cnc(C)c2)sc2c1CCCC2 (protonated)
CC[NH+](CC)CCOC(=O)c1c(-n2cnc(C)c2)sc2c1CCCC2 (3D coordinates assigned)
CC[NH+](CC)CCOC(=O)c1c(-n2cnc(C)c2)sc2c1CCCC2 (nonaromatic ring conformer: 117.68212933158868 kcal/mol)

>  <smiles>  (43) 
CCN(CC)CCOC(=O)c1c(-n2cnc(C)c2)sc2c1CCCC2

>  <score_type>  (43) 
oracle

>  <origin>  (43) 
adg

>  <m_score__min__energy>  (43) 
-6.71

>  <m_primary>  (43) 
energy

$$$$
44:0
     RDKit          3D

 31 33  0  0  0  0  0  0  0  0999 V2000
   -2.2560   24.1770  -29.3520 C   0  0  0  0  0  0  0  0  0  0  0  0
   -3.1350   24.8960  -30.2120 O   0  0  0  0  0  0  0  0  0  0  0  0
   -4.4960   24.6010  -30.3850 C   0  0  0  0  0  0  0  0  0  0  0  0
   -5.4360   25.5330  -29.9360 C   0  0  0  0  0  0  0  0  0  0  0  0
   -6.8020   25.2850  -30.0780 C   0  0  0  0  0  0  0  0  0  0  0  0
   -7.2420   24.1020  -30.6750 C   0  0  0  0  0  0  0  0  0  0  0  0
   -6.3190   23.1500  -31.1430 C   0  0  0  0  0  0  0  0  0  0  0  0
   -6.8100   21.8980  -31.7750 C   0  0  0  0  0  0  0  0  0  0  0  0
   -8.1590   21.5380  -31.8700 C   0  0  0  0  0  0  0  0  0  0  0  0
   -8.2430   20.0480  -32.6430 S   0  0  0  0  0  0  0  0  0  0  0  0
   -6.5760   19.9090  -32.8290 C   0  0  0  0  0  0  0  0  0  0  0  0
   -5.8650   18.7770  -33.4660 C   0  0  0  0  0  0  0  0  0  0  0  0
   -6.4730   17.5180  -33.6020 C   0  0  0  0  0  0  0  0  0  0  0  0
   -5.7810   16.4670  -34.2070 C   0  0  0  0  0  0  0  0  0  0  0  0
   -4.4840   16.6800  -34.6740 C   0  0  0  0  0  0  0  0  0  0  0  0
   -3.9060   17.9020  -34.5380 N   0  0  0  0  0  0  0  0  0  0  0  0
   -4.5570   18.9430  -33.9530 C   0  0  0  0  0  0  0  0  0  0  0  0
   -5.9480   20.9860  -32.3070 N   0  0  0  0  0  0  0  0  0  0  0  0
   -4.9410   23.4070  -30.9890 C   0  0  0  0  0  0  0  0  0  0  0  0
   -2.5144   24.3884  -28.3039 H   0  0  0  0  0  0  0  0  0  0  0  0
   -2.3561   23.0985  -29.5440 H   0  0  0  0  0  0  0  0  0  0  0  0
   -1.2188   24.4889  -29.5440 H   0  0  0  0  0  0  0  0  0  0  0  0
   -5.0966   26.4686  -29.4674 H   0  0  0  0  0  0  0  0  0  0  0  0
   -7.5339   26.0234  -29.7187 H   0  0  0  0  0  0  0  0  0  0  0  0
   -8.3205   23.9130  -30.7802 H   0  0  0  0  0  0  0  0  0  0  0  0
   -9.0133   22.1262  -31.5036 H   0  0  0  0  0  0  0  0  0  0  0  0
   -7.4964   17.3598  -33.2311 H   0  0  0  0  0  0  0  0  0  0  0  0
   -6.2544   15.4799  -34.3144 H   0  0  0  0  0  0  0  0  0  0  0  0
   -3.9295   15.8591  -35.1521 H   0  0  0  0  0  0  0  0  0  0  0  0
   -4.0578   19.9189  -33.8606 H   0  0  0  0  0  0  0  0  0  0  0  0
   -4.2063   22.6691  -31.3434 H   0  0  0  0  0  0  0  0  0  0  0  0
  1  2  1  0
  2  3  1  0
  3  4  2  0
  4  5  1  0
  5  6  2  0
  6  7  1  0
  7  8  1  0
  8  9  2  0
  9 10  1  0
 10 11  1  0
 11 12  1  0
 12 13  2  0
 13 14  1  0
 14 15  2  0
 15 16  1  0
 16 17  2  0
 11 18  2  0
  7 19  2  0
 19  3  1  0
 18  8  1  0
 17 12  1  0
  1 20  1  0
  1 21  1  0
  1 22  1  0
  4 23  1  0
  5 24  1  0
  6 25  1  0
  9 26  1  0
 13 27  1  0
 14 28  1  0
 15 29  1  0
 17 30  1  0
 19 31  1  0
M  END
>  <UniqueID>  (44) 
42

>  <SMILES>  (44) 
COc1cccc(-c2csc(-c3cccnc3)n2)c1

>  <Energy>  (44) 
66.75659969020889

>  <Genealogy>  (44) 
COc1cccc(-c2csc(-c3cccnc3)n2)c1 (3D coordinates assigned)
COc1cccc(-c2csc(-c3cccnc3)n2)c1 (optimized conformer: 66.75659969020889 kcal/mol)

>  <smiles>  (44) 
COc1cccc(-c2csc(-c3cccnc3)n2)c1

>  <score_type>  (44) 
oracle

>  <origin>  (44) 
adg

>  <m_score__min__energy>  (44) 
-7.79

>  <m_primary>  (44) 
energy

$$$$
