0:0
     RDKit          3D

 47 50  0  0  0  0  0  0  0  0999 V2000
   -8.1140   23.2960  -32.3300 O   0  0  0  0  0  0  0  0  0  0  0  0
   -7.2620   22.5670  -31.7530 C   0  0  0  0  0  0  0  0  0  0  0  0
   -7.1100   21.1670  -32.1780 C   0  0  0  0  0  0  0  0  0  0  0  0
   -6.0680   20.7190  -32.9230 N   0  0  0  0  0  0  0  0  0  0  0  0
   -6.1840   19.3920  -33.1800 C   0  0  0  0  0  0  0  0  0  0  0  0
   -5.2650   18.6490  -33.9220 C   0  0  0  0  0  0  0  0  0  0  0  0
   -5.5000   17.2710  -34.1200 C   0  0  0  0  0  0  0  0  0  0  0  0
   -4.5330   16.4400  -34.9140 C   0  0  0  0  0  0  0  0  0  0  0  0
   -3.3810   16.2340  -34.1760 F   0  0  0  0  0  0  0  0  0  0  0  0
   -4.2120   17.0930  -36.0900 F   0  0  0  0  0  0  0  0  0  0  0  0
   -6.6560   16.6690  -33.5660 C   0  0  0  0  0  0  0  0  0  0  0  0
   -7.5710   17.4290  -32.8230 C   0  0  0  0  0  0  0  0  0  0  0  0
   -7.3090   18.7840  -32.6470 C   0  0  0  0  0  0  0  0  0  0  0  0
   -8.2110   19.9290  -31.8170 S   0  0  0  0  0  0  0  0  0  0  0  0
   -6.3580   23.1560  -30.6930 C   0  0  0  0  0  0  0  0  0  0  0  0
   -6.6000   24.6600  -30.5060 C   0  0  0  0  0  0  0  0  0  0  0  0
   -5.7330   25.2140  -29.3560 C   0  0  0  0  0  0  0  0  0  0  0  0
   -4.3800   24.6010  -29.2600 N   0  0  0  0  0  0  0  0  0  0  0  0
   -4.2380   23.6990  -28.0950 C   0  0  0  0  0  0  0  0  0  0  0  0
   -3.0750   24.1130  -27.2310 C   0  0  0  0  0  0  0  0  0  0  0  0
   -1.9910   23.2400  -27.0520 C   0  0  0  0  0  0  0  0  0  0  0  0
   -0.9310   23.6240  -26.2300 C   0  0  0  0  0  0  0  0  0  0  0  0
   -0.9600   24.8650  -25.5940 C   0  0  0  0  0  0  0  0  0  0  0  0
   -2.0560   25.7070  -25.7880 C   0  0  0  0  0  0  0  0  0  0  0  0
   -3.0840   25.3200  -26.5920 N   0  0  0  0  0  0  0  0  0  0  0  0
   -3.9300   23.9860  -30.5300 C   0  0  0  0  0  0  0  0  0  0  0  0
   -4.8770   22.8740  -31.0260 C   0  0  0  0  0  0  0  0  0  0  0  0
   -4.3711   19.1296  -34.3462 H   0  0  0  0  0  0  0  0  0  0  0  0
   -4.9983   15.4711  -35.1479 H   0  0  0  0  0  0  0  0  0  0  0  0
   -6.8379   15.5951  -33.7199 H   0  0  0  0  0  0  0  0  0  0  0  0
   -8.4709   16.9666  -32.3913 H   0  0  0  0  0  0  0  0  0  0  0  0
   -6.6028   22.6663  -29.7389 H   0  0  0  0  0  0  0  0  0  0  0  0
   -6.3427   25.1855  -31.4375 H   0  0  0  0  0  0  0  0  0  0  0  0
   -7.6597   24.8191  -30.2577 H   0  0  0  0  0  0  0  0  0  0  0  0
   -5.6109   26.2967  -29.5071 H   0  0  0  0  0  0  0  0  0  0  0  0
   -6.2570   24.9699  -28.4201 H   0  0  0  0  0  0  0  0  0  0  0  0
   -5.1609   23.7349  -27.4975 H   0  0  0  0  0  0  0  0  0  0  0  0
   -4.0564   22.6780  -28.4620 H   0  0  0  0  0  0  0  0  0  0  0  0
   -1.9771   22.2619  -27.5551 H   0  0  0  0  0  0  0  0  0  0  0  0
   -0.0744   22.9496  -26.0839 H   0  0  0  0  0  0  0  0  0  0  0  0
   -0.1275   25.1769  -24.9461 H   0  0  0  0  0  0  0  0  0  0  0  0
   -2.0892   26.6869  -25.2894 H   0  0  0  0  0  0  0  0  0  0  0  0
   -3.8950   25.9680  -26.7120 H   0  0  0  0  0  0  0  0  0  0  0  0
   -3.8753   24.7699  -31.2998 H   0  0  0  0  0  0  0  0  0  0  0  0
   -2.9483   23.5257  -30.3447 H   0  0  0  0  0  0  0  0  0  0  0  0
   -4.7731   22.7850  -32.1175 H   0  0  0  0  0  0  0  0  0  0  0  0
   -4.5934   21.9440  -30.5116 H   0  0  0  0  0  0  0  0  0  0  0  0
  1  2  2  0
  2  3  1  0
  3  4  2  0
  4  5  1  0
  5  6  2  0
  6  7  1  0
  7  8  1  0
  8  9  1  0
  8 10  1  0
  7 11  2  0
 11 12  1  0
 12 13  2  0
 13 14  1  0
  2 15  1  0
 15 16  1  0
 16 17  1  0
 17 18  1  0
 18 19  1  0
 19 20  1  0
 20 21  2  0
 21 22  1  0
 22 23  2  0
 23 24  1  0
 24 25  2  0
 18 26  1  0
 26 27  1  0
 14  3  1  0
 27 15  1  0
 13  5  1  0
 25 20  1  0
  6 28  1  0
  8 29  1  0
 11 30  1  0
 12 31  1  0
 15 32  1  0
 16 33  1  0
 16 34  1  0
 17 35  1  0
 17 36  1  0
 19 37  1  0
 19 38  1  0
 21 39  1  0
 22 40  1  0
 23 41  1  0
 24 42  1  0
 25 43  1  0
 26 44  1  0
 26 45  1  0
 27 46  1  0
 27 47  1  0
M  CHG  1  25   1
M  END
>  <UniqueID>  (1) 
1

>  <SMILES>  (1) 
O=C(c1nc2cc(C(F)F)ccc2s1)C1CCN(Cc2cccc[nH+]2)CC1

>  <Energy>  (1) 
92.54427964662702

>  <Genealogy>  (1) 
O=C(c1nc2cc(C(F)F)ccc2s1)C1CCN(Cc2cccc[nH+]2)CC1 (protonated)
O=C(c1nc2cc(C(F)F)ccc2s1)C1CCN(Cc2cccc[nH+]2)CC1 (3D coordinates assigned)
O=C(c1nc2cc(C(F)F)ccc2s1)C1CCN(Cc2cccc[nH+]2)CC1 (nonaromatic ring conformer: 92.54427964662702 kcal/mol)

>  <smiles>  (1) 
O=C(c1nc2cc(C(F)F)ccc2s1)C1CCN(Cc2ccccn2)CC1

>  <score_type>  (1) 
oracle

>  <origin>  (1) 
adg

>  <m_score__min__energy>  (1) 
-8.7699999999999996

>  <m_primary>  (1) 
energy

$$$$
1:0
     RDKit          3D

 68 70  0  0  0  0  0  0  0  0999 V2000
   -9.0870   21.5110  -30.7620 C   0  0  0  0  0  0  0  0  0  0  0  0
   -9.4880   21.1940  -32.1990 C   0  0  0  0  0  0  0  0  0  0  0  0
   -9.1140   19.8710  -32.5380 O   0  0  0  0  0  0  0  0  0  0  0  0
   -8.5310   19.1980  -31.4360 C   0  0  0  0  0  0  0  0  0  0  0  0
   -7.0970   18.7540  -31.7610 C   0  0  0  0  0  0  0  0  0  0  0  0
   -6.3920   19.7730  -32.4430 O   0  0  0  0  0  0  0  0  0  0  0  0
   -6.5190   19.6430  -33.8470 C   0  0  0  0  0  0  0  0  0  0  0  0
   -5.5220   18.6200  -34.3900 C   0  0  0  0  0  0  0  0  0  0  0  0
   -4.4210   18.5210  -33.5120 O   0  0  0  0  0  0  0  0  0  0  0  0
   -3.5610   17.4680  -33.9060 C   0  0  0  0  0  0  0  0  0  0  0  0
   -2.1190   17.9760  -33.9610 C   0  0  0  0  0  0  0  0  0  0  0  0
   -1.9620   19.1160  -33.1370 O   0  0  0  0  0  0  0  0  0  0  0  0
   -2.0260   20.3140  -33.8900 C   0  0  0  0  0  0  0  0  0  0  0  0
   -3.1030   21.2590  -33.3400 C   0  0  0  0  0  0  0  0  0  0  0  0
   -3.8490   20.6410  -32.2280 N   0  0  0  0  0  0  0  0  0  0  0  0
   -3.8750   21.5220  -31.0690 C   0  0  0  0  0  0  0  0  0  0  0  0
   -2.8570   21.4470  -30.0780 C   0  0  0  0  0  0  0  0  0  0  0  0
   -2.8880   22.3500  -28.9800 C   0  0  0  0  0  0  0  0  0  0  0  0
   -3.9800   23.1690  -28.7830 N   0  0  0  0  0  0  0  0  0  0  0  0
   -4.1430   23.8850  -27.4960 C   0  0  0  0  0  0  0  0  0  0  0  0
   -4.9080   23.3460  -29.7880 C   0  0  0  0  0  0  0  0  0  0  0  0
   -5.8960   24.3640  -29.7090 C   0  0  0  0  0  0  0  0  0  0  0  0
   -6.8390   24.5370  -30.7170 C   0  0  0  0  0  0  0  0  0  0  0  0
   -6.8140   23.7230  -31.8380 C   0  0  0  0  0  0  0  0  0  0  0  0
   -5.8440   22.7340  -31.9610 C   0  0  0  0  0  0  0  0  0  0  0  0
   -4.8760   22.5230  -30.9480 C   0  0  0  0  0  0  0  0  0  0  0  0
   -1.7210   22.3890  -28.0000 C   0  0  0  0  0  0  0  0  0  0  0  0
   -0.4360   21.8190  -28.5840 C   0  0  0  0  0  0  0  0  0  0  0  0
   -0.7060   20.4130  -29.0820 C   0  0  0  0  0  0  0  0  0  0  0  0
   -1.7170   20.4370  -30.2300 C   0  0  0  0  0  0  0  0  0  0  0  0
   -9.7571   20.9812  -30.0690 H   0  0  0  0  0  0  0  0  0  0  0  0
   -8.0503   21.1856  -30.5903 H   0  0  0  0  0  0  0  0  0  0  0  0
   -9.1643   22.5948  -30.5903 H   0  0  0  0  0  0  0  0  0  0  0  0
  -10.5780   21.2998  -32.3024 H   0  0  0  0  0  0  0  0  0  0  0  0
   -8.9734   21.8933  -32.8744 H   0  0  0  0  0  0  0  0  0  0  0  0
   -8.5106   19.8758  -30.5699 H   0  0  0  0  0  0  0  0  0  0  0  0
   -9.1329   18.3051  -31.2111 H   0  0  0  0  0  0  0  0  0  0  0  0
   -6.5720   18.5194  -30.8232 H   0  0  0  0  0  0  0  0  0  0  0  0
   -7.1439   17.8667  -32.4094 H   0  0  0  0  0  0  0  0  0  0  0  0
   -7.5406   19.3137  -34.0877 H   0  0  0  0  0  0  0  0  0  0  0  0
   -6.3114   20.6183  -34.3115 H   0  0  0  0  0  0  0  0  0  0  0  0
   -6.0128   17.6392  -34.4741 H   0  0  0  0  0  0  0  0  0  0  0  0
   -5.1712   18.9419  -35.3816 H   0  0  0  0  0  0  0  0  0  0  0  0
   -3.6320   16.6459  -33.1786 H   0  0  0  0  0  0  0  0  0  0  0  0
   -3.8589   17.1062  -34.9011 H   0  0  0  0  0  0  0  0  0  0  0  0
   -1.4422   17.1819  -33.6127 H   0  0  0  0  0  0  0  0  0  0  0  0
   -1.8789   18.2518  -34.9984 H   0  0  0  0  0  0  0  0  0  0  0  0
   -1.0495   20.8184  -33.8453 H   0  0  0  0  0  0  0  0  0  0  0  0
   -2.2840   20.0590  -34.9285 H   0  0  0  0  0  0  0  0  0  0  0  0
   -2.6203   22.1790  -32.9787 H   0  0  0  0  0  0  0  0  0  0  0  0
   -3.8132   21.4810  -34.1502 H   0  0  0  0  0  0  0  0  0  0  0  0
   -3.4200   19.7190  -32.0050 H   0  0  0  0  0  0  0  0  0  0  0  0
   -4.8220   20.3960  -32.5170 H   0  0  0  0  0  0  0  0  0  0  0  0
   -3.9834   23.1839  -26.6636 H   0  0  0  0  0  0  0  0  0  0  0  0
   -3.4076   24.7007  -27.4345 H   0  0  0  0  0  0  0  0  0  0  0  0
   -5.1590   24.3020  -27.4345 H   0  0  0  0  0  0  0  0  0  0  0  0
   -5.9157   25.0289  -28.8329 H   0  0  0  0  0  0  0  0  0  0  0  0
   -7.6052   25.3208  -30.6240 H   0  0  0  0  0  0  0  0  0  0  0  0
   -7.5628   23.8593  -32.6322 H   0  0  0  0  0  0  0  0  0  0  0  0
   -5.8279   22.1034  -32.8621 H   0  0  0  0  0  0  0  0  0  0  0  0
   -1.5410   23.4348  -27.7104 H   0  0  0  0  0  0  0  0  0  0  0  0
   -1.9952   21.7657  -27.1361 H   0  0  0  0  0  0  0  0  0  0  0  0
   -0.0990   22.4489  -29.4204 H   0  0  0  0  0  0  0  0  0  0  0  0
    0.3475   21.7976  -27.8122 H   0  0  0  0  0  0  0  0  0  0  0  0
    0.2350   19.9677  -29.4374 H   0  0  0  0  0  0  0  0  0  0  0  0
   -1.1194   19.8158  -28.2559 H   0  0  0  0  0  0  0  0  0  0  0  0
   -1.1735   20.6751  -31.1563 H   0  0  0  0  0  0  0  0  0  0  0  0
   -2.1902   19.4440  -30.2388 H   0  0  0  0  0  0  0  0  0  0  0  0
  1  2  1  0
  2  3  1  0
  3  4  1  0
  4  5  1  0
  5  6  1  0
  6  7  1  0
  7  8  1  0
  8  9  1  0
  9 10  1  0
 10 11  1  0
 11 12  1  0
 12 13  1  0
 13 14  1  0
 14 15  1  0
 15 16  1  0
 16 17  2  0
 17 18  1  0
 18 19  2  0
 19 20  1  0
 19 21  1  0
 21 22  2  0
 22 23  1  0
 23 24  2  0
 24 25  1  0
 25 26  2  0
 18 27  1  0
 27 28  1  0
 28 29  1  0
 29 30  1  0
 26 16  1  0
 30 17  1  0
 26 21  1  0
  1 31  1  0
  1 32  1  0
  1 33  1  0
  2 34  1  0
  2 35  1  0
  4 36  1  0
  4 37  1  0
  5 38  1  0
  5 39  1  0
  7 40  1  0
  7 41  1  0
  8 42  1  0
  8 43  1  0
 10 44  1  0
 10 45  1  0
 11 46  1  0
 11 47  1  0
 13 48  1  0
 13 49  1  0
 14 50  1  0
 14 51  1  0
 15 52  1  0
 15 53  1  0
 20 54  1  0
 20 55  1  0
 20 56  1  0
 22 57  1  0
 23 58  1  0
 24 59  1  0
 25 60  1  0
 27 61  1  0
 27 62  1  0
 28 63  1  0
 28 64  1  0
 29 65  1  0
 29 66  1  0
 30 67  1  0
 30 68  1  0
M  CHG  2  15   1  19   1
M  END
>  <UniqueID>  (2) 
2

>  <SMILES>  (2) 
CCOCCOCCOCCOCC[NH2+]c1c2c([n+](C)c3ccccc13)CCCC2

>  <Energy>  (2) 
93.05106878070838

>  <Genealogy>  (2) 
CCOCCOCCOCCOCC[NH2+]c1c2c([n+](C)c3ccccc13)CCCC2 (protonated)
CCOCCOCCOCCOCC[NH2+]c1c2c([n+](C)c3ccccc13)CCCC2 (3D coordinates assigned)
CCOCCOCCOCCOCC[NH2+]c1c2c([n+](C)c3ccccc13)CCCC2 (nonaromatic ring conformer: 93.05106878070838 kcal/mol)

>  <smiles>  (2) 
CCOCCOCCOCCOCCNc1c2c([n+](C)c3ccccc13)CCCC2

>  <score_type>  (2) 
oracle

>  <origin>  (2) 
adg

>  <m_score__min__energy>  (2) 
-7.96

>  <m_primary>  (2) 
energy

$$$$
2:0
     RDKit          3D

 73 76  0  0  0  0  0  0  0  0999 V2000
   -4.5900   24.2530  -28.5980 C   0  0  0  0  0  0  0  0  0  0  0  0
   -3.7340   24.9090  -29.6840 C   0  0  0  0  0  0  0  0  0  0  0  0
   -4.3820   24.8660  -31.0060 N   0  0  0  0  0  0  0  0  0  0  0  0
   -5.8510   24.9050  -30.9190 C   0  0  0  0  0  0  0  0  0  0  0  0
   -6.4430   23.5050  -31.1160 C   0  0  0  0  0  0  0  0  0  0  0  0
   -5.9420   22.8750  -32.3420 N   0  0  0  0  0  0  0  0  0  0  0  0
   -5.8780   21.4430  -32.4260 C   0  0  0  0  0  0  0  0  0  0  0  0
   -7.0840   20.7210  -32.4240 C   0  0  0  0  0  0  0  0  0  0  0  0
   -8.2850   21.3200  -31.9850 C   0  0  0  0  0  0  0  0  0  0  0  0
   -9.4730   20.5930  -31.9570 C   0  0  0  0  0  0  0  0  0  0  0  0
   -9.4830   19.2600  -32.3500 C   0  0  0  0  0  0  0  0  0  0  0  0
   -8.3100   18.6530  -32.7970 C   0  0  0  0  0  0  0  0  0  0  0  0
   -7.0930   19.3800  -32.8730 C   0  0  0  0  0  0  0  0  0  0  0  0
   -5.9420   18.8220  -33.3850 N   0  0  0  0  0  0  0  0  0  0  0  0
   -6.0220   17.5800  -34.1890 C   0  0  0  0  0  0  0  0  0  0  0  0
   -4.7190   19.4260  -33.1540 C   0  0  0  0  0  0  0  0  0  0  0  0
   -3.5110   18.7340  -33.4110 C   0  0  0  0  0  0  0  0  0  0  0  0
   -2.2790   19.3290  -33.2000 C   0  0  0  0  0  0  0  0  0  0  0  0
   -2.2030   20.6030  -32.6640 C   0  0  0  0  0  0  0  0  0  0  0  0
   -3.3610   21.3210  -32.3280 C   0  0  0  0  0  0  0  0  0  0  0  0
   -3.1840   22.5400  -31.5660 N   0  0  0  0  0  0  0  0  0  0  0  0
   -1.9090   22.5470  -30.8190 C   0  0  0  0  0  0  0  0  0  0  0  0
   -2.1130   22.3970  -29.3020 C   0  0  0  0  0  0  0  0  0  0  0  0
   -2.7660   21.0510  -28.9580 C   0  0  0  0  0  0  0  0  0  0  0  0
   -2.4570   20.6630  -27.5620 N   0  0  0  0  0  0  0  0  0  0  0  0
   -1.1990   21.2630  -27.0740 C   0  0  0  0  0  0  0  0  0  0  0  0
    0.0400   20.6390  -27.7410 C   0  0  0  0  0  0  0  0  0  0  0  0
   -0.1110   19.1270  -27.9800 C   0  0  0  0  0  0  0  0  0  0  0  0
   -1.1810   18.5190  -27.0730 C   0  0  0  0  0  0  0  0  0  0  0  0
   -2.5520   19.1930  -27.3230 C   0  0  1  0  0  0  0  0  0  0  0  0
   -3.4950   18.9410  -26.1470 C   0  0  0  0  0  0  0  0  0  0  0  0
   -4.6510   20.7580  -32.6330 C   0  0  0  0  0  0  0  0  0  0  0  0
   -4.2110   24.5435  -27.6071 H   0  0  0  0  0  0  0  0  0  0  0  0
   -5.6334   24.5849  -28.7032 H   0  0  0  0  0  0  0  0  0  0  0  0
   -4.5408   23.1591  -28.7032 H   0  0  0  0  0  0  0  0  0  0  0  0
   -3.5582   25.9597  -29.4098 H   0  0  0  0  0  0  0  0  0  0  0  0
   -2.7895   24.3494  -29.7529 H   0  0  0  0  0  0  0  0  0  0  0  0
   -4.0510   25.6690  -31.5910 H   0  0  0  0  0  0  0  0  0  0  0  0
   -6.1441   25.2849  -29.9292 H   0  0  0  0  0  0  0  0  0  0  0  0
   -6.2346   25.5656  -31.7104 H   0  0  0  0  0  0  0  0  0  0  0  0
   -6.1699   22.8775  -30.2548 H   0  0  0  0  0  0  0  0  0  0  0  0
   -7.5355   23.6020  -31.2005 H   0  0  0  0  0  0  0  0  0  0  0  0
   -5.3460   23.4320  -32.9940 H   0  0  0  0  0  0  0  0  0  0  0  0
   -8.2825   22.3714  -31.6618 H   0  0  0  0  0  0  0  0  0  0  0  0
  -10.4041   21.0745  -31.6235 H   0  0  0  0  0  0  0  0  0  0  0  0
  -10.4183   18.6825  -32.3083 H   0  0  0  0  0  0  0  0  0  0  0  0
   -8.3279   17.5944  -33.0954 H   0  0  0  0  0  0  0  0  0  0  0  0
   -6.0780   16.7111  -33.5168 H   0  0  0  0  0  0  0  0  0  0  0  0
   -6.9200   17.6112  -34.8235 H   0  0  0  0  0  0  0  0  0  0  0  0
   -5.1274   17.4957  -34.8235 H   0  0  0  0  0  0  0  0  0  0  0  0
   -3.5522   17.7009  -33.7866 H   0  0  0  0  0  0  0  0  0  0  0  0
   -1.3572   18.7875  -33.4592 H   0  0  0  0  0  0  0  0  0  0  0  0
   -1.2167   21.0610  -32.4984 H   0  0  0  0  0  0  0  0  0  0  0  0
   -3.2580   23.3710  -32.1920 H   0  0  0  0  0  0  0  0  0  0  0  0
   -3.9870   22.6640  -30.9050 H   0  0  0  0  0  0  0  0  0  0  0  0
   -1.2871   21.7126  -31.1753 H   0  0  0  0  0  0  0  0  0  0  0  0
   -1.4238   23.5182  -30.9961 H   0  0  0  0  0  0  0  0  0  0  0  0
   -1.1357   22.4597  -28.8010 H   0  0  0  0  0  0  0  0  0  0  0  0
   -2.7781   23.2034  -28.9595 H   0  0  0  0  0  0  0  0  0  0  0  0
   -3.8562   21.1374  -29.0763 H   0  0  0  0  0  0  0  0  0  0  0  0
   -2.3694   20.2810  -29.6361 H   0  0  0  0  0  0  0  0  0  0  0  0
   -1.2131   22.3412  -27.2914 H   0  0  0  0  0  0  0  0  0  0  0  0
   -1.1318   21.0735  -25.9925 H   0  0  0  0  0  0  0  0  0  0  0  0
    0.2044   21.1335  -28.7097 H   0  0  0  0  0  0  0  0  0  0  0  0
    0.8916   20.7837  -27.0599 H   0  0  0  0  0  0  0  0  0  0  0  0
   -0.3941   18.9578  -29.0294 H   0  0  0  0  0  0  0  0  0  0  0  0
    0.8503   18.6442  -27.7502 H   0  0  0  0  0  0  0  0  0  0  0  0
   -1.2636   17.4423  -27.2824 H   0  0  0  0  0  0  0  0  0  0  0  0
   -0.8915   18.6807  -26.0242 H   0  0  0  0  0  0  0  0  0  0  0  0
   -2.9478   18.7346  -28.2413 H   0  0  0  0  0  0  0  0  0  0  0  0
   -2.9503   19.0866  -25.2025 H   0  0  0  0  0  0  0  0  0  0  0  0
   -4.3386   19.6452  -26.1960 H   0  0  0  0  0  0  0  0  0  0  0  0
   -3.8748   17.9098  -26.1960 H   0  0  0  0  0  0  0  0  0  0  0  0
  1  2  1  0
  2  3  1  0
  3  4  1  0
  4  5  1  0
  5  6  1  0
  6  7  1  0
  7  8  2  0
  8  9  1  0
  9 10  2  0
 10 11  1  0
 11 12  2  0
 12 13  1  0
 13 14  2  0
 14 15  1  0
 14 16  1  0
 16 17  2  0
 17 18  1  0
 18 19  2  0
 19 20  1  0
 20 21  1  0
 21 22  1  0
 22 23  1  0
 23 24  1  0
 24 25  1  0
 25 26  1  0
 26 27  1  0
 27 28  1  0
 28 29  1  0
 29 30  1  0
 30 31  1  0
 20 32  2  0
 32  7  1  0
 13  8  1  0
 32 16  1  0
 30 25  1  0
  1 33  1  0
  1 34  1  0
  1 35  1  0
  2 36  1  0
  2 37  1  0
  3 38  1  0
  4 39  1  0
  4 40  1  0
  5 41  1  0
  5 42  1  0
  6 43  1  0
  9 44  1  0
 10 45  1  0
 11 46  1  0
 12 47  1  0
 15 48  1  0
 15 49  1  0
 15 50  1  0
 17 51  1  0
 18 52  1  0
 19 53  1  0
 21 54  1  0
 21 55  1  0
 22 56  1  0
 22 57  1  0
 23 58  1  0
 23 59  1  0
 24 60  1  0
 24 61  1  0
 26 62  1  0
 26 63  1  0
 27 64  1  0
 27 65  1  0
 28 66  1  0
 28 67  1  0
 29 68  1  0
 29 69  1  0
 30 70  1  6
 31 71  1  0
 31 72  1  0
 31 73  1  0
M  CHG  2  14   1  21   1
M  END
>  <UniqueID>  (3) 
3

>  <SMILES>  (3) 
CCNCCNc1c2ccccc2[n+](C)c2cccc([NH2+]CCCN3CCCC[C@H]3C)c12

>  <Energy>  (3) 
113.65501570656349

>  <Genealogy>  (3) 
CCNCCNc1c2ccccc2[n+](C)c2cccc([NH2+]CCCN3CCCCC3C)c12 (protonated)
CCNCCNc1c2ccccc2[n+](C)c2cccc([NH2+]CCCN3CCCC[C@H]3C)c12 (chirality)
CCNCCNc1c2ccccc2[n+](C)c2cccc([NH2+]CCCN3CCCC[C@H]3C)c12 (3D coordinates assigned)
CCNCCNc1c2ccccc2[n+](C)c2cccc([NH2+]CCCN3CCCC[C@H]3C)c12 (nonaromatic ring conformer: 113.65501570656349 kcal/mol)

>  <smiles>  (3) 
CCNCCNc1c2ccccc2[n+](C)c2cccc(NCCCN3CCCCC3C)c12

>  <score_type>  (3) 
oracle

>  <origin>  (3) 
adg

>  <m_score__min__energy>  (3) 
-9.1099999999999994

>  <m_primary>  (3) 
energy

$$$$
3:0
     RDKit          3D

 64 66  0  0  0  0  0  0  0  0999 V2000
   -3.4260   18.9280  -26.3300 C   0  0  0  0  0  0  0  0  0  0  0  0
   -2.0520   19.4600  -26.7100 C   0  0  0  0  0  0  0  0  0  0  0  0
   -2.1070   19.9800  -28.0220 O   0  0  0  0  0  0  0  0  0  0  0  0
   -3.0460   21.0350  -28.0780 C   0  0  0  0  0  0  0  0  0  0  0  0
   -2.4210   22.3140  -27.5070 C   0  0  0  0  0  0  0  0  0  0  0  0
   -2.9890   23.4710  -28.0960 O   0  0  0  0  0  0  0  0  0  0  0  0
   -3.7740   23.1540  -29.2320 C   0  0  0  0  0  0  0  0  0  0  0  0
   -3.3520   23.9540  -30.4770 C   0  0  0  0  0  0  0  0  0  0  0  0
   -4.0100   25.2730  -30.5660 N   0  0  0  0  0  0  0  0  0  0  0  0
   -5.3410   25.2880  -29.9430 C   0  0  0  0  0  0  0  0  0  0  0  0
   -6.4380   24.8980  -30.9480 C   0  0  0  0  0  0  0  0  0  0  0  0
   -6.6550   23.3680  -31.0720 C   0  0  0  0  0  0  0  0  0  0  0  0
   -6.1890   22.7630  -32.3300 N   0  0  0  0  0  0  0  0  0  0  0  0
   -5.9510   21.3630  -32.5640 C   0  0  0  0  0  0  0  0  0  0  0  0
   -4.6660   20.9020  -32.9030 C   0  0  0  0  0  0  0  0  0  0  0  0
   -4.4720   19.5260  -33.2080 C   0  0  0  0  0  0  0  0  0  0  0  0
   -5.5490   18.6560  -33.2070 N   0  0  0  0  0  0  0  0  0  0  0  0
   -5.3610   17.2700  -33.6910 C   0  0  0  0  0  0  0  0  0  0  0  0
   -6.7910   19.0820  -32.7670 C   0  0  0  0  0  0  0  0  0  0  0  0
   -7.8640   18.1780  -32.5390 C   0  0  0  0  0  0  0  0  0  0  0  0
   -9.1330   18.6390  -32.1850 C   0  0  0  0  0  0  0  0  0  0  0  0
   -9.3630   19.9990  -32.0160 C   0  0  0  0  0  0  0  0  0  0  0  0
   -8.3150   20.9030  -32.1590 C   0  0  0  0  0  0  0  0  0  0  0  0
   -7.0200   20.4590  -32.5050 C   0  0  0  0  0  0  0  0  0  0  0  0
   -3.0390   18.9940  -33.3510 C   0  0  0  0  0  0  0  0  0  0  0  0
   -2.0000   20.0590  -33.7070 C   0  0  0  0  0  0  0  0  0  0  0  0
   -2.1740   21.2880  -32.8330 C   0  0  0  0  0  0  0  0  0  0  0  0
   -3.5380   21.9030  -33.0950 C   0  0  0  0  0  0  0  0  0  0  0  0
   -3.5156   18.8933  -25.2342 H   0  0  0  0  0  0  0  0  0  0  0  0
   -4.2022   19.5906  -26.7405 H   0  0  0  0  0  0  0  0  0  0  0  0
   -3.5536   17.9155  -26.7405 H   0  0  0  0  0  0  0  0  0  0  0  0
   -1.7581   20.2559  -26.0099 H   0  0  0  0  0  0  0  0  0  0  0  0
   -1.3126   18.6469  -26.6632 H   0  0  0  0  0  0  0  0  0  0  0  0
   -3.3405   21.2073  -29.1237 H   0  0  0  0  0  0  0  0  0  0  0  0
   -3.9321   20.7660  -27.4843 H   0  0  0  0  0  0  0  0  0  0  0  0
   -2.5933   22.3432  -26.4210 H   0  0  0  0  0  0  0  0  0  0  0  0
   -1.3438   22.3038  -27.7296 H   0  0  0  0  0  0  0  0  0  0  0  0
   -3.6659   22.0808  -29.4480 H   0  0  0  0  0  0  0  0  0  0  0  0
   -4.8176   23.4153  -29.0027 H   0  0  0  0  0  0  0  0  0  0  0  0
   -2.2632   24.1071  -30.4428 H   0  0  0  0  0  0  0  0  0  0  0  0
   -3.6577   23.3737  -31.3601 H   0  0  0  0  0  0  0  0  0  0  0  0
   -4.1000   25.5640  -31.5680 H   0  0  0  0  0  0  0  0  0  0  0  0
   -5.3522   24.5737  -29.1065 H   0  0  0  0  0  0  0  0  0  0  0  0
   -5.5448   26.3092  -29.5886 H   0  0  0  0  0  0  0  0  0  0  0  0
   -7.3838   25.3578  -30.6253 H   0  0  0  0  0  0  0  0  0  0  0  0
   -6.1117   25.2572  -31.9352 H   0  0  0  0  0  0  0  0  0  0  0  0
   -6.1201   22.8814  -30.2431 H   0  0  0  0  0  0  0  0  0  0  0  0
   -7.7439   23.2139  -31.0474 H   0  0  0  0  0  0  0  0  0  0  0  0
   -6.0510   23.4090  -33.1360 H   0  0  0  0  0  0  0  0  0  0  0  0
   -5.2688   16.5906  -32.8308 H   0  0  0  0  0  0  0  0  0  0  0  0
   -6.2272   16.9739  -34.3009 H   0  0  0  0  0  0  0  0  0  0  0  0
   -4.4472   17.2154  -34.3009 H   0  0  0  0  0  0  0  0  0  0  0  0
   -7.6913   17.0967  -32.6433 H   0  0  0  0  0  0  0  0  0  0  0  0
   -9.9548   17.9225  -32.0391 H   0  0  0  0  0  0  0  0  0  0  0  0
  -10.3723   20.3604  -31.7695 H   0  0  0  0  0  0  0  0  0  0  0  0
   -8.4974   21.9761  -32.0007 H   0  0  0  0  0  0  0  0  0  0  0  0
   -2.7462   18.5341  -32.3956 H   0  0  0  0  0  0  0  0  0  0  0  0
   -3.0526   18.2784  -34.1863 H   0  0  0  0  0  0  0  0  0  0  0  0
   -0.9920   19.6462  -33.5538 H   0  0  0  0  0  0  0  0  0  0  0  0
   -2.1361   20.3497  -34.7591 H   0  0  0  0  0  0  0  0  0  0  0  0
   -2.0986   20.9993  -31.7742 H   0  0  0  0  0  0  0  0  0  0  0  0
   -1.3885   22.0211  -33.0685 H   0  0  0  0  0  0  0  0  0  0  0  0
   -3.6874   22.7426  -32.4001 H   0  0  0  0  0  0  0  0  0  0  0  0
   -3.5607   22.2405  -34.1417 H   0  0  0  0  0  0  0  0  0  0  0  0
  1  2  1  0
  2  3  1  0
  3  4  1  0
  4  5  1  0
  5  6  1  0
  6  7  1  0
  7  8  1  0
  8  9  1  0
  9 10  1  0
 10 11  1  0
 11 12  1  0
 12 13  1  0
 13 14  1  0
 14 15  2  0
 15 16  1  0
 16 17  2  0
 17 18  1  0
 17 19  1  0
 19 20  2  0
 20 21  1  0
 21 22  2  0
 22 23  1  0
 23 24  2  0
 16 25  1  0
 25 26  1  0
 26 27  1  0
 27 28  1  0
 24 14  1  0
 28 15  1  0
 24 19  1  0
  1 29  1  0
  1 30  1  0
  1 31  1  0
  2 32  1  0
  2 33  1  0
  4 34  1  0
  4 35  1  0
  5 36  1  0
  5 37  1  0
  7 38  1  0
  7 39  1  0
  8 40  1  0
  8 41  1  0
  9 42  1  0
 10 43  1  0
 10 44  1  0
 11 45  1  0
 11 46  1  0
 12 47  1  0
 12 48  1  0
 13 49  1  0
 18 50  1  0
 18 51  1  0
 18 52  1  0
 20 53  1  0
 21 54  1  0
 22 55  1  0
 23 56  1  0
 25 57  1  0
 25 58  1  0
 26 59  1  0
 26 60  1  0
 27 61  1  0
 27 62  1  0
 28 63  1  0
 28 64  1  0
M  CHG  1  17   1
M  END
>  <UniqueID>  (4) 
4

>  <SMILES>  (4) 
CCOCCOCCNCCCNc1c2c([n+](C)c3ccccc13)CCCC2

>  <Energy>  (4) 
89.96119013568706

>  <Genealogy>  (4) 
CCOCCOCCNCCCNc1c2c([n+](C)c3ccccc13)CCCC2 (3D coordinates assigned)
CCOCCOCCNCCCNc1c2c([n+](C)c3ccccc13)CCCC2 (nonaromatic ring conformer: 89.96119013568706 kcal/mol)

>  <smiles>  (4) 
CCOCCOCCNCCCNc1c2c([n+](C)c3ccccc13)CCCC2

>  <score_type>  (4) 
oracle

>  <origin>  (4) 
adg

>  <m_score__min__energy>  (4) 
-9.8900000000000006

>  <m_primary>  (4) 
energy

$$$$
4:0
     RDKit          3D

 37 38  0  0  0  0  0  0  0  0999 V2000
   -3.9260   22.8460  -28.0520 C   0  0  0  0  0  0  0  0  0  0  0  0
   -4.3600   24.1520  -28.7130 C   0  0  0  0  0  0  0  0  0  0  0  0
   -3.4550   24.5340  -29.8900 C   0  0  0  0  0  0  0  0  0  0  0  0
   -4.1530   25.4320  -30.8230 N   0  0  0  0  0  0  0  0  0  0  0  0
   -5.6140   25.3400  -30.6640 C   0  0  0  0  0  0  0  0  0  0  0  0
   -6.2230   24.3010  -31.6210 C   0  0  0  0  0  0  0  0  0  0  0  0
   -7.4260   23.5570  -31.0230 C   0  0  0  0  0  0  0  0  0  0  0  0
   -7.4950   22.1270  -31.4780 C   0  0  0  0  0  0  0  0  0  0  0  0
   -8.6140   21.3320  -31.1870 C   0  0  0  0  0  0  0  0  0  0  0  0
   -8.6460   20.0030  -31.6140 C   0  0  0  0  0  0  0  0  0  0  0  0
   -7.5680   19.4770  -32.3350 C   0  0  0  0  0  0  0  0  0  0  0  0
   -7.5750   18.1510  -32.7950 C   0  0  0  0  0  0  0  0  0  0  0  0
   -6.4900   17.6610  -33.5300 C   0  0  0  0  0  0  0  0  0  0  0  0
   -6.5030   15.8580  -34.1610 Br  0  0  0  0  0  0  0  0  0  0  0  0
   -5.3960   18.4900  -33.8060 C   0  0  0  0  0  0  0  0  0  0  0  0
   -5.3810   19.8100  -33.3500 C   0  0  0  0  0  0  0  0  0  0  0  0
   -6.4620   20.3110  -32.6160 C   0  0  0  0  0  0  0  0  0  0  0  0
   -6.4570   21.6000  -32.1820 N   0  0  0  0  0  0  0  0  0  0  0  0
   -3.9634   22.9584  -26.9584 H   0  0  0  0  0  0  0  0  0  0  0  0
   -4.6033   22.0361  -28.3607 H   0  0  0  0  0  0  0  0  0  0  0  0
   -2.8987   22.6025  -28.3607 H   0  0  0  0  0  0  0  0  0  0  0  0
   -5.3903   24.0375  -29.0809 H   0  0  0  0  0  0  0  0  0  0  0  0
   -4.2902   24.9510  -27.9602 H   0  0  0  0  0  0  0  0  0  0  0  0
   -2.5589   25.0422  -29.5044 H   0  0  0  0  0  0  0  0  0  0  0  0
   -3.1763   23.6167  -30.4294 H   0  0  0  0  0  0  0  0  0  0  0  0
   -3.8730   26.4130  -30.5880 H   0  0  0  0  0  0  0  0  0  0  0  0
   -5.8428   25.0487  -29.6282 H   0  0  0  0  0  0  0  0  0  0  0  0
   -6.0486   26.3224  -30.9007 H   0  0  0  0  0  0  0  0  0  0  0  0
   -6.5511   24.8179  -32.5348 H   0  0  0  0  0  0  0  0  0  0  0  0
   -5.4449   23.5510  -31.8261 H   0  0  0  0  0  0  0  0  0  0  0  0
   -7.3441   23.5758  -29.9262 H   0  0  0  0  0  0  0  0  0  0  0  0
   -8.3399   24.0640  -31.3661 H   0  0  0  0  0  0  0  0  0  0  0  0
   -9.4611   21.7533  -30.6258 H   0  0  0  0  0  0  0  0  0  0  0  0
   -9.5165   19.3709  -31.3842 H   0  0  0  0  0  0  0  0  0  0  0  0
   -8.4328   17.4975  -32.5778 H   0  0  0  0  0  0  0  0  0  0  0  0
   -4.5452   18.1002  -34.3841 H   0  0  0  0  0  0  0  0  0  0  0  0
   -4.5183   20.4567  -33.5681 H   0  0  0  0  0  0  0  0  0  0  0  0
  1  2  1  0
  2  3  1  0
  3  4  1  0
  4  5  1  0
  5  6  1  0
  6  7  1  0
  7  8  1  0
  8  9  2  0
  9 10  1  0
 10 11  2  0
 11 12  1  0
 12 13  2  0
 13 14  1  0
 13 15  1  0
 15 16  2  0
 16 17  1  0
 17 18  2  0
 18  8  1  0
 17 11  1  0
  1 19  1  0
  1 20  1  0
  1 21  1  0
  2 22  1  0
  2 23  1  0
  3 24  1  0
  3 25  1  0
  4 26  1  0
  5 27  1  0
  5 28  1  0
  6 29  1  0
  6 30  1  0
  7 31  1  0
  7 32  1  0
  9 33  1  0
 10 34  1  0
 12 35  1  0
 15 36  1  0
 16 37  1  0
M  END
>  <UniqueID>  (5) 
5

>  <SMILES>  (5) 
CCCNCCCc1ccc2cc(Br)ccc2n1

>  <Energy>  (5) 
28.361893385761526

>  <Genealogy>  (5) 
CCCNCCCc1ccc2cc(Br)ccc2n1 (3D coordinates assigned)
CCCNCCCc1ccc2cc(Br)ccc2n1 (optimized conformer: 28.361893385761526 kcal/mol)

>  <smiles>  (5) 
CCCNCCCc1ccc2cc(Br)ccc2n1

>  <score_type>  (5) 
oracle

>  <origin>  (5) 
adg

>  <m_score__min__energy>  (5) 
-8.4700000000000006

>  <m_primary>  (5) 
energy

$$$$
5:0
     RDKit          3D

 37 40  0  0  0  0  0  0  0  0999 V2000
   -6.5180   25.2430  -29.7020 C   0  0  0  0  0  0  0  0  0  0  0  0
   -5.5560   24.4010  -30.4130 N   0  0  0  0  0  0  0  0  0  0  0  0
   -5.7320   23.7620  -31.5860 C   0  0  0  0  0  0  0  0  0  0  0  0
   -7.2370   23.7930  -32.5640 S   0  0  0  0  0  0  0  0  0  0  0  0
   -8.0670   22.4770  -31.6080 C   0  0  0  0  0  0  0  0  0  0  0  0
   -7.6450   21.1260  -32.0890 C   0  0  0  0  0  0  0  0  0  0  0  0
   -6.6670   20.9390  -33.0100 N   0  0  0  0  0  0  0  0  0  0  0  0
   -6.5100   19.6190  -33.2870 C   0  0  0  0  0  0  0  0  0  0  0  0
   -5.5820   19.1100  -34.1960 C   0  0  0  0  0  0  0  0  0  0  0  0
   -5.5250   17.7200  -34.3950 C   0  0  0  0  0  0  0  0  0  0  0  0
   -6.3910   16.8610  -33.6880 C   0  0  0  0  0  0  0  0  0  0  0  0
   -7.3220   17.3850  -32.7760 C   0  0  0  0  0  0  0  0  0  0  0  0
   -7.3570   18.7660  -32.5980 C   0  0  0  0  0  0  0  0  0  0  0  0
   -8.3510   19.6680  -31.5930 S   0  0  0  0  0  0  0  0  0  0  0  0
   -4.6260   23.0920  -31.9570 N   0  0  0  0  0  0  0  0  0  0  0  0
   -3.7180   23.2940  -31.0130 N   0  0  0  0  0  0  0  0  0  0  0  0
   -4.2890   24.0750  -30.0730 C   0  0  0  0  0  0  0  0  0  0  0  0
   -3.5740   24.5150  -28.8550 C   0  0  0  0  0  0  0  0  0  0  0  0
   -4.2050   24.5190  -27.6000 C   0  0  0  0  0  0  0  0  0  0  0  0
   -3.5040   24.9200  -26.4580 C   0  0  0  0  0  0  0  0  0  0  0  0
   -2.1650   25.3070  -26.5570 C   0  0  0  0  0  0  0  0  0  0  0  0
   -1.5240   25.2850  -27.7980 C   0  0  0  0  0  0  0  0  0  0  0  0
   -2.2200   24.8830  -28.9410 C   0  0  0  0  0  0  0  0  0  0  0  0
   -6.3798   25.1221  -28.6174 H   0  0  0  0  0  0  0  0  0  0  0  0
   -6.3572   26.2959  -29.9770 H   0  0  0  0  0  0  0  0  0  0  0  0
   -7.5403   24.9442  -29.9770 H   0  0  0  0  0  0  0  0  0  0  0  0
   -7.8017   22.5808  -30.5455 H   0  0  0  0  0  0  0  0  0  0  0  0
   -9.1543   22.5756  -31.7421 H   0  0  0  0  0  0  0  0  0  0  0  0
   -4.9082   19.7834  -34.7461 H   0  0  0  0  0  0  0  0  0  0  0  0
   -4.7998   17.2994  -35.1072 H   0  0  0  0  0  0  0  0  0  0  0  0
   -6.3373   15.7745  -33.8515 H   0  0  0  0  0  0  0  0  0  0  0  0
   -8.0030   16.7246  -32.2191 H   0  0  0  0  0  0  0  0  0  0  0  0
   -5.2558   24.2051  -27.5149 H   0  0  0  0  0  0  0  0  0  0  0  0
   -4.0077   24.9307  -25.4802 H   0  0  0  0  0  0  0  0  0  0  0  0
   -1.6166   25.6284  -25.6593 H   0  0  0  0  0  0  0  0  0  0  0  0
   -0.4685   25.5849  -27.8756 H   0  0  0  0  0  0  0  0  0  0  0  0
   -1.7058   24.8543  -29.9130 H   0  0  0  0  0  0  0  0  0  0  0  0
  1  2  1  0
  2  3  1  0
  3  4  1  0
  4  5  1  0
  5  6  1  0
  6  7  2  0
  7  8  1  0
  8  9  2  0
  9 10  1  0
 10 11  2  0
 11 12  1  0
 12 13  2  0
 13 14  1  0
  3 15  2  0
 15 16  1  0
 16 17  2  0
 17 18  1  0
 18 19  2  0
 19 20  1  0
 20 21  2  0
 21 22  1  0
 22 23  2  0
 17  2  1  0
 23 18  1  0
 14  6  1  0
 13  8  1  0
  1 24  1  0
  1 25  1  0
  1 26  1  0
  5 27  1  0
  5 28  1  0
  9 29  1  0
 10 30  1  0
 11 31  1  0
 12 32  1  0
 19 33  1  0
 20 34  1  0
 21 35  1  0
 22 36  1  0
 23 37  1  0
M  END
>  <UniqueID>  (6) 
6

>  <SMILES>  (6) 
Cn1c(SCc2nc3ccccc3s2)nnc1-c1ccccc1

>  <Energy>  (6) 
109.55959470747909

>  <Genealogy>  (6) 
Cn1c(SCc2nc3ccccc3s2)nnc1-c1ccccc1 (3D coordinates assigned)
Cn1c(SCc2nc3ccccc3s2)nnc1-c1ccccc1 (optimized conformer: 109.55959470747909 kcal/mol)

>  <smiles>  (6) 
Cn1c(SCc2nc3ccccc3s2)nnc1-c1ccccc1

>  <score_type>  (6) 
oracle

>  <origin>  (6) 
adg

>  <m_score__min__energy>  (6) 
-8.9299999999999997

>  <m_primary>  (6) 
energy

$$$$
6:0
     RDKit          3D

 43 46  0  0  0  0  0  0  0  0999 V2000
   -9.2100   19.2590  -32.7120 C   0  0  0  0  0  0  0  0  0  0  0  0
   -8.3280   19.7860  -31.5870 C   0  0  0  0  0  0  0  0  0  0  0  0
   -7.7830   21.4970  -31.9240 S   0  0  0  0  0  0  0  0  0  0  0  0
   -6.0760   21.0490  -32.3110 C   0  0  0  0  0  0  0  0  0  0  0  0
   -5.8580   19.9320  -33.0720 N   0  0  0  0  0  0  0  0  0  0  0  0
   -4.5830   19.5680  -33.3400 C   0  0  0  0  0  0  0  0  0  0  0  0
   -3.5120   20.2820  -32.8870 C   0  0  0  0  0  0  0  0  0  0  0  0
   -2.3440   19.7290  -33.2790 N   0  0  0  0  0  0  0  0  0  0  0  0
   -2.7070   18.6390  -33.9940 C   0  0  0  0  0  0  0  0  0  0  0  0
   -1.8570   17.7270  -34.6130 C   0  0  0  0  0  0  0  0  0  0  0  0
   -2.4360   16.6520  -35.3100 C   0  0  0  0  0  0  0  0  0  0  0  0
   -3.8400   16.5090  -35.3740 C   0  0  0  0  0  0  0  0  0  0  0  0
   -4.6930   17.4440  -34.7390 C   0  0  0  0  0  0  0  0  0  0  0  0
   -6.0910   17.3440  -34.7730 O   0  0  0  0  0  0  0  0  0  0  0  0
   -6.8620   16.5950  -33.8390 C   0  0  0  0  0  0  0  0  0  0  0  0
   -4.0830   18.5010  -34.0570 C   0  0  0  0  0  0  0  0  0  0  0  0
   -3.7170   21.4250  -32.1280 C   0  0  0  0  0  0  0  0  0  0  0  0
   -2.7330   22.0990  -31.7160 O   0  0  0  0  0  0  0  0  0  0  0  0
   -5.0110   21.8040  -31.8490 N   0  0  0  0  0  0  0  0  0  0  0  0
   -5.2440   22.9930  -31.0700 C   0  0  0  0  0  0  0  0  0  0  0  0
   -4.8090   23.0600  -29.7370 C   0  0  0  0  0  0  0  0  0  0  0  0
   -5.0360   24.2150  -28.9820 C   0  0  0  0  0  0  0  0  0  0  0  0
   -5.6910   25.3090  -29.5550 C   0  0  0  0  0  0  0  0  0  0  0  0
   -6.1190   25.2500  -30.8850 C   0  0  0  0  0  0  0  0  0  0  0  0
   -5.8940   24.0970  -31.6430 C   0  0  0  0  0  0  0  0  0  0  0  0
  -10.0796   18.7394  -32.2834 H   0  0  0  0  0  0  0  0  0  0  0  0
   -9.5543   20.0996  -33.3324 H   0  0  0  0  0  0  0  0  0  0  0  0
   -8.6329   18.5576  -33.3324 H   0  0  0  0  0  0  0  0  0  0  0  0
   -8.8977   19.7693  -30.6462 H   0  0  0  0  0  0  0  0  0  0  0  0
   -7.4376   19.1444  -31.5117 H   0  0  0  0  0  0  0  0  0  0  0  0
   -6.6640   19.3730  -33.4280 H   0  0  0  0  0  0  0  0  0  0  0  0
   -1.3760   20.0650  -33.0760 H   0  0  0  0  0  0  0  0  0  0  0  0
   -0.7646   17.8439  -34.5585 H   0  0  0  0  0  0  0  0  0  0  0  0
   -1.7899   15.9155  -35.8101 H   0  0  0  0  0  0  0  0  0  0  0  0
   -4.2756   15.6615  -35.9235 H   0  0  0  0  0  0  0  0  0  0  0  0
   -6.5726   16.8761  -32.8157 H   0  0  0  0  0  0  0  0  0  0  0  0
   -7.9303   16.8094  -33.9899 H   0  0  0  0  0  0  0  0  0  0  0  0
   -6.6786   15.5209  -33.9899 H   0  0  0  0  0  0  0  0  0  0  0  0
   -4.2886   22.2024  -29.2855 H   0  0  0  0  0  0  0  0  0  0  0  0
   -4.6988   24.2627  -27.9361 H   0  0  0  0  0  0  0  0  0  0  0  0
   -5.8698   26.2165  -28.9596 H   0  0  0  0  0  0  0  0  0  0  0  0
   -6.6333   26.1118  -31.3353 H   0  0  0  0  0  0  0  0  0  0  0  0
   -6.2271   24.0550  -32.6905 H   0  0  0  0  0  0  0  0  0  0  0  0
  1  2  1  0
  2  3  1  0
  3  4  1  0
  4  5  2  0
  5  6  1  0
  6  7  2  0
  7  8  1  0
  8  9  1  0
  9 10  2  0
 10 11  1  0
 11 12  2  0
 12 13  1  0
 13 14  1  0
 14 15  1  0
 13 16  2  0
  7 17  1  0
 17 18  2  0
 17 19  1  0
 19 20  1  0
 20 21  2  0
 21 22  1  0
 22 23  2  0
 23 24  1  0
 24 25  2  0
 19  4  1  0
 25 20  1  0
 16  6  1  0
 16  9  1  0
  1 26  1  0
  1 27  1  0
  1 28  1  0
  2 29  1  0
  2 30  1  0
  5 31  1  0
  8 32  1  0
 10 33  1  0
 11 34  1  0
 12 35  1  0
 15 36  1  0
 15 37  1  0
 15 38  1  0
 21 39  1  0
 22 40  1  0
 23 41  1  0
 24 42  1  0
 25 43  1  0
M  CHG  1   5   1
M  END
>  <UniqueID>  (7) 
7

>  <SMILES>  (7) 
CCSc1[nH+]c2c([nH]c3cccc(OC)c32)c(=O)n1-c1ccccc1

>  <Energy>  (7) 
93.0888317079948

>  <Genealogy>  (7) 
CCSc1[nH+]c2c([nH]c3cccc(OC)c32)c(=O)n1-c1ccccc1 (protonated)
CCSc1[nH+]c2c([nH]c3cccc(OC)c32)c(=O)n1-c1ccccc1 (3D coordinates assigned)
CCSc1[nH+]c2c([nH]c3cccc(OC)c32)c(=O)n1-c1ccccc1 (optimized conformer: 93.0888317079948 kcal/mol)

>  <smiles>  (7) 
CCSc1nc2c([nH]c3cccc(OC)c32)c(=O)n1-c1ccccc1

>  <score_type>  (7) 
oracle

>  <origin>  (7) 
adg

>  <m_score__min__energy>  (7) 
-6.8499999999999996

>  <m_primary>  (7) 
energy

$$$$
7:0
     RDKit          3D

 59 61  0  0  0  0  0  0  0  0999 V2000
  -10.4894   20.6116  -31.8419 H   0  0  0  0  0  0  0  0  0  0  0  0
   -9.4160   20.8460  -31.8950 C   0  0  0  0  0  0  0  0  0  0  0  0
   -8.9070   21.9350  -31.1840 C   0  0  0  0  0  0  0  0  0  0  0  0
   -9.5829   22.5520  -30.5737 H   0  0  0  0  0  0  0  0  0  0  0  0
   -7.5340   22.2500  -31.2420 C   0  0  0  0  0  0  0  0  0  0  0  0
   -6.9920   23.3410  -30.5370 O   0  0  0  0  0  0  0  0  0  0  0  0
   -6.5070   24.5540  -31.1130 C   0  0  0  0  0  0  0  0  0  0  0  0
   -7.2946   25.3199  -31.0576 H   0  0  0  0  0  0  0  0  0  0  0  0
   -6.2331   24.3624  -32.1610 H   0  0  0  0  0  0  0  0  0  0  0  0
   -5.2720   25.0510  -30.3670 C   0  0  0  0  0  0  0  0  0  0  0  0
   -5.3861   24.8518  -29.2912 H   0  0  0  0  0  0  0  0  0  0  0  0
   -5.1541   26.1334  -30.5234 H   0  0  0  0  0  0  0  0  0  0  0  0
   -4.1350   24.3720  -30.8560 O   0  0  0  0  0  0  0  0  0  0  0  0
   -3.6310   23.5150  -29.8540 C   0  0  0  0  0  0  0  0  0  0  0  0
   -3.6737   22.4740  -30.2068 H   0  0  0  0  0  0  0  0  0  0  0  0
   -4.2389   23.6195  -28.9432 H   0  0  0  0  0  0  0  0  0  0  0  0
   -2.1830   23.8880  -29.5440 C   0  0  0  0  0  0  0  0  0  0  0  0
   -1.5489   23.6297  -30.4049 H   0  0  0  0  0  0  0  0  0  0  0  0
   -1.8520   23.3329  -28.6539 H   0  0  0  0  0  0  0  0  0  0  0  0
   -2.0800   25.2780  -29.2870 O   0  0  0  0  0  0  0  0  0  0  0  0
   -1.5370   25.5330  -28.0050 C   0  0  0  0  0  0  0  0  0  0  0  0
   -1.4535   26.6198  -27.8571 H   0  0  0  0  0  0  0  0  0  0  0  0
   -0.5444   25.0635  -27.9398 H   0  0  0  0  0  0  0  0  0  0  0  0
   -2.4320   24.9460  -26.9180 C   0  0  0  0  0  0  0  0  0  0  0  0
   -2.0292   25.2102  -25.9291 H   0  0  0  0  0  0  0  0  0  0  0  0
   -3.4487   25.3533  -27.0206 H   0  0  0  0  0  0  0  0  0  0  0  0
   -2.4635   23.8512  -27.0206 H   0  0  0  0  0  0  0  0  0  0  0  0
   -6.6740   21.4460  -32.0230 C   0  0  0  0  0  0  0  0  0  0  0  0
   -7.2030   20.3460  -32.7390 C   0  0  0  0  0  0  0  0  0  0  0  0
   -8.5720   20.0550  -32.6710 C   0  0  0  0  0  0  0  0  0  0  0  0
   -8.9806   19.2010  -33.2311 H   0  0  0  0  0  0  0  0  0  0  0  0
   -6.3460   19.5610  -33.5150 C   0  0  0  0  0  0  0  0  0  0  0  0
   -6.7432   18.7029  -34.0771 H   0  0  0  0  0  0  0  0  0  0  0  0
   -4.9890   19.8660  -33.5760 C   0  0  0  0  0  0  0  0  0  0  0  0
   -4.3132   19.2502  -34.1876 H   0  0  0  0  0  0  0  0  0  0  0  0
   -4.4860   20.9560  -32.8590 C   0  0  0  0  0  0  0  0  0  0  0  0
   -3.2100   21.2150  -32.9380 N   0  0  0  0  0  0  0  0  0  0  0  0
   -2.1810   20.7630  -32.0040 C   0  0  0  0  0  0  0  0  0  0  0  0
   -1.7227   21.6346  -31.5137 H   0  0  0  0  0  0  0  0  0  0  0  0
   -2.6370   20.1117  -31.2438 H   0  0  0  0  0  0  0  0  0  0  0  0
   -1.1070   19.9830  -32.7650 C   0  0  0  0  0  0  0  0  0  0  0  0
   -0.5070   19.4041  -32.0475 H   0  0  0  0  0  0  0  0  0  0  0  0
   -1.6036   19.3130  -33.4823 H   0  0  0  0  0  0  0  0  0  0  0  0
   -0.2160   20.8970  -33.5140 N   0  0  0  0  0  0  0  0  0  0  0  0
   -0.6350   20.9770  -34.9260 C   0  0  0  0  0  0  0  0  0  0  0  0
   -0.5475   19.9827  -35.3883 H   0  0  0  0  0  0  0  0  0  0  0  0
   -1.6787   21.3211  -34.9727 H   0  0  0  0  0  0  0  0  0  0  0  0
    0.2610   21.9760  -35.6900 C   0  0  0  0  0  0  0  0  0  0  0  0
    0.5710   21.5155  -36.6396 H   0  0  0  0  0  0  0  0  0  0  0  0
   -0.3270   22.8910  -35.8542 H   0  0  0  0  0  0  0  0  0  0  0  0
    1.4210   22.3380  -34.9620 O   0  0  0  0  0  0  0  0  0  0  0  0
    2.0670   21.1760  -34.4870 C   0  0  0  0  0  0  0  0  0  0  0  0
    2.2409   20.4893  -35.3286 H   0  0  0  0  0  0  0  0  0  0  0  0
    3.0240   21.4646  -34.0278 H   0  0  0  0  0  0  0  0  0  0  0  0
    1.2000   20.4690  -33.4270 C   0  0  0  0  0  0  0  0  0  0  0  0
    1.2558   19.3820  -33.5860 H   0  0  0  0  0  0  0  0  0  0  0  0
    1.5825   20.7379  -32.4313 H   0  0  0  0  0  0  0  0  0  0  0  0
   -5.3340   21.7200  -32.1000 N   0  0  0  0  0  0  0  0  0  0  0  0
   -4.9580   22.5330  -31.5660 H   0  0  0  0  0  0  0  0  0  0  0  0
  1  2  1  0
  2  3  2  0
  3  4  1  0
  3  5  1  0
  5  6  1  0
  6  7  1  0
  7  8  1  0
  7  9  1  0
  7 10  1  0
 10 11  1  0
 10 12  1  0
 10 13  1  0
 13 14  1  0
 14 15  1  0
 14 16  1  0
 14 17  1  0
 17 18  1  0
 17 19  1  0
 17 20  1  0
 20 21  1  0
 21 22  1  0
 21 23  1  0
 21 24  1  0
 24 25  1  0
 24 26  1  0
 24 27  1  0
  5 28  2  0
 28 29  1  0
 29 30  2  0
 30 31  1  0
 29 32  1  0
 32 33  1  0
 32 34  2  0
 34 35  1  0
 34 36  1  0
 36 37  2  0
 37 38  1  0
 38 39  1  0
 38 40  1  0
 38 41  1  0
 41 42  1  0
 41 43  1  0
 41 44  1  0
 44 45  1  0
 45 46  1  0
 45 47  1  0
 45 48  1  0
 48 49  1  0
 48 50  1  0
 48 51  1  0
 51 52  1  0
 52 53  1  0
 52 54  1  0
 52 55  1  0
 55 56  1  0
 55 57  1  0
 36 58  1  0
 58 59  1  0
 30  2  1  0
 55 44  1  0
 58 28  1  0
M  END
>  <UniqueID>  (8) 
8

>  <SMILES>  (8) 
CCOCCOCCOc1cccc2cc/c(=N/CCN3CCOCC3)[nH]c12

>  <Energy>  (8) 
70.36266869468051

>  <Genealogy>  (8) 
CCOCCOCCOc1cccc2cc/c(=N/CCN3CCOCC3)[nH]c12 (cis-trans isomerization)
CCOCCOCCOc1cccc2cc/c(=N/CCN3CCOCC3)[nH]c12 (3D coordinates assigned)
CCOCCOCCOc1cccc2cc/c(=N/CCN3CCOCC3)[nH]c12 (nonaromatic ring conformer: 70.36266869468051 kcal/mol)

>  <smiles>  (8) 
CCOCCOCCOc1cccc2ccc(=NCCN3CCOCC3)[nH]c12

>  <score_type>  (8) 
oracle

>  <origin>  (8) 
adg

>  <m_score__min__energy>  (8) 
-8.4199999999999999

>  <m_primary>  (8) 
energy

$$$$
8:0
     RDKit          3D

 33 35  0  0  0  0  0  0  0  0999 V2000
   -3.2210   24.5530  -27.3770 C   0  0  0  0  0  0  0  0  0  0  0  0
   -2.3460   24.9220  -28.5700 C   0  0  0  0  0  0  0  0  0  0  0  0
   -3.1450   25.1780  -29.7240 O   0  0  0  0  0  0  0  0  0  0  0  0
   -4.0860   24.2950  -30.2770 C   0  0  0  0  0  0  0  0  0  0  0  0
   -3.6490   22.9950  -30.6290 C   0  0  0  0  0  0  0  0  0  0  0  0
   -4.5370   22.0580  -31.1890 C   0  0  0  0  0  0  0  0  0  0  0  0
   -5.8550   22.4610  -31.4060 C   0  0  0  0  0  0  0  0  0  0  0  0
   -6.2870   23.7080  -31.0550 C   0  0  0  0  0  0  0  0  0  0  0  0
   -5.4390   24.6590  -30.4950 C   0  0  0  0  0  0  0  0  0  0  0  0
   -7.6030   23.8180  -31.3060 N   0  0  0  0  0  0  0  0  0  0  0  0
   -7.9520   22.6120  -31.8110 C   0  0  0  0  0  0  0  0  0  0  0  0
   -6.9000   21.7580  -31.8920 N   0  0  0  0  0  0  0  0  0  0  0  0
   -6.9280   20.4110  -32.3940 C   0  0  0  0  0  0  0  0  0  0  0  0
   -6.0410   20.0190  -33.4110 C   0  0  0  0  0  0  0  0  0  0  0  0
   -6.0550   18.7070  -33.8920 C   0  0  0  0  0  0  0  0  0  0  0  0
   -6.9450   17.7720  -33.3550 C   0  0  0  0  0  0  0  0  0  0  0  0
   -7.8180   18.1500  -32.3310 C   0  0  0  0  0  0  0  0  0  0  0  0
   -7.8090   19.4610  -31.8490 C   0  0  0  0  0  0  0  0  0  0  0  0
   -2.6838   24.7796  -26.4442 H   0  0  0  0  0  0  0  0  0  0  0  0
   -4.1542   25.1342  -27.4131 H   0  0  0  0  0  0  0  0  0  0  0  0
   -3.4562   23.4791  -27.4131 H   0  0  0  0  0  0  0  0  0  0  0  0
   -1.7652   25.8238  -28.3261 H   0  0  0  0  0  0  0  0  0  0  0  0
   -1.6723   24.0800  -28.7871 H   0  0  0  0  0  0  0  0  0  0  0  0
   -2.5989   22.7131  -30.4621 H   0  0  0  0  0  0  0  0  0  0  0  0
   -4.2033   21.0421  -31.4470 H   0  0  0  0  0  0  0  0  0  0  0  0
   -5.8067   25.6612  -30.2299 H   0  0  0  0  0  0  0  0  0  0  0  0
   -8.2200   24.6430  -31.1400 H   0  0  0  0  0  0  0  0  0  0  0  0
   -8.9749   22.3525  -32.1215 H   0  0  0  0  0  0  0  0  0  0  0  0
   -5.3323   20.7483  -33.8304 H   0  0  0  0  0  0  0  0  0  0  0  0
   -5.3644   18.4093  -34.6948 H   0  0  0  0  0  0  0  0  0  0  0  0
   -6.9582   16.7408  -33.7377 H   0  0  0  0  0  0  0  0  0  0  0  0
   -8.5140   17.4132  -31.9036 H   0  0  0  0  0  0  0  0  0  0  0  0
   -8.4945   19.7513  -31.0392 H   0  0  0  0  0  0  0  0  0  0  0  0
  1  2  1  0
  2  3  1  0
  3  4  1  0
  4  5  2  0
  5  6  1  0
  6  7  2  0
  7  8  1  0
  8  9  2  0
  8 10  1  0
 10 11  2  0
 11 12  1  0
 12 13  1  0
 13 14  2  0
 14 15  1  0
 15 16  2  0
 16 17  1  0
 17 18  2  0
  9  4  1  0
 18 13  1  0
 12  7  1  0
  1 19  1  0
  1 20  1  0
  1 21  1  0
  2 22  1  0
  2 23  1  0
  5 24  1  0
  6 25  1  0
  9 26  1  0
 10 27  1  0
 11 28  1  0
 14 29  1  0
 15 30  1  0
 16 31  1  0
 17 32  1  0
 18 33  1  0
M  CHG  1  10   1
M  END
>  <UniqueID>  (9) 
9

>  <SMILES>  (9) 
CCOc1ccc2c(c1)[nH+]cn2-c1ccccc1

>  <Energy>  (9) 
77.36834429239816

>  <Genealogy>  (9) 
CCOc1ccc2c(c1)[nH+]cn2-c1ccccc1 (protonated)
CCOc1ccc2c(c1)[nH+]cn2-c1ccccc1 (3D coordinates assigned)
CCOc1ccc2c(c1)[nH+]cn2-c1ccccc1 (optimized conformer: 77.36834429239816 kcal/mol)

>  <smiles>  (9) 
CCOc1ccc2c(c1)ncn2-c1ccccc1

>  <score_type>  (9) 
oracle

>  <origin>  (9) 
adg

>  <m_score__min__energy>  (9) 
-6.7300000000000004

>  <m_primary>  (9) 
energy

$$$$
9:0
     RDKit          3D

 58 60  0  0  0  0  0  0  0  0999 V2000
   -2.6560   19.2700  -26.9670 C   0  0  0  0  0  0  0  0  0  0  0  0
   -2.7730   20.4660  -27.9180 C   0  0  0  0  0  0  0  0  0  0  0  0
   -2.0330   20.2650  -29.1750 N   0  0  0  0  0  0  0  0  0  0  0  0
   -0.7230   19.6420  -28.9530 C   0  0  0  0  0  0  0  0  0  0  0  0
   -0.0260   19.4180  -30.3000 C   0  0  0  0  0  0  0  0  0  0  0  0
   -0.9280   19.7380  -31.5110 C   0  0  0  0  0  0  0  0  0  0  0  0
   -1.2190   21.1720  -31.7170 N   0  0  0  0  0  0  0  0  0  0  0  0
   -1.8880   21.5040  -32.9860 C   0  0  0  0  0  0  0  0  0  0  0  0
   -3.3590   21.0420  -33.0160 C   0  0  0  0  0  0  0  0  0  0  0  0
   -3.8040   20.5300  -31.7040 N   0  0  0  0  0  0  0  0  0  0  0  0
   -5.1470   20.9900  -31.3560 C   0  0  0  0  0  0  0  0  0  0  0  0
   -5.3660   22.3200  -30.9070 C   0  0  0  0  0  0  0  0  0  0  0  0
   -6.6520   22.9010  -31.0580 C   0  0  0  0  0  0  0  0  0  0  0  0
   -7.6860   22.1600  -31.5950 N   0  0  0  0  0  0  0  0  0  0  0  0
   -8.9510   22.8230  -31.9840 C   0  0  0  0  0  0  0  0  0  0  0  0
   -7.5620   20.7910  -31.7190 C   0  0  0  0  0  0  0  0  0  0  0  0
   -8.6910   19.9670  -31.9620 C   0  0  0  0  0  0  0  0  0  0  0  0
   -8.5620   18.5870  -32.0950 C   0  0  0  0  0  0  0  0  0  0  0  0
   -7.3180   17.9900  -31.9620 C   0  0  0  0  0  0  0  0  0  0  0  0
   -6.1920   18.7670  -31.7030 C   0  0  0  0  0  0  0  0  0  0  0  0
   -6.2850   20.1770  -31.6010 C   0  0  0  0  0  0  0  0  0  0  0  0
   -6.8570   24.3790  -30.7220 C   0  0  0  0  0  0  0  0  0  0  0  0
   -5.8380   24.9400  -29.7280 C   0  0  0  0  0  0  0  0  0  0  0  0
   -4.4240   24.6140  -30.1790 C   0  0  0  0  0  0  0  0  0  0  0  0
   -4.2830   23.1300  -30.2740 C   0  0  0  0  0  0  0  0  0  0  0  0
   -3.2690   22.5880  -29.7620 O   0  0  0  0  0  0  0  0  0  0  0  0
   -2.6907   19.6244  -25.9262 H   0  0  0  0  0  0  0  0  0  0  0  0
   -3.4906   18.5761  -27.1461 H   0  0  0  0  0  0  0  0  0  0  0  0
   -1.7028   18.7510  -27.1461 H   0  0  0  0  0  0  0  0  0  0  0  0
   -3.8352   20.6241  -28.1560 H   0  0  0  0  0  0  0  0  0  0  0  0
   -2.3364   21.3389  -27.4105 H   0  0  0  0  0  0  0  0  0  0  0  0
   -1.8980   21.1880  -29.6480 H   0  0  0  0  0  0  0  0  0  0  0  0
   -0.1052   20.3019  -28.3262 H   0  0  0  0  0  0  0  0  0  0  0  0
   -0.8591   18.6751  -28.4465 H   0  0  0  0  0  0  0  0  0  0  0  0
    0.8630   20.0642  -30.3456 H   0  0  0  0  0  0  0  0  0  0  0  0
    0.2357   18.3513  -30.3597 H   0  0  0  0  0  0  0  0  0  0  0  0
   -0.4306   19.3583  -32.4156 H   0  0  0  0  0  0  0  0  0  0  0  0
   -1.8956   19.2564  -31.3067 H   0  0  0  0  0  0  0  0  0  0  0  0
   -1.8190   21.5100  -30.9300 H   0  0  0  0  0  0  0  0  0  0  0  0
   -1.8578   22.5946  -33.1260 H   0  0  0  0  0  0  0  0  0  0  0  0
   -1.3557   20.9781  -33.7923 H   0  0  0  0  0  0  0  0  0  0  0  0
   -3.9936   21.8949  -33.2984 H   0  0  0  0  0  0  0  0  0  0  0  0
   -3.4439   20.2243  -33.7469 H   0  0  0  0  0  0  0  0  0  0  0  0
   -3.1240   20.8030  -30.9620 H   0  0  0  0  0  0  0  0  0  0  0  0
   -3.7310   19.4950  -31.7700 H   0  0  0  0  0  0  0  0  0  0  0  0
   -9.5057   23.1137  -31.0797 H   0  0  0  0  0  0  0  0  0  0  0  0
   -8.7267   23.7195  -32.5807 H   0  0  0  0  0  0  0  0  0  0  0  0
   -9.5606   22.1285  -32.5807 H   0  0  0  0  0  0  0  0  0  0  0  0
   -9.6867   20.4268  -32.0469 H   0  0  0  0  0  0  0  0  0  0  0  0
   -9.4479   17.9700  -32.3058 H   0  0  0  0  0  0  0  0  0  0  0  0
   -7.2201   16.8989  -32.0614 H   0  0  0  0  0  0  0  0  0  0  0  0
   -5.2148   18.2784  -31.5756 H   0  0  0  0  0  0  0  0  0  0  0  0
   -6.7856   24.9585  -31.6543 H   0  0  0  0  0  0  0  0  0  0  0  0
   -7.8448   24.4622  -30.2452 H   0  0  0  0  0  0  0  0  0  0  0  0
   -5.9559   26.0319  -29.6653 H   0  0  0  0  0  0  0  0  0  0  0  0
   -6.0124   24.4840  -28.7423 H   0  0  0  0  0  0  0  0  0  0  0  0
   -4.2353   25.0677  -31.1631 H   0  0  0  0  0  0  0  0  0  0  0  0
   -3.6979   25.0145  -29.4563 H   0  0  0  0  0  0  0  0  0  0  0  0
  1  2  1  0
  2  3  1  0
  3  4  1  0
  4  5  1  0
  5  6  1  0
  6  7  1  0
  7  8  1  0
  8  9  1  0
  9 10  1  0
 10 11  1  0
 11 12  2  0
 12 13  1  0
 13 14  2  0
 14 15  1  0
 14 16  1  0
 16 17  2  0
 17 18  1  0
 18 19  2  0
 19 20  1  0
 20 21  2  0
 13 22  1  0
 22 23  1  0
 23 24  1  0
 24 25  1  0
 25 26  2  0
 21 11  1  0
 25 12  1  0
 21 16  1  0
  1 27  1  0
  1 28  1  0
  1 29  1  0
  2 30  1  0
  2 31  1  0
  3 32  1  0
  4 33  1  0
  4 34  1  0
  5 35  1  0
  5 36  1  0
  6 37  1  0
  6 38  1  0
  7 39  1  0
  8 40  1  0
  8 41  1  0
  9 42  1  0
  9 43  1  0
 10 44  1  0
 10 45  1  0
 15 46  1  0
 15 47  1  0
 15 48  1  0
 17 49  1  0
 18 50  1  0
 19 51  1  0
 20 52  1  0
 22 53  1  0
 22 54  1  0
 23 55  1  0
 23 56  1  0
 24 57  1  0
 24 58  1  0
M  CHG  2  10   1  14   1
M  END
>  <UniqueID>  (10) 
10

>  <SMILES>  (10) 
CCNCCCNCC[NH2+]c1c2c([n+](C)c3ccccc13)CCCC2=O

>  <Energy>  (10) 
81.32961572443027

>  <Genealogy>  (10) 
CCNCCCNCC[NH2+]c1c2c([n+](C)c3ccccc13)CCCC2=O (protonated)
CCNCCCNCC[NH2+]c1c2c([n+](C)c3ccccc13)CCCC2=O (3D coordinates assigned)
CCNCCCNCC[NH2+]c1c2c([n+](C)c3ccccc13)CCCC2=O (nonaromatic ring conformer: 81.32961572443027 kcal/mol)

>  <smiles>  (10) 
CCNCCCNCCNc1c2c([n+](C)c3ccccc13)CCCC2=O

>  <score_type>  (10) 
oracle

>  <origin>  (10) 
adg

>  <m_score__min__energy>  (10) 
-6.5199999999999996

>  <m_primary>  (10) 
energy

$$$$
10:0
     RDKit          3D

 34 34  0  0  0  0  0  0  0  0999 V2000
   -7.9274   20.8154  -30.6714 H   0  0  0  0  0  0  0  0  0  0  0  0
   -8.5250   21.3010  -31.4570 C   0  0  0  0  0  0  0  0  0  0  0  0
   -8.3750   22.6260  -31.6460 C   0  0  0  0  0  0  0  0  0  0  0  0
   -7.1110   23.2910  -31.2340 C   0  0  0  0  0  0  0  0  0  0  0  0
   -5.8680   22.7470  -31.6020 C   0  0  0  0  0  0  0  0  0  0  0  0
   -5.8316   21.8226  -32.1971 H   0  0  0  0  0  0  0  0  0  0  0  0
   -4.6790   23.3710  -31.2180 C   0  0  0  0  0  0  0  0  0  0  0  0
   -3.7141   22.9320  -31.5117 H   0  0  0  0  0  0  0  0  0  0  0  0
   -4.7030   24.5480  -30.4640 C   0  0  0  0  0  0  0  0  0  0  0  0
   -3.4810   25.1350  -30.1040 O   0  0  0  0  0  0  0  0  0  0  0  0
   -2.5340   24.5430  -29.2190 C   0  0  0  0  0  0  0  0  0  0  0  0
   -2.8365   24.7321  -28.1785 H   0  0  0  0  0  0  0  0  0  0  0  0
   -2.4933   23.4584  -29.3977 H   0  0  0  0  0  0  0  0  0  0  0  0
   -1.5411   24.9815  -29.3977 H   0  0  0  0  0  0  0  0  0  0  0  0
   -5.9440   25.1000  -30.0940 C   0  0  0  0  0  0  0  0  0  0  0  0
   -5.9761   26.0261  -29.5014 H   0  0  0  0  0  0  0  0  0  0  0  0
   -7.1360   24.4770  -30.4760 C   0  0  0  0  0  0  0  0  0  0  0  0
   -8.1004   24.9168  -30.1821 H   0  0  0  0  0  0  0  0  0  0  0  0
   -9.4360   23.4400  -32.3460 C   0  0  0  0  0  0  0  0  0  0  0  0
  -10.0753   23.9305  -31.5972 H   0  0  0  0  0  0  0  0  0  0  0  0
   -8.9562   24.2039  -32.9755 H   0  0  0  0  0  0  0  0  0  0  0  0
  -10.0496   22.7788  -32.9755 H   0  0  0  0  0  0  0  0  0  0  0  0
   -9.4680   20.4500  -32.2650 C   0  0  0  0  0  0  0  0  0  0  0  0
  -10.0278   21.0894  -32.9634 H   0  0  0  0  0  0  0  0  0  0  0  0
  -10.1657   19.9394  -31.5849 H   0  0  0  0  0  0  0  0  0  0  0  0
   -8.7130   19.4440  -33.0250 N   0  0  0  0  0  0  0  0  0  0  0  0
   -8.7510   19.7200  -34.0350 H   0  0  0  0  0  0  0  0  0  0  0  0
   -7.2990   19.4180  -32.6250 C   0  0  0  0  0  0  0  0  0  0  0  0
   -7.0669   18.4390  -32.1803 H   0  0  0  0  0  0  0  0  0  0  0  0
   -7.1224   20.2196  -31.8927 H   0  0  0  0  0  0  0  0  0  0  0  0
   -6.3960   19.6470  -33.8330 C   0  0  0  0  0  0  0  0  0  0  0  0
   -5.3829   19.9039  -33.4900 H   0  0  0  0  0  0  0  0  0  0  0  0
   -6.3562   18.7305  -34.4400 H   0  0  0  0  0  0  0  0  0  0  0  0
   -6.7978   20.4717  -34.4400 H   0  0  0  0  0  0  0  0  0  0  0  0
  1  2  1  0
  2  3  2  0
  3  4  1  0
  4  5  2  0
  5  6  1  0
  5  7  1  0
  7  8  1  0
  7  9  2  0
  9 10  1  0
 10 11  1  0
 11 12  1  0
 11 13  1  0
 11 14  1  0
  9 15  1  0
 15 16  1  0
 15 17  2  0
 17 18  1  0
  3 19  1  0
 19 20  1  0
 19 21  1  0
 19 22  1  0
  2 23  1  0
 23 24  1  0
 23 25  1  0
 23 26  1  0
 26 27  1  0
 26 28  1  0
 28 29  1  0
 28 30  1  0
 28 31  1  0
 31 32  1  0
 31 33  1  0
 31 34  1  0
 17  4  1  0
M  END
>  <UniqueID>  (11) 
11

>  <SMILES>  (11) 
CCNC/C=C(\C)c1ccc(OC)cc1

>  <Energy>  (11) 
30.999308036067507

>  <Genealogy>  (11) 
CCNC/C=C(\C)c1ccc(OC)cc1 (cis-trans isomerization)
CCNC/C=C(\C)c1ccc(OC)cc1 (3D coordinates assigned)
CCNC/C=C(\C)c1ccc(OC)cc1 (optimized conformer: 30.999308036067507 kcal/mol)

>  <smiles>  (11) 
CCNCC=C(C)c1ccc(OC)cc1

>  <score_type>  (11) 
oracle

>  <origin>  (11) 
adg

>  <m_score__min__energy>  (11) 
-6.8200000000000003

>  <m_primary>  (11) 
energy

$$$$
11:0
     RDKit          3D

 66 69  0  0  0  0  0  0  0  0999 V2000
   -2.9610   22.7630  -29.8860 C   0  0  0  0  0  0  0  0  0  0  0  0
   -3.4860   21.3550  -29.6040 C   0  0  0  0  0  0  0  0  0  0  0  0
   -2.4870   20.5570  -28.8710 N   0  0  0  0  0  0  0  0  0  0  0  0
   -2.9130   20.2830  -27.4780 C   0  0  0  0  0  0  0  0  0  0  0  0
   -1.7950   19.6500  -26.6240 C   0  0  0  0  0  0  0  0  0  0  0  0
   -0.9030   18.7040  -27.4420 C   0  0  0  0  0  0  0  0  0  0  0  0
   -0.3190   19.3670  -28.5470 O   0  0  0  0  0  0  0  0  0  0  0  0
   -0.0280   18.4600  -29.5940 C   0  0  0  0  0  0  0  0  0  0  0  0
   -0.1090   19.2010  -30.9290 C   0  0  0  0  0  0  0  0  0  0  0  0
   -0.8270   20.4120  -30.7820 O   0  0  0  0  0  0  0  0  0  0  0  0
   -0.2200   21.4690  -31.5040 C   0  0  0  0  0  0  0  0  0  0  0  0
    0.3160   20.9870  -32.8570 C   0  0  0  0  0  0  0  0  0  0  0  0
   -0.7380   20.9530  -33.8710 N   0  0  0  0  0  0  0  0  0  0  0  0
   -1.7170   19.9000  -33.9790 C   0  0  0  0  0  0  0  0  0  0  0  0
   -1.3190   18.6120  -34.3830 C   0  0  0  0  0  0  0  0  0  0  0  0
   -2.2340   17.5600  -34.4180 C   0  0  0  0  0  0  0  0  0  0  0  0
   -3.5580   17.7690  -34.0450 C   0  0  0  0  0  0  0  0  0  0  0  0
   -3.9890   19.0440  -33.6480 C   0  0  0  0  0  0  0  0  0  0  0  0
   -5.3200   19.2470  -33.2730 C   0  0  0  0  0  0  0  0  0  0  0  0
   -5.7600   20.5290  -32.8980 C   0  0  0  0  0  0  0  0  0  0  0  0
   -4.8650   21.5740  -32.8950 N   0  0  0  0  0  0  0  0  0  0  0  0
   -3.5630   21.3940  -33.2750 C   0  0  0  0  0  0  0  0  0  0  0  0
   -3.0760   20.1220  -33.6270 C   0  0  0  0  0  0  0  0  0  0  0  0
   -5.3190   22.9350  -32.5540 C   0  0  0  0  0  0  0  0  0  0  0  0
   -6.3200   22.9020  -31.3960 C   0  0  0  0  0  0  0  0  0  0  0  0
   -7.4370   21.9440  -31.7080 C   0  0  0  0  0  0  0  0  0  0  0  0
   -8.7320   22.1920  -31.2250 C   0  0  0  0  0  0  0  0  0  0  0  0
   -9.7670   21.2920  -31.4950 C   0  0  0  0  0  0  0  0  0  0  0  0
   -9.5150   20.1440  -32.2430 C   0  0  0  0  0  0  0  0  0  0  0  0
   -8.2260   19.8790  -32.7160 C   0  0  0  0  0  0  0  0  0  0  0  0
   -7.1640   20.7670  -32.4350 C   0  0  0  0  0  0  0  0  0  0  0  0
   -2.7683   23.2799  -28.9343 H   0  0  0  0  0  0  0  0  0  0  0  0
   -2.0270   22.6973  -30.4633 H   0  0  0  0  0  0  0  0  0  0  0  0
   -3.7101   23.3248  -30.4633 H   0  0  0  0  0  0  0  0  0  0  0  0
   -4.4026   21.4269  -29.0002 H   0  0  0  0  0  0  0  0  0  0  0  0
   -3.6952   20.8597  -30.5636 H   0  0  0  0  0  0  0  0  0  0  0  0
   -2.2940   19.6670  -29.3910 H   0  0  0  0  0  0  0  0  0  0  0  0
   -1.5910   21.1000  -28.8450 H   0  0  0  0  0  0  0  0  0  0  0  0
   -3.2179   21.2311  -27.0109 H   0  0  0  0  0  0  0  0  0  0  0  0
   -3.7439   19.5635  -27.5214 H   0  0  0  0  0  0  0  0  0  0  0  0
   -1.1701   20.4535  -26.2071 H   0  0  0  0  0  0  0  0  0  0  0  0
   -2.2723   19.0592  -25.8283 H   0  0  0  0  0  0  0  0  0  0  0  0
   -0.1029   18.3176  -26.7935 H   0  0  0  0  0  0  0  0  0  0  0  0
   -1.5289   17.8838  -27.8235 H   0  0  0  0  0  0  0  0  0  0  0  0
    0.9849   18.0528  -29.4587 H   0  0  0  0  0  0  0  0  0  0  0  0
   -0.7532   17.6330  -29.5825 H   0  0  0  0  0  0  0  0  0  0  0  0
    0.9089   19.4243  -31.2812 H   0  0  0  0  0  0  0  0  0  0  0  0
   -0.6317   18.5641  -31.6578 H   0  0  0  0  0  0  0  0  0  0  0  0
   -0.9654   22.2596  -31.6755 H   0  0  0  0  0  0  0  0  0  0  0  0
    0.6255   21.8510  -30.9130 H   0  0  0  0  0  0  0  0  0  0  0  0
    1.1107   21.6706  -33.1905 H   0  0  0  0  0  0  0  0  0  0  0  0
    0.7050   19.9660  -32.7297 H   0  0  0  0  0  0  0  0  0  0  0  0
   -0.7700   21.7540  -34.5420 H   0  0  0  0  0  0  0  0  0  0  0  0
   -0.2736   18.4328  -34.6747 H   0  0  0  0  0  0  0  0  0  0  0  0
   -1.9075   16.5608  -34.7419 H   0  0  0  0  0  0  0  0  0  0  0  0
   -4.2702   16.9309  -34.0614 H   0  0  0  0  0  0  0  0  0  0  0  0
   -6.0247   18.4024  -33.2712 H   0  0  0  0  0  0  0  0  0  0  0  0
   -2.8848   22.2595  -33.3058 H   0  0  0  0  0  0  0  0  0  0  0  0
   -4.4496   23.5421  -32.2615 H   0  0  0  0  0  0  0  0  0  0  0  0
   -5.8135   23.3718  -33.4342 H   0  0  0  0  0  0  0  0  0  0  0  0
   -5.8061   22.5762  -30.4796 H   0  0  0  0  0  0  0  0  0  0  0  0
   -6.7381   23.9091  -31.2516 H   0  0  0  0  0  0  0  0  0  0  0  0
   -8.9325   23.0969  -30.6326 H   0  0  0  0  0  0  0  0  0  0  0  0
  -10.7807   21.4903  -31.1168 H   0  0  0  0  0  0  0  0  0  0  0  0
  -10.3337   19.4429  -32.4625 H   0  0  0  0  0  0  0  0  0  0  0  0
   -8.0378   18.9730  -33.3108 H   0  0  0  0  0  0  0  0  0  0  0  0
  1  2  1  0
  2  3  1  0
  3  4  1  0
  4  5  1  0
  5  6  1  0
  6  7  1  0
  7  8  1  0
  8  9  1  0
  9 10  1  0
 10 11  1  0
 11 12  1  0
 12 13  1  0
 13 14  1  0
 14 15  2  0
 15 16  1  0
 16 17  2  0
 17 18  1  0
 18 19  2  0
 19 20  1  0
 20 21  2  0
 21 22  1  0
 22 23  2  0
 21 24  1  0
 24 25  1  0
 25 26  1  0
 26 27  2  0
 27 28  1  0
 28 29  2  0
 29 30  1  0
 30 31  2  0
 23 14  1  0
 31 26  1  0
 23 18  1  0
 31 20  1  0
  1 32  1  0
  1 33  1  0
  1 34  1  0
  2 35  1  0
  2 36  1  0
  3 37  1  0
  3 38  1  0
  4 39  1  0
  4 40  1  0
  5 41  1  0
  5 42  1  0
  6 43  1  0
  6 44  1  0
  8 45  1  0
  8 46  1  0
  9 47  1  0
  9 48  1  0
 11 49  1  0
 11 50  1  0
 12 51  1  0
 12 52  1  0
 13 53  1  0
 15 54  1  0
 16 55  1  0
 17 56  1  0
 19 57  1  0
 22 58  1  0
 24 59  1  0
 24 60  1  0
 25 61  1  0
 25 62  1  0
 27 63  1  0
 28 64  1  0
 29 65  1  0
 30 66  1  0
M  CHG  2   3   1  21   1
M  END
>  <UniqueID>  (12) 
12

>  <SMILES>  (12) 
CC[NH2+]CCCOCCOCCNc1cccc2cc3[n+](cc12)CCc1ccccc1-3

>  <Energy>  (12) 
81.46903865148613

>  <Genealogy>  (12) 
CC[NH2+]CCCOCCOCCNc1cccc2cc3[n+](cc12)CCc1ccccc1-3 (protonated)
CC[NH2+]CCCOCCOCCNc1cccc2cc3[n+](cc12)CCc1ccccc1-3 (3D coordinates assigned)
CC[NH2+]CCCOCCOCCNc1cccc2cc3[n+](cc12)CCc1ccccc1-3 (nonaromatic ring conformer: 81.46903865148613 kcal/mol)

>  <smiles>  (12) 
CCNCCCOCCOCCNc1cccc2cc3[n+](cc12)CCc1ccccc1-3

>  <score_type>  (12) 
oracle

>  <origin>  (12) 
adg

>  <m_score__min__energy>  (12) 
-10.06

>  <m_primary>  (12) 
energy

$$$$
12:0
     RDKit          3D

 63 67  0  0  0  0  0  0  0  0999 V2000
   -3.9870   22.7150  -27.7940 C   0  0  0  0  0  0  0  0  0  0  0  0
   -2.7440   23.3240  -28.4340 C   0  0  0  0  0  0  0  0  0  0  0  0
   -2.1590   22.3940  -29.4000 N   0  0  0  0  0  0  0  0  0  0  0  0
   -2.0110   22.6160  -30.7260 C   0  0  0  0  0  0  0  0  0  0  0  0
   -1.3740   21.5350  -31.3270 C   0  0  0  0  0  0  0  0  0  0  0  0
   -0.9840   21.4160  -32.7760 C   0  0  0  0  0  0  0  0  0  0  0  0
   -2.1200   20.9820  -33.6230 N   0  0  0  0  0  0  0  0  0  0  0  0
   -3.4110   21.5290  -33.1160 C   0  0  0  0  0  0  0  0  0  0  0  0
   -4.5960   20.6240  -33.4720 C   0  0  0  0  0  0  0  0  0  0  0  0
   -4.4420   19.3080  -32.8190 N   0  0  0  0  0  0  0  0  0  0  0  0
   -5.4320   18.3060  -33.2650 C   0  0  0  0  0  0  0  0  0  0  0  0
   -6.4020   17.8410  -32.1610 C   0  0  0  0  0  0  0  0  0  0  0  0
   -6.6820   18.9150  -31.2630 O   0  0  0  0  0  0  0  0  0  0  0  0
   -7.5840   19.9690  -31.4960 C   0  0  0  0  0  0  0  0  0  0  0  0
   -8.9070   19.7360  -31.9170 C   0  0  0  0  0  0  0  0  0  0  0  0
   -9.7770   20.8020  -32.1490 C   0  0  0  0  0  0  0  0  0  0  0  0
   -9.3480   22.1160  -31.9650 C   0  0  0  0  0  0  0  0  0  0  0  0
   -8.0420   22.3750  -31.5350 C   0  0  0  0  0  0  0  0  0  0  0  0
   -7.6090   23.6960  -31.3370 C   0  0  0  0  0  0  0  0  0  0  0  0
   -6.3080   23.9520  -30.9020 C   0  0  0  0  0  0  0  0  0  0  0  0
   -5.4270   22.8950  -30.6620 C   0  0  0  0  0  0  0  0  0  0  0  0
   -5.8420   21.5760  -30.8580 C   0  0  0  0  0  0  0  0  0  0  0  0
   -7.1510   21.2970  -31.2930 C   0  0  0  0  0  0  0  0  0  0  0  0
   -3.0490   18.8100  -32.7450 C   0  0  0  0  0  0  0  0  0  0  0  0
   -2.1300   19.4980  -33.7700 C   0  0  0  0  0  0  0  0  0  0  0  0
   -1.1110   20.6390  -30.3110 C   0  0  0  0  0  0  0  0  0  0  0  0
   -0.4780   19.3950  -30.3260 C   0  0  0  0  0  0  0  0  0  0  0  0
   -0.3540   18.7060  -29.1080 C   0  0  0  0  0  0  0  0  0  0  0  0
   -0.8540   19.2690  -27.9140 C   0  0  0  0  0  0  0  0  0  0  0  0
   -1.4820   20.5280  -27.9250 C   0  0  0  0  0  0  0  0  0  0  0  0
   -1.5980   21.1920  -29.1510 C   0  0  0  0  0  0  0  0  0  0  0  0
   -3.8950   22.7601  -26.6988 H   0  0  0  0  0  0  0  0  0  0  0  0
   -4.8765   23.2794  -28.1108 H   0  0  0  0  0  0  0  0  0  0  0  0
   -4.0861   21.6663  -28.1108 H   0  0  0  0  0  0  0  0  0  0  0  0
   -3.0213   24.2552  -28.9498 H   0  0  0  0  0  0  0  0  0  0  0  0
   -2.0041   23.5330  -27.6473 H   0  0  0  0  0  0  0  0  0  0  0  0
   -2.3462   23.5212  -31.2534 H   0  0  0  0  0  0  0  0  0  0  0  0
   -0.6309   22.3957  -33.1303 H   0  0  0  0  0  0  0  0  0  0  0  0
   -0.1927   20.6559  -32.8535 H   0  0  0  0  0  0  0  0  0  0  0  0
   -1.9640   21.3750  -34.5820 H   0  0  0  0  0  0  0  0  0  0  0  0
   -3.3518   21.6230  -32.0216 H   0  0  0  0  0  0  0  0  0  0  0  0
   -3.5757   22.5077  -33.5904 H   0  0  0  0  0  0  0  0  0  0  0  0
   -5.5292   21.0940  -33.1283 H   0  0  0  0  0  0  0  0  0  0  0  0
   -4.6279   20.4839  -34.5626 H   0  0  0  0  0  0  0  0  0  0  0  0
   -6.0238   18.7455  -34.0814 H   0  0  0  0  0  0  0  0  0  0  0  0
   -4.8635   17.4187  -33.5804 H   0  0  0  0  0  0  0  0  0  0  0  0
   -7.3404   17.4998  -32.6225 H   0  0  0  0  0  0  0  0  0  0  0  0
   -5.9369   17.0172  -31.5997 H   0  0  0  0  0  0  0  0  0  0  0  0
   -9.2582   18.7040  -32.0644 H   0  0  0  0  0  0  0  0  0  0  0  0
  -10.8076   20.6046  -32.4791 H   0  0  0  0  0  0  0  0  0  0  0  0
  -10.0378   22.9507  -32.1583 H   0  0  0  0  0  0  0  0  0  0  0  0
   -8.2981   24.5324  -31.5255 H   0  0  0  0  0  0  0  0  0  0  0  0
   -5.9754   24.9891  -30.7477 H   0  0  0  0  0  0  0  0  0  0  0  0
   -4.4031   23.1022  -30.3175 H   0  0  0  0  0  0  0  0  0  0  0  0
   -5.1408   20.7494  -30.6711 H   0  0  0  0  0  0  0  0  0  0  0  0
   -2.6579   19.0006  -31.7347 H   0  0  0  0  0  0  0  0  0  0  0  0
   -3.0627   17.7339  -32.9728 H   0  0  0  0  0  0  0  0  0  0  0  0
   -1.1051   19.1230  -33.6323 H   0  0  0  0  0  0  0  0  0  0  0  0
   -2.5150   19.2643  -34.7736 H   0  0  0  0  0  0  0  0  0  0  0  0
   -0.0886   18.9677  -31.2618 H   0  0  0  0  0  0  0  0  0  0  0  0
    0.1359   17.7214  -29.0846 H   0  0  0  0  0  0  0  0  0  0  0  0
   -0.7518   18.7188  -26.9670 H   0  0  0  0  0  0  0  0  0  0  0  0
   -1.8698   20.9764  -26.9984 H   0  0  0  0  0  0  0  0  0  0  0  0
  1  2  1  0
  2  3  1  0
  3  4  1  0
  4  5  2  0
  5  6  1  0
  6  7  1  0
  7  8  1  0
  8  9  1  0
  9 10  1  0
 10 11  1  0
 11 12  1  0
 12 13  1  0
 13 14  1  0
 14 15  2  0
 15 16  1  0
 16 17  2  0
 17 18  1  0
 18 19  2  0
 19 20  1  0
 20 21  2  0
 21 22  1  0
 22 23  2  0
 10 24  1  0
 24 25  1  0
  5 26  1  0
 26 27  2  0
 27 28  1  0
 28 29  2  0
 29 30  1  0
 30 31  2  0
 31  3  1  0
 25  7  1  0
 31 26  1  0
 23 14  1  0
 23 18  1  0
  1 32  1  0
  1 33  1  0
  1 34  1  0
  2 35  1  0
  2 36  1  0
  4 37  1  0
  6 38  1  0
  6 39  1  0
  7 40  1  0
  8 41  1  0
  8 42  1  0
  9 43  1  0
  9 44  1  0
 11 45  1  0
 11 46  1  0
 12 47  1  0
 12 48  1  0
 15 49  1  0
 16 50  1  0
 17 51  1  0
 19 52  1  0
 20 53  1  0
 21 54  1  0
 22 55  1  0
 24 56  1  0
 24 57  1  0
 25 58  1  0
 25 59  1  0
 27 60  1  0
 28 61  1  0
 29 62  1  0
 30 63  1  0
M  CHG  1   7   1
M  END
>  <UniqueID>  (13) 
13

>  <SMILES>  (13) 
CCn1cc(C[NH+]2CCN(CCOc3cccc4ccccc34)CC2)c2ccccc21

>  <Energy>  (13) 
117.02542385138028

>  <Genealogy>  (13) 
CCn1cc(C[NH+]2CCN(CCOc3cccc4ccccc34)CC2)c2ccccc21 (protonated)
CCn1cc(C[NH+]2CCN(CCOc3cccc4ccccc34)CC2)c2ccccc21 (3D coordinates assigned)
CCn1cc(C[NH+]2CCN(CCOc3cccc4ccccc34)CC2)c2ccccc21 (nonaromatic ring conformer: 117.02542385138028 kcal/mol)

>  <smiles>  (13) 
CCn1cc(CN2CCN(CCOc3cccc4ccccc34)CC2)c2ccccc21

>  <score_type>  (13) 
oracle

>  <origin>  (13) 
adg

>  <m_score__min__energy>  (13) 
-8.7899999999999991

>  <m_primary>  (13) 
energy

$$$$
13:0
     RDKit          3D

 45 47  0  0  0  0  0  0  0  0999 V2000
   -2.7250   20.5630  -27.6420 C   0  0  0  0  0  0  0  0  0  0  0  0
   -2.8150   20.9080  -29.0190 O   0  0  0  0  0  0  0  0  0  0  0  0
   -3.0850   22.2080  -29.4560 C   0  0  0  0  0  0  0  0  0  0  0  0
   -2.3090   23.2670  -28.9840 C   0  0  0  0  0  0  0  0  0  0  0  0
   -2.5920   24.5580  -29.4300 C   0  0  0  0  0  0  0  0  0  0  0  0
   -1.8250   25.6320  -28.9710 O   0  0  0  0  0  0  0  0  0  0  0  0
   -1.2420   25.6590  -27.6730 C   0  0  0  0  0  0  0  0  0  0  0  0
   -3.6120   24.7550  -30.3080 N   0  0  0  0  0  0  0  0  0  0  0  0
   -4.3630   23.7140  -30.7660 C   0  0  0  0  0  0  0  0  0  0  0  0
   -5.3350   23.9090  -31.6050 N   0  0  0  0  0  0  0  0  0  0  0  0
   -6.7130   24.2330  -31.2290 C   0  0  0  0  0  0  0  0  0  0  0  0
   -7.7050   23.4090  -32.0530 C   0  0  0  0  0  0  0  0  0  0  0  0
   -8.2940   21.9600  -31.1090 S   0  0  0  0  0  0  0  0  0  0  0  0
   -7.2080   20.7730  -31.9330 C   0  0  0  0  0  0  0  0  0  0  0  0
   -5.9150   21.1350  -32.1520 N   0  0  0  0  0  0  0  0  0  0  0  0
   -5.0500   20.3140  -32.8010 C   0  0  0  0  0  0  0  0  0  0  0  0
   -3.7230   20.7140  -33.0290 C   0  0  0  0  0  0  0  0  0  0  0  0
   -2.8400   19.8680  -33.7070 C   0  0  0  0  0  0  0  0  0  0  0  0
   -3.2740   18.6220  -34.1610 C   0  0  0  0  0  0  0  0  0  0  0  0
   -4.5910   18.2130  -33.9390 C   0  0  0  0  0  0  0  0  0  0  0  0
   -5.4890   19.0560  -33.2560 C   0  0  0  0  0  0  0  0  0  0  0  0
   -6.8210   18.6860  -33.0050 C   0  0  0  0  0  0  0  0  0  0  0  0
   -7.2410   17.5660  -33.4140 O   0  0  0  0  0  0  0  0  0  0  0  0
   -7.6600   19.5340  -32.3240 N   0  0  0  0  0  0  0  0  0  0  0  0
   -9.0530   19.1410  -32.0490 C   0  0  0  0  0  0  0  0  0  0  0  0
   -4.0940   22.4540  -30.3360 N   0  0  0  0  0  0  0  0  0  0  0  0
   -2.9552   21.4455  -27.0271 H   0  0  0  0  0  0  0  0  0  0  0  0
   -3.4441   19.7616  -27.4170 H   0  0  0  0  0  0  0  0  0  0  0  0
   -1.7060   20.2150  -27.4170 H   0  0  0  0  0  0  0  0  0  0  0  0
   -1.4890   23.0872  -28.2732 H   0  0  0  0  0  0  0  0  0  0  0  0
   -2.0367   25.6222  -26.9133 H   0  0  0  0  0  0  0  0  0  0  0  0
   -0.5778   24.7907  -27.5512 H   0  0  0  0  0  0  0  0  0  0  0  0
   -0.6609   26.5850  -27.5512 H   0  0  0  0  0  0  0  0  0  0  0  0
   -6.8580   24.0111  -30.1614 H   0  0  0  0  0  0  0  0  0  0  0  0
   -6.8916   25.3008  -31.4238 H   0  0  0  0  0  0  0  0  0  0  0  0
   -8.5659   24.0409  -32.3168 H   0  0  0  0  0  0  0  0  0  0  0  0
   -7.1963   23.0530  -32.9610 H   0  0  0  0  0  0  0  0  0  0  0  0
   -5.5890   22.0710  -31.8180 H   0  0  0  0  0  0  0  0  0  0  0  0
   -3.3774   21.6958  -32.6731 H   0  0  0  0  0  0  0  0  0  0  0  0
   -1.8015   20.1852  -33.8828 H   0  0  0  0  0  0  0  0  0  0  0  0
   -2.5769   17.9598  -34.6953 H   0  0  0  0  0  0  0  0  0  0  0  0
   -4.9278   17.2295  -34.2987 H   0  0  0  0  0  0  0  0  0  0  0  0
   -9.2134   19.0958  -30.9617 H   0  0  0  0  0  0  0  0  0  0  0  0
   -9.7367   19.8813  -32.4900 H   0  0  0  0  0  0  0  0  0  0  0  0
   -9.2490   18.1525  -32.4900 H   0  0  0  0  0  0  0  0  0  0  0  0
  1  2  1  0
  2  3  1  0
  3  4  1  0
  4  5  2  0
  5  6  1  0
  6  7  1  0
  5  8  1  0
  8  9  1  0
  9 10  2  3
 10 11  1  0
 11 12  1  0
 12 13  1  0
 13 14  1  0
 14 15  2  0
 15 16  1  0
 16 17  2  0
 17 18  1  0
 18 19  2  0
 19 20  1  0
 20 21  2  0
 21 22  1  0
 22 23  2  0
 22 24  1  0
 24 25  1  0
  9 26  1  0
 26  3  2  0
 24 14  1  0
 21 16  1  0
  1 27  1  0
  1 28  1  0
  1 29  1  0
  4 30  1  0
  7 31  1  0
  7 32  1  0
  7 33  1  0
 11 34  1  0
 11 35  1  0
 12 36  1  0
 12 37  1  0
 15 38  1  0
 17 39  1  0
 18 40  1  0
 19 41  1  0
 20 42  1  0
 25 43  1  0
 25 44  1  0
 25 45  1  0
M  CHG  2   8  -1  15   1
M  END
>  <UniqueID>  (14) 
14

>  <SMILES>  (14) 
COc1cc(OC)[n-]c(=NCCSc2[nH+]c3ccccc3c(=O)n2C)n1

>  <Energy>  (14) 
46.02985772975273

>  <Genealogy>  (14) 
COc1cc(OC)[n-]c(=NCCSc2[nH+]c3ccccc3c(=O)n2C)n1 (protonated)
COc1cc(OC)[n-]c(=NCCSc2[nH+]c3ccccc3c(=O)n2C)n1 (3D coordinates assigned)
COc1cc(OC)[n-]c(=NCCSc2[nH+]c3ccccc3c(=O)n2C)n1 (optimized conformer: 46.02985772975273 kcal/mol)

>  <smiles>  (14) 
COc1cc(OC)[nH]c(=NCCSc2nc3ccccc3c(=O)n2C)n1

>  <score_type>  (14) 
oracle

>  <origin>  (14) 
adg

>  <m_score__min__energy>  (14) 
-8.75

>  <m_primary>  (14) 
energy

$$$$
14:0
     RDKit          3D

 44 44  0  0  0  0  0  0  0  0999 V2000
   -8.6820   18.7630  -31.6430 C   0  0  0  0  0  0  0  0  0  0  0  0
   -9.1300   20.0050  -32.4050 C   0  0  0  0  0  0  0  0  0  0  0  0
   -8.1180   21.0830  -32.2680 N   0  0  0  0  0  0  0  0  0  0  0  0
   -6.8340   20.5610  -31.7420 C   0  0  0  0  0  0  0  0  0  0  0  0
   -5.7170   20.8030  -32.7530 C   0  0  0  0  0  0  0  0  0  0  0  0
   -8.6420   22.1970  -31.4440 C   0  0  0  0  0  0  0  0  0  0  0  0
   -7.6020   22.6940  -30.4300 C   0  0  0  0  0  0  0  0  0  0  0  0
   -6.6610   23.5340  -31.0720 O   0  0  0  0  0  0  0  0  0  0  0  0
   -6.0920   24.4160  -30.1320 C   0  0  0  0  0  0  0  0  0  0  0  0
   -5.2960   25.5090  -30.8450 C   0  0  0  0  0  0  0  0  0  0  0  0
   -3.8910   25.2670  -30.7480 O   0  0  0  0  0  0  0  0  0  0  0  0
   -3.2730   24.1800  -30.1050 C   0  0  0  0  0  0  0  0  0  0  0  0
   -3.7250   22.8520  -30.2900 C   0  0  0  0  0  0  0  0  0  0  0  0
   -3.1100   21.7900  -29.6260 C   0  0  0  0  0  0  0  0  0  0  0  0
   -2.0370   22.0290  -28.7650 C   0  0  0  0  0  0  0  0  0  0  0  0
   -1.1970   20.5730  -27.8580 Br  0  0  0  0  0  0  0  0  0  0  0  0
   -1.5800   23.3320  -28.5660 C   0  0  0  0  0  0  0  0  0  0  0  0
   -2.1790   24.4170  -29.2220 C   0  0  0  0  0  0  0  0  0  0  0  0
   -1.6520   25.6920  -28.9480 O   0  0  0  0  0  0  0  0  0  0  0  0
   -0.9160   26.0840  -27.7960 C   0  0  0  0  0  0  0  0  0  0  0  0
   -8.7501   18.9519  -30.5615 H   0  0  0  0  0  0  0  0  0  0  0  0
   -9.3312   17.9157  -31.9088 H   0  0  0  0  0  0  0  0  0  0  0  0
   -7.6414   18.5252  -31.9088 H   0  0  0  0  0  0  0  0  0  0  0  0
   -9.2521   19.7542  -33.4690 H   0  0  0  0  0  0  0  0  0  0  0  0
  -10.0865   20.3555  -31.9898 H   0  0  0  0  0  0  0  0  0  0  0  0
   -6.5904   21.0751  -30.8005 H   0  0  0  0  0  0  0  0  0  0  0  0
   -6.9305   19.4799  -31.5635 H   0  0  0  0  0  0  0  0  0  0  0  0
   -4.7770   21.0066  -32.2191 H   0  0  0  0  0  0  0  0  0  0  0  0
   -5.5942   19.9106  -33.3843 H   0  0  0  0  0  0  0  0  0  0  0  0
   -5.9745   21.6662  -33.3843 H   0  0  0  0  0  0  0  0  0  0  0  0
   -8.9197   23.0300  -32.1066 H   0  0  0  0  0  0  0  0  0  0  0  0
   -9.5150   21.8281  -30.8856 H   0  0  0  0  0  0  0  0  0  0  0  0
   -8.1102   23.2582  -29.6342 H   0  0  0  0  0  0  0  0  0  0  0  0
   -7.0774   21.8289  -29.9983 H   0  0  0  0  0  0  0  0  0  0  0  0
   -6.8933   24.8795  -29.5378 H   0  0  0  0  0  0  0  0  0  0  0  0
   -5.4148   23.8507  -29.4749 H   0  0  0  0  0  0  0  0  0  0  0  0
   -5.5848   25.5298  -31.9062 H   0  0  0  0  0  0  0  0  0  0  0  0
   -5.5188   26.4735  -30.3653 H   0  0  0  0  0  0  0  0  0  0  0  0
   -4.5708   22.6546  -30.9650 H   0  0  0  0  0  0  0  0  0  0  0  0
   -3.4711   20.7626  -29.7811 H   0  0  0  0  0  0  0  0  0  0  0  0
   -0.7362   23.5112  -27.8835 H   0  0  0  0  0  0  0  0  0  0  0  0
   -1.4677   25.7901  -26.8909 H   0  0  0  0  0  0  0  0  0  0  0  0
    0.0667   25.5898  -27.8030 H   0  0  0  0  0  0  0  0  0  0  0  0
   -0.7777   27.1752  -27.8030 H   0  0  0  0  0  0  0  0  0  0  0  0
  1  2  1  0
  2  3  1  0
  3  4  1  0
  4  5  1  0
  3  6  1  0
  6  7  1  0
  7  8  1  0
  8  9  1  0
  9 10  1  0
 10 11  1  0
 11 12  1  0
 12 13  2  0
 13 14  1  0
 14 15  2  0
 15 16  1  0
 15 17  1  0
 17 18  2  0
 18 19  1  0
 19 20  1  0
 18 12  1  0
  1 21  1  0
  1 22  1  0
  1 23  1  0
  2 24  1  0
  2 25  1  0
  4 26  1  0
  4 27  1  0
  5 28  1  0
  5 29  1  0
  5 30  1  0
  6 31  1  0
  6 32  1  0
  7 33  1  0
  7 34  1  0
  9 35  1  0
  9 36  1  0
 10 37  1  0
 10 38  1  0
 13 39  1  0
 14 40  1  0
 17 41  1  0
 20 42  1  0
 20 43  1  0
 20 44  1  0
M  END
>  <UniqueID>  (15) 
15

>  <SMILES>  (15) 
CCN(CC)CCOCCOc1ccc(Br)cc1OC

>  <Energy>  (15) 
40.31460925678695

>  <Genealogy>  (15) 
CCN(CC)CCOCCOc1ccc(Br)cc1OC (3D coordinates assigned)
CCN(CC)CCOCCOc1ccc(Br)cc1OC (optimized conformer: 40.31460925678695 kcal/mol)

>  <smiles>  (15) 
CCN(CC)CCOCCOc1ccc(Br)cc1OC

>  <score_type>  (15) 
oracle

>  <origin>  (15) 
adg

>  <m_score__min__energy>  (15) 
-7.5899999999999999

>  <m_primary>  (15) 
energy

$$$$
15:0
     RDKit          3D

 67 70  0  0  0  0  0  0  0  0999 V2000
   -2.9550   20.8310  -28.9590 C   0  0  0  0  0  0  0  0  0  0  0  0
   -1.8410   20.6040  -29.8930 N   0  0  0  0  0  0  0  0  0  0  0  0
   -0.8720   19.6780  -29.2800 C   0  0  0  0  0  0  0  0  0  0  0  0
   -1.1970   21.8880  -30.2420 C   0  0  0  0  0  0  0  0  0  0  0  0
   -2.2020   23.0420  -30.1480 C   0  0  0  0  0  0  0  0  0  0  0  0
   -3.2060   22.9160  -31.1540 O   0  0  0  0  0  0  0  0  0  0  0  0
   -4.5580   23.2920  -31.0410 C   0  0  0  0  0  0  0  0  0  0  0  0
   -4.9060   24.5810  -30.6050 C   0  0  0  0  0  0  0  0  0  0  0  0
   -6.2340   24.9360  -30.4290 C   0  0  0  0  0  0  0  0  0  0  0  0
   -7.2450   24.0260  -30.7040 C   0  0  0  0  0  0  0  0  0  0  0  0
   -6.9540   22.7340  -31.2000 C   0  0  0  0  0  0  0  0  0  0  0  0
   -5.5870   22.3560  -31.3570 C   0  0  0  0  0  0  0  0  0  0  0  0
   -5.3020   21.0500  -31.8250 C   0  0  0  0  0  0  0  0  0  0  0  0
   -3.9750   20.6880  -32.2460 N   0  0  0  0  0  0  0  0  0  0  0  0
   -3.7270   19.9750  -33.5020 C   0  0  0  0  0  0  0  0  0  0  0  0
   -2.3280   19.3460  -33.5400 C   0  0  0  0  0  0  0  0  0  0  0  0
   -1.3410   20.1970  -32.8350 N   0  0  0  0  0  0  0  0  0  0  0  0
   -1.1700   21.5340  -33.4500 C   0  0  0  0  0  0  0  0  0  0  0  0
   -0.1360   21.5520  -34.5960 C   0  0  0  0  0  0  0  0  0  0  0  0
    0.1720   20.1850  -35.0440 N   0  0  0  0  0  0  0  0  0  0  0  0
    1.0740   20.2170  -36.2040 C   0  0  0  0  0  0  0  0  0  0  0  0
    0.7790   19.4100  -33.9450 C   0  0  0  0  0  0  0  0  0  0  0  0
   -0.0380   19.5280  -32.6370 C   0  0  0  0  0  0  0  0  0  0  0  0
   -6.3340   20.0970  -31.8880 C   0  0  0  0  0  0  0  0  0  0  0  0
   -6.0460   18.7310  -32.0970 C   0  0  0  0  0  0  0  0  0  0  0  0
   -7.0680   17.7860  -32.1310 C   0  0  0  0  0  0  0  0  0  0  0  0
   -8.3870   18.1790  -31.9390 C   0  0  0  0  0  0  0  0  0  0  0  0
   -8.6930   19.5210  -31.7180 C   0  0  0  0  0  0  0  0  0  0  0  0
   -7.6770   20.5120  -31.7090 C   0  0  0  0  0  0  0  0  0  0  0  0
   -7.9660   21.8470  -31.5180 N   0  0  0  0  0  0  0  0  0  0  0  0
   -9.3590   22.3280  -31.6590 C   0  0  0  0  0  0  0  0  0  0  0  0
   -2.5875   20.7561  -27.9249 H   0  0  0  0  0  0  0  0  0  0  0  0
   -3.3758   21.8334  -29.1269 H   0  0  0  0  0  0  0  0  0  0  0  0
   -3.7345   20.0732  -29.1269 H   0  0  0  0  0  0  0  0  0  0  0  0
   -0.9428   19.7456  -28.1844 H   0  0  0  0  0  0  0  0  0  0  0  0
   -1.0955   18.6493  -29.5991 H   0  0  0  0  0  0  0  0  0  0  0  0
    0.1455   19.9479  -29.5991 H   0  0  0  0  0  0  0  0  0  0  0  0
   -0.3657   22.0757  -29.5465 H   0  0  0  0  0  0  0  0  0  0  0  0
   -0.8242   21.8272  -31.2751 H   0  0  0  0  0  0  0  0  0  0  0  0
   -2.6791   23.0262  -29.1570 H   0  0  0  0  0  0  0  0  0  0  0  0
   -1.6671   23.9915  -30.2974 H   0  0  0  0  0  0  0  0  0  0  0  0
   -4.1150   25.3176  -30.4008 H   0  0  0  0  0  0  0  0  0  0  0  0
   -6.4880   25.9441  -30.0695 H   0  0  0  0  0  0  0  0  0  0  0  0
   -8.2925   24.3151  -30.5330 H   0  0  0  0  0  0  0  0  0  0  0  0
   -3.1760   20.8520  -31.5930 H   0  0  0  0  0  0  0  0  0  0  0  0
   -4.4775   19.1784  -33.6122 H   0  0  0  0  0  0  0  0  0  0  0  0
   -3.7947   20.7024  -34.3244 H   0  0  0  0  0  0  0  0  0  0  0  0
   -2.3642   18.3599  -33.0540 H   0  0  0  0  0  0  0  0  0  0  0  0
   -2.0175   19.2481  -34.5907 H   0  0  0  0  0  0  0  0  0  0  0  0
   -2.1409   21.8606  -33.8508 H   0  0  0  0  0  0  0  0  0  0  0  0
   -0.7974   22.2082  -32.6648 H   0  0  0  0  0  0  0  0  0  0  0  0
   -0.5447   22.1250  -35.4414 H   0  0  0  0  0  0  0  0  0  0  0  0
    0.7895   22.0192  -34.2282 H   0  0  0  0  0  0  0  0  0  0  0  0
    2.1170   20.2540  -35.8565 H   0  0  0  0  0  0  0  0  0  0  0  0
    0.9219   19.3129  -36.8118 H   0  0  0  0  0  0  0  0  0  0  0  0
    0.8582   21.1081  -36.8118 H   0  0  0  0  0  0  0  0  0  0  0  0
    0.8268   18.3515  -34.2403 H   0  0  0  0  0  0  0  0  0  0  0  0
    1.7844   19.8147  -33.7569 H   0  0  0  0  0  0  0  0  0  0  0  0
   -0.2181   18.5171  -32.2425 H   0  0  0  0  0  0  0  0  0  0  0  0
    0.5463   20.1412  -31.9352 H   0  0  0  0  0  0  0  0  0  0  0  0
   -5.0030   18.4097  -32.2345 H   0  0  0  0  0  0  0  0  0  0  0  0
   -6.8310   16.7269  -32.3101 H   0  0  0  0  0  0  0  0  0  0  0  0
   -9.1916   17.4293  -31.9615 H   0  0  0  0  0  0  0  0  0  0  0  0
   -9.7388   19.8166  -31.5478 H   0  0  0  0  0  0  0  0  0  0  0  0
   -9.7974   22.4794  -30.6615 H   0  0  0  0  0  0  0  0  0  0  0  0
   -9.3642   23.2800  -32.2101 H   0  0  0  0  0  0  0  0  0  0  0  0
   -9.9505   21.5821  -32.2101 H   0  0  0  0  0  0  0  0  0  0  0  0
  1  2  1  0
  2  3  1  0
  2  4  1  0
  4  5  1  0
  5  6  1  0
  6  7  1  0
  7  8  2  0
  8  9  1  0
  9 10  2  0
 10 11  1  0
 11 12  2  0
 12 13  1  0
 13 14  1  0
 14 15  1  0
 15 16  1  0
 16 17  1  0
 17 18  1  0
 18 19  1  0
 19 20  1  0
 20 21  1  0
 20 22  1  0
 22 23  1  0
 13 24  2  0
 24 25  1  0
 25 26  2  0
 26 27  1  0
 27 28  2  0
 28 29  1  0
 29 30  2  0
 30 31  1  0
 12  7  1  0
 23 17  1  0
 29 24  1  0
 30 11  1  0
  1 32  1  0
  1 33  1  0
  1 34  1  0
  3 35  1  0
  3 36  1  0
  3 37  1  0
  4 38  1  0
  4 39  1  0
  5 40  1  0
  5 41  1  0
  8 42  1  0
  9 43  1  0
 10 44  1  0
 14 45  1  0
 15 46  1  0
 15 47  1  0
 16 48  1  0
 16 49  1  0
 18 50  1  0
 18 51  1  0
 19 52  1  0
 19 53  1  0
 21 54  1  0
 21 55  1  0
 21 56  1  0
 22 57  1  0
 22 58  1  0
 23 59  1  0
 23 60  1  0
 25 61  1  0
 26 62  1  0
 27 63  1  0
 28 64  1  0
 31 65  1  0
 31 66  1  0
 31 67  1  0
M  CHG  1  30   1
M  END
>  <UniqueID>  (16) 
16

>  <SMILES>  (16) 
CN(C)CCOc1cccc2c1c(NCCN1CCN(C)CC1)c1ccccc1[n+]2C

>  <Energy>  (16) 
105.79706228175895

>  <Genealogy>  (16) 
CN(C)CCOc1cccc2c1c(NCCN1CCN(C)CC1)c1ccccc1[n+]2C (3D coordinates assigned)
CN(C)CCOc1cccc2c1c(NCCN1CCN(C)CC1)c1ccccc1[n+]2C (nonaromatic ring conformer: 105.79706228175895 kcal/mol)

>  <smiles>  (16) 
CN(C)CCOc1cccc2c1c(NCCN1CCN(C)CC1)c1ccccc1[n+]2C

>  <score_type>  (16) 
oracle

>  <origin>  (16) 
adg

>  <m_score__min__energy>  (16) 
-7.7000000000000002

>  <m_primary>  (16) 
energy

$$$$
16:0
     RDKit          3D

 48 48  0  0  0  0  0  0  0  0999 V2000
   -2.4360   21.1400  -28.1840 C   0  0  0  0  0  0  0  0  0  0  0  0
   -3.1180   20.9860  -29.5530 C   0  0  0  0  0  0  0  0  0  0  0  0
   -2.9720   22.1510  -30.4720 N   0  0  2  0  0  0  0  0  0  0  0  0
   -4.1630   23.0400  -30.5290 C   0  0  0  0  0  0  0  0  0  0  0  0
   -3.8620   24.5080  -30.3790 C   0  0  0  0  0  0  0  0  0  0  0  0
   -4.6350   25.3620  -30.8880 O   0  0  0  0  0  0  0  0  0  0  0  0
   -2.6650   24.9220  -29.7100 N   0  0  0  0  0  0  0  0  0  0  0  0
   -2.2950   24.5080  -28.3590 C   0  0  0  0  0  0  0  0  0  0  0  0
   -1.2500   25.4590  -27.7660 C   0  0  0  0  0  0  0  0  0  0  0  0
   -3.5490   24.4850  -27.4860 C   0  0  0  0  0  0  0  0  0  0  0  0
   -2.4690   21.8030  -31.7950 C   0  0  0  0  0  0  0  0  0  0  0  0
   -1.2710   21.6350  -31.9770 O   0  0  0  0  0  0  0  0  0  0  0  0
   -3.4200   21.5830  -32.9510 C   0  0  0  0  0  0  0  0  0  0  0  0
   -4.3060   20.3540  -32.7460 C   0  0  0  0  0  0  0  0  0  0  0  0
   -5.5580   20.5290  -33.4000 O   0  0  0  0  0  0  0  0  0  0  0  0
   -6.7100   20.8830  -32.6930 C   0  0  0  0  0  0  0  0  0  0  0  0
   -6.8860   22.2230  -32.3210 C   0  0  0  0  0  0  0  0  0  0  0  0
   -8.0450   22.6200  -31.6470 C   0  0  0  0  0  0  0  0  0  0  0  0
   -9.0330   21.6810  -31.3390 C   0  0  0  0  0  0  0  0  0  0  0  0
   -8.8570   20.3380  -31.6860 C   0  0  0  0  0  0  0  0  0  0  0  0
   -7.6860   19.9220  -32.3440 C   0  0  0  0  0  0  0  0  0  0  0  0
   -7.5190   18.4720  -32.7050 C   0  0  0  0  0  0  0  0  0  0  0  0
   -3.1743   20.9733  -27.3858 H   0  0  0  0  0  0  0  0  0  0  0  0
   -1.6250   20.4024  -28.0933 H   0  0  0  0  0  0  0  0  0  0  0  0
   -2.0207   22.1545  -28.0933 H   0  0  0  0  0  0  0  0  0  0  0  0
   -2.6868   20.1047  -30.0503 H   0  0  0  0  0  0  0  0  0  0  0  0
   -4.1947   20.8934  -29.3478 H   0  0  0  0  0  0  0  0  0  0  0  0
   -2.2390   22.7530  -30.0240 H   0  0  0  0  0  0  0  0  0  0  0  0
   -4.6566   22.8892  -31.5004 H   0  0  0  0  0  0  0  0  0  0  0  0
   -4.7968   22.7644  -29.6732 H   0  0  0  0  0  0  0  0  0  0  0  0
   -1.8515   23.5021  -28.3967 H   0  0  0  0  0  0  0  0  0  0  0  0
   -1.2968   25.4164  -26.6678 H   0  0  0  0  0  0  0  0  0  0  0  0
   -0.2470   25.1574  -28.1022 H   0  0  0  0  0  0  0  0  0  0  0  0
   -1.4560   26.4859  -28.1022 H   0  0  0  0  0  0  0  0  0  0  0  0
   -3.2575   24.4903  -26.4253 H   0  0  0  0  0  0  0  0  0  0  0  0
   -4.1626   25.3720  -27.7021 H   0  0  0  0  0  0  0  0  0  0  0  0
   -4.1296   23.5761  -27.7021 H   0  0  0  0  0  0  0  0  0  0  0  0
   -4.0629   22.4696  -33.0541 H   0  0  0  0  0  0  0  0  0  0  0  0
   -2.8175   21.4170  -33.8562 H   0  0  0  0  0  0  0  0  0  0  0  0
   -3.8007   19.4697  -33.1616 H   0  0  0  0  0  0  0  0  0  0  0  0
   -4.4826   20.2177  -31.6689 H   0  0  0  0  0  0  0  0  0  0  0  0
   -6.1097   22.9647  -32.5601 H   0  0  0  0  0  0  0  0  0  0  0  0
   -8.1792   23.6731  -31.3588 H   0  0  0  0  0  0  0  0  0  0  0  0
   -9.9508   21.9989  -30.8227 H   0  0  0  0  0  0  0  0  0  0  0  0
   -9.6386   19.6031  -31.4430 H   0  0  0  0  0  0  0  0  0  0  0  0
   -7.4498   17.8710  -31.7863 H   0  0  0  0  0  0  0  0  0  0  0  0
   -8.3848   18.1393  -33.2964 H   0  0  0  0  0  0  0  0  0  0  0  0
   -6.6003   18.3448  -33.2964 H   0  0  0  0  0  0  0  0  0  0  0  0
  1  2  1  0
  2  3  1  0
  3  4  1  0
  4  5  1  0
  5  6  2  0
  5  7  1  0
  7  8  1  0
  8  9  1  0
  8 10  1  0
  3 11  1  0
 11 12  2  0
 11 13  1  0
 13 14  1  0
 14 15  1  0
 15 16  1  0
 16 17  2  0
 17 18  1  0
 18 19  2  0
 19 20  1  0
 20 21  2  0
 21 22  1  0
 21 16  1  0
  1 23  1  0
  1 24  1  0
  1 25  1  0
  2 26  1  0
  2 27  1  0
  3 28  1  1
  4 29  1  0
  4 30  1  0
  8 31  1  0
  9 32  1  0
  9 33  1  0
  9 34  1  0
 10 35  1  0
 10 36  1  0
 10 37  1  0
 13 38  1  0
 13 39  1  0
 14 40  1  0
 14 41  1  0
 17 42  1  0
 18 43  1  0
 19 44  1  0
 20 45  1  0
 22 46  1  0
 22 47  1  0
 22 48  1  0
M  CHG  2   3   1   7  -1
M  END
>  <UniqueID>  (17) 
17

>  <SMILES>  (17) 
CC[N@H+](CC(=O)[N-]C(C)C)C(=O)CCOc1ccccc1C

>  <Energy>  (17) 
49.34445136430679

>  <Genealogy>  (17) 
CC[NH+](CC(=O)[N-]C(C)C)C(=O)CCOc1ccccc1C (protonated)
CC[N@H+](CC(=O)[N-]C(C)C)C(=O)CCOc1ccccc1C (chirality)
CC[N@H+](CC(=O)[N-]C(C)C)C(=O)CCOc1ccccc1C (3D coordinates assigned)
CC[N@H+](CC(=O)[N-]C(C)C)C(=O)CCOc1ccccc1C (optimized conformer: 49.34445136430679 kcal/mol)

>  <smiles>  (17) 
CCN(CC(=O)NC(C)C)C(=O)CCOc1ccccc1C

>  <score_type>  (17) 
oracle

>  <origin>  (17) 
adg

>  <m_score__min__energy>  (17) 
-8.0700000000000003

>  <m_primary>  (17) 
energy

$$$$
17:0
     RDKit          3D

 49 52  0  0  0  0  0  0  0  0999 V2000
   -2.2020   24.6050  -28.5430 C   0  0  0  0  0  0  0  0  0  0  0  0
   -2.7380   23.7710  -29.6580 C   0  0  0  0  0  0  0  0  0  0  0  0
   -1.8900   23.0220  -30.4170 N   0  0  0  0  0  0  0  0  0  0  0  0
   -2.3920   22.2380  -31.4020 C   0  0  0  0  0  0  0  0  0  0  0  0
   -3.7340   22.1780  -31.6550 C   0  0  0  0  0  0  0  0  0  0  0  0
   -4.6150   22.9280  -30.8610 C   0  0  0  0  0  0  0  0  0  0  0  0
   -6.0430   22.8560  -31.0190 N   0  0  0  0  0  0  0  0  0  0  0  0
   -6.6550   23.0750  -32.3350 C   0  0  0  0  0  0  0  0  0  0  0  0
   -8.1680   23.3270  -32.2150 C   0  0  0  0  0  0  0  0  0  0  0  0
   -8.8430   22.3330  -31.3490 N   0  0  0  0  0  0  0  0  0  0  0  0
   -9.5020   21.2160  -32.0670 C   0  0  0  0  0  0  0  0  0  0  0  0
   -8.5980   20.0230  -32.2990 C   0  0  0  0  0  0  0  0  0  0  0  0
   -8.7640   18.8310  -31.5820 C   0  0  0  0  0  0  0  0  0  0  0  0
   -7.9020   17.7990  -31.7650 N   0  0  0  0  0  0  0  0  0  0  0  0
   -6.8810   17.8850  -32.6590 C   0  0  0  0  0  0  0  0  0  0  0  0
   -5.9140   16.7540  -32.7900 C   0  0  0  0  0  0  0  0  0  0  0  0
   -6.7210   19.0190  -33.3960 N   0  0  0  0  0  0  0  0  0  0  0  0
   -7.5640   20.0740  -33.2450 C   0  0  0  0  0  0  0  0  0  0  0  0
   -8.1130   21.9240  -30.1240 C   0  0  0  0  0  0  0  0  0  0  0  0
   -6.8960   22.8050  -29.8310 C   0  0  0  0  0  0  0  0  0  0  0  0
   -4.0850   23.7020  -29.8690 N   0  0  0  0  0  0  0  0  0  0  0  0
   -4.0340   21.2060  -32.7370 C   0  0  0  0  0  0  0  0  0  0  0  0
   -2.6780   20.5310  -33.0190 C   0  0  0  0  0  0  0  0  0  0  0  0
   -1.6030   21.3320  -32.2630 C   0  0  0  0  0  0  0  0  0  0  0  0
   -2.4893   24.1580  -27.5799 H   0  0  0  0  0  0  0  0  0  0  0  0
   -1.1052   24.6504  -28.6135 H   0  0  0  0  0  0  0  0  0  0  0  0
   -2.6163   25.6215  -28.6135 H   0  0  0  0  0  0  0  0  0  0  0  0
   -6.1830   23.9486  -32.8084 H   0  0  0  0  0  0  0  0  0  0  0  0
   -6.5015   22.1713  -32.9431 H   0  0  0  0  0  0  0  0  0  0  0  0
   -8.3258   24.3294  -31.7903 H   0  0  0  0  0  0  0  0  0  0  0  0
   -8.6015   23.2409  -33.2223 H   0  0  0  0  0  0  0  0  0  0  0  0
  -10.3680   20.8854  -31.4747 H   0  0  0  0  0  0  0  0  0  0  0  0
   -9.7914   21.5971  -33.0574 H   0  0  0  0  0  0  0  0  0  0  0  0
   -9.5954   18.7313  -30.8687 H   0  0  0  0  0  0  0  0  0  0  0  0
   -5.6175   16.4073  -31.7891 H   0  0  0  0  0  0  0  0  0  0  0  0
   -6.3888   15.9273  -33.3387 H   0  0  0  0  0  0  0  0  0  0  0  0
   -5.0235   17.0946  -33.3387 H   0  0  0  0  0  0  0  0  0  0  0  0
   -5.9370   19.0900  -34.0830 H   0  0  0  0  0  0  0  0  0  0  0  0
   -7.4348   20.9718  -33.8674 H   0  0  0  0  0  0  0  0  0  0  0  0
   -8.8025   21.9829  -29.2689 H   0  0  0  0  0  0  0  0  0  0  0  0
   -7.7464   20.8996  -30.2859 H   0  0  0  0  0  0  0  0  0  0  0  0
   -7.2303   23.8210  -29.5740 H   0  0  0  0  0  0  0  0  0  0  0  0
   -6.3298   22.3849  -28.9867 H   0  0  0  0  0  0  0  0  0  0  0  0
   -4.7768   20.4665  -32.4033 H   0  0  0  0  0  0  0  0  0  0  0  0
   -4.4618   21.6854  -33.6298 H   0  0  0  0  0  0  0  0  0  0  0  0
   -2.6935   19.4908  -32.6615 H   0  0  0  0  0  0  0  0  0  0  0  0
   -2.4665   20.5170  -34.0984 H   0  0  0  0  0  0  0  0  0  0  0  0
   -0.9695   20.6667  -31.6579 H   0  0  0  0  0  0  0  0  0  0  0  0
   -0.9160   21.8681  -32.9343 H   0  0  0  0  0  0  0  0  0  0  0  0
  1  2  1  0
  2  3  2  0
  3  4  1  0
  4  5  2  0
  5  6  1  0
  6  7  1  0
  7  8  1  0
  8  9  1  0
  9 10  1  0
 10 11  1  0
 11 12  1  0
 12 13  2  0
 13 14  1  0
 14 15  2  0
 15 16  1  0
 15 17  1  0
 17 18  2  0
 10 19  1  0
 19 20  1  0
  6 21  2  0
  5 22  1  0
 22 23  1  0
 23 24  1  0
 21  2  1  0
 24  4  1  0
 20  7  1  0
 18 12  1  0
  1 25  1  0
  1 26  1  0
  1 27  1  0
  8 28  1  0
  8 29  1  0
  9 30  1  0
  9 31  1  0
 11 32  1  0
 11 33  1  0
 13 34  1  0
 16 35  1  0
 16 36  1  0
 16 37  1  0
 17 38  1  0
 18 39  1  0
 19 40  1  0
 19 41  1  0
 20 42  1  0
 20 43  1  0
 22 44  1  0
 22 45  1  0
 23 46  1  0
 23 47  1  0
 24 48  1  0
 24 49  1  0
M  CHG  1  17   1
M  END
>  <UniqueID>  (18) 
18

>  <SMILES>  (18) 
Cc1nc2c(c(N3CCN(Cc4cnc(C)[nH+]c4)CC3)n1)CCC2

>  <Energy>  (18) 
70.64941438867413

>  <Genealogy>  (18) 
Cc1nc2c(c(N3CCN(Cc4cnc(C)[nH+]c4)CC3)n1)CCC2 (protonated)
Cc1nc2c(c(N3CCN(Cc4cnc(C)[nH+]c4)CC3)n1)CCC2 (3D coordinates assigned)
Cc1nc2c(c(N3CCN(Cc4cnc(C)[nH+]c4)CC3)n1)CCC2 (nonaromatic ring conformer: 70.64941438867413 kcal/mol)

>  <smiles>  (18) 
Cc1ncc(CN2CCN(c3nc(C)nc4c3CCC4)CC2)cn1

>  <score_type>  (18) 
oracle

>  <origin>  (18) 
adg

>  <m_score__min__energy>  (18) 
-7.79

>  <m_primary>  (18) 
energy

$$$$
19:0
     RDKit          3D

 47 46  0  0  0  0  0  0  0  0999 V2000
   -8.7610   19.5850  -31.7030 C   0  0  0  0  0  0  0  0  0  0  0  0
   -7.7620   20.7370  -31.4770 C   0  0  0  0  0  0  0  0  0  0  0  0
   -6.4540   20.6450  -32.2110 N   0  0  0  0  0  0  0  0  0  0  0  0
   -5.6070   19.5960  -31.5900 C   0  0  0  0  0  0  0  0  0  0  0  0
   -6.7020   20.2980  -33.6330 C   0  0  0  0  0  0  0  0  0  0  0  0
   -5.7870   21.9930  -32.0780 C   0  0  0  0  0  0  0  0  0  0  0  0
   -6.5560   23.1430  -31.3590 C   0  0  0  0  0  0  0  0  0  0  0  0
   -6.0250   24.5710  -31.5590 C   0  0  0  0  0  0  0  0  0  0  0  0
   -5.2670   25.0670  -30.3650 C   0  0  0  0  0  0  0  0  0  0  0  0
   -5.8790   25.3130  -29.2910 O   0  0  0  0  0  0  0  0  0  0  0  0
   -3.8470   25.2140  -30.4350 N   0  0  0  0  0  0  0  0  0  0  0  0
   -2.9170   24.1450  -30.1020 C   0  0  0  0  0  0  0  0  0  0  0  0
   -1.8720   24.6310  -29.0900 C   0  0  0  0  0  0  0  0  0  0  0  0
   -2.3820   24.6440  -27.6300 C   0  0  0  0  0  0  0  0  0  0  0  0
   -3.8560   24.4940  -27.5200 N   0  0  0  0  0  0  0  0  0  0  0  0
   -4.2280   23.0710  -27.6130 C   0  0  0  0  0  0  0  0  0  0  0  0
   -4.3640   25.0500  -26.2510 C   0  0  0  0  0  0  0  0  0  0  0  0
   -9.0982   19.1961  -30.7309 H   0  0  0  0  0  0  0  0  0  0  0  0
   -9.6274   19.9568  -32.2697 H   0  0  0  0  0  0  0  0  0  0  0  0
   -8.2703   18.7800  -32.2697 H   0  0  0  0  0  0  0  0  0  0  0  0
   -8.2537   21.6711  -31.7864 H   0  0  0  0  0  0  0  0  0  0  0  0
   -7.5003   20.6897  -30.4096 H   0  0  0  0  0  0  0  0  0  0  0  0
   -5.6703   19.6745  -30.4946 H   0  0  0  0  0  0  0  0  0  0  0  0
   -5.9603   18.6039  -31.9076 H   0  0  0  0  0  0  0  0  0  0  0  0
   -4.5627   19.7323  -31.9076 H   0  0  0  0  0  0  0  0  0  0  0  0
   -7.3409   19.4041  -33.6863 H   0  0  0  0  0  0  0  0  0  0  0  0
   -7.2052   21.1386  -34.1332 H   0  0  0  0  0  0  0  0  0  0  0  0
   -5.7437   20.0942  -34.1332 H   0  0  0  0  0  0  0  0  0  0  0  0
   -4.8487   21.8365  -31.5256 H   0  0  0  0  0  0  0  0  0  0  0  0
   -5.6898   22.3456  -33.1154 H   0  0  0  0  0  0  0  0  0  0  0  0
   -7.5953   23.1224  -31.7187 H   0  0  0  0  0  0  0  0  0  0  0  0
   -6.4320   22.9407  -30.2849 H   0  0  0  0  0  0  0  0  0  0  0  0
   -5.3560   24.5809  -32.4321 H   0  0  0  0  0  0  0  0  0  0  0  0
   -6.8897   25.2343  -31.7087 H   0  0  0  0  0  0  0  0  0  0  0  0
   -3.4756   23.3027  -29.6679 H   0  0  0  0  0  0  0  0  0  0  0  0
   -2.3998   23.8277  -31.0195 H   0  0  0  0  0  0  0  0  0  0  0  0
   -0.9976   23.9661  -29.1468 H   0  0  0  0  0  0  0  0  0  0  0  0
   -1.6260   25.6700  -29.3546 H   0  0  0  0  0  0  0  0  0  0  0  0
   -1.9054   23.8149  -27.0865 H   0  0  0  0  0  0  0  0  0  0  0  0
   -2.1219   25.6239  -27.2032 H   0  0  0  0  0  0  0  0  0  0  0  0
   -4.3290   24.9890  -28.3070 H   0  0  0  0  0  0  0  0  0  0  0  0
   -4.3371   22.6536  -26.6011 H   0  0  0  0  0  0  0  0  0  0  0  0
   -5.1812   22.9758  -28.1537 H   0  0  0  0  0  0  0  0  0  0  0  0
   -3.4433   22.5215  -28.1537 H   0  0  0  0  0  0  0  0  0  0  0  0
   -3.8887   24.5297  -25.4064 H   0  0  0  0  0  0  0  0  0  0  0  0
   -4.1280   26.1232  -26.2003 H   0  0  0  0  0  0  0  0  0  0  0  0
   -5.4541   24.9115  -26.2003 H   0  0  0  0  0  0  0  0  0  0  0  0
  1  2  1  0
  2  3  1  0
  3  4  1  0
  3  5  1  0
  3  6  1  0
  6  7  1  0
  7  8  1  0
  8  9  1  0
  9 10  2  0
  9 11  1  0
 11 12  1  0
 12 13  1  0
 13 14  1  0
 14 15  1  0
 15 16  1  0
 15 17  1  0
  1 18  1  0
  1 19  1  0
  1 20  1  0
  2 21  1  0
  2 22  1  0
  4 23  1  0
  4 24  1  0
  4 25  1  0
  5 26  1  0
  5 27  1  0
  5 28  1  0
  6 29  1  0
  6 30  1  0
  7 31  1  0
  7 32  1  0
  8 33  1  0
  8 34  1  0
 12 35  1  0
 12 36  1  0
 13 37  1  0
 13 38  1  0
 14 39  1  0
 14 40  1  0
 15 41  1  0
 16 42  1  0
 16 43  1  0
 16 44  1  0
 17 45  1  0
 17 46  1  0
 17 47  1  0
M  CHG  3   3   1  11  -1  15   1
M  END
>  <UniqueID>  (19) 
19

>  <SMILES>  (19) 
CC[N+](C)(C)CCCC(=O)[N-]CCC[NH+](C)C

>  <Energy>  (19) 
51.11919051762513

>  <Genealogy>  (19) 
CC[N+](C)(C)CCCC(=O)[N-]CCC[NH+](C)C (protonated)
CC[N+](C)(C)CCCC(=O)[N-]CCC[NH+](C)C (3D coordinates assigned)
CC[N+](C)(C)CCCC(=O)[N-]CCC[NH+](C)C (optimized conformer: 51.11919051762513 kcal/mol)

>  <smiles>  (19) 
CC[N+](C)(C)CCCC(=O)NCCCN(C)C

>  <score_type>  (19) 
oracle

>  <origin>  (19) 
adg

>  <m_score__min__energy>  (19) 
-6.6200000000000001

>  <m_primary>  (19) 
energy

$$$$
20:0
     RDKit          3D

 56 59  0  0  0  0  0  0  0  0999 V2000
   -2.2720   25.7320  -25.7600 C   0  0  0  0  0  0  0  0  0  0  0  0
   -0.9290   26.0660  -26.4020 C   0  0  0  0  0  0  0  0  0  0  0  0
   -1.0120   25.9800  -27.8260 O   0  0  0  0  0  0  0  0  0  0  0  0
   -1.5250   24.8910  -28.5530 C   0  0  0  0  0  0  0  0  0  0  0  0
   -0.9400   23.6140  -28.5120 C   0  0  0  0  0  0  0  0  0  0  0  0
   -1.4950   22.5740  -29.2560 C   0  0  0  0  0  0  0  0  0  0  0  0
   -2.6430   22.7960  -30.0400 C   0  0  0  0  0  0  0  0  0  0  0  0
   -3.1990   24.0880  -30.0460 C   0  0  0  0  0  0  0  0  0  0  0  0
   -2.6350   25.0890  -29.3150 N   0  0  0  0  0  0  0  0  0  0  0  0
   -4.3500   24.3610  -30.8460 N   0  0  0  0  0  0  0  0  0  0  0  0
   -5.0290   23.3110  -31.5280 C   0  0  0  0  0  0  0  0  0  0  0  0
   -5.9890   23.5850  -32.2970 O   0  0  0  0  0  0  0  0  0  0  0  0
   -4.6580   21.8810  -31.2700 C   0  0  0  0  0  0  0  0  0  0  0  0
   -3.2520   21.7520  -30.8450 N   0  0  0  0  0  0  0  0  0  0  0  0
   -2.5400   20.5050  -31.1760 C   0  0  0  0  0  0  0  0  0  0  0  0
   -1.1080   20.8120  -31.6460 C   0  0  0  0  0  0  0  0  0  0  0  0
   -1.0160   20.9790  -33.1050 N   0  0  0  0  0  0  0  0  0  0  0  0
   -2.2440   20.5620  -33.7940 C   0  0  0  0  0  0  0  0  0  0  0  0
   -2.2190   19.0560  -34.0270 C   0  0  0  0  0  0  0  0  0  0  0  0
   -3.4510   18.6480  -34.6170 O   0  0  0  0  0  0  0  0  0  0  0  0
   -4.6600   18.5140  -33.9200 C   0  0  0  0  0  0  0  0  0  0  0  0
   -5.1360   17.2690  -33.4680 C   0  0  0  0  0  0  0  0  0  0  0  0
   -6.3490   17.1810  -32.7800 C   0  0  0  0  0  0  0  0  0  0  0  0
   -7.1050   18.3360  -32.5300 C   0  0  0  0  0  0  0  0  0  0  0  0
   -8.3260   18.2590  -31.8410 C   0  0  0  0  0  0  0  0  0  0  0  0
   -9.0650   19.4190  -31.5930 C   0  0  0  0  0  0  0  0  0  0  0  0
   -8.5940   20.6600  -32.0300 C   0  0  0  0  0  0  0  0  0  0  0  0
   -7.3810   20.7490  -32.7210 C   0  0  0  0  0  0  0  0  0  0  0  0
   -6.6290   19.5920  -32.9770 C   0  0  0  0  0  0  0  0  0  0  0  0
   -5.4130   19.6680  -33.6690 C   0  0  0  0  0  0  0  0  0  0  0  0
   -2.1712   25.7571  -24.6649 H   0  0  0  0  0  0  0  0  0  0  0  0
   -3.0233   26.4707  -26.0761 H   0  0  0  0  0  0  0  0  0  0  0  0
   -2.5898   24.7275  -26.0761 H   0  0  0  0  0  0  0  0  0  0  0  0
   -0.6382   27.0884  -26.1188 H   0  0  0  0  0  0  0  0  0  0  0  0
   -0.1794   25.3428  -26.0482 H   0  0  0  0  0  0  0  0  0  0  0  0
   -0.0471   23.4356  -27.8949 H   0  0  0  0  0  0  0  0  0  0  0  0
   -1.0340   21.5756  -29.2304 H   0  0  0  0  0  0  0  0  0  0  0  0
   -3.0650   26.0410  -29.3420 H   0  0  0  0  0  0  0  0  0  0  0  0
   -5.3082   21.4811  -30.4780 H   0  0  0  0  0  0  0  0  0  0  0  0
   -4.7868   21.3183  -32.2064 H   0  0  0  0  0  0  0  0  0  0  0  0
   -2.4985   19.8637  -30.2832 H   0  0  0  0  0  0  0  0  0  0  0  0
   -3.0785   19.9917  -31.9863 H   0  0  0  0  0  0  0  0  0  0  0  0
   -0.7699   21.7406  -31.1629 H   0  0  0  0  0  0  0  0  0  0  0  0
   -0.4749   19.9567  -31.3675 H   0  0  0  0  0  0  0  0  0  0  0  0
   -0.2100   20.4130  -33.4680 H   0  0  0  0  0  0  0  0  0  0  0  0
   -3.1159   20.8215  -33.1755 H   0  0  0  0  0  0  0  0  0  0  0  0
   -2.3102   21.0785  -34.7630 H   0  0  0  0  0  0  0  0  0  0  0  0
   -1.3875   18.8026  -34.7011 H   0  0  0  0  0  0  0  0  0  0  0  0
   -2.0819   18.5377  -33.0665 H   0  0  0  0  0  0  0  0  0  0  0  0
   -4.5487   16.3584  -33.6578 H   0  0  0  0  0  0  0  0  0  0  0  0
   -6.7125   16.2024  -32.4331 H   0  0  0  0  0  0  0  0  0  0  0  0
   -8.7014   17.2843  -31.4959 H   0  0  0  0  0  0  0  0  0  0  0  0
  -10.0206   19.3549  -31.0520 H   0  0  0  0  0  0  0  0  0  0  0  0
   -9.1790   21.5698  -31.8300 H   0  0  0  0  0  0  0  0  0  0  0  0
   -7.0157   21.7281  -33.0645 H   0  0  0  0  0  0  0  0  0  0  0  0
   -5.0459   20.6442  -34.0188 H   0  0  0  0  0  0  0  0  0  0  0  0
  1  2  1  0
  2  3  1  0
  3  4  1  0
  4  5  2  0
  5  6  1  0
  6  7  2  0
  7  8  1  0
  8  9  2  0
  8 10  1  0
 10 11  1  0
 11 12  2  0
 11 13  1  0
 13 14  1  0
 14 15  1  0
 15 16  1  0
 16 17  1  0
 17 18  1  0
 18 19  1  0
 19 20  1  0
 20 21  1  0
 21 22  2  0
 22 23  1  0
 23 24  2  0
 24 25  1  0
 25 26  2  0
 26 27  1  0
 27 28  2  0
 28 29  1  0
 29 30  2  0
  9  4  1  0
 30 21  1  0
 14  7  1  0
 29 24  1  0
  1 31  1  0
  1 32  1  0
  1 33  1  0
  2 34  1  0
  2 35  1  0
  5 36  1  0
  6 37  1  0
  9 38  1  0
 13 39  1  0
 13 40  1  0
 15 41  1  0
 15 42  1  0
 16 43  1  0
 16 44  1  0
 17 45  1  0
 18 46  1  0
 18 47  1  0
 19 48  1  0
 19 49  1  0
 22 50  1  0
 23 51  1  0
 25 52  1  0
 26 53  1  0
 27 54  1  0
 28 55  1  0
 30 56  1  0
M  CHG  2   9   1  10  -1
M  END
>  <UniqueID>  (20) 
20

>  <SMILES>  (20) 
CCOc1ccc2c([nH+]1)[N-]C(=O)CN2CCNCCOc1ccc2ccccc2c1

>  <Energy>  (20) 
59.21388152480394

>  <Genealogy>  (20) 
CCOc1ccc2c([nH+]1)[N-]C(=O)CN2CCNCCOc1ccc2ccccc2c1 (protonated)
CCOc1ccc2c([nH+]1)[N-]C(=O)CN2CCNCCOc1ccc2ccccc2c1 (3D coordinates assigned)
CCOc1ccc2c([nH+]1)[N-]C(=O)CN2CCNCCOc1ccc2ccccc2c1 (nonaromatic ring conformer: 59.21388152480394 kcal/mol)

>  <smiles>  (20) 
CCOc1ccc2c(n1)NC(=O)CN2CCNCCOc1ccc2ccccc2c1

>  <score_type>  (20) 
oracle

>  <origin>  (20) 
adg

>  <m_score__min__energy>  (20) 
-9.1400000000000006

>  <m_primary>  (20) 
energy

$$$$
21:0
     RDKit          3D

 42 43  0  0  0  0  0  0  0  0999 V2000
   -1.2520   26.4160  -24.4960 C   0  0  0  0  0  0  0  0  0  0  0  0
   -1.9630   26.2190  -25.8250 C   0  0  0  0  0  0  0  0  0  0  0  0
   -3.1130   25.4180  -25.6240 O   0  0  0  0  0  0  0  0  0  0  0  0
   -3.6310   25.0320  -26.8340 N   0  0  0  0  0  0  0  0  0  0  0  0
   -3.2210   23.6490  -27.1050 C   0  0  0  0  0  0  0  0  0  0  0  0
   -2.0800   23.6060  -28.1310 C   0  0  0  0  0  0  0  0  0  0  0  0
   -1.9080   24.9290  -28.8890 C   0  0  0  0  0  0  0  0  0  0  0  0
   -3.1030   25.2910  -29.5830 O   0  0  0  0  0  0  0  0  0  0  0  0
   -4.0670   24.4130  -30.1090 C   0  0  0  0  0  0  0  0  0  0  0  0
   -3.7380   23.2670  -30.8600 C   0  0  0  0  0  0  0  0  0  0  0  0
   -4.7450   22.4310  -31.3500 C   0  0  0  0  0  0  0  0  0  0  0  0
   -6.0990   22.7220  -31.1070 C   0  0  0  0  0  0  0  0  0  0  0  0
   -7.1690   21.8320  -31.6260 C   0  0  0  0  0  0  0  0  0  0  0  0
   -6.8440   20.6170  -32.2600 C   0  0  0  0  0  0  0  0  0  0  0  0
   -7.8540   19.7810  -32.7490 C   0  0  0  0  0  0  0  0  0  0  0  0
   -9.1940   20.1480  -32.6120 C   0  0  0  0  0  0  0  0  0  0  0  0
   -9.5300   21.3490  -31.9850 C   0  0  0  0  0  0  0  0  0  0  0  0
   -8.5240   22.1900  -31.4940 C   0  0  0  0  0  0  0  0  0  0  0  0
   -6.4220   23.8700  -30.3640 C   0  0  0  0  0  0  0  0  0  0  0  0
   -5.4140   24.7050  -29.8730 C   0  0  0  0  0  0  0  0  0  0  0  0
   -1.9543   26.2214  -23.6721 H   0  0  0  0  0  0  0  0  0  0  0  0
   -0.4038   25.7190  -24.4271 H   0  0  0  0  0  0  0  0  0  0  0  0
   -0.8834   27.4501  -24.4271 H   0  0  0  0  0  0  0  0  0  0  0  0
   -2.2621   27.1968  -26.2306 H   0  0  0  0  0  0  0  0  0  0  0  0
   -1.2864   25.7221  -26.5358 H   0  0  0  0  0  0  0  0  0  0  0  0
   -4.6720   25.0580  -26.7370 H   0  0  0  0  0  0  0  0  0  0  0  0
   -3.3730   25.6640  -27.6340 H   0  0  0  0  0  0  0  0  0  0  0  0
   -2.8802   23.1844  -26.1680 H   0  0  0  0  0  0  0  0  0  0  0  0
   -4.0825   23.1014  -27.5148 H   0  0  0  0  0  0  0  0  0  0  0  0
   -1.1419   23.3794  -27.6032 H   0  0  0  0  0  0  0  0  0  0  0  0
   -2.3308   22.8319  -28.8711 H   0  0  0  0  0  0  0  0  0  0  0  0
   -1.6568   25.7231  -28.1705 H   0  0  0  0  0  0  0  0  0  0  0  0
   -1.1031   24.8026  -29.6280 H   0  0  0  0  0  0  0  0  0  0  0  0
   -2.6831   23.0292  -31.0616 H   0  0  0  0  0  0  0  0  0  0  0  0
   -4.4758   21.5368  -31.9313 H   0  0  0  0  0  0  0  0  0  0  0  0
   -5.7898   20.3235  -32.3714 H   0  0  0  0  0  0  0  0  0  0  0  0
   -7.5918   18.8333  -33.2421 H   0  0  0  0  0  0  0  0  0  0  0  0
   -9.9861   19.4899  -32.9987 H   0  0  0  0  0  0  0  0  0  0  0  0
  -10.5866   21.6351  -31.8765 H   0  0  0  0  0  0  0  0  0  0  0  0
   -8.7941   23.1361  -31.0022 H   0  0  0  0  0  0  0  0  0  0  0  0
   -7.4764   24.1137  -30.1671 H   0  0  0  0  0  0  0  0  0  0  0  0
   -5.6833   25.6012  -29.2949 H   0  0  0  0  0  0  0  0  0  0  0  0
  1  2  1  0
  2  3  1  0
  3  4  1  0
  4  5  1  0
  5  6  1  0
  6  7  1  0
  7  8  1  0
  8  9  1  0
  9 10  2  0
 10 11  1  0
 11 12  2  0
 12 13  1  0
 13 14  2  0
 14 15  1  0
 15 16  2  0
 16 17  1  0
 17 18  2  0
 12 19  1  0
 19 20  2  0
 20  9  1  0
 18 13  1  0
  1 21  1  0
  1 22  1  0
  1 23  1  0
  2 24  1  0
  2 25  1  0
  4 26  1  0
  4 27  1  0
  5 28  1  0
  5 29  1  0
  6 30  1  0
  6 31  1  0
  7 32  1  0
  7 33  1  0
 10 34  1  0
 11 35  1  0
 14 36  1  0
 15 37  1  0
 16 38  1  0
 17 39  1  0
 18 40  1  0
 19 41  1  0
 20 42  1  0
M  CHG  1   4   1
M  END
>  <UniqueID>  (21) 
21

>  <SMILES>  (21) 
CCO[NH2+]CCCOc1ccc(-c2ccccc2)cc1

>  <Energy>  (21) 
46.380554701959845

>  <Genealogy>  (21) 
CCO[NH2+]CCCOc1ccc(-c2ccccc2)cc1 (protonated)
CCO[NH2+]CCCOc1ccc(-c2ccccc2)cc1 (3D coordinates assigned)
CCO[NH2+]CCCOc1ccc(-c2ccccc2)cc1 (optimized conformer: 46.380554701959845 kcal/mol)

>  <smiles>  (21) 
CCONCCCOc1ccc(-c2ccccc2)cc1

>  <score_type>  (21) 
oracle

>  <origin>  (21) 
adg

>  <m_score__min__energy>  (21) 
-7.3799999999999999

>  <m_primary>  (21) 
energy

$$$$
22:0
     RDKit          3D

 43 45  0  0  0  0  0  0  0  0999 V2000
   -6.5102   23.7543  -30.1344 H   0  0  0  0  0  0  0  0  0  0  0  0
   -5.8040   23.5870  -30.9610 C   0  0  0  0  0  0  0  0  0  0  0  0
   -4.9430   24.5030  -31.2670 N   0  0  0  0  0  0  0  0  0  0  0  0
   -3.8550   24.7400  -30.4590 O   0  0  0  0  0  0  0  0  0  0  0  0
   -3.9490   24.5500  -29.0580 C   0  0  0  0  0  0  0  0  0  0  0  0
   -4.9929   24.6848  -28.7385 H   0  0  0  0  0  0  0  0  0  0  0  0
   -3.3117   25.2844  -28.5437 H   0  0  0  0  0  0  0  0  0  0  0  0
   -3.5060   23.1970  -28.7210 C   0  0  0  0  0  0  0  0  0  0  0  0
   -3.1410   22.0820  -28.4440 C   0  0  0  0  0  0  0  0  0  0  0  0
   -2.6970   20.7290  -28.1080 C   0  0  0  0  0  0  0  0  0  0  0  0
   -2.6600   20.6162  -27.0144 H   0  0  0  0  0  0  0  0  0  0  0  0
   -3.4020   19.9967  -28.5285 H   0  0  0  0  0  0  0  0  0  0  0  0
   -1.6952   20.5568  -28.5285 H   0  0  0  0  0  0  0  0  0  0  0  0
   -5.8440   22.3120  -31.7190 C   0  0  0  0  0  0  0  0  0  0  0  0
   -7.0740   21.6470  -31.9190 C   0  0  0  0  0  0  0  0  0  0  0  0
   -8.2790   22.1380  -31.3630 C   0  0  0  0  0  0  0  0  0  0  0  0
   -8.2692   23.0796  -30.7943 H   0  0  0  0  0  0  0  0  0  0  0  0
   -9.4770   21.4470  -31.5250 C   0  0  0  0  0  0  0  0  0  0  0  0
  -10.4054   21.8469  -31.0913 H   0  0  0  0  0  0  0  0  0  0  0  0
   -9.5000   20.2530  -32.2340 C   0  0  0  0  0  0  0  0  0  0  0  0
  -10.4413   19.6926  -32.3338 H   0  0  0  0  0  0  0  0  0  0  0  0
   -8.3350   19.7630  -32.8190 C   0  0  0  0  0  0  0  0  0  0  0  0
   -8.3673   18.8142  -33.3746 H   0  0  0  0  0  0  0  0  0  0  0  0
   -7.1070   20.4660  -32.7110 C   0  0  0  0  0  0  0  0  0  0  0  0
   -5.9640   20.0240  -33.3480 N   0  0  0  0  0  0  0  0  0  0  0  0
   -6.0620   19.0070  -34.4200 C   0  0  0  0  0  0  0  0  0  0  0  0
   -6.1583   18.0079  -33.9699 H   0  0  0  0  0  0  0  0  0  0  0  0
   -6.9443   19.2150  -35.0432 H   0  0  0  0  0  0  0  0  0  0  0  0
   -5.1563   19.0427  -35.0432 H   0  0  0  0  0  0  0  0  0  0  0  0
   -4.7330   20.5480  -33.0040 C   0  0  0  0  0  0  0  0  0  0  0  0
   -3.5230   19.9250  -33.4080 C   0  0  0  0  0  0  0  0  0  0  0  0
   -3.5662   18.9920  -33.9890 H   0  0  0  0  0  0  0  0  0  0  0  0
   -2.2720   20.4740  -33.0820 C   0  0  0  0  0  0  0  0  0  0  0  0
   -1.0610   19.8860  -33.4820 O   0  0  0  0  0  0  0  0  0  0  0  0
    0.1630   20.5930  -33.6540 C   0  0  0  0  0  0  0  0  0  0  0  0
    0.5867   20.8377  -32.6688 H   0  0  0  0  0  0  0  0  0  0  0  0
    0.8732   19.9660  -34.2130 H   0  0  0  0  0  0  0  0  0  0  0  0
   -0.0253   21.5215  -34.2130 H   0  0  0  0  0  0  0  0  0  0  0  0
   -2.2170   21.6390  -32.3260 C   0  0  0  0  0  0  0  0  0  0  0  0
   -1.2413   22.0828  -32.0788 H   0  0  0  0  0  0  0  0  0  0  0  0
   -3.3850   22.2490  -31.8790 C   0  0  0  0  0  0  0  0  0  0  0  0
   -3.3187   23.1575  -31.2623 H   0  0  0  0  0  0  0  0  0  0  0  0
   -4.6550   21.7210  -32.2040 C   0  0  0  0  0  0  0  0  0  0  0  0
  1  2  1  0
  2  3  2  0
  3  4  1  0
  4  5  1  0
  5  6  1  0
  5  7  1  0
  5  8  1  0
  8  9  3  0
  9 10  1  0
 10 11  1  0
 10 12  1  0
 10 13  1  0
  2 14  1  0
 14 15  2  0
 15 16  1  0
 16 17  1  0
 16 18  2  0
 18 19  1  0
 18 20  1  0
 20 21  1  0
 20 22  2  0
 22 23  1  0
 22 24  1  0
 24 25  2  0
 25 26  1  0
 26 27  1  0
 26 28  1  0
 26 29  1  0
 25 30  1  0
 30 31  2  0
 31 32  1  0
 31 33  1  0
 33 34  1  0
 34 35  1  0
 35 36  1  0
 35 37  1  0
 35 38  1  0
 33 39  2  0
 39 40  1  0
 39 41  1  0
 41 42  1  0
 41 43  2  0
 43 14  1  0
 24 15  1  0
 43 30  1  0
M  CHG  1  25   1
M  END
>  <UniqueID>  (22) 
22

>  <SMILES>  (22) 
CC#CCO/N=C/c1c2ccccc2[n+](C)c2cc(OC)ccc12

>  <Energy>  (22) 
64.39080950201593

>  <Genealogy>  (22) 
CC#CCO/N=C/c1c2ccccc2[n+](C)c2cc(OC)ccc12 (cis-trans isomerization)
CC#CCO/N=C/c1c2ccccc2[n+](C)c2cc(OC)ccc12 (3D coordinates assigned)
CC#CCO/N=C/c1c2ccccc2[n+](C)c2cc(OC)ccc12 (optimized conformer: 64.39080950201593 kcal/mol)

>  <smiles>  (22) 
CC#CCON=Cc1c2ccccc2[n+](C)c2cc(OC)ccc12

>  <score_type>  (22) 
oracle

>  <origin>  (22) 
adg

>  <m_score__min__energy>  (22) 
-8.1099999999999994

>  <m_primary>  (22) 
energy

$$$$
23:0
     RDKit          3D

 69 72  0  0  0  0  0  0  0  0999 V2000
    0.1850   20.9370  -35.7920 C   0  0  0  0  0  0  0  0  0  0  0  0
   -0.1060   21.9210  -34.6640 C   0  0  0  0  0  0  0  0  0  0  0  0
   -1.2830   21.4810  -33.9070 N   0  0  0  0  0  0  0  0  0  0  0  0
   -0.9520   20.3400  -33.0440 C   0  0  0  0  0  0  0  0  0  0  0  0
   -2.2240   19.5630  -32.6960 C   0  0  0  0  0  0  0  0  0  0  0  0
   -3.3610   20.0390  -33.4880 N   0  0  0  0  0  0  0  0  0  0  0  0
   -4.7060   19.7770  -33.0680 C   0  0  0  0  0  0  0  0  0  0  0  0
   -5.2780   18.5330  -33.3980 C   0  0  0  0  0  0  0  0  0  0  0  0
   -4.5140   17.5340  -34.0460 C   0  0  0  0  0  0  0  0  0  0  0  0
   -5.0940   16.3300  -34.4350 C   0  0  0  0  0  0  0  0  0  0  0  0
   -6.4420   16.1010  -34.2010 C   0  0  0  0  0  0  0  0  0  0  0  0
   -7.2100   17.0590  -33.5400 C   0  0  0  0  0  0  0  0  0  0  0  0
   -6.6340   18.2750  -33.0850 C   0  0  0  0  0  0  0  0  0  0  0  0
   -7.3650   19.2000  -32.3700 N   0  0  0  0  0  0  0  0  0  0  0  0
   -8.6740   18.8120  -31.7920 C   0  0  0  0  0  0  0  0  0  0  0  0
   -6.8620   20.4700  -32.1510 C   0  0  0  0  0  0  0  0  0  0  0  0
   -7.7010   21.5040  -31.6710 C   0  0  0  0  0  0  0  0  0  0  0  0
   -7.1950   22.7510  -31.3470 C   0  0  0  0  0  0  0  0  0  0  0  0
   -5.8420   23.0070  -31.4760 C   0  0  0  0  0  0  0  0  0  0  0  0
   -4.9660   22.0380  -31.9880 C   0  0  0  0  0  0  0  0  0  0  0  0
   -3.5610   22.3610  -32.0330 N   0  0  0  0  0  0  0  0  0  0  0  0
   -2.8710   23.1070  -30.9730 C   0  0  0  0  0  0  0  0  0  0  0  0
   -1.6730   22.3240  -30.3970 C   0  0  0  0  0  0  0  0  0  0  0  0
   -1.9000   21.9220  -28.9900 N   0  0  0  0  0  0  0  0  0  0  0  0
   -2.8640   20.7980  -28.9130 C   0  0  0  0  0  0  0  0  0  0  0  0
   -2.9910   20.2420  -27.4710 C   0  0  0  0  0  0  0  0  0  0  0  0
   -2.1350   18.9900  -27.1960 C   0  0  0  0  0  0  0  0  0  0  0  0
   -0.6140   19.2390  -27.2860 C   0  0  0  0  0  0  0  0  0  0  0  0
   -0.1650   20.1430  -28.4460 C   0  0  0  0  0  0  0  0  0  0  0  0
   -0.6150   21.6110  -28.3190 C   0  0  0  0  0  0  0  0  0  0  0  0
   -5.4870   20.7690  -32.4150 C   0  0  0  0  0  0  0  0  0  0  0  0
    0.4725   19.9647  -35.3654 H   0  0  0  0  0  0  0  0  0  0  0  0
   -0.7151   20.8135  -36.4122 H   0  0  0  0  0  0  0  0  0  0  0  0
    1.0075   21.3229  -36.4122 H   0  0  0  0  0  0  0  0  0  0  0  0
    0.7625   21.9710  -33.9908 H   0  0  0  0  0  0  0  0  0  0  0  0
   -0.3027   22.9147  -35.0928 H   0  0  0  0  0  0  0  0  0  0  0  0
   -2.0100   21.1630  -34.5890 H   0  0  0  0  0  0  0  0  0  0  0  0
   -0.2515   19.6755  -33.5709 H   0  0  0  0  0  0  0  0  0  0  0  0
   -0.4887   20.7096  -32.1173 H   0  0  0  0  0  0  0  0  0  0  0  0
   -2.0620   18.4951  -32.9043 H   0  0  0  0  0  0  0  0  0  0  0  0
   -2.4492   19.7169  -31.6304 H   0  0  0  0  0  0  0  0  0  0  0  0
   -3.2200   20.8430  -34.1380 H   0  0  0  0  0  0  0  0  0  0  0  0
   -3.4468   17.7112  -34.2452 H   0  0  0  0  0  0  0  0  0  0  0  0
   -4.4831   15.5596  -34.9283 H   0  0  0  0  0  0  0  0  0  0  0  0
   -6.9059   15.1621  -34.5375 H   0  0  0  0  0  0  0  0  0  0  0  0
   -8.2799   16.8698  -33.3681 H   0  0  0  0  0  0  0  0  0  0  0  0
   -8.6101   18.8309  -30.6940 H   0  0  0  0  0  0  0  0  0  0  0  0
   -9.4468   19.5197  -32.1266 H   0  0  0  0  0  0  0  0  0  0  0  0
   -8.9363   17.7975  -32.1266 H   0  0  0  0  0  0  0  0  0  0  0  0
   -8.7778   21.3126  -31.5530 H   0  0  0  0  0  0  0  0  0  0  0  0
   -7.8707   23.5404  -30.9860 H   0  0  0  0  0  0  0  0  0  0  0  0
   -5.4459   23.9871  -31.1720 H   0  0  0  0  0  0  0  0  0  0  0  0
   -3.0800   22.3340  -32.9530 H   0  0  0  0  0  0  0  0  0  0  0  0
   -2.5063   24.0580  -31.3885 H   0  0  0  0  0  0  0  0  0  0  0  0
   -3.5884   23.2768  -30.1566 H   0  0  0  0  0  0  0  0  0  0  0  0
   -1.5142   21.4203  -31.0037 H   0  0  0  0  0  0  0  0  0  0  0  0
   -0.7913   22.9812  -30.4254 H   0  0  0  0  0  0  0  0  0  0  0  0
   -3.8508   21.1526  -29.2455 H   0  0  0  0  0  0  0  0  0  0  0  0
   -2.4949   19.9879  -29.5591 H   0  0  0  0  0  0  0  0  0  0  0  0
   -2.6827   21.0310  -26.7692 H   0  0  0  0  0  0  0  0  0  0  0  0
   -4.0408   19.9404  -27.3411 H   0  0  0  0  0  0  0  0  0  0  0  0
   -2.3671   18.6274  -26.1838 H   0  0  0  0  0  0  0  0  0  0  0  0
   -2.3846   18.2554  -27.9758 H   0  0  0  0  0  0  0  0  0  0  0  0
   -0.2897   19.7071  -26.3449 H   0  0  0  0  0  0  0  0  0  0  0  0
   -0.1547   18.2565  -27.4699 H   0  0  0  0  0  0  0  0  0  0  0  0
    0.9338   20.1227  -28.4927 H   0  0  0  0  0  0  0  0  0  0  0  0
   -0.6399   19.7463  -29.3554 H   0  0  0  0  0  0  0  0  0  0  0  0
   -0.7203   21.8465  -27.2497 H   0  0  0  0  0  0  0  0  0  0  0  0
    0.1537   22.2176  -28.8202 H   0  0  0  0  0  0  0  0  0  0  0  0
  1  2  1  0
  2  3  1  0
  3  4  1  0
  4  5  1  0
  5  6  1  0
  6  7  1  0
  7  8  2  0
  8  9  1  0
  9 10  2  0
 10 11  1  0
 11 12  2  0
 12 13  1  0
 13 14  2  0
 14 15  1  0
 14 16  1  0
 16 17  2  0
 17 18  1  0
 18 19  2  0
 19 20  1  0
 20 21  1  0
 21 22  1  0
 22 23  1  0
 23 24  1  0
 24 25  1  0
 25 26  1  0
 26 27  1  0
 27 28  1  0
 28 29  1  0
 29 30  1  0
 20 31  2  0
 31  7  1  0
 13  8  1  0
 31 16  1  0
 30 24  1  0
  1 32  1  0
  1 33  1  0
  1 34  1  0
  2 35  1  0
  2 36  1  0
  3 37  1  0
  4 38  1  0
  4 39  1  0
  5 40  1  0
  5 41  1  0
  6 42  1  0
  9 43  1  0
 10 44  1  0
 11 45  1  0
 12 46  1  0
 15 47  1  0
 15 48  1  0
 15 49  1  0
 17 50  1  0
 18 51  1  0
 19 52  1  0
 21 53  1  0
 22 54  1  0
 22 55  1  0
 23 56  1  0
 23 57  1  0
 25 58  1  0
 25 59  1  0
 26 60  1  0
 26 61  1  0
 27 62  1  0
 27 63  1  0
 28 64  1  0
 28 65  1  0
 29 66  1  0
 29 67  1  0
 30 68  1  0
 30 69  1  0
M  CHG  1  14   1
M  END
>  <UniqueID>  (23) 
23

>  <SMILES>  (23) 
CCNCCNc1c2ccccc2[n+](C)c2cccc(NCCN3CCCCCC3)c12

>  <Energy>  (23) 
109.74385715309018

>  <Genealogy>  (23) 
CCNCCNc1c2ccccc2[n+](C)c2cccc(NCCN3CCCCCC3)c12 (3D coordinates assigned)
CCNCCNc1c2ccccc2[n+](C)c2cccc(NCCN3CCCCCC3)c12 (nonaromatic ring conformer: 109.74385715309018 kcal/mol)

>  <smiles>  (23) 
CCNCCNc1c2ccccc2[n+](C)c2cccc(NCCN3CCCCCC3)c12

>  <score_type>  (23) 
oracle

>  <origin>  (23) 
adg

>  <m_score__min__energy>  (23) 
-7.8099999999999996

>  <m_primary>  (23) 
energy

$$$$
24:0
     RDKit          3D

 44 46  0  0  0  0  0  0  0  0999 V2000
   -9.0950   19.1270  -31.9760 C   0  0  0  0  0  0  0  0  0  0  0  0
   -8.7020   20.3740  -31.1890 C   0  0  0  0  0  0  0  0  0  0  0  0
   -8.2720   21.5080  -32.1270 C   0  0  0  0  0  0  0  0  0  0  0  0
   -6.8370   21.7930  -31.9730 N   0  0  0  0  0  0  0  0  0  0  0  0
   -5.8410   21.0260  -32.7320 C   0  0  0  0  0  0  0  0  0  0  0  0
   -6.4950   20.0140  -33.6850 C   0  0  0  0  0  0  0  0  0  0  0  0
   -5.8290   18.6400  -33.6220 C   0  0  0  0  0  0  0  0  0  0  0  0
   -6.3980   22.8550  -31.1110 C   0  0  0  0  0  0  0  0  0  0  0  0
   -7.2110   23.9240  -30.8620 N   0  0  0  0  0  0  0  0  0  0  0  0
   -6.8280   24.9420  -30.0280 C   0  0  0  0  0  0  0  0  0  0  0  0
   -5.6080   24.9110  -29.4120 N   0  0  0  0  0  0  0  0  0  0  0  0
   -4.7850   23.8610  -29.6670 C   0  0  0  0  0  0  0  0  0  0  0  0
   -5.1590   22.8320  -30.4720 C   0  0  0  0  0  0  0  0  0  0  0  0
   -4.1550   21.8910  -30.3570 C   0  0  0  0  0  0  0  0  0  0  0  0
   -3.2150   22.3750  -29.5080 N   0  0  0  0  0  0  0  0  0  0  0  0
   -3.5960   23.5800  -29.0960 N   0  0  0  0  0  0  0  0  0  0  0  0
   -2.8340   24.3850  -28.1840 C   0  0  0  0  0  0  0  0  0  0  0  0
   -1.6040   24.9430  -28.5700 C   0  0  0  0  0  0  0  0  0  0  0  0
   -0.8590   25.7040  -27.6640 C   0  0  0  0  0  0  0  0  0  0  0  0
   -1.3290   25.9030  -26.3630 C   0  0  0  0  0  0  0  0  0  0  0  0
   -2.5400   25.3330  -25.9650 C   0  0  0  0  0  0  0  0  0  0  0  0
   -3.2870   24.5700  -26.8680 C   0  0  0  0  0  0  0  0  0  0  0  0
   -9.3502   18.3173  -31.2766 H   0  0  0  0  0  0  0  0  0  0  0  0
   -9.9657   19.3524  -32.6094 H   0  0  0  0  0  0  0  0  0  0  0  0
   -8.2524   18.8125  -32.6094 H   0  0  0  0  0  0  0  0  0  0  0  0
   -9.5637   20.7086  -30.5928 H   0  0  0  0  0  0  0  0  0  0  0  0
   -7.8537   20.1212  -30.5359 H   0  0  0  0  0  0  0  0  0  0  0  0
   -8.4719   21.2117  -33.1673 H   0  0  0  0  0  0  0  0  0  0  0  0
   -8.8422   22.4136  -31.8723 H   0  0  0  0  0  0  0  0  0  0  0  0
   -5.2294   21.7246  -33.3218 H   0  0  0  0  0  0  0  0  0  0  0  0
   -5.2252   20.4656  -32.0132 H   0  0  0  0  0  0  0  0  0  0  0  0
   -7.5550   19.9056  -33.4119 H   0  0  0  0  0  0  0  0  0  0  0  0
   -6.3799   20.3958  -34.7102 H   0  0  0  0  0  0  0  0  0  0  0  0
   -5.6879   18.3488  -32.5707 H   0  0  0  0  0  0  0  0  0  0  0  0
   -6.4681   17.8993  -34.1250 H   0  0  0  0  0  0  0  0  0  0  0  0
   -4.8517   18.6828  -34.1250 H   0  0  0  0  0  0  0  0  0  0  0  0
   -7.5069   25.7897  -29.8531 H   0  0  0  0  0  0  0  0  0  0  0  0
   -5.3470   25.6650  -28.7390 H   0  0  0  0  0  0  0  0  0  0  0  0
   -4.1232   20.9166  -30.8664 H   0  0  0  0  0  0  0  0  0  0  0  0
   -1.2251   24.7805  -29.5898 H   0  0  0  0  0  0  0  0  0  0  0  0
    0.0985   26.1467  -27.9757 H   0  0  0  0  0  0  0  0  0  0  0  0
   -0.7456   26.5080  -25.6533 H   0  0  0  0  0  0  0  0  0  0  0  0
   -2.9071   25.4844  -24.9392 H   0  0  0  0  0  0  0  0  0  0  0  0
   -4.2340   24.1126  -26.5457 H   0  0  0  0  0  0  0  0  0  0  0  0
  1  2  1  0
  2  3  1  0
  3  4  1  0
  4  5  1  0
  5  6  1  0
  6  7  1  0
  4  8  1  0
  8  9  2  0
  9 10  1  0
 10 11  2  0
 11 12  1  0
 12 13  2  0
 13 14  1  0
 14 15  2  0
 15 16  1  0
 16 17  1  0
 17 18  2  0
 18 19  1  0
 19 20  2  0
 20 21  1  0
 21 22  2  0
 13  8  1  0
 22 17  1  0
 16 12  1  0
  1 23  1  0
  1 24  1  0
  1 25  1  0
  2 26  1  0
  2 27  1  0
  3 28  1  0
  3 29  1  0
  5 30  1  0
  5 31  1  0
  6 32  1  0
  6 33  1  0
  7 34  1  0
  7 35  1  0
  7 36  1  0
 10 37  1  0
 11 38  1  0
 14 39  1  0
 18 40  1  0
 19 41  1  0
 20 42  1  0
 21 43  1  0
 22 44  1  0
M  CHG  1  11   1
M  END
>  <UniqueID>  (24) 
24

>  <SMILES>  (24) 
CCCN(CCC)c1nc[nH+]c2c1cnn2-c1ccccc1

>  <Energy>  (24) 
86.64249039749662

>  <Genealogy>  (24) 
CCCN(CCC)c1nc[nH+]c2c1cnn2-c1ccccc1 (protonated)
CCCN(CCC)c1nc[nH+]c2c1cnn2-c1ccccc1 (3D coordinates assigned)
CCCN(CCC)c1nc[nH+]c2c1cnn2-c1ccccc1 (optimized conformer: 86.64249039749662 kcal/mol)

>  <smiles>  (24) 
CCCN(CCC)c1ncnc2c1cnn2-c1ccccc1

>  <score_type>  (24) 
oracle

>  <origin>  (24) 
adg

>  <m_score__min__energy>  (24) 
-6.54

>  <m_primary>  (24) 
energy

$$$$
25:0
     RDKit          3D

 72 75  0  0  0  0  0  0  0  0999 V2000
   -4.2360   24.5330  -26.8700 C   0  0  0  0  0  0  0  0  0  0  0  0
   -4.5610   24.1300  -28.3080 C   0  0  0  0  0  0  0  0  0  0  0  0
   -3.4610   24.5370  -29.3100 C   0  0  0  0  0  0  0  0  0  0  0  0
   -3.9640   25.2600  -30.4900 N   0  0  0  0  0  0  0  0  0  0  0  0
   -5.4160   25.1270  -30.6580 C   0  0  0  0  0  0  0  0  0  0  0  0
   -5.7410   23.9600  -31.5940 C   0  0  0  0  0  0  0  0  0  0  0  0
   -4.8600   22.8120  -31.3620 N   0  0  0  0  0  0  0  0  0  0  0  0
   -5.1030   21.5290  -31.9630 C   0  0  0  0  0  0  0  0  0  0  0  0
   -6.4050   21.0000  -31.9660 C   0  0  0  0  0  0  0  0  0  0  0  0
   -7.4130   21.5590  -31.1520 C   0  0  0  0  0  0  0  0  0  0  0  0
   -8.6920   21.0100  -31.1260 C   0  0  0  0  0  0  0  0  0  0  0  0
   -8.9830   19.8870  -31.8920 C   0  0  0  0  0  0  0  0  0  0  0  0
   -8.0010   19.3180  -32.7020 C   0  0  0  0  0  0  0  0  0  0  0  0
   -6.7000   19.8770  -32.7780 C   0  0  0  0  0  0  0  0  0  0  0  0
   -5.7300   19.3580  -33.6120 N   0  0  0  0  0  0  0  0  0  0  0  0
   -6.1130   18.4270  -34.6970 C   0  0  0  0  0  0  0  0  0  0  0  0
   -4.4050   19.7180  -33.4400 C   0  0  0  0  0  0  0  0  0  0  0  0
   -3.3640   19.0090  -34.0860 C   0  0  0  0  0  0  0  0  0  0  0  0
   -2.0390   19.4000  -33.9570 C   0  0  0  0  0  0  0  0  0  0  0  0
   -1.7010   20.4730  -33.1470 C   0  0  0  0  0  0  0  0  0  0  0  0
   -2.6870   21.1700  -32.4300 C   0  0  0  0  0  0  0  0  0  0  0  0
   -2.3210   22.1860  -31.5280 O   0  0  0  0  0  0  0  0  0  0  0  0
   -1.4010   22.0300  -30.4450 C   0  0  0  0  0  0  0  0  0  0  0  0
   -2.1510   21.6630  -29.1460 C   0  0  0  0  0  0  0  0  0  0  0  0
   -1.3490   20.9850  -28.0720 N   0  0  0  0  0  0  0  0  0  0  0  0
   -0.2400   21.9220  -27.7380 C   0  0  0  0  0  0  0  0  0  0  0  0
   -0.7370   19.7180  -28.5990 C   0  0  0  0  0  0  0  0  0  0  0  0
   -0.3820   18.7220  -27.4850 C   0  0  0  0  0  0  0  0  0  0  0  0
   -1.6360   18.2720  -26.7220 C   0  0  0  0  0  0  0  0  0  0  0  0
   -2.7310   19.3510  -26.6740 C   0  0  0  0  0  0  0  0  0  0  0  0
   -2.1520   20.7700  -26.8180 C   0  0  0  0  0  0  0  0  0  0  0  0
   -4.0590   20.8170  -32.5990 C   0  0  0  0  0  0  0  0  0  0  0  0
   -4.7706   23.8701  -26.1737 H   0  0  0  0  0  0  0  0  0  0  0  0
   -3.1526   24.4457  -26.7007 H   0  0  0  0  0  0  0  0  0  0  0  0
   -4.5509   25.5733  -26.7007 H   0  0  0  0  0  0  0  0  0  0  0  0
   -4.6841   23.0376  -28.3468 H   0  0  0  0  0  0  0  0  0  0  0  0
   -5.4821   24.6569  -28.5978 H   0  0  0  0  0  0  0  0  0  0  0  0
   -2.7405   25.1844  -28.7887 H   0  0  0  0  0  0  0  0  0  0  0  0
   -3.0048   23.6060  -29.6776 H   0  0  0  0  0  0  0  0  0  0  0  0
   -3.4750   24.9340  -31.3550 H   0  0  0  0  0  0  0  0  0  0  0  0
   -5.8790   24.9444  -29.6770 H   0  0  0  0  0  0  0  0  0  0  0  0
   -5.8108   26.0557  -31.0958 H   0  0  0  0  0  0  0  0  0  0  0  0
   -6.7826   23.6487  -31.4259 H   0  0  0  0  0  0  0  0  0  0  0  0
   -5.5913   24.3011  -32.6290 H   0  0  0  0  0  0  0  0  0  0  0  0
   -4.1130   22.8930  -30.6380 H   0  0  0  0  0  0  0  0  0  0  0  0
   -7.1857   22.4382  -30.5312 H   0  0  0  0  0  0  0  0  0  0  0  0
   -9.4729   21.4651  -30.4990 H   0  0  0  0  0  0  0  0  0  0  0  0
   -9.9903   19.4463  -31.8590 H   0  0  0  0  0  0  0  0  0  0  0  0
   -8.2394   18.4206  -33.2918 H   0  0  0  0  0  0  0  0  0  0  0  0
   -6.4971   17.4933  -34.2604 H   0  0  0  0  0  0  0  0  0  0  0  0
   -6.8939   18.8896  -35.3185 H   0  0  0  0  0  0  0  0  0  0  0  0
   -5.2327   18.2062  -35.3185 H   0  0  0  0  0  0  0  0  0  0  0  0
   -3.6101   18.1315  -34.7019 H   0  0  0  0  0  0  0  0  0  0  0  0
   -1.2526   18.8557  -34.5004 H   0  0  0  0  0  0  0  0  0  0  0  0
   -0.6485   20.7820  -33.0649 H   0  0  0  0  0  0  0  0  0  0  0  0
   -0.6871   21.2296  -30.6891 H   0  0  0  0  0  0  0  0  0  0  0  0
   -0.8682   22.9800  -30.2915 H   0  0  0  0  0  0  0  0  0  0  0  0
   -2.5572   22.5930  -28.7216 H   0  0  0  0  0  0  0  0  0  0  0  0
   -2.9095   20.9261  -29.4487 H   0  0  0  0  0  0  0  0  0  0  0  0
   -0.1447   22.0026  -26.6451 H   0  0  0  0  0  0  0  0  0  0  0  0
    0.7014   21.5416  -28.1611 H   0  0  0  0  0  0  0  0  0  0  0  0
   -0.4579   22.9137  -28.1611 H   0  0  0  0  0  0  0  0  0  0  0  0
   -1.4531   19.2397  -29.2834 H   0  0  0  0  0  0  0  0  0  0  0  0
    0.1976   19.9892  -29.1118 H   0  0  0  0  0  0  0  0  0  0  0  0
    0.1014   17.8409  -27.9322 H   0  0  0  0  0  0  0  0  0  0  0  0
    0.2969   19.2193  -26.7766 H   0  0  0  0  0  0  0  0  0  0  0  0
   -2.0455   17.3790  -27.2168 H   0  0  0  0  0  0  0  0  0  0  0  0
   -1.3330   18.0649  -25.6850 H   0  0  0  0  0  0  0  0  0  0  0  0
   -3.4411   19.1726  -27.4950 H   0  0  0  0  0  0  0  0  0  0  0  0
   -3.2284   19.2857  -25.6950 H   0  0  0  0  0  0  0  0  0  0  0  0
   -2.9878   21.4852  -26.8169 H   0  0  0  0  0  0  0  0  0  0  0  0
   -1.4633   20.9172  -25.9730 H   0  0  0  0  0  0  0  0  0  0  0  0
  1  2  1  0
  2  3  1  0
  3  4  1  0
  4  5  1  0
  5  6  1  0
  6  7  1  0
  7  8  1  0
  8  9  2  0
  9 10  1  0
 10 11  2  0
 11 12  1  0
 12 13  2  0
 13 14  1  0
 14 15  2  0
 15 16  1  0
 15 17  1  0
 17 18  2  0
 18 19  1  0
 19 20  2  0
 20 21  1  0
 21 22  1  0
 22 23  1  0
 23 24  1  0
 24 25  1  0
 25 26  1  0
 25 27  1  0
 27 28  1  0
 28 29  1  0
 29 30  1  0
 30 31  1  0
 21 32  2  0
 32  8  1  0
 14  9  1  0
 32 17  1  0
 31 25  1  0
  1 33  1  0
  1 34  1  0
  1 35  1  0
  2 36  1  0
  2 37  1  0
  3 38  1  0
  3 39  1  0
  4 40  1  0
  5 41  1  0
  5 42  1  0
  6 43  1  0
  6 44  1  0
  7 45  1  0
 10 46  1  0
 11 47  1  0
 12 48  1  0
 13 49  1  0
 16 50  1  0
 16 51  1  0
 16 52  1  0
 18 53  1  0
 19 54  1  0
 20 55  1  0
 23 56  1  0
 23 57  1  0
 24 58  1  0
 24 59  1  0
 26 60  1  0
 26 61  1  0
 26 62  1  0
 27 63  1  0
 27 64  1  0
 28 65  1  0
 28 66  1  0
 29 67  1  0
 29 68  1  0
 30 69  1  0
 30 70  1  0
 31 71  1  0
 31 72  1  0
M  CHG  2  15   1  25   1
M  END
>  <UniqueID>  (25) 
25

>  <SMILES>  (25) 
CCCNCCNc1c2ccccc2[n+](C)c2cccc(OCC[N+]3(C)CCCCC3)c12

>  <Energy>  (25) 
113.73861570597462

>  <Genealogy>  (25) 
CCCNCCNc1c2ccccc2[n+](C)c2cccc(OCC[N+]3(C)CCCCC3)c12 (3D coordinates assigned)
CCCNCCNc1c2ccccc2[n+](C)c2cccc(OCC[N+]3(C)CCCCC3)c12 (nonaromatic ring conformer: 113.73861570597462 kcal/mol)

>  <smiles>  (25) 
CCCNCCNc1c2ccccc2[n+](C)c2cccc(OCC[N+]3(C)CCCCC3)c12

>  <score_type>  (25) 
oracle

>  <origin>  (25) 
adg

>  <m_score__min__energy>  (25) 
-9.0899999999999999

>  <m_primary>  (25) 
energy

$$$$
26:0
     RDKit          3D

 58 60  0  0  0  0  0  0  0  0999 V2000
   -8.7430   19.9090  -31.5990 C   0  0  0  0  0  0  0  0  0  0  0  0
   -8.8050   21.3850  -31.9760 C   0  0  0  0  0  0  0  0  0  0  0  0
   -8.1100   22.3000  -30.9500 C   0  0  0  0  0  0  0  0  0  0  0  0
   -6.7840   22.7740  -31.3940 N   0  0  0  0  0  0  0  0  0  0  0  0
   -6.5860   24.1580  -31.8700 C   0  0  0  0  0  0  0  0  0  0  0  0
   -5.7190   25.0080  -30.9220 C   0  0  0  0  0  0  0  0  0  0  0  0
   -6.4280   25.3550  -29.6160 C   0  0  0  0  0  0  0  0  0  0  0  0
   -5.6830   21.8380  -31.4630 C   0  0  0  0  0  0  0  0  0  0  0  0
   -5.5710   20.9160  -32.5230 C   0  0  0  0  0  0  0  0  0  0  0  0
   -4.4840   20.0160  -32.5480 C   0  0  0  0  0  0  0  0  0  0  0  0
   -4.3800   19.0010  -33.6470 C   0  0  0  0  0  0  0  0  0  0  0  0
   -3.5600   20.0290  -31.5390 N   0  0  0  0  0  0  0  0  0  0  0  0
   -3.6950   20.9380  -30.5420 C   0  0  0  0  0  0  0  0  0  0  0  0
   -2.8740   21.1480  -29.4590 C   0  0  0  0  0  0  0  0  0  0  0  0
   -1.6620   20.3970  -29.0820 C   0  0  0  0  0  0  0  0  0  0  0  0
   -0.5100   20.4230  -29.9030 C   0  0  0  0  0  0  0  0  0  0  0  0
   -0.4840   21.2000  -31.1930 C   0  0  0  0  0  0  0  0  0  0  0  0
    0.6370   19.7210  -29.5000 C   0  0  0  0  0  0  0  0  0  0  0  0
    0.6350   18.9780  -28.3180 C   0  0  0  0  0  0  0  0  0  0  0  0
    2.0740   18.1000  -27.8350 Cl  0  0  0  0  0  0  0  0  0  0  0  0
   -0.5100   18.9310  -27.5230 C   0  0  0  0  0  0  0  0  0  0  0  0
   -1.6680   19.6390  -27.8950 C   0  0  0  0  0  0  0  0  0  0  0  0
   -2.8350   19.6160  -27.1120 O   0  0  0  0  0  0  0  0  0  0  0  0
   -3.0470   18.7520  -26.0010 C   0  0  0  0  0  0  0  0  0  0  0  0
   -3.4780   22.2100  -28.7910 C   0  0  0  0  0  0  0  0  0  0  0  0
   -3.0700   22.7770  -27.4720 C   0  0  0  0  0  0  0  0  0  0  0  0
   -4.6020   22.5880  -29.4470 N   0  0  0  0  0  0  0  0  0  0  0  0
   -4.7130   21.8070  -30.5090 N   0  0  0  0  0  0  0  0  0  0  0  0
   -8.7389   19.8103  -30.5035 H   0  0  0  0  0  0  0  0  0  0  0  0
   -9.6201   19.3882  -32.0108 H   0  0  0  0  0  0  0  0  0  0  0  0
   -7.8254   19.4636  -32.0108 H   0  0  0  0  0  0  0  0  0  0  0  0
   -8.3154   21.5180  -32.9520 H   0  0  0  0  0  0  0  0  0  0  0  0
   -9.8665   21.6719  -32.0055 H   0  0  0  0  0  0  0  0  0  0  0  0
   -8.7519   23.1753  -30.7716 H   0  0  0  0  0  0  0  0  0  0  0  0
   -7.9549   21.7067  -30.0368 H   0  0  0  0  0  0  0  0  0  0  0  0
   -6.0960   24.1224  -32.8542 H   0  0  0  0  0  0  0  0  0  0  0  0
   -7.5776   24.6317  -31.9188 H   0  0  0  0  0  0  0  0  0  0  0  0
   -4.8037   24.4457  -30.6853 H   0  0  0  0  0  0  0  0  0  0  0  0
   -5.4978   25.9541  -31.4378 H   0  0  0  0  0  0  0  0  0  0  0  0
   -5.8011   25.0482  -28.7657 H   0  0  0  0  0  0  0  0  0  0  0  0
   -6.6021   26.4402  -29.5704 H   0  0  0  0  0  0  0  0  0  0  0  0
   -7.3918   24.8268  -29.5704 H   0  0  0  0  0  0  0  0  0  0  0  0
   -6.3245   20.8979  -33.3242 H   0  0  0  0  0  0  0  0  0  0  0  0
   -4.2771   17.9967  -33.2101 H   0  0  0  0  0  0  0  0  0  0  0  0
   -5.2868   19.0393  -34.2685 H   0  0  0  0  0  0  0  0  0  0  0  0
   -3.4998   19.2224  -34.2685 H   0  0  0  0  0  0  0  0  0  0  0  0
   -2.7600   19.3570  -31.5370 H   0  0  0  0  0  0  0  0  0  0  0  0
   -0.4480   22.2769  -30.9717 H   0  0  0  0  0  0  0  0  0  0  0  0
    0.4051   20.9152  -31.7747 H   0  0  0  0  0  0  0  0  0  0  0  0
   -1.3902   20.9753  -31.7747 H   0  0  0  0  0  0  0  0  0  0  0  0
    1.5446   19.7566  -30.1205 H   0  0  0  0  0  0  0  0  0  0  0  0
   -0.5079   18.3358  -26.5979 H   0  0  0  0  0  0  0  0  0  0  0  0
   -2.9087   19.3156  -25.0666 H   0  0  0  0  0  0  0  0  0  0  0  0
   -4.0703   18.3503  -26.0389 H   0  0  0  0  0  0  0  0  0  0  0  0
   -2.3258   17.9223  -26.0389 H   0  0  0  0  0  0  0  0  0  0  0  0
   -3.5051   22.1724  -26.6626 H   0  0  0  0  0  0  0  0  0  0  0  0
   -1.9731   22.7637  -27.3907 H   0  0  0  0  0  0  0  0  0  0  0  0
   -3.4311   23.8128  -27.3907 H   0  0  0  0  0  0  0  0  0  0  0  0
  1  2  1  0
  2  3  1  0
  3  4  1  0
  4  5  1  0
  5  6  1  0
  6  7  1  0
  4  8  1  0
  8  9  2  0
  9 10  1  0
 10 11  1  0
 10 12  2  0
 12 13  1  0
 13 14  2  0
 14 15  1  0
 15 16  2  0
 16 17  1  0
 16 18  1  0
 18 19  2  0
 19 20  1  0
 19 21  1  0
 21 22  2  0
 22 23  1  0
 23 24  1  0
 14 25  1  0
 25 26  1  0
 25 27  2  0
 27 28  1  0
 28  8  1  0
 28 13  1  0
 22 15  1  0
  1 29  1  0
  1 30  1  0
  1 31  1  0
  2 32  1  0
  2 33  1  0
  3 34  1  0
  3 35  1  0
  5 36  1  0
  5 37  1  0
  6 38  1  0
  6 39  1  0
  7 40  1  0
  7 41  1  0
  7 42  1  0
  9 43  1  0
 11 44  1  0
 11 45  1  0
 11 46  1  0
 12 47  1  0
 17 48  1  0
 17 49  1  0
 17 50  1  0
 18 51  1  0
 21 52  1  0
 24 53  1  0
 24 54  1  0
 24 55  1  0
 26 56  1  0
 26 57  1  0
 26 58  1  0
M  CHG  1  12   1
M  END
>  <UniqueID>  (26) 
26

>  <SMILES>  (26) 
CCCN(CCC)c1cc(C)[nH+]c2c(-c3c(C)cc(Cl)cc3OC)c(C)nn12

>  <Energy>  (26) 
97.4223830364175

>  <Genealogy>  (26) 
CCCN(CCC)c1cc(C)[nH+]c2c(-c3c(C)cc(Cl)cc3OC)c(C)nn12 (protonated)
CCCN(CCC)c1cc(C)[nH+]c2c(-c3c(C)cc(Cl)cc3OC)c(C)nn12 (3D coordinates assigned)
CCCN(CCC)c1cc(C)[nH+]c2c(-c3c(C)cc(Cl)cc3OC)c(C)nn12 (optimized conformer: 97.4223830364175 kcal/mol)

>  <smiles>  (26) 
CCCN(CCC)c1cc(C)nc2c(-c3c(C)cc(Cl)cc3OC)c(C)nn12

>  <score_type>  (26) 
oracle

>  <origin>  (26) 
adg

>  <m_score__min__energy>  (26) 
-8.0600000000000005

>  <m_primary>  (26) 
energy

$$$$
27:0
     RDKit          3D

 36 37  0  0  0  0  0  0  0  0999 V2000
   -1.1010   26.4270  -26.6850 C   0  0  0  0  0  0  0  0  0  0  0  0
   -0.8800   26.6930  -28.1690 C   0  0  0  0  0  0  0  0  0  0  0  0
   -1.5300   25.7000  -28.9630 O   0  0  0  0  0  0  0  0  0  0  0  0
   -1.4270   24.3080  -28.7870 C   0  0  0  0  0  0  0  0  0  0  0  0
   -0.1890   23.6670  -28.5780 C   0  0  0  0  0  0  0  0  0  0  0  0
   -0.1280   22.2820  -28.4120 C   0  0  0  0  0  0  0  0  0  0  0  0
   -1.2960   21.5180  -28.4520 C   0  0  0  0  0  0  0  0  0  0  0  0
   -1.2130   19.7780  -28.2440 Cl  0  0  0  0  0  0  0  0  0  0  0  0
   -2.5280   22.1390  -28.6620 C   0  0  0  0  0  0  0  0  0  0  0  0
   -2.6040   23.5320  -28.8330 C   0  0  0  0  0  0  0  0  0  0  0  0
   -3.9430   24.1840  -29.0760 C   0  0  0  0  0  0  0  0  0  0  0  0
   -3.8630   25.1510  -30.1810 N   0  0  0  0  0  0  0  0  0  0  0  0
   -5.1650   25.3940  -30.8280 C   0  0  0  0  0  0  0  0  0  0  0  0
   -5.8900   24.1100  -31.1580 C   0  0  0  0  0  0  0  0  0  0  0  0
   -5.3410   23.1940  -32.0670 C   0  0  0  0  0  0  0  0  0  0  0  0
   -6.0240   22.0080  -32.3470 C   0  0  0  0  0  0  0  0  0  0  0  0
   -7.2140   21.7460  -31.7410 N   0  0  0  0  0  0  0  0  0  0  0  0
   -7.7690   22.6170  -30.8570 C   0  0  0  0  0  0  0  0  0  0  0  0
   -7.1190   23.8140  -30.5500 C   0  0  0  0  0  0  0  0  0  0  0  0
   -0.5087   27.1399  -26.0925 H   0  0  0  0  0  0  0  0  0  0  0  0
   -2.1677   26.5485  -26.4456 H   0  0  0  0  0  0  0  0  0  0  0  0
   -0.7861   25.4006  -26.4456 H   0  0  0  0  0  0  0  0  0  0  0  0
   -1.2882   27.6823  -28.4230 H   0  0  0  0  0  0  0  0  0  0  0  0
    0.1997   26.6603  -28.3768 H   0  0  0  0  0  0  0  0  0  0  0  0
    0.7355   24.2622  -28.5455 H   0  0  0  0  0  0  0  0  0  0  0  0
    0.8430   21.7914  -28.2493 H   0  0  0  0  0  0  0  0  0  0  0  0
   -3.4461   21.5340  -28.6939 H   0  0  0  0  0  0  0  0  0  0  0  0
   -4.6807   23.4082  -29.3290 H   0  0  0  0  0  0  0  0  0  0  0  0
   -4.2448   24.7180  -28.1629 H   0  0  0  0  0  0  0  0  0  0  0  0
   -3.4900   26.0560  -29.8070 H   0  0  0  0  0  0  0  0  0  0  0  0
   -5.7921   25.9896  -30.1483 H   0  0  0  0  0  0  0  0  0  0  0  0
   -4.9774   25.9267  -31.7720 H   0  0  0  0  0  0  0  0  0  0  0  0
   -4.3792   23.4079  -32.5561 H   0  0  0  0  0  0  0  0  0  0  0  0
   -5.5992   21.2846  -33.0585 H   0  0  0  0  0  0  0  0  0  0  0  0
   -8.7323   22.3782  -30.3825 H   0  0  0  0  0  0  0  0  0  0  0  0
   -7.5677   24.5203  -29.8360 H   0  0  0  0  0  0  0  0  0  0  0  0
  1  2  1  0
  2  3  1  0
  3  4  1  0
  4  5  2  0
  5  6  1  0
  6  7  2  0
  7  8  1  0
  7  9  1  0
  9 10  2  0
 10 11  1  0
 11 12  1  0
 12 13  1  0
 13 14  1  0
 14 15  2  0
 15 16  1  0
 16 17  2  0
 17 18  1  0
 18 19  2  0
 10  4  1  0
 19 14  1  0
  1 20  1  0
  1 21  1  0
  1 22  1  0
  2 23  1  0
  2 24  1  0
  5 25  1  0
  6 26  1  0
  9 27  1  0
 11 28  1  0
 11 29  1  0
 12 30  1  0
 13 31  1  0
 13 32  1  0
 15 33  1  0
 16 34  1  0
 18 35  1  0
 19 36  1  0
M  END
>  <UniqueID>  (27) 
27

>  <SMILES>  (27) 
CCOc1ccc(Cl)cc1CNCc1ccncc1

>  <Energy>  (27) 
34.87805492110041

>  <Genealogy>  (27) 
CCOc1ccc(Cl)cc1CNCc1ccncc1 (3D coordinates assigned)
CCOc1ccc(Cl)cc1CNCc1ccncc1 (optimized conformer: 34.87805492110041 kcal/mol)

>  <smiles>  (27) 
CCOc1ccc(Cl)cc1CNCc1ccncc1

>  <score_type>  (27) 
oracle

>  <origin>  (27) 
adg

>  <m_score__min__energy>  (27) 
-7.3499999999999996

>  <m_primary>  (27) 
energy

$$$$
