0:0
     RDKit          3D

 35 38  0  0  0  0  0  0  0  0999 V2000
   -6.2540   17.1250  -32.8810 C   0  0  0  0  0  0  0  0  0  0  0  0
   -5.3580   18.0420  -32.3020 C   0  0  0  0  0  0  0  0  0  0  0  0
   -5.8120   19.2990  -31.8750 C   0  0  0  0  0  0  0  0  0  0  0  0
   -7.1610   19.6200  -32.0480 C   0  0  0  0  0  0  0  0  0  0  0  0
   -8.0400   18.7220  -32.6030 C   0  0  0  0  0  0  0  0  0  0  0  0
   -7.6090   17.4630  -33.0320 C   0  0  0  0  0  0  0  0  0  0  0  0
   -9.4210   19.2610  -32.6830 C   0  0  0  0  0  0  0  0  0  0  0  0
   -9.2840   20.7170  -32.1930 C   0  0  0  0  0  0  0  0  0  0  0  0
   -7.8480   20.8720  -31.6450 C   0  0  2  0  0  0  0  0  0  0  0  0
   -7.1740   22.0820  -32.1430 N   0  0  0  0  0  0  0  0  0  0  0  0
   -6.1590   22.8580  -31.4680 C   0  0  0  0  0  0  0  0  0  0  0  0
   -6.3010   24.2700  -31.4250 C   0  0  0  0  0  0  0  0  0  0  0  0
   -5.3490   25.0790  -30.7780 C   0  0  0  0  0  0  0  0  0  0  0  0
   -4.2600   24.4510  -30.1840 C   0  0  0  0  0  0  0  0  0  0  0  0
   -3.2450   25.0290  -29.5210 N   0  0  0  0  0  0  0  0  0  0  0  0
   -2.4340   24.0180  -29.1350 C   0  0  0  0  0  0  0  0  0  0  0  0
   -2.9390   22.7910  -29.5550 C   0  0  0  0  0  0  0  0  0  0  0  0
   -4.1060   23.0930  -30.2230 C   0  0  0  0  0  0  0  0  0  0  0  0
   -5.0270   22.2620  -30.8540 C   0  0  0  0  0  0  0  0  0  0  0  0
   -5.8929   16.1415  -33.2161 H   0  0  0  0  0  0  0  0  0  0  0  0
   -4.2981   17.7727  -32.1836 H   0  0  0  0  0  0  0  0  0  0  0  0
   -5.1194   20.0179  -31.4130 H   0  0  0  0  0  0  0  0  0  0  0  0
   -8.3177   16.7506  -33.4794 H   0  0  0  0  0  0  0  0  0  0  0  0
   -9.7931   19.2303  -33.7177 H   0  0  0  0  0  0  0  0  0  0  0  0
  -10.1372   18.6791  -32.0843 H   0  0  0  0  0  0  0  0  0  0  0  0
   -9.4477   21.4142  -33.0279 H   0  0  0  0  0  0  0  0  0  0  0  0
  -10.0289   20.9429  -31.4158 H   0  0  0  0  0  0  0  0  0  0  0  0
   -7.8382   21.0100  -30.5537 H   0  0  0  0  0  0  0  0  0  0  0  0
   -7.5320   22.4540  -33.0520 H   0  0  0  0  0  0  0  0  0  0  0  0
   -7.1713   24.7401  -31.9063 H   0  0  0  0  0  0  0  0  0  0  0  0
   -5.4625   26.1726  -30.7432 H   0  0  0  0  0  0  0  0  0  0  0  0
   -3.1060   26.0480  -29.3410 H   0  0  0  0  0  0  0  0  0  0  0  0
   -1.5015   24.1478  -28.5661 H   0  0  0  0  0  0  0  0  0  0  0  0
   -2.5013   21.7955  -29.3896 H   0  0  0  0  0  0  0  0  0  0  0  0
   -4.8813   21.1719  -30.8762 H   0  0  0  0  0  0  0  0  0  0  0  0
  1  2  2  0
  2  3  1  0
  3  4  2  0
  4  5  1  0
  5  6  2  0
  5  7  1  0
  7  8  1  0
  8  9  1  0
  9 10  1  0
 10 11  1  0
 11 12  2  0
 12 13  1  0
 13 14  2  0
 14 15  1  0
 15 16  1  0
 16 17  2  0
 17 18  1  0
 18 19  2  0
  6  1  1  0
 19 11  1  0
  9  4  1  0
 18 14  1  0
  1 20  1  0
  2 21  1  0
  3 22  1  0
  6 23  1  0
  7 24  1  0
  7 25  1  0
  8 26  1  0
  8 27  1  0
  9 28  1  1
 10 29  1  0
 12 30  1  0
 13 31  1  0
 15 32  1  0
 16 33  1  0
 17 34  1  0
 19 35  1  0
M  END
>  <UniqueID>  (1) 
1

>  <SMILES>  (1) 
c1ccc2c(c1)CC[C@@H]2Nc1ccc2[nH]ccc2c1

>  <Energy>  (1) 
81.21676797901394

>  <Genealogy>  (1) 
c1ccc2c(c1)CC[C@@H]2Nc1ccc2[nH]ccc2c1 (chirality)
c1ccc2c(c1)CC[C@@H]2Nc1ccc2[nH]ccc2c1 (3D coordinates assigned)
c1ccc2c(c1)CC[C@@H]2Nc1ccc2[nH]ccc2c1 (nonaromatic ring conformer: 81.21676797901394 kcal/mol)

>  <smiles>  (1) 
c1ccc2c(c1)CCC2Nc1ccc2[nH]ccc2c1

>  <score_type>  (1) 
oracle

>  <origin>  (1) 
adg

>  <m_score__min__energy>  (1) 
-8.2699999999999996

>  <m_primary>  (1) 
energy

$$$$
1:0
     RDKit          3D

 55 59  0  0  0  0  0  0  0  0999 V2000
   -0.4850   19.4770  -34.1030 C   0  0  0  0  0  0  0  0  0  0  0  0
   -1.6490   18.7190  -33.9410 C   0  0  0  0  0  0  0  0  0  0  0  0
   -2.8380   19.3380  -33.5450 C   0  0  0  0  0  0  0  0  0  0  0  0
   -2.8710   20.7200  -33.3000 C   0  0  0  0  0  0  0  0  0  0  0  0
   -4.1430   21.3610  -32.9160 C   0  0  0  0  0  0  0  0  0  0  0  0
   -4.2300   22.6690  -32.6050 N   0  0  0  0  0  0  0  0  0  0  0  0
   -5.5220   22.8240  -32.2500 C   0  0  0  0  0  0  0  0  0  0  0  0
   -6.1090   24.1400  -31.8450 C   0  0  0  0  0  0  0  0  0  0  0  0
   -6.1840   24.2930  -30.3170 C   0  0  0  0  0  0  0  0  0  0  0  0
   -4.9200   24.9180  -29.6750 C   0  0  0  0  0  0  0  0  0  0  0  0
   -3.7200   24.8430  -30.5290 N   0  0  0  0  0  0  0  0  0  0  0  0
   -2.9300   23.6160  -30.3520 C   0  0  0  0  0  0  0  0  0  0  0  0
   -2.2640   23.5570  -28.9990 C   0  0  0  0  0  0  0  0  0  0  0  0
   -2.2580   22.3690  -28.2340 C   0  0  0  0  0  0  0  0  0  0  0  0
   -1.6360   22.3350  -26.9670 C   0  0  0  0  0  0  0  0  0  0  0  0
   -1.0300   23.4890  -26.4410 C   0  0  0  0  0  0  0  0  0  0  0  0
   -1.0690   24.6480  -27.2090 C   0  0  0  0  0  0  0  0  0  0  0  0
   -1.6620   24.6860  -28.4300 C   0  0  0  0  0  0  0  0  0  0  0  0
   -1.5480   25.9600  -28.9540 O   0  0  0  0  0  0  0  0  0  0  0  0
   -0.8370   26.7690  -28.0070 C   0  0  0  0  0  0  0  0  0  0  0  0
   -0.5510   25.8940  -26.9090 O   0  0  0  0  0  0  0  0  0  0  0  0
   -6.2120   21.7090  -32.3300 O   0  0  0  0  0  0  0  0  0  0  0  0
   -5.3920   20.7770  -32.7500 C   0  0  0  0  0  0  0  0  0  0  0  0
   -5.8110   19.3860  -33.0150 C   0  0  0  0  0  0  0  0  0  0  0  0
   -5.7400   18.8790  -34.3240 C   0  0  0  0  0  0  0  0  0  0  0  0
   -6.1130   17.5590  -34.5900 C   0  0  0  0  0  0  0  0  0  0  0  0
   -6.5450   16.7280  -33.5520 C   0  0  0  0  0  0  0  0  0  0  0  0
   -6.5950   17.2170  -32.2440 C   0  0  0  0  0  0  0  0  0  0  0  0
   -6.2220   18.5360  -31.9730 C   0  0  0  0  0  0  0  0  0  0  0  0
   -1.7020   21.4780  -33.4830 C   0  0  0  0  0  0  0  0  0  0  0  0
   -0.5130   20.8560  -33.8760 C   0  0  0  0  0  0  0  0  0  0  0  0
    0.4519   18.9884  -34.4088 H   0  0  0  0  0  0  0  0  0  0  0  0
   -1.6288   17.6347  -34.1254 H   0  0  0  0  0  0  0  0  0  0  0  0
   -3.7528   18.7391  -33.4247 H   0  0  0  0  0  0  0  0  0  0  0  0
   -5.4835   24.9480  -32.2523 H   0  0  0  0  0  0  0  0  0  0  0  0
   -7.1337   24.1907  -32.2416 H   0  0  0  0  0  0  0  0  0  0  0  0
   -7.0450   24.9342  -30.0770 H   0  0  0  0  0  0  0  0  0  0  0  0
   -6.2777   23.2780  -29.9035 H   0  0  0  0  0  0  0  0  0  0  0  0
   -5.1274   25.9767  -29.4603 H   0  0  0  0  0  0  0  0  0  0  0  0
   -4.7028   24.3389  -28.7654 H   0  0  0  0  0  0  0  0  0  0  0  0
   -3.1060   25.6690  -30.3370 H   0  0  0  0  0  0  0  0  0  0  0  0
   -3.5966   22.7473  -30.4569 H   0  0  0  0  0  0  0  0  0  0  0  0
   -2.1403   23.6094  -31.1177 H   0  0  0  0  0  0  0  0  0  0  0  0
   -2.7418   21.4634  -28.6288 H   0  0  0  0  0  0  0  0  0  0  0  0
   -1.6256   21.3998  -26.3880 H   0  0  0  0  0  0  0  0  0  0  0  0
   -0.5415   23.4760  -25.4555 H   0  0  0  0  0  0  0  0  0  0  0  0
    0.0949   27.1517  -28.4487 H   0  0  0  0  0  0  0  0  0  0  0  0
   -1.4217   27.6464  -27.6934 H   0  0  0  0  0  0  0  0  0  0  0  0
   -5.3892   19.5244  -35.1428 H   0  0  0  0  0  0  0  0  0  0  0  0
   -6.0666   17.1726  -35.6189 H   0  0  0  0  0  0  0  0  0  0  0  0
   -6.8449   15.6913  -33.7646 H   0  0  0  0  0  0  0  0  0  0  0  0
   -6.9288   16.5620  -31.4257 H   0  0  0  0  0  0  0  0  0  0  0  0
   -6.2500   18.9113  -30.9394 H   0  0  0  0  0  0  0  0  0  0  0  0
   -1.7224   22.5651  -33.3164 H   0  0  0  0  0  0  0  0  0  0  0  0
    0.4018   21.4528  -34.0067 H   0  0  0  0  0  0  0  0  0  0  0  0
  1  2  2  0
  2  3  1  0
  3  4  2  0
  4  5  1  0
  5  6  1  0
  6  7  2  0
  7  8  1  0
  8  9  1  0
  9 10  1  0
 10 11  1  0
 11 12  1  0
 12 13  1  0
 13 14  2  0
 14 15  1  0
 15 16  2  0
 16 17  1  0
 17 18  2  0
 18 19  1  0
 19 20  1  0
 20 21  1  0
  7 22  1  0
 22 23  1  0
 23 24  1  0
 24 25  2  0
 25 26  1  0
 26 27  2  0
 27 28  1  0
 28 29  2  0
  4 30  1  0
 30 31  2  0
 31  1  1  0
 23  5  2  0
 29 24  1  0
 18 13  1  0
 21 17  1  0
  1 32  1  0
  2 33  1  0
  3 34  1  0
  8 35  1  0
  8 36  1  0
  9 37  1  0
  9 38  1  0
 10 39  1  0
 10 40  1  0
 11 41  1  0
 12 42  1  0
 12 43  1  0
 14 44  1  0
 15 45  1  0
 16 46  1  0
 20 47  1  0
 20 48  1  0
 25 49  1  0
 26 50  1  0
 27 51  1  0
 28 52  1  0
 29 53  1  0
 30 54  1  0
 31 55  1  0
M  END
>  <UniqueID>  (2) 
2

>  <SMILES>  (2) 
c1ccc(-c2nc(CCCNCc3cccc4c3OCO4)oc2-c2ccccc2)cc1

>  <Energy>  (2) 
122.06969174890467

>  <Genealogy>  (2) 
c1ccc(-c2nc(CCCNCc3cccc4c3OCO4)oc2-c2ccccc2)cc1 (3D coordinates assigned)
c1ccc(-c2nc(CCCNCc3cccc4c3OCO4)oc2-c2ccccc2)cc1 (nonaromatic ring conformer: 122.06969174890467 kcal/mol)

>  <smiles>  (2) 
c1ccc(-c2nc(CCCNCc3cccc4c3OCO4)oc2-c2ccccc2)cc1

>  <score_type>  (2) 
oracle

>  <origin>  (2) 
adg

>  <m_score__min__energy>  (2) 
-9.9700000000000006

>  <m_primary>  (2) 
energy

$$$$
2:0
     RDKit          3D

 47 49  0  0  0  0  0  0  0  0999 V2000
   -5.4093   16.6279  -34.1903 H   0  0  0  0  0  0  0  0  0  0  0  0
   -5.9810   17.4560  -33.7460 C   0  0  0  0  0  0  0  0  0  0  0  0
   -6.8990   17.2020  -32.7220 C   0  0  0  0  0  0  0  0  0  0  0  0
   -7.0468   16.1741  -32.3592 H   0  0  0  0  0  0  0  0  0  0  0  0
   -7.6290   18.2530  -32.1590 C   0  0  0  0  0  0  0  0  0  0  0  0
   -8.3461   18.0503  -31.3499 H   0  0  0  0  0  0  0  0  0  0  0  0
   -7.4500   19.5680  -32.6230 C   0  0  0  0  0  0  0  0  0  0  0  0
   -8.2370   20.7050  -32.0240 C   0  0  0  0  0  0  0  0  0  0  0  0
   -8.9173   20.3054  -31.2575 H   0  0  0  0  0  0  0  0  0  0  0  0
   -8.8036   21.1971  -32.8282 H   0  0  0  0  0  0  0  0  0  0  0  0
   -7.3450   21.7050  -31.4020 N   0  0  0  0  0  0  0  0  0  0  0  0
   -7.9440   22.3020  -30.1990 C   0  0  0  0  0  0  0  0  0  0  0  0
   -7.4924   21.8519  -29.3026 H   0  0  0  0  0  0  0  0  0  0  0  0
   -7.7598   23.3865  -30.1973 H   0  0  0  0  0  0  0  0  0  0  0  0
   -9.0278   22.1142  -30.1973 H   0  0  0  0  0  0  0  0  0  0  0  0
   -6.7700   22.7010  -32.3430 C   0  0  0  0  0  0  0  0  0  0  0  0
   -6.1678   22.1542  -33.0835 H   0  0  0  0  0  0  0  0  0  0  0  0
   -7.6320   23.2371  -32.7667 H   0  0  0  0  0  0  0  0  0  0  0  0
   -5.8690   23.7950  -31.7160 C   0  0  0  0  0  0  0  0  0  0  0  0
   -5.5191   24.4622  -32.5175 H   0  0  0  0  0  0  0  0  0  0  0  0
   -6.4741   24.3304  -30.9695 H   0  0  0  0  0  0  0  0  0  0  0  0
   -4.6940   23.2450  -31.0170 N   0  0  0  0  0  0  0  0  0  0  0  0
   -4.4990   21.8940  -30.9790 C   0  0  0  0  0  0  0  0  0  0  0  0
   -5.2193   21.2236  -31.4706 H   0  0  0  0  0  0  0  0  0  0  0  0
   -3.4230   21.3740  -30.3390 N   0  0  0  0  0  0  0  0  0  0  0  0
   -2.5090   22.1890  -29.7520 C   0  0  0  0  0  0  0  0  0  0  0  0
   -1.4870   21.7080  -29.1070 N   0  0  0  0  0  0  0  0  0  0  0  0
   -1.4670   20.5420  -28.2660 C   0  0  0  0  0  0  0  0  0  0  0  0
   -0.4440   19.6030  -28.4450 C   0  0  0  0  0  0  0  0  0  0  0  0
    0.3337   19.7803  -29.2025 H   0  0  0  0  0  0  0  0  0  0  0  0
   -0.4040   18.4420  -27.6680 C   0  0  0  0  0  0  0  0  0  0  0  0
    0.4128   17.7179  -27.8039 H   0  0  0  0  0  0  0  0  0  0  0  0
   -1.4000   18.2000  -26.7190 C   0  0  0  0  0  0  0  0  0  0  0  0
   -1.3606   17.2895  -26.1030 H   0  0  0  0  0  0  0  0  0  0  0  0
   -2.4490   19.1130  -26.5490 C   0  0  0  0  0  0  0  0  0  0  0  0
   -3.4810   18.8530  -25.5940 N   0  0  0  0  0  0  0  0  0  0  0  0
   -4.4220   19.2970  -25.6900 H   0  0  0  0  0  0  0  0  0  0  0  0
   -3.3140   18.2130  -24.7860 H   0  0  0  0  0  0  0  0  0  0  0  0
   -2.4860   20.2790  -27.3300 C   0  0  0  0  0  0  0  0  0  0  0  0
   -3.3156   20.9913  -27.2102 H   0  0  0  0  0  0  0  0  0  0  0  0
   -2.6850   23.5310  -29.8080 N   0  0  0  0  0  0  0  0  0  0  0  0
   -3.7580   24.0640  -30.4410 C   0  0  0  0  0  0  0  0  0  0  0  0
   -3.8770   25.3180  -30.4950 O   0  0  0  0  0  0  0  0  0  0  0  0
   -6.5190   19.8160  -33.6450 C   0  0  0  0  0  0  0  0  0  0  0  0
   -6.3629   20.8432  -34.0062 H   0  0  0  0  0  0  0  0  0  0  0  0
   -5.7900   18.7630  -34.2050 C   0  0  0  0  0  0  0  0  0  0  0  0
   -5.0651   18.9627  -35.0079 H   0  0  0  0  0  0  0  0  0  0  0  0
  1  2  1  0
  2  3  2  0
  3  4  1  0
  3  5  1  0
  5  6  1  0
  5  7  2  0
  7  8  1  0
  8  9  1  0
  8 10  1  0
  8 11  1  0
 11 12  1  0
 12 13  1  0
 12 14  1  0
 12 15  1  0
 11 16  1  0
 16 17  1  0
 16 18  1  0
 16 19  1  0
 19 20  1  0
 19 21  1  0
 19 22  1  0
 22 23  1  0
 23 24  1  0
 23 25  2  0
 25 26  1  0
 26 27  2  0
 27 28  1  0
 28 29  2  0
 29 30  1  0
 29 31  1  0
 31 32  1  0
 31 33  2  0
 33 34  1  0
 33 35  1  0
 35 36  1  0
 36 37  1  0
 36 38  1  0
 35 39  2  0
 39 40  1  0
 26 41  1  0
 41 42  1  0
 42 43  2  0
  7 44  1  0
 44 45  1  0
 44 46  2  0
 46 47  1  0
 46  2  1  0
 42 22  1  0
 39 28  1  0
M  CHG  1  41  -1
M  END
>  <UniqueID>  (3) 
3

>  <SMILES>  (3) 
CN(CCn1cn/c(=N\c2cccc(N)c2)[n-]c1=O)Cc1ccccc1

>  <Energy>  (3) 
60.95773267041979

>  <Genealogy>  (3) 
CN(CCn1cnc(=Nc2cccc(N)c2)[n-]c1=O)Cc1ccccc1 (protonated)
CN(CCn1cn/c(=N\c2cccc(N)c2)[n-]c1=O)Cc1ccccc1 (cis-trans isomerization)
CN(CCn1cn/c(=N\c2cccc(N)c2)[n-]c1=O)Cc1ccccc1 (3D coordinates assigned)
CN(CCn1cn/c(=N\c2cccc(N)c2)[n-]c1=O)Cc1ccccc1 (optimized conformer: 60.95773267041979 kcal/mol)

>  <smiles>  (3) 
CN(CCn1cnc(=Nc2cccc(N)c2)[nH]c1=O)Cc1ccccc1

>  <score_type>  (3) 
oracle

>  <origin>  (3) 
adg

>  <m_score__min__energy>  (3) 
-9.5299999999999994

>  <m_primary>  (3) 
energy

$$$$
3:0
     RDKit          3D

 32 34  0  0  0  0  0  0  0  0999 V2000
   -5.7730   16.4110  -34.1850 C   0  0  0  0  0  0  0  0  0  0  0  0
   -5.2820   17.4600  -34.9650 C   0  0  0  0  0  0  0  0  0  0  0  0
   -5.5100   18.7490  -34.5940 N   0  0  0  0  0  0  0  0  0  0  0  0
   -6.2170   19.0560  -33.4740 C   0  0  0  0  0  0  0  0  0  0  0  0
   -6.7370   18.0340  -32.6620 C   0  0  0  0  0  0  0  0  0  0  0  0
   -7.4600   18.3470  -31.4520 N   0  0  0  0  0  0  0  0  0  0  0  0
   -8.7170   19.0540  -31.7450 C   0  0  0  0  0  0  0  0  0  0  0  0
   -8.5180   20.5440  -31.7840 C   0  0  0  0  0  0  0  0  0  0  0  0
   -9.5310   21.4360  -32.1230 C   0  0  0  0  0  0  0  0  0  0  0  0
   -8.9120   22.9900  -31.9660 S   0  0  0  0  0  0  0  0  0  0  0  0
   -7.3870   22.4680  -31.4720 C   0  0  0  0  0  0  0  0  0  0  0  0
   -6.2430   23.3400  -31.1230 C   0  0  0  0  0  0  0  0  0  0  0  0
   -6.4370   24.6910  -30.7850 C   0  0  0  0  0  0  0  0  0  0  0  0
   -5.3350   25.4870  -30.4600 C   0  0  0  0  0  0  0  0  0  0  0  0
   -4.0830   24.9590  -30.4720 N   0  0  0  0  0  0  0  0  0  0  0  0
   -3.8630   23.6580  -30.7950 C   0  0  0  0  0  0  0  0  0  0  0  0
   -4.9350   22.8250  -31.1260 C   0  0  0  0  0  0  0  0  0  0  0  0
   -7.3390   21.1170  -31.4180 N   0  0  0  0  0  0  0  0  0  0  0  0
   -6.5010   16.6990  -33.0300 C   0  0  0  0  0  0  0  0  0  0  0  0
   -5.5876   15.3672  -34.4784 H   0  0  0  0  0  0  0  0  0  0  0  0
   -4.7106   17.2441  -35.8798 H   0  0  0  0  0  0  0  0  0  0  0  0
   -6.3826   20.1090  -33.2024 H   0  0  0  0  0  0  0  0  0  0  0  0
   -6.8640   18.9590  -30.8470 H   0  0  0  0  0  0  0  0  0  0  0  0
   -7.6600   17.4750  -30.9070 H   0  0  0  0  0  0  0  0  0  0  0  0
   -9.0958   18.7188  -32.7218 H   0  0  0  0  0  0  0  0  0  0  0  0
   -9.4358   18.8237  -30.9448 H   0  0  0  0  0  0  0  0  0  0  0  0
  -10.5516   21.1716  -32.4368 H   0  0  0  0  0  0  0  0  0  0  0  0
   -7.4503   25.1190  -30.7764 H   0  0  0  0  0  0  0  0  0  0  0  0
   -5.4817   26.5441  -30.1937 H   0  0  0  0  0  0  0  0  0  0  0  0
   -2.8379   23.2590  -30.7960 H   0  0  0  0  0  0  0  0  0  0  0  0
   -4.7563   21.7716  -31.3876 H   0  0  0  0  0  0  0  0  0  0  0  0
   -6.8904   15.8801  -32.4072 H   0  0  0  0  0  0  0  0  0  0  0  0
  1  2  2  0
  2  3  1  0
  3  4  2  0
  4  5  1  0
  5  6  1  0
  6  7  1  0
  7  8  1  0
  8  9  2  0
  9 10  1  0
 10 11  1  0
 11 12  1  0
 12 13  2  0
 13 14  1  0
 14 15  2  0
 15 16  1  0
 16 17  2  0
 11 18  2  0
  5 19  2  0
 19  1  1  0
 18  8  1  0
 17 12  1  0
  1 20  1  0
  2 21  1  0
  4 22  1  0
  6 23  1  0
  6 24  1  0
  7 25  1  0
  7 26  1  0
  9 27  1  0
 13 28  1  0
 14 29  1  0
 16 30  1  0
 17 31  1  0
 19 32  1  0
M  CHG  1   6   1
M  END
>  <UniqueID>  (4) 
4

>  <SMILES>  (4) 
c1cncc([NH2+]Cc2csc(-c3ccncc3)n2)c1

>  <Energy>  (4) 
66.27568830472111

>  <Genealogy>  (4) 
c1cncc([NH2+]Cc2csc(-c3ccncc3)n2)c1 (protonated)
c1cncc([NH2+]Cc2csc(-c3ccncc3)n2)c1 (3D coordinates assigned)
c1cncc([NH2+]Cc2csc(-c3ccncc3)n2)c1 (optimized conformer: 66.27568830472111 kcal/mol)

>  <smiles>  (4) 
c1cncc(NCc2csc(-c3ccncc3)n2)c1

>  <score_type>  (4) 
oracle

>  <origin>  (4) 
adg

>  <m_score__min__energy>  (4) 
-6.96

>  <m_primary>  (4) 
energy

$$$$
4:0
     RDKit          3D

 27 29  0  0  0  0  0  0  0  0999 V2000
   -3.9260   25.3830  -30.7670 O   0  0  0  0  0  0  0  0  0  0  0  0
   -3.8100   24.1290  -30.7020 C   0  0  0  0  0  0  0  0  0  0  0  0
   -4.7590   23.3200  -31.3340 C   0  0  0  0  0  0  0  0  0  0  0  0
   -5.7930   23.9080  -32.0580 O   0  0  0  0  0  0  0  0  0  0  0  0
   -4.6320   21.9210  -31.2550 C   0  0  0  0  0  0  0  0  0  0  0  0
   -5.6080   21.0040  -31.8860 C   0  0  0  0  0  0  0  0  0  0  0  0
   -6.9760   21.1400  -31.5870 C   0  0  0  0  0  0  0  0  0  0  0  0
   -7.9180   20.2980  -32.1860 C   0  0  0  0  0  0  0  0  0  0  0  0
   -9.2650   20.4320  -31.8750 O   0  0  0  0  0  0  0  0  0  0  0  0
   -7.5060   19.3240  -33.0990 C   0  0  0  0  0  0  0  0  0  0  0  0
   -6.1520   19.1960  -33.4220 C   0  0  0  0  0  0  0  0  0  0  0  0
   -5.7460   18.2380  -34.3440 O   0  0  0  0  0  0  0  0  0  0  0  0
   -5.2060   20.0340  -32.8220 C   0  0  0  0  0  0  0  0  0  0  0  0
   -3.5970   21.3900  -30.6070 O   0  0  0  0  0  0  0  0  0  0  0  0
   -2.6680   22.1180  -29.9970 C   0  0  0  0  0  0  0  0  0  0  0  0
   -1.6190   21.4710  -29.3370 C   0  0  0  0  0  0  0  0  0  0  0  0
   -0.6330   22.2140  -28.6850 C   0  0  0  0  0  0  0  0  0  0  0  0
    0.4060   21.5670  -28.0300 O   0  0  0  0  0  0  0  0  0  0  0  0
   -0.6900   23.6100  -28.6910 C   0  0  0  0  0  0  0  0  0  0  0  0
   -1.7320   24.2750  -29.3480 C   0  0  0  0  0  0  0  0  0  0  0  0
   -1.7510   25.6660  -29.3310 O   0  0  0  0  0  0  0  0  0  0  0  0
   -2.7350   23.5320  -30.0120 C   0  0  0  0  0  0  0  0  0  0  0  0
   -7.3065   21.9132  -30.8779 H   0  0  0  0  0  0  0  0  0  0  0  0
   -8.2475   18.6576  -33.5639 H   0  0  0  0  0  0  0  0  0  0  0  0
   -4.1423   19.9338  -33.0836 H   0  0  0  0  0  0  0  0  0  0  0  0
   -1.5703   20.3721  -29.3314 H   0  0  0  0  0  0  0  0  0  0  0  0
    0.0894   24.1906  -28.1758 H   0  0  0  0  0  0  0  0  0  0  0  0
  1  2  2  0
  2  3  1  0
  3  4  1  0
  3  5  2  0
  5  6  1  0
  6  7  2  0
  7  8  1  0
  8  9  1  0
  8 10  2  0
 10 11  1  0
 11 12  1  0
 11 13  2  0
  5 14  1  0
 14 15  1  0
 15 16  2  0
 16 17  1  0
 17 18  1  0
 17 19  2  0
 19 20  1  0
 20 21  1  0
 20 22  2  0
 22  2  1  0
 13  6  1  0
 22 15  1  0
  7 23  1  0
 10 24  1  0
 13 25  1  0
 16 26  1  0
 19 27  1  0
M  CHG  5   4  -1   9  -1  12  -1  18  -1  21  -1
M  END
>  <UniqueID>  (5) 
5

>  <SMILES>  (5) 
O=c1c([O-])c(-c2cc([O-])cc([O-])c2)oc2cc([O-])cc([O-])c12

>  <Energy>  (5) 
43.29644188193481

>  <Genealogy>  (5) 
O=c1c([O-])c(-c2cc([O-])cc([O-])c2)oc2cc([O-])cc([O-])c12 (protonated)
O=c1c([O-])c(-c2cc([O-])cc([O-])c2)oc2cc([O-])cc([O-])c12 (3D coordinates assigned)
O=c1c([O-])c(-c2cc([O-])cc([O-])c2)oc2cc([O-])cc([O-])c12 (optimized conformer: 43.29644188193481 kcal/mol)

>  <smiles>  (5) 
O=c1c(O)c(-c2cc(O)cc(O)c2)oc2cc(O)cc(O)c12

>  <score_type>  (5) 
oracle

>  <origin>  (5) 
adg

>  <m_score__min__energy>  (5) 
-10.300000000000001

>  <m_primary>  (5) 
energy

$$$$
5:0
     RDKit          3D

 38 40  0  0  0  0  0  0  0  0999 V2000
   -1.9050   24.1370  -27.1590 C   0  0  0  0  0  0  0  0  0  0  0  0
   -2.6450   24.3200  -28.4460 C   0  0  0  0  0  0  0  0  0  0  0  0
   -2.3640   25.2960  -29.3290 N   0  0  0  0  0  0  0  0  0  0  0  0
   -3.1710   25.1430  -30.3360 O   0  0  0  0  0  0  0  0  0  0  0  0
   -3.9680   24.1150  -30.1610 C   0  0  0  0  0  0  0  0  0  0  0  0
   -4.8340   23.7700  -31.0720 N   0  0  0  0  0  0  0  0  0  0  0  0
   -5.1560   22.2180  -31.7820 S   0  0  0  0  0  0  0  0  0  0  0  0
   -4.5440   21.1660  -30.9020 O   0  0  0  0  0  0  0  0  0  0  0  0
   -4.4840   22.1460  -33.1240 O   0  0  0  0  0  0  0  0  0  0  0  0
   -6.8880   21.8660  -31.9150 C   0  0  0  0  0  0  0  0  0  0  0  0
   -7.7980   22.8910  -31.6060 C   0  0  0  0  0  0  0  0  0  0  0  0
   -9.1740   22.6590  -31.6440 C   0  0  0  0  0  0  0  0  0  0  0  0
   -9.6600   21.4010  -31.9930 C   0  0  0  0  0  0  0  0  0  0  0  0
   -8.7730   20.3730  -32.3190 C   0  0  0  0  0  0  0  0  0  0  0  0
   -7.3860   20.5930  -32.2980 C   0  0  0  0  0  0  0  0  0  0  0  0
   -6.4950   19.4730  -32.6650 C   0  0  0  0  0  0  0  0  0  0  0  0
   -6.3790   18.3510  -31.8300 C   0  0  0  0  0  0  0  0  0  0  0  0
   -5.5400   17.2920  -32.1890 C   0  0  0  0  0  0  0  0  0  0  0  0
   -4.8050   17.3520  -33.3770 C   0  0  0  0  0  0  0  0  0  0  0  0
   -4.9010   18.4750  -34.2030 C   0  0  0  0  0  0  0  0  0  0  0  0
   -5.7380   19.5380  -33.8460 C   0  0  0  0  0  0  0  0  0  0  0  0
   -3.6850   23.5360  -28.9220 C   0  0  0  0  0  0  0  0  0  0  0  0
   -4.2170   22.3030  -28.2550 C   0  0  0  0  0  0  0  0  0  0  0  0
   -2.5898   24.3064  -26.3150 H   0  0  0  0  0  0  0  0  0  0  0  0
   -1.5061   23.1132  -27.1078 H   0  0  0  0  0  0  0  0  0  0  0  0
   -1.0749   24.8569  -27.1078 H   0  0  0  0  0  0  0  0  0  0  0  0
   -7.4219   23.8875  -31.3311 H   0  0  0  0  0  0  0  0  0  0  0  0
   -9.8751   23.4702  -31.3982 H   0  0  0  0  0  0  0  0  0  0  0  0
  -10.7444   21.2171  -32.0118 H   0  0  0  0  0  0  0  0  0  0  0  0
   -9.1639   19.3824  -32.5946 H   0  0  0  0  0  0  0  0  0  0  0  0
   -6.9497   18.3047  -30.8907 H   0  0  0  0  0  0  0  0  0  0  0  0
   -5.4579   16.4105  -31.5361 H   0  0  0  0  0  0  0  0  0  0  0  0
   -4.1508   16.5147  -33.6615 H   0  0  0  0  0  0  0  0  0  0  0  0
   -4.3181   18.5234  -35.1346 H   0  0  0  0  0  0  0  0  0  0  0  0
   -5.8031   20.4262  -34.4916 H   0  0  0  0  0  0  0  0  0  0  0  0
   -4.1643   22.4251  -27.1631 H   0  0  0  0  0  0  0  0  0  0  0  0
   -5.2631   22.1455  -28.5563 H   0  0  0  0  0  0  0  0  0  0  0  0
   -3.6138   21.4339  -28.5563 H   0  0  0  0  0  0  0  0  0  0  0  0
  1  2  1  0
  2  3  1  0
  3  4  1  0
  4  5  1  0
  5  6  2  3
  6  7  1  0
  7  8  2  0
  7  9  2  0
  7 10  1  0
 10 11  2  0
 11 12  1  0
 12 13  2  0
 13 14  1  0
 14 15  2  0
 15 16  1  0
 16 17  2  0
 17 18  1  0
 18 19  2  0
 19 20  1  0
 20 21  2  0
  5 22  1  0
 22 23  1  0
 22  2  2  0
 15 10  1  0
 21 16  1  0
  1 24  1  0
  1 25  1  0
  1 26  1  0
 11 27  1  0
 12 28  1  0
 13 29  1  0
 14 30  1  0
 17 31  1  0
 18 32  1  0
 19 33  1  0
 20 34  1  0
 21 35  1  0
 23 36  1  0
 23 37  1  0
 23 38  1  0
M  CHG  1   3  -1
M  END
>  <UniqueID>  (6) 
6

>  <SMILES>  (6) 
Cc1[n-]oc(=NS(=O)(=O)c2ccccc2-c2ccccc2)c1C

>  <Energy>  (6) 
86.15093375737452

>  <Genealogy>  (6) 
Cc1[n-]oc(=NS(=O)(=O)c2ccccc2-c2ccccc2)c1C (protonated)
Cc1[n-]oc(=NS(=O)(=O)c2ccccc2-c2ccccc2)c1C (3D coordinates assigned)
Cc1[n-]oc(=NS(=O)(=O)c2ccccc2-c2ccccc2)c1C (optimized conformer: 86.15093375737452 kcal/mol)

>  <smiles>  (6) 
Cc1[nH]oc(=NS(=O)(=O)c2ccccc2-c2ccccc2)c1C

>  <score_type>  (6) 
oracle

>  <origin>  (6) 
adg

>  <m_score__min__energy>  (6) 
-11.77

>  <m_primary>  (6) 
energy

$$$$
6:0
     RDKit          3D

 44 46  0  0  0  0  0  0  0  0999 V2000
   -3.0670   24.4230  -27.2870 C   0  0  0  0  0  0  0  0  0  0  0  0
   -1.9550   24.5940  -28.3190 C   0  0  0  0  0  0  0  0  0  0  0  0
   -1.9520   23.4730  -29.3620 C   0  0  0  0  0  0  0  0  0  0  0  0
   -3.3190   23.0630  -29.6910 N   0  0  0  0  0  0  0  0  0  0  0  0
   -4.2110   23.8820  -30.4670 C   0  0  0  0  0  0  0  0  0  0  0  0
   -3.8550   25.0430  -30.8080 O   0  0  0  0  0  0  0  0  0  0  0  0
   -5.5570   23.3930  -30.8530 C   0  0  0  0  0  0  0  0  0  0  0  0
   -6.6650   24.2550  -30.8660 C   0  0  0  0  0  0  0  0  0  0  0  0
   -7.9270   23.7820  -31.2320 C   0  0  0  0  0  0  0  0  0  0  0  0
   -8.1100   22.4400  -31.5950 C   0  0  0  0  0  0  0  0  0  0  0  0
   -9.4800   21.9630  -31.9960 C   0  0  0  0  0  0  0  0  0  0  0  0
   -7.0100   21.5570  -31.5420 C   0  0  0  0  0  0  0  0  0  0  0  0
   -7.1630   20.1670  -31.8600 N   0  0  0  0  0  0  0  0  0  0  0  0
   -8.2690   19.3260  -31.4080 C   0  0  0  0  0  0  0  0  0  0  0  0
   -8.0090   17.9240  -32.0140 C   0  0  0  0  0  0  0  0  0  0  0  0
   -6.7760   18.1230  -32.8280 C   0  0  0  0  0  0  0  0  0  0  0  0
   -6.1180   17.1940  -33.6360 C   0  0  0  0  0  0  0  0  0  0  0  0
   -4.9780   17.6130  -34.3450 C   0  0  0  0  0  0  0  0  0  0  0  0
   -4.3170   16.7340  -35.1390 F   0  0  0  0  0  0  0  0  0  0  0  0
   -4.5270   18.9430  -34.2400 C   0  0  0  0  0  0  0  0  0  0  0  0
   -5.2080   19.8590  -33.4220 C   0  0  0  0  0  0  0  0  0  0  0  0
   -6.3280   19.4100  -32.7170 C   0  0  0  0  0  0  0  0  0  0  0  0
   -5.7440   22.0400  -31.1860 C   0  0  0  0  0  0  0  0  0  0  0  0
   -2.6412   24.4885  -26.2749 H   0  0  0  0  0  0  0  0  0  0  0  0
   -3.8170   25.2164  -27.4213 H   0  0  0  0  0  0  0  0  0  0  0  0
   -3.5440   23.4409  -27.4213 H   0  0  0  0  0  0  0  0  0  0  0  0
   -2.0953   25.5558  -28.8340 H   0  0  0  0  0  0  0  0  0  0  0  0
   -0.9934   24.5599  -27.7860 H   0  0  0  0  0  0  0  0  0  0  0  0
   -1.4537   23.8315  -30.2748 H   0  0  0  0  0  0  0  0  0  0  0  0
   -1.4153   22.6073  -28.9466 H   0  0  0  0  0  0  0  0  0  0  0  0
   -3.6830   22.1990  -29.2300 H   0  0  0  0  0  0  0  0  0  0  0  0
   -6.5382   25.3111  -30.5857 H   0  0  0  0  0  0  0  0  0  0  0  0
   -8.7860   24.4691  -31.2356 H   0  0  0  0  0  0  0  0  0  0  0  0
  -10.0747   21.7559  -31.0941 H   0  0  0  0  0  0  0  0  0  0  0  0
   -9.9786   22.7404  -32.5935 H   0  0  0  0  0  0  0  0  0  0  0  0
   -9.3880   21.0440  -32.5935 H   0  0  0  0  0  0  0  0  0  0  0  0
   -8.2845   19.2715  -30.3095 H   0  0  0  0  0  0  0  0  0  0  0  0
   -9.2412   19.7304  -31.7263 H   0  0  0  0  0  0  0  0  0  0  0  0
   -7.8424   17.1780  -31.2230 H   0  0  0  0  0  0  0  0  0  0  0  0
   -8.8572   17.5472  -32.6043 H   0  0  0  0  0  0  0  0  0  0  0  0
   -6.4824   16.1592  -33.7162 H   0  0  0  0  0  0  0  0  0  0  0  0
   -3.6376   19.2657  -34.8011 H   0  0  0  0  0  0  0  0  0  0  0  0
   -4.8689   20.9021  -33.3384 H   0  0  0  0  0  0  0  0  0  0  0  0
   -4.8858   21.3522  -31.1668 H   0  0  0  0  0  0  0  0  0  0  0  0
  1  2  1  0
  2  3  1  0
  3  4  1  0
  4  5  1  0
  5  6  2  0
  5  7  1  0
  7  8  2  0
  8  9  1  0
  9 10  2  0
 10 11  1  0
 10 12  1  0
 12 13  1  0
 13 14  1  0
 14 15  1  0
 15 16  1  0
 16 17  2  0
 17 18  1  0
 18 19  1  0
 18 20  2  0
 20 21  1  0
 21 22  2  0
 12 23  2  0
 23  7  1  0
 22 13  1  0
 22 16  1  0
  1 24  1  0
  1 25  1  0
  1 26  1  0
  2 27  1  0
  2 28  1  0
  3 29  1  0
  3 30  1  0
  4 31  1  0
  8 32  1  0
  9 33  1  0
 11 34  1  0
 11 35  1  0
 11 36  1  0
 14 37  1  0
 14 38  1  0
 15 39  1  0
 15 40  1  0
 17 41  1  0
 20 42  1  0
 21 43  1  0
 23 44  1  0
M  END
>  <UniqueID>  (7) 
7

>  <SMILES>  (7) 
CCCNC(=O)c1ccc(C)c(N2CCc3cc(F)ccc32)c1

>  <Energy>  (7) 
62.227219923951715

>  <Genealogy>  (7) 
CCCNC(=O)c1ccc(C)c(N2CCc3cc(F)ccc32)c1 (3D coordinates assigned)
CCCNC(=O)c1ccc(C)c(N2CCc3cc(F)ccc32)c1 (nonaromatic ring conformer: 62.227219923951715 kcal/mol)

>  <smiles>  (7) 
CCCNC(=O)c1ccc(C)c(N2CCc3cc(F)ccc32)c1

>  <score_type>  (7) 
oracle

>  <origin>  (7) 
adg

>  <m_score__min__energy>  (7) 
-8.6500000000000004

>  <m_primary>  (7) 
energy

$$$$
7:0
     RDKit          3D

 44 46  0  0  0  0  0  0  0  0999 V2000
   -1.0790   22.5120  -29.6920 C   0  0  0  0  0  0  0  0  0  0  0  0
   -0.7330   23.7660  -28.9320 C   0  0  0  0  0  0  0  0  0  0  0  0
    0.4740   23.8180  -28.2120 C   0  0  0  0  0  0  0  0  0  0  0  0
    0.8050   24.9520  -27.4640 C   0  0  0  0  0  0  0  0  0  0  0  0
   -0.0680   26.0410  -27.4200 C   0  0  0  0  0  0  0  0  0  0  0  0
   -1.2630   26.0100  -28.1400 C   0  0  0  0  0  0  0  0  0  0  0  0
   -1.5920   24.8940  -28.9230 C   0  0  0  0  0  0  0  0  0  0  0  0
   -2.8280   24.9100  -29.6460 N   0  0  0  0  0  0  0  0  0  0  0  0
   -4.0610   24.3800  -29.1460 C   0  0  0  0  0  0  0  0  0  0  0  0
   -4.3510   24.4910  -27.9230 O   0  0  0  0  0  0  0  0  0  0  0  0
   -4.9460   23.5870  -30.0700 C   0  0  1  0  0  0  0  0  0  0  0  0
   -6.1350   24.4460  -30.5560 C   0  0  0  0  0  0  0  0  0  0  0  0
   -6.4860   24.2040  -32.0370 C   0  0  0  0  0  0  0  0  0  0  0  0
   -6.4040   22.7780  -32.4220 N   0  0  2  0  0  0  0  0  0  0  0  0
   -7.7060   21.8360  -31.7200 S   0  0  0  0  0  0  0  0  0  0  0  0
   -9.0410   22.3620  -32.1670 O   0  0  0  0  0  0  0  0  0  0  0  0
   -7.6380   21.9330  -30.2210 O   0  0  0  0  0  0  0  0  0  0  0  0
   -7.5860   20.1440  -32.1760 C   0  0  0  0  0  0  0  0  0  0  0  0
   -8.2910   19.0960  -31.6050 C   0  0  0  0  0  0  0  0  0  0  0  0
   -7.9470   17.8510  -32.1430 C   0  0  0  0  0  0  0  0  0  0  0  0
   -6.9730   17.9200  -33.1320 C   0  0  0  0  0  0  0  0  0  0  0  0
   -6.5370   19.5320  -33.3360 S   0  0  0  0  0  0  0  0  0  0  0  0
   -5.0730   22.1590  -32.1590 C   0  0  0  0  0  0  0  0  0  0  0  0
   -4.1550   22.9960  -31.2450 C   0  0  0  0  0  0  0  0  0  0  0  0
   -1.3024   21.7025  -28.9815 H   0  0  0  0  0  0  0  0  0  0  0  0
   -1.9594   22.6978  -30.3247 H   0  0  0  0  0  0  0  0  0  0  0  0
   -0.2278   22.2201  -30.3247 H   0  0  0  0  0  0  0  0  0  0  0  0
    1.1625   22.9605  -28.2375 H   0  0  0  0  0  0  0  0  0  0  0  0
    1.7544   24.9863  -26.9095 H   0  0  0  0  0  0  0  0  0  0  0  0
    0.1867   26.9248  -26.8167 H   0  0  0  0  0  0  0  0  0  0  0  0
   -1.9515   26.8666  -28.0931 H   0  0  0  0  0  0  0  0  0  0  0  0
   -5.3527   22.7372  -29.5021 H   0  0  0  0  0  0  0  0  0  0  0  0
   -5.8772   25.5074  -30.4256 H   0  0  0  0  0  0  0  0  0  0  0  0
   -7.0134   24.1608  -29.9584 H   0  0  0  0  0  0  0  0  0  0  0  0
   -5.7855   24.7772  -32.6620 H   0  0  0  0  0  0  0  0  0  0  0  0
   -7.5267   24.5273  -32.1869 H   0  0  0  0  0  0  0  0  0  0  0  0
   -6.5680   22.7430  -33.4560 H   0  0  0  0  0  0  0  0  0  0  0  0
   -9.0419   19.2291  -30.8123 H   0  0  0  0  0  0  0  0  0  0  0  0
   -8.4045   16.9063  -31.8141 H   0  0  0  0  0  0  0  0  0  0  0  0
   -6.5578   17.0659  -33.6870 H   0  0  0  0  0  0  0  0  0  0  0  0
   -4.5625   22.0164  -33.1229 H   0  0  0  0  0  0  0  0  0  0  0  0
   -5.2637   21.2120  -31.6329 H   0  0  0  0  0  0  0  0  0  0  0  0
   -3.7135   23.8157  -31.8309 H   0  0  0  0  0  0  0  0  0  0  0  0
   -3.3659   22.3423  -30.8449 H   0  0  0  0  0  0  0  0  0  0  0  0
  1  2  1  0
  2  3  2  0
  3  4  1  0
  4  5  2  0
  5  6  1  0
  6  7  2  0
  7  8  1  0
  8  9  1  0
  9 10  2  0
  9 11  1  0
 11 12  1  0
 12 13  1  0
 13 14  1  0
 14 15  1  0
 15 16  2  0
 15 17  2  0
 15 18  1  0
 18 19  2  0
 19 20  1  0
 20 21  2  0
 21 22  1  0
 14 23  1  0
 23 24  1  0
  7  2  1  0
 24 11  1  0
 22 18  1  0
  1 25  1  0
  1 26  1  0
  1 27  1  0
  3 28  1  0
  4 29  1  0
  5 30  1  0
  6 31  1  0
 11 32  1  1
 12 33  1  0
 12 34  1  0
 13 35  1  0
 13 36  1  0
 14 37  1  6
 19 38  1  0
 20 39  1  0
 21 40  1  0
 23 41  1  0
 23 42  1  0
 24 43  1  0
 24 44  1  0
M  CHG  2   8  -1  14   1
M  END
>  <UniqueID>  (8) 
8

>  <SMILES>  (8) 
Cc1ccccc1[N-]C(=O)C1CC[NH+](S(=O)(=O)c2cccs2)CC1

>  <Energy>  (8) 
85.41086729160232

>  <Genealogy>  (8) 
Cc1ccccc1[N-]C(=O)C1CC[NH+](S(=O)(=O)c2cccs2)CC1 (protonated)
Cc1ccccc1[N-]C(=O)C1CC[NH+](S(=O)(=O)c2cccs2)CC1 (3D coordinates assigned)
Cc1ccccc1[N-]C(=O)C1CC[NH+](S(=O)(=O)c2cccs2)CC1 (nonaromatic ring conformer: 85.41086729160232 kcal/mol)

>  <smiles>  (8) 
Cc1ccccc1NC(=O)C1CCN(S(=O)(=O)c2cccs2)CC1

>  <score_type>  (8) 
oracle

>  <origin>  (8) 
adg

>  <m_score__min__energy>  (8) 
-9.5899999999999999

>  <m_primary>  (8) 
energy

$$$$
8:0
     RDKit          3D

 44 46  0  0  0  0  0  0  0  0999 V2000
   -9.4930   21.5700  -31.5700 C   0  0  0  0  0  0  0  0  0  0  0  0
   -8.6300   20.4360  -32.0400 C   0  0  0  0  0  0  0  0  0  0  0  0
   -7.6930   20.6400  -33.0650 C   0  0  0  0  0  0  0  0  0  0  0  0
   -6.8620   19.5930  -33.4770 C   0  0  0  0  0  0  0  0  0  0  0  0
   -6.9530   18.3360  -32.8640 C   0  0  0  0  0  0  0  0  0  0  0  0
   -5.8930   17.0240  -33.3670 S   0  0  0  0  0  0  0  0  0  0  0  0
   -6.7170   15.8270  -33.7530 O   0  0  0  0  0  0  0  0  0  0  0  0
   -4.9890   16.6420  -32.2290 O   0  0  0  0  0  0  0  0  0  0  0  0
   -4.9190   17.5670  -34.7610 C   0  0  0  0  0  0  0  0  0  0  0  0
   -3.4390   17.6650  -34.3870 C   0  0  0  0  0  0  0  0  0  0  0  0
   -3.1400   19.0100  -33.8000 C   0  0  0  0  0  0  0  0  0  0  0  0
   -2.3320   19.7770  -34.3910 O   0  0  0  0  0  0  0  0  0  0  0  0
   -3.7680   19.4140  -32.5740 N   0  0  0  0  0  0  0  0  0  0  0  0
   -3.7800   20.7630  -32.0780 C   0  0  0  0  0  0  0  0  0  0  0  0
   -2.5700   21.3650  -31.6920 C   0  0  0  0  0  0  0  0  0  0  0  0
   -2.5550   22.6640  -31.1750 C   0  0  0  0  0  0  0  0  0  0  0  0
   -3.7520   23.3670  -31.0250 C   0  0  0  0  0  0  0  0  0  0  0  0
   -4.9640   22.7800  -31.4130 C   0  0  0  0  0  0  0  0  0  0  0  0
   -4.9850   21.4760  -31.9170 C   0  0  0  0  0  0  0  0  0  0  0  0
   -6.1470   23.5150  -31.2810 O   0  0  0  0  0  0  0  0  0  0  0  0
   -6.1170   24.9240  -31.0380 C   0  0  0  0  0  0  0  0  0  0  0  0
   -4.9850   25.2690  -30.0630 C   0  0  0  0  0  0  0  0  0  0  0  0
   -3.7640   24.6560  -30.4830 O   0  0  0  0  0  0  0  0  0  0  0  0
   -7.8700   18.1400  -31.8230 C   0  0  0  0  0  0  0  0  0  0  0  0
   -8.7020   19.1840  -31.4100 C   0  0  0  0  0  0  0  0  0  0  0  0
   -9.5072   21.5886  -30.4702 H   0  0  0  0  0  0  0  0  0  0  0  0
   -9.0875   22.5203  -31.9476 H   0  0  0  0  0  0  0  0  0  0  0  0
  -10.5170   21.4324  -31.9476 H   0  0  0  0  0  0  0  0  0  0  0  0
   -7.6120   21.6261  -33.5457 H   0  0  0  0  0  0  0  0  0  0  0  0
   -6.1342   19.7569  -34.2853 H   0  0  0  0  0  0  0  0  0  0  0  0
   -5.0356   16.8469  -35.5843 H   0  0  0  0  0  0  0  0  0  0  0  0
   -5.2706   18.5627  -35.0692 H   0  0  0  0  0  0  0  0  0  0  0  0
   -3.1986   16.8853  -33.6492 H   0  0  0  0  0  0  0  0  0  0  0  0
   -2.8307   17.5264  -35.2930 H   0  0  0  0  0  0  0  0  0  0  0  0
   -4.1830   18.6660  -31.9700 H   0  0  0  0  0  0  0  0  0  0  0  0
   -1.6266   20.8093  -31.7976 H   0  0  0  0  0  0  0  0  0  0  0  0
   -1.6018   23.1313  -30.8869 H   0  0  0  0  0  0  0  0  0  0  0  0
   -5.9422   21.0065  -32.1879 H   0  0  0  0  0  0  0  0  0  0  0  0
   -5.9521   25.4532  -31.9881 H   0  0  0  0  0  0  0  0  0  0  0  0
   -7.0766   25.2329  -30.5978 H   0  0  0  0  0  0  0  0  0  0  0  0
   -4.8516   26.3605  -30.0335 H   0  0  0  0  0  0  0  0  0  0  0  0
   -5.2478   24.8942  -29.0628 H   0  0  0  0  0  0  0  0  0  0  0  0
   -7.9353   17.1596  -31.3284 H   0  0  0  0  0  0  0  0  0  0  0  0
   -9.4157   19.0240  -30.5884 H   0  0  0  0  0  0  0  0  0  0  0  0
  1  2  1  0
  2  3  2  0
  3  4  1  0
  4  5  2  0
  5  6  1  0
  6  7  2  0
  6  8  2  0
  6  9  1  0
  9 10  1  0
 10 11  1  0
 11 12  2  0
 11 13  1  0
 13 14  1  0
 14 15  2  0
 15 16  1  0
 16 17  2  0
 17 18  1  0
 18 19  2  0
 18 20  1  0
 20 21  1  0
 21 22  1  0
 22 23  1  0
  5 24  1  0
 24 25  2  0
 25  2  1  0
 19 14  1  0
 23 17  1  0
  1 26  1  0
  1 27  1  0
  1 28  1  0
  3 29  1  0
  4 30  1  0
  9 31  1  0
  9 32  1  0
 10 33  1  0
 10 34  1  0
 13 35  1  0
 15 36  1  0
 16 37  1  0
 19 38  1  0
 21 39  1  0
 21 40  1  0
 22 41  1  0
 22 42  1  0
 24 43  1  0
 25 44  1  0
M  END
>  <UniqueID>  (9) 
9

>  <SMILES>  (9) 
Cc1ccc(S(=O)(=O)CCC(=O)Nc2ccc3c(c2)OCCO3)cc1

>  <Energy>  (9) 
42.97840407946691

>  <Genealogy>  (9) 
Cc1ccc(S(=O)(=O)CCC(=O)Nc2ccc3c(c2)OCCO3)cc1 (3D coordinates assigned)
Cc1ccc(S(=O)(=O)CCC(=O)Nc2ccc3c(c2)OCCO3)cc1 (nonaromatic ring conformer: 42.97840407946691 kcal/mol)

>  <smiles>  (9) 
Cc1ccc(S(=O)(=O)CCC(=O)Nc2ccc3c(c2)OCCO3)cc1

>  <score_type>  (9) 
oracle

>  <origin>  (9) 
adg

>  <m_score__min__energy>  (9) 
-9.6400000000000006

>  <m_primary>  (9) 
energy

$$$$
9:0
     RDKit          3D

 36 38  0  0  0  0  0  0  0  0999 V2000
   -6.5230   17.6600  -31.2410 C   0  0  0  0  0  0  0  0  0  0  0  0
   -5.7810   16.7870  -32.2520 C   0  0  0  0  0  0  0  0  0  0  0  0
   -6.3720   16.8680  -33.6690 C   0  0  0  0  0  0  0  0  0  0  0  0
   -5.6130   17.8280  -34.5910 C   0  0  0  0  0  0  0  0  0  0  0  0
   -6.2260   19.1140  -34.5670 O   0  0  0  0  0  0  0  0  0  0  0  0
   -6.0360   20.0800  -33.5670 C   0  0  0  0  0  0  0  0  0  0  0  0
   -7.1470   20.5460  -32.8190 C   0  0  0  0  0  0  0  0  0  0  0  0
   -8.4030   20.0620  -33.0600 N   0  0  0  0  0  0  0  0  0  0  0  0
   -9.4820   20.4960  -32.3530 C   0  0  0  0  0  0  0  0  0  0  0  0
   -9.3350   21.4550  -31.3510 C   0  0  0  0  0  0  0  0  0  0  0  0
   -8.0720   21.9740  -31.0720 C   0  0  0  0  0  0  0  0  0  0  0  0
   -6.9600   21.5300  -31.7970 C   0  0  0  0  0  0  0  0  0  0  0  0
   -5.6760   22.0440  -31.5260 C   0  0  0  0  0  0  0  0  0  0  0  0
   -4.6130   21.5620  -32.2800 C   0  0  0  0  0  0  0  0  0  0  0  0
   -3.3200   21.9160  -32.1870 N   0  0  0  0  0  0  0  0  0  0  0  0
   -2.7490   21.1410  -33.1450 C   0  0  0  0  0  0  0  0  0  0  0  0
   -1.2930   21.1790  -33.4640 C   0  0  0  0  0  0  0  0  0  0  0  0
   -3.6130   20.3750  -33.7870 O   0  0  0  0  0  0  0  0  0  0  0  0
   -4.7810   20.6250  -33.2550 C   0  0  0  0  0  0  0  0  0  0  0  0
   -6.2567   17.3466  -30.2208 H   0  0  0  0  0  0  0  0  0  0  0  0
   -6.2389   18.7126  -31.3872 H   0  0  0  0  0  0  0  0  0  0  0  0
   -7.6076   17.5493  -31.3872 H   0  0  0  0  0  0  0  0  0  0  0  0
   -4.7311   17.1129  -32.2916 H   0  0  0  0  0  0  0  0  0  0  0  0
   -5.8767   15.7438  -31.9164 H   0  0  0  0  0  0  0  0  0  0  0  0
   -6.3468   15.8629  -34.1153 H   0  0  0  0  0  0  0  0  0  0  0  0
   -7.3974   17.2541  -33.5716 H   0  0  0  0  0  0  0  0  0  0  0  0
   -4.5713   17.9146  -34.2485 H   0  0  0  0  0  0  0  0  0  0  0  0
   -5.6367   17.4360  -35.6185 H   0  0  0  0  0  0  0  0  0  0  0  0
   -8.5630   19.3430  -33.8000 H   0  0  0  0  0  0  0  0  0  0  0  0
  -10.4789   20.0868  -32.5738 H   0  0  0  0  0  0  0  0  0  0  0  0
  -10.2119   21.8001  -30.7836 H   0  0  0  0  0  0  0  0  0  0  0  0
   -7.9492   22.7311  -30.2835 H   0  0  0  0  0  0  0  0  0  0  0  0
   -5.5205   22.8015  -30.7437 H   0  0  0  0  0  0  0  0  0  0  0  0
   -0.7131   21.1941  -32.5294 H   0  0  0  0  0  0  0  0  0  0  0  0
   -1.0224   20.2876  -34.0490 H   0  0  0  0  0  0  0  0  0  0  0  0
   -1.0693   22.0833  -34.0490 H   0  0  0  0  0  0  0  0  0  0  0  0
  1  2  1  0
  2  3  1  0
  3  4  1  0
  4  5  1  0
  5  6  1  0
  6  7  2  0
  7  8  1  0
  8  9  2  0
  9 10  1  0
 10 11  2  0
 11 12  1  0
 12 13  2  0
 13 14  1  0
 14 15  1  0
 15 16  2  0
 16 17  1  0
 16 18  1  0
 18 19  1  0
 19  6  1  0
 12  7  1  0
 19 14  2  0
  1 20  1  0
  1 21  1  0
  1 22  1  0
  2 23  1  0
  2 24  1  0
  3 25  1  0
  3 26  1  0
  4 27  1  0
  4 28  1  0
  8 29  1  0
  9 30  1  0
 10 31  1  0
 11 32  1  0
 13 33  1  0
 17 34  1  0
 17 35  1  0
 17 36  1  0
M  CHG  1   8   1
M  END
>  <UniqueID>  (10) 
10

>  <SMILES>  (10) 
CCCCOc1c2[nH+]cccc2cc2nc(C)oc12

>  <Energy>  (10) 
70.61638729573865

>  <Genealogy>  (10) 
CCCCOc1c2[nH+]cccc2cc2nc(C)oc12 (protonated)
CCCCOc1c2[nH+]cccc2cc2nc(C)oc12 (3D coordinates assigned)
CCCCOc1c2[nH+]cccc2cc2nc(C)oc12 (optimized conformer: 70.61638729573865 kcal/mol)

>  <smiles>  (10) 
CCCCOc1c2ncccc2cc2nc(C)oc12

>  <score_type>  (10) 
oracle

>  <origin>  (10) 
adg

>  <m_score__min__energy>  (10) 
-6.5

>  <m_primary>  (10) 
energy

$$$$
10:0
     RDKit          3D

 33 35  0  0  0  0  0  0  0  0999 V2000
   -0.2620   24.1360  -28.9060 N   0  0  0  0  0  0  0  0  0  0  0  0
   -1.4380   23.7380  -29.3020 C   0  0  0  0  0  0  0  0  0  0  0  0
   -1.8010   22.4510  -29.3040 N   0  0  0  0  0  0  0  0  0  0  0  0
   -3.0290   22.1100  -29.7260 C   0  0  0  0  0  0  0  0  0  0  0  0
   -3.3960   20.8770  -29.7360 N   0  0  0  0  0  0  0  0  0  0  0  0
   -3.9220   23.0670  -30.1580 C   0  0  0  0  0  0  0  0  0  0  0  0
   -5.1300   22.6810  -30.5670 N   0  0  0  0  0  0  0  0  0  0  0  0
   -6.0420   23.6010  -31.0020 C   0  0  0  0  0  0  0  0  0  0  0  0
   -7.3550   23.0780  -31.4080 C   0  0  0  0  0  0  0  0  0  0  0  0
   -7.2920   22.1230  -32.4750 N   0  0  0  0  0  0  0  0  0  0  0  0
   -7.4610   20.7360  -32.4300 C   0  0  0  0  0  0  0  0  0  0  0  0
   -6.4390   19.9090  -32.9350 C   0  0  0  0  0  0  0  0  0  0  0  0
   -6.5280   18.5410  -32.9060 C   0  0  0  0  0  0  0  0  0  0  0  0
   -7.6280   17.9060  -32.3780 C   0  0  0  0  0  0  0  0  0  0  0  0
   -8.6360   18.6790  -31.8790 C   0  0  0  0  0  0  0  0  0  0  0  0
   -8.5400   20.0630  -31.9110 C   0  0  0  0  0  0  0  0  0  0  0  0
   -5.6420   24.9030  -30.9870 C   0  0  0  0  0  0  0  0  0  0  0  0
   -4.4100   25.2960  -30.5680 N   0  0  0  0  0  0  0  0  0  0  0  0
   -3.5140   24.3850  -30.1410 C   0  0  0  0  0  0  0  0  0  0  0  0
   -2.2840   24.7040  -29.7160 N   0  0  0  0  0  0  0  0  0  0  0  0
    0.3940   23.4810  -28.4110 H   0  0  0  0  0  0  0  0  0  0  0  0
   -1.1100   21.7340  -28.9740 H   0  0  0  0  0  0  0  0  0  0  0  0
   -4.3210   20.5660  -30.1020 H   0  0  0  0  0  0  0  0  0  0  0  0
   -7.8203   22.5943  -30.5365 H   0  0  0  0  0  0  0  0  0  0  0  0
   -7.9405   23.9330  -31.7771 H   0  0  0  0  0  0  0  0  0  0  0  0
   -7.0850   22.5400  -33.4420 H   0  0  0  0  0  0  0  0  0  0  0  0
   -5.5409   20.3753  -33.3664 H   0  0  0  0  0  0  0  0  0  0  0  0
   -5.7025   17.9388  -33.3135 H   0  0  0  0  0  0  0  0  0  0  0  0
   -7.6933   16.8081  -32.3585 H   0  0  0  0  0  0  0  0  0  0  0  0
   -9.5293   18.2024  -31.4491 H   0  0  0  0  0  0  0  0  0  0  0  0
   -9.3723   20.6524  -31.4988 H   0  0  0  0  0  0  0  0  0  0  0  0
   -6.3492   25.6726  -31.3301 H   0  0  0  0  0  0  0  0  0  0  0  0
   -1.9870   25.7120  -29.7100 H   0  0  0  0  0  0  0  0  0  0  0  0
  1  2  2  3
  2  3  1  0
  3  4  1  0
  4  5  2  3
  4  6  1  0
  6  7  2  0
  7  8  1  0
  8  9  1  0
  9 10  1  0
 10 11  1  0
 11 12  2  0
 12 13  1  0
 13 14  2  0
 14 15  1  0
 15 16  2  0
  8 17  2  0
 17 18  1  0
 18 19  2  0
 19 20  1  0
 20  2  1  0
 19  6  1  0
 16 11  1  0
  1 21  1  0
  3 22  1  0
  5 23  1  0
  9 24  1  0
  9 25  1  0
 10 26  1  0
 12 27  1  0
 13 28  1  0
 14 29  1  0
 15 30  1  0
 16 31  1  0
 17 32  1  0
 20 33  1  0
M  END
>  <smiles>  (11) 
N=c1[nH]c(=N)c2nc(CNc3ccccc3)cnc2[nH]1

>  <score_type>  (11) 
oracle

>  <origin>  (11) 
adg

>  <m_score__min__energy>  (11) 
-7.1500000000000004

>  <m_primary>  (11) 
energy

$$$$
11:0
     RDKit          3D

 28 29  0  0  0  0  0  0  0  0999 V2000
   -8.7420   19.9580  -32.7330 C   0  0  0  0  0  0  0  0  0  0  0  0
   -8.8570   19.0110  -31.5490 C   0  0  0  0  0  0  0  0  0  0  0  0
   -7.7820   18.0310  -31.5960 N   0  0  0  0  0  0  0  0  0  0  0  0
   -6.6360   18.1780  -32.4400 C   0  0  0  0  0  0  0  0  0  0  0  0
   -6.6320   17.6880  -33.6010 O   0  0  0  0  0  0  0  0  0  0  0  0
   -5.4200   18.8760  -31.9200 C   0  0  0  0  0  0  0  0  0  0  0  0
   -4.8810   19.8560  -32.9630 C   0  0  0  0  0  0  0  0  0  0  0  0
   -5.6990   21.4820  -32.8120 S   0  0  0  0  0  0  0  0  0  0  0  0
   -4.4550   22.1830  -31.7310 C   0  0  0  0  0  0  0  0  0  0  0  0
   -3.4180   21.3990  -31.2880 N   0  0  0  0  0  0  0  0  0  0  0  0
   -2.4530   21.9010  -30.4630 C   0  0  0  0  0  0  0  0  0  0  0  0
   -1.5080   21.1730  -30.0610 O   0  0  0  0  0  0  0  0  0  0  0  0
   -2.5540   23.2320  -30.0880 C   0  0  0  0  0  0  0  0  0  0  0  0
   -1.8050   24.0710  -29.2970 C   0  0  0  0  0  0  0  0  0  0  0  0
   -2.4040   25.2880  -29.3020 N   0  0  0  0  0  0  0  0  0  0  0  0
   -3.4950   25.2430  -30.0640 N   0  0  0  0  0  0  0  0  0  0  0  0
   -3.5810   23.9900  -30.5390 C   0  0  0  0  0  0  0  0  0  0  0  0
   -4.5390   23.4960  -31.3580 N   0  0  0  0  0  0  0  0  0  0  0  0
   -8.6169   20.9881  -32.3678 H   0  0  0  0  0  0  0  0  0  0  0  0
   -7.8713   19.6773  -33.3439 H   0  0  0  0  0  0  0  0  0  0  0  0
   -9.6545   19.8938  -33.3439 H   0  0  0  0  0  0  0  0  0  0  0  0
   -8.7869   19.5855  -30.6136 H   0  0  0  0  0  0  0  0  0  0  0  0
   -9.8252   18.4907  -31.5924 H   0  0  0  0  0  0  0  0  0  0  0  0
   -5.6822   19.4280  -31.0054 H   0  0  0  0  0  0  0  0  0  0  0  0
   -4.6451   18.1268  -31.7002 H   0  0  0  0  0  0  0  0  0  0  0  0
   -3.7985   19.9820  -32.8135 H   0  0  0  0  0  0  0  0  0  0  0  0
   -5.0855   19.4510  -33.9651 H   0  0  0  0  0  0  0  0  0  0  0  0
   -0.8849   23.8032  -28.7569 H   0  0  0  0  0  0  0  0  0  0  0  0
  1  2  1  0
  2  3  1  0
  3  4  1  0
  4  5  2  0
  4  6  1  0
  6  7  1  0
  7  8  1  0
  8  9  1  0
  9 10  2  0
 10 11  1  0
 11 12  2  0
 11 13  1  0
 13 14  2  0
 14 15  1  0
 15 16  1  0
 16 17  2  0
 17 18  1  0
 18  9  1  0
 17 13  1  0
  1 19  1  0
  1 20  1  0
  1 21  1  0
  2 22  1  0
  2 23  1  0
  6 24  1  0
  6 25  1  0
  7 26  1  0
  7 27  1  0
 14 28  1  0
M  CHG  3   3  -1  15  -1  18  -1
M  END
>  <UniqueID>  (12) 
11

>  <SMILES>  (12) 
CC[N-]C(=O)CCSc1nc(=O)c2c[n-]nc2[n-]1

>  <Energy>  (12) 
57.4442109106412

>  <Genealogy>  (12) 
CC[N-]C(=O)CCSc1nc(=O)c2c[n-]nc2[n-]1 (protonated)
CC[N-]C(=O)CCSc1nc(=O)c2c[n-]nc2[n-]1 (3D coordinates assigned)
CC[N-]C(=O)CCSc1nc(=O)c2c[n-]nc2[n-]1 (optimized conformer: 57.4442109106412 kcal/mol)

>  <smiles>  (12) 
CCNC(=O)CCSc1nc(=O)c2c[nH]nc2[nH]1

>  <score_type>  (12) 
oracle

>  <origin>  (12) 
adg

>  <m_score__min__energy>  (12) 
-8.6400000000000006

>  <m_primary>  (12) 
energy

$$$$
12:0
     RDKit          3D

 45 47  0  0  0  0  0  0  0  0999 V2000
   -1.6990   20.1450  -26.8190 C   0  0  0  0  0  0  0  0  0  0  0  0
   -0.8730   21.4260  -26.7980 C   0  0  0  0  0  0  0  0  0  0  0  0
   -1.7340   22.6170  -27.1020 C   0  0  0  0  0  0  0  0  0  0  0  0
   -2.6650   22.5810  -28.1460 C   0  0  0  0  0  0  0  0  0  0  0  0
   -3.4740   23.7040  -28.3730 C   0  0  0  0  0  0  0  0  0  0  0  0
   -4.4710   23.7050  -29.4730 C   0  0  0  0  0  0  0  0  0  0  0  0
   -5.5510   24.5970  -29.4470 C   0  0  0  0  0  0  0  0  0  0  0  0
   -6.4860   24.6070  -30.4820 C   0  0  0  0  0  0  0  0  0  0  0  0
   -6.3570   23.7330  -31.5730 C   0  0  0  0  0  0  0  0  0  0  0  0
   -7.3750   23.7920  -32.6810 C   0  0  0  0  0  0  0  0  0  0  0  0
   -5.2750   22.8220  -31.6130 C   0  0  0  0  0  0  0  0  0  0  0  0
   -5.1240   21.9100  -32.7240 N   0  0  0  0  0  0  0  0  0  0  0  0
   -5.1050   20.4520  -32.5900 C   0  0  0  0  0  0  0  0  0  0  0  0
   -6.5030   19.9140  -32.4040 C   0  0  0  0  0  0  0  0  0  0  0  0
   -7.6050   20.7310  -32.7060 C   0  0  0  0  0  0  0  0  0  0  0  0
   -8.9080   20.2490  -32.5480 C   0  0  0  0  0  0  0  0  0  0  0  0
   -9.1200   18.9510  -32.0790 C   0  0  0  0  0  0  0  0  0  0  0  0
   -8.0320   18.1330  -31.7650 C   0  0  0  0  0  0  0  0  0  0  0  0
   -6.7260   18.6100  -31.9210 C   0  0  0  0  0  0  0  0  0  0  0  0
   -5.6860   17.7970  -31.6000 F   0  0  0  0  0  0  0  0  0  0  0  0
   -4.3440   22.8190  -30.5560 C   0  0  0  0  0  0  0  0  0  0  0  0
   -3.3360   24.7960  -27.5660 N   0  0  0  0  0  0  0  0  0  0  0  0
   -2.4330   24.8080  -26.5500 C   0  0  0  0  0  0  0  0  0  0  0  0
   -1.6460   23.7260  -26.3220 N   0  0  0  0  0  0  0  0  0  0  0  0
   -1.9054   19.8249  -25.7871 H   0  0  0  0  0  0  0  0  0  0  0  0
   -2.6486   20.3296  -27.3425 H   0  0  0  0  0  0  0  0  0  0  0  0
   -1.1390   19.3562  -27.3425 H   0  0  0  0  0  0  0  0  0  0  0  0
   -0.4240   21.5499  -25.8015 H   0  0  0  0  0  0  0  0  0  0  0  0
   -0.0871   21.3528  -27.5641 H   0  0  0  0  0  0  0  0  0  0  0  0
   -2.7609   21.6862  -28.7786 H   0  0  0  0  0  0  0  0  0  0  0  0
   -5.6625   25.2948  -28.6040 H   0  0  0  0  0  0  0  0  0  0  0  0
   -7.3335   25.3072  -30.4430 H   0  0  0  0  0  0  0  0  0  0  0  0
   -8.3847   23.8505  -32.2485 H   0  0  0  0  0  0  0  0  0  0  0  0
   -7.1900   24.6809  -33.3020 H   0  0  0  0  0  0  0  0  0  0  0  0
   -7.2939   22.8876  -33.3020 H   0  0  0  0  0  0  0  0  0  0  0  0
   -4.9510   22.2890  -33.6810 H   0  0  0  0  0  0  0  0  0  0  0  0
   -4.6667   20.0118  -33.4978 H   0  0  0  0  0  0  0  0  0  0  0  0
   -4.5040   20.1862  -31.7079 H   0  0  0  0  0  0  0  0  0  0  0  0
   -7.4419   21.7565  -33.0691 H   0  0  0  0  0  0  0  0  0  0  0  0
   -9.7660   20.8923  -32.7931 H   0  0  0  0  0  0  0  0  0  0  0  0
  -10.1454   18.5720  -31.9566 H   0  0  0  0  0  0  0  0  0  0  0  0
   -8.2025   17.1115  -31.3942 H   0  0  0  0  0  0  0  0  0  0  0  0
   -3.5028   22.1106  -30.5788 H   0  0  0  0  0  0  0  0  0  0  0  0
   -3.9130   25.6520  -27.7280 H   0  0  0  0  0  0  0  0  0  0  0  0
   -2.3398   25.6980  -25.9102 H   0  0  0  0  0  0  0  0  0  0  0  0
  1  2  1  0
  2  3  1  0
  3  4  2  0
  4  5  1  0
  5  6  1  0
  6  7  2  0
  7  8  1  0
  8  9  2  0
  9 10  1  0
  9 11  1  0
 11 12  1  0
 12 13  1  0
 13 14  1  0
 14 15  2  0
 15 16  1  0
 16 17  2  0
 17 18  1  0
 18 19  2  0
 19 20  1  0
 11 21  2  0
  5 22  2  0
 22 23  1  0
 23 24  2  0
 24  3  1  0
 21  6  1  0
 19 14  1  0
  1 25  1  0
  1 26  1  0
  1 27  1  0
  2 28  1  0
  2 29  1  0
  4 30  1  0
  7 31  1  0
  8 32  1  0
 10 33  1  0
 10 34  1  0
 10 35  1  0
 12 36  1  0
 13 37  1  0
 13 38  1  0
 15 39  1  0
 16 40  1  0
 17 41  1  0
 18 42  1  0
 21 43  1  0
 22 44  1  0
 23 45  1  0
M  CHG  1  22   1
M  END
>  <UniqueID>  (13) 
12

>  <SMILES>  (13) 
CCc1cc(-c2ccc(C)c(NCc3ccccc3F)c2)[nH+]cn1

>  <Energy>  (13) 
49.55246872564307

>  <Genealogy>  (13) 
CCc1cc(-c2ccc(C)c(NCc3ccccc3F)c2)[nH+]cn1 (protonated)
CCc1cc(-c2ccc(C)c(NCc3ccccc3F)c2)[nH+]cn1 (3D coordinates assigned)
CCc1cc(-c2ccc(C)c(NCc3ccccc3F)c2)[nH+]cn1 (optimized conformer: 49.55246872564307 kcal/mol)

>  <smiles>  (13) 
CCc1cc(-c2ccc(C)c(NCc3ccccc3F)c2)ncn1

>  <score_type>  (13) 
oracle

>  <origin>  (13) 
adg

>  <m_score__min__energy>  (13) 
-8.1699999999999999

>  <m_primary>  (13) 
energy

$$$$
13:0
     RDKit          3D

 66 69  0  0  0  0  0  0  0  0999 V2000
   -6.4880   16.3820  -34.3230 C   0  0  0  0  0  0  0  0  0  0  0  0
   -5.6460   17.4450  -33.6960 C   0  0  0  0  0  0  0  0  0  0  0  0
   -4.4800   17.8780  -34.2140 N   0  0  0  0  0  0  0  0  0  0  0  0
   -4.0010   18.8160  -33.4080 N   0  0  0  0  0  0  0  0  0  0  0  0
   -2.7600   19.4960  -33.6640 C   0  0  0  0  0  0  0  0  0  0  0  0
   -1.6360   18.7950  -34.1360 C   0  0  0  0  0  0  0  0  0  0  0  0
   -0.4300   19.4670  -34.3600 C   0  0  0  0  0  0  0  0  0  0  0  0
   -0.3330   20.8370  -34.1030 C   0  0  0  0  0  0  0  0  0  0  0  0
   -1.4390   21.5360  -33.6140 C   0  0  0  0  0  0  0  0  0  0  0  0
   -2.6470   20.8680  -33.3880 C   0  0  0  0  0  0  0  0  0  0  0  0
   -4.8360   18.9780  -32.3550 C   0  0  0  0  0  0  0  0  0  0  0  0
   -4.6120   19.9020  -31.1910 C   0  0  0  0  0  0  0  0  0  0  0  0
   -5.9200   18.1300  -32.5240 C   0  0  0  0  0  0  0  0  0  0  0  0
   -7.0750   17.9100  -31.5870 C   0  0  0  0  0  0  0  0  0  0  0  0
   -8.3500   18.5670  -32.1360 C   0  0  0  0  0  0  0  0  0  0  0  0
   -8.1080   19.9440  -32.7120 C   0  0  0  0  0  0  0  0  0  0  0  0
   -7.6110   20.0470  -33.8670 O   0  0  0  0  0  0  0  0  0  0  0  0
   -8.4170   21.1380  -31.9450 N   0  0  0  0  0  0  0  0  0  0  0  0
   -9.8240   21.4840  -31.6950 C   0  0  0  0  0  0  0  0  0  0  0  0
   -7.3570   22.0200  -31.4050 C   0  0  0  0  0  0  0  0  0  0  0  0
   -6.1710   22.1620  -32.3880 C   0  0  0  0  0  0  0  0  0  0  0  0
   -5.3500   23.4370  -32.1260 C   0  0  0  0  0  0  0  0  0  0  0  0
   -5.4520   23.8220  -30.7070 N   0  0  0  0  0  0  0  0  0  0  0  0
   -4.3890   24.7560  -30.2690 C   0  0  0  0  0  0  0  0  0  0  0  0
   -3.0930   24.0750  -29.8780 C   0  0  0  0  0  0  0  0  0  0  0  0
   -2.2290   24.6740  -28.9450 C   0  0  0  0  0  0  0  0  0  0  0  0
   -1.0340   24.0460  -28.5830 C   0  0  0  0  0  0  0  0  0  0  0  0
   -0.6960   22.8100  -29.1420 C   0  0  0  0  0  0  0  0  0  0  0  0
   -1.5550   22.1990  -30.0590 C   0  0  0  0  0  0  0  0  0  0  0  0
   -2.7510   22.8250  -30.4230 C   0  0  0  0  0  0  0  0  0  0  0  0
   -6.8140   24.2800  -30.3510 C   0  0  0  0  0  0  0  0  0  0  0  0
   -7.9150   23.3920  -30.9750 C   0  0  0  0  0  0  0  0  0  0  0  0
   -6.9649   15.7799  -33.5355 H   0  0  0  0  0  0  0  0  0  0  0  0
   -7.2636   16.8494  -34.9476 H   0  0  0  0  0  0  0  0  0  0  0  0
   -5.8555   15.7340  -34.9476 H   0  0  0  0  0  0  0  0  0  0  0  0
   -1.7055   17.7144  -34.3297 H   0  0  0  0  0  0  0  0  0  0  0  0
    0.4434   18.9162  -34.7391 H   0  0  0  0  0  0  0  0  0  0  0  0
    0.6145   21.3651  -34.2858 H   0  0  0  0  0  0  0  0  0  0  0  0
   -1.3599   22.6133  -33.4063 H   0  0  0  0  0  0  0  0  0  0  0  0
   -3.5123   21.4200  -32.9923 H   0  0  0  0  0  0  0  0  0  0  0  0
   -4.7466   19.3468  -30.2510 H   0  0  0  0  0  0  0  0  0  0  0  0
   -3.5899   20.3061  -31.2351 H   0  0  0  0  0  0  0  0  0  0  0  0
   -5.3356   20.7293  -31.2351 H   0  0  0  0  0  0  0  0  0  0  0  0
   -7.2461   16.8295  -31.4717 H   0  0  0  0  0  0  0  0  0  0  0  0
   -6.8335   18.3633  -30.6143 H   0  0  0  0  0  0  0  0  0  0  0  0
   -8.7619   17.9240  -32.9277 H   0  0  0  0  0  0  0  0  0  0  0  0
   -9.0479   18.6823  -31.2936 H   0  0  0  0  0  0  0  0  0  0  0  0
  -10.0036   21.5282  -30.6107 H   0  0  0  0  0  0  0  0  0  0  0  0
  -10.0460   22.4635  -32.1437 H   0  0  0  0  0  0  0  0  0  0  0  0
  -10.4750   20.7192  -32.1437 H   0  0  0  0  0  0  0  0  0  0  0  0
   -6.9662   21.5350  -30.4983 H   0  0  0  0  0  0  0  0  0  0  0  0
   -5.5127   21.2876  -32.2779 H   0  0  0  0  0  0  0  0  0  0  0  0
   -6.5817   22.2274  -33.4064 H   0  0  0  0  0  0  0  0  0  0  0  0
   -4.2957   23.2489  -32.3771 H   0  0  0  0  0  0  0  0  0  0  0  0
   -5.7433   24.2532  -32.7498 H   0  0  0  0  0  0  0  0  0  0  0  0
   -4.1786   25.4522  -31.0943 H   0  0  0  0  0  0  0  0  0  0  0  0
   -4.7644   25.2662  -29.3697 H   0  0  0  0  0  0  0  0  0  0  0  0
   -2.4950   25.6428  -28.4971 H   0  0  0  0  0  0  0  0  0  0  0  0
   -0.3592   24.5245  -27.8580 H   0  0  0  0  0  0  0  0  0  0  0  0
    0.2466   22.3183  -28.8598 H   0  0  0  0  0  0  0  0  0  0  0  0
   -1.2901   21.2245  -30.4950 H   0  0  0  0  0  0  0  0  0  0  0  0
   -3.4279   22.3369  -31.1396 H   0  0  0  0  0  0  0  0  0  0  0  0
   -6.9197   24.2573  -29.2563 H   0  0  0  0  0  0  0  0  0  0  0  0
   -6.9399   25.2987  -30.7464 H   0  0  0  0  0  0  0  0  0  0  0  0
   -8.7126   23.2372  -30.2335 H   0  0  0  0  0  0  0  0  0  0  0  0
   -8.3051   23.9018  -31.8683 H   0  0  0  0  0  0  0  0  0  0  0  0
  1  2  1  0
  2  3  2  0
  3  4  1  0
  4  5  1  0
  5  6  2  0
  6  7  1  0
  7  8  2  0
  8  9  1  0
  9 10  2  0
  4 11  1  0
 11 12  1  0
 11 13  2  0
 13 14  1  0
 14 15  1  0
 15 16  1  0
 16 17  2  0
 16 18  1  0
 18 19  1  0
 18 20  1  0
 20 21  1  0
 21 22  1  0
 22 23  1  0
 23 24  1  0
 24 25  1  0
 25 26  2  0
 26 27  1  0
 27 28  2  0
 28 29  1  0
 29 30  2  0
 23 31  1  0
 31 32  1  0
 13  2  1  0
 32 20  1  0
 10  5  1  0
 30 25  1  0
  1 33  1  0
  1 34  1  0
  1 35  1  0
  6 36  1  0
  7 37  1  0
  8 38  1  0
  9 39  1  0
 10 40  1  0
 12 41  1  0
 12 42  1  0
 12 43  1  0
 14 44  1  0
 14 45  1  0
 15 46  1  0
 15 47  1  0
 19 48  1  0
 19 49  1  0
 19 50  1  0
 20 51  1  0
 21 52  1  0
 21 53  1  0
 22 54  1  0
 22 55  1  0
 24 56  1  0
 24 57  1  0
 26 58  1  0
 27 59  1  0
 28 60  1  0
 29 61  1  0
 30 62  1  0
 31 63  1  0
 31 64  1  0
 32 65  1  0
 32 66  1  0
M  END
>  <UniqueID>  (14) 
13

>  <SMILES>  (14) 
Cc1nn(-c2ccccc2)c(C)c1CCC(=O)N(C)C1CCN(Cc2ccccc2)CC1

>  <Energy>  (14) 
109.05683731793376

>  <Genealogy>  (14) 
Cc1nn(-c2ccccc2)c(C)c1CCC(=O)N(C)C1CCN(Cc2ccccc2)CC1 (3D coordinates assigned)
Cc1nn(-c2ccccc2)c(C)c1CCC(=O)N(C)C1CCN(Cc2ccccc2)CC1 (nonaromatic ring conformer: 109.05683731793376 kcal/mol)

>  <smiles>  (14) 
Cc1nn(-c2ccccc2)c(C)c1CCC(=O)N(C)C1CCN(Cc2ccccc2)CC1

>  <score_type>  (14) 
oracle

>  <origin>  (14) 
adg

>  <m_score__min__energy>  (14) 
-10

>  <m_primary>  (14) 
energy

$$$$
14:0
     RDKit          3D

 56 58  0  0  1  0  0  0  0  0999 V2000
   -3.9210   25.3560  -30.8240 O   0  0  0  0  0  0  0  0  0  0  0  0
   -4.6430   24.4570  -30.4640 C   0  0  0  0  0  0  0  0  0  0  0  0
   -6.1290   24.7090  -30.5590 C   0  0  0  0  0  0  0  0  0  0  0  0
   -6.5590   24.1120  -31.8950 C   0  0  0  0  0  0  0  0  0  0  0  0
   -7.8810   23.3800  -31.6970 C   0  0  0  0  0  0  0  0  0  0  0  0
   -7.6140   21.9270  -31.9920 C   0  0  0  0  0  0  0  0  0  0  0  0
   -8.3340   20.8590  -31.6200 N   0  0  0  0  0  0  0  0  0  0  0  0
   -7.7320   19.7560  -32.1000 C   0  0  0  0  0  0  0  0  0  0  0  0
   -6.6150   20.2020  -32.7780 C   0  0  0  0  0  0  0  0  0  0  0  0
   -6.5460   21.5440  -32.7090 N   0  0  0  0  0  0  0  0  0  0  0  0
   -5.6830   19.2630  -33.4560 C   0  0  0  0  0  0  0  0  0  0  0  0
   -6.4710   17.9970  -33.7270 C   0  0  0  0  0  0  0  0  0  0  0  0
   -6.9550   17.5020  -32.4420 N   0  0  0  0  0  0  0  0  0  0  0  0
   -8.0640   18.3040  -32.0100 C   0  0  0  0  0  0  0  0  0  0  0  0
   -4.2220   23.1430  -29.9430 C   0  0  0  0  0  0  0  0  0  0  0  0
   -3.0710   22.6870  -30.5020 O   0  0  0  0  0  0  0  0  0  0  0  0
   -2.6700   21.4940  -29.9710 C   0  0  0  0  0  0  0  0  0  0  0  0
   -1.1380   21.5960  -29.8460 C   0  0  0  0  0  0  0  0  0  0  0  0
   -0.7830   22.9380  -29.8690 O   0  0  0  0  0  0  0  0  0  0  0  0
   -0.6080   23.4790  -28.6210 C   0  0  0  0  0  0  0  0  0  0  0  0
   -0.8540   24.9570  -28.5490 C   0  0  1  0  0  0  0  0  0  0  0  0
   -1.9520   25.2880  -29.3500 O   0  0  0  0  0  0  0  0  0  0  0  0
   -0.9530   25.5230  -27.2080 C   0  0  0  0  0  0  0  0  0  0  0  0
   -1.1430   24.8460  -26.0390 C   0  0  0  0  0  0  0  0  0  0  0  0
   -1.2210   25.4610  -24.7940 C   0  0  0  0  0  0  0  0  0  0  0  0
   -1.0960   26.8320  -24.7840 C   0  0  0  0  0  0  0  0  0  0  0  0
   -0.9090   27.5310  -25.9120 N   0  0  0  0  0  0  0  0  0  0  0  0
   -0.8370   26.9160  -27.1010 C   0  0  0  0  0  0  0  0  0  0  0  0
   -6.6565   24.2151  -29.7297 H   0  0  0  0  0  0  0  0  0  0  0  0
   -6.3659   25.7813  -30.4961 H   0  0  0  0  0  0  0  0  0  0  0  0
   -6.6873   24.9151  -32.6357 H   0  0  0  0  0  0  0  0  0  0  0  0
   -5.7923   23.4118  -32.2581 H   0  0  0  0  0  0  0  0  0  0  0  0
   -8.2300   23.4994  -30.6607 H   0  0  0  0  0  0  0  0  0  0  0  0
   -8.6618   23.7832  -32.3586 H   0  0  0  0  0  0  0  0  0  0  0  0
   -5.8090   22.1540  -33.1300 H   0  0  0  0  0  0  0  0  0  0  0  0
   -5.3257   19.6981  -34.4010 H   0  0  0  0  0  0  0  0  0  0  0  0
   -4.8010   19.0572  -32.8317 H   0  0  0  0  0  0  0  0  0  0  0  0
   -7.3210   18.2175  -34.3895 H   0  0  0  0  0  0  0  0  0  0  0  0
   -5.8393   17.2440  -34.2209 H   0  0  0  0  0  0  0  0  0  0  0  0
   -6.1900   17.5930  -31.7390 H   0  0  0  0  0  0  0  0  0  0  0  0
   -8.9335   18.0922  -32.6495 H   0  0  0  0  0  0  0  0  0  0  0  0
   -8.2915   18.0577  -30.9624 H   0  0  0  0  0  0  0  0  0  0  0  0
   -4.0721   23.2299  -28.8567 H   0  0  0  0  0  0  0  0  0  0  0  0
   -5.0144   22.4232  -30.1958 H   0  0  0  0  0  0  0  0  0  0  0  0
   -3.1273   21.3396  -28.9826 H   0  0  0  0  0  0  0  0  0  0  0  0
   -2.9734   20.6439  -30.5997 H   0  0  0  0  0  0  0  0  0  0  0  0
   -0.8119   21.1420  -28.8986 H   0  0  0  0  0  0  0  0  0  0  0  0
   -0.6554   21.0639  -30.6791 H   0  0  0  0  0  0  0  0  0  0  0  0
   -1.3022   22.9801  -27.9288 H   0  0  0  0  0  0  0  0  0  0  0  0
    0.4477   23.3220  -28.3547 H   0  0  0  0  0  0  0  0  0  0  0  0
    0.0557   25.4334  -28.9433 H   0  0  0  0  0  0  0  0  0  0  0  0
   -2.0680   24.5390  -29.9930 H   0  0  0  0  0  0  0  0  0  0  0  0
   -1.2401   23.7512  -26.0836 H   0  0  0  0  0  0  0  0  0  0  0  0
   -1.3739   24.8846  -23.8697 H   0  0  0  0  0  0  0  0  0  0  0  0
   -1.1511   27.3678  -23.8249 H   0  0  0  0  0  0  0  0  0  0  0  0
   -0.6840   27.5159  -28.0102 H   0  0  0  0  0  0  0  0  0  0  0  0
  1  2  2  0
  2  3  1  0
  3  4  1  0
  4  5  1  0
  5  6  1  0
  6  7  2  0
  7  8  1  0
  8  9  2  0
  9 10  1  0
  9 11  1  0
 11 12  1  0
 12 13  1  0
 13 14  1  0
  2 15  1  0
 15 16  1  0
 16 17  1  0
 17 18  1  0
 18 19  1  0
 19 20  1  0
 20 21  1  0
 21 22  1  0
 21 23  1  0
 23 24  2  0
 24 25  1  0
 25 26  2  0
 26 27  1  0
 27 28  2  0
 10  6  1  0
 28 23  1  0
 14  8  1  0
  3 29  1  0
  3 30  1  0
  4 31  1  0
  4 32  1  0
  5 33  1  0
  5 34  1  0
 10 35  1  0
 11 36  1  0
 11 37  1  0
 12 38  1  0
 12 39  1  0
 13 40  1  0
 14 41  1  0
 14 42  1  0
 15 43  1  0
 15 44  1  0
 17 45  1  0
 17 46  1  0
 18 47  1  0
 18 48  1  0
 20 49  1  0
 20 50  1  0
 21 51  1  6
 22 52  1  0
 24 53  1  0
 25 54  1  0
 26 55  1  0
 28 56  1  0
M  END
>  <smiles>  (15) 
O=C(CCCc1nc2c([nH]1)CCNC2)COCCOCC(O)c1cccnc1

>  <score_type>  (15) 
oracle

>  <origin>  (15) 
adg

>  <m_score__min__energy>  (15) 
-8.3900000000000006

>  <m_primary>  (15) 
energy

$$$$
15:0
     RDKit          3D

 67 71  0  0  1  0  0  0  0  0999 V2000
   -6.4910   16.9890  -32.3240 C   0  0  0  0  0  0  0  0  0  0  0  0
   -6.8870   18.3800  -32.3340 N   0  0  0  0  0  0  0  0  0  0  0  0
   -8.1720   18.7050  -32.1140 C   0  0  0  0  0  0  0  0  0  0  0  0
   -9.0810   17.8650  -31.8960 O   0  0  0  0  0  0  0  0  0  0  0  0
   -8.5030   19.9860  -32.1280 N   0  0  0  0  0  0  0  0  0  0  0  0
   -7.6370   20.9810  -32.3480 C   0  0  0  0  0  0  0  0  0  0  0  0
   -8.0480   22.1520  -32.3410 N   0  0  0  0  0  0  0  0  0  0  0  0
   -7.7730   23.4000  -31.8450 C   0  0  0  0  0  0  0  0  0  0  0  0
   -6.7190   23.6570  -30.8950 C   0  0  0  0  0  0  0  0  0  0  0  0
   -6.3070   22.7030  -29.9480 C   0  0  0  0  0  0  0  0  0  0  0  0
   -5.3260   22.9870  -29.0210 C   0  0  0  0  0  0  0  0  0  0  0  0
   -4.7080   24.2180  -28.9840 C   0  0  0  0  0  0  0  0  0  0  0  0
   -3.6930   24.5560  -28.0460 N   0  0  0  0  0  0  0  0  0  0  0  0
   -2.3270   24.6050  -28.4350 C   0  0  0  0  0  0  0  0  0  0  0  0
   -1.9380   24.3570  -29.6070 O   0  0  0  0  0  0  0  0  0  0  0  0
   -1.3420   24.9730  -27.3630 C   0  0  0  0  0  0  0  0  0  0  0  0
   -0.9480   26.4270  -27.4910 C   0  0  0  0  0  0  0  0  0  0  0  0
   -0.2160   26.8110  -26.2250 C   0  0  0  0  0  0  0  0  0  0  0  0
   -1.1080   26.7550  -25.0650 N   0  0  0  0  0  0  0  0  0  0  0  0
   -0.4320   26.1910  -23.9400 C   0  0  0  0  0  0  0  0  0  0  0  0
    1.0290   26.0560  -24.1040 C   0  0  0  0  0  0  0  0  0  0  0  0
    1.9290   27.0780  -23.8900 C   0  0  0  0  0  0  0  0  0  0  0  0
    3.2780   26.8250  -24.0770 C   0  0  0  0  0  0  0  0  0  0  0  0
    3.7560   25.5860  -24.4730 C   0  0  0  0  0  0  0  0  0  0  0  0
    2.8410   24.5570  -24.6890 C   0  0  0  0  0  0  0  0  0  0  0  0
    1.5000   24.8060  -24.5020 C   0  0  0  0  0  0  0  0  0  0  0  0
   -2.3060   26.0340  -25.3860 C   0  0  0  0  0  0  0  0  0  0  0  0
   -2.0300   24.7070  -26.0390 C   0  0  0  0  0  0  0  0  0  0  0  0
   -5.0980   25.1710  -29.9030 C   0  0  0  0  0  0  0  0  0  0  0  0
   -6.0750   24.9070  -30.8360 C   0  0  0  0  0  0  0  0  0  0  0  0
   -6.3190   20.6440  -32.5720 C   0  0  0  0  0  0  0  0  0  0  0  0
   -5.3720   21.6190  -32.8050 C   0  0  0  0  0  0  0  0  0  0  0  0
   -4.0620   21.2480  -33.0260 C   0  0  0  0  0  0  0  0  0  0  0  0
   -3.6900   19.9170  -33.0160 C   0  0  0  0  0  0  0  0  0  0  0  0
   -4.6240   18.9220  -32.7840 C   0  0  0  0  0  0  0  0  0  0  0  0
   -5.9490   19.3150  -32.5620 C   0  0  0  0  0  0  0  0  0  0  0  0
   -6.3926   16.6433  -31.2844 H   0  0  0  0  0  0  0  0  0  0  0  0
   -7.2534   16.3870  -32.8400 H   0  0  0  0  0  0  0  0  0  0  0  0
   -5.5258   16.8788  -32.8400 H   0  0  0  0  0  0  0  0  0  0  0  0
   -9.4830   20.2500  -31.9620 H   0  0  0  0  0  0  0  0  0  0  0  0
   -7.5525   24.0306  -32.7189 H   0  0  0  0  0  0  0  0  0  0  0  0
   -8.6679   23.5946  -31.2357 H   0  0  0  0  0  0  0  0  0  0  0  0
   -6.7772   21.7086  -29.9463 H   0  0  0  0  0  0  0  0  0  0  0  0
   -5.0307   22.2144  -28.2958 H   0  0  0  0  0  0  0  0  0  0  0  0
   -4.0080   24.7660  -27.0600 H   0  0  0  0  0  0  0  0  0  0  0  0
   -0.4169   24.3835  -27.4447 H   0  0  0  0  0  0  0  0  0  0  0  0
   -0.2896   26.5628  -28.3617 H   0  0  0  0  0  0  0  0  0  0  0  0
   -1.8372   27.0590  -27.6321 H   0  0  0  0  0  0  0  0  0  0  0  0
    0.6214   26.1151  -26.0686 H   0  0  0  0  0  0  0  0  0  0  0  0
    0.1538   27.8413  -26.3330 H   0  0  0  0  0  0  0  0  0  0  0  0
   -0.6212   26.8346  -23.0682 H   0  0  0  0  0  0  0  0  0  0  0  0
   -0.8271   25.1717  -23.8183 H   0  0  0  0  0  0  0  0  0  0  0  0
    1.5830   28.0742  -23.5771 H   0  0  0  0  0  0  0  0  0  0  0  0
    3.9976   27.6389  -23.9045 H   0  0  0  0  0  0  0  0  0  0  0  0
    4.8340   25.4183  -24.6138 H   0  0  0  0  0  0  0  0  0  0  0  0
    3.1852   23.5609  -25.0042 H   0  0  0  0  0  0  0  0  0  0  0  0
    0.7781   23.9936  -24.6719 H   0  0  0  0  0  0  0  0  0  0  0  0
   -2.8701   25.8586  -24.4581 H   0  0  0  0  0  0  0  0  0  0  0  0
   -2.8776   26.6431  -26.1018 H   0  0  0  0  0  0  0  0  0  0  0  0
   -1.3768   24.1015  -25.3935 H   0  0  0  0  0  0  0  0  0  0  0  0
   -2.9687   24.1563  -26.1990 H   0  0  0  0  0  0  0  0  0  0  0  0
   -4.6187   26.1610  -29.8896 H   0  0  0  0  0  0  0  0  0  0  0  0
   -6.3592   25.6917  -31.5526 H   0  0  0  0  0  0  0  0  0  0  0  0
   -5.6582   22.6811  -32.8145 H   0  0  0  0  0  0  0  0  0  0  0  0
   -3.3031   22.0220  -33.2127 H   0  0  0  0  0  0  0  0  0  0  0  0
   -2.6392   19.6451  -33.1945 H   0  0  0  0  0  0  0  0  0  0  0  0
   -4.3353   17.8606  -32.7744 H   0  0  0  0  0  0  0  0  0  0  0  0
  1  2  1  0
  2  3  1  0
  3  4  2  0
  3  5  1  0
  5  6  1  0
  6  7  2  0
  7  8  1  0
  8  9  1  0
  9 10  2  0
 10 11  1  0
 11 12  2  0
 12 13  1  0
 13 14  1  0
 14 15  2  0
 14 16  1  0
 16 17  1  0
 17 18  1  0
 18 19  1  0
 19 20  1  0
 20 21  1  0
 21 22  2  0
 22 23  1  0
 23 24  2  0
 24 25  1  0
 25 26  2  0
 19 27  1  0
 27 28  1  0
 12 29  1  0
 29 30  2  0
  6 31  1  0
 31 32  2  0
 32 33  1  0
 33 34  2  0
 34 35  1  0
 35 36  2  0
 36  2  1  0
 30  9  1  0
 36 31  1  0
 28 16  1  0
 26 21  1  0
  1 37  1  0
  1 38  1  0
  1 39  1  0
  5 40  1  0
  8 41  1  0
  8 42  1  0
 10 43  1  0
 11 44  1  0
 13 45  1  0
 16 46  1  0
 17 47  1  0
 17 48  1  0
 18 49  1  0
 18 50  1  0
 20 51  1  0
 20 52  1  0
 22 53  1  0
 23 54  1  0
 24 55  1  0
 25 56  1  0
 26 57  1  0
 27 58  1  0
 27 59  1  0
 28 60  1  0
 28 61  1  0
 29 62  1  0
 30 63  1  0
 32 64  1  0
 33 65  1  0
 34 66  1  0
 35 67  1  0
M  END
>  <smiles>  (16) 
Cn1c(=O)[nH]c(=NCc2ccc(NC(=O)C3CCN(Cc4ccccc4)CC3)cc2)c2ccccc21

>  <score_type>  (16) 
oracle

>  <origin>  (16) 
adg

>  <m_score__min__energy>  (16) 
-10.640000000000001

>  <m_primary>  (16) 
energy

$$$$
16:0
     RDKit          3D

 26 28  0  0  0  0  0  0  0  0999 V2000
   -1.2970   26.0470  -29.3420 O   0  0  0  0  0  0  0  0  0  0  0  0
   -1.1970   24.8910  -28.5740 C   0  0  0  0  0  0  0  0  0  0  0  0
   -0.1430   24.7820  -27.6590 C   0  0  0  0  0  0  0  0  0  0  0  0
   -0.0090   23.6390  -26.8700 C   0  0  0  0  0  0  0  0  0  0  0  0
   -0.9270   22.5970  -26.9900 C   0  0  0  0  0  0  0  0  0  0  0  0
   -1.9830   22.6940  -27.9010 C   0  0  0  0  0  0  0  0  0  0  0  0
   -2.1350   23.8410  -28.7040 C   0  0  0  0  0  0  0  0  0  0  0  0
   -3.2660   23.9170  -29.6620 C   0  0  0  0  0  0  0  0  0  0  0  0
   -3.5100   24.9670  -30.4690 N   0  0  0  0  0  0  0  0  0  0  0  0
   -4.5910   24.6700  -31.1690 N   0  0  0  0  0  0  0  0  0  0  0  0
   -4.9830   23.4440  -30.7730 C   0  0  0  0  0  0  0  0  0  0  0  0
   -6.1630   22.7400  -31.3180 C   0  0  0  0  0  0  0  0  0  0  0  0
   -6.0440   21.4350  -31.8270 C   0  0  0  0  0  0  0  0  0  0  0  0
   -7.1720   20.7870  -32.3360 C   0  0  0  0  0  0  0  0  0  0  0  0
   -8.3780   21.4160  -32.3390 N   0  0  0  0  0  0  0  0  0  0  0  0
   -8.5230   22.6760  -31.8530 C   0  0  0  0  0  0  0  0  0  0  0  0
   -7.4230   23.3610  -31.3350 C   0  0  0  0  0  0  0  0  0  0  0  0
   -4.1740   22.9320  -29.8240 N   0  0  0  0  0  0  0  0  0  0  0  0
    0.5836   25.6021  -27.5615 H   0  0  0  0  0  0  0  0  0  0  0  0
    0.8215   23.5602  -26.1530 H   0  0  0  0  0  0  0  0  0  0  0  0
   -0.8204   21.6968  -26.3668 H   0  0  0  0  0  0  0  0  0  0  0  0
   -2.7021   21.8665  -27.9915 H   0  0  0  0  0  0  0  0  0  0  0  0
   -5.0683   20.9271  -31.8245 H   0  0  0  0  0  0  0  0  0  0  0  0
   -7.0847   19.7657  -32.7353 H   0  0  0  0  0  0  0  0  0  0  0  0
   -9.5114   23.1584  -31.8678 H   0  0  0  0  0  0  0  0  0  0  0  0
   -7.5419   24.3816  -30.9422 H   0  0  0  0  0  0  0  0  0  0  0  0
  1  2  1  0
  2  3  2  0
  3  4  1  0
  4  5  2  0
  5  6  1  0
  6  7  2  0
  7  8  1  0
  8  9  2  0
  9 10  1  0
 10 11  1  0
 11 12  1  0
 12 13  2  0
 13 14  1  0
 14 15  2  0
 15 16  1  0
 16 17  2  0
 11 18  2  0
  7  2  1  0
 18  8  1  0
 17 12  1  0
  3 19  1  0
  4 20  1  0
  5 21  1  0
  6 22  1  0
 13 23  1  0
 14 24  1  0
 16 25  1  0
 17 26  1  0
M  CHG  2   1  -1  10  -1
M  END
>  <UniqueID>  (17) 
14

>  <SMILES>  (17) 
[O-]c1ccccc1-c1n[n-]c(-c2ccncc2)n1

>  <Energy>  (17) 
64.356538237757

>  <Genealogy>  (17) 
[O-]c1ccccc1-c1n[n-]c(-c2ccncc2)n1 (protonated)
[O-]c1ccccc1-c1n[n-]c(-c2ccncc2)n1 (3D coordinates assigned)
[O-]c1ccccc1-c1n[n-]c(-c2ccncc2)n1 (optimized conformer: 64.356538237757 kcal/mol)

>  <smiles>  (17) 
Oc1ccccc1-c1n[nH]c(-c2ccncc2)n1

>  <score_type>  (17) 
oracle

>  <origin>  (17) 
adg

>  <m_score__min__energy>  (17) 
-11.18

>  <m_primary>  (17) 
energy

$$$$
17:0
     RDKit          3D

 31 31  0  0  0  0  0  0  0  0999 V2000
   -3.4526   23.7379  -29.1140 H   0  0  0  0  0  0  0  0  0  0  0  0
   -3.1310   24.7010  -29.5370 C   0  0  0  0  0  0  0  0  0  0  0  0
   -2.1090   25.2780  -29.0850 O   0  0  0  0  0  0  0  0  0  0  0  0
   -3.8720   25.2980  -30.5990 N   0  0  0  0  0  0  0  0  0  0  0  0
   -5.2930   25.0380  -30.8000 C   0  0  0  0  0  0  0  0  0  0  0  0
   -5.7037   25.7925  -31.4871 H   0  0  0  0  0  0  0  0  0  0  0  0
   -5.8012   25.0890  -29.8257 H   0  0  0  0  0  0  0  0  0  0  0  0
   -5.5150   23.6380  -31.3980 C   0  0  2  0  0  0  0  0  0  0  0  0
   -4.7306   23.4385  -32.1430 H   0  0  0  0  0  0  0  0  0  0  0  0
   -6.8300   23.5940  -32.0380 N   0  0  0  0  0  0  0  0  0  0  0  0
   -7.8030   22.8470  -31.6120 C   0  0  0  0  0  0  0  0  0  0  0  0
   -8.5756   23.2821  -30.9610 H   0  0  0  0  0  0  0  0  0  0  0  0
   -7.8870   21.4220  -31.9890 C   0  0  0  0  0  0  0  0  0  0  0  0
   -9.0010   20.6670  -31.5860 C   0  0  0  0  0  0  0  0  0  0  0  0
   -9.7990   21.1415  -30.9960 H   0  0  0  0  0  0  0  0  0  0  0  0
   -9.1010   19.3150  -31.9310 C   0  0  0  0  0  0  0  0  0  0  0  0
   -9.9755   18.7297  -31.6105 H   0  0  0  0  0  0  0  0  0  0  0  0
   -8.0920   18.7070  -32.6820 C   0  0  0  0  0  0  0  0  0  0  0  0
   -8.1730   17.6442  -32.9536 H   0  0  0  0  0  0  0  0  0  0  0  0
   -6.9800   19.4490  -33.0880 C   0  0  0  0  0  0  0  0  0  0  0  0
   -6.1856   18.9691  -33.6785 H   0  0  0  0  0  0  0  0  0  0  0  0
   -6.8750   20.8010  -32.7450 C   0  0  0  0  0  0  0  0  0  0  0  0
   -5.9979   21.3813  -33.0674 H   0  0  0  0  0  0  0  0  0  0  0  0
   -5.4230   22.5570  -30.3090 C   0  0  0  0  0  0  0  0  0  0  0  0
   -6.4122   22.0981  -30.1645 H   0  0  0  0  0  0  0  0  0  0  0  0
   -5.0881   23.0158  -29.3670 H   0  0  0  0  0  0  0  0  0  0  0  0
   -4.4970   21.5640  -30.7020 O   0  0  0  0  0  0  0  0  0  0  0  0
   -3.8160   21.9910  -31.8600 C   0  0  0  0  0  0  0  0  0  0  0  0
   -2.9171   22.5547  -31.5698 H   0  0  0  0  0  0  0  0  0  0  0  0
   -3.5226   21.1148  -32.4569 H   0  0  0  0  0  0  0  0  0  0  0  0
   -4.4769   22.6367  -32.4569 H   0  0  0  0  0  0  0  0  0  0  0  0
  1  2  1  0
  2  3  2  0
  2  4  1  0
  4  5  1  0
  5  6  1  0
  5  7  1  0
  5  8  1  0
  8  9  1  6
  8 10  1  0
 10 11  2  0
 11 12  1  0
 11 13  1  0
 13 14  2  0
 14 15  1  0
 14 16  1  0
 16 17  1  0
 16 18  2  0
 18 19  1  0
 18 20  1  0
 20 21  1  0
 20 22  2  0
 22 23  1  0
  8 24  1  0
 24 25  1  0
 24 26  1  0
 24 27  1  0
 27 28  1  0
 28 29  1  0
 28 30  1  0
 28 31  1  0
 22 13  1  0
M  CHG  1   4  -1
M  END
>  <UniqueID>  (18) 
15

>  <SMILES>  (18) 
COC[C@H](C[N-]C=O)/N=C/c1ccccc1

>  <Energy>  (18) 
21.982001220935256

>  <Genealogy>  (18) 
COCC(C[N-]C=O)N=Cc1ccccc1 (protonated)
COC[C@H](C[N-]C=O)N=Cc1ccccc1 (chirality)
COC[C@H](C[N-]C=O)/N=C/c1ccccc1 (cis-trans isomerization)
COC[C@H](C[N-]C=O)/N=C/c1ccccc1 (3D coordinates assigned)
COC[C@H](C[N-]C=O)/N=C/c1ccccc1 (optimized conformer: 21.982001220935256 kcal/mol)

>  <smiles>  (18) 
COCC(CNC=O)N=Cc1ccccc1

>  <score_type>  (18) 
oracle

>  <origin>  (18) 
adg

>  <m_score__min__energy>  (18) 
-7.8200000000000003

>  <m_primary>  (18) 
energy

$$$$
18:0
     RDKit          3D

 65 70  0  0  0  0  0  0  0  0999 V2000
   -0.9850   20.6750  -32.2050 H   0  0  0  0  0  0  0  0  0  0  0  0
   -1.5640   21.2650  -31.6580 O   0  0  0  0  0  0  0  0  0  0  0  0
   -2.5550   20.4510  -31.0950 C   0  0  0  0  0  0  0  0  0  0  0  0
   -2.3091   20.2598  -30.0400 H   0  0  0  0  0  0  0  0  0  0  0  0
   -2.5959   19.5049  -31.6546 H   0  0  0  0  0  0  0  0  0  0  0  0
   -3.9120   21.1250  -31.1760 C   0  0  0  0  0  0  0  0  0  0  0  0
   -4.9050   20.6430  -32.0670 C   0  0  0  0  0  0  0  0  0  0  0  0
   -4.6820   19.4590  -32.9210 C   0  0  0  0  0  0  0  0  0  0  0  0
   -5.7210   18.5500  -33.1560 C   0  0  0  0  0  0  0  0  0  0  0  0
   -6.7111   18.7215  -32.7085 H   0  0  0  0  0  0  0  0  0  0  0  0
   -5.5040   17.4260  -33.9570 C   0  0  0  0  0  0  0  0  0  0  0  0
   -6.7980   16.2710  -34.2150 Cl  0  0  0  0  0  0  0  0  0  0  0  0
   -4.2520   17.2170  -34.5470 C   0  0  0  0  0  0  0  0  0  0  0  0
   -4.0770   16.3188  -35.1575 H   0  0  0  0  0  0  0  0  0  0  0  0
   -3.2160   18.1520  -34.3620 C   0  0  0  0  0  0  0  0  0  0  0  0
   -1.9130   17.9740  -34.9440 N   0  0  0  0  0  0  0  0  0  0  0  0
   -0.8510   18.6880  -34.7100 C   0  0  0  0  0  0  0  0  0  0  0  0
   -0.4600   18.9780  -33.4370 N   0  0  0  0  0  0  0  0  0  0  0  0
    0.6650   19.7030  -33.1890 C   0  0  0  0  0  0  0  0  0  0  0  0
    1.0470   20.0040  -31.8790 O   0  0  0  0  0  0  0  0  0  0  0  0
    0.7160   19.1720  -30.7730 C   0  0  0  0  0  0  0  0  0  0  0  0
    0.9287   19.7066  -29.8354 H   0  0  0  0  0  0  0  0  0  0  0  0
   -0.3528   18.9152  -30.8143 H   0  0  0  0  0  0  0  0  0  0  0  0
    1.3163   18.2511  -30.8143 H   0  0  0  0  0  0  0  0  0  0  0  0
    1.4440   20.1490  -34.2560 C   0  0  0  0  0  0  0  0  0  0  0  0
    2.3570   20.7363  -34.0786 H   0  0  0  0  0  0  0  0  0  0  0  0
    1.0400   19.8340  -35.5530 C   0  0  0  0  0  0  0  0  0  0  0  0
    1.6379   20.1712  -36.4126 H   0  0  0  0  0  0  0  0  0  0  0  0
   -0.0930   19.1100  -35.7550 N   0  0  0  0  0  0  0  0  0  0  0  0
   -3.4330   19.2560  -33.5270 C   0  0  0  0  0  0  0  0  0  0  0  0
   -2.6165   19.9702  -33.3449 H   0  0  0  0  0  0  0  0  0  0  0  0
   -6.1370   21.3070  -32.1630 C   0  0  0  0  0  0  0  0  0  0  0  0
   -6.8985   20.9432  -32.8685 H   0  0  0  0  0  0  0  0  0  0  0  0
   -6.4050   22.4230  -31.3730 C   0  0  0  0  0  0  0  0  0  0  0  0
   -7.3756   22.9340  -31.4552 H   0  0  0  0  0  0  0  0  0  0  0  0
   -5.4460   22.8920  -30.4800 C   0  0  0  0  0  0  0  0  0  0  0  0
   -5.6647   23.7719  -29.8571 H   0  0  0  0  0  0  0  0  0  0  0  0
   -4.2050   22.2530  -30.3680 C   0  0  0  0  0  0  0  0  0  0  0  0
   -3.2460   22.7820  -29.4400 N   0  0  0  0  0  0  0  0  0  0  0  0
   -2.8840   24.1730  -29.4820 C   0  0  0  0  0  0  0  0  0  0  0  0
   -3.2250   24.9110  -30.4460 O   0  0  0  0  0  0  0  0  0  0  0  0
   -2.1260   24.7050  -28.3540 C   0  0  0  0  0  0  0  0  0  0  0  0
   -1.6160   25.9830  -28.1850 C   0  0  0  0  0  0  0  0  0  0  0  0
   -1.6666   26.8243  -28.8919 H   0  0  0  0  0  0  0  0  0  0  0  0
   -1.0290   25.9680  -26.9310 C   0  0  0  0  0  0  0  0  0  0  0  0
   -1.2400   24.7190  -26.3870 C   0  0  0  0  0  0  0  0  0  0  0  0
   -1.8770   23.9360  -27.2780 N   0  0  0  0  0  0  0  0  0  0  0  0
   -2.4060   22.5820  -27.0970 C   0  0  0  0  0  0  0  0  0  0  0  0
   -3.3771   22.6379  -26.5833 H   0  0  0  0  0  0  0  0  0  0  0  0
   -1.6936   21.9979  -26.4959 H   0  0  0  0  0  0  0  0  0  0  0  0
   -2.5930   21.8900  -28.4650 C   0  0  0  0  0  0  0  0  0  0  0  0
   -3.2153   20.9931  -28.3292 H   0  0  0  0  0  0  0  0  0  0  0  0
   -1.5993   21.6237  -28.8543 H   0  0  0  0  0  0  0  0  0  0  0  0
   -0.7510   24.3080  -25.0280 C   0  0  0  0  0  0  0  0  0  0  0  0
   -1.5323   23.7184  -24.5260 H   0  0  0  0  0  0  0  0  0  0  0  0
    0.1626   23.7071  -25.1473 H   0  0  0  0  0  0  0  0  0  0  0  0
   -0.4220   25.5460  -24.1710 C   0  0  0  0  0  0  0  0  0  0  0  0
   -1.3625   25.9986  -23.8237 H   0  0  0  0  0  0  0  0  0  0  0  0
    0.1970   25.2194  -23.3224 H   0  0  0  0  0  0  0  0  0  0  0  0
    0.3750   26.6000  -24.9680 C   0  0  0  0  0  0  0  0  0  0  0  0
    0.6056   27.4482  -24.3066 H   0  0  0  0  0  0  0  0  0  0  0  0
    1.2971   26.1271  -25.3370 H   0  0  0  0  0  0  0  0  0  0  0  0
   -0.4210   27.1150  -26.1820 C   0  0  0  0  0  0  0  0  0  0  0  0
   -1.2206   27.7853  -25.8336 H   0  0  0  0  0  0  0  0  0  0  0  0
    0.2612   27.6582  -26.8524 H   0  0  0  0  0  0  0  0  0  0  0  0
  1  2  1  0
  2  3  1  0
  3  4  1  0
  3  5  1  0
  3  6  1  0
  6  7  2  0
  7  8  1  0
  8  9  2  0
  9 10  1  0
  9 11  1  0
 11 12  1  0
 11 13  2  0
 13 14  1  0
 13 15  1  0
 15 16  1  0
 16 17  2  0
 17 18  1  0
 18 19  2  0
 19 20  1  0
 20 21  1  0
 21 22  1  0
 21 23  1  0
 21 24  1  0
 19 25  1  0
 25 26  1  0
 25 27  2  0
 27 28  1  0
 27 29  1  0
 15 30  2  0
 30 31  1  0
  7 32  1  0
 32 33  1  0
 32 34  2  0
 34 35  1  0
 34 36  1  0
 36 37  1  0
 36 38  2  0
 38 39  1  0
 39 40  1  0
 40 41  2  0
 40 42  1  0
 42 43  2  0
 43 44  1  0
 43 45  1  0
 45 46  2  0
 46 47  1  0
 47 48  1  0
 48 49  1  0
 48 50  1  0
 48 51  1  0
 51 52  1  0
 51 53  1  0
 46 54  1  0
 54 55  1  0
 54 56  1  0
 54 57  1  0
 57 58  1  0
 57 59  1  0
 57 60  1  0
 60 61  1  0
 60 62  1  0
 60 63  1  0
 63 64  1  0
 63 65  1  0
 38  6  1  0
 51 39  1  0
 30  8  1  0
 47 42  1  0
 29 17  1  0
 63 45  1  0
M  CHG  1  29  -1
M  END
>  <UniqueID>  (19) 
16

>  <SMILES>  (19) 
COc1cc[n-]/c(=N/c2cc(Cl)cc(-c3cccc(N4CCn5c(cc6c5CCCC6)C4=O)c3CO)c2)n1

>  <Energy>  (19) 
119.7780030032772

>  <Genealogy>  (19) 
COc1cc[n-]c(=Nc2cc(Cl)cc(-c3cccc(N4CCn5c(cc6c5CCCC6)C4=O)c3CO)c2)n1 (protonated)
COc1cc[n-]/c(=N/c2cc(Cl)cc(-c3cccc(N4CCn5c(cc6c5CCCC6)C4=O)c3CO)c2)n1 (cis-trans isomerization)
COc1cc[n-]/c(=N/c2cc(Cl)cc(-c3cccc(N4CCn5c(cc6c5CCCC6)C4=O)c3CO)c2)n1 (3D coordinates assigned)
COc1cc[n-]/c(=N/c2cc(Cl)cc(-c3cccc(N4CCn5c(cc6c5CCCC6)C4=O)c3CO)c2)n1 (nonaromatic ring conformer: 119.7780030032772 kcal/mol)

>  <smiles>  (19) 
COc1cc[nH]c(=Nc2cc(Cl)cc(-c3cccc(N4CCn5c(cc6c5CCCC6)C4=O)c3CO)c2)n1

>  <score_type>  (19) 
oracle

>  <origin>  (19) 
adg

>  <m_score__min__energy>  (19) 
-11.119999999999999

>  <m_primary>  (19) 
energy

$$$$
19:0
     RDKit          3D

 45 47  0  0  0  0  0  0  0  0999 V2000
   -2.7300   24.5920  -27.2270 C   0  0  0  0  0  0  0  0  0  0  0  0
   -1.9890   24.6730  -28.5880 C   0  0  0  0  0  0  0  0  0  0  0  0
   -2.3810   23.8780  -29.5240 O   0  0  0  0  0  0  0  0  0  0  0  0
   -2.7460   23.0470  -30.4480 C   0  0  0  0  0  0  0  0  0  0  0  0
   -1.9390   21.8940  -30.6690 C   0  0  0  0  0  0  0  0  0  0  0  0
   -2.3910   21.0400  -31.6600 C   0  0  0  0  0  0  0  0  0  0  0  0
   -3.5670   21.2490  -32.4170 C   0  0  0  0  0  0  0  0  0  0  0  0
   -3.9470   20.2240  -33.4650 C   0  0  0  0  0  0  0  0  0  0  0  0
   -4.8270   19.2110  -32.6410 N   0  0  0  0  0  0  0  0  0  0  0  0
   -6.0170   19.7100  -32.4450 C   0  0  0  0  0  0  0  0  0  0  0  0
   -6.6850   18.1220  -32.4420 C   0  0  0  0  0  0  0  0  0  0  0  0
   -7.9380   17.8900  -32.2810 C   0  0  0  0  0  0  0  0  0  0  0  0
   -8.9840   18.7700  -32.0800 C   0  0  0  0  0  0  0  0  0  0  0  0
   -8.4690   20.0670  -32.0730 N   0  0  0  0  0  0  0  0  0  0  0  0
   -9.1670   21.1890  -31.9160 N   0  0  0  0  0  0  0  0  0  0  0  0
   -8.1970   22.1620  -31.9940 C   0  0  0  0  0  0  0  0  0  0  0  0
   -8.5210   23.4330  -31.9070 N   0  0  0  0  0  0  0  0  0  0  0  0
   -7.0580   21.6700  -32.1700 N   0  0  0  0  0  0  0  0  0  0  0  0
   -7.2230   20.1980  -32.2440 C   0  0  0  0  0  0  0  0  0  0  0  0
   -4.2490   22.3330  -32.1530 C   0  0  0  0  0  0  0  0  0  0  0  0
   -3.9070   23.2380  -31.2180 C   0  0  0  0  0  0  0  0  0  0  0  0
   -4.5980   24.4370  -30.8370 O   0  0  0  0  0  0  0  0  0  0  0  0
   -5.1830   25.3940  -30.5300 C   0  0  0  0  0  0  0  0  0  0  0  0
   -6.3540   25.6600  -29.6480 C   0  0  0  0  0  0  0  0  0  0  0  0
   -2.0009   24.6717  -26.4072 H   0  0  0  0  0  0  0  0  0  0  0  0
   -3.4548   25.4163  -27.1545 H   0  0  0  0  0  0  0  0  0  0  0  0
   -3.2596   23.6306  -27.1545 H   0  0  0  0  0  0  0  0  0  0  0  0
   -2.0969   25.7018  -28.9619 H   0  0  0  0  0  0  0  0  0  0  0  0
   -0.9578   24.3607  -28.3665 H   0  0  0  0  0  0  0  0  0  0  0  0
   -1.0226   21.6966  -30.0935 H   0  0  0  0  0  0  0  0  0  0  0  0
   -1.7963   20.1394  -31.8728 H   0  0  0  0  0  0  0  0  0  0  0  0
   -4.5260   20.6833  -34.2798 H   0  0  0  0  0  0  0  0  0  0  0  0
   -3.0817   19.7562  -33.9573 H   0  0  0  0  0  0  0  0  0  0  0  0
   -4.2080   18.4420  -32.4410 H   0  0  0  0  0  0  0  0  0  0  0  0
   -6.0072   17.2674  -32.5845 H   0  0  0  0  0  0  0  0  0  0  0  0
   -8.2219   16.8276  -32.3072 H   0  0  0  0  0  0  0  0  0  0  0  0
  -10.0410   18.4955  -31.9482 H   0  0  0  0  0  0  0  0  0  0  0  0
  -10.1730   21.3220  -31.7610 H   0  0  0  0  0  0  0  0  0  0  0  0
   -9.0210   23.7870  -32.7700 H   0  0  0  0  0  0  0  0  0  0  0  0
   -5.1642   22.5175  -32.7347 H   0  0  0  0  0  0  0  0  0  0  0  0
   -4.3993   26.0345  -30.0992 H   0  0  0  0  0  0  0  0  0  0  0  0
   -5.7453   25.4754  -31.4719 H   0  0  0  0  0  0  0  0  0  0  0  0
   -6.0435   25.5895  -28.5951 H   0  0  0  0  0  0  0  0  0  0  0  0
   -6.7426   26.6693  -29.8489 H   0  0  0  0  0  0  0  0  0  0  0  0
   -7.1405   24.9176  -29.8489 H   0  0  0  0  0  0  0  0  0  0  0  0
  1  2  1  0
  2  3  1  0
  3  4  1  0
  4  5  2  0
  5  6  1  0
  6  7  2  0
  7  8  1  0
  8  9  1  0
  9 10  1  0
 10 11  2  0
 11 12  1  0
 12 13  2  0
 13 14  1  0
 14 15  1  0
 15 16  1  0
 16 17  2  3
 16 18  1  0
 18 19  2  0
  7 20  1  0
 20 21  2  0
 21 22  1  0
 22 23  1  0
 23 24  1  0
 21  4  1  0
 19 10  1  0
 19 14  1  0
  1 25  1  0
  1 26  1  0
  1 27  1  0
  2 28  1  0
  2 29  1  0
  5 30  1  0
  6 31  1  0
  8 32  1  0
  8 33  1  0
  9 34  1  0
 11 35  1  0
 12 36  1  0
 13 37  1  0
 15 38  1  0
 17 39  1  0
 20 40  1  0
 23 41  1  0
 23 42  1  0
 24 43  1  0
 24 44  1  0
 24 45  1  0
M  END
>  <smiles>  (20) 
CCOc1ccc(CNc2cccn3[nH]c(=N)nc23)cc1OCC

>  <score_type>  (20) 
oracle

>  <origin>  (20) 
adg

>  <m_score__min__energy>  (20) 
-6.7199999999999998

>  <m_primary>  (20) 
energy

$$$$
20:0
     RDKit          3D

 40 42  0  0  0  0  0  0  0  0999 V2000
   -8.2480   22.3790  -30.6650 O   0  0  0  0  0  0  0  0  0  0  0  0
   -7.1230   22.9470  -30.7290 C   0  0  0  0  0  0  0  0  0  0  0  0
   -6.7850   24.0270  -29.7490 C   0  0  0  0  0  0  0  0  0  0  0  0
   -5.3430   24.4070  -29.8790 C   0  0  0  0  0  0  0  0  0  0  0  0
   -4.8470   25.1660  -30.8840 N   0  0  0  0  0  0  0  0  0  0  0  0
   -3.5270   25.2640  -30.7440 N   0  0  0  0  0  0  0  0  0  0  0  0
   -3.1870   24.5570  -29.6520 C   0  0  0  0  0  0  0  0  0  0  0  0
   -1.9130   24.3640  -29.1230 C   0  0  0  0  0  0  0  0  0  0  0  0
   -1.7990   23.5650  -27.9700 C   0  0  0  0  0  0  0  0  0  0  0  0
   -2.9480   22.9860  -27.3810 C   0  0  0  0  0  0  0  0  0  0  0  0
   -4.2210   23.2010  -27.9400 C   0  0  0  0  0  0  0  0  0  0  0  0
   -4.2950   23.9980  -29.0830 C   0  0  0  0  0  0  0  0  0  0  0  0
   -6.1870   22.5840  -31.7520 N   0  0  0  0  0  0  0  0  0  0  0  0
   -6.4810   21.5230  -32.7160 C   0  0  0  0  0  0  0  0  0  0  0  0
   -5.2240   20.7130  -33.0810 C   0  0  0  0  0  0  0  0  0  0  0  0
   -4.0030   21.3020  -32.4880 N   0  0  0  0  0  0  0  0  0  0  0  0
   -2.8380   21.1810  -33.3950 C   0  0  0  0  0  0  0  0  0  0  0  0
   -1.5170   21.4670  -32.6540 C   0  0  0  0  0  0  0  0  0  0  0  0
   -1.7610   22.1590  -31.4470 O   0  0  0  0  0  0  0  0  0  0  0  0
   -2.4620   21.3170  -30.5490 C   0  0  0  0  0  0  0  0  0  0  0  0
   -3.7030   20.6620  -31.1950 C   0  0  0  0  0  0  0  0  0  0  0  0
   -7.4127   24.9081  -29.9478 H   0  0  0  0  0  0  0  0  0  0  0  0
   -6.9695   23.6583  -28.7292 H   0  0  0  0  0  0  0  0  0  0  0  0
   -1.0274   24.8199  -29.5898 H   0  0  0  0  0  0  0  0  0  0  0  0
   -0.8092   23.3893  -27.5233 H   0  0  0  0  0  0  0  0  0  0  0  0
   -2.8451   22.3635  -26.4799 H   0  0  0  0  0  0  0  0  0  0  0  0
   -5.1233   22.7579  -27.4932 H   0  0  0  0  0  0  0  0  0  0  0  0
   -5.2870   23.1100  -31.8080 H   0  0  0  0  0  0  0  0  0  0  0  0
   -7.2276   20.8432  -32.2796 H   0  0  0  0  0  0  0  0  0  0  0  0
   -6.8613   21.9936  -33.6346 H   0  0  0  0  0  0  0  0  0  0  0  0
   -5.3414   19.6849  -32.7079 H   0  0  0  0  0  0  0  0  0  0  0  0
   -5.1140   20.7246  -34.1754 H   0  0  0  0  0  0  0  0  0  0  0  0
   -2.8061   20.1597  -33.8025 H   0  0  0  0  0  0  0  0  0  0  0  0
   -2.9493   21.9198  -34.2024 H   0  0  0  0  0  0  0  0  0  0  0  0
   -1.0157   20.5141  -32.4289 H   0  0  0  0  0  0  0  0  0  0  0  0
   -0.8791   22.0914  -33.2968 H   0  0  0  0  0  0  0  0  0  0  0  0
   -1.7821   20.5227  -30.2072 H   0  0  0  0  0  0  0  0  0  0  0  0
   -2.8114   21.9397  -29.7122 H   0  0  0  0  0  0  0  0  0  0  0  0
   -3.5061   19.5919  -31.3566 H   0  0  0  0  0  0  0  0  0  0  0  0
   -4.5653   20.7888  -30.5239 H   0  0  0  0  0  0  0  0  0  0  0  0
  1  2  2  0
  2  3  1  0
  3  4  1  0
  4  5  2  0
  5  6  1  0
  6  7  1  0
  7  8  2  0
  8  9  1  0
  9 10  2  0
 10 11  1  0
 11 12  2  0
  2 13  1  0
 13 14  1  0
 14 15  1  0
 15 16  1  0
 16 17  1  0
 17 18  1  0
 18 19  1  0
 19 20  1  0
 20 21  1  0
 12  4  1  0
 21 16  1  0
 12  7  1  0
  3 22  1  0
  3 23  1  0
  8 24  1  0
  9 25  1  0
 10 26  1  0
 11 27  1  0
 13 28  1  0
 14 29  1  0
 14 30  1  0
 15 31  1  0
 15 32  1  0
 17 33  1  0
 17 34  1  0
 18 35  1  0
 18 36  1  0
 20 37  1  0
 20 38  1  0
 21 39  1  0
 21 40  1  0
M  CHG  1   6  -1
M  END
>  <UniqueID>  (21) 
17

>  <SMILES>  (21) 
O=C(Cc1n[n-]c2ccccc12)NCCN1CCOCC1

>  <Energy>  (21) 
83.21353152265915

>  <Genealogy>  (21) 
O=C(Cc1n[n-]c2ccccc12)NCCN1CCOCC1 (protonated)
O=C(Cc1n[n-]c2ccccc12)NCCN1CCOCC1 (3D coordinates assigned)
O=C(Cc1n[n-]c2ccccc12)NCCN1CCOCC1 (nonaromatic ring conformer: 83.21353152265915 kcal/mol)

>  <smiles>  (21) 
O=C(Cc1n[nH]c2ccccc12)NCCN1CCOCC1

>  <score_type>  (21) 
oracle

>  <origin>  (21) 
adg

>  <m_score__min__energy>  (21) 
-9.2300000000000004

>  <m_primary>  (21) 
energy

$$$$
21:0
     RDKit          3D

 41 45  0  0  0  0  0  0  0  0999 V2000
   -9.4380   21.5930  -30.5870 C   0  0  0  0  0  0  0  0  0  0  0  0
   -8.8420   21.3590  -31.8590 O   0  0  0  0  0  0  0  0  0  0  0  0
   -8.0470   20.2510  -32.1900 C   0  0  0  0  0  0  0  0  0  0  0  0
   -8.6340   18.9730  -32.3140 C   0  0  0  0  0  0  0  0  0  0  0  0
   -7.8860   17.8730  -32.7170 C   0  0  0  0  0  0  0  0  0  0  0  0
   -6.5390   18.0160  -33.0180 C   0  0  0  0  0  0  0  0  0  0  0  0
   -5.9180   19.2640  -32.8910 C   0  0  0  0  0  0  0  0  0  0  0  0
   -6.6490   20.4090  -32.4350 C   0  0  0  0  0  0  0  0  0  0  0  0
   -5.9400   21.6560  -32.2610 C   0  0  0  0  0  0  0  0  0  0  0  0
   -6.5340   22.9060  -31.6360 C   0  0  0  0  0  0  0  0  0  0  0  0
   -5.5050   23.7630  -30.9420 C   0  0  0  0  0  0  0  0  0  0  0  0
   -5.2900   25.1150  -31.1900 C   0  0  0  0  0  0  0  0  0  0  0  0
   -4.2520   25.5770  -30.4590 N   0  0  0  0  0  0  0  0  0  0  0  0
   -3.7890   24.5240  -29.7670 C   0  0  0  0  0  0  0  0  0  0  0  0
   -2.7050   24.5090  -28.8910 C   0  0  0  0  0  0  0  0  0  0  0  0
   -2.3640   23.2870  -28.2860 C   0  0  0  0  0  0  0  0  0  0  0  0
   -3.1000   22.1170  -28.5740 C   0  0  0  0  0  0  0  0  0  0  0  0
   -2.6570   20.5980  -27.8190 Cl  0  0  0  0  0  0  0  0  0  0  0  0
   -4.1870   22.1620  -29.4660 C   0  0  0  0  0  0  0  0  0  0  0  0
   -4.5160   23.3920  -30.0420 C   0  0  0  0  0  0  0  0  0  0  0  0
   -4.5810   21.7260  -32.6410 C   0  0  0  0  0  0  0  0  0  0  0  0
   -3.9670   20.6090  -33.0910 N   0  0  0  0  0  0  0  0  0  0  0  0
   -2.7030   20.3670  -33.4800 C   0  0  0  0  0  0  0  0  0  0  0  0
   -1.5000   21.4760  -33.5210 S   0  0  0  0  0  0  0  0  0  0  0  0
   -2.5430   19.0720  -33.8250 N   0  0  0  0  0  0  0  0  0  0  0  0
   -3.7190   18.4760  -33.6540 N   0  0  0  0  0  0  0  0  0  0  0  0
   -4.5680   19.4240  -33.2080 C   0  0  0  0  0  0  0  0  0  0  0  0
   -8.7292   21.3147  -29.7932 H   0  0  0  0  0  0  0  0  0  0  0  0
   -9.6944   22.6585  -30.4926 H   0  0  0  0  0  0  0  0  0  0  0  0
  -10.3508   20.9865  -30.4926 H   0  0  0  0  0  0  0  0  0  0  0  0
   -9.7029   18.8455  -32.0875 H   0  0  0  0  0  0  0  0  0  0  0  0
   -8.3636   16.8854  -32.7976 H   0  0  0  0  0  0  0  0  0  0  0  0
   -5.9575   17.1461  -33.3574 H   0  0  0  0  0  0  0  0  0  0  0  0
   -7.0100   23.5021  -32.4285 H   0  0  0  0  0  0  0  0  0  0  0  0
   -7.2592   22.5812  -30.8754 H   0  0  0  0  0  0  0  0  0  0  0  0
   -5.8843   25.7248  -31.8864 H   0  0  0  0  0  0  0  0  0  0  0  0
   -3.8770   26.5520  -30.4530 H   0  0  0  0  0  0  0  0  0  0  0  0
   -2.1340   25.4252  -28.6797 H   0  0  0  0  0  0  0  0  0  0  0  0
   -1.5185   23.2419  -27.5838 H   0  0  0  0  0  0  0  0  0  0  0  0
   -4.7617   21.2546  -29.7034 H   0  0  0  0  0  0  0  0  0  0  0  0
   -4.0305   22.6758  -32.5717 H   0  0  0  0  0  0  0  0  0  0  0  0
  1  2  1  0
  2  3  1  0
  3  4  2  0
  4  5  1  0
  5  6  2  0
  6  7  1  0
  7  8  2  0
  8  9  1  0
  9 10  1  0
 10 11  1  0
 11 12  2  0
 12 13  1  0
 13 14  1  0
 14 15  2  0
 15 16  1  0
 16 17  2  0
 17 18  1  0
 17 19  1  0
 19 20  2  0
  9 21  2  0
 21 22  1  0
 22 23  1  0
 23 24  2  0
 23 25  1  0
 25 26  1  0
 26 27  2  0
  8  3  1  0
 20 11  1  0
 27 22  1  0
 27  7  1  0
 20 14  1  0
  1 28  1  0
  1 29  1  0
  1 30  1  0
  4 31  1  0
  5 32  1  0
  6 33  1  0
 10 34  1  0
 10 35  1  0
 12 36  1  0
 13 37  1  0
 15 38  1  0
 16 39  1  0
 19 40  1  0
 21 41  1  0
M  CHG  1  25  -1
M  END
>  <UniqueID>  (22) 
18

>  <SMILES>  (22) 
COc1cccc2c1c(Cc1c[nH]c3ccc(Cl)cc13)cn1c(=S)[n-]nc21

>  <Energy>  (22) 
131.21905821207042

>  <Genealogy>  (22) 
COc1cccc2c1c(Cc1c[nH]c3ccc(Cl)cc13)cn1c(=S)[n-]nc21 (protonated)
COc1cccc2c1c(Cc1c[nH]c3ccc(Cl)cc13)cn1c(=S)[n-]nc21 (3D coordinates assigned)
COc1cccc2c1c(Cc1c[nH]c3ccc(Cl)cc13)cn1c(=S)[n-]nc21 (optimized conformer: 131.21905821207042 kcal/mol)

>  <smiles>  (22) 
COc1cccc2c1c(Cc1c[nH]c3ccc(Cl)cc13)cn1c(=S)[nH]nc21

>  <score_type>  (22) 
oracle

>  <origin>  (22) 
adg

>  <m_score__min__energy>  (22) 
-10.15

>  <m_primary>  (22) 
energy

$$$$
22:0
     RDKit          3D

 23 24  0  0  0  0  0  0  0  0999 V2000
   -5.9370   18.7230  -34.7720 Cl  0  0  0  0  0  0  0  0  0  0  0  0
   -5.8330   17.8250  -33.2650 C   0  0  0  0  0  0  0  0  0  0  0  0
   -5.1220   16.6690  -33.2520 N   0  0  0  0  0  0  0  0  0  0  0  0
   -5.0570   15.8950  -32.1370 C   0  0  0  0  0  0  0  0  0  0  0  0
   -4.2670   14.6200  -32.1580 C   0  0  0  0  0  0  0  0  0  0  0  0
   -2.6620   14.9040  -32.8750 Cl  0  0  0  0  0  0  0  0  0  0  0  0
   -5.1310   13.3880  -33.1110 Cl  0  0  0  0  0  0  0  0  0  0  0  0
   -5.7370   16.2780  -31.0220 N   0  0  0  0  0  0  0  0  0  0  0  0
   -6.4440   17.4080  -31.0100 N   0  0  0  0  0  0  0  0  0  0  0  0
   -6.5120   18.2200  -32.0990 C   0  0  0  0  0  0  0  0  0  0  0  0
   -7.3070   19.4630  -32.0140 C   0  0  0  0  0  0  0  0  0  0  0  0
   -6.6550   20.7070  -31.9690 C   0  0  0  0  0  0  0  0  0  0  0  0
   -7.3970   21.8920  -31.9140 C   0  0  0  0  0  0  0  0  0  0  0  0
   -8.7930   21.8450  -31.9200 C   0  0  0  0  0  0  0  0  0  0  0  0
   -9.4500   20.6140  -31.9860 C   0  0  0  0  0  0  0  0  0  0  0  0
   -8.7130   19.4260  -32.0400 C   0  0  0  0  0  0  0  0  0  0  0  0
   -4.1435   14.2644  -31.1244 H   0  0  0  0  0  0  0  0  0  0  0  0
   -5.7150   15.6900  -30.1590 H   0  0  0  0  0  0  0  0  0  0  0  0
   -5.5558   20.7494  -31.9771 H   0  0  0  0  0  0  0  0  0  0  0  0
   -6.8803   22.8619  -31.8660 H   0  0  0  0  0  0  0  0  0  0  0  0
   -9.3750   22.7773  -31.8728 H   0  0  0  0  0  0  0  0  0  0  0  0
  -10.5494   20.5786  -31.9955 H   0  0  0  0  0  0  0  0  0  0  0  0
   -9.2348   18.4597  -32.1030 H   0  0  0  0  0  0  0  0  0  0  0  0
  1  2  1  0
  2  3  2  0
  3  4  1  0
  4  5  1  0
  5  6  1  0
  5  7  1  0
  4  8  2  0
  8  9  1  0
  9 10  2  0
 10 11  1  0
 11 12  2  0
 12 13  1  0
 13 14  2  0
 14 15  1  0
 15 16  2  0
 10  2  1  0
 16 11  1  0
  5 17  1  0
  8 18  1  0
 12 19  1  0
 13 20  1  0
 14 21  1  0
 15 22  1  0
 16 23  1  0
M  CHG  1   8   1
M  END
>  <UniqueID>  (23) 
19

>  <SMILES>  (23) 
Clc1nc(C(Cl)Cl)[nH+]nc1-c1ccccc1

>  <Energy>  (23) 
30.526581041369923

>  <Genealogy>  (23) 
Clc1nc(C(Cl)Cl)[nH+]nc1-c1ccccc1 (protonated)
Clc1nc(C(Cl)Cl)[nH+]nc1-c1ccccc1 (3D coordinates assigned)
Clc1nc(C(Cl)Cl)[nH+]nc1-c1ccccc1 (optimized conformer: 30.526581041369923 kcal/mol)

>  <smiles>  (23) 
Clc1nc(C(Cl)Cl)nnc1-c1ccccc1

>  <score_type>  (23) 
oracle

>  <origin>  (23) 
adg

>  <m_score__min__energy>  (23) 
-6.25

>  <m_primary>  (23) 
energy

$$$$
23:0
     RDKit          3D

 29 30  0  0  0  0  0  0  0  0999 V2000
   -3.4220   23.8990  -30.8680 O   0  0  0  0  0  0  0  0  0  0  0  0
   -4.4880   23.7840  -30.2040 C   0  0  0  0  0  0  0  0  0  0  0  0
   -4.4440   23.3380  -28.8380 N   0  0  0  0  0  0  0  0  0  0  0  0
   -3.3160   22.6670  -28.2500 C   0  0  0  0  0  0  0  0  0  0  0  0
   -2.0590   23.2920  -28.1550 C   0  0  0  0  0  0  0  0  0  0  0  0
   -0.9710   22.6090  -27.6030 C   0  0  0  0  0  0  0  0  0  0  0  0
    0.5920   23.3970  -27.4850 Cl  0  0  0  0  0  0  0  0  0  0  0  0
   -1.1240   21.2920  -27.1550 C   0  0  0  0  0  0  0  0  0  0  0  0
   -2.3640   20.6560  -27.2670 C   0  0  0  0  0  0  0  0  0  0  0  0
   -2.5520   19.0000  -26.7190 Cl  0  0  0  0  0  0  0  0  0  0  0  0
   -3.4530   21.3380  -27.8200 C   0  0  0  0  0  0  0  0  0  0  0  0
   -5.7970   24.1300  -30.8580 C   0  0  2  0  0  0  0  0  0  0  0  0
   -6.8610   25.3040  -29.7260 Br  0  0  0  0  0  0  0  0  0  0  0  0
   -6.5430   22.8740  -31.2490 C   0  0  0  0  0  0  0  0  0  0  0  0
   -7.9110   22.9470  -31.5680 C   0  0  0  0  0  0  0  0  0  0  0  0
   -8.6070   21.8030  -31.9700 C   0  0  0  0  0  0  0  0  0  0  0  0
   -7.9440   20.5780  -32.0690 C   0  0  0  0  0  0  0  0  0  0  0  0
   -6.5830   20.4950  -31.7690 C   0  0  0  0  0  0  0  0  0  0  0  0
   -5.8820   21.6360  -31.3660 C   0  0  0  0  0  0  0  0  0  0  0  0
   -5.2480   23.5740  -28.2140 H   0  0  0  0  0  0  0  0  0  0  0  0
   -1.9316   24.3230  -28.5168 H   0  0  0  0  0  0  0  0  0  0  0  0
   -0.2691   20.7576  -26.7150 H   0  0  0  0  0  0  0  0  0  0  0  0
   -4.4233   20.8292  -27.9185 H   0  0  0  0  0  0  0  0  0  0  0  0
   -5.5905   24.6887  -31.7828 H   0  0  0  0  0  0  0  0  0  0  0  0
   -8.4369   23.9108  -31.5007 H   0  0  0  0  0  0  0  0  0  0  0  0
   -9.6788   21.8680  -32.2087 H   0  0  0  0  0  0  0  0  0  0  0  0
   -8.4939   19.6787  -32.3833 H   0  0  0  0  0  0  0  0  0  0  0  0
   -6.0610   19.5301  -31.8498 H   0  0  0  0  0  0  0  0  0  0  0  0
   -4.8079   21.5661  -31.1390 H   0  0  0  0  0  0  0  0  0  0  0  0
  1  2  2  0
  2  3  1  0
  3  4  1  0
  4  5  2  0
  5  6  1  0
  6  7  1  0
  6  8  2  0
  8  9  1  0
  9 10  1  0
  9 11  2  0
  2 12  1  0
 12 13  1  0
 12 14  1  0
 14 15  2  0
 15 16  1  0
 16 17  2  0
 17 18  1  0
 18 19  2  0
 11  4  1  0
 19 14  1  0
  3 20  1  0
  5 21  1  0
  8 22  1  0
 11 23  1  0
 12 24  1  6
 15 25  1  0
 16 26  1  0
 17 27  1  0
 18 28  1  0
 19 29  1  0
M  END
>  <UniqueID>  (24) 
20

>  <SMILES>  (24) 
O=C(Nc1cc(Cl)cc(Cl)c1)[C@H](Br)c1ccccc1

>  <Energy>  (24) 
32.720392602523994

>  <Genealogy>  (24) 
O=C(Nc1cc(Cl)cc(Cl)c1)[C@H](Br)c1ccccc1 (chirality)
O=C(Nc1cc(Cl)cc(Cl)c1)[C@H](Br)c1ccccc1 (3D coordinates assigned)
O=C(Nc1cc(Cl)cc(Cl)c1)[C@H](Br)c1ccccc1 (optimized conformer: 32.720392602523994 kcal/mol)

>  <smiles>  (24) 
O=C(Nc1cc(Cl)cc(Cl)c1)C(Br)c1ccccc1

>  <score_type>  (24) 
oracle

>  <origin>  (24) 
adg

>  <m_score__min__energy>  (24) 
-7.5800000000000001

>  <m_primary>  (24) 
energy

$$$$
24:0
     RDKit          3D

 49 51  0  0  0  0  0  0  0  0999 V2000
   -6.2980   25.6780  -29.4430 C   0  0  0  0  0  0  0  0  0  0  0  0
   -6.0310   24.4720  -30.3020 C   0  0  0  0  0  0  0  0  0  0  0  0
   -7.1080   23.6480  -30.6690 C   0  0  0  0  0  0  0  0  0  0  0  0
   -6.9130   22.5430  -31.5180 C   0  0  0  0  0  0  0  0  0  0  0  0
   -7.9620   21.7050  -31.9340 O   0  0  0  0  0  0  0  0  0  0  0  0
   -7.8400   20.5580  -32.7760 C   0  0  0  0  0  0  0  0  0  0  0  0
   -7.7370   19.2750  -31.9420 C   0  0  0  0  0  0  0  0  0  0  0  0
   -6.3940   18.6610  -32.0650 N   0  0  0  0  0  0  0  0  0  0  0  0
   -6.4840   17.2200  -32.3330 C   0  0  0  0  0  0  0  0  0  0  0  0
   -6.5220   17.0310  -33.8390 C   0  0  0  0  0  0  0  0  0  0  0  0
   -5.8920   18.2880  -34.4100 C   0  0  0  0  0  0  0  0  0  0  0  0
   -5.6570   19.2070  -33.2170 C   0  0  0  0  0  0  0  0  0  0  0  0
   -5.6220   22.2490  -31.9670 C   0  0  0  0  0  0  0  0  0  0  0  0
   -4.5400   23.0460  -31.5880 C   0  0  0  0  0  0  0  0  0  0  0  0
   -4.7270   24.1430  -30.7400 C   0  0  0  0  0  0  0  0  0  0  0  0
   -3.5850   24.9260  -30.3630 N   0  0  0  0  0  0  0  0  0  0  0  0
   -2.7090   24.5500  -29.2950 C   0  0  0  0  0  0  0  0  0  0  0  0
   -2.9100   23.4810  -28.6560 O   0  0  0  0  0  0  0  0  0  0  0  0
   -1.6230   25.4160  -28.9440 N   0  0  0  0  0  0  0  0  0  0  0  0
   -1.3510   25.9640  -27.6450 C   0  0  0  0  0  0  0  0  0  0  0  0
   -0.4460   27.0280  -27.4570 C   0  0  0  0  0  0  0  0  0  0  0  0
   -0.2290   27.5470  -26.1770 C   0  0  0  0  0  0  0  0  0  0  0  0
   -0.9170   27.0220  -25.0800 C   0  0  0  0  0  0  0  0  0  0  0  0
   -0.7060   27.5280  -23.8400 F   0  0  0  0  0  0  0  0  0  0  0  0
   -1.8340   25.9820  -25.2640 C   0  0  0  0  0  0  0  0  0  0  0  0
   -2.0550   25.4630  -26.5430 C   0  0  0  0  0  0  0  0  0  0  0  0
   -6.2351   25.3938  -28.3822 H   0  0  0  0  0  0  0  0  0  0  0  0
   -5.5502   26.4551  -29.6594 H   0  0  0  0  0  0  0  0  0  0  0  0
   -7.3040   26.0668  -29.6594 H   0  0  0  0  0  0  0  0  0  0  0  0
   -8.1159   23.8693  -30.2880 H   0  0  0  0  0  0  0  0  0  0  0  0
   -8.7239   20.4940  -33.4276 H   0  0  0  0  0  0  0  0  0  0  0  0
   -6.9252   20.6600  -33.3782 H   0  0  0  0  0  0  0  0  0  0  0  0
   -7.9249   19.5179  -30.8857 H   0  0  0  0  0  0  0  0  0  0  0  0
   -8.4830   18.5574  -32.3142 H   0  0  0  0  0  0  0  0  0  0  0  0
   -5.6071   16.7055  -31.9131 H   0  0  0  0  0  0  0  0  0  0  0  0
   -7.3878   16.7980  -31.8693 H   0  0  0  0  0  0  0  0  0  0  0  0
   -5.9440   16.1420  -34.1315 H   0  0  0  0  0  0  0  0  0  0  0  0
   -7.5462   16.8777  -34.2099 H   0  0  0  0  0  0  0  0  0  0  0  0
   -4.9388   18.0492  -34.9044 H   0  0  0  0  0  0  0  0  0  0  0  0
   -6.5372   18.7594  -35.1660 H   0  0  0  0  0  0  0  0  0  0  0  0
   -4.5825   19.2497  -32.9856 H   0  0  0  0  0  0  0  0  0  0  0  0
   -6.0076   20.2243  -33.4455 H   0  0  0  0  0  0  0  0  0  0  0  0
   -5.4573   21.3825  -32.6244 H   0  0  0  0  0  0  0  0  0  0  0  0
   -3.5320   22.8094  -31.9593 H   0  0  0  0  0  0  0  0  0  0  0  0
   -3.2720   25.6860  -31.0090 H   0  0  0  0  0  0  0  0  0  0  0  0
    0.0907   27.4509  -28.3190 H   0  0  0  0  0  0  0  0  0  0  0  0
    0.4854   28.3710  -26.0332 H   0  0  0  0  0  0  0  0  0  0  0  0
   -2.3813   25.5725  -24.4022 H   0  0  0  0  0  0  0  0  0  0  0  0
   -2.7876   24.6548  -26.6849 H   0  0  0  0  0  0  0  0  0  0  0  0
  1  2  1  0
  2  3  2  0
  3  4  1  0
  4  5  1  0
  5  6  1  0
  6  7  1  0
  7  8  1  0
  8  9  1  0
  9 10  1  0
 10 11  1  0
 11 12  1  0
  4 13  2  0
 13 14  1  0
 14 15  2  0
 15 16  1  0
 16 17  1  0
 17 18  2  0
 17 19  1  0
 19 20  1  0
 20 21  2  0
 21 22  1  0
 22 23  2  0
 23 24  1  0
 23 25  1  0
 25 26  2  0
 15  2  1  0
 26 20  1  0
 12  8  1  0
  1 27  1  0
  1 28  1  0
  1 29  1  0
  3 30  1  0
  6 31  1  0
  6 32  1  0
  7 33  1  0
  7 34  1  0
  9 35  1  0
  9 36  1  0
 10 37  1  0
 10 38  1  0
 11 39  1  0
 11 40  1  0
 12 41  1  0
 12 42  1  0
 13 43  1  0
 14 44  1  0
 16 45  1  0
 21 46  1  0
 22 47  1  0
 25 48  1  0
 26 49  1  0
M  CHG  1  19  -1
M  END
>  <UniqueID>  (25) 
21

>  <SMILES>  (25) 
Cc1cc(OCCN2CCCC2)ccc1NC(=O)[N-]c1ccc(F)cc1

>  <Energy>  (25) 
61.585925578919976

>  <Genealogy>  (25) 
Cc1cc(OCCN2CCCC2)ccc1NC(=O)[N-]c1ccc(F)cc1 (protonated)
Cc1cc(OCCN2CCCC2)ccc1NC(=O)[N-]c1ccc(F)cc1 (3D coordinates assigned)
Cc1cc(OCCN2CCCC2)ccc1NC(=O)[N-]c1ccc(F)cc1 (nonaromatic ring conformer: 61.585925578919976 kcal/mol)

>  <smiles>  (25) 
Cc1cc(OCCN2CCCC2)ccc1NC(=O)Nc1ccc(F)cc1

>  <score_type>  (25) 
oracle

>  <origin>  (25) 
adg

>  <m_score__min__energy>  (25) 
-10.26

>  <m_primary>  (25) 
energy

$$$$
25:0
     RDKit          3D

 40 42  0  0  0  0  0  0  0  0999 V2000
    0.9630   24.2080  -28.2430 O   0  0  0  0  0  0  0  0  0  0  0  0
    0.0330   23.4560  -27.8460 C   0  0  0  0  0  0  0  0  0  0  0  0
   -1.3800   23.8250  -28.0470 C   0  0  0  0  0  0  0  0  0  0  0  0
   -1.8300   24.1720  -29.3300 C   0  0  0  0  0  0  0  0  0  0  0  0
   -3.1670   24.5250  -29.5410 C   0  0  0  0  0  0  0  0  0  0  0  0
   -4.0780   24.5290  -28.4710 C   0  0  0  0  0  0  0  0  0  0  0  0
   -5.4490   24.9230  -28.6820 N   0  0  0  0  0  0  0  0  0  0  0  0
   -5.7130   25.0750  -30.1200 C   0  0  0  0  0  0  0  0  0  0  0  0
   -5.9350   23.7290  -30.7600 C   0  0  0  0  0  0  0  0  0  0  0  0
   -7.0300   22.9380  -30.3830 C   0  0  0  0  0  0  0  0  0  0  0  0
   -7.2170   21.6750  -30.9500 C   0  0  0  0  0  0  0  0  0  0  0  0
   -6.3030   21.1730  -31.8960 C   0  0  0  0  0  0  0  0  0  0  0  0
   -6.5020   19.8300  -32.4980 C   0  0  0  0  0  0  0  0  0  0  0  0
   -5.8100   19.4600  -33.6670 C   0  0  0  0  0  0  0  0  0  0  0  0
   -5.9990   18.1950  -34.2310 C   0  0  0  0  0  0  0  0  0  0  0  0
   -6.8790   17.2870  -33.6380 C   0  0  0  0  0  0  0  0  0  0  0  0
   -7.5710   17.6420  -32.4790 C   0  0  0  0  0  0  0  0  0  0  0  0
   -7.3860   18.9050  -31.9100 C   0  0  0  0  0  0  0  0  0  0  0  0
   -5.1980   21.9650  -32.2580 C   0  0  0  0  0  0  0  0  0  0  0  0
   -5.0130   23.2280  -31.6910 C   0  0  0  0  0  0  0  0  0  0  0  0
   -3.6240   24.1940  -27.1840 C   0  0  0  0  0  0  0  0  0  0  0  0
   -2.2880   23.8410  -26.9740 C   0  0  0  0  0  0  0  0  0  0  0  0
    0.2793   22.5099  -27.3418 H   0  0  0  0  0  0  0  0  0  0  0  0
   -1.1265   24.1664  -30.1756 H   0  0  0  0  0  0  0  0  0  0  0  0
   -3.5072   24.8010  -30.5500 H   0  0  0  0  0  0  0  0  0  0  0  0
   -5.6360   25.8290  -28.1900 H   0  0  0  0  0  0  0  0  0  0  0  0
   -6.0900   24.1990  -28.2800 H   0  0  0  0  0  0  0  0  0  0  0  0
   -6.6108   25.6950  -30.2598 H   0  0  0  0  0  0  0  0  0  0  0  0
   -4.8437   25.5552  -30.5929 H   0  0  0  0  0  0  0  0  0  0  0  0
   -7.7454   23.3141  -29.6369 H   0  0  0  0  0  0  0  0  0  0  0  0
   -8.0854   21.0677  -30.6550 H   0  0  0  0  0  0  0  0  0  0  0  0
   -5.1162   20.1709  -34.1395 H   0  0  0  0  0  0  0  0  0  0  0  0
   -5.4534   17.9141  -35.1439 H   0  0  0  0  0  0  0  0  0  0  0  0
   -7.0267   16.2925  -34.0842 H   0  0  0  0  0  0  0  0  0  0  0  0
   -8.2636   16.9260  -32.0124 H   0  0  0  0  0  0  0  0  0  0  0  0
   -7.9347   19.1784  -30.9966 H   0  0  0  0  0  0  0  0  0  0  0  0
   -4.4735   21.5863  -32.9939 H   0  0  0  0  0  0  0  0  0  0  0  0
   -4.1397   23.8330  -31.9760 H   0  0  0  0  0  0  0  0  0  0  0  0
   -4.3247   24.2097  -26.3362 H   0  0  0  0  0  0  0  0  0  0  0  0
   -1.9452   23.5742  -25.9634 H   0  0  0  0  0  0  0  0  0  0  0  0
  1  2  2  0
  2  3  1  0
  3  4  2  0
  4  5  1  0
  5  6  2  0
  6  7  1  0
  7  8  1  0
  8  9  1  0
  9 10  2  0
 10 11  1  0
 11 12  2  0
 12 13  1  0
 13 14  2  0
 14 15  1  0
 15 16  2  0
 16 17  1  0
 17 18  2  0
 12 19  1  0
 19 20  2  0
  6 21  1  0
 21 22  2  0
 22  3  1  0
 20  9  1  0
 18 13  1  0
  2 23  1  0
  4 24  1  0
  5 25  1  0
  7 26  1  0
  7 27  1  0
  8 28  1  0
  8 29  1  0
 10 30  1  0
 11 31  1  0
 14 32  1  0
 15 33  1  0
 16 34  1  0
 17 35  1  0
 18 36  1  0
 19 37  1  0
 20 38  1  0
 21 39  1  0
 22 40  1  0
M  CHG  1   7   1
M  END
>  <UniqueID>  (26) 
22

>  <SMILES>  (26) 
O=Cc1ccc([NH2+]Cc2ccc(-c3ccccc3)cc2)cc1

>  <Energy>  (26) 
47.88257079487388

>  <Genealogy>  (26) 
O=Cc1ccc([NH2+]Cc2ccc(-c3ccccc3)cc2)cc1 (protonated)
O=Cc1ccc([NH2+]Cc2ccc(-c3ccccc3)cc2)cc1 (3D coordinates assigned)
O=Cc1ccc([NH2+]Cc2ccc(-c3ccccc3)cc2)cc1 (optimized conformer: 47.88257079487388 kcal/mol)

>  <smiles>  (26) 
O=Cc1ccc(NCc2ccc(-c3ccccc3)cc2)cc1

>  <score_type>  (26) 
oracle

>  <origin>  (26) 
adg

>  <m_score__min__energy>  (26) 
-8.1500000000000004

>  <m_primary>  (26) 
energy

$$$$
26:0
     RDKit          3D

 63 65  0  0  0  0  0  0  0  0999 V2000
   -0.3890   26.7970  -23.3160 C   0  0  0  0  0  0  0  0  0  0  0  0
   -0.9270   26.8580  -24.7530 C   0  0  0  0  0  0  0  0  0  0  0  0
   -1.2450   25.5340  -25.3430 N   0  0  0  0  0  0  0  0  0  0  0  0
   -0.0830   24.6340  -25.5220 C   0  0  0  0  0  0  0  0  0  0  0  0
   -0.1700   23.4070  -24.6150 C   0  0  0  0  0  0  0  0  0  0  0  0
   -2.0720   25.6390  -26.5670 C   0  0  0  0  0  0  0  0  0  0  0  0
   -1.2450   26.2460  -27.6960 C   0  0  0  0  0  0  0  0  0  0  0  0
   -1.6540   25.6850  -28.9430 O   0  0  0  0  0  0  0  0  0  0  0  0
   -1.5880   24.3210  -29.2580 C   0  0  0  0  0  0  0  0  0  0  0  0
   -2.6770   23.7390  -29.9190 C   0  0  0  0  0  0  0  0  0  0  0  0
   -2.6580   22.3850  -30.2630 C   0  0  0  0  0  0  0  0  0  0  0  0
   -1.5460   21.5890  -29.9470 C   0  0  0  0  0  0  0  0  0  0  0  0
   -1.5230   20.1350  -30.3410 C   0  0  0  0  0  0  0  0  0  0  0  0
   -0.7700   19.9370  -31.6000 N   0  0  0  0  0  0  0  0  0  0  0  0
   -0.7580   21.1610  -32.4420 C   0  0  0  0  0  0  0  0  0  0  0  0
   -1.3080   20.9410  -33.8640 C   0  0  0  0  0  0  0  0  0  0  0  0
   -2.5840   20.1940  -33.8580 N   0  0  0  0  0  0  0  0  0  0  0  0
   -3.7390   21.0270  -33.4560 C   0  0  0  0  0  0  0  0  0  0  0  0
   -4.9490   20.1770  -33.1640 C   0  0  0  0  0  0  0  0  0  0  0  0
   -5.6590   20.3520  -31.9660 C   0  0  0  0  0  0  0  0  0  0  0  0
   -6.7740   19.5570  -31.6850 C   0  0  0  0  0  0  0  0  0  0  0  0
   -7.1870   18.5830  -32.5980 C   0  0  0  0  0  0  0  0  0  0  0  0
   -8.2690   17.8130  -32.3250 F   0  0  0  0  0  0  0  0  0  0  0  0
   -6.4840   18.4000  -33.7930 C   0  0  0  0  0  0  0  0  0  0  0  0
   -5.3680   19.1930  -34.0760 C   0  0  0  0  0  0  0  0  0  0  0  0
   -2.5170   18.9250  -33.0860 C   0  0  0  0  0  0  0  0  0  0  0  0
   -1.1870   18.7230  -32.3360 C   0  0  0  0  0  0  0  0  0  0  0  0
   -0.4540   22.1670  -29.2820 C   0  0  0  0  0  0  0  0  0  0  0  0
   -0.4740   23.5220  -28.9380 C   0  0  0  0  0  0  0  0  0  0  0  0
   -1.2248   26.8918  -22.6072 H   0  0  0  0  0  0  0  0  0  0  0  0
    0.1204   25.8353  -23.1557 H   0  0  0  0  0  0  0  0  0  0  0  0
    0.3228   27.6202  -23.1557 H   0  0  0  0  0  0  0  0  0  0  0  0
   -1.8450   27.4640  -24.7517 H   0  0  0  0  0  0  0  0  0  0  0  0
   -0.1277   27.2940  -25.3702 H   0  0  0  0  0  0  0  0  0  0  0  0
   -0.0490   24.3006  -26.5697 H   0  0  0  0  0  0  0  0  0  0  0  0
    0.8262   25.1926  -25.2550 H   0  0  0  0  0  0  0  0  0  0  0  0
   -0.1473   23.7266  -23.5627 H   0  0  0  0  0  0  0  0  0  0  0  0
   -1.1085   22.8692  -24.8148 H   0  0  0  0  0  0  0  0  0  0  0  0
    0.6833   22.7421  -24.8148 H   0  0  0  0  0  0  0  0  0  0  0  0
   -2.4154   24.6369  -26.8633 H   0  0  0  0  0  0  0  0  0  0  0  0
   -2.9409   26.2827  -26.3653 H   0  0  0  0  0  0  0  0  0  0  0  0
   -1.3974   27.3352  -27.7169 H   0  0  0  0  0  0  0  0  0  0  0  0
   -0.1802   26.0267  -27.5280 H   0  0  0  0  0  0  0  0  0  0  0  0
   -3.5546   24.3531  -30.1694 H   0  0  0  0  0  0  0  0  0  0  0  0
   -3.5188   21.9406  -30.7841 H   0  0  0  0  0  0  0  0  0  0  0  0
   -1.0435   19.5531  -29.5401 H   0  0  0  0  0  0  0  0  0  0  0  0
   -2.5586   19.7981  -30.4960 H   0  0  0  0  0  0  0  0  0  0  0  0
   -1.3715   21.9285  -31.9475 H   0  0  0  0  0  0  0  0  0  0  0  0
    0.2931   21.4673  -32.5482 H   0  0  0  0  0  0  0  0  0  0  0  0
   -1.4730   21.9208  -34.3359 H   0  0  0  0  0  0  0  0  0  0  0  0
   -0.5707   20.3470  -34.4240 H   0  0  0  0  0  0  0  0  0  0  0  0
   -3.4738   21.5960  -32.5527 H   0  0  0  0  0  0  0  0  0  0  0  0
   -3.9832   21.7072  -34.2853 H   0  0  0  0  0  0  0  0  0  0  0  0
   -5.3367   21.1179  -31.2452 H   0  0  0  0  0  0  0  0  0  0  0  0
   -7.3267   19.6982  -30.7445 H   0  0  0  0  0  0  0  0  0  0  0  0
   -6.8092   17.6321  -34.5103 H   0  0  0  0  0  0  0  0  0  0  0  0
   -4.8157   19.0463  -35.0159 H   0  0  0  0  0  0  0  0  0  0  0  0
   -3.3341   18.9235  -32.3496 H   0  0  0  0  0  0  0  0  0  0  0  0
   -2.6032   18.1033  -33.8122 H   0  0  0  0  0  0  0  0  0  0  0  0
   -1.3067   17.8976  -31.6188 H   0  0  0  0  0  0  0  0  0  0  0  0
   -0.4102   18.4966  -33.0812 H   0  0  0  0  0  0  0  0  0  0  0  0
    0.4220   21.5512  -29.0301 H   0  0  0  0  0  0  0  0  0  0  0  0
    0.3854   23.9662  -28.4144 H   0  0  0  0  0  0  0  0  0  0  0  0
  1  2  1  0
  2  3  1  0
  3  4  1  0
  4  5  1  0
  3  6  1  0
  6  7  1  0
  7  8  1  0
  8  9  1  0
  9 10  2  0
 10 11  1  0
 11 12  2  0
 12 13  1  0
 13 14  1  0
 14 15  1  0
 15 16  1  0
 16 17  1  0
 17 18  1  0
 18 19  1  0
 19 20  2  0
 20 21  1  0
 21 22  2  0
 22 23  1  0
 22 24  1  0
 24 25  2  0
 17 26  1  0
 26 27  1  0
 12 28  1  0
 28 29  2  0
 29  9  1  0
 27 14  1  0
 25 19  1  0
  1 30  1  0
  1 31  1  0
  1 32  1  0
  2 33  1  0
  2 34  1  0
  4 35  1  0
  4 36  1  0
  5 37  1  0
  5 38  1  0
  5 39  1  0
  6 40  1  0
  6 41  1  0
  7 42  1  0
  7 43  1  0
 10 44  1  0
 11 45  1  0
 13 46  1  0
 13 47  1  0
 15 48  1  0
 15 49  1  0
 16 50  1  0
 16 51  1  0
 18 52  1  0
 18 53  1  0
 20 54  1  0
 21 55  1  0
 24 56  1  0
 25 57  1  0
 26 58  1  0
 26 59  1  0
 27 60  1  0
 27 61  1  0
 28 62  1  0
 29 63  1  0
M  END
>  <UniqueID>  (27) 
23

>  <SMILES>  (27) 
CCN(CC)CCOc1ccc(CN2CCN(Cc3ccc(F)cc3)CC2)cc1

>  <Energy>  (27) 
79.78985588641797

>  <Genealogy>  (27) 
CCN(CC)CCOc1ccc(CN2CCN(Cc3ccc(F)cc3)CC2)cc1 (3D coordinates assigned)
CCN(CC)CCOc1ccc(CN2CCN(Cc3ccc(F)cc3)CC2)cc1 (nonaromatic ring conformer: 79.78985588641797 kcal/mol)

>  <smiles>  (27) 
CCN(CC)CCOc1ccc(CN2CCN(Cc3ccc(F)cc3)CC2)cc1

>  <score_type>  (27) 
oracle

>  <origin>  (27) 
adg

>  <m_score__min__energy>  (27) 
-8.4299999999999997

>  <m_primary>  (27) 
energy

$$$$
27:0
     RDKit          3D

 44 48  0  0  0  0  0  0  0  0999 V2000
    0.2720   27.4750  -22.9710 C   0  0  0  0  0  0  0  0  0  0  0  0
    0.8270   28.2700  -23.9420 C   0  0  0  0  0  0  0  0  0  0  0  0
    0.4970   27.7630  -25.0950 O   0  0  0  0  0  0  0  0  0  0  0  0
   -0.2400   26.6850  -24.9520 C   0  0  0  0  0  0  0  0  0  0  0  0
   -0.7590   25.9010  -26.0790 C   0  0  0  0  0  0  0  0  0  0  0  0
   -2.0500   25.5320  -26.2610 N   0  0  0  0  0  0  0  0  0  0  0  0
   -2.1730   24.8190  -27.4070 C   0  0  0  0  0  0  0  0  0  0  0  0
   -3.2530   24.2190  -28.0440 C   0  0  0  0  0  0  0  0  0  0  0  0
   -3.0150   23.5540  -29.2270 C   0  0  0  0  0  0  0  0  0  0  0  0
   -4.1430   22.9220  -29.9040 C   0  0  0  0  0  0  0  0  0  0  0  0
   -5.4380   23.2970  -29.6140 C   0  0  0  0  0  0  0  0  0  0  0  0
   -6.4860   22.6790  -30.2720 C   0  0  0  0  0  0  0  0  0  0  0  0
   -6.2900   21.6860  -31.2210 C   0  0  0  0  0  0  0  0  0  0  0  0
   -7.3870   21.0550  -31.8900 N   0  0  0  0  0  0  0  0  0  0  0  0
   -8.6690   21.7150  -31.9470 C   0  0  0  0  0  0  0  0  0  0  0  0
   -9.8000   20.7970  -32.3360 C   0  0  0  0  0  0  0  0  0  0  0  0
   -9.4070   19.6480  -33.0910 N   0  0  0  0  0  0  0  0  0  0  0  0
   -8.3800   18.9310  -32.3490 C   0  0  0  0  0  0  0  0  0  0  0  0
   -7.1220   19.7580  -32.4840 C   0  0  0  0  0  0  0  0  0  0  0  0
   -5.0150   21.3500  -31.4740 N   0  0  0  0  0  0  0  0  0  0  0  0
   -3.9810   21.9340  -30.8500 C   0  0  0  0  0  0  0  0  0  0  0  0
   -1.7350   23.4790  -29.7790 C   0  0  0  0  0  0  0  0  0  0  0  0
   -0.7170   24.0780  -29.1240 N   0  0  0  0  0  0  0  0  0  0  0  0
   -0.9070   24.7450  -27.9530 C   0  0  0  0  0  0  0  0  0  0  0  0
   -0.0500   25.4090  -27.1350 N   0  0  0  0  0  0  0  0  0  0  0  0
   -0.4120   26.4600  -23.5980 C   0  0  0  0  0  0  0  0  0  0  0  0
    0.3588   27.6232  -21.8845 H   0  0  0  0  0  0  0  0  0  0  0  0
    1.4380   29.1697  -23.7768 H   0  0  0  0  0  0  0  0  0  0  0  0
   -4.2654   24.2734  -27.6172 H   0  0  0  0  0  0  0  0  0  0  0  0
   -5.6356   24.0798  -28.8669 H   0  0  0  0  0  0  0  0  0  0  0  0
   -7.5148   22.9867  -30.0336 H   0  0  0  0  0  0  0  0  0  0  0  0
   -8.8881   22.1368  -30.9550 H   0  0  0  0  0  0  0  0  0  0  0  0
   -8.5997   22.4910  -32.7236 H   0  0  0  0  0  0  0  0  0  0  0  0
  -10.2911   20.4497  -31.4150 H   0  0  0  0  0  0  0  0  0  0  0  0
  -10.4646   21.3833  -32.9876 H   0  0  0  0  0  0  0  0  0  0  0  0
   -9.1150   19.8940  -34.0640 H   0  0  0  0  0  0  0  0  0  0  0  0
   -8.6660   18.8385  -31.2909 H   0  0  0  0  0  0  0  0  0  0  0  0
   -8.2379   17.9113  -32.7363 H   0  0  0  0  0  0  0  0  0  0  0  0
   -6.2910   19.2663  -31.9571 H   0  0  0  0  0  0  0  0  0  0  0  0
   -6.8413   19.8664  -33.5420 H   0  0  0  0  0  0  0  0  0  0  0  0
   -2.9610   21.6103  -31.1045 H   0  0  0  0  0  0  0  0  0  0  0  0
   -1.5597   22.9450  -30.7246 H   0  0  0  0  0  0  0  0  0  0  0  0
    0.9560   25.5150  -27.2960 H   0  0  0  0  0  0  0  0  0  0  0  0
   -0.9758   25.6432  -23.1238 H   0  0  0  0  0  0  0  0  0  0  0  0
  1  2  2  0
  2  3  1  0
  3  4  1  0
  4  5  1  0
  5  6  2  0
  6  7  1  0
  7  8  2  0
  8  9  1  0
  9 10  1  0
 10 11  2  0
 11 12  1  0
 12 13  2  0
 13 14  1  0
 14 15  1  0
 15 16  1  0
 16 17  1  0
 17 18  1  0
 18 19  1  0
 13 20  1  0
 20 21  2  0
  9 22  2  0
 22 23  1  0
 23 24  2  0
 24 25  1  0
  4 26  2  0
 26  1  1  0
 25  5  1  0
 24  7  1  0
 21 10  1  0
 19 14  1  0
  1 27  1  0
  2 28  1  0
  8 29  1  0
 11 30  1  0
 12 31  1  0
 15 32  1  0
 15 33  1  0
 16 34  1  0
 16 35  1  0
 17 36  1  0
 18 37  1  0
 18 38  1  0
 19 39  1  0
 19 40  1  0
 21 41  1  0
 22 42  1  0
 25 43  1  0
 26 44  1  0
M  END
>  <smiles>  (28) 
c1coc(-c2nc3cc(-c4ccc(N5CCNCC5)nc4)cnc3[nH]2)c1

>  <score_type>  (28) 
oracle

>  <origin>  (28) 
adg

>  <m_score__min__energy>  (28) 
-7.7400000000000002

>  <m_primary>  (28) 
energy

$$$$
28:0
     RDKit          3D

 36 37  0  0  0  0  0  0  0  0999 V2000
   -3.8760   25.0960  -30.7760 O   0  0  0  0  0  0  0  0  0  0  0  0
   -4.1970   24.4680  -29.7310 C   0  0  0  0  0  0  0  0  0  0  0  0
   -5.5840   24.3110  -29.3890 N   0  0  0  0  0  0  0  0  0  0  0  0
   -6.6580   24.9560  -30.1450 C   0  0  0  0  0  0  0  0  0  0  0  0
   -7.3090   23.9770  -31.1250 C   0  0  0  0  0  0  0  0  0  0  0  0
   -7.2830   22.2650  -30.4700 S   0  0  0  0  0  0  0  0  0  0  0  0
   -8.3740   21.5070  -31.7280 C   0  0  0  0  0  0  0  0  0  0  0  0
   -7.7440   20.2790  -32.3290 C   0  0  0  0  0  0  0  0  0  0  0  0
   -6.7340   20.4210  -33.2960 C   0  0  0  0  0  0  0  0  0  0  0  0
   -6.1210   19.2920  -33.8480 C   0  0  0  0  0  0  0  0  0  0  0  0
   -6.5120   18.0140  -33.4430 C   0  0  0  0  0  0  0  0  0  0  0  0
   -7.5190   17.8620  -32.4870 C   0  0  0  0  0  0  0  0  0  0  0  0
   -8.1370   18.9860  -31.9290 C   0  0  0  0  0  0  0  0  0  0  0  0
   -9.1080   18.8110  -30.9980 F   0  0  0  0  0  0  0  0  0  0  0  0
   -3.1350   23.8740  -28.8880 C   0  0  0  0  0  0  0  0  0  0  0  0
   -3.3570   22.6290  -28.2720 C   0  0  0  0  0  0  0  0  0  0  0  0
   -2.3700   22.0500  -27.4690 C   0  0  0  0  0  0  0  0  0  0  0  0
   -1.1500   22.7010  -27.2810 C   0  0  0  0  0  0  0  0  0  0  0  0
   -0.9100   23.9290  -27.9020 C   0  0  0  0  0  0  0  0  0  0  0  0
   -1.8930   24.5150  -28.7080 C   0  0  0  0  0  0  0  0  0  0  0  0
   -1.6040   25.6780  -29.3450 F   0  0  0  0  0  0  0  0  0  0  0  0
   -5.8550   23.6980  -28.5880 H   0  0  0  0  0  0  0  0  0  0  0  0
   -7.4215   25.3220  -29.4428 H   0  0  0  0  0  0  0  0  0  0  0  0
   -6.2281   25.7900  -30.7191 H   0  0  0  0  0  0  0  0  0  0  0  0
   -8.3527   24.2802  -31.2946 H   0  0  0  0  0  0  0  0  0  0  0  0
   -6.7405   23.9978  -32.0665 H   0  0  0  0  0  0  0  0  0  0  0  0
   -9.3262   21.2260  -31.2542 H   0  0  0  0  0  0  0  0  0  0  0  0
   -8.5406   22.2404  -32.5308 H   0  0  0  0  0  0  0  0  0  0  0  0
   -6.4242   21.4254  -33.6202 H   0  0  0  0  0  0  0  0  0  0  0  0
   -5.3294   19.4107  -34.6025 H   0  0  0  0  0  0  0  0  0  0  0  0
   -6.0270   17.1271  -33.8768 H   0  0  0  0  0  0  0  0  0  0  0  0
   -7.8273   16.8543  -32.1717 H   0  0  0  0  0  0  0  0  0  0  0  0
   -4.3137   22.1075  -28.4232 H   0  0  0  0  0  0  0  0  0  0  0  0
   -2.5552   21.0799  -26.9846 H   0  0  0  0  0  0  0  0  0  0  0  0
   -0.3771   22.2469  -26.6435 H   0  0  0  0  0  0  0  0  0  0  0  0
    0.0547   24.4372  -27.7571 H   0  0  0  0  0  0  0  0  0  0  0  0
  1  2  2  0
  2  3  1  0
  3  4  1  0
  4  5  1  0
  5  6  1  0
  6  7  1  0
  7  8  1  0
  8  9  2  0
  9 10  1  0
 10 11  2  0
 11 12  1  0
 12 13  2  0
 13 14  1  0
  2 15  1  0
 15 16  2  0
 16 17  1  0
 17 18  2  0
 18 19  1  0
 19 20  2  0
 20 21  1  0
 13  8  1  0
 20 15  1  0
  3 22  1  0
  4 23  1  0
  4 24  1  0
  5 25  1  0
  5 26  1  0
  7 27  1  0
  7 28  1  0
  9 29  1  0
 10 30  1  0
 11 31  1  0
 12 32  1  0
 16 33  1  0
 17 34  1  0
 18 35  1  0
 19 36  1  0
M  END
>  <UniqueID>  (29) 
24

>  <SMILES>  (29) 
O=C(NCCSCc1ccccc1F)c1ccccc1F

>  <Energy>  (29) 
34.05091865212338

>  <Genealogy>  (29) 
O=C(NCCSCc1ccccc1F)c1ccccc1F (3D coordinates assigned)
O=C(NCCSCc1ccccc1F)c1ccccc1F (optimized conformer: 34.05091865212338 kcal/mol)

>  <smiles>  (29) 
O=C(NCCSCc1ccccc1F)c1ccccc1F

>  <score_type>  (29) 
oracle

>  <origin>  (29) 
adg

>  <m_score__min__energy>  (29) 
-8.3399999999999999

>  <m_primary>  (29) 
energy

$$$$
29:0
     RDKit          3D

 34 35  0  0  0  0  0  0  0  0999 V2000
   -5.7570   25.7520  -30.1140 C   0  0  0  0  0  0  0  0  0  0  0  0
   -5.9900   24.2940  -29.7330 C   0  0  0  0  0  0  0  0  0  0  0  0
   -5.2870   23.3870  -30.6580 N   0  0  0  0  0  0  0  0  0  0  0  0
   -4.0230   22.9790  -30.3310 C   0  0  0  0  0  0  0  0  0  0  0  0
   -3.2890   22.1580  -31.1860 C   0  0  0  0  0  0  0  0  0  0  0  0
   -1.6610   21.6720  -30.7240 Cl  0  0  0  0  0  0  0  0  0  0  0  0
   -3.8810   21.7590  -32.3910 C   0  0  0  0  0  0  0  0  0  0  0  0
   -3.0920   20.8060  -33.4630 S   0  0  0  0  0  0  0  0  0  0  0  0
   -5.1430   22.1610  -32.6770 N   0  0  0  0  0  0  0  0  0  0  0  0
   -5.8560   22.9480  -31.8300 C   0  0  0  0  0  0  0  0  0  0  0  0
   -7.5380   23.3800  -32.3020 S   0  0  0  0  0  0  0  0  0  0  0  0
   -8.3060   22.1510  -31.1870 C   0  0  0  0  0  0  0  0  0  0  0  0
   -9.0210   21.0580  -31.9840 C   0  0  0  0  0  0  0  0  0  0  0  0
   -8.0830   19.9410  -32.3650 C   0  0  0  0  0  0  0  0  0  0  0  0
   -7.1980   20.0900  -33.4460 C   0  0  0  0  0  0  0  0  0  0  0  0
   -6.3130   19.0600  -33.7790 C   0  0  0  0  0  0  0  0  0  0  0  0
   -6.3020   17.8770  -33.0350 C   0  0  0  0  0  0  0  0  0  0  0  0
   -7.1760   17.7230  -31.9550 C   0  0  0  0  0  0  0  0  0  0  0  0
   -8.0610   18.7510  -31.6170 C   0  0  0  0  0  0  0  0  0  0  0  0
   -5.6601   26.3585  -29.2014 H   0  0  0  0  0  0  0  0  0  0  0  0
   -4.8345   25.8329  -30.7077 H   0  0  0  0  0  0  0  0  0  0  0  0
   -6.6083   26.1164  -30.7077 H   0  0  0  0  0  0  0  0  0  0  0  0
   -5.6179   24.1253  -28.7117 H   0  0  0  0  0  0  0  0  0  0  0  0
   -7.0685   24.0852  -29.7898 H   0  0  0  0  0  0  0  0  0  0  0  0
   -3.5787   23.3037  -29.3786 H   0  0  0  0  0  0  0  0  0  0  0  0
   -7.5235   21.6900  -30.5664 H   0  0  0  0  0  0  0  0  0  0  0  0
   -9.0459   22.6650  -30.5558 H   0  0  0  0  0  0  0  0  0  0  0  0
   -9.8361   20.6455  -31.3713 H   0  0  0  0  0  0  0  0  0  0  0  0
   -9.4115   21.5080  -32.9087 H   0  0  0  0  0  0  0  0  0  0  0  0
   -7.2014   21.0205  -34.0326 H   0  0  0  0  0  0  0  0  0  0  0  0
   -5.6242   19.1810  -34.6281 H   0  0  0  0  0  0  0  0  0  0  0  0
   -5.6058   17.0673  -33.2992 H   0  0  0  0  0  0  0  0  0  0  0  0
   -7.1674   16.7914  -31.3701 H   0  0  0  0  0  0  0  0  0  0  0  0
   -8.7427   18.6283  -30.7625 H   0  0  0  0  0  0  0  0  0  0  0  0
  1  2  1  0
  2  3  1  0
  3  4  1  0
  4  5  2  0
  5  6  1  0
  5  7  1  0
  7  8  2  0
  7  9  1  0
  9 10  2  0
 10 11  1  0
 11 12  1  0
 12 13  1  0
 13 14  1  0
 14 15  2  0
 15 16  1  0
 16 17  2  0
 17 18  1  0
 18 19  2  0
 10  3  1  0
 19 14  1  0
  1 20  1  0
  1 21  1  0
  1 22  1  0
  2 23  1  0
  2 24  1  0
  4 25  1  0
 12 26  1  0
 12 27  1  0
 13 28  1  0
 13 29  1  0
 15 30  1  0
 16 31  1  0
 17 32  1  0
 18 33  1  0
 19 34  1  0
M  END
>  <UniqueID>  (30) 
25

>  <SMILES>  (30) 
CCn1cc(Cl)c(=S)nc1SCCc1ccccc1

>  <Energy>  (30) 
30.1828531429104

>  <Genealogy>  (30) 
CCn1cc(Cl)c(=S)nc1SCCc1ccccc1 (3D coordinates assigned)
CCn1cc(Cl)c(=S)nc1SCCc1ccccc1 (optimized conformer: 30.1828531429104 kcal/mol)

>  <smiles>  (30) 
CCn1cc(Cl)c(=S)nc1SCCc1ccccc1

>  <score_type>  (30) 
oracle

>  <origin>  (30) 
adg

>  <m_score__min__energy>  (30) 
-7.3099999999999996

>  <m_primary>  (30) 
energy

$$$$
30:0
     RDKit          3D

 40 42  0  0  0  0  0  0  0  0999 V2000
   -7.1690   21.8900  -32.8110 O   0  0  0  0  0  0  0  0  0  0  0  0
   -6.7350   20.7720  -31.9050 S   0  0  0  0  0  0  0  0  0  0  0  0
   -7.8120   20.6150  -30.8650 O   0  0  0  0  0  0  0  0  0  0  0  0
   -6.6600   19.2700  -32.8330 C   0  0  0  0  0  0  0  0  0  0  0  0
   -5.9330   19.2180  -34.0330 C   0  0  0  0  0  0  0  0  0  0  0  0
   -5.8580   18.0260  -34.7600 C   0  0  0  0  0  0  0  0  0  0  0  0
   -6.4920   16.8750  -34.2860 C   0  0  0  0  0  0  0  0  0  0  0  0
   -7.1920   16.9110  -33.0770 C   0  0  0  0  0  0  0  0  0  0  0  0
   -7.2680   18.1010  -32.3470 C   0  0  0  0  0  0  0  0  0  0  0  0
   -5.2250   21.2010  -31.0990 N   0  0  1  0  0  0  0  0  0  0  0  0
   -4.2930   20.0330  -31.0520 C   0  0  0  0  0  0  0  0  0  0  0  0
   -2.9150   20.2860  -31.6900 C   0  0  0  0  0  0  0  0  0  0  0  0
   -3.0660   20.9830  -33.0380 C   0  0  0  0  0  0  0  0  0  0  0  0
   -3.8440   22.3040  -32.9220 C   0  0  0  0  0  0  0  0  0  0  0  0
   -4.5770   22.4660  -31.5680 C   0  0  1  0  0  0  0  0  0  0  0  0
   -5.5120   23.6990  -31.5740 C   0  0  0  0  0  0  0  0  0  0  0  0
   -4.7760   24.8490  -31.2180 O   0  0  0  0  0  0  0  0  0  0  0  0
   -5.5700   25.5480  -30.3110 C   0  0  0  0  0  0  0  0  0  0  0  0
   -6.8320   24.7530  -30.1350 C   0  0  0  0  0  0  0  0  0  0  0  0
   -6.5780   23.5000  -30.6770 O   0  0  0  0  0  0  0  0  0  0  0  0
   -5.4205   20.1184  -34.4026 H   0  0  0  0  0  0  0  0  0  0  0  0
   -5.2988   17.9945  -35.7068 H   0  0  0  0  0  0  0  0  0  0  0  0
   -6.4403   15.9406  -34.8642 H   0  0  0  0  0  0  0  0  0  0  0  0
   -7.6836   16.0023  -32.6994 H   0  0  0  0  0  0  0  0  0  0  0  0
   -7.8063   18.1217  -31.3879 H   0  0  0  0  0  0  0  0  0  0  0  0
   -5.5100   21.3770  -30.1070 H   0  0  0  0  0  0  0  0  0  0  0  0
   -4.1380   19.7601  -29.9977 H   0  0  0  0  0  0  0  0  0  0  0  0
   -4.7664   19.2329  -31.6400 H   0  0  0  0  0  0  0  0  0  0  0  0
   -2.3177   20.9215  -31.0196 H   0  0  0  0  0  0  0  0  0  0  0  0
   -2.4139   19.3192  -31.8455 H   0  0  0  0  0  0  0  0  0  0  0  0
   -2.0650   21.1952  -33.4417 H   0  0  0  0  0  0  0  0  0  0  0  0
   -3.6313   20.3142  -33.7037 H   0  0  0  0  0  0  0  0  0  0  0  0
   -3.1357   23.1377  -33.0375 H   0  0  0  0  0  0  0  0  0  0  0  0
   -4.6117   22.3003  -33.7098 H   0  0  0  0  0  0  0  0  0  0  0  0
   -3.8140   22.6731  -30.8032 H   0  0  0  0  0  0  0  0  0  0  0  0
   -5.9279   23.8381  -32.5828 H   0  0  0  0  0  0  0  0  0  0  0  0
   -5.0474   25.6467  -29.3481 H   0  0  0  0  0  0  0  0  0  0  0  0
   -5.7902   26.5611  -30.6787 H   0  0  0  0  0  0  0  0  0  0  0  0
   -7.0808   24.6635  -29.0672 H   0  0  0  0  0  0  0  0  0  0  0  0
   -7.6851   25.2393  -30.6308 H   0  0  0  0  0  0  0  0  0  0  0  0
  1  2  2  0
  2  3  2  0
  2  4  1  0
  4  5  2  0
  5  6  1  0
  6  7  2  0
  7  8  1  0
  8  9  2  0
  2 10  1  0
 10 11  1  0
 11 12  1  0
 12 13  1  0
 13 14  1  0
 14 15  1  0
 15 16  1  0
 16 17  1  0
 17 18  1  0
 18 19  1  0
 19 20  1  0
  9  4  1  0
 15 10  1  0
 20 16  1  0
  5 21  1  0
  6 22  1  0
  7 23  1  0
  8 24  1  0
  9 25  1  0
 10 26  1  1
 11 27  1  0
 11 28  1  0
 12 29  1  0
 12 30  1  0
 13 31  1  0
 13 32  1  0
 14 33  1  0
 14 34  1  0
 15 35  1  1
 16 36  1  0
 18 37  1  0
 18 38  1  0
 19 39  1  0
 19 40  1  0
M  CHG  1  10   1
M  END
>  <UniqueID>  (31) 
26

>  <SMILES>  (31) 
O=S(=O)(c1ccccc1)[N@H+]1CCCC[C@H]1C1OCCO1

>  <Energy>  (31) 
49.22167269337736

>  <Genealogy>  (31) 
O=S(=O)(c1ccccc1)[NH+]1CCCCC1C1OCCO1 (protonated)
O=S(=O)(c1ccccc1)[N@H+]1CCCC[C@H]1C1OCCO1 (chirality)
O=S(=O)(c1ccccc1)[N@H+]1CCCC[C@H]1C1OCCO1 (3D coordinates assigned)
O=S(=O)(c1ccccc1)[N@H+]1CCCC[C@H]1C1OCCO1 (nonaromatic ring conformer: 49.22167269337736 kcal/mol)

>  <smiles>  (31) 
O=S(=O)(c1ccccc1)N1CCCCC1C1OCCO1

>  <score_type>  (31) 
oracle

>  <origin>  (31) 
adg

>  <m_score__min__energy>  (31) 
-6.5599999999999996

>  <m_primary>  (31) 
energy

$$$$
31:0
     RDKit          3D

 29 30  0  0  0  0  0  0  0  0999 V2000
   -8.3590   22.0540  -30.3100 O   0  0  0  0  0  0  0  0  0  0  0  0
   -8.0610   21.8720  -31.5230 C   0  0  0  0  0  0  0  0  0  0  0  0
   -8.8350   20.8790  -32.3320 C   0  0  0  0  0  0  0  0  0  0  0  0
   -7.9350   19.7430  -32.7330 C   0  0  0  0  0  0  0  0  0  0  0  0
   -6.8770   19.9600  -33.6330 C   0  0  0  0  0  0  0  0  0  0  0  0
   -6.0110   18.9140  -33.9660 C   0  0  0  0  0  0  0  0  0  0  0  0
   -6.1890   17.6500  -33.3980 C   0  0  0  0  0  0  0  0  0  0  0  0
   -7.2310   17.4300  -32.4920 C   0  0  0  0  0  0  0  0  0  0  0  0
   -8.0990   18.4730  -32.1560 C   0  0  0  0  0  0  0  0  0  0  0  0
   -6.9630   22.5810  -32.1150 N   0  0  0  0  0  0  0  0  0  0  0  0
   -6.0380   23.3560  -31.3420 C   0  0  0  0  0  0  0  0  0  0  0  0
   -6.4870   24.5230  -30.7080 C   0  0  0  0  0  0  0  0  0  0  0  0
   -5.6070   25.2990  -29.9490 C   0  0  0  0  0  0  0  0  0  0  0  0
   -4.2670   24.9230  -29.8310 C   0  0  0  0  0  0  0  0  0  0  0  0
   -3.8020   23.7780  -30.4810 C   0  0  0  0  0  0  0  0  0  0  0  0
   -4.6770   22.9940  -31.2430 C   0  0  0  0  0  0  0  0  0  0  0  0
   -4.0210   21.6190  -32.1260 Cl  0  0  0  0  0  0  0  0  0  0  0  0
   -9.6705   20.4896  -31.7317 H   0  0  0  0  0  0  0  0  0  0  0  0
   -9.2273   21.3701  -33.2347 H   0  0  0  0  0  0  0  0  0  0  0  0
   -6.7300   20.9558  -34.0766 H   0  0  0  0  0  0  0  0  0  0  0  0
   -5.1887   19.0864  -34.6759 H   0  0  0  0  0  0  0  0  0  0  0  0
   -5.5089   16.8273  -33.6638 H   0  0  0  0  0  0  0  0  0  0  0  0
   -7.3679   16.4351  -32.0431 H   0  0  0  0  0  0  0  0  0  0  0  0
   -8.9132   18.2985  -31.4373 H   0  0  0  0  0  0  0  0  0  0  0  0
   -6.9170   22.6490  -33.1560 H   0  0  0  0  0  0  0  0  0  0  0  0
   -7.5386   24.8297  -30.8087 H   0  0  0  0  0  0  0  0  0  0  0  0
   -5.9698   26.2065  -29.4442 H   0  0  0  0  0  0  0  0  0  0  0  0
   -3.5774   25.5294  -29.2255 H   0  0  0  0  0  0  0  0  0  0  0  0
   -2.7438   23.4906  -30.3941 H   0  0  0  0  0  0  0  0  0  0  0  0
  1  2  2  0
  2  3  1  0
  3  4  1  0
  4  5  2  0
  5  6  1  0
  6  7  2  0
  7  8  1  0
  8  9  2  0
  2 10  1  0
 10 11  1  0
 11 12  2  0
 12 13  1  0
 13 14  2  0
 14 15  1  0
 15 16  2  0
 16 17  1  0
  9  4  1  0
 16 11  1  0
  3 18  1  0
  3 19  1  0
  5 20  1  0
  6 21  1  0
  7 22  1  0
  8 23  1  0
  9 24  1  0
 10 25  1  0
 12 26  1  0
 13 27  1  0
 14 28  1  0
 15 29  1  0
M  END
>  <UniqueID>  (32) 
27

>  <SMILES>  (32) 
O=C(Cc1ccccc1)Nc1ccccc1Cl

>  <Energy>  (32) 
32.841730681395816

>  <Genealogy>  (32) 
O=C(Cc1ccccc1)Nc1ccccc1Cl (3D coordinates assigned)
O=C(Cc1ccccc1)Nc1ccccc1Cl (optimized conformer: 32.841730681395816 kcal/mol)

>  <smiles>  (32) 
O=C(Cc1ccccc1)Nc1ccccc1Cl

>  <score_type>  (32) 
oracle

>  <origin>  (32) 
adg

>  <m_score__min__energy>  (32) 
-7.21

>  <m_primary>  (32) 
energy

$$$$
32:0
     RDKit          3D

 71 70  0  0  0  0  0  0  0  0999 V2000
   -9.6460   20.9555  -33.2974 H   0  0  0  0  0  0  0  0  0  0  0  0
   -8.9820   20.5220  -32.5350 C   0  0  0  0  0  0  0  0  0  0  0  0
   -8.6340   21.2780  -31.4820 C   0  0  0  0  0  0  0  0  0  0  0  0
   -8.6810   20.8465  -30.4713 H   0  0  0  0  0  0  0  0  0  0  0  0
   -8.1790   22.7090  -31.6540 C   0  0  0  0  0  0  0  0  0  0  0  0
   -8.1183   23.1778  -30.6608 H   0  0  0  0  0  0  0  0  0  0  0  0
   -8.9127   23.2082  -32.3039 H   0  0  0  0  0  0  0  0  0  0  0  0
   -6.8530   22.8290  -32.3140 N   0  0  1  0  0  0  0  0  0  0  0  0
   -7.0480   22.8010  -33.3440 H   0  0  0  0  0  0  0  0  0  0  0  0
   -6.2870   24.1760  -32.0340 C   0  0  0  0  0  0  0  0  0  0  0  0
   -5.2924   24.2400  -32.4994 H   0  0  0  0  0  0  0  0  0  0  0  0
   -6.9880   24.9156  -32.4483 H   0  0  0  0  0  0  0  0  0  0  0  0
   -6.1430   24.4780  -30.5300 C   0  0  0  0  0  0  0  0  0  0  0  0
   -7.1290   24.7408  -30.1193 H   0  0  0  0  0  0  0  0  0  0  0  0
   -5.7440   23.5840  -30.0284 H   0  0  0  0  0  0  0  0  0  0  0  0
   -5.1750   25.6440  -30.2970 C   0  0  0  0  0  0  0  0  0  0  0  0
   -5.4830   26.5002  -30.9151 H   0  0  0  0  0  0  0  0  0  0  0  0
   -5.1973   25.9199  -29.2324 H   0  0  0  0  0  0  0  0  0  0  0  0
   -3.8140   25.2540  -30.6580 N   0  0  0  0  0  0  0  0  0  0  0  0
   -3.1570   25.6710  -29.9580 H   0  0  0  0  0  0  0  0  0  0  0  0
   -3.5910   25.6980  -31.5800 H   0  0  0  0  0  0  0  0  0  0  0  0
   -5.9100   21.6970  -32.0470 C   0  0  0  0  0  0  0  0  0  0  0  0
   -6.2860   20.8194  -32.5933 H   0  0  0  0  0  0  0  0  0  0  0  0
   -5.8940   21.5987  -30.9515 H   0  0  0  0  0  0  0  0  0  0  0  0
   -4.4220   21.8920  -32.4480 C   0  0  0  0  0  0  0  0  0  0  0  0
   -4.0862   22.8719  -32.0778 H   0  0  0  0  0  0  0  0  0  0  0  0
   -4.3683   21.8225  -33.5445 H   0  0  0  0  0  0  0  0  0  0  0  0
   -3.4830   20.8000  -31.8720 C   0  0  0  0  0  0  0  0  0  0  0  0
   -4.1122   20.0187  -31.4207 H   0  0  0  0  0  0  0  0  0  0  0  0
   -2.8280   21.3189  -31.1566 H   0  0  0  0  0  0  0  0  0  0  0  0
   -2.5640   20.1380  -32.8560 N   0  0  0  0  0  0  0  0  0  0  0  0
   -1.5570   19.3900  -32.0560 C   0  0  0  0  0  0  0  0  0  0  0  0
   -1.7565   19.5382  -30.9844 H   0  0  0  0  0  0  0  0  0  0  0  0
   -1.6206   18.3184  -32.2960 H   0  0  0  0  0  0  0  0  0  0  0  0
   -0.5494   19.7604  -32.2960 H   0  0  0  0  0  0  0  0  0  0  0  0
   -1.8570   21.1690  -33.6560 C   0  0  0  0  0  0  0  0  0  0  0  0
   -1.3662   21.8847  -32.9801 H   0  0  0  0  0  0  0  0  0  0  0  0
   -1.0997   20.6853  -34.2904 H   0  0  0  0  0  0  0  0  0  0  0  0
   -2.5811   21.7011  -34.2904 H   0  0  0  0  0  0  0  0  0  0  0  0
   -3.3380   19.2120  -33.7490 C   0  0  0  0  0  0  0  0  0  0  0  0
   -3.0104   19.3863  -34.7845 H   0  0  0  0  0  0  0  0  0  0  0  0
   -4.3999   19.4419  -33.5771 H   0  0  0  0  0  0  0  0  0  0  0  0
   -3.1710   17.6880  -33.4400 C   0  0  0  0  0  0  0  0  0  0  0  0
   -3.3361   17.5391  -32.3627 H   0  0  0  0  0  0  0  0  0  0  0  0
   -2.1569   17.4189  -33.7705 H   0  0  0  0  0  0  0  0  0  0  0  0
   -4.1060   16.7790  -34.1830 N   0  0  0  0  0  0  0  0  0  0  0  0
   -3.2770   15.6730  -34.7380 C   0  0  0  0  0  0  0  0  0  0  0  0
   -2.8412   15.0915  -33.9122 H   0  0  0  0  0  0  0  0  0  0  0  0
   -3.9075   15.0167  -35.3558 H   0  0  0  0  0  0  0  0  0  0  0  0
   -2.4701   16.0940  -35.3558 H   0  0  0  0  0  0  0  0  0  0  0  0
   -4.7320   17.5120  -35.3140 C   0  0  0  0  0  0  0  0  0  0  0  0
   -5.3991   18.2931  -34.9203 H   0  0  0  0  0  0  0  0  0  0  0  0
   -3.9472   17.9760  -35.9294 H   0  0  0  0  0  0  0  0  0  0  0  0
   -5.3131   16.8095  -35.9294 H   0  0  0  0  0  0  0  0  0  0  0  0
   -5.1460   16.2310  -33.2550 C   0  0  0  0  0  0  0  0  0  0  0  0
   -5.3375   16.9838  -32.4761 H   0  0  0  0  0  0  0  0  0  0  0  0
   -4.7386   15.2871  -32.8638 H   0  0  0  0  0  0  0  0  0  0  0  0
   -6.4900   15.8750  -33.9130 C   0  0  0  0  0  0  0  0  0  0  0  0
   -7.2392   15.6765  -33.1324 H   0  0  0  0  0  0  0  0  0  0  0  0
   -6.8259   16.7151  -34.5386 H   0  0  0  0  0  0  0  0  0  0  0  0
   -6.3660   14.9787  -34.5386 H   0  0  0  0  0  0  0  0  0  0  0  0
   -8.5010   19.1000  -32.7190 C   0  0  0  0  0  0  0  0  0  0  0  0
   -9.1097   18.6507  -33.5176 H   0  0  0  0  0  0  0  0  0  0  0  0
   -8.7140   18.2600  -31.4530 C   0  0  0  0  0  0  0  0  0  0  0  0
   -8.5546   18.8888  -30.5646 H   0  0  0  0  0  0  0  0  0  0  0  0
   -9.7407   17.8652  -31.4433 H   0  0  0  0  0  0  0  0  0  0  0  0
   -7.9995   17.4237  -31.4433 H   0  0  0  0  0  0  0  0  0  0  0  0
   -7.0360   19.0630  -33.1660 C   0  0  0  0  0  0  0  0  0  0  0  0
   -6.3829   19.0465  -32.2810 H   0  0  0  0  0  0  0  0  0  0  0  0
   -6.8593   18.1601  -33.7690 H   0  0  0  0  0  0  0  0  0  0  0  0
   -6.8140   19.9558  -33.7690 H   0  0  0  0  0  0  0  0  0  0  0  0
  1  2  1  0
  2  3  2  0
  3  4  1  0
  3  5  1  0
  5  6  1  0
  5  7  1  0
  5  8  1  0
  8  9  1  6
  8 10  1  0
 10 11  1  0
 10 12  1  0
 10 13  1  0
 13 14  1  0
 13 15  1  0
 13 16  1  0
 16 17  1  0
 16 18  1  0
 16 19  1  0
 19 20  1  0
 19 21  1  0
  8 22  1  0
 22 23  1  0
 22 24  1  0
 22 25  1  0
 25 26  1  0
 25 27  1  0
 25 28  1  0
 28 29  1  0
 28 30  1  0
 28 31  1  0
 31 32  1  0
 32 33  1  0
 32 34  1  0
 32 35  1  0
 31 36  1  0
 36 37  1  0
 36 38  1  0
 36 39  1  0
 31 40  1  0
 40 41  1  0
 40 42  1  0
 40 43  1  0
 43 44  1  0
 43 45  1  0
 43 46  1  0
 46 47  1  0
 47 48  1  0
 47 49  1  0
 47 50  1  0
 46 51  1  0
 51 52  1  0
 51 53  1  0
 51 54  1  0
 46 55  1  0
 55 56  1  0
 55 57  1  0
 55 58  1  0
 58 59  1  0
 58 60  1  0
 58 61  1  0
  2 62  1  0
 62 63  1  0
 62 64  1  0
 64 65  1  0
 64 66  1  0
 64 67  1  0
 62 68  1  0
 68 69  1  0
 68 70  1  0
 68 71  1  0
M  CHG  3   8   1  31   1  46   1
M  END
>  <UniqueID>  (33) 
28

>  <SMILES>  (33) 
CC[N+](C)(C)CC[N+](C)(C)CCC[N@@H+](C/C=C/C(C)C)CCCN

>  <Energy>  (33) 
83.7014388845317

>  <Genealogy>  (33) 
CC[N+](C)(C)CC[N+](C)(C)CCC[NH+](CC=CC(C)C)CCCN (protonated)
CC[N+](C)(C)CC[N+](C)(C)CCC[N@@H+](CC=CC(C)C)CCCN (chirality)
CC[N+](C)(C)CC[N+](C)(C)CCC[N@@H+](C/C=C/C(C)C)CCCN (cis-trans isomerization)
CC[N+](C)(C)CC[N+](C)(C)CCC[N@@H+](C/C=C/C(C)C)CCCN (3D coordinates assigned)
CC[N+](C)(C)CC[N+](C)(C)CCC[N@@H+](C/C=C/C(C)C)CCCN (optimized conformer: 83.7014388845317 kcal/mol)

>  <smiles>  (33) 
CC[N+](C)(C)CC[N+](C)(C)CCCN(CC=CC(C)C)CCCN

>  <score_type>  (33) 
oracle

>  <origin>  (33) 
adg

>  <m_score__min__energy>  (33) 
-4.9900000000000002

>  <m_primary>  (33) 
energy

$$$$
33:0
     RDKit          3D

 55 58  0  0  0  0  0  0  0  0999 V2000
   -0.2470   22.8180  -26.0180 C   0  0  0  0  0  0  0  0  0  0  0  0
   -1.1080   23.4490  -27.0720 C   0  0  0  0  0  0  0  0  0  0  0  0
   -0.7870   24.7100  -27.5990 C   0  0  0  0  0  0  0  0  0  0  0  0
   -1.5890   25.2820  -28.5900 C   0  0  0  0  0  0  0  0  0  0  0  0
   -2.7060   24.5970  -29.0850 C   0  0  0  0  0  0  0  0  0  0  0  0
   -3.4910   25.2100  -30.1170 N   0  0  0  0  0  0  0  0  0  0  0  0
   -5.2060   25.0390  -30.2980 S   0  0  0  0  0  0  0  0  0  0  0  0
   -5.8560   25.2030  -28.9510 O   0  0  0  0  0  0  0  0  0  0  0  0
   -5.7210   26.1220  -31.2120 O   0  0  0  0  0  0  0  0  0  0  0  0
   -5.6070   23.4400  -30.9260 C   0  0  0  0  0  0  0  0  0  0  0  0
   -6.9200   22.9670  -30.8260 C   0  0  0  0  0  0  0  0  0  0  0  0
   -7.2790   21.7500  -31.4160 C   0  0  0  0  0  0  0  0  0  0  0  0
   -6.3290   20.9940  -32.1260 C   0  0  0  0  0  0  0  0  0  0  0  0
   -6.7310   19.7430  -32.8170 C   0  0  0  0  0  0  0  0  0  0  0  0
   -7.8420   19.6840  -33.4080 O   0  0  0  0  0  0  0  0  0  0  0  0
   -5.8560   18.6080  -32.8610 N   0  0  0  0  0  0  0  0  0  0  0  0
   -4.5560   18.7250  -33.5380 C   0  0  0  0  0  0  0  0  0  0  0  0
   -3.7520   17.4340  -33.4080 C   0  0  0  0  0  0  0  0  0  0  0  0
   -4.5920   16.2940  -33.7980 N   0  0  0  0  0  0  0  0  0  0  0  0
   -4.1330   15.3480  -34.7790 C   0  0  0  0  0  0  0  0  0  0  0  0
   -3.1770   15.7270  -35.7360 C   0  0  0  0  0  0  0  0  0  0  0  0
   -2.7360   14.7920  -36.6760 C   0  0  0  0  0  0  0  0  0  0  0  0
   -3.2440   13.4960  -36.6530 C   0  0  0  0  0  0  0  0  0  0  0  0
   -4.2010   13.1540  -35.6960 C   0  0  0  0  0  0  0  0  0  0  0  0
   -4.6270   14.0770  -34.7910 N   0  0  0  0  0  0  0  0  0  0  0  0
   -5.9560   16.1700  -33.2600 C   0  0  0  0  0  0  0  0  0  0  0  0
   -6.3000   17.3220  -32.3030 C   0  0  0  0  0  0  0  0  0  0  0  0
   -5.0000   21.4520  -32.1810 C   0  0  0  0  0  0  0  0  0  0  0  0
   -4.6440   22.6690  -31.5890 C   0  0  0  0  0  0  0  0  0  0  0  0
   -3.0270   23.3340  -28.5580 C   0  0  0  0  0  0  0  0  0  0  0  0
   -2.2300   22.7640  -27.5590 C   0  0  0  0  0  0  0  0  0  0  0  0
   -0.6243   23.0945  -25.0224 H   0  0  0  0  0  0  0  0  0  0  0  0
   -0.2736   21.7240  -26.1294 H   0  0  0  0  0  0  0  0  0  0  0  0
    0.7882   23.1728  -26.1294 H   0  0  0  0  0  0  0  0  0  0  0  0
    0.0983   25.2492  -27.2308 H   0  0  0  0  0  0  0  0  0  0  0  0
   -1.3411   26.2784  -28.9846 H   0  0  0  0  0  0  0  0  0  0  0  0
   -7.6735   23.5545  -30.2811 H   0  0  0  0  0  0  0  0  0  0  0  0
   -8.3115   21.3820  -31.3239 H   0  0  0  0  0  0  0  0  0  0  0  0
   -4.7237   18.9382  -34.6040 H   0  0  0  0  0  0  0  0  0  0  0  0
   -3.9878   19.5401  -33.0661 H   0  0  0  0  0  0  0  0  0  0  0  0
   -2.8713   17.4825  -34.0652 H   0  0  0  0  0  0  0  0  0  0  0  0
   -3.4244   17.3089  -32.3654 H   0  0  0  0  0  0  0  0  0  0  0  0
   -2.7786   16.7523  -35.7453 H   0  0  0  0  0  0  0  0  0  0  0  0
   -1.9899   15.0789  -37.4317 H   0  0  0  0  0  0  0  0  0  0  0  0
   -2.8949   12.7493  -37.3814 H   0  0  0  0  0  0  0  0  0  0  0  0
   -4.6126   12.1342  -35.6732 H   0  0  0  0  0  0  0  0  0  0  0  0
   -5.3310   13.7850  -34.0750 H   0  0  0  0  0  0  0  0  0  0  0  0
   -6.6704   16.1768  -34.0964 H   0  0  0  0  0  0  0  0  0  0  0  0
   -6.0161   15.2277  -32.6956 H   0  0  0  0  0  0  0  0  0  0  0  0
   -7.3888   17.3513  -32.1490 H   0  0  0  0  0  0  0  0  0  0  0  0
   -5.7849   17.1538  -31.3457 H   0  0  0  0  0  0  0  0  0  0  0  0
   -4.2353   20.8493  -32.6929 H   0  0  0  0  0  0  0  0  0  0  0  0
   -3.6035   23.0215  -31.6446 H   0  0  0  0  0  0  0  0  0  0  0  0
   -3.9079   22.7918  -28.9323 H   0  0  0  0  0  0  0  0  0  0  0  0
   -2.4851   21.7737  -27.1539 H   0  0  0  0  0  0  0  0  0  0  0  0
  1  2  1  0
  2  3  2  0
  3  4  1  0
  4  5  2  0
  5  6  1  0
  6  7  1  0
  7  8  2  0
  7  9  2  0
  7 10  1  0
 10 11  2  0
 11 12  1  0
 12 13  2  0
 13 14  1  0
 14 15  2  0
 14 16  1  0
 16 17  1  0
 17 18  1  0
 18 19  1  0
 19 20  1  0
 20 21  2  0
 21 22  1  0
 22 23  2  0
 23 24  1  0
 24 25  2  0
 19 26  1  0
 26 27  1  0
 13 28  1  0
 28 29  2  0
  5 30  1  0
 30 31  2  0
 31  2  1  0
 29 10  1  0
 27 16  1  0
 25 20  1  0
  1 32  1  0
  1 33  1  0
  1 34  1  0
  3 35  1  0
  4 36  1  0
 11 37  1  0
 12 38  1  0
 17 39  1  0
 17 40  1  0
 18 41  1  0
 18 42  1  0
 21 43  1  0
 22 44  1  0
 23 45  1  0
 24 46  1  0
 25 47  1  0
 26 48  1  0
 26 49  1  0
 27 50  1  0
 27 51  1  0
 28 52  1  0
 29 53  1  0
 30 54  1  0
 31 55  1  0
M  CHG  2   6  -1  25   1
M  END
>  <UniqueID>  (34) 
29

>  <SMILES>  (34) 
Cc1ccc([N-]S(=O)(=O)c2ccc(C(=O)N3CCN(c4cccc[nH+]4)CC3)cc2)cc1

>  <Energy>  (34) 
72.64831609760665

>  <Genealogy>  (34) 
Cc1ccc([N-]S(=O)(=O)c2ccc(C(=O)N3CCN(c4cccc[nH+]4)CC3)cc2)cc1 (protonated)
Cc1ccc([N-]S(=O)(=O)c2ccc(C(=O)N3CCN(c4cccc[nH+]4)CC3)cc2)cc1 (3D coordinates assigned)
Cc1ccc([N-]S(=O)(=O)c2ccc(C(=O)N3CCN(c4cccc[nH+]4)CC3)cc2)cc1 (nonaromatic ring conformer: 72.64831609760665 kcal/mol)

>  <smiles>  (34) 
Cc1ccc(NS(=O)(=O)c2ccc(C(=O)N3CCN(c4ccccn4)CC3)cc2)cc1

>  <score_type>  (34) 
oracle

>  <origin>  (34) 
adg

>  <m_score__min__energy>  (34) 
-10.140000000000001

>  <m_primary>  (34) 
energy

$$$$
34:0
     RDKit          3D

 48 51  0  0  0  0  0  0  0  0999 V2000
   -9.4640   21.5930  -31.1570 C   0  0  0  0  0  0  0  0  0  0  0  0
   -9.4130   20.6330  -32.3180 C   0  0  0  0  0  0  0  0  0  0  0  0
   -8.1460   19.8510  -32.3740 C   0  0  0  0  0  0  0  0  0  0  0  0
   -7.9170   18.7430  -31.5760 C   0  0  0  0  0  0  0  0  0  0  0  0
   -6.7040   18.0960  -31.7130 C   0  0  0  0  0  0  0  0  0  0  0  0
   -5.7220   18.4880  -32.5870 C   0  0  0  0  0  0  0  0  0  0  0  0
   -4.4190   17.8130  -32.7510 C   0  0  0  0  0  0  0  0  0  0  0  0
   -3.3630   18.6710  -33.1870 N   0  0  0  0  0  0  0  0  0  0  0  0
   -2.8960   19.8370  -32.7140 C   0  0  0  0  0  0  0  0  0  0  0  0
   -3.3980   20.5740  -31.5560 C   0  0  0  0  0  0  0  0  0  0  0  0
   -2.5330   21.8240  -31.3870 C   0  0  0  0  0  0  0  0  0  0  0  0
   -3.2440   22.9050  -30.6840 C   0  0  0  0  0  0  0  0  0  0  0  0
   -2.6890   23.7520  -29.7280 C   0  0  0  0  0  0  0  0  0  0  0  0
   -3.5820   24.6210  -29.2810 N   0  0  0  0  0  0  0  0  0  0  0  0
   -4.7380   24.3860  -29.9120 C   0  0  0  0  0  0  0  0  0  0  0  0
   -5.9770   25.0260  -29.7950 C   0  0  0  0  0  0  0  0  0  0  0  0
   -6.9890   24.5470  -30.5910 C   0  0  0  0  0  0  0  0  0  0  0  0
   -6.8250   23.4960  -31.4660 C   0  0  0  0  0  0  0  0  0  0  0  0
   -5.5900   22.8630  -31.5790 C   0  0  0  0  0  0  0  0  0  0  0  0
   -4.5610   23.3230  -30.7930 C   0  0  0  0  0  0  0  0  0  0  0  0
   -1.8580   20.2750  -33.4790 N   0  0  0  0  0  0  0  0  0  0  0  0
   -1.6720   19.3830  -34.4330 N   0  0  0  0  0  0  0  0  0  0  0  0
   -2.5840   18.4000  -34.2660 C   0  0  0  0  0  0  0  0  0  0  0  0
   -2.6340   17.4100  -35.0460 O   0  0  0  0  0  0  0  0  0  0  0  0
   -5.9970   19.6070  -33.3670 C   0  0  0  0  0  0  0  0  0  0  0  0
   -7.1920   20.2950  -33.2760 C   0  0  0  0  0  0  0  0  0  0  0  0
   -9.4340   21.0289  -30.2132 H   0  0  0  0  0  0  0  0  0  0  0  0
   -8.6007   22.2730  -31.2053 H   0  0  0  0  0  0  0  0  0  0  0  0
  -10.3945   22.1777  -31.2053 H   0  0  0  0  0  0  0  0  0  0  0  0
  -10.2545   19.9303  -32.2285 H   0  0  0  0  0  0  0  0  0  0  0  0
   -9.4713   21.2298  -33.2402 H   0  0  0  0  0  0  0  0  0  0  0  0
   -8.6732   18.3907  -30.8591 H   0  0  0  0  0  0  0  0  0  0  0  0
   -6.5143   17.2139  -31.0837 H   0  0  0  0  0  0  0  0  0  0  0  0
   -4.1319   17.3783  -31.7822 H   0  0  0  0  0  0  0  0  0  0  0  0
   -4.5536   17.0550  -33.5367 H   0  0  0  0  0  0  0  0  0  0  0  0
   -4.4460   20.8638  -31.7224 H   0  0  0  0  0  0  0  0  0  0  0  0
   -3.3506   19.9487  -30.6523 H   0  0  0  0  0  0  0  0  0  0  0  0
   -1.6352   21.5575  -30.8100 H   0  0  0  0  0  0  0  0  0  0  0  0
   -2.2716   22.1904  -32.3907 H   0  0  0  0  0  0  0  0  0  0  0  0
   -1.6438   23.7050  -29.3883 H   0  0  0  0  0  0  0  0  0  0  0  0
   -3.3780   25.3460  -28.5610 H   0  0  0  0  0  0  0  0  0  0  0  0
   -6.1321   25.8670  -29.1032 H   0  0  0  0  0  0  0  0  0  0  0  0
   -7.9773   25.0256  -30.5265 H   0  0  0  0  0  0  0  0  0  0  0  0
   -7.6732   23.1553  -32.0780 H   0  0  0  0  0  0  0  0  0  0  0  0
   -5.4430   22.0231  -32.2740 H   0  0  0  0  0  0  0  0  0  0  0  0
   -0.9420   19.4460  -35.1780 H   0  0  0  0  0  0  0  0  0  0  0  0
   -5.2366   19.9562  -34.0810 H   0  0  0  0  0  0  0  0  0  0  0  0
   -7.3820   21.1764  -33.9061 H   0  0  0  0  0  0  0  0  0  0  0  0
  1  2  1  0
  2  3  1  0
  3  4  2  0
  4  5  1  0
  5  6  2  0
  6  7  1  0
  7  8  1  0
  8  9  1  0
  9 10  1  0
 10 11  1  0
 11 12  1  0
 12 13  2  0
 13 14  1  0
 14 15  1  0
 15 16  2  0
 16 17  1  0
 17 18  2  0
 18 19  1  0
 19 20  2  0
  9 21  2  0
 21 22  1  0
 22 23  1  0
 23 24  2  0
  6 25  1  0
 25 26  2  0
 26  3  1  0
 23  8  1  0
 20 12  1  0
 20 15  1  0
  1 27  1  0
  1 28  1  0
  1 29  1  0
  2 30  1  0
  2 31  1  0
  4 32  1  0
  5 33  1  0
  7 34  1  0
  7 35  1  0
 10 36  1  0
 10 37  1  0
 11 38  1  0
 11 39  1  0
 13 40  1  0
 14 41  1  0
 16 42  1  0
 17 43  1  0
 18 44  1  0
 19 45  1  0
 22 46  1  0
 25 47  1  0
 26 48  1  0
M  END
>  <smiles>  (35) 
CCc1ccc(Cn2c(CCc3c[nH]c4ccccc34)n[nH]c2=O)cc1

>  <score_type>  (35) 
oracle

>  <origin>  (35) 
adg

>  <m_score__min__energy>  (35) 
-9.8900000000000006

>  <m_primary>  (35) 
energy

$$$$
35:0
     RDKit          3D

 32 33  0  0  0  0  0  0  0  0999 V2000
   -6.4890   18.1630  -33.5860 C   0  0  0  0  0  0  0  0  0  0  0  0
   -7.1260   18.1490  -32.3270 N   0  0  0  0  0  0  0  0  0  0  0  0
   -6.4310   17.6550  -31.2120 C   0  0  0  0  0  0  0  0  0  0  0  0
   -8.3100   18.8900  -32.1520 C   0  0  0  0  0  0  0  0  0  0  0  0
   -8.0990   20.1960  -31.4210 C   0  0  0  0  0  0  0  0  0  0  0  0
   -7.7420   21.3420  -32.2970 C   0  0  0  0  0  0  0  0  0  0  0  0
   -6.5320   22.0330  -31.9970 N   0  0  0  0  0  0  0  0  0  0  0  0
   -5.2930   21.7310  -32.4830 C   0  0  0  0  0  0  0  0  0  0  0  0
   -4.4330   22.6480  -31.9760 N   0  0  0  0  0  0  0  0  0  0  0  0
   -5.0990   23.4990  -31.1970 C   0  0  0  0  0  0  0  0  0  0  0  0
   -4.6440   24.6100  -30.4660 C   0  0  0  0  0  0  0  0  0  0  0  0
   -3.5070   24.9270  -30.4750 N   0  0  0  0  0  0  0  0  0  0  0  0
   -5.5930   25.2990  -29.7540 N   0  0  0  0  0  0  0  0  0  0  0  0
   -6.8810   24.9120  -29.7720 C   0  0  0  0  0  0  0  0  0  0  0  0
   -7.3090   23.8450  -30.4780 N   0  0  0  0  0  0  0  0  0  0  0  0
   -6.4310   23.1310  -31.1940 C   0  0  0  0  0  0  0  0  0  0  0  0
   -5.3984   18.1870  -33.4449 H   0  0  0  0  0  0  0  0  0  0  0  0
   -6.7663   17.2585  -34.1473 H   0  0  0  0  0  0  0  0  0  0  0  0
   -6.8058   19.0544  -34.1473 H   0  0  0  0  0  0  0  0  0  0  0  0
   -6.9209   18.0032  -30.2907 H   0  0  0  0  0  0  0  0  0  0  0  0
   -6.4341   16.5553  -31.2357 H   0  0  0  0  0  0  0  0  0  0  0  0
   -5.3934   18.0194  -31.2357 H   0  0  0  0  0  0  0  0  0  0  0  0
   -8.7334   19.1098  -33.1432 H   0  0  0  0  0  0  0  0  0  0  0  0
   -8.9869   18.2794  -31.5365 H   0  0  0  0  0  0  0  0  0  0  0  0
   -9.0290   20.4464  -30.8897 H   0  0  0  0  0  0  0  0  0  0  0  0
   -7.2453   20.0415  -30.7447 H   0  0  0  0  0  0  0  0  0  0  0  0
   -7.6602   20.9607  -33.3255 H   0  0  0  0  0  0  0  0  0  0  0  0
   -8.5404   22.0820  -32.1391 H   0  0  0  0  0  0  0  0  0  0  0  0
   -5.0400   20.9005  -33.1585 H   0  0  0  0  0  0  0  0  0  0  0  0
   -2.5810   24.9210  -30.6620 H   0  0  0  0  0  0  0  0  0  0  0  0
   -5.3350   26.1420  -29.1780 H   0  0  0  0  0  0  0  0  0  0  0  0
   -7.6141   25.4880  -29.1882 H   0  0  0  0  0  0  0  0  0  0  0  0
  1  2  1  0
  2  3  1  0
  2  4  1  0
  4  5  1  0
  5  6  1  0
  6  7  1  0
  7  8  1  0
  8  9  2  0
  9 10  1  0
 10 11  1  0
 11 12  2  3
 11 13  1  0
 13 14  1  0
 14 15  2  0
 15 16  1  0
 16  7  1  0
 16 10  2  0
  1 17  1  0
  1 18  1  0
  1 19  1  0
  3 20  1  0
  3 21  1  0
  3 22  1  0
  4 23  1  0
  4 24  1  0
  5 25  1  0
  5 26  1  0
  6 27  1  0
  6 28  1  0
  8 29  1  0
 12 30  1  0
 13 31  1  0
 14 32  1  0
M  END
>  <smiles>  (36) 
CN(C)CCCn1cnc2c(=N)[nH]cnc21

>  <score_type>  (36) 
oracle

>  <origin>  (36) 
adg

>  <m_score__min__energy>  (36) 
-6.1799999999999997

>  <m_primary>  (36) 
energy

$$$$
36:0
     RDKit          3D

 30 32  0  0  0  0  0  0  0  0999 V2000
   -0.1010   25.3390  -28.2190 O   0  0  0  0  0  0  0  0  0  0  0  0
   -0.3650   24.2220  -27.6930 C   0  0  0  0  0  0  0  0  0  0  0  0
    0.2600   23.8600  -26.5390 N   0  0  0  0  0  0  0  0  0  0  0  0
    0.0010   22.6640  -25.9460 C   0  0  0  0  0  0  0  0  0  0  0  0
   -0.8930   21.8050  -26.5000 N   0  0  0  0  0  0  0  0  0  0  0  0
   -1.5440   22.1160  -27.6500 C   0  0  0  0  0  0  0  0  0  0  0  0
   -2.4660   21.2200  -28.1990 C   0  0  0  0  0  0  0  0  0  0  0  0
   -3.1350   21.5400  -29.3840 C   0  0  0  0  0  0  0  0  0  0  0  0
   -2.8830   22.7510  -30.0390 C   0  0  0  0  0  0  0  0  0  0  0  0
   -3.5870   23.0360  -31.2170 O   0  0  0  0  0  0  0  0  0  0  0  0
   -4.9600   22.8220  -31.4180 C   0  0  0  0  0  0  0  0  0  0  0  0
   -5.4230   21.5970  -31.9290 C   0  0  0  0  0  0  0  0  0  0  0  0
   -6.7890   21.3630  -32.1020 C   0  0  0  0  0  0  0  0  0  0  0  0
   -7.3120   19.8140  -32.7520 Cl  0  0  0  0  0  0  0  0  0  0  0  0
   -7.7140   22.3540  -31.7500 C   0  0  0  0  0  0  0  0  0  0  0  0
   -9.4420   22.0990  -31.9510 Cl  0  0  0  0  0  0  0  0  0  0  0  0
   -7.2660   23.5690  -31.2240 C   0  0  0  0  0  0  0  0  0  0  0  0
   -5.8910   23.8210  -31.0500 C   0  0  0  0  0  0  0  0  0  0  0  0
   -5.4600   25.0880  -30.5110 N   0  0  0  0  0  0  0  0  0  0  0  0
   -6.2240   25.7590  -29.7850 O   0  0  0  0  0  0  0  0  0  0  0  0
   -4.2250   25.6120  -30.8210 O   0  0  0  0  0  0  0  0  0  0  0  0
   -1.9710   23.6660  -29.4780 C   0  0  0  0  0  0  0  0  0  0  0  0
   -1.2930   23.3500  -28.2870 C   0  0  0  0  0  0  0  0  0  0  0  0
    0.9510   24.5060  -26.0960 H   0  0  0  0  0  0  0  0  0  0  0  0
    0.5177   22.3913  -25.0140 H   0  0  0  0  0  0  0  0  0  0  0  0
   -2.6654   20.2614  -27.6976 H   0  0  0  0  0  0  0  0  0  0  0  0
   -3.8658   20.8340  -29.8053 H   0  0  0  0  0  0  0  0  0  0  0  0
   -4.6999   20.8123  -32.1961 H   0  0  0  0  0  0  0  0  0  0  0  0
   -7.9981   24.3400  -30.9417 H   0  0  0  0  0  0  0  0  0  0  0  0
   -1.7884   24.6312  -29.9731 H   0  0  0  0  0  0  0  0  0  0  0  0
  1  2  2  0
  2  3  1  0
  3  4  1  0
  4  5  2  0
  5  6  1  0
  6  7  2  0
  7  8  1  0
  8  9  2  0
  9 10  1  0
 10 11  1  0
 11 12  2  0
 12 13  1  0
 13 14  1  0
 13 15  2  0
 15 16  1  0
 15 17  1  0
 17 18  2  0
 18 19  1  0
 19 20  2  0
 19 21  1  0
  9 22  1  0
 22 23  2  0
 23  2  1  0
 23  6  1  0
 18 11  1  0
  3 24  1  0
  4 25  1  0
  7 26  1  0
  8 27  1  0
 12 28  1  0
 17 29  1  0
 22 30  1  0
M  CHG  2  19   1  21  -1
M  END
>  <UniqueID>  (37) 
30

>  <SMILES>  (37) 
O=c1[nH]cnc2ccc(Oc3cc(Cl)c(Cl)cc3[N+](=O)[O-])cc12

>  <Energy>  (37) 
47.775203867717714

>  <Genealogy>  (37) 
O=c1[nH]cnc2ccc(Oc3cc(Cl)c(Cl)cc3[N+](=O)[O-])cc12 (3D coordinates assigned)
O=c1[nH]cnc2ccc(Oc3cc(Cl)c(Cl)cc3[N+](=O)[O-])cc12 (optimized conformer: 47.775203867717714 kcal/mol)

>  <smiles>  (37) 
O=c1[nH]cnc2ccc(Oc3cc(Cl)c(Cl)cc3[N+](=O)[O-])cc12

>  <score_type>  (37) 
oracle

>  <origin>  (37) 
adg

>  <m_score__min__energy>  (37) 
-8.8300000000000001

>  <m_primary>  (37) 
energy

$$$$
37:0
     RDKit          3D

 42 45  0  0  0  0  0  0  0  0999 V2000
   -6.8142   18.2654  -33.2132 H   0  0  0  0  0  0  0  0  0  0  0  0
   -7.0570   19.2580  -32.8060 C   0  0  0  0  0  0  0  0  0  0  0  0
   -8.3910   19.6700  -32.7200 C   0  0  0  0  0  0  0  0  0  0  0  0
   -9.1944   19.0005  -33.0611 H   0  0  0  0  0  0  0  0  0  0  0  0
   -8.7070   20.9300  -32.2020 C   0  0  0  0  0  0  0  0  0  0  0  0
   -9.7574   21.2495  -32.1342 H   0  0  0  0  0  0  0  0  0  0  0  0
   -7.6840   21.7860  -31.7690 C   0  0  0  0  0  0  0  0  0  0  0  0
   -7.9670   23.0500  -31.2410 C   0  0  0  0  0  0  0  0  0  0  0  0
   -9.0092   23.3921  -31.1591 H   0  0  0  0  0  0  0  0  0  0  0  0
   -6.9240   23.8770  -30.8180 C   0  0  0  0  0  0  0  0  0  0  0  0
   -7.1421   24.8684  -30.3943 H   0  0  0  0  0  0  0  0  0  0  0  0
   -5.5950   23.4370  -30.9360 C   0  0  0  0  0  0  0  0  0  0  0  0
   -4.4630   24.2770  -30.4910 C   0  0  0  0  0  0  0  0  0  0  0  0
   -4.3840   25.4660  -30.9020 O   0  0  0  0  0  0  0  0  0  0  0  0
   -3.4180   23.7690  -29.6500 N   0  0  0  0  0  0  0  0  0  0  0  0
   -2.6660   24.4850  -28.8680 C   0  0  0  0  0  0  0  0  0  0  0  0
   -1.6980   25.2960  -29.3420 N   0  0  0  0  0  0  0  0  0  0  0  0
   -1.0610   25.9680  -28.3850 N   0  0  0  0  0  0  0  0  0  0  0  0
   -1.5210   25.7050  -27.1390 C   0  0  0  0  0  0  0  0  0  0  0  0
   -0.9850   26.3180  -25.9470 N   0  0  0  0  0  0  0  0  0  0  0  0
   -0.3880   27.6570  -26.0090 C   0  0  0  0  0  0  0  0  0  0  0  0
   -0.8949   28.2412  -26.7912 H   0  0  0  0  0  0  0  0  0  0  0  0
    0.6827   27.5534  -26.2389 H   0  0  0  0  0  0  0  0  0  0  0  0
   -0.5320   28.3850  -24.6660 C   0  0  0  0  0  0  0  0  0  0  0  0
   -1.5883   28.6582  -24.5258 H   0  0  0  0  0  0  0  0  0  0  0  0
    0.1179   29.2719  -24.6986 H   0  0  0  0  0  0  0  0  0  0  0  0
   -0.1020   27.5610  -23.5200 N   0  0  0  0  0  0  0  0  0  0  0  0
    1.3610   27.4040  -23.4530 C   0  0  0  0  0  0  0  0  0  0  0  0
    1.6783   27.3699  -22.4003 H   0  0  0  0  0  0  0  0  0  0  0  0
    1.6528   26.4694  -23.9543 H   0  0  0  0  0  0  0  0  0  0  0  0
    1.8445   28.2554  -23.9543 H   0  0  0  0  0  0  0  0  0  0  0  0
   -0.8160   26.2710  -23.4800 C   0  0  0  0  0  0  0  0  0  0  0  0
   -1.8834   26.4654  -23.2988 H   0  0  0  0  0  0  0  0  0  0  0  0
   -0.3689   25.6693  -22.6750 H   0  0  0  0  0  0  0  0  0  0  0  0
   -0.6770   25.4750  -24.7840 C   0  0  0  0  0  0  0  0  0  0  0  0
   -1.3726   24.6232  -24.7621 H   0  0  0  0  0  0  0  0  0  0  0  0
    0.3608   25.1208  -24.8711 H   0  0  0  0  0  0  0  0  0  0  0  0
   -2.7890   24.5870  -27.1840 S   0  0  0  0  0  0  0  0  0  0  0  0
   -5.3430   22.1960  -31.4400 N   0  0  0  0  0  0  0  0  0  0  0  0
   -6.3380   21.3690  -31.8570 C   0  0  0  0  0  0  0  0  0  0  0  0
   -6.0310   20.1060  -32.3750 C   0  0  0  0  0  0  0  0  0  0  0  0
   -4.9827   19.7797  -32.4434 H   0  0  0  0  0  0  0  0  0  0  0  0
  1  2  1  0
  2  3  2  0
  3  4  1  0
  3  5  1  0
  5  6  1  0
  5  7  2  0
  7  8  1  0
  8  9  1  0
  8 10  2  0
 10 11  1  0
 10 12  1  0
 12 13  1  0
 13 14  2  0
 13 15  1  0
 15 16  2  0
 16 17  1  0
 17 18  1  0
 18 19  2  0
 19 20  1  0
 20 21  1  0
 21 22  1  0
 21 23  1  0
 21 24  1  0
 24 25  1  0
 24 26  1  0
 24 27  1  0
 27 28  1  0
 28 29  1  0
 28 30  1  0
 28 31  1  0
 27 32  1  0
 32 33  1  0
 32 34  1  0
 32 35  1  0
 35 36  1  0
 35 37  1  0
 19 38  1  0
 12 39  2  0
 39 40  1  0
 40 41  2  0
 41 42  1  0
 41  2  1  0
 40  7  1  0
 38 16  1  0
 35 20  1  0
M  CHG  1  17  -1
M  END
>  <UniqueID>  (38) 
31

>  <SMILES>  (38) 
CN1CCN(c2n[n-]/c(=N/C(=O)c3ccc4ccccc4n3)s2)CC1

>  <Energy>  (38) 
94.04208930443265

>  <Genealogy>  (38) 
CN1CCN(c2n[n-]c(=NC(=O)c3ccc4ccccc4n3)s2)CC1 (protonated)
CN1CCN(c2n[n-]/c(=N/C(=O)c3ccc4ccccc4n3)s2)CC1 (cis-trans isomerization)
CN1CCN(c2n[n-]/c(=N/C(=O)c3ccc4ccccc4n3)s2)CC1 (3D coordinates assigned)
CN1CCN(c2n[n-]/c(=N/C(=O)c3ccc4ccccc4n3)s2)CC1 (nonaromatic ring conformer: 94.04208930443265 kcal/mol)

>  <smiles>  (38) 
CN1CCN(c2n[nH]c(=NC(=O)c3ccc4ccccc4n3)s2)CC1

>  <score_type>  (38) 
oracle

>  <origin>  (38) 
adg

>  <m_score__min__energy>  (38) 
-10.710000000000001

>  <m_primary>  (38) 
energy

$$$$
38:0
     RDKit          3D

 36 38  0  0  0  0  0  0  0  0999 V2000
   -5.7120   26.0700  -31.2170 O   0  0  0  0  0  0  0  0  0  0  0  0
   -5.2260   24.9160  -30.3850 S   0  0  0  0  0  0  0  0  0  0  0  0
   -5.7340   25.0740  -28.9790 O   0  0  0  0  0  0  0  0  0  0  0  0
   -3.4920   24.9240  -30.3630 N   0  0  0  0  0  0  0  0  0  0  0  0
   -2.6760   24.2360  -29.4040 C   0  0  0  0  0  0  0  0  0  0  0  0
   -1.5980   24.9200  -28.8300 C   0  0  0  0  0  0  0  0  0  0  0  0
   -0.7580   24.2780  -27.9160 C   0  0  0  0  0  0  0  0  0  0  0  0
   -0.9920   22.9470  -27.5650 C   0  0  0  0  0  0  0  0  0  0  0  0
   -2.0820   22.2530  -28.1130 C   0  0  0  0  0  0  0  0  0  0  0  0
   -2.3160   20.8080  -27.7680 C   0  0  0  0  0  0  0  0  0  0  0  0
   -1.1070   20.1950  -27.4160 O   0  0  0  0  0  0  0  0  0  0  0  0
   -2.9170   22.8990  -29.0370 C   0  0  0  0  0  0  0  0  0  0  0  0
   -5.8180   23.4150  -31.0930 C   0  0  0  0  0  0  0  0  0  0  0  0
   -4.9410   22.5680  -31.7820 C   0  0  0  0  0  0  0  0  0  0  0  0
   -5.4110   21.3910  -32.3700 C   0  0  0  0  0  0  0  0  0  0  0  0
   -6.7680   21.0480  -32.2740 C   0  0  0  0  0  0  0  0  0  0  0  0
   -7.2550   19.8720  -32.8660 C   0  0  0  0  0  0  0  0  0  0  0  0
   -8.6100   19.5440  -32.7640 C   0  0  0  0  0  0  0  0  0  0  0  0
   -9.4870   20.3840  -32.0730 C   0  0  0  0  0  0  0  0  0  0  0  0
   -9.0160   21.5580  -31.4790 C   0  0  0  0  0  0  0  0  0  0  0  0
   -7.6570   21.8990  -31.5730 C   0  0  0  0  0  0  0  0  0  0  0  0
   -7.1730   23.0760  -30.9830 C   0  0  0  0  0  0  0  0  0  0  0  0
   -1.4108   25.9698  -29.1001 H   0  0  0  0  0  0  0  0  0  0  0  0
    0.0888   24.8221  -27.4724 H   0  0  0  0  0  0  0  0  0  0  0  0
   -0.3199   22.4406  -26.8566 H   0  0  0  0  0  0  0  0  0  0  0  0
   -3.0158   20.7448  -26.9217 H   0  0  0  0  0  0  0  0  0  0  0  0
   -2.7392   20.2931  -28.6431 H   0  0  0  0  0  0  0  0  0  0  0  0
   -0.3910   20.6750  -27.9100 H   0  0  0  0  0  0  0  0  0  0  0  0
   -3.7663   22.3564  -29.4778 H   0  0  0  0  0  0  0  0  0  0  0  0
   -3.8758   22.8310  -31.8607 H   0  0  0  0  0  0  0  0  0  0  0  0
   -4.7153   20.7316  -32.9096 H   0  0  0  0  0  0  0  0  0  0  0  0
   -6.5689   19.2072  -33.4113 H   0  0  0  0  0  0  0  0  0  0  0  0
   -8.9871   18.6214  -33.2294 H   0  0  0  0  0  0  0  0  0  0  0  0
  -10.5522   20.1202  -31.9963 H   0  0  0  0  0  0  0  0  0  0  0  0
   -9.7110   22.2161  -30.9369 H   0  0  0  0  0  0  0  0  0  0  0  0
   -7.8598   23.7353  -30.4319 H   0  0  0  0  0  0  0  0  0  0  0  0
  1  2  2  0
  2  3  2  0
  2  4  1  0
  4  5  1  0
  5  6  2  0
  6  7  1  0
  7  8  2  0
  8  9  1  0
  9 10  1  0
 10 11  1  0
  9 12  2  0
  2 13  1  0
 13 14  2  0
 14 15  1  0
 15 16  2  0
 16 17  1  0
 17 18  2  0
 18 19  1  0
 19 20  2  0
 20 21  1  0
 21 22  2  0
 12  5  1  0
 22 13  1  0
 21 16  1  0
  6 23  1  0
  7 24  1  0
  8 25  1  0
 10 26  1  0
 10 27  1  0
 11 28  1  0
 12 29  1  0
 14 30  1  0
 15 31  1  0
 17 32  1  0
 18 33  1  0
 19 34  1  0
 20 35  1  0
 22 36  1  0
M  CHG  1   4  -1
M  END
>  <UniqueID>  (39) 
32

>  <SMILES>  (39) 
O=S(=O)([N-]c1cccc(CO)c1)c1ccc2ccccc2c1

>  <Energy>  (39) 
43.360373969463176

>  <Genealogy>  (39) 
O=S(=O)([N-]c1cccc(CO)c1)c1ccc2ccccc2c1 (protonated)
O=S(=O)([N-]c1cccc(CO)c1)c1ccc2ccccc2c1 (3D coordinates assigned)
O=S(=O)([N-]c1cccc(CO)c1)c1ccc2ccccc2c1 (optimized conformer: 43.360373969463176 kcal/mol)

>  <smiles>  (39) 
O=S(=O)(Nc1cccc(CO)c1)c1ccc2ccccc2c1

>  <score_type>  (39) 
oracle

>  <origin>  (39) 
adg

>  <m_score__min__energy>  (39) 
-10.02

>  <m_primary>  (39) 
energy

$$$$
39:0
     RDKit          3D

 35 35  0  0  0  0  0  0  0  0999 V2000
   -8.7030   21.3520  -31.3620 C   0  0  0  0  0  0  0  0  0  0  0  0
   -8.5770   22.7460  -31.9650 C   0  0  0  0  0  0  0  0  0  0  0  0
   -7.2950   23.2820  -31.6950 O   0  0  0  0  0  0  0  0  0  0  0  0
   -7.1240   23.4880  -30.3080 C   0  0  0  0  0  0  0  0  0  0  0  0
   -6.1780   24.6670  -30.0740 C   0  0  0  0  0  0  0  0  0  0  0  0
   -5.0330   24.6880  -31.0890 C   0  0  0  0  0  0  0  0  0  0  0  0
   -3.8580   25.2990  -30.4840 N   0  0  0  0  0  0  0  0  0  0  0  0
   -2.8940   24.5490  -29.7400 C   0  0  0  0  0  0  0  0  0  0  0  0
   -1.9560   25.1350  -29.1350 O   0  0  0  0  0  0  0  0  0  0  0  0
   -3.0240   23.0600  -29.6440 C   0  0  0  0  0  0  0  0  0  0  0  0
   -2.5860   22.4340  -30.8510 O   0  0  0  0  0  0  0  0  0  0  0  0
   -3.3540   21.5560  -31.6330 C   0  0  0  0  0  0  0  0  0  0  0  0
   -4.7290   21.3430  -31.4110 C   0  0  0  0  0  0  0  0  0  0  0  0
   -5.4440   20.4540  -32.2190 C   0  0  0  0  0  0  0  0  0  0  0  0
   -4.7980   19.7730  -33.2550 C   0  0  0  0  0  0  0  0  0  0  0  0
   -5.7770   18.5580  -34.3570 Br  0  0  0  0  0  0  0  0  0  0  0  0
   -3.4350   19.9830  -33.4830 C   0  0  0  0  0  0  0  0  0  0  0  0
   -2.7180   20.8700  -32.6770 C   0  0  0  0  0  0  0  0  0  0  0  0
   -8.6964   21.4253  -30.2645 H   0  0  0  0  0  0  0  0  0  0  0  0
   -9.6463   20.8931  -31.6932 H   0  0  0  0  0  0  0  0  0  0  0  0
   -7.8573   20.7314  -31.6932 H   0  0  0  0  0  0  0  0  0  0  0  0
   -8.7235   22.6855  -33.0535 H   0  0  0  0  0  0  0  0  0  0  0  0
   -9.3405   23.4002  -31.5188 H   0  0  0  0  0  0  0  0  0  0  0  0
   -8.0992   23.7049  -29.8477 H   0  0  0  0  0  0  0  0  0  0  0  0
   -6.6950   22.5818  -29.8556 H   0  0  0  0  0  0  0  0  0  0  0  0
   -6.7482   25.6036  -30.1613 H   0  0  0  0  0  0  0  0  0  0  0  0
   -5.7422   24.5611  -29.0696 H   0  0  0  0  0  0  0  0  0  0  0  0
   -4.7947   23.6583  -31.3940 H   0  0  0  0  0  0  0  0  0  0  0  0
   -5.3361   25.2713  -31.9710 H   0  0  0  0  0  0  0  0  0  0  0  0
   -2.4100   22.6976  -28.8064 H   0  0  0  0  0  0  0  0  0  0  0  0
   -4.0821   22.8082  -29.4799 H   0  0  0  0  0  0  0  0  0  0  0  0
   -5.2420   21.8784  -30.5985 H   0  0  0  0  0  0  0  0  0  0  0  0
   -6.5168   20.2901  -32.0393 H   0  0  0  0  0  0  0  0  0  0  0  0
   -2.9262   19.4486  -34.2988 H   0  0  0  0  0  0  0  0  0  0  0  0
   -1.6459   21.0316  -32.8628 H   0  0  0  0  0  0  0  0  0  0  0  0
  1  2  1  0
  2  3  1  0
  3  4  1  0
  4  5  1  0
  5  6  1  0
  6  7  1  0
  7  8  1  0
  8  9  2  0
  8 10  1  0
 10 11  1  0
 11 12  1  0
 12 13  2  0
 13 14  1  0
 14 15  2  0
 15 16  1  0
 15 17  1  0
 17 18  2  0
 18 12  1  0
  1 19  1  0
  1 20  1  0
  1 21  1  0
  2 22  1  0
  2 23  1  0
  4 24  1  0
  4 25  1  0
  5 26  1  0
  5 27  1  0
  6 28  1  0
  6 29  1  0
 10 30  1  0
 10 31  1  0
 13 32  1  0
 14 33  1  0
 17 34  1  0
 18 35  1  0
M  CHG  1   7  -1
M  END
>  <UniqueID>  (40) 
33

>  <SMILES>  (40) 
CCOCCC[N-]C(=O)COc1ccc(Br)cc1

>  <Energy>  (40) 
24.47548385678197

>  <Genealogy>  (40) 
CCOCCC[N-]C(=O)COc1ccc(Br)cc1 (protonated)
CCOCCC[N-]C(=O)COc1ccc(Br)cc1 (3D coordinates assigned)
CCOCCC[N-]C(=O)COc1ccc(Br)cc1 (optimized conformer: 24.47548385678197 kcal/mol)

>  <smiles>  (40) 
CCOCCCNC(=O)COc1ccc(Br)cc1

>  <score_type>  (40) 
oracle

>  <origin>  (40) 
adg

>  <m_score__min__energy>  (40) 
-7.8499999999999996

>  <m_primary>  (40) 
energy

$$$$
40:0
     RDKit          3D

 36 37  0  0  0  0  0  0  0  0999 V2000
   -1.2320   27.4260  -24.8280 C   0  0  0  0  0  0  0  0  0  0  0  0
   -0.1930   27.0250  -23.7750 C   0  0  0  0  0  0  0  0  0  0  0  0
    0.3690   25.6570  -23.9340 N   0  0  0  0  0  0  0  0  0  0  0  0
    1.5050   25.5850  -24.8890 C   0  0  0  0  0  0  0  0  0  0  0  0
    1.0900   25.3880  -26.3670 C   0  0  0  0  0  0  0  0  0  0  0  0
   -0.3200   24.9880  -26.5130 N   0  0  0  0  0  0  0  0  0  0  0  0
   -0.5940   24.3640  -28.1210 S   0  0  0  0  0  0  0  0  0  0  0  0
   -1.4200   25.3410  -28.9130 O   0  0  0  0  0  0  0  0  0  0  0  0
    0.7210   24.1720  -28.8250 O   0  0  0  0  0  0  0  0  0  0  0  0
   -1.4250   22.8060  -28.0240 C   0  0  0  0  0  0  0  0  0  0  0  0
   -0.7020   21.6220  -28.2430 C   0  0  0  0  0  0  0  0  0  0  0  0
   -1.3430   20.3820  -28.1900 C   0  0  0  0  0  0  0  0  0  0  0  0
   -2.7120   20.3110  -27.9240 C   0  0  0  0  0  0  0  0  0  0  0  0
   -3.4430   21.4820  -27.7110 C   0  0  0  0  0  0  0  0  0  0  0  0
   -2.8090   22.7300  -27.7610 C   0  0  0  0  0  0  0  0  0  0  0  0
   -3.7860   24.1700  -27.4960 Cl  0  0  0  0  0  0  0  0  0  0  0  0
   -0.6610   23.9690  -25.5180 C   0  0  0  0  0  0  0  0  0  0  0  0
   -0.6640   24.5990  -24.1180 C   0  0  0  0  0  0  0  0  0  0  0  0
   -2.1453   27.7785  -24.3263 H   0  0  0  0  0  0  0  0  0  0  0  0
   -0.8248   28.2316  -25.4567 H   0  0  0  0  0  0  0  0  0  0  0  0
   -1.4716   26.5558  -25.4567 H   0  0  0  0  0  0  0  0  0  0  0  0
    0.6386   27.7433  -23.8256 H   0  0  0  0  0  0  0  0  0  0  0  0
   -0.7177   27.0308  -22.8082 H   0  0  0  0  0  0  0  0  0  0  0  0
    0.8020   25.4630  -22.9980 H   0  0  0  0  0  0  0  0  0  0  0  0
    2.0762   26.5221  -24.8146 H   0  0  0  0  0  0  0  0  0  0  0  0
    2.0934   24.6989  -24.6087 H   0  0  0  0  0  0  0  0  0  0  0  0
    1.2447   26.3348  -26.9052 H   0  0  0  0  0  0  0  0  0  0  0  0
    1.7095   24.5788  -26.7810 H   0  0  0  0  0  0  0  0  0  0  0  0
    0.3757   21.6714  -28.4576 H   0  0  0  0  0  0  0  0  0  0  0  0
   -0.7681   19.4594  -28.3582 H   0  0  0  0  0  0  0  0  0  0  0  0
   -3.2145   19.3334  -27.8822 H   0  0  0  0  0  0  0  0  0  0  0  0
   -4.5216   21.4238  -27.5030 H   0  0  0  0  0  0  0  0  0  0  0  0
   -1.6586   23.5612  -25.7383 H   0  0  0  0  0  0  0  0  0  0  0  0
    0.0830   23.1596  -25.5534 H   0  0  0  0  0  0  0  0  0  0  0  0
   -1.6535   25.0454  -23.9404 H   0  0  0  0  0  0  0  0  0  0  0  0
   -0.4312   23.7954  -23.4038 H   0  0  0  0  0  0  0  0  0  0  0  0
  1  2  1  0
  2  3  1  0
  3  4  1  0
  4  5  1  0
  5  6  1  0
  6  7  1  0
  7  8  2  0
  7  9  2  0
  7 10  1  0
 10 11  2  0
 11 12  1  0
 12 13  2  0
 13 14  1  0
 14 15  2  0
 15 16  1  0
  6 17  1  0
 17 18  1  0
 18  3  1  0
 15 10  1  0
  1 19  1  0
  1 20  1  0
  1 21  1  0
  2 22  1  0
  2 23  1  0
  3 24  1  0
  4 25  1  0
  4 26  1  0
  5 27  1  0
  5 28  1  0
 11 29  1  0
 12 30  1  0
 13 31  1  0
 14 32  1  0
 17 33  1  0
 17 34  1  0
 18 35  1  0
 18 36  1  0
M  CHG  1   3   1
M  END
>  <UniqueID>  (41) 
34

>  <SMILES>  (41) 
CC[NH+]1CCN(S(=O)(=O)c2ccccc2Cl)CC1

>  <Energy>  (41) 
48.575674274526754

>  <Genealogy>  (41) 
CC[NH+]1CCN(S(=O)(=O)c2ccccc2Cl)CC1 (protonated)
CC[NH+]1CCN(S(=O)(=O)c2ccccc2Cl)CC1 (3D coordinates assigned)
CC[NH+]1CCN(S(=O)(=O)c2ccccc2Cl)CC1 (nonaromatic ring conformer: 48.575674274526754 kcal/mol)

>  <smiles>  (41) 
CCN1CCN(S(=O)(=O)c2ccccc2Cl)CC1

>  <score_type>  (41) 
oracle

>  <origin>  (41) 
adg

>  <m_score__min__energy>  (41) 
-6.4400000000000004

>  <m_primary>  (41) 
energy

$$$$
41:0
     RDKit          3D

 30 32  0  0  0  0  0  0  0  0999 V2000
   -1.6160   25.7900  -28.9700 N   0  0  0  0  0  0  0  0  0  0  0  0
   -1.1830   24.4490  -29.1890 C   0  0  0  0  0  0  0  0  0  0  0  0
    0.0280   24.1630  -28.9840 O   0  0  0  0  0  0  0  0  0  0  0  0
   -2.1250   23.3990  -29.6700 C   0  0  0  0  0  0  0  0  0  0  0  0
   -1.7410   22.0490  -29.5680 C   0  0  0  0  0  0  0  0  0  0  0  0
   -2.5850   21.0290  -30.0020 C   0  0  0  0  0  0  0  0  0  0  0  0
   -3.8280   21.3300  -30.5550 C   0  0  0  0  0  0  0  0  0  0  0  0
   -4.2460   22.6670  -30.6870 C   0  0  0  0  0  0  0  0  0  0  0  0
   -5.5070   23.0090  -31.2400 C   0  0  0  0  0  0  0  0  0  0  0  0
   -6.4330   22.0000  -31.8040 C   0  0  0  0  0  0  0  0  0  0  0  0
   -5.9520   21.0110  -32.6760 C   0  0  0  0  0  0  0  0  0  0  0  0
   -6.8210   20.0430  -33.1920 C   0  0  0  0  0  0  0  0  0  0  0  0
   -8.1720   20.0530  -32.8330 C   0  0  0  0  0  0  0  0  0  0  0  0
   -8.6550   21.0270  -31.9540 C   0  0  0  0  0  0  0  0  0  0  0  0
   -9.9650   21.0310  -31.6020 F   0  0  0  0  0  0  0  0  0  0  0  0
   -7.7890   21.9950  -31.4370 C   0  0  0  0  0  0  0  0  0  0  0  0
   -5.8950   24.3550  -31.2760 C   0  0  0  0  0  0  0  0  0  0  0  0
   -5.0360   25.3380  -30.7950 C   0  0  0  0  0  0  0  0  0  0  0  0
   -3.8240   24.9970  -30.2910 N   0  0  0  0  0  0  0  0  0  0  0  0
   -3.3950   23.7060  -30.2230 C   0  0  0  0  0  0  0  0  0  0  0  0
   -2.6320   26.0300  -28.9530 H   0  0  0  0  0  0  0  0  0  0  0  0
   -0.7602   21.7954  -29.1394 H   0  0  0  0  0  0  0  0  0  0  0  0
   -2.2682   19.9799  -29.9075 H   0  0  0  0  0  0  0  0  0  0  0  0
   -4.4875   20.5162  -30.8909 H   0  0  0  0  0  0  0  0  0  0  0  0
   -4.8880   20.9967  -32.9549 H   0  0  0  0  0  0  0  0  0  0  0  0
   -6.4408   19.2739  -33.8804 H   0  0  0  0  0  0  0  0  0  0  0  0
   -8.8553   19.2943  -33.2422 H   0  0  0  0  0  0  0  0  0  0  0  0
   -8.1708   22.7557  -30.7402 H   0  0  0  0  0  0  0  0  0  0  0  0
   -6.8776   24.6341  -31.6841 H   0  0  0  0  0  0  0  0  0  0  0  0
   -5.3407   26.3946  -30.8236 H   0  0  0  0  0  0  0  0  0  0  0  0
  1  2  1  0
  2  3  2  0
  2  4  1  0
  4  5  2  0
  5  6  1  0
  6  7  2  0
  7  8  1  0
  8  9  2  0
  9 10  1  0
 10 11  2  0
 11 12  1  0
 12 13  2  0
 13 14  1  0
 14 15  1  0
 14 16  2  0
  9 17  1  0
 17 18  2  0
 18 19  1  0
 19 20  2  0
 20  4  1  0
 20  8  1  0
 16 10  1  0
  1 21  1  0
  5 22  1  0
  6 23  1  0
  7 24  1  0
 11 25  1  0
 12 26  1  0
 13 27  1  0
 16 28  1  0
 17 29  1  0
 18 30  1  0
M  CHG  1   1  -1
M  END
>  <UniqueID>  (42) 
35

>  <SMILES>  (42) 
[NH-]C(=O)c1cccc2c(-c3cccc(F)c3)ccnc12

>  <Energy>  (42) 
48.25987375866436

>  <Genealogy>  (42) 
[NH-]C(=O)c1cccc2c(-c3cccc(F)c3)ccnc12 (protonated)
[NH-]C(=O)c1cccc2c(-c3cccc(F)c3)ccnc12 (3D coordinates assigned)
[NH-]C(=O)c1cccc2c(-c3cccc(F)c3)ccnc12 (optimized conformer: 48.25987375866436 kcal/mol)

>  <smiles>  (42) 
NC(=O)c1cccc2c(-c3cccc(F)c3)ccnc12

>  <score_type>  (42) 
oracle

>  <origin>  (42) 
adg

>  <m_score__min__energy>  (42) 
-10.85

>  <m_primary>  (42) 
energy

$$$$
42:0
     RDKit          3D

 26 28  0  0  0  0  0  0  0  0999 V2000
   -3.2410   23.8120  -29.9510 C   0  0  0  0  0  0  0  0  0  0  0  0
   -3.8730   24.7700  -30.8090 O   0  0  0  0  0  0  0  0  0  0  0  0
   -5.2490   24.8070  -30.8450 C   0  0  0  0  0  0  0  0  0  0  0  0
   -5.8050   25.8640  -30.4310 O   0  0  0  0  0  0  0  0  0  0  0  0
   -6.0350   23.6630  -31.3440 C   0  0  0  0  0  0  0  0  0  0  0  0
   -7.3670   23.7500  -31.2020 N   0  0  0  0  0  0  0  0  0  0  0  0
   -8.0730   22.7020  -31.6590 C   0  0  0  0  0  0  0  0  0  0  0  0
   -9.3070   22.6710  -31.5840 O   0  0  0  0  0  0  0  0  0  0  0  0
   -7.3960   21.6400  -32.2230 C   0  0  0  0  0  0  0  0  0  0  0  0
   -8.0470   20.0790  -32.9330 S   0  0  0  0  0  0  0  0  0  0  0  0
   -6.4270   19.4760  -33.3440 C   0  0  0  0  0  0  0  0  0  0  0  0
   -6.1060   18.2840  -33.9460 C   0  0  0  0  0  0  0  0  0  0  0  0
   -4.7630   17.9730  -34.1950 C   0  0  0  0  0  0  0  0  0  0  0  0
   -3.8600   18.9280  -33.7990 C   0  0  0  0  0  0  0  0  0  0  0  0
   -4.1900   20.1140  -33.1990 C   0  0  0  0  0  0  0  0  0  0  0  0
   -5.5490   20.4340  -32.9440 C   0  0  0  0  0  0  0  0  0  0  0  0
   -6.0320   21.5450  -32.3700 C   0  0  0  0  0  0  0  0  0  0  0  0
   -5.3680   22.6580  -31.8790 N   0  0  0  0  0  0  0  0  0  0  0  0
   -3.4212   24.0852  -28.9008 H   0  0  0  0  0  0  0  0  0  0  0  0
   -3.6580   22.8131  -30.1468 H   0  0  0  0  0  0  0  0  0  0  0  0
   -2.1586   23.8023  -30.1468 H   0  0  0  0  0  0  0  0  0  0  0  0
   -6.8993   17.5773  -34.2311 H   0  0  0  0  0  0  0  0  0  0  0  0
   -4.4544   17.0317  -34.6732 H   0  0  0  0  0  0  0  0  0  0  0  0
   -2.7934   18.7259  -33.9766 H   0  0  0  0  0  0  0  0  0  0  0  0
   -3.3980   20.8219  -32.9134 H   0  0  0  0  0  0  0  0  0  0  0  0
   -4.3300   22.7190  -31.9260 H   0  0  0  0  0  0  0  0  0  0  0  0
  1  2  1  0
  2  3  1  0
  3  4  2  0
  3  5  1  0
  5  6  2  0
  6  7  1  0
  7  8  2  0
  7  9  1  0
  9 10  1  0
 10 11  1  0
 11 12  2  0
 12 13  1  0
 13 14  2  0
 14 15  1  0
 15 16  2  0
 16 17  1  0
 17 18  1  0
 18  5  1  0
 17  9  2  0
 16 11  1  0
  1 19  1  0
  1 20  1  0
  1 21  1  0
 12 22  1  0
 13 23  1  0
 14 24  1  0
 15 25  1  0
 18 26  1  0
M  END
>  <smiles>  (43) 
COC(=O)c1nc(=O)c2sc3ccccc3c2[nH]1

>  <score_type>  (43) 
oracle

>  <origin>  (43) 
adg

>  <m_score__min__energy>  (43) 
-7.2800000000000002

>  <m_primary>  (43) 
energy

$$$$
43:0
     RDKit          3D

 34 36  0  0  1  0  0  0  0  0999 V2000
   -6.4630   17.5730  -33.6640 C   0  0  0  0  0  0  0  0  0  0  0  0
   -6.0810   18.7980  -34.3170 N   0  0  0  0  0  0  0  0  0  0  0  0
   -5.5130   19.7150  -33.6040 C   0  0  0  0  0  0  0  0  0  0  0  0
   -4.1970   19.9380  -33.7930 N   0  0  0  0  0  0  0  0  0  0  0  0
   -3.5560   20.8840  -33.0750 C   0  0  0  0  0  0  0  0  0  0  0  0
   -4.2150   21.6250  -32.1550 N   0  0  0  0  0  0  0  0  0  0  0  0
   -5.5260   21.4250  -31.9480 C   0  0  0  0  0  0  0  0  0  0  0  0
   -6.2030   20.4680  -32.6650 C   0  0  0  0  0  0  0  0  0  0  0  0
   -7.4900   20.4540  -32.2850 N   0  0  0  0  0  0  0  0  0  0  0  0
   -7.6050   21.4010  -31.3340 C   0  0  0  0  0  0  0  0  0  0  0  0
   -6.4250   22.0030  -31.1130 N   0  0  0  0  0  0  0  0  0  0  0  0
   -6.1430   23.0530  -30.1850 C   0  0  1  0  0  0  0  0  0  0  0  0
   -4.9630   22.9080  -29.4790 O   0  0  0  0  0  0  0  0  0  0  0  0
   -4.9590   24.1230  -28.7560 C   0  0  1  0  0  0  0  0  0  0  0  0
   -3.7470   24.2890  -27.8990 C   0  0  0  0  0  0  0  0  0  0  0  0
   -5.0210   25.1080  -29.9110 C   0  0  1  0  0  0  0  0  0  0  0  0
   -3.7600   25.2990  -30.4710 O   0  0  0  0  0  0  0  0  0  0  0  0
   -5.9280   24.3970  -30.8630 C   0  0  1  0  0  0  0  0  0  0  0  0
   -5.3670   24.2390  -32.1280 O   0  0  0  0  0  0  0  0  0  0  0  0
   -6.4203   17.7101  -32.5734 H   0  0  0  0  0  0  0  0  0  0  0  0
   -7.4877   17.3039  -33.9598 H   0  0  0  0  0  0  0  0  0  0  0  0
   -5.7729   16.7691  -33.9598 H   0  0  0  0  0  0  0  0  0  0  0  0
   -3.6930   19.3690  -34.4970 H   0  0  0  0  0  0  0  0  0  0  0  0
   -2.4820   21.0550  -33.2403 H   0  0  0  0  0  0  0  0  0  0  0  0
   -8.5396   21.6480  -30.8091 H   0  0  0  0  0  0  0  0  0  0  0  0
   -7.0293   23.0036  -29.5354 H   0  0  0  0  0  0  0  0  0  0  0  0
   -5.7693   24.2284  -28.0196 H   0  0  0  0  0  0  0  0  0  0  0  0
   -4.0390   24.2490  -26.8392 H   0  0  0  0  0  0  0  0  0  0  0  0
   -3.0328   23.4803  -28.1133 H   0  0  0  0  0  0  0  0  0  0  0  0
   -3.2766   25.2600  -28.1133 H   0  0  0  0  0  0  0  0  0  0  0  0
   -5.3666   26.1130  -29.6272 H   0  0  0  0  0  0  0  0  0  0  0  0
   -3.6340   24.9010  -31.3500 H   0  0  0  0  0  0  0  0  0  0  0  0
   -6.8572   24.9553  -31.0498 H   0  0  0  0  0  0  0  0  0  0  0  0
   -4.4850   23.8090  -32.0830 H   0  0  0  0  0  0  0  0  0  0  0  0
  1  2  1  0
  2  3  2  0
  3  4  1  0
  4  5  1  0
  5  6  2  0
  6  7  1  0
  7  8  2  0
  8  9  1  0
  9 10  2  0
 10 11  1  0
 11 12  1  0
 12 13  1  0
 13 14  1  0
 14 15  1  0
 14 16  1  0
 16 17  1  0
 16 18  1  0
 18 19  1  0
  8  3  1  0
 18 12  1  0
 11  7  1  0
  1 20  1  0
  1 21  1  0
  1 22  1  0
  4 23  1  0
  5 24  1  0
 10 25  1  0
 12 26  1  1
 14 27  1  1
 15 28  1  0
 15 29  1  0
 15 30  1  0
 16 31  1  1
 17 32  1  0
 18 33  1  6
 19 34  1  0
M  END
>  <smiles>  (44) 
CN=c1[nH]cnc2c1ncn2C1OC(C)C(O)C1O

>  <score_type>  (44) 
oracle

>  <origin>  (44) 
adg

>  <m_score__min__energy>  (44) 
-7.0700000000000003

>  <m_primary>  (44) 
energy

$$$$
44:0
     RDKit          3D

 84 90  0  0  0  0  0  0  0  0999 V2000
   -0.1120   21.4660  -35.1240 C   0  0  0  0  0  0  0  0  0  0  0  0
    0.6900   20.2960  -34.5120 C   0  0  2  0  0  0  0  0  0  0  0  0
    0.1790   18.8840  -35.0380 C   0  0  0  0  0  0  0  0  0  0  0  0
   -1.0480   18.1650  -34.3280 C   0  0  0  0  0  0  0  0  0  0  0  0
   -1.5620   18.8410  -33.0380 C   0  0  2  0  0  0  0  0  0  0  0  0
   -2.8060   19.6250  -32.7590 C   0  0  0  0  0  0  0  0  0  0  0  0
   -2.6880   20.8940  -32.1770 C   0  0  0  0  0  0  0  0  0  0  0  0
   -3.9010   21.5000  -32.1220 N   0  0  0  0  0  0  0  0  0  0  0  0
   -4.1790   22.8480  -31.6160 C   0  0  0  0  0  0  0  0  0  0  0  0
   -5.1980   22.8190  -30.4660 C   0  0  0  0  0  0  0  0  0  0  0  0
   -5.0940   24.0190  -29.5080 C   0  0  0  0  0  0  0  0  0  0  0  0
   -4.4960   23.6400  -28.1450 C   0  0  0  0  0  0  0  0  0  0  0  0
   -3.2420   24.3730  -27.9200 N   0  0  0  0  0  0  0  0  0  0  0  0
   -2.4640   24.5370  -29.1590 C   0  0  0  0  0  0  0  0  0  0  0  0
   -1.5280   23.3260  -29.3850 C   0  0  0  0  0  0  0  0  0  0  0  0
   -1.2640   22.4890  -28.1910 N   0  0  0  0  0  0  0  0  0  0  0  0
   -1.8010   21.1550  -28.3090 C   0  0  0  0  0  0  0  0  0  0  0  0
   -3.0280   20.9100  -28.4560 O   0  0  0  0  0  0  0  0  0  0  0  0
   -0.7660   20.1350  -28.2070 C   0  0  0  0  0  0  0  0  0  0  0  0
   -0.8380   18.7470  -28.2910 C   0  0  0  0  0  0  0  0  0  0  0  0
    0.3570   18.0160  -28.1620 C   0  0  0  0  0  0  0  0  0  0  0  0
    1.5830   18.6860  -27.9550 C   0  0  0  0  0  0  0  0  0  0  0  0
    1.6230   20.0890  -27.8770 C   0  0  0  0  0  0  0  0  0  0  0  0
    0.4210   20.7840  -28.0080 C   0  0  0  0  0  0  0  0  0  0  0  0
    0.1360   22.2120  -27.9880 C   0  0  0  0  0  0  0  0  0  0  0  0
    0.9980   23.1080  -27.7790 O   0  0  0  0  0  0  0  0  0  0  0  0
   -4.7790   20.6010  -32.6460 C   0  0  0  0  0  0  0  0  0  0  0  0
   -6.1590   20.7490  -32.8300 C   0  0  0  0  0  0  0  0  0  0  0  0
   -6.8670   19.6900  -33.4250 C   0  0  0  0  0  0  0  0  0  0  0  0
   -6.1960   18.5150  -33.8340 C   0  0  0  0  0  0  0  0  0  0  0  0
   -4.8080   18.3860  -33.6510 C   0  0  0  0  0  0  0  0  0  0  0  0
   -4.1360   19.4450  -33.0470 C   0  0  0  0  0  0  0  0  0  0  0  0
   -1.3020   21.5180  -31.9020 C   0  0  0  0  0  0  0  0  0  0  0  0
   -0.1070   20.4580  -31.8510 C   0  0  2  0  0  0  0  0  0  0  0  0
    1.0170   20.5170  -32.9650 C   0  0  1  0  0  0  0  0  0  0  0  0
    2.1810   19.5870  -32.5300 C   0  0  0  0  0  0  0  0  0  0  0  0
    1.7580   18.1230  -32.2910 C   0  0  0  0  0  0  0  0  0  0  0  0
    0.4850   18.0000  -31.4400 C   0  0  2  0  0  0  0  0  0  0  0  0
   -0.0120   16.5520  -31.3390 C   0  0  0  0  0  0  0  0  0  0  0  0
   -0.6380   19.0170  -31.7970 C   0  0  2  0  0  0  0  0  0  0  0  0
   -0.5346   22.0826  -34.3170 H   0  0  0  0  0  0  0  0  0  0  0  0
    0.5546   22.0821  -35.7454 H   0  0  0  0  0  0  0  0  0  0  0  0
   -0.9270   21.0665  -35.7454 H   0  0  0  0  0  0  0  0  0  0  0  0
    1.7178   20.2825  -34.9038 H   0  0  0  0  0  0  0  0  0  0  0  0
   -0.1011   19.0211  -36.0929 H   0  0  0  0  0  0  0  0  0  0  0  0
    1.0236   18.2137  -34.8204 H   0  0  0  0  0  0  0  0  0  0  0  0
   -1.8806   18.1287  -35.0459 H   0  0  0  0  0  0  0  0  0  0  0  0
   -0.6806   17.1741  -34.0227 H   0  0  0  0  0  0  0  0  0  0  0  0
   -1.9553   18.0167  -33.6510 H   0  0  0  0  0  0  0  0  0  0  0  0
   -3.2415   23.2934  -31.2517 H   0  0  0  0  0  0  0  0  0  0  0  0
   -4.6027   23.4444  -32.4375 H   0  0  0  0  0  0  0  0  0  0  0  0
   -6.2089   22.8090  -30.8996 H   0  0  0  0  0  0  0  0  0  0  0  0
   -4.9831   21.9181  -29.8726 H   0  0  0  0  0  0  0  0  0  0  0  0
   -4.4551   24.7850  -29.9717 H   0  0  0  0  0  0  0  0  0  0  0  0
   -6.1136   24.3919  -29.3311 H   0  0  0  0  0  0  0  0  0  0  0  0
   -5.2130   23.8938  -27.3503 H   0  0  0  0  0  0  0  0  0  0  0  0
   -4.2880   22.5599  -28.1318 H   0  0  0  0  0  0  0  0  0  0  0  0
   -3.5010   25.3270  -27.5770 H   0  0  0  0  0  0  0  0  0  0  0  0
   -3.1554   24.6221  -30.0103 H   0  0  0  0  0  0  0  0  0  0  0  0
   -1.8500   25.4455  -29.0718 H   0  0  0  0  0  0  0  0  0  0  0  0
   -1.9839   22.6847  -30.1537 H   0  0  0  0  0  0  0  0  0  0  0  0
   -0.5552   23.7481  -29.6775 H   0  0  0  0  0  0  0  0  0  0  0  0
   -1.6530   22.9450  -27.3330 H   0  0  0  0  0  0  0  0  0  0  0  0
   -1.7995   18.2378  -28.4532 H   0  0  0  0  0  0  0  0  0  0  0  0
    0.3365   16.9179  -28.2226 H   0  0  0  0  0  0  0  0  0  0  0  0
    2.5124   18.1063  -27.8542 H   0  0  0  0  0  0  0  0  0  0  0  0
    2.5721   20.6217  -27.7177 H   0  0  0  0  0  0  0  0  0  0  0  0
   -6.6752   21.6687  -32.5176 H   0  0  0  0  0  0  0  0  0  0  0  0
   -7.9535   19.7767  -33.5737 H   0  0  0  0  0  0  0  0  0  0  0  0
   -6.7639   17.6956  -34.2988 H   0  0  0  0  0  0  0  0  0  0  0  0
   -4.2724   17.4809  -33.9735 H   0  0  0  0  0  0  0  0  0  0  0  0
   -1.0858   22.2441  -32.6996 H   0  0  0  0  0  0  0  0  0  0  0  0
   -1.3557   21.9832  -30.9067 H   0  0  0  0  0  0  0  0  0  0  0  0
    0.3995   20.7713  -30.9262 H   0  0  0  0  0  0  0  0  0  0  0  0
    1.2456   21.5928  -32.9855 H   0  0  0  0  0  0  0  0  0  0  0  0
    2.9482   19.6012  -33.3182 H   0  0  0  0  0  0  0  0  0  0  0  0
    2.5539   19.9716  -31.5693 H   0  0  0  0  0  0  0  0  0  0  0  0
    1.5760   17.6466  -33.2657 H   0  0  0  0  0  0  0  0  0  0  0  0
    2.5724   17.6298  -31.7400 H   0  0  0  0  0  0  0  0  0  0  0  0
    0.7912   18.2972  -30.4262 H   0  0  0  0  0  0  0  0  0  0  0  0
   -0.1086   16.2705  -30.2800 H   0  0  0  0  0  0  0  0  0  0  0  0
   -0.9914   16.4652  -31.8323 H   0  0  0  0  0  0  0  0  0  0  0  0
    0.7076   15.8821  -31.8323 H   0  0  0  0  0  0  0  0  0  0  0  0
   -1.3013   18.7770  -30.9529 H   0  0  0  0  0  0  0  0  0  0  0  0
  1  2  1  0
  2  3  1  0
  3  4  1  0
  4  5  1  0
  5  6  1  0
  6  7  2  0
  7  8  1  0
  8  9  1  0
  9 10  1  0
 10 11  1  0
 11 12  1  0
 12 13  1  0
 13 14  1  0
 14 15  1  0
 15 16  1  0
 16 17  1  0
 17 18  2  0
 17 19  1  0
 19 20  2  0
 20 21  1  0
 21 22  2  0
 22 23  1  0
 23 24  2  0
 24 25  1  0
 25 26  2  0
  8 27  1  0
 27 28  2  0
 28 29  1  0
 29 30  2  0
 30 31  1  0
 31 32  2  0
  7 33  1  0
 33 34  1  0
 34 35  1  0
 35 36  1  0
 36 37  1  0
 37 38  1  0
 38 39  1  0
 38 40  1  0
 35  2  1  0
 40  5  1  0
 32  6  1  0
 40 34  1  0
 25 16  1  0
 32 27  1  0
 24 19  1  0
  1 41  1  0
  1 42  1  0
  1 43  1  0
  2 44  1  6
  3 45  1  0
  3 46  1  0
  4 47  1  0
  4 48  1  0
  5 49  1  1
  9 50  1  0
  9 51  1  0
 10 52  1  0
 10 53  1  0
 11 54  1  0
 11 55  1  0
 12 56  1  0
 12 57  1  0
 13 58  1  0
 14 59  1  0
 14 60  1  0
 15 61  1  0
 15 62  1  0
 16 63  1  0
 20 64  1  0
 21 65  1  0
 22 66  1  0
 23 67  1  0
 28 68  1  0
 29 69  1  0
 30 70  1  0
 31 71  1  0
 33 72  1  0
 33 73  1  0
 34 74  1  1
 35 75  1  6
 36 76  1  0
 36 77  1  0
 37 78  1  0
 37 79  1  0
 38 80  1  1
 39 81  1  0
 39 82  1  0
 39 83  1  0
 40 84  1  1
M  CHG  1  16   1
M  END
>  <UniqueID>  (45) 
36

>  <SMILES>  (45) 
CC1CCC2C3Cc4c(c5ccccc5n4CCCCNCC[NH+]4C(=O)c5ccccc5C4=O)[C@H](CC[C@H]2C)C13

>  <Energy>  (45) 
266.205800191723

>  <Genealogy>  (45) 
CC1CCC2c3c(n(CCCCNCC[NH+]4C(=O)c5ccccc5C4=O)c4ccccc34)CC3C1CCC(C)C23 (protonated)
CC1CCC2C3Cc4c(c5ccccc5n4CCCCNCC[NH+]4C(=O)c5ccccc5C4=O)[C@H](CC[C@H]2C)C13 (chirality)
CC1CCC2C3Cc4c(c5ccccc5n4CCCCNCC[NH+]4C(=O)c5ccccc5C4=O)[C@H](CC[C@H]2C)C13 (3D coordinates assigned)
CC1CCC2C3Cc4c(c5ccccc5n4CCCCNCC[NH+]4C(=O)c5ccccc5C4=O)[C@H](CC[C@H]2C)C13 (nonaromatic ring conformer: 266.205800191723 kcal/mol)

>  <smiles>  (45) 
CC1CCC2c3c(n(CCCCNCCN4C(=O)c5ccccc5C4=O)c4ccccc34)CC3C1CCC(C)C23

>  <score_type>  (45) 
oracle

>  <origin>  (45) 
adg

>  <m_score__min__energy>  (45) 
-9.75

>  <m_primary>  (45) 
energy

$$$$
45:0
     RDKit          3D

 38 40  0  0  0  0  0  0  0  0999 V2000
   -1.6400   25.5150  -28.9790 O   0  0  0  0  0  0  0  0  0  0  0  0
   -2.2930   24.5000  -29.3360 C   0  0  0  0  0  0  0  0  0  0  0  0
   -1.6190   23.2380  -29.4200 N   0  0  0  0  0  0  0  0  0  0  0  0
   -1.7310   22.2930  -30.4930 C   0  0  0  0  0  0  0  0  0  0  0  0
   -0.6630   21.4640  -30.8640 C   0  0  0  0  0  0  0  0  0  0  0  0
   -0.8070   20.5830  -31.9340 C   0  0  0  0  0  0  0  0  0  0  0  0
   -2.0140   20.5450  -32.6340 C   0  0  0  0  0  0  0  0  0  0  0  0
   -3.0510   21.3610  -32.2750 N   0  0  0  0  0  0  0  0  0  0  0  0
   -4.2980   21.3350  -33.0490 C   0  0  0  0  0  0  0  0  0  0  0  0
   -5.3740   22.1710  -32.3500 C   0  0  0  0  0  0  0  0  0  0  0  0
   -6.6850   21.4330  -32.3200 C   0  0  0  0  0  0  0  0  0  0  0  0
   -7.8370   22.0550  -31.8110 C   0  0  0  0  0  0  0  0  0  0  0  0
   -9.0470   21.3570  -31.7530 C   0  0  0  0  0  0  0  0  0  0  0  0
   -9.1130   20.0320  -32.1930 C   0  0  0  0  0  0  0  0  0  0  0  0
   -7.9680   19.4020  -32.6870 C   0  0  0  0  0  0  0  0  0  0  0  0
   -6.7550   20.0970  -32.7470 C   0  0  0  0  0  0  0  0  0  0  0  0
   -2.9160   22.2390  -31.2360 C   0  0  0  0  0  0  0  0  0  0  0  0
   -3.7090   24.6600  -29.7150 C   0  0  0  0  0  0  0  0  0  0  0  0
   -4.8030   24.1010  -29.0810 C   0  0  0  0  0  0  0  0  0  0  0  0
   -5.9020   24.5140  -29.8020 C   0  0  0  0  0  0  0  0  0  0  0  0
   -5.4150   25.2930  -30.8310 C   0  0  0  0  0  0  0  0  0  0  0  0
   -4.1050   25.3580  -30.7540 O   0  0  0  0  0  0  0  0  0  0  0  0
    0.2870   21.5089  -30.3114 H   0  0  0  0  0  0  0  0  0  0  0  0
    0.0236   19.9230  -32.2246 H   0  0  0  0  0  0  0  0  0  0  0  0
   -2.1320   19.8532  -33.4811 H   0  0  0  0  0  0  0  0  0  0  0  0
   -4.1117   21.7479  -34.0514 H   0  0  0  0  0  0  0  0  0  0  0  0
   -4.6481   20.2953  -33.1292 H   0  0  0  0  0  0  0  0  0  0  0  0
   -5.0544   22.3814  -31.3187 H   0  0  0  0  0  0  0  0  0  0  0  0
   -5.5094   23.1100  -32.9068 H   0  0  0  0  0  0  0  0  0  0  0  0
   -7.7869   23.0952  -31.4567 H   0  0  0  0  0  0  0  0  0  0  0  0
   -9.9480   21.8511  -31.3607 H   0  0  0  0  0  0  0  0  0  0  0  0
  -10.0665   19.4852  -32.1503 H   0  0  0  0  0  0  0  0  0  0  0  0
   -8.0202   18.3579  -33.0293 H   0  0  0  0  0  0  0  0  0  0  0  0
   -5.8538   19.5955  -33.1297 H   0  0  0  0  0  0  0  0  0  0  0  0
   -3.7486   22.9111  -30.9808 H   0  0  0  0  0  0  0  0  0  0  0  0
   -4.7972   23.4600  -28.1871 H   0  0  0  0  0  0  0  0  0  0  0  0
   -6.9554   24.2715  -29.5982 H   0  0  0  0  0  0  0  0  0  0  0  0
   -6.0298   25.7849  -31.5991 H   0  0  0  0  0  0  0  0  0  0  0  0
  1  2  2  0
  2  3  1  0
  3  4  1  0
  4  5  2  0
  5  6  1  0
  6  7  2  0
  7  8  1  0
  8  9  1  0
  9 10  1  0
 10 11  1  0
 11 12  2  0
 12 13  1  0
 13 14  2  0
 14 15  1  0
 15 16  2  0
  8 17  2  0
  2 18  1  0
 18 19  2  0
 19 20  1  0
 20 21  2  0
 21 22  1  0
 17  4  1  0
 22 18  1  0
 16 11  1  0
  5 23  1  0
  6 24  1  0
  7 25  1  0
  9 26  1  0
  9 27  1  0
 10 28  1  0
 10 29  1  0
 12 30  1  0
 13 31  1  0
 14 32  1  0
 15 33  1  0
 16 34  1  0
 17 35  1  0
 19 36  1  0
 20 37  1  0
 21 38  1  0
M  CHG  2   3  -1   8   1
M  END
>  <UniqueID>  (46) 
37

>  <SMILES>  (46) 
O=C([N-]c1ccc[n+](CCc2ccccc2)c1)c1ccco1

>  <Energy>  (46) 
68.8913605724544

>  <Genealogy>  (46) 
O=C([N-]c1ccc[n+](CCc2ccccc2)c1)c1ccco1 (protonated)
O=C([N-]c1ccc[n+](CCc2ccccc2)c1)c1ccco1 (3D coordinates assigned)
O=C([N-]c1ccc[n+](CCc2ccccc2)c1)c1ccco1 (optimized conformer: 68.8913605724544 kcal/mol)

>  <smiles>  (46) 
O=C(Nc1ccc[n+](CCc2ccccc2)c1)c1ccco1

>  <score_type>  (46) 
oracle

>  <origin>  (46) 
adg

>  <m_score__min__energy>  (46) 
-9.0199999999999996

>  <m_primary>  (46) 
energy

$$$$
46:0
     RDKit          3D

 26 27  0  0  0  0  0  0  0  0999 V2000
   -2.2560   24.9010  -28.6420 C   0  0  0  0  0  0  0  0  0  0  0  0
   -3.1050   25.2900  -29.7170 O   0  0  0  0  0  0  0  0  0  0  0  0
   -4.1730   24.5200  -30.2020 C   0  0  0  0  0  0  0  0  0  0  0  0
   -3.9810   23.2830  -30.8450 C   0  0  0  0  0  0  0  0  0  0  0  0
   -5.0790   22.5530  -31.3120 C   0  0  0  0  0  0  0  0  0  0  0  0
   -6.3870   23.0420  -31.1480 C   0  0  0  0  0  0  0  0  0  0  0  0
   -7.5530   22.2670  -31.6430 C   0  0  0  0  0  0  0  0  0  0  0  0
   -7.5990   20.9030  -31.8810 C   0  0  0  0  0  0  0  0  0  0  0  0
   -8.8890   20.6850  -32.3240 C   0  0  0  0  0  0  0  0  0  0  0  0
   -9.4790   19.3710  -32.7080 C   0  0  0  0  0  0  0  0  0  0  0  0
   -9.5390   21.8250  -32.3310 O   0  0  0  0  0  0  0  0  0  0  0  0
   -8.7640   22.7890  -31.9330 N   0  0  0  0  0  0  0  0  0  0  0  0
   -6.5710   24.2770  -30.5030 C   0  0  0  0  0  0  0  0  0  0  0  0
   -5.4730   25.0070  -30.0370 C   0  0  0  0  0  0  0  0  0  0  0  0
   -2.7492   25.1270  -27.6851 H   0  0  0  0  0  0  0  0  0  0  0  0
   -2.0556   23.8213  -28.7053 H   0  0  0  0  0  0  0  0  0  0  0  0
   -1.3074   25.4543  -28.7053 H   0  0  0  0  0  0  0  0  0  0  0  0
   -2.9632   22.8885  -30.9809 H   0  0  0  0  0  0  0  0  0  0  0  0
   -4.9176   21.5868  -31.8125 H   0  0  0  0  0  0  0  0  0  0  0  0
   -6.7946   20.1646  -31.7480 H   0  0  0  0  0  0  0  0  0  0  0  0
   -9.7336   18.8041  -31.8004 H   0  0  0  0  0  0  0  0  0  0  0  0
  -10.3887   19.5375  -33.3035 H   0  0  0  0  0  0  0  0  0  0  0  0
   -8.7501   18.8018  -33.3035 H   0  0  0  0  0  0  0  0  0  0  0  0
   -9.0680   23.7830  -31.8410 H   0  0  0  0  0  0  0  0  0  0  0  0
   -7.5877   24.6730  -30.3635 H   0  0  0  0  0  0  0  0  0  0  0  0
   -5.6337   25.9731  -29.5361 H   0  0  0  0  0  0  0  0  0  0  0  0
  1  2  1  0
  2  3  1  0
  3  4  2  0
  4  5  1  0
  5  6  2  0
  6  7  1  0
  7  8  1  0
  8  9  2  0
  9 10  1  0
  9 11  1  0
 11 12  1  0
  6 13  1  0
 13 14  2  0
 14  3  1  0
 12  7  2  0
  1 15  1  0
  1 16  1  0
  1 17  1  0
  4 18  1  0
  5 19  1  0
  8 20  1  0
 10 21  1  0
 10 22  1  0
 10 23  1  0
 12 24  1  0
 13 25  1  0
 14 26  1  0
M  CHG  1  12   1
M  END
>  <UniqueID>  (47) 
38

>  <SMILES>  (47) 
COc1ccc(-c2cc(C)o[nH+]2)cc1

>  <Energy>  (47) 
57.36078155215384

>  <Genealogy>  (47) 
COc1ccc(-c2cc(C)o[nH+]2)cc1 (protonated)
COc1ccc(-c2cc(C)o[nH+]2)cc1 (3D coordinates assigned)
COc1ccc(-c2cc(C)o[nH+]2)cc1 (optimized conformer: 57.36078155215384 kcal/mol)

>  <smiles>  (47) 
COc1ccc(-c2cc(C)on2)cc1

>  <score_type>  (47) 
oracle

>  <origin>  (47) 
adg

>  <m_score__min__energy>  (47) 
-6.0499999999999998

>  <m_primary>  (47) 
energy

$$$$
47:0
     RDKit          3D

 29 31  0  0  0  0  0  0  0  0999 V2000
    0.8420   20.1990  -32.7760 C   0  0  0  0  0  0  0  0  0  0  0  0
   -0.6340   20.4520  -32.6950 C   0  0  0  0  0  0  0  0  0  0  0  0
   -1.2400   20.7080  -31.4560 C   0  0  0  0  0  0  0  0  0  0  0  0
   -2.6100   20.9800  -31.3840 C   0  0  0  0  0  0  0  0  0  0  0  0
   -3.3860   21.0280  -32.5530 C   0  0  0  0  0  0  0  0  0  0  0  0
   -4.8380   21.2860  -32.4890 C   0  0  0  0  0  0  0  0  0  0  0  0
   -5.7510   20.4220  -32.9850 N   0  0  0  0  0  0  0  0  0  0  0  0
   -6.9420   20.9800  -32.6860 C   0  0  0  0  0  0  0  0  0  0  0  0
   -6.8190   22.1500  -32.0310 N   0  0  0  0  0  0  0  0  0  0  0  0
   -7.9180   23.0180  -31.6160 C   0  0  0  0  0  0  0  0  0  0  0  0
   -5.4930   22.3640  -31.9050 C   0  0  0  0  0  0  0  0  0  0  0  0
   -4.8800   23.5950  -31.3600 C   0  0  0  0  0  0  0  0  0  0  0  0
   -3.6510   23.6600  -30.8170 N   0  0  0  0  0  0  0  0  0  0  0  0
   -3.4920   24.9320  -30.4910 N   0  0  0  0  0  0  0  0  0  0  0  0
   -4.5730   25.6170  -30.8250 N   0  0  0  0  0  0  0  0  0  0  0  0
   -5.4620   24.8080  -31.3760 N   0  0  0  0  0  0  0  0  0  0  0  0
   -2.7790   20.7660  -33.7910 C   0  0  0  0  0  0  0  0  0  0  0  0
   -1.4100   20.4940  -33.8630 C   0  0  0  0  0  0  0  0  0  0  0  0
    1.2581   20.1277  -31.7602 H   0  0  0  0  0  0  0  0  0  0  0  0
    1.0235   19.2566  -33.3136 H   0  0  0  0  0  0  0  0  0  0  0  0
    1.3270   21.0271  -33.3136 H   0  0  0  0  0  0  0  0  0  0  0  0
   -0.6352   20.6948  -30.5373 H   0  0  0  0  0  0  0  0  0  0  0  0
   -3.0820   21.1572  -30.4063 H   0  0  0  0  0  0  0  0  0  0  0  0
   -7.9097   20.5279  -32.9490 H   0  0  0  0  0  0  0  0  0  0  0  0
   -7.9626   23.0533  -30.5175 H   0  0  0  0  0  0  0  0  0  0  0  0
   -7.7528   24.0320  -32.0090 H   0  0  0  0  0  0  0  0  0  0  0  0
   -8.8662   22.6224  -32.0090 H   0  0  0  0  0  0  0  0  0  0  0  0
   -3.3840   20.7748  -34.7096 H   0  0  0  0  0  0  0  0  0  0  0  0
   -0.9387   20.3120  -34.8401 H   0  0  0  0  0  0  0  0  0  0  0  0
  1  2  1  0
  2  3  2  0
  3  4  1  0
  4  5  2  0
  5  6  1  0
  6  7  1  0
  7  8  2  0
  8  9  1  0
  9 10  1  0
  9 11  1  0
 11 12  1  0
 12 13  1  0
 13 14  2  0
 14 15  1  0
 15 16  1  0
  5 17  1  0
 17 18  2  0
 18  2  1  0
 11  6  2  0
 16 12  2  0
  1 19  1  0
  1 20  1  0
  1 21  1  0
  3 22  1  0
  4 23  1  0
  8 24  1  0
 10 25  1  0
 10 26  1  0
 10 27  1  0
 17 28  1  0
 18 29  1  0
M  CHG  1  15  -1
M  END
>  <UniqueID>  (48) 
39

>  <SMILES>  (48) 
Cc1ccc(-c2ncn(C)c2-c2nn[n-]n2)cc1

>  <Energy>  (48) 
104.49292095672824

>  <Genealogy>  (48) 
Cc1ccc(-c2ncn(C)c2-c2nn[n-]n2)cc1 (protonated)
Cc1ccc(-c2ncn(C)c2-c2nn[n-]n2)cc1 (3D coordinates assigned)
Cc1ccc(-c2ncn(C)c2-c2nn[n-]n2)cc1 (optimized conformer: 104.49292095672824 kcal/mol)

>  <smiles>  (48) 
Cc1ccc(-c2ncn(C)c2-c2nn[nH]n2)cc1

>  <score_type>  (48) 
oracle

>  <origin>  (48) 
adg

>  <m_score__min__energy>  (48) 
-8.1300000000000008

>  <m_primary>  (48) 
energy

$$$$
48:0
     RDKit          3D

 41 42  0  0  0  0  0  0  0  0999 V2000
   -3.8740   22.6170  -27.8520 C   0  0  0  0  0  0  0  0  0  0  0  0
   -3.8750   24.0440  -28.4140 C   0  0  1  0  0  0  0  0  0  0  0  0
   -2.9970   24.1820  -29.6810 C   0  0  0  0  0  0  0  0  0  0  0  0
   -3.6390   23.6940  -30.9250 N   0  0  0  0  0  0  0  0  0  0  0  0
   -2.9830   22.4870  -31.4690 C   0  0  0  0  0  0  0  0  0  0  0  0
   -3.8150   21.8990  -32.6200 C   0  0  0  0  0  0  0  0  0  0  0  0
   -4.1770   20.4320  -32.3790 C   0  0  0  0  0  0  0  0  0  0  0  0
   -5.0930   19.7440  -33.8020 S   0  0  0  0  0  0  0  0  0  0  0  0
   -6.6670   19.7140  -32.9310 C   0  0  0  0  0  0  0  0  0  0  0  0
   -7.2550   20.9250  -32.5300 C   0  0  0  0  0  0  0  0  0  0  0  0
   -6.6450   22.1070  -32.8000 F   0  0  0  0  0  0  0  0  0  0  0  0
   -8.4770   20.9210  -31.8500 C   0  0  0  0  0  0  0  0  0  0  0  0
   -9.1160   19.7130  -31.5650 C   0  0  0  0  0  0  0  0  0  0  0  0
   -8.5350   18.5040  -31.9570 C   0  0  0  0  0  0  0  0  0  0  0  0
   -7.3110   18.4970  -32.6380 C   0  0  0  0  0  0  0  0  0  0  0  0
   -6.6140   16.9520  -33.1070 Cl  0  0  0  0  0  0  0  0  0  0  0  0
   -5.0950   23.4970  -30.8030 C   0  0  0  0  0  0  0  0  0  0  0  0
   -5.7390   24.5260  -29.8570 C   0  0  2  0  0  0  0  0  0  0  0  0
   -5.7170   25.9430  -30.4410 C   0  0  0  0  0  0  0  0  0  0  0  0
   -5.2060   24.5310  -28.5410 O   0  0  0  0  0  0  0  0  0  0  0  0
   -3.8740   22.6559  -26.7527 H   0  0  0  0  0  0  0  0  0  0  0  0
   -4.7718   22.0852  -28.2001 H   0  0  0  0  0  0  0  0  0  0  0  0
   -2.9755   22.0865  -28.2001 H   0  0  0  0  0  0  0  0  0  0  0  0
   -3.3839   24.7111  -27.6902 H   0  0  0  0  0  0  0  0  0  0  0  0
   -2.7505   25.2456  -29.8150 H   0  0  0  0  0  0  0  0  0  0  0  0
   -2.1086   23.5542  -29.5182 H   0  0  0  0  0  0  0  0  0  0  0  0
   -1.9840   22.7548  -31.8436 H   0  0  0  0  0  0  0  0  0  0  0  0
   -2.8976   21.7359  -30.6699 H   0  0  0  0  0  0  0  0  0  0  0  0
   -4.7429   22.4813  -32.7201 H   0  0  0  0  0  0  0  0  0  0  0  0
   -3.2092   21.9517  -33.5366 H   0  0  0  0  0  0  0  0  0  0  0  0
   -3.2536   19.8528  -32.2311 H   0  0  0  0  0  0  0  0  0  0  0  0
   -4.8167   20.3701  -31.4863 H   0  0  0  0  0  0  0  0  0  0  0  0
   -8.9355   21.8714  -31.5392 H   0  0  0  0  0  0  0  0  0  0  0  0
  -10.0779   19.7128  -31.0313 H   0  0  0  0  0  0  0  0  0  0  0  0
   -9.0409   17.5540  -31.7298 H   0  0  0  0  0  0  0  0  0  0  0  0
   -5.5514   23.5959  -31.7990 H   0  0  0  0  0  0  0  0  0  0  0  0
   -5.2682   22.4950  -30.3835 H   0  0  0  0  0  0  0  0  0  0  0  0
   -6.7830   24.1910  -29.7681 H   0  0  0  0  0  0  0  0  0  0  0  0
   -5.7056   26.6771  -29.6218 H   0  0  0  0  0  0  0  0  0  0  0  0
   -4.8168   26.0705  -31.0601 H   0  0  0  0  0  0  0  0  0  0  0  0
   -6.6128   26.0984  -31.0601 H   0  0  0  0  0  0  0  0  0  0  0  0
  1  2  1  0
  2  3  1  0
  3  4  1  0
  4  5  1  0
  5  6  1  0
  6  7  1  0
  7  8  1  0
  8  9  1  0
  9 10  2  0
 10 11  1  0
 10 12  1  0
 12 13  2  0
 13 14  1  0
 14 15  2  0
 15 16  1  0
  4 17  1  0
 17 18  1  0
 18 19  1  0
 18 20  1  0
 20  2  1  0
 15  9  1  0
  1 21  1  0
  1 22  1  0
  1 23  1  0
  2 24  1  1
  3 25  1  0
  3 26  1  0
  5 27  1  0
  5 28  1  0
  6 29  1  0
  6 30  1  0
  7 31  1  0
  7 32  1  0
 12 33  1  0
 13 34  1  0
 14 35  1  0
 17 36  1  0
 17 37  1  0
 18 38  1  1
 19 39  1  0
 19 40  1  0
 19 41  1  0
M  END
>  <UniqueID>  (49) 
40

>  <SMILES>  (49) 
C[C@H]1CN(CCCSc2c(F)cccc2Cl)C[C@H](C)O1

>  <Energy>  (49) 
48.11595617508789

>  <Genealogy>  (49) 
C[C@H]1CN(CCCSc2c(F)cccc2Cl)C[C@H](C)O1 (chirality)
C[C@H]1CN(CCCSc2c(F)cccc2Cl)C[C@H](C)O1 (3D coordinates assigned)
C[C@H]1CN(CCCSc2c(F)cccc2Cl)C[C@H](C)O1 (nonaromatic ring conformer: 48.11595617508789 kcal/mol)

>  <smiles>  (49) 
CC1CN(CCCSc2c(F)cccc2Cl)CC(C)O1

>  <score_type>  (49) 
oracle

>  <origin>  (49) 
adg

>  <m_score__min__energy>  (49) 
-7.29

>  <m_primary>  (49) 
energy

$$$$
49:0
     RDKit          3D

 47 51  0  0  0  0  0  0  0  0999 V2000
   -7.1190   25.0890  -29.4660 F   0  0  0  0  0  0  0  0  0  0  0  0
   -6.3500   24.2360  -30.1880 C   0  0  0  0  0  0  0  0  0  0  0  0
   -6.4920   24.1700  -31.5760 C   0  0  0  0  0  0  0  0  0  0  0  0
   -5.7010   23.2910  -32.3210 C   0  0  0  0  0  0  0  0  0  0  0  0
   -4.7470   22.4790  -31.6810 C   0  0  0  0  0  0  0  0  0  0  0  0
   -3.9090   21.5340  -32.4540 C   0  0  0  0  0  0  0  0  0  0  0  0
   -2.6510   21.9240  -32.7930 N   0  0  0  0  0  0  0  0  0  0  0  0
   -1.7990   21.1010  -33.4520 C   0  0  0  0  0  0  0  0  0  0  0  0
   -0.5100   21.5340  -33.7810 C   0  0  0  0  0  0  0  0  0  0  0  0
    0.3690   20.6770  -34.4630 C   0  0  0  0  0  0  0  0  0  0  0  0
    1.7690   21.1240  -34.7760 C   0  0  0  0  0  0  0  0  0  0  0  0
    1.7360   22.4140  -35.4590 N   0  0  0  0  0  0  0  0  0  0  0  0
    2.6930   23.3560  -35.4500 C   0  0  0  0  0  0  0  0  0  0  0  0
    2.2910   24.3710  -36.2890 C   0  0  0  0  0  0  0  0  0  0  0  0
    1.0940   24.0640  -36.8320 N   0  0  0  0  0  0  0  0  0  0  0  0
    0.7890   22.8600  -36.3050 C   0  0  0  0  0  0  0  0  0  0  0  0
   -0.0480   19.3750  -34.7880 C   0  0  0  0  0  0  0  0  0  0  0  0
   -1.3360   18.9420  -34.4620 C   0  0  0  0  0  0  0  0  0  0  0  0
   -2.2180   19.8020  -33.7920 C   0  0  0  0  0  0  0  0  0  0  0  0
   -3.4810   19.4030  -33.4700 N   0  0  0  0  0  0  0  0  0  0  0  0
   -4.3500   20.2370  -32.8260 C   0  0  0  0  0  0  0  0  0  0  0  0
   -5.7380   19.7750  -32.5840 C   0  0  0  0  0  0  0  0  0  0  0  0
   -6.8310   20.4630  -33.1390 C   0  0  0  0  0  0  0  0  0  0  0  0
   -8.1360   20.0180  -32.9070 C   0  0  0  0  0  0  0  0  0  0  0  0
   -8.3580   18.8780  -32.1300 C   0  0  0  0  0  0  0  0  0  0  0  0
   -9.6250   18.4470  -31.9070 F   0  0  0  0  0  0  0  0  0  0  0  0
   -7.2770   18.1790  -31.5880 C   0  0  0  0  0  0  0  0  0  0  0  0
   -5.9710   18.6220  -31.8170 C   0  0  0  0  0  0  0  0  0  0  0  0
   -4.6260   22.5370  -30.2830 C   0  0  0  0  0  0  0  0  0  0  0  0
   -5.4200   23.4170  -29.5410 C   0  0  0  0  0  0  0  0  0  0  0  0
   -7.2278   24.8110  -32.0837 H   0  0  0  0  0  0  0  0  0  0  0  0
   -5.8249   23.2339  -33.4125 H   0  0  0  0  0  0  0  0  0  0  0  0
   -0.1843   22.5478  -33.5049 H   0  0  0  0  0  0  0  0  0  0  0  0
    2.3391   21.2209  -33.8402 H   0  0  0  0  0  0  0  0  0  0  0  0
    2.2501   20.3803  -35.4282 H   0  0  0  0  0  0  0  0  0  0  0  0
    3.6303   23.3227  -34.8752 H   0  0  0  0  0  0  0  0  0  0  0  0
    2.8590   25.2920  -36.4867 H   0  0  0  0  0  0  0  0  0  0  0  0
   -0.1310   22.3049  -36.5405 H   0  0  0  0  0  0  0  0  0  0  0  0
    0.6441   18.6921  -35.3025 H   0  0  0  0  0  0  0  0  0  0  0  0
   -1.6584   17.9254  -34.7313 H   0  0  0  0  0  0  0  0  0  0  0  0
   -3.8000   18.4470  -33.7490 H   0  0  0  0  0  0  0  0  0  0  0  0
   -6.6588   21.3555  -33.7586 H   0  0  0  0  0  0  0  0  0  0  0  0
   -8.9881   20.5654  -33.3362 H   0  0  0  0  0  0  0  0  0  0  0  0
   -7.4535   17.2792  -30.9804 H   0  0  0  0  0  0  0  0  0  0  0  0
   -5.1219   18.0648  -31.3944 H   0  0  0  0  0  0  0  0  0  0  0  0
   -3.9028   21.8868  -29.7690 H   0  0  0  0  0  0  0  0  0  0  0  0
   -5.3127   23.4648  -28.4473 H   0  0  0  0  0  0  0  0  0  0  0  0
  1  2  1  0
  2  3  2  0
  3  4  1  0
  4  5  2  0
  5  6  1  0
  6  7  2  0
  7  8  1  0
  8  9  2  0
  9 10  1  0
 10 11  1  0
 11 12  1  0
 12 13  1  0
 13 14  2  0
 14 15  1  0
 15 16  2  0
 10 17  2  0
 17 18  1  0
 18 19  2  0
 19 20  1  0
 20 21  2  0
 21 22  1  0
 22 23  2  0
 23 24  1  0
 24 25  2  0
 25 26  1  0
 25 27  1  0
 27 28  2  0
  5 29  1  0
 29 30  2  0
 30  2  1  0
 21  6  1  0
 28 22  1  0
 19  8  1  0
 16 12  1  0
  3 31  1  0
  4 32  1  0
  9 33  1  0
 11 34  1  0
 11 35  1  0
 13 36  1  0
 14 37  1  0
 16 38  1  0
 17 39  1  0
 18 40  1  0
 20 41  1  0
 23 42  1  0
 24 43  1  0
 27 44  1  0
 28 45  1  0
 29 46  1  0
 30 47  1  0
M  CHG  1  20   1
M  END
>  <UniqueID>  (50) 
41

>  <SMILES>  (50) 
Fc1ccc(-c2nc3cc(Cn4ccnc4)ccc3[nH+]c2-c2ccc(F)cc2)cc1

>  <Energy>  (50) 
96.56694455153455

>  <Genealogy>  (50) 
Fc1ccc(-c2nc3cc(Cn4ccnc4)ccc3[nH+]c2-c2ccc(F)cc2)cc1 (protonated)
Fc1ccc(-c2nc3cc(Cn4ccnc4)ccc3[nH+]c2-c2ccc(F)cc2)cc1 (3D coordinates assigned)
Fc1ccc(-c2nc3cc(Cn4ccnc4)ccc3[nH+]c2-c2ccc(F)cc2)cc1 (optimized conformer: 96.56694455153455 kcal/mol)

>  <smiles>  (50) 
Fc1ccc(-c2nc3ccc(Cn4ccnc4)cc3nc2-c2ccc(F)cc2)cc1

>  <score_type>  (50) 
oracle

>  <origin>  (50) 
adg

>  <m_score__min__energy>  (50) 
-8.2799999999999994

>  <m_primary>  (50) 
energy

$$$$
