0:0
     RDKit          3D

 56 59  0  0  0  0  0  0  0  0999 V2000
   -4.6090   20.7840  -30.8630 C   0  0  0  0  0  0  0  0  0  0  0  0
   -5.6090   21.8840  -31.0950 C   0  0  0  0  0  0  0  0  0  0  0  0
   -5.3500   23.2400  -30.8240 C   0  0  0  0  0  0  0  0  0  0  0  0
   -4.0440   23.8460  -30.5150 C   0  0  0  0  0  0  0  0  0  0  0  0
   -3.8640   25.0640  -30.7850 O   0  0  0  0  0  0  0  0  0  0  0  0
   -2.9650   23.0720  -29.9530 N   0  0  0  0  0  0  0  0  0  0  0  0
   -1.9640   22.4870  -30.8530 C   0  0  0  0  0  0  0  0  0  0  0  0
   -0.9400   21.6690  -30.0670 C   0  0  0  0  0  0  0  0  0  0  0  0
   -1.6480   20.7770  -29.1460 N   0  0  0  0  0  0  0  0  0  0  0  0
   -2.4010   21.5020  -28.0950 C   0  0  1  0  0  0  0  0  0  0  0  0
   -1.6420   21.5080  -26.7580 C   0  0  0  0  0  0  0  0  0  0  0  0
   -2.7900   22.9490  -28.4970 C   0  0  0  0  0  0  0  0  0  0  0  0
   -6.7700   24.1420  -30.9990 S   0  0  0  0  0  0  0  0  0  0  0  0
   -7.7030   22.8340  -31.4610 C   0  0  0  0  0  0  0  0  0  0  0  0
   -9.0090   22.8650  -31.8140 N   0  0  0  0  0  0  0  0  0  0  0  0
   -9.6080   21.7120  -32.2200 C   0  0  0  0  0  0  0  0  0  0  0  0
   -8.8910   20.5530  -32.2930 N   0  0  0  0  0  0  0  0  0  0  0  0
   -7.5750   20.4980  -31.9400 C   0  0  0  0  0  0  0  0  0  0  0  0
   -6.8500   19.2700  -32.1120 N   0  0  0  0  0  0  0  0  0  0  0  0
   -7.2710   18.1690  -31.2360 C   0  0  0  0  0  0  0  0  0  0  0  0
   -6.2640   18.9800  -33.4460 C   0  0  0  0  0  0  0  0  0  0  0  0
   -4.9340   19.7670  -33.6990 C   0  0  0  0  0  0  0  0  0  0  0  0
   -3.6920   18.8700  -33.7980 C   0  0  0  0  0  0  0  0  0  0  0  0
   -3.8500   17.7970  -34.8870 C   0  0  0  0  0  0  0  0  0  0  0  0
   -5.2690   17.1970  -34.9590 C   0  0  0  0  0  0  0  0  0  0  0  0
   -6.0790   17.4580  -33.6850 C   0  0  0  0  0  0  0  0  0  0  0  0
   -6.9490   21.6740  -31.4900 C   0  0  0  0  0  0  0  0  0  0  0  0
   -4.4729   20.6343  -29.7818 H   0  0  0  0  0  0  0  0  0  0  0  0
   -4.9761   19.8526  -31.3188 H   0  0  0  0  0  0  0  0  0  0  0  0
   -3.6469   21.0609  -31.3188 H   0  0  0  0  0  0  0  0  0  0  0  0
   -2.4696   21.8317  -31.5776 H   0  0  0  0  0  0  0  0  0  0  0  0
   -1.4396   23.3014  -31.3743 H   0  0  0  0  0  0  0  0  0  0  0  0
   -0.3315   21.0730  -30.7630 H   0  0  0  0  0  0  0  0  0  0  0  0
   -0.2823   22.3435  -29.4992 H   0  0  0  0  0  0  0  0  0  0  0  0
   -0.9580   20.1120  -28.7250 H   0  0  0  0  0  0  0  0  0  0  0  0
   -3.3400   20.9424  -27.9718 H   0  0  0  0  0  0  0  0  0  0  0  0
   -2.3628   21.5023  -25.9271 H   0  0  0  0  0  0  0  0  0  0  0  0
   -1.0030   20.6149  -26.6951 H   0  0  0  0  0  0  0  0  0  0  0  0
   -1.0171   22.4111  -26.6951 H   0  0  0  0  0  0  0  0  0  0  0  0
   -3.7333   23.2177  -27.9990 H   0  0  0  0  0  0  0  0  0  0  0  0
   -1.9793   23.6247  -28.1870 H   0  0  0  0  0  0  0  0  0  0  0  0
  -10.6743   21.7144  -32.4903 H   0  0  0  0  0  0  0  0  0  0  0  0
   -7.1552   18.4719  -30.1849 H   0  0  0  0  0  0  0  0  0  0  0  0
   -8.3255   17.9260  -31.4335 H   0  0  0  0  0  0  0  0  0  0  0  0
   -6.6477   17.2844  -31.4335 H   0  0  0  0  0  0  0  0  0  0  0  0
   -6.9937   19.3398  -34.1863 H   0  0  0  0  0  0  0  0  0  0  0  0
   -5.0350   20.3246  -34.6418 H   0  0  0  0  0  0  0  0  0  0  0  0
   -4.7834   20.4280  -32.8328 H   0  0  0  0  0  0  0  0  0  0  0  0
   -2.8192   19.4951  -34.0377 H   0  0  0  0  0  0  0  0  0  0  0  0
   -3.5594   18.3607  -32.8320 H   0  0  0  0  0  0  0  0  0  0  0  0
   -3.6146   18.2518  -35.8605 H   0  0  0  0  0  0  0  0  0  0  0  0
   -3.1641   16.9754  -34.6333 H   0  0  0  0  0  0  0  0  0  0  0  0
   -5.7990   17.6449  -35.8125 H   0  0  0  0  0  0  0  0  0  0  0  0
   -5.1671   16.1078  -35.0743 H   0  0  0  0  0  0  0  0  0  0  0  0
   -7.0679   16.9866  -33.7845 H   0  0  0  0  0  0  0  0  0  0  0  0
   -5.5338   17.0325  -32.8296 H   0  0  0  0  0  0  0  0  0  0  0  0
  1  2  1  0
  2  3  2  0
  3  4  1  0
  4  5  2  0
  4  6  1  0
  6  7  1  0
  7  8  1  0
  8  9  1  0
  9 10  1  0
 10 11  1  0
 10 12  1  0
  3 13  1  0
 13 14  1  0
 14 15  2  0
 15 16  1  0
 16 17  2  0
 17 18  1  0
 18 19  1  0
 19 20  1  0
 19 21  1  0
 21 22  1  0
 22 23  1  0
 23 24  1  0
 24 25  1  0
 25 26  1  0
 18 27  2  0
 27  2  1  0
 12  6  1  0
 27 14  1  0
 26 21  1  0
  1 28  1  0
  1 29  1  0
  1 30  1  0
  7 31  1  0
  7 32  1  0
  8 33  1  0
  8 34  1  0
  9 35  1  0
 10 36  1  1
 11 37  1  0
 11 38  1  0
 11 39  1  0
 12 40  1  0
 12 41  1  0
 16 42  1  0
 20 43  1  0
 20 44  1  0
 20 45  1  0
 21 46  1  0
 22 47  1  0
 22 48  1  0
 23 49  1  0
 23 50  1  0
 24 51  1  0
 24 52  1  0
 25 53  1  0
 25 54  1  0
 26 55  1  0
 26 56  1  0
M  END
>  <UniqueID>  (1) 
1

>  <SMILES>  (1) 
Cc1c(C(=O)N2CCN[C@@H](C)C2)sc2ncnc(N(C)C3CCCCC3)c12

>  <Energy>  (1) 
111.16784033272796

>  <Genealogy>  (1) 
Cc1c(C(=O)N2CCN[C@@H](C)C2)sc2ncnc(N(C)C3CCCCC3)c12 (chirality)
Cc1c(C(=O)N2CCN[C@@H](C)C2)sc2ncnc(N(C)C3CCCCC3)c12 (3D coordinates assigned)
Cc1c(C(=O)N2CCN[C@@H](C)C2)sc2ncnc(N(C)C3CCCCC3)c12 (nonaromatic ring conformer: 111.16784033272796 kcal/mol)

>  <smiles>  (1) 
Cc1c(C(=O)N2CCNC(C)C2)sc2ncnc(N(C)C3CCCCC3)c12

>  <score_type>  (1) 
oracle

>  <origin>  (1) 
adg

>  <m_score__min__energy>  (1) 
-9.3100000000000005

>  <m_primary>  (1) 
energy

$$$$
1:0
     RDKit          3D

 37 39  0  0  0  0  0  0  0  0999 V2000
   -0.2494   22.4128  -28.3953 H   0  0  0  0  0  0  0  0  0  0  0  0
   -1.0300   23.1250  -28.7010 C   0  0  0  0  0  0  0  0  0  0  0  0
   -2.0700   22.9490  -30.0110 S   0  0  0  0  0  0  0  0  0  0  0  0
   -2.8410   24.4240  -29.7320 C   0  0  0  0  0  0  0  0  0  0  0  0
   -3.8400   24.9110  -30.4070 N   0  0  0  0  0  0  0  0  0  0  0  0
   -5.0060   24.1960  -30.8450 C   0  0  0  0  0  0  0  0  0  0  0  0
   -4.8400   23.0500  -31.6350 C   0  0  0  0  0  0  0  0  0  0  0  0
   -3.8300   22.7329  -31.9339 H   0  0  0  0  0  0  0  0  0  0  0  0
   -5.9520   22.3080  -32.0450 C   0  0  0  0  0  0  0  0  0  0  0  0
   -5.8161   21.4201  -32.6800 H   0  0  0  0  0  0  0  0  0  0  0  0
   -7.2360   22.6930  -31.6490 C   0  0  0  0  0  0  0  0  0  0  0  0
   -8.1107   22.1137  -31.9797 H   0  0  0  0  0  0  0  0  0  0  0  0
   -7.4080   23.8140  -30.8330 C   0  0  0  0  0  0  0  0  0  0  0  0
   -8.4176   24.1117  -30.5136 H   0  0  0  0  0  0  0  0  0  0  0  0
   -6.2970   24.5580  -30.4220 C   0  0  0  0  0  0  0  0  0  0  0  0
   -6.4340   25.4297  -29.7653 H   0  0  0  0  0  0  0  0  0  0  0  0
   -2.3350   25.0490  -28.6490 N   0  0  0  0  0  0  0  0  0  0  0  0
   -1.3310   24.3340  -28.0690 C   0  0  0  0  0  0  0  0  0  0  0  0
   -0.6220   24.8360  -26.9180 N   0  0  0  0  0  0  0  0  0  0  0  0
    0.7720   24.4310  -26.7080 C   0  0  0  0  0  0  0  0  0  0  0  0
    1.4047   24.9118  -27.4686 H   0  0  0  0  0  0  0  0  0  0  0  0
    0.8349   23.3359  -26.7904 H   0  0  0  0  0  0  0  0  0  0  0  0
    1.2620   24.8460  -25.3110 C   0  0  0  0  0  0  0  0  0  0  0  0
    1.5622   25.9039  -25.3390 H   0  0  0  0  0  0  0  0  0  0  0  0
    2.1107   24.2003  -25.0414 H   0  0  0  0  0  0  0  0  0  0  0  0
    0.2100   24.6740  -24.2840 N   0  0  0  0  0  0  0  0  0  0  0  0
    0.6150   25.0090  -23.3770 H   0  0  0  0  0  0  0  0  0  0  0  0
   -0.1250   23.2490  -24.0870 C   0  0  0  0  0  0  0  0  0  0  0  0
   -0.1765   23.0299  -23.0103 H   0  0  0  0  0  0  0  0  0  0  0  0
   -1.0983   23.0335  -24.5520 H   0  0  0  0  0  0  0  0  0  0  0  0
    0.6503   22.6224  -24.5520 H   0  0  0  0  0  0  0  0  0  0  0  0
   -1.0090   25.4860  -24.5600 C   0  0  0  0  0  0  0  0  0  0  0  0
   -0.9487   26.4118  -23.9690 H   0  0  0  0  0  0  0  0  0  0  0  0
   -1.8738   24.8636  -24.2867 H   0  0  0  0  0  0  0  0  0  0  0  0
   -1.1870   25.8690  -26.0440 C   0  0  0  0  0  0  0  0  0  0  0  0
   -0.6740   26.8232  -26.2346 H   0  0  0  0  0  0  0  0  0  0  0  0
   -2.2618   25.9637  -26.2580 H   0  0  0  0  0  0  0  0  0  0  0  0
  1  2  1  0
  2  3  1  0
  3  4  1  0
  4  5  2  0
  5  6  1  0
  6  7  2  0
  7  8  1  0
  7  9  1  0
  9 10  1  0
  9 11  2  0
 11 12  1  0
 11 13  1  0
 13 14  1  0
 13 15  2  0
 15 16  1  0
  4 17  1  0
 17 18  1  0
 18 19  1  0
 19 20  1  0
 20 21  1  0
 20 22  1  0
 20 23  1  0
 23 24  1  0
 23 25  1  0
 23 26  1  0
 26 27  1  0
 26 28  1  0
 28 29  1  0
 28 30  1  0
 28 31  1  0
 26 32  1  0
 32 33  1  0
 32 34  1  0
 32 35  1  0
 35 36  1  0
 35 37  1  0
 18  2  2  0
 35 19  1  0
 15  6  1  0
M  CHG  2  17  -1  26   1
M  END
>  <UniqueID>  (2) 
2

>  <SMILES>  (2) 
C[NH+]1CCN(c2cs/c(=N\c3ccccc3)[n-]2)CC1

>  <Energy>  (2) 
85.05475170872214

>  <Genealogy>  (2) 
C[NH+]1CCN(c2csc(=Nc3ccccc3)[n-]2)CC1 (protonated)
C[NH+]1CCN(c2cs/c(=N\c3ccccc3)[n-]2)CC1 (cis-trans isomerization)
C[NH+]1CCN(c2cs/c(=N\c3ccccc3)[n-]2)CC1 (3D coordinates assigned)
C[NH+]1CCN(c2cs/c(=N\c3ccccc3)[n-]2)CC1 (nonaromatic ring conformer: 85.05475170872214 kcal/mol)

>  <smiles>  (2) 
CN1CCN(c2csc(=Nc3ccccc3)[nH]2)CC1

>  <score_type>  (2) 
oracle

>  <origin>  (2) 
adg

>  <m_score__min__energy>  (2) 
-7.9500000000000002

>  <m_primary>  (2) 
energy

$$$$
2:0
     RDKit          3D

 51 53  0  0  0  0  0  0  0  0999 V2000
   -2.1660   22.6890  -30.6910 C   0  0  0  0  0  0  0  0  0  0  0  0
   -3.5070   23.3320  -30.8410 C   0  0  0  0  0  0  0  0  0  0  0  0
   -3.7840   24.5870  -30.4390 N   0  0  0  0  0  0  0  0  0  0  0  0
   -5.0680   24.8090  -30.6750 N   0  0  0  0  0  0  0  0  0  0  0  0
   -5.7400   26.0600  -30.3400 C   0  0  0  0  0  0  0  0  0  0  0  0
   -5.6290   23.7130  -31.2320 C   0  0  0  0  0  0  0  0  0  0  0  0
   -7.0890   23.5460  -31.5390 C   0  0  0  0  0  0  0  0  0  0  0  0
   -4.6520   22.7400  -31.3510 C   0  0  0  0  0  0  0  0  0  0  0  0
   -4.8220   21.3080  -31.7800 C   0  0  0  0  0  0  0  0  0  0  0  0
   -5.7610   21.2130  -32.9070 N   0  0  0  0  0  0  0  0  0  0  0  0
   -6.7310   20.1640  -32.6750 C   0  0  0  0  0  0  0  0  0  0  0  0
   -7.7900   20.4100  -31.7780 C   0  0  0  0  0  0  0  0  0  0  0  0
   -8.7410   19.4290  -31.5030 C   0  0  0  0  0  0  0  0  0  0  0  0
   -8.6570   18.1830  -32.1200 C   0  0  0  0  0  0  0  0  0  0  0  0
   -7.6210   17.9140  -33.0150 C   0  0  0  0  0  0  0  0  0  0  0  0
   -6.6460   18.8870  -33.3060 C   0  0  0  0  0  0  0  0  0  0  0  0
   -5.5430   18.5240  -34.2760 C   0  0  0  0  0  0  0  0  0  0  0  0
   -4.3320   19.3140  -34.0150 N   0  0  0  0  0  0  0  0  0  0  0  0
   -3.4350   18.6720  -33.0380 C   0  0  0  0  0  0  0  0  0  0  0  0
   -2.1970   19.5070  -32.8850 C   0  0  0  0  0  0  0  0  0  0  0  0
   -1.9030   20.5220  -33.8070 C   0  0  0  0  0  0  0  0  0  0  0  0
   -0.7060   21.2320  -33.6920 C   0  0  0  0  0  0  0  0  0  0  0  0
    0.1690   20.9350  -32.6940 N   0  0  0  0  0  0  0  0  0  0  0  0
   -0.0880   19.9520  -31.7900 C   0  0  0  0  0  0  0  0  0  0  0  0
   -1.2730   19.2180  -31.8710 C   0  0  0  0  0  0  0  0  0  0  0  0
   -1.9309   22.5763  -29.6223 H   0  0  0  0  0  0  0  0  0  0  0  0
   -2.1784   21.6989  -31.1701 H   0  0  0  0  0  0  0  0  0  0  0  0
   -1.4018   23.3186  -31.1701 H   0  0  0  0  0  0  0  0  0  0  0  0
   -5.7962   26.1646  -29.2464 H   0  0  0  0  0  0  0  0  0  0  0  0
   -5.1740   26.9043  -30.7605 H   0  0  0  0  0  0  0  0  0  0  0  0
   -6.7564   26.0543  -30.7605 H   0  0  0  0  0  0  0  0  0  0  0  0
   -7.6563   23.4811  -30.5988 H   0  0  0  0  0  0  0  0  0  0  0  0
   -7.4423   24.4096  -32.1216 H   0  0  0  0  0  0  0  0  0  0  0  0
   -7.2382   22.6249  -32.1216 H   0  0  0  0  0  0  0  0  0  0  0  0
   -3.8460   20.9046  -32.0878 H   0  0  0  0  0  0  0  0  0  0  0  0
   -5.2234   20.7300  -30.9345 H   0  0  0  0  0  0  0  0  0  0  0  0
   -6.2700   22.1230  -33.0090 H   0  0  0  0  0  0  0  0  0  0  0  0
   -5.2300   21.0630  -33.7920 H   0  0  0  0  0  0  0  0  0  0  0  0
   -7.8671   21.3915  -31.2874 H   0  0  0  0  0  0  0  0  0  0  0  0
   -9.5588   19.6389  -30.7979 H   0  0  0  0  0  0  0  0  0  0  0  0
   -9.4085   17.4100  -31.9013 H   0  0  0  0  0  0  0  0  0  0  0  0
   -7.5653   16.9282  -33.4999 H   0  0  0  0  0  0  0  0  0  0  0  0
   -5.3058   17.4554  -34.1676 H   0  0  0  0  0  0  0  0  0  0  0  0
   -5.8892   18.7399  -35.2975 H   0  0  0  0  0  0  0  0  0  0  0  0
   -3.8180   19.4160  -34.9210 H   0  0  0  0  0  0  0  0  0  0  0  0
   -3.9460   18.5897  -32.0674 H   0  0  0  0  0  0  0  0  0  0  0  0
   -3.1624   17.6662  -33.3903 H   0  0  0  0  0  0  0  0  0  0  0  0
   -2.6107   20.7573  -34.6156 H   0  0  0  0  0  0  0  0  0  0  0  0
   -0.4706   22.0322  -34.4092 H   0  0  0  0  0  0  0  0  0  0  0  0
    0.6390   19.7348  -30.9936 H   0  0  0  0  0  0  0  0  0  0  0  0
   -1.4801   18.4186  -31.1443 H   0  0  0  0  0  0  0  0  0  0  0  0
  1  2  1  0
  2  3  2  0
  3  4  1  0
  4  5  1  0
  4  6  1  0
  6  7  1  0
  6  8  2  0
  8  9  1  0
  9 10  1  0
 10 11  1  0
 11 12  2  0
 12 13  1  0
 13 14  2  0
 14 15  1  0
 15 16  2  0
 16 17  1  0
 17 18  1  0
 18 19  1  0
 19 20  1  0
 20 21  2  0
 21 22  1  0
 22 23  2  0
 23 24  1  0
 24 25  2  0
  8  2  1  0
 16 11  1  0
 25 20  1  0
  1 26  1  0
  1 27  1  0
  1 28  1  0
  5 29  1  0
  5 30  1  0
  5 31  1  0
  7 32  1  0
  7 33  1  0
  7 34  1  0
  9 35  1  0
  9 36  1  0
 10 37  1  0
 10 38  1  0
 12 39  1  0
 13 40  1  0
 14 41  1  0
 15 42  1  0
 17 43  1  0
 17 44  1  0
 18 45  1  0
 19 46  1  0
 19 47  1  0
 21 48  1  0
 22 49  1  0
 24 50  1  0
 25 51  1  0
M  CHG  1  10   1
M  END
>  <UniqueID>  (3) 
3

>  <SMILES>  (3) 
Cc1nn(C)c(C)c1C[NH2+]c1ccccc1CNCc1ccncc1

>  <Energy>  (3) 
78.79164270019929

>  <Genealogy>  (3) 
Cc1nn(C)c(C)c1C[NH2+]c1ccccc1CNCc1ccncc1 (protonated)
Cc1nn(C)c(C)c1C[NH2+]c1ccccc1CNCc1ccncc1 (3D coordinates assigned)
Cc1nn(C)c(C)c1C[NH2+]c1ccccc1CNCc1ccncc1 (optimized conformer: 78.79164270019929 kcal/mol)

>  <smiles>  (3) 
Cc1nn(C)c(C)c1CNc1ccccc1CNCc1ccncc1

>  <score_type>  (3) 
oracle

>  <origin>  (3) 
adg

>  <m_score__min__energy>  (3) 
-7.4199999999999999

>  <m_primary>  (3) 
energy

$$$$
3:0
     RDKit          3D

 40 43  0  0  1  0  0  0  0  0999 V2000
   -4.2190   24.2730  -26.8570 C   0  0  0  0  0  0  0  0  0  0  0  0
   -2.8510   24.9390  -26.9220 C   0  0  0  0  0  0  0  0  0  0  0  0
   -2.3370   25.6490  -25.9340 C   0  0  0  0  0  0  0  0  0  0  0  0
   -1.0840   26.2300  -26.0560 C   0  0  0  0  0  0  0  0  0  0  0  0
   -0.5950   25.6860  -27.8020 S   0  0  0  0  0  0  0  0  0  0  0  0
   -2.1100   24.7820  -28.0980 C   0  0  0  0  0  0  0  0  0  0  0  0
   -2.4740   24.0290  -29.3510 C   0  0  0  0  0  0  0  0  0  0  0  0
   -3.3300   24.9200  -30.1090 N   0  0  0  0  0  0  0  0  0  0  0  0
   -4.5260   24.4950  -30.3400 C   0  0  0  0  0  0  0  0  0  0  0  0
   -5.5280   25.1050  -29.6870 N   0  0  0  0  0  0  0  0  0  0  0  0
   -6.8240   24.7700  -29.8290 C   0  0  0  0  0  0  0  0  0  0  0  0
   -7.1120   23.7630  -30.6770 N   0  0  0  0  0  0  0  0  0  0  0  0
   -6.1540   23.1080  -31.3640 C   0  0  0  0  0  0  0  0  0  0  0  0
   -4.8350   23.4760  -31.1970 C   0  0  0  0  0  0  0  0  0  0  0  0
   -4.0590   22.6990  -31.9680 N   0  0  0  0  0  0  0  0  0  0  0  0
   -4.8990   21.8750  -32.5920 N   0  0  0  0  0  0  0  0  0  0  0  0
   -6.1370   22.0940  -32.2540 N   0  0  0  0  0  0  0  0  0  0  0  0
   -7.3530   21.4310  -32.6910 C   0  0  0  0  0  0  0  0  0  0  0  0
   -7.1700   19.9810  -32.8770 C   0  0  0  0  0  0  0  0  0  0  0  0
   -6.3070   19.5430  -33.8630 C   0  0  0  0  0  0  0  0  0  0  0  0
   -6.1040   18.1940  -34.0730 C   0  0  0  0  0  0  0  0  0  0  0  0
   -6.7510   17.2480  -33.3130 C   0  0  0  0  0  0  0  0  0  0  0  0
   -7.6060   17.7000  -32.3370 C   0  0  0  0  0  0  0  0  0  0  0  0
   -7.8210   19.0290  -32.1130 C   0  0  0  0  0  0  0  0  0  0  0  0
   -4.5086   24.1320  -25.8052 H   0  0  0  0  0  0  0  0  0  0  0  0
   -4.9614   24.9105  -27.3594 H   0  0  0  0  0  0  0  0  0  0  0  0
   -4.1751   23.2954  -27.3594 H   0  0  0  0  0  0  0  0  0  0  0  0
   -2.9094   25.7809  -25.0040 H   0  0  0  0  0  0  0  0  0  0  0  0
   -0.5248   26.8421  -25.3331 H   0  0  0  0  0  0  0  0  0  0  0  0
   -1.5698   23.7834  -29.9273 H   0  0  0  0  0  0  0  0  0  0  0  0
   -2.9784   23.0788  -29.1217 H   0  0  0  0  0  0  0  0  0  0  0  0
   -5.3220   25.8850  -29.0280 H   0  0  0  0  0  0  0  0  0  0  0  0
   -7.6155   25.2966  -29.2756 H   0  0  0  0  0  0  0  0  0  0  0  0
   -8.1348   21.5936  -31.9344 H   0  0  0  0  0  0  0  0  0  0  0  0
   -7.6359   21.8595  -33.6638 H   0  0  0  0  0  0  0  0  0  0  0  0
   -5.7762   20.2770  -34.4871 H   0  0  0  0  0  0  0  0  0  0  0  0
   -5.4114   17.8694  -34.8635 H   0  0  0  0  0  0  0  0  0  0  0  0
   -6.5905   16.1726  -33.4797 H   0  0  0  0  0  0  0  0  0  0  0  0
   -8.1361   16.9645  -31.7140 H   0  0  0  0  0  0  0  0  0  0  0  0
   -8.5156   19.3449  -31.3207 H   0  0  0  0  0  0  0  0  0  0  0  0
  1  2  1  0
  2  3  1  0
  3  4  2  0
  4  5  1  0
  5  6  1  0
  6  7  1  0
  7  8  1  0
  8  9  2  0
  9 10  1  0
 10 11  1  0
 11 12  2  0
 12 13  1  0
 13 14  2  0
 14 15  1  0
 15 16  2  0
 16 17  1  0
 17 18  1  0
 18 19  1  0
 19 20  2  0
 20 21  1  0
 21 22  2  0
 22 23  1  0
 23 24  2  0
  6  2  2  0
 14  9  1  0
 24 19  1  0
 17 13  1  0
  1 25  1  0
  1 26  1  0
  1 27  1  0
  3 28  1  0
  4 29  1  0
  7 30  1  0
  7 31  1  0
 10 32  1  0
 11 33  1  0
 18 34  1  0
 18 35  1  0
 20 36  1  0
 21 37  1  0
 22 38  1  0
 23 39  1  0
 24 40  1  0
M  END
>  <smiles>  (4) 
Cc1ccsc1CN=c1[nH]cnc2c1nnn2Cc1ccccc1

>  <score_type>  (4) 
oracle

>  <origin>  (4) 
adg

>  <m_score__min__energy>  (4) 
-8.9499999999999993

>  <m_primary>  (4) 
energy

$$$$
4:0
     RDKit          3D

 61 64  0  0  0  0  0  0  0  0999 V2000
   -2.7460   18.9300  -26.5100 C   0  0  0  0  0  0  0  0  0  0  0  0
   -2.7340   20.1400  -27.4420 C   0  0  0  0  0  0  0  0  0  0  0  0
   -1.6820   20.0710  -28.5810 C   0  0  0  0  0  0  0  0  0  0  0  0
   -1.0190   21.3500  -28.9780 N   0  0  2  0  0  0  0  0  0  0  0  0
   -1.5490   22.5230  -28.2360 C   0  0  0  0  0  0  0  0  0  0  0  0
   -2.6850   23.1910  -28.9660 C   0  0  0  0  0  0  0  0  0  0  0  0
   -2.6980   24.5490  -29.2700 C   0  0  0  0  0  0  0  0  0  0  0  0
   -4.1200   24.8680  -30.1050 S   0  0  0  0  0  0  0  0  0  0  0  0
   -4.6590   23.2710  -30.0500 C   0  0  0  0  0  0  0  0  0  0  0  0
   -5.9240   22.7610  -30.6270 C   0  0  0  0  0  0  0  0  0  0  0  0
   -6.0500   22.6000  -32.0180 C   0  0  0  0  0  0  0  0  0  0  0  0
   -7.2390   22.1180  -32.5720 C   0  0  0  0  0  0  0  0  0  0  0  0
   -8.3260   21.7960  -31.7470 C   0  0  0  0  0  0  0  0  0  0  0  0
   -9.5890   21.2420  -32.3440 C   0  0  0  0  0  0  0  0  0  0  0  0
   -9.3360   19.8990  -32.8800 N   0  0  0  0  0  0  0  0  0  0  0  0
   -8.4720   19.1410  -31.9700 C   0  0  0  0  0  0  0  0  0  0  0  0
   -7.3140   18.5640  -32.7370 C   0  0  0  0  0  0  0  0  0  0  0  0
   -6.8970   17.2420  -32.5080 C   0  0  0  0  0  0  0  0  0  0  0  0
   -5.8000   16.7190  -33.1980 C   0  0  0  0  0  0  0  0  0  0  0  0
   -5.1040   17.5150  -34.1140 C   0  0  0  0  0  0  0  0  0  0  0  0
   -5.5030   18.8360  -34.3350 C   0  0  0  0  0  0  0  0  0  0  0  0
   -6.6000   19.3630  -33.6460 C   0  0  0  0  0  0  0  0  0  0  0  0
   -8.2000   21.9400  -30.3570 C   0  0  0  0  0  0  0  0  0  0  0  0
   -7.0120   22.4240  -29.8020 C   0  0  0  0  0  0  0  0  0  0  0  0
   -3.7670   22.4900  -29.4000 N   0  0  0  0  0  0  0  0  0  0  0  0
   -1.0220   21.5750  -30.4470 C   0  0  0  0  0  0  0  0  0  0  0  0
   -1.9610   20.5930  -31.1750 C   0  0  0  0  0  0  0  0  0  0  0  0
   -1.6840   20.4690  -32.6660 C   0  0  0  0  0  0  0  0  0  0  0  0
   -2.9300   21.1920  -32.1850 C   0  0  0  0  0  0  0  0  0  0  0  0
   -2.7426   19.2723  -25.4646 H   0  0  0  0  0  0  0  0  0  0  0  0
   -3.6501   18.3320  -26.6971 H   0  0  0  0  0  0  0  0  0  0  0  0
   -1.8539   18.3142  -26.6971 H   0  0  0  0  0  0  0  0  0  0  0  0
   -3.7299   20.2293  -27.9004 H   0  0  0  0  0  0  0  0  0  0  0  0
   -2.4637   21.0073  -26.8217 H   0  0  0  0  0  0  0  0  0  0  0  0
   -0.8928   19.3750  -28.2605 H   0  0  0  0  0  0  0  0  0  0  0  0
   -2.2481   19.7576  -29.4706 H   0  0  0  0  0  0  0  0  0  0  0  0
   -0.0150   21.2460  -28.6930 H   0  0  0  0  0  0  0  0  0  0  0  0
   -1.9087   22.1871  -27.2522 H   0  0  0  0  0  0  0  0  0  0  0  0
   -0.7346   23.2555  -28.1352 H   0  0  0  0  0  0  0  0  0  0  0  0
   -1.9186   25.2806  -29.0106 H   0  0  0  0  0  0  0  0  0  0  0  0
   -5.2059   22.8555  -32.6755 H   0  0  0  0  0  0  0  0  0  0  0  0
   -7.3226   21.9905  -33.6614 H   0  0  0  0  0  0  0  0  0  0  0  0
  -10.3661   21.1853  -31.5675 H   0  0  0  0  0  0  0  0  0  0  0  0
   -9.9266   21.9010  -33.1575 H   0  0  0  0  0  0  0  0  0  0  0  0
   -8.8270   20.0090  -33.7890 H   0  0  0  0  0  0  0  0  0  0  0  0
   -8.0930   19.8097  -31.1831 H   0  0  0  0  0  0  0  0  0  0  0  0
   -9.0502   18.3246  -31.5126 H   0  0  0  0  0  0  0  0  0  0  0  0
   -7.4365   16.6157  -31.7822 H   0  0  0  0  0  0  0  0  0  0  0  0
   -5.4835   15.6805  -33.0207 H   0  0  0  0  0  0  0  0  0  0  0  0
   -4.2433   17.1014  -34.6599 H   0  0  0  0  0  0  0  0  0  0  0  0
   -4.9530   19.4627  -35.0525 H   0  0  0  0  0  0  0  0  0  0  0  0
   -6.9048   20.4061  -33.8162 H   0  0  0  0  0  0  0  0  0  0  0  0
   -9.0406   21.6706  -29.7006 H   0  0  0  0  0  0  0  0  0  0  0  0
   -6.9274   22.5422  -28.7117 H   0  0  0  0  0  0  0  0  0  0  0  0
   -1.3564   22.6033  -30.6490 H   0  0  0  0  0  0  0  0  0  0  0  0
   -0.0002   21.4109  -30.8200 H   0  0  0  0  0  0  0  0  0  0  0  0
   -2.0733   19.9040  -30.3249 H   0  0  0  0  0  0  0  0  0  0  0  0
   -0.8597   21.0376  -33.1211 H   0  0  0  0  0  0  0  0  0  0  0  0
   -1.4870   19.6328  -33.3530 H   0  0  0  0  0  0  0  0  0  0  0  0
   -3.0077   22.2841  -32.2916 H   0  0  0  0  0  0  0  0  0  0  0  0
   -4.0084   21.0961  -32.3793 H   0  0  0  0  0  0  0  0  0  0  0  0
  1  2  1  0
  2  3  1  0
  3  4  1  0
  4  5  1  0
  5  6  1  0
  6  7  2  0
  7  8  1  0
  8  9  1  0
  9 10  1  0
 10 11  2  0
 11 12  1  0
 12 13  2  0
 13 14  1  0
 14 15  1  0
 15 16  1  0
 16 17  1  0
 17 18  2  0
 18 19  1  0
 19 20  2  0
 20 21  1  0
 21 22  2  0
 13 23  1  0
 23 24  2  0
  9 25  2  0
  4 26  1  0
 26 27  1  0
 27 28  1  0
 28 29  1  0
 25  6  1  0
 29 27  1  0
 24 10  1  0
 22 17  1  0
  1 30  1  0
  1 31  1  0
  1 32  1  0
  2 33  1  0
  2 34  1  0
  3 35  1  0
  3 36  1  0
  4 37  1  1
  5 38  1  0
  5 39  1  0
  7 40  1  0
 11 41  1  0
 12 42  1  0
 14 43  1  0
 14 44  1  0
 15 45  1  0
 16 46  1  0
 16 47  1  0
 18 48  1  0
 19 49  1  0
 20 50  1  0
 21 51  1  0
 22 52  1  0
 23 53  1  0
 24 54  1  0
 26 55  1  0
 26 56  1  0
 27 57  1  0
 28 58  1  0
 28 59  1  0
 29 60  1  0
 29 61  1  0
M  CHG  1   4   1
M  END
>  <UniqueID>  (5) 
4

>  <SMILES>  (5) 
CCC[N@H+](Cc1csc(-c2ccc(CNCc3ccccc3)cc2)n1)CC1CC1

>  <Energy>  (5) 
360.5649244472065

>  <Genealogy>  (5) 
CCC[NH+](Cc1csc(-c2ccc(CNCc3ccccc3)cc2)n1)CC1CC1 (protonated)
CCC[N@H+](Cc1csc(-c2ccc(CNCc3ccccc3)cc2)n1)CC1CC1 (chirality)
CCC[N@H+](Cc1csc(-c2ccc(CNCc3ccccc3)cc2)n1)CC1CC1 (3D coordinates assigned)
CCC[N@H+](Cc1csc(-c2ccc(CNCc3ccccc3)cc2)n1)CC1CC1 (nonaromatic ring conformer: 360.5649244472065 kcal/mol)

>  <smiles>  (5) 
CCCN(Cc1csc(-c2ccc(CNCc3ccccc3)cc2)n1)CC1CC1

>  <score_type>  (5) 
oracle

>  <origin>  (5) 
adg

>  <m_score__min__energy>  (5) 
-7.7300000000000004

>  <m_primary>  (5) 
energy

$$$$
5:0
     RDKit          3D

 39 41  0  0  0  0  0  0  0  0999 V2000
   -4.5810   25.6140  -30.8710 O   0  0  0  0  0  0  0  0  0  0  0  0
   -4.9760   24.4260  -30.7140 C   0  0  0  0  0  0  0  0  0  0  0  0
   -5.9700   23.8530  -31.6800 C   0  0  0  0  0  0  0  0  0  0  0  0
   -5.9700   22.4270  -31.6160 O   0  0  0  0  0  0  0  0  0  0  0  0
   -7.0790   21.6030  -31.8690 C   0  0  0  0  0  0  0  0  0  0  0  0
   -8.3570   22.1120  -31.6030 C   0  0  0  0  0  0  0  0  0  0  0  0
   -9.4950   21.3350  -31.8400 C   0  0  0  0  0  0  0  0  0  0  0  0
   -9.3630   20.0390  -32.3450 C   0  0  0  0  0  0  0  0  0  0  0  0
   -8.0940   19.5190  -32.6100 C   0  0  0  0  0  0  0  0  0  0  0  0
   -6.9540   20.2930  -32.3740 C   0  0  0  0  0  0  0  0  0  0  0  0
   -4.4710   23.6250  -29.6330 N   0  0  0  0  0  0  0  0  0  0  0  0
   -3.6270   24.1280  -28.5840 C   0  0  0  0  0  0  0  0  0  0  0  0
   -2.2590   24.3700  -28.7960 C   0  0  0  0  0  0  0  0  0  0  0  0
   -1.4650   24.8820  -27.7660 C   0  0  0  0  0  0  0  0  0  0  0  0
   -2.0220   25.1730  -26.5070 C   0  0  0  0  0  0  0  0  0  0  0  0
   -1.1670   25.7150  -25.4210 C   0  0  0  0  0  0  0  0  0  0  0  0
    0.0600   25.3530  -25.2610 N   0  0  0  0  0  0  0  0  0  0  0  0
    0.6400   26.0470  -24.1170 C   0  0  0  0  0  0  0  0  0  0  0  0
   -0.4930   26.9220  -23.5640 C   0  0  0  0  0  0  0  0  0  0  0  0
   -1.6030   26.6580  -24.4580 N   0  0  0  0  0  0  0  0  0  0  0  0
   -3.3970   24.9560  -26.3100 C   0  0  0  0  0  0  0  0  0  0  0  0
   -4.1900   24.4450  -27.3410 C   0  0  0  0  0  0  0  0  0  0  0  0
   -6.9740   24.2259  -31.4291 H   0  0  0  0  0  0  0  0  0  0  0  0
   -5.6923   24.1617  -32.6986 H   0  0  0  0  0  0  0  0  0  0  0  0
   -8.4660   23.1314  -31.2044 H   0  0  0  0  0  0  0  0  0  0  0  0
  -10.4941   21.7440  -31.6289 H   0  0  0  0  0  0  0  0  0  0  0  0
  -10.2582   19.4283  -32.5338 H   0  0  0  0  0  0  0  0  0  0  0  0
   -7.9914   18.4977  -33.0055 H   0  0  0  0  0  0  0  0  0  0  0  0
   -5.9567   19.8786  -32.5830 H   0  0  0  0  0  0  0  0  0  0  0  0
   -4.6440   22.5950  -29.6660 H   0  0  0  0  0  0  0  0  0  0  0  0
   -1.8109   24.1554  -29.7774 H   0  0  0  0  0  0  0  0  0  0  0  0
   -0.3936   25.0593  -27.9414 H   0  0  0  0  0  0  0  0  0  0  0  0
    0.9766   25.3257  -23.3578 H   0  0  0  0  0  0  0  0  0  0  0  0
    1.5206   26.6427  -24.3993 H   0  0  0  0  0  0  0  0  0  0  0  0
   -0.7434   26.6329  -22.5326 H   0  0  0  0  0  0  0  0  0  0  0  0
   -0.2250   27.9881  -23.5225 H   0  0  0  0  0  0  0  0  0  0  0  0
   -2.5630   27.0490  -24.3440 H   0  0  0  0  0  0  0  0  0  0  0  0
   -3.8523   25.1903  -25.3365 H   0  0  0  0  0  0  0  0  0  0  0  0
   -5.2663   24.2902  -27.1750 H   0  0  0  0  0  0  0  0  0  0  0  0
  1  2  2  0
  2  3  1  0
  3  4  1  0
  4  5  1  0
  5  6  2  0
  6  7  1  0
  7  8  2  0
  8  9  1  0
  9 10  2  0
  2 11  1  0
 11 12  1  0
 12 13  2  0
 13 14  1  0
 14 15  2  0
 15 16  1  0
 16 17  2  0
 17 18  1  0
 18 19  1  0
 19 20  1  0
 15 21  1  0
 21 22  2  0
 10  5  1  0
 22 12  1  0
 20 16  1  0
  3 23  1  0
  3 24  1  0
  6 25  1  0
  7 26  1  0
  8 27  1  0
  9 28  1  0
 10 29  1  0
 11 30  1  0
 13 31  1  0
 14 32  1  0
 18 33  1  0
 18 34  1  0
 19 35  1  0
 19 36  1  0
 20 37  1  0
 21 38  1  0
 22 39  1  0
M  END
>  <UniqueID>  (6) 
5

>  <SMILES>  (6) 
O=C(COc1ccccc1)Nc1ccc(C2=NCCN2)cc1

>  <Energy>  (6) 
56.603902689310885

>  <Genealogy>  (6) 
O=C(COc1ccccc1)Nc1ccc(C2=NCCN2)cc1 (3D coordinates assigned)
O=C(COc1ccccc1)Nc1ccc(C2=NCCN2)cc1 (nonaromatic ring conformer: 56.603902689310885 kcal/mol)

>  <smiles>  (6) 
O=C(COc1ccccc1)Nc1ccc(C2=NCCN2)cc1

>  <score_type>  (6) 
oracle

>  <origin>  (6) 
adg

>  <m_score__min__energy>  (6) 
-8.0800000000000001

>  <m_primary>  (6) 
energy

$$$$
6:0
     RDKit          3D

 28 30  0  0  0  0  0  0  0  0999 V2000
   -0.7861   28.3379  -24.2433 H   0  0  0  0  0  0  0  0  0  0  0  0
   -0.9100   27.6160  -25.0640 C   0  0  0  0  0  0  0  0  0  0  0  0
   -1.6050   26.4240  -24.8460 C   0  0  0  0  0  0  0  0  0  0  0  0
   -2.0284   26.2082  -23.8540 H   0  0  0  0  0  0  0  0  0  0  0  0
   -1.7630   25.5040  -25.8890 C   0  0  0  0  0  0  0  0  0  0  0  0
   -2.3130   24.5675  -25.7148 H   0  0  0  0  0  0  0  0  0  0  0  0
   -1.2220   25.7720  -27.1570 C   0  0  0  0  0  0  0  0  0  0  0  0
   -1.3900   24.7760  -28.2740 C   0  0  0  0  0  0  0  0  0  0  0  0
   -1.7725   23.8311  -27.8606 H   0  0  0  0  0  0  0  0  0  0  0  0
   -0.4134   24.6154  -28.7540 H   0  0  0  0  0  0  0  0  0  0  0  0
   -2.3290   25.2760  -29.2760 N   0  0  0  0  0  0  0  0  0  0  0  0
   -3.4430   24.6960  -29.6130 C   0  0  0  0  0  0  0  0  0  0  0  0
   -4.0120   24.8880  -30.8280 N   0  0  0  0  0  0  0  0  0  0  0  0
   -5.1620   24.1760  -30.9380 C   0  0  0  0  0  0  0  0  0  0  0  0
   -5.9770   24.1670  -32.0710 C   0  0  0  0  0  0  0  0  0  0  0  0
   -5.7104   24.7605  -32.9580 H   0  0  0  0  0  0  0  0  0  0  0  0
   -7.1450   23.3850  -32.0570 C   0  0  0  0  0  0  0  0  0  0  0  0
   -7.7993   23.3650  -32.9410 H   0  0  0  0  0  0  0  0  0  0  0  0
   -7.4840   22.6260  -30.9180 C   0  0  0  0  0  0  0  0  0  0  0  0
   -9.0750   21.5710  -30.9160 Br  0  0  0  0  0  0  0  0  0  0  0  0
   -6.6550   22.6430  -29.7830 C   0  0  0  0  0  0  0  0  0  0  0  0
   -6.9079   22.0544  -28.8888 H   0  0  0  0  0  0  0  0  0  0  0  0
   -5.5050   23.4260  -29.8230 C   0  0  0  0  0  0  0  0  0  0  0  0
   -4.3410   23.6380  -28.6320 S   0  0  0  0  0  0  0  0  0  0  0  0
   -0.5280   26.9760  -27.3690 C   0  0  0  0  0  0  0  0  0  0  0  0
   -0.1062   27.1983  -28.3603 H   0  0  0  0  0  0  0  0  0  0  0  0
   -0.3720   27.8920  -26.3240 C   0  0  0  0  0  0  0  0  0  0  0  0
    0.1749   28.8311  -26.4939 H   0  0  0  0  0  0  0  0  0  0  0  0
  1  2  1  0
  2  3  2  0
  3  4  1  0
  3  5  1  0
  5  6  1  0
  5  7  2  0
  7  8  1  0
  8  9  1  0
  8 10  1  0
  8 11  1  0
 11 12  2  0
 12 13  1  0
 13 14  1  0
 14 15  2  0
 15 16  1  0
 15 17  1  0
 17 18  1  0
 17 19  2  0
 19 20  1  0
 19 21  1  0
 21 22  1  0
 21 23  2  0
 23 24  1  0
  7 25  1  0
 25 26  1  0
 25 27  2  0
 27 28  1  0
 27  2  1  0
 24 12  1  0
 23 14  1  0
M  CHG  1  13  -1
M  END
>  <UniqueID>  (7) 
6

>  <SMILES>  (7) 
Brc1ccc2[n-]/c(=N/Cc3ccccc3)sc2c1

>  <Energy>  (7) 
64.76977290469438

>  <Genealogy>  (7) 
Brc1ccc2[n-]c(=NCc3ccccc3)sc2c1 (protonated)
Brc1ccc2[n-]/c(=N/Cc3ccccc3)sc2c1 (cis-trans isomerization)
Brc1ccc2[n-]/c(=N/Cc3ccccc3)sc2c1 (3D coordinates assigned)
Brc1ccc2[n-]/c(=N/Cc3ccccc3)sc2c1 (optimized conformer: 64.76977290469438 kcal/mol)

>  <smiles>  (7) 
Brc1ccc2[nH]c(=NCc3ccccc3)sc2c1

>  <score_type>  (7) 
oracle

>  <origin>  (7) 
adg

>  <m_score__min__energy>  (7) 
-9.2799999999999994

>  <m_primary>  (7) 
energy

$$$$
7:0
     RDKit          3D

 38 41  0  0  0  0  0  0  0  0999 V2000
   -9.1001   20.3092  -33.0101 H   0  0  0  0  0  0  0  0  0  0  0  0
   -8.0510   20.3880  -32.6890 C   0  0  0  0  0  0  0  0  0  0  0  0
   -7.6560   21.5230  -32.0940 C   0  0  0  0  0  0  0  0  0  0  0  0
   -6.2870   21.9670  -31.9820 C   0  0  0  0  0  0  0  0  0  0  0  0
   -5.1780   21.2720  -32.3350 N   0  0  0  0  0  0  0  0  0  0  0  0
   -3.9530   21.8510  -32.1690 C   0  0  0  0  0  0  0  0  0  0  0  0
   -2.7220   21.1120  -32.5440 C   0  0  0  0  0  0  0  0  0  0  0  0
   -1.4800   21.4460  -31.9670 C   0  0  0  0  0  0  0  0  0  0  0  0
   -1.4220   22.2613  -31.2309 H   0  0  0  0  0  0  0  0  0  0  0  0
   -0.3210   20.7490  -32.3230 C   0  0  0  0  0  0  0  0  0  0  0  0
    0.6433   21.0190  -31.8678 H   0  0  0  0  0  0  0  0  0  0  0  0
   -0.3850   19.7110  -33.2550 C   0  0  0  0  0  0  0  0  0  0  0  0
    0.5277   19.1634  -33.5328 H   0  0  0  0  0  0  0  0  0  0  0  0
   -1.6090   19.3690  -33.8340 C   0  0  0  0  0  0  0  0  0  0  0  0
   -1.6588   18.5515  -34.5683 H   0  0  0  0  0  0  0  0  0  0  0  0
   -2.7720   20.0630  -33.4830 C   0  0  0  0  0  0  0  0  0  0  0  0
   -3.7323   19.7876  -33.9435 H   0  0  0  0  0  0  0  0  0  0  0  0
   -3.8690   23.1140  -31.6560 N   0  0  0  0  0  0  0  0  0  0  0  0
   -4.9940   23.7970  -31.3120 C   0  0  0  0  0  0  0  0  0  0  0  0
   -4.9080   24.9620  -30.8440 O   0  0  0  0  0  0  0  0  0  0  0  0
   -6.2020   23.2040  -31.4820 N   0  0  0  0  0  0  0  0  0  0  0  0
   -7.5210   23.7570  -31.1980 C   0  0  0  0  0  0  0  0  0  0  0  0
   -7.6092   24.0155  -30.1325 H   0  0  0  0  0  0  0  0  0  0  0  0
   -7.7098   24.6799  -31.7660 H   0  0  0  0  0  0  0  0  0  0  0  0
   -8.5230   22.6350  -31.5690 C   0  0  0  0  0  0  0  0  0  0  0  0
   -9.0854   22.3057  -30.6828 H   0  0  0  0  0  0  0  0  0  0  0  0
   -9.2729   22.9661  -32.3025 H   0  0  0  0  0  0  0  0  0  0  0  0
   -7.1590   19.2380  -32.9380 C   0  0  0  0  0  0  0  0  0  0  0  0
   -6.9980   18.2130  -31.9900 C   0  0  0  0  0  0  0  0  0  0  0  0
   -7.5599   18.2477  -31.0450 H   0  0  0  0  0  0  0  0  0  0  0  0
   -6.1270   17.1500  -32.2430 C   0  0  0  0  0  0  0  0  0  0  0  0
   -6.0164   16.3428  -31.5040 H   0  0  0  0  0  0  0  0  0  0  0  0
   -5.3960   17.1110  -33.4340 C   0  0  0  0  0  0  0  0  0  0  0  0
   -4.7163   16.2698  -33.6351 H   0  0  0  0  0  0  0  0  0  0  0  0
   -5.5290   18.1410  -34.3690 C   0  0  0  0  0  0  0  0  0  0  0  0
   -4.9487   18.1137  -35.3031 H   0  0  0  0  0  0  0  0  0  0  0  0
   -6.3990   19.2060  -34.1180 C   0  0  0  0  0  0  0  0  0  0  0  0
   -6.4886   20.0232  -34.8488 H   0  0  0  0  0  0  0  0  0  0  0  0
  1  2  1  0
  2  3  2  0
  3  4  1  0
  4  5  2  0
  5  6  1  0
  6  7  1  0
  7  8  2  0
  8  9  1  0
  8 10  1  0
 10 11  1  0
 10 12  2  0
 12 13  1  0
 12 14  1  0
 14 15  1  0
 14 16  2  0
 16 17  1  0
  6 18  2  0
 18 19  1  0
 19 20  2  0
 19 21  1  0
 21 22  1  0
 22 23  1  0
 22 24  1  0
 22 25  1  0
 25 26  1  0
 25 27  1  0
  2 28  1  0
 28 29  2  0
 29 30  1  0
 29 31  1  0
 31 32  1  0
 31 33  2  0
 33 34  1  0
 33 35  1  0
 35 36  1  0
 35 37  2  0
 37 38  1  0
 25  3  1  0
 37 28  1  0
 21  4  1  0
 16  7  1  0
M  END
>  <UniqueID>  (8) 
7

>  <SMILES>  (8) 
O=c1nc(-c2ccccc2)nc2n1CC/C2=C\c1ccccc1

>  <Energy>  (8) 
64.39433075131832

>  <Genealogy>  (8) 
O=c1nc(-c2ccccc2)nc2n1CC/C2=C\c1ccccc1 (cis-trans isomerization)
O=c1nc(-c2ccccc2)nc2n1CC/C2=C\c1ccccc1 (3D coordinates assigned)
O=c1nc(-c2ccccc2)nc2n1CC/C2=C\c1ccccc1 (nonaromatic ring conformer: 64.39433075131832 kcal/mol)

>  <smiles>  (8) 
O=c1nc(-c2ccccc2)nc2n1CCC2=Cc1ccccc1

>  <score_type>  (8) 
oracle

>  <origin>  (8) 
adg

>  <m_score__min__energy>  (8) 
-8.8200000000000003

>  <m_primary>  (8) 
energy

$$$$
8:0
     RDKit          3D

 42 44  0  0  0  0  0  0  0  0999 V2000
   -5.6600   25.5710  -30.4940 C   0  0  0  0  0  0  0  0  0  0  0  0
   -4.2750   25.2640  -30.6210 O   0  0  0  0  0  0  0  0  0  0  0  0
   -3.6200   24.2520  -29.9050 C   0  0  0  0  0  0  0  0  0  0  0  0
   -2.7120   23.3630  -30.5120 C   0  0  0  0  0  0  0  0  0  0  0  0
   -2.0860   22.3690  -29.7550 C   0  0  0  0  0  0  0  0  0  0  0  0
   -2.3560   22.2440  -28.3820 C   0  0  0  0  0  0  0  0  0  0  0  0
   -1.7240   21.2090  -27.6030 N   0  0  0  0  0  0  0  0  0  0  0  0
   -2.4570   19.9680  -27.3380 C   0  0  0  0  0  0  0  0  0  0  0  0
   -0.5330   21.4890  -26.8400 C   0  0  0  0  0  0  0  0  0  0  0  0
    0.5300   20.8590  -27.0920 O   0  0  0  0  0  0  0  0  0  0  0  0
   -0.5200   22.5130  -25.7750 C   0  0  0  0  0  0  0  0  0  0  0  0
   -0.4680   22.3240  -24.3930 C   0  0  0  0  0  0  0  0  0  0  0  0
   -0.5080   23.5280  -23.7770 N   0  0  0  0  0  0  0  0  0  0  0  0
   -0.5890   24.4630  -24.7090 N   0  0  0  0  0  0  0  0  0  0  0  0
   -0.6550   25.8130  -24.5450 C   0  0  0  0  0  0  0  0  0  0  0  0
   -0.6370   26.4350  -23.1800 C   0  0  0  0  0  0  0  0  0  0  0  0
   -0.7400   26.6040  -25.7060 C   0  0  0  0  0  0  0  0  0  0  0  0
   -0.7560   25.9710  -26.9690 C   0  0  0  0  0  0  0  0  0  0  0  0
   -0.8330   26.7900  -28.2170 C   0  0  0  0  0  0  0  0  0  0  0  0
   -0.6830   24.6100  -27.0550 N   0  0  0  0  0  0  0  0  0  0  0  0
   -0.6040   23.8830  -25.9150 C   0  0  0  0  0  0  0  0  0  0  0  0
   -3.2600   23.1320  -27.7790 C   0  0  0  0  0  0  0  0  0  0  0  0
   -3.8860   24.1260  -28.5370 C   0  0  0  0  0  0  0  0  0  0  0  0
   -5.9263   25.6300  -29.4283 H   0  0  0  0  0  0  0  0  0  0  0  0
   -5.8673   26.5369  -30.9778 H   0  0  0  0  0  0  0  0  0  0  0  0
   -6.2561   24.7832  -30.9778 H   0  0  0  0  0  0  0  0  0  0  0  0
   -2.4946   23.4514  -31.5867 H   0  0  0  0  0  0  0  0  0  0  0  0
   -1.3772   21.6799  -30.2374 H   0  0  0  0  0  0  0  0  0  0  0  0
   -2.5450   19.8190  -26.2517 H   0  0  0  0  0  0  0  0  0  0  0  0
   -3.4614   20.0335  -27.7817 H   0  0  0  0  0  0  0  0  0  0  0  0
   -1.9148   19.1200  -27.7817 H   0  0  0  0  0  0  0  0  0  0  0  0
   -0.4045   21.3503  -23.8851 H   0  0  0  0  0  0  0  0  0  0  0  0
   -0.4880   23.6940  -22.7450 H   0  0  0  0  0  0  0  0  0  0  0  0
   -0.6599   25.6438  -22.4162 H   0  0  0  0  0  0  0  0  0  0  0  0
    0.2788   27.0327  -23.0615 H   0  0  0  0  0  0  0  0  0  0  0  0
   -1.5167   27.0846  -23.0615 H   0  0  0  0  0  0  0  0  0  0  0  0
   -0.7933   27.7002  -25.6311 H   0  0  0  0  0  0  0  0  0  0  0  0
   -0.9329   27.8530  -27.9524 H   0  0  0  0  0  0  0  0  0  0  0  0
    0.0828   26.6439  -28.8085 H   0  0  0  0  0  0  0  0  0  0  0  0
   -1.7056   26.4758  -28.8085 H   0  0  0  0  0  0  0  0  0  0  0  0
   -3.4772   23.0455  -26.7041 H   0  0  0  0  0  0  0  0  0  0  0  0
   -4.5940   24.8153  -28.0537 H   0  0  0  0  0  0  0  0  0  0  0  0
  1  2  1  0
  2  3  1  0
  3  4  2  0
  4  5  1  0
  5  6  2  0
  6  7  1  0
  7  8  1  0
  7  9  1  0
  9 10  2  0
  9 11  1  0
 11 12  1  0
 12 13  2  0
 13 14  1  0
 14 15  1  0
 15 16  1  0
 15 17  2  0
 17 18  1  0
 18 19  1  0
 18 20  2  0
 20 21  1  0
  6 22  1  0
 22 23  2  0
 23  3  1  0
 21 11  2  0
 21 14  1  0
  1 24  1  0
  1 25  1  0
  1 26  1  0
  4 27  1  0
  5 28  1  0
  8 29  1  0
  8 30  1  0
  8 31  1  0
 12 32  1  0
 13 33  1  0
 16 34  1  0
 16 35  1  0
 16 36  1  0
 17 37  1  0
 19 38  1  0
 19 39  1  0
 19 40  1  0
 22 41  1  0
 23 42  1  0
M  CHG  1  13   1
M  END
>  <UniqueID>  (9) 
8

>  <SMILES>  (9) 
COc1ccc(N(C)C(=O)c2c[nH+]n3c(C)cc(C)nc23)cc1

>  <Energy>  (9) 
86.64016319950355

>  <Genealogy>  (9) 
COc1ccc(N(C)C(=O)c2c[nH+]n3c(C)cc(C)nc23)cc1 (protonated)
COc1ccc(N(C)C(=O)c2c[nH+]n3c(C)cc(C)nc23)cc1 (3D coordinates assigned)
COc1ccc(N(C)C(=O)c2c[nH+]n3c(C)cc(C)nc23)cc1 (optimized conformer: 86.64016319950355 kcal/mol)

>  <smiles>  (9) 
COc1ccc(N(C)C(=O)c2cnn3c(C)cc(C)nc23)cc1

>  <score_type>  (9) 
oracle

>  <origin>  (9) 
adg

>  <m_score__min__energy>  (9) 
-7.7800000000000002

>  <m_primary>  (9) 
energy

$$$$
9:0
     RDKit          3D

 41 42  0  0  0  0  0  0  0  0999 V2000
   -1.9244   21.1194  -30.3570 H   0  0  0  0  0  0  0  0  0  0  0  0
   -2.4350   22.0930  -30.3940 C   0  0  0  0  0  0  0  0  0  0  0  0
   -3.5240   22.2960  -31.2570 C   0  0  0  0  0  0  0  0  0  0  0  0
   -4.0280   21.2200  -32.1480 C   0  0  0  0  0  0  0  0  0  0  0  0
   -5.3970   21.1130  -32.4720 C   0  0  0  0  0  0  0  0  0  0  0  0
   -6.1130   21.8423  -32.0653 H   0  0  0  0  0  0  0  0  0  0  0  0
   -5.8500   20.0870  -33.3060 C   0  0  0  0  0  0  0  0  0  0  0  0
   -6.9187   20.0150  -33.5565 H   0  0  0  0  0  0  0  0  0  0  0  0
   -4.9490   19.1530  -33.8220 C   0  0  0  0  0  0  0  0  0  0  0  0
   -5.3079   18.3486  -34.4809 H   0  0  0  0  0  0  0  0  0  0  0  0
   -3.5940   19.2400  -33.5020 C   0  0  0  0  0  0  0  0  0  0  0  0
   -2.8858   18.5021  -33.9070 H   0  0  0  0  0  0  0  0  0  0  0  0
   -3.1340   20.2640  -32.6670 C   0  0  0  0  0  0  0  0  0  0  0  0
   -2.0651   20.3227  -32.4139 H   0  0  0  0  0  0  0  0  0  0  0  0
   -4.1440   23.5080  -31.2590 N   0  0  0  0  0  0  0  0  0  0  0  0
   -3.7300   24.5240  -30.4590 C   0  0  0  0  0  0  0  0  0  0  0  0
   -4.3550   25.6640  -30.5010 N   0  0  0  0  0  0  0  0  0  0  0  0
   -5.7510   25.8680  -30.1130 C   0  0  0  0  0  0  0  0  0  0  0  0
   -6.2974   26.3210  -30.9534 H   0  0  0  0  0  0  0  0  0  0  0  0
   -5.7825   26.5324  -29.2369 H   0  0  0  0  0  0  0  0  0  0  0  0
   -6.4110   24.5280  -29.7440 C   0  0  0  0  0  0  0  0  0  0  0  0
   -7.2366   24.7225  -29.0436 H   0  0  0  0  0  0  0  0  0  0  0  0
   -5.6388   23.8885  -29.2914 H   0  0  0  0  0  0  0  0  0  0  0  0
   -6.9450   23.8210  -30.9180 N   0  0  0  0  0  0  0  0  0  0  0  0
   -6.1630   23.6170  -31.5850 H   0  0  0  0  0  0  0  0  0  0  0  0
   -7.6110   22.5610  -30.5580 C   0  0  0  0  0  0  0  0  0  0  0  0
   -8.0813   22.6688  -29.5695 H   0  0  0  0  0  0  0  0  0  0  0  0
   -6.8626   21.7552  -30.5337 H   0  0  0  0  0  0  0  0  0  0  0  0
   -8.6850   22.2120  -31.5930 C   0  0  0  0  0  0  0  0  0  0  0  0
   -8.3973   22.6444  -32.5627 H   0  0  0  0  0  0  0  0  0  0  0  0
   -9.6421   22.6244  -31.2411 H   0  0  0  0  0  0  0  0  0  0  0  0
   -8.8540   20.7030  -31.7570 C   0  0  0  0  0  0  0  0  0  0  0  0
   -8.9070   20.2300  -30.7653 H   0  0  0  0  0  0  0  0  0  0  0  0
   -9.7809   20.4960  -32.3119 H   0  0  0  0  0  0  0  0  0  0  0  0
   -7.9958   20.2961  -32.3119 H   0  0  0  0  0  0  0  0  0  0  0  0
   -2.6670   24.3380  -29.6300 N   0  0  0  0  0  0  0  0  0  0  0  0
   -2.0110   23.1490  -29.5830 C   0  0  0  0  0  0  0  0  0  0  0  0
   -0.8660   22.9670  -28.6380 C   0  0  0  0  0  0  0  0  0  0  0  0
   -1.2324   23.0252  -27.6025 H   0  0  0  0  0  0  0  0  0  0  0  0
   -0.4027   21.9839  -28.8083 H   0  0  0  0  0  0  0  0  0  0  0  0
   -0.1208   23.7580  -28.8083 H   0  0  0  0  0  0  0  0  0  0  0  0
  1  2  1  0
  2  3  1  0
  3  4  1  0
  4  5  2  0
  5  6  1  0
  5  7  1  0
  7  8  1  0
  7  9  2  0
  9 10  1  0
  9 11  1  0
 11 12  1  0
 11 13  2  0
 13 14  1  0
  3 15  2  0
 15 16  1  0
 16 17  2  0
 17 18  1  0
 18 19  1  0
 18 20  1  0
 18 21  1  0
 21 22  1  0
 21 23  1  0
 21 24  1  0
 24 25  1  0
 24 26  1  0
 26 27  1  0
 26 28  1  0
 26 29  1  0
 29 30  1  0
 29 31  1  0
 29 32  1  0
 32 33  1  0
 32 34  1  0
 32 35  1  0
 16 36  1  0
 36 37  1  0
 37 38  1  0
 38 39  1  0
 38 40  1  0
 38 41  1  0
 37  2  2  0
 13  4  1  0
M  CHG  1  36  -1
M  END
>  <UniqueID>  (10) 
9

>  <SMILES>  (10) 
CCCNCC/N=c1/nc(-c2ccccc2)cc(C)[n-]1

>  <Energy>  (10) 
37.98531580227268

>  <Genealogy>  (10) 
CCCNCCN=c1nc(-c2ccccc2)cc(C)[n-]1 (protonated)
CCCNCC/N=c1/nc(-c2ccccc2)cc(C)[n-]1 (cis-trans isomerization)
CCCNCC/N=c1/nc(-c2ccccc2)cc(C)[n-]1 (3D coordinates assigned)
CCCNCC/N=c1/nc(-c2ccccc2)cc(C)[n-]1 (optimized conformer: 37.98531580227268 kcal/mol)

>  <smiles>  (10) 
CCCNCCN=c1nc(-c2ccccc2)cc(C)[nH]1

>  <score_type>  (10) 
oracle

>  <origin>  (10) 
adg

>  <m_score__min__energy>  (10) 
-8.0199999999999996

>  <m_primary>  (10) 
energy

$$$$
10:0
     RDKit          3D

 47 50  0  0  0  0  0  0  0  0999 V2000
   -5.8010   25.4200  -29.8040 C   0  0  0  0  0  0  0  0  0  0  0  0
   -5.5470   23.9770  -30.1540 C   0  0  0  0  0  0  0  0  0  0  0  0
   -6.5100   23.2810  -30.8950 C   0  0  0  0  0  0  0  0  0  0  0  0
   -6.2810   21.9490  -31.2710 C   0  0  0  0  0  0  0  0  0  0  0  0
   -7.2500   21.1940  -32.0410 N   0  0  0  0  0  0  0  0  0  0  0  0
   -8.6870   21.2740  -31.7390 C   0  0  0  0  0  0  0  0  0  0  0  0
   -9.4900   20.2530  -32.5620 C   0  0  0  0  0  0  0  0  0  0  0  0
   -8.8320   18.9300  -32.5920 N   0  0  0  0  0  0  0  0  0  0  0  0
   -8.9330   18.2400  -31.2940 C   0  0  0  0  0  0  0  0  0  0  0  0
   -7.4310   18.9640  -33.0930 C   0  0  0  0  0  0  0  0  0  0  0  0
   -6.8310   20.3790  -33.1910 C   0  0  0  0  0  0  0  0  0  0  0  0
   -5.1130   21.3650  -30.8910 N   0  0  0  0  0  0  0  0  0  0  0  0
   -4.1930   22.0080  -30.1730 N   0  0  0  0  0  0  0  0  0  0  0  0
   -4.3710   23.2970  -29.7650 C   0  0  0  0  0  0  0  0  0  0  0  0
   -3.3190   23.9350  -28.9390 C   0  0  0  0  0  0  0  0  0  0  0  0
   -2.0090   24.1700  -29.3430 C   0  0  0  0  0  0  0  0  0  0  0  0
   -1.1980   24.7110  -28.3380 C   0  0  0  0  0  0  0  0  0  0  0  0
   -1.8560   24.8930  -27.1190 C   0  0  0  0  0  0  0  0  0  0  0  0
   -1.2780   25.4360  -25.8620 C   0  0  0  0  0  0  0  0  0  0  0  0
   -0.0000   25.0370  -25.4310 C   0  0  0  0  0  0  0  0  0  0  0  0
    0.5380   25.5500  -24.2500 C   0  0  0  0  0  0  0  0  0  0  0  0
   -0.2020   26.4640  -23.5010 C   0  0  0  0  0  0  0  0  0  0  0  0
   -1.4340   26.8480  -23.9240 N   0  0  0  0  0  0  0  0  0  0  0  0
   -1.9830   26.3630  -25.0700 C   0  0  0  0  0  0  0  0  0  0  0  0
   -3.4480   24.3690  -27.3180 S   0  0  0  0  0  0  0  0  0  0  0  0
   -5.8211   25.5339  -28.7101 H   0  0  0  0  0  0  0  0  0  0  0  0
   -4.9992   26.0456  -30.2232 H   0  0  0  0  0  0  0  0  0  0  0  0
   -6.7683   25.7342  -30.2232 H   0  0  0  0  0  0  0  0  0  0  0  0
   -7.4474   23.7794  -31.1827 H   0  0  0  0  0  0  0  0  0  0  0  0
   -8.8398   21.0708  -30.6688 H   0  0  0  0  0  0  0  0  0  0  0  0
   -9.0401   22.2829  -31.9986 H   0  0  0  0  0  0  0  0  0  0  0  0
  -10.4892   20.1432  -32.1154 H   0  0  0  0  0  0  0  0  0  0  0  0
   -9.5562   20.6244  -33.5953 H   0  0  0  0  0  0  0  0  0  0  0  0
   -8.8258   18.9723  -30.4802 H   0  0  0  0  0  0  0  0  0  0  0  0
   -9.9130   17.7464  -31.2164 H   0  0  0  0  0  0  0  0  0  0  0  0
   -8.1356   17.4862  -31.2164 H   0  0  0  0  0  0  0  0  0  0  0  0
   -6.8056   18.3704  -32.4099 H   0  0  0  0  0  0  0  0  0  0  0  0
   -7.4501   18.5568  -34.1147 H   0  0  0  0  0  0  0  0  0  0  0  0
   -5.7334   20.3072  -33.2037 H   0  0  0  0  0  0  0  0  0  0  0  0
   -7.1893   20.8554  -34.1155 H   0  0  0  0  0  0  0  0  0  0  0  0
   -3.3280   21.4870  -29.9020 H   0  0  0  0  0  0  0  0  0  0  0  0
   -1.6442   23.9512  -30.3574 H   0  0  0  0  0  0  0  0  0  0  0  0
   -0.1401   24.9690  -28.4938 H   0  0  0  0  0  0  0  0  0  0  0  0
    0.5785   24.3167  -26.0281 H   0  0  0  0  0  0  0  0  0  0  0  0
    1.5369   25.2361  -23.9130 H   0  0  0  0  0  0  0  0  0  0  0  0
    0.2119   26.8739  -22.5679 H   0  0  0  0  0  0  0  0  0  0  0  0
   -2.9841   26.6969  -25.3803 H   0  0  0  0  0  0  0  0  0  0  0  0
  1  2  1  0
  2  3  2  0
  3  4  1  0
  4  5  1  0
  5  6  1  0
  6  7  1  0
  7  8  1  0
  8  9  1  0
  8 10  1  0
 10 11  1  0
  4 12  2  0
 12 13  1  0
 13 14  2  0
 14 15  1  0
 15 16  2  0
 16 17  1  0
 17 18  2  0
 18 19  1  0
 19 20  2  0
 20 21  1  0
 21 22  2  0
 22 23  1  0
 23 24  2  0
 18 25  1  0
 14  2  1  0
 25 15  1  0
 11  5  1  0
 24 19  1  0
  1 26  1  0
  1 27  1  0
  1 28  1  0
  3 29  1  0
  6 30  1  0
  6 31  1  0
  7 32  1  0
  7 33  1  0
  9 34  1  0
  9 35  1  0
  9 36  1  0
 10 37  1  0
 10 38  1  0
 11 39  1  0
 11 40  1  0
 13 41  1  0
 16 42  1  0
 17 43  1  0
 20 44  1  0
 21 45  1  0
 22 46  1  0
 24 47  1  0
M  CHG  1  13   1
M  END
>  <UniqueID>  (11) 
10

>  <SMILES>  (11) 
Cc1cc(N2CCN(C)CC2)n[nH+]c1-c1ccc(-c2cccnc2)s1

>  <Energy>  (11) 
95.3996025247137

>  <Genealogy>  (11) 
Cc1cc(N2CCN(C)CC2)n[nH+]c1-c1ccc(-c2cccnc2)s1 (protonated)
Cc1cc(N2CCN(C)CC2)n[nH+]c1-c1ccc(-c2cccnc2)s1 (3D coordinates assigned)
Cc1cc(N2CCN(C)CC2)n[nH+]c1-c1ccc(-c2cccnc2)s1 (nonaromatic ring conformer: 95.3996025247137 kcal/mol)

>  <smiles>  (11) 
Cc1cc(N2CCN(C)CC2)nnc1-c1ccc(-c2cccnc2)s1

>  <score_type>  (11) 
oracle

>  <origin>  (11) 
adg

>  <m_score__min__energy>  (11) 
-7.79

>  <m_primary>  (11) 
energy

$$$$
11:0
     RDKit          3D

 34 35  0  0  0  0  0  0  0  0999 V2000
   -6.2980   25.7500  -28.9760 C   0  0  0  0  0  0  0  0  0  0  0  0
   -6.8800   24.9380  -30.0840 C   0  0  0  0  0  0  0  0  0  0  0  0
   -6.0100   23.8700  -30.5890 C   0  0  0  0  0  0  0  0  0  0  0  0
   -6.5170   22.5760  -30.7200 C   0  0  0  0  0  0  0  0  0  0  0  0
   -7.9420   22.2810  -30.3450 C   0  0  0  0  0  0  0  0  0  0  0  0
   -5.7420   21.5750  -31.1820 N   0  0  0  0  0  0  0  0  0  0  0  0
   -4.4660   21.7970  -31.5270 C   0  0  0  0  0  0  0  0  0  0  0  0
   -3.5000   20.4180  -32.1360 S   0  0  0  0  0  0  0  0  0  0  0  0
   -4.4150   19.6200  -33.4730 C   0  0  0  0  0  0  0  0  0  0  0  0
   -5.7600   19.2580  -32.9740 C   0  0  0  0  0  0  0  0  0  0  0  0
   -5.9760   18.2160  -32.0820 C   0  0  0  0  0  0  0  0  0  0  0  0
   -7.2580   17.9290  -31.6560 C   0  0  0  0  0  0  0  0  0  0  0  0
   -8.3640   18.6490  -32.0860 C   0  0  0  0  0  0  0  0  0  0  0  0
   -8.1190   19.6920  -32.9850 C   0  0  0  0  0  0  0  0  0  0  0  0
   -6.8490   19.9940  -33.4210 C   0  0  0  0  0  0  0  0  0  0  0  0
   -3.9500   23.0380  -31.4110 N   0  0  0  0  0  0  0  0  0  0  0  0
   -4.6800   24.0800  -30.9540 C   0  0  0  0  0  0  0  0  0  0  0  0
   -4.2020   25.2430  -30.8450 O   0  0  0  0  0  0  0  0  0  0  0  0
   -6.6037   25.3235  -28.0092 H   0  0  0  0  0  0  0  0  0  0  0  0
   -5.2006   25.7394  -29.0509 H   0  0  0  0  0  0  0  0  0  0  0  0
   -6.6606   26.7858  -29.0509 H   0  0  0  0  0  0  0  0  0  0  0  0
   -7.8097   24.4775  -29.7185 H   0  0  0  0  0  0  0  0  0  0  0  0
   -7.0385   25.6303  -30.9240 H   0  0  0  0  0  0  0  0  0  0  0  0
   -8.0363   22.2615  -29.2492 H   0  0  0  0  0  0  0  0  0  0  0  0
   -8.5985   23.0623  -30.7556 H   0  0  0  0  0  0  0  0  0  0  0  0
   -8.2343   21.3033  -30.7556 H   0  0  0  0  0  0  0  0  0  0  0  0
   -6.1720   20.6380  -31.2560 H   0  0  0  0  0  0  0  0  0  0  0  0
   -4.5089   20.3124  -34.3226 H   0  0  0  0  0  0  0  0  0  0  0  0
   -3.8823   18.7172  -33.8064 H   0  0  0  0  0  0  0  0  0  0  0  0
   -5.1273   17.6200  -31.7152 H   0  0  0  0  0  0  0  0  0  0  0  0
   -7.4081   17.0991  -30.9498 H   0  0  0  0  0  0  0  0  0  0  0  0
   -9.3801   18.4117  -31.7379 H   0  0  0  0  0  0  0  0  0  0  0  0
   -8.9662   20.2885  -33.3544 H   0  0  0  0  0  0  0  0  0  0  0  0
   -6.6960   20.8231  -34.1275 H   0  0  0  0  0  0  0  0  0  0  0  0
  1  2  1  0
  2  3  1  0
  3  4  2  0
  4  5  1  0
  4  6  1  0
  6  7  1  0
  7  8  1  0
  8  9  1  0
  9 10  1  0
 10 11  2  0
 11 12  1  0
 12 13  2  0
 13 14  1  0
 14 15  2  0
  7 16  2  0
 16 17  1  0
 17 18  2  0
 17  3  1  0
 15 10  1  0
  1 19  1  0
  1 20  1  0
  1 21  1  0
  2 22  1  0
  2 23  1  0
  5 24  1  0
  5 25  1  0
  5 26  1  0
  6 27  1  0
  9 28  1  0
  9 29  1  0
 11 30  1  0
 12 31  1  0
 13 32  1  0
 14 33  1  0
 15 34  1  0
M  END
>  <smiles>  (12) 
CCc1c(C)[nH]c(SCc2ccccc2)nc1=O

>  <score_type>  (12) 
oracle

>  <origin>  (12) 
adg

>  <m_score__min__energy>  (12) 
-7.3700000000000001

>  <m_primary>  (12) 
energy

$$$$
12:0
     RDKit          3D

 37 38  0  0  0  0  0  0  0  0999 V2000
   -0.6730   21.2930  -28.4140 C   0  0  0  0  0  0  0  0  0  0  0  0
   -0.9840   22.4470  -29.1880 O   0  0  0  0  0  0  0  0  0  0  0  0
   -2.1430   22.6110  -29.9650 C   0  0  0  0  0  0  0  0  0  0  0  0
   -2.6860   21.5310  -30.6880 C   0  0  0  0  0  0  0  0  0  0  0  0
   -3.8420   21.6870  -31.4660 C   0  0  0  0  0  0  0  0  0  0  0  0
   -4.4040   20.5450  -32.2240 C   0  0  0  0  0  0  0  0  0  0  0  0
   -4.1710   20.4290  -33.4590 O   0  0  0  0  0  0  0  0  0  0  0  0
   -5.1940   19.5940  -31.5680 O   0  0  0  0  0  0  0  0  0  0  0  0
   -6.3670   19.0190  -32.1400 C   0  0  0  0  0  0  0  0  0  0  0  0
   -7.5140   19.9750  -32.0490 C   0  0  0  0  0  0  0  0  0  0  0  0
   -8.7900   19.7600  -32.5520 C   0  0  0  0  0  0  0  0  0  0  0  0
   -9.6660   20.8220  -32.2980 C   0  0  0  0  0  0  0  0  0  0  0  0
   -9.0840   21.8690  -31.5950 C   0  0  0  0  0  0  0  0  0  0  0  0
   -7.4780   21.4730  -31.2890 S   0  0  0  0  0  0  0  0  0  0  0  0
   -4.4620   22.9420  -31.5210 C   0  0  0  0  0  0  0  0  0  0  0  0
   -3.9370   24.0350  -30.8080 C   0  0  0  0  0  0  0  0  0  0  0  0
   -4.5410   25.3040  -30.8480 O   0  0  0  0  0  0  0  0  0  0  0  0
   -5.7580   25.6430  -30.1920 C   0  0  0  0  0  0  0  0  0  0  0  0
   -2.7800   23.8760  -30.0290 C   0  0  0  0  0  0  0  0  0  0  0  0
   -2.3190   25.0190  -29.3460 O   0  0  0  0  0  0  0  0  0  0  0  0
   -1.8930   25.0830  -27.9890 C   0  0  0  0  0  0  0  0  0  0  0  0
   -0.7396   21.5402  -27.3442 H   0  0  0  0  0  0  0  0  0  0  0  0
   -1.3868   20.4900  -28.6499 H   0  0  0  0  0  0  0  0  0  0  0  0
    0.3476   20.9574  -28.6499 H   0  0  0  0  0  0  0  0  0  0  0  0
   -2.1946   20.5480  -30.6415 H   0  0  0  0  0  0  0  0  0  0  0  0
   -6.1759   18.7817  -33.1970 H   0  0  0  0  0  0  0  0  0  0  0  0
   -6.6214   18.1028  -31.5869 H   0  0  0  0  0  0  0  0  0  0  0  0
   -9.0826   18.8488  -33.0944 H   0  0  0  0  0  0  0  0  0  0  0  0
  -10.7164   20.8268  -32.6245 H   0  0  0  0  0  0  0  0  0  0  0  0
   -9.5873   22.7984  -31.2904 H   0  0  0  0  0  0  0  0  0  0  0  0
   -5.3695   23.0742  -32.1285 H   0  0  0  0  0  0  0  0  0  0  0  0
   -5.6111   25.6021  -29.1026 H   0  0  0  0  0  0  0  0  0  0  0  0
   -6.0607   26.6596  -30.4832 H   0  0  0  0  0  0  0  0  0  0  0  0
   -6.5427   24.9292  -30.4832 H   0  0  0  0  0  0  0  0  0  0  0  0
   -2.7608   24.9526  -27.3257 H   0  0  0  0  0  0  0  0  0  0  0  0
   -1.1611   24.2847  -27.7964 H   0  0  0  0  0  0  0  0  0  0  0  0
   -1.4280   26.0611  -27.7964 H   0  0  0  0  0  0  0  0  0  0  0  0
  1  2  1  0
  2  3  1  0
  3  4  2  0
  4  5  1  0
  5  6  1  0
  6  7  2  0
  6  8  1  0
  8  9  1  0
  9 10  1  0
 10 11  2  0
 11 12  1  0
 12 13  2  0
 13 14  1  0
  5 15  2  0
 15 16  1  0
 16 17  1  0
 17 18  1  0
 16 19  2  0
 19 20  1  0
 20 21  1  0
 19  3  1  0
 14 10  1  0
  1 22  1  0
  1 23  1  0
  1 24  1  0
  4 25  1  0
  9 26  1  0
  9 27  1  0
 11 28  1  0
 12 29  1  0
 13 30  1  0
 15 31  1  0
 18 32  1  0
 18 33  1  0
 18 34  1  0
 21 35  1  0
 21 36  1  0
 21 37  1  0
M  END
>  <UniqueID>  (13) 
11

>  <SMILES>  (13) 
COc1cc(C(=O)OCc2cccs2)cc(OC)c1OC

>  <Energy>  (13) 
62.57993612154198

>  <Genealogy>  (13) 
COc1cc(C(=O)OCc2cccs2)cc(OC)c1OC (3D coordinates assigned)
COc1cc(C(=O)OCc2cccs2)cc(OC)c1OC (optimized conformer: 62.57993612154198 kcal/mol)

>  <smiles>  (13) 
COc1cc(C(=O)OCc2cccs2)cc(OC)c1OC

>  <score_type>  (13) 
oracle

>  <origin>  (13) 
adg

>  <m_score__min__energy>  (13) 
-6.5800000000000001

>  <m_primary>  (13) 
energy

$$$$
13:0
     RDKit          3D

 31 32  0  0  0  0  0  0  0  0999 V2000
   -6.8220   25.0200  -29.9410 C   0  0  0  0  0  0  0  0  0  0  0  0
   -6.6850   23.6450  -30.6060 C   0  0  1  0  0  0  0  0  0  0  0  0
   -7.8970   23.4240  -31.9700 S   0  0  0  0  0  0  0  0  0  0  0  0
   -7.8820   21.6300  -32.0380 C   0  0  0  0  0  0  0  0  0  0  0  0
   -8.7880   20.8790  -31.2880 C   0  0  0  0  0  0  0  0  0  0  0  0
   -8.7430   19.4880  -31.3650 C   0  0  0  0  0  0  0  0  0  0  0  0
   -7.7850   18.8840  -32.1770 C   0  0  0  0  0  0  0  0  0  0  0  0
   -6.9100   19.6590  -32.8700 N   0  0  0  0  0  0  0  0  0  0  0  0
   -6.9560   20.9910  -32.8010 N   0  0  0  0  0  0  0  0  0  0  0  0
   -5.2740   23.3190  -31.0380 C   0  0  0  0  0  0  0  0  0  0  0  0
   -4.3830   24.1970  -30.8850 O   0  0  0  0  0  0  0  0  0  0  0  0
   -4.9210   22.0120  -31.5300 N   0  0  0  0  0  0  0  0  0  0  0  0
   -3.6300   21.6860  -32.0730 C   0  0  0  0  0  0  0  0  0  0  0  0
   -2.4820   21.8900  -31.2910 C   0  0  0  0  0  0  0  0  0  0  0  0
   -1.2190   21.5630  -31.7900 C   0  0  0  0  0  0  0  0  0  0  0  0
   -1.0910   21.0140  -33.0700 C   0  0  0  0  0  0  0  0  0  0  0  0
    0.6360   20.5630  -33.7490 Br  0  0  0  0  0  0  0  0  0  0  0  0
   -2.2300   20.7840  -33.8470 C   0  0  0  0  0  0  0  0  0  0  0  0
   -3.4970   21.1120  -33.3510 C   0  0  0  0  0  0  0  0  0  0  0  0
   -6.8102   24.9012  -28.8475 H   0  0  0  0  0  0  0  0  0  0  0  0
   -5.9833   25.6616  -30.2492 H   0  0  0  0  0  0  0  0  0  0  0  0
   -7.7708   25.4835  -30.2492 H   0  0  0  0  0  0  0  0  0  0  0  0
   -6.9278   22.9088  -29.8256 H   0  0  0  0  0  0  0  0  0  0  0  0
   -9.5277   21.3780  -30.6447 H   0  0  0  0  0  0  0  0  0  0  0  0
   -9.4545   18.8750  -30.7922 H   0  0  0  0  0  0  0  0  0  0  0  0
   -7.7375   17.7879  -32.2564 H   0  0  0  0  0  0  0  0  0  0  0  0
   -5.5820   21.2220  -31.3710 H   0  0  0  0  0  0  0  0  0  0  0  0
   -2.5778   22.3100  -30.2789 H   0  0  0  0  0  0  0  0  0  0  0  0
   -0.3236   21.7375  -31.1753 H   0  0  0  0  0  0  0  0  0  0  0  0
   -2.1303   20.3443  -34.8504 H   0  0  0  0  0  0  0  0  0  0  0  0
   -4.3915   20.9206  -33.9619 H   0  0  0  0  0  0  0  0  0  0  0  0
  1  2  1  0
  2  3  1  0
  3  4  1  0
  4  5  2  0
  5  6  1  0
  6  7  2  0
  7  8  1  0
  8  9  2  0
  2 10  1  0
 10 11  2  0
 10 12  1  0
 12 13  1  0
 13 14  2  0
 14 15  1  0
 15 16  2  0
 16 17  1  0
 16 18  1  0
 18 19  2  0
  9  4  1  0
 19 13  1  0
  1 20  1  0
  1 21  1  0
  1 22  1  0
  2 23  1  1
  5 24  1  0
  6 25  1  0
  7 26  1  0
 12 27  1  0
 14 28  1  0
 15 29  1  0
 18 30  1  0
 19 31  1  0
M  END
>  <UniqueID>  (14) 
12

>  <SMILES>  (14) 
C[C@@H](Sc1cccnn1)C(=O)Nc1ccc(Br)cc1

>  <Energy>  (14) 
31.3982281016468

>  <Genealogy>  (14) 
C[C@@H](Sc1cccnn1)C(=O)Nc1ccc(Br)cc1 (chirality)
C[C@@H](Sc1cccnn1)C(=O)Nc1ccc(Br)cc1 (3D coordinates assigned)
C[C@@H](Sc1cccnn1)C(=O)Nc1ccc(Br)cc1 (optimized conformer: 31.3982281016468 kcal/mol)

>  <smiles>  (14) 
CC(Sc1cccnn1)C(=O)Nc1ccc(Br)cc1

>  <score_type>  (14) 
oracle

>  <origin>  (14) 
adg

>  <m_score__min__energy>  (14) 
-7.2999999999999998

>  <m_primary>  (14) 
energy

$$$$
14:0
     RDKit          3D

 47 49  0  0  0  0  0  0  0  0999 V2000
   -1.0930   21.9890  -31.0350 C   0  0  0  0  0  0  0  0  0  0  0  0
   -1.8700   21.5220  -32.2600 C   0  0  0  0  0  0  0  0  0  0  0  0
   -3.3080   21.7740  -32.0940 N   0  0  0  0  0  0  0  0  0  0  0  0
   -4.2040   21.7280  -33.2600 C   0  0  0  0  0  0  0  0  0  0  0  0
   -5.2280   20.6030  -33.1140 C   0  0  0  0  0  0  0  0  0  0  0  0
   -3.8460   21.9750  -30.7740 C   0  0  0  0  0  0  0  0  0  0  0  0
   -3.4260   21.2660  -29.8180 O   0  0  0  0  0  0  0  0  0  0  0  0
   -4.8710   23.0130  -30.5170 C   0  0  0  0  0  0  0  0  0  0  0  0
   -6.2290   22.6550  -30.5490 C   0  0  0  0  0  0  0  0  0  0  0  0
   -7.2200   23.6190  -30.3540 C   0  0  0  0  0  0  0  0  0  0  0  0
   -6.8660   24.9470  -30.1190 C   0  0  0  0  0  0  0  0  0  0  0  0
   -5.5210   25.3170  -30.0810 C   0  0  0  0  0  0  0  0  0  0  0  0
   -4.5120   24.3590  -30.2910 C   0  0  0  0  0  0  0  0  0  0  0  0
   -3.1240   24.7060  -30.1790 N   0  0  0  0  0  0  0  0  0  0  0  0
   -2.3770   24.9040  -28.9740 C   0  0  0  0  0  0  0  0  0  0  0  0
   -1.4780   25.7860  -28.9060 O   0  0  0  0  0  0  0  0  0  0  0  0
   -2.6020   23.9820  -27.8180 C   0  0  0  0  0  0  0  0  0  0  0  0
   -1.5110   22.9570  -27.7710 C   0  0  0  0  0  0  0  0  0  0  0  0
   -0.1770   23.1480  -28.1180 C   0  0  0  0  0  0  0  0  0  0  0  0
    0.4760   22.0010  -28.0550 O   0  0  0  0  0  0  0  0  0  0  0  0
   -0.3790   21.0720  -27.6950 C   0  0  0  0  0  0  0  0  0  0  0  0
   -0.1320   19.7140  -27.5170 C   0  0  0  0  0  0  0  0  0  0  0  0
   -1.2110   18.8910  -27.1410 C   0  0  0  0  0  0  0  0  0  0  0  0
   -2.4990   19.4410  -26.9560 C   0  0  0  0  0  0  0  0  0  0  0  0
   -2.7200   20.8180  -27.1470 C   0  0  0  0  0  0  0  0  0  0  0  0
   -1.6270   21.6070  -27.5100 C   0  0  0  0  0  0  0  0  0  0  0  0
   -1.6206   21.6719  -30.1233 H   0  0  0  0  0  0  0  0  0  0  0  0
   -0.0861   21.5463  -31.0487 H   0  0  0  0  0  0  0  0  0  0  0  0
   -1.0115   23.0859  -31.0487 H   0  0  0  0  0  0  0  0  0  0  0  0
   -1.5085   22.0660  -33.1451 H   0  0  0  0  0  0  0  0  0  0  0  0
   -1.7140   20.4403  -32.3847 H   0  0  0  0  0  0  0  0  0  0  0  0
   -4.7333   22.6884  -33.3461 H   0  0  0  0  0  0  0  0  0  0  0  0
   -3.6009   21.5409  -34.1607 H   0  0  0  0  0  0  0  0  0  0  0  0
   -5.4070   20.4064  -32.0466 H   0  0  0  0  0  0  0  0  0  0  0  0
   -6.1712   20.9010  -33.5951 H   0  0  0  0  0  0  0  0  0  0  0  0
   -4.8428   19.6919  -33.5951 H   0  0  0  0  0  0  0  0  0  0  0  0
   -6.5136   21.6078  -30.7290 H   0  0  0  0  0  0  0  0  0  0  0  0
   -8.2810   23.3305  -30.3858 H   0  0  0  0  0  0  0  0  0  0  0  0
   -7.6484   25.7044  -29.9633 H   0  0  0  0  0  0  0  0  0  0  0  0
   -5.2478   26.3645  -29.8856 H   0  0  0  0  0  0  0  0  0  0  0  0
   -2.6005   24.5610  -26.8827 H   0  0  0  0  0  0  0  0  0  0  0  0
   -3.5718   23.4770  -27.9378 H   0  0  0  0  0  0  0  0  0  0  0  0
    0.2686   24.1125  -28.4030 H   0  0  0  0  0  0  0  0  0  0  0  0
    0.8748   19.2965  -27.6654 H   0  0  0  0  0  0  0  0  0  0  0  0
   -1.0500   17.8133  -26.9904 H   0  0  0  0  0  0  0  0  0  0  0  0
   -3.3344   18.7891  -26.6608 H   0  0  0  0  0  0  0  0  0  0  0  0
   -3.7197   21.2574  -27.0148 H   0  0  0  0  0  0  0  0  0  0  0  0
  1  2  1  0
  2  3  1  0
  3  4  1  0
  4  5  1  0
  3  6  1  0
  6  7  2  0
  6  8  1  0
  8  9  2  0
  9 10  1  0
 10 11  2  0
 11 12  1  0
 12 13  2  0
 13 14  1  0
 14 15  1  0
 15 16  2  0
 15 17  1  0
 17 18  1  0
 18 19  2  0
 19 20  1  0
 20 21  1  0
 21 22  2  0
 22 23  1  0
 23 24  2  0
 24 25  1  0
 25 26  2  0
 13  8  1  0
 26 18  1  0
 26 21  1  0
  1 27  1  0
  1 28  1  0
  1 29  1  0
  2 30  1  0
  2 31  1  0
  4 32  1  0
  4 33  1  0
  5 34  1  0
  5 35  1  0
  5 36  1  0
  9 37  1  0
 10 38  1  0
 11 39  1  0
 12 40  1  0
 17 41  1  0
 17 42  1  0
 19 43  1  0
 22 44  1  0
 23 45  1  0
 24 46  1  0
 25 47  1  0
M  CHG  1  14  -1
M  END
>  <UniqueID>  (15) 
13

>  <SMILES>  (15) 
CCN(CC)C(=O)c1ccccc1[N-]C(=O)Cc1coc2ccccc12

>  <Energy>  (15) 
80.52633496528634

>  <Genealogy>  (15) 
CCN(CC)C(=O)c1ccccc1[N-]C(=O)Cc1coc2ccccc12 (protonated)
CCN(CC)C(=O)c1ccccc1[N-]C(=O)Cc1coc2ccccc12 (3D coordinates assigned)
CCN(CC)C(=O)c1ccccc1[N-]C(=O)Cc1coc2ccccc12 (optimized conformer: 80.52633496528634 kcal/mol)

>  <smiles>  (15) 
CCN(CC)C(=O)c1ccccc1NC(=O)Cc1coc2ccccc12

>  <score_type>  (15) 
oracle

>  <origin>  (15) 
adg

>  <m_score__min__energy>  (15) 
-10.51

>  <m_primary>  (15) 
energy

$$$$
15:0
     RDKit          3D

 30 32  0  0  0  0  0  0  0  0999 V2000
   -6.1190   25.7830  -28.7410 N   0  0  0  0  0  0  0  0  0  0  0  0
   -5.7580   25.8210  -30.1570 C   0  0  0  0  0  0  0  0  0  0  0  0
   -5.5010   24.4300  -30.6790 C   0  0  0  0  0  0  0  0  0  0  0  0
   -4.1940   23.9420  -30.7530 C   0  0  0  0  0  0  0  0  0  0  0  0
   -3.9520   22.6460  -31.2020 C   0  0  0  0  0  0  0  0  0  0  0  0
   -5.0160   21.8120  -31.5750 C   0  0  0  0  0  0  0  0  0  0  0  0
   -4.7410   20.5140  -32.0210 C   0  0  0  0  0  0  0  0  0  0  0  0
   -5.7740   19.6620  -32.3920 C   0  0  0  0  0  0  0  0  0  0  0  0
   -7.1050   20.0860  -32.3280 C   0  0  0  0  0  0  0  0  0  0  0  0
   -8.1260   19.2000  -32.7100 C   0  0  0  0  0  0  0  0  0  0  0  0
   -9.4600   19.5970  -32.6560 C   0  0  0  0  0  0  0  0  0  0  0  0
   -9.7890   20.8770  -32.2210 C   0  0  0  0  0  0  0  0  0  0  0  0
   -8.7880   21.7730  -31.8360 C   0  0  0  0  0  0  0  0  0  0  0  0
   -7.4210   21.3990  -31.8790 C   0  0  0  0  0  0  0  0  0  0  0  0
   -6.3590   22.2770  -31.4950 C   0  0  0  0  0  0  0  0  0  0  0  0
   -6.5750   23.5990  -31.0340 C   0  0  0  0  0  0  0  0  0  0  0  0
   -6.7910   25.0020  -28.5630 H   0  0  0  0  0  0  0  0  0  0  0  0
   -6.5730   26.6880  -28.4790 H   0  0  0  0  0  0  0  0  0  0  0  0
   -5.2610   25.6530  -28.1560 H   0  0  0  0  0  0  0  0  0  0  0  0
   -6.5819   26.2743  -30.7277 H   0  0  0  0  0  0  0  0  0  0  0  0
   -4.8407   26.4171  -30.2722 H   0  0  0  0  0  0  0  0  0  0  0  0
   -3.3521   24.5843  -30.4553 H   0  0  0  0  0  0  0  0  0  0  0  0
   -2.9188   22.2739  -31.2645 H   0  0  0  0  0  0  0  0  0  0  0  0
   -3.6991   20.1658  -32.0782 H   0  0  0  0  0  0  0  0  0  0  0  0
   -5.5426   18.6443  -32.7394 H   0  0  0  0  0  0  0  0  0  0  0  0
   -7.8705   18.1868  -33.0538 H   0  0  0  0  0  0  0  0  0  0  0  0
  -10.2540   18.8980  -32.9575 H   0  0  0  0  0  0  0  0  0  0  0  0
  -10.8440   21.1858  -32.1799 H   0  0  0  0  0  0  0  0  0  0  0  0
   -9.0643   22.7817  -31.4951 H   0  0  0  0  0  0  0  0  0  0  0  0
   -7.6032   23.9813  -30.9528 H   0  0  0  0  0  0  0  0  0  0  0  0
  1  2  1  0
  2  3  1  0
  3  4  2  0
  4  5  1  0
  5  6  2  0
  6  7  1  0
  7  8  2  0
  8  9  1  0
  9 10  2  0
 10 11  1  0
 11 12  2  0
 12 13  1  0
 13 14  2  0
 14 15  1  0
 15 16  2  0
 16  3  1  0
 15  6  1  0
 14  9  1  0
  1 17  1  0
  1 18  1  0
  1 19  1  0
  2 20  1  0
  2 21  1  0
  4 22  1  0
  5 23  1  0
  7 24  1  0
  8 25  1  0
 10 26  1  0
 11 27  1  0
 12 28  1  0
 13 29  1  0
 16 30  1  0
M  CHG  1   1   1
M  END
>  <UniqueID>  (16) 
14

>  <SMILES>  (16) 
[NH3+]Cc1ccc2ccc3ccccc3c2c1

>  <Energy>  (16) 
41.934969177295685

>  <Genealogy>  (16) 
[NH3+]Cc1ccc2ccc3ccccc3c2c1 (protonated)
[NH3+]Cc1ccc2ccc3ccccc3c2c1 (3D coordinates assigned)
[NH3+]Cc1ccc2ccc3ccccc3c2c1 (optimized conformer: 41.934969177295685 kcal/mol)

>  <smiles>  (16) 
NCc1ccc2ccc3ccccc3c2c1

>  <score_type>  (16) 
oracle

>  <origin>  (16) 
adg

>  <m_score__min__energy>  (16) 
-7.4400000000000004

>  <m_primary>  (16) 
energy

$$$$
16:0
     RDKit          3D

 32 34  0  0  0  0  0  0  0  0999 V2000
   -2.8240   24.4740  -28.0550 C   0  0  0  0  0  0  0  0  0  0  0  0
   -3.0940   24.9230  -29.3790 O   0  0  0  0  0  0  0  0  0  0  0  0
   -4.0890   24.3870  -30.2100 C   0  0  0  0  0  0  0  0  0  0  0  0
   -3.8760   23.2400  -30.9980 C   0  0  0  0  0  0  0  0  0  0  0  0
   -4.9000   22.7440  -31.8110 C   0  0  0  0  0  0  0  0  0  0  0  0
   -6.1520   23.3780  -31.8430 C   0  0  0  0  0  0  0  0  0  0  0  0
   -7.2600   22.8430  -32.7140 C   0  0  0  0  0  0  0  0  0  0  0  0
   -7.6010   21.4650  -32.3290 N   0  0  0  0  0  0  0  0  0  0  0  0
   -8.6420   21.1390  -31.5150 C   0  0  0  0  0  0  0  0  0  0  0  0
   -9.4420   21.9840  -31.0320 O   0  0  0  0  0  0  0  0  0  0  0  0
   -8.7460   19.4800  -31.2180 S   0  0  0  0  0  0  0  0  0  0  0  0
   -7.3980   19.1600  -32.1680 C   0  0  0  0  0  0  0  0  0  0  0  0
   -6.8090   17.9250  -32.4300 C   0  0  0  0  0  0  0  0  0  0  0  0
   -5.6760   17.8930  -33.2560 C   0  0  0  0  0  0  0  0  0  0  0  0
   -5.1580   19.0830  -33.7980 C   0  0  0  0  0  0  0  0  0  0  0  0
   -5.7670   20.3190  -33.5210 C   0  0  0  0  0  0  0  0  0  0  0  0
   -6.9000   20.3480  -32.6930 C   0  0  0  0  0  0  0  0  0  0  0  0
   -6.3590   24.5250  -31.0640 C   0  0  0  0  0  0  0  0  0  0  0  0
   -5.3340   25.0230  -30.2530 C   0  0  0  0  0  0  0  0  0  0  0  0
   -3.2514   25.1848  -27.3325 H   0  0  0  0  0  0  0  0  0  0  0  0
   -3.2757   23.4823  -27.9049 H   0  0  0  0  0  0  0  0  0  0  0  0
   -1.7363   24.4080  -27.9049 H   0  0  0  0  0  0  0  0  0  0  0  0
   -2.9006   22.7321  -30.9741 H   0  0  0  0  0  0  0  0  0  0  0  0
   -4.7233   21.8515  -32.4293 H   0  0  0  0  0  0  0  0  0  0  0  0
   -8.1491   23.4807  -32.6005 H   0  0  0  0  0  0  0  0  0  0  0  0
   -6.9213   22.8455  -33.7606 H   0  0  0  0  0  0  0  0  0  0  0  0
   -7.2214   17.0000  -32.0007 H   0  0  0  0  0  0  0  0  0  0  0  0
   -5.1900   16.9322  -33.4811 H   0  0  0  0  0  0  0  0  0  0  0  0
   -4.2686   19.0460  -34.4442 H   0  0  0  0  0  0  0  0  0  0  0  0
   -5.3621   21.2491  -33.9464 H   0  0  0  0  0  0  0  0  0  0  0  0
   -7.3327   25.0361  -31.0907 H   0  0  0  0  0  0  0  0  0  0  0  0
   -5.5085   25.9223  -29.6440 H   0  0  0  0  0  0  0  0  0  0  0  0
  1  2  1  0
  2  3  1  0
  3  4  2  0
  4  5  1  0
  5  6  2  0
  6  7  1  0
  7  8  1  0
  8  9  1  0
  9 10  2  0
  9 11  1  0
 11 12  1  0
 12 13  2  0
 13 14  1  0
 14 15  2  0
 15 16  1  0
 16 17  2  0
  6 18  1  0
 18 19  2  0
 19  3  1  0
 17  8  1  0
 17 12  1  0
  1 20  1  0
  1 21  1  0
  1 22  1  0
  4 23  1  0
  5 24  1  0
  7 25  1  0
  7 26  1  0
 13 27  1  0
 14 28  1  0
 15 29  1  0
 16 30  1  0
 18 31  1  0
 19 32  1  0
M  END
>  <UniqueID>  (17) 
15

>  <SMILES>  (17) 
COc1ccc(Cn2c(=O)sc3ccccc32)cc1

>  <Energy>  (17) 
69.84587434447698

>  <Genealogy>  (17) 
COc1ccc(Cn2c(=O)sc3ccccc32)cc1 (3D coordinates assigned)
COc1ccc(Cn2c(=O)sc3ccccc32)cc1 (optimized conformer: 69.84587434447698 kcal/mol)

>  <smiles>  (17) 
COc1ccc(Cn2c(=O)sc3ccccc32)cc1

>  <score_type>  (17) 
oracle

>  <origin>  (17) 
adg

>  <m_score__min__energy>  (17) 
-7.7400000000000002

>  <m_primary>  (17) 
energy

$$$$
17:0
     RDKit          3D

 38 39  0  0  0  0  0  0  0  0999 V2000
   -3.8650   21.8440  -33.3810 C   0  0  0  0  0  0  0  0  0  0  0  0
   -4.7960   20.8540  -32.7390 C   0  0  0  0  0  0  0  0  0  0  0  0
   -4.5250   20.3630  -31.3390 C   0  0  0  0  0  0  0  0  0  0  0  0
   -5.8620   20.4250  -33.4340 C   0  0  0  0  0  0  0  0  0  0  0  0
   -6.8490   19.4800  -32.8830 C   0  0  0  0  0  0  0  0  0  0  0  0
   -6.6520   18.1480  -32.7900 N   0  0  0  0  0  0  0  0  0  0  0  0
   -5.4960   17.3850  -33.2510 C   0  0  0  0  0  0  0  0  0  0  0  0
   -7.7920   17.6430  -32.2790 C   0  0  0  0  0  0  0  0  0  0  0  0
   -8.6630   18.6870  -32.0420 C   0  0  0  0  0  0  0  0  0  0  0  0
   -8.0650   19.8380  -32.4110 N   0  0  0  0  0  0  0  0  0  0  0  0
   -8.6550   21.1790  -32.3590 C   0  0  0  0  0  0  0  0  0  0  0  0
   -8.3640   21.8470  -31.0410 C   0  0  0  0  0  0  0  0  0  0  0  0
   -9.1590   21.6550  -30.0820 O   0  0  0  0  0  0  0  0  0  0  0  0
   -7.2040   22.7520  -30.8490 C   0  0  0  0  0  0  0  0  0  0  0  0
   -6.4680   22.6750  -29.6520 C   0  0  0  0  0  0  0  0  0  0  0  0
   -5.3860   23.5290  -29.4260 C   0  0  0  0  0  0  0  0  0  0  0  0
   -5.0200   24.4670  -30.3930 C   0  0  0  0  0  0  0  0  0  0  0  0
   -3.9700   25.2950  -30.1730 F   0  0  0  0  0  0  0  0  0  0  0  0
   -5.7310   24.5460  -31.5920 C   0  0  0  0  0  0  0  0  0  0  0  0
   -6.8160   23.6940  -31.8260 C   0  0  0  0  0  0  0  0  0  0  0  0
   -7.4510   23.7670  -33.0230 F   0  0  0  0  0  0  0  0  0  0  0  0
   -3.3344   22.4082  -32.5999 H   0  0  0  0  0  0  0  0  0  0  0  0
   -3.1353   21.3089  -34.0065 H   0  0  0  0  0  0  0  0  0  0  0  0
   -4.4439   22.5395  -34.0065 H   0  0  0  0  0  0  0  0  0  0  0  0
   -4.9243   21.0865  -30.6130 H   0  0  0  0  0  0  0  0  0  0  0  0
   -5.0128   19.3882  -31.1915 H   0  0  0  0  0  0  0  0  0  0  0  0
   -3.4402   20.2562  -31.1915 H   0  0  0  0  0  0  0  0  0  0  0  0
   -6.0046   20.7955  -34.4599 H   0  0  0  0  0  0  0  0  0  0  0  0
   -4.9323   17.0129  -32.3828 H   0  0  0  0  0  0  0  0  0  0  0  0
   -5.8371   16.5340  -33.8588 H   0  0  0  0  0  0  0  0  0  0  0  0
   -4.8476   18.0331  -33.8588 H   0  0  0  0  0  0  0  0  0  0  0  0
   -7.9941   16.5795  -32.0839 H   0  0  0  0  0  0  0  0  0  0  0  0
   -9.6757   18.5955  -31.6223 H   0  0  0  0  0  0  0  0  0  0  0  0
   -8.2339   21.7888  -33.1719 H   0  0  0  0  0  0  0  0  0  0  0  0
   -9.7453   21.0863  -32.4712 H   0  0  0  0  0  0  0  0  0  0  0  0
   -6.7474   21.9354  -28.8872 H   0  0  0  0  0  0  0  0  0  0  0  0
   -4.8213   23.4623  -28.4844 H   0  0  0  0  0  0  0  0  0  0  0  0
   -5.4370   25.2810  -32.3558 H   0  0  0  0  0  0  0  0  0  0  0  0
  1  2  1  0
  2  3  1  0
  2  4  2  3
  4  5  1  0
  5  6  1  0
  6  7  1  0
  6  8  1  0
  8  9  2  0
  9 10  1  0
 10 11  1  0
 11 12  1  0
 12 13  2  0
 12 14  1  0
 14 15  2  0
 15 16  1  0
 16 17  2  0
 17 18  1  0
 17 19  1  0
 19 20  2  0
 20 21  1  0
 10  5  2  0
 20 14  1  0
  1 22  1  0
  1 23  1  0
  1 24  1  0
  3 25  1  0
  3 26  1  0
  3 27  1  0
  4 28  1  0
  7 29  1  0
  7 30  1  0
  7 31  1  0
  8 32  1  0
  9 33  1  0
 11 34  1  0
 11 35  1  0
 15 36  1  0
 16 37  1  0
 19 38  1  0
M  CHG  1  10   1
M  END
>  <UniqueID>  (18) 
16

>  <SMILES>  (18) 
CC(C)=Cc1n(C)cc[n+]1CC(=O)c1ccc(F)cc1F

>  <Energy>  (18) 
73.86730143881837

>  <Genealogy>  (18) 
CC(C)=Cc1n(C)cc[n+]1CC(=O)c1ccc(F)cc1F (3D coordinates assigned)
CC(C)=Cc1n(C)cc[n+]1CC(=O)c1ccc(F)cc1F (optimized conformer: 73.86730143881837 kcal/mol)

>  <smiles>  (18) 
CC(C)=Cc1n(C)cc[n+]1CC(=O)c1ccc(F)cc1F

>  <score_type>  (18) 
oracle

>  <origin>  (18) 
adg

>  <m_score__min__energy>  (18) 
-6.7699999999999996

>  <m_primary>  (18) 
energy

$$$$
18:0
     RDKit          3D

 35 36  0  0  0  0  0  0  0  0999 V2000
   -3.9080   25.4340  -30.5400 O   0  0  0  0  0  0  0  0  0  0  0  0
   -4.4270   24.4790  -29.6550 C   0  0  0  0  0  0  0  0  0  0  0  0
   -5.9560   24.4240  -29.7430 C   0  0  0  0  0  0  0  0  0  0  0  0
   -6.4480   24.5590  -31.1960 C   0  0  0  0  0  0  0  0  0  0  0  0
   -7.6160   23.7040  -31.4690 N   0  0  0  0  0  0  0  0  0  0  0  0
   -7.2200   22.3660  -31.8450 C   0  0  0  0  0  0  0  0  0  0  0  0
   -5.9220   22.1170  -32.3190 C   0  0  0  0  0  0  0  0  0  0  0  0
   -5.5310   20.8210  -32.6670 C   0  0  0  0  0  0  0  0  0  0  0  0
   -6.4300   19.7480  -32.5410 C   0  0  0  0  0  0  0  0  0  0  0  0
   -6.0200   18.3720  -32.9130 C   0  0  0  0  0  0  0  0  0  0  0  0
   -5.7480   17.4240  -31.9090 C   0  0  0  0  0  0  0  0  0  0  0  0
   -5.3670   16.1220  -32.2480 C   0  0  0  0  0  0  0  0  0  0  0  0
   -5.2490   15.7530  -33.5900 C   0  0  0  0  0  0  0  0  0  0  0  0
   -4.8780   14.4910  -33.9160 F   0  0  0  0  0  0  0  0  0  0  0  0
   -5.5100   16.6870  -34.5960 C   0  0  0  0  0  0  0  0  0  0  0  0
   -5.8930   17.9920  -34.2650 C   0  0  0  0  0  0  0  0  0  0  0  0
   -6.1020   18.8870  -35.2630 F   0  0  0  0  0  0  0  0  0  0  0  0
   -7.7300   19.9990  -32.0710 C   0  0  0  0  0  0  0  0  0  0  0  0
   -8.1210   21.2940  -31.7240 C   0  0  0  0  0  0  0  0  0  0  0  0
   -3.4890   24.9330  -31.2870 H   0  0  0  0  0  0  0  0  0  0  0  0
   -4.0160   23.4910  -29.9100 H   0  0  0  0  0  0  0  0  0  0  0  0
   -4.1444   24.7604  -28.6298 H   0  0  0  0  0  0  0  0  0  0  0  0
   -6.3021   23.4619  -29.3374 H   0  0  0  0  0  0  0  0  0  0  0  0
   -6.3634   25.2655  -29.1634 H   0  0  0  0  0  0  0  0  0  0  0  0
   -6.7255   25.6074  -31.3802 H   0  0  0  0  0  0  0  0  0  0  0  0
   -5.6319   24.2385  -31.8603 H   0  0  0  0  0  0  0  0  0  0  0  0
   -8.1620   24.1260  -32.2560 H   0  0  0  0  0  0  0  0  0  0  0  0
   -8.2470   23.6840  -30.6350 H   0  0  0  0  0  0  0  0  0  0  0  0
   -5.2078   22.9478  -32.4172 H   0  0  0  0  0  0  0  0  0  0  0  0
   -4.5129   20.6396  -33.0420 H   0  0  0  0  0  0  0  0  0  0  0  0
   -5.8357   17.7093  -30.8503 H   0  0  0  0  0  0  0  0  0  0  0  0
   -5.1598   15.3869  -31.4563 H   0  0  0  0  0  0  0  0  0  0  0  0
   -5.4141   16.3955  -35.6523 H   0  0  0  0  0  0  0  0  0  0  0  0
   -8.4455   19.1690  -31.9756 H   0  0  0  0  0  0  0  0  0  0  0  0
   -9.1406   21.4762  -31.3536 H   0  0  0  0  0  0  0  0  0  0  0  0
  1  2  1  0
  2  3  1  0
  3  4  1  0
  4  5  1  0
  5  6  1  0
  6  7  2  0
  7  8  1  0
  8  9  2  0
  9 10  1  0
 10 11  2  0
 11 12  1  0
 12 13  2  0
 13 14  1  0
 13 15  1  0
 15 16  2  0
 16 17  1  0
  9 18  1  0
 18 19  2  0
 19  6  1  0
 16 10  1  0
  1 20  1  0
  2 21  1  0
  2 22  1  0
  3 23  1  0
  3 24  1  0
  4 25  1  0
  4 26  1  0
  5 27  1  0
  5 28  1  0
  7 29  1  0
  8 30  1  0
 11 31  1  0
 12 32  1  0
 15 33  1  0
 18 34  1  0
 19 35  1  0
M  CHG  1   5   1
M  END
>  <UniqueID>  (19) 
17

>  <SMILES>  (19) 
OCCC[NH2+]c1ccc(-c2ccc(F)cc2F)cc1

>  <Energy>  (19) 
38.874915997826264

>  <Genealogy>  (19) 
OCCC[NH2+]c1ccc(-c2ccc(F)cc2F)cc1 (protonated)
OCCC[NH2+]c1ccc(-c2ccc(F)cc2F)cc1 (3D coordinates assigned)
OCCC[NH2+]c1ccc(-c2ccc(F)cc2F)cc1 (optimized conformer: 38.874915997826264 kcal/mol)

>  <smiles>  (19) 
OCCCNc1ccc(-c2ccc(F)cc2F)cc1

>  <score_type>  (19) 
oracle

>  <origin>  (19) 
adg

>  <m_score__min__energy>  (19) 
-6.5999999999999996

>  <m_primary>  (19) 
energy

$$$$
19:0
     RDKit          3D

 44 46  0  0  0  0  0  0  0  0999 V2000
   -2.6650   20.0780  -27.4290 C   0  0  0  0  0  0  0  0  0  0  0  0
   -2.6580   21.4180  -27.9130 O   0  0  0  0  0  0  0  0  0  0  0  0
   -3.1790   21.8200  -29.1540 C   0  0  0  0  0  0  0  0  0  0  0  0
   -3.4790   20.8920  -30.1640 C   0  0  0  0  0  0  0  0  0  0  0  0
   -3.9650   21.3190  -31.4050 C   0  0  0  0  0  0  0  0  0  0  0  0
   -4.2450   20.3350  -32.4810 C   0  0  0  0  0  0  0  0  0  0  0  0
   -3.1700   19.6550  -33.0720 C   0  0  0  0  0  0  0  0  0  0  0  0
   -3.4010   18.7710  -34.1250 C   0  0  0  0  0  0  0  0  0  0  0  0
   -4.6640   18.5670  -34.5840 N   0  0  0  0  0  0  0  0  0  0  0  0
   -5.7320   19.2000  -34.0290 C   0  0  0  0  0  0  0  0  0  0  0  0
   -5.5580   20.0910  -32.9570 C   0  0  0  0  0  0  0  0  0  0  0  0
   -6.7540   20.7130  -32.3400 C   0  0  0  0  0  0  0  0  0  0  0  0
   -7.6920   19.9190  -31.6580 C   0  0  0  0  0  0  0  0  0  0  0  0
   -8.8340   20.5010  -31.0980 C   0  0  0  0  0  0  0  0  0  0  0  0
   -9.0440   21.8780  -31.2090 C   0  0  0  0  0  0  0  0  0  0  0  0
   -8.1110   22.6770  -31.8740 C   0  0  0  0  0  0  0  0  0  0  0  0
   -6.9680   22.1000  -32.4350 C   0  0  0  0  0  0  0  0  0  0  0  0
   -4.1870   22.6840  -31.6220 C   0  0  0  0  0  0  0  0  0  0  0  0
   -3.9090   23.6330  -30.6180 C   0  0  0  0  0  0  0  0  0  0  0  0
   -4.1310   25.0000  -30.8420 O   0  0  0  0  0  0  0  0  0  0  0  0
   -5.3470   25.6880  -30.5680 C   0  0  0  0  0  0  0  0  0  0  0  0
   -3.3950   23.1910  -29.3710 C   0  0  0  0  0  0  0  0  0  0  0  0
   -3.0750   24.0560  -28.3070 O   0  0  0  0  0  0  0  0  0  0  0  0
   -3.8530   24.2880  -27.1380 C   0  0  0  0  0  0  0  0  0  0  0  0
   -2.6650   20.0855  -26.3290 H   0  0  0  0  0  0  0  0  0  0  0  0
   -3.5659   19.5617  -27.7921 H   0  0  0  0  0  0  0  0  0  0  0  0
   -1.7696   19.5523  -27.7921 H   0  0  0  0  0  0  0  0  0  0  0  0
   -3.3305   19.8181  -29.9779 H   0  0  0  0  0  0  0  0  0  0  0  0
   -2.1460   19.8190  -32.7051 H   0  0  0  0  0  0  0  0  0  0  0  0
   -2.5576   18.2364  -34.5863 H   0  0  0  0  0  0  0  0  0  0  0  0
   -4.8180   17.9040  -35.3760 H   0  0  0  0  0  0  0  0  0  0  0  0
   -6.7417   19.0126  -34.4232 H   0  0  0  0  0  0  0  0  0  0  0  0
   -7.5274   18.8354  -31.5642 H   0  0  0  0  0  0  0  0  0  0  0  0
   -9.5675   19.8741  -30.5697 H   0  0  0  0  0  0  0  0  0  0  0  0
   -9.9451   22.3333  -30.7722 H   0  0  0  0  0  0  0  0  0  0  0  0
   -8.2759   23.7615  -31.9563 H   0  0  0  0  0  0  0  0  0  0  0  0
   -6.2328   22.7333  -32.9530 H   0  0  0  0  0  0  0  0  0  0  0  0
   -4.5844   23.0209  -32.5908 H   0  0  0  0  0  0  0  0  0  0  0  0
   -5.4864   25.7669  -29.4797 H   0  0  0  0  0  0  0  0  0  0  0  0
   -5.3047   26.6960  -31.0063 H   0  0  0  0  0  0  0  0  0  0  0  0
   -6.1893   25.1326  -31.0063 H   0  0  0  0  0  0  0  0  0  0  0  0
   -3.2371   24.1043  -26.2453 H   0  0  0  0  0  0  0  0  0  0  0  0
   -4.2049   25.3302  -27.1326 H   0  0  0  0  0  0  0  0  0  0  0  0
   -4.7182   23.6088  -27.1326 H   0  0  0  0  0  0  0  0  0  0  0  0
  1  2  1  0
  2  3  1  0
  3  4  2  0
  4  5  1  0
  5  6  1  0
  6  7  2  0
  7  8  1  0
  8  9  2  0
  9 10  1  0
 10 11  2  0
 11 12  1  0
 12 13  2  0
 13 14  1  0
 14 15  2  0
 15 16  1  0
 16 17  2  0
  5 18  2  0
 18 19  1  0
 19 20  1  0
 20 21  1  0
 19 22  2  0
 22 23  1  0
 23 24  1  0
 22  3  1  0
 11  6  1  0
 17 12  1  0
  1 25  1  0
  1 26  1  0
  1 27  1  0
  4 28  1  0
  7 29  1  0
  8 30  1  0
  9 31  1  0
 10 32  1  0
 13 33  1  0
 14 34  1  0
 15 35  1  0
 16 36  1  0
 17 37  1  0
 18 38  1  0
 21 39  1  0
 21 40  1  0
 21 41  1  0
 24 42  1  0
 24 43  1  0
 24 44  1  0
M  CHG  1   9   1
M  END
>  <UniqueID>  (20) 
18

>  <SMILES>  (20) 
COc1cc(-c2cc[nH+]cc2-c2ccccc2)cc(OC)c1OC

>  <Energy>  (20) 
59.72083702001101

>  <Genealogy>  (20) 
COc1cc(-c2cc[nH+]cc2-c2ccccc2)cc(OC)c1OC (protonated)
COc1cc(-c2cc[nH+]cc2-c2ccccc2)cc(OC)c1OC (3D coordinates assigned)
COc1cc(-c2cc[nH+]cc2-c2ccccc2)cc(OC)c1OC (optimized conformer: 59.72083702001101 kcal/mol)

>  <smiles>  (20) 
COc1cc(-c2ccncc2-c2ccccc2)cc(OC)c1OC

>  <score_type>  (20) 
oracle

>  <origin>  (20) 
adg

>  <m_score__min__energy>  (20) 
-7.3200000000000003

>  <m_primary>  (20) 
energy

$$$$
20:0
     RDKit          3D

 35 37  0  0  0  0  0  0  0  0999 V2000
   -0.9270   26.0470  -28.0650 C   0  0  0  0  0  0  0  0  0  0  0  0
   -1.9410   25.6580  -28.9630 O   0  0  0  0  0  0  0  0  0  0  0  0
   -2.6510   24.5640  -28.4230 C   0  0  0  0  0  0  0  0  0  0  0  0
   -3.5530   24.0000  -29.4840 C   0  0  0  0  0  0  0  0  0  0  0  0
   -4.8310   24.5430  -29.6890 C   0  0  0  0  0  0  0  0  0  0  0  0
   -5.6560   24.0420  -30.7000 C   0  0  0  0  0  0  0  0  0  0  0  0
   -5.2030   23.0080  -31.5370 C   0  0  0  0  0  0  0  0  0  0  0  0
   -6.0070   22.4660  -32.5510 O   0  0  0  0  0  0  0  0  0  0  0  0
   -7.1820   21.7250  -32.3510 C   0  0  0  0  0  0  0  0  0  0  0  0
   -8.3340   22.3350  -31.8250 C   0  0  0  0  0  0  0  0  0  0  0  0
   -9.5020   21.5900  -31.6730 C   0  0  0  0  0  0  0  0  0  0  0  0
   -9.5290   20.2840  -32.0380 N   0  0  0  0  0  0  0  0  0  0  0  0
   -8.4400   19.6660  -32.5640 C   0  0  0  0  0  0  0  0  0  0  0  0
   -7.2340   20.3690  -32.7420 C   0  0  0  0  0  0  0  0  0  0  0  0
   -6.0410   19.6830  -33.3050 C   0  0  0  0  0  0  0  0  0  0  0  0
   -6.1090   18.6620  -34.2540 C   0  0  0  0  0  0  0  0  0  0  0  0
   -4.5390   18.1760  -34.6030 S   0  0  0  0  0  0  0  0  0  0  0  0
   -3.8340   19.2680  -33.5420 C   0  0  0  0  0  0  0  0  0  0  0  0
   -4.7750   20.0080  -32.9180 N   0  0  0  0  0  0  0  0  0  0  0  0
   -3.9300   22.4660  -31.3300 C   0  0  0  0  0  0  0  0  0  0  0  0
   -3.1040   22.9650  -30.3190 C   0  0  0  0  0  0  0  0  0  0  0  0
   -1.2802   25.9115  -27.0321 H   0  0  0  0  0  0  0  0  0  0  0  0
   -0.0330   25.4280  -28.2310 H   0  0  0  0  0  0  0  0  0  0  0  0
   -0.6764   27.1051  -28.2310 H   0  0  0  0  0  0  0  0  0  0  0  0
   -1.9423   23.7909  -28.0913 H   0  0  0  0  0  0  0  0  0  0  0  0
   -3.2495   24.8957  -27.5617 H   0  0  0  0  0  0  0  0  0  0  0  0
   -5.1849   25.3664  -29.0512 H   0  0  0  0  0  0  0  0  0  0  0  0
   -6.6641   24.4589  -30.8411 H   0  0  0  0  0  0  0  0  0  0  0  0
   -8.3137   23.3958  -31.5346 H   0  0  0  0  0  0  0  0  0  0  0  0
  -10.4038   22.0622  -31.2562 H   0  0  0  0  0  0  0  0  0  0  0  0
   -8.5012   18.6065  -32.8535 H   0  0  0  0  0  0  0  0  0  0  0  0
   -7.0278   18.2486  -34.6954 H   0  0  0  0  0  0  0  0  0  0  0  0
   -2.7510   19.3675  -33.3771 H   0  0  0  0  0  0  0  0  0  0  0  0
   -3.5769   21.6417  -31.9671 H   0  0  0  0  0  0  0  0  0  0  0  0
   -2.0974   22.5447  -30.1771 H   0  0  0  0  0  0  0  0  0  0  0  0
  1  2  1  0
  2  3  1  0
  3  4  1  0
  4  5  2  0
  5  6  1  0
  6  7  2  0
  7  8  1  0
  8  9  1  0
  9 10  2  0
 10 11  1  0
 11 12  2  0
 12 13  1  0
 13 14  2  0
 14 15  1  0
 15 16  2  0
 16 17  1  0
 17 18  1  0
 18 19  2  0
  7 20  1  0
 20 21  2  0
 21  4  1  0
 14  9  1  0
 19 15  1  0
  1 22  1  0
  1 23  1  0
  1 24  1  0
  3 25  1  0
  3 26  1  0
  5 27  1  0
  6 28  1  0
 10 29  1  0
 11 30  1  0
 13 31  1  0
 16 32  1  0
 18 33  1  0
 20 34  1  0
 21 35  1  0
M  END
>  <UniqueID>  (21) 
19

>  <SMILES>  (21) 
COCc1ccc(Oc2ccncc2-c2cscn2)cc1

>  <Energy>  (21) 
78.03638184169414

>  <Genealogy>  (21) 
COCc1ccc(Oc2ccncc2-c2cscn2)cc1 (3D coordinates assigned)
COCc1ccc(Oc2ccncc2-c2cscn2)cc1 (optimized conformer: 78.03638184169414 kcal/mol)

>  <smiles>  (21) 
COCc1ccc(Oc2ccncc2-c2cscn2)cc1

>  <score_type>  (21) 
oracle

>  <origin>  (21) 
adg

>  <m_score__min__energy>  (21) 
-7.4299999999999997

>  <m_primary>  (21) 
energy

$$$$
21:0
     RDKit          3D

 51 54  0  0  0  0  0  0  0  0999 V2000
    0.2650   23.5790  -35.8970 N   0  0  0  0  0  0  0  0  0  0  0  0
    1.3150   22.5660  -35.9420 C   0  0  0  0  0  0  0  0  0  0  0  0
    1.0250   21.4390  -34.9490 C   0  0  0  0  0  0  0  0  0  0  0  0
   -0.2170   21.7120  -34.2090 N   0  0  0  0  0  0  0  0  0  0  0  0
   -0.6280   20.5640  -33.3850 C   0  0  0  0  0  0  0  0  0  0  0  0
   -2.1080   20.5850  -33.0880 C   0  0  0  0  0  0  0  0  0  0  0  0
   -2.9610   19.6040  -33.6510 C   0  0  0  0  0  0  0  0  0  0  0  0
   -4.3510   19.6610  -33.4580 C   0  0  0  0  0  0  0  0  0  0  0  0
   -4.8700   20.7100  -32.6940 C   0  0  0  0  0  0  0  0  0  0  0  0
   -4.0360   21.6570  -32.1340 C   0  0  0  0  0  0  0  0  0  0  0  0
   -2.6550   21.6300  -32.3140 C   0  0  0  0  0  0  0  0  0  0  0  0
   -4.8510   22.5760  -31.5150 C   0  0  0  0  0  0  0  0  0  0  0  0
   -4.5590   23.7590  -30.8380 C   0  0  0  0  0  0  0  0  0  0  0  0
   -5.6370   24.5240  -30.3620 C   0  0  0  0  0  0  0  0  0  0  0  0
   -6.9670   24.1020  -30.5810 C   0  0  0  0  0  0  0  0  0  0  0  0
   -7.2340   22.9110  -31.2780 C   0  0  0  0  0  0  0  0  0  0  0  0
   -6.1480   22.1560  -31.7330 C   0  0  0  0  0  0  0  0  0  0  0  0
   -6.1750   21.0050  -32.4540 N   0  0  0  0  0  0  0  0  0  0  0  0
   -7.3580   20.3550  -33.0320 C   0  0  0  0  0  0  0  0  0  0  0  0
   -7.7870   19.1420  -32.1940 C   0  0  0  0  0  0  0  0  0  0  0  0
   -6.9390   17.9330  -32.4930 C   0  0  0  0  0  0  0  0  0  0  0  0
   -6.8150   17.4670  -33.8120 C   0  0  0  0  0  0  0  0  0  0  0  0
   -5.9540   16.4050  -34.0870 C   0  0  0  0  0  0  0  0  0  0  0  0
   -5.2270   15.8150  -33.0530 C   0  0  0  0  0  0  0  0  0  0  0  0
   -5.3730   16.3000  -31.7520 C   0  0  0  0  0  0  0  0  0  0  0  0
   -6.2150   17.3410  -31.4980 N   0  0  0  0  0  0  0  0  0  0  0  0
   -0.6560   23.0830  -35.9030 H   0  0  0  0  0  0  0  0  0  0  0  0
    0.3280   24.0740  -34.9780 H   0  0  0  0  0  0  0  0  0  0  0  0
    1.3686   22.1469  -36.9576 H   0  0  0  0  0  0  0  0  0  0  0  0
    2.2715   23.0371  -35.6714 H   0  0  0  0  0  0  0  0  0  0  0  0
    0.9189   20.4915  -35.4975 H   0  0  0  0  0  0  0  0  0  0  0  0
    1.8580   21.3715  -34.2338 H   0  0  0  0  0  0  0  0  0  0  0  0
   -0.9810   21.9290  -34.8930 H   0  0  0  0  0  0  0  0  0  0  0  0
   -0.3865   19.6355  -33.9231 H   0  0  0  0  0  0  0  0  0  0  0  0
   -0.0877   20.6202  -32.4285 H   0  0  0  0  0  0  0  0  0  0  0  0
   -2.5289   18.7868  -34.2472 H   0  0  0  0  0  0  0  0  0  0  0  0
   -5.0136   18.9003  -33.8965 H   0  0  0  0  0  0  0  0  0  0  0  0
   -2.0102   22.4004  -31.8660 H   0  0  0  0  0  0  0  0  0  0  0  0
   -3.5194   24.0827  -30.6817 H   0  0  0  0  0  0  0  0  0  0  0  0
   -5.4438   25.4584  -29.8148 H   0  0  0  0  0  0  0  0  0  0  0  0
   -7.8013   24.7109  -30.2027 H   0  0  0  0  0  0  0  0  0  0  0  0
   -8.2677   22.5820  -31.4605 H   0  0  0  0  0  0  0  0  0  0  0  0
   -8.1854   21.0791  -33.0657 H   0  0  0  0  0  0  0  0  0  0  0  0
   -7.1062   20.0083  -34.0451 H   0  0  0  0  0  0  0  0  0  0  0  0
   -7.6884   19.3922  -31.1274 H   0  0  0  0  0  0  0  0  0  0  0  0
   -8.8302   18.9013  -32.4464 H   0  0  0  0  0  0  0  0  0  0  0  0
   -7.3926   17.9361  -34.6221 H   0  0  0  0  0  0  0  0  0  0  0  0
   -5.8484   16.0334  -35.1169 H   0  0  0  0  0  0  0  0  0  0  0  0
   -4.5459   14.9765  -33.2605 H   0  0  0  0  0  0  0  0  0  0  0  0
   -4.8063   15.8402  -30.9289 H   0  0  0  0  0  0  0  0  0  0  0  0
   -6.2860   17.6980  -30.5190 H   0  0  0  0  0  0  0  0  0  0  0  0
  1  2  1  0
  2  3  1  0
  3  4  1  0
  4  5  1  0
  5  6  1  0
  6  7  2  0
  7  8  1  0
  8  9  2  0
  9 10  1  0
 10 11  2  0
 10 12  1  0
 12 13  2  0
 13 14  1  0
 14 15  2  0
 15 16  1  0
 16 17  2  0
 17 18  1  0
 18 19  1  0
 19 20  1  0
 20 21  1  0
 21 22  2  0
 22 23  1  0
 23 24  2  0
 24 25  1  0
 25 26  2  0
 11  6  1  0
 17 12  1  0
 26 21  1  0
 18  9  1  0
  1 27  1  0
  1 28  1  0
  2 29  1  0
  2 30  1  0
  3 31  1  0
  3 32  1  0
  4 33  1  0
  5 34  1  0
  5 35  1  0
  7 36  1  0
  8 37  1  0
 11 38  1  0
 13 39  1  0
 14 40  1  0
 15 41  1  0
 16 42  1  0
 19 43  1  0
 19 44  1  0
 20 45  1  0
 20 46  1  0
 22 47  1  0
 23 48  1  0
 24 49  1  0
 25 50  1  0
 26 51  1  0
M  CHG  1  26   1
M  END
>  <UniqueID>  (22) 
20

>  <SMILES>  (22) 
NCCNCc1ccc2c(c1)c1ccccc1n2CCc1cccc[nH+]1

>  <Energy>  (22) 
85.17177144150526

>  <Genealogy>  (22) 
NCCNCc1ccc2c(c1)c1ccccc1n2CCc1cccc[nH+]1 (protonated)
NCCNCc1ccc2c(c1)c1ccccc1n2CCc1cccc[nH+]1 (3D coordinates assigned)
NCCNCc1ccc2c(c1)c1ccccc1n2CCc1cccc[nH+]1 (optimized conformer: 85.17177144150526 kcal/mol)

>  <smiles>  (22) 
NCCNCc1ccc2c(c1)c1ccccc1n2CCc1ccccn1

>  <score_type>  (22) 
oracle

>  <origin>  (22) 
adg

>  <m_score__min__energy>  (22) 
-8.9100000000000001

>  <m_primary>  (22) 
energy

$$$$
22:0
     RDKit          3D

 47 49  0  0  0  0  0  0  0  0999 V2000
   -3.9940   24.5370  -29.4310 C   0  0  0  0  0  0  0  0  0  0  0  0
   -4.2930   24.2180  -30.8360 N   0  0  0  0  0  0  0  0  0  0  0  0
   -5.6710   24.6290  -31.2050 C   0  0  0  0  0  0  0  0  0  0  0  0
   -6.6470   23.4420  -31.2180 C   0  0  0  0  0  0  0  0  0  0  0  0
   -6.2370   22.4020  -32.2000 N   0  0  0  0  0  0  0  0  0  0  0  0
   -6.8090   21.0820  -31.8360 C   0  0  0  0  0  0  0  0  0  0  0  0
   -7.1140   20.2660  -33.0370 N   0  0  0  0  0  0  0  0  0  0  0  0
   -5.8730   19.7780  -33.7010 C   0  0  0  0  0  0  0  0  0  0  0  0
   -6.0680   18.4420  -34.4270 C   0  0  0  0  0  0  0  0  0  0  0  0
   -6.5590   17.4340  -33.4810 N   0  0  0  0  0  0  0  0  0  0  0  0
   -6.1740   16.0490  -33.6030 C   0  0  0  0  0  0  0  0  0  0  0  0
   -7.0260   15.1330  -34.2490 C   0  0  0  0  0  0  0  0  0  0  0  0
   -6.6620   13.7880  -34.3680 C   0  0  0  0  0  0  0  0  0  0  0  0
   -5.4460   13.3430  -33.8480 C   0  0  0  0  0  0  0  0  0  0  0  0
   -4.5870   14.2420  -33.2120 C   0  0  0  0  0  0  0  0  0  0  0  0
   -4.9440   15.5900  -33.0880 C   0  0  0  0  0  0  0  0  0  0  0  0
   -4.0720   16.4450  -32.4990 F   0  0  0  0  0  0  0  0  0  0  0  0
   -7.4500   17.8590  -32.3940 C   0  0  0  0  0  0  0  0  0  0  0  0
   -8.1070   19.2020  -32.7370 C   0  0  0  0  0  0  0  0  0  0  0  0
   -4.7580   22.3080  -32.3610 C   0  0  0  0  0  0  0  0  0  0  0  0
   -4.0070   22.7920  -31.1110 C   0  0  0  0  0  0  0  0  0  0  0  0
   -4.5967   23.8940  -28.7727 H   0  0  0  0  0  0  0  0  0  0  0  0
   -2.9256   24.3635  -29.2350 H   0  0  0  0  0  0  0  0  0  0  0  0
   -4.2362   25.5919  -29.2350 H   0  0  0  0  0  0  0  0  0  0  0  0
   -6.0264   25.3718  -30.4757 H   0  0  0  0  0  0  0  0  0  0  0  0
   -5.6373   25.0496  -32.2209 H   0  0  0  0  0  0  0  0  0  0  0  0
   -6.6752   22.9929  -30.2143 H   0  0  0  0  0  0  0  0  0  0  0  0
   -7.6388   23.8172  -31.5105 H   0  0  0  0  0  0  0  0  0  0  0  0
   -6.6200   22.6750  -33.1350 H   0  0  0  0  0  0  0  0  0  0  0  0
   -6.0843   20.5395  -31.2111 H   0  0  0  0  0  0  0  0  0  0  0  0
   -7.7487   21.2541  -31.2907 H   0  0  0  0  0  0  0  0  0  0  0  0
   -5.5482   20.5312  -34.4340 H   0  0  0  0  0  0  0  0  0  0  0  0
   -5.1201   19.6186  -32.9150 H   0  0  0  0  0  0  0  0  0  0  0  0
   -6.7999   18.5698  -35.2382 H   0  0  0  0  0  0  0  0  0  0  0  0
   -5.1066   18.1110  -34.8467 H   0  0  0  0  0  0  0  0  0  0  0  0
   -7.9850   15.4778  -34.6631 H   0  0  0  0  0  0  0  0  0  0  0  0
   -7.3355   13.0795  -34.8725 H   0  0  0  0  0  0  0  0  0  0  0  0
   -5.1638   12.2837  -33.9390 H   0  0  0  0  0  0  0  0  0  0  0  0
   -3.6268   13.8897  -32.8072 H   0  0  0  0  0  0  0  0  0  0  0  0
   -8.2321   17.0994  -32.2482 H   0  0  0  0  0  0  0  0  0  0  0  0
   -6.8600   17.9748  -31.4729 H   0  0  0  0  0  0  0  0  0  0  0  0
   -8.7516   19.0638  -33.6176 H   0  0  0  0  0  0  0  0  0  0  0  0
   -8.6837   19.5241  -31.8574 H   0  0  0  0  0  0  0  0  0  0  0  0
   -4.4883   21.2589  -32.5524 H   0  0  0  0  0  0  0  0  0  0  0  0
   -4.4676   22.9554  -33.2016 H   0  0  0  0  0  0  0  0  0  0  0  0
   -4.3224   22.1892  -30.2466 H   0  0  0  0  0  0  0  0  0  0  0  0
   -2.9270   22.6801  -31.2872 H   0  0  0  0  0  0  0  0  0  0  0  0
  1  2  1  0
  2  3  1  0
  3  4  1  0
  4  5  1  0
  5  6  1  0
  6  7  1  0
  7  8  1  0
  8  9  1  0
  9 10  1  0
 10 11  1  0
 11 12  2  0
 12 13  1  0
 13 14  2  0
 14 15  1  0
 15 16  2  0
 16 17  1  0
 10 18  1  0
 18 19  1  0
  5 20  1  0
 20 21  1  0
 21  2  1  0
 19  7  1  0
 16 11  1  0
  1 22  1  0
  1 23  1  0
  1 24  1  0
  3 25  1  0
  3 26  1  0
  4 27  1  0
  4 28  1  0
  5 29  1  0
  6 30  1  0
  6 31  1  0
  8 32  1  0
  8 33  1  0
  9 34  1  0
  9 35  1  0
 12 36  1  0
 13 37  1  0
 14 38  1  0
 15 39  1  0
 18 40  1  0
 18 41  1  0
 19 42  1  0
 19 43  1  0
 20 44  1  0
 20 45  1  0
 21 46  1  0
 21 47  1  0
M  CHG  1   5   1
M  END
>  <UniqueID>  (23) 
21

>  <SMILES>  (23) 
CN1CC[NH+](CN2CCN(c3ccccc3F)CC2)CC1

>  <Energy>  (23) 
72.56042798171501

>  <Genealogy>  (23) 
CN1CC[NH+](CN2CCN(c3ccccc3F)CC2)CC1 (protonated)
CN1CC[NH+](CN2CCN(c3ccccc3F)CC2)CC1 (3D coordinates assigned)
CN1CC[NH+](CN2CCN(c3ccccc3F)CC2)CC1 (nonaromatic ring conformer: 72.56042798171501 kcal/mol)

>  <smiles>  (23) 
CN1CCN(CN2CCN(c3ccccc3F)CC2)CC1

>  <score_type>  (23) 
oracle

>  <origin>  (23) 
adg

>  <m_score__min__energy>  (23) 
-6.7300000000000004

>  <m_primary>  (23) 
energy

$$$$
23:0
     RDKit          3D

 54 58  0  0  0  0  0  0  0  0999 V2000
   -2.7150   20.9080  -28.0610 C   0  0  0  0  0  0  0  0  0  0  0  0
   -2.4100   20.3320  -29.3270 O   0  0  0  0  0  0  0  0  0  0  0  0
   -2.8660   20.8320  -30.5570 C   0  0  0  0  0  0  0  0  0  0  0  0
   -2.1770   20.6110  -31.7630 C   0  0  0  0  0  0  0  0  0  0  0  0
   -2.6730   21.1340  -32.9720 C   0  0  0  0  0  0  0  0  0  0  0  0
   -2.0170   20.9440  -34.1990 O   0  0  0  0  0  0  0  0  0  0  0  0
   -0.6090   20.8040  -34.3470 C   0  0  0  0  0  0  0  0  0  0  0  0
   -3.8590   21.8740  -32.9640 C   0  0  0  0  0  0  0  0  0  0  0  0
   -4.5590   22.0990  -31.7690 C   0  0  0  0  0  0  0  0  0  0  0  0
   -5.7900   22.8560  -31.7730 N   0  0  0  0  0  0  0  0  0  0  0  0
   -7.0420   22.2240  -32.2190 C   0  0  0  0  0  0  0  0  0  0  0  0
   -6.7950   20.7970  -32.5980 C   0  0  0  0  0  0  0  0  0  0  0  0
   -6.9340   19.7050  -31.7540 C   0  0  0  0  0  0  0  0  0  0  0  0
   -6.5630   18.6280  -32.4580 N   0  0  0  0  0  0  0  0  0  0  0  0
   -6.5110   17.3220  -32.0910 C   0  0  0  0  0  0  0  0  0  0  0  0
   -6.0720   16.3870  -33.0410 C   0  0  0  0  0  0  0  0  0  0  0  0
   -5.7010   16.8270  -34.3270 C   0  0  0  0  0  0  0  0  0  0  0  0
   -5.7670   18.1910  -34.6600 C   0  0  0  0  0  0  0  0  0  0  0  0
   -6.2120   19.0730  -33.6770 C   0  0  0  0  0  0  0  0  0  0  0  0
   -6.3340   20.4090  -33.8120 N   0  0  0  0  0  0  0  0  0  0  0  0
   -5.7900   24.2620  -31.3390 C   0  0  0  0  0  0  0  0  0  0  0  0
   -4.7780   24.4670  -30.2560 C   0  0  0  0  0  0  0  0  0  0  0  0
   -3.4960   24.8440  -30.5140 N   0  0  0  0  0  0  0  0  0  0  0  0
   -2.9450   24.8420  -29.2920 C   0  0  0  0  0  0  0  0  0  0  0  0
   -1.6300   25.1510  -28.9510 C   0  0  0  0  0  0  0  0  0  0  0  0
   -1.2720   25.0730  -27.5900 C   0  0  0  0  0  0  0  0  0  0  0  0
    0.0710   25.3950  -27.1830 C   0  0  0  0  0  0  0  0  0  0  0  0
    1.1520   25.6540  -26.8570 N   0  0  0  0  0  0  0  0  0  0  0  0
   -2.2330   24.6890  -26.6200 C   0  0  0  0  0  0  0  0  0  0  0  0
   -3.5510   24.3810  -27.0070 C   0  0  0  0  0  0  0  0  0  0  0  0
   -3.8660   24.4720  -28.3600 C   0  0  0  0  0  0  0  0  0  0  0  0
   -5.0450   24.2210  -28.9460 N   0  0  0  0  0  0  0  0  0  0  0  0
   -4.0520   21.5740  -30.5690 C   0  0  0  0  0  0  0  0  0  0  0  0
   -2.3620   20.2414  -27.2603 H   0  0  0  0  0  0  0  0  0  0  0  0
   -2.2155   21.8841  -27.9724 H   0  0  0  0  0  0  0  0  0  0  0  0
   -3.8030   21.0435  -27.9724 H   0  0  0  0  0  0  0  0  0  0  0  0
   -1.2453   20.0262  -31.7614 H   0  0  0  0  0  0  0  0  0  0  0  0
   -0.1388   20.7572  -33.3537 H   0  0  0  0  0  0  0  0  0  0  0  0
   -0.3887   19.8795  -34.9009 H   0  0  0  0  0  0  0  0  0  0  0  0
   -0.2109   21.6670  -34.9009 H   0  0  0  0  0  0  0  0  0  0  0  0
   -4.2485   22.2853  -33.9069 H   0  0  0  0  0  0  0  0  0  0  0  0
   -7.7784   22.2608  -31.4027 H   0  0  0  0  0  0  0  0  0  0  0  0
   -7.4253   22.7668  -33.0956 H   0  0  0  0  0  0  0  0  0  0  0  0
   -7.2812   19.7207  -30.7103 H   0  0  0  0  0  0  0  0  0  0  0  0
   -6.8043   17.0060  -31.0790 H   0  0  0  0  0  0  0  0  0  0  0  0
   -6.0180   15.3189  -32.7836 H   0  0  0  0  0  0  0  0  0  0  0  0
   -5.3573   16.0980  -35.0756 H   0  0  0  0  0  0  0  0  0  0  0  0
   -5.4782   18.5489  -35.6592 H   0  0  0  0  0  0  0  0  0  0  0  0
   -5.5422   24.9068  -32.1950 H   0  0  0  0  0  0  0  0  0  0  0  0
   -6.7873   24.5190  -30.9525 H   0  0  0  0  0  0  0  0  0  0  0  0
   -0.8972   25.4454  -29.7167 H   0  0  0  0  0  0  0  0  0  0  0  0
   -1.9468   24.6315  -25.5594 H   0  0  0  0  0  0  0  0  0  0  0  0
   -4.3058   24.0789  -26.2660 H   0  0  0  0  0  0  0  0  0  0  0  0
   -4.5937   21.7483  -29.6276 H   0  0  0  0  0  0  0  0  0  0  0  0
  1  2  1  0
  2  3  1  0
  3  4  2  0
  4  5  1  0
  5  6  1  0
  6  7  1  0
  5  8  2  0
  8  9  1  0
  9 10  1  0
 10 11  1  0
 11 12  1  0
 12 13  2  0
 13 14  1  0
 14 15  1  0
 15 16  2  0
 16 17  1  0
 17 18  2  0
 18 19  1  0
 19 20  2  0
 10 21  1  0
 21 22  1  0
 22 23  2  0
 23 24  1  0
 24 25  2  0
 25 26  1  0
 26 27  1  0
 27 28  3  0
 26 29  2  0
 29 30  1  0
 30 31  2  0
 31 32  1  0
  9 33  2  0
 33  3  1  0
 20 12  1  0
 32 22  1  0
 19 14  1  0
 31 24  1  0
  1 34  1  0
  1 35  1  0
  1 36  1  0
  4 37  1  0
  7 38  1  0
  7 39  1  0
  7 40  1  0
  8 41  1  0
 11 42  1  0
 11 43  1  0
 13 44  1  0
 15 45  1  0
 16 46  1  0
 17 47  1  0
 18 48  1  0
 21 49  1  0
 21 50  1  0
 25 51  1  0
 29 52  1  0
 30 53  1  0
 33 54  1  0
M  CHG  1  32  -1
M  END
>  <UniqueID>  (24) 
22

>  <SMILES>  (24) 
COc1cc(OC)cc(N(Cc2cn3ccccc3n2)Cc2nc3cc(C#N)ccc3[n-]2)c1

>  <Energy>  (24) 
127.17541354806637

>  <Genealogy>  (24) 
COc1cc(OC)cc(N(Cc2cn3ccccc3n2)Cc2nc3cc(C#N)ccc3[n-]2)c1 (protonated)
COc1cc(OC)cc(N(Cc2cn3ccccc3n2)Cc2nc3cc(C#N)ccc3[n-]2)c1 (3D coordinates assigned)
COc1cc(OC)cc(N(Cc2cn3ccccc3n2)Cc2nc3cc(C#N)ccc3[n-]2)c1 (optimized conformer: 127.17541354806637 kcal/mol)

>  <smiles>  (24) 
COc1cc(OC)cc(N(Cc2cn3ccccc3n2)Cc2nc3cc(C#N)ccc3[nH]2)c1

>  <score_type>  (24) 
oracle

>  <origin>  (24) 
adg

>  <m_score__min__energy>  (24) 
-9.2400000000000002

>  <m_primary>  (24) 
energy

$$$$
24:0
     RDKit          3D

 49 51  0  0  0  0  0  0  0  0999 V2000
   -5.9390   17.4560  -33.8580 C   0  0  0  0  0  0  0  0  0  0  0  0
   -5.3270   18.1270  -32.6310 C   0  0  0  0  0  0  0  0  0  0  0  0
   -4.7900   19.4520  -32.9680 N   0  0  0  0  0  0  0  0  0  0  0  0
   -5.4050   20.6670  -32.9640 C   0  0  0  0  0  0  0  0  0  0  0  0
   -6.7840   20.9340  -32.4810 C   0  0  0  0  0  0  0  0  0  0  0  0
   -7.8170   20.0340  -32.7910 C   0  0  0  0  0  0  0  0  0  0  0  0
   -9.1200   20.2530  -32.3410 C   0  0  0  0  0  0  0  0  0  0  0  0
   -9.4050   21.3690  -31.5560 C   0  0  0  0  0  0  0  0  0  0  0  0
   -8.3890   22.2650  -31.2110 C   0  0  0  0  0  0  0  0  0  0  0  0
   -7.0790   22.0530  -31.6660 C   0  0  0  0  0  0  0  0  0  0  0  0
   -5.8530   23.2230  -31.2050 Cl  0  0  0  0  0  0  0  0  0  0  0  0
   -4.5980   21.6320  -33.4610 N   0  0  0  0  0  0  0  0  0  0  0  0
   -3.4610   21.0370  -33.7790 N   0  0  0  0  0  0  0  0  0  0  0  0
   -3.5780   19.7250  -33.4930 C   0  0  0  0  0  0  0  0  0  0  0  0
   -2.3120   18.5090  -33.8640 S   0  0  0  0  0  0  0  0  0  0  0  0
   -0.9460   19.7220  -33.9650 C   0  0  0  0  0  0  0  0  0  0  0  0
   -0.0870   19.6360  -32.7370 C   0  0  0  0  0  0  0  0  0  0  0  0
    1.0990   19.2150  -32.8280 O   0  0  0  0  0  0  0  0  0  0  0  0
   -0.6110   20.0510  -31.4170 C   0  0  0  0  0  0  0  0  0  0  0  0
   -0.3830   19.2850  -30.2550 C   0  0  0  0  0  0  0  0  0  0  0  0
    0.3580   18.0520  -30.3460 N   0  0  0  0  0  0  0  0  0  0  0  0
   -0.8790   19.7210  -29.0470 N   0  0  0  0  0  0  0  0  0  0  0  0
   -0.6880   18.9030  -27.8320 C   0  0  0  0  0  0  0  0  0  0  0  0
   -1.5240   20.9330  -28.9640 C   0  0  0  0  0  0  0  0  0  0  0  0
   -1.9140   21.3620  -27.8410 O   0  0  0  0  0  0  0  0  0  0  0  0
   -1.7510   21.6900  -30.0850 N   0  0  0  0  0  0  0  0  0  0  0  0
   -2.4420   22.9840  -29.9460 C   0  0  0  0  0  0  0  0  0  0  0  0
   -1.3300   21.2470  -31.3070 C   0  0  0  0  0  0  0  0  0  0  0  0
   -1.5710   21.9200  -32.3510 O   0  0  0  0  0  0  0  0  0  0  0  0
   -6.6477   16.6789  -33.5357 H   0  0  0  0  0  0  0  0  0  0  0  0
   -6.4687   18.2080  -34.4612 H   0  0  0  0  0  0  0  0  0  0  0  0
   -5.1415   16.9975  -34.4612 H   0  0  0  0  0  0  0  0  0  0  0  0
   -6.1018   18.2389  -31.8583 H   0  0  0  0  0  0  0  0  0  0  0  0
   -4.5029   17.4984  -32.2625 H   0  0  0  0  0  0  0  0  0  0  0  0
   -7.5958   19.1433  -33.3974 H   0  0  0  0  0  0  0  0  0  0  0  0
   -9.9204   19.5463  -32.6053 H   0  0  0  0  0  0  0  0  0  0  0  0
  -10.4331   21.5453  -31.2067 H   0  0  0  0  0  0  0  0  0  0  0  0
   -8.6171   23.1378  -30.5816 H   0  0  0  0  0  0  0  0  0  0  0  0
   -2.6400   21.5150  -34.2160 H   0  0  0  0  0  0  0  0  0  0  0  0
   -0.3335   19.5069  -34.8531 H   0  0  0  0  0  0  0  0  0  0  0  0
   -1.3689   20.7348  -34.0379 H   0  0  0  0  0  0  0  0  0  0  0  0
    0.3900   17.3580  -29.5700 H   0  0  0  0  0  0  0  0  0  0  0  0
    0.9630   17.8340  -31.1620 H   0  0  0  0  0  0  0  0  0  0  0  0
   -0.8346   19.5307  -26.9406 H   0  0  0  0  0  0  0  0  0  0  0  0
   -1.4182   18.0804  -27.8253 H   0  0  0  0  0  0  0  0  0  0  0  0
    0.3310   18.4888  -27.8253 H   0  0  0  0  0  0  0  0  0  0  0  0
   -2.5679   23.2197  -28.8789 H   0  0  0  0  0  0  0  0  0  0  0  0
   -1.8447   23.7722  -30.4276 H   0  0  0  0  0  0  0  0  0  0  0  0
   -3.4293   22.9261  -30.4276 H   0  0  0  0  0  0  0  0  0  0  0  0
  1  2  1  0
  2  3  1  0
  3  4  1  0
  4  5  1  0
  5  6  2  0
  6  7  1  0
  7  8  2  0
  8  9  1  0
  9 10  2  0
 10 11  1  0
  4 12  2  0
 12 13  1  0
 13 14  2  0
 14 15  1  0
 15 16  1  0
 16 17  1  0
 17 18  2  0
 17 19  1  0
 19 20  2  0
 20 21  1  0
 20 22  1  0
 22 23  1  0
 22 24  1  0
 24 25  2  0
 24 26  1  0
 26 27  1  0
 26 28  1  0
 28 29  2  0
 14  3  1  0
 28 19  1  0
 10  5  1  0
  1 30  1  0
  1 31  1  0
  1 32  1  0
  2 33  1  0
  2 34  1  0
  6 35  1  0
  7 36  1  0
  8 37  1  0
  9 38  1  0
 13 39  1  0
 16 40  1  0
 16 41  1  0
 21 42  1  0
 21 43  1  0
 23 44  1  0
 23 45  1  0
 23 46  1  0
 27 47  1  0
 27 48  1  0
 27 49  1  0
M  CHG  1  13   1
M  END
>  <UniqueID>  (25) 
23

>  <SMILES>  (25) 
CCn1c(-c2ccccc2Cl)n[nH+]c1SCC(=O)c1c(N)n(C)c(=O)n(C)c1=O

>  <Energy>  (25) 
105.54472882847875

>  <Genealogy>  (25) 
CCn1c(-c2ccccc2Cl)n[nH+]c1SCC(=O)c1c(N)n(C)c(=O)n(C)c1=O (protonated)
CCn1c(-c2ccccc2Cl)n[nH+]c1SCC(=O)c1c(N)n(C)c(=O)n(C)c1=O (3D coordinates assigned)
CCn1c(-c2ccccc2Cl)n[nH+]c1SCC(=O)c1c(N)n(C)c(=O)n(C)c1=O (optimized conformer: 105.54472882847875 kcal/mol)

>  <smiles>  (25) 
CCn1c(SCC(=O)c2c(N)n(C)c(=O)n(C)c2=O)nnc1-c1ccccc1Cl

>  <score_type>  (25) 
oracle

>  <origin>  (25) 
adg

>  <m_score__min__energy>  (25) 
-8.9399999999999995

>  <m_primary>  (25) 
energy

$$$$
25:0
     RDKit          3D

 35 37  0  0  0  0  0  0  0  0999 V2000
   -6.8910   24.0970  -30.3010 C   0  0  0  0  0  0  0  0  0  0  0  0
   -6.9090   22.8160  -31.0870 C   0  0  0  0  0  0  0  0  0  0  0  0
   -8.1230   22.1410  -31.2790 C   0  0  0  0  0  0  0  0  0  0  0  0
   -8.1690   20.9760  -32.0440 C   0  0  0  0  0  0  0  0  0  0  0  0
   -7.0040   20.4650  -32.6150 C   0  0  0  0  0  0  0  0  0  0  0  0
   -5.7740   21.1210  -32.4390 C   0  0  0  0  0  0  0  0  0  0  0  0
   -4.5470   20.5020  -32.9880 C   0  0  0  0  0  0  0  0  0  0  0  0
   -4.3940   19.1760  -33.3810 C   0  0  0  0  0  0  0  0  0  0  0  0
   -3.1220   18.8850  -33.8890 C   0  0  0  0  0  0  0  0  0  0  0  0
   -2.2660   19.9850  -33.9110 C   0  0  0  0  0  0  0  0  0  0  0  0
   -0.8690   20.0010  -34.3930 C   0  0  0  0  0  0  0  0  0  0  0  0
   -0.1420   18.8330  -34.6850 C   0  0  0  0  0  0  0  0  0  0  0  0
    1.1510   19.0740  -35.1240 C   0  0  0  0  0  0  0  0  0  0  0  0
    1.3910   20.7350  -35.1500 S   0  0  0  0  0  0  0  0  0  0  0  0
   -0.1380   21.1680  -34.6060 C   0  0  0  0  0  0  0  0  0  0  0  0
   -3.1030   21.3120  -33.2980 S   0  0  0  0  0  0  0  0  0  0  0  0
   -5.7370   22.3340  -31.7070 C   0  0  0  0  0  0  0  0  0  0  0  0
   -4.5540   23.0770  -31.5940 O   0  0  0  0  0  0  0  0  0  0  0  0
   -3.8620   23.2370  -30.3570 C   0  0  0  0  0  0  0  0  0  0  0  0
   -3.4850   24.6690  -30.1560 C   0  0  0  0  0  0  0  0  0  0  0  0
   -2.5730   24.9760  -29.3450 O   0  0  0  0  0  0  0  0  0  0  0  0
   -4.1810   25.6700  -30.8210 O   0  0  0  0  0  0  0  0  0  0  0  0
   -6.8942   23.8672  -29.2253 H   0  0  0  0  0  0  0  0  0  0  0  0
   -5.9847   24.6680  -30.5512 H   0  0  0  0  0  0  0  0  0  0  0  0
   -7.7809   24.6933  -30.5512 H   0  0  0  0  0  0  0  0  0  0  0  0
   -9.0444   22.5328  -30.8235 H   0  0  0  0  0  0  0  0  0  0  0  0
   -9.1274   20.4584  -32.1975 H   0  0  0  0  0  0  0  0  0  0  0  0
   -7.0483   19.5400  -33.2086 H   0  0  0  0  0  0  0  0  0  0  0  0
   -5.1960   18.4275  -33.3003 H   0  0  0  0  0  0  0  0  0  0  0  0
   -2.8265   17.8843  -34.2373 H   0  0  0  0  0  0  0  0  0  0  0  0
   -0.5605   17.8217  -34.5753 H   0  0  0  0  0  0  0  0  0  0  0  0
    1.8904   18.3100  -35.4060 H   0  0  0  0  0  0  0  0  0  0  0  0
   -0.4995   22.1945  -34.4457 H   0  0  0  0  0  0  0  0  0  0  0  0
   -4.5139   22.9140  -29.5319 H   0  0  0  0  0  0  0  0  0  0  0  0
   -2.9480   22.6253  -30.3762 H   0  0  0  0  0  0  0  0  0  0  0  0
  1  2  1  0
  2  3  2  0
  3  4  1  0
  4  5  2  0
  5  6  1  0
  6  7  1  0
  7  8  2  0
  8  9  1  0
  9 10  2  0
 10 11  1  0
 11 12  1  0
 12 13  2  0
 13 14  1  0
 14 15  1  0
 10 16  1  0
  6 17  2  0
 17 18  1  0
 18 19  1  0
 19 20  1  0
 20 21  2  0
 20 22  1  0
 17  2  1  0
 16  7  1  0
 15 11  2  0
  1 23  1  0
  1 24  1  0
  1 25  1  0
  3 26  1  0
  4 27  1  0
  5 28  1  0
  8 29  1  0
  9 30  1  0
 12 31  1  0
 13 32  1  0
 15 33  1  0
 19 34  1  0
 19 35  1  0
M  CHG  1  22  -1
M  END
>  <UniqueID>  (26) 
24

>  <SMILES>  (26) 
Cc1cccc(-c2ccc(-c3ccsc3)s2)c1OCC(=O)[O-]

>  <Energy>  (26) 
98.0112733683921

>  <Genealogy>  (26) 
Cc1cccc(-c2ccc(-c3ccsc3)s2)c1OCC(=O)[O-] (protonated)
Cc1cccc(-c2ccc(-c3ccsc3)s2)c1OCC(=O)[O-] (3D coordinates assigned)
Cc1cccc(-c2ccc(-c3ccsc3)s2)c1OCC(=O)[O-] (optimized conformer: 98.0112733683921 kcal/mol)

>  <smiles>  (26) 
Cc1cccc(-c2ccc(-c3ccsc3)s2)c1OCC(=O)O

>  <score_type>  (26) 
oracle

>  <origin>  (26) 
adg

>  <m_score__min__energy>  (26) 
-10.210000000000001

>  <m_primary>  (26) 
energy

$$$$
26:0
     RDKit          3D

 48 50  0  0  0  0  0  0  0  0999 V2000
   -8.5430   22.3950  -31.7440 C   0  0  0  0  0  0  0  0  0  0  0  0
   -7.2290   23.0290  -31.3980 C   0  0  0  0  0  0  0  0  0  0  0  0
   -6.0300   22.5010  -31.8990 C   0  0  0  0  0  0  0  0  0  0  0  0
   -4.8090   23.1140  -31.6000 C   0  0  0  0  0  0  0  0  0  0  0  0
   -4.7750   24.2810  -30.8150 C   0  0  0  0  0  0  0  0  0  0  0  0
   -3.5430   24.9290  -30.4660 N   0  0  0  0  0  0  0  0  0  0  0  0
   -2.8490   24.8220  -29.2170 C   0  0  0  0  0  0  0  0  0  0  0  0
   -3.2900   24.0760  -28.3010 O   0  0  0  0  0  0  0  0  0  0  0  0
   -1.6180   25.5340  -29.0390 N   0  0  0  0  0  0  0  0  0  0  0  0
   -0.8720   25.5100  -27.7730 C   0  0  1  0  0  0  0  0  0  0  0  0
   -1.8190   25.2280  -26.5810 C   0  0  0  0  0  0  0  0  0  0  0  0
   -1.0950   24.4780  -25.4660 C   0  0  0  0  0  0  0  0  0  0  0  0
   -0.5660   23.1210  -25.9720 C   0  0  0  0  0  0  0  0  0  0  0  0
   -0.0850   23.1430  -27.3790 N   0  0  0  0  0  0  0  0  0  0  0  0
   -0.9960   22.4560  -28.3190 C   0  0  0  0  0  0  0  0  0  0  0  0
   -1.3890   21.1100  -27.7670 C   0  0  0  0  0  0  0  0  0  0  0  0
   -0.4300   20.0920  -27.6260 C   0  0  0  0  0  0  0  0  0  0  0  0
   -0.8000   18.8390  -27.1260 C   0  0  0  0  0  0  0  0  0  0  0  0
   -2.1270   18.5930  -26.7660 C   0  0  0  0  0  0  0  0  0  0  0  0
   -3.0870   19.5980  -26.9040 C   0  0  0  0  0  0  0  0  0  0  0  0
   -2.7240   20.8530  -27.4050 C   0  0  0  0  0  0  0  0  0  0  0  0
   -3.6710   21.8170  -27.5360 F   0  0  0  0  0  0  0  0  0  0  0  0
    0.2970   24.4920  -27.8470 C   0  0  0  0  0  0  0  0  0  0  0  0
   -5.9740   24.8000  -30.3100 C   0  0  0  0  0  0  0  0  0  0  0  0
   -7.1940   24.1870  -30.6080 C   0  0  0  0  0  0  0  0  0  0  0  0
   -9.0799   22.1360  -30.8195 H   0  0  0  0  0  0  0  0  0  0  0  0
   -9.1469   23.1009  -32.3332 H   0  0  0  0  0  0  0  0  0  0  0  0
   -8.3663   21.4831  -32.3332 H   0  0  0  0  0  0  0  0  0  0  0  0
   -6.0501   21.6003  -32.5302 H   0  0  0  0  0  0  0  0  0  0  0  0
   -3.8715   22.6820  -31.9801 H   0  0  0  0  0  0  0  0  0  0  0  0
   -1.2500   26.0700  -29.8560 H   0  0  0  0  0  0  0  0  0  0  0  0
   -0.4298   26.5030  -27.6048 H   0  0  0  0  0  0  0  0  0  0  0  0
   -2.1932   26.1841  -26.1861 H   0  0  0  0  0  0  0  0  0  0  0  0
   -2.6512   24.6032  -26.9376 H   0  0  0  0  0  0  0  0  0  0  0  0
   -0.2489   25.0858  -25.1130 H   0  0  0  0  0  0  0  0  0  0  0  0
   -1.8046   24.2958  -24.6455 H   0  0  0  0  0  0  0  0  0  0  0  0
    0.2696   22.8134  -25.3261 H   0  0  0  0  0  0  0  0  0  0  0  0
   -1.4114   22.4181  -25.9369 H   0  0  0  0  0  0  0  0  0  0  0  0
   -1.8987   23.0677  -28.4638 H   0  0  0  0  0  0  0  0  0  0  0  0
   -0.4819   22.3149  -29.2812 H   0  0  0  0  0  0  0  0  0  0  0  0
    0.6157   20.2814  -27.9100 H   0  0  0  0  0  0  0  0  0  0  0  0
   -0.0450   18.0465  -27.0162 H   0  0  0  0  0  0  0  0  0  0  0  0
   -2.4162   17.6069  -26.3735 H   0  0  0  0  0  0  0  0  0  0  0  0
   -4.1310   19.4024  -26.6181 H   0  0  0  0  0  0  0  0  0  0  0  0
    1.1231   24.8600  -27.2208 H   0  0  0  0  0  0  0  0  0  0  0  0
    0.5919   24.4040  -28.9031 H   0  0  0  0  0  0  0  0  0  0  0  0
   -5.9552   25.6972  -29.6738 H   0  0  0  0  0  0  0  0  0  0  0  0
   -8.1307   24.6147  -30.2212 H   0  0  0  0  0  0  0  0  0  0  0  0
  1  2  1  0
  2  3  2  0
  3  4  1  0
  4  5  2  0
  5  6  1  0
  6  7  1  0
  7  8  2  0
  7  9  1  0
  9 10  1  0
 10 11  1  0
 11 12  1  0
 12 13  1  0
 13 14  1  0
 14 15  1  0
 15 16  1  0
 16 17  2  0
 17 18  1  0
 18 19  2  0
 19 20  1  0
 20 21  2  0
 21 22  1  0
 14 23  1  0
  5 24  1  0
 24 25  2  0
 25  2  1  0
 23 10  1  0
 21 16  1  0
  1 26  1  0
  1 27  1  0
  1 28  1  0
  3 29  1  0
  4 30  1  0
  9 31  1  0
 10 32  1  1
 11 33  1  0
 11 34  1  0
 12 35  1  0
 12 36  1  0
 13 37  1  0
 13 38  1  0
 15 39  1  0
 15 40  1  0
 17 41  1  0
 18 42  1  0
 19 43  1  0
 20 44  1  0
 23 45  1  0
 23 46  1  0
 24 47  1  0
 25 48  1  0
M  CHG  1   6  -1
M  END
>  <UniqueID>  (27) 
25

>  <SMILES>  (27) 
Cc1ccc([N-]C(=O)N[C@H]2CCCN(Cc3ccccc3F)C2)cc1

>  <Energy>  (27) 
59.5080356921124

>  <Genealogy>  (27) 
Cc1ccc([N-]C(=O)NC2CCCN(Cc3ccccc3F)C2)cc1 (protonated)
Cc1ccc([N-]C(=O)N[C@H]2CCCN(Cc3ccccc3F)C2)cc1 (chirality)
Cc1ccc([N-]C(=O)N[C@H]2CCCN(Cc3ccccc3F)C2)cc1 (3D coordinates assigned)
Cc1ccc([N-]C(=O)N[C@H]2CCCN(Cc3ccccc3F)C2)cc1 (nonaromatic ring conformer: 59.5080356921124 kcal/mol)

>  <smiles>  (27) 
Cc1ccc(NC(=O)NC2CCCN(Cc3ccccc3F)C2)cc1

>  <score_type>  (27) 
oracle

>  <origin>  (27) 
adg

>  <m_score__min__energy>  (27) 
-10.33

>  <m_primary>  (27) 
energy

$$$$
27:0
     RDKit          3D

 42 45  0  0  0  0  0  0  0  0999 V2000
   -1.9460   19.2400  -33.8710 C   0  0  0  0  0  0  0  0  0  0  0  0
   -2.5900   17.9080  -34.2680 C   0  0  0  0  0  0  0  0  0  0  0  0
   -4.0170   17.7150  -33.7200 C   0  0  1  0  0  0  0  0  0  0  0  0
   -4.8780   18.9830  -33.8770 C   0  0  0  0  0  0  0  0  0  0  0  0
   -6.2440   18.7100  -33.4180 N   0  0  0  0  0  0  0  0  0  0  0  0
   -7.0380   19.7810  -32.8660 C   0  0  0  0  0  0  0  0  0  0  0  0
   -6.4220   20.8410  -32.2830 N   0  0  0  0  0  0  0  0  0  0  0  0
   -7.1390   21.8620  -31.7480 C   0  0  0  0  0  0  0  0  0  0  0  0
   -6.4800   22.9890  -31.1400 N   0  0  0  0  0  0  0  0  0  0  0  0
   -7.0790   24.1730  -30.8440 C   0  0  0  0  0  0  0  0  0  0  0  0
   -6.1760   25.0660  -30.2780 C   0  0  0  0  0  0  0  0  0  0  0  0
   -4.9900   24.3770  -30.2350 C   0  0  0  0  0  0  0  0  0  0  0  0
   -3.7900   24.7930  -29.7620 N   0  0  0  0  0  0  0  0  0  0  0  0
   -2.7280   23.9360  -29.8010 C   0  0  0  0  0  0  0  0  0  0  0  0
   -2.8790   22.6320  -30.3190 C   0  0  0  0  0  0  0  0  0  0  0  0
   -1.8210   21.7850  -30.3470 F   0  0  0  0  0  0  0  0  0  0  0  0
   -4.1300   22.2110  -30.8050 C   0  0  0  0  0  0  0  0  0  0  0  0
   -5.1890   23.1270  -30.7550 C   0  0  0  0  0  0  0  0  0  0  0  0
   -8.4950   21.8190  -31.8070 N   0  0  0  0  0  0  0  0  0  0  0  0
   -9.1250   20.7690  -32.3900 C   0  0  0  0  0  0  0  0  0  0  0  0
   -8.4010   19.7500  -32.9200 N   0  0  0  0  0  0  0  0  0  0  0  0
   -6.8620   17.4440  -33.8290 C   0  0  0  0  0  0  0  0  0  0  0  0
   -5.8510   16.2980  -33.7070 C   0  0  0  0  0  0  0  0  0  0  0  0
   -4.6380   16.6150  -34.3610 O   0  0  0  0  0  0  0  0  0  0  0  0
   -1.9088   19.3168  -32.7743 H   0  0  0  0  0  0  0  0  0  0  0  0
   -0.9248   19.2889  -34.2768 H   0  0  0  0  0  0  0  0  0  0  0  0
   -2.5419   20.0708  -34.2768 H   0  0  0  0  0  0  0  0  0  0  0  0
   -2.6311   17.8572  -35.3661 H   0  0  0  0  0  0  0  0  0  0  0  0
   -1.9702   17.1115  -33.8305 H   0  0  0  0  0  0  0  0  0  0  0  0
   -3.9329   17.5117  -32.6422 H   0  0  0  0  0  0  0  0  0  0  0  0
   -4.4453   19.7961  -33.2756 H   0  0  0  0  0  0  0  0  0  0  0  0
   -4.9009   19.2803  -34.9358 H   0  0  0  0  0  0  0  0  0  0  0  0
   -8.1403   24.3956  -31.0284 H   0  0  0  0  0  0  0  0  0  0  0  0
   -6.3691   26.0949  -29.9402 H   0  0  0  0  0  0  0  0  0  0  0  0
   -1.7474   24.2643  -29.4259 H   0  0  0  0  0  0  0  0  0  0  0  0
   -4.2719   21.1982  -31.2101 H   0  0  0  0  0  0  0  0  0  0  0  0
  -10.2238   20.7429  -32.4335 H   0  0  0  0  0  0  0  0  0  0  0  0
   -8.9090   18.9670  -33.3870 H   0  0  0  0  0  0  0  0  0  0  0  0
   -7.7275   17.2354  -33.1830 H   0  0  0  0  0  0  0  0  0  0  0  0
   -7.1870   17.5263  -34.8767 H   0  0  0  0  0  0  0  0  0  0  0  0
   -5.6466   16.1115  -32.6424 H   0  0  0  0  0  0  0  0  0  0  0  0
   -6.2795   15.4031  -34.1820 H   0  0  0  0  0  0  0  0  0  0  0  0
  1  2  1  0
  2  3  1  0
  3  4  1  0
  4  5  1  0
  5  6  1  0
  6  7  2  0
  7  8  1  0
  8  9  1  0
  9 10  1  0
 10 11  2  0
 11 12  1  0
 12 13  2  0
 13 14  1  0
 14 15  2  0
 15 16  1  0
 15 17  1  0
 17 18  2  0
  8 19  2  0
 19 20  1  0
 20 21  2  0
  5 22  1  0
 22 23  1  0
 23 24  1  0
 24  3  1  0
 21  6  1  0
 18  9  1  0
 18 12  1  0
  1 25  1  0
  1 26  1  0
  1 27  1  0
  2 28  1  0
  2 29  1  0
  3 30  1  1
  4 31  1  0
  4 32  1  0
 10 33  1  0
 11 34  1  0
 14 35  1  0
 17 36  1  0
 20 37  1  0
 21 38  1  0
 22 39  1  0
 22 40  1  0
 23 41  1  0
 23 42  1  0
M  CHG  1  21   1
M  END
>  <UniqueID>  (28) 
26

>  <SMILES>  (28) 
CC[C@H]1CN(c2nc(-n3ccc4ncc(F)cc43)nc[nH+]2)CCO1

>  <Energy>  (28) 
85.16336917148666

>  <Genealogy>  (28) 
CCC1CN(c2nc(-n3ccc4ncc(F)cc43)nc[nH+]2)CCO1 (protonated)
CC[C@H]1CN(c2nc(-n3ccc4ncc(F)cc43)nc[nH+]2)CCO1 (chirality)
CC[C@H]1CN(c2nc(-n3ccc4ncc(F)cc43)nc[nH+]2)CCO1 (3D coordinates assigned)
CC[C@H]1CN(c2nc(-n3ccc4ncc(F)cc43)nc[nH+]2)CCO1 (nonaromatic ring conformer: 85.16336917148666 kcal/mol)

>  <smiles>  (28) 
CCC1CN(c2ncnc(-n3ccc4ncc(F)cc43)n2)CCO1

>  <score_type>  (28) 
oracle

>  <origin>  (28) 
adg

>  <m_score__min__energy>  (28) 
-7.1799999999999997

>  <m_primary>  (28) 
energy

$$$$
28:0
     RDKit          3D

 43 47  0  0  0  0  0  0  0  0999 V2000
   -1.3899   26.1726  -25.3130 H   0  0  0  0  0  0  0  0  0  0  0  0
   -1.8940   25.6690  -26.1510 C   0  0  0  0  0  0  0  0  0  0  0  0
   -3.1970   25.1890  -25.9950 C   0  0  0  0  0  0  0  0  0  0  0  0
   -3.7158   25.3098  -25.0326 H   0  0  0  0  0  0  0  0  0  0  0  0
   -3.8420   24.5550  -27.0620 C   0  0  0  0  0  0  0  0  0  0  0  0
   -4.8641   24.1696  -26.9326 H   0  0  0  0  0  0  0  0  0  0  0  0
   -3.1910   24.4080  -28.2980 C   0  0  0  0  0  0  0  0  0  0  0  0
   -3.8780   23.7280  -29.4180 C   0  0  0  0  0  0  0  0  0  0  0  0
   -4.9930   24.4950  -30.4290 S   0  0  0  0  0  0  0  0  0  0  0  0
   -5.3070   23.0620  -31.2430 C   0  0  0  0  0  0  0  0  0  0  0  0
   -6.1760   22.9580  -32.2040 N   0  0  0  0  0  0  0  0  0  0  0  0
   -7.3530   22.1890  -32.1320 N   0  0  0  0  0  0  0  0  0  0  0  0
   -8.5580   22.5670  -31.6400 C   0  0  0  0  0  0  0  0  0  0  0  0
   -8.8119   23.6060  -31.3830 H   0  0  0  0  0  0  0  0  0  0  0  0
   -9.4200   21.5240  -31.4980 N   0  0  0  0  0  0  0  0  0  0  0  0
   -8.6880   20.4670  -31.8990 C   0  0  0  0  0  0  0  0  0  0  0  0
   -9.0680   19.1270  -31.9250 C   0  0  0  0  0  0  0  0  0  0  0  0
  -10.0825   18.8181  -31.6327 H   0  0  0  0  0  0  0  0  0  0  0  0
   -8.1100   18.1810  -32.3380 C   0  0  0  0  0  0  0  0  0  0  0  0
   -8.3768   17.1145  -32.3761 H   0  0  0  0  0  0  0  0  0  0  0  0
   -6.8080   18.5920  -32.7040 C   0  0  0  0  0  0  0  0  0  0  0  0
   -6.0676   17.8432  -33.0220 H   0  0  0  0  0  0  0  0  0  0  0  0
   -6.4530   19.9540  -32.6640 C   0  0  0  0  0  0  0  0  0  0  0  0
   -5.4429   20.2899  -32.9414 H   0  0  0  0  0  0  0  0  0  0  0  0
   -7.4320   20.8600  -32.2590 C   0  0  0  0  0  0  0  0  0  0  0  0
   -4.5850   22.0360  -30.7320 N   0  0  0  0  0  0  0  0  0  0  0  0
   -4.6460   21.0480  -31.0620 H   0  0  0  0  0  0  0  0  0  0  0  0
   -3.7810   22.4030  -29.7300 N   0  0  0  0  0  0  0  0  0  0  0  0
   -2.8760   21.4680  -29.1160 C   0  0  0  0  0  0  0  0  0  0  0  0
   -1.7630   20.9800  -29.8220 C   0  0  0  0  0  0  0  0  0  0  0  0
   -1.5755   21.3192  -30.8515 H   0  0  0  0  0  0  0  0  0  0  0  0
   -0.8930   20.0650  -29.2210 C   0  0  0  0  0  0  0  0  0  0  0  0
   -0.0193   19.6920  -29.7756 H   0  0  0  0  0  0  0  0  0  0  0  0
   -1.1320   19.6240  -27.9170 C   0  0  0  0  0  0  0  0  0  0  0  0
   -0.4446   18.9071  -27.4442 H   0  0  0  0  0  0  0  0  0  0  0  0
   -2.2450   20.0940  -27.2130 C   0  0  0  0  0  0  0  0  0  0  0  0
   -2.4351   19.7431  -26.1879 H   0  0  0  0  0  0  0  0  0  0  0  0
   -3.1170   21.0100  -27.8110 C   0  0  0  0  0  0  0  0  0  0  0  0
   -3.9950   21.3728  -27.2565 H   0  0  0  0  0  0  0  0  0  0  0  0
   -1.8730   24.8770  -28.4390 C   0  0  0  0  0  0  0  0  0  0  0  0
   -1.3444   24.7454  -29.3946 H   0  0  0  0  0  0  0  0  0  0  0  0
   -1.2310   25.5100  -27.3700 C   0  0  0  0  0  0  0  0  0  0  0  0
   -0.2031   25.8830  -27.4893 H   0  0  0  0  0  0  0  0  0  0  0  0
  1  2  1  0
  2  3  2  0
  3  4  1  0
  3  5  1  0
  5  6  1  0
  5  7  2  0
  7  8  1  0
  8  9  1  0
  9 10  1  0
 10 11  2  0
 11 12  1  0
 12 13  1  0
 13 14  1  0
 13 15  2  0
 15 16  1  0
 16 17  2  0
 17 18  1  0
 17 19  1  0
 19 20  1  0
 19 21  2  0
 21 22  1  0
 21 23  1  0
 23 24  1  0
 23 25  2  0
 10 26  1  0
 26 27  1  0
 26 28  1  0
 28 29  1  0
 29 30  2  0
 30 31  1  0
 30 32  1  0
 32 33  1  0
 32 34  2  0
 34 35  1  0
 34 36  1  0
 36 37  1  0
 36 38  2  0
 38 39  1  0
  7 40  1  0
 40 41  1  0
 40 42  2  0
 42 43  1  0
 42  2  1  0
 28  8  2  0
 38 29  1  0
 25 12  1  0
 25 16  1  0
M  CHG  1  28   1
M  END
>  <UniqueID>  (29) 
27

>  <SMILES>  (29) 
c1ccc(-c2s/c(=N/n3cnc4ccccc43)[nH][n+]2-c2ccccc2)cc1

>  <Energy>  (29) 
138.5881636622568

>  <Genealogy>  (29) 
c1ccc(-c2s/c(=N/n3cnc4ccccc43)[nH][n+]2-c2ccccc2)cc1 (cis-trans isomerization)
c1ccc(-c2s/c(=N/n3cnc4ccccc43)[nH][n+]2-c2ccccc2)cc1 (3D coordinates assigned)
c1ccc(-c2s/c(=N/n3cnc4ccccc43)[nH][n+]2-c2ccccc2)cc1 (optimized conformer: 138.5881636622568 kcal/mol)

>  <smiles>  (29) 
c1ccc(-c2sc(=Nn3cnc4ccccc43)[nH][n+]2-c2ccccc2)cc1

>  <score_type>  (29) 
oracle

>  <origin>  (29) 
adg

>  <m_score__min__energy>  (29) 
-8.4600000000000009

>  <m_primary>  (29) 
energy

$$$$
29:0
     RDKit          3D

 35 37  0  0  1  0  0  0  0  0999 V2000
   -0.7610   26.0610  -23.0910 O   0  0  0  0  0  0  0  0  0  0  0  0
   -0.6670   26.5650  -24.4010 C   0  0  0  0  0  0  0  0  0  0  0  0
   -0.4920   27.9360  -24.6100 C   0  0  0  0  0  0  0  0  0  0  0  0
   -0.3990   28.4360  -25.8950 C   0  0  0  0  0  0  0  0  0  0  0  0
   -0.4810   27.5660  -26.9740 C   0  0  0  0  0  0  0  0  0  0  0  0
   -0.6540   26.2180  -26.7720 C   0  0  0  0  0  0  0  0  0  0  0  0
   -0.7450   25.2700  -27.8300 N   0  0  0  0  0  0  0  0  0  0  0  0
   -1.8310   24.6720  -28.1630 C   0  0  0  0  0  0  0  0  0  0  0  0
   -2.3790   23.7460  -27.3110 C   0  0  0  0  0  0  0  0  0  0  0  0
   -3.5480   23.1100  -27.6830 C   0  0  0  0  0  0  0  0  0  0  0  0
   -4.1090   23.4180  -28.8660 N   0  0  0  0  0  0  0  0  0  0  0  0
   -3.5310   24.3410  -29.6770 C   0  0  0  0  0  0  0  0  0  0  0  0
   -4.1290   24.5860  -30.7980 N   0  0  0  0  0  0  0  0  0  0  0  0
   -5.2370   23.7780  -31.2330 C   0  0  0  0  0  0  0  0  0  0  0  0
   -6.5270   24.1460  -30.9020 C   0  0  0  0  0  0  0  0  0  0  0  0
   -7.6170   23.4130  -31.2900 C   0  0  0  0  0  0  0  0  0  0  0  0
   -7.4110   22.2730  -32.0340 C   0  0  0  0  0  0  0  0  0  0  0  0
   -6.1260   21.8910  -32.3740 C   0  0  0  0  0  0  0  0  0  0  0  0
   -5.9800   20.7760  -33.0980 F   0  0  0  0  0  0  0  0  0  0  0  0
   -5.0320   22.6330  -31.9800 C   0  0  0  0  0  0  0  0  0  0  0  0
   -2.4040   24.9710  -29.3440 N   0  0  0  0  0  0  0  0  0  0  0  0
   -0.7490   25.6990  -25.4770 C   0  0  0  0  0  0  0  0  0  0  0  0
    0.1260   25.7710  -22.6750 H   0  0  0  0  0  0  0  0  0  0  0  0
   -0.4282   28.6185  -23.7497 H   0  0  0  0  0  0  0  0  0  0  0  0
   -0.2611   29.5145  -26.0616 H   0  0  0  0  0  0  0  0  0  0  0  0
   -0.4069   27.9591  -27.9987 H   0  0  0  0  0  0  0  0  0  0  0  0
   -1.8966   23.5144  -26.3499 H   0  0  0  0  0  0  0  0  0  0  0  0
   -4.0125   22.3635  -27.0220 H   0  0  0  0  0  0  0  0  0  0  0  0
   -4.9930   22.9410  -29.1530 H   0  0  0  0  0  0  0  0  0  0  0  0
   -6.6838   25.0579  -30.3071 H   0  0  0  0  0  0  0  0  0  0  0  0
   -8.6340   23.7280  -31.0134 H   0  0  0  0  0  0  0  0  0  0  0  0
   -8.2689   21.6657  -32.3582 H   0  0  0  0  0  0  0  0  0  0  0  0
   -4.0143   22.3191  -32.2554 H   0  0  0  0  0  0  0  0  0  0  0  0
   -1.9830   25.6750  -29.9860 H   0  0  0  0  0  0  0  0  0  0  0  0
   -0.8867   24.6195  -25.3163 H   0  0  0  0  0  0  0  0  0  0  0  0
  1  2  1  0
  2  3  2  0
  3  4  1  0
  4  5  2  0
  5  6  1  0
  6  7  1  0
  7  8  2  0
  8  9  1  0
  9 10  2  0
 10 11  1  0
 11 12  1  0
 12 13  2  0
 13 14  1  0
 14 15  2  0
 15 16  1  0
 16 17  2  0
 17 18  1  0
 18 19  1  0
 18 20  2  0
 12 21  1  0
  6 22  2  0
 22  2  1  0
 21  8  1  0
 20 14  1  0
  1 23  1  0
  3 24  1  0
  4 25  1  0
  5 26  1  0
  9 27  1  0
 10 28  1  0
 11 29  1  0
 15 30  1  0
 16 31  1  0
 17 32  1  0
 20 33  1  0
 21 34  1  0
 22 35  1  0
M  END
>  <smiles>  (30) 
Oc1cccc(N=c2cc[nH]c(=Nc3cccc(F)c3)[nH]2)c1

>  <score_type>  (30) 
oracle

>  <origin>  (30) 
adg

>  <m_score__min__energy>  (30) 
-8.4299999999999997

>  <m_primary>  (30) 
energy

$$$$
30:0
     RDKit          3D

 50 52  0  0  0  0  0  0  0  0999 V2000
   -5.2320   26.0480  -30.4660 C   0  0  0  0  0  0  0  0  0  0  0  0
   -3.9800   25.3840  -30.6090 O   0  0  0  0  0  0  0  0  0  0  0  0
   -3.7610   24.0310  -30.3130 C   0  0  0  0  0  0  0  0  0  0  0  0
   -3.7770   23.6330  -28.9710 C   0  0  0  0  0  0  0  0  0  0  0  0
   -3.5720   22.2950  -28.6260 C   0  0  0  0  0  0  0  0  0  0  0  0
   -3.3450   21.3400  -29.6200 C   0  0  0  0  0  0  0  0  0  0  0  0
   -3.3130   21.7220  -30.9700 C   0  0  0  0  0  0  0  0  0  0  0  0
   -3.0880   20.6830  -32.0400 C   0  0  0  0  0  0  0  0  0  0  0  0
   -4.3360   20.4100  -32.7850 N   0  0  0  0  0  0  0  0  0  0  0  0
   -5.4900   20.2310  -31.8680 C   0  0  0  0  0  0  0  0  0  0  0  0
   -5.8030   18.7490  -31.6040 C   0  0  0  0  0  0  0  0  0  0  0  0
   -6.0960   17.9970  -32.8520 N   0  0  0  0  0  0  0  0  0  0  0  0
   -7.5430   17.7740  -33.0440 C   0  0  0  0  0  0  0  0  0  0  0  0
   -8.3320   18.8070  -32.2950 C   0  0  0  0  0  0  0  0  0  0  0  0
   -8.5210   18.6610  -31.0550 O   0  0  0  0  0  0  0  0  0  0  0  0
   -8.8520   19.9580  -32.9730 N   0  0  0  0  0  0  0  0  0  0  0  0
   -9.5560   21.0150  -32.2490 C   0  0  0  0  0  0  0  0  0  0  0  0
   -8.5830   21.9260  -31.5700 C   0  0  0  0  0  0  0  0  0  0  0  0
   -8.2740   21.9240  -30.2170 C   0  0  0  0  0  0  0  0  0  0  0  0
   -7.2650   22.8360  -29.8820 C   0  0  0  0  0  0  0  0  0  0  0  0
   -6.7710   23.5450  -30.9690 C   0  0  0  0  0  0  0  0  0  0  0  0
   -7.5850   23.0320  -32.3500 S   0  0  0  0  0  0  0  0  0  0  0  0
   -5.5020   18.6120  -34.0610 C   0  0  0  0  0  0  0  0  0  0  0  0
   -4.1630   19.2840  -33.7370 C   0  0  0  0  0  0  0  0  0  0  0  0
   -3.5290   23.0680  -31.3140 C   0  0  0  0  0  0  0  0  0  0  0  0
   -5.4623   26.1701  -29.3973 H   0  0  0  0  0  0  0  0  0  0  0  0
   -5.1795   27.0368  -30.9451 H   0  0  0  0  0  0  0  0  0  0  0  0
   -6.0211   25.4499  -30.9451 H   0  0  0  0  0  0  0  0  0  0  0  0
   -3.9523   24.3794  -28.1823 H   0  0  0  0  0  0  0  0  0  0  0  0
   -3.5894   21.9925  -27.5686 H   0  0  0  0  0  0  0  0  0  0  0  0
   -3.1910   20.2864  -29.3439 H   0  0  0  0  0  0  0  0  0  0  0  0
   -2.3233   21.0485  -32.7411 H   0  0  0  0  0  0  0  0  0  0  0  0
   -2.7562   19.7510  -31.5590 H   0  0  0  0  0  0  0  0  0  0  0  0
   -5.2593   20.7197  -30.9099 H   0  0  0  0  0  0  0  0  0  0  0  0
   -6.3724   20.6805  -32.3468 H   0  0  0  0  0  0  0  0  0  0  0  0
   -4.9350   18.2879  -31.1101 H   0  0  0  0  0  0  0  0  0  0  0  0
   -6.7005   18.7053  -30.9695 H   0  0  0  0  0  0  0  0  0  0  0  0
   -7.7817   17.8415  -34.1157 H   0  0  0  0  0  0  0  0  0  0  0  0
   -7.8055   16.7764  -32.6620 H   0  0  0  0  0  0  0  0  0  0  0  0
   -8.7010   20.0450  -34.0050 H   0  0  0  0  0  0  0  0  0  0  0  0
  -10.1620   21.5975  -32.9586 H   0  0  0  0  0  0  0  0  0  0  0  0
  -10.2012   20.5537  -31.4868 H   0  0  0  0  0  0  0  0  0  0  0  0
   -8.7707   21.2728  -29.4827 H   0  0  0  0  0  0  0  0  0  0  0  0
   -6.8984   22.9773  -28.8545 H   0  0  0  0  0  0  0  0  0  0  0  0
   -5.9824   24.3111  -30.9336 H   0  0  0  0  0  0  0  0  0  0  0  0
   -5.3381   17.8308  -34.8179 H   0  0  0  0  0  0  0  0  0  0  0  0
   -6.1948   19.3779  -34.4397 H   0  0  0  0  0  0  0  0  0  0  0  0
   -3.4879   18.5390  -33.2907 H   0  0  0  0  0  0  0  0  0  0  0  0
   -3.7421   19.6835  -34.6715 H   0  0  0  0  0  0  0  0  0  0  0  0
   -3.5167   23.3707  -32.3715 H   0  0  0  0  0  0  0  0  0  0  0  0
  1  2  1  0
  2  3  1  0
  3  4  2  0
  4  5  1  0
  5  6  2  0
  6  7  1  0
  7  8  1  0
  8  9  1  0
  9 10  1  0
 10 11  1  0
 11 12  1  0
 12 13  1  0
 13 14  1  0
 14 15  2  0
 14 16  1  0
 16 17  1  0
 17 18  1  0
 18 19  2  0
 19 20  1  0
 20 21  2  0
 21 22  1  0
 12 23  1  0
 23 24  1  0
  7 25  2  0
 25  3  1  0
 24  9  1  0
 22 18  1  0
  1 26  1  0
  1 27  1  0
  1 28  1  0
  4 29  1  0
  5 30  1  0
  6 31  1  0
  8 32  1  0
  8 33  1  0
 10 34  1  0
 10 35  1  0
 11 36  1  0
 11 37  1  0
 13 38  1  0
 13 39  1  0
 16 40  1  0
 17 41  1  0
 17 42  1  0
 19 43  1  0
 20 44  1  0
 21 45  1  0
 23 46  1  0
 23 47  1  0
 24 48  1  0
 24 49  1  0
 25 50  1  0
M  END
>  <UniqueID>  (31) 
28

>  <SMILES>  (31) 
COc1cccc(CN2CCN(CC(=O)NCc3cccs3)CC2)c1

>  <Energy>  (31) 
84.99579004142632

>  <Genealogy>  (31) 
COc1cccc(CN2CCN(CC(=O)NCc3cccs3)CC2)c1 (3D coordinates assigned)
COc1cccc(CN2CCN(CC(=O)NCc3cccs3)CC2)c1 (nonaromatic ring conformer: 84.99579004142632 kcal/mol)

>  <smiles>  (31) 
COc1cccc(CN2CCN(CC(=O)NCc3cccs3)CC2)c1

>  <score_type>  (31) 
oracle

>  <origin>  (31) 
adg

>  <m_score__min__energy>  (31) 
-9.25

>  <m_primary>  (31) 
energy

$$$$
31:0
     RDKit          3D

 45 47  0  0  0  0  0  0  0  0999 V2000
   -7.0872   16.4177  -33.7068 H   0  0  0  0  0  0  0  0  0  0  0  0
   -6.8780   17.4580  -33.4170 C   0  0  0  0  0  0  0  0  0  0  0  0
   -7.8180   18.1780  -32.6770 C   0  0  0  0  0  0  0  0  0  0  0  0
   -8.7700   17.7072  -32.3906 H   0  0  0  0  0  0  0  0  0  0  0  0
   -7.5500   19.4940  -32.3010 C   0  0  0  0  0  0  0  0  0  0  0  0
   -8.2970   20.0616  -31.7268 H   0  0  0  0  0  0  0  0  0  0  0  0
   -6.3330   20.0980  -32.6510 C   0  0  0  0  0  0  0  0  0  0  0  0
   -6.0700   21.4810  -32.2140 C   0  0  0  0  0  0  0  0  0  0  0  0
   -6.7590   22.1410  -31.2560 N   0  0  0  0  0  0  0  0  0  0  0  0
   -7.9140   21.6700  -30.4860 C   0  0  0  0  0  0  0  0  0  0  0  0
   -7.9410   22.1918  -29.5180 H   0  0  0  0  0  0  0  0  0  0  0  0
   -7.8190   20.5854  -30.3293 H   0  0  0  0  0  0  0  0  0  0  0  0
   -9.2100   21.9480  -31.2430 C   0  0  0  0  0  0  0  0  0  0  0  0
  -10.0242   22.1227  -30.5243 H   0  0  0  0  0  0  0  0  0  0  0  0
   -9.0815   22.8390  -31.8751 H   0  0  0  0  0  0  0  0  0  0  0  0
   -9.4582   21.0827  -31.8751 H   0  0  0  0  0  0  0  0  0  0  0  0
   -6.2920   23.4070  -31.3600 C   0  0  0  0  0  0  0  0  0  0  0  0
   -6.9250   24.8220  -30.4530 S   0  0  0  0  0  0  0  0  0  0  0  0
   -5.5810   24.8400  -29.2200 C   0  0  0  0  0  0  0  0  0  0  0  0
   -5.6886   25.7250  -28.5756 H   0  0  0  0  0  0  0  0  0  0  0  0
   -5.6369   23.9271  -28.6089 H   0  0  0  0  0  0  0  0  0  0  0  0
   -4.2600   24.8890  -29.9120 C   0  0  0  0  0  0  0  0  0  0  0  0
   -4.1050   25.6750  -30.8850 O   0  0  0  0  0  0  0  0  0  0  0  0
   -3.1980   24.0290  -29.4690 N   0  0  0  0  0  0  0  0  0  0  0  0
   -2.0460   24.3840  -28.9790 C   0  0  0  0  0  0  0  0  0  0  0  0
   -1.6340   25.6650  -28.9700 N   0  0  0  0  0  0  0  0  0  0  0  0
   -0.4500   25.6730  -28.4290 O   0  0  0  0  0  0  0  0  0  0  0  0
   -0.0750   24.4590  -28.0960 C   0  0  0  0  0  0  0  0  0  0  0  0
    1.2170   24.1290  -27.4280 C   0  0  0  0  0  0  0  0  0  0  0  0
    1.0846   24.1628  -26.3365 H   0  0  0  0  0  0  0  0  0  0  0  0
    1.5374   23.1202  -27.7274 H   0  0  0  0  0  0  0  0  0  0  0  0
    1.9819   24.8606  -27.7274 H   0  0  0  0  0  0  0  0  0  0  0  0
   -1.0740   23.5660  -28.4220 C   0  0  0  0  0  0  0  0  0  0  0  0
   -1.0949   22.4759  -28.2765 H   0  0  0  0  0  0  0  0  0  0  0  0
   -5.3550   23.5180  -32.3240 N   0  0  0  0  0  0  0  0  0  0  0  0
   -5.2240   22.3110  -32.8500 N   0  0  0  0  0  0  0  0  0  0  0  0
   -4.5950   22.0760  -33.6510 H   0  0  0  0  0  0  0  0  0  0  0  0
   -5.3890   19.3870  -33.4180 C   0  0  0  0  0  0  0  0  0  0  0  0
   -4.2020   20.0300  -33.8110 O   0  0  0  0  0  0  0  0  0  0  0  0
   -2.9220   19.7670  -33.2410 C   0  0  0  0  0  0  0  0  0  0  0  0
   -2.9990   19.7828  -32.1438 H   0  0  0  0  0  0  0  0  0  0  0  0
   -2.5705   18.7779  -33.5697 H   0  0  0  0  0  0  0  0  0  0  0  0
   -2.2089   20.5374  -33.5697 H   0  0  0  0  0  0  0  0  0  0  0  0
   -5.6720   18.0570  -33.7900 C   0  0  0  0  0  0  0  0  0  0  0  0
   -4.9380   17.4866  -34.3782 H   0  0  0  0  0  0  0  0  0  0  0  0
  1  2  1  0
  2  3  2  0
  3  4  1  0
  3  5  1  0
  5  6  1  0
  5  7  2  0
  7  8  1  0
  8  9  1  0
  9 10  1  0
 10 11  1  0
 10 12  1  0
 10 13  1  0
 13 14  1  0
 13 15  1  0
 13 16  1  0
  9 17  1  0
 17 18  1  0
 18 19  1  0
 19 20  1  0
 19 21  1  0
 19 22  1  0
 22 23  2  0
 22 24  1  0
 24 25  2  0
 25 26  1  0
 26 27  1  0
 27 28  1  0
 28 29  1  0
 29 30  1  0
 29 31  1  0
 29 32  1  0
 28 33  2  0
 33 34  1  0
 17 35  2  0
 35 36  1  0
 36 37  1  0
  7 38  1  0
 38 39  1  0
 39 40  1  0
 40 41  1  0
 40 42  1  0
 40 43  1  0
 38 44  2  0
 44 45  1  0
 44  2  1  0
 36  8  2  0
 33 25  1  0
M  CHG  2  26  -1  36   1
M  END
>  <UniqueID>  (32) 
29

>  <SMILES>  (32) 
CCn1c(SCC(=O)/N=c2\cc(C)o[n-]2)n[nH+]c1-c1ccccc1OC

>  <Energy>  (32) 
111.83054002066142

>  <Genealogy>  (32) 
CCn1c(SCC(=O)N=c2cc(C)o[n-]2)n[nH+]c1-c1ccccc1OC (protonated)
CCn1c(SCC(=O)/N=c2\cc(C)o[n-]2)n[nH+]c1-c1ccccc1OC (cis-trans isomerization)
CCn1c(SCC(=O)/N=c2\cc(C)o[n-]2)n[nH+]c1-c1ccccc1OC (3D coordinates assigned)
CCn1c(SCC(=O)/N=c2\cc(C)o[n-]2)n[nH+]c1-c1ccccc1OC (optimized conformer: 111.83054002066142 kcal/mol)

>  <smiles>  (32) 
CCn1c(SCC(=O)N=c2cc(C)o[nH]2)nnc1-c1ccccc1OC

>  <score_type>  (32) 
oracle

>  <origin>  (32) 
adg

>  <m_score__min__energy>  (32) 
-10.19

>  <m_primary>  (32) 
energy

$$$$
32:0
     RDKit          3D

 49 52  0  0  1  0  0  0  0  0999 V2000
    0.7700   22.2540  -35.5060 C   0  0  0  0  0  0  0  0  0  0  0  0
    0.3290   21.9110  -34.2020 O   0  0  0  0  0  0  0  0  0  0  0  0
   -0.7060   21.0340  -34.0240 C   0  0  0  0  0  0  0  0  0  0  0  0
   -0.4890   19.7030  -34.3120 C   0  0  0  0  0  0  0  0  0  0  0  0
   -1.5440   18.8420  -34.1250 C   0  0  0  0  0  0  0  0  0  0  0  0
   -2.7800   19.3080  -33.6620 C   0  0  0  0  0  0  0  0  0  0  0  0
   -3.7640   18.3590  -33.5130 O   0  0  0  0  0  0  0  0  0  0  0  0
   -4.5270   17.8340  -34.5690 C   0  0  0  0  0  0  0  0  0  0  0  0
   -3.0130   20.6260  -33.3720 C   0  0  0  0  0  0  0  0  0  0  0  0
   -4.2600   21.1830  -32.8900 C   0  0  0  0  0  0  0  0  0  0  0  0
   -4.2310   22.4580  -32.4590 N   0  0  0  0  0  0  0  0  0  0  0  0
   -5.3260   23.0630  -31.9960 C   0  0  0  0  0  0  0  0  0  0  0  0
   -5.2370   24.2890  -31.5960 N   0  0  0  0  0  0  0  0  0  0  0  0
   -5.1760   24.6430  -30.1910 C   0  0  0  0  0  0  0  0  0  0  0  0
   -4.3370   23.5790  -29.5030 C   0  0  0  0  0  0  0  0  0  0  0  0
   -3.0060   24.0830  -29.1240 C   0  0  0  0  0  0  0  0  0  0  0  0
   -2.0710   23.3390  -28.4300 C   0  0  0  0  0  0  0  0  0  0  0  0
   -0.9630   24.1110  -28.2500 C   0  0  0  0  0  0  0  0  0  0  0  0
   -1.2500   25.3270  -28.8470 C   0  0  0  0  0  0  0  0  0  0  0  0
   -2.4510   25.2580  -29.3400 O   0  0  0  0  0  0  0  0  0  0  0  0
   -6.5480   22.4280  -31.9310 C   0  0  0  0  0  0  0  0  0  0  0  0
   -7.6930   23.0350  -31.4560 C   0  0  0  0  0  0  0  0  0  0  0  0
   -8.8900   22.3310  -31.4200 C   0  0  0  0  0  0  0  0  0  0  0  0
   -8.9030   21.0280  -31.8650 C   0  0  0  0  0  0  0  0  0  0  0  0
   -7.7640   20.4050  -32.3440 C   0  0  0  0  0  0  0  0  0  0  0  0
   -6.5800   21.1210  -32.3720 C   0  0  0  0  0  0  0  0  0  0  0  0
   -5.4300   20.5510  -32.8350 N   0  0  0  0  0  0  0  0  0  0  0  0
   -1.9220   21.4840  -33.5710 C   0  0  0  0  0  0  0  0  0  0  0  0
    1.6365   22.9279  -35.4346 H   0  0  0  0  0  0  0  0  0  0  0  0
    1.0592   21.3411  -36.0473 H   0  0  0  0  0  0  0  0  0  0  0  0
   -0.0437   22.7590  -36.0473 H   0  0  0  0  0  0  0  0  0  0  0  0
    0.4858   19.3459  -34.6755 H   0  0  0  0  0  0  0  0  0  0  0  0
   -1.4151   17.7714  -34.3423 H   0  0  0  0  0  0  0  0  0  0  0  0
   -5.3685   17.2550  -34.1608 H   0  0  0  0  0  0  0  0  0  0  0  0
   -4.9141   18.6578  -35.1866 H   0  0  0  0  0  0  0  0  0  0  0  0
   -3.8959   17.1780  -35.1866 H   0  0  0  0  0  0  0  0  0  0  0  0
   -4.7075   25.6308  -30.0699 H   0  0  0  0  0  0  0  0  0  0  0  0
   -6.1841   24.6928  -29.7537 H   0  0  0  0  0  0  0  0  0  0  0  0
   -4.8616   23.2453  -28.5956 H   0  0  0  0  0  0  0  0  0  0  0  0
   -4.1962   22.7485  -30.2104 H   0  0  0  0  0  0  0  0  0  0  0  0
   -2.1991   22.3030  -28.0830 H   0  0  0  0  0  0  0  0  0  0  0  0
   -0.0326   23.8270  -27.7365 H   0  0  0  0  0  0  0  0  0  0  0  0
   -0.5799   26.1979  -28.8956 H   0  0  0  0  0  0  0  0  0  0  0  0
   -7.6576   24.0771  -31.1056 H   0  0  0  0  0  0  0  0  0  0  0  0
   -9.8087   22.8048  -31.0437 H   0  0  0  0  0  0  0  0  0  0  0  0
   -9.8477   20.4651  -31.8389 H   0  0  0  0  0  0  0  0  0  0  0  0
   -7.7989   19.3631  -32.6950 H   0  0  0  0  0  0  0  0  0  0  0  0
   -5.5310   19.5720  -33.1480 H   0  0  0  0  0  0  0  0  0  0  0  0
   -2.0444   22.5559  -33.3566 H   0  0  0  0  0  0  0  0  0  0  0  0
  1  2  1  0
  2  3  1  0
  3  4  2  0
  4  5  1  0
  5  6  2  0
  6  7  1  0
  7  8  1  0
  6  9  1  0
  9 10  1  0
 10 11  2  0
 11 12  1  0
 12 13  2  0
 13 14  1  0
 14 15  1  0
 15 16  1  0
 16 17  2  0
 17 18  1  0
 18 19  2  0
 19 20  1  0
 12 21  1  0
 21 22  2  0
 22 23  1  0
 23 24  2  0
 24 25  1  0
 25 26  2  0
 26 27  1  0
  9 28  2  0
 28  3  1  0
 27 10  1  0
 20 16  1  0
 26 21  1  0
  1 29  1  0
  1 30  1  0
  1 31  1  0
  4 32  1  0
  5 33  1  0
  8 34  1  0
  8 35  1  0
  8 36  1  0
 14 37  1  0
 14 38  1  0
 15 39  1  0
 15 40  1  0
 17 41  1  0
 18 42  1  0
 19 43  1  0
 22 44  1  0
 23 45  1  0
 24 46  1  0
 25 47  1  0
 27 48  1  0
 28 49  1  0
M  END
>  <smiles>  (33) 
COc1ccc(OC)c(-c2nc(=NCCc3ccco3)c3ccccc3[nH]2)c1

>  <score_type>  (33) 
oracle

>  <origin>  (33) 
adg

>  <m_score__min__energy>  (33) 
-9.0500000000000007

>  <m_primary>  (33) 
energy

$$$$
33:0
     RDKit          3D

 46 48  0  0  0  0  0  0  0  0999 V2000
   -6.0310   16.9830  -34.2290 C   0  0  0  0  0  0  0  0  0  0  0  0
   -4.7860   17.6740  -34.2140 O   0  0  0  0  0  0  0  0  0  0  0  0
   -4.6100   18.9770  -33.7250 C   0  0  0  0  0  0  0  0  0  0  0  0
   -5.7480   19.7400  -33.4400 C   0  0  0  0  0  0  0  0  0  0  0  0
   -5.6250   21.0440  -32.9510 C   0  0  0  0  0  0  0  0  0  0  0  0
   -4.3610   21.6010  -32.7300 C   0  0  0  0  0  0  0  0  0  0  0  0
   -4.2830   22.9220  -32.2670 O   0  0  0  0  0  0  0  0  0  0  0  0
   -5.2560   23.5570  -31.4860 C   0  0  0  0  0  0  0  0  0  0  0  0
   -6.5600   23.1710  -31.5700 N   0  0  0  0  0  0  0  0  0  0  0  0
   -7.5420   23.7860  -30.8600 C   0  0  0  0  0  0  0  0  0  0  0  0
   -7.2320   24.8600  -30.0260 C   0  0  0  0  0  0  0  0  0  0  0  0
   -5.9070   25.2820  -29.9210 C   0  0  0  0  0  0  0  0  0  0  0  0
   -4.9000   24.6250  -30.6350 C   0  0  0  0  0  0  0  0  0  0  0  0
   -3.5470   25.0820  -30.4960 N   0  0  0  0  0  0  0  0  0  0  0  0
   -2.6310   24.7330  -29.4500 C   0  0  0  0  0  0  0  0  0  0  0  0
   -2.6580   23.5660  -28.9820 O   0  0  0  0  0  0  0  0  0  0  0  0
   -1.6540   25.6570  -28.9480 N   0  0  0  0  0  0  0  0  0  0  0  0
   -0.9410   25.5440  -27.6750 C   0  0  0  0  0  0  0  0  0  0  0  0
   -1.9470   25.2700  -26.5300 C   0  0  0  0  0  0  0  0  0  0  0  0
   -1.4320   25.7990  -25.1880 C   0  0  0  0  0  0  0  0  0  0  0  0
   -1.2250   27.3270  -25.2220 C   0  0  0  0  0  0  0  0  0  0  0  0
   -0.8620   27.8660  -26.6210 C   0  0  0  0  0  0  0  0  0  0  0  0
   -0.1020   26.8240  -27.4470 C   0  0  0  0  0  0  0  0  0  0  0  0
   -3.2140   20.8430  -33.0260 C   0  0  0  0  0  0  0  0  0  0  0  0
   -3.3370   19.5400  -33.5170 C   0  0  0  0  0  0  0  0  0  0  0  0
   -6.3611   16.7998  -33.1958 H   0  0  0  0  0  0  0  0  0  0  0  0
   -6.7827   17.5930  -34.7514 H   0  0  0  0  0  0  0  0  0  0  0  0
   -5.9109   16.0224  -34.7514 H   0  0  0  0  0  0  0  0  0  0  0  0
   -6.7475   19.3102  -33.6021 H   0  0  0  0  0  0  0  0  0  0  0  0
   -6.5277   21.6356  -32.7387 H   0  0  0  0  0  0  0  0  0  0  0  0
   -8.5817   23.4366  -30.9431 H   0  0  0  0  0  0  0  0  0  0  0  0
   -8.0242   25.3688  -29.4571 H   0  0  0  0  0  0  0  0  0  0  0  0
   -5.6531   26.1347  -29.2742 H   0  0  0  0  0  0  0  0  0  0  0  0
   -0.2450   24.6924  -27.6947 H   0  0  0  0  0  0  0  0  0  0  0  0
   -2.9005   25.7649  -26.7666 H   0  0  0  0  0  0  0  0  0  0  0  0
   -2.0803   24.1816  -26.4424 H   0  0  0  0  0  0  0  0  0  0  0  0
   -2.1637   25.5552  -24.4036 H   0  0  0  0  0  0  0  0  0  0  0  0
   -0.4614   25.3247  -24.9808 H   0  0  0  0  0  0  0  0  0  0  0  0
   -2.1555   27.8122  -24.8923 H   0  0  0  0  0  0  0  0  0  0  0  0
   -0.3787   27.5545  -24.5572 H   0  0  0  0  0  0  0  0  0  0  0  0
   -1.7875   28.1356  -27.1508 H   0  0  0  0  0  0  0  0  0  0  0  0
   -0.2122   28.7443  -26.4933 H   0  0  0  0  0  0  0  0  0  0  0  0
    0.1522   27.2612  -28.4239 H   0  0  0  0  0  0  0  0  0  0  0  0
    0.8041   26.5428  -26.8903 H   0  0  0  0  0  0  0  0  0  0  0  0
   -2.2155   21.2775  -32.8704 H   0  0  0  0  0  0  0  0  0  0  0  0
   -2.4349   18.9521  -33.7418 H   0  0  0  0  0  0  0  0  0  0  0  0
  1  2  1  0
  2  3  1  0
  3  4  2  0
  4  5  1  0
  5  6  2  0
  6  7  1  0
  7  8  1  0
  8  9  2  0
  9 10  1  0
 10 11  2  0
 11 12  1  0
 12 13  2  0
 13 14  1  0
 14 15  1  0
 15 16  2  0
 15 17  1  0
 17 18  1  0
 18 19  1  0
 19 20  1  0
 20 21  1  0
 21 22  1  0
 22 23  1  0
  6 24  1  0
 24 25  2  0
 25  3  1  0
 13  8  1  0
 23 18  1  0
  1 26  1  0
  1 27  1  0
  1 28  1  0
  4 29  1  0
  5 30  1  0
 10 31  1  0
 11 32  1  0
 12 33  1  0
 18 34  1  0
 19 35  1  0
 19 36  1  0
 20 37  1  0
 20 38  1  0
 21 39  1  0
 21 40  1  0
 22 41  1  0
 22 42  1  0
 23 43  1  0
 23 44  1  0
 24 45  1  0
 25 46  1  0
M  CHG  2  14  -1  17  -1
M  END
>  <UniqueID>  (34) 
30

>  <SMILES>  (34) 
COc1ccc(Oc2ncccc2[N-]C(=O)[N-]C2CCCCC2)cc1

>  <Energy>  (34) 
57.84238007576114

>  <Genealogy>  (34) 
COc1ccc(Oc2ncccc2[N-]C(=O)[N-]C2CCCCC2)cc1 (protonated)
COc1ccc(Oc2ncccc2[N-]C(=O)[N-]C2CCCCC2)cc1 (3D coordinates assigned)
COc1ccc(Oc2ncccc2[N-]C(=O)[N-]C2CCCCC2)cc1 (nonaromatic ring conformer: 57.84238007576114 kcal/mol)

>  <smiles>  (34) 
COc1ccc(Oc2ncccc2NC(=O)NC2CCCCC2)cc1

>  <score_type>  (34) 
oracle

>  <origin>  (34) 
adg

>  <m_score__min__energy>  (34) 
-10.91

>  <m_primary>  (34) 
energy

$$$$
34:0
     RDKit          3D

 49 53  0  0  0  0  0  0  0  0999 V2000
   -8.4390   19.7190  -31.7810 C   0  0  0  0  0  0  0  0  0  0  0  0
   -7.3810   18.8470  -32.3680 C   0  0  0  0  0  0  0  0  0  0  0  0
   -7.5710   17.5510  -32.7460 N   0  0  0  0  0  0  0  0  0  0  0  0
   -6.4040   17.0640  -33.1770 N   0  0  0  0  0  0  0  0  0  0  0  0
   -6.2150   15.7240  -33.6560 C   0  0  0  0  0  0  0  0  0  0  0  0
   -5.0200   15.0410  -33.3740 C   0  0  0  0  0  0  0  0  0  0  0  0
   -4.8340   13.7310  -33.8230 C   0  0  0  0  0  0  0  0  0  0  0  0
   -5.8420   13.0860  -34.5450 C   0  0  0  0  0  0  0  0  0  0  0  0
   -7.0430   13.7510  -34.8110 C   0  0  0  0  0  0  0  0  0  0  0  0
   -7.2330   15.0620  -34.3640 C   0  0  0  0  0  0  0  0  0  0  0  0
   -5.5010   18.0500  -33.0510 C   0  0  0  0  0  0  0  0  0  0  0  0
   -4.1510   18.2440  -33.1850 C   0  0  0  0  0  0  0  0  0  0  0  0
   -3.2080   17.3040  -33.5850 O   0  0  0  0  0  0  0  0  0  0  0  0
   -3.8660   19.5150  -32.7860 N   0  0  0  0  0  0  0  0  0  0  0  0
   -2.5500   20.0930  -32.7210 C   0  0  0  0  0  0  0  0  0  0  0  0
   -1.8910   20.2050  -31.4880 C   0  0  0  0  0  0  0  0  0  0  0  0
   -0.6010   20.7350  -31.4250 C   0  0  0  0  0  0  0  0  0  0  0  0
    0.0380   21.1680  -32.5890 C   0  0  0  0  0  0  0  0  0  0  0  0
   -0.6190   21.0980  -33.8300 C   0  0  0  0  0  0  0  0  0  0  0  0
    0.0820   21.5130  -35.0980 C   0  0  0  0  0  0  0  0  0  0  0  0
   -0.4010   20.7940  -36.1770 F   0  0  0  0  0  0  0  0  0  0  0  0
   -0.1160   22.8590  -35.3530 F   0  0  0  0  0  0  0  0  0  0  0  0
    1.4370   21.2750  -34.9680 F   0  0  0  0  0  0  0  0  0  0  0  0
   -1.9100   20.5430  -33.8880 C   0  0  0  0  0  0  0  0  0  0  0  0
   -5.0450   20.0830  -32.3760 C   0  0  0  0  0  0  0  0  0  0  0  0
   -5.2110   21.4580  -31.8660 C   0  0  0  0  0  0  0  0  0  0  0  0
   -6.2490   22.2720  -32.3450 C   0  0  0  0  0  0  0  0  0  0  0  0
   -6.4160   23.5670  -31.8460 C   0  0  0  0  0  0  0  0  0  0  0  0
   -5.5500   24.0580  -30.8650 C   0  0  0  0  0  0  0  0  0  0  0  0
   -5.7640   25.6810  -30.2350 Cl  0  0  0  0  0  0  0  0  0  0  0  0
   -4.5140   23.2510  -30.3820 C   0  0  0  0  0  0  0  0  0  0  0  0
   -4.3440   21.9570  -30.8800 C   0  0  0  0  0  0  0  0  0  0  0  0
   -6.0460   19.1440  -32.5420 C   0  0  0  0  0  0  0  0  0  0  0  0
   -8.3841   19.6738  -30.6833 H   0  0  0  0  0  0  0  0  0  0  0  0
   -8.2854   20.7563  -32.1134 H   0  0  0  0  0  0  0  0  0  0  0  0
   -9.4278   19.3701  -32.1134 H   0  0  0  0  0  0  0  0  0  0  0  0
   -4.2273   15.5398  -32.7971 H   0  0  0  0  0  0  0  0  0  0  0  0
   -3.8917   13.2059  -33.6077 H   0  0  0  0  0  0  0  0  0  0  0  0
   -5.6909   12.0571  -34.9034 H   0  0  0  0  0  0  0  0  0  0  0  0
   -7.8397   13.2417  -35.3730 H   0  0  0  0  0  0  0  0  0  0  0  0
   -8.1832   15.5776  -34.5672 H   0  0  0  0  0  0  0  0  0  0  0  0
   -2.3927   19.8739  -30.5668 H   0  0  0  0  0  0  0  0  0  0  0  0
   -0.0864   20.8118  -30.4558 H   0  0  0  0  0  0  0  0  0  0  0  0
    1.0619   21.5664  -32.5344 H   0  0  0  0  0  0  0  0  0  0  0  0
   -2.4239   20.4604  -34.8570 H   0  0  0  0  0  0  0  0  0  0  0  0
   -6.9338   21.8895  -33.1161 H   0  0  0  0  0  0  0  0  0  0  0  0
   -7.2306   24.2009  -32.2262 H   0  0  0  0  0  0  0  0  0  0  0  0
   -3.8325   23.6360  -29.6091 H   0  0  0  0  0  0  0  0  0  0  0  0
   -3.5277   21.3261  -30.4984 H   0  0  0  0  0  0  0  0  0  0  0  0
  1  2  1  0
  2  3  2  0
  3  4  1  0
  4  5  1  0
  5  6  2  0
  6  7  1  0
  7  8  2  0
  8  9  1  0
  9 10  2  0
  4 11  1  0
 11 12  2  0
 12 13  1  0
 12 14  1  0
 14 15  1  0
 15 16  2  0
 16 17  1  0
 17 18  2  0
 18 19  1  0
 19 20  1  0
 20 21  1  0
 20 22  1  0
 20 23  1  0
 19 24  2  0
 14 25  1  0
 25 26  1  0
 26 27  2  0
 27 28  1  0
 28 29  2  0
 29 30  1  0
 29 31  1  0
 31 32  2  0
 25 33  2  0
 33  2  1  0
 10  5  1  0
 33 11  1  0
 24 15  1  0
 32 26  1  0
  1 34  1  0
  1 35  1  0
  1 36  1  0
  6 37  1  0
  7 38  1  0
  8 39  1  0
  9 40  1  0
 10 41  1  0
 16 42  1  0
 17 43  1  0
 18 44  1  0
 24 45  1  0
 27 46  1  0
 28 47  1  0
 31 48  1  0
 32 49  1  0
M  CHG  1  13  -1
M  END
>  <UniqueID>  (35) 
31

>  <SMILES>  (35) 
Cc1nn(-c2ccccc2)c2c([O-])n(-c3cccc(C(F)(F)F)c3)c(-c3ccc(Cl)cc3)c12

>  <Energy>  (35) 
162.1441109495607

>  <Genealogy>  (35) 
Cc1nn(-c2ccccc2)c2c([O-])n(-c3cccc(C(F)(F)F)c3)c(-c3ccc(Cl)cc3)c12 (protonated)
Cc1nn(-c2ccccc2)c2c([O-])n(-c3cccc(C(F)(F)F)c3)c(-c3ccc(Cl)cc3)c12 (3D coordinates assigned)
Cc1nn(-c2ccccc2)c2c([O-])n(-c3cccc(C(F)(F)F)c3)c(-c3ccc(Cl)cc3)c12 (optimized conformer: 162.1441109495607 kcal/mol)

>  <smiles>  (35) 
Cc1nn(-c2ccccc2)c2c(O)n(-c3cccc(C(F)(F)F)c3)c(-c3ccc(Cl)cc3)c12

>  <score_type>  (35) 
oracle

>  <origin>  (35) 
adg

>  <m_score__min__energy>  (35) 
-10.5

>  <m_primary>  (35) 
energy

$$$$
35:0
     RDKit          3D

 48 50  0  0  0  0  0  0  0  0999 V2000
    2.8300   24.9440  -24.1260 C   0  0  0  0  0  0  0  0  0  0  0  0
    1.5950   24.6010  -24.9680 C   0  0  0  0  0  0  0  0  0  0  0  0
    0.3170   25.0310  -24.3430 N   0  0  0  0  0  0  0  0  0  0  0  0
    0.4730   26.4050  -23.8020 C   0  0  0  0  0  0  0  0  0  0  0  0
   -0.8490   27.1790  -23.7200 C   0  0  0  0  0  0  0  0  0  0  0  0
   -0.8650   24.8780  -25.2390 C   0  0  0  0  0  0  0  0  0  0  0  0
   -0.6050   25.2030  -26.7230 C   0  0  0  0  0  0  0  0  0  0  0  0
   -1.5710   24.4950  -27.5610 N   0  0  0  0  0  0  0  0  0  0  0  0
   -2.3160   25.0900  -28.4850 N   0  0  0  0  0  0  0  0  0  0  0  0
   -3.0470   24.1410  -29.1170 C   0  0  0  0  0  0  0  0  0  0  0  0
   -4.0070   24.4440  -30.1950 C   0  0  0  0  0  0  0  0  0  0  0  0
   -3.8650   25.5170  -30.8410 O   0  0  0  0  0  0  0  0  0  0  0  0
   -5.1030   23.5200  -30.5630 C   0  0  0  0  0  0  0  0  0  0  0  0
   -6.3100   23.5050  -29.8380 C   0  0  0  0  0  0  0  0  0  0  0  0
   -7.3330   22.6180  -30.1860 C   0  0  0  0  0  0  0  0  0  0  0  0
   -7.1590   21.7320  -31.2510 C   0  0  0  0  0  0  0  0  0  0  0  0
   -5.9590   21.7260  -31.9650 C   0  0  0  0  0  0  0  0  0  0  0  0
   -4.9330   22.6110  -31.6220 C   0  0  0  0  0  0  0  0  0  0  0  0
   -2.7530   22.9070  -28.5560 C   0  0  0  0  0  0  0  0  0  0  0  0
   -3.2470   21.6200  -28.7700 C   0  0  0  0  0  0  0  0  0  0  0  0
   -2.7180   20.5770  -27.9880 C   0  0  0  0  0  0  0  0  0  0  0  0
   -1.7310   20.8430  -27.0120 C   0  0  0  0  0  0  0  0  0  0  0  0
   -1.2710   22.1550  -26.8010 C   0  0  0  0  0  0  0  0  0  0  0  0
   -1.8140   23.1690  -27.5940 C   0  0  0  0  0  0  0  0  0  0  0  0
    2.5766   24.8736  -23.0579 H   0  0  0  0  0  0  0  0  0  0  0  0
    3.6400   24.2368  -24.3581 H   0  0  0  0  0  0  0  0  0  0  0  0
    3.1593   25.9676  -24.3581 H   0  0  0  0  0  0  0  0  0  0  0  0
    1.6900   25.0977  -25.9449 H   0  0  0  0  0  0  0  0  0  0  0  0
    1.5589   23.5055  -25.0606 H   0  0  0  0  0  0  0  0  0  0  0  0
    0.1560   24.3980  -23.5230 H   0  0  0  0  0  0  0  0  0  0  0  0
    0.9001   26.3356  -22.7907 H   0  0  0  0  0  0  0  0  0  0  0  0
    1.1297   26.9543  -24.4927 H   0  0  0  0  0  0  0  0  0  0  0  0
   -1.1171   27.3360  -22.6648 H   0  0  0  0  0  0  0  0  0  0  0  0
   -0.7351   28.1531  -24.2182 H   0  0  0  0  0  0  0  0  0  0  0  0
   -1.6427   26.6029  -24.2182 H   0  0  0  0  0  0  0  0  0  0  0  0
   -1.2099   23.8355  -25.1735 H   0  0  0  0  0  0  0  0  0  0  0  0
   -1.6106   25.6080  -24.8909 H   0  0  0  0  0  0  0  0  0  0  0  0
   -0.7075   26.2865  -26.8831 H   0  0  0  0  0  0  0  0  0  0  0  0
    0.4126   24.8835  -26.9921 H   0  0  0  0  0  0  0  0  0  0  0  0
   -6.4488   24.1953  -28.9928 H   0  0  0  0  0  0  0  0  0  0  0  0
   -8.2762   22.6181  -29.6201 H   0  0  0  0  0  0  0  0  0  0  0  0
   -7.9671   21.0388  -31.5275 H   0  0  0  0  0  0  0  0  0  0  0  0
   -5.8208   21.0229  -32.7996 H   0  0  0  0  0  0  0  0  0  0  0  0
   -3.9873   22.5962  -32.1837 H   0  0  0  0  0  0  0  0  0  0  0  0
   -4.0238   21.4273  -29.5246 H   0  0  0  0  0  0  0  0  0  0  0  0
   -3.0750   19.5473  -28.1372 H   0  0  0  0  0  0  0  0  0  0  0  0
   -1.3195   20.0174  -26.4128 H   0  0  0  0  0  0  0  0  0  0  0  0
   -0.5099   22.3753  -26.0380 H   0  0  0  0  0  0  0  0  0  0  0  0
  1  2  1  0
  2  3  1  0
  3  4  1  0
  4  5  1  0
  3  6  1  0
  6  7  1  0
  7  8  1  0
  8  9  1  0
  9 10  2  0
 10 11  1  0
 11 12  2  0
 11 13  1  0
 13 14  2  0
 14 15  1  0
 15 16  2  0
 16 17  1  0
 17 18  2  0
 10 19  1  0
 19 20  2  0
 20 21  1  0
 21 22  2  0
 22 23  1  0
 23 24  2  0
 24  8  1  0
 18 13  1  0
 24 19  1  0
  1 25  1  0
  1 26  1  0
  1 27  1  0
  2 28  1  0
  2 29  1  0
  3 30  1  0
  4 31  1  0
  4 32  1  0
  5 33  1  0
  5 34  1  0
  5 35  1  0
  6 36  1  0
  6 37  1  0
  7 38  1  0
  7 39  1  0
 14 40  1  0
 15 41  1  0
 16 42  1  0
 17 43  1  0
 18 44  1  0
 20 45  1  0
 21 46  1  0
 22 47  1  0
 23 48  1  0
M  CHG  1   3   1
M  END
>  <UniqueID>  (36) 
32

>  <SMILES>  (36) 
CC[NH+](CC)CCn1nc(C(=O)c2ccccc2)c2ccccc21

>  <Energy>  (36) 
95.34285345224491

>  <Genealogy>  (36) 
CC[NH+](CC)CCn1nc(C(=O)c2ccccc2)c2ccccc21 (protonated)
CC[NH+](CC)CCn1nc(C(=O)c2ccccc2)c2ccccc21 (3D coordinates assigned)
CC[NH+](CC)CCn1nc(C(=O)c2ccccc2)c2ccccc21 (optimized conformer: 95.34285345224491 kcal/mol)

>  <smiles>  (36) 
CCN(CC)CCn1nc(C(=O)c2ccccc2)c2ccccc21

>  <score_type>  (36) 
oracle

>  <origin>  (36) 
adg

>  <m_score__min__energy>  (36) 
-7.6399999999999997

>  <m_primary>  (36) 
energy

$$$$
36:0
     RDKit          3D

 37 39  0  0  0  0  0  0  0  0999 V2000
   -2.9183   22.1910  -29.7954 H   0  0  0  0  0  0  0  0  0  0  0  0
   -2.8540   23.2870  -29.8640 C   0  0  0  0  0  0  0  0  0  0  0  0
   -3.9770   23.9960  -30.5250 C   0  0  0  0  0  0  0  0  0  0  0  0
   -3.8680   25.2160  -30.8250 O   0  0  0  0  0  0  0  0  0  0  0  0
   -5.2150   23.2740  -30.8910 C   0  0  0  0  0  0  0  0  0  0  0  0
   -6.4900   23.8030  -30.5890 C   0  0  0  0  0  0  0  0  0  0  0  0
   -6.6860   25.3080  -29.7010 Cl  0  0  0  0  0  0  0  0  0  0  0  0
   -7.6110   23.1230  -30.9500 N   0  0  0  0  0  0  0  0  0  0  0  0
   -7.5590   21.9360  -31.6070 C   0  0  0  0  0  0  0  0  0  0  0  0
   -8.7400   21.2750  -31.9610 C   0  0  0  0  0  0  0  0  0  0  0  0
   -9.7145   21.7168  -31.7058 H   0  0  0  0  0  0  0  0  0  0  0  0
   -8.6830   20.0530  -32.6390 C   0  0  0  0  0  0  0  0  0  0  0  0
   -9.8290   19.4150  -32.9810 F   0  0  0  0  0  0  0  0  0  0  0  0
   -7.4460   19.4890  -32.9660 C   0  0  0  0  0  0  0  0  0  0  0  0
   -7.4055   18.5287  -33.5010 H   0  0  0  0  0  0  0  0  0  0  0  0
   -6.2600   20.1420  -32.6150 C   0  0  0  0  0  0  0  0  0  0  0  0
   -5.2886   19.6951  -32.8732 H   0  0  0  0  0  0  0  0  0  0  0  0
   -6.3100   21.3680  -31.9330 C   0  0  0  0  0  0  0  0  0  0  0  0
   -5.1410   22.0460  -31.5700 C   0  0  0  0  0  0  0  0  0  0  0  0
   -4.1594   21.6156  -31.8174 H   0  0  0  0  0  0  0  0  0  0  0  0
   -1.7660   23.8750  -29.3430 C   0  0  0  0  0  0  0  0  0  0  0  0
   -0.8191   23.7622  -29.8913 H   0  0  0  0  0  0  0  0  0  0  0  0
   -1.7370   24.6620  -28.0920 C   0  0  0  0  0  0  0  0  0  0  0  0
   -2.7710   24.5630  -27.1450 C   0  0  0  0  0  0  0  0  0  0  0  0
   -3.6388   23.9178  -27.3468 H   0  0  0  0  0  0  0  0  0  0  0  0
   -2.7010   25.2810  -25.9480 C   0  0  0  0  0  0  0  0  0  0  0  0
   -3.5245   25.2122  -25.2220 H   0  0  0  0  0  0  0  0  0  0  0  0
   -1.5920   26.0870  -25.6650 C   0  0  0  0  0  0  0  0  0  0  0  0
   -1.5710   26.7880  -24.4510 O   0  0  0  0  0  0  0  0  0  0  0  0
   -0.5630   26.6420  -23.4570 C   0  0  0  0  0  0  0  0  0  0  0  0
   -1.0202   26.7082  -22.4587 H   0  0  0  0  0  0  0  0  0  0  0  0
   -0.0736   25.6636  -23.5720 H   0  0  0  0  0  0  0  0  0  0  0  0
    0.1839   27.4413  -23.5720 H   0  0  0  0  0  0  0  0  0  0  0  0
   -0.5410   26.1600  -26.5990 C   0  0  0  0  0  0  0  0  0  0  0  0
    0.3392   26.7841  -26.3851 H   0  0  0  0  0  0  0  0  0  0  0  0
   -0.6110   25.4430  -27.7970 C   0  0  0  0  0  0  0  0  0  0  0  0
    0.2229   25.4920  -28.5127 H   0  0  0  0  0  0  0  0  0  0  0  0
  1  2  1  0
  2  3  1  0
  3  4  2  0
  3  5  1  0
  5  6  2  0
  6  7  1  0
  6  8  1  0
  8  9  2  0
  9 10  1  0
 10 11  1  0
 10 12  2  0
 12 13  1  0
 12 14  1  0
 14 15  1  0
 14 16  2  0
 16 17  1  0
 16 18  1  0
 18 19  2  0
 19 20  1  0
  2 21  2  0
 21 22  1  0
 21 23  1  0
 23 24  2  0
 24 25  1  0
 24 26  1  0
 26 27  1  0
 26 28  2  0
 28 29  1  0
 29 30  1  0
 30 31  1  0
 30 32  1  0
 30 33  1  0
 28 34  1  0
 34 35  1  0
 34 36  2  0
 36 37  1  0
 19  5  1  0
 36 23  1  0
 18  9  1  0
M  END
>  <UniqueID>  (37) 
33

>  <SMILES>  (37) 
COc1ccc(/C=C\C(=O)c2cc3ccc(F)cc3nc2Cl)cc1

>  <Energy>  (37) 
55.82525221085019

>  <Genealogy>  (37) 
COc1ccc(/C=C\C(=O)c2cc3ccc(F)cc3nc2Cl)cc1 (cis-trans isomerization)
COc1ccc(/C=C\C(=O)c2cc3ccc(F)cc3nc2Cl)cc1 (3D coordinates assigned)
COc1ccc(/C=C\C(=O)c2cc3ccc(F)cc3nc2Cl)cc1 (optimized conformer: 55.82525221085019 kcal/mol)

>  <smiles>  (37) 
COc1ccc(C=CC(=O)c2cc3ccc(F)cc3nc2Cl)cc1

>  <score_type>  (37) 
oracle

>  <origin>  (37) 
adg

>  <m_score__min__energy>  (37) 
-9.1099999999999994

>  <m_primary>  (37) 
energy

$$$$
37:0
     RDKit          3D

 37 39  0  0  0  0  0  0  0  0999 V2000
   -5.6680   25.9300  -30.8430 O   0  0  0  0  0  0  0  0  0  0  0  0
   -4.8940   24.9380  -30.7880 C   0  0  0  0  0  0  0  0  0  0  0  0
   -3.5180   25.1620  -30.4490 N   0  0  0  0  0  0  0  0  0  0  0  0
   -2.7430   24.3690  -29.5400 C   0  0  0  0  0  0  0  0  0  0  0  0
   -1.6520   24.9510  -28.8850 C   0  0  0  0  0  0  0  0  0  0  0  0
   -0.8830   24.1970  -27.9910 C   0  0  0  0  0  0  0  0  0  0  0  0
   -1.2100   22.8630  -27.7380 C   0  0  0  0  0  0  0  0  0  0  0  0
   -2.3170   22.2820  -28.3670 C   0  0  0  0  0  0  0  0  0  0  0  0
   -2.7400   20.6130  -28.0360 Cl  0  0  0  0  0  0  0  0  0  0  0  0
   -3.0890   23.0370  -29.2560 C   0  0  0  0  0  0  0  0  0  0  0  0
   -5.3990   23.5900  -31.1500 C   0  0  0  0  0  0  0  0  0  0  0  0
   -6.3460   22.8700  -30.2110 C   0  0  0  0  0  0  0  0  0  0  0  0
   -7.5860   22.4360  -30.9290 C   0  0  0  0  0  0  0  0  0  0  0  0
   -8.3660   23.2250  -31.7650 C   0  0  0  0  0  0  0  0  0  0  0  0
   -9.4630   22.5410  -32.3030 C   0  0  0  0  0  0  0  0  0  0  0  0
   -9.5490   21.2160  -31.8930 C   0  0  0  0  0  0  0  0  0  0  0  0
   -8.2610   20.8960  -30.8610 S   0  0  0  0  0  0  0  0  0  0  0  0
   -5.1260   23.1250  -32.3390 N   0  0  0  0  0  0  0  0  0  0  0  0
   -4.4890   21.8780  -32.6410 C   0  0  0  0  0  0  0  0  0  0  0  0
   -3.2580   21.8740  -32.9080 O   0  0  0  0  0  0  0  0  0  0  0  0
   -5.2170   20.6010  -32.5720 C   0  0  0  0  0  0  0  0  0  0  0  0
   -5.1090   19.6360  -31.5770 C   0  0  0  0  0  0  0  0  0  0  0  0
   -5.9130   18.5130  -31.8030 C   0  0  0  0  0  0  0  0  0  0  0  0
   -6.6530   18.5840  -32.9760 C   0  0  0  0  0  0  0  0  0  0  0  0
   -6.3040   20.0450  -33.7300 S   0  0  0  0  0  0  0  0  0  0  0  0
   -1.3979   26.0045  -29.0733 H   0  0  0  0  0  0  0  0  0  0  0  0
   -0.0197   24.6559  -27.4869 H   0  0  0  0  0  0  0  0  0  0  0  0
   -0.5973   22.2688  -27.0441 H   0  0  0  0  0  0  0  0  0  0  0  0
   -3.9707   22.5862  -29.7349 H   0  0  0  0  0  0  0  0  0  0  0  0
   -5.8401   21.9843  -29.7992 H   0  0  0  0  0  0  0  0  0  0  0  0
   -6.6317   23.5605  -29.4038 H   0  0  0  0  0  0  0  0  0  0  0  0
   -8.1443   24.2803  -31.9823 H   0  0  0  0  0  0  0  0  0  0  0  0
  -10.1881   23.0083  -32.9856 H   0  0  0  0  0  0  0  0  0  0  0  0
  -10.3273   20.4987  -32.1927 H   0  0  0  0  0  0  0  0  0  0  0  0
   -4.4559   19.7445  -30.6986 H   0  0  0  0  0  0  0  0  0  0  0  0
   -5.9549   17.6548  -31.1161 H   0  0  0  0  0  0  0  0  0  0  0  0
   -7.3478   17.8164  -33.3476 H   0  0  0  0  0  0  0  0  0  0  0  0
  1  2  2  0
  2  3  1  0
  3  4  1  0
  4  5  2  0
  5  6  1  0
  6  7  2  0
  7  8  1  0
  8  9  1  0
  8 10  2  0
  2 11  1  0
 11 12  1  0
 12 13  1  0
 13 14  2  0
 14 15  1  0
 15 16  2  0
 16 17  1  0
 11 18  2  3
 18 19  1  0
 19 20  2  0
 19 21  1  0
 21 22  2  0
 22 23  1  0
 23 24  2  0
 24 25  1  0
 10  4  1  0
 17 13  1  0
 25 21  1  0
  5 26  1  0
  6 27  1  0
  7 28  1  0
 10 29  1  0
 12 30  1  0
 12 31  1  0
 14 32  1  0
 15 33  1  0
 16 34  1  0
 22 35  1  0
 23 36  1  0
 24 37  1  0
M  CHG  1   3  -1
M  END
>  <UniqueID>  (38) 
34

>  <SMILES>  (38) 
O=C([N-]c1cccc(Cl)c1)C(Cc1cccs1)=NC(=O)c1cccs1

>  <Energy>  (38) 
100.5468854118555

>  <Genealogy>  (38) 
O=C([N-]c1cccc(Cl)c1)C(Cc1cccs1)=NC(=O)c1cccs1 (protonated)
O=C([N-]c1cccc(Cl)c1)C(Cc1cccs1)=NC(=O)c1cccs1 (3D coordinates assigned)
O=C([N-]c1cccc(Cl)c1)C(Cc1cccs1)=NC(=O)c1cccs1 (optimized conformer: 100.5468854118555 kcal/mol)

>  <smiles>  (38) 
O=C(Nc1cccc(Cl)c1)C(Cc1cccs1)=NC(=O)c1cccs1

>  <score_type>  (38) 
oracle

>  <origin>  (38) 
adg

>  <m_score__min__energy>  (38) 
-10.19

>  <m_primary>  (38) 
energy

$$$$
38:0
     RDKit          3D

 51 54  0  0  0  0  0  0  0  0999 V2000
   -9.0710   18.6690  -31.8000 C   0  0  0  0  0  0  0  0  0  0  0  0
   -9.3920   20.0750  -32.2910 C   0  0  0  0  0  0  0  0  0  0  0  0
   -8.2030   20.9480  -32.1110 N   0  0  0  0  0  0  0  0  0  0  0  0
   -6.9440   20.1700  -32.1080 C   0  0  0  0  0  0  0  0  0  0  0  0
   -6.3820   20.0450  -33.5240 C   0  0  0  0  0  0  0  0  0  0  0  0
   -8.3070   21.7710  -30.8850 C   0  0  0  0  0  0  0  0  0  0  0  0
   -7.1460   22.7250  -30.7850 C   0  0  0  0  0  0  0  0  0  0  0  0
   -7.0410   23.8270  -31.6740 C   0  0  0  0  0  0  0  0  0  0  0  0
   -5.9430   24.7050  -31.6060 C   0  0  0  0  0  0  0  0  0  0  0  0
   -4.9680   24.4570  -30.6440 C   0  0  0  0  0  0  0  0  0  0  0  0
   -3.8670   25.1490  -30.4220 O   0  0  0  0  0  0  0  0  0  0  0  0
   -3.2440   24.5490  -29.4260 C   0  0  0  0  0  0  0  0  0  0  0  0
   -2.0340   24.9140  -28.8410 C   0  0  0  0  0  0  0  0  0  0  0  0
   -1.5440   24.1260  -27.7750 C   0  0  0  0  0  0  0  0  0  0  0  0
   -0.2210   24.4580  -27.1420 C   0  0  0  0  0  0  0  0  0  0  0  0
   -0.4040   25.5030  -26.0750 C   0  0  0  0  0  0  0  0  0  0  0  0
   -0.6470   26.8420  -26.4280 C   0  0  0  0  0  0  0  0  0  0  0  0
   -0.8550   27.8050  -25.4360 C   0  0  0  0  0  0  0  0  0  0  0  0
   -0.8300   27.4380  -24.0880 C   0  0  0  0  0  0  0  0  0  0  0  0
   -0.6010   26.1080  -23.7290 C   0  0  0  0  0  0  0  0  0  0  0  0
   -0.3930   25.1410  -24.7180 C   0  0  0  0  0  0  0  0  0  0  0  0
   -2.2730   22.9880  -27.3430 C   0  0  0  0  0  0  0  0  0  0  0  0
   -3.4940   22.6410  -27.9500 C   0  0  0  0  0  0  0  0  0  0  0  0
   -3.9480   23.4480  -28.9890 C   0  0  0  0  0  0  0  0  0  0  0  0
   -5.0690   23.3880  -29.7800 C   0  0  0  0  0  0  0  0  0  0  0  0
   -6.1410   22.5020  -29.8190 C   0  0  0  0  0  0  0  0  0  0  0  0
   -9.0681   18.6565  -30.7001 H   0  0  0  0  0  0  0  0  0  0  0  0
   -9.8322   17.9678  -32.1727 H   0  0  0  0  0  0  0  0  0  0  0  0
   -8.0809   18.3676  -32.1727 H   0  0  0  0  0  0  0  0  0  0  0  0
   -9.6615   20.0382  -33.3568 H   0  0  0  0  0  0  0  0  0  0  0  0
  -10.2350   20.4810  -31.7126 H   0  0  0  0  0  0  0  0  0  0  0  0
   -6.2064   20.6795  -31.4705 H   0  0  0  0  0  0  0  0  0  0  0  0
   -7.1525   19.1619  -31.7203 H   0  0  0  0  0  0  0  0  0  0  0  0
   -5.3094   19.8064  -33.4730 H   0  0  0  0  0  0  0  0  0  0  0  0
   -6.9111   19.2426  -34.0590 H   0  0  0  0  0  0  0  0  0  0  0  0
   -6.5211   20.9960  -34.0590 H   0  0  0  0  0  0  0  0  0  0  0  0
   -9.2448   22.3451  -30.9138 H   0  0  0  0  0  0  0  0  0  0  0  0
   -8.2943   21.1051  -30.0096 H   0  0  0  0  0  0  0  0  0  0  0  0
   -7.8269   23.9966  -32.4247 H   0  0  0  0  0  0  0  0  0  0  0  0
   -5.8580   25.5607  -32.2919 H   0  0  0  0  0  0  0  0  0  0  0  0
   -1.4751   25.7913  -29.1987 H   0  0  0  0  0  0  0  0  0  0  0  0
    0.2047   23.5492  -26.6915 H   0  0  0  0  0  0  0  0  0  0  0  0
    0.4588   24.8479  -27.9139 H   0  0  0  0  0  0  0  0  0  0  0  0
   -0.6736   27.1330  -27.4885 H   0  0  0  0  0  0  0  0  0  0  0  0
   -1.0385   28.8526  -25.7170 H   0  0  0  0  0  0  0  0  0  0  0  0
   -0.9909   28.1975  -23.3087 H   0  0  0  0  0  0  0  0  0  0  0  0
   -0.5842   25.8206  -22.6674 H   0  0  0  0  0  0  0  0  0  0  0  0
   -0.2202   24.0930  -24.4319 H   0  0  0  0  0  0  0  0  0  0  0  0
   -1.8787   22.3693  -26.5234 H   0  0  0  0  0  0  0  0  0  0  0  0
   -4.0684   21.7644  -27.6158 H   0  0  0  0  0  0  0  0  0  0  0  0
   -6.2034   21.6551  -29.1198 H   0  0  0  0  0  0  0  0  0  0  0  0
  1  2  1  0
  2  3  1  0
  3  4  1  0
  4  5  1  0
  3  6  1  0
  6  7  1  0
  7  8  2  0
  8  9  1  0
  9 10  2  0
 10 11  1  0
 11 12  1  0
 12 13  2  0
 13 14  1  0
 14 15  1  0
 15 16  1  0
 16 17  2  0
 17 18  1  0
 18 19  2  0
 19 20  1  0
 20 21  2  0
 14 22  2  0
 22 23  1  0
 23 24  2  0
 24 25  1  0
 25 26  2  0
 26  7  1  0
 25 10  1  0
 24 12  1  0
 21 16  1  0
  1 27  1  0
  1 28  1  0
  1 29  1  0
  2 30  1  0
  2 31  1  0
  4 32  1  0
  4 33  1  0
  5 34  1  0
  5 35  1  0
  5 36  1  0
  6 37  1  0
  6 38  1  0
  8 39  1  0
  9 40  1  0
 13 41  1  0
 15 42  1  0
 15 43  1  0
 17 44  1  0
 18 45  1  0
 19 46  1  0
 20 47  1  0
 21 48  1  0
 22 49  1  0
 23 50  1  0
 26 51  1  0
M  END
>  <UniqueID>  (39) 
35

>  <SMILES>  (39) 
CCN(CC)Cc1ccc2oc3cc(Cc4ccccc4)ccc3c2c1

>  <Energy>  (39) 
93.43535806300036

>  <Genealogy>  (39) 
CCN(CC)Cc1ccc2oc3cc(Cc4ccccc4)ccc3c2c1 (3D coordinates assigned)
CCN(CC)Cc1ccc2oc3cc(Cc4ccccc4)ccc3c2c1 (optimized conformer: 93.43535806300036 kcal/mol)

>  <smiles>  (39) 
CCN(CC)Cc1ccc2oc3cc(Cc4ccccc4)ccc3c2c1

>  <score_type>  (39) 
oracle

>  <origin>  (39) 
adg

>  <m_score__min__energy>  (39) 
-9.3499999999999996

>  <m_primary>  (39) 
energy

$$$$
39:0
     RDKit          3D

 59 63  0  0  0  0  0  0  0  0999 V2000
   -3.6200   21.1770  -33.0730 C   0  0  0  0  0  0  0  0  0  0  0  0
   -4.6400   20.8840  -32.1240 O   0  0  0  0  0  0  0  0  0  0  0  0
   -5.5000   19.7750  -32.1970 C   0  0  0  0  0  0  0  0  0  0  0  0
   -5.0210   18.4670  -32.4100 C   0  0  0  0  0  0  0  0  0  0  0  0
   -5.9140   17.3930  -32.4790 C   0  0  0  0  0  0  0  0  0  0  0  0
   -7.2860   17.6100  -32.3310 C   0  0  0  0  0  0  0  0  0  0  0  0
   -7.7700   18.9010  -32.1120 C   0  0  0  0  0  0  0  0  0  0  0  0
   -6.8830   19.9830  -32.0500 C   0  0  0  0  0  0  0  0  0  0  0  0
   -7.3860   21.3030  -31.8100 N   0  0  0  0  0  0  0  0  0  0  0  0
   -7.0300   22.4010  -32.7110 C   0  0  0  0  0  0  0  0  0  0  0  0
   -7.1930   23.7520  -31.9980 C   0  0  0  0  0  0  0  0  0  0  0  0
   -6.7240   23.6440  -30.5980 N   0  0  0  0  0  0  0  0  0  0  0  0
   -6.6450   24.9920  -29.9800 C   0  0  0  0  0  0  0  0  0  0  0  0
   -5.3400   25.7290  -30.3280 C   0  0  0  0  0  0  0  0  0  0  0  0
   -4.3520   24.7860  -30.8420 N   0  0  0  0  0  0  0  0  0  0  0  0
   -3.5010   23.9560  -30.0400 C   0  0  0  0  0  0  0  0  0  0  0  0
   -3.3630   22.7460  -30.3580 O   0  0  0  0  0  0  0  0  0  0  0  0
   -2.8330   24.4540  -28.8220 C   0  0  0  0  0  0  0  0  0  0  0  0
   -3.5510   24.4960  -27.5990 C   0  0  0  0  0  0  0  0  0  0  0  0
   -2.9460   24.9770  -26.4240 C   0  0  0  0  0  0  0  0  0  0  0  0
   -1.6220   25.3950  -26.5070 C   0  0  0  0  0  0  0  0  0  0  0  0
   -0.9060   25.3390  -27.6830 C   0  0  0  0  0  0  0  0  0  0  0  0
   -1.4810   24.8660  -28.8600 C   0  0  0  0  0  0  0  0  0  0  0  0
    0.3250   25.7830  -27.5140 O   0  0  0  0  0  0  0  0  0  0  0  0
    0.4260   26.1330  -26.2460 C   0  0  0  0  0  0  0  0  0  0  0  0
    1.5390   26.6650  -25.5980 C   0  0  0  0  0  0  0  0  0  0  0  0
    1.4190   26.9730  -24.2290 C   0  0  0  0  0  0  0  0  0  0  0  0
    0.2040   26.7430  -23.5430 C   0  0  0  0  0  0  0  0  0  0  0  0
   -0.9080   26.2040  -24.2190 C   0  0  0  0  0  0  0  0  0  0  0  0
   -0.7580   25.9120  -25.5730 C   0  0  0  0  0  0  0  0  0  0  0  0
   -7.5870   22.7250  -29.7990 C   0  0  0  0  0  0  0  0  0  0  0  0
   -8.1980   21.5720  -30.6240 C   0  0  0  0  0  0  0  0  0  0  0  0
   -2.6929   21.4433  -32.5443 H   0  0  0  0  0  0  0  0  0  0  0  0
   -3.4416   20.2938  -33.7040 H   0  0  0  0  0  0  0  0  0  0  0  0
   -3.9375   22.0203  -33.7040 H   0  0  0  0  0  0  0  0  0  0  0  0
   -3.9411   18.2902  -32.5224 H   0  0  0  0  0  0  0  0  0  0  0  0
   -5.5350   16.3746  -32.6503 H   0  0  0  0  0  0  0  0  0  0  0  0
   -7.9856   16.7630  -32.3871 H   0  0  0  0  0  0  0  0  0  0  0  0
   -8.8500   19.0687  -31.9879 H   0  0  0  0  0  0  0  0  0  0  0  0
   -5.9840   22.2834  -33.0303 H   0  0  0  0  0  0  0  0  0  0  0  0
   -7.6968   22.3759  -33.5855 H   0  0  0  0  0  0  0  0  0  0  0  0
   -6.6000   24.5152  -32.5232 H   0  0  0  0  0  0  0  0  0  0  0  0
   -8.2553   24.0375  -32.0025 H   0  0  0  0  0  0  0  0  0  0  0  0
   -5.7550   23.2430  -30.6250 H   0  0  0  0  0  0  0  0  0  0  0  0
   -7.4945   25.5930  -30.3366 H   0  0  0  0  0  0  0  0  0  0  0  0
   -6.6707   24.8591  -28.8884 H   0  0  0  0  0  0  0  0  0  0  0  0
   -5.5463   26.4924  -31.0927 H   0  0  0  0  0  0  0  0  0  0  0  0
   -4.9432   26.2060  -29.4197 H   0  0  0  0  0  0  0  0  0  0  0  0
   -4.5941   24.1480  -27.5694 H   0  0  0  0  0  0  0  0  0  0  0  0
   -3.4995   25.0210  -25.4744 H   0  0  0  0  0  0  0  0  0  0  0  0
   -0.8999   24.8144  -29.7926 H   0  0  0  0  0  0  0  0  0  0  0  0
    2.4812   26.8388  -26.1384 H   0  0  0  0  0  0  0  0  0  0  0  0
    2.2783   27.3964  -23.6884 H   0  0  0  0  0  0  0  0  0  0  0  0
    0.1267   26.9869  -22.4732 H   0  0  0  0  0  0  0  0  0  0  0  0
   -1.8590   26.0205  -23.6975 H   0  0  0  0  0  0  0  0  0  0  0  0
   -6.9779   22.2901  -28.9929 H   0  0  0  0  0  0  0  0  0  0  0  0
   -8.4256   23.3247  -29.4153 H   0  0  0  0  0  0  0  0  0  0  0  0
   -8.2415   20.6657  -30.0021 H   0  0  0  0  0  0  0  0  0  0  0  0
   -9.2097   21.8617  -30.9444 H   0  0  0  0  0  0  0  0  0  0  0  0
  1  2  1  0
  2  3  1  0
  3  4  2  0
  4  5  1  0
  5  6  2  0
  6  7  1  0
  7  8  2  0
  8  9  1  0
  9 10  1  0
 10 11  1  0
 11 12  1  0
 12 13  1  0
 13 14  1  0
 14 15  1  0
 15 16  1  0
 16 17  2  0
 16 18  1  0
 18 19  2  0
 19 20  1  0
 20 21  2  0
 21 22  1  0
 22 23  2  0
 22 24  1  0
 24 25  1  0
 25 26  2  0
 26 27  1  0
 27 28  2  0
 28 29  1  0
 29 30  2  0
 12 31  1  0
 31 32  1  0
  8  3  1  0
 32  9  1  0
 23 18  1  0
 30 25  1  0
 30 21  1  0
  1 33  1  0
  1 34  1  0
  1 35  1  0
  4 36  1  0
  5 37  1  0
  6 38  1  0
  7 39  1  0
 10 40  1  0
 10 41  1  0
 11 42  1  0
 11 43  1  0
 12 44  1  0
 13 45  1  0
 13 46  1  0
 14 47  1  0
 14 48  1  0
 19 49  1  0
 20 50  1  0
 23 51  1  0
 26 52  1  0
 27 53  1  0
 28 54  1  0
 29 55  1  0
 31 56  1  0
 31 57  1  0
 32 58  1  0
 32 59  1  0
M  CHG  2  12   1  15  -1
M  END
>  <UniqueID>  (40) 
36

>  <SMILES>  (40) 
COc1ccccc1N1CC[NH+](CC[N-]C(=O)c2ccc3c(c2)oc2ccccc23)CC1

>  <Energy>  (40) 
120.26331946786962

>  <Genealogy>  (40) 
COc1ccccc1N1CC[NH+](CC[N-]C(=O)c2ccc3c(c2)oc2ccccc23)CC1 (protonated)
COc1ccccc1N1CC[NH+](CC[N-]C(=O)c2ccc3c(c2)oc2ccccc23)CC1 (3D coordinates assigned)
COc1ccccc1N1CC[NH+](CC[N-]C(=O)c2ccc3c(c2)oc2ccccc23)CC1 (nonaromatic ring conformer: 120.26331946786962 kcal/mol)

>  <smiles>  (40) 
COc1ccccc1N1CCN(CCNC(=O)c2ccc3c(c2)oc2ccccc23)CC1

>  <score_type>  (40) 
oracle

>  <origin>  (40) 
adg

>  <m_score__min__energy>  (40) 
-10.460000000000001

>  <m_primary>  (40) 
energy

$$$$
40:0
     RDKit          3D

 41 43  0  0  0  0  0  0  0  0999 V2000
   -7.3142   17.8368  -31.4877 H   0  0  0  0  0  0  0  0  0  0  0  0
   -6.7990   18.5740  -32.1210 C   0  0  0  0  0  0  0  0  0  0  0  0
   -6.4740   19.7920  -31.6180 N   0  0  0  0  0  0  0  0  0  0  0  0
   -5.8230   20.7210  -32.3710 C   0  0  0  0  0  0  0  0  0  0  0  0
   -5.5110   22.0160  -31.8210 N   0  0  0  0  0  0  0  0  0  0  0  0
   -6.4330   22.9450  -31.6080 N   0  0  0  0  0  0  0  0  0  0  0  0
   -5.8170   24.0210  -31.0810 C   0  0  0  0  0  0  0  0  0  0  0  0
   -6.4560   25.2150  -30.7390 O   0  0  0  0  0  0  0  0  0  0  0  0
   -6.4840   25.7010  -29.4030 C   0  0  0  0  0  0  0  0  0  0  0  0
   -6.4352   24.8535  -28.7034 H   0  0  0  0  0  0  0  0  0  0  0  0
   -5.6226   26.3644  -29.2360 H   0  0  0  0  0  0  0  0  0  0  0  0
   -7.4159   26.2611  -29.2360 H   0  0  0  0  0  0  0  0  0  0  0  0
   -4.4770   23.7660  -30.9340 C   0  0  0  0  0  0  0  0  0  0  0  0
   -3.4910   24.7040  -30.4790 N   0  0  0  0  0  0  0  0  0  0  0  0
   -3.0620   24.8050  -29.2560 C   0  0  0  0  0  0  0  0  0  0  0  0
   -1.9130   25.4820  -28.9670 N   0  0  0  0  0  0  0  0  0  0  0  0
   -1.4390   25.5860  -27.6970 C   0  0  0  0  0  0  0  0  0  0  0  0
    0.0370   26.4800  -27.3940 Cl  0  0  0  0  0  0  0  0  0  0  0  0
   -2.1280   24.9820  -26.6430 C   0  0  0  0  0  0  0  0  0  0  0  0
   -1.7520   25.0649  -25.6126 H   0  0  0  0  0  0  0  0  0  0  0  0
   -3.2990   24.2720  -26.9120 C   0  0  0  0  0  0  0  0  0  0  0  0
   -3.8501   23.7873  -26.0926 H   0  0  0  0  0  0  0  0  0  0  0  0
   -3.7700   24.1780  -28.2240 C   0  0  0  0  0  0  0  0  0  0  0  0
   -4.6896   23.6159  -28.4442 H   0  0  0  0  0  0  0  0  0  0  0  0
   -4.2940   22.4900  -31.4460 C   0  0  0  0  0  0  0  0  0  0  0  0
   -2.9780   21.8050  -31.6840 C   0  0  0  0  0  0  0  0  0  0  0  0
   -2.5112   21.5620  -30.7181 H   0  0  0  0  0  0  0  0  0  0  0  0
   -3.1444   20.8791  -32.2541 H   0  0  0  0  0  0  0  0  0  0  0  0
   -2.3150   22.4724  -32.2541 H   0  0  0  0  0  0  0  0  0  0  0  0
   -5.4990   20.4270  -33.6630 N   0  0  0  0  0  0  0  0  0  0  0  0
   -4.9970   21.1270  -34.2550 H   0  0  0  0  0  0  0  0  0  0  0  0
   -5.8050   19.2180  -34.2040 C   0  0  0  0  0  0  0  0  0  0  0  0
   -5.5218   18.9947  -35.2432 H   0  0  0  0  0  0  0  0  0  0  0  0
   -6.4790   18.2570  -33.4430 C   0  0  0  0  0  0  0  0  0  0  0  0
   -6.7960   16.9000  -34.0130 C   0  0  0  0  0  0  0  0  0  0  0  0
   -6.8915   16.9810  -35.1059 H   0  0  0  0  0  0  0  0  0  0  0  0
   -7.7386   16.5433  -33.5723 H   0  0  0  0  0  0  0  0  0  0  0  0
   -5.6920   15.9030  -33.6800 C   0  0  0  0  0  0  0  0  0  0  0  0
   -5.5946   15.8150  -32.5879 H   0  0  0  0  0  0  0  0  0  0  0  0
   -5.9443   14.9207  -34.1059 H   0  0  0  0  0  0  0  0  0  0  0  0
   -4.7404   16.2538  -34.1059 H   0  0  0  0  0  0  0  0  0  0  0  0
  1  2  1  0
  2  3  2  0
  3  4  1  0
  4  5  1  0
  5  6  1  0
  6  7  2  0
  7  8  1  0
  8  9  1  0
  9 10  1  0
  9 11  1  0
  9 12  1  0
  7 13  1  0
 13 14  1  0
 14 15  2  0
 15 16  1  0
 16 17  1  0
 17 18  1  0
 17 19  2  0
 19 20  1  0
 19 21  1  0
 21 22  1  0
 21 23  2  0
 23 24  1  0
 13 25  2  0
 25 26  1  0
 26 27  1  0
 26 28  1  0
 26 29  1  0
  4 30  2  0
 30 31  1  0
 30 32  1  0
 32 33  1  0
 32 34  2  0
 34 35  1  0
 35 36  1  0
 35 37  1  0
 35 38  1  0
 38 39  1  0
 38 40  1  0
 38 41  1  0
 34  2  1  0
 25  5  1  0
 23 15  1  0
M  CHG  2  16  -1  30   1
M  END
>  <UniqueID>  (41) 
37

>  <SMILES>  (41) 
CCc1cnc(-n2nc(OC)c(/N=c3/cccc(Cl)[n-]3)c2C)[nH+]c1

>  <Energy>  (41) 
79.18812790263183

>  <Genealogy>  (41) 
CCc1cnc(-n2nc(OC)c(N=c3cccc(Cl)[n-]3)c2C)[nH+]c1 (protonated)
CCc1cnc(-n2nc(OC)c(/N=c3/cccc(Cl)[n-]3)c2C)[nH+]c1 (cis-trans isomerization)
CCc1cnc(-n2nc(OC)c(/N=c3/cccc(Cl)[n-]3)c2C)[nH+]c1 (3D coordinates assigned)
CCc1cnc(-n2nc(OC)c(/N=c3/cccc(Cl)[n-]3)c2C)[nH+]c1 (optimized conformer: 79.18812790263183 kcal/mol)

>  <smiles>  (41) 
CCc1cnc(-n2nc(OC)c(N=c3cccc(Cl)[nH]3)c2C)nc1

>  <score_type>  (41) 
oracle

>  <origin>  (41) 
adg

>  <m_score__min__energy>  (41) 
-9.3100000000000005

>  <m_primary>  (41) 
energy

$$$$
41:0
     RDKit          3D

 47 49  0  0  0  0  0  0  0  0999 V2000
   -8.7040   18.5930  -32.6240 C   0  0  0  0  0  0  0  0  0  0  0  0
   -8.7430   19.2470  -31.2430 C   0  0  0  0  0  0  0  0  0  0  0  0
   -8.7590   20.7960  -31.3190 C   0  0  0  0  0  0  0  0  0  0  0  0
   -7.6190   21.4050  -32.0410 N   0  0  0  0  0  0  0  0  0  0  0  0
   -6.3780   20.6280  -31.9430 C   0  0  0  0  0  0  0  0  0  0  0  0
   -5.3710   21.1810  -32.9480 C   0  0  0  0  0  0  0  0  0  0  0  0
   -5.0620   22.6120  -32.7070 N   0  0  0  0  0  0  0  0  0  0  0  0
   -4.0730   22.7870  -31.6470 C   0  0  0  0  0  0  0  0  0  0  0  0
   -2.9530   22.0530  -31.5370 C   0  0  0  0  0  0  0  0  0  0  0  0
   -2.3980   20.8070  -32.6460 Cl  0  0  0  0  0  0  0  0  0  0  0  0
   -2.2050   22.5120  -30.3730 C   0  0  0  0  0  0  0  0  0  0  0  0
   -1.1330   21.9990  -29.9540 O   0  0  0  0  0  0  0  0  0  0  0  0
   -2.8780   23.5940  -29.7440 N   0  0  0  0  0  0  0  0  0  0  0  0
   -2.4690   24.3510  -28.5910 C   0  0  0  0  0  0  0  0  0  0  0  0
   -1.2500   25.0480  -28.5970 C   0  0  0  0  0  0  0  0  0  0  0  0
   -0.8510   25.7870  -27.4800 C   0  0  0  0  0  0  0  0  0  0  0  0
   -1.6570   25.8280  -26.3330 C   0  0  0  0  0  0  0  0  0  0  0  0
   -1.2460   26.6520  -25.1490 C   0  0  0  0  0  0  0  0  0  0  0  0
   -2.8830   25.1470  -26.3290 C   0  0  0  0  0  0  0  0  0  0  0  0
   -3.2840   24.4100  -27.4470 C   0  0  0  0  0  0  0  0  0  0  0  0
   -4.0280   23.7940  -30.5590 C   0  0  0  0  0  0  0  0  0  0  0  0
   -4.7840   24.7930  -30.4360 O   0  0  0  0  0  0  0  0  0  0  0  0
   -6.2950   23.4330  -32.5820 C   0  0  0  0  0  0  0  0  0  0  0  0
   -7.3790   22.8090  -31.6730 C   0  0  0  0  0  0  0  0  0  0  0  0
   -8.6389   17.5008  -32.5108 H   0  0  0  0  0  0  0  0  0  0  0  0
   -9.6191   18.8503  -33.1775 H   0  0  0  0  0  0  0  0  0  0  0  0
   -7.8260   18.9572  -33.1775 H   0  0  0  0  0  0  0  0  0  0  0  0
   -9.6495   18.9103  -30.7188 H   0  0  0  0  0  0  0  0  0  0  0  0
   -7.8305   18.9484  -30.7061 H   0  0  0  0  0  0  0  0  0  0  0  0
   -9.6856   21.1019  -31.8268 H   0  0  0  0  0  0  0  0  0  0  0  0
   -8.6875   21.1526  -30.2809 H   0  0  0  0  0  0  0  0  0  0  0  0
   -5.9688   20.7116  -30.9254 H   0  0  0  0  0  0  0  0  0  0  0  0
   -6.5815   19.5693  -32.1617 H   0  0  0  0  0  0  0  0  0  0  0  0
   -4.4398   20.6004  -32.8716 H   0  0  0  0  0  0  0  0  0  0  0  0
   -5.8158   21.0972  -33.9505 H   0  0  0  0  0  0  0  0  0  0  0  0
   -4.5920   22.9580  -33.5780 H   0  0  0  0  0  0  0  0  0  0  0  0
   -0.6047   25.0121  -29.4871 H   0  0  0  0  0  0  0  0  0  0  0  0
    0.1001   26.3393  -27.5005 H   0  0  0  0  0  0  0  0  0  0  0  0
   -1.5109   26.1208  -24.2229 H   0  0  0  0  0  0  0  0  0  0  0  0
   -0.1591   26.8188  -25.1779 H   0  0  0  0  0  0  0  0  0  0  0  0
   -1.7665   27.6206  -25.1779 H   0  0  0  0  0  0  0  0  0  0  0  0
   -3.5320   25.1930  -25.4420 H   0  0  0  0  0  0  0  0  0  0  0  0
   -4.2437   23.8726  -27.4316 H   0  0  0  0  0  0  0  0  0  0  0  0
   -6.0171   24.4126  -32.1659 H   0  0  0  0  0  0  0  0  0  0  0  0
   -6.7301   23.5076  -33.5895 H   0  0  0  0  0  0  0  0  0  0  0  0
   -7.0438   22.8560  -30.6264 H   0  0  0  0  0  0  0  0  0  0  0  0
   -8.3148   23.3732  -31.7990 H   0  0  0  0  0  0  0  0  0  0  0  0
  1  2  1  0
  2  3  1  0
  3  4  1  0
  4  5  1  0
  5  6  1  0
  6  7  1  0
  7  8  1  0
  8  9  2  0
  9 10  1  0
  9 11  1  0
 11 12  2  0
 11 13  1  0
 13 14  1  0
 14 15  2  0
 15 16  1  0
 16 17  2  0
 17 18  1  0
 17 19  1  0
 19 20  2  0
 13 21  1  0
 21 22  2  0
  7 23  1  0
 23 24  1  0
 24  4  1  0
 21  8  1  0
 20 14  1  0
  1 25  1  0
  1 26  1  0
  1 27  1  0
  2 28  1  0
  2 29  1  0
  3 30  1  0
  3 31  1  0
  5 32  1  0
  5 33  1  0
  6 34  1  0
  6 35  1  0
  7 36  1  0
 15 37  1  0
 16 38  1  0
 18 39  1  0
 18 40  1  0
 18 41  1  0
 19 42  1  0
 20 43  1  0
 23 44  1  0
 23 45  1  0
 24 46  1  0
 24 47  1  0
M  CHG  1   7   1
M  END
>  <UniqueID>  (42) 
38

>  <SMILES>  (42) 
CCCN1CC[NH+](C2=C(Cl)C(=O)N(c3ccc(C)cc3)C2=O)CC1

>  <Energy>  (42) 
93.87562551988098

>  <Genealogy>  (42) 
CCCN1CC[NH+](C2=C(Cl)C(=O)N(c3ccc(C)cc3)C2=O)CC1 (protonated)
CCCN1CC[NH+](C2=C(Cl)C(=O)N(c3ccc(C)cc3)C2=O)CC1 (3D coordinates assigned)
CCCN1CC[NH+](C2=C(Cl)C(=O)N(c3ccc(C)cc3)C2=O)CC1 (nonaromatic ring conformer: 93.87562551988098 kcal/mol)

>  <smiles>  (42) 
CCCN1CCN(C2=C(Cl)C(=O)N(c3ccc(C)cc3)C2=O)CC1

>  <score_type>  (42) 
oracle

>  <origin>  (42) 
adg

>  <m_score__min__energy>  (42) 
-7.9000000000000004

>  <m_primary>  (42) 
energy

$$$$
42:0
     RDKit          3D

 38 39  0  0  0  0  0  0  0  0999 V2000
   -9.1641   22.3784  -30.8849 H   0  0  0  0  0  0  0  0  0  0  0  0
   -8.1410   22.3400  -31.2870 C   0  0  0  0  0  0  0  0  0  0  0  0
   -7.2290   23.3520  -30.9710 C   0  0  0  0  0  0  0  0  0  0  0  0
   -7.5319   24.1750  -30.3070 H   0  0  0  0  0  0  0  0  0  0  0  0
   -5.9240   23.3210  -31.5000 C   0  0  0  0  0  0  0  0  0  0  0  0
   -4.9460   24.3260  -31.1780 N   0  0  0  0  0  0  0  0  0  0  0  0
   -3.8540   24.1610  -30.4870 C   0  0  0  0  0  0  0  0  0  0  0  0
   -2.9340   23.2250  -30.8410 N   0  0  0  0  0  0  0  0  0  0  0  0
   -1.8000   23.0240  -30.1180 C   0  0  0  0  0  0  0  0  0  0  0  0
   -0.8800   22.0470  -30.5180 O   0  0  0  0  0  0  0  0  0  0  0  0
   -1.2180   20.9910  -31.4090 C   0  0  0  0  0  0  0  0  0  0  0  0
   -1.5032   20.1001  -30.8303 H   0  0  0  0  0  0  0  0  0  0  0  0
   -2.0615   21.3019  -32.0429 H   0  0  0  0  0  0  0  0  0  0  0  0
   -0.3507   20.7543  -32.0429 H   0  0  0  0  0  0  0  0  0  0  0  0
   -1.5670   23.7910  -28.9630 C   0  0  0  0  0  0  0  0  0  0  0  0
   -0.3320   23.6140  -28.1550 C   0  0  0  0  0  0  0  0  0  0  0  0
    0.6910   24.3020  -28.4330 O   0  0  0  0  0  0  0  0  0  0  0  0
   -0.2710   22.6560  -26.9860 C   0  0  0  0  0  0  0  0  0  0  0  0
    0.7232   22.1855  -26.9738 H   0  0  0  0  0  0  0  0  0  0  0  0
   -1.3290   21.5590  -27.1430 C   0  0  0  0  0  0  0  0  0  0  0  0
   -1.6560   21.2200  -26.1489 H   0  0  0  0  0  0  0  0  0  0  0  0
   -2.1918   21.9582  -27.6964 H   0  0  0  0  0  0  0  0  0  0  0  0
   -0.8988   20.7112  -27.6964 H   0  0  0  0  0  0  0  0  0  0  0  0
   -0.4600   23.4030  -25.6590 C   0  0  0  0  0  0  0  0  0  0  0  0
   -0.2852   22.7120  -24.8211 H   0  0  0  0  0  0  0  0  0  0  0  0
    0.2556   24.2365  -25.6023 H   0  0  0  0  0  0  0  0  0  0  0  0
   -1.4859   23.7959  -25.6023 H   0  0  0  0  0  0  0  0  0  0  0  0
   -2.5350   24.7460  -28.6110 C   0  0  0  0  0  0  0  0  0  0  0  0
   -2.3877   25.3687  -27.7163 H   0  0  0  0  0  0  0  0  0  0  0  0
   -3.6510   24.9060  -29.3670 N   0  0  0  0  0  0  0  0  0  0  0  0
   -4.3570   25.6230  -29.0820 H   0  0  0  0  0  0  0  0  0  0  0  0
   -5.5370   22.2390  -32.3020 C   0  0  0  0  0  0  0  0  0  0  0  0
   -4.5080   22.1852  -32.6871 H   0  0  0  0  0  0  0  0  0  0  0  0
   -6.4490   21.2280  -32.6160 C   0  0  0  0  0  0  0  0  0  0  0  0
   -6.1401   20.3908  -33.2592 H   0  0  0  0  0  0  0  0  0  0  0  0
   -7.7550   21.2780  -32.1140 C   0  0  0  0  0  0  0  0  0  0  0  0
   -8.6930   20.2370  -32.4370 C   0  0  0  0  0  0  0  0  0  0  0  0
   -9.4490   19.3980  -32.6960 N   0  0  0  0  0  0  0  0  0  0  0  0
  1  2  1  0
  2  3  2  0
  3  4  1  0
  3  5  1  0
  5  6  1  0
  6  7  2  0
  7  8  1  0
  8  9  2  0
  9 10  1  0
 10 11  1  0
 11 12  1  0
 11 13  1  0
 11 14  1  0
  9 15  1  0
 15 16  1  0
 16 17  2  0
 16 18  1  0
 18 19  1  0
 18 20  1  0
 20 21  1  0
 20 22  1  0
 20 23  1  0
 18 24  1  0
 24 25  1  0
 24 26  1  0
 24 27  1  0
 15 28  2  0
 28 29  1  0
 28 30  1  0
 30 31  1  0
  5 32  2  0
 32 33  1  0
 32 34  1  0
 34 35  1  0
 34 36  2  0
 36 37  1  0
 37 38  3  0
 36  2  1  0
 30  7  1  0
M  END
>  <UniqueID>  (43) 
39

>  <SMILES>  (43) 
COc1n/c(=N\c2ccc(C#N)cc2)[nH]cc1C(=O)C(C)C

>  <Energy>  (43) 
40.73558099414943

>  <Genealogy>  (43) 
COc1n/c(=N\c2ccc(C#N)cc2)[nH]cc1C(=O)C(C)C (cis-trans isomerization)
COc1n/c(=N\c2ccc(C#N)cc2)[nH]cc1C(=O)C(C)C (3D coordinates assigned)
COc1n/c(=N\c2ccc(C#N)cc2)[nH]cc1C(=O)C(C)C (optimized conformer: 40.73558099414943 kcal/mol)

>  <smiles>  (43) 
COc1nc(=Nc2ccc(C#N)cc2)[nH]cc1C(=O)C(C)C

>  <score_type>  (43) 
oracle

>  <origin>  (43) 
adg

>  <m_score__min__energy>  (43) 
-7.6699999999999999

>  <m_primary>  (43) 
energy

$$$$
43:0
     RDKit          3D

 54 56  0  0  0  0  0  0  0  0999 V2000
   -5.0150   19.4530  -31.2190 S   0  0  0  0  0  0  0  0  0  0  0  0
   -5.3250   20.3600  -32.5580 C   0  0  0  0  0  0  0  0  0  0  0  0
   -4.4000   21.3940  -32.9530 N   0  0  0  0  0  0  0  0  0  0  0  0
   -2.9770   21.3140  -32.7690 C   0  0  0  0  0  0  0  0  0  0  0  0
   -2.1760   20.8020  -33.8010 C   0  0  0  0  0  0  0  0  0  0  0  0
   -0.7920   20.6880  -33.6300 C   0  0  0  0  0  0  0  0  0  0  0  0
   -0.2020   21.0670  -32.4210 C   0  0  0  0  0  0  0  0  0  0  0  0
   -0.9950   21.5560  -31.3800 C   0  0  0  0  0  0  0  0  0  0  0  0
   -2.3780   21.6730  -31.5490 C   0  0  0  0  0  0  0  0  0  0  0  0
   -6.6080   20.2310  -33.2250 N   0  0  2  0  0  0  0  0  0  0  0  0
   -7.5600   19.5480  -32.3150 C   0  0  0  0  0  0  0  0  0  0  0  0
   -8.9470   20.2240  -32.2890 C   0  0  0  0  0  0  0  0  0  0  0  0
   -8.9160   21.5710  -31.5510 C   0  0  0  0  0  0  0  0  0  0  0  0
   -7.5640   22.1730  -31.5640 N   0  0  0  0  0  0  0  0  0  0  0  0
   -7.5300   23.4200  -32.3600 C   0  0  0  0  0  0  0  0  0  0  0  0
   -6.1920   24.1630  -32.1730 C   0  0  0  0  0  0  0  0  0  0  0  0
   -5.2440   23.3440  -31.5200 O   0  0  0  0  0  0  0  0  0  0  0  0
   -5.6880   23.0570  -30.2060 C   0  0  0  0  0  0  0  0  0  0  0  0
   -7.1050   22.4420  -30.1900 C   0  0  0  0  0  0  0  0  0  0  0  0
   -6.4690   19.5140  -34.5180 C   0  0  0  0  0  0  0  0  0  0  0  0
   -5.7580   18.1890  -34.3600 C   0  0  0  0  0  0  0  0  0  0  0  0
   -4.3730   18.1010  -34.5760 C   0  0  0  0  0  0  0  0  0  0  0  0
   -3.7080   16.8840  -34.3900 C   0  0  0  0  0  0  0  0  0  0  0  0
   -4.4190   15.7520  -33.9840 C   0  0  0  0  0  0  0  0  0  0  0  0
   -5.7960   15.8330  -33.7620 C   0  0  0  0  0  0  0  0  0  0  0  0
   -6.4660   17.0470  -33.9460 C   0  0  0  0  0  0  0  0  0  0  0  0
   -4.7780   22.2580  -33.4010 H   0  0  0  0  0  0  0  0  0  0  0  0
   -2.6382   20.4888  -34.7488 H   0  0  0  0  0  0  0  0  0  0  0  0
   -0.1675   20.2996  -34.4481 H   0  0  0  0  0  0  0  0  0  0  0  0
    0.8866   20.9803  -32.2892 H   0  0  0  0  0  0  0  0  0  0  0  0
   -0.5310   21.8492  -30.4267 H   0  0  0  0  0  0  0  0  0  0  0  0
   -3.0005   22.0479  -30.7231 H   0  0  0  0  0  0  0  0  0  0  0  0
   -6.9820   21.1910  -33.4200 H   0  0  0  0  0  0  0  0  0  0  0  0
   -7.6818   18.5072  -32.6496 H   0  0  0  0  0  0  0  0  0  0  0  0
   -7.1446   19.6019  -31.2979 H   0  0  0  0  0  0  0  0  0  0  0  0
   -9.2791   20.3934  -33.3239 H   0  0  0  0  0  0  0  0  0  0  0  0
   -9.6398   19.5585  -31.7532 H   0  0  0  0  0  0  0  0  0  0  0  0
   -9.6182   22.2617  -32.0407 H   0  0  0  0  0  0  0  0  0  0  0  0
   -9.2018   21.3941  -30.5036 H   0  0  0  0  0  0  0  0  0  0  0  0
   -7.6565   23.1704  -33.4238 H   0  0  0  0  0  0  0  0  0  0  0  0
   -8.3440   24.0754  -32.0166 H   0  0  0  0  0  0  0  0  0  0  0  0
   -5.7996   24.4508  -33.1595 H   0  0  0  0  0  0  0  0  0  0  0  0
   -6.3702   25.0544  -31.5536 H   0  0  0  0  0  0  0  0  0  0  0  0
   -4.9880   22.3459  -29.7430 H   0  0  0  0  0  0  0  0  0  0  0  0
   -5.7246   24.0040  -29.6476 H   0  0  0  0  0  0  0  0  0  0  0  0
   -7.0845   21.4992  -29.6237 H   0  0  0  0  0  0  0  0  0  0  0  0
   -7.7972   23.1532  -29.7155 H   0  0  0  0  0  0  0  0  0  0  0  0
   -7.4717   19.3314  -34.9319 H   0  0  0  0  0  0  0  0  0  0  0  0
   -5.8678   20.1429  -35.1912 H   0  0  0  0  0  0  0  0  0  0  0  0
   -3.8095   18.9912  -34.8922 H   0  0  0  0  0  0  0  0  0  0  0  0
   -2.6238   16.8185  -34.5637 H   0  0  0  0  0  0  0  0  0  0  0  0
   -3.8943   14.7962  -33.8390 H   0  0  0  0  0  0  0  0  0  0  0  0
   -6.3541   14.9407  -33.4420 H   0  0  0  0  0  0  0  0  0  0  0  0
   -7.5495   17.1084  -33.7664 H   0  0  0  0  0  0  0  0  0  0  0  0
  1  2  2  0
  2  3  1  0
  3  4  1  0
  4  5  2  0
  5  6  1  0
  6  7  2  0
  7  8  1  0
  8  9  2  0
  2 10  1  0
 10 11  1  0
 11 12  1  0
 12 13  1  0
 13 14  1  0
 14 15  1  0
 15 16  1  0
 16 17  1  0
 17 18  1  0
 18 19  1  0
 10 20  1  0
 20 21  1  0
 21 22  2  0
 22 23  1  0
 23 24  2  0
 24 25  1  0
 25 26  2  0
  9  4  1  0
 19 14  1  0
 26 21  1  0
  3 27  1  0
  5 28  1  0
  6 29  1  0
  7 30  1  0
  8 31  1  0
  9 32  1  0
 10 33  1  6
 11 34  1  0
 11 35  1  0
 12 36  1  0
 12 37  1  0
 13 38  1  0
 13 39  1  0
 15 40  1  0
 15 41  1  0
 16 42  1  0
 16 43  1  0
 18 44  1  0
 18 45  1  0
 19 46  1  0
 19 47  1  0
 20 48  1  0
 20 49  1  0
 22 50  1  0
 23 51  1  0
 24 52  1  0
 25 53  1  0
 26 54  1  0
M  CHG  1  10   1
M  END
>  <UniqueID>  (44) 
40

>  <SMILES>  (44) 
S=C(Nc1ccccc1)[N@H+](CCCN1CCOCC1)Cc1ccccc1

>  <Energy>  (44) 
69.9507678690541

>  <Genealogy>  (44) 
S=C(Nc1ccccc1)[NH+](CCCN1CCOCC1)Cc1ccccc1 (protonated)
S=C(Nc1ccccc1)[N@H+](CCCN1CCOCC1)Cc1ccccc1 (chirality)
S=C(Nc1ccccc1)[N@H+](CCCN1CCOCC1)Cc1ccccc1 (3D coordinates assigned)
S=C(Nc1ccccc1)[N@H+](CCCN1CCOCC1)Cc1ccccc1 (nonaromatic ring conformer: 69.9507678690541 kcal/mol)

>  <smiles>  (44) 
S=C(Nc1ccccc1)N(CCCN1CCOCC1)Cc1ccccc1

>  <score_type>  (44) 
oracle

>  <origin>  (44) 
adg

>  <m_score__min__energy>  (44) 
-8.2400000000000002

>  <m_primary>  (44) 
energy

$$$$
44:0
     RDKit          3D

 27 28  0  0  0  0  0  0  0  0999 V2000
   -7.6080   22.5210  -29.6600 C   0  0  0  0  0  0  0  0  0  0  0  0
   -6.1040   22.7680  -29.8250 C   0  0  2  0  0  0  0  0  0  0  0  0
   -5.7830   24.1590  -29.5390 N   0  0  0  0  0  0  0  0  0  0  0  0
   -4.8390   24.5640  -30.5010 C   0  0  0  0  0  0  0  0  0  0  0  0
   -4.2500   25.6760  -30.4730 O   0  0  0  0  0  0  0  0  0  0  0  0
   -4.6090   23.6040  -31.4600 O   0  0  0  0  0  0  0  0  0  0  0  0
   -5.4670   22.4820  -31.2490 C   0  0  0  0  0  0  0  0  0  0  0  0
   -6.4790   22.4510  -32.4420 C   0  0  0  0  0  0  0  0  0  0  0  0
   -6.8540   21.0230  -32.8620 C   0  0  0  0  0  0  0  0  0  0  0  0
   -5.6160   20.2280  -33.3220 C   0  0  0  0  0  0  0  0  0  0  0  0
   -4.3180   20.6450  -32.6030 C   0  0  0  0  0  0  0  0  0  0  0  0
   -4.6010   21.1940  -31.2010 C   0  0  0  0  0  0  0  0  0  0  0  0
   -7.8576   22.4800  -28.5895 H   0  0  0  0  0  0  0  0  0  0  0  0
   -8.1683   23.3392  -30.1361 H   0  0  0  0  0  0  0  0  0  0  0  0
   -7.8772   21.5666  -30.1361 H   0  0  0  0  0  0  0  0  0  0  0  0
   -5.6779   22.0391  -29.1200 H   0  0  0  0  0  0  0  0  0  0  0  0
   -6.0000   24.6690  -28.6540 H   0  0  0  0  0  0  0  0  0  0  0  0
   -7.3945   22.9815  -32.1411 H   0  0  0  0  0  0  0  0  0  0  0  0
   -5.9938   22.9345  -33.3027 H   0  0  0  0  0  0  0  0  0  0  0  0
   -7.3127   20.5070  -32.0056 H   0  0  0  0  0  0  0  0  0  0  0  0
   -7.5587   21.0840  -33.7045 H   0  0  0  0  0  0  0  0  0  0  0  0
   -5.7950   19.1604  -33.1268 H   0  0  0  0  0  0  0  0  0  0  0  0
   -5.4754   20.4374  -34.3927 H   0  0  0  0  0  0  0  0  0  0  0  0
   -3.6601   19.7677  -32.5167 H   0  0  0  0  0  0  0  0  0  0  0  0
   -3.8380   21.4396  -33.1931 H   0  0  0  0  0  0  0  0  0  0  0  0
   -5.1348   20.4277  -30.6198 H   0  0  0  0  0  0  0  0  0  0  0  0
   -3.6384   21.4469  -30.7326 H   0  0  0  0  0  0  0  0  0  0  0  0
  1  2  1  0
  2  3  1  0
  3  4  1  0
  4  5  2  0
  4  6  1  0
  6  7  1  0
  7  8  1  0
  8  9  1  0
  9 10  1  0
 10 11  1  0
 11 12  1  0
  7  2  1  0
 12  7  1  0
  1 13  1  0
  1 14  1  0
  1 15  1  0
  2 16  1  1
  3 17  1  0
  8 18  1  0
  8 19  1  0
  9 20  1  0
  9 21  1  0
 10 22  1  0
 10 23  1  0
 11 24  1  0
 11 25  1  0
 12 26  1  0
 12 27  1  0
M  END
>  <UniqueID>  (45) 
41

>  <SMILES>  (45) 
C[C@@H]1NC(=O)OC12CCCCC2

>  <Energy>  (45) 
46.47177132112262

>  <Genealogy>  (45) 
C[C@@H]1NC(=O)OC12CCCCC2 (chirality)
C[C@@H]1NC(=O)OC12CCCCC2 (3D coordinates assigned)
C[C@@H]1NC(=O)OC12CCCCC2 (nonaromatic ring conformer: 46.47177132112262 kcal/mol)

>  <smiles>  (45) 
CC1NC(=O)OC12CCCCC2

>  <score_type>  (45) 
oracle

>  <origin>  (45) 
adg

>  <m_score__min__energy>  (45) 
-6.0599999999999996

>  <m_primary>  (45) 
energy

$$$$
45:0
     RDKit          3D

 51 54  0  0  0  0  0  0  0  0999 V2000
   -6.4310   13.9230  -34.2230 C   0  0  0  0  0  0  0  0  0  0  0  0
   -7.0510   15.1950  -34.3920 O   0  0  0  0  0  0  0  0  0  0  0  0
   -6.4960   16.4150  -33.9770 C   0  0  0  0  0  0  0  0  0  0  0  0
   -7.1830   17.2970  -33.1220 C   0  0  0  0  0  0  0  0  0  0  0  0
   -6.6060   18.5140  -32.7340 C   0  0  0  0  0  0  0  0  0  0  0  0
   -5.3090   18.8450  -33.1800 C   0  0  0  0  0  0  0  0  0  0  0  0
   -4.6270   17.9650  -34.0320 C   0  0  0  0  0  0  0  0  0  0  0  0
   -5.2150   16.7520  -34.4360 C   0  0  0  0  0  0  0  0  0  0  0  0
   -4.5550   15.8520  -35.2900 O   0  0  0  0  0  0  0  0  0  0  0  0
   -3.1500   15.8400  -35.5220 C   0  0  0  0  0  0  0  0  0  0  0  0
   -4.6280   20.1300  -32.7680 C   0  0  0  0  0  0  0  0  0  0  0  0
   -5.4730   20.9620  -31.9020 N   0  0  0  0  0  0  0  0  0  0  0  0
   -4.8630   21.9000  -31.0050 C   0  0  0  0  0  0  0  0  0  0  0  0
   -4.1620   21.4200  -29.9460 N   0  0  0  0  0  0  0  0  0  0  0  0
   -3.5360   22.2390  -29.0620 C   0  0  0  0  0  0  0  0  0  0  0  0
   -2.7810   21.6450  -27.9290 C   0  0  0  0  0  0  0  0  0  0  0  0
   -1.8750   22.4060  -27.1690 C   0  0  0  0  0  0  0  0  0  0  0  0
   -1.1900   21.8120  -26.1060 C   0  0  0  0  0  0  0  0  0  0  0  0
   -1.4010   20.5040  -25.8010 N   0  0  0  0  0  0  0  0  0  0  0  0
   -2.2790   19.7440  -26.5100 C   0  0  0  0  0  0  0  0  0  0  0  0
   -2.9850   20.3000  -27.5800 C   0  0  0  0  0  0  0  0  0  0  0  0
   -3.5940   23.6210  -29.2700 C   0  0  0  0  0  0  0  0  0  0  0  0
   -4.3190   24.1130  -30.3560 C   0  0  0  0  0  0  0  0  0  0  0  0
   -4.3550   25.3600  -30.5480 O   0  0  0  0  0  0  0  0  0  0  0  0
   -4.9760   23.2550  -31.2010 N   0  0  0  0  0  0  0  0  0  0  0  0
   -5.7440   23.7870  -32.3390 C   0  0  0  0  0  0  0  0  0  0  0  0
   -6.9290   20.8660  -31.9710 C   0  0  0  0  0  0  0  0  0  0  0  0
   -7.3480   19.4130  -31.7810 C   0  0  0  0  0  0  0  0  0  0  0  0
   -6.3254   13.7063  -33.1497 H   0  0  0  0  0  0  0  0  0  0  0  0
   -7.0519   13.1469  -34.6944 H   0  0  0  0  0  0  0  0  0  0  0  0
   -5.4372   13.9340  -34.6944 H   0  0  0  0  0  0  0  0  0  0  0  0
   -8.1842   17.0282  -32.7541 H   0  0  0  0  0  0  0  0  0  0  0  0
   -3.6198   18.2259  -34.3891 H   0  0  0  0  0  0  0  0  0  0  0  0
   -2.6193   15.8355  -34.5585 H   0  0  0  0  0  0  0  0  0  0  0  0
   -2.8804   14.9395  -36.0934 H   0  0  0  0  0  0  0  0  0  0  0  0
   -2.8650   16.7357  -36.0934 H   0  0  0  0  0  0  0  0  0  0  0  0
   -3.7040   19.8812  -32.2255 H   0  0  0  0  0  0  0  0  0  0  0  0
   -4.4182   20.7049  -33.6821 H   0  0  0  0  0  0  0  0  0  0  0  0
   -1.7061   23.4657  -27.4107 H   0  0  0  0  0  0  0  0  0  0  0  0
   -0.4774   22.4048  -25.5137 H   0  0  0  0  0  0  0  0  0  0  0  0
   -0.8810   20.0730  -25.0030 H   0  0  0  0  0  0  0  0  0  0  0  0
   -2.4335   18.6889  -26.2401 H   0  0  0  0  0  0  0  0  0  0  0  0
   -3.6991   19.6855  -28.1478 H   0  0  0  0  0  0  0  0  0  0  0  0
   -3.0755   24.3101  -28.5872 H   0  0  0  0  0  0  0  0  0  0  0  0
   -6.5942   24.3759  -31.9643 H   0  0  0  0  0  0  0  0  0  0  0  0
   -5.0944   24.4296  -32.9514 H   0  0  0  0  0  0  0  0  0  0  0  0
   -6.1172   22.9530  -32.9514 H   0  0  0  0  0  0  0  0  0  0  0  0
   -7.3759   21.4839  -31.1782 H   0  0  0  0  0  0  0  0  0  0  0  0
   -7.2757   21.2241  -32.9516 H   0  0  0  0  0  0  0  0  0  0  0  0
   -7.1260   19.1057  -30.7484 H   0  0  0  0  0  0  0  0  0  0  0  0
   -8.4260   19.3275  -31.9824 H   0  0  0  0  0  0  0  0  0  0  0  0
  1  2  1  0
  2  3  1  0
  3  4  2  0
  4  5  1  0
  5  6  2  0
  6  7  1  0
  7  8  2  0
  8  9  1  0
  9 10  1  0
  6 11  1  0
 11 12  1  0
 12 13  1  0
 13 14  2  0
 14 15  1  0
 15 16  1  0
 16 17  2  0
 17 18  1  0
 18 19  2  0
 19 20  1  0
 20 21  2  0
 15 22  2  0
 22 23  1  0
 23 24  2  0
 23 25  1  0
 25 26  1  0
 12 27  1  0
 27 28  1  0
  8  3  1  0
 25 13  1  0
 28  5  1  0
 21 16  1  0
  1 29  1  0
  1 30  1  0
  1 31  1  0
  4 32  1  0
  7 33  1  0
 10 34  1  0
 10 35  1  0
 10 36  1  0
 11 37  1  0
 11 38  1  0
 17 39  1  0
 18 40  1  0
 19 41  1  0
 20 42  1  0
 21 43  1  0
 22 44  1  0
 26 45  1  0
 26 46  1  0
 26 47  1  0
 27 48  1  0
 27 49  1  0
 28 50  1  0
 28 51  1  0
M  CHG  1  19   1
M  END
>  <UniqueID>  (46) 
42

>  <SMILES>  (46) 
COc1cc2c(cc1OC)CN(c1nc(-c3cc[nH+]cc3)cc(=O)n1C)CC2

>  <Energy>  (46) 
68.62897211713783

>  <Genealogy>  (46) 
COc1cc2c(cc1OC)CN(c1nc(-c3cc[nH+]cc3)cc(=O)n1C)CC2 (protonated)
COc1cc2c(cc1OC)CN(c1nc(-c3cc[nH+]cc3)cc(=O)n1C)CC2 (3D coordinates assigned)
COc1cc2c(cc1OC)CN(c1nc(-c3cc[nH+]cc3)cc(=O)n1C)CC2 (nonaromatic ring conformer: 68.62897211713783 kcal/mol)

>  <smiles>  (46) 
COc1cc2c(cc1OC)CN(c1nc(-c3ccncc3)cc(=O)n1C)CC2

>  <score_type>  (46) 
oracle

>  <origin>  (46) 
adg

>  <m_score__min__energy>  (46) 
-7.3200000000000003

>  <m_primary>  (46) 
energy

$$$$
46:0
     RDKit          3D

 43 44  0  0  0  0  0  0  0  0999 V2000
   -1.6790   21.9170  -31.3350 C   0  0  0  0  0  0  0  0  0  0  0  0
   -2.7870   21.1740  -32.0240 C   0  0  0  0  0  0  0  0  0  0  0  0
   -3.9750   21.8410  -32.3650 C   0  0  0  0  0  0  0  0  0  0  0  0
   -4.9940   21.1600  -33.0360 C   0  0  0  0  0  0  0  0  0  0  0  0
   -4.8300   19.8140  -33.3860 C   0  0  0  0  0  0  0  0  0  0  0  0
   -6.1340   18.9580  -34.2700 S   0  0  0  0  0  0  0  0  0  0  0  0
   -6.6400   17.9220  -32.8470 C   0  0  0  0  0  0  0  0  0  0  0  0
   -7.8980   18.4940  -32.1810 C   0  0  0  0  0  0  0  0  0  0  0  0
   -8.1980   19.9230  -32.6550 C   0  0  0  0  0  0  0  0  0  0  0  0
   -9.4590   20.3370  -32.1530 O   0  0  0  0  0  0  0  0  0  0  0  0
   -9.3940   21.6500  -31.6440 C   0  0  0  0  0  0  0  0  0  0  0  0
   -7.9730   21.9560  -31.1580 C   0  0  0  0  0  0  0  0  0  0  0  0
   -7.5660   23.4240  -31.3460 C   0  0  0  0  0  0  0  0  0  0  0  0
   -6.2380   23.7370  -30.7100 C   0  0  0  0  0  0  0  0  0  0  0  0
   -5.4380   24.7940  -31.1690 C   0  0  0  0  0  0  0  0  0  0  0  0
   -4.2360   25.0280  -30.5770 N   0  0  0  0  0  0  0  0  0  0  0  0
   -3.7890   24.2510  -29.5560 C   0  0  0  0  0  0  0  0  0  0  0  0
   -4.5800   23.1970  -29.1000 C   0  0  0  0  0  0  0  0  0  0  0  0
   -5.7820   22.9620  -29.6870 N   0  0  0  0  0  0  0  0  0  0  0  0
   -3.6390   19.1500  -33.0670 C   0  0  0  0  0  0  0  0  0  0  0  0
   -2.6190   19.8270  -32.3880 C   0  0  0  0  0  0  0  0  0  0  0  0
   -1.8037   21.8334  -30.2453 H   0  0  0  0  0  0  0  0  0  0  0  0
   -0.7106   21.4850  -31.6275 H   0  0  0  0  0  0  0  0  0  0  0  0
   -1.7110   22.9769  -31.6275 H   0  0  0  0  0  0  0  0  0  0  0  0
   -4.1035   22.9017  -32.1033 H   0  0  0  0  0  0  0  0  0  0  0  0
   -5.9279   21.6828  -33.2901 H   0  0  0  0  0  0  0  0  0  0  0  0
   -6.8503   16.9015  -33.1998 H   0  0  0  0  0  0  0  0  0  0  0  0
   -5.8236   17.9100  -32.1099 H   0  0  0  0  0  0  0  0  0  0  0  0
   -8.7550   17.8502  -32.4280 H   0  0  0  0  0  0  0  0  0  0  0  0
   -7.7246   18.5246  -31.0952 H   0  0  0  0  0  0  0  0  0  0  0  0
   -7.4160   20.6028  -32.2857 H   0  0  0  0  0  0  0  0  0  0  0  0
   -8.2174   19.9462  -33.7546 H   0  0  0  0  0  0  0  0  0  0  0  0
   -9.6687   22.3616  -32.4366 H   0  0  0  0  0  0  0  0  0  0  0  0
  -10.0919   21.7438  -30.7989 H   0  0  0  0  0  0  0  0  0  0  0  0
   -7.9107   21.7115  -30.0873 H   0  0  0  0  0  0  0  0  0  0  0  0
   -7.2851   21.3486  -31.7646 H   0  0  0  0  0  0  0  0  0  0  0  0
   -7.5009   23.6374  -32.4231 H   0  0  0  0  0  0  0  0  0  0  0  0
   -8.3278   24.0487  -30.8568 H   0  0  0  0  0  0  0  0  0  0  0  0
   -5.7798   25.4280  -32.0004 H   0  0  0  0  0  0  0  0  0  0  0  0
   -2.8115   24.4516  -29.0931 H   0  0  0  0  0  0  0  0  0  0  0  0
   -4.2334   22.5613  -28.2719 H   0  0  0  0  0  0  0  0  0  0  0  0
   -3.5048   18.0956  -33.3502 H   0  0  0  0  0  0  0  0  0  0  0  0
   -1.6841   19.3036  -32.1389 H   0  0  0  0  0  0  0  0  0  0  0  0
  1  2  1  0
  2  3  2  0
  3  4  1  0
  4  5  2  0
  5  6  1  0
  6  7  1  0
  7  8  1  0
  8  9  1  0
  9 10  1  0
 10 11  1  0
 11 12  1  0
 12 13  1  0
 13 14  1  0
 14 15  2  0
 15 16  1  0
 16 17  2  0
 17 18  1  0
 18 19  2  0
  5 20  1  0
 20 21  2  0
 21  2  1  0
 19 14  1  0
  1 22  1  0
  1 23  1  0
  1 24  1  0
  3 25  1  0
  4 26  1  0
  7 27  1  0
  7 28  1  0
  8 29  1  0
  8 30  1  0
  9 31  1  0
  9 32  1  0
 11 33  1  0
 11 34  1  0
 12 35  1  0
 12 36  1  0
 13 37  1  0
 13 38  1  0
 15 39  1  0
 17 40  1  0
 18 41  1  0
 20 42  1  0
 21 43  1  0
M  END
>  <UniqueID>  (47) 
43

>  <SMILES>  (47) 
Cc1ccc(SCCCOCCCc2cnccn2)cc1

>  <Energy>  (47) 
30.842108917142397

>  <Genealogy>  (47) 
Cc1ccc(SCCCOCCCc2cnccn2)cc1 (3D coordinates assigned)
Cc1ccc(SCCCOCCCc2cnccn2)cc1 (optimized conformer: 30.842108917142397 kcal/mol)

>  <smiles>  (47) 
Cc1ccc(SCCCOCCCc2cnccn2)cc1

>  <score_type>  (47) 
oracle

>  <origin>  (47) 
adg

>  <m_score__min__energy>  (47) 
-8.0500000000000007

>  <m_primary>  (47) 
energy

$$$$
