0:0
     RDKit          3D

 46 48  0  0  0  0  0  0  0  0999 V2000
   -1.9610   24.7530  -27.9930 C   0  0  0  0  0  0  0  0  0  0  0  0
   -2.3590   24.7330  -29.3280 O   0  0  0  0  0  0  0  0  0  0  0  0
   -3.1760   23.7940  -29.9010 C   0  0  0  0  0  0  0  0  0  0  0  0
   -2.9340   22.4310  -29.7160 C   0  0  0  0  0  0  0  0  0  0  0  0
   -3.7660   21.5060  -30.2990 C   0  0  0  0  0  0  0  0  0  0  0  0
   -4.8470   21.9160  -31.0740 C   0  0  0  0  0  0  0  0  0  0  0  0
   -5.6650   20.8530  -31.6450 C   0  0  0  0  0  0  0  0  0  0  0  0
   -6.9870   20.7190  -31.2700 C   0  0  0  0  0  0  0  0  0  0  0  0
   -7.7310   19.7000  -31.8350 C   0  0  0  0  0  0  0  0  0  0  0  0
   -9.0380   19.5550  -31.4760 F   0  0  0  0  0  0  0  0  0  0  0  0
   -7.1540   18.8430  -32.7520 C   0  0  0  0  0  0  0  0  0  0  0  0
   -7.9480   17.8680  -33.2640 F   0  0  0  0  0  0  0  0  0  0  0  0
   -5.8350   18.9580  -33.1420 C   0  0  0  0  0  0  0  0  0  0  0  0
   -5.0990   19.9790  -32.5720 C   0  0  0  0  0  0  0  0  0  0  0  0
   -3.7010   20.1280  -32.9630 C   0  0  0  0  0  0  0  0  0  0  0  0
   -2.8570   19.0290  -32.7980 C   0  0  0  0  0  0  0  0  0  0  0  0
   -1.5270   19.1190  -33.1520 C   0  0  0  0  0  0  0  0  0  0  0  0
   -1.0260   20.2910  -33.6690 C   0  0  0  0  0  0  0  0  0  0  0  0
    0.6310   20.4960  -34.1400 S   0  0  0  0  0  0  0  0  0  0  0  0
    1.0430   19.4670  -35.5270 C   0  0  0  0  0  0  0  0  0  0  0  0
    1.5730   20.1730  -33.0140 O   0  0  0  0  0  0  0  0  0  0  0  0
    0.8820   21.9270  -34.5900 O   0  0  0  0  0  0  0  0  0  0  0  0
   -1.8810   21.3700  -33.8250 C   0  0  0  0  0  0  0  0  0  0  0  0
   -3.2170   21.3220  -33.4840 C   0  0  0  0  0  0  0  0  0  0  0  0
   -5.1040   23.2560  -31.2710 C   0  0  0  0  0  0  0  0  0  0  0  0
   -4.2510   24.1860  -30.6710 C   0  0  0  0  0  0  0  0  0  0  0  0
   -4.4690   25.5480  -30.8390 O   0  0  0  0  0  0  0  0  0  0  0  0
   -5.7250   26.0520  -30.3940 C   0  0  0  0  0  0  0  0  0  0  0  0
   -2.8488   24.7084  -27.3450 H   0  0  0  0  0  0  0  0  0  0  0  0
   -1.3149   23.8862  -27.7900 H   0  0  0  0  0  0  0  0  0  0  0  0
   -1.4051   25.6802  -27.7900 H   0  0  0  0  0  0  0  0  0  0  0  0
   -2.0808   22.0994  -29.1060 H   0  0  0  0  0  0  0  0  0  0  0  0
   -3.5762   20.4325  -30.1521 H   0  0  0  0  0  0  0  0  0  0  0  0
   -7.4375   21.4066  -30.5391 H   0  0  0  0  0  0  0  0  0  0  0  0
   -5.3898   18.2678  -33.8737 H   0  0  0  0  0  0  0  0  0  0  0  0
   -3.2530   18.0895  -32.3850 H   0  0  0  0  0  0  0  0  0  0  0  0
   -0.8647   18.2506  -33.0204 H   0  0  0  0  0  0  0  0  0  0  0  0
    1.4292   18.5024  -35.1660 H   0  0  0  0  0  0  0  0  0  0  0  0
    0.1437   19.2967  -36.1372 H   0  0  0  0  0  0  0  0  0  0  0  0
    1.8113   19.9644  -36.1372 H   0  0  0  0  0  0  0  0  0  0  0  0
   -1.4770   22.3057  -34.2388 H   0  0  0  0  0  0  0  0  0  0  0  0
   -3.8732   22.1944  -33.6192 H   0  0  0  0  0  0  0  0  0  0  0  0
   -5.9568   23.5840  -31.8835 H   0  0  0  0  0  0  0  0  0  0  0  0
   -5.7476   26.0611  -29.2943 H   0  0  0  0  0  0  0  0  0  0  0  0
   -5.8641   27.0756  -30.7721 H   0  0  0  0  0  0  0  0  0  0  0  0
   -6.5331   25.4085  -30.7721 H   0  0  0  0  0  0  0  0  0  0  0  0
  1  2  1  0
  2  3  1  0
  3  4  2  0
  4  5  1  0
  5  6  2  0
  6  7  1  0
  7  8  2  0
  8  9  1  0
  9 10  1  0
  9 11  2  0
 11 12  1  0
 11 13  1  0
 13 14  2  0
 14 15  1  0
 15 16  2  0
 16 17  1  0
 17 18  2  0
 18 19  1  0
 19 20  1  0
 19 21  2  0
 19 22  2  0
 18 23  1  0
 23 24  2  0
  6 25  1  0
 25 26  2  0
 26 27  1  0
 27 28  1  0
 26  3  1  0
 14  7  1  0
 24 15  1  0
  1 29  1  0
  1 30  1  0
  1 31  1  0
  4 32  1  0
  5 33  1  0
  8 34  1  0
 13 35  1  0
 16 36  1  0
 17 37  1  0
 20 38  1  0
 20 39  1  0
 20 40  1  0
 23 41  1  0
 24 42  1  0
 25 43  1  0
 28 44  1  0
 28 45  1  0
 28 46  1  0
M  END
>  <smiles>  (1) 
COc1ccc(-c2cc(F)c(F)cc2-c2ccc(S(C)(=O)=O)cc2)cc1OC

>  <score_type>  (1) 
oracle

>  <origin>  (1) 
adg

>  <m_score__min__energy>  (1) 
-8.8800000000000008

>  <m_primary>  (1) 
energy

$$$$
1:0
     RDKit          3D

 47 51  0  0  0  0  0  0  0  0999 V2000
   -3.2970   24.1750  -28.0500 C   0  0  0  0  0  0  0  0  0  0  0  0
   -2.8010   24.4840  -29.4190 C   0  0  0  0  0  0  0  0  0  0  0  0
   -3.6570   24.2870  -30.5130 N   0  0  0  0  0  0  0  0  0  0  0  0
   -5.0190   24.6150  -30.4640 C   0  0  0  0  0  0  0  0  0  0  0  0
   -5.7620   24.1950  -31.7040 C   0  0  0  0  0  0  0  0  0  0  0  0
   -5.3250   22.9050  -32.1850 N   0  0  0  0  0  0  0  0  0  0  0  0
   -4.0420   22.6710  -32.5300 N   0  0  0  0  0  0  0  0  0  0  0  0
   -3.8780   21.4150  -32.9600 C   0  0  0  0  0  0  0  0  0  0  0  0
   -5.1180   20.8360  -32.8790 C   0  0  0  0  0  0  0  0  0  0  0  0
   -5.4320   19.5580  -33.2150 C   0  0  0  0  0  0  0  0  0  0  0  0
   -6.7170   19.1710  -33.0650 N   0  0  0  0  0  0  0  0  0  0  0  0
   -7.6120   20.0650  -32.5930 C   0  0  0  0  0  0  0  0  0  0  0  0
   -8.9070   19.6250  -32.4560 C   0  0  0  0  0  0  0  0  0  0  0  0
   -9.8330   20.5220  -31.9730 C   0  0  0  0  0  0  0  0  0  0  0  0
   -9.5370   21.8200  -31.6250 C   0  0  0  0  0  0  0  0  0  0  0  0
   -8.2130   22.2570  -31.7700 C   0  0  0  0  0  0  0  0  0  0  0  0
   -7.3030   21.3600  -32.2490 C   0  0  0  0  0  0  0  0  0  0  0  0
   -6.0070   21.7690  -32.3970 C   0  0  0  0  0  0  0  0  0  0  0  0
   -4.3990   18.7190  -33.7010 N   0  0  0  0  0  0  0  0  0  0  0  0
   -4.7040   17.3470  -34.0650 C   0  0  0  0  0  0  0  0  0  0  0  0
   -3.0800   19.2660  -33.8110 C   0  0  0  0  0  0  0  0  0  0  0  0
   -2.0520   18.4710  -34.2910 C   0  0  0  0  0  0  0  0  0  0  0  0
   -0.7970   19.0350  -34.3890 C   0  0  0  0  0  0  0  0  0  0  0  0
   -0.5220   20.3410  -34.0330 C   0  0  0  0  0  0  0  0  0  0  0  0
    1.2330   21.0420  -34.2000 Br  0  0  0  0  0  0  0  0  0  0  0  0
   -1.5420   21.1310  -33.5570 C   0  0  0  0  0  0  0  0  0  0  0  0
   -2.7930   20.5780  -33.4570 C   0  0  0  0  0  0  0  0  0  0  0  0
   -2.6096   24.6032  -27.3056 H   0  0  0  0  0  0  0  0  0  0  0  0
   -4.2989   24.6090  -27.9163 H   0  0  0  0  0  0  0  0  0  0  0  0
   -3.3491   23.0844  -27.9163 H   0  0  0  0  0  0  0  0  0  0  0  0
   -2.5097   25.5447  -29.4245 H   0  0  0  0  0  0  0  0  0  0  0  0
   -1.9954   23.7523  -29.5792 H   0  0  0  0  0  0  0  0  0  0  0  0
   -3.1870   24.3720  -31.4470 H   0  0  0  0  0  0  0  0  0  0  0  0
   -5.4710   24.1130  -29.5958 H   0  0  0  0  0  0  0  0  0  0  0  0
   -5.0948   25.7096  -30.3856 H   0  0  0  0  0  0  0  0  0  0  0  0
   -6.8364   24.1430  -31.4739 H   0  0  0  0  0  0  0  0  0  0  0  0
   -5.5592   24.9375  -32.4898 H   0  0  0  0  0  0  0  0  0  0  0  0
   -9.1923   18.5964  -32.7219 H   0  0  0  0  0  0  0  0  0  0  0  0
  -10.8723   20.1804  -31.8583 H   0  0  0  0  0  0  0  0  0  0  0  0
  -10.3171   22.4954  -31.2439 H   0  0  0  0  0  0  0  0  0  0  0  0
   -7.9188   23.2839  -31.5076 H   0  0  0  0  0  0  0  0  0  0  0  0
   -4.8375   16.7467  -33.1530 H   0  0  0  0  0  0  0  0  0  0  0  0
   -5.6296   17.3223  -34.6589 H   0  0  0  0  0  0  0  0  0  0  0  0
   -3.8761   16.9325  -34.6589 H   0  0  0  0  0  0  0  0  0  0  0  0
   -2.2304   17.4258  -34.5839 H   0  0  0  0  0  0  0  0  0  0  0  0
    0.0266   18.4132  -34.7700 H   0  0  0  0  0  0  0  0  0  0  0  0
   -1.3598   22.1758  -33.2650 H   0  0  0  0  0  0  0  0  0  0  0  0
  1  2  1  0
  2  3  1  0
  3  4  1  0
  4  5  1  0
  5  6  1  0
  6  7  1  0
  7  8  2  0
  8  9  1  0
  9 10  2  0
 10 11  1  0
 11 12  2  0
 12 13  1  0
 13 14  2  0
 14 15  1  0
 15 16  2  0
 16 17  1  0
 17 18  2  0
 10 19  1  0
 19 20  1  0
 19 21  1  0
 21 22  2  0
 22 23  1  0
 23 24  2  0
 24 25  1  0
 24 26  1  0
 26 27  2  0
 18  6  1  0
 27 21  1  0
 27  8  1  0
 18  9  1  0
 17 12  1  0
  1 28  1  0
  1 29  1  0
  1 30  1  0
  2 31  1  0
  2 32  1  0
  3 33  1  0
  4 34  1  0
  4 35  1  0
  5 36  1  0
  5 37  1  0
 13 38  1  0
 14 39  1  0
 15 40  1  0
 16 41  1  0
 20 42  1  0
 20 43  1  0
 20 44  1  0
 22 45  1  0
 23 46  1  0
 26 47  1  0
M  END
>  <smiles>  (2) 
CCNCCn1nc2c3c(nc4ccccc4c31)N(C)c1ccc(Br)cc1-2

>  <score_type>  (2) 
oracle

>  <origin>  (2) 
adg

>  <m_score__min__energy>  (2) 
-10.26

>  <m_primary>  (2) 
energy

$$$$
2:0
     RDKit          3D

 84 87  0  0  0  0  0  0  0  0999 V2000
   -1.0010   26.0490  -24.9330 C   0  0  0  0  0  0  0  0  0  0  0  0
   -0.1870   26.0210  -26.0800 O   0  0  0  0  0  0  0  0  0  0  0  0
   -0.5280   25.1730  -27.1230 C   0  0  0  0  0  0  0  0  0  0  0  0
    0.1970   24.0170  -27.4150 C   0  0  0  0  0  0  0  0  0  0  0  0
   -0.1910   23.1900  -28.4830 C   0  0  0  0  0  0  0  0  0  0  0  0
   -1.2720   23.4740  -29.2690 C   0  0  0  0  0  0  0  0  0  0  0  0
   -1.7550   22.6410  -30.3910 C   0  0  0  0  0  0  0  0  0  0  0  0
   -2.3050   21.4040  -30.1370 N   0  0  0  0  0  0  0  0  0  0  0  0
   -3.2170   21.0820  -29.1550 C   0  0  0  0  0  0  0  0  0  0  0  0
   -2.8270   20.6580  -27.8020 C   0  0  0  0  0  0  0  0  0  0  0  0
   -1.4870   20.7860  -27.4560 O   0  0  0  0  0  0  0  0  0  0  0  0
   -0.7710   19.6490  -27.3350 C   0  0  0  0  0  0  0  0  0  0  0  0
    0.0290   19.3110  -28.5560 C   0  0  0  0  0  0  0  0  0  0  0  0
   -0.5920   19.0620  -29.7070 O   0  0  0  0  0  0  0  0  0  0  0  0
   -0.0100   18.2880  -30.6860 C   0  0  0  0  0  0  0  0  0  0  0  0
   -0.2700   18.7450  -32.0660 C   0  0  0  0  0  0  0  0  0  0  0  0
    0.8850   18.8690  -32.8050 O   0  0  0  0  0  0  0  0  0  0  0  0
    1.1630   20.2130  -33.0130 C   0  0  0  0  0  0  0  0  0  0  0  0
    0.0810   21.1550  -32.5490 C   0  0  0  0  0  0  0  0  0  0  0  0
   -0.7460   21.5230  -33.6260 N   0  0  0  0  0  0  0  0  0  0  0  0
   -0.3240   21.1110  -34.9310 C   0  0  0  0  0  0  0  0  0  0  0  0
   -2.1400   21.5230  -33.4540 C   0  0  0  0  0  0  0  0  0  0  0  0
   -2.7900   20.1730  -33.4400 C   0  0  0  0  0  0  0  0  0  0  0  0
   -3.3660   19.9200  -32.1550 O   0  0  0  0  0  0  0  0  0  0  0  0
   -4.7840   19.9800  -32.1120 C   0  0  0  0  0  0  0  0  0  0  0  0
   -5.5340   18.8110  -32.1280 C   0  0  0  0  0  0  0  0  0  0  0  0
   -6.9080   18.7990  -32.0860 C   0  0  0  0  0  0  0  0  0  0  0  0
   -7.5780   20.0000  -32.0240 C   0  0  0  0  0  0  0  0  0  0  0  0
   -8.9660   20.0440  -31.9760 C   0  0  0  0  0  0  0  0  0  0  0  0
   -9.5330   21.2970  -31.9120 C   0  0  0  0  0  0  0  0  0  0  0  0
   -8.7730   22.4660  -31.8970 C   0  0  0  0  0  0  0  0  0  0  0  0
   -7.3770   22.3850  -31.9460 C   0  0  0  0  0  0  0  0  0  0  0  0
   -6.8290   21.1430  -32.0100 C   0  0  0  0  0  0  0  0  0  0  0  0
   -5.4540   21.1780  -32.0520 C   0  0  0  0  0  0  0  0  0  0  0  0
   -5.0160   22.5970  -32.0220 C   0  0  0  0  0  0  0  0  0  0  0  0
   -6.3030   23.3900  -31.9410 C   0  0  0  0  0  0  0  0  0  0  0  0
   -2.0020   24.6380  -28.9770 C   0  0  0  0  0  0  0  0  0  0  0  0
   -3.1040   24.9530  -29.7590 O   0  0  0  0  0  0  0  0  0  0  0  0
   -4.3940   24.5400  -29.3750 C   0  0  0  0  0  0  0  0  0  0  0  0
   -1.6080   25.4270  -27.9350 C   0  0  0  0  0  0  0  0  0  0  0  0
   -0.3681   26.0272  -24.0336 H   0  0  0  0  0  0  0  0  0  0  0  0
   -1.6048   26.9684  -24.9343 H   0  0  0  0  0  0  0  0  0  0  0  0
   -1.6666   25.1732  -24.9343 H   0  0  0  0  0  0  0  0  0  0  0  0
    1.0749   23.7522  -26.8074 H   0  0  0  0  0  0  0  0  0  0  0  0
    0.3954   22.2834  -28.6933 H   0  0  0  0  0  0  0  0  0  0  0  0
   -2.5217   23.2287  -30.9172 H   0  0  0  0  0  0  0  0  0  0  0  0
   -0.8358   22.4027  -30.9463 H   0  0  0  0  0  0  0  0  0  0  0  0
   -1.8730   20.6070  -30.6680 H   0  0  0  0  0  0  0  0  0  0  0  0
   -3.8459   21.9747  -29.0223 H   0  0  0  0  0  0  0  0  0  0  0  0
   -3.6520   20.1551  -29.5570 H   0  0  0  0  0  0  0  0  0  0  0  0
   -3.4116   21.2555  -27.0870 H   0  0  0  0  0  0  0  0  0  0  0  0
   -3.0232   19.5759  -27.7773 H   0  0  0  0  0  0  0  0  0  0  0  0
   -0.0799   19.7619  -26.4867 H   0  0  0  0  0  0  0  0  0  0  0  0
   -1.4895   18.8300  -27.1832 H   0  0  0  0  0  0  0  0  0  0  0  0
    0.7070   20.1581  -28.7369 H   0  0  0  0  0  0  0  0  0  0  0  0
    0.4879   18.3446  -28.3001 H   0  0  0  0  0  0  0  0  0  0  0  0
    1.0779   18.2896  -30.5232 H   0  0  0  0  0  0  0  0  0  0  0  0
   -0.4576   17.2869  -30.5994 H   0  0  0  0  0  0  0  0  0  0  0  0
   -0.9293   18.0167  -32.5608 H   0  0  0  0  0  0  0  0  0  0  0  0
   -0.7384   19.7385  -32.0072 H   0  0  0  0  0  0  0  0  0  0  0  0
    2.0885   20.4600  -32.4722 H   0  0  0  0  0  0  0  0  0  0  0  0
    1.2507   20.3493  -34.1010 H   0  0  0  0  0  0  0  0  0  0  0  0
   -0.5269   20.6572  -31.7792 H   0  0  0  0  0  0  0  0  0  0  0  0
    0.5500   22.0597  -32.1348 H   0  0  0  0  0  0  0  0  0  0  0  0
    0.4603   20.3453  -34.8380 H   0  0  0  0  0  0  0  0  0  0  0  0
   -1.1815   20.6930  -35.4787 H   0  0  0  0  0  0  0  0  0  0  0  0
    0.0734   21.9783  -35.4787 H   0  0  0  0  0  0  0  0  0  0  0  0
   -2.3629   22.0160  -32.4963 H   0  0  0  0  0  0  0  0  0  0  0  0
   -2.5515   22.0463  -34.3297 H   0  0  0  0  0  0  0  0  0  0  0  0
   -3.5792   20.1408  -34.2056 H   0  0  0  0  0  0  0  0  0  0  0  0
   -2.0317   19.4052  -33.6531 H   0  0  0  0  0  0  0  0  0  0  0  0
   -5.0031   17.8488  -32.1766 H   0  0  0  0  0  0  0  0  0  0  0  0
   -7.4612   17.8484  -32.1016 H   0  0  0  0  0  0  0  0  0  0  0  0
   -9.5772   19.1295  -31.9884 H   0  0  0  0  0  0  0  0  0  0  0  0
  -10.6292   21.3792  -31.8711 H   0  0  0  0  0  0  0  0  0  0  0  0
   -9.2684   23.4468  -31.8469 H   0  0  0  0  0  0  0  0  0  0  0  0
   -4.3843   22.7903  -31.1424 H   0  0  0  0  0  0  0  0  0  0  0  0
   -4.4132   22.8671  -32.9016 H   0  0  0  0  0  0  0  0  0  0  0  0
   -6.3334   23.9822  -31.0145 H   0  0  0  0  0  0  0  0  0  0  0  0
   -6.4011   24.1003  -32.7752 H   0  0  0  0  0  0  0  0  0  0  0  0
   -4.4606   24.5187  -28.2772 H   0  0  0  0  0  0  0  0  0  0  0  0
   -5.1385   25.2447  -29.7739 H   0  0  0  0  0  0  0  0  0  0  0  0
   -4.5908   23.5339  -29.7739 H   0  0  0  0  0  0  0  0  0  0  0  0
   -2.1979   26.3325  -27.7300 H   0  0  0  0  0  0  0  0  0  0  0  0
  1  2  1  0
  2  3  1  0
  3  4  2  0
  4  5  1  0
  5  6  2  0
  6  7  1  0
  7  8  1  0
  8  9  1  0
  9 10  1  0
 10 11  1  0
 11 12  1  0
 12 13  1  0
 13 14  1  0
 14 15  1  0
 15 16  1  0
 16 17  1  0
 17 18  1  0
 18 19  1  0
 19 20  1  0
 20 21  1  0
 20 22  1  0
 22 23  1  0
 23 24  1  0
 24 25  1  0
 25 26  2  0
 26 27  1  0
 27 28  2  0
 28 29  1  0
 29 30  2  0
 30 31  1  0
 31 32  2  0
 32 33  1  0
 33 34  2  0
 34 35  1  0
 35 36  1  0
  6 37  1  0
 37 38  1  0
 38 39  1  0
 37 40  2  0
 40  3  1  0
 34 25  1  0
 33 28  1  0
 36 32  1  0
  1 41  1  0
  1 42  1  0
  1 43  1  0
  4 44  1  0
  5 45  1  0
  7 46  1  0
  7 47  1  0
  8 48  1  0
  9 49  1  0
  9 50  1  0
 10 51  1  0
 10 52  1  0
 12 53  1  0
 12 54  1  0
 13 55  1  0
 13 56  1  0
 15 57  1  0
 15 58  1  0
 16 59  1  0
 16 60  1  0
 18 61  1  0
 18 62  1  0
 19 63  1  0
 19 64  1  0
 21 65  1  0
 21 66  1  0
 21 67  1  0
 22 68  1  0
 22 69  1  0
 23 70  1  0
 23 71  1  0
 26 72  1  0
 27 73  1  0
 29 74  1  0
 30 75  1  0
 31 76  1  0
 35 77  1  0
 35 78  1  0
 36 79  1  0
 36 80  1  0
 39 81  1  0
 39 82  1  0
 39 83  1  0
 40 84  1  0
M  END
>  <smiles>  (3) 
COc1ccc(CNCCOCCOCCOCCN(C)CCOc2ccc3cccc4c3c2CC4)c(OC)c1

>  <score_type>  (3) 
oracle

>  <origin>  (3) 
adg

>  <m_score__min__energy>  (3) 
-9

>  <m_primary>  (3) 
energy

$$$$
3:0
     RDKit          3D

 52 55  0  0  0  0  0  0  0  0999 V2000
   -0.1260   21.3780  -34.5920 C   0  0  0  0  0  0  0  0  0  0  0  0
   -0.5350   20.3380  -33.5790 C   0  0  0  0  0  0  0  0  0  0  0  0
   -1.1120   20.9280  -32.4240 O   0  0  0  0  0  0  0  0  0  0  0  0
   -2.5050   21.0280  -32.2790 C   0  0  0  0  0  0  0  0  0  0  0  0
   -3.2000   20.2800  -31.3480 C   0  0  0  0  0  0  0  0  0  0  0  0
   -4.5700   20.3650  -31.1930 C   0  0  0  0  0  0  0  0  0  0  0  0
   -5.2760   21.2330  -31.9990 C   0  0  0  0  0  0  0  0  0  0  0  0
   -6.6840   21.4010  -31.9250 N   0  0  0  0  0  0  0  0  0  0  0  0
   -7.6740   20.5170  -31.8620 C   0  0  0  0  0  0  0  0  0  0  0  0
   -7.4710   19.0410  -31.8580 C   0  0  0  0  0  0  0  0  0  0  0  0
   -6.5970   18.6250  -33.0130 C   0  0  0  0  0  0  0  0  0  0  0  0
   -6.4350   19.2450  -34.2260 C   0  0  0  0  0  0  0  0  0  0  0  0
   -5.5180   18.4540  -34.9260 C   0  0  0  0  0  0  0  0  0  0  0  0
   -5.1460   17.3800  -34.1310 C   0  0  0  0  0  0  0  0  0  0  0  0
   -5.8190   17.5140  -32.9750 N   0  0  0  0  0  0  0  0  0  0  0  0
   -5.6760   16.5540  -31.8850 C   0  0  0  0  0  0  0  0  0  0  0  0
   -8.8280   21.2080  -31.8080 N   0  0  0  0  0  0  0  0  0  0  0  0
   -8.5950   22.5020  -31.8340 N   0  0  0  0  0  0  0  0  0  0  0  0
   -7.2580   22.6330  -31.9070 C   0  0  0  0  0  0  0  0  0  0  0  0
   -6.4280   24.2140  -31.9670 S   0  0  0  0  0  0  0  0  0  0  0  0
   -6.2070   24.8040  -30.2520 C   0  0  0  0  0  0  0  0  0  0  0  0
   -4.9190   24.1860  -29.7730 C   0  0  0  0  0  0  0  0  0  0  0  0
   -4.9790   23.0650  -28.9410 C   0  0  0  0  0  0  0  0  0  0  0  0
   -3.7850   22.5170  -28.5150 C   0  0  0  0  0  0  0  0  0  0  0  0
   -2.5500   23.0420  -28.8880 C   0  0  0  0  0  0  0  0  0  0  0  0
   -2.5480   24.1650  -29.7230 C   0  0  0  0  0  0  0  0  0  0  0  0
   -3.7220   24.6940  -30.1330 N   0  0  0  0  0  0  0  0  0  0  0  0
   -4.6050   22.0040  -32.9510 C   0  0  0  0  0  0  0  0  0  0  0  0
   -3.2220   21.9030  -33.0940 C   0  0  0  0  0  0  0  0  0  0  0  0
    0.2283   22.2790  -34.0699 H   0  0  0  0  0  0  0  0  0  0  0  0
    0.6818   20.9780  -35.2225 H   0  0  0  0  0  0  0  0  0  0  0  0
   -0.9899   21.6354  -35.2225 H   0  0  0  0  0  0  0  0  0  0  0  0
   -1.2707   19.6621  -34.0393 H   0  0  0  0  0  0  0  0  0  0  0  0
    0.3660   19.7882  -33.2693 H   0  0  0  0  0  0  0  0  0  0  0  0
   -2.6387   19.5878  -30.7032 H   0  0  0  0  0  0  0  0  0  0  0  0
   -5.0880   19.7519  -30.4408 H   0  0  0  0  0  0  0  0  0  0  0  0
   -6.9894   18.7445  -30.9145 H   0  0  0  0  0  0  0  0  0  0  0  0
   -8.4490   18.5473  -31.9563 H   0  0  0  0  0  0  0  0  0  0  0  0
   -6.9224   20.1677  -34.5740 H   0  0  0  0  0  0  0  0  0  0  0  0
   -5.1508   18.6520  -35.9438 H   0  0  0  0  0  0  0  0  0  0  0  0
   -4.4406   16.5781  -34.3941 H   0  0  0  0  0  0  0  0  0  0  0  0
   -5.7542   17.0789  -30.9215 H   0  0  0  0  0  0  0  0  0  0  0  0
   -6.4714   15.7975  -31.9560 H   0  0  0  0  0  0  0  0  0  0  0  0
   -4.6947   16.0621  -31.9560 H   0  0  0  0  0  0  0  0  0  0  0  0
   -6.1378   25.9016  -30.2296 H   0  0  0  0  0  0  0  0  0  0  0  0
   -7.0561   24.5219  -29.6122 H   0  0  0  0  0  0  0  0  0  0  0  0
   -5.9439   22.6339  -28.6359 H   0  0  0  0  0  0  0  0  0  0  0  0
   -3.8102   21.6350  -27.8581 H   0  0  0  0  0  0  0  0  0  0  0  0
   -1.6099   22.5901  -28.5387 H   0  0  0  0  0  0  0  0  0  0  0  0
   -1.5966   24.6144  -30.0437 H   0  0  0  0  0  0  0  0  0  0  0  0
   -5.1716   22.6954  -33.5921 H   0  0  0  0  0  0  0  0  0  0  0  0
   -2.6986   22.5110  -33.8466 H   0  0  0  0  0  0  0  0  0  0  0  0
  1  2  1  0
  2  3  1  0
  3  4  1  0
  4  5  2  0
  5  6  1  0
  6  7  2  0
  7  8  1  0
  8  9  1  0
  9 10  1  0
 10 11  1  0
 11 12  2  0
 12 13  1  0
 13 14  2  0
 14 15  1  0
 15 16  1  0
  9 17  2  0
 17 18  1  0
 18 19  2  0
 19 20  1  0
 20 21  1  0
 21 22  1  0
 22 23  2  0
 23 24  1  0
 24 25  2  0
 25 26  1  0
 26 27  2  0
  7 28  1  0
 28 29  2  0
 29  4  1  0
 19  8  1  0
 27 22  1  0
 15 11  1  0
  1 30  1  0
  1 31  1  0
  1 32  1  0
  2 33  1  0
  2 34  1  0
  5 35  1  0
  6 36  1  0
 10 37  1  0
 10 38  1  0
 12 39  1  0
 13 40  1  0
 14 41  1  0
 16 42  1  0
 16 43  1  0
 16 44  1  0
 21 45  1  0
 21 46  1  0
 23 47  1  0
 24 48  1  0
 25 49  1  0
 26 50  1  0
 28 51  1  0
 29 52  1  0
M  END
>  <smiles>  (4) 
CCOc1ccc(-n2c(Cc3cccn3C)nnc2SCc2ccccn2)cc1

>  <score_type>  (4) 
oracle

>  <origin>  (4) 
adg

>  <m_score__min__energy>  (4) 
-8.2799999999999994

>  <m_primary>  (4) 
energy

$$$$
4:0
     RDKit          3D

 19 19  0  0  0  0  0  0  0  0999 V2000
   -4.1660   24.1630  -28.3400 C   0  0  0  0  0  0  0  0  0  0  0  0
   -3.3330   24.4080  -29.5690 C   0  0  0  0  0  0  0  0  0  0  0  0
   -3.8740   25.2810  -30.4740 O   0  0  0  0  0  0  0  0  0  0  0  0
   -5.2350   25.2700  -30.5760 C   0  0  0  0  0  0  0  0  0  0  0  0
   -5.8440   24.0420  -31.1000 C   0  0  0  0  0  0  0  0  0  0  0  0
   -7.0980   23.5780  -31.0380 C   0  0  0  0  0  0  0  0  0  0  0  0
   -7.4530   22.4120  -31.5890 C   0  0  0  0  0  0  0  0  0  0  0  0
   -9.2090   21.6070  -31.5880 Br  0  0  0  0  0  0  0  0  0  0  0  0
   -6.3950   21.7110  -32.2410 C   0  0  0  0  0  0  0  0  0  0  0  0
   -6.4510   20.0040  -33.1650 Br  0  0  0  0  0  0  0  0  0  0  0  0
   -4.9160   22.7680  -32.0340 S   0  0  0  0  0  0  0  0  0  0  0  0
   -3.5564   24.3423  -27.4421 H   0  0  0  0  0  0  0  0  0  0  0  0
   -5.0287   24.8454  -28.3397 H   0  0  0  0  0  0  0  0  0  0  0  0
   -4.5219   23.1222  -28.3397 H   0  0  0  0  0  0  0  0  0  0  0  0
   -2.3611   24.8101  -29.2470 H   0  0  0  0  0  0  0  0  0  0  0  0
   -3.2579   23.4397  -30.0855 H   0  0  0  0  0  0  0  0  0  0  0  0
   -5.6466   25.4442  -29.5709 H   0  0  0  0  0  0  0  0  0  0  0  0
   -5.4774   26.0511  -31.3116 H   0  0  0  0  0  0  0  0  0  0  0  0
   -7.8612   24.1748  -30.5171 H   0  0  0  0  0  0  0  0  0  0  0  0
  1  2  1  0
  2  3  1  0
  3  4  1  0
  4  5  1  0
  5  6  2  0
  6  7  1  0
  7  8  1  0
  7  9  2  0
  9 10  1  0
  9 11  1  0
 11  5  1  0
  1 12  1  0
  1 13  1  0
  1 14  1  0
  2 15  1  0
  2 16  1  0
  4 17  1  0
  4 18  1  0
  6 19  1  0
M  END
>  <smiles>  (5) 
CCOCc1cc(Br)c(Br)s1

>  <score_type>  (5) 
oracle

>  <origin>  (5) 
adg

>  <m_score__min__energy>  (5) 
-6.4100000000000001

>  <m_primary>  (5) 
energy

$$$$
5:0
     RDKit          3D

 57 59  0  0  0  0  0  0  0  0999 V2000
   -2.0540   23.7940  -29.2760 C   0  0  0  0  0  0  0  0  0  0  0  0
   -3.3790   24.5320  -29.3590 C   0  0  0  0  0  0  0  0  0  0  0  0
   -3.9230   24.3770  -30.7240 N   0  0  0  0  0  0  0  0  0  0  0  0
   -5.0930   25.2960  -30.7540 C   0  0  0  0  0  0  0  0  0  0  0  0
   -6.0440   24.7780  -29.7120 C   0  0  0  0  0  0  0  0  0  0  0  0
   -4.4810   22.9990  -30.8240 C   0  0  0  0  0  0  0  0  0  0  0  0
   -3.7720   22.2550  -31.8950 C   0  0  0  0  0  0  0  0  0  0  0  0
   -4.6490   22.0510  -33.0500 N   0  0  0  0  0  0  0  0  0  0  0  0
   -5.6230   21.0150  -32.8670 C   0  0  0  0  0  0  0  0  0  0  0  0
   -6.8750   21.4510  -32.4520 C   0  0  0  0  0  0  0  0  0  0  0  0
   -7.1210   22.7800  -32.3150 C   0  0  0  0  0  0  0  0  0  0  0  0
   -8.3340   23.3090  -31.9120 C   0  0  0  0  0  0  0  0  0  0  0  0
   -9.3360   22.4050  -31.6380 C   0  0  0  0  0  0  0  0  0  0  0  0
   -9.0820   21.0350  -31.7790 C   0  0  0  0  0  0  0  0  0  0  0  0
   -7.8760   20.5330  -32.1800 C   0  0  0  0  0  0  0  0  0  0  0  0
   -7.6260   19.2010  -32.3220 N   0  0  0  0  0  0  0  0  0  0  0  0
   -8.6780   18.2610  -32.0510 C   0  0  0  0  0  0  0  0  0  0  0  0
   -6.3950   18.7750  -32.7310 C   0  0  0  0  0  0  0  0  0  0  0  0
   -6.1490   17.4210  -32.8720 C   0  0  0  0  0  0  0  0  0  0  0  0
   -4.9160   16.9950  -33.2840 C   0  0  0  0  0  0  0  0  0  0  0  0
   -4.6430   15.6480  -33.4310 O   0  0  0  0  0  0  0  0  0  0  0  0
   -4.6060   14.7920  -32.3100 C   0  0  0  0  0  0  0  0  0  0  0  0
   -3.8690   17.8920  -33.5760 C   0  0  0  0  0  0  0  0  0  0  0  0
   -2.7330   17.4680  -33.9600 O   0  0  0  0  0  0  0  0  0  0  0  0
   -1.7070   16.8970  -34.4810 C   0  0  0  0  0  0  0  0  0  0  0  0
   -4.1510   19.2590  -33.4210 C   0  0  0  0  0  0  0  0  0  0  0  0
   -5.3800   19.6800  -33.0090 C   0  0  0  0  0  0  0  0  0  0  0  0
   -1.7837   23.6434  -28.2204 H   0  0  0  0  0  0  0  0  0  0  0  0
   -2.1464   22.8174  -29.7737 H   0  0  0  0  0  0  0  0  0  0  0  0
   -1.2724   24.3867  -29.7737 H   0  0  0  0  0  0  0  0  0  0  0  0
   -4.0847   24.1088  -28.6290 H   0  0  0  0  0  0  0  0  0  0  0  0
   -3.2288   25.5983  -29.1343 H   0  0  0  0  0  0  0  0  0  0  0  0
   -4.7807   26.3225  -30.5117 H   0  0  0  0  0  0  0  0  0  0  0  0
   -5.5594   25.3270  -31.7497 H   0  0  0  0  0  0  0  0  0  0  0  0
   -5.6445   24.9956  -28.7105 H   0  0  0  0  0  0  0  0  0  0  0  0
   -7.0214   25.2684  -29.8314 H   0  0  0  0  0  0  0  0  0  0  0  0
   -6.1622   23.6909  -29.8314 H   0  0  0  0  0  0  0  0  0  0  0  0
   -4.3460   22.4782  -29.8646 H   0  0  0  0  0  0  0  0  0  0  0  0
   -5.5532   23.0539  -31.0635 H   0  0  0  0  0  0  0  0  0  0  0  0
   -2.8881   22.8293  -32.2095 H   0  0  0  0  0  0  0  0  0  0  0  0
   -3.4688   21.2730  -31.5028 H   0  0  0  0  0  0  0  0  0  0  0  0
   -4.5800   22.5950  -33.9220 H   0  0  0  0  0  0  0  0  0  0  0  0
   -6.3030   23.4805  -32.5389 H   0  0  0  0  0  0  0  0  0  0  0  0
   -8.4898   24.3936  -31.8156 H   0  0  0  0  0  0  0  0  0  0  0  0
  -10.3262   22.7555  -31.3116 H   0  0  0  0  0  0  0  0  0  0  0  0
   -9.8941   20.3275  -31.5557 H   0  0  0  0  0  0  0  0  0  0  0  0
   -8.8006   18.1514  -30.9634 H   0  0  0  0  0  0  0  0  0  0  0  0
   -9.6179   18.6256  -32.4911 H   0  0  0  0  0  0  0  0  0  0  0  0
   -8.4210   17.2862  -32.4911 H   0  0  0  0  0  0  0  0  0  0  0  0
   -6.9415   16.6900  -32.6538 H   0  0  0  0  0  0  0  0  0  0  0  0
   -4.6320   15.3928  -31.3889 H   0  0  0  0  0  0  0  0  0  0  0  0
   -5.4759   14.1192  -32.3336 H   0  0  0  0  0  0  0  0  0  0  0  0
   -3.6813   14.1967  -32.3336 H   0  0  0  0  0  0  0  0  0  0  0  0
   -1.0466   16.5295  -33.6817 H   0  0  0  0  0  0  0  0  0  0  0  0
   -2.0347   16.0515  -35.1037 H   0  0  0  0  0  0  0  0  0  0  0  0
   -1.1611   17.6211  -35.1037 H   0  0  0  0  0  0  0  0  0  0  0  0
   -3.3680   20.0013  -33.6354 H   0  0  0  0  0  0  0  0  0  0  0  0
  1  2  1  0
  2  3  1  0
  3  4  1  0
  4  5  1  0
  3  6  1  0
  6  7  1  0
  7  8  1  0
  8  9  1  0
  9 10  2  0
 10 11  1  0
 11 12  2  0
 12 13  1  0
 13 14  2  0
 14 15  1  0
 15 16  2  0
 16 17  1  0
 16 18  1  0
 18 19  2  0
 19 20  1  0
 20 21  1  0
 21 22  1  0
 20 23  2  0
 23 24  1  0
 24 25  1  0
 23 26  1  0
 26 27  2  0
 27  9  1  0
 15 10  1  0
 27 18  1  0
  1 28  1  0
  1 29  1  0
  1 30  1  0
  2 31  1  0
  2 32  1  0
  4 33  1  0
  4 34  1  0
  5 35  1  0
  5 36  1  0
  5 37  1  0
  6 38  1  0
  6 39  1  0
  7 40  1  0
  7 41  1  0
  8 42  1  0
 11 43  1  0
 12 44  1  0
 13 45  1  0
 14 46  1  0
 17 47  1  0
 17 48  1  0
 17 49  1  0
 19 50  1  0
 22 51  1  0
 22 52  1  0
 22 53  1  0
 25 54  1  0
 25 55  1  0
 25 56  1  0
 26 57  1  0
M  CHG  1  16   1
M  END
>  <smiles>  (6) 
CCN(CC)CCNc1c2ccccc2[n+](C)c2cc(OC)c(OC)cc12

>  <score_type>  (6) 
oracle

>  <origin>  (6) 
adg

>  <m_score__min__energy>  (6) 
-8.1799999999999997

>  <m_primary>  (6) 
energy

$$$$
6:0
     RDKit          3D

 42 42  0  0  0  0  0  0  0  0999 V2000
   -8.0140   18.5110  -32.3490 C   0  0  0  0  0  0  0  0  0  0  0  0
   -8.3330   19.9460  -32.7030 C   0  0  0  0  0  0  0  0  0  0  0  0
   -9.1240   20.5750  -31.6060 C   0  0  0  0  0  0  0  0  0  0  0  0
   -9.1430   22.0620  -31.5840 C   0  0  0  0  0  0  0  0  0  0  0  0
   -7.6040   22.8340  -32.1070 S   0  0  0  0  0  0  0  0  0  0  0  0
   -6.9170   23.6940  -30.6610 C   0  0  0  0  0  0  0  0  0  0  0  0
   -6.1150   24.9140  -31.0630 C   0  0  0  0  0  0  0  0  0  0  0  0
   -4.9950   25.1270  -30.0830 C   0  0  0  0  0  0  0  0  0  0  0  0
   -3.6950   24.8200  -30.5580 N   0  0  0  0  0  0  0  0  0  0  0  0
   -2.9760   23.7870  -29.9000 C   0  0  0  0  0  0  0  0  0  0  0  0
   -3.7220   22.4840  -29.7530 C   0  0  0  0  0  0  0  0  0  0  0  0
   -3.8380   21.7820  -31.0200 N   0  0  0  0  0  0  0  0  0  0  0  0
   -4.8620   20.9430  -31.2800 C   0  0  0  0  0  0  0  0  0  0  0  0
   -5.0070   20.2660  -32.4680 C   0  0  0  0  0  0  0  0  0  0  0  0
   -4.0780   20.4220  -33.4720 C   0  0  0  0  0  0  0  0  0  0  0  0
   -3.0240   21.2770  -33.2210 C   0  0  0  0  0  0  0  0  0  0  0  0
   -2.9290   21.9320  -32.0100 C   0  0  0  0  0  0  0  0  0  0  0  0
   -7.9893   18.4000  -31.2549 H   0  0  0  0  0  0  0  0  0  0  0  0
   -8.7870   17.8496  -32.7673 H   0  0  0  0  0  0  0  0  0  0  0  0
   -7.0336   18.2394  -32.7673 H   0  0  0  0  0  0  0  0  0  0  0  0
   -7.3956   20.5042  -32.8432 H   0  0  0  0  0  0  0  0  0  0  0  0
   -8.9210   19.9679  -33.6324 H   0  0  0  0  0  0  0  0  0  0  0  0
  -10.1633   20.2268  -31.6985 H   0  0  0  0  0  0  0  0  0  0  0  0
   -8.6282   20.2715  -30.6721 H   0  0  0  0  0  0  0  0  0  0  0  0
   -9.9450   22.4056  -32.2538 H   0  0  0  0  0  0  0  0  0  0  0  0
   -9.3021   22.3580  -30.5366 H   0  0  0  0  0  0  0  0  0  0  0  0
   -7.7440   24.0104  -30.0084 H   0  0  0  0  0  0  0  0  0  0  0  0
   -6.2443   22.9992  -30.1367 H   0  0  0  0  0  0  0  0  0  0  0  0
   -5.6971   24.7621  -32.0691 H   0  0  0  0  0  0  0  0  0  0  0  0
   -6.7706   25.7973  -31.0659 H   0  0  0  0  0  0  0  0  0  0  0  0
   -5.0043   26.1856  -29.7842 H   0  0  0  0  0  0  0  0  0  0  0  0
   -5.1843   24.4278  -29.2552 H   0  0  0  0  0  0  0  0  0  0  0  0
   -3.1090   25.6750  -30.6030 H   0  0  0  0  0  0  0  0  0  0  0  0
   -2.0580   23.5916  -30.4736 H   0  0  0  0  0  0  0  0  0  0  0  0
   -2.7848   24.1483  -28.8788 H   0  0  0  0  0  0  0  0  0  0  0  0
   -3.1828   21.8437  -29.0394 H   0  0  0  0  0  0  0  0  0  0  0  0
   -4.7367   22.7100  -29.3935 H   0  0  0  0  0  0  0  0  0  0  0  0
   -5.6221   20.7923  -30.4993 H   0  0  0  0  0  0  0  0  0  0  0  0
   -5.8680   19.5977  -32.6167 H   0  0  0  0  0  0  0  0  0  0  0  0
   -4.1715   19.8897  -34.4301 H   0  0  0  0  0  0  0  0  0  0  0  0
   -2.2549   21.4373  -33.9910 H   0  0  0  0  0  0  0  0  0  0  0  0
   -2.0760   22.6060  -31.8426 H   0  0  0  0  0  0  0  0  0  0  0  0
  1  2  1  0
  2  3  1  0
  3  4  1  0
  4  5  1  0
  5  6  1  0
  6  7  1  0
  7  8  1  0
  8  9  1  0
  9 10  1  0
 10 11  1  0
 11 12  1  0
 12 13  2  0
 13 14  1  0
 14 15  2  0
 15 16  1  0
 16 17  2  0
 17 12  1  0
  1 18  1  0
  1 19  1  0
  1 20  1  0
  2 21  1  0
  2 22  1  0
  3 23  1  0
  3 24  1  0
  4 25  1  0
  4 26  1  0
  6 27  1  0
  6 28  1  0
  7 29  1  0
  7 30  1  0
  8 31  1  0
  8 32  1  0
  9 33  1  0
 10 34  1  0
 10 35  1  0
 11 36  1  0
 11 37  1  0
 13 38  1  0
 14 39  1  0
 15 40  1  0
 16 41  1  0
 17 42  1  0
M  CHG  1  12   1
M  END
>  <smiles>  (7) 
CCCCSCCCNCC[n+]1ccccc1

>  <score_type>  (7) 
oracle

>  <origin>  (7) 
adg

>  <m_score__min__energy>  (7) 
-5.3499999999999996

>  <m_primary>  (7) 
energy

$$$$
7:0
     RDKit          3D

 43 45  0  0  0  0  0  0  0  0999 V2000
   -6.4010   25.6520  -29.3760 C   0  0  0  0  0  0  0  0  0  0  0  0
   -5.3940   25.7120  -30.5040 C   0  0  0  0  0  0  0  0  0  0  0  0
   -4.4230   24.6760  -30.4360 N   0  0  0  0  0  0  0  0  0  0  0  0
   -3.7310   24.5280  -29.2110 C   0  0  0  0  0  0  0  0  0  0  0  0
   -4.0970   23.2340  -28.5310 C   0  0  0  0  0  0  0  0  0  0  0  0
   -4.6470   23.5120  -31.2050 C   0  0  0  0  0  0  0  0  0  0  0  0
   -6.1410   23.4460  -31.5630 C   0  0  0  0  0  0  0  0  0  0  0  0
   -6.3230   22.3950  -32.5330 N   0  0  0  0  0  0  0  0  0  0  0  0
   -7.1280   21.2500  -32.3560 C   0  0  0  0  0  0  0  0  0  0  0  0
   -8.3610   21.2400  -31.7590 C   0  0  0  0  0  0  0  0  0  0  0  0
   -9.1190   20.0760  -31.6460 C   0  0  0  0  0  0  0  0  0  0  0  0
   -8.6530   18.8560  -32.1370 C   0  0  0  0  0  0  0  0  0  0  0  0
   -7.4190   18.8680  -32.7350 C   0  0  0  0  0  0  0  0  0  0  0  0
   -6.6730   20.0180  -32.8460 C   0  0  0  0  0  0  0  0  0  0  0  0
   -5.5650   19.7340  -33.4430 O   0  0  0  0  0  0  0  0  0  0  0  0
   -5.4850   18.4660  -33.7590 C   0  0  0  0  0  0  0  0  0  0  0  0
   -4.4820   17.7410  -34.4010 C   0  0  0  0  0  0  0  0  0  0  0  0
   -4.6280   16.3890  -34.6230 C   0  0  0  0  0  0  0  0  0  0  0  0
   -5.8000   15.8010  -34.1820 C   0  0  0  0  0  0  0  0  0  0  0  0
   -6.7990   16.5290  -33.5430 C   0  0  0  0  0  0  0  0  0  0  0  0
   -6.6530   17.8810  -33.3200 C   0  0  0  0  0  0  0  0  0  0  0  0
   -5.8733   25.6834  -28.4113 H   0  0  0  0  0  0  0  0  0  0  0  0
   -7.0843   26.5110  -29.4484 H   0  0  0  0  0  0  0  0  0  0  0  0
   -6.9774   24.7179  -29.4484 H   0  0  0  0  0  0  0  0  0  0  0  0
   -5.9321   25.6262  -31.4595 H   0  0  0  0  0  0  0  0  0  0  0  0
   -4.8602   26.6700  -30.4186 H   0  0  0  0  0  0  0  0  0  0  0  0
   -2.6486   24.5366  -29.4071 H   0  0  0  0  0  0  0  0  0  0  0  0
   -4.0121   25.3607  -28.5495 H   0  0  0  0  0  0  0  0  0  0  0  0
   -4.0587   23.3695  -27.4400 H   0  0  0  0  0  0  0  0  0  0  0  0
   -5.1140   22.9384  -28.8283 H   0  0  0  0  0  0  0  0  0  0  0  0
   -3.3855   22.4495  -28.8283 H   0  0  0  0  0  0  0  0  0  0  0  0
   -4.0460   23.5536  -32.1254 H   0  0  0  0  0  0  0  0  0  0  0  0
   -4.3561   22.6191  -30.6321 H   0  0  0  0  0  0  0  0  0  0  0  0
   -6.7313   23.2272  -30.6609 H   0  0  0  0  0  0  0  0  0  0  0  0
   -6.4768   24.4085  -31.9764 H   0  0  0  0  0  0  0  0  0  0  0  0
   -5.8000   22.5120  -33.4470 H   0  0  0  0  0  0  0  0  0  0  0  0
   -8.7655   22.1803  -31.3562 H   0  0  0  0  0  0  0  0  0  0  0  0
  -10.1047   20.1200  -31.1598 H   0  0  0  0  0  0  0  0  0  0  0  0
   -9.2445   17.9328  -32.0490 H   0  0  0  0  0  0  0  0  0  0  0  0
   -3.5665   18.2526  -34.7330 H   0  0  0  0  0  0  0  0  0  0  0  0
   -3.8467   15.8027  -35.1288 H   0  0  0  0  0  0  0  0  0  0  0  0
   -5.9470   14.7226  -34.3417 H   0  0  0  0  0  0  0  0  0  0  0  0
   -7.7159   16.0193  -33.2120 H   0  0  0  0  0  0  0  0  0  0  0  0
  1  2  1  0
  2  3  1  0
  3  4  1  0
  4  5  1  0
  3  6  1  0
  6  7  1  0
  7  8  1  0
  8  9  1  0
  9 10  2  0
 10 11  1  0
 11 12  2  0
 12 13  1  0
 13 14  2  0
 14 15  1  0
 15 16  1  0
 16 17  2  0
 17 18  1  0
 18 19  2  0
 19 20  1  0
 20 21  2  0
 14  9  1  0
 21 16  1  0
 21 13  1  0
  1 22  1  0
  1 23  1  0
  1 24  1  0
  2 25  1  0
  2 26  1  0
  4 27  1  0
  4 28  1  0
  5 29  1  0
  5 30  1  0
  5 31  1  0
  6 32  1  0
  6 33  1  0
  7 34  1  0
  7 35  1  0
  8 36  1  0
 10 37  1  0
 11 38  1  0
 12 39  1  0
 17 40  1  0
 18 41  1  0
 19 42  1  0
 20 43  1  0
M  END
>  <smiles>  (8) 
CCN(CC)CCNc1cccc2c1oc1ccccc12

>  <score_type>  (8) 
oracle

>  <origin>  (8) 
adg

>  <m_score__min__energy>  (8) 
-8.1899999999999995

>  <m_primary>  (8) 
energy

$$$$
8:0
     RDKit          3D

 39 41  0  0  0  0  0  0  0  0999 V2000
   -4.6960   25.6250  -31.0970 O   0  0  0  0  0  0  0  0  0  0  0  0
   -4.5280   24.5240  -30.4940 C   0  0  0  0  0  0  0  0  0  0  0  0
   -3.6730   24.5440  -29.3270 C   0  0  0  0  0  0  0  0  0  0  0  0
   -4.2310   24.1520  -28.1160 C   0  0  0  0  0  0  0  0  0  0  0  0
   -3.5140   24.1520  -26.9970 N   0  0  0  0  0  0  0  0  0  0  0  0
   -2.2260   24.5300  -26.9880 C   0  0  0  0  0  0  0  0  0  0  0  0
   -1.6490   24.9260  -28.1910 C   0  0  0  0  0  0  0  0  0  0  0  0
   -2.3930   24.9200  -29.3200 N   0  0  0  0  0  0  0  0  0  0  0  0
   -5.1800   23.3520  -30.9930 N   0  0  0  0  0  0  0  0  0  0  0  0
   -6.3260   23.4330  -31.8360 C   0  0  0  0  0  0  0  0  0  0  0  0
   -7.1620   22.2190  -31.9060 C   0  0  0  0  0  0  0  0  0  0  0  0
   -6.8100   21.1510  -32.7220 C   0  0  0  0  0  0  0  0  0  0  0  0
   -7.6140   20.0280  -32.7520 C   0  0  0  0  0  0  0  0  0  0  0  0
   -8.7570   19.9060  -32.0090 C   0  0  0  0  0  0  0  0  0  0  0  0
   -9.1110   20.9760  -31.1930 C   0  0  0  0  0  0  0  0  0  0  0  0
   -8.3200   22.1280  -31.1390 C   0  0  0  0  0  0  0  0  0  0  0  0
   -4.6410   22.0450  -30.6910 C   0  0  0  0  0  0  0  0  0  0  0  0
   -3.4020   21.7550  -31.4340 C   0  0  0  0  0  0  0  0  0  0  0  0
   -2.2000   21.7740  -30.6980 C   0  0  0  0  0  0  0  0  0  0  0  0
   -1.0240   21.4700  -31.3960 C   0  0  0  0  0  0  0  0  0  0  0  0
   -1.0070   21.1760  -32.6940 N   0  0  0  0  0  0  0  0  0  0  0  0
   -2.1630   21.1530  -33.4270 C   0  0  0  0  0  0  0  0  0  0  0  0
   -3.3790   21.4450  -32.7990 C   0  0  0  0  0  0  0  0  0  0  0  0
   -5.2842   23.8363  -28.0831 H   0  0  0  0  0  0  0  0  0  0  0  0
   -1.6426   24.5269  -26.0554 H   0  0  0  0  0  0  0  0  0  0  0  0
   -0.5957   25.2415  -28.2231 H   0  0  0  0  0  0  0  0  0  0  0  0
   -6.9569   24.2559  -31.4689 H   0  0  0  0  0  0  0  0  0  0  0  0
   -5.9368   23.5853  -32.8535 H   0  0  0  0  0  0  0  0  0  0  0  0
   -5.9000   21.1992  -33.3381 H   0  0  0  0  0  0  0  0  0  0  0  0
   -7.3216   19.1919  -33.4042 H   0  0  0  0  0  0  0  0  0  0  0  0
   -9.3729   18.9958  -32.0552 H   0  0  0  0  0  0  0  0  0  0  0  0
  -10.0243   20.9150  -30.5829 H   0  0  0  0  0  0  0  0  0  0  0  0
   -8.6139   22.9648  -30.4884 H   0  0  0  0  0  0  0  0  0  0  0  0
   -4.4254   21.9937  -29.6136 H   0  0  0  0  0  0  0  0  0  0  0  0
   -5.3911   21.2988  -30.9919 H   0  0  0  0  0  0  0  0  0  0  0  0
   -2.1860   22.0163  -29.6251 H   0  0  0  0  0  0  0  0  0  0  0  0
   -0.0712   21.4745  -30.8463 H   0  0  0  0  0  0  0  0  0  0  0  0
   -2.1363   20.9074  -34.4989 H   0  0  0  0  0  0  0  0  0  0  0  0
   -4.3149   21.4310  -33.3768 H   0  0  0  0  0  0  0  0  0  0  0  0
  1  2  2  0
  2  3  1  0
  3  4  2  0
  4  5  1  0
  5  6  2  0
  6  7  1  0
  7  8  2  0
  2  9  1  0
  9 10  1  0
 10 11  1  0
 11 12  2  0
 12 13  1  0
 13 14  2  0
 14 15  1  0
 15 16  2  0
  9 17  1  0
 17 18  1  0
 18 19  2  0
 19 20  1  0
 20 21  2  0
 21 22  1  0
 22 23  2  0
  8  3  1  0
 16 11  1  0
 23 18  1  0
  4 24  1  0
  6 25  1  0
  7 26  1  0
 10 27  1  0
 10 28  1  0
 12 29  1  0
 13 30  1  0
 14 31  1  0
 15 32  1  0
 16 33  1  0
 17 34  1  0
 17 35  1  0
 19 36  1  0
 20 37  1  0
 22 38  1  0
 23 39  1  0
M  END
>  <smiles>  (9) 
O=C(c1cnccn1)N(Cc1ccccc1)Cc1ccncc1

>  <score_type>  (9) 
oracle

>  <origin>  (9) 
adg

>  <m_score__min__energy>  (9) 
-7.5300000000000002

>  <m_primary>  (9) 
energy

$$$$
9:0
     RDKit          3D

 34 35  0  0  0  0  0  0  0  0999 V2000
   -4.2150   24.1360  -28.4610 C   0  0  0  0  0  0  0  0  0  0  0  0
   -3.7130   23.7430  -29.8340 C   0  0  0  0  0  0  0  0  0  0  0  0
   -4.2760   24.4980  -30.8470 O   0  0  0  0  0  0  0  0  0  0  0  0
   -5.3890   25.2170  -30.4800 C   0  0  0  0  0  0  0  0  0  0  0  0
   -6.7020   24.5640  -30.8440 C   0  0  0  0  0  0  0  0  0  0  0  0
   -6.5120   23.1810  -31.2270 N   0  0  0  0  0  0  0  0  0  0  0  0
   -7.6550   22.4500  -31.6430 C   0  0  0  0  0  0  0  0  0  0  0  0
   -8.7690   23.0400  -31.6550 O   0  0  0  0  0  0  0  0  0  0  0  0
   -7.5330   21.0500  -32.0420 C   0  0  0  0  0  0  0  0  0  0  0  0
   -8.4110   20.1190  -31.5260 C   0  0  0  0  0  0  0  0  0  0  0  0
   -8.3280   18.7890  -31.8790 C   0  0  0  0  0  0  0  0  0  0  0  0
   -7.3420   18.4070  -32.7660 C   0  0  0  0  0  0  0  0  0  0  0  0
   -7.2410   17.0650  -33.1360 C   0  0  0  0  0  0  0  0  0  0  0  0
   -6.2330   16.7130  -34.0350 C   0  0  0  0  0  0  0  0  0  0  0  0
   -5.3610   17.6540  -34.5430 C   0  0  0  0  0  0  0  0  0  0  0  0
   -5.4550   18.9810  -34.1810 C   0  0  0  0  0  0  0  0  0  0  0  0
   -6.4490   19.3410  -33.2930 C   0  0  0  0  0  0  0  0  0  0  0  0
   -6.5920   20.6200  -32.9020 N   0  0  0  0  0  0  0  0  0  0  0  0
   -3.5959   23.6514  -27.6917 H   0  0  0  0  0  0  0  0  0  0  0  0
   -4.1533   25.2283  -28.3468 H   0  0  0  0  0  0  0  0  0  0  0  0
   -5.2606   23.8139  -28.3468 H   0  0  0  0  0  0  0  0  0  0  0  0
   -2.6215   23.8771  -29.8608 H   0  0  0  0  0  0  0  0  0  0  0  0
   -3.9997   22.6947  -30.0038 H   0  0  0  0  0  0  0  0  0  0  0  0
   -5.3646   25.3558  -29.3891 H   0  0  0  0  0  0  0  0  0  0  0  0
   -5.3463   26.1663  -31.0342 H   0  0  0  0  0  0  0  0  0  0  0  0
   -7.3762   24.6062  -29.9759 H   0  0  0  0  0  0  0  0  0  0  0  0
   -7.1343   25.1052  -31.6985 H   0  0  0  0  0  0  0  0  0  0  0  0
   -5.5560   22.7630  -31.1890 H   0  0  0  0  0  0  0  0  0  0  0  0
   -9.1905   20.4436  -30.8210 H   0  0  0  0  0  0  0  0  0  0  0  0
   -9.0300   18.0507  -31.4641 H   0  0  0  0  0  0  0  0  0  0  0  0
   -7.9323   16.3104  -32.7328 H   0  0  0  0  0  0  0  0  0  0  0  0
   -6.1315   15.6626  -34.3453 H   0  0  0  0  0  0  0  0  0  0  0  0
   -4.5777   17.3401  -35.2486 H   0  0  0  0  0  0  0  0  0  0  0  0
   -4.7593   19.7300  -34.5872 H   0  0  0  0  0  0  0  0  0  0  0  0
  1  2  1  0
  2  3  1  0
  3  4  1  0
  4  5  1  0
  5  6  1  0
  6  7  1  0
  7  8  2  0
  7  9  1  0
  9 10  2  0
 10 11  1  0
 11 12  2  0
 12 13  1  0
 13 14  2  0
 14 15  1  0
 15 16  2  0
 16 17  1  0
 17 18  2  0
 18  9  1  0
 17 12  1  0
  1 19  1  0
  1 20  1  0
  1 21  1  0
  2 22  1  0
  2 23  1  0
  4 24  1  0
  4 25  1  0
  5 26  1  0
  5 27  1  0
  6 28  1  0
 10 29  1  0
 11 30  1  0
 13 31  1  0
 14 32  1  0
 15 33  1  0
 16 34  1  0
M  END
>  <smiles>  (10) 
CCOCCNC(=O)c1ccc2ccccc2n1

>  <score_type>  (10) 
oracle

>  <origin>  (10) 
adg

>  <m_score__min__energy>  (10) 
-7.2999999999999998

>  <m_primary>  (10) 
energy

$$$$
10:0
     RDKit          3D

 70 73  0  0  0  0  0  0  0  0999 V2000
   -2.5110   24.5410  -28.9520 C   0  0  0  0  0  0  0  0  0  0  0  0
   -3.2740   24.8930  -30.0630 O   0  0  0  0  0  0  0  0  0  0  0  0
   -4.5600   24.5080  -30.3280 C   0  0  0  0  0  0  0  0  0  0  0  0
   -5.5680   25.2820  -29.7510 C   0  0  0  0  0  0  0  0  0  0  0  0
   -6.9010   24.9920  -29.9430 C   0  0  0  0  0  0  0  0  0  0  0  0
   -7.1860   23.9010  -30.7340 C   0  0  0  0  0  0  0  0  0  0  0  0
   -6.1770   23.1210  -31.3150 C   0  0  0  0  0  0  0  0  0  0  0  0
   -4.8330   23.4100  -31.1250 C   0  0  0  0  0  0  0  0  0  0  0  0
   -3.8540   22.6180  -31.7420 N   0  0  0  0  0  0  0  0  0  0  0  0
   -3.9160   22.2230  -33.1660 C   0  0  0  0  0  0  0  0  0  0  0  0
   -4.1450   20.7180  -33.0980 C   0  0  0  0  0  0  0  0  0  0  0  0
   -3.1180   20.1380  -32.3420 N   0  0  0  0  0  0  0  0  0  0  0  0
   -2.7270   18.8110  -32.6570 C   0  0  0  0  0  0  0  0  0  0  0  0
   -3.6590   18.2330  -33.6300 C   0  0  0  0  0  0  0  0  0  0  0  0
   -3.2640   18.1300  -34.8410 O   0  0  0  0  0  0  0  0  0  0  0  0
   -4.9680   17.7720  -33.3690 N   0  0  0  0  0  0  0  0  0  0  0  0
   -5.0880   16.7070  -32.3680 C   0  0  0  0  0  0  0  0  0  0  0  0
   -4.5390   15.4220  -32.8550 C   0  0  0  0  0  0  0  0  0  0  0  0
   -4.5310   14.4590  -32.0380 O   0  0  0  0  0  0  0  0  0  0  0  0
   -4.0530   15.3190  -34.1860 N   0  0  0  0  0  0  0  0  0  0  0  0
   -3.5140   14.0450  -34.6470 C   0  0  0  0  0  0  0  0  0  0  0  0
   -2.1320   13.8130  -34.0240 C   0  0  0  0  0  0  0  0  0  0  0  0
   -1.3970   12.9530  -35.0380 C   0  0  0  0  0  0  0  0  0  0  0  0
   -2.2600   12.8870  -36.2690 C   0  0  0  0  0  0  0  0  0  0  0  0
   -3.1740   14.0760  -36.1010 C   0  0  0  0  0  0  0  0  0  0  0  0
   -6.1710   18.2490  -33.9970 C   0  0  0  0  0  0  0  0  0  0  0  0
   -7.1320   18.9100  -33.1100 C   0  0  0  0  0  0  0  0  0  0  0  0
   -7.9310   18.1570  -32.2410 C   0  0  0  0  0  0  0  0  0  0  0  0
   -8.8520   18.7720  -31.3990 C   0  0  0  0  0  0  0  0  0  0  0  0
   -9.0270   20.1390  -31.3760 C   0  0  0  0  0  0  0  0  0  0  0  0
   -8.2450   20.8840  -32.2270 C   0  0  0  0  0  0  0  0  0  0  0  0
   -7.3320   20.2740  -33.0610 C   0  0  0  0  0  0  0  0  0  0  0  0
   -2.8660   20.5940  -31.0260 C   0  0  0  0  0  0  0  0  0  0  0  0
   -2.6580   22.0980  -31.0720 C   0  0  0  0  0  0  0  0  0  0  0  0
   -3.0612   24.7948  -28.0340 H   0  0  0  0  0  0  0  0  0  0  0  0
   -2.3109   23.4596  -28.9724 H   0  0  0  0  0  0  0  0  0  0  0  0
   -1.5584   25.0906  -28.9724 H   0  0  0  0  0  0  0  0  0  0  0  0
   -5.2912   26.1449  -29.1275 H   0  0  0  0  0  0  0  0  0  0  0  0
   -7.6966   25.6003  -29.4881 H   0  0  0  0  0  0  0  0  0  0  0  0
   -8.2376   23.6338  -30.9152 H   0  0  0  0  0  0  0  0  0  0  0  0
   -6.4573   22.2582  -31.9371 H   0  0  0  0  0  0  0  0  0  0  0  0
   -4.7486   22.7262  -33.6794 H   0  0  0  0  0  0  0  0  0  0  0  0
   -3.0127   22.4977  -33.7304 H   0  0  0  0  0  0  0  0  0  0  0  0
   -5.1153   20.5130  -32.6220 H   0  0  0  0  0  0  0  0  0  0  0  0
   -4.1464   20.2943  -34.1131 H   0  0  0  0  0  0  0  0  0  0  0  0
   -1.7135   18.8213  -33.0845 H   0  0  0  0  0  0  0  0  0  0  0  0
   -2.7381   18.2033  -31.7402 H   0  0  0  0  0  0  0  0  0  0  0  0
   -4.5393   17.0071  -31.4631 H   0  0  0  0  0  0  0  0  0  0  0  0
   -6.1573   16.5602  -32.1556 H   0  0  0  0  0  0  0  0  0  0  0  0
   -4.0590   16.1140  -34.8620 H   0  0  0  0  0  0  0  0  0  0  0  0
   -4.2789   13.2961  -34.3940 H   0  0  0  0  0  0  0  0  0  0  0  0
   -1.6085   14.7685  -33.8724 H   0  0  0  0  0  0  0  0  0  0  0  0
   -2.1938   13.3338  -33.0358 H   0  0  0  0  0  0  0  0  0  0  0  0
   -0.4246   13.4054  -35.2825 H   0  0  0  0  0  0  0  0  0  0  0  0
   -1.2101   11.9463  -34.6359 H   0  0  0  0  0  0  0  0  0  0  0  0
   -1.6545   12.9788  -37.1827 H   0  0  0  0  0  0  0  0  0  0  0  0
   -2.7997   11.9340  -36.3718 H   0  0  0  0  0  0  0  0  0  0  0  0
   -2.6574   15.0106  -36.3651 H   0  0  0  0  0  0  0  0  0  0  0  0
   -4.0601   14.0332  -36.7514 H   0  0  0  0  0  0  0  0  0  0  0  0
   -5.8823   18.9677  -34.7781 H   0  0  0  0  0  0  0  0  0  0  0  0
   -6.6835   17.3547  -34.3810 H   0  0  0  0  0  0  0  0  0  0  0  0
   -7.8289   17.0619  -32.2238 H   0  0  0  0  0  0  0  0  0  0  0  0
   -9.4607   18.1466  -30.7294 H   0  0  0  0  0  0  0  0  0  0  0  0
   -9.7598   20.6130  -30.7065 H   0  0  0  0  0  0  0  0  0  0  0  0
   -8.3490   21.9790  -32.2426 H   0  0  0  0  0  0  0  0  0  0  0  0
   -6.7290   20.9110  -33.7248 H   0  0  0  0  0  0  0  0  0  0  0  0
   -3.7242   20.3571  -30.3799 H   0  0  0  0  0  0  0  0  0  0  0  0
   -1.9707   20.1006  -30.6197 H   0  0  0  0  0  0  0  0  0  0  0  0
   -2.5730   22.5093  -30.0553 H   0  0  0  0  0  0  0  0  0  0  0  0
   -1.7324   22.3746  -31.5981 H   0  0  0  0  0  0  0  0  0  0  0  0
  1  2  1  0
  2  3  1  0
  3  4  2  0
  4  5  1  0
  5  6  2  0
  6  7  1  0
  7  8  2  0
  8  9  1  0
  9 10  1  0
 10 11  1  0
 11 12  1  0
 12 13  1  0
 13 14  1  0
 14 15  2  0
 14 16  1  0
 16 17  1  0
 17 18  1  0
 18 19  2  0
 18 20  1  0
 20 21  1  0
 21 22  1  0
 22 23  1  0
 23 24  1  0
 24 25  1  0
 16 26  1  0
 26 27  1  0
 27 28  2  0
 28 29  1  0
 29 30  2  0
 30 31  1  0
 31 32  2  0
 12 33  1  0
 33 34  1  0
  8  3  1  0
 34  9  1  0
 25 21  1  0
 32 27  1  0
  1 35  1  0
  1 36  1  0
  1 37  1  0
  4 38  1  0
  5 39  1  0
  6 40  1  0
  7 41  1  0
 10 42  1  0
 10 43  1  0
 11 44  1  0
 11 45  1  0
 13 46  1  0
 13 47  1  0
 17 48  1  0
 17 49  1  0
 20 50  1  0
 21 51  1  0
 22 52  1  0
 22 53  1  0
 23 54  1  0
 23 55  1  0
 24 56  1  0
 24 57  1  0
 25 58  1  0
 25 59  1  0
 26 60  1  0
 26 61  1  0
 28 62  1  0
 29 63  1  0
 30 64  1  0
 31 65  1  0
 32 66  1  0
 33 67  1  0
 33 68  1  0
 34 69  1  0
 34 70  1  0
M  END
>  <smiles>  (11) 
COc1ccccc1N1CCN(CC(=O)N(CC(=O)NC2CCCC2)Cc2ccccc2)CC1

>  <score_type>  (11) 
oracle

>  <origin>  (11) 
adg

>  <m_score__min__energy>  (11) 
-10.359999999999999

>  <m_primary>  (11) 
energy

$$$$
11:0
     RDKit          3D

 30 32  0  0  0  0  0  0  0  0999 V2000
   -9.1160   19.5530  -32.5330 C   0  0  0  0  0  0  0  0  0  0  0  0
   -7.8820   20.2490  -32.2360 N   0  0  0  0  0  0  0  0  0  0  0  0
   -7.8360   21.4900  -31.7930 N   0  0  0  0  0  0  0  0  0  0  0  0
   -6.5490   21.8780  -31.6030 C   0  0  0  0  0  0  0  0  0  0  0  0
   -6.1810   23.1990  -31.1170 C   0  0  0  0  0  0  0  0  0  0  0  0
   -7.1090   23.9190  -30.3780 C   0  0  0  0  0  0  0  0  0  0  0  0
   -6.8510   25.1770  -29.8770 C   0  0  0  0  0  0  0  0  0  0  0  0
   -5.6130   25.7230  -30.1320 C   0  0  0  0  0  0  0  0  0  0  0  0
   -4.7270   25.0280  -30.8430 N   0  0  0  0  0  0  0  0  0  0  0  0
   -4.9630   23.7900  -31.3430 C   0  0  0  0  0  0  0  0  0  0  0  0
   -5.7870   20.8320  -31.9450 N   0  0  0  0  0  0  0  0  0  0  0  0
   -6.6080   19.8260  -32.3360 C   0  0  0  0  0  0  0  0  0  0  0  0
   -6.2560   18.4880  -32.7990 C   0  0  0  0  0  0  0  0  0  0  0  0
   -6.1000   18.3110  -34.1740 C   0  0  0  0  0  0  0  0  0  0  0  0
   -5.7630   17.0470  -34.6610 C   0  0  0  0  0  0  0  0  0  0  0  0
   -5.5890   15.9930  -33.7800 C   0  0  0  0  0  0  0  0  0  0  0  0
   -5.1640   14.3830  -34.3560 Cl  0  0  0  0  0  0  0  0  0  0  0  0
   -5.7390   16.1480  -32.4070 C   0  0  0  0  0  0  0  0  0  0  0  0
   -6.0770   17.4300  -31.9610 C   0  0  0  0  0  0  0  0  0  0  0  0
   -9.6139   19.2722  -31.5932 H   0  0  0  0  0  0  0  0  0  0  0  0
   -9.7771   20.2113  -33.1157 H   0  0  0  0  0  0  0  0  0  0  0  0
   -8.8947   18.6467  -33.1157 H   0  0  0  0  0  0  0  0  0  0  0  0
   -8.0926   23.4665  -30.1837 H   0  0  0  0  0  0  0  0  0  0  0  0
   -7.6066   25.7247  -29.2947 H   0  0  0  0  0  0  0  0  0  0  0  0
   -5.3583   26.7234  -29.7522 H   0  0  0  0  0  0  0  0  0  0  0  0
   -4.1884   23.2661  -31.9222 H   0  0  0  0  0  0  0  0  0  0  0  0
   -6.2406   19.1556  -34.8646 H   0  0  0  0  0  0  0  0  0  0  0  0
   -5.6360   16.8886  -35.7421 H   0  0  0  0  0  0  0  0  0  0  0  0
   -5.5996   15.3089  -31.7096 H   0  0  0  0  0  0  0  0  0  0  0  0
   -6.2044   17.5912  -30.8804 H   0  0  0  0  0  0  0  0  0  0  0  0
  1  2  1  0
  2  3  1  0
  3  4  2  0
  4  5  1  0
  5  6  2  0
  6  7  1  0
  7  8  2  0
  8  9  1  0
  9 10  2  0
  4 11  1  0
 11 12  2  0
 12 13  1  0
 13 14  2  0
 14 15  1  0
 15 16  2  0
 16 17  1  0
 16 18  1  0
 18 19  2  0
 12  2  1  0
 19 13  1  0
 10  5  1  0
  1 20  1  0
  1 21  1  0
  1 22  1  0
  6 23  1  0
  7 24  1  0
  8 25  1  0
 10 26  1  0
 14 27  1  0
 15 28  1  0
 18 29  1  0
 19 30  1  0
M  END
>  <smiles>  (12) 
Cn1nc(-c2cccnc2)nc1-c1ccc(Cl)cc1

>  <score_type>  (12) 
oracle

>  <origin>  (12) 
adg

>  <m_score__min__energy>  (12) 
-7.5999999999999996

>  <m_primary>  (12) 
energy

$$$$
12:0
     RDKit          3D

 47 50  0  0  0  0  0  0  0  0999 V2000
    3.6360   23.5410  -36.0150 C   0  0  0  0  0  0  0  0  0  0  0  0
    2.4700   22.7180  -35.7260 N   0  0  0  0  0  0  0  0  0  0  0  0
    1.2540   23.1250  -36.1840 C   0  0  0  0  0  0  0  0  0  0  0  0
    1.1920   24.2050  -36.8410 O   0  0  0  0  0  0  0  0  0  0  0  0
    0.1490   22.3880  -35.9360 N   0  0  0  0  0  0  0  0  0  0  0  0
    0.2600   21.2410  -35.2300 C   0  0  0  0  0  0  0  0  0  0  0  0
   -0.8770   20.4970  -34.9840 C   0  0  0  0  0  0  0  0  0  0  0  0
   -0.7890   19.3130  -34.2600 C   0  0  0  0  0  0  0  0  0  0  0  0
   -2.0590   18.6020  -34.0580 C   0  0  0  0  0  0  0  0  0  0  0  0
   -2.1860   17.5200  -34.6920 O   0  0  0  0  0  0  0  0  0  0  0  0
   -3.0750   19.1090  -33.2030 N   0  0  0  0  0  0  0  0  0  0  0  0
   -2.9530   20.3490  -32.4650 C   0  0  0  0  0  0  0  0  0  0  0  0
   -4.1080   21.2490  -32.8990 C   0  0  0  0  0  0  0  0  0  0  0  0
   -5.3300   20.5460  -32.5620 N   0  0  0  0  0  0  0  0  0  0  0  0
   -6.5200   21.3000  -32.3490 C   0  0  0  0  0  0  0  0  0  0  0  0
   -7.7630   20.6970  -32.1870 C   0  0  0  0  0  0  0  0  0  0  0  0
   -8.9170   21.4280  -31.9830 C   0  0  0  0  0  0  0  0  0  0  0  0
   -8.8750   22.8040  -31.9350 C   0  0  0  0  0  0  0  0  0  0  0  0
   -7.6650   23.4210  -32.0920 C   0  0  0  0  0  0  0  0  0  0  0  0
   -6.5140   22.6820  -32.2950 C   0  0  0  0  0  0  0  0  0  0  0  0
   -5.4140   19.1090  -32.4290 C   0  0  0  0  0  0  0  0  0  0  0  0
   -4.2900   18.3580  -33.0570 C   0  0  0  0  0  0  0  0  0  0  0  0
    0.4070   18.8350  -33.7640 C   0  0  0  0  0  0  0  0  0  0  0  0
    1.5500   19.6000  -34.0210 C   0  0  0  0  0  0  0  0  0  0  0  0
    1.4720   20.7850  -34.7440 C   0  0  0  0  0  0  0  0  0  0  0  0
    2.5850   21.5590  -35.0130 C   0  0  0  0  0  0  0  0  0  0  0  0
    3.7210   21.1800  -34.5860 O   0  0  0  0  0  0  0  0  0  0  0  0
    4.0978   23.8669  -35.0713 H   0  0  0  0  0  0  0  0  0  0  0  0
    4.3634   22.9551  -36.5960 H   0  0  0  0  0  0  0  0  0  0  0  0
    3.3276   24.4227  -36.5960 H   0  0  0  0  0  0  0  0  0  0  0  0
   -0.7870   22.7270  -36.3040 H   0  0  0  0  0  0  0  0  0  0  0  0
   -1.8517   20.8407  -35.3605 H   0  0  0  0  0  0  0  0  0  0  0  0
   -3.0143   20.1520  -31.3845 H   0  0  0  0  0  0  0  0  0  0  0  0
   -1.9852   20.8306  -32.6685 H   0  0  0  0  0  0  0  0  0  0  0  0
   -4.0627   22.2091  -32.3641 H   0  0  0  0  0  0  0  0  0  0  0  0
   -4.0591   21.4654  -33.9764 H   0  0  0  0  0  0  0  0  0  0  0  0
   -7.8292   19.5996  -32.2226 H   0  0  0  0  0  0  0  0  0  0  0  0
   -9.8777   20.9070  -31.8578 H   0  0  0  0  0  0  0  0  0  0  0  0
   -9.7912   23.3912  -31.7745 H   0  0  0  0  0  0  0  0  0  0  0  0
   -7.6064   24.5189  -32.0564 H   0  0  0  0  0  0  0  0  0  0  0  0
   -5.5584   23.2128  -32.4181 H   0  0  0  0  0  0  0  0  0  0  0  0
   -5.4322   18.8648  -31.3566 H   0  0  0  0  0  0  0  0  0  0  0  0
   -6.3274   18.8011  -32.9589 H   0  0  0  0  0  0  0  0  0  0  0  0
   -4.0758   17.4772  -32.4338 H   0  0  0  0  0  0  0  0  0  0  0  0
   -4.6192   18.0984  -34.0740 H   0  0  0  0  0  0  0  0  0  0  0  0
    0.4592   17.8962  -33.1931 H   0  0  0  0  0  0  0  0  0  0  0  0
    2.5257   19.2585  -33.6451 H   0  0  0  0  0  0  0  0  0  0  0  0
  1  2  1  0
  2  3  1  0
  3  4  2  0
  3  5  1  0
  5  6  1  0
  6  7  2  0
  7  8  1  0
  8  9  1  0
  9 10  2  0
  9 11  1  0
 11 12  1  0
 12 13  1  0
 13 14  1  0
 14 15  1  0
 15 16  2  0
 16 17  1  0
 17 18  2  0
 18 19  1  0
 19 20  2  0
 14 21  1  0
 21 22  1  0
  8 23  2  0
 23 24  1  0
 24 25  2  0
 25 26  1  0
 26 27  2  0
 26  2  1  0
 25  6  1  0
 22 11  1  0
 20 15  1  0
  1 28  1  0
  1 29  1  0
  1 30  1  0
  5 31  1  0
  7 32  1  0
 12 33  1  0
 12 34  1  0
 13 35  1  0
 13 36  1  0
 16 37  1  0
 17 38  1  0
 18 39  1  0
 19 40  1  0
 20 41  1  0
 21 42  1  0
 21 43  1  0
 22 44  1  0
 22 45  1  0
 23 46  1  0
 24 47  1  0
M  END
>  <smiles>  (13) 
Cn1c(=O)[nH]c2cc(C(=O)N3CCN(c4ccccc4)CC3)ccc2c1=O

>  <score_type>  (13) 
oracle

>  <origin>  (13) 
adg

>  <m_score__min__energy>  (13) 
-8.1300000000000008

>  <m_primary>  (13) 
energy

$$$$
13:0
     RDKit          3D

 47 49  0  0  0  0  0  0  0  0999 V2000
   -8.6510   18.6130  -32.2920 C   0  0  0  0  0  0  0  0  0  0  0  0
   -7.4140   17.7700  -32.0910 C   0  0  0  0  0  0  0  0  0  0  0  0
   -6.8520   17.2920  -33.4150 C   0  0  0  0  0  0  0  0  0  0  0  0
   -5.6950   18.4700  -34.0710 S   0  0  0  0  0  0  0  0  0  0  0  0
   -6.4720   19.3280  -35.0380 O   0  0  0  0  0  0  0  0  0  0  0  0
   -4.6330   17.7720  -34.8680 O   0  0  0  0  0  0  0  0  0  0  0  0
   -5.0330   19.4950  -32.8570 N   0  0  0  0  0  0  0  0  0  0  0  0
   -3.7550   19.9770  -33.3240 C   0  0  0  0  0  0  0  0  0  0  0  0
   -3.0800   20.6730  -32.1630 C   0  0  0  0  0  0  0  0  0  0  0  0
   -3.9390   21.7650  -31.7570 N   0  0  0  0  0  0  0  0  0  0  0  0
   -3.4410   22.7090  -30.8120 C   0  0  0  0  0  0  0  0  0  0  0  0
   -2.5680   22.2450  -29.8390 C   0  0  0  0  0  0  0  0  0  0  0  0
   -2.0570   23.1190  -28.8990 C   0  0  0  0  0  0  0  0  0  0  0  0
   -2.4540   24.4560  -28.9820 C   0  0  0  0  0  0  0  0  0  0  0  0
   -1.9040   25.3260  -27.9930 N   0  0  0  0  0  0  0  0  0  0  0  0
   -2.3400   25.3090  -26.7140 C   0  0  0  0  0  0  0  0  0  0  0  0
   -1.6260   26.2520  -26.0030 C   0  0  0  0  0  0  0  0  0  0  0  0
   -0.7600   26.8170  -26.9130 C   0  0  0  0  0  0  0  0  0  0  0  0
    0.2150   27.8880  -26.6070 C   0  0  0  0  0  0  0  0  0  0  0  0
   -0.9340   26.2430  -28.1440 C   0  0  0  0  0  0  0  0  0  0  0  0
   -3.2940   24.8530  -29.9340 N   0  0  0  0  0  0  0  0  0  0  0  0
   -3.7850   24.0010  -30.8390 N   0  0  0  0  0  0  0  0  0  0  0  0
   -5.2720   21.8810  -32.3080 C   0  0  0  0  0  0  0  0  0  0  0  0
   -5.9400   20.5490  -32.4970 C   0  0  0  0  0  0  0  0  0  0  0  0
   -9.0653   18.8954  -31.3129 H   0  0  0  0  0  0  0  0  0  0  0  0
   -8.3885   19.5210  -32.8547 H   0  0  0  0  0  0  0  0  0  0  0  0
   -9.4001   18.0366  -32.8547 H   0  0  0  0  0  0  0  0  0  0  0  0
   -6.6512   18.3706  -31.5739 H   0  0  0  0  0  0  0  0  0  0  0  0
   -7.6879   16.8891  -31.4918 H   0  0  0  0  0  0  0  0  0  0  0  0
   -6.3405   16.3300  -33.2635 H   0  0  0  0  0  0  0  0  0  0  0  0
   -7.6808   17.1765  -34.1289 H   0  0  0  0  0  0  0  0  0  0  0  0
   -3.1377   19.1334  -33.6665 H   0  0  0  0  0  0  0  0  0  0  0  0
   -3.8871   20.6703  -34.1677 H   0  0  0  0  0  0  0  0  0  0  0  0
   -2.9462   19.9690  -31.3284 H   0  0  0  0  0  0  0  0  0  0  0  0
   -2.0879   21.0465  -32.4566 H   0  0  0  0  0  0  0  0  0  0  0  0
   -2.2830   21.1828  -29.8159 H   0  0  0  0  0  0  0  0  0  0  0  0
   -1.3648   22.7758  -28.1160 H   0  0  0  0  0  0  0  0  0  0  0  0
   -3.1278   24.6564  -26.3096 H   0  0  0  0  0  0  0  0  0  0  0  0
   -1.7270   26.4998  -24.9361 H   0  0  0  0  0  0  0  0  0  0  0  0
    0.3122   27.9948  -25.5165 H   0  0  0  0  0  0  0  0  0  0  0  0
    1.1928   27.6279  -27.0386 H   0  0  0  0  0  0  0  0  0  0  0  0
   -0.1355   28.8372  -27.0386 H   0  0  0  0  0  0  0  0  0  0  0  0
   -0.3898   26.4840  -29.0691 H   0  0  0  0  0  0  0  0  0  0  0  0
   -5.8838   22.4874  -31.6239 H   0  0  0  0  0  0  0  0  0  0  0  0
   -5.1819   22.3506  -33.2986 H   0  0  0  0  0  0  0  0  0  0  0  0
   -6.4373   20.2730  -31.5554 H   0  0  0  0  0  0  0  0  0  0  0  0
   -6.6505   20.6605  -33.3293 H   0  0  0  0  0  0  0  0  0  0  0  0
  1  2  1  0
  2  3  1  0
  3  4  1  0
  4  5  2  0
  4  6  2  0
  4  7  1  0
  7  8  1  0
  8  9  1  0
  9 10  1  0
 10 11  1  0
 11 12  2  0
 12 13  1  0
 13 14  2  0
 14 15  1  0
 15 16  1  0
 16 17  2  0
 17 18  1  0
 18 19  1  0
 18 20  2  0
 14 21  1  0
 21 22  2  0
 10 23  1  0
 23 24  1  0
 24  7  1  0
 22 11  1  0
 20 15  1  0
  1 25  1  0
  1 26  1  0
  1 27  1  0
  2 28  1  0
  2 29  1  0
  3 30  1  0
  3 31  1  0
  8 32  1  0
  8 33  1  0
  9 34  1  0
  9 35  1  0
 12 36  1  0
 13 37  1  0
 16 38  1  0
 17 39  1  0
 19 40  1  0
 19 41  1  0
 19 42  1  0
 20 43  1  0
 23 44  1  0
 23 45  1  0
 24 46  1  0
 24 47  1  0
M  END
>  <smiles>  (14) 
CCCS(=O)(=O)N1CCN(c2ccc(-n3ccc(C)c3)nn2)CC1

>  <score_type>  (14) 
oracle

>  <origin>  (14) 
adg

>  <m_score__min__energy>  (14) 
-7.9500000000000002

>  <m_primary>  (14) 
energy

$$$$
14:0
     RDKit          3D

 56 59  0  0  1  0  0  0  0  0999 V2000
   -7.0730   18.0400  -31.7790 C   0  0  0  0  0  0  0  0  0  0  0  0
   -8.3090   18.6820  -32.2990 C   0  0  0  0  0  0  0  0  0  0  0  0
   -8.2270   20.0090  -32.7710 N   0  0  0  0  0  0  0  0  0  0  0  0
   -8.9510   21.0350  -32.1140 C   0  0  0  0  0  0  0  0  0  0  0  0
   -8.2310   22.3250  -31.8550 C   0  0  0  0  0  0  0  0  0  0  0  0
   -7.0460   22.4770  -32.6910 N   0  0  0  0  0  0  0  0  0  0  0  0
   -5.8270   22.7160  -32.0540 C   0  0  0  0  0  0  0  0  0  0  0  0
   -5.7410   23.8310  -31.2150 C   0  0  0  0  0  0  0  0  0  0  0  0
   -4.5470   24.1300  -30.5460 C   0  0  0  0  0  0  0  0  0  0  0  0
   -3.4170   23.3550  -30.6800 C   0  0  0  0  0  0  0  0  0  0  0  0
   -2.2410   23.7220  -29.9700 N   0  0  0  0  0  0  0  0  0  0  0  0
   -2.2550   23.9250  -28.5450 C   0  0  0  0  0  0  0  0  0  0  0  0
   -2.4530   22.7000  -27.7560 C   0  0  0  0  0  0  0  0  0  0  0  0
   -2.1490   21.5250  -28.1580 N   0  0  0  0  0  0  0  0  0  0  0  0
   -2.7450   20.4120  -27.5210 C   0  0  0  0  0  0  0  0  0  0  0  0
   -3.5020   22.2560  -31.5060 C   0  0  0  0  0  0  0  0  0  0  0  0
   -2.3730   21.4730  -31.6290 C   0  0  0  0  0  0  0  0  0  0  0  0
   -1.1760   21.7350  -30.9800 O   0  0  0  0  0  0  0  0  0  0  0  0
   -2.4010   20.3530  -32.4380 C   0  0  0  0  0  0  0  0  0  0  0  0
   -1.2640   19.5570  -32.5690 C   0  0  0  0  0  0  0  0  0  0  0  0
   -1.2940   18.4470  -33.3730 C   0  0  0  0  0  0  0  0  0  0  0  0
   -2.4630   18.1430  -34.0370 C   0  0  0  0  0  0  0  0  0  0  0  0
   -3.5690   18.9330  -33.8980 C   0  0  0  0  0  0  0  0  0  0  0  0
   -3.5590   20.0660  -33.0870 C   0  0  0  0  0  0  0  0  0  0  0  0
   -4.7140   20.8360  -32.9810 C   0  0  0  0  0  0  0  0  0  0  0  0
   -5.7990   20.4240  -33.6910 O   0  0  0  0  0  0  0  0  0  0  0  0
   -4.6890   21.9550  -32.1740 C   0  0  0  0  0  0  0  0  0  0  0  0
   -4.7270   25.2760  -29.7840 O   0  0  0  0  0  0  0  0  0  0  0  0
   -6.1250   25.5350  -29.7340 C   0  0  0  0  0  0  0  0  0  0  0  0
   -6.6140   24.8170  -30.8310 O   0  0  0  0  0  0  0  0  0  0  0  0
   -7.0901   18.0489  -30.6792 H   0  0  0  0  0  0  0  0  0  0  0  0
   -7.0212   17.0010  -32.1365 H   0  0  0  0  0  0  0  0  0  0  0  0
   -6.1932   18.5951  -32.1365 H   0  0  0  0  0  0  0  0  0  0  0  0
   -8.6719   18.0621  -33.1321 H   0  0  0  0  0  0  0  0  0  0  0  0
   -8.9701   18.7467  -31.4222 H   0  0  0  0  0  0  0  0  0  0  0  0
   -8.0320   20.1370  -33.7740 H   0  0  0  0  0  0  0  0  0  0  0  0
   -9.8316   21.2659  -32.7314 H   0  0  0  0  0  0  0  0  0  0  0  0
   -9.1739   20.6298  -31.1160 H   0  0  0  0  0  0  0  0  0  0  0  0
   -8.9173   23.1600  -32.0596 H   0  0  0  0  0  0  0  0  0  0  0  0
   -7.9029   22.3214  -30.8051 H   0  0  0  0  0  0  0  0  0  0  0  0
   -7.2400   22.3880  -33.7070 H   0  0  0  0  0  0  0  0  0  0  0  0
   -1.3640   23.8420  -30.4990 H   0  0  0  0  0  0  0  0  0  0  0  0
   -1.2929   24.3705  -28.2520 H   0  0  0  0  0  0  0  0  0  0  0  0
   -3.1144   24.5773  -28.3306 H   0  0  0  0  0  0  0  0  0  0  0  0
   -2.8921   22.8014  -26.7526 H   0  0  0  0  0  0  0  0  0  0  0  0
   -2.6790   20.5352  -26.4299 H   0  0  0  0  0  0  0  0  0  0  0  0
   -3.8016   20.3415  -27.8188 H   0  0  0  0  0  0  0  0  0  0  0  0
   -2.2180   19.4935  -27.8188 H   0  0  0  0  0  0  0  0  0  0  0  0
   -1.0780   21.6900  -29.9650 H   0  0  0  0  0  0  0  0  0  0  0  0
   -0.3432   19.8195  -32.0275 H   0  0  0  0  0  0  0  0  0  0  0  0
   -0.4031   17.8118  -33.4859 H   0  0  0  0  0  0  0  0  0  0  0  0
   -2.5059   17.2554  -34.6853 H   0  0  0  0  0  0  0  0  0  0  0  0
   -4.4893   18.6683  -34.4392 H   0  0  0  0  0  0  0  0  0  0  0  0
   -6.6810   20.1030  -33.3330 H   0  0  0  0  0  0  0  0  0  0  0  0
   -6.5623   25.1680  -28.7937 H   0  0  0  0  0  0  0  0  0  0  0  0
   -6.3704   26.6066  -29.7712 H   0  0  0  0  0  0  0  0  0  0  0  0
  1  2  1  0
  2  3  1  0
  3  4  1  0
  4  5  1  0
  5  6  1  0
  6  7  1  0
  7  8  2  0
  8  9  1  0
  9 10  2  0
 10 11  1  0
 11 12  1  0
 12 13  1  0
 13 14  2  0
 14 15  1  0
 10 16  1  0
 16 17  2  0
 17 18  1  0
 17 19  1  0
 19 20  2  0
 20 21  1  0
 21 22  2  0
 22 23  1  0
 23 24  2  0
 24 25  1  0
 25 26  1  0
 25 27  2  0
  9 28  1  0
 28 29  1  0
 29 30  1  0
 27  7  1  0
 30  8  1  0
 27 16  1  0
 24 19  1  0
  1 31  1  0
  1 32  1  0
  1 33  1  0
  2 34  1  0
  2 35  1  0
  3 36  1  0
  4 37  1  0
  4 38  1  0
  5 39  1  0
  5 40  1  0
  6 41  1  0
 11 42  1  0
 12 43  1  0
 12 44  1  0
 13 45  1  0
 15 46  1  0
 15 47  1  0
 15 48  1  0
 18 49  1  0
 20 50  1  0
 21 51  1  0
 22 52  1  0
 23 53  1  0
 26 54  1  0
 29 55  1  0
 29 56  1  0
M  END
>  <smiles>  (15) 
CCNCCNc1c2c(c(NCC=NC)c3c(O)c4ccccc4c(O)c13)OCO2

>  <score_type>  (15) 
oracle

>  <origin>  (15) 
adg

>  <m_score__min__energy>  (15) 
-7.3200000000000003

>  <m_primary>  (15) 
energy

$$$$
15:0
     RDKit          3D

 46 48  0  0  0  0  0  0  0  0999 V2000
   -3.8590   23.3810  -29.0510 C   0  0  0  0  0  0  0  0  0  0  0  0
   -4.8740   23.1060  -30.1380 C   0  0  0  0  0  0  0  0  0  0  0  0
   -4.9960   24.1990  -31.0650 N   0  0  0  0  0  0  0  0  0  0  0  0
   -4.9970   25.4970  -30.4870 C   0  0  0  0  0  0  0  0  0  0  0  0
   -6.2880   25.6480  -29.6780 C   0  0  0  0  0  0  0  0  0  0  0  0
   -6.0990   23.9150  -31.9580 C   0  0  0  0  0  0  0  0  0  0  0  0
   -6.3260   22.4860  -32.1630 C   0  0  0  0  0  0  0  0  0  0  0  0
   -7.4930   21.8410  -31.7280 C   0  0  0  0  0  0  0  0  0  0  0  0
   -7.3950   20.5180  -32.0860 C   0  0  0  0  0  0  0  0  0  0  0  0
   -8.2870   19.4900  -31.8830 C   0  0  0  0  0  0  0  0  0  0  0  0
   -7.9820   18.2230  -32.3400 C   0  0  0  0  0  0  0  0  0  0  0  0
   -6.7830   18.0310  -32.9880 C   0  0  0  0  0  0  0  0  0  0  0  0
   -5.8940   19.0900  -33.1820 C   0  0  0  0  0  0  0  0  0  0  0  0
   -6.1850   20.3650  -32.7310 C   0  0  0  0  0  0  0  0  0  0  0  0
   -5.5290   21.5620  -32.7790 N   0  0  0  0  0  0  0  0  0  0  0  0
   -4.2390   21.7580  -33.3760 C   0  0  0  0  0  0  0  0  0  0  0  0
   -3.1120   21.1090  -32.7010 C   0  0  0  0  0  0  0  0  0  0  0  0
   -2.6840   19.8220  -32.9940 C   0  0  0  0  0  0  0  0  0  0  0  0
   -1.6180   19.2200  -32.3590 C   0  0  0  0  0  0  0  0  0  0  0  0
   -0.9070   19.8800  -31.3790 C   0  0  0  0  0  0  0  0  0  0  0  0
    0.1450   19.3360  -30.7270 F   0  0  0  0  0  0  0  0  0  0  0  0
   -1.3120   21.1560  -31.0710 C   0  0  0  0  0  0  0  0  0  0  0  0
   -2.3830   21.7640  -31.7080 C   0  0  0  0  0  0  0  0  0  0  0  0
   -4.3324   23.2527  -28.0664 H   0  0  0  0  0  0  0  0  0  0  0  0
   -3.0183   22.6782  -29.1480 H   0  0  0  0  0  0  0  0  0  0  0  0
   -3.4881   24.4120  -29.1480 H   0  0  0  0  0  0  0  0  0  0  0  0
   -4.5643   22.2070  -30.6910 H   0  0  0  0  0  0  0  0  0  0  0  0
   -5.8523   22.9657  -29.6550 H   0  0  0  0  0  0  0  0  0  0  0  0
   -4.1254   25.6129  -29.8260 H   0  0  0  0  0  0  0  0  0  0  0  0
   -4.9425   26.2667  -31.2709 H   0  0  0  0  0  0  0  0  0  0  0  0
   -6.0529   25.6205  -28.6038 H   0  0  0  0  0  0  0  0  0  0  0  0
   -6.7650   26.6081  -29.9245 H   0  0  0  0  0  0  0  0  0  0  0  0
   -6.9737   24.8239  -29.9245 H   0  0  0  0  0  0  0  0  0  0  0  0
   -7.0133   24.3561  -31.5343 H   0  0  0  0  0  0  0  0  0  0  0  0
   -5.8442   24.3473  -32.9369 H   0  0  0  0  0  0  0  0  0  0  0  0
   -8.3344   22.3095  -31.1965 H   0  0  0  0  0  0  0  0  0  0  0  0
   -9.2367   19.6762  -31.3602 H   0  0  0  0  0  0  0  0  0  0  0  0
   -8.6809   17.3869  -32.1897 H   0  0  0  0  0  0  0  0  0  0  0  0
   -6.5214   17.0288  -33.3584 H   0  0  0  0  0  0  0  0  0  0  0  0
   -4.9432   18.9068  -33.7039 H   0  0  0  0  0  0  0  0  0  0  0  0
   -4.2824   21.3715  -34.4050 H   0  0  0  0  0  0  0  0  0  0  0  0
   -4.0425   22.8382  -33.3079 H   0  0  0  0  0  0  0  0  0  0  0  0
   -3.2203   19.2552  -33.7693 H   0  0  0  0  0  0  0  0  0  0  0  0
   -1.3300   18.1960  -32.6390 H   0  0  0  0  0  0  0  0  0  0  0  0
   -0.7689   21.7136  -30.2937 H   0  0  0  0  0  0  0  0  0  0  0  0
   -2.6650   22.7884  -31.4233 H   0  0  0  0  0  0  0  0  0  0  0  0
  1  2  1  0
  2  3  1  0
  3  4  1  0
  4  5  1  0
  3  6  1  0
  6  7  1  0
  7  8  2  0
  8  9  1  0
  9 10  2  0
 10 11  1  0
 11 12  2  0
 12 13  1  0
 13 14  2  0
 14 15  1  0
 15 16  1  0
 16 17  1  0
 17 18  2  0
 18 19  1  0
 19 20  2  0
 20 21  1  0
 20 22  1  0
 22 23  2  0
 15  7  1  0
 23 17  1  0
 14  9  1  0
  1 24  1  0
  1 25  1  0
  1 26  1  0
  2 27  1  0
  2 28  1  0
  4 29  1  0
  4 30  1  0
  5 31  1  0
  5 32  1  0
  5 33  1  0
  6 34  1  0
  6 35  1  0
  8 36  1  0
 10 37  1  0
 11 38  1  0
 12 39  1  0
 13 40  1  0
 16 41  1  0
 16 42  1  0
 18 43  1  0
 19 44  1  0
 22 45  1  0
 23 46  1  0
M  END
>  <smiles>  (16) 
CCN(CC)Cc1cc2ccccc2n1Cc1ccc(F)cc1

>  <score_type>  (16) 
oracle

>  <origin>  (16) 
adg

>  <m_score__min__energy>  (16) 
-7.6900000000000004

>  <m_primary>  (16) 
energy

$$$$
16:0
     RDKit          3D

 44 46  0  0  1  0  0  0  0  0999 V2000
   -4.1280   24.2120  -27.8620 C   0  0  0  0  0  0  0  0  0  0  0  0
   -2.8720   24.2560  -28.7070 C   0  0  0  0  0  0  0  0  0  0  0  0
   -3.1160   24.9380  -29.8960 O   0  0  0  0  0  0  0  0  0  0  0  0
   -4.0360   24.5570  -30.8380 N   0  0  0  0  0  0  0  0  0  0  0  0
   -4.2500   23.3450  -31.1890 C   0  0  0  0  0  0  0  0  0  0  0  0
   -5.6390   22.8980  -31.3800 C   0  0  0  0  0  0  0  0  0  0  0  0
   -6.6440   23.8040  -31.0890 C   0  0  0  0  0  0  0  0  0  0  0  0
   -7.9590   23.4020  -31.2630 C   0  0  0  0  0  0  0  0  0  0  0  0
   -8.2250   22.1210  -31.7190 C   0  0  0  0  0  0  0  0  0  0  0  0
   -9.5400   21.7380  -31.8860 C   0  0  0  0  0  0  0  0  0  0  0  0
   -9.8360   20.4630  -32.3400 C   0  0  0  0  0  0  0  0  0  0  0  0
   -8.8230   19.5670  -32.6280 C   0  0  0  0  0  0  0  0  0  0  0  0
   -7.5060   19.9840  -32.4490 C   0  0  0  0  0  0  0  0  0  0  0  0
   -6.4160   19.0870  -32.7350 N   0  0  0  0  0  0  0  0  0  0  0  0
   -6.1200   18.0960  -31.7370 C   0  0  0  0  0  0  0  0  0  0  0  0
   -5.5230   16.8670  -32.3630 C   0  0  0  0  0  0  0  0  0  0  0  0
   -4.4540   17.2780  -33.2420 N   0  0  0  0  0  0  0  0  0  0  0  0
   -3.7930   16.0920  -33.7310 C   0  0  0  0  0  0  0  0  0  0  0  0
   -4.9210   18.0410  -34.3770 C   0  0  0  0  0  0  0  0  0  0  0  0
   -5.7180   19.2510  -33.9760 C   0  0  0  0  0  0  0  0  0  0  0  0
   -7.1850   21.2460  -31.9990 C   0  0  0  0  0  0  0  0  0  0  0  0
   -5.9130   21.6570  -31.8230 N   0  0  0  0  0  0  0  0  0  0  0  0
   -3.8538   24.2216  -26.7968 H   0  0  0  0  0  0  0  0  0  0  0  0
   -4.7527   25.0888  -28.0877 H   0  0  0  0  0  0  0  0  0  0  0  0
   -4.6898   23.2936  -28.0877 H   0  0  0  0  0  0  0  0  0  0  0  0
   -2.0766   24.7717  -28.1490 H   0  0  0  0  0  0  0  0  0  0  0  0
   -2.5605   23.2273  -28.9408 H   0  0  0  0  0  0  0  0  0  0  0  0
   -3.4114   22.6504  -31.3450 H   0  0  0  0  0  0  0  0  0  0  0  0
   -6.4056   24.8158  -30.7293 H   0  0  0  0  0  0  0  0  0  0  0  0
   -8.7845   24.0942  -31.0409 H   0  0  0  0  0  0  0  0  0  0  0  0
  -10.3523   22.4441  -31.6590 H   0  0  0  0  0  0  0  0  0  0  0  0
  -10.8854   20.1610  -32.4724 H   0  0  0  0  0  0  0  0  0  0  0  0
   -9.0508   18.5530  -32.9885 H   0  0  0  0  0  0  0  0  0  0  0  0
   -5.4052   18.5154  -31.0137 H   0  0  0  0  0  0  0  0  0  0  0  0
   -7.0560   17.8144  -31.2325 H   0  0  0  0  0  0  0  0  0  0  0  0
   -5.1259   16.2059  -31.5787 H   0  0  0  0  0  0  0  0  0  0  0  0
   -6.2906   16.3205  -32.9306 H   0  0  0  0  0  0  0  0  0  0  0  0
   -3.4540   15.4837  -32.8795 H   0  0  0  0  0  0  0  0  0  0  0  0
   -4.4951   15.5069  -34.3431 H   0  0  0  0  0  0  0  0  0  0  0  0
   -2.9261   16.3814  -34.3431 H   0  0  0  0  0  0  0  0  0  0  0  0
   -4.0495   18.3717  -34.9611 H   0  0  0  0  0  0  0  0  0  0  0  0
   -5.5824   17.3884  -34.9659 H   0  0  0  0  0  0  0  0  0  0  0  0
   -5.0311   20.1047  -33.8796 H   0  0  0  0  0  0  0  0  0  0  0  0
   -6.4763   19.4136  -34.7561 H   0  0  0  0  0  0  0  0  0  0  0  0
  1  2  1  0
  2  3  1  0
  3  4  1  0
  4  5  2  0
  5  6  1  0
  6  7  2  0
  7  8  1  0
  8  9  2  0
  9 10  1  0
 10 11  2  0
 11 12  1  0
 12 13  2  0
 13 14  1  0
 14 15  1  0
 15 16  1  0
 16 17  1  0
 17 18  1  0
 17 19  1  0
 19 20  1  0
 13 21  1  0
 21 22  2  0
 22  6  1  0
 21  9  1  0
 20 14  1  0
  1 23  1  0
  1 24  1  0
  1 25  1  0
  2 26  1  0
  2 27  1  0
  5 28  1  0
  7 29  1  0
  8 30  1  0
 10 31  1  0
 11 32  1  0
 12 33  1  0
 15 34  1  0
 15 35  1  0
 16 36  1  0
 16 37  1  0
 18 38  1  0
 18 39  1  0
 18 40  1  0
 19 41  1  0
 19 42  1  0
 20 43  1  0
 20 44  1  0
M  END
>  <smiles>  (17) 
CCON=Cc1ccc2cccc(N3CCN(C)CC3)c2n1

>  <score_type>  (17) 
oracle

>  <origin>  (17) 
adg

>  <m_score__min__energy>  (17) 
-8.7200000000000006

>  <m_primary>  (17) 
energy

$$$$
17:0
     RDKit          3D

 46 46  0  0  0  0  0  0  0  0999 V2000
   -8.7700   22.6120  -31.9460 C   0  0  0  0  0  0  0  0  0  0  0  0
   -9.4820   21.3040  -31.6470 C   0  0  0  0  0  0  0  0  0  0  0  0
   -8.5330   20.2120  -32.0170 C   0  0  0  0  0  0  0  0  0  0  0  0
   -8.7930   18.9190  -31.6310 C   0  0  0  0  0  0  0  0  0  0  0  0
   -7.8890   17.9540  -31.9990 C   0  0  0  0  0  0  0  0  0  0  0  0
   -6.7530   18.2860  -32.7370 C   0  0  0  0  0  0  0  0  0  0  0  0
   -6.4690   19.5660  -33.1340 C   0  0  0  0  0  0  0  0  0  0  0  0
   -5.4130   20.0050  -33.8380 O   0  0  0  0  0  0  0  0  0  0  0  0
   -4.1220   20.2200  -33.4270 C   0  0  0  0  0  0  0  0  0  0  0  0
   -4.0240   21.2850  -32.3750 C   0  0  0  0  0  0  0  0  0  0  0  0
   -4.2610   22.5690  -32.8260 O   0  0  0  0  0  0  0  0  0  0  0  0
   -5.4930   23.0240  -32.3190 C   0  0  0  0  0  0  0  0  0  0  0  0
   -5.3570   23.4250  -30.8750 C   0  0  0  0  0  0  0  0  0  0  0  0
   -4.5530   24.6600  -30.7900 N   0  0  0  0  0  0  0  0  0  0  0  0
   -3.4930   24.4600  -29.8800 C   0  0  0  0  0  0  0  0  0  0  0  0
   -3.9490   23.6940  -28.6520 C   0  0  0  0  0  0  0  0  0  0  0  0
   -5.5240   25.6690  -30.4630 C   0  0  0  0  0  0  0  0  0  0  0  0
   -6.7350   25.2790  -29.7260 C   0  0  0  0  0  0  0  0  0  0  0  0
   -7.4130   20.5350  -32.7440 C   0  0  0  0  0  0  0  0  0  0  0  0
   -8.5005   23.1070  -31.0014 H   0  0  0  0  0  0  0  0  0  0  0  0
   -7.8581   22.4087  -32.5266 H   0  0  0  0  0  0  0  0  0  0  0  0
   -9.4358   23.2675  -32.5266 H   0  0  0  0  0  0  0  0  0  0  0  0
   -9.7331   21.2435  -30.5777 H   0  0  0  0  0  0  0  0  0  0  0  0
  -10.4219   21.2237  -32.2129 H   0  0  0  0  0  0  0  0  0  0  0  0
   -9.6917   18.6669  -31.0490 H   0  0  0  0  0  0  0  0  0  0  0  0
   -8.0623   16.9073  -31.7087 H   0  0  0  0  0  0  0  0  0  0  0  0
   -6.0532   17.4834  -33.0128 H   0  0  0  0  0  0  0  0  0  0  0  0
   -3.7213   19.2812  -33.0170 H   0  0  0  0  0  0  0  0  0  0  0  0
   -3.5452   20.5586  -34.3003 H   0  0  0  0  0  0  0  0  0  0  0  0
   -4.7587   21.0576  -31.5885 H   0  0  0  0  0  0  0  0  0  0  0  0
   -2.9845   21.2702  -32.0157 H   0  0  0  0  0  0  0  0  0  0  0  0
   -5.8263   23.8929  -32.9054 H   0  0  0  0  0  0  0  0  0  0  0  0
   -6.2288   22.2097  -32.3927 H   0  0  0  0  0  0  0  0  0  0  0  0
   -6.3543   23.6046  -30.4472 H   0  0  0  0  0  0  0  0  0  0  0  0
   -4.8609   22.6205  -30.3123 H   0  0  0  0  0  0  0  0  0  0  0  0
   -2.6955   23.8909  -30.3802 H   0  0  0  0  0  0  0  0  0  0  0  0
   -3.1275   25.4453  -29.5552 H   0  0  0  0  0  0  0  0  0  0  0  0
   -3.6299   24.2301  -27.7460 H   0  0  0  0  0  0  0  0  0  0  0  0
   -5.0456   23.6078  -28.6599 H   0  0  0  0  0  0  0  0  0  0  0  0
   -3.5021   22.6889  -28.6599 H   0  0  0  0  0  0  0  0  0  0  0  0
   -5.0083   26.4287  -29.8572 H   0  0  0  0  0  0  0  0  0  0  0  0
   -5.9043   25.9970  -31.4417 H   0  0  0  0  0  0  0  0  0  0  0  0
   -6.5422   25.3411  -28.6448 H   0  0  0  0  0  0  0  0  0  0  0  0
   -7.5597   25.9570  -29.9909 H   0  0  0  0  0  0  0  0  0  0  0  0
   -7.0091   24.2472  -29.9909 H   0  0  0  0  0  0  0  0  0  0  0  0
   -7.2485   21.5842  -33.0306 H   0  0  0  0  0  0  0  0  0  0  0  0
  1  2  1  0
  2  3  1  0
  3  4  2  0
  4  5  1  0
  5  6  2  0
  6  7  1  0
  7  8  1  0
  8  9  1  0
  9 10  1  0
 10 11  1  0
 11 12  1  0
 12 13  1  0
 13 14  1  0
 14 15  1  0
 15 16  1  0
 14 17  1  0
 17 18  1  0
  7 19  2  0
 19  3  1  0
  1 20  1  0
  1 21  1  0
  1 22  1  0
  2 23  1  0
  2 24  1  0
  4 25  1  0
  5 26  1  0
  6 27  1  0
  9 28  1  0
  9 29  1  0
 10 30  1  0
 10 31  1  0
 12 32  1  0
 12 33  1  0
 13 34  1  0
 13 35  1  0
 15 36  1  0
 15 37  1  0
 16 38  1  0
 16 39  1  0
 16 40  1  0
 17 41  1  0
 17 42  1  0
 18 43  1  0
 18 44  1  0
 18 45  1  0
 19 46  1  0
M  END
>  <smiles>  (18) 
CCc1cccc(OCCOCCN(CC)CC)c1

>  <score_type>  (18) 
oracle

>  <origin>  (18) 
adg

>  <m_score__min__energy>  (18) 
-6.7199999999999998

>  <m_primary>  (18) 
energy

$$$$
18:0
     RDKit          3D

 42 45  0  0  0  0  0  0  0  0999 V2000
   -3.7350   13.3500  -32.4310 C   0  0  0  0  0  0  0  0  0  0  0  0
   -4.9790   13.6200  -33.2210 C   0  0  0  0  0  0  0  0  0  0  0  0
   -5.6370   12.6360  -33.9210 C   0  0  0  0  0  0  0  0  0  0  0  0
   -6.7870   12.8840  -34.6500 C   0  0  0  0  0  0  0  0  0  0  0  0
   -7.2600   14.1890  -34.6490 C   0  0  0  0  0  0  0  0  0  0  0  0
   -6.5720   15.1720  -33.9280 C   0  0  0  0  0  0  0  0  0  0  0  0
   -6.8320   16.4940  -33.7770 N   0  0  0  0  0  0  0  0  0  0  0  0
   -5.8840   17.0380  -32.9860 C   0  0  0  0  0  0  0  0  0  0  0  0
   -5.7330   18.4060  -32.5400 C   0  0  0  0  0  0  0  0  0  0  0  0
   -6.7630   19.1530  -32.0050 C   0  0  0  0  0  0  0  0  0  0  0  0
   -6.5640   20.4580  -31.5950 C   0  0  0  0  0  0  0  0  0  0  0  0
   -5.3390   21.0830  -31.6940 C   0  0  0  0  0  0  0  0  0  0  0  0
   -5.1190   22.4200  -31.2790 N   0  0  0  0  0  0  0  0  0  0  0  0
   -6.1830   23.2900  -30.8190 C   0  0  0  0  0  0  0  0  0  0  0  0
   -5.9140   24.7180  -31.2990 C   0  0  0  0  0  0  0  0  0  0  0  0
   -4.6530   25.1800  -30.8100 N   0  0  0  0  0  0  0  0  0  0  0  0
   -3.8010   24.1440  -30.3160 C   0  0  0  0  0  0  0  0  0  0  0  0
   -3.7810   22.9710  -31.3030 C   0  0  0  0  0  0  0  0  0  0  0  0
   -4.3050   20.3440  -32.2260 C   0  0  0  0  0  0  0  0  0  0  0  0
   -4.4970   19.0220  -32.6450 C   0  0  0  0  0  0  0  0  0  0  0  0
   -5.0080   16.0110  -32.6420 C   0  0  0  0  0  0  0  0  0  0  0  0
   -5.4550   14.8720  -33.2350 N   0  0  0  0  0  0  0  0  0  0  0  0
   -3.9650   13.3999  -31.3565 H   0  0  0  0  0  0  0  0  0  0  0  0
   -3.3538   12.3482  -32.6782 H   0  0  0  0  0  0  0  0  0  0  0  0
   -2.9728   14.1036  -32.6782 H   0  0  0  0  0  0  0  0  0  0  0  0
   -5.2339   11.6127  -33.9007 H   0  0  0  0  0  0  0  0  0  0  0  0
   -7.3017   12.0850  -35.2038 H   0  0  0  0  0  0  0  0  0  0  0  0
   -8.1692   14.4489  -35.2109 H   0  0  0  0  0  0  0  0  0  0  0  0
   -7.7608   18.7014  -31.9030 H   0  0  0  0  0  0  0  0  0  0  0  0
   -7.4128   21.0176  -31.1750 H   0  0  0  0  0  0  0  0  0  0  0  0
   -7.1440   22.9411  -31.2250 H   0  0  0  0  0  0  0  0  0  0  0  0
   -6.2229   23.2728  -29.7199 H   0  0  0  0  0  0  0  0  0  0  0  0
   -5.9041   24.7346  -32.3988 H   0  0  0  0  0  0  0  0  0  0  0  0
   -6.7074   25.3775  -30.9175 H   0  0  0  0  0  0  0  0  0  0  0  0
   -4.1300   25.6710  -31.5840 H   0  0  0  0  0  0  0  0  0  0  0  0
   -2.7807   24.5370  -30.1957 H   0  0  0  0  0  0  0  0  0  0  0  0
   -4.1812   23.7942  -29.3449 H   0  0  0  0  0  0  0  0  0  0  0  0
   -3.5291   23.3239  -32.3139 H   0  0  0  0  0  0  0  0  0  0  0  0
   -3.0262   22.2198  -31.0275 H   0  0  0  0  0  0  0  0  0  0  0  0
   -3.3094   20.8015  -32.3234 H   0  0  0  0  0  0  0  0  0  0  0  0
   -3.6493   18.4614  -33.0660 H   0  0  0  0  0  0  0  0  0  0  0  0
   -4.1157   16.1046  -32.0055 H   0  0  0  0  0  0  0  0  0  0  0  0
  1  2  1  0
  2  3  2  0
  3  4  1  0
  4  5  2  0
  5  6  1  0
  6  7  2  0
  7  8  1  0
  8  9  1  0
  9 10  2  0
 10 11  1  0
 11 12  2  0
 12 13  1  0
 13 14  1  0
 14 15  1  0
 15 16  1  0
 16 17  1  0
 17 18  1  0
 12 19  1  0
 19 20  2  0
  8 21  2  0
 21 22  1  0
 22  2  1  0
 22  6  1  0
 20  9  1  0
 18 13  1  0
  1 23  1  0
  1 24  1  0
  1 25  1  0
  3 26  1  0
  4 27  1  0
  5 28  1  0
 10 29  1  0
 11 30  1  0
 14 31  1  0
 14 32  1  0
 15 33  1  0
 15 34  1  0
 16 35  1  0
 17 36  1  0
 17 37  1  0
 18 38  1  0
 18 39  1  0
 19 40  1  0
 20 41  1  0
 21 42  1  0
M  END
>  <smiles>  (19) 
Cc1cccc2nc(-c3ccc(N4CCNCC4)cc3)cn12

>  <score_type>  (19) 
oracle

>  <origin>  (19) 
adg

>  <m_score__min__energy>  (19) 
-7.3300000000000001

>  <m_primary>  (19) 
energy

$$$$
19:0
     RDKit          3D

 37 39  0  0  0  0  0  0  0  0999 V2000
   -9.4440   21.5570  -30.5870 C   0  0  0  0  0  0  0  0  0  0  0  0
   -8.4690   20.8680  -31.5080 C   0  0  0  0  0  0  0  0  0  0  0  0
   -8.4600   19.5230  -31.6090 N   0  0  0  0  0  0  0  0  0  0  0  0
   -7.5420   18.9740  -32.4580 C   0  0  0  0  0  0  0  0  0  0  0  0
   -7.5170   17.5780  -32.5450 C   0  0  0  0  0  0  0  0  0  0  0  0
   -6.5720   17.0380  -33.3860 C   0  0  0  0  0  0  0  0  0  0  0  0
   -5.6930   17.8080  -34.1110 C   0  0  0  0  0  0  0  0  0  0  0  0
   -5.7250   19.2060  -34.0200 C   0  0  0  0  0  0  0  0  0  0  0  0
   -6.6710   19.7440  -33.1750 C   0  0  0  0  0  0  0  0  0  0  0  0
   -6.6620   21.1090  -33.0870 N   0  0  0  0  0  0  0  0  0  0  0  0
   -7.5880   21.6180  -32.2330 C   0  0  0  0  0  0  0  0  0  0  0  0
   -7.6220   23.4000  -31.9800 S   0  0  0  0  0  0  0  0  0  0  0  0
   -6.4880   23.8210  -30.6110 C   0  0  0  0  0  0  0  0  0  0  0  0
   -5.1180   23.4700  -31.0660 C   0  0  0  0  0  0  0  0  0  0  0  0
   -4.2500   24.3720  -31.1980 O   0  0  0  0  0  0  0  0  0  0  0  0
   -4.8480   22.1010  -31.3310 N   0  0  0  0  0  0  0  0  0  0  0  0
   -3.5390   21.7710  -31.7540 C   0  0  0  0  0  0  0  0  0  0  0  0
   -3.2560   21.5590  -33.0700 C   0  0  0  0  0  0  0  0  0  0  0  0
   -1.9410   21.2530  -33.3960 C   0  0  0  0  0  0  0  0  0  0  0  0
   -1.0060   21.1820  -32.4030 C   0  0  0  0  0  0  0  0  0  0  0  0
   -1.2840   21.3950  -31.0750 C   0  0  0  0  0  0  0  0  0  0  0  0
   -2.5840   21.6980  -30.7370 C   0  0  0  0  0  0  0  0  0  0  0  0
   -3.0840   22.0330  -28.9100 Br  0  0  0  0  0  0  0  0  0  0  0  0
   -9.1638   21.3590  -29.5419 H   0  0  0  0  0  0  0  0  0  0  0  0
   -9.4214   22.6408  -30.7736 H   0  0  0  0  0  0  0  0  0  0  0  0
  -10.4581   21.1739  -30.7736 H   0  0  0  0  0  0  0  0  0  0  0  0
   -8.2138   16.9477  -31.9731 H   0  0  0  0  0  0  0  0  0  0  0  0
   -6.5170   15.9436  -33.4828 H   0  0  0  0  0  0  0  0  0  0  0  0
   -4.9576   17.3218  -34.7688 H   0  0  0  0  0  0  0  0  0  0  0  0
   -5.0320   19.8399  -34.5925 H   0  0  0  0  0  0  0  0  0  0  0  0
   -6.5486   24.8960  -30.3859 H   0  0  0  0  0  0  0  0  0  0  0  0
   -6.7530   23.2717  -29.6955 H   0  0  0  0  0  0  0  0  0  0  0  0
   -5.6070   21.4000  -31.2060 H   0  0  0  0  0  0  0  0  0  0  0  0
   -4.0366   21.6274  -33.8420 H   0  0  0  0  0  0  0  0  0  0  0  0
   -1.6557   21.0699  -34.4425 H   0  0  0  0  0  0  0  0  0  0  0  0
    0.0299   20.9402  -32.6831 H   0  0  0  0  0  0  0  0  0  0  0  0
   -0.4971   21.3261  -30.3095 H   0  0  0  0  0  0  0  0  0  0  0  0
  1  2  1  0
  2  3  2  0
  3  4  1  0
  4  5  2  0
  5  6  1  0
  6  7  2  0
  7  8  1  0
  8  9  2  0
  9 10  1  0
 10 11  2  0
 11 12  1  0
 12 13  1  0
 13 14  1  0
 14 15  2  0
 14 16  1  0
 16 17  1  0
 17 18  2  0
 18 19  1  0
 19 20  2  0
 20 21  1  0
 21 22  2  0
 22 23  1  0
 11  2  1  0
 22 17  1  0
  9  4  1  0
  1 24  1  0
  1 25  1  0
  1 26  1  0
  5 27  1  0
  6 28  1  0
  7 29  1  0
  8 30  1  0
 13 31  1  0
 13 32  1  0
 16 33  1  0
 18 34  1  0
 19 35  1  0
 20 36  1  0
 21 37  1  0
M  END
>  <smiles>  (20) 
Cc1nc2ccccc2nc1SCC(=O)Nc1ccccc1Br

>  <score_type>  (20) 
oracle

>  <origin>  (20) 
adg

>  <m_score__min__energy>  (20) 
-9.2100000000000009

>  <m_primary>  (20) 
energy

$$$$
20:0
     RDKit          3D

 65 67  0  0  0  0  0  0  0  0999 V2000
   -0.9020   25.0800  -28.5810 C   0  0  0  0  0  0  0  0  0  0  0  0
   -2.0730   24.8420  -28.3100 C   0  0  0  0  0  0  0  0  0  0  0  0
   -3.4670   24.5360  -27.9920 C   0  0  0  0  0  0  0  0  0  0  0  0
   -4.1890   24.0430  -29.1400 N   0  0  0  0  0  0  0  0  0  0  0  0
   -5.3910   24.8540  -29.3790 C   0  0  0  0  0  0  0  0  0  0  0  0
   -4.6550   22.6900  -28.9690 C   0  0  0  0  0  0  0  0  0  0  0  0
   -3.6210   22.0000  -28.1590 C   0  0  0  0  0  0  0  0  0  0  0  0
   -2.7750   21.4370  -27.5190 C   0  0  0  0  0  0  0  0  0  0  0  0
   -1.7440   20.7210  -26.7320 C   0  0  0  0  0  0  0  0  0  0  0  0
   -2.0460   19.2590  -26.7770 C   0  0  0  0  0  0  0  0  0  0  0  0
   -0.9010   18.3760  -27.1390 C   0  0  0  0  0  0  0  0  0  0  0  0
   -0.4080   18.7680  -28.4570 C   0  0  0  0  0  0  0  0  0  0  0  0
   -0.0000   19.1160  -29.5550 C   0  0  0  0  0  0  0  0  0  0  0  0
    0.4840   19.5180  -30.9000 C   0  0  0  0  0  0  0  0  0  0  0  0
   -0.2360   20.6800  -31.3730 N   0  0  0  0  0  0  0  0  0  0  0  0
   -0.0840   20.7650  -32.8230 C   0  0  0  0  0  0  0  0  0  0  0  0
   -1.6370   20.5380  -31.0880 C   0  0  0  0  0  0  0  0  0  0  0  0
   -2.3330   21.8660  -31.2230 C   0  0  0  0  0  0  0  0  0  0  0  0
   -2.9840   21.9240  -32.6130 C   0  0  0  0  0  0  0  0  0  0  0  0
   -4.3920   21.5760  -32.4610 N   0  0  0  0  0  0  0  0  0  0  0  0
   -5.3900   22.5570  -32.1630 C   0  0  0  0  0  0  0  0  0  0  0  0
   -5.0800   23.7500  -32.0230 O   0  0  0  0  0  0  0  0  0  0  0  0
   -6.7710   22.0750  -32.0370 C   0  0  0  0  0  0  0  0  0  0  0  0
   -7.7730   23.0040  -31.7460 C   0  0  0  0  0  0  0  0  0  0  0  0
   -9.0870   22.5530  -31.6240 C   0  0  0  0  0  0  0  0  0  0  0  0
   -9.4370   21.2410  -31.7760 C   0  0  0  0  0  0  0  0  0  0  0  0
   -8.4350   20.3100  -32.0670 C   0  0  0  0  0  0  0  0  0  0  0  0
   -8.7680   18.9780  -32.2240 C   0  0  0  0  0  0  0  0  0  0  0  0
   -7.8010   18.0240  -32.5130 C   0  0  0  0  0  0  0  0  0  0  0  0
   -6.5020   18.4760  -32.6330 C   0  0  0  0  0  0  0  0  0  0  0  0
   -6.1360   19.7930  -32.4830 C   0  0  0  0  0  0  0  0  0  0  0  0
   -7.1130   20.7500  -32.1920 C   0  0  0  0  0  0  0  0  0  0  0  0
   -4.7260   20.1950  -32.6260 C   0  0  0  0  0  0  0  0  0  0  0  0
   -3.8430   19.3290  -32.8890 O   0  0  0  0  0  0  0  0  0  0  0  0
    0.1493   25.2937  -28.8243 H   0  0  0  0  0  0  0  0  0  0  0  0
   -3.4911   23.7708  -27.2022 H   0  0  0  0  0  0  0  0  0  0  0  0
   -3.9514   25.4663  -27.6605 H   0  0  0  0  0  0  0  0  0  0  0  0
   -5.8307   25.1507  -28.4153 H   0  0  0  0  0  0  0  0  0  0  0  0
   -5.1187   25.7537  -29.9503 H   0  0  0  0  0  0  0  0  0  0  0  0
   -6.1233   24.2647  -29.9503 H   0  0  0  0  0  0  0  0  0  0  0  0
   -5.6208   22.6822  -28.4426 H   0  0  0  0  0  0  0  0  0  0  0  0
   -4.8070   22.1911  -29.9375 H   0  0  0  0  0  0  0  0  0  0  0  0
   -0.7501   20.9083  -27.1646 H   0  0  0  0  0  0  0  0  0  0  0  0
   -1.7499   21.0758  -25.6908 H   0  0  0  0  0  0  0  0  0  0  0  0
   -2.4052   18.9568  -25.7822 H   0  0  0  0  0  0  0  0  0  0  0  0
   -2.7903   19.1298  -27.5766 H   0  0  0  0  0  0  0  0  0  0  0  0
   -0.0982   18.4867  -26.3952 H   0  0  0  0  0  0  0  0  0  0  0  0
   -1.2278   17.3258  -27.1573 H   0  0  0  0  0  0  0  0  0  0  0  0
    1.5564   19.7558  -30.8423 H   0  0  0  0  0  0  0  0  0  0  0  0
    0.3161   18.6869  -31.6007 H   0  0  0  0  0  0  0  0  0  0  0  0
    0.8529   21.2889  -33.0634 H   0  0  0  0  0  0  0  0  0  0  0  0
   -0.0568   19.7512  -33.2489 H   0  0  0  0  0  0  0  0  0  0  0  0
   -0.9336   21.3190  -33.2489 H   0  0  0  0  0  0  0  0  0  0  0  0
   -2.0807   19.8218  -31.7952 H   0  0  0  0  0  0  0  0  0  0  0  0
   -1.7581   20.1728  -30.0575 H   0  0  0  0  0  0  0  0  0  0  0  0
   -3.1049   21.9632  -30.4454 H   0  0  0  0  0  0  0  0  0  0  0  0
   -1.6118   22.6881  -31.1052 H   0  0  0  0  0  0  0  0  0  0  0  0
   -2.8920   22.9389  -33.0272 H   0  0  0  0  0  0  0  0  0  0  0  0
   -2.4870   21.2228  -33.2995 H   0  0  0  0  0  0  0  0  0  0  0  0
   -7.5306   24.0690  -31.6158 H   0  0  0  0  0  0  0  0  0  0  0  0
   -9.8756   23.2850  -31.3956 H   0  0  0  0  0  0  0  0  0  0  0  0
  -10.4851   20.9237  -31.6716 H   0  0  0  0  0  0  0  0  0  0  0  0
   -9.8180   18.6678  -32.1181 H   0  0  0  0  0  0  0  0  0  0  0  0
   -8.0571   16.9618  -32.6399 H   0  0  0  0  0  0  0  0  0  0  0  0
   -5.7157   17.7414  -32.8614 H   0  0  0  0  0  0  0  0  0  0  0  0
  1  2  3  0
  2  3  1  0
  3  4  1  0
  4  5  1  0
  4  6  1  0
  6  7  1  0
  7  8  3  0
  8  9  1  0
  9 10  1  0
 10 11  1  0
 11 12  1  0
 12 13  3  0
 13 14  1  0
 14 15  1  0
 15 16  1  0
 15 17  1  0
 17 18  1  0
 18 19  1  0
 19 20  1  0
 20 21  1  0
 21 22  2  0
 21 23  1  0
 23 24  1  0
 24 25  2  0
 25 26  1  0
 26 27  2  0
 27 28  1  0
 28 29  2  0
 29 30  1  0
 30 31  2  0
 31 32  1  0
 31 33  1  0
 33 34  2  0
 33 20  1  0
 32 23  2  0
 32 27  1  0
  1 35  1  0
  3 36  1  0
  3 37  1  0
  5 38  1  0
  5 39  1  0
  5 40  1  0
  6 41  1  0
  6 42  1  0
  9 43  1  0
  9 44  1  0
 10 45  1  0
 10 46  1  0
 11 47  1  0
 11 48  1  0
 14 49  1  0
 14 50  1  0
 16 51  1  0
 16 52  1  0
 16 53  1  0
 17 54  1  0
 17 55  1  0
 18 56  1  0
 18 57  1  0
 19 58  1  0
 19 59  1  0
 24 60  1  0
 25 61  1  0
 26 62  1  0
 28 63  1  0
 29 64  1  0
 30 65  1  0
M  END
>  <smiles>  (21) 
C#CCN(C)CC#CCCCC#CCN(C)CCCN1C(=O)c2cccc3cccc(c23)C1=O

>  <score_type>  (21) 
oracle

>  <origin>  (21) 
adg

>  <m_score__min__energy>  (21) 
-8.7300000000000004

>  <m_primary>  (21) 
energy

$$$$
21:0
     RDKit          3D

 53 55  0  0  1  0  0  0  0  0999 V2000
   -9.0680   18.2940  -31.5360 C   0  0  0  0  0  0  0  0  0  0  0  0
   -8.7800   19.5800  -32.3160 C   0  0  0  0  0  0  0  0  0  0  0  0
   -7.3910   19.5000  -32.8550 C   0  0  0  0  0  0  0  0  0  0  0  0
   -6.8680   18.4630  -33.5560 N   0  0  0  0  0  0  0  0  0  0  0  0
   -5.5880   18.7830  -33.8600 C   0  0  0  0  0  0  0  0  0  0  0  0
   -4.6060   17.9610  -34.6180 C   0  0  0  0  0  0  0  0  0  0  0  0
   -5.3200   20.0350  -33.3370 C   0  0  0  0  0  0  0  0  0  0  0  0
   -6.4580   20.4600  -32.7180 N   0  0  0  0  0  0  0  0  0  0  0  0
   -6.5360   21.7200  -32.0670 C   0  0  0  0  0  0  0  0  0  0  0  0
   -7.7670   22.3250  -31.9360 C   0  0  0  0  0  0  0  0  0  0  0  0
   -7.7960   23.5470  -31.2970 C   0  0  0  0  0  0  0  0  0  0  0  0
   -6.6310   24.1240  -30.8190 C   0  0  0  0  0  0  0  0  0  0  0  0
   -6.7510   25.3160  -30.2110 F   0  0  0  0  0  0  0  0  0  0  0  0
   -5.4100   23.5460  -30.9380 C   0  0  0  0  0  0  0  0  0  0  0  0
   -4.1520   24.0600  -30.4780 C   0  0  0  0  0  0  0  0  0  0  0  0
   -3.8620   25.2970  -30.6610 O   0  0  0  0  0  0  0  0  0  0  0  0
   -3.1420   23.3160  -29.8120 N   0  0  0  0  0  0  0  0  0  0  0  0
   -1.9020   23.9260  -29.3850 C   0  0  2  0  0  0  0  0  0  0  0  0
   -0.9640   22.8760  -28.8520 C   0  0  0  0  0  0  0  0  0  0  0  0
    0.1870   23.3620  -28.0850 C   0  0  0  0  0  0  0  0  0  0  0  0
    0.1890   24.6910  -27.6170 N   0  0  0  0  0  0  0  0  0  0  0  0
    1.4790   25.2890  -27.4630 C   0  0  0  0  0  0  0  0  0  0  0  0
   -0.7940   25.5980  -28.0700 C   0  0  0  0  0  0  0  0  0  0  0  0
   -2.1250   24.9200  -28.2620 C   0  0  2  0  0  0  0  0  0  0  0  0
   -2.5780   24.2100  -27.0050 C   0  0  0  0  0  0  0  0  0  0  0  0
   -5.3820   22.3010  -31.5880 C   0  0  0  0  0  0  0  0  0  0  0  0
   -9.0215   18.5016  -30.4568 H   0  0  0  0  0  0  0  0  0  0  0  0
  -10.0711   17.9246  -31.7955 H   0  0  0  0  0  0  0  0  0  0  0  0
   -8.3182   17.5321  -31.7955 H   0  0  0  0  0  0  0  0  0  0  0  0
   -9.4956   19.6801  -33.1454 H   0  0  0  0  0  0  0  0  0  0  0  0
   -8.8806   20.4542  -31.6559 H   0  0  0  0  0  0  0  0  0  0  0  0
   -3.9590   17.4194  -33.9123 H   0  0  0  0  0  0  0  0  0  0  0  0
   -5.1431   17.2393  -35.2510 H   0  0  0  0  0  0  0  0  0  0  0  0
   -3.9901   18.6167  -35.2510 H   0  0  0  0  0  0  0  0  0  0  0  0
   -4.3692   20.5837  -33.4071 H   0  0  0  0  0  0  0  0  0  0  0  0
   -8.6835   21.8555  -32.3228 H   0  0  0  0  0  0  0  0  0  0  0  0
   -8.7551   24.0692  -31.1655 H   0  0  0  0  0  0  0  0  0  0  0  0
   -3.2660   22.3090  -29.6120 H   0  0  0  0  0  0  0  0  0  0  0  0
   -1.4824   24.4361  -30.2646 H   0  0  0  0  0  0  0  0  0  0  0  0
   -1.5447   22.2087  -28.1982 H   0  0  0  0  0  0  0  0  0  0  0  0
   -0.5386   22.3850  -29.7397 H   0  0  0  0  0  0  0  0  0  0  0  0
    0.2843   22.7107  -27.2039 H   0  0  0  0  0  0  0  0  0  0  0  0
    1.0137   23.3386  -28.8103 H   0  0  0  0  0  0  0  0  0  0  0  0
    1.7084   25.3953  -26.3925 H   0  0  0  0  0  0  0  0  0  0  0  0
    2.2381   24.6509  -27.9390 H   0  0  0  0  0  0  0  0  0  0  0  0
    1.4827   26.2806  -27.9390 H   0  0  0  0  0  0  0  0  0  0  0  0
   -0.9066   26.4027  -27.3285 H   0  0  0  0  0  0  0  0  0  0  0  0
   -0.4696   26.0018  -29.0404 H   0  0  0  0  0  0  0  0  0  0  0  0
   -2.9149   25.6486  -28.4970 H   0  0  0  0  0  0  0  0  0  0  0  0
   -2.2244   24.7643  -26.1231 H   0  0  0  0  0  0  0  0  0  0  0  0
   -3.6766   24.1579  -26.9890 H   0  0  0  0  0  0  0  0  0  0  0  0
   -2.1623   23.1917  -26.9890 H   0  0  0  0  0  0  0  0  0  0  0  0
   -4.4215   21.7805  -31.7169 H   0  0  0  0  0  0  0  0  0  0  0  0
  1  2  1  0
  2  3  1  0
  3  4  2  0
  4  5  1  0
  5  6  1  0
  5  7  2  0
  7  8  1  0
  8  9  1  0
  9 10  2  0
 10 11  1  0
 11 12  2  0
 12 13  1  0
 12 14  1  0
 14 15  1  0
 15 16  2  0
 15 17  1  0
 17 18  1  0
 18 19  1  0
 19 20  1  0
 20 21  1  0
 21 22  1  0
 21 23  1  0
 23 24  1  0
 24 25  1  0
 14 26  2  0
  8  3  1  0
 26  9  1  0
 24 18  1  0
  1 27  1  0
  1 28  1  0
  1 29  1  0
  2 30  1  0
  2 31  1  0
  6 32  1  0
  6 33  1  0
  6 34  1  0
  7 35  1  0
 10 36  1  0
 11 37  1  0
 17 38  1  0
 18 39  1  6
 19 40  1  0
 19 41  1  0
 20 42  1  0
 20 43  1  0
 22 44  1  0
 22 45  1  0
 22 46  1  0
 23 47  1  0
 23 48  1  0
 24 49  1  6
 25 50  1  0
 25 51  1  0
 25 52  1  0
 26 53  1  0
M  END
>  <smiles>  (22) 
CCc1nc(C)cn1-c1ccc(F)c(C(=O)NC2CCN(C)CC2C)c1

>  <score_type>  (22) 
oracle

>  <origin>  (22) 
adg

>  <m_score__min__energy>  (22) 
-9.4800000000000004

>  <m_primary>  (22) 
energy

$$$$
22:0
     RDKit          3D

 49 51  0  0  0  0  0  0  0  0999 V2000
   -1.6200   20.0980  -26.3390 C   0  0  0  0  0  0  0  0  0  0  0  0
   -1.3270   21.0810  -27.3280 N   0  0  0  0  0  0  0  0  0  0  0  0
   -0.8610   20.5940  -28.5820 C   0  0  0  0  0  0  0  0  0  0  0  0
   -0.7120   22.2840  -26.8760 C   0  0  0  0  0  0  0  0  0  0  0  0
   -1.2260   23.5170  -27.5900 C   0  0  0  0  0  0  0  0  0  0  0  0
   -2.4780   23.1700  -28.2480 N   0  0  0  0  0  0  0  0  0  0  0  0
   -2.9990   24.1310  -29.1600 C   0  0  0  0  0  0  0  0  0  0  0  0
   -2.3610   25.2070  -29.3360 O   0  0  0  0  0  0  0  0  0  0  0  0
   -4.2310   23.9460  -29.9060 C   0  0  0  0  0  0  0  0  0  0  0  0
   -5.1450   24.9580  -30.0550 C   0  0  0  0  0  0  0  0  0  0  0  0
   -6.2990   24.7570  -30.7820 C   0  0  0  0  0  0  0  0  0  0  0  0
   -6.6110   23.5520  -31.3990 C   0  0  0  0  0  0  0  0  0  0  0  0
   -7.6920   23.2640  -32.1100 O   0  0  0  0  0  0  0  0  0  0  0  0
   -8.9890   22.8920  -31.9730 C   0  0  0  0  0  0  0  0  0  0  0  0
   -9.2280   21.4220  -31.9500 C   0  0  0  0  0  0  0  0  0  0  0  0
   -8.6050   20.7160  -32.9080 F   0  0  0  0  0  0  0  0  0  0  0  0
  -10.6180   21.1860  -31.9790 F   0  0  0  0  0  0  0  0  0  0  0  0
   -8.7850   20.9720  -30.6950 F   0  0  0  0  0  0  0  0  0  0  0  0
   -5.6480   22.5460  -31.2210 C   0  0  0  0  0  0  0  0  0  0  0  0
   -5.8070   21.2150  -31.8280 C   0  0  0  0  0  0  0  0  0  0  0  0
   -6.3580   20.1910  -31.6850 N   0  0  0  0  0  0  0  0  0  0  0  0
   -6.3190   19.1000  -32.4020 C   0  0  0  0  0  0  0  0  0  0  0  0
   -6.9830   17.8850  -32.2130 C   0  0  0  0  0  0  0  0  0  0  0  0
   -6.7870   16.8600  -33.1050 C   0  0  0  0  0  0  0  0  0  0  0  0
   -5.9670   16.9200  -34.2070 C   0  0  0  0  0  0  0  0  0  0  0  0
   -5.3020   18.1320  -34.3990 C   0  0  0  0  0  0  0  0  0  0  0  0
   -5.4950   19.1650  -33.5080 C   0  0  0  0  0  0  0  0  0  0  0  0
   -4.8370   20.8240  -33.4110 S   0  0  0  0  0  0  0  0  0  0  0  0
   -4.5000   22.7380  -30.5000 C   0  0  0  0  0  0  0  0  0  0  0  0
   -1.4898   20.5349  -25.3379 H   0  0  0  0  0  0  0  0  0  0  0  0
   -2.6589   19.7567  -26.4578 H   0  0  0  0  0  0  0  0  0  0  0  0
   -0.9375   19.2436  -26.4578 H   0  0  0  0  0  0  0  0  0  0  0  0
   -0.1094   19.8086  -28.4140 H   0  0  0  0  0  0  0  0  0  0  0  0
   -1.7057   20.1776  -29.1505 H   0  0  0  0  0  0  0  0  0  0  0  0
   -0.4078   21.4195  -29.1505 H   0  0  0  0  0  0  0  0  0  0  0  0
   -0.9087   22.3950  -25.7994 H   0  0  0  0  0  0  0  0  0  0  0  0
    0.3638   22.2041  -27.0912 H   0  0  0  0  0  0  0  0  0  0  0  0
   -1.3982   24.3243  -26.8629 H   0  0  0  0  0  0  0  0  0  0  0  0
   -0.4897   23.8634  -28.3302 H   0  0  0  0  0  0  0  0  0  0  0  0
   -2.9890   22.2760  -28.0830 H   0  0  0  0  0  0  0  0  0  0  0  0
   -4.9557   25.9372  -29.5909 H   0  0  0  0  0  0  0  0  0  0  0  0
   -7.0081   25.5924  -30.8783 H   0  0  0  0  0  0  0  0  0  0  0  0
   -9.3659   23.3129  -31.0292 H   0  0  0  0  0  0  0  0  0  0  0  0
   -9.5114   23.2723  -32.8632 H   0  0  0  0  0  0  0  0  0  0  0  0
   -7.6583   17.7508  -31.3551 H   0  0  0  0  0  0  0  0  0  0  0  0
   -7.3272   15.9190  -32.9243 H   0  0  0  0  0  0  0  0  0  0  0  0
   -5.8432   16.0686  -34.8924 H   0  0  0  0  0  0  0  0  0  0  0  0
   -4.6269   18.2619  -35.2577 H   0  0  0  0  0  0  0  0  0  0  0  0
   -3.7820   21.9113  -30.3951 H   0  0  0  0  0  0  0  0  0  0  0  0
  1  2  1  0
  2  3  1  0
  2  4  1  0
  4  5  1  0
  5  6  1  0
  6  7  1  0
  7  8  2  0
  7  9  1  0
  9 10  2  0
 10 11  1  0
 11 12  2  0
 12 13  1  0
 13 14  1  0
 14 15  1  0
 15 16  1  0
 15 17  1  0
 15 18  1  0
 12 19  1  0
 19 20  1  0
 20 21  2  0
 21 22  1  0
 22 23  2  0
 23 24  1  0
 24 25  2  0
 25 26  1  0
 26 27  2  0
 27 28  1  0
 19 29  2  0
 29  9  1  0
 28 20  1  0
 27 22  1  0
  1 30  1  0
  1 31  1  0
  1 32  1  0
  3 33  1  0
  3 34  1  0
  3 35  1  0
  4 36  1  0
  4 37  1  0
  5 38  1  0
  5 39  1  0
  6 40  1  0
 10 41  1  0
 11 42  1  0
 14 43  1  0
 14 44  1  0
 23 45  1  0
 24 46  1  0
 25 47  1  0
 26 48  1  0
 29 49  1  0
M  END
>  <smiles>  (23) 
CN(C)CCNC(=O)c1ccc(OCC(F)(F)F)c(-c2nc3ccccc3s2)c1

>  <score_type>  (23) 
oracle

>  <origin>  (23) 
adg

>  <m_score__min__energy>  (23) 
-8.1899999999999995

>  <m_primary>  (23) 
energy

$$$$
23:0
     RDKit          3D

 42 45  0  0  0  0  0  0  0  0999 V2000
   -3.1100   24.1860  -28.8750 O   0  0  0  0  0  0  0  0  0  0  0  0
   -3.5760   24.2180  -30.0460 C   0  0  0  0  0  0  0  0  0  0  0  0
   -3.9460   25.4600  -30.5840 O   0  0  0  0  0  0  0  0  0  0  0  0
   -3.7460   23.0230  -30.8660 C   0  0  0  0  0  0  0  0  0  0  0  0
   -4.6780   22.9740  -31.9030 C   0  0  0  0  0  0  0  0  0  0  0  0
   -4.8210   21.8170  -32.6720 C   0  0  0  0  0  0  0  0  0  0  0  0
   -4.0160   20.7370  -32.3730 C   0  0  0  0  0  0  0  0  0  0  0  0
   -4.0670   19.5050  -33.0820 N   0  0  0  0  0  0  0  0  0  0  0  0
   -3.0180   18.9360  -33.6630 N   0  0  0  0  0  0  0  0  0  0  0  0
   -3.3900   17.7810  -34.2520 C   0  0  0  0  0  0  0  0  0  0  0  0
   -2.5270   16.8660  -34.9920 C   0  0  0  0  0  0  0  0  0  0  0  0
   -3.1160   15.8290  -35.6870 C   0  0  0  0  0  0  0  0  0  0  0  0
   -2.3140   14.9470  -36.3990 C   0  0  0  0  0  0  0  0  0  0  0  0
   -0.9470   15.1490  -36.3780 C   0  0  0  0  0  0  0  0  0  0  0  0
   -0.3750   16.1940  -35.6760 C   0  0  0  0  0  0  0  0  0  0  0  0
   -1.1670   17.0840  -34.9600 C   0  0  0  0  0  0  0  0  0  0  0  0
   -4.7420   17.6650  -34.0000 C   0  0  0  0  0  0  0  0  0  0  0  0
   -5.1700   18.7590  -33.2590 C   0  0  0  0  0  0  0  0  0  0  0  0
   -6.5370   18.9870  -32.8020 C   0  0  0  0  0  0  0  0  0  0  0  0
   -7.1600   18.0560  -31.9800 C   0  0  0  0  0  0  0  0  0  0  0  0
   -8.4560   18.2510  -31.5360 C   0  0  0  0  0  0  0  0  0  0  0  0
   -9.1810   19.3890  -31.8960 C   0  0  0  0  0  0  0  0  0  0  0  0
   -8.5660   20.3170  -32.7130 C   0  0  0  0  0  0  0  0  0  0  0  0
   -7.2740   20.1010  -33.1440 C   0  0  0  0  0  0  0  0  0  0  0  0
   -3.0850   20.7970  -31.3320 C   0  0  0  0  0  0  0  0  0  0  0  0
   -2.9370   21.9350  -30.5670 C   0  0  0  0  0  0  0  0  0  0  0  0
   -3.8720   25.6300  -31.5960 H   0  0  0  0  0  0  0  0  0  0  0  0
   -5.3045   23.8526  -32.1164 H   0  0  0  0  0  0  0  0  0  0  0  0
   -5.5533   21.7682  -33.4914 H   0  0  0  0  0  0  0  0  0  0  0  0
   -4.2087   15.7027  -35.6769 H   0  0  0  0  0  0  0  0  0  0  0  0
   -2.7540   14.1116  -36.9634 H   0  0  0  0  0  0  0  0  0  0  0  0
   -0.2959   14.4593  -36.9352 H   0  0  0  0  0  0  0  0  0  0  0  0
    0.7175   16.3222  -35.6843 H   0  0  0  0  0  0  0  0  0  0  0  0
   -0.7296   17.9209  -34.3958 H   0  0  0  0  0  0  0  0  0  0  0  0
   -5.3815   16.8347  -34.3342 H   0  0  0  0  0  0  0  0  0  0  0  0
   -6.6145   17.1499  -31.6775 H   0  0  0  0  0  0  0  0  0  0  0  0
   -8.9238   17.4957  -30.8875 H   0  0  0  0  0  0  0  0  0  0  0  0
  -10.2105   19.5415  -31.5397 H   0  0  0  0  0  0  0  0  0  0  0  0
   -9.1050   21.2257  -33.0191 H   0  0  0  0  0  0  0  0  0  0  0  0
   -6.8075   20.8560  -33.7939 H   0  0  0  0  0  0  0  0  0  0  0  0
   -2.4578   19.9189  -31.1187 H   0  0  0  0  0  0  0  0  0  0  0  0
   -2.2035   21.9791  -29.7484 H   0  0  0  0  0  0  0  0  0  0  0  0
  1  2  2  0
  2  3  1  0
  2  4  1  0
  4  5  2  0
  5  6  1  0
  6  7  2  0
  7  8  1  0
  8  9  1  0
  9 10  2  0
 10 11  1  0
 11 12  2  0
 12 13  1  0
 13 14  2  0
 14 15  1  0
 15 16  2  0
 10 17  1  0
 17 18  2  0
 18 19  1  0
 19 20  2  0
 20 21  1  0
 21 22  2  0
 22 23  1  0
 23 24  2  0
  7 25  1  0
 25 26  2  0
 26  4  1  0
 18  8  1  0
 24 19  1  0
 16 11  1  0
  3 27  1  0
  5 28  1  0
  6 29  1  0
 12 30  1  0
 13 31  1  0
 14 32  1  0
 15 33  1  0
 16 34  1  0
 17 35  1  0
 20 36  1  0
 21 37  1  0
 22 38  1  0
 23 39  1  0
 24 40  1  0
 25 41  1  0
 26 42  1  0
M  END
>  <smiles>  (24) 
O=C(O)c1ccc(-n2nc(-c3ccccc3)cc2-c2ccccc2)cc1

>  <score_type>  (24) 
oracle

>  <origin>  (24) 
adg

>  <m_score__min__energy>  (24) 
-9.1600000000000001

>  <m_primary>  (24) 
energy

$$$$
24:0
     RDKit          3D

 29 30  0  0  1  0  0  0  0  0999 V2000
   -6.2780   25.6700  -29.4980 C   0  0  0  0  0  0  0  0  0  0  0  0
   -5.1560   24.6580  -29.5400 C   0  0  0  0  0  0  0  0  0  0  0  0
   -4.6150   24.6900  -30.8520 O   0  0  0  0  0  0  0  0  0  0  0  0
   -5.3660   24.1680  -31.8530 N   0  0  0  0  0  0  0  0  0  0  0  0
   -5.3900   22.8620  -32.0380 C   0  0  0  0  0  0  0  0  0  0  0  0
   -6.7140   22.2780  -31.9940 C   0  0  0  0  0  0  0  0  0  0  0  0
   -7.8790   22.8890  -31.6580 C   0  0  0  0  0  0  0  0  0  0  0  0
   -9.1210   22.2430  -31.6420 C   0  0  0  0  0  0  0  0  0  0  0  0
   -9.2160   20.9160  -31.9770 C   0  0  0  0  0  0  0  0  0  0  0  0
   -8.0550   20.2690  -32.3210 C   0  0  0  0  0  0  0  0  0  0  0  0
   -6.8520   20.9110  -32.3330 C   0  0  0  0  0  0  0  0  0  0  0  0
   -4.1280   22.2220  -32.2530 C   0  0  0  0  0  0  0  0  0  0  0  0
   -2.9830   22.0560  -31.5190 C   0  0  0  0  0  0  0  0  0  0  0  0
   -2.0580   21.3390  -32.2290 N   0  0  0  0  0  0  0  0  0  0  0  0
   -2.6180   21.0570  -33.4030 C   0  0  0  0  0  0  0  0  0  0  0  0
   -3.8390   21.5720  -33.4290 N   0  0  0  0  0  0  0  0  0  0  0  0
   -6.5288   25.8962  -28.4511 H   0  0  0  0  0  0  0  0  0  0  0  0
   -5.9593   26.5921  -30.0062 H   0  0  0  0  0  0  0  0  0  0  0  0
   -7.1624   25.2582  -30.0062 H   0  0  0  0  0  0  0  0  0  0  0  0
   -4.3811   24.9229  -28.8056 H   0  0  0  0  0  0  0  0  0  0  0  0
   -5.5262   23.6520  -29.2932 H   0  0  0  0  0  0  0  0  0  0  0  0
   -7.8451   23.9534  -31.3824 H   0  0  0  0  0  0  0  0  0  0  0  0
  -10.0251   22.8022  -31.3594 H   0  0  0  0  0  0  0  0  0  0  0  0
  -10.1830   20.3918  -31.9703 H   0  0  0  0  0  0  0  0  0  0  0  0
   -8.0963   19.2043  -32.5942 H   0  0  0  0  0  0  0  0  0  0  0  0
   -5.9534   20.3439  -32.6174 H   0  0  0  0  0  0  0  0  0  0  0  0
   -2.8287   22.4445  -30.5015 H   0  0  0  0  0  0  0  0  0  0  0  0
   -1.1020   21.0560  -31.9410 H   0  0  0  0  0  0  0  0  0  0  0  0
   -2.1450   20.4896  -34.2181 H   0  0  0  0  0  0  0  0  0  0  0  0
  1  2  1  0
  2  3  1  0
  3  4  1  0
  4  5  2  0
  5  6  1  0
  6  7  2  0
  7  8  1  0
  8  9  2  0
  9 10  1  0
 10 11  2  0
  5 12  1  0
 12 13  2  0
 13 14  1  0
 14 15  1  0
 15 16  2  0
 11  6  1  0
 16 12  1  0
  1 17  1  0
  1 18  1  0
  1 19  1  0
  2 20  1  0
  2 21  1  0
  7 22  1  0
  8 23  1  0
  9 24  1  0
 10 25  1  0
 11 26  1  0
 13 27  1  0
 14 28  1  0
 15 29  1  0
M  END
>  <smiles>  (25) 
CCON=C(c1ccccc1)c1c[nH]cn1

>  <score_type>  (25) 
oracle

>  <origin>  (25) 
adg

>  <m_score__min__energy>  (25) 
-6.5

>  <m_primary>  (25) 
energy

$$$$
25:0
     RDKit          3D

 40 42  0  0  0  0  0  0  0  0999 V2000
   -9.4300   22.6510  -31.9690 C   0  0  0  0  0  0  0  0  0  0  0  0
   -9.2680   21.2480  -31.3730 C   0  0  0  0  0  0  0  0  0  0  0  0
   -9.4920   20.2990  -32.5290 C   0  0  0  0  0  0  0  0  0  0  0  0
   -8.6810   19.0370  -32.4190 C   0  0  0  0  0  0  0  0  0  0  0  0
   -7.4650   19.1890  -31.5530 C   0  0  0  0  0  0  0  0  0  0  0  0
   -6.2680   19.0870  -32.3340 N   0  0  0  0  0  0  0  0  0  0  0  0
   -5.3390   20.0440  -32.5000 C   0  0  0  0  0  0  0  0  0  0  0  0
   -5.3040   21.3950  -31.9480 C   0  0  0  0  0  0  0  0  0  0  0  0
   -4.3780   21.8060  -31.0140 C   0  0  0  0  0  0  0  0  0  0  0  0
   -4.4150   23.1170  -30.5380 C   0  0  0  0  0  0  0  0  0  0  0  0
   -5.3930   23.9950  -31.0160 C   0  0  0  0  0  0  0  0  0  0  0  0
   -5.4840   25.6540  -30.4500 Cl  0  0  0  0  0  0  0  0  0  0  0  0
   -6.3270   23.5950  -31.9530 C   0  0  0  0  0  0  0  0  0  0  0  0
   -6.2760   22.2840  -32.4160 C   0  0  0  0  0  0  0  0  0  0  0  0
   -4.3590   19.5660  -33.3070 N   0  0  0  0  0  0  0  0  0  0  0  0
   -4.6450   18.3020  -33.6690 C   0  0  0  0  0  0  0  0  0  0  0  0
   -4.0400   17.3350  -34.4520 C   0  0  0  0  0  0  0  0  0  0  0  0
   -2.8600   17.6390  -35.0500 F   0  0  0  0  0  0  0  0  0  0  0  0
   -4.6220   16.0810  -34.6270 C   0  0  0  0  0  0  0  0  0  0  0  0
   -5.8230   15.7950  -34.0080 C   0  0  0  0  0  0  0  0  0  0  0  0
   -6.4380   14.5910  -34.1400 F   0  0  0  0  0  0  0  0  0  0  0  0
   -6.4130   16.7690  -33.2300 C   0  0  0  0  0  0  0  0  0  0  0  0
   -5.8620   18.0130  -33.0410 C   0  0  0  0  0  0  0  0  0  0  0  0
   -9.5150   23.3871  -31.1561 H   0  0  0  0  0  0  0  0  0  0  0  0
   -8.5534   22.8893  -32.5893 H   0  0  0  0  0  0  0  0  0  0  0  0
  -10.3378   22.6833  -32.5893 H   0  0  0  0  0  0  0  0  0  0  0  0
   -8.2574   21.1192  -30.9582 H   0  0  0  0  0  0  0  0  0  0  0  0
   -9.9739   21.0668  -30.5491 H   0  0  0  0  0  0  0  0  0  0  0  0
  -10.5579   20.0291  -32.5595 H   0  0  0  0  0  0  0  0  0  0  0  0
   -9.1730   20.8162  -33.4459 H   0  0  0  0  0  0  0  0  0  0  0  0
   -9.3179   18.2483  -31.9920 H   0  0  0  0  0  0  0  0  0  0  0  0
   -8.3319   18.7837  -33.4309 H   0  0  0  0  0  0  0  0  0  0  0  0
   -7.4926   20.1730  -31.0622 H   0  0  0  0  0  0  0  0  0  0  0  0
   -7.4650   18.3859  -30.8013 H   0  0  0  0  0  0  0  0  0  0  0  0
   -3.6144   21.1049  -30.6460 H   0  0  0  0  0  0  0  0  0  0  0  0
   -3.6809   23.4572  -29.7928 H   0  0  0  0  0  0  0  0  0  0  0  0
   -7.0907   24.2949  -32.3230 H   0  0  0  0  0  0  0  0  0  0  0  0
   -7.0104   21.9424  -33.1603 H   0  0  0  0  0  0  0  0  0  0  0  0
   -4.1282   15.3240  -35.2540 H   0  0  0  0  0  0  0  0  0  0  0  0
   -7.3695   16.5389  -32.7378 H   0  0  0  0  0  0  0  0  0  0  0  0
  1  2  1  0
  2  3  1  0
  3  4  1  0
  4  5  1  0
  5  6  1  0
  6  7  1  0
  7  8  1  0
  8  9  2  0
  9 10  1  0
 10 11  2  0
 11 12  1  0
 11 13  1  0
 13 14  2  0
  7 15  2  0
 15 16  1  0
 16 17  2  0
 17 18  1  0
 17 19  1  0
 19 20  2  0
 20 21  1  0
 20 22  1  0
 22 23  2  0
 23  6  1  0
 14  8  1  0
 23 16  1  0
  1 24  1  0
  1 25  1  0
  1 26  1  0
  2 27  1  0
  2 28  1  0
  3 29  1  0
  3 30  1  0
  4 31  1  0
  4 32  1  0
  5 33  1  0
  5 34  1  0
  9 35  1  0
 10 36  1  0
 13 37  1  0
 14 38  1  0
 19 39  1  0
 22 40  1  0
M  END
>  <smiles>  (26) 
CCCCCn1c(-c2ccc(Cl)cc2)nc2c(F)cc(F)cc21

>  <score_type>  (26) 
oracle

>  <origin>  (26) 
adg

>  <m_score__min__energy>  (26) 
-7.6200000000000001

>  <m_primary>  (26) 
energy

$$$$
26:0
     RDKit          3D

 35 35  0  0  0  0  0  0  0  0999 V2000
   -2.6210   22.3000  -30.9770 C   0  0  0  0  0  0  0  0  0  0  0  0
   -2.9790   21.3300  -29.8420 C   0  0  0  0  0  0  0  0  0  0  0  0
   -3.8430   21.9500  -28.9210 O   0  0  0  0  0  0  0  0  0  0  0  0
   -3.4370   22.9230  -28.0100 C   0  0  0  0  0  0  0  0  0  0  0  0
   -2.5800   22.6080  -27.1470 O   0  0  0  0  0  0  0  0  0  0  0  0
   -4.0100   24.2920  -28.0700 C   0  0  0  0  0  0  0  0  0  0  0  0
   -5.1570   24.2450  -28.9710 N   0  0  0  0  0  0  0  0  0  0  0  0
   -4.9670   24.8030  -30.2640 C   0  0  0  0  0  0  0  0  0  0  0  0
   -3.8610   25.2990  -30.5750 O   0  0  0  0  0  0  0  0  0  0  0  0
   -6.1110   24.7860  -31.2420 C   0  0  0  0  0  0  0  0  0  0  0  0
   -6.1070   23.5630  -32.0120 N   0  0  0  0  0  0  0  0  0  0  0  0
   -6.5100   22.3730  -31.3230 C   0  0  0  0  0  0  0  0  0  0  0  0
   -6.8520   22.3950  -30.1030 O   0  0  0  0  0  0  0  0  0  0  0  0
   -6.5490   21.0780  -31.9930 C   0  0  0  0  0  0  0  0  0  0  0  0
   -5.3080   20.5390  -32.3410 C   0  0  0  0  0  0  0  0  0  0  0  0
   -5.2140   19.3200  -32.9780 C   0  0  0  0  0  0  0  0  0  0  0  0
   -6.3910   18.6330  -33.2680 C   0  0  0  0  0  0  0  0  0  0  0  0
   -6.2800   17.0730  -34.0820 Cl  0  0  0  0  0  0  0  0  0  0  0  0
   -7.6320   19.1730  -32.9200 C   0  0  0  0  0  0  0  0  0  0  0  0
   -7.7180   20.4050  -32.2760 C   0  0  0  0  0  0  0  0  0  0  0  0
   -9.2370   21.1170  -31.8250 Cl  0  0  0  0  0  0  0  0  0  0  0  0
   -2.2701   23.2509  -30.5496 H   0  0  0  0  0  0  0  0  0  0  0  0
   -1.8256   21.8611  -31.5973 H   0  0  0  0  0  0  0  0  0  0  0  0
   -3.5108   22.4830  -31.5973 H   0  0  0  0  0  0  0  0  0  0  0  0
   -3.4756   20.4444  -30.2652 H   0  0  0  0  0  0  0  0  0  0  0  0
   -2.0563   21.0336  -29.3217 H   0  0  0  0  0  0  0  0  0  0  0  0
   -4.3322   24.6092  -27.0672 H   0  0  0  0  0  0  0  0  0  0  0  0
   -3.2607   25.0115  -28.4317 H   0  0  0  0  0  0  0  0  0  0  0  0
   -6.0760   23.8200  -28.6800 H   0  0  0  0  0  0  0  0  0  0  0  0
   -7.0593   24.8618  -30.6897 H   0  0  0  0  0  0  0  0  0  0  0  0
   -6.0007   25.6372  -31.9299 H   0  0  0  0  0  0  0  0  0  0  0  0
   -5.8300   23.5060  -33.0210 H   0  0  0  0  0  0  0  0  0  0  0  0
   -4.3903   21.0967  -32.1027 H   0  0  0  0  0  0  0  0  0  0  0  0
   -4.2344   18.9003  -33.2505 H   0  0  0  0  0  0  0  0  0  0  0  0
   -8.5519   18.6185  -33.1575 H   0  0  0  0  0  0  0  0  0  0  0  0
  1  2  1  0
  2  3  1  0
  3  4  1  0
  4  5  2  0
  4  6  1  0
  6  7  1  0
  7  8  1  0
  8  9  2  0
  8 10  1  0
 10 11  1  0
 11 12  1  0
 12 13  2  0
 12 14  1  0
 14 15  2  0
 15 16  1  0
 16 17  2  0
 17 18  1  0
 17 19  1  0
 19 20  2  0
 20 21  1  0
 20 14  1  0
  1 22  1  0
  1 23  1  0
  1 24  1  0
  2 25  1  0
  2 26  1  0
  6 27  1  0
  6 28  1  0
  7 29  1  0
 10 30  1  0
 10 31  1  0
 11 32  1  0
 15 33  1  0
 16 34  1  0
 19 35  1  0
M  END
>  <smiles>  (27) 
CCOC(=O)CNC(=O)CNC(=O)c1ccc(Cl)cc1Cl

>  <score_type>  (27) 
oracle

>  <origin>  (27) 
adg

>  <m_score__min__energy>  (27) 
-8.1400000000000006

>  <m_primary>  (27) 
energy

$$$$
27:0
     RDKit          3D

 62 65  0  0  0  0  0  0  0  0999 V2000
   -6.1750   17.4060  -31.4850 C   0  0  0  0  0  0  0  0  0  0  0  0
   -6.0300   17.1770  -32.9630 C   0  0  0  0  0  0  0  0  0  0  0  0
   -4.7380   17.3500  -33.4940 N   0  0  0  0  0  0  0  0  0  0  0  0
   -3.8770   16.2420  -33.6040 C   0  0  0  0  0  0  0  0  0  0  0  0
   -4.4560   18.5130  -34.2490 C   0  0  0  0  0  0  0  0  0  0  0  0
   -2.9940   18.8780  -34.2110 C   0  0  0  0  0  0  0  0  0  0  0  0
   -2.7060   20.2650  -34.1080 N   0  0  0  0  0  0  0  0  0  0  0  0
   -2.8990   21.1030  -32.9970 C   0  0  0  0  0  0  0  0  0  0  0  0
   -1.9150   21.2060  -32.0030 C   0  0  0  0  0  0  0  0  0  0  0  0
   -2.0730   22.0000  -30.8920 C   0  0  0  0  0  0  0  0  0  0  0  0
   -3.2240   22.7500  -30.6890 C   0  0  0  0  0  0  0  0  0  0  0  0
   -4.1930   22.6580  -31.6530 C   0  0  0  0  0  0  0  0  0  0  0  0
   -4.0340   21.8570  -32.7740 C   0  0  0  0  0  0  0  0  0  0  0  0
   -5.2260   23.4700  -31.2440 C   0  0  0  0  0  0  0  0  0  0  0  0
   -6.7380   23.7310  -32.1130 S   0  0  0  0  0  0  0  0  0  0  0  0
   -7.7400   22.2460  -32.1970 C   0  0  0  0  0  0  0  0  0  0  0  0
   -7.2010   21.0510  -32.6560 C   0  0  0  0  0  0  0  0  0  0  0  0
   -7.9300   19.8900  -32.7360 C   0  0  0  0  0  0  0  0  0  0  0  0
   -9.2660   19.9450  -32.3310 C   0  0  0  0  0  0  0  0  0  0  0  0
   -9.8230   21.1140  -31.8750 C   0  0  0  0  0  0  0  0  0  0  0  0
   -9.0700   22.2880  -31.7980 C   0  0  0  0  0  0  0  0  0  0  0  0
   -4.8410   24.0200  -30.0530 C   0  0  0  0  0  0  0  0  0  0  0  0
   -5.7170   24.9650  -29.2850 C   0  0  0  0  0  0  0  0  0  0  0  0
   -3.6030   23.5840  -29.6960 N   0  0  0  0  0  0  0  0  0  0  0  0
   -2.8500   23.9430  -28.5020 C   0  0  0  0  0  0  0  0  0  0  0  0
   -2.4120   22.7460  -27.7570 C   0  0  0  0  0  0  0  0  0  0  0  0
   -1.2920   22.7030  -26.9570 C   0  0  0  0  0  0  0  0  0  0  0  0
   -0.8890   21.5870  -26.2600 C   0  0  0  0  0  0  0  0  0  0  0  0
   -1.6340   20.4190  -26.3470 C   0  0  0  0  0  0  0  0  0  0  0  0
   -2.7620   20.4230  -27.1360 C   0  0  0  0  0  0  0  0  0  0  0  0
   -3.1520   21.5740  -27.8370 C   0  0  0  0  0  0  0  0  0  0  0  0
   -5.6647   16.6000  -30.9373 H   0  0  0  0  0  0  0  0  0  0  0  0
   -5.7244   18.3733  -31.2179 H   0  0  0  0  0  0  0  0  0  0  0  0
   -7.2421   17.4123  -31.2179 H   0  0  0  0  0  0  0  0  0  0  0  0
   -6.3448   16.1446  -33.1753 H   0  0  0  0  0  0  0  0  0  0  0  0
   -6.6516   17.9472  -33.4430 H   0  0  0  0  0  0  0  0  0  0  0  0
   -3.6030   15.8894  -32.5987 H   0  0  0  0  0  0  0  0  0  0  0  0
   -4.3868   15.4343  -34.1496 H   0  0  0  0  0  0  0  0  0  0  0  0
   -2.9684   16.5365  -34.1496 H   0  0  0  0  0  0  0  0  0  0  0  0
   -4.7496   18.3362  -35.2943 H   0  0  0  0  0  0  0  0  0  0  0  0
   -5.0229   19.3464  -33.8085 H   0  0  0  0  0  0  0  0  0  0  0  0
   -2.5427   18.3742  -33.3435 H   0  0  0  0  0  0  0  0  0  0  0  0
   -2.5808   18.5580  -35.1789 H   0  0  0  0  0  0  0  0  0  0  0  0
   -2.2930   20.7350  -34.9750 H   0  0  0  0  0  0  0  0  0  0  0  0
   -0.9840   20.6312  -32.1164 H   0  0  0  0  0  0  0  0  0  0  0  0
   -1.2670   22.0424  -30.1446 H   0  0  0  0  0  0  0  0  0  0  0  0
   -4.8454   21.8209  -33.5159 H   0  0  0  0  0  0  0  0  0  0  0  0
   -6.1464   21.0339  -32.9684 H   0  0  0  0  0  0  0  0  0  0  0  0
   -7.4808   18.9556  -33.1036 H   0  0  0  0  0  0  0  0  0  0  0  0
   -9.8826   19.0353  -32.3784 H   0  0  0  0  0  0  0  0  0  0  0  0
  -10.8785   21.1263  -31.5655 H   0  0  0  0  0  0  0  0  0  0  0  0
   -9.5190   23.2225  -31.4306 H   0  0  0  0  0  0  0  0  0  0  0  0
   -5.5702   24.8066  -28.2064 H   0  0  0  0  0  0  0  0  0  0  0  0
   -5.4529   26.0013  -29.5427 H   0  0  0  0  0  0  0  0  0  0  0  0
   -6.7703   24.7801  -29.5427 H   0  0  0  0  0  0  0  0  0  0  0  0
   -1.9638   24.5228  -28.7994 H   0  0  0  0  0  0  0  0  0  0  0  0
   -3.5049   24.5362  -27.8469 H   0  0  0  0  0  0  0  0  0  0  0  0
   -0.6832   23.6150  -26.8699 H   0  0  0  0  0  0  0  0  0  0  0  0
    0.0176   21.6203  -25.6380 H   0  0  0  0  0  0  0  0  0  0  0  0
   -1.3310   19.5141  -25.7999 H   0  0  0  0  0  0  0  0  0  0  0  0
   -3.3677   19.5085  -27.2182 H   0  0  0  0  0  0  0  0  0  0  0  0
   -4.0583   21.5475  -28.4598 H   0  0  0  0  0  0  0  0  0  0  0  0
  1  2  1  0
  2  3  1  0
  3  4  1  0
  3  5  1  0
  5  6  1  0
  6  7  1  0
  7  8  1  0
  8  9  2  0
  9 10  1  0
 10 11  2  0
 11 12  1  0
 12 13  2  0
 12 14  1  0
 14 15  1  0
 15 16  1  0
 16 17  2  0
 17 18  1  0
 18 19  2  0
 19 20  1  0
 20 21  2  0
 14 22  2  0
 22 23  1  0
 22 24  1  0
 24 25  1  0
 25 26  1  0
 26 27  2  0
 27 28  1  0
 28 29  2  0
 29 30  1  0
 30 31  2  0
 13  8  1  0
 21 16  1  0
 31 26  1  0
 24 11  1  0
  1 32  1  0
  1 33  1  0
  1 34  1  0
  2 35  1  0
  2 36  1  0
  4 37  1  0
  4 38  1  0
  4 39  1  0
  5 40  1  0
  5 41  1  0
  6 42  1  0
  6 43  1  0
  7 44  1  0
  9 45  1  0
 10 46  1  0
 13 47  1  0
 17 48  1  0
 18 49  1  0
 19 50  1  0
 20 51  1  0
 21 52  1  0
 23 53  1  0
 23 54  1  0
 23 55  1  0
 25 56  1  0
 25 57  1  0
 27 58  1  0
 28 59  1  0
 29 60  1  0
 30 61  1  0
 31 62  1  0
M  END
>  <smiles>  (28) 
CCN(C)CCNc1ccc2c(c1)c(Sc1ccccc1)c(C)n2Cc1ccccc1

>  <score_type>  (28) 
oracle

>  <origin>  (28) 
adg

>  <m_score__min__energy>  (28) 
-9.8300000000000001

>  <m_primary>  (28) 
energy

$$$$
28:0
     RDKit          3D

 56 58  0  0  0  0  0  0  0  0999 V2000
   -7.1310   17.9220  -31.7370 C   0  0  0  0  0  0  0  0  0  0  0  0
   -8.5480   18.4850  -31.6180 C   0  0  0  0  0  0  0  0  0  0  0  0
   -8.7270   19.7770  -32.8570 S   0  0  0  0  0  0  0  0  0  0  0  0
   -7.8830   21.2310  -32.3190 C   0  0  0  0  0  0  0  0  0  0  0  0
   -8.5870   22.2240  -31.6610 C   0  0  0  0  0  0  0  0  0  0  0  0
   -8.0000   23.3890  -31.2090 C   0  0  0  0  0  0  0  0  0  0  0  0
   -6.6390   23.5910  -31.4170 C   0  0  0  0  0  0  0  0  0  0  0  0
   -5.9980   24.8570  -30.9270 C   0  0  0  0  0  0  0  0  0  0  0  0
   -4.5990   24.7580  -31.2180 N   0  0  0  0  0  0  0  0  0  0  0  0
   -3.8080   24.2230  -30.1510 C   0  0  0  0  0  0  0  0  0  0  0  0
   -4.6360   23.8930  -28.9300 C   0  0  0  0  0  0  0  0  0  0  0  0
   -3.7340   23.3600  -27.8500 C   0  0  0  0  0  0  0  0  0  0  0  0
   -2.9120   22.2460  -28.2740 N   0  0  0  0  0  0  0  0  0  0  0  0
   -2.0570   21.9250  -27.1550 C   0  0  0  0  0  0  0  0  0  0  0  0
   -1.4760   20.5770  -27.2320 C   0  0  0  0  0  0  0  0  0  0  0  0
   -2.1850   19.5270  -26.6960 C   0  0  0  0  0  0  0  0  0  0  0  0
   -1.7130   18.2150  -26.7230 C   0  0  0  0  0  0  0  0  0  0  0  0
   -0.4880   17.9350  -27.3050 C   0  0  0  0  0  0  0  0  0  0  0  0
    0.2110   18.9990  -27.8390 C   0  0  0  0  0  0  0  0  0  0  0  0
   -0.2590   20.2960  -27.8100 C   0  0  0  0  0  0  0  0  0  0  0  0
   -2.1640   22.5110  -29.4780 C   0  0  0  0  0  0  0  0  0  0  0  0
   -3.0540   22.9900  -30.5800 C   0  0  0  0  0  0  0  0  0  0  0  0
   -5.9130   22.6160  -32.0720 C   0  0  0  0  0  0  0  0  0  0  0  0
   -6.5250   21.4490  -32.5180 C   0  0  0  0  0  0  0  0  0  0  0  0
   -5.8270   20.4480  -33.1800 O   0  0  0  0  0  0  0  0  0  0  0  0
   -4.4170   20.3920  -33.0750 C   0  0  0  0  0  0  0  0  0  0  0  0
   -6.7163   17.7572  -30.7316 H   0  0  0  0  0  0  0  0  0  0  0  0
   -7.1604   16.9672  -32.2825 H   0  0  0  0  0  0  0  0  0  0  0  0
   -6.4971   18.6366  -32.2825 H   0  0  0  0  0  0  0  0  0  0  0  0
   -9.2844   17.6880  -31.7983 H   0  0  0  0  0  0  0  0  0  0  0  0
   -8.7187   18.8907  -30.6099 H   0  0  0  0  0  0  0  0  0  0  0  0
   -9.6639   22.0785  -31.4902 H   0  0  0  0  0  0  0  0  0  0  0  0
   -8.6018   24.1495  -30.6899 H   0  0  0  0  0  0  0  0  0  0  0  0
   -6.4312   25.7250  -31.4456 H   0  0  0  0  0  0  0  0  0  0  0  0
   -6.1660   24.9899  -29.8481 H   0  0  0  0  0  0  0  0  0  0  0  0
   -4.2260   25.6970  -31.4950 H   0  0  0  0  0  0  0  0  0  0  0  0
   -3.0914   25.0143  -29.8858 H   0  0  0  0  0  0  0  0  0  0  0  0
   -5.1417   24.8018  -28.5718 H   0  0  0  0  0  0  0  0  0  0  0  0
   -5.3905   23.1355  -29.1887 H   0  0  0  0  0  0  0  0  0  0  0  0
   -3.0719   24.1733  -27.5180 H   0  0  0  0  0  0  0  0  0  0  0  0
   -4.3834   22.9907  -27.0426 H   0  0  0  0  0  0  0  0  0  0  0  0
   -1.2365   22.6569  -27.1219 H   0  0  0  0  0  0  0  0  0  0  0  0
   -2.6809   21.9584  -26.2496 H   0  0  0  0  0  0  0  0  0  0  0  0
   -3.1601   19.7297  -26.2289 H   0  0  0  0  0  0  0  0  0  0  0  0
   -2.3124   17.4044  -26.2830 H   0  0  0  0  0  0  0  0  0  0  0  0
   -0.0896   16.9103  -27.3402 H   0  0  0  0  0  0  0  0  0  0  0  0
    1.1864   18.8041  -28.3087 H   0  0  0  0  0  0  0  0  0  0  0  0
    0.3402   21.1069  -28.2497 H   0  0  0  0  0  0  0  0  0  0  0  0
   -1.4086   23.2824  -29.2674 H   0  0  0  0  0  0  0  0  0  0  0  0
   -1.6864   21.5744  -29.8016 H   0  0  0  0  0  0  0  0  0  0  0  0
   -2.4417   23.2287  -31.4621 H   0  0  0  0  0  0  0  0  0  0  0  0
   -3.7769   22.1975  -30.8236 H   0  0  0  0  0  0  0  0  0  0  0  0
   -4.8366   22.7640  -32.2434 H   0  0  0  0  0  0  0  0  0  0  0  0
   -4.1285   20.3805  -32.0136 H   0  0  0  0  0  0  0  0  0  0  0  0
   -4.0488   19.4785  -33.5649 H   0  0  0  0  0  0  0  0  0  0  0  0
   -3.9775   21.2734  -33.5649 H   0  0  0  0  0  0  0  0  0  0  0  0
  1  2  1  0
  2  3  1  0
  3  4  1  0
  4  5  2  0
  5  6  1  0
  6  7  2  0
  7  8  1  0
  8  9  1  0
  9 10  1  0
 10 11  1  0
 11 12  1  0
 12 13  1  0
 13 14  1  0
 14 15  1  0
 15 16  2  0
 16 17  1  0
 17 18  2  0
 18 19  1  0
 19 20  2  0
 13 21  1  0
 21 22  1  0
  7 23  1  0
 23 24  2  0
 24 25  1  0
 25 26  1  0
 24  4  1  0
 22 10  1  0
 20 15  1  0
  1 27  1  0
  1 28  1  0
  1 29  1  0
  2 30  1  0
  2 31  1  0
  5 32  1  0
  6 33  1  0
  8 34  1  0
  8 35  1  0
  9 36  1  0
 10 37  1  0
 11 38  1  0
 11 39  1  0
 12 40  1  0
 12 41  1  0
 14 42  1  0
 14 43  1  0
 16 44  1  0
 17 45  1  0
 18 46  1  0
 19 47  1  0
 20 48  1  0
 21 49  1  0
 21 50  1  0
 22 51  1  0
 22 52  1  0
 23 53  1  0
 26 54  1  0
 26 55  1  0
 26 56  1  0
M  END
>  <smiles>  (29) 
CCSc1ccc(CNC2CCN(Cc3ccccc3)CC2)cc1OC

>  <score_type>  (29) 
oracle

>  <origin>  (29) 
adg

>  <m_score__min__energy>  (29) 
-9.3200000000000003

>  <m_primary>  (29) 
energy

$$$$
29:0
     RDKit          3D

 36 37  0  0  0  0  0  0  0  0999 V2000
   -6.1210   25.6310  -29.3690 C   0  0  0  0  0  0  0  0  0  0  0  0
   -5.3010   25.7000  -30.6180 C   0  0  0  0  0  0  0  0  0  0  0  0
   -3.9620   25.3230  -30.4630 O   0  0  0  0  0  0  0  0  0  0  0  0
   -3.5180   24.2620  -29.7020 C   0  0  0  0  0  0  0  0  0  0  0  0
   -2.6880   24.4210  -28.6120 C   0  0  0  0  0  0  0  0  0  0  0  0
   -2.2530   23.3450  -27.8640 C   0  0  0  0  0  0  0  0  0  0  0  0
   -2.6820   22.0910  -28.2520 C   0  0  0  0  0  0  0  0  0  0  0  0
   -3.5110   21.9090  -29.3400 C   0  0  0  0  0  0  0  0  0  0  0  0
   -3.9610   22.9940  -30.1090 C   0  0  0  0  0  0  0  0  0  0  0  0
   -4.7510   22.7910  -31.1440 O   0  0  0  0  0  0  0  0  0  0  0  0
   -6.3290   22.6700  -31.5450 S   0  0  0  0  0  0  0  0  0  0  0  0
   -7.1200   23.1020  -30.2970 O   0  0  0  0  0  0  0  0  0  0  0  0
   -6.7310   23.5680  -32.7010 O   0  0  0  0  0  0  0  0  0  0  0  0
   -6.8070   21.0590  -31.9970 C   0  0  0  0  0  0  0  0  0  0  0  0
   -5.9300   20.0670  -32.3630 C   0  0  0  0  0  0  0  0  0  0  0  0
   -6.3100   18.7840  -32.7170 C   0  0  0  0  0  0  0  0  0  0  0  0
   -7.6420   18.4490  -32.7130 C   0  0  0  0  0  0  0  0  0  0  0  0
   -8.5380   19.4140  -32.3530 C   0  0  0  0  0  0  0  0  0  0  0  0
   -8.1620   20.7160  -31.9940 C   0  0  0  0  0  0  0  0  0  0  0  0
   -9.2330   21.6520  -31.6390 C   0  0  0  0  0  0  0  0  0  0  0  0
   -9.4670   21.7860  -30.2870 F   0  0  0  0  0  0  0  0  0  0  0  0
  -10.4490   21.1410  -32.1340 F   0  0  0  0  0  0  0  0  0  0  0  0
   -9.1030   22.8660  -32.2960 F   0  0  0  0  0  0  0  0  0  0  0  0
   -5.4590   25.6867  -28.4922 H   0  0  0  0  0  0  0  0  0  0  0  0
   -6.8288   26.4728  -29.3481 H   0  0  0  0  0  0  0  0  0  0  0  0
   -6.6782   24.6828  -29.3481 H   0  0  0  0  0  0  0  0  0  0  0  0
   -5.7592   25.0355  -31.3653 H   0  0  0  0  0  0  0  0  0  0  0  0
   -5.2916   26.7565  -30.9241 H   0  0  0  0  0  0  0  0  0  0  0  0
   -2.3634   25.4337  -28.3306 H   0  0  0  0  0  0  0  0  0  0  0  0
   -1.5922   23.4810  -26.9952 H   0  0  0  0  0  0  0  0  0  0  0  0
   -2.3536   21.2123  -27.6775 H   0  0  0  0  0  0  0  0  0  0  0  0
   -3.8265   20.8906  -29.6110 H   0  0  0  0  0  0  0  0  0  0  0  0
   -4.8567   20.3078  -32.3755 H   0  0  0  0  0  0  0  0  0  0  0  0
   -5.5516   18.0389  -32.9992 H   0  0  0  0  0  0  0  0  0  0  0  0
   -7.9753   17.4380  -32.9903 H   0  0  0  0  0  0  0  0  0  0  0  0
   -9.6076   19.1574  -32.3442 H   0  0  0  0  0  0  0  0  0  0  0  0
  1  2  1  0
  2  3  1  0
  3  4  1  0
  4  5  2  0
  5  6  1  0
  6  7  2  0
  7  8  1  0
  8  9  2  0
  9 10  1  0
 10 11  1  0
 11 12  2  0
 11 13  2  0
 11 14  1  0
 14 15  2  0
 15 16  1  0
 16 17  2  0
 17 18  1  0
 18 19  2  0
 19 20  1  0
 20 21  1  0
 20 22  1  0
 20 23  1  0
  9  4  1  0
 19 14  1  0
  1 24  1  0
  1 25  1  0
  1 26  1  0
  2 27  1  0
  2 28  1  0
  5 29  1  0
  6 30  1  0
  7 31  1  0
  8 32  1  0
 15 33  1  0
 16 34  1  0
 17 35  1  0
 18 36  1  0
M  END
>  <smiles>  (30) 
CCOc1ccccc1OS(=O)(=O)c1ccccc1C(F)(F)F

>  <score_type>  (30) 
oracle

>  <origin>  (30) 
adg

>  <m_score__min__energy>  (30) 
-8.0700000000000003

>  <m_primary>  (30) 
energy

$$$$
30:0
     RDKit          3D

 50 51  0  0  1  0  0  0  0  0999 V2000
   -2.7560   21.7570  -31.9730 C   0  0  0  0  0  0  0  0  0  0  0  0
   -2.0300   21.2990  -30.7070 C   0  0  0  0  0  0  0  0  0  0  0  0
   -0.9710   22.1570  -30.5060 O   0  0  0  0  0  0  0  0  0  0  0  0
   -0.9150   22.6590  -29.2100 C   0  0  0  0  0  0  0  0  0  0  0  0
   -0.6980   24.1520  -29.3010 C   0  0  0  0  0  0  0  0  0  0  0  0
   -1.7390   24.8970  -28.4840 C   0  0  1  0  0  0  0  0  0  0  0  0
   -1.1610   25.9880  -27.6360 C   0  0  0  0  0  0  0  0  0  0  0  0
   -2.7320   25.2990  -29.3510 O   0  0  0  0  0  0  0  0  0  0  0  0
   -3.9290   24.6950  -29.6650 C   0  0  0  0  0  0  0  0  0  0  0  0
   -4.9050   25.2510  -30.4620 C   0  0  0  0  0  0  0  0  0  0  0  0
   -6.0890   24.5900  -30.7410 C   0  0  0  0  0  0  0  0  0  0  0  0
   -6.3040   23.3230  -30.2000 C   0  0  0  0  0  0  0  0  0  0  0  0
   -7.5930   22.6590  -30.5280 C   0  0  0  0  0  0  0  0  0  0  0  0
   -7.7560   22.3050  -31.8940 N   0  0  0  0  0  0  0  0  0  0  0  0
   -8.9160   21.4640  -32.0500 C   0  0  0  0  0  0  0  0  0  0  0  0
   -8.7120   20.1650  -31.3480 C   0  0  0  0  0  0  0  0  0  0  0  0
   -7.5090   19.4110  -31.8580 C   0  0  0  0  0  0  0  0  0  0  0  0
   -6.3390   20.2870  -32.1380 C   0  0  0  0  0  0  0  0  0  0  0  0
   -6.6420   21.6870  -32.5360 C   0  0  0  0  0  0  0  0  0  0  0  0
   -5.3370   22.7540  -29.4000 C   0  0  0  0  0  0  0  0  0  0  0  0
   -4.1640   23.4390  -29.1400 C   0  0  0  0  0  0  0  0  0  0  0  0
   -3.6560   22.3248  -31.6945 H   0  0  0  0  0  0  0  0  0  0  0  0
   -2.0878   22.3974  -32.5675 H   0  0  0  0  0  0  0  0  0  0  0  0
   -3.0463   20.8782  -32.5675 H   0  0  0  0  0  0  0  0  0  0  0  0
   -2.7140   21.3380  -29.8464 H   0  0  0  0  0  0  0  0  0  0  0  0
   -1.6755   20.2634  -30.8158 H   0  0  0  0  0  0  0  0  0  0  0  0
   -1.8595   22.4495  -28.6866 H   0  0  0  0  0  0  0  0  0  0  0  0
   -0.0953   22.1853  -28.6499 H   0  0  0  0  0  0  0  0  0  0  0  0
    0.3038   24.3952  -28.9173 H   0  0  0  0  0  0  0  0  0  0  0  0
   -0.7888   24.4588  -30.3534 H   0  0  0  0  0  0  0  0  0  0  0  0
   -2.1804   24.2309  -27.7280 H   0  0  0  0  0  0  0  0  0  0  0  0
   -1.2944   25.7362  -26.5735 H   0  0  0  0  0  0  0  0  0  0  0  0
   -0.0884   26.0940  -27.8558 H   0  0  0  0  0  0  0  0  0  0  0  0
   -1.6757   26.9350  -27.8558 H   0  0  0  0  0  0  0  0  0  0  0  0
   -4.7387   26.2506  -30.8899 H   0  0  0  0  0  0  0  0  0  0  0  0
   -6.8507   25.0585  -31.3815 H   0  0  0  0  0  0  0  0  0  0  0  0
   -7.6665   21.7409  -29.9266 H   0  0  0  0  0  0  0  0  0  0  0  0
   -8.3819   23.3923  -30.3045 H   0  0  0  0  0  0  0  0  0  0  0  0
   -9.7931   21.9729  -31.6237 H   0  0  0  0  0  0  0  0  0  0  0  0
   -9.0760   21.2705  -33.1210 H   0  0  0  0  0  0  0  0  0  0  0  0
   -8.5745   20.3627  -30.2747 H   0  0  0  0  0  0  0  0  0  0  0  0
   -9.5991   19.5424  -31.5363 H   0  0  0  0  0  0  0  0  0  0  0  0
   -7.2158   18.6687  -31.1010 H   0  0  0  0  0  0  0  0  0  0  0  0
   -7.7988   18.9414  -32.8096 H   0  0  0  0  0  0  0  0  0  0  0  0
   -5.7229   20.3238  -31.2275 H   0  0  0  0  0  0  0  0  0  0  0  0
   -5.8389   19.8374  -33.0085 H   0  0  0  0  0  0  0  0  0  0  0  0
   -5.7518   22.2959  -32.3197 H   0  0  0  0  0  0  0  0  0  0  0  0
   -6.9124   21.6345  -33.6009 H   0  0  0  0  0  0  0  0  0  0  0  0
   -5.4980   21.7552  -28.9683 H   0  0  0  0  0  0  0  0  0  0  0  0
   -3.4003   22.9728  -28.5002 H   0  0  0  0  0  0  0  0  0  0  0  0
  1  2  1  0
  2  3  1  0
  3  4  1  0
  4  5  1  0
  5  6  1  0
  6  7  1  0
  6  8  1  0
  8  9  1  0
  9 10  2  0
 10 11  1  0
 11 12  2  0
 12 13  1  0
 13 14  1  0
 14 15  1  0
 15 16  1  0
 16 17  1  0
 17 18  1  0
 18 19  1  0
 12 20  1  0
 20 21  2  0
 21  9  1  0
 19 14  1  0
  1 22  1  0
  1 23  1  0
  1 24  1  0
  2 25  1  0
  2 26  1  0
  4 27  1  0
  4 28  1  0
  5 29  1  0
  5 30  1  0
  6 31  1  1
  7 32  1  0
  7 33  1  0
  7 34  1  0
 10 35  1  0
 11 36  1  0
 13 37  1  0
 13 38  1  0
 15 39  1  0
 15 40  1  0
 16 41  1  0
 16 42  1  0
 17 43  1  0
 17 44  1  0
 18 45  1  0
 18 46  1  0
 19 47  1  0
 19 48  1  0
 20 49  1  0
 21 50  1  0
M  END
>  <smiles>  (31) 
CCOCCC(C)Oc1ccc(CN2CCCCC2)cc1

>  <score_type>  (31) 
oracle

>  <origin>  (31) 
adg

>  <m_score__min__energy>  (31) 
-7.6699999999999999

>  <m_primary>  (31) 
energy

$$$$
31:0
     RDKit          3D

 38 40  0  0  0  0  0  0  0  0999 V2000
   -6.7860   14.7180  -34.2370 C   0  0  0  0  0  0  0  0  0  0  0  0
   -5.5620   15.0880  -33.4580 C   0  0  0  0  0  0  0  0  0  0  0  0
   -5.2040   16.4200  -33.5530 O   0  0  0  0  0  0  0  0  0  0  0  0
   -6.3380   17.1820  -33.7090 C   0  0  0  0  0  0  0  0  0  0  0  0
   -6.9490   17.6260  -32.4160 C   0  0  0  0  0  0  0  0  0  0  0  0
   -7.7480   18.8860  -32.6740 C   0  0  0  0  0  0  0  0  0  0  0  0
   -6.7490   19.9440  -32.8690 N   0  0  0  0  0  0  0  0  0  0  0  0
   -6.8230   21.1880  -32.1900 C   0  0  0  0  0  0  0  0  0  0  0  0
   -8.0100   21.8180  -31.8810 C   0  0  0  0  0  0  0  0  0  0  0  0
   -8.0390   22.9990  -31.2360 N   0  0  0  0  0  0  0  0  0  0  0  0
   -6.8540   23.5650  -30.8880 C   0  0  0  0  0  0  0  0  0  0  0  0
   -6.8610   24.7930  -30.2170 C   0  0  0  0  0  0  0  0  0  0  0  0
   -5.6440   25.3780  -29.8570 C   0  0  0  0  0  0  0  0  0  0  0  0
   -4.4340   24.7840  -30.1450 C   0  0  0  0  0  0  0  0  0  0  0  0
   -4.4700   23.5780  -30.8070 C   0  0  0  0  0  0  0  0  0  0  0  0
   -5.6480   22.9650  -31.1790 C   0  0  0  0  0  0  0  0  0  0  0  0
   -5.6630   21.7680  -31.8360 N   0  0  0  0  0  0  0  0  0  0  0  0
   -5.6800   19.6180  -33.8080 C   0  0  0  0  0  0  0  0  0  0  0  0
   -6.0850   18.3860  -34.5880 C   0  0  0  0  0  0  0  0  0  0  0  0
   -7.6022   14.4713  -33.5421 H   0  0  0  0  0  0  0  0  0  0  0  0
   -7.0874   15.5652  -34.8706 H   0  0  0  0  0  0  0  0  0  0  0  0
   -6.5676   13.8457  -34.8706 H   0  0  0  0  0  0  0  0  0  0  0  0
   -5.7457   14.8561  -32.3985 H   0  0  0  0  0  0  0  0  0  0  0  0
   -4.7308   14.5088  -33.8867 H   0  0  0  0  0  0  0  0  0  0  0  0
   -7.0618   16.5144  -34.1993 H   0  0  0  0  0  0  0  0  0  0  0  0
   -7.6119   16.8384  -32.0283 H   0  0  0  0  0  0  0  0  0  0  0  0
   -6.1618   17.8226  -31.6733 H   0  0  0  0  0  0  0  0  0  0  0  0
   -8.3687   18.7711  -33.5749 H   0  0  0  0  0  0  0  0  0  0  0  0
   -8.4322   19.1154  -31.8438 H   0  0  0  0  0  0  0  0  0  0  0  0
   -8.9590   21.3425  -32.1695 H   0  0  0  0  0  0  0  0  0  0  0  0
   -7.8117   25.2911  -29.9761 H   0  0  0  0  0  0  0  0  0  0  0  0
   -5.6519   26.3422  -29.3275 H   0  0  0  0  0  0  0  0  0  0  0  0
   -3.4814   25.2533  -29.8583 H   0  0  0  0  0  0  0  0  0  0  0  0
   -3.5187   23.0819  -31.0497 H   0  0  0  0  0  0  0  0  0  0  0  0
   -5.5235   20.4596  -34.4988 H   0  0  0  0  0  0  0  0  0  0  0  0
   -4.7441   19.4277  -33.2623 H   0  0  0  0  0  0  0  0  0  0  0  0
   -7.0061   18.6120  -35.1453 H   0  0  0  0  0  0  0  0  0  0  0  0
   -5.2494   18.1329  -35.2571 H   0  0  0  0  0  0  0  0  0  0  0  0
  1  2  1  0
  2  3  1  0
  3  4  1  0
  4  5  1  0
  5  6  1  0
  6  7  1  0
  7  8  1  0
  8  9  2  0
  9 10  1  0
 10 11  2  0
 11 12  1  0
 12 13  2  0
 13 14  1  0
 14 15  2  0
 15 16  1  0
 16 17  2  0
  7 18  1  0
 18 19  1  0
 19  4  1  0
 17  8  1  0
 16 11  1  0
  1 20  1  0
  1 21  1  0
  1 22  1  0
  2 23  1  0
  2 24  1  0
  4 25  1  0
  5 26  1  0
  5 27  1  0
  6 28  1  0
  6 29  1  0
  9 30  1  0
 12 31  1  0
 13 32  1  0
 14 33  1  0
 15 34  1  0
 18 35  1  0
 18 36  1  0
 19 37  1  0
 19 38  1  0
M  END
>  <smiles>  (32) 
CCOC1CCN(c2cnc3ccccc3n2)CC1

>  <score_type>  (32) 
oracle

>  <origin>  (32) 
adg

>  <m_score__min__energy>  (32) 
-7.1399999999999997

>  <m_primary>  (32) 
energy

$$$$
32:0
     RDKit          3D

 43 46  0  0  0  0  0  0  0  0999 V2000
   -6.0170   17.8720  -33.7370 C   0  0  0  0  0  0  0  0  0  0  0  0
   -6.4710   19.2480  -34.2120 C   0  0  0  0  0  0  0  0  0  0  0  0
   -6.3380   20.1760  -33.0990 N   0  0  0  0  0  0  0  0  0  0  0  0
   -5.2890   20.9360  -32.7470 C   0  0  0  0  0  0  0  0  0  0  0  0
   -5.6450   21.6530  -31.6150 C   0  0  0  0  0  0  0  0  0  0  0  0
   -4.7750   22.6020  -30.9160 C   0  0  0  0  0  0  0  0  0  0  0  0
   -5.1650   23.9420  -30.9380 C   0  0  0  0  0  0  0  0  0  0  0  0
   -4.3620   24.8780  -30.2830 C   0  0  0  0  0  0  0  0  0  0  0  0
   -3.2090   24.4350  -29.6380 C   0  0  0  0  0  0  0  0  0  0  0  0
   -2.8450   23.1020  -29.6320 C   0  0  0  0  0  0  0  0  0  0  0  0
   -3.6430   22.1750  -30.2810 C   0  0  0  0  0  0  0  0  0  0  0  0
   -1.6540   22.6840  -28.9590 N   0  0  0  0  0  0  0  0  0  0  0  0
   -0.8090   23.6250  -28.2760 C   0  0  0  0  0  0  0  0  0  0  0  0
    0.3400   23.1830  -27.6330 C   0  0  0  0  0  0  0  0  0  0  0  0
    0.6760   21.8720  -27.6390 F   0  0  0  0  0  0  0  0  0  0  0  0
    1.1280   24.1230  -26.9860 C   0  0  0  0  0  0  0  0  0  0  0  0
    0.7780   25.4640  -26.9830 C   0  0  0  0  0  0  0  0  0  0  0  0
   -0.3820   25.8800  -27.6380 C   0  0  0  0  0  0  0  0  0  0  0  0
   -1.1770   24.9590  -28.2860 C   0  0  0  0  0  0  0  0  0  0  0  0
   -2.3620   25.3780  -28.9550 N   0  0  0  0  0  0  0  0  0  0  0  0
   -6.9400   21.3180  -31.2730 C   0  0  0  0  0  0  0  0  0  0  0  0
   -7.3450   20.3920  -32.2220 C   0  0  0  0  0  0  0  0  0  0  0  0
   -8.6900   19.7540  -32.2410 C   0  0  0  0  0  0  0  0  0  0  0  0
   -8.6600   18.4170  -31.6520 N   0  0  0  0  0  0  0  0  0  0  0  0
   -6.0091   17.8479  -32.6373 H   0  0  0  0  0  0  0  0  0  0  0  0
   -6.7101   17.1063  -34.1155 H   0  0  0  0  0  0  0  0  0  0  0  0
   -5.0043   17.6691  -34.1155 H   0  0  0  0  0  0  0  0  0  0  0  0
   -5.8417   19.5793  -35.0512 H   0  0  0  0  0  0  0  0  0  0  0  0
   -7.5161   19.2083  -34.5528 H   0  0  0  0  0  0  0  0  0  0  0  0
   -4.3195   20.9818  -33.2646 H   0  0  0  0  0  0  0  0  0  0  0  0
   -6.0826   24.2532  -31.4587 H   0  0  0  0  0  0  0  0  0  0  0  0
   -4.6342   25.9438  -30.2763 H   0  0  0  0  0  0  0  0  0  0  0  0
   -3.3694   21.1096  -30.2853 H   0  0  0  0  0  0  0  0  0  0  0  0
   -1.3970   21.6600  -28.9670 H   0  0  0  0  0  0  0  0  0  0  0  0
    2.0432   23.7999  -26.4682 H   0  0  0  0  0  0  0  0  0  0  0  0
    1.4128   26.1985  -26.4657 H   0  0  0  0  0  0  0  0  0  0  0  0
   -0.6621   26.9437  -27.6372 H   0  0  0  0  0  0  0  0  0  0  0  0
   -2.6460   26.3930  -28.9650 H   0  0  0  0  0  0  0  0  0  0  0  0
   -7.5265   21.7042  -30.4264 H   0  0  0  0  0  0  0  0  0  0  0  0
   -9.3903   20.3804  -31.6689 H   0  0  0  0  0  0  0  0  0  0  0  0
   -9.0117   19.6610  -33.2888 H   0  0  0  0  0  0  0  0  0  0  0  0
   -8.8230   17.6630  -32.3420 H   0  0  0  0  0  0  0  0  0  0  0  0
   -9.2500   18.3300  -30.8120 H   0  0  0  0  0  0  0  0  0  0  0  0
  1  2  1  0
  2  3  1  0
  3  4  1  0
  4  5  2  0
  5  6  1  0
  6  7  2  0
  7  8  1  0
  8  9  2  0
  9 10  1  0
 10 11  2  0
 10 12  1  0
 12 13  1  0
 13 14  2  0
 14 15  1  0
 14 16  1  0
 16 17  2  0
 17 18  1  0
 18 19  2  0
 19 20  1  0
  5 21  1  0
 21 22  2  0
 22 23  1  0
 23 24  1  0
 22  3  1  0
 11  6  1  0
 19 13  1  0
 20  9  1  0
  1 25  1  0
  1 26  1  0
  1 27  1  0
  2 28  1  0
  2 29  1  0
  4 30  1  0
  7 31  1  0
  8 32  1  0
 11 33  1  0
 12 34  1  0
 16 35  1  0
 17 36  1  0
 18 37  1  0
 20 38  1  0
 21 39  1  0
 23 40  1  0
 23 41  1  0
 24 42  1  0
 24 43  1  0
M  END
>  <smiles>  (33) 
CCn1cc(-c2ccc3c(c2)Nc2c(F)cccc2N3)cc1CN

>  <score_type>  (33) 
oracle

>  <origin>  (33) 
adg

>  <m_score__min__energy>  (33) 
-7.8899999999999997

>  <m_primary>  (33) 
energy

$$$$
33:0
     RDKit          3D

 41 43  0  0  0  0  0  0  0  0999 V2000
   -6.4680   17.4220  -31.7300 C   0  0  0  0  0  0  0  0  0  0  0  0
   -7.3810   18.3400  -31.2160 O   0  0  0  0  0  0  0  0  0  0  0  0
   -8.5430   18.3480  -31.9540 C   0  0  0  0  0  0  0  0  0  0  0  0
   -8.6480   19.6440  -32.7330 C   0  0  0  0  0  0  0  0  0  0  0  0
   -7.4150   20.3820  -32.7060 N   0  0  0  0  0  0  0  0  0  0  0  0
   -6.3550   20.1170  -33.5010 C   0  0  0  0  0  0  0  0  0  0  0  0
   -6.2100   19.2370  -34.3800 O   0  0  0  0  0  0  0  0  0  0  0  0
   -5.4260   20.9890  -33.1940 O   0  0  0  0  0  0  0  0  0  0  0  0
   -5.8370   21.7910  -32.2490 C   0  0  0  0  0  0  0  0  0  0  0  0
   -5.2450   22.8510  -31.5930 C   0  0  0  0  0  0  0  0  0  0  0  0
   -5.9300   23.5460  -30.6010 C   0  0  0  0  0  0  0  0  0  0  0  0
   -5.0790   24.8680  -29.8430 S   0  0  0  0  0  0  0  0  0  0  0  0
   -4.2760   25.6340  -30.8300 O   0  0  0  0  0  0  0  0  0  0  0  0
   -6.1200   25.7660  -29.2240 O   0  0  0  0  0  0  0  0  0  0  0  0
   -4.0830   24.1750  -28.6100 N   0  0  0  0  0  0  0  0  0  0  0  0
   -2.6920   24.5270  -28.7940 C   0  0  0  0  0  0  0  0  0  0  0  0
   -1.9750   23.9280  -27.5850 C   0  0  0  0  0  0  0  0  0  0  0  0
   -2.0280   22.5490  -27.7600 O   0  0  0  0  0  0  0  0  0  0  0  0
   -3.2920   22.0220  -27.7310 C   0  0  0  0  0  0  0  0  0  0  0  0
   -4.3110   22.7560  -28.5490 C   0  0  0  0  0  0  0  0  0  0  0  0
   -7.2130   23.1830  -30.2600 C   0  0  0  0  0  0  0  0  0  0  0  0
   -7.8120   22.1190  -30.9150 C   0  0  0  0  0  0  0  0  0  0  0  0
   -7.1310   21.4320  -31.8990 C   0  0  0  0  0  0  0  0  0  0  0  0
   -5.9578   16.9090  -30.9014 H   0  0  0  0  0  0  0  0  0  0  0  0
   -6.9994   16.6827  -32.3472 H   0  0  0  0  0  0  0  0  0  0  0  0
   -5.7258   17.9494  -32.3472 H   0  0  0  0  0  0  0  0  0  0  0  0
   -8.5362   17.5002  -32.6549 H   0  0  0  0  0  0  0  0  0  0  0  0
   -9.4045   18.2614  -31.2756 H   0  0  0  0  0  0  0  0  0  0  0  0
   -8.9019   19.4122  -33.7779 H   0  0  0  0  0  0  0  0  0  0  0  0
   -9.4282   20.2627  -32.2656 H   0  0  0  0  0  0  0  0  0  0  0  0
   -4.2199   23.1499  -31.8573 H   0  0  0  0  0  0  0  0  0  0  0  0
   -2.3033   24.0954  -29.7282 H   0  0  0  0  0  0  0  0  0  0  0  0
   -2.5450   25.6147  -28.8673 H   0  0  0  0  0  0  0  0  0  0  0  0
   -0.9301   24.2702  -27.5506 H   0  0  0  0  0  0  0  0  0  0  0  0
   -2.4470   24.2354  -26.6402 H   0  0  0  0  0  0  0  0  0  0  0  0
   -3.2378   20.9884  -28.1034 H   0  0  0  0  0  0  0  0  0  0  0  0
   -3.6290   22.0972  -26.6866 H   0  0  0  0  0  0  0  0  0  0  0  0
   -4.2896   22.3555  -29.5733 H   0  0  0  0  0  0  0  0  0  0  0  0
   -5.2861   22.6053  -28.0628 H   0  0  0  0  0  0  0  0  0  0  0  0
   -7.7567   23.7312  -29.4765 H   0  0  0  0  0  0  0  0  0  0  0  0
   -8.8367   21.8202  -30.6489 H   0  0  0  0  0  0  0  0  0  0  0  0
  1  2  1  0
  2  3  1  0
  3  4  1  0
  4  5  1  0
  5  6  1  0
  6  7  2  0
  6  8  1  0
  8  9  1  0
  9 10  2  0
 10 11  1  0
 11 12  1  0
 12 13  2  0
 12 14  2  0
 12 15  1  0
 15 16  1  0
 16 17  1  0
 17 18  1  0
 18 19  1  0
 19 20  1  0
 11 21  2  0
 21 22  1  0
 22 23  2  0
 23  5  1  0
 23  9  1  0
 20 15  1  0
  1 24  1  0
  1 25  1  0
  1 26  1  0
  3 27  1  0
  3 28  1  0
  4 29  1  0
  4 30  1  0
 10 31  1  0
 16 32  1  0
 16 33  1  0
 17 34  1  0
 17 35  1  0
 19 36  1  0
 19 37  1  0
 20 38  1  0
 20 39  1  0
 21 40  1  0
 22 41  1  0
M  END
>  <smiles>  (34) 
COCCn1c(=O)oc2cc(S(=O)(=O)N3CCOCC3)ccc21

>  <score_type>  (34) 
oracle

>  <origin>  (34) 
adg

>  <m_score__min__energy>  (34) 
-7.8799999999999999

>  <m_primary>  (34) 
energy

$$$$
34:0
     RDKit          3D

 55 58  0  0  1  0  0  0  0  0999 V2000
   -8.3120   23.4170  -31.6980 C   0  0  0  0  0  0  0  0  0  0  0  0
   -6.8710   23.6700  -31.3960 C   0  0  0  0  0  0  0  0  0  0  0  0
   -6.4540   24.8250  -30.7340 C   0  0  0  0  0  0  0  0  0  0  0  0
   -5.1130   25.0540  -30.4530 C   0  0  0  0  0  0  0  0  0  0  0  0
   -4.2210   24.1250  -30.8400 N   0  0  0  0  0  0  0  0  0  0  0  0
   -4.5910   22.9980  -31.4820 C   0  0  0  0  0  0  0  0  0  0  0  0
   -3.6110   22.0590  -31.8590 N   0  0  0  0  0  0  0  0  0  0  0  0
   -2.4300   21.7570  -31.0520 C   0  0  0  0  0  0  0  0  0  0  0  0
   -1.9110   20.4260  -31.5440 C   0  0  0  0  0  0  0  0  0  0  0  0
   -1.4060   20.5700  -32.8910 N   0  0  0  0  0  0  0  0  0  0  0  0
   -0.9530   19.3190  -33.4040 C   0  0  0  0  0  0  0  0  0  0  0  0
   -1.7960   18.1550  -33.0500 C   0  0  0  0  0  0  0  0  0  0  0  0
   -1.4210   17.1890  -32.3490 O   0  0  0  0  0  0  0  0  0  0  0  0
   -3.1430   18.1720  -33.5700 N   0  0  0  0  0  0  0  0  0  0  0  0
   -3.7830   17.0900  -33.8780 C   0  0  0  0  0  0  0  0  0  0  0  0
   -3.1970   15.9270  -34.3750 C   0  0  0  0  0  0  0  0  0  0  0  0
   -4.2540   15.0600  -34.5550 C   0  0  0  0  0  0  0  0  0  0  0  0
   -4.1450   13.6860  -35.0680 C   0  0  0  0  0  0  0  0  0  0  0  0
   -5.4010   15.6600  -34.1900 N   0  0  0  0  0  0  0  0  0  0  0  0
   -5.1100   16.9000  -33.7770 N   0  0  0  0  0  0  0  0  0  0  0  0
   -5.9910   17.9050  -33.2970 C   0  0  0  0  0  0  0  0  0  0  0  0
   -6.7370   17.6570  -32.1460 C   0  0  0  0  0  0  0  0  0  0  0  0
   -7.6070   18.6370  -31.6590 C   0  0  0  0  0  0  0  0  0  0  0  0
   -7.6980   19.8310  -32.3410 C   0  0  0  0  0  0  0  0  0  0  0  0
   -6.9690   20.0890  -33.4740 C   0  0  0  0  0  0  0  0  0  0  0  0
   -6.1060   19.0970  -33.9460 C   0  0  0  0  0  0  0  0  0  0  0  0
   -2.3860   21.1580  -33.7780 C   0  0  0  0  0  0  0  0  0  0  0  0
   -3.7310   21.3280  -33.1110 C   0  0  0  0  0  0  0  0  0  0  0  0
   -5.9230   22.7210  -31.7860 C   0  0  0  0  0  0  0  0  0  0  0  0
   -8.8722   23.3186  -30.7564 H   0  0  0  0  0  0  0  0  0  0  0  0
   -8.7178   24.2576  -32.2800 H   0  0  0  0  0  0  0  0  0  0  0  0
   -8.4071   22.4884  -32.2800 H   0  0  0  0  0  0  0  0  0  0  0  0
   -7.2030   25.5702  -30.4280 H   0  0  0  0  0  0  0  0  0  0  0  0
   -4.7908   25.9667  -29.9303 H   0  0  0  0  0  0  0  0  0  0  0  0
   -1.6665   22.5373  -31.1870 H   0  0  0  0  0  0  0  0  0  0  0  0
   -2.6761   21.7195  -29.9805 H   0  0  0  0  0  0  0  0  0  0  0  0
   -1.1007   20.0825  -30.8841 H   0  0  0  0  0  0  0  0  0  0  0  0
   -2.7286   19.6901  -31.5372 H   0  0  0  0  0  0  0  0  0  0  0  0
   -0.9169   19.3930  -34.5009 H   0  0  0  0  0  0  0  0  0  0  0  0
    0.0302   19.1369  -32.9457 H   0  0  0  0  0  0  0  0  0  0  0  0
   -2.1317   15.7425  -34.5778 H   0  0  0  0  0  0  0  0  0  0  0  0
   -4.0892   12.9828  -34.2239 H   0  0  0  0  0  0  0  0  0  0  0  0
   -5.0275   13.4527  -35.6819 H   0  0  0  0  0  0  0  0  0  0  0  0
   -3.2368   13.5948  -35.6819 H   0  0  0  0  0  0  0  0  0  0  0  0
   -6.3810   15.2520  -34.2120 H   0  0  0  0  0  0  0  0  0  0  0  0
   -6.6416   16.6940  -31.6229 H   0  0  0  0  0  0  0  0  0  0  0  0
   -8.2048   18.4592  -30.7529 H   0  0  0  0  0  0  0  0  0  0  0  0
   -8.3807   20.6061  -31.9627 H   0  0  0  0  0  0  0  0  0  0  0  0
   -7.0615   21.0521  -33.9974 H   0  0  0  0  0  0  0  0  0  0  0  0
   -5.5118   19.2809  -34.8533 H   0  0  0  0  0  0  0  0  0  0  0  0
   -2.0238   22.1450  -34.1015 H   0  0  0  0  0  0  0  0  0  0  0  0
   -2.5170   20.4792  -34.6336 H   0  0  0  0  0  0  0  0  0  0  0  0
   -4.3988   21.8822  -33.7870 H   0  0  0  0  0  0  0  0  0  0  0  0
   -4.1392   20.3301  -32.8929 H   0  0  0  0  0  0  0  0  0  0  0  0
   -6.2140   21.7979  -32.3087 H   0  0  0  0  0  0  0  0  0  0  0  0
  1  2  1  0
  2  3  2  0
  3  4  1  0
  4  5  2  0
  5  6  1  0
  6  7  1  0
  7  8  1  0
  8  9  1  0
  9 10  1  0
 10 11  1  0
 11 12  1  0
 12 13  2  0
 12 14  1  0
 14 15  2  0
 15 16  1  0
 16 17  2  0
 17 18  1  0
 17 19  1  0
 19 20  1  0
 20 21  1  0
 21 22  2  0
 22 23  1  0
 23 24  2  0
 24 25  1  0
 25 26  2  0
 10 27  1  0
 27 28  1  0
  6 29  2  0
 29  2  1  0
 28  7  1  0
 20 15  1  0
 26 21  1  0
  1 30  1  0
  1 31  1  0
  1 32  1  0
  3 33  1  0
  4 34  1  0
  8 35  1  0
  8 36  1  0
  9 37  1  0
  9 38  1  0
 11 39  1  0
 11 40  1  0
 16 41  1  0
 18 42  1  0
 18 43  1  0
 18 44  1  0
 19 45  1  0
 22 46  1  0
 23 47  1  0
 24 48  1  0
 25 49  1  0
 26 50  1  0
 27 51  1  0
 27 52  1  0
 28 53  1  0
 28 54  1  0
 29 55  1  0
M  END
>  <smiles>  (35) 
Cc1ccnc(N2CCN(CC(=O)N=c3cc(C)[nH]n3-c3ccccc3)CC2)c1

>  <score_type>  (35) 
oracle

>  <origin>  (35) 
adg

>  <m_score__min__energy>  (35) 
-9.6099999999999994

>  <m_primary>  (35) 
energy

$$$$
35:0
     RDKit          3D

 40 41  0  0  0  0  0  0  0  0999 V2000
   -2.2740   24.9780  -26.9020 C   0  0  0  0  0  0  0  0  0  0  0  0
   -1.5950   25.2660  -28.1940 C   0  0  0  0  0  0  0  0  0  0  0  0
   -2.3220   25.2780  -29.3290 O   0  0  0  0  0  0  0  0  0  0  0  0
   -3.4410   24.5530  -29.4810 C   0  0  0  0  0  0  0  0  0  0  0  0
   -4.5970   25.1030  -30.2250 C   0  0  0  0  0  0  0  0  0  0  0  0
   -5.1360   24.3810  -31.2510 O   0  0  0  0  0  0  0  0  0  0  0  0
   -6.0800   23.4220  -31.3550 C   0  0  0  0  0  0  0  0  0  0  0  0
   -7.4140   23.5250  -31.0450 C   0  0  0  0  0  0  0  0  0  0  0  0
   -8.3190   22.4950  -31.1800 C   0  0  0  0  0  0  0  0  0  0  0  0
   -7.9080   21.2840  -31.6490 C   0  0  0  0  0  0  0  0  0  0  0  0
   -8.8010   20.1080  -31.8340 C   0  0  0  0  0  0  0  0  0  0  0  0
   -8.3760   19.2720  -32.9340 N   0  0  0  0  0  0  0  0  0  0  0  0
   -7.2910   18.3430  -32.7680 C   0  0  0  0  0  0  0  0  0  0  0  0
   -6.5020   18.0000  -33.8340 C   0  0  0  0  0  0  0  0  0  0  0  0
   -5.4730   17.0990  -33.6010 C   0  0  0  0  0  0  0  0  0  0  0  0
   -5.2420   16.5590  -32.3410 C   0  0  0  0  0  0  0  0  0  0  0  0
   -6.0510   16.9340  -31.3300 N   0  0  0  0  0  0  0  0  0  0  0  0
   -7.0560   17.8030  -31.5210 C   0  0  0  0  0  0  0  0  0  0  0  0
   -6.5770   21.1340  -31.9750 C   0  0  0  0  0  0  0  0  0  0  0  0
   -5.6730   22.1670  -31.8380 C   0  0  0  0  0  0  0  0  0  0  0  0
   -3.8520   21.8420  -32.3210 Br  0  0  0  0  0  0  0  0  0  0  0  0
   -1.6122   25.2587  -26.0694 H   0  0  0  0  0  0  0  0  0  0  0  0
   -3.2066   25.5580  -26.8406 H   0  0  0  0  0  0  0  0  0  0  0  0
   -2.5052   23.9043  -26.8406 H   0  0  0  0  0  0  0  0  0  0  0  0
   -1.1304   26.2586  -28.0990 H   0  0  0  0  0  0  0  0  0  0  0  0
   -0.9134   24.4130  -28.3280 H   0  0  0  0  0  0  0  0  0  0  0  0
   -3.1482   23.6252  -29.9944 H   0  0  0  0  0  0  0  0  0  0  0  0
   -3.8244   24.4710  -28.4532 H   0  0  0  0  0  0  0  0  0  0  0  0
   -5.4006   25.2688  -29.4924 H   0  0  0  0  0  0  0  0  0  0  0  0
   -4.1869   25.9949  -30.7213 H   0  0  0  0  0  0  0  0  0  0  0  0
   -7.7826   24.4894  -30.6655 H   0  0  0  0  0  0  0  0  0  0  0  0
   -9.3737   22.6506  -30.9090 H   0  0  0  0  0  0  0  0  0  0  0  0
   -8.7960   19.5098  -30.9109 H   0  0  0  0  0  0  0  0  0  0  0  0
   -9.8105   20.4809  -32.0615 H   0  0  0  0  0  0  0  0  0  0  0  0
   -8.8530   19.3300  -33.8610 H   0  0  0  0  0  0  0  0  0  0  0  0
   -6.6772   18.4220  -34.8346 H   0  0  0  0  0  0  0  0  0  0  0  0
   -4.8216   16.8036  -34.4368 H   0  0  0  0  0  0  0  0  0  0  0  0
   -4.4218   15.8454  -32.1736 H   0  0  0  0  0  0  0  0  0  0  0  0
   -7.6985   18.0872  -30.6746 H   0  0  0  0  0  0  0  0  0  0  0  0
   -6.2259   20.1633  -32.3551 H   0  0  0  0  0  0  0  0  0  0  0  0
  1  2  1  0
  2  3  1  0
  3  4  1  0
  4  5  1  0
  5  6  1  0
  6  7  1  0
  7  8  2  0
  8  9  1  0
  9 10  2  0
 10 11  1  0
 11 12  1  0
 12 13  1  0
 13 14  2  0
 14 15  1  0
 15 16  2  0
 16 17  1  0
 17 18  2  0
 10 19  1  0
 19 20  2  0
 20 21  1  0
 20  7  1  0
 18 13  1  0
  1 22  1  0
  1 23  1  0
  1 24  1  0
  2 25  1  0
  2 26  1  0
  4 27  1  0
  4 28  1  0
  5 29  1  0
  5 30  1  0
  8 31  1  0
  9 32  1  0
 11 33  1  0
 11 34  1  0
 12 35  1  0
 14 36  1  0
 15 37  1  0
 16 38  1  0
 18 39  1  0
 19 40  1  0
M  END
>  <smiles>  (36) 
CCOCCOc1ccc(CNc2cccnc2)cc1Br

>  <score_type>  (36) 
oracle

>  <origin>  (36) 
adg

>  <m_score__min__energy>  (36) 
-8.0399999999999991

>  <m_primary>  (36) 
energy

$$$$
36:0
     RDKit          3D

 78 81  0  0  0  0  0  0  0  0999 V2000
   -6.4880   24.1220  -31.2870 C   0  0  0  0  0  0  0  0  0  0  0  0
   -5.7340   25.2990  -30.6720 C   0  0  0  0  0  0  0  0  0  0  0  0
   -5.5010   25.0700  -29.2570 N   0  0  0  0  0  0  0  0  0  0  0  0
   -5.3580   23.6300  -29.0260 C   0  0  0  0  0  0  0  0  0  0  0  0
   -4.2390   23.4770  -28.0410 C   0  0  0  0  0  0  0  0  0  0  0  0
   -3.1030   24.3030  -28.2570 N   0  0  0  0  0  0  0  0  0  0  0  0
   -2.6450   24.8870  -27.0280 C   0  0  0  0  0  0  0  0  0  0  0  0
   -2.0730   23.7680  -29.0680 C   0  0  0  0  0  0  0  0  0  0  0  0
   -2.6150   22.7460  -30.0210 C   0  0  0  0  0  0  0  0  0  0  0  0
   -2.5900   21.3990  -29.7710 C   0  0  0  0  0  0  0  0  0  0  0  0
   -3.1130   20.5000  -30.6800 C   0  0  0  0  0  0  0  0  0  0  0  0
   -3.6870   20.9290  -31.8880 C   0  0  0  0  0  0  0  0  0  0  0  0
   -4.2060   19.8960  -32.7440 C   0  0  0  0  0  0  0  0  0  0  0  0
   -5.5580   19.5690  -32.5760 C   0  0  0  0  0  0  0  0  0  0  0  0
   -6.1690   18.5800  -33.3100 C   0  0  0  0  0  0  0  0  0  0  0  0
   -5.4670   17.8610  -34.2510 C   0  0  0  0  0  0  0  0  0  0  0  0
   -4.1400   18.1770  -34.4210 C   0  0  0  0  0  0  0  0  0  0  0  0
   -3.5080   19.1830  -33.6780 C   0  0  0  0  0  0  0  0  0  0  0  0
   -2.1090   19.4100  -34.0050 C   0  0  0  0  0  0  0  0  0  0  0  0
   -1.7990   20.4220  -34.6810 O   0  0  0  0  0  0  0  0  0  0  0  0
   -1.1320   18.4810  -33.5470 N   0  0  0  0  0  0  0  0  0  0  0  0
    0.2900   18.6290  -33.8250 C   0  0  0  0  0  0  0  0  0  0  0  0
    1.0430   18.7320  -32.5490 C   0  0  0  0  0  0  0  0  0  0  0  0
    0.3680   18.2190  -31.4540 N   0  0  0  0  0  0  0  0  0  0  0  0
    0.7340   18.5400  -30.1450 C   0  0  0  0  0  0  0  0  0  0  0  0
    0.4110   17.5560  -29.0660 C   0  0  0  0  0  0  0  0  0  0  0  0
    0.6500   18.0990  -27.6880 C   0  0  0  0  0  0  0  0  0  0  0  0
   -0.1410   19.3020  -27.5240 N   0  0  0  0  0  0  0  0  0  0  0  0
   -1.5440   19.1000  -27.7330 C   0  0  0  0  0  0  0  0  0  0  0  0
    0.4050   20.3010  -28.3860 C   0  0  0  0  0  0  0  0  0  0  0  0
    0.2800   19.9400  -29.8410 C   0  0  0  0  0  0  0  0  0  0  0  0
   -0.5150   17.1130  -31.6220 C   0  0  0  0  0  0  0  0  0  0  0  0
   -1.4960   17.3200  -32.7510 C   0  0  0  0  0  0  0  0  0  0  0  0
   -3.6950   22.2740  -32.1040 C   0  0  0  0  0  0  0  0  0  0  0  0
   -3.1700   23.1930  -31.1960 C   0  0  0  0  0  0  0  0  0  0  0  0
   -6.8943   23.4877  -30.4854 H   0  0  0  0  0  0  0  0  0  0  0  0
   -7.3127   24.4997  -31.9093 H   0  0  0  0  0  0  0  0  0  0  0  0
   -5.8001   23.5308  -31.9093 H   0  0  0  0  0  0  0  0  0  0  0  0
   -4.7674   25.4169  -31.1837 H   0  0  0  0  0  0  0  0  0  0  0  0
   -6.3390   26.2100  -30.7901 H   0  0  0  0  0  0  0  0  0  0  0  0
   -4.6170   25.5570  -28.9770 H   0  0  0  0  0  0  0  0  0  0  0  0
   -6.2894   23.2151  -28.6133 H   0  0  0  0  0  0  0  0  0  0  0  0
   -5.1466   23.0916  -29.9617 H   0  0  0  0  0  0  0  0  0  0  0  0
   -4.6367   23.7060  -27.0413 H   0  0  0  0  0  0  0  0  0  0  0  0
   -3.8809   22.4433  -28.1564 H   0  0  0  0  0  0  0  0  0  0  0  0
   -3.0759   24.3376  -26.1780 H   0  0  0  0  0  0  0  0  0  0  0  0
   -1.5474   24.8312  -26.9822 H   0  0  0  0  0  0  0  0  0  0  0  0
   -2.9608   25.9397  -26.9822 H   0  0  0  0  0  0  0  0  0  0  0  0
   -1.6069   24.5828  -29.6414 H   0  0  0  0  0  0  0  0  0  0  0  0
   -1.3318   23.2814  -28.4170 H   0  0  0  0  0  0  0  0  0  0  0  0
   -2.1477   21.0288  -28.8343 H   0  0  0  0  0  0  0  0  0  0  0  0
   -3.0792   19.4243  -30.4528 H   0  0  0  0  0  0  0  0  0  0  0  0
   -6.1503   20.1220  -31.8321 H   0  0  0  0  0  0  0  0  0  0  0  0
   -7.2338   18.3601  -33.1430 H   0  0  0  0  0  0  0  0  0  0  0  0
   -5.9476   17.0673  -34.8418 H   0  0  0  0  0  0  0  0  0  0  0  0
   -3.5535   17.6204  -35.1668 H   0  0  0  0  0  0  0  0  0  0  0  0
    0.6450   17.7539  -34.3891 H   0  0  0  0  0  0  0  0  0  0  0  0
    0.4516   19.5417  -34.4173 H   0  0  0  0  0  0  0  0  0  0  0  0
    1.9894   18.1826  -32.6605 H   0  0  0  0  0  0  0  0  0  0  0  0
    1.1960   19.8039  -32.3552 H   0  0  0  0  0  0  0  0  0  0  0  0
    1.8321   18.4784  -30.1259 H   0  0  0  0  0  0  0  0  0  0  0  0
   -0.6489   17.2751  -29.1533 H   0  0  0  0  0  0  0  0  0  0  0  0
    1.0769   16.6906  -29.1992 H   0  0  0  0  0  0  0  0  0  0  0  0
    0.3499   17.3525  -26.9379 H   0  0  0  0  0  0  0  0  0  0  0  0
    1.7173   18.3286  -27.5534 H   0  0  0  0  0  0  0  0  0  0  0  0
   -2.0528   19.0267  -26.7605 H   0  0  0  0  0  0  0  0  0  0  0  0
   -1.9562   19.9481  -28.2995 H   0  0  0  0  0  0  0  0  0  0  0  0
   -1.7002   18.1701  -28.2995 H   0  0  0  0  0  0  0  0  0  0  0  0
   -0.1278   21.2472  -28.2107 H   0  0  0  0  0  0  0  0  0  0  0  0
    1.4769   20.3905  -28.1556 H   0  0  0  0  0  0  0  0  0  0  0  0
   -0.7753   20.0370  -30.1358 H   0  0  0  0  0  0  0  0  0  0  0  0
    0.9312   20.6243  -30.4046 H   0  0  0  0  0  0  0  0  0  0  0  0
    0.0825   16.2142  -31.8347 H   0  0  0  0  0  0  0  0  0  0  0  0
   -1.0940   17.0046  -30.6930 H   0  0  0  0  0  0  0  0  0  0  0  0
   -1.4980   16.4280  -33.3947 H   0  0  0  0  0  0  0  0  0  0  0  0
   -2.4954   17.4863  -32.3227 H   0  0  0  0  0  0  0  0  0  0  0  0
   -4.1360   22.6527  -33.0379 H   0  0  0  0  0  0  0  0  0  0  0  0
   -3.2000   24.2697  -31.4191 H   0  0  0  0  0  0  0  0  0  0  0  0
  1  2  1  0
  2  3  1  0
  3  4  1  0
  4  5  1  0
  5  6  1  0
  6  7  1  0
  6  8  1  0
  8  9  1  0
  9 10  2  0
 10 11  1  0
 11 12  2  0
 12 13  1  0
 13 14  2  0
 14 15  1  0
 15 16  2  0
 16 17  1  0
 17 18  2  0
 18 19  1  0
 19 20  2  0
 19 21  1  0
 21 22  1  0
 22 23  1  0
 23 24  1  0
 24 25  1  0
 25 26  1  0
 26 27  1  0
 27 28  1  0
 28 29  1  0
 28 30  1  0
 30 31  1  0
 24 32  1  0
 32 33  1  0
 12 34  1  0
 34 35  2  0
 35  9  1  0
 18 13  1  0
 33 21  1  0
 31 25  1  0
  1 36  1  0
  1 37  1  0
  1 38  1  0
  2 39  1  0
  2 40  1  0
  3 41  1  0
  4 42  1  0
  4 43  1  0
  5 44  1  0
  5 45  1  0
  7 46  1  0
  7 47  1  0
  7 48  1  0
  8 49  1  0
  8 50  1  0
 10 51  1  0
 11 52  1  0
 14 53  1  0
 15 54  1  0
 16 55  1  0
 17 56  1  0
 22 57  1  0
 22 58  1  0
 23 59  1  0
 23 60  1  0
 25 61  1  0
 26 62  1  0
 26 63  1  0
 27 64  1  0
 27 65  1  0
 29 66  1  0
 29 67  1  0
 29 68  1  0
 30 69  1  0
 30 70  1  0
 31 71  1  0
 31 72  1  0
 32 73  1  0
 32 74  1  0
 33 75  1  0
 33 76  1  0
 34 77  1  0
 35 78  1  0
M  END
>  <smiles>  (37) 
CCNCCN(C)Cc1ccc(-c2ccccc2C(=O)N2CCN(C3CCN(C)CC3)CC2)cc1

>  <score_type>  (37) 
oracle

>  <origin>  (37) 
adg

>  <m_score__min__energy>  (37) 
-9.4299999999999997

>  <m_primary>  (37) 
energy

$$$$
37:0
     RDKit          3D

 55 58  0  0  1  0  0  0  0  0999 V2000
   -6.6680   25.2480  -29.7450 C   0  0  0  0  0  0  0  0  0  0  0  0
   -5.6580   24.9900  -30.8420 C   0  0  0  0  0  0  0  0  0  0  0  0
   -4.2990   25.1370  -30.3620 N   0  0  0  0  0  0  0  0  0  0  0  0
   -3.5260   23.9570  -30.4770 C   0  0  0  0  0  0  0  0  0  0  0  0
   -4.1810   22.6560  -30.1950 C   0  0  0  0  0  0  0  0  0  0  0  0
   -4.1380   21.6740  -31.2310 N   0  0  0  0  0  0  0  0  0  0  0  0
   -3.0640   21.1260  -31.7950 C   0  0  0  0  0  0  0  0  0  0  0  0
   -1.4210   21.5620  -31.2380 S   0  0  0  0  0  0  0  0  0  0  0  0
   -0.2670   21.0340  -32.5560 C   0  0  0  0  0  0  0  0  0  0  0  0
   -3.1180   20.2060  -32.7930 N   0  0  0  0  0  0  0  0  0  0  0  0
   -4.2770   19.7950  -33.2660 C   0  0  0  0  0  0  0  0  0  0  0  0
   -4.3950   18.9260  -34.2000 N   0  0  0  0  0  0  0  0  0  0  0  0
   -4.5160   17.5430  -33.9010 C   0  0  0  0  0  0  0  0  0  0  0  0
   -3.4950   16.7810  -33.3810 C   0  0  0  0  0  0  0  0  0  0  0  0
   -3.6330   15.4250  -33.1020 C   0  0  0  0  0  0  0  0  0  0  0  0
   -4.8330   14.7900  -33.3490 C   0  0  0  0  0  0  0  0  0  0  0  0
   -5.0520   13.3420  -33.0820 C   0  0  0  0  0  0  0  0  0  0  0  0
   -4.5620   13.0660  -31.6760 C   0  0  0  0  0  0  0  0  0  0  0  0
   -5.8610   15.5500  -33.8710 C   0  0  0  0  0  0  0  0  0  0  0  0
   -5.7320   16.8980  -34.1510 C   0  0  0  0  0  0  0  0  0  0  0  0
   -5.4390   20.3200  -32.7270 C   0  0  0  0  0  0  0  0  0  0  0  0
   -6.6590   19.8790  -33.2340 C   0  0  0  0  0  0  0  0  0  0  0  0
   -7.8410   20.3680  -32.7340 C   0  0  0  0  0  0  0  0  0  0  0  0
   -9.1030   20.0950  -33.0590 N   0  0  0  0  0  0  0  0  0  0  0  0
   -9.8620   20.8640  -32.2460 C   0  0  0  0  0  0  0  0  0  0  0  0
   -9.0520   21.6000  -31.4310 N   0  0  0  0  0  0  0  0  0  0  0  0
   -7.7630   21.3010  -31.7250 C   0  0  0  0  0  0  0  0  0  0  0  0
   -6.5370   21.7440  -31.2170 C   0  0  0  0  0  0  0  0  0  0  0  0
   -5.3470   21.2520  -31.7180 C   0  0  0  0  0  0  0  0  0  0  0  0
   -6.1843   25.1244  -28.7648 H   0  0  0  0  0  0  0  0  0  0  0  0
   -7.0546   26.2737  -29.8364 H   0  0  0  0  0  0  0  0  0  0  0  0
   -7.4992   24.5333  -29.8364 H   0  0  0  0  0  0  0  0  0  0  0  0
   -5.7945   23.9657  -31.2190 H   0  0  0  0  0  0  0  0  0  0  0  0
   -5.8221   25.7281  -31.6409 H   0  0  0  0  0  0  0  0  0  0  0  0
   -4.2090   25.6640  -29.4830 H   0  0  0  0  0  0  0  0  0  0  0  0
   -3.1485   23.9144  -31.5093 H   0  0  0  0  0  0  0  0  0  0  0  0
   -2.7647   24.0537  -29.6889 H   0  0  0  0  0  0  0  0  0  0  0  0
   -3.6950   22.2245  -29.3075 H   0  0  0  0  0  0  0  0  0  0  0  0
   -5.2476   22.8930  -30.0681 H   0  0  0  0  0  0  0  0  0  0  0  0
    0.6436   20.6174  -32.1008 H   0  0  0  0  0  0  0  0  0  0  0  0
   -0.7491   20.2669  -33.1798 H   0  0  0  0  0  0  0  0  0  0  0  0
   -0.0017   21.9003  -33.1798 H   0  0  0  0  0  0  0  0  0  0  0  0
   -2.5283   17.2647  -33.1772 H   0  0  0  0  0  0  0  0  0  0  0  0
   -2.7865   14.8597  -32.6850 H   0  0  0  0  0  0  0  0  0  0  0  0
   -6.1225   13.1019  -33.1618 H   0  0  0  0  0  0  0  0  0  0  0  0
   -4.5094   12.7241  -33.8126 H   0  0  0  0  0  0  0  0  0  0  0  0
   -5.2823   13.4717  -30.9504 H   0  0  0  0  0  0  0  0  0  0  0  0
   -4.4646   11.9803  -31.5281 H   0  0  0  0  0  0  0  0  0  0  0  0
   -3.5831   13.5454  -31.5281 H   0  0  0  0  0  0  0  0  0  0  0  0
   -6.8255   15.0613  -34.0731 H   0  0  0  0  0  0  0  0  0  0  0  0
   -6.5807   17.4600  -34.5680 H   0  0  0  0  0  0  0  0  0  0  0  0
   -6.6760   19.1326  -34.0419 H   0  0  0  0  0  0  0  0  0  0  0  0
   -9.4370   19.4150  -33.8010 H   0  0  0  0  0  0  0  0  0  0  0  0
  -10.9616   20.8919  -32.2422 H   0  0  0  0  0  0  0  0  0  0  0  0
   -6.5203   22.4917  -30.4104 H   0  0  0  0  0  0  0  0  0  0  0  0
  1  2  1  0
  2  3  1  0
  3  4  1  0
  4  5  1  0
  5  6  1  0
  6  7  1  0
  7  8  1  0
  8  9  1  0
  7 10  2  0
 10 11  1  0
 11 12  2  0
 12 13  1  0
 13 14  2  0
 14 15  1  0
 15 16  2  0
 16 17  1  0
 17 18  1  0
 16 19  1  0
 19 20  2  0
 11 21  1  0
 21 22  2  0
 22 23  1  0
 23 24  1  0
 24 25  1  0
 25 26  2  0
 26 27  1  0
 27 28  1  0
 28 29  2  0
 29  6  1  0
 20 13  1  0
 29 21  1  0
 27 23  2  0
  1 30  1  0
  1 31  1  0
  1 32  1  0
  2 33  1  0
  2 34  1  0
  3 35  1  0
  4 36  1  0
  4 37  1  0
  5 38  1  0
  5 39  1  0
  9 40  1  0
  9 41  1  0
  9 42  1  0
 14 43  1  0
 15 44  1  0
 17 45  1  0
 17 46  1  0
 18 47  1  0
 18 48  1  0
 18 49  1  0
 19 50  1  0
 20 51  1  0
 22 52  1  0
 24 53  1  0
 25 54  1  0
 28 55  1  0
M  END
>  <smiles>  (38) 
CCNCCn1c(SC)nc(=Nc2ccc(CC)cc2)c2cc3[nH]cnc3cc21

>  <score_type>  (38) 
oracle

>  <origin>  (38) 
adg

>  <m_score__min__energy>  (38) 
-9.2300000000000004

>  <m_primary>  (38) 
energy

$$$$
39:0
     RDKit          3D

 47 50  0  0  1  0  0  0  0  0999 V2000
   -5.2510   25.5970  -30.5910 C   0  0  0  0  0  0  0  0  0  0  0  0
   -3.9150   25.1420  -30.4750 O   0  0  0  0  0  0  0  0  0  0  0  0
   -3.6720   24.0520  -29.6510 C   0  0  0  0  0  0  0  0  0  0  0  0
   -3.5430   24.1850  -28.2700 C   0  0  0  0  0  0  0  0  0  0  0  0
   -3.3020   23.0870  -27.4800 C   0  0  0  0  0  0  0  0  0  0  0  0
   -3.1890   21.8530  -28.0550 C   0  0  0  0  0  0  0  0  0  0  0  0
   -3.3180   21.7220  -29.4320 C   0  0  0  0  0  0  0  0  0  0  0  0
   -3.5590   22.7970  -30.2620 C   0  0  0  0  0  0  0  0  0  0  0  0
   -3.7010   22.6730  -31.7380 C   0  0  0  0  0  0  0  0  0  0  0  0
   -5.0520   22.5650  -32.1900 N   0  0  0  0  0  0  0  0  0  0  0  0
   -5.6310   21.4780  -32.5470 C   0  0  0  0  0  0  0  0  0  0  0  0
   -4.9150   20.4870  -33.0890 N   0  0  0  0  0  0  0  0  0  0  0  0
   -5.5380   19.3550  -33.4560 C   0  0  0  0  0  0  0  0  0  0  0  0
   -4.7800   18.2990  -34.0340 N   0  0  0  0  0  0  0  0  0  0  0  0
   -3.3460   18.3090  -34.2190 C   0  0  0  0  0  0  0  0  0  0  0  0
   -3.0090   16.8380  -34.2080 C   0  0  0  0  0  0  0  0  0  0  0  0
   -4.2010   16.1190  -34.7530 C   0  0  0  0  0  0  0  0  0  0  0  0
   -5.3480   17.0470  -34.5240 C   0  0  0  0  0  0  0  0  0  0  0  0
   -6.8680   19.2350  -33.2730 N   0  0  0  0  0  0  0  0  0  0  0  0
   -7.6000   20.2010  -32.7380 C   0  0  0  0  0  0  0  0  0  0  0  0
   -8.9620   20.1100  -32.5370 C   0  0  0  0  0  0  0  0  0  0  0  0
   -9.6950   21.1550  -31.9680 C   0  0  0  0  0  0  0  0  0  0  0  0
   -9.0570   22.3300  -31.5860 C   0  0  0  0  0  0  0  0  0  0  0  0
   -7.6960   22.4010  -31.7950 C   0  0  0  0  0  0  0  0  0  0  0  0
   -6.9860   21.3720  -32.3530 C   0  0  0  0  0  0  0  0  0  0  0  0
   -5.6773   25.7422  -29.5874 H   0  0  0  0  0  0  0  0  0  0  0  0
   -5.2672   26.5513  -31.1378 H   0  0  0  0  0  0  0  0  0  0  0  0
   -5.8463   24.8509  -31.1378 H   0  0  0  0  0  0  0  0  0  0  0  0
   -3.6350   25.1789  -27.8077 H   0  0  0  0  0  0  0  0  0  0  0  0
   -3.2006   23.2010  -26.3906 H   0  0  0  0  0  0  0  0  0  0  0  0
   -2.9969   20.9677  -27.4310 H   0  0  0  0  0  0  0  0  0  0  0  0
   -3.2242   20.7210  -29.8783 H   0  0  0  0  0  0  0  0  0  0  0  0
   -3.2517   23.5626  -32.2036 H   0  0  0  0  0  0  0  0  0  0  0  0
   -3.1959   21.7394  -32.0265 H   0  0  0  0  0  0  0  0  0  0  0  0
   -3.8970   20.6190  -33.2130 H   0  0  0  0  0  0  0  0  0  0  0  0
   -3.0714   18.7732  -35.1777 H   0  0  0  0  0  0  0  0  0  0  0  0
   -2.8078   18.8895  -33.4552 H   0  0  0  0  0  0  0  0  0  0  0  0
   -2.1292   16.6461  -34.8398 H   0  0  0  0  0  0  0  0  0  0  0  0
   -2.7715   16.4946  -33.1903 H   0  0  0  0  0  0  0  0  0  0  0  0
   -4.0741   15.9184  -35.8271 H   0  0  0  0  0  0  0  0  0  0  0  0
   -4.3541   15.1440  -34.2672 H   0  0  0  0  0  0  0  0  0  0  0  0
   -5.8907   17.2191  -35.4652 H   0  0  0  0  0  0  0  0  0  0  0  0
   -6.0613   16.6251  -33.8007 H   0  0  0  0  0  0  0  0  0  0  0  0
   -9.4856   19.1890  -32.8329 H   0  0  0  0  0  0  0  0  0  0  0  0
  -10.7800   21.0477  -31.8219 H   0  0  0  0  0  0  0  0  0  0  0  0
   -9.6135   23.1659  -31.1369 H   0  0  0  0  0  0  0  0  0  0  0  0
   -7.1616   23.3171  -31.5030 H   0  0  0  0  0  0  0  0  0  0  0  0
  1  2  1  0
  2  3  1  0
  3  4  2  0
  4  5  1  0
  5  6  2  0
  6  7  1  0
  7  8  2  0
  8  9  1  0
  9 10  1  0
 10 11  2  0
 11 12  1  0
 12 13  1  0
 13 14  1  0
 14 15  1  0
 15 16  1  0
 16 17  1  0
 17 18  1  0
 13 19  2  0
 19 20  1  0
 20 21  2  0
 21 22  1  0
 22 23  2  0
 23 24  1  0
 24 25  2  0
  8  3  1  0
 25 11  1  0
 18 14  1  0
 25 20  1  0
  1 26  1  0
  1 27  1  0
  1 28  1  0
  4 29  1  0
  5 30  1  0
  6 31  1  0
  7 32  1  0
  9 33  1  0
  9 34  1  0
 12 35  1  0
 15 36  1  0
 15 37  1  0
 16 38  1  0
 16 39  1  0
 17 40  1  0
 17 41  1  0
 18 42  1  0
 18 43  1  0
 21 44  1  0
 22 45  1  0
 23 46  1  0
 24 47  1  0
M  END
>  <smiles>  (39) 
COc1ccccc1CN=c1[nH]c(N2CCCC2)nc2ccccc12

>  <score_type>  (39) 
oracle

>  <origin>  (39) 
adg

>  <m_score__min__energy>  (39) 
-8.7599999999999998

>  <m_primary>  (39) 
energy

$$$$
41:0
     RDKit          3D

 44 46  0  0  1  0  0  0  0  0999 V2000
   -1.9710   24.9690  -28.1950 C   0  0  0  0  0  0  0  0  0  0  0  0
   -2.7200   25.2890  -29.3570 O   0  0  0  0  0  0  0  0  0  0  0  0
   -3.6060   24.3830  -29.8930 C   0  0  0  0  0  0  0  0  0  0  0  0
   -3.1420   23.1550  -30.3160 C   0  0  0  0  0  0  0  0  0  0  0  0
   -3.9730   22.1870  -30.8670 C   0  0  0  0  0  0  0  0  0  0  0  0
   -5.3100   22.4690  -30.9920 C   0  0  0  0  0  0  0  0  0  0  0  0
   -6.2150   21.5470  -31.5380 C   0  0  0  0  0  0  0  0  0  0  0  0
   -7.5470   21.7840  -31.6840 C   0  0  0  0  0  0  0  0  0  0  0  0
   -8.5380   20.9820  -32.3420 C   0  0  0  0  0  0  0  0  0  0  0  0
   -8.5750   19.7170  -32.5790 C   0  0  0  0  0  0  0  0  0  0  0  0
   -8.4600   18.5860  -31.6850 C   0  0  0  0  0  0  0  0  0  0  0  0
   -7.2470   17.8160  -31.9340 N   0  0  0  0  0  0  0  0  0  0  0  0
   -7.1720   17.1060  -33.1320 C   0  0  0  0  0  0  0  0  0  0  0  0
   -6.3010   17.5890  -34.2230 C   0  0  0  0  0  0  0  0  0  0  0  0
   -5.3000   18.6310  -33.8500 C   0  0  0  0  0  0  0  0  0  0  0  0
   -4.9660   18.6830  -32.3940 C   0  0  0  0  0  0  0  0  0  0  0  0
   -6.0430   18.3210  -31.4530 C   0  0  0  0  0  0  0  0  0  0  0  0
   -7.9900   23.0420  -31.2420 C   0  0  0  0  0  0  0  0  0  0  0  0
   -7.1050   23.9360  -30.7100 C   0  0  0  0  0  0  0  0  0  0  0  0
   -5.7570   23.7090  -30.5610 C   0  0  0  0  0  0  0  0  0  0  0  0
   -4.9490   24.6640  -30.0200 C   0  0  0  0  0  0  0  0  0  0  0  0
   -2.5584   25.2200  -27.2995 H   0  0  0  0  0  0  0  0  0  0  0  0
   -1.7399   23.8936  -28.1924 H   0  0  0  0  0  0  0  0  0  0  0  0
   -1.0341   25.5454  -28.1924 H   0  0  0  0  0  0  0  0  0  0  0  0
   -2.0697   22.9326  -30.2129 H   0  0  0  0  0  0  0  0  0  0  0  0
   -3.5687   21.2180  -31.1950 H   0  0  0  0  0  0  0  0  0  0  0  0
   -5.8243   20.5732  -31.8682 H   0  0  0  0  0  0  0  0  0  0  0  0
   -9.4128   21.5416  -32.7048 H   0  0  0  0  0  0  0  0  0  0  0  0
   -8.7178   19.4526  -33.6372 H   0  0  0  0  0  0  0  0  0  0  0  0
   -8.4415   18.9529  -30.6482 H   0  0  0  0  0  0  0  0  0  0  0  0
   -9.3233   17.9265  -31.8575 H   0  0  0  0  0  0  0  0  0  0  0  0
   -6.8311   16.0912  -32.8790 H   0  0  0  0  0  0  0  0  0  0  0  0
   -8.1837   17.2094  -33.5512 H   0  0  0  0  0  0  0  0  0  0  0  0
   -5.7524   16.7237  -34.6234 H   0  0  0  0  0  0  0  0  0  0  0  0
   -6.9739   18.0709  -34.9476 H   0  0  0  0  0  0  0  0  0  0  0  0
   -4.3730   18.4308  -34.4073 H   0  0  0  0  0  0  0  0  0  0  0  0
   -5.7538   19.6014  -34.0996 H   0  0  0  0  0  0  0  0  0  0  0  0
   -4.1262   17.9942  -32.2201 H   0  0  0  0  0  0  0  0  0  0  0  0
   -4.7444   19.7402  -32.1862 H   0  0  0  0  0  0  0  0  0  0  0  0
   -5.6289   17.5614  -30.7736 H   0  0  0  0  0  0  0  0  0  0  0  0
   -6.3315   19.2880  -31.0152 H   0  0  0  0  0  0  0  0  0  0  0  0
   -9.0541   23.3080  -31.3248 H   0  0  0  0  0  0  0  0  0  0  0  0
   -7.4989   24.9075  -30.3768 H   0  0  0  0  0  0  0  0  0  0  0  0
   -5.3575   25.6319  -29.6939 H   0  0  0  0  0  0  0  0  0  0  0  0
  1  2  1  0
  2  3  1  0
  3  4  2  0
  4  5  1  0
  5  6  2  0
  6  7  1  0
  7  8  2  0
  8  9  1  0
  9 10  2  0
 10 11  1  0
 11 12  1  0
 12 13  1  0
 13 14  1  0
 14 15  1  0
 15 16  1  0
 16 17  1  0
  8 18  1  0
 18 19  2  0
 19 20  1  0
 20 21  2  0
 21  3  1  0
 20  6  1  0
 17 12  1  0
  1 22  1  0
  1 23  1  0
  1 24  1  0
  4 25  1  0
  5 26  1  0
  7 27  1  0
  9 28  1  0
 10 29  1  0
 11 30  1  0
 11 31  1  0
 13 32  1  0
 13 33  1  0
 14 34  1  0
 14 35  1  0
 15 36  1  0
 15 37  1  0
 16 38  1  0
 16 39  1  0
 17 40  1  0
 17 41  1  0
 18 42  1  0
 19 43  1  0
 21 44  1  0
M  END
>  <smiles>  (40) 
COc1ccc2cc(C=CCN3CCCCC3)ccc2c1

>  <score_type>  (40) 
oracle

>  <origin>  (40) 
adg

>  <m_score__min__energy>  (40) 
-9.2200000000000006

>  <m_primary>  (40) 
energy

$$$$
42:0
     RDKit          3D

 43 46  0  0  0  0  0  0  0  0999 V2000
   -4.8110   17.1660  -33.5090 C   0  0  0  0  0  0  0  0  0  0  0  0
   -5.7510   17.6580  -34.5690 C   0  0  0  0  0  0  0  0  0  0  0  0
   -5.8070   19.0780  -34.5690 O   0  0  0  0  0  0  0  0  0  0  0  0
   -6.4220   19.7470  -33.5230 C   0  0  0  0  0  0  0  0  0  0  0  0
   -7.5710   19.1550  -33.0090 C   0  0  0  0  0  0  0  0  0  0  0  0
   -8.2750   19.7290  -31.9610 C   0  0  0  0  0  0  0  0  0  0  0  0
   -7.7760   20.9130  -31.4590 C   0  0  0  0  0  0  0  0  0  0  0  0
   -8.4030   21.5320  -30.4420 N   0  0  0  0  0  0  0  0  0  0  0  0
   -7.9900   22.6680  -29.9040 N   0  0  0  0  0  0  0  0  0  0  0  0
   -6.8740   23.2650  -30.3830 C   0  0  0  0  0  0  0  0  0  0  0  0
   -6.2000   22.6630  -31.4280 C   0  0  0  0  0  0  0  0  0  0  0  0
   -6.6330   21.4700  -31.9940 C   0  0  0  0  0  0  0  0  0  0  0  0
   -5.9510   20.9040  -33.0160 N   0  0  0  0  0  0  0  0  0  0  0  0
   -4.9720   23.2600  -32.0040 C   0  0  0  0  0  0  0  0  0  0  0  0
   -4.3740   24.0690  -30.9830 N   0  0  0  0  0  0  0  0  0  0  0  0
   -3.7020   23.2910  -29.9640 C   0  0  0  0  0  0  0  0  0  0  0  0
   -3.0510   24.1300  -28.9280 C   0  0  0  0  0  0  0  0  0  0  0  0
   -3.5750   24.1280  -27.6410 C   0  0  0  0  0  0  0  0  0  0  0  0
   -2.9910   24.8990  -26.6510 C   0  0  0  0  0  0  0  0  0  0  0  0
   -1.8880   25.6770  -26.9290 C   0  0  0  0  0  0  0  0  0  0  0  0
   -1.3900   25.6570  -28.2200 C   0  0  0  0  0  0  0  0  0  0  0  0
   -1.9740   24.9000  -29.1660 N   0  0  0  0  0  0  0  0  0  0  0  0
   -5.2350   25.0520  -30.4130 C   0  0  0  0  0  0  0  0  0  0  0  0
   -6.4600   24.5260  -29.7480 C   0  0  0  0  0  0  0  0  0  0  0  0
   -5.2306   17.3856  -32.5162 H   0  0  0  0  0  0  0  0  0  0  0  0
   -4.6730   16.0800  -33.6167 H   0  0  0  0  0  0  0  0  0  0  0  0
   -3.8400   17.6715  -33.6167 H   0  0  0  0  0  0  0  0  0  0  0  0
   -5.4010   17.3102  -35.5521 H   0  0  0  0  0  0  0  0  0  0  0  0
   -6.7567   17.2638  -34.3614 H   0  0  0  0  0  0  0  0  0  0  0  0
   -7.9294   18.2102  -33.4436 H   0  0  0  0  0  0  0  0  0  0  0  0
   -9.1840   19.2643  -31.5514 H   0  0  0  0  0  0  0  0  0  0  0  0
   -4.2756   22.4660  -32.3116 H   0  0  0  0  0  0  0  0  0  0  0  0
   -5.2113   23.8650  -32.8909 H   0  0  0  0  0  0  0  0  0  0  0  0
   -4.4422   22.6412  -29.4743 H   0  0  0  0  0  0  0  0  0  0  0  0
   -2.9110   22.7108  -30.4618 H   0  0  0  0  0  0  0  0  0  0  0  0
   -4.4562   23.5121  -27.4084 H   0  0  0  0  0  0  0  0  0  0  0  0
   -3.4106   24.8907  -25.6342 H   0  0  0  0  0  0  0  0  0  0  0  0
   -1.4182   26.2945  -26.1492 H   0  0  0  0  0  0  0  0  0  0  0  0
   -0.5094   26.2651  -28.4746 H   0  0  0  0  0  0  0  0  0  0  0  0
   -4.6580   25.6141  -29.6639 H   0  0  0  0  0  0  0  0  0  0  0  0
   -5.5890   25.6664  -31.2539 H   0  0  0  0  0  0  0  0  0  0  0  0
   -6.2481   24.3458  -28.6838 H   0  0  0  0  0  0  0  0  0  0  0  0
   -7.2701   25.2636  -29.8469 H   0  0  0  0  0  0  0  0  0  0  0  0
  1  2  1  0
  2  3  1  0
  3  4  1  0
  4  5  2  0
  5  6  1  0
  6  7  2  0
  7  8  1  0
  8  9  2  0
  9 10  1  0
 10 11  2  0
 11 12  1  0
 12 13  2  0
 11 14  1  0
 14 15  1  0
 15 16  1  0
 16 17  1  0
 17 18  2  0
 18 19  1  0
 19 20  2  0
 20 21  1  0
 21 22  2  0
 15 23  1  0
 23 24  1  0
 13  4  1  0
 22 17  1  0
 12  7  1  0
 24 10  1  0
  1 25  1  0
  1 26  1  0
  1 27  1  0
  2 28  1  0
  2 29  1  0
  5 30  1  0
  6 31  1  0
 14 32  1  0
 14 33  1  0
 16 34  1  0
 16 35  1  0
 18 36  1  0
 19 37  1  0
 20 38  1  0
 21 39  1  0
 23 40  1  0
 23 41  1  0
 24 42  1  0
 24 43  1  0
M  END
>  <smiles>  (41) 
CCOc1ccc2nnc3c(c2n1)CN(Cc1ccccn1)CC3

>  <score_type>  (41) 
oracle

>  <origin>  (41) 
adg

>  <m_score__min__energy>  (41) 
-8.8300000000000001

>  <m_primary>  (41) 
energy

$$$$
43:0
     RDKit          3D

 47 50  0  0  0  0  0  0  0  0999 V2000
   -3.4020   20.4200  -33.4380 C   0  0  0  0  0  0  0  0  0  0  0  0
   -4.7550   20.6860  -32.9350 N   0  0  0  0  0  0  0  0  0  0  0  0
   -4.8730   21.9580  -32.2660 C   0  0  0  0  0  0  0  0  0  0  0  0
   -3.8750   22.7180  -32.1030 O   0  0  0  0  0  0  0  0  0  0  0  0
   -6.1110   22.4120  -31.7640 N   0  0  0  0  0  0  0  0  0  0  0  0
   -7.2340   21.5690  -31.9400 C   0  0  0  0  0  0  0  0  0  0  0  0
   -8.4450   22.0550  -31.4540 C   0  0  0  0  0  0  0  0  0  0  0  0
   -9.5990   21.3140  -31.5960 C   0  0  0  0  0  0  0  0  0  0  0  0
   -9.4890   20.1010  -32.2290 C   0  0  0  0  0  0  0  0  0  0  0  0
   -8.2660   19.6170  -32.7160 C   0  0  0  0  0  0  0  0  0  0  0  0
   -7.0980   20.3680  -32.5710 C   0  0  0  0  0  0  0  0  0  0  0  0
   -5.8550   19.7700  -33.0970 C   0  0  0  0  0  0  0  0  0  0  0  0
   -5.5540   18.5930  -32.1970 C   0  0  0  0  0  0  0  0  0  0  0  0
   -4.5180   17.6340  -32.7210 C   0  0  0  0  0  0  0  0  0  0  0  0
   -4.6520   17.3460  -34.1010 N   0  0  0  0  0  0  0  0  0  0  0  0
   -4.1180   16.1430  -34.6000 C   0  0  0  0  0  0  0  0  0  0  0  0
   -4.3000   15.0490  -33.6170 C   0  0  0  0  0  0  0  0  0  0  0  0
   -3.3590   14.7700  -32.6730 N   0  0  0  0  0  0  0  0  0  0  0  0
   -3.7670   13.7280  -31.9110 C   0  0  0  0  0  0  0  0  0  0  0  0
   -4.9950   13.3620  -32.4080 C   0  0  0  0  0  0  0  0  0  0  0  0
   -5.2900   14.1770  -33.4370 N   0  0  0  0  0  0  0  0  0  0  0  0
   -6.4950   14.0940  -34.2120 C   0  0  0  0  0  0  0  0  0  0  0  0
   -5.9060   17.7880  -34.6240 C   0  0  0  0  0  0  0  0  0  0  0  0
   -5.9920   19.2830  -34.5050 C   0  0  0  0  0  0  0  0  0  0  0  0
   -2.7153   20.2850  -32.5894 H   0  0  0  0  0  0  0  0  0  0  0  0
   -3.4116   19.5066  -34.0508 H   0  0  0  0  0  0  0  0  0  0  0  0
   -3.0651   21.2691  -34.0508 H   0  0  0  0  0  0  0  0  0  0  0  0
   -6.1770   23.3310  -31.2860 H   0  0  0  0  0  0  0  0  0  0  0  0
   -8.4811   23.0344  -30.9546 H   0  0  0  0  0  0  0  0  0  0  0  0
  -10.5656   21.6789  -31.2185 H   0  0  0  0  0  0  0  0  0  0  0  0
  -10.3922   19.4867  -32.3589 H   0  0  0  0  0  0  0  0  0  0  0  0
   -8.2268   18.6380  -33.2161 H   0  0  0  0  0  0  0  0  0  0  0  0
   -5.1986   18.9843  -31.2324 H   0  0  0  0  0  0  0  0  0  0  0  0
   -6.4898   18.0198  -32.1206 H   0  0  0  0  0  0  0  0  0  0  0  0
   -3.5232   18.0724  -32.5532 H   0  0  0  0  0  0  0  0  0  0  0  0
   -4.6568   16.6858  -32.1809 H   0  0  0  0  0  0  0  0  0  0  0  0
   -4.6326   15.8787  -35.5356 H   0  0  0  0  0  0  0  0  0  0  0  0
   -3.0425   16.2803  -34.7855 H   0  0  0  0  0  0  0  0  0  0  0  0
   -3.2277   13.2695  -31.0690 H   0  0  0  0  0  0  0  0  0  0  0  0
   -5.6269   12.5447  -32.0301 H   0  0  0  0  0  0  0  0  0  0  0  0
   -7.3616   14.0343  -33.5371 H   0  0  0  0  0  0  0  0  0  0  0  0
   -6.5852   14.9881  -34.8464 H   0  0  0  0  0  0  0  0  0  0  0  0
   -6.4618   13.1960  -34.8464 H   0  0  0  0  0  0  0  0  0  0  0  0
   -5.9860   17.4980  -35.6821 H   0  0  0  0  0  0  0  0  0  0  0  0
   -6.7267   17.3245  -34.0569 H   0  0  0  0  0  0  0  0  0  0  0  0
   -5.1881   19.7288  -35.1091 H   0  0  0  0  0  0  0  0  0  0  0  0
   -6.9892   19.5828  -34.8595 H   0  0  0  0  0  0  0  0  0  0  0  0
  1  2  1  0
  2  3  1  0
  3  4  2  0
  3  5  1  0
  5  6  1  0
  6  7  2  0
  7  8  1  0
  8  9  2  0
  9 10  1  0
 10 11  2  0
 11 12  1  0
 12 13  1  0
 13 14  1  0
 14 15  1  0
 15 16  1  0
 16 17  1  0
 17 18  2  0
 18 19  1  0
 19 20  2  0
 20 21  1  0
 21 22  1  0
 15 23  1  0
 23 24  1  0
 12  2  1  0
 21 17  1  0
 11  6  1  0
 24 12  1  0
  1 25  1  0
  1 26  1  0
  1 27  1  0
  5 28  1  0
  7 29  1  0
  8 30  1  0
  9 31  1  0
 10 32  1  0
 13 33  1  0
 13 34  1  0
 14 35  1  0
 14 36  1  0
 16 37  1  0
 16 38  1  0
 19 39  1  0
 20 40  1  0
 22 41  1  0
 22 42  1  0
 22 43  1  0
 23 44  1  0
 23 45  1  0
 24 46  1  0
 24 47  1  0
M  END
>  <smiles>  (42) 
CN1C(=O)Nc2ccccc2C12CCN(Cc1nccn1C)CC2

>  <score_type>  (42) 
oracle

>  <origin>  (42) 
adg

>  <m_score__min__energy>  (42) 
-7.8700000000000001

>  <m_primary>  (42) 
energy

$$$$
44:0
     RDKit          3D

 36 36  0  0  0  0  0  0  0  0999 V2000
   -1.4250   26.0490  -26.6310 C   0  0  0  0  0  0  0  0  0  0  0  0
   -0.9230   26.0590  -28.0400 C   0  0  0  0  0  0  0  0  0  0  0  0
   -1.9430   25.6660  -28.9640 O   0  0  0  0  0  0  0  0  0  0  0  0
   -2.6770   24.5110  -28.7930 C   0  0  0  0  0  0  0  0  0  0  0  0
   -2.2130   23.3820  -29.1680 O   0  0  0  0  0  0  0  0  0  0  0  0
   -4.0270   24.5430  -28.1670 C   0  0  0  0  0  0  0  0  0  0  0  0
   -5.0490   24.0900  -29.0910 N   0  0  0  0  0  0  0  0  0  0  0  0
   -5.0990   24.7240  -30.3630 C   0  0  0  0  0  0  0  0  0  0  0  0
   -4.2580   25.6440  -30.6310 O   0  0  0  0  0  0  0  0  0  0  0  0
   -6.1050   24.3190  -31.3490 C   0  0  0  0  0  0  0  0  0  0  0  0
   -6.5360   22.9630  -31.1220 N   0  0  0  0  0  0  0  0  0  0  0  0
   -5.4640   22.0050  -31.2350 C   0  0  0  0  0  0  0  0  0  0  0  0
   -7.6930   22.6040  -31.8960 C   0  0  0  0  0  0  0  0  0  0  0  0
   -7.9060   21.1830  -32.0060 C   0  0  0  0  0  0  0  0  0  0  0  0
   -8.7210   20.3320  -31.2890 C   0  0  0  0  0  0  0  0  0  0  0  0
   -8.7540   19.0370  -31.5720 C   0  0  0  0  0  0  0  0  0  0  0  0
   -7.9560   18.5620  -32.5990 C   0  0  0  0  0  0  0  0  0  0  0  0
   -7.0850   20.0950  -33.2090 S   0  0  0  0  0  0  0  0  0  0  0  0
   -0.5713   26.0660  -25.9375 H   0  0  0  0  0  0  0  0  0  0  0  0
   -2.0543   26.9348  -26.4597 H   0  0  0  0  0  0  0  0  0  0  0  0
   -2.0185   25.1389  -26.4597 H   0  0  0  0  0  0  0  0  0  0  0  0
   -0.5852   27.0751  -28.2917 H   0  0  0  0  0  0  0  0  0  0  0  0
   -0.0938   25.3402  -28.1156 H   0  0  0  0  0  0  0  0  0  0  0  0
   -4.0275   23.8879  -27.2834 H   0  0  0  0  0  0  0  0  0  0  0  0
   -4.2526   25.5814  -27.8828 H   0  0  0  0  0  0  0  0  0  0  0  0
   -5.7230   23.3230  -28.8230 H   0  0  0  0  0  0  0  0  0  0  0  0
   -6.9735   24.9897  -31.2727 H   0  0  0  0  0  0  0  0  0  0  0  0
   -5.6566   24.3803  -32.3516 H   0  0  0  0  0  0  0  0  0  0  0  0
   -5.1308   21.7073  -30.2298 H   0  0  0  0  0  0  0  0  0  0  0  0
   -5.8202   21.1188  -31.7807 H   0  0  0  0  0  0  0  0  0  0  0  0
   -4.6233   22.4582  -31.7807 H   0  0  0  0  0  0  0  0  0  0  0  0
   -8.5790   23.0510  -31.4215 H   0  0  0  0  0  0  0  0  0  0  0  0
   -7.5236   22.9806  -32.9156 H   0  0  0  0  0  0  0  0  0  0  0  0
   -9.3476   20.7302  -30.4773 H   0  0  0  0  0  0  0  0  0  0  0  0
   -9.4019   18.3542  -31.0027 H   0  0  0  0  0  0  0  0  0  0  0  0
   -7.8590   17.5298  -32.9666 H   0  0  0  0  0  0  0  0  0  0  0  0
  1  2  1  0
  2  3  1  0
  3  4  1  0
  4  5  2  0
  4  6  1  0
  6  7  1  0
  7  8  1  0
  8  9  2  0
  8 10  1  0
 10 11  1  0
 11 12  1  0
 11 13  1  0
 13 14  1  0
 14 15  2  0
 15 16  1  0
 16 17  2  0
 17 18  1  0
 18 14  1  0
  1 19  1  0
  1 20  1  0
  1 21  1  0
  2 22  1  0
  2 23  1  0
  6 24  1  0
  6 25  1  0
  7 26  1  0
 10 27  1  0
 10 28  1  0
 12 29  1  0
 12 30  1  0
 12 31  1  0
 13 32  1  0
 13 33  1  0
 15 34  1  0
 16 35  1  0
 17 36  1  0
M  END
>  <smiles>  (43) 
CCOC(=O)CNC(=O)CN(C)Cc1cccs1

>  <score_type>  (43) 
oracle

>  <origin>  (43) 
adg

>  <m_score__min__energy>  (43) 
-6.8399999999999999

>  <m_primary>  (43) 
energy

$$$$
45:0
     RDKit          3D

 51 56  0  0  1  0  0  0  0  0999 V2000
   -2.0490   21.5030  -32.2510 C   0  0  0  0  0  0  0  0  0  0  0  0
   -3.3070   21.8310  -31.9720 C   0  0  0  0  0  0  0  0  0  0  0  0
   -4.4600   21.1340  -32.3040 O   0  0  0  0  0  0  0  0  0  0  0  0
   -5.5730   21.8090  -31.8290 C   0  0  0  0  0  0  0  0  0  0  0  0
   -5.1750   22.9770  -31.1680 C   0  0  0  0  0  0  0  0  0  0  0  0
   -6.2030   23.7430  -30.6450 C   0  0  0  0  0  0  0  0  0  0  0  0
   -5.9190   24.7960  -30.0430 O   0  0  0  0  0  0  0  0  0  0  0  0
   -7.4750   23.3910  -30.7630 O   0  0  0  0  0  0  0  0  0  0  0  0
   -7.8470   22.2900  -31.3860 C   0  0  0  0  0  0  0  0  0  0  0  0
   -9.1920   21.9430  -31.4980 C   0  0  0  0  0  0  0  0  0  0  0  0
   -9.5570   20.7820  -32.1580 C   0  0  0  0  0  0  0  0  0  0  0  0
   -8.5860   19.9550  -32.7130 C   0  0  0  0  0  0  0  0  0  0  0  0
   -7.2560   20.3020  -32.6000 C   0  0  0  0  0  0  0  0  0  0  0  0
   -6.9020   21.4550  -31.9450 C   0  0  0  0  0  0  0  0  0  0  0  0
   -3.7080   23.0430  -31.2330 C   0  0  1  0  0  0  0  0  0  0  0  0
   -3.0600   23.1950  -29.9100 C   0  0  0  0  0  0  0  0  0  0  0  0
   -2.6990   24.3950  -29.3380 C   0  0  0  0  0  0  0  0  0  0  0  0
   -2.1320   24.1510  -28.1480 N   0  0  0  0  0  0  0  0  0  0  0  0
   -1.6260   25.1350  -27.2580 C   0  0  0  0  0  0  0  0  0  0  0  0
   -0.5100   25.8940  -27.5020 C   0  0  0  0  0  0  0  0  0  0  0  0
   -0.1420   26.8120  -26.5410 C   0  0  0  0  0  0  0  0  0  0  0  0
   -0.8540   26.9850  -25.3610 C   0  0  0  0  0  0  0  0  0  0  0  0
   -0.4650   27.9240  -24.3960 O   0  0  0  0  0  0  0  0  0  0  0  0
    0.3220   27.5490  -23.2760 C   0  0  0  0  0  0  0  0  0  0  0  0
   -1.9730   26.2190  -25.1250 C   0  0  0  0  0  0  0  0  0  0  0  0
   -2.3450   25.3050  -26.0730 C   0  0  0  0  0  0  0  0  0  0  0  0
   -2.0970   22.8210  -27.8940 C   0  0  0  0  0  0  0  0  0  0  0  0
   -1.6230   22.0590  -26.8190 C   0  0  0  0  0  0  0  0  0  0  0  0
   -1.7460   20.6650  -26.8700 C   0  0  0  0  0  0  0  0  0  0  0  0
   -2.3260   20.0650  -27.9690 C   0  0  0  0  0  0  0  0  0  0  0  0
   -2.7850   20.8540  -29.0210 C   0  0  0  0  0  0  0  0  0  0  0  0
   -2.6790   22.2300  -29.0010 C   0  0  0  0  0  0  0  0  0  0  0  0
   -1.2252   22.1543  -31.9235 H   0  0  0  0  0  0  0  0  0  0  0  0
   -1.8320   20.5804  -32.8093 H   0  0  0  0  0  0  0  0  0  0  0  0
   -9.9649   22.5926  -31.0613 H   0  0  0  0  0  0  0  0  0  0  0  0
  -10.6200   20.5123  -32.2439 H   0  0  0  0  0  0  0  0  0  0  0  0
   -8.8763   19.0326  -33.2373 H   0  0  0  0  0  0  0  0  0  0  0  0
   -6.4795   19.6552  -33.0345 H   0  0  0  0  0  0  0  0  0  0  0  0
   -3.3651   23.9505  -31.7516 H   0  0  0  0  0  0  0  0  0  0  0  0
   -2.8509   25.3890  -29.7839 H   0  0  0  0  0  0  0  0  0  0  0  0
    0.0697   25.7750  -28.4293 H   0  0  0  0  0  0  0  0  0  0  0  0
    0.7501   27.4314  -26.7157 H   0  0  0  0  0  0  0  0  0  0  0  0
   -0.2135   27.8042  -22.3496 H   0  0  0  0  0  0  0  0  0  0  0  0
    0.5084   26.4653  -23.3052 H   0  0  0  0  0  0  0  0  0  0  0  0
    1.2811   28.0869  -23.3052 H   0  0  0  0  0  0  0  0  0  0  0  0
   -2.5533   26.3385  -24.1982 H   0  0  0  0  0  0  0  0  0  0  0  0
   -3.2369   24.6858  -25.8964 H   0  0  0  0  0  0  0  0  0  0  0  0
   -1.1614   22.5477  -25.9483 H   0  0  0  0  0  0  0  0  0  0  0  0
   -1.3807   20.0490  -26.0350 H   0  0  0  0  0  0  0  0  0  0  0  0
   -2.4252   18.9704  -28.0139 H   0  0  0  0  0  0  0  0  0  0  0  0
   -3.2453   20.3664  -29.8930 H   0  0  0  0  0  0  0  0  0  0  0  0
  1  2  2  0
  2  3  1  0
  3  4  1  0
  4  5  2  0
  5  6  1  0
  6  7  2  0
  6  8  1  0
  8  9  1  0
  9 10  2  0
 10 11  1  0
 11 12  2  0
 12 13  1  0
 13 14  2  0
  5 15  1  0
 15 16  1  0
 16 17  2  0
 17 18  1  0
 18 19  1  0
 19 20  2  0
 20 21  1  0
 21 22  2  0
 22 23  1  0
 23 24  1  0
 22 25  1  0
 25 26  2  0
 18 27  1  0
 27 28  2  0
 28 29  1  0
 29 30  2  0
 30 31  1  0
 31 32  2  0
 15  2  1  0
 32 16  1  0
 14  4  1  0
 26 19  1  0
 32 27  1  0
 14  9  1  0
  1 33  1  0
  1 34  1  0
 10 35  1  0
 11 36  1  0
 12 37  1  0
 13 38  1  0
 15 39  1  6
 17 40  1  0
 20 41  1  0
 21 42  1  0
 24 43  1  0
 24 44  1  0
 24 45  1  0
 25 46  1  0
 26 47  1  0
 28 48  1  0
 29 49  1  0
 30 50  1  0
 31 51  1  0
M  END
>  <smiles>  (44) 
C=C1Oc2c(c(=O)oc3ccccc23)C1c1cn(-c2ccc(OC)cc2)c2ccccc12

>  <score_type>  (44) 
oracle

>  <origin>  (44) 
adg

>  <m_score__min__energy>  (44) 
-9.4800000000000004

>  <m_primary>  (44) 
energy

$$$$
46:0
     RDKit          3D

 43 45  0  0  0  0  0  0  0  0999 V2000
   -3.1240   21.3770  -27.8380 C   0  0  0  0  0  0  0  0  0  0  0  0
   -4.1690   22.4800  -28.0180 C   0  0  0  0  0  0  0  0  0  0  0  0
   -3.6040   23.5750  -28.7760 N   0  0  0  0  0  0  0  0  0  0  0  0
   -2.7920   24.5020  -28.0240 C   0  0  0  0  0  0  0  0  0  0  0  0
   -1.6330   24.9980  -28.5800 C   0  0  0  0  0  0  0  0  0  0  0  0
   -0.8530   25.8850  -27.8680 C   0  0  0  0  0  0  0  0  0  0  0  0
   -1.2010   26.3070  -26.5800 C   0  0  0  0  0  0  0  0  0  0  0  0
   -2.3700   25.7780  -26.0750 C   0  0  0  0  0  0  0  0  0  0  0  0
   -3.1680   24.8930  -26.7610 C   0  0  0  0  0  0  0  0  0  0  0  0
   -3.8500   23.8030  -30.4590 S   0  0  0  0  0  0  0  0  0  0  0  0
   -2.7160   23.1370  -31.2090 O   0  0  0  0  0  0  0  0  0  0  0  0
   -3.8610   25.2920  -30.7740 O   0  0  0  0  0  0  0  0  0  0  0  0
   -5.3150   23.1220  -31.0670 C   0  0  0  0  0  0  0  0  0  0  0  0
   -5.4630   21.8220  -31.4940 C   0  0  0  0  0  0  0  0  0  0  0  0
   -6.6330   21.3220  -31.9750 C   0  0  0  0  0  0  0  0  0  0  0  0
   -6.7520   19.9360  -32.4170 C   0  0  0  0  0  0  0  0  0  0  0  0
   -7.6080   19.0180  -31.7570 C   0  0  0  0  0  0  0  0  0  0  0  0
   -7.3670   17.4550  -32.7180 S   0  0  0  0  0  0  0  0  0  0  0  0
   -6.1720   18.2690  -33.8410 C   0  0  0  0  0  0  0  0  0  0  0  0
   -6.1190   19.4060  -33.4220 N   0  0  0  0  0  0  0  0  0  0  0  0
   -7.7200   22.1840  -32.0290 C   0  0  0  0  0  0  0  0  0  0  0  0
   -7.6330   23.4890  -31.6170 C   0  0  0  0  0  0  0  0  0  0  0  0
   -6.4340   23.9630  -31.1370 C   0  0  0  0  0  0  0  0  0  0  0  0
   -6.3300   25.2790  -30.7170 O   0  0  0  0  0  0  0  0  0  0  0  0
   -6.4900   25.6270  -29.3410 C   0  0  0  0  0  0  0  0  0  0  0  0
   -2.9575   21.2012  -26.7650 H   0  0  0  0  0  0  0  0  0  0  0  0
   -3.4836   20.4507  -28.3098 H   0  0  0  0  0  0  0  0  0  0  0  0
   -2.1796   21.6861  -28.3098 H   0  0  0  0  0  0  0  0  0  0  0  0
   -5.0384   22.0743  -28.5561 H   0  0  0  0  0  0  0  0  0  0  0  0
   -4.4816   22.8474  -27.0294 H   0  0  0  0  0  0  0  0  0  0  0  0
   -1.3301   24.6869  -29.5907 H   0  0  0  0  0  0  0  0  0  0  0  0
    0.0693   26.2719  -28.3258 H   0  0  0  0  0  0  0  0  0  0  0  0
   -0.5826   27.0143  -26.0079 H   0  0  0  0  0  0  0  0  0  0  0  0
   -2.6822   26.0816  -25.0649 H   0  0  0  0  0  0  0  0  0  0  0  0
   -4.0915   24.5045  -26.3068 H   0  0  0  0  0  0  0  0  0  0  0  0
   -4.5909   21.1534  -31.4438 H   0  0  0  0  0  0  0  0  0  0  0  0
   -8.2570   19.1925  -30.8862 H   0  0  0  0  0  0  0  0  0  0  0  0
   -5.6309   17.8312  -34.6928 H   0  0  0  0  0  0  0  0  0  0  0  0
   -8.6798   21.8089  -32.4138 H   0  0  0  0  0  0  0  0  0  0  0  0
   -8.5114   24.1490  -31.6697 H   0  0  0  0  0  0  0  0  0  0  0  0
   -6.1137   24.8086  -28.7097 H   0  0  0  0  0  0  0  0  0  0  0  0
   -5.9237   26.5454  -29.1268 H   0  0  0  0  0  0  0  0  0  0  0  0
   -7.5558   25.7950  -29.1268 H   0  0  0  0  0  0  0  0  0  0  0  0
  1  2  1  0
  2  3  1  0
  3  4  1  0
  4  5  2  0
  5  6  1  0
  6  7  2  0
  7  8  1  0
  8  9  2  0
  3 10  1  0
 10 11  2  0
 10 12  2  0
 10 13  1  0
 13 14  2  0
 14 15  1  0
 15 16  1  0
 16 17  2  0
 17 18  1  0
 18 19  1  0
 19 20  2  0
 15 21  2  0
 21 22  1  0
 22 23  2  0
 23 24  1  0
 24 25  1  0
  9  4  1  0
 23 13  1  0
 20 16  1  0
  1 26  1  0
  1 27  1  0
  1 28  1  0
  2 29  1  0
  2 30  1  0
  5 31  1  0
  6 32  1  0
  7 33  1  0
  8 34  1  0
  9 35  1  0
 14 36  1  0
 17 37  1  0
 19 38  1  0
 21 39  1  0
 22 40  1  0
 25 41  1  0
 25 42  1  0
 25 43  1  0
M  END
>  <smiles>  (45) 
CCN(c1ccccc1)S(=O)(=O)c1cc(-c2cscn2)ccc1OC

>  <score_type>  (45) 
oracle

>  <origin>  (45) 
adg

>  <m_score__min__energy>  (45) 
-9.0800000000000001

>  <m_primary>  (45) 
energy

$$$$
