0:0
     RDKit          3D

 87 90  0  0  0  0  0  0  0  0999 V2000
   -5.3110   15.6150  -33.1550 C   0  0  0  0  0  0  0  0  0  0  0  0
   -4.0950   16.5070  -32.9090 C   0  0  0  0  0  0  0  0  0  0  0  0
   -4.1800   17.7700  -33.6810 N   0  0  0  0  0  0  0  0  0  0  0  0
   -5.1720   17.6750  -34.7890 C   0  0  0  0  0  0  0  0  0  0  0  0
   -6.0540   18.9180  -34.8000 C   0  0  0  0  0  0  0  0  0  0  0  0
   -2.8400   18.1610  -34.1820 C   0  0  0  0  0  0  0  0  0  0  0  0
   -1.7650   17.9040  -33.1200 C   0  0  0  0  0  0  0  0  0  0  0  0
   -1.9950   18.7620  -32.0130 O   0  0  0  0  0  0  0  0  0  0  0  0
   -0.7930   19.1490  -31.3750 C   0  0  0  0  0  0  0  0  0  0  0  0
   -0.3360   20.5170  -31.8770 C   0  0  0  0  0  0  0  0  0  0  0  0
   -1.4440   21.3920  -31.9180 O   0  0  0  0  0  0  0  0  0  0  0  0
   -1.9430   21.5290  -33.2330 C   0  0  0  0  0  0  0  0  0  0  0  0
   -3.4610   21.2590  -33.2500 C   0  0  0  0  0  0  0  0  0  0  0  0
   -3.8910   20.4790  -32.0700 N   0  0  0  0  0  0  0  0  0  0  0  0
   -5.1480   20.9810  -31.5260 C   0  0  0  0  0  0  0  0  0  0  0  0
   -6.3120   20.1730  -31.5790 C   0  0  0  0  0  0  0  0  0  0  0  0
   -6.2310   18.7640  -31.6380 C   0  0  0  0  0  0  0  0  0  0  0  0
   -7.3830   17.9830  -31.7140 C   0  0  0  0  0  0  0  0  0  0  0  0
   -8.6330   18.5860  -31.7150 C   0  0  0  0  0  0  0  0  0  0  0  0
   -8.7430   19.9730  -31.6390 C   0  0  0  0  0  0  0  0  0  0  0  0
   -7.5890   20.7950  -31.5880 C   0  0  0  0  0  0  0  0  0  0  0  0
   -7.6830   22.1680  -31.5530 N   0  0  0  0  0  0  0  0  0  0  0  0
   -8.9460   22.8340  -31.9400 C   0  0  0  0  0  0  0  0  0  0  0  0
   -6.5990   22.9180  -31.1340 C   0  0  0  0  0  0  0  0  0  0  0  0
   -6.7660   24.2640  -30.7390 C   0  0  0  0  0  0  0  0  0  0  0  0
   -5.6900   25.0290  -30.3020 C   0  0  0  0  0  0  0  0  0  0  0  0
   -4.4360   24.4590  -30.1930 C   0  0  0  0  0  0  0  0  0  0  0  0
   -4.2270   23.1190  -30.5280 C   0  0  0  0  0  0  0  0  0  0  0  0
   -2.9510   22.5650  -30.1910 N   0  0  0  0  0  0  0  0  0  0  0  0
   -1.8530   23.4060  -29.7230 C   0  0  0  0  0  0  0  0  0  0  0  0
   -1.4080   22.9640  -28.3160 C   0  0  0  0  0  0  0  0  0  0  0  0
   -0.6280   21.6400  -28.3490 C   0  0  0  0  0  0  0  0  0  0  0  0
   -1.5490   20.4810  -28.4230 N   0  0  0  0  0  0  0  0  0  0  0  0
   -0.9140   19.2370  -27.9490 C   0  0  0  0  0  0  0  0  0  0  0  0
   -1.6700   18.7570  -26.7230 C   0  0  0  0  0  0  0  0  0  0  0  0
   -3.0310   19.3990  -26.8390 C   0  0  0  0  0  0  0  0  0  0  0  0
   -2.7760   20.6730  -27.6250 C   0  0  0  0  0  0  0  0  0  0  0  0
   -5.2960   22.3320  -31.0730 C   0  0  0  0  0  0  0  0  0  0  0  0
   -5.7374   15.3022  -32.1905 H   0  0  0  0  0  0  0  0  0  0  0  0
   -6.0667   16.1745  -33.7258 H   0  0  0  0  0  0  0  0  0  0  0  0
   -5.0042   14.7261  -33.7258 H   0  0  0  0  0  0  0  0  0  0  0  0
   -4.0392   16.7469  -31.8369 H   0  0  0  0  0  0  0  0  0  0  0  0
   -3.1970   15.9629  -33.2369 H   0  0  0  0  0  0  0  0  0  0  0  0
   -4.6408   17.5956  -35.7490 H   0  0  0  0  0  0  0  0  0  0  0  0
   -5.8005   16.7849  -34.6386 H   0  0  0  0  0  0  0  0  0  0  0  0
   -6.2705   19.2231  -33.7656 H   0  0  0  0  0  0  0  0  0  0  0  0
   -5.5315   19.7337  -35.3212 H   0  0  0  0  0  0  0  0  0  0  0  0
   -6.9965   18.6942  -35.3212 H   0  0  0  0  0  0  0  0  0  0  0  0
   -2.6058   17.5731  -35.0817 H   0  0  0  0  0  0  0  0  0  0  0  0
   -2.8519   19.2352  -34.4186 H   0  0  0  0  0  0  0  0  0  0  0  0
   -1.8150   16.8556  -32.7907 H   0  0  0  0  0  0  0  0  0  0  0  0
   -0.7693   18.1022  -33.5434 H   0  0  0  0  0  0  0  0  0  0  0  0
   -0.9599   19.1994  -30.2889 H   0  0  0  0  0  0  0  0  0  0  0  0
   -0.0138   18.4076  -31.6055 H   0  0  0  0  0  0  0  0  0  0  0  0
    0.4274   20.9221  -31.1965 H   0  0  0  0  0  0  0  0  0  0  0  0
    0.0919   20.4160  -32.8853 H   0  0  0  0  0  0  0  0  0  0  0  0
   -1.7504   22.5510  -33.5914 H   0  0  0  0  0  0  0  0  0  0  0  0
   -1.4391   20.8035  -33.8886 H   0  0  0  0  0  0  0  0  0  0  0  0
   -3.9942   22.2211  -33.2549 H   0  0  0  0  0  0  0  0  0  0  0  0
   -3.6951   20.6739  -34.1516 H   0  0  0  0  0  0  0  0  0  0  0  0
   -3.9810   19.4670  -32.3080 H   0  0  0  0  0  0  0  0  0  0  0  0
   -3.1110   20.5560  -31.3930 H   0  0  0  0  0  0  0  0  0  0  0  0
   -5.2451   18.2763  -31.6238 H   0  0  0  0  0  0  0  0  0  0  0  0
   -7.3013   16.8876  -31.7732 H   0  0  0  0  0  0  0  0  0  0  0  0
   -9.5401   17.9668  -31.7760 H   0  0  0  0  0  0  0  0  0  0  0  0
   -9.7401   20.4371  -31.6183 H   0  0  0  0  0  0  0  0  0  0  0  0
   -9.4990   23.1256  -31.0349 H   0  0  0  0  0  0  0  0  0  0  0  0
   -8.7201   23.7303  -32.5364 H   0  0  0  0  0  0  0  0  0  0  0  0
   -9.5580   22.1413  -32.5364 H   0  0  0  0  0  0  0  0  0  0  0  0
   -7.7679   24.7164  -30.7779 H   0  0  0  0  0  0  0  0  0  0  0  0
   -5.8372   26.0879  -30.0431 H   0  0  0  0  0  0  0  0  0  0  0  0
   -3.5916   25.0681  -29.8380 H   0  0  0  0  0  0  0  0  0  0  0  0
   -2.6850   21.6740  -30.6700 H   0  0  0  0  0  0  0  0  0  0  0  0
   -1.0047   23.3161  -30.4175 H   0  0  0  0  0  0  0  0  0  0  0  0
   -2.1938   24.4510  -29.6804 H   0  0  0  0  0  0  0  0  0  0  0  0
   -0.7641   23.7450  -27.8853 H   0  0  0  0  0  0  0  0  0  0  0  0
   -2.3106   22.8118  -27.7060 H   0  0  0  0  0  0  0  0  0  0  0  0
    0.0306   21.6326  -29.2301 H   0  0  0  0  0  0  0  0  0  0  0  0
   -0.0372   21.5589  -27.4247 H   0  0  0  0  0  0  0  0  0  0  0  0
   -0.9592   18.4717  -28.7378 H   0  0  0  0  0  0  0  0  0  0  0  0
    0.1411   19.4203  -27.6977 H   0  0  0  0  0  0  0  0  0  0  0  0
   -1.7565   17.6604  -26.7249 H   0  0  0  0  0  0  0  0  0  0  0  0
   -1.1601   19.0269  -25.7865 H   0  0  0  0  0  0  0  0  0  0  0  0
   -3.7282   18.7408  -27.3782 H   0  0  0  0  0  0  0  0  0  0  0  0
   -3.4901   19.5936  -25.8585 H   0  0  0  0  0  0  0  0  0  0  0  0
   -3.6267   20.8763  -28.2920 H   0  0  0  0  0  0  0  0  0  0  0  0
   -2.6562   21.5258  -26.9406 H   0  0  0  0  0  0  0  0  0  0  0  0
  1  2  1  0
  2  3  1  0
  3  4  1  0
  4  5  1  0
  3  6  1  0
  6  7  1  0
  7  8  1  0
  8  9  1  0
  9 10  1  0
 10 11  1  0
 11 12  1  0
 12 13  1  0
 13 14  1  0
 14 15  1  0
 15 16  2  0
 16 17  1  0
 17 18  2  0
 18 19  1  0
 19 20  2  0
 20 21  1  0
 21 22  2  0
 22 23  1  0
 22 24  1  0
 24 25  2  0
 25 26  1  0
 26 27  2  0
 27 28  1  0
 28 29  1  0
 29 30  1  0
 30 31  1  0
 31 32  1  0
 32 33  1  0
 33 34  1  0
 34 35  1  0
 35 36  1  0
 36 37  1  0
 28 38  2  0
 38 15  1  0
 21 16  1  0
 38 24  1  0
 37 33  1  0
  1 39  1  0
  1 40  1  0
  1 41  1  0
  2 42  1  0
  2 43  1  0
  4 44  1  0
  4 45  1  0
  5 46  1  0
  5 47  1  0
  5 48  1  0
  6 49  1  0
  6 50  1  0
  7 51  1  0
  7 52  1  0
  9 53  1  0
  9 54  1  0
 10 55  1  0
 10 56  1  0
 12 57  1  0
 12 58  1  0
 13 59  1  0
 13 60  1  0
 14 61  1  0
 14 62  1  0
 17 63  1  0
 18 64  1  0
 19 65  1  0
 20 66  1  0
 23 67  1  0
 23 68  1  0
 23 69  1  0
 25 70  1  0
 26 71  1  0
 27 72  1  0
 29 73  1  0
 30 74  1  0
 30 75  1  0
 31 76  1  0
 31 77  1  0
 32 78  1  0
 32 79  1  0
 34 80  1  0
 34 81  1  0
 35 82  1  0
 35 83  1  0
 36 84  1  0
 36 85  1  0
 37 86  1  0
 37 87  1  0
M  CHG  2  14   1  22   1
M  END
>  <UniqueID>  (1) 
1

>  <SMILES>  (1) 
CCN(CC)CCOCCOCC[NH2+]c1c2ccccc2[n+](C)c2cccc(NCCCN3CCCC3)c12

>  <Energy>  (1) 
138.02182203825583

>  <Genealogy>  (1) 
CCN(CC)CCOCCOCC[NH2+]c1c2ccccc2[n+](C)c2cccc(NCCCN3CCCC3)c12 (protonated)
CCN(CC)CCOCCOCC[NH2+]c1c2ccccc2[n+](C)c2cccc(NCCCN3CCCC3)c12 (3D coordinates assigned)
CCN(CC)CCOCCOCC[NH2+]c1c2ccccc2[n+](C)c2cccc(NCCCN3CCCC3)c12 (nonaromatic ring conformer: 138.02182203825583 kcal/mol)

>  <smiles>  (1) 
CCN(CC)CCOCCOCCNc1c2ccccc2[n+](C)c2cccc(NCCCN3CCCC3)c12

>  <score_type>  (1) 
oracle

>  <origin>  (1) 
adg

>  <m_score__min__energy>  (1) 
-7.6399999999999997

>  <m_primary>  (1) 
energy

$$$$
1:0
     RDKit          3D

 61 63  0  0  0  0  0  0  0  0999 V2000
   -5.6510   18.2300  -34.9670 C   0  0  0  0  0  0  0  0  0  0  0  0
   -4.8100   17.9670  -33.7180 C   0  0  0  0  0  0  0  0  0  0  0  0
   -5.5840   17.2170  -32.7000 N   0  0  0  0  0  0  0  0  0  0  0  0
   -4.9320   15.9260  -32.3520 C   0  0  0  0  0  0  0  0  0  0  0  0
   -3.7630   15.6730  -33.2980 C   0  0  0  0  0  0  0  0  0  0  0  0
   -6.9820   17.0210  -33.1490 C   0  0  0  0  0  0  0  0  0  0  0  0
   -7.9440   17.8880  -32.3280 C   0  0  0  0  0  0  0  0  0  0  0  0
   -7.2320   19.0200  -31.7420 N   0  0  0  0  0  0  0  0  0  0  0  0
   -7.0380   20.2560  -32.4490 C   0  0  0  0  0  0  0  0  0  0  0  0
   -7.6230   20.4410  -33.5510 O   0  0  0  0  0  0  0  0  0  0  0  0
   -6.1670   21.3250  -31.9000 C   0  0  0  0  0  0  0  0  0  0  0  0
   -6.3460   22.6580  -32.3120 C   0  0  0  0  0  0  0  0  0  0  0  0
   -5.5280   23.6770  -31.8140 C   0  0  0  0  0  0  0  0  0  0  0  0
   -4.5060   23.3820  -30.8960 C   0  0  0  0  0  0  0  0  0  0  0  0
   -4.3190   22.0440  -30.4850 C   0  0  0  0  0  0  0  0  0  0  0  0
   -5.1380   21.0280  -30.9870 C   0  0  0  0  0  0  0  0  0  0  0  0
   -3.3370   21.7470  -29.5990 N   0  0  0  0  0  0  0  0  0  0  0  0
   -2.5260   22.7100  -29.0940 C   0  0  0  0  0  0  0  0  0  0  0  0
   -1.5280   22.3730  -28.1740 C   0  0  0  0  0  0  0  0  0  0  0  0
   -0.6870   23.3650  -27.6480 C   0  0  0  0  0  0  0  0  0  0  0  0
    0.3260   23.0210  -26.6850 N   0  0  0  0  0  0  0  0  0  0  0  0
    1.7420   23.0110  -27.0820 C   0  0  0  0  0  0  0  0  0  0  0  0
    2.3270   24.4170  -27.0120 C   0  0  0  0  0  0  0  0  0  0  0  0
   -0.0580   22.7050  -25.3020 C   0  0  0  0  0  0  0  0  0  0  0  0
   -0.4350   23.9780  -24.5530 C   0  0  0  0  0  0  0  0  0  0  0  0
   -0.8530   24.6970  -28.0560 C   0  0  0  0  0  0  0  0  0  0  0  0
   -1.8480   25.0400  -28.9750 C   0  0  0  0  0  0  0  0  0  0  0  0
   -2.6990   24.0520  -29.5020 C   0  0  0  0  0  0  0  0  0  0  0  0
   -3.6890   24.3610  -30.3970 N   0  0  0  0  0  0  0  0  0  0  0  0
   -3.8640   25.6700  -30.7950 O   0  0  0  0  0  0  0  0  0  0  0  0
   -6.6615   18.5460  -34.6688 H   0  0  0  0  0  0  0  0  0  0  0  0
   -5.1803   19.0238  -35.5655 H   0  0  0  0  0  0  0  0  0  0  0  0
   -5.7164   17.3094  -35.5655 H   0  0  0  0  0  0  0  0  0  0  0  0
   -3.9234   17.3799  -33.9993 H   0  0  0  0  0  0  0  0  0  0  0  0
   -4.5131   18.9346  -33.2873 H   0  0  0  0  0  0  0  0  0  0  0  0
   -4.5626   15.9696  -31.3168 H   0  0  0  0  0  0  0  0  0  0  0  0
   -5.6631   15.1097  -32.4476 H   0  0  0  0  0  0  0  0  0  0  0  0
   -2.8531   15.4761  -32.7120 H   0  0  0  0  0  0  0  0  0  0  0  0
   -3.9863   14.8024  -33.9322 H   0  0  0  0  0  0  0  0  0  0  0  0
   -3.6063   16.5580  -33.9322 H   0  0  0  0  0  0  0  0  0  0  0  0
   -7.0623   17.2990  -34.2103 H   0  0  0  0  0  0  0  0  0  0  0  0
   -7.2526   15.9641  -33.0086 H   0  0  0  0  0  0  0  0  0  0  0  0
   -8.7441   18.2626  -32.9834 H   0  0  0  0  0  0  0  0  0  0  0  0
   -8.3735   17.2783  -31.5194 H   0  0  0  0  0  0  0  0  0  0  0  0
   -6.9730   18.9550  -30.7330 H   0  0  0  0  0  0  0  0  0  0  0  0
   -7.1388   22.9017  -33.0345 H   0  0  0  0  0  0  0  0  0  0  0  0
   -5.6855   24.7149  -32.1426 H   0  0  0  0  0  0  0  0  0  0  0  0
   -4.9768   19.9884  -30.6658 H   0  0  0  0  0  0  0  0  0  0  0  0
   -1.4020   21.3259  -27.8616 H   0  0  0  0  0  0  0  0  0  0  0  0
    2.3033   22.3514  -26.4038 H   0  0  0  0  0  0  0  0  0  0  0  0
    1.8184   22.6454  -28.1167 H   0  0  0  0  0  0  0  0  0  0  0  0
    2.4494   24.7112  -25.9592 H   0  0  0  0  0  0  0  0  0  0  0  0
    3.3061   24.4321  -27.5132 H   0  0  0  0  0  0  0  0  0  0  0  0
    1.6476   25.1222  -27.5132 H   0  0  0  0  0  0  0  0  0  0  0  0
   -0.9196   22.0213  -25.3120 H   0  0  0  0  0  0  0  0  0  0  0  0
    0.7943   22.2302  -24.7938 H   0  0  0  0  0  0  0  0  0  0  0  0
   -0.3810   23.7956  -23.4696 H   0  0  0  0  0  0  0  0  0  0  0  0
    0.2631   24.7835  -24.8245 H   0  0  0  0  0  0  0  0  0  0  0  0
   -1.4592   24.2735  -24.8245 H   0  0  0  0  0  0  0  0  0  0  0  0
   -0.1941   25.4781  -27.6489 H   0  0  0  0  0  0  0  0  0  0  0  0
   -1.9663   26.0879  -29.2879 H   0  0  0  0  0  0  0  0  0  0  0  0
  1  2  1  0
  2  3  1  0
  3  4  1  0
  4  5  1  0
  3  6  1  0
  6  7  1  0
  7  8  1  0
  8  9  1  0
  9 10  2  0
  9 11  1  0
 11 12  2  0
 12 13  1  0
 13 14  2  0
 14 15  1  0
 15 16  2  0
 15 17  1  0
 17 18  2  0
 18 19  1  0
 19 20  2  0
 20 21  1  0
 21 22  1  0
 22 23  1  0
 21 24  1  0
 24 25  1  0
 20 26  1  0
 26 27  2  0
 27 28  1  0
 28 29  2  0
 29 30  1  0
 16 11  1  0
 28 18  1  0
 29 14  1  0
  1 31  1  0
  1 32  1  0
  1 33  1  0
  2 34  1  0
  2 35  1  0
  4 36  1  0
  4 37  1  0
  5 38  1  0
  5 39  1  0
  5 40  1  0
  6 41  1  0
  6 42  1  0
  7 43  1  0
  7 44  1  0
  8 45  1  0
 12 46  1  0
 13 47  1  0
 16 48  1  0
 19 49  1  0
 22 50  1  0
 22 51  1  0
 23 52  1  0
 23 53  1  0
 23 54  1  0
 24 55  1  0
 24 56  1  0
 25 57  1  0
 25 58  1  0
 25 59  1  0
 26 60  1  0
 27 61  1  0
M  CHG  2  29   1  30  -1
M  END
>  <UniqueID>  (2) 
2

>  <SMILES>  (2) 
CCN(CC)CCNC(=O)c1ccc2c(c1)nc1cc(N(CC)CC)ccc1[n+]2[O-]

>  <Energy>  (2) 
67.48851991225365

>  <Genealogy>  (2) 
CCN(CC)CCNC(=O)c1ccc2c(c1)nc1cc(N(CC)CC)ccc1[n+]2[O-] (3D coordinates assigned)
CCN(CC)CCNC(=O)c1ccc2c(c1)nc1cc(N(CC)CC)ccc1[n+]2[O-] (optimized conformer: 67.48851991225365 kcal/mol)

>  <smiles>  (2) 
CCN(CC)CCNC(=O)c1ccc2c(c1)nc1cc(N(CC)CC)ccc1[n+]2[O-]

>  <score_type>  (2) 
oracle

>  <origin>  (2) 
adg

>  <m_score__min__energy>  (2) 
-8.0800000000000001

>  <m_primary>  (2) 
energy

$$$$
2:0
     RDKit          3D

 49 52  0  0  0  0  0  0  0  0999 V2000
    0.0520   20.9390  -34.0830 C   0  0  0  0  0  0  0  0  0  0  0  0
   -1.2990   21.4950  -34.1980 N   0  0  0  0  0  0  0  0  0  0  0  0
   -1.9760   21.4910  -32.8920 C   0  0  0  0  0  0  0  0  0  0  0  0
   -2.9030   20.2780  -32.7410 C   0  0  0  0  0  0  0  0  0  0  0  0
   -3.7460   20.3990  -31.5490 N   0  0  0  0  0  0  0  0  0  0  0  0
   -5.1780   20.3790  -31.6360 C   0  0  0  0  0  0  0  0  0  0  0  0
   -5.8770   19.2460  -32.1190 C   0  0  0  0  0  0  0  0  0  0  0  0
   -5.1900   18.0550  -32.4300 C   0  0  0  0  0  0  0  0  0  0  0  0
   -5.8680   16.9560  -32.9510 C   0  0  0  0  0  0  0  0  0  0  0  0
   -7.2390   17.0210  -33.1720 C   0  0  0  0  0  0  0  0  0  0  0  0
   -7.9520   18.1740  -32.8460 C   0  0  0  0  0  0  0  0  0  0  0  0
   -7.3030   19.3000  -32.2840 C   0  0  0  0  0  0  0  0  0  0  0  0
   -8.0100   20.4320  -31.9060 N   0  0  0  0  0  0  0  0  0  0  0  0
   -9.4830   20.4740  -31.9810 C   0  0  0  0  0  0  0  0  0  0  0  0
   -7.3070   21.5220  -31.4610 C   0  0  0  0  0  0  0  0  0  0  0  0
   -7.8200   22.7400  -31.1500 N   0  0  0  0  0  0  0  0  0  0  0  0
   -6.7620   23.4820  -30.7740 C   0  0  0  0  0  0  0  0  0  0  0  0
   -6.7840   24.8150  -30.3700 C   0  0  0  0  0  0  0  0  0  0  0  0
   -5.5670   25.4230  -30.0200 C   0  0  0  0  0  0  0  0  0  0  0  0
   -4.3510   24.6900  -30.0770 C   0  0  0  0  0  0  0  0  0  0  0  0
   -3.1160   25.2610  -29.7310 O   0  0  0  0  0  0  0  0  0  0  0  0
   -2.1600   24.6490  -28.8730 C   0  0  0  0  0  0  0  0  0  0  0  0
   -4.3660   23.3450  -30.4890 C   0  0  0  0  0  0  0  0  0  0  0  0
   -5.5870   22.7670  -30.8430 C   0  0  0  0  0  0  0  0  0  0  0  0
   -5.9340   21.5030  -31.2990 C   0  0  0  0  0  0  0  0  0  0  0  0
    0.3148   20.8309  -33.0203 H   0  0  0  0  0  0  0  0  0  0  0  0
    0.0858   19.9538  -34.5712 H   0  0  0  0  0  0  0  0  0  0  0  0
    0.7695   21.6150  -34.5712 H   0  0  0  0  0  0  0  0  0  0  0  0
   -1.2270   22.4780  -34.5500 H   0  0  0  0  0  0  0  0  0  0  0  0
   -1.8330   20.9250  -34.8930 H   0  0  0  0  0  0  0  0  0  0  0  0
   -1.2170   21.4616  -32.0964 H   0  0  0  0  0  0  0  0  0  0  0  0
   -2.5870   22.4027  -32.8180 H   0  0  0  0  0  0  0  0  0  0  0  0
   -3.5470   20.2061  -33.6298 H   0  0  0  0  0  0  0  0  0  0  0  0
   -2.2816   19.3762  -32.6374 H   0  0  0  0  0  0  0  0  0  0  0  0
   -3.3010   20.5740  -30.6210 H   0  0  0  0  0  0  0  0  0  0  0  0
   -4.1051   17.9931  -32.2590 H   0  0  0  0  0  0  0  0  0  0  0  0
   -5.3173   16.0338  -33.1884 H   0  0  0  0  0  0  0  0  0  0  0  0
   -7.7643   16.1578  -33.6066 H   0  0  0  0  0  0  0  0  0  0  0  0
   -9.0362   18.2095  -33.0284 H   0  0  0  0  0  0  0  0  0  0  0  0
   -9.9017   20.4859  -30.9639 H   0  0  0  0  0  0  0  0  0  0  0  0
   -9.7971   21.3815  -32.5175 H   0  0  0  0  0  0  0  0  0  0  0  0
   -9.8483   19.5859  -32.5175 H   0  0  0  0  0  0  0  0  0  0  0  0
   -8.8040   23.0790  -31.2140 H   0  0  0  0  0  0  0  0  0  0  0  0
   -7.7290   25.3764  -30.3262 H   0  0  0  0  0  0  0  0  0  0  0  0
   -5.5552   26.4751  -29.6992 H   0  0  0  0  0  0  0  0  0  0  0  0
   -2.4403   24.8285  -27.8246 H   0  0  0  0  0  0  0  0  0  0  0  0
   -2.1345   23.5663  -29.0656 H   0  0  0  0  0  0  0  0  0  0  0  0
   -1.1661   25.0791  -29.0656 H   0  0  0  0  0  0  0  0  0  0  0  0
   -3.4351   22.7606  -30.5314 H   0  0  0  0  0  0  0  0  0  0  0  0
  1  2  1  0
  2  3  1  0
  3  4  1  0
  4  5  1  0
  5  6  1  0
  6  7  2  0
  7  8  1  0
  8  9  2  0
  9 10  1  0
 10 11  2  0
 11 12  1  0
 12 13  2  0
 13 14  1  0
 13 15  1  0
 15 16  1  0
 16 17  1  0
 17 18  2  0
 18 19  1  0
 19 20  2  0
 20 21  1  0
 21 22  1  0
 20 23  1  0
 23 24  2  0
 24 25  1  0
 25  6  1  0
 12  7  1  0
 25 15  2  0
 24 17  1  0
  1 26  1  0
  1 27  1  0
  1 28  1  0
  2 29  1  0
  2 30  1  0
  3 31  1  0
  3 32  1  0
  4 33  1  0
  4 34  1  0
  5 35  1  0
  8 36  1  0
  9 37  1  0
 10 38  1  0
 11 39  1  0
 14 40  1  0
 14 41  1  0
 14 42  1  0
 16 43  1  0
 18 44  1  0
 19 45  1  0
 22 46  1  0
 22 47  1  0
 22 48  1  0
 23 49  1  0
M  CHG  2   2   1  13   1
M  END
>  <UniqueID>  (3) 
3

>  <SMILES>  (3) 
C[NH2+]CCNc1c2ccccc2[n+](C)c2[nH]c3ccc(OC)cc3c12

>  <Energy>  (3) 
105.95465788053428

>  <Genealogy>  (3) 
C[NH2+]CCNc1c2ccccc2[n+](C)c2[nH]c3ccc(OC)cc3c12 (protonated)
C[NH2+]CCNc1c2ccccc2[n+](C)c2[nH]c3ccc(OC)cc3c12 (3D coordinates assigned)
C[NH2+]CCNc1c2ccccc2[n+](C)c2[nH]c3ccc(OC)cc3c12 (optimized conformer: 105.95465788053428 kcal/mol)

>  <smiles>  (3) 
CNCCNc1c2ccccc2[n+](C)c2[nH]c3ccc(OC)cc3c12

>  <score_type>  (3) 
oracle

>  <origin>  (3) 
adg

>  <m_score__min__energy>  (3) 
-7.8399999999999999

>  <m_primary>  (3) 
energy

$$$$
3:0
     RDKit          3D

 47 48  0  0  0  0  0  0  0  0999 V2000
   -7.2040   14.2980  -34.5760 C   0  0  0  0  0  0  0  0  0  0  0  0
   -6.0550   15.1700  -34.0800 C   0  0  0  0  0  0  0  0  0  0  0  0
   -6.4940   16.6320  -33.9360 C   0  0  0  0  0  0  0  0  0  0  0  0
   -5.9900   17.2810  -32.6380 C   0  0  0  0  0  0  0  0  0  0  0  0
   -6.3110   18.7250  -32.5670 N   0  0  0  0  0  0  0  0  0  0  0  0
   -5.3200   19.6730  -32.6980 C   0  0  0  0  0  0  0  0  0  0  0  0
   -3.6070   19.2360  -33.0380 S   0  0  0  0  0  0  0  0  0  0  0  0
   -3.0880   20.9360  -33.4770 C   0  0  0  0  0  0  0  0  0  0  0  0
   -2.6020   21.6470  -32.2540 C   0  0  0  0  0  0  0  0  0  0  0  0
   -1.3900   21.5480  -31.9200 O   0  0  0  0  0  0  0  0  0  0  0  0
   -3.5060   22.4310  -31.4660 N   0  0  0  0  0  0  0  0  0  0  0  0
   -3.2140   22.8050  -30.0830 C   0  0  0  0  0  0  0  0  0  0  0  0
   -3.9610   24.0830  -29.7000 C   0  0  0  0  0  0  0  0  0  0  0  0
   -4.5560   24.6420  -30.8520 O   0  0  0  0  0  0  0  0  0  0  0  0
   -5.7480   25.3020  -30.4920 C   0  0  0  0  0  0  0  0  0  0  0  0
   -5.6120   20.9930  -32.5680 N   0  0  0  0  0  0  0  0  0  0  0  0
   -6.8720   21.4260  -32.3330 C   0  0  0  0  0  0  0  0  0  0  0  0
   -7.1310   22.7960  -32.2140 C   0  0  0  0  0  0  0  0  0  0  0  0
   -8.4350   23.2430  -31.9790 C   0  0  0  0  0  0  0  0  0  0  0  0
   -9.4800   22.3230  -31.8620 C   0  0  0  0  0  0  0  0  0  0  0  0
   -9.2270   20.9530  -31.9790 C   0  0  0  0  0  0  0  0  0  0  0  0
   -7.9170   20.4940  -32.2160 C   0  0  0  0  0  0  0  0  0  0  0  0
   -7.6070   19.1270  -32.3350 C   0  0  0  0  0  0  0  0  0  0  0  0
   -8.5310   18.2730  -32.2260 O   0  0  0  0  0  0  0  0  0  0  0  0
   -7.7488   13.8845  -33.7145 H   0  0  0  0  0  0  0  0  0  0  0  0
   -7.8889   14.9058  -35.1856 H   0  0  0  0  0  0  0  0  0  0  0  0
   -6.8029   13.4749  -35.1856 H   0  0  0  0  0  0  0  0  0  0  0  0
   -5.7182   14.7979  -33.1011 H   0  0  0  0  0  0  0  0  0  0  0  0
   -5.2373   15.1214  -34.8142 H   0  0  0  0  0  0  0  0  0  0  0  0
   -6.1002   17.2027  -34.7900 H   0  0  0  0  0  0  0  0  0  0  0  0
   -7.5935   16.6458  -33.9074 H   0  0  0  0  0  0  0  0  0  0  0  0
   -6.4597   16.7723  -31.7832 H   0  0  0  0  0  0  0  0  0  0  0  0
   -4.8949   17.1794  -32.6156 H   0  0  0  0  0  0  0  0  0  0  0  0
   -2.2778   20.8906  -34.2196 H   0  0  0  0  0  0  0  0  0  0  0  0
   -3.9455   21.4811  -33.8984 H   0  0  0  0  0  0  0  0  0  0  0  0
   -4.4350   22.6910  -31.8670 H   0  0  0  0  0  0  0  0  0  0  0  0
   -3.5272   21.9895  -29.4145 H   0  0  0  0  0  0  0  0  0  0  0  0
   -2.1331   22.9843  -29.9856 H   0  0  0  0  0  0  0  0  0  0  0  0
   -4.7417   23.8447  -28.9627 H   0  0  0  0  0  0  0  0  0  0  0  0
   -3.2544   24.8049  -29.2645 H   0  0  0  0  0  0  0  0  0  0  0  0
   -5.8264   25.3454  -29.3957 H   0  0  0  0  0  0  0  0  0  0  0  0
   -5.7390   26.3236  -30.8997 H   0  0  0  0  0  0  0  0  0  0  0  0
   -6.6091   24.7521  -30.8997 H   0  0  0  0  0  0  0  0  0  0  0  0
   -6.3090   23.5212  -32.3053 H   0  0  0  0  0  0  0  0  0  0  0  0
   -8.6382   24.3201  -31.8862 H   0  0  0  0  0  0  0  0  0  0  0  0
  -10.5048   22.6776  -31.6773 H   0  0  0  0  0  0  0  0  0  0  0  0
  -10.0528   20.2323  -31.8858 H   0  0  0  0  0  0  0  0  0  0  0  0
  1  2  1  0
  2  3  1  0
  3  4  1  0
  4  5  1  0
  5  6  1  0
  6  7  1  0
  7  8  1  0
  8  9  1  0
  9 10  2  0
  9 11  1  0
 11 12  1  0
 12 13  1  0
 13 14  1  0
 14 15  1  0
  6 16  2  0
 16 17  1  0
 17 18  2  0
 18 19  1  0
 19 20  2  0
 20 21  1  0
 21 22  2  0
 22 23  1  0
 23 24  2  0
 23  5  1  0
 22 17  1  0
  1 25  1  0
  1 26  1  0
  1 27  1  0
  2 28  1  0
  2 29  1  0
  3 30  1  0
  3 31  1  0
  4 32  1  0
  4 33  1  0
  8 34  1  0
  8 35  1  0
 11 36  1  0
 12 37  1  0
 12 38  1  0
 13 39  1  0
 13 40  1  0
 15 41  1  0
 15 42  1  0
 15 43  1  0
 18 44  1  0
 19 45  1  0
 20 46  1  0
 21 47  1  0
M  END
>  <UniqueID>  (4) 
4

>  <SMILES>  (4) 
CCCCn1c(SCC(=O)NCCOC)nc2ccccc2c1=O

>  <Energy>  (4) 
39.78881248148035

>  <Genealogy>  (4) 
CCCCn1c(SCC(=O)NCCOC)nc2ccccc2c1=O (3D coordinates assigned)
CCCCn1c(SCC(=O)NCCOC)nc2ccccc2c1=O (optimized conformer: 39.78881248148035 kcal/mol)

>  <smiles>  (4) 
CCCCn1c(SCC(=O)NCCOC)nc2ccccc2c1=O

>  <score_type>  (4) 
oracle

>  <origin>  (4) 
adg

>  <m_score__min__energy>  (4) 
-8.8200000000000003

>  <m_primary>  (4) 
energy

$$$$
4:0
     RDKit          3D

 49 51  0  0  0  0  0  0  0  0999 V2000
   -6.0790   25.2970  -29.6490 C   0  0  0  0  0  0  0  0  0  0  0  0
   -5.1250   25.0560  -30.8280 C   0  0  0  0  0  0  0  0  0  0  0  0
   -3.8960   24.3110  -30.4670 N   0  0  0  0  0  0  0  0  0  0  0  0
   -3.4990   24.5430  -29.0660 C   0  0  0  0  0  0  0  0  0  0  0  0
   -3.9870   22.8710  -30.7910 C   0  0  0  0  0  0  0  0  0  0  0  0
   -3.0210   22.5140  -31.9280 C   0  0  0  0  0  0  0  0  0  0  0  0
   -3.3410   21.1350  -32.5130 C   0  0  0  0  0  0  0  0  0  0  0  0
   -4.5100   21.2030  -33.3870 N   0  0  0  0  0  0  0  0  0  0  0  0
   -5.6960   20.4610  -33.0690 C   0  0  0  0  0  0  0  0  0  0  0  0
   -6.8190   21.1190  -32.5430 C   0  0  0  0  0  0  0  0  0  0  0  0
   -6.8120   22.5170  -32.3570 C   0  0  0  0  0  0  0  0  0  0  0  0
   -7.9430   23.1750  -31.8800 C   0  0  0  0  0  0  0  0  0  0  0  0
   -9.0980   22.4560  -31.5920 C   0  0  0  0  0  0  0  0  0  0  0  0
   -9.1210   21.0700  -31.7560 C   0  0  0  0  0  0  0  0  0  0  0  0
   -7.9740   20.3650  -32.2010 C   0  0  0  0  0  0  0  0  0  0  0  0
   -7.9620   18.9870  -32.3190 N   0  0  0  0  0  0  0  0  0  0  0  0
   -9.0420   18.1820  -31.7060 C   0  0  0  0  0  0  0  0  0  0  0  0
   -6.9290   18.3610  -32.9910 C   0  0  0  0  0  0  0  0  0  0  0  0
   -6.9920   16.9960  -33.3660 C   0  0  0  0  0  0  0  0  0  0  0  0
   -5.9450   16.3960  -33.9920 N   0  0  0  0  0  0  0  0  0  0  0  0
   -4.8110   17.0740  -34.2970 C   0  0  0  0  0  0  0  0  0  0  0  0
   -4.7020   18.4260  -33.9890 C   0  0  0  0  0  0  0  0  0  0  0  0
   -5.7650   19.0880  -33.3450 C   0  0  0  0  0  0  0  0  0  0  0  0
   -5.5348   25.1595  -28.7030 H   0  0  0  0  0  0  0  0  0  0  0  0
   -6.4728   26.3228  -29.6997 H   0  0  0  0  0  0  0  0  0  0  0  0
   -6.9128   24.5813  -29.6997 H   0  0  0  0  0  0  0  0  0  0  0  0
   -5.6635   24.4827  -31.5970 H   0  0  0  0  0  0  0  0  0  0  0  0
   -4.8037   26.0458  -31.1845 H   0  0  0  0  0  0  0  0  0  0  0  0
   -4.2510   24.1035  -28.3942 H   0  0  0  0  0  0  0  0  0  0  0  0
   -2.5217   24.0738  -28.8793 H   0  0  0  0  0  0  0  0  0  0  0  0
   -3.4281   25.6247  -28.8793 H   0  0  0  0  0  0  0  0  0  0  0  0
   -3.7289   22.2821  -29.8985 H   0  0  0  0  0  0  0  0  0  0  0  0
   -5.0141   22.6428  -31.1120 H   0  0  0  0  0  0  0  0  0  0  0  0
   -3.1069   23.2698  -32.7226 H   0  0  0  0  0  0  0  0  0  0  0  0
   -1.9985   22.4922  -31.5230 H   0  0  0  0  0  0  0  0  0  0  0  0
   -2.4767   20.7795  -33.0931 H   0  0  0  0  0  0  0  0  0  0  0  0
   -3.5573   20.4420  -31.6866 H   0  0  0  0  0  0  0  0  0  0  0  0
   -4.5340   21.8570  -34.2030 H   0  0  0  0  0  0  0  0  0  0  0  0
   -5.9046   23.0932  -32.5909 H   0  0  0  0  0  0  0  0  0  0  0  0
   -7.9227   24.2647  -31.7309 H   0  0  0  0  0  0  0  0  0  0  0  0
   -9.9959   22.9809  -31.2340 H   0  0  0  0  0  0  0  0  0  0  0  0
  -10.0450   20.5150  -31.5362 H   0  0  0  0  0  0  0  0  0  0  0  0
   -8.9652   18.2393  -30.6102 H   0  0  0  0  0  0  0  0  0  0  0  0
  -10.0185   18.5743  -32.0261 H   0  0  0  0  0  0  0  0  0  0  0  0
   -8.9450   17.1341  -32.0261 H   0  0  0  0  0  0  0  0  0  0  0  0
   -7.8998   16.4144  -33.1478 H   0  0  0  0  0  0  0  0  0  0  0  0
   -6.0180   15.3870  -34.2560 H   0  0  0  0  0  0  0  0  0  0  0  0
   -3.9758   16.5539  -34.7889 H   0  0  0  0  0  0  0  0  0  0  0  0
   -3.7863   18.9776  -34.2482 H   0  0  0  0  0  0  0  0  0  0  0  0
  1  2  1  0
  2  3  1  0
  3  4  1  0
  3  5  1  0
  5  6  1  0
  6  7  1  0
  7  8  1  0
  8  9  1  0
  9 10  2  0
 10 11  1  0
 11 12  2  0
 12 13  1  0
 13 14  2  0
 14 15  1  0
 15 16  2  0
 16 17  1  0
 16 18  1  0
 18 19  2  0
 19 20  1  0
 20 21  2  0
 21 22  1  0
 22 23  2  0
 23  9  1  0
 15 10  1  0
 23 18  1  0
  1 24  1  0
  1 25  1  0
  1 26  1  0
  2 27  1  0
  2 28  1  0
  4 29  1  0
  4 30  1  0
  4 31  1  0
  5 32  1  0
  5 33  1  0
  6 34  1  0
  6 35  1  0
  7 36  1  0
  7 37  1  0
  8 38  1  0
 11 39  1  0
 12 40  1  0
 13 41  1  0
 14 42  1  0
 17 43  1  0
 17 44  1  0
 17 45  1  0
 19 46  1  0
 20 47  1  0
 21 48  1  0
 22 49  1  0
M  CHG  2  16   1  20   1
M  END
>  <UniqueID>  (5) 
5

>  <SMILES>  (5) 
CCN(C)CCCNc1c2ccccc2[n+](C)c2c[nH+]ccc12

>  <Energy>  (5) 
74.34766977459219

>  <Genealogy>  (5) 
CCN(C)CCCNc1c2ccccc2[n+](C)c2c[nH+]ccc12 (protonated)
CCN(C)CCCNc1c2ccccc2[n+](C)c2c[nH+]ccc12 (3D coordinates assigned)
CCN(C)CCCNc1c2ccccc2[n+](C)c2c[nH+]ccc12 (optimized conformer: 74.34766977459219 kcal/mol)

>  <smiles>  (5) 
CCN(C)CCCNc1c2ccccc2[n+](C)c2cnccc12

>  <score_type>  (5) 
oracle

>  <origin>  (5) 
adg

>  <m_score__min__energy>  (5) 
-7.8399999999999999

>  <m_primary>  (5) 
energy

$$$$
5:0
     RDKit          3D

 64 66  0  0  0  0  0  0  0  0999 V2000
   -2.7610   20.7350  -27.9190 C   0  0  0  0  0  0  0  0  0  0  0  0
   -3.2910   21.8440  -28.8250 C   0  0  0  0  0  0  0  0  0  0  0  0
   -2.2290   22.3170  -29.7400 N   0  0  0  0  0  0  0  0  0  0  0  0
   -0.9730   21.5810  -29.5010 C   0  0  0  0  0  0  0  0  0  0  0  0
   -1.9980   23.7700  -29.5940 C   0  0  0  0  0  0  0  0  0  0  0  0
   -3.3180   24.4950  -29.2990 C   0  0  0  0  0  0  0  0  0  0  0  0
   -3.8660   25.0280  -30.4920 O   0  0  0  0  0  0  0  0  0  0  0  0
   -5.1670   25.5490  -30.2790 C   0  0  0  0  0  0  0  0  0  0  0  0
   -6.2350   24.6390  -30.8960 C   0  0  0  0  0  0  0  0  0  0  0  0
   -5.7470   23.1920  -31.0250 C   0  0  0  0  0  0  0  0  0  0  0  0
   -5.7930   22.7510  -32.4200 N   0  0  0  0  0  0  0  0  0  0  0  0
   -5.7030   21.3560  -32.7320 C   0  0  0  0  0  0  0  0  0  0  0  0
   -4.4730   20.7840  -33.0890 C   0  0  0  0  0  0  0  0  0  0  0  0
   -4.4070   19.4110  -33.3900 C   0  0  0  0  0  0  0  0  0  0  0  0
   -5.5570   18.6510  -33.4360 N   0  0  0  0  0  0  0  0  0  0  0  0
   -5.5240   17.2920  -34.0090 C   0  0  0  0  0  0  0  0  0  0  0  0
   -6.7390   19.1710  -32.9520 C   0  0  0  0  0  0  0  0  0  0  0  0
   -6.8390   20.5390  -32.6360 C   0  0  0  0  0  0  0  0  0  0  0  0
   -8.2030   21.1010  -32.2930 C   0  0  0  0  0  0  0  0  0  0  0  0
   -8.9630   20.2120  -31.2930 C   0  0  0  0  0  0  0  0  0  0  0  0
   -8.6700   18.7020  -31.4260 C   0  0  0  0  0  0  0  0  0  0  0  0
   -7.9840   18.3240  -32.7460 C   0  0  0  0  0  0  0  0  0  0  0  0
   -3.0320   18.8360  -33.6910 C   0  0  0  0  0  0  0  0  0  0  0  0
   -1.9840   19.4130  -32.7260 C   0  0  0  0  0  0  0  0  0  0  0  0
   -2.0000   20.9560  -32.6300 C   0  0  0  0  0  0  0  0  0  0  0  0
   -3.2250   21.6170  -33.2820 C   0  0  0  0  0  0  0  0  0  0  0  0
   -2.8991   21.0239  -26.8666 H   0  0  0  0  0  0  0  0  0  0  0  0
   -3.3114   19.8038  -28.1188 H   0  0  0  0  0  0  0  0  0  0  0  0
   -1.6907   20.5784  -28.1188 H   0  0  0  0  0  0  0  0  0  0  0  0
   -4.1330   21.4563  -29.4173 H   0  0  0  0  0  0  0  0  0  0  0  0
   -3.6232   22.6859  -28.1999 H   0  0  0  0  0  0  0  0  0  0  0  0
   -0.8058   21.4830  -28.4182 H   0  0  0  0  0  0  0  0  0  0  0  0
   -1.0424   20.5807  -29.9533 H   0  0  0  0  0  0  0  0  0  0  0  0
   -0.1343   22.1305  -29.9533 H   0  0  0  0  0  0  0  0  0  0  0  0
   -1.2960   23.9438  -28.7652 H   0  0  0  0  0  0  0  0  0  0  0  0
   -1.5787   24.1606  -30.5330 H   0  0  0  0  0  0  0  0  0  0  0  0
   -4.0318   23.7833  -28.8586 H   0  0  0  0  0  0  0  0  0  0  0  0
   -3.1234   25.3188  -28.5965 H   0  0  0  0  0  0  0  0  0  0  0  0
   -5.3477   25.6323  -29.1971 H   0  0  0  0  0  0  0  0  0  0  0  0
   -5.2303   26.5366  -30.7593 H   0  0  0  0  0  0  0  0  0  0  0  0
   -7.1300   24.6569  -30.2568 H   0  0  0  0  0  0  0  0  0  0  0  0
   -6.4611   25.0140  -31.9051 H   0  0  0  0  0  0  0  0  0  0  0  0
   -4.7114   23.1266  -30.6600 H   0  0  0  0  0  0  0  0  0  0  0  0
   -6.4048   22.5432  -30.4280 H   0  0  0  0  0  0  0  0  0  0  0  0
   -6.1170   23.4040  -33.1690 H   0  0  0  0  0  0  0  0  0  0  0  0
   -5.5060   16.5515  -33.1958 H   0  0  0  0  0  0  0  0  0  0  0  0
   -6.4186   17.1338  -34.6293 H   0  0  0  0  0  0  0  0  0  0  0  0
   -4.6228   17.1774  -34.6293 H   0  0  0  0  0  0  0  0  0  0  0  0
   -8.0737   22.1002  -31.8516 H   0  0  0  0  0  0  0  0  0  0  0  0
   -8.7926   21.1464  -33.2205 H   0  0  0  0  0  0  0  0  0  0  0  0
   -8.6879   20.5269  -30.2756 H   0  0  0  0  0  0  0  0  0  0  0  0
  -10.0335   20.3428  -31.5096 H   0  0  0  0  0  0  0  0  0  0  0  0
   -8.0157   18.4000  -30.5949 H   0  0  0  0  0  0  0  0  0  0  0  0
   -9.6391   18.1819  -31.4052 H   0  0  0  0  0  0  0  0  0  0  0  0
   -7.7000   17.2617  -32.7167 H   0  0  0  0  0  0  0  0  0  0  0  0
   -8.6817   18.5034  -33.5773 H   0  0  0  0  0  0  0  0  0  0  0  0
   -3.0645   17.7423  -33.5783 H   0  0  0  0  0  0  0  0  0  0  0  0
   -2.7524   19.1031  -34.7208 H   0  0  0  0  0  0  0  0  0  0  0  0
   -2.1736   19.0020  -31.7234 H   0  0  0  0  0  0  0  0  0  0  0  0
   -0.9973   19.1288  -33.1206 H   0  0  0  0  0  0  0  0  0  0  0  0
   -1.9831   21.2353  -31.5662 H   0  0  0  0  0  0  0  0  0  0  0  0
   -1.1178   21.3153  -33.1800 H   0  0  0  0  0  0  0  0  0  0  0  0
   -3.3817   22.6063  -32.8273 H   0  0  0  0  0  0  0  0  0  0  0  0
   -3.0343   21.7080  -34.3615 H   0  0  0  0  0  0  0  0  0  0  0  0
  1  2  1  0
  2  3  1  0
  3  4  1  0
  3  5  1  0
  5  6  1  0
  6  7  1  0
  7  8  1  0
  8  9  1  0
  9 10  1  0
 10 11  1  0
 11 12  1  0
 12 13  2  0
 13 14  1  0
 14 15  2  0
 15 16  1  0
 15 17  1  0
 17 18  2  0
 18 19  1  0
 19 20  1  0
 20 21  1  0
 21 22  1  0
 14 23  1  0
 23 24  1  0
 24 25  1  0
 25 26  1  0
 18 12  1  0
 26 13  1  0
 22 17  1  0
  1 27  1  0
  1 28  1  0
  1 29  1  0
  2 30  1  0
  2 31  1  0
  4 32  1  0
  4 33  1  0
  4 34  1  0
  5 35  1  0
  5 36  1  0
  6 37  1  0
  6 38  1  0
  8 39  1  0
  8 40  1  0
  9 41  1  0
  9 42  1  0
 10 43  1  0
 10 44  1  0
 11 45  1  0
 16 46  1  0
 16 47  1  0
 16 48  1  0
 19 49  1  0
 19 50  1  0
 20 51  1  0
 20 52  1  0
 21 53  1  0
 21 54  1  0
 22 55  1  0
 22 56  1  0
 23 57  1  0
 23 58  1  0
 24 59  1  0
 24 60  1  0
 25 61  1  0
 25 62  1  0
 26 63  1  0
 26 64  1  0
M  CHG  1  15   1
M  END
>  <UniqueID>  (6) 
6

>  <SMILES>  (6) 
CCN(C)CCOCCCNc1c2c([n+](C)c3c1CCCC3)CCCC2

>  <Energy>  (6) 
85.30032694392422

>  <Genealogy>  (6) 
CCN(C)CCOCCCNc1c2c([n+](C)c3c1CCCC3)CCCC2 (3D coordinates assigned)
CCN(C)CCOCCCNc1c2c([n+](C)c3c1CCCC3)CCCC2 (nonaromatic ring conformer: 85.30032694392422 kcal/mol)

>  <smiles>  (6) 
CCN(C)CCOCCCNc1c2c([n+](C)c3c1CCCC3)CCCC2

>  <score_type>  (6) 
oracle

>  <origin>  (6) 
adg

>  <m_score__min__energy>  (6) 
-8.8300000000000001

>  <m_primary>  (6) 
energy

$$$$
6:0
     RDKit          3D

 52 54  0  0  0  0  0  0  0  0999 V2000
   -6.8430   24.7850  -29.8380 C   0  0  0  0  0  0  0  0  0  0  0  0
   -5.6910   25.6870  -30.2630 C   0  0  0  0  0  0  0  0  0  0  0  0
   -4.8220   24.9810  -31.2110 N   0  0  0  0  0  0  0  0  0  0  0  0
   -4.0770   23.8900  -30.5590 C   0  0  0  0  0  0  0  0  0  0  0  0
   -3.9260   22.7130  -31.5280 C   0  0  0  0  0  0  0  0  0  0  0  0
   -5.0070   22.6990  -32.5290 N   0  0  0  0  0  0  0  0  0  0  0  0
   -5.5790   21.3660  -32.6460 C   0  0  0  0  0  0  0  0  0  0  0  0
   -6.9310   21.1200  -32.2760 C   0  0  0  0  0  0  0  0  0  0  0  0
   -7.4880   19.8290  -32.4910 C   0  0  0  0  0  0  0  0  0  0  0  0
   -6.6830   18.7840  -32.8980 N   0  0  0  0  0  0  0  0  0  0  0  0
   -7.1890   17.3950  -32.8810 C   0  0  0  0  0  0  0  0  0  0  0  0
   -5.4030   19.0270  -33.3420 C   0  0  0  0  0  0  0  0  0  0  0  0
   -4.8280   20.3080  -33.2180 C   0  0  0  0  0  0  0  0  0  0  0  0
   -3.4230   20.4860  -33.7810 C   0  0  0  0  0  0  0  0  0  0  0  0
   -2.5110   19.3320  -33.3360 C   0  0  0  0  0  0  0  0  0  0  0  0
   -3.1430   17.9350  -33.5300 C   0  0  0  0  0  0  0  0  0  0  0  0
   -4.5750   17.9790  -34.0790 C   0  0  0  0  0  0  0  0  0  0  0  0
   -8.9770   19.5980  -32.2590 C   0  0  0  0  0  0  0  0  0  0  0  0
   -9.7940   20.8830  -32.2800 C   0  0  0  0  0  0  0  0  0  0  0  0
   -9.1980   21.8630  -31.2870 C   0  0  0  0  0  0  0  0  0  0  0  0
   -7.7840   22.2580  -31.7120 C   0  0  0  0  0  0  0  0  0  0  0  0
   -6.8925   24.7463  -28.7398 H   0  0  0  0  0  0  0  0  0  0  0  0
   -7.7878   25.1859  -30.2337 H   0  0  0  0  0  0  0  0  0  0  0  0
   -6.6804   23.7716  -30.2337 H   0  0  0  0  0  0  0  0  0  0  0  0
   -6.0944   26.5909  -30.7428 H   0  0  0  0  0  0  0  0  0  0  0  0
   -5.1045   25.9650  -29.3749 H   0  0  0  0  0  0  0  0  0  0  0  0
   -4.1340   25.6690  -31.6000 H   0  0  0  0  0  0  0  0  0  0  0  0
   -3.0804   24.2523  -30.2664 H   0  0  0  0  0  0  0  0  0  0  0  0
   -4.6273   23.5573  -29.6665 H   0  0  0  0  0  0  0  0  0  0  0  0
   -2.9594   22.7977  -32.0462 H   0  0  0  0  0  0  0  0  0  0  0  0
   -3.9779   21.7790  -30.9492 H   0  0  0  0  0  0  0  0  0  0  0  0
   -5.7440   23.3980  -32.2920 H   0  0  0  0  0  0  0  0  0  0  0  0
   -4.6350   23.0390  -33.4400 H   0  0  0  0  0  0  0  0  0  0  0  0
   -7.3104   17.0617  -31.8398 H   0  0  0  0  0  0  0  0  0  0  0  0
   -8.1604   17.3523  -33.3953 H   0  0  0  0  0  0  0  0  0  0  0  0
   -6.4726   16.7375  -33.3953 H   0  0  0  0  0  0  0  0  0  0  0  0
   -3.4735   20.5036  -34.8797 H   0  0  0  0  0  0  0  0  0  0  0  0
   -3.0073   21.4319  -33.4036 H   0  0  0  0  0  0  0  0  0  0  0  0
   -1.5811   19.3776  -33.9219 H   0  0  0  0  0  0  0  0  0  0  0  0
   -2.3323   19.4588  -32.2580 H   0  0  0  0  0  0  0  0  0  0  0  0
   -2.5182   17.3655  -34.2337 H   0  0  0  0  0  0  0  0  0  0  0  0
   -3.1926   17.4630  -32.5377 H   0  0  0  0  0  0  0  0  0  0  0  0
   -4.5438   18.2308  -35.1493 H   0  0  0  0  0  0  0  0  0  0  0  0
   -5.0405   16.9932  -33.9322 H   0  0  0  0  0  0  0  0  0  0  0  0
   -9.3544   18.9309  -33.0480 H   0  0  0  0  0  0  0  0  0  0  0  0
   -9.0871   19.1570  -31.2573 H   0  0  0  0  0  0  0  0  0  0  0  0
   -9.7691   21.3195  -33.2894 H   0  0  0  0  0  0  0  0  0  0  0  0
  -10.8370   20.6650  -32.0069 H   0  0  0  0  0  0  0  0  0  0  0  0
   -9.8283   22.7635  -31.2435 H   0  0  0  0  0  0  0  0  0  0  0  0
   -9.1529   21.3852  -30.2972 H   0  0  0  0  0  0  0  0  0  0  0  0
   -7.8660   23.0368  -32.4845 H   0  0  0  0  0  0  0  0  0  0  0  0
   -7.2743   22.5972  -30.7981 H   0  0  0  0  0  0  0  0  0  0  0  0
  1  2  1  0
  2  3  1  0
  3  4  1  0
  4  5  1  0
  5  6  1  0
  6  7  1  0
  7  8  2  0
  8  9  1  0
  9 10  2  0
 10 11  1  0
 10 12  1  0
 12 13  2  0
 13 14  1  0
 14 15  1  0
 15 16  1  0
 16 17  1  0
  9 18  1  0
 18 19  1  0
 19 20  1  0
 20 21  1  0
 13  7  1  0
 21  8  1  0
 17 12  1  0
  1 22  1  0
  1 23  1  0
  1 24  1  0
  2 25  1  0
  2 26  1  0
  3 27  1  0
  4 28  1  0
  4 29  1  0
  5 30  1  0
  5 31  1  0
  6 32  1  0
  6 33  1  0
 11 34  1  0
 11 35  1  0
 11 36  1  0
 14 37  1  0
 14 38  1  0
 15 39  1  0
 15 40  1  0
 16 41  1  0
 16 42  1  0
 17 43  1  0
 17 44  1  0
 18 45  1  0
 18 46  1  0
 19 47  1  0
 19 48  1  0
 20 49  1  0
 20 50  1  0
 21 51  1  0
 21 52  1  0
M  CHG  2   6   1  10   1
M  END
>  <UniqueID>  (7) 
7

>  <SMILES>  (7) 
CCNCC[NH2+]c1c2c([n+](C)c3c1CCCC3)CCCC2

>  <Energy>  (7) 
69.93040500304348

>  <Genealogy>  (7) 
CCNCC[NH2+]c1c2c([n+](C)c3c1CCCC3)CCCC2 (protonated)
CCNCC[NH2+]c1c2c([n+](C)c3c1CCCC3)CCCC2 (3D coordinates assigned)
CCNCC[NH2+]c1c2c([n+](C)c3c1CCCC3)CCCC2 (nonaromatic ring conformer: 69.93040500304348 kcal/mol)

>  <smiles>  (7) 
CCNCCNc1c2c([n+](C)c3c1CCCC3)CCCC2

>  <score_type>  (7) 
oracle

>  <origin>  (7) 
adg

>  <m_score__min__energy>  (7) 
-7.9800000000000004

>  <m_primary>  (7) 
energy

$$$$
7:0
     RDKit          3D

 52 54  0  0  0  0  0  0  0  0999 V2000
   -1.2320   26.6790  -24.5210 C   0  0  0  0  0  0  0  0  0  0  0  0
   -0.2520   27.2110  -23.4760 C   0  0  0  0  0  0  0  0  0  0  0  0
    0.9190   26.3240  -23.3570 N   0  0  0  0  0  0  0  0  0  0  0  0
    1.8180   26.4130  -24.5240 C   0  0  0  0  0  0  0  0  0  0  0  0
    1.8140   25.1460  -25.3910 C   0  0  0  0  0  0  0  0  0  0  0  0
    0.6130   24.4310  -25.1900 O   0  0  0  0  0  0  0  0  0  0  0  0
    0.2840   23.7110  -26.3580 C   0  0  0  0  0  0  0  0  0  0  0  0
   -0.9290   22.8230  -26.0730 C   0  0  0  0  0  0  0  0  0  0  0  0
   -2.0710   23.2130  -26.9280 N   0  0  0  0  0  0  0  0  0  0  0  0
   -2.7700   22.0210  -27.4570 C   0  0  0  0  0  0  0  0  0  0  0  0
   -3.6000   22.3760  -28.6930 C   0  0  0  0  0  0  0  0  0  0  0  0
   -2.7280   22.8000  -29.8140 N   0  0  0  0  0  0  0  0  0  0  0  0
   -3.4690   23.5300  -30.8740 C   0  0  2  0  0  0  0  0  0  0  0  0
   -3.7890   24.8730  -30.4660 O   0  0  0  0  0  0  0  0  0  0  0  0
   -5.1620   25.0540  -30.4040 C   0  0  0  0  0  0  0  0  0  0  0  0
   -5.7220   26.1290  -30.0670 O   0  0  0  0  0  0  0  0  0  0  0  0
   -5.8230   23.8380  -30.7860 C   0  0  0  0  0  0  0  0  0  0  0  0
   -7.1800   23.5440  -30.9010 C   0  0  0  0  0  0  0  0  0  0  0  0
   -7.5420   22.2590  -31.3350 C   0  0  0  0  0  0  0  0  0  0  0  0
   -9.2360   21.8350  -31.4970 Cl  0  0  0  0  0  0  0  0  0  0  0  0
   -6.5460   21.3110  -31.6480 C   0  0  0  0  0  0  0  0  0  0  0  0
   -5.1840   21.6390  -31.5260 C   0  0  0  0  0  0  0  0  0  0  0  0
   -4.8390   22.9200  -31.0790 C   0  0  0  0  0  0  0  0  0  0  0  0
   -1.5160   23.5360  -29.3630 C   0  0  0  0  0  0  0  0  0  0  0  0
   -1.6910   24.1900  -27.9800 C   0  0  0  0  0  0  0  0  0  0  0  0
   -2.0904   26.2130  -24.0150 H   0  0  0  0  0  0  0  0  0  0  0  0
   -1.5840   27.5099  -25.1501 H   0  0  0  0  0  0  0  0  0  0  0  0
   -0.7270   25.9312  -25.1501 H   0  0  0  0  0  0  0  0  0  0  0  0
    0.0847   28.2145  -23.7753 H   0  0  0  0  0  0  0  0  0  0  0  0
   -0.7629   27.2529  -22.5027 H   0  0  0  0  0  0  0  0  0  0  0  0
    0.6040   25.3350  -23.2190 H   0  0  0  0  0  0  0  0  0  0  0  0
    1.4710   26.6060  -22.5120 H   0  0  0  0  0  0  0  0  0  0  0  0
    1.4999   27.2627  -25.1459 H   0  0  0  0  0  0  0  0  0  0  0  0
    2.8404   26.5413  -24.1389 H   0  0  0  0  0  0  0  0  0  0  0  0
    1.8974   25.4288  -26.4508 H   0  0  0  0  0  0  0  0  0  0  0  0
    2.6660   24.5104  -25.1081 H   0  0  0  0  0  0  0  0  0  0  0  0
    0.0434   24.4143  -27.1689 H   0  0  0  0  0  0  0  0  0  0  0  0
    1.1374   23.0868  -26.6616 H   0  0  0  0  0  0  0  0  0  0  0  0
   -0.6657   21.7747  -26.2772 H   0  0  0  0  0  0  0  0  0  0  0  0
   -1.2175   22.9439  -25.0184 H   0  0  0  0  0  0  0  0  0  0  0  0
   -2.0253   21.2590  -27.7304 H   0  0  0  0  0  0  0  0  0  0  0  0
   -3.4462   21.6370  -26.6790 H   0  0  0  0  0  0  0  0  0  0  0  0
   -4.1802   21.4941  -29.0022 H   0  0  0  0  0  0  0  0  0  0  0  0
   -4.2717   23.2086  -28.4370 H   0  0  0  0  0  0  0  0  0  0  0  0
   -2.8213   23.4905  -31.7622 H   0  0  0  0  0  0  0  0  0  0  0  0
   -7.9450   24.2964  -30.6589 H   0  0  0  0  0  0  0  0  0  0  0  0
   -6.8368   20.3069  -31.9903 H   0  0  0  0  0  0  0  0  0  0  0  0
   -4.4053   20.9037  -31.7768 H   0  0  0  0  0  0  0  0  0  0  0  0
   -0.6747   22.8291  -29.3129 H   0  0  0  0  0  0  0  0  0  0  0  0
   -1.3311   24.3424  -30.0880 H   0  0  0  0  0  0  0  0  0  0  0  0
   -0.7414   24.6650  -27.6926 H   0  0  0  0  0  0  0  0  0  0  0  0
   -2.5054   24.9250  -28.0607 H   0  0  0  0  0  0  0  0  0  0  0  0
  1  2  1  0
  2  3  1  0
  3  4  1  0
  4  5  1  0
  5  6  1  0
  6  7  1  0
  7  8  1  0
  8  9  1  0
  9 10  1  0
 10 11  1  0
 11 12  1  0
 12 13  1  0
 13 14  1  0
 14 15  1  0
 15 16  2  0
 15 17  1  0
 17 18  2  0
 18 19  1  0
 19 20  1  0
 19 21  2  0
 21 22  1  0
 22 23  2  0
 12 24  1  0
 24 25  1  0
 25  9  1  0
 23 13  1  0
 23 17  1  0
  1 26  1  0
  1 27  1  0
  1 28  1  0
  2 29  1  0
  2 30  1  0
  3 31  1  0
  3 32  1  0
  4 33  1  0
  4 34  1  0
  5 35  1  0
  5 36  1  0
  7 37  1  0
  7 38  1  0
  8 39  1  0
  8 40  1  0
 10 41  1  0
 10 42  1  0
 11 43  1  0
 11 44  1  0
 13 45  1  6
 18 46  1  0
 21 47  1  0
 22 48  1  0
 24 49  1  0
 24 50  1  0
 25 51  1  0
 25 52  1  0
M  CHG  1   3   1
M  END
>  <UniqueID>  (8) 
8

>  <SMILES>  (8) 
CC[NH2+]CCOCCN1CCN([C@@H]2OC(=O)c3cc(Cl)ccc32)CC1

>  <Energy>  (8) 
87.76023478196242

>  <Genealogy>  (8) 
CC[NH2+]CCOCCN1CCN(C2OC(=O)c3cc(Cl)ccc32)CC1 (protonated)
CC[NH2+]CCOCCN1CCN([C@@H]2OC(=O)c3cc(Cl)ccc32)CC1 (chirality)
CC[NH2+]CCOCCN1CCN([C@@H]2OC(=O)c3cc(Cl)ccc32)CC1 (3D coordinates assigned)
CC[NH2+]CCOCCN1CCN([C@@H]2OC(=O)c3cc(Cl)ccc32)CC1 (nonaromatic ring conformer: 87.76023478196242 kcal/mol)

>  <smiles>  (8) 
CCNCCOCCN1CCN(C2OC(=O)c3cc(Cl)ccc32)CC1

>  <score_type>  (8) 
oracle

>  <origin>  (8) 
adg

>  <m_score__min__energy>  (8) 
-8.8200000000000003

>  <m_primary>  (8) 
energy

$$$$
8:0
     RDKit          3D

 57 60  0  0  0  0  0  0  0  0999 V2000
   -8.7820   18.6260  -31.4490 C   0  0  0  0  0  0  0  0  0  0  0  0
   -8.5080   19.4300  -32.7200 C   0  0  0  0  0  0  0  0  0  0  0  0
   -7.1500   20.0060  -32.6980 N   0  0  0  0  0  0  0  0  0  0  0  0
   -6.0730   19.2630  -33.1300 C   0  0  0  0  0  0  0  0  0  0  0  0
   -4.8280   19.8420  -33.3250 C   0  0  0  0  0  0  0  0  0  0  0  0
   -4.5780   21.1660  -32.9910 C   0  0  0  0  0  0  0  0  0  0  0  0
   -3.2610   21.7200  -33.1340 N   0  0  0  0  0  0  0  0  0  0  0  0
   -2.3920   21.9340  -31.9780 C   0  0  0  0  0  0  0  0  0  0  0  0
   -1.2990   20.8600  -31.9180 C   0  0  0  0  0  0  0  0  0  0  0  0
   -0.2340   21.0970  -33.0090 C   0  0  0  0  0  0  0  0  0  0  0  0
   -0.4000   20.2630  -34.2280 N   0  0  1  0  0  0  0  0  0  0  0  0
   -0.0890   21.0240  -35.4520 C   0  0  0  0  0  0  0  0  0  0  0  0
    0.3620   18.9890  -34.2140 C   0  0  0  0  0  0  0  0  0  0  0  0
   -0.0410   18.0390  -35.3480 C   0  0  0  0  0  0  0  0  0  0  0  0
   -5.6430   21.9270  -32.4680 C   0  0  0  0  0  0  0  0  0  0  0  0
   -5.4430   23.2710  -32.0930 C   0  0  0  0  0  0  0  0  0  0  0  0
   -6.4810   24.0160  -31.5420 C   0  0  0  0  0  0  0  0  0  0  0  0
   -7.7300   23.4390  -31.3530 C   0  0  0  0  0  0  0  0  0  0  0  0
   -7.9600   22.1130  -31.7230 C   0  0  0  0  0  0  0  0  0  0  0  0
   -6.9330   21.3230  -32.3040 C   0  0  0  0  0  0  0  0  0  0  0  0
   -3.9440   18.8670  -33.9550 C   0  0  0  0  0  0  0  0  0  0  0  0
   -2.7700   19.0620  -34.3680 O   0  0  0  0  0  0  0  0  0  0  0  0
   -4.6980   17.6360  -34.0730 C   0  0  0  0  0  0  0  0  0  0  0  0
   -4.2660   16.3940  -34.5390 C   0  0  0  0  0  0  0  0  0  0  0  0
   -5.1540   15.3130  -34.4700 C   0  0  0  0  0  0  0  0  0  0  0  0
   -6.4350   15.4830  -33.9150 C   0  0  0  0  0  0  0  0  0  0  0  0
   -6.8490   16.7400  -33.4430 C   0  0  0  0  0  0  0  0  0  0  0  0
   -5.9750   17.8360  -33.5640 C   0  0  0  0  0  0  0  0  0  0  0  0
   -8.5696   19.2493  -30.5679 H   0  0  0  0  0  0  0  0  0  0  0  0
   -9.8369   18.3148  -31.4323 H   0  0  0  0  0  0  0  0  0  0  0  0
   -8.1367   17.7353  -31.4323 H   0  0  0  0  0  0  0  0  0  0  0  0
   -8.6037   18.7672  -33.5927 H   0  0  0  0  0  0  0  0  0  0  0  0
   -9.2367   20.2519  -32.7790 H   0  0  0  0  0  0  0  0  0  0  0  0
   -2.9750   22.1100  -34.0600 H   0  0  0  0  0  0  0  0  0  0  0  0
   -1.9211   22.9249  -32.0583 H   0  0  0  0  0  0  0  0  0  0  0  0
   -2.9987   21.8740  -31.0624 H   0  0  0  0  0  0  0  0  0  0  0  0
   -0.8161   20.8923  -30.9302 H   0  0  0  0  0  0  0  0  0  0  0  0
   -1.7626   19.8769  -32.0869 H   0  0  0  0  0  0  0  0  0  0  0  0
   -0.2790   22.1546  -33.3082 H   0  0  0  0  0  0  0  0  0  0  0  0
    0.7328   20.8140  -32.5672 H   0  0  0  0  0  0  0  0  0  0  0  0
   -1.4180   20.0170  -34.2870 H   0  0  0  0  0  0  0  0  0  0  0  0
    0.3140   22.0102  -35.1781 H   0  0  0  0  0  0  0  0  0  0  0  0
    0.6569   20.4750  -36.0455 H   0  0  0  0  0  0  0  0  0  0  0  0
   -1.0059   21.1545  -36.0455 H   0  0  0  0  0  0  0  0  0  0  0  0
    1.4329   19.2197  -34.3135 H   0  0  0  0  0  0  0  0  0  0  0  0
    0.1386   18.4817  -33.2639 H   0  0  0  0  0  0  0  0  0  0  0  0
   -0.4369   17.1057  -34.9212 H   0  0  0  0  0  0  0  0  0  0  0  0
   -0.8144   18.5156  -35.9682 H   0  0  0  0  0  0  0  0  0  0  0  0
    0.8392   17.8141  -35.9682 H   0  0  0  0  0  0  0  0  0  0  0  0
   -4.4564   23.7355  -32.2374 H   0  0  0  0  0  0  0  0  0  0  0  0
   -6.3119   25.0645  -31.2554 H   0  0  0  0  0  0  0  0  0  0  0  0
   -8.5436   24.0311  -30.9086 H   0  0  0  0  0  0  0  0  0  0  0  0
   -8.9547   21.6720  -31.5616 H   0  0  0  0  0  0  0  0  0  0  0  0
   -3.2537   16.2669  -34.9502 H   0  0  0  0  0  0  0  0  0  0  0  0
   -4.8483   14.3275  -34.8513 H   0  0  0  0  0  0  0  0  0  0  0  0
   -7.1191   14.6240  -33.8498 H   0  0  0  0  0  0  0  0  0  0  0  0
   -7.8416   16.8654  -32.9857 H   0  0  0  0  0  0  0  0  0  0  0  0
  1  2  1  0
  2  3  1  0
  3  4  2  0
  4  5  1  0
  5  6  2  0
  6  7  1  0
  7  8  1  0
  8  9  1  0
  9 10  1  0
 10 11  1  0
 11 12  1  0
 11 13  1  0
 13 14  1  0
  6 15  1  0
 15 16  2  0
 16 17  1  0
 17 18  2  0
 18 19  1  0
 19 20  2  0
  5 21  1  0
 21 22  2  0
 21 23  1  0
 23 24  2  0
 24 25  1  0
 25 26  2  0
 26 27  1  0
 27 28  2  0
 20  3  1  0
 28 23  1  0
 28  4  1  0
 20 15  1  0
  1 29  1  0
  1 30  1  0
  1 31  1  0
  2 32  1  0
  2 33  1  0
  7 34  1  0
  8 35  1  0
  8 36  1  0
  9 37  1  0
  9 38  1  0
 10 39  1  0
 10 40  1  0
 11 41  1  6
 12 42  1  0
 12 43  1  0
 12 44  1  0
 13 45  1  0
 13 46  1  0
 14 47  1  0
 14 48  1  0
 14 49  1  0
 16 50  1  0
 17 51  1  0
 18 52  1  0
 19 53  1  0
 24 54  1  0
 25 55  1  0
 26 56  1  0
 27 57  1  0
M  CHG  2   3   1  11   1
M  END
>  <UniqueID>  (9) 
9

>  <SMILES>  (9) 
CC[n+]1c2c(c(NCCC[N@@H+](C)CC)c3ccccc31)C(=O)c1ccccc1-2

>  <Energy>  (9) 
111.47646213066429

>  <Genealogy>  (9) 
CC[n+]1c2c(c(NCCC[NH+](C)CC)c3ccccc31)C(=O)c1ccccc1-2 (protonated)
CC[n+]1c2c(c(NCCC[N@@H+](C)CC)c3ccccc31)C(=O)c1ccccc1-2 (chirality)
CC[n+]1c2c(c(NCCC[N@@H+](C)CC)c3ccccc31)C(=O)c1ccccc1-2 (3D coordinates assigned)
CC[n+]1c2c(c(NCCC[N@@H+](C)CC)c3ccccc31)C(=O)c1ccccc1-2 (nonaromatic ring conformer: 111.47646213066429 kcal/mol)

>  <smiles>  (9) 
CCN(C)CCCNc1c2c([n+](CC)c3ccccc13)-c1ccccc1C2=O

>  <score_type>  (9) 
oracle

>  <origin>  (9) 
adg

>  <m_score__min__energy>  (9) 
-7.3700000000000001

>  <m_primary>  (9) 
energy

$$$$
9:0
     RDKit          3D

 32 33  0  0  0  0  0  0  0  0999 V2000
   -6.2100   17.6470  -31.0980 C   0  0  0  0  0  0  0  0  0  0  0  0
   -7.3020   18.2930  -31.8180 N   0  0  0  0  0  0  0  0  0  0  0  0
   -8.6200   18.1690  -31.5660 C   0  0  0  0  0  0  0  0  0  0  0  0
   -9.3490   18.9720  -32.3670 N   0  0  0  0  0  0  0  0  0  0  0  0
   -8.4850   19.6180  -33.1350 N   0  0  0  0  0  0  0  0  0  0  0  0
   -7.2490   19.2090  -32.8040 C   0  0  0  0  0  0  0  0  0  0  0  0
   -5.7480   19.8310  -33.5720 S   0  0  0  0  0  0  0  0  0  0  0  0
   -5.3200   20.9580  -32.1940 C   0  0  0  0  0  0  0  0  0  0  0  0
   -6.0370   22.3110  -32.3010 C   0  0  0  0  0  0  0  0  0  0  0  0
   -5.2300   23.4150  -31.7380 N   0  0  0  0  0  0  0  0  0  0  0  0
   -6.0940   24.3490  -30.9940 C   0  0  0  0  0  0  0  0  0  0  0  0
   -5.2610   25.5420  -30.4770 C   0  0  0  0  0  0  0  0  0  0  0  0
   -3.8650   25.3020  -30.5380 O   0  0  0  0  0  0  0  0  0  0  0  0
   -3.5710   24.0380  -29.9790 C   0  0  0  0  0  0  0  0  0  0  0  0
   -4.1510   22.9120  -30.8560 C   0  0  0  0  0  0  0  0  0  0  0  0
   -6.3761   17.7452  -30.0151 H   0  0  0  0  0  0  0  0  0  0  0  0
   -6.1726   16.5813  -31.3680 H   0  0  0  0  0  0  0  0  0  0  0  0
   -5.2580   18.1273  -31.3680 H   0  0  0  0  0  0  0  0  0  0  0  0
   -9.0462   17.4989  -30.8048 H   0  0  0  0  0  0  0  0  0  0  0  0
   -8.7420   20.3200  -33.8640 H   0  0  0  0  0  0  0  0  0  0  0  0
   -5.6061   20.4806  -31.2452 H   0  0  0  0  0  0  0  0  0  0  0  0
   -4.2374   21.1474  -32.2393 H   0  0  0  0  0  0  0  0  0  0  0  0
   -6.2373   22.5233  -33.3616 H   0  0  0  0  0  0  0  0  0  0  0  0
   -6.9709   22.2457  -31.7234 H   0  0  0  0  0  0  0  0  0  0  0  0
   -6.8873   24.7200  -31.6596 H   0  0  0  0  0  0  0  0  0  0  0  0
   -6.5409   23.8228  -30.1376 H   0  0  0  0  0  0  0  0  0  0  0  0
   -5.4933   26.4253  -31.0900 H   0  0  0  0  0  0  0  0  0  0  0  0
   -5.5253   25.6988  -29.4208 H   0  0  0  0  0  0  0  0  0  0  0  0
   -2.4798   23.9176  -29.9102 H   0  0  0  0  0  0  0  0  0  0  0  0
   -4.0230   23.9779  -28.9780 H   0  0  0  0  0  0  0  0  0  0  0  0
   -3.3466   22.4925  -31.4781 H   0  0  0  0  0  0  0  0  0  0  0  0
   -4.5751   22.1419  -30.1949 H   0  0  0  0  0  0  0  0  0  0  0  0
  1  2  1  0
  2  3  1  0
  3  4  2  0
  4  5  1  0
  5  6  2  0
  6  7  1  0
  7  8  1  0
  8  9  1  0
  9 10  1  0
 10 11  1  0
 11 12  1  0
 12 13  1  0
 13 14  1  0
 14 15  1  0
  6  2  1  0
 15 10  1  0
  1 16  1  0
  1 17  1  0
  1 18  1  0
  3 19  1  0
  5 20  1  0
  8 21  1  0
  8 22  1  0
  9 23  1  0
  9 24  1  0
 11 25  1  0
 11 26  1  0
 12 27  1  0
 12 28  1  0
 14 29  1  0
 14 30  1  0
 15 31  1  0
 15 32  1  0
M  CHG  1   5   1
M  END
>  <UniqueID>  (10) 
10

>  <SMILES>  (10) 
Cn1cn[nH+]c1SCCN1CCOCC1

>  <Energy>  (10) 
69.1131156008623

>  <Genealogy>  (10) 
Cn1cn[nH+]c1SCCN1CCOCC1 (protonated)
Cn1cn[nH+]c1SCCN1CCOCC1 (3D coordinates assigned)
Cn1cn[nH+]c1SCCN1CCOCC1 (nonaromatic ring conformer: 69.1131156008623 kcal/mol)

>  <smiles>  (10) 
Cn1cnnc1SCCN1CCOCC1

>  <score_type>  (10) 
oracle

>  <origin>  (10) 
adg

>  <m_score__min__energy>  (10) 
-6.5300000000000002

>  <m_primary>  (10) 
energy

$$$$
10:0
     RDKit          3D

 57 59  0  0  0  0  0  0  0  0999 V2000
   -6.0960   25.6200  -29.5950 C   0  0  0  0  0  0  0  0  0  0  0  0
   -5.2390   25.4680  -30.8410 C   0  0  0  0  0  0  0  0  0  0  0  0
   -3.8740   25.3090  -30.4630 O   0  0  0  0  0  0  0  0  0  0  0  0
   -3.3790   24.2380  -29.7030 C   0  0  0  0  0  0  0  0  0  0  0  0
   -3.9880   22.9700  -29.7130 C   0  0  0  0  0  0  0  0  0  0  0  0
   -3.4700   21.9310  -28.9400 C   0  0  0  0  0  0  0  0  0  0  0  0
   -2.3460   22.1400  -28.1290 C   0  0  0  0  0  0  0  0  0  0  0  0
   -1.7770   21.0050  -27.2940 C   0  0  0  0  0  0  0  0  0  0  0  0
   -0.8950   20.0700  -28.0380 N   0  0  0  0  0  0  0  0  0  0  0  0
    0.4970   20.5520  -28.1370 C   0  0  0  0  0  0  0  0  0  0  0  0
    1.3020   19.6880  -29.1300 C   0  0  0  0  0  0  0  0  0  0  0  0
    0.9640   18.2420  -29.0700 N   0  0  0  0  0  0  0  0  0  0  0  0
    0.2130   17.7680  -30.2520 C   0  0  0  0  0  0  0  0  0  0  0  0
    0.0910   18.8750  -31.2660 C   0  0  0  0  0  0  0  0  0  0  0  0
   -1.0470   19.6970  -31.2730 C   0  0  0  0  0  0  0  0  0  0  0  0
   -1.1730   20.7180  -32.2200 C   0  0  0  0  0  0  0  0  0  0  0  0
   -0.1660   20.9230  -33.1680 C   0  0  0  0  0  0  0  0  0  0  0  0
   -0.2890   21.9130  -34.0860 F   0  0  0  0  0  0  0  0  0  0  0  0
    0.9700   20.1070  -33.1690 C   0  0  0  0  0  0  0  0  0  0  0  0
    1.0990   19.0850  -32.2220 C   0  0  0  0  0  0  0  0  0  0  0  0
    0.3120   17.8590  -27.8010 C   0  0  0  0  0  0  0  0  0  0  0  0
   -0.9680   18.6770  -27.5230 C   0  0  0  0  0  0  0  0  0  0  0  0
   -1.7210   23.3970  -28.1380 C   0  0  0  0  0  0  0  0  0  0  0  0
   -2.2360   24.4520  -28.9170 C   0  0  0  0  0  0  0  0  0  0  0  0
   -1.6500   25.7310  -28.9360 O   0  0  0  0  0  0  0  0  0  0  0  0
   -0.8630   26.3050  -27.8930 C   0  0  0  0  0  0  0  0  0  0  0  0
   -1.5640   26.1600  -26.5450 C   0  0  0  0  0  0  0  0  0  0  0  0
   -5.4656   25.5082  -28.7005 H   0  0  0  0  0  0  0  0  0  0  0  0
   -6.5645   26.6153  -29.5914 H   0  0  0  0  0  0  0  0  0  0  0  0
   -6.8782   24.8466  -29.5914 H   0  0  0  0  0  0  0  0  0  0  0  0
   -5.5681   24.5838  -31.4066 H   0  0  0  0  0  0  0  0  0  0  0  0
   -5.3432   26.3651  -31.4690 H   0  0  0  0  0  0  0  0  0  0  0  0
   -4.8788   22.7967  -30.3347 H   0  0  0  0  0  0  0  0  0  0  0  0
   -3.9471   20.9402  -28.9670 H   0  0  0  0  0  0  0  0  0  0  0  0
   -1.1944   21.4439  -26.4706 H   0  0  0  0  0  0  0  0  0  0  0  0
   -2.6366   20.4125  -26.9476 H   0  0  0  0  0  0  0  0  0  0  0  0
   -1.2760   20.0600  -29.0140 H   0  0  0  0  0  0  0  0  0  0  0  0
    0.4943   21.5954  -28.4854 H   0  0  0  0  0  0  0  0  0  0  0  0
    0.9673   20.4831  -27.1450 H   0  0  0  0  0  0  0  0  0  0  0  0
    1.1006   20.0503  -30.1489 H   0  0  0  0  0  0  0  0  0  0  0  0
    2.3626   19.7832  -28.8543 H   0  0  0  0  0  0  0  0  0  0  0  0
    0.7448   16.9177  -30.7039 H   0  0  0  0  0  0  0  0  0  0  0  0
   -0.7937   17.4555  -29.9373 H   0  0  0  0  0  0  0  0  0  0  0  0
   -1.8427   19.5372  -30.5305 H   0  0  0  0  0  0  0  0  0  0  0  0
   -2.0656   21.3608  -32.2191 H   0  0  0  0  0  0  0  0  0  0  0  0
    1.7624   20.2688  -33.9146 H   0  0  0  0  0  0  0  0  0  0  0  0
    1.9927   18.4437  -32.2260 H   0  0  0  0  0  0  0  0  0  0  0  0
    0.0457   16.7928  -27.8490 H   0  0  0  0  0  0  0  0  0  0  0  0
    1.0221   18.0624  -26.9859 H   0  0  0  0  0  0  0  0  0  0  0  0
   -1.8181   18.1705  -28.0035 H   0  0  0  0  0  0  0  0  0  0  0  0
   -1.0872   18.7374  -26.4312 H   0  0  0  0  0  0  0  0  0  0  0  0
   -0.8190   23.5601  -27.5300 H   0  0  0  0  0  0  0  0  0  0  0  0
    0.1095   25.7927  -27.8510 H   0  0  0  0  0  0  0  0  0  0  0  0
   -0.7223   27.3752  -28.1047 H   0  0  0  0  0  0  0  0  0  0  0  0
   -0.8354   26.3107  -25.7348 H   0  0  0  0  0  0  0  0  0  0  0  0
   -2.3628   26.9119  -26.4644 H   0  0  0  0  0  0  0  0  0  0  0  0
   -1.9990   25.1529  -26.4644 H   0  0  0  0  0  0  0  0  0  0  0  0
  1  2  1  0
  2  3  1  0
  3  4  1  0
  4  5  2  0
  5  6  1  0
  6  7  2  0
  7  8  1  0
  8  9  1  0
  9 10  1  0
 10 11  1  0
 11 12  1  0
 12 13  1  0
 13 14  1  0
 14 15  2  0
 15 16  1  0
 16 17  2  0
 17 18  1  0
 17 19  1  0
 19 20  2  0
 12 21  1  0
 21 22  1  0
  7 23  1  0
 23 24  2  0
 24 25  1  0
 25 26  1  0
 26 27  1  0
 24  4  1  0
 22  9  1  0
 20 14  1  0
  1 28  1  0
  1 29  1  0
  1 30  1  0
  2 31  1  0
  2 32  1  0
  5 33  1  0
  6 34  1  0
  8 35  1  0
  8 36  1  0
  9 37  1  0
 10 38  1  0
 10 39  1  0
 11 40  1  0
 11 41  1  0
 13 42  1  0
 13 43  1  0
 15 44  1  0
 16 45  1  0
 19 46  1  0
 20 47  1  0
 21 48  1  0
 21 49  1  0
 22 50  1  0
 22 51  1  0
 23 52  1  0
 26 53  1  0
 26 54  1  0
 27 55  1  0
 27 56  1  0
 27 57  1  0
M  CHG  1   9   1
M  END
>  <UniqueID>  (11) 
11

>  <SMILES>  (11) 
CCOc1ccc(C[NH+]2CCN(Cc3ccc(F)cc3)CC2)cc1OCC

>  <Energy>  (11) 
68.2082599946237

>  <Genealogy>  (11) 
CCOc1ccc(C[NH+]2CCN(Cc3ccc(F)cc3)CC2)cc1OCC (protonated)
CCOc1ccc(C[NH+]2CCN(Cc3ccc(F)cc3)CC2)cc1OCC (3D coordinates assigned)
CCOc1ccc(C[NH+]2CCN(Cc3ccc(F)cc3)CC2)cc1OCC (nonaromatic ring conformer: 68.2082599946237 kcal/mol)

>  <smiles>  (11) 
CCOc1ccc(CN2CCN(Cc3ccc(F)cc3)CC2)cc1OCC

>  <score_type>  (11) 
oracle

>  <origin>  (11) 
adg

>  <m_score__min__energy>  (11) 
-7.9500000000000002

>  <m_primary>  (11) 
energy

$$$$
11:0
     RDKit          3D

 68 71  0  0  0  0  0  0  0  0999 V2000
   -0.1680   22.6930  -24.4090 C   0  0  0  0  0  0  0  0  0  0  0  0
   -0.1680   23.4210  -25.7500 C   0  0  0  0  0  0  0  0  0  0  0  0
   -1.1220   22.8070  -26.6800 N   0  0  0  0  0  0  0  0  0  0  0  0
   -2.1040   23.6310  -27.3930 C   0  0  0  0  0  0  0  0  0  0  0  0
   -1.4400   24.8750  -27.9980 C   0  0  0  0  0  0  0  0  0  0  0  0
   -1.9400   25.1390  -29.2960 O   0  0  0  0  0  0  0  0  0  0  0  0
   -2.9170   24.1880  -29.6770 C   0  0  0  0  0  0  0  0  0  0  0  0
   -4.2840   24.8580  -29.7890 C   0  0  0  0  0  0  0  0  0  0  0  0
   -5.0080   24.3540  -30.9670 N   0  0  0  0  0  0  0  0  0  0  0  0
   -6.4610   24.5140  -30.8090 C   0  0  0  0  0  0  0  0  0  0  0  0
   -7.2200   23.3890  -31.5320 C   0  0  0  0  0  0  0  0  0  0  0  0
   -6.5080   22.8830  -32.7210 N   0  0  0  0  0  0  0  0  0  0  0  0
   -6.1320   21.4790  -32.5740 C   0  0  0  0  0  0  0  0  0  0  0  0
   -4.7680   21.0580  -32.5810 C   0  0  0  0  0  0  0  0  0  0  0  0
   -3.6830   21.9740  -32.5060 C   0  0  0  0  0  0  0  0  0  0  0  0
   -2.3630   21.5330  -32.4840 C   0  0  0  0  0  0  0  0  0  0  0  0
   -2.0790   20.1780  -32.5240 C   0  0  0  0  0  0  0  0  0  0  0  0
   -3.1130   19.2530  -32.5970 C   0  0  0  0  0  0  0  0  0  0  0  0
   -4.4690   19.6650  -32.6510 C   0  0  0  0  0  0  0  0  0  0  0  0
   -5.4840   18.7380  -32.7530 N   0  0  0  0  0  0  0  0  0  0  0  0
   -5.1810   17.3480  -33.1630 C   0  0  0  0  0  0  0  0  0  0  0  0
   -6.7850   19.1070  -32.4870 C   0  0  0  0  0  0  0  0  0  0  0  0
   -7.7910   18.1340  -32.2550 C   0  0  0  0  0  0  0  0  0  0  0  0
   -9.1160   18.5010  -32.0510 C   0  0  0  0  0  0  0  0  0  0  0  0
   -9.4760   19.8390  -32.0650 C   0  0  0  0  0  0  0  0  0  0  0  0
   -8.5080   20.8220  -32.2500 C   0  0  0  0  0  0  0  0  0  0  0  0
   -7.1420   20.4840  -32.4370 C   0  0  0  0  0  0  0  0  0  0  0  0
   -0.9790   21.4240  -27.0320 C   0  0  0  0  0  0  0  0  0  0  0  0
   -1.9310   20.4850  -26.6160 C   0  0  0  0  0  0  0  0  0  0  0  0
   -1.7720   19.1450  -26.9760 C   0  0  0  0  0  0  0  0  0  0  0  0
   -0.6720   18.7590  -27.7440 C   0  0  0  0  0  0  0  0  0  0  0  0
    0.2580   19.7230  -28.1390 C   0  0  0  0  0  0  0  0  0  0  0  0
    0.0850   21.0240  -27.7790 N   0  0  0  0  0  0  0  0  0  0  0  0
    0.8691   22.5181  -24.0868 H   0  0  0  0  0  0  0  0  0  0  0  0
   -0.6865   23.3074  -23.6582 H   0  0  0  0  0  0  0  0  0  0  0  0
   -0.6865   21.7287  -24.5153 H   0  0  0  0  0  0  0  0  0  0  0  0
   -0.4483   24.4724  -25.5888 H   0  0  0  0  0  0  0  0  0  0  0  0
    0.8398   23.3540  -26.1858 H   0  0  0  0  0  0  0  0  0  0  0  0
   -2.5555   23.0354  -28.2001 H   0  0  0  0  0  0  0  0  0  0  0  0
   -2.8742   23.9566  -26.6783 H   0  0  0  0  0  0  0  0  0  0  0  0
   -1.6436   25.7413  -27.3514 H   0  0  0  0  0  0  0  0  0  0  0  0
   -0.3576   24.6930  -28.0708 H   0  0  0  0  0  0  0  0  0  0  0  0
   -2.6431   23.7547  -30.6503 H   0  0  0  0  0  0  0  0  0  0  0  0
   -2.9652   23.3957  -28.9154 H   0  0  0  0  0  0  0  0  0  0  0  0
   -4.8694   24.6405  -28.8835 H   0  0  0  0  0  0  0  0  0  0  0  0
   -4.1414   25.9435  -29.8956 H   0  0  0  0  0  0  0  0  0  0  0  0
   -4.8120   23.3260  -31.0420 H   0  0  0  0  0  0  0  0  0  0  0  0
   -6.7117   24.4870  -29.7383 H   0  0  0  0  0  0  0  0  0  0  0  0
   -6.7579   25.4772  -31.2496 H   0  0  0  0  0  0  0  0  0  0  0  0
   -7.3639   22.5554  -30.8288 H   0  0  0  0  0  0  0  0  0  0  0  0
   -8.1776   23.8071  -31.8758 H   0  0  0  0  0  0  0  0  0  0  0  0
   -7.0790   23.0900  -33.5610 H   0  0  0  0  0  0  0  0  0  0  0  0
   -5.6550   23.4610  -32.8880 H   0  0  0  0  0  0  0  0  0  0  0  0
   -3.8911   23.0533  -32.4645 H   0  0  0  0  0  0  0  0  0  0  0  0
   -1.5421   22.2635  -32.4347 H   0  0  0  0  0  0  0  0  0  0  0  0
   -1.0345   19.8341  -32.4980 H   0  0  0  0  0  0  0  0  0  0  0  0
   -2.8751   18.1792  -32.6132 H   0  0  0  0  0  0  0  0  0  0  0  0
   -5.0448   16.7232  -32.2680 H   0  0  0  0  0  0  0  0  0  0  0  0
   -6.0141   16.9528  -33.7628 H   0  0  0  0  0  0  0  0  0  0  0  0
   -4.2590   17.3353  -33.7628 H   0  0  0  0  0  0  0  0  0  0  0  0
   -7.5172   17.0688  -32.2362 H   0  0  0  0  0  0  0  0  0  0  0  0
   -9.8797   17.7284  -31.8782 H   0  0  0  0  0  0  0  0  0  0  0  0
  -10.5295   20.1251  -31.9296 H   0  0  0  0  0  0  0  0  0  0  0  0
   -8.8071   21.8805  -32.2513 H   0  0  0  0  0  0  0  0  0  0  0  0
   -2.7949   20.7995  -26.0121 H   0  0  0  0  0  0  0  0  0  0  0  0
   -2.5112   18.3961  -26.6554 H   0  0  0  0  0  0  0  0  0  0  0  0
   -0.5392   17.7065  -28.0350 H   0  0  0  0  0  0  0  0  0  0  0  0
    1.1307   19.4306  -28.7414 H   0  0  0  0  0  0  0  0  0  0  0  0
  1  2  1  0
  2  3  1  0
  3  4  1  0
  4  5  1  0
  5  6  1  0
  6  7  1  0
  7  8  1  0
  8  9  1  0
  9 10  1  0
 10 11  1  0
 11 12  1  0
 12 13  1  0
 13 14  1  0
 14 15  2  0
 15 16  1  0
 16 17  2  0
 17 18  1  0
 18 19  2  0
 19 20  1  0
 20 21  1  0
 20 22  2  0
 22 23  1  0
 23 24  2  0
 24 25  1  0
 25 26  2  0
 26 27  1  0
  3 28  1  0
 28 29  2  0
 29 30  1  0
 30 31  2  0
 31 32  1  0
 32 33  2  0
 27 13  2  0
 33 28  1  0
 19 14  1  0
 27 22  1  0
  1 34  1  0
  1 35  1  0
  1 36  1  0
  2 37  1  0
  2 38  1  0
  4 39  1  0
  4 40  1  0
  5 41  1  0
  5 42  1  0
  7 43  1  0
  7 44  1  0
  8 45  1  0
  8 46  1  0
  9 47  1  0
 10 48  1  0
 10 49  1  0
 11 50  1  0
 11 51  1  0
 12 52  1  0
 12 53  1  0
 15 54  1  0
 16 55  1  0
 17 56  1  0
 18 57  1  0
 21 58  1  0
 21 59  1  0
 21 60  1  0
 23 61  1  0
 24 62  1  0
 25 63  1  0
 26 64  1  0
 29 65  1  0
 30 66  1  0
 31 67  1  0
 32 68  1  0
M  CHG  2  12   1  20   1
M  END
>  <UniqueID>  (12) 
12

>  <SMILES>  (12) 
CCN(CCOCCNCC[NH2+]c1c2ccccc2[n+](C)c2ccccc12)c1ccccn1

>  <Energy>  (12) 
97.53110181614036

>  <Genealogy>  (12) 
CCN(CCOCCNCC[NH2+]c1c2ccccc2[n+](C)c2ccccc12)c1ccccn1 (protonated)
CCN(CCOCCNCC[NH2+]c1c2ccccc2[n+](C)c2ccccc12)c1ccccn1 (3D coordinates assigned)
CCN(CCOCCNCC[NH2+]c1c2ccccc2[n+](C)c2ccccc12)c1ccccn1 (optimized conformer: 97.53110181614036 kcal/mol)

>  <smiles>  (12) 
CCN(CCOCCNCCNc1c2ccccc2[n+](C)c2ccccc12)c1ccccn1

>  <score_type>  (12) 
oracle

>  <origin>  (12) 
adg

>  <m_score__min__energy>  (12) 
-9.1699999999999999

>  <m_primary>  (12) 
energy

$$$$
12:0
     RDKit          3D

 65 67  0  0  0  0  0  0  0  0999 V2000
   -3.7770   18.5640  -26.2820 C   0  0  0  0  0  0  0  0  0  0  0  0
   -2.3910   19.2060  -26.3650 C   0  0  0  0  0  0  0  0  0  0  0  0
   -2.3600   20.4440  -27.2760 C   0  0  0  0  0  0  0  0  0  0  0  0
   -1.6400   20.1850  -28.6040 C   0  0  0  0  0  0  0  0  0  0  0  0
   -2.4080   20.8160  -29.7000 N   0  0  0  0  0  0  0  0  0  0  0  0
   -2.0320   20.3010  -31.0350 C   0  0  0  0  0  0  0  0  0  0  0  0
   -1.7800   21.4410  -32.0350 C   0  0  0  0  0  0  0  0  0  0  0  0
   -2.6010   21.2450  -33.3180 C   0  0  0  0  0  0  0  0  0  0  0  0
   -3.9680   21.9430  -33.2600 C   0  0  0  0  0  0  0  0  0  0  0  0
   -4.6060   21.8060  -31.9400 N   0  0  0  0  0  0  0  0  0  0  0  0
   -5.7890   20.9730  -32.0380 C   0  0  0  0  0  0  0  0  0  0  0  0
   -5.7290   19.5710  -32.2730 C   0  0  0  0  0  0  0  0  0  0  0  0
   -4.4970   18.9080  -32.4750 C   0  0  0  0  0  0  0  0  0  0  0  0
   -4.4560   17.5410  -32.7360 C   0  0  0  0  0  0  0  0  0  0  0  0
   -5.6310   16.8080  -32.8170 C   0  0  0  0  0  0  0  0  0  0  0  0
   -6.8630   17.4280  -32.6270 C   0  0  0  0  0  0  0  0  0  0  0  0
   -6.9490   18.8140  -32.3360 C   0  0  0  0  0  0  0  0  0  0  0  0
   -8.1760   19.4350  -32.1470 N   0  0  0  0  0  0  0  0  0  0  0  0
   -9.4220   18.6440  -32.0720 C   0  0  0  0  0  0  0  0  0  0  0  0
   -8.2200   20.8050  -32.0530 C   0  0  0  0  0  0  0  0  0  0  0  0
   -9.3820   21.6060  -32.0330 C   0  0  0  0  0  0  0  0  0  0  0  0
   -9.1140   22.9650  -31.9220 C   0  0  0  0  0  0  0  0  0  0  0  0
   -7.4470   23.1870  -31.8690 S   0  0  0  0  0  0  0  0  0  0  0  0
   -7.0570   21.5530  -31.9820 C   0  0  0  0  0  0  0  0  0  0  0  0
   -2.4960   22.2940  -29.5840 C   0  0  0  0  0  0  0  0  0  0  0  0
   -3.7130   22.8190  -28.8020 C   0  0  0  0  0  0  0  0  0  0  0  0
   -4.8020   23.0930  -29.6740 O   0  0  0  0  0  0  0  0  0  0  0  0
   -5.0740   24.3700  -30.1700 C   0  0  0  0  0  0  0  0  0  0  0  0
   -6.0940   25.2170  -29.4910 C   0  0  0  0  0  0  0  0  0  0  0  0
   -4.4120   24.8380  -31.1370 O   0  0  0  0  0  0  0  0  0  0  0  0
   -4.0582   18.4338  -25.2265 H   0  0  0  0  0  0  0  0  0  0  0  0
   -4.5122   19.2133  -26.7799 H   0  0  0  0  0  0  0  0  0  0  0  0
   -3.7573   17.5833  -26.7799 H   0  0  0  0  0  0  0  0  0  0  0  0
   -2.0821   19.5068  -25.3530 H   0  0  0  0  0  0  0  0  0  0  0  0
   -1.7067   18.4607  -26.7966 H   0  0  0  0  0  0  0  0  0  0  0  0
   -3.3949   20.7486  -27.4907 H   0  0  0  0  0  0  0  0  0  0  0  0
   -1.8049   21.2320  -26.7460 H   0  0  0  0  0  0  0  0  0  0  0  0
   -0.6292   20.6172  -28.5658 H   0  0  0  0  0  0  0  0  0  0  0  0
   -1.5634   19.1019  -28.7799 H   0  0  0  0  0  0  0  0  0  0  0  0
   -1.1149   19.7011  -30.9401 H   0  0  0  0  0  0  0  0  0  0  0  0
   -2.8653   19.6910  -31.4139 H   0  0  0  0  0  0  0  0  0  0  0  0
   -2.0642   22.3962  -31.5694 H   0  0  0  0  0  0  0  0  0  0  0  0
   -0.7126   21.4419  -32.3009 H   0  0  0  0  0  0  0  0  0  0  0  0
   -2.0323   21.6550  -34.1657 H   0  0  0  0  0  0  0  0  0  0  0  0
   -2.7835   20.1665  -33.4339 H   0  0  0  0  0  0  0  0  0  0  0  0
   -3.8294   23.0124  -33.4774 H   0  0  0  0  0  0  0  0  0  0  0  0
   -4.6232   21.4654  -34.0034 H   0  0  0  0  0  0  0  0  0  0  0  0
   -4.8800   22.7510  -31.5870 H   0  0  0  0  0  0  0  0  0  0  0  0
   -3.9380   21.4260  -31.2320 H   0  0  0  0  0  0  0  0  0  0  0  0
   -3.5585   19.4795  -32.4253 H   0  0  0  0  0  0  0  0  0  0  0  0
   -3.4873   17.0398  -32.8787 H   0  0  0  0  0  0  0  0  0  0  0  0
   -5.5890   15.7302  -33.0327 H   0  0  0  0  0  0  0  0  0  0  0  0
   -7.7852   16.8333  -32.7038 H   0  0  0  0  0  0  0  0  0  0  0  0
   -9.6867   18.4759  -31.0176 H   0  0  0  0  0  0  0  0  0  0  0  0
  -10.2347   19.1919  -32.5713 H   0  0  0  0  0  0  0  0  0  0  0  0
   -9.2720   17.6754  -32.5713 H   0  0  0  0  0  0  0  0  0  0  0  0
  -10.4001   21.1947  -32.0988 H   0  0  0  0  0  0  0  0  0  0  0  0
   -9.8681   23.7646  -31.8763 H   0  0  0  0  0  0  0  0  0  0  0  0
   -1.5868   22.6503  -29.0777 H   0  0  0  0  0  0  0  0  0  0  0  0
   -2.6055   22.6746  -30.6102 H   0  0  0  0  0  0  0  0  0  0  0  0
   -4.0226   22.0607  -28.0677 H   0  0  0  0  0  0  0  0  0  0  0  0
   -3.4269   23.7529  -28.2960 H   0  0  0  0  0  0  0  0  0  0  0  0
   -5.9814   25.1235  -28.4008 H   0  0  0  0  0  0  0  0  0  0  0  0
   -5.9531   26.2675  -29.7854 H   0  0  0  0  0  0  0  0  0  0  0  0
   -7.1007   24.8855  -29.7854 H   0  0  0  0  0  0  0  0  0  0  0  0
  1  2  1  0
  2  3  1  0
  3  4  1  0
  4  5  1  0
  5  6  1  0
  6  7  1  0
  7  8  1  0
  8  9  1  0
  9 10  1  0
 10 11  1  0
 11 12  2  0
 12 13  1  0
 13 14  2  0
 14 15  1  0
 15 16  2  0
 16 17  1  0
 17 18  2  0
 18 19  1  0
 18 20  1  0
 20 21  1  0
 21 22  2  0
 22 23  1  0
 23 24  1  0
  5 25  1  0
 25 26  1  0
 26 27  1  0
 27 28  1  0
 28 29  1  0
 28 30  2  0
 24 11  1  0
 17 12  1  0
 24 20  2  0
  1 31  1  0
  1 32  1  0
  1 33  1  0
  2 34  1  0
  2 35  1  0
  3 36  1  0
  3 37  1  0
  4 38  1  0
  4 39  1  0
  6 40  1  0
  6 41  1  0
  7 42  1  0
  7 43  1  0
  8 44  1  0
  8 45  1  0
  9 46  1  0
  9 47  1  0
 10 48  1  0
 10 49  1  0
 13 50  1  0
 14 51  1  0
 15 52  1  0
 16 53  1  0
 19 54  1  0
 19 55  1  0
 19 56  1  0
 21 57  1  0
 22 58  1  0
 25 59  1  0
 25 60  1  0
 26 61  1  0
 26 62  1  0
 29 63  1  0
 29 64  1  0
 29 65  1  0
M  CHG  2  10   1  18   1
M  END
>  <UniqueID>  (13) 
13

>  <SMILES>  (13) 
CCCCN(CCCC[NH2+]c1c2ccccc2[n+](C)c2ccsc12)CCOC(C)=O

>  <Energy>  (13) 
104.72461470502505

>  <Genealogy>  (13) 
CCCCN(CCCC[NH2+]c1c2ccccc2[n+](C)c2ccsc12)CCOC(C)=O (protonated)
CCCCN(CCCC[NH2+]c1c2ccccc2[n+](C)c2ccsc12)CCOC(C)=O (3D coordinates assigned)
CCCCN(CCCC[NH2+]c1c2ccccc2[n+](C)c2ccsc12)CCOC(C)=O (optimized conformer: 104.72461470502505 kcal/mol)

>  <smiles>  (13) 
CCCCN(CCCCNc1c2ccccc2[n+](C)c2ccsc12)CCOC(C)=O

>  <score_type>  (13) 
oracle

>  <origin>  (13) 
adg

>  <m_score__min__energy>  (13) 
-9.25

>  <m_primary>  (13) 
energy

$$$$
13:0
     RDKit          3D

 42 43  0  0  0  0  0  0  0  0999 V2000
   -6.4950   25.3940  -29.6520 C   0  0  0  0  0  0  0  0  0  0  0  0
   -5.5240   25.4530  -30.8390 C   0  0  0  0  0  0  0  0  0  0  0  0
   -5.3800   24.1730  -31.5730 N   0  0  0  0  0  0  0  0  0  0  0  0
   -4.8450   23.0580  -30.7550 C   0  0  0  0  0  0  0  0  0  0  0  0
   -3.4210   22.6860  -31.1660 C   0  0  0  0  0  0  0  0  0  0  0  0
   -6.6270   23.7840  -32.2650 C   0  0  0  0  0  0  0  0  0  0  0  0
   -6.7320   22.2890  -32.3330 C   0  0  0  0  0  0  0  0  0  0  0  0
   -5.8520   21.4890  -32.9610 N   0  0  0  0  0  0  0  0  0  0  0  0
   -6.3570   20.2430  -32.8120 C   0  0  0  0  0  0  0  0  0  0  0  0
   -5.7380   19.0030  -33.3380 C   0  0  0  0  0  0  0  0  0  0  0  0
   -4.4330   18.9930  -33.8590 C   0  0  0  0  0  0  0  0  0  0  0  0
   -3.8730   17.8090  -34.3490 C   0  0  0  0  0  0  0  0  0  0  0  0
   -4.5980   16.6070  -34.3120 C   0  0  0  0  0  0  0  0  0  0  0  0
   -4.0120   15.3420  -34.8860 C   0  0  0  0  0  0  0  0  0  0  0  0
   -3.5010   15.5720  -36.1530 F   0  0  0  0  0  0  0  0  0  0  0  0
   -2.9870   14.8710  -34.0850 F   0  0  0  0  0  0  0  0  0  0  0  0
   -5.0010   14.3790  -34.9670 F   0  0  0  0  0  0  0  0  0  0  0  0
   -5.9130   16.6220  -33.8160 C   0  0  0  0  0  0  0  0  0  0  0  0
   -6.4720   17.8050  -33.3270 C   0  0  0  0  0  0  0  0  0  0  0  0
   -7.4890   20.2550  -32.1360 O   0  0  0  0  0  0  0  0  0  0  0  0
   -7.7470   21.5040  -31.8270 C   0  0  0  0  0  0  0  0  0  0  0  0
   -8.9550   21.9610  -31.0780 C   0  0  0  0  0  0  0  0  0  0  0  0
   -5.9263   25.4286  -28.7110 H   0  0  0  0  0  0  0  0  0  0  0  0
   -7.1818   26.2521  -29.6971 H   0  0  0  0  0  0  0  0  0  0  0  0
   -7.0728   24.4591  -29.6971 H   0  0  0  0  0  0  0  0  0  0  0  0
   -5.8873   26.2154  -31.5438 H   0  0  0  0  0  0  0  0  0  0  0  0
   -4.5335   25.6918  -30.4244 H   0  0  0  0  0  0  0  0  0  0  0  0
   -4.8428   23.3611  -29.6976 H   0  0  0  0  0  0  0  0  0  0  0  0
   -5.4873   22.1791  -30.9127 H   0  0  0  0  0  0  0  0  0  0  0  0
   -2.8094   22.5262  -30.2657 H   0  0  0  0  0  0  0  0  0  0  0  0
   -3.4413   21.7630  -31.7641 H   0  0  0  0  0  0  0  0  0  0  0  0
   -2.9872   23.5010  -31.7641 H   0  0  0  0  0  0  0  0  0  0  0  0
   -7.4900   24.1849  -31.7131 H   0  0  0  0  0  0  0  0  0  0  0  0
   -6.6149   24.1916  -33.2866 H   0  0  0  0  0  0  0  0  0  0  0  0
   -4.9840   21.7890  -33.4550 H   0  0  0  0  0  0  0  0  0  0  0  0
   -3.8473   19.9238  -33.8816 H   0  0  0  0  0  0  0  0  0  0  0  0
   -2.8556   17.8193  -34.7671 H   0  0  0  0  0  0  0  0  0  0  0  0
   -6.5061   15.6956  -33.8129 H   0  0  0  0  0  0  0  0  0  0  0  0
   -7.4975   17.7986  -32.9292 H   0  0  0  0  0  0  0  0  0  0  0  0
   -8.7650   21.8891  -29.9969 H   0  0  0  0  0  0  0  0  0  0  0  0
   -9.1772   23.0053  -31.3426 H   0  0  0  0  0  0  0  0  0  0  0  0
   -9.8128   21.3252  -31.3426 H   0  0  0  0  0  0  0  0  0  0  0  0
  1  2  1  0
  2  3  1  0
  3  4  1  0
  4  5  1  0
  3  6  1  0
  6  7  1  0
  7  8  1  0
  8  9  2  0
  9 10  1  0
 10 11  2  0
 11 12  1  0
 12 13  2  0
 13 14  1  0
 14 15  1  0
 14 16  1  0
 14 17  1  0
 13 18  1  0
 18 19  2  0
  9 20  1  0
 20 21  1  0
 21 22  1  0
 21  7  2  0
 19 10  1  0
  1 23  1  0
  1 24  1  0
  1 25  1  0
  2 26  1  0
  2 27  1  0
  4 28  1  0
  4 29  1  0
  5 30  1  0
  5 31  1  0
  5 32  1  0
  6 33  1  0
  6 34  1  0
  8 35  1  0
 11 36  1  0
 12 37  1  0
 18 38  1  0
 19 39  1  0
 22 40  1  0
 22 41  1  0
 22 42  1  0
M  CHG  1   8   1
M  END
>  <UniqueID>  (14) 
14

>  <SMILES>  (14) 
CCN(CC)Cc1[nH+]c(-c2ccc(C(F)(F)F)cc2)oc1C

>  <Energy>  (14) 
72.78018604111791

>  <Genealogy>  (14) 
CCN(CC)Cc1[nH+]c(-c2ccc(C(F)(F)F)cc2)oc1C (protonated)
CCN(CC)Cc1[nH+]c(-c2ccc(C(F)(F)F)cc2)oc1C (3D coordinates assigned)
CCN(CC)Cc1[nH+]c(-c2ccc(C(F)(F)F)cc2)oc1C (optimized conformer: 72.78018604111791 kcal/mol)

>  <smiles>  (14) 
CCN(CC)Cc1nc(-c2ccc(C(F)(F)F)cc2)oc1C

>  <score_type>  (14) 
oracle

>  <origin>  (14) 
adg

>  <m_score__min__energy>  (14) 
-5.8499999999999996

>  <m_primary>  (14) 
energy

$$$$
14:0
     RDKit          3D

 54 57  0  0  0  0  0  0  0  0999 V2000
   -9.0540   20.3570  -31.6030 C   0  0  0  0  0  0  0  0  0  0  0  0
   -7.6370   20.5340  -31.9960 N   0  0  0  0  0  0  0  0  0  0  0  0
   -6.9690   19.5120  -32.6460 C   0  0  0  0  0  0  0  0  0  0  0  0
   -7.5030   18.1990  -32.7240 C   0  0  0  0  0  0  0  0  0  0  0  0
   -6.8670   17.2050  -33.4680 C   0  0  0  0  0  0  0  0  0  0  0  0
   -5.6890   17.4890  -34.1490 C   0  0  0  0  0  0  0  0  0  0  0  0
   -5.1110   18.7510  -34.0450 C   0  0  0  0  0  0  0  0  0  0  0  0
   -5.7060   19.7540  -33.2500 C   0  0  0  0  0  0  0  0  0  0  0  0
   -5.0680   20.9920  -33.0510 C   0  0  0  0  0  0  0  0  0  0  0  0
   -3.7200   21.2030  -33.5130 N   0  0  0  0  0  0  0  0  0  0  0  0
   -2.5560   20.5260  -32.9250 C   0  0  0  0  0  0  0  0  0  0  0  0
   -1.9270   21.3410  -31.7730 C   0  0  0  0  0  0  0  0  0  0  0  0
   -1.1880   20.4880  -30.8020 N   0  0  1  0  0  0  0  0  0  0  0  0
    0.0360   19.9400  -31.4270 C   0  0  0  0  0  0  0  0  0  0  0  0
   -0.8550   21.2700  -29.5840 C   0  0  0  0  0  0  0  0  0  0  0  0
   -1.9460   22.2560  -29.2240 C   0  0  0  0  0  0  0  0  0  0  0  0
   -1.7310   23.6380  -29.3620 C   0  0  0  0  0  0  0  0  0  0  0  0
   -2.7310   24.5450  -28.9990 C   0  0  0  0  0  0  0  0  0  0  0  0
   -3.9470   24.0790  -28.4900 C   0  0  0  0  0  0  0  0  0  0  0  0
   -4.1670   22.7050  -28.3480 C   0  0  0  0  0  0  0  0  0  0  0  0
   -3.1730   21.7960  -28.7100 C   0  0  0  0  0  0  0  0  0  0  0  0
   -5.7130   21.9900  -32.3000 C   0  0  0  0  0  0  0  0  0  0  0  0
   -5.0910   23.2360  -32.0710 C   0  0  0  0  0  0  0  0  0  0  0  0
   -5.6870   24.1910  -31.2540 C   0  0  0  0  0  0  0  0  0  0  0  0
   -6.9050   23.9210  -30.6420 C   0  0  0  0  0  0  0  0  0  0  0  0
   -7.5510   22.7080  -30.8720 C   0  0  0  0  0  0  0  0  0  0  0  0
   -6.9920   21.7300  -31.7360 C   0  0  0  0  0  0  0  0  0  0  0  0
   -9.1317   20.3473  -30.5058 H   0  0  0  0  0  0  0  0  0  0  0  0
   -9.6527   21.1873  -32.0057 H   0  0  0  0  0  0  0  0  0  0  0  0
   -9.4300   19.4049  -32.0057 H   0  0  0  0  0  0  0  0  0  0  0  0
   -8.4341   17.9613  -32.1887 H   0  0  0  0  0  0  0  0  0  0  0  0
   -7.2986   16.1944  -33.5158 H   0  0  0  0  0  0  0  0  0  0  0  0
   -5.2133   16.7160  -34.7704 H   0  0  0  0  0  0  0  0  0  0  0  0
   -4.1799   18.9691  -34.5886 H   0  0  0  0  0  0  0  0  0  0  0  0
   -3.5530   21.9510  -34.2250 H   0  0  0  0  0  0  0  0  0  0  0  0
   -2.8748   19.5484  -32.5343 H   0  0  0  0  0  0  0  0  0  0  0  0
   -1.7968   20.4141  -33.7131 H   0  0  0  0  0  0  0  0  0  0  0  0
   -1.2272   22.0736  -32.2015 H   0  0  0  0  0  0  0  0  0  0  0  0
   -2.7464   21.8318  -31.2274 H   0  0  0  0  0  0  0  0  0  0  0  0
   -1.7870   19.6830  -30.5120 H   0  0  0  0  0  0  0  0  0  0  0  0
    0.7392   19.6252  -30.6419 H   0  0  0  0  0  0  0  0  0  0  0  0
   -0.2276   19.0740  -32.0519 H   0  0  0  0  0  0  0  0  0  0  0  0
    0.5064   20.7134  -32.0519 H   0  0  0  0  0  0  0  0  0  0  0  0
   -0.7141   20.5745  -28.7435 H   0  0  0  0  0  0  0  0  0  0  0  0
    0.0630   21.8405  -29.7883 H   0  0  0  0  0  0  0  0  0  0  0  0
   -0.7730   24.0071  -29.7568 H   0  0  0  0  0  0  0  0  0  0  0  0
   -2.5611   25.6257  -29.1139 H   0  0  0  0  0  0  0  0  0  0  0  0
   -4.7316   24.7938  -28.2009 H   0  0  0  0  0  0  0  0  0  0  0  0
   -5.1256   22.3407  -27.9501 H   0  0  0  0  0  0  0  0  0  0  0  0
   -3.3485   20.7164  -28.5935 H   0  0  0  0  0  0  0  0  0  0  0  0
   -4.1226   23.4547  -32.5446 H   0  0  0  0  0  0  0  0  0  0  0  0
   -5.1937   25.1608  -31.0922 H   0  0  0  0  0  0  0  0  0  0  0  0
   -7.3605   24.6669  -29.9741 H   0  0  0  0  0  0  0  0  0  0  0  0
   -8.5112   22.5046  -30.3753 H   0  0  0  0  0  0  0  0  0  0  0  0
  1  2  1  0
  2  3  2  0
  3  4  1  0
  4  5  2  0
  5  6  1  0
  6  7  2  0
  7  8  1  0
  8  9  2  0
  9 10  1  0
 10 11  1  0
 11 12  1  0
 12 13  1  0
 13 14  1  0
 13 15  1  0
 15 16  1  0
 16 17  2  0
 17 18  1  0
 18 19  2  0
 19 20  1  0
 20 21  2  0
  9 22  1  0
 22 23  2  0
 23 24  1  0
 24 25  2  0
 25 26  1  0
 26 27  2  0
 27  2  1  0
  8  3  1  0
 21 16  1  0
 27 22  1  0
  1 28  1  0
  1 29  1  0
  1 30  1  0
  4 31  1  0
  5 32  1  0
  6 33  1  0
  7 34  1  0
 10 35  1  0
 11 36  1  0
 11 37  1  0
 12 38  1  0
 12 39  1  0
 13 40  1  1
 14 41  1  0
 14 42  1  0
 14 43  1  0
 15 44  1  0
 15 45  1  0
 17 46  1  0
 18 47  1  0
 19 48  1  0
 20 49  1  0
 21 50  1  0
 23 51  1  0
 24 52  1  0
 25 53  1  0
 26 54  1  0
M  CHG  2   2   1  13   1
M  END
>  <UniqueID>  (15) 
15

>  <SMILES>  (15) 
C[n+]1c2ccccc2c(NCC[N@@H+](C)Cc2ccccc2)c2ccccc21

>  <Energy>  (15) 
83.84691187121291

>  <Genealogy>  (15) 
C[n+]1c2ccccc2c(NCC[NH+](C)Cc2ccccc2)c2ccccc21 (protonated)
C[n+]1c2ccccc2c(NCC[N@@H+](C)Cc2ccccc2)c2ccccc21 (chirality)
C[n+]1c2ccccc2c(NCC[N@@H+](C)Cc2ccccc2)c2ccccc21 (3D coordinates assigned)
C[n+]1c2ccccc2c(NCC[N@@H+](C)Cc2ccccc2)c2ccccc21 (optimized conformer: 83.84691187121291 kcal/mol)

>  <smiles>  (15) 
CN(CCNc1c2ccccc2[n+](C)c2ccccc12)Cc1ccccc1

>  <score_type>  (15) 
oracle

>  <origin>  (15) 
adg

>  <m_score__min__energy>  (15) 
-7.9699999999999998

>  <m_primary>  (15) 
energy

$$$$
15:0
     RDKit          3D

 69 73  0  0  0  0  0  0  0  0999 V2000
   -1.1780   26.7600  -24.4800 C   0  0  0  0  0  0  0  0  0  0  0  0
   -2.0290   25.7930  -25.2950 C   0  0  0  0  0  0  0  0  0  0  0  0
   -1.9130   26.1010  -26.7300 N   0  0  0  0  0  0  0  0  0  0  0  0
   -0.6550   25.6030  -27.3180 C   0  0  0  0  0  0  0  0  0  0  0  0
   -0.8790   24.8830  -28.6540 C   0  0  0  0  0  0  0  0  0  0  0  0
   -2.1150   25.2970  -29.2100 O   0  0  0  0  0  0  0  0  0  0  0  0
   -3.1110   24.3060  -29.0410 C   0  0  0  0  0  0  0  0  0  0  0  0
   -3.4950   23.6560  -30.3720 C   0  0  0  0  0  0  0  0  0  0  0  0
   -4.4160   24.4930  -31.0380 O   0  0  0  0  0  0  0  0  0  0  0  0
   -5.6930   24.3570  -30.4500 C   0  0  0  0  0  0  0  0  0  0  0  0
   -6.3990   23.1310  -31.0370 C   0  0  0  0  0  0  0  0  0  0  0  0
   -5.8540   22.7290  -32.3520 N   0  0  0  0  0  0  0  0  0  0  0  0
   -5.8840   21.2830  -32.5370 C   0  0  0  0  0  0  0  0  0  0  0  0
   -7.1130   20.5680  -32.4710 C   0  0  0  0  0  0  0  0  0  0  0  0
   -8.3790   21.2040  -32.4150 C   0  0  0  0  0  0  0  0  0  0  0  0
   -9.5490   20.4610  -32.2600 C   0  0  0  0  0  0  0  0  0  0  0  0
   -9.4880   19.0790  -32.1500 C   0  0  0  0  0  0  0  0  0  0  0  0
   -8.2590   18.4280  -32.2180 C   0  0  0  0  0  0  0  0  0  0  0  0
   -7.0570   19.1550  -32.3930 C   0  0  0  0  0  0  0  0  0  0  0  0
   -5.8480   18.5130  -32.4920 N   0  0  0  0  0  0  0  0  0  0  0  0
   -5.6960   17.1580  -31.9250 C   0  0  0  0  0  0  0  0  0  0  0  0
   -4.7540   19.2160  -32.9390 C   0  0  0  0  0  0  0  0  0  0  0  0
   -4.7130   20.5780  -32.7590 N   0  0  0  0  0  0  0  0  0  0  0  0
   -3.3740   21.1950  -32.5890 C   0  0  0  0  0  0  0  0  0  0  0  0
   -2.4070   20.7720  -33.6880 C   0  0  0  0  0  0  0  0  0  0  0  0
   -2.4140   19.2920  -33.8940 C   0  0  0  0  0  0  0  0  0  0  0  0
   -1.3130   18.6970  -34.5470 C   0  0  0  0  0  0  0  0  0  0  0  0
   -1.4390   17.3880  -34.9850 C   0  0  0  0  0  0  0  0  0  0  0  0
   -2.5890   16.6940  -34.8280 C   0  0  0  0  0  0  0  0  0  0  0  0
   -3.6990   17.2370  -34.1930 C   0  0  0  0  0  0  0  0  0  0  0  0
   -3.5990   18.5410  -33.6370 C   0  0  0  0  0  0  0  0  0  0  0  0
   -2.4590   15.4500  -35.4180 O   0  0  0  0  0  0  0  0  0  0  0  0
   -1.1440   15.3630  -35.9820 C   0  0  0  0  0  0  0  0  0  0  0  0
   -0.5230   16.6180  -35.6750 O   0  0  0  0  0  0  0  0  0  0  0  0
   -1.3396   26.5763  -23.4076 H   0  0  0  0  0  0  0  0  0  0  0  0
   -0.1159   26.6074  -24.7222 H   0  0  0  0  0  0  0  0  0  0  0  0
   -1.4644   27.7941  -24.7222 H   0  0  0  0  0  0  0  0  0  0  0  0
   -1.6838   24.7642  -25.1149 H   0  0  0  0  0  0  0  0  0  0  0  0
   -3.0808   25.8944  -24.9894 H   0  0  0  0  0  0  0  0  0  0  0  0
   -2.7300   25.6880  -27.2360 H   0  0  0  0  0  0  0  0  0  0  0  0
    0.0190   26.4562  -27.4851 H   0  0  0  0  0  0  0  0  0  0  0  0
   -0.2200   24.8776  -26.6147 H   0  0  0  0  0  0  0  0  0  0  0  0
   -0.0625   25.1333  -29.3473 H   0  0  0  0  0  0  0  0  0  0  0  0
   -0.8967   23.7959  -28.4872 H   0  0  0  0  0  0  0  0  0  0  0  0
   -2.7293   23.5292  -28.3621 H   0  0  0  0  0  0  0  0  0  0  0  0
   -4.0073   24.7886  -28.6241 H   0  0  0  0  0  0  0  0  0  0  0  0
   -2.5964   23.5270  -30.9932 H   0  0  0  0  0  0  0  0  0  0  0  0
   -3.9493   22.6710  -30.1895 H   0  0  0  0  0  0  0  0  0  0  0  0
   -5.5842   24.2315  -29.3626 H   0  0  0  0  0  0  0  0  0  0  0  0
   -6.2896   25.2575  -30.6580 H   0  0  0  0  0  0  0  0  0  0  0  0
   -6.2832   22.2904  -30.3370 H   0  0  0  0  0  0  0  0  0  0  0  0
   -7.4560   23.3974  -31.1847 H   0  0  0  0  0  0  0  0  0  0  0  0
   -6.3980   23.1870  -33.1160 H   0  0  0  0  0  0  0  0  0  0  0  0
   -4.9090   23.1390  -32.4980 H   0  0  0  0  0  0  0  0  0  0  0  0
   -8.4392   22.2994  -32.4950 H   0  0  0  0  0  0  0  0  0  0  0  0
  -10.5226   20.9717  -32.2248 H   0  0  0  0  0  0  0  0  0  0  0  0
  -10.4110   18.4975  -32.0090 H   0  0  0  0  0  0  0  0  0  0  0  0
   -8.2215   17.3318  -32.1344 H   0  0  0  0  0  0  0  0  0  0  0  0
   -5.7027   17.2173  -30.8266 H   0  0  0  0  0  0  0  0  0  0  0  0
   -6.5286   16.5236  -32.2630 H   0  0  0  0  0  0  0  0  0  0  0  0
   -4.7435   16.7238  -32.2630 H   0  0  0  0  0  0  0  0  0  0  0  0
   -3.4817   22.2895  -32.6126 H   0  0  0  0  0  0  0  0  0  0  0  0
   -2.9635   20.8563  -31.6263 H   0  0  0  0  0  0  0  0  0  0  0  0
   -2.6989   21.2637  -34.6277 H   0  0  0  0  0  0  0  0  0  0  0  0
   -1.3927   21.0701  -33.3843 H   0  0  0  0  0  0  0  0  0  0  0  0
   -0.3796   19.2574  -34.7041 H   0  0  0  0  0  0  0  0  0  0  0  0
   -4.6378   16.6681  -34.1219 H   0  0  0  0  0  0  0  0  0  0  0  0
   -0.5830   14.5330  -35.5277 H   0  0  0  0  0  0  0  0  0  0  0  0
   -1.1715   15.1703  -37.0646 H   0  0  0  0  0  0  0  0  0  0  0  0
  1  2  1  0
  2  3  1  0
  3  4  1  0
  4  5  1  0
  5  6  1  0
  6  7  1  0
  7  8  1  0
  8  9  1  0
  9 10  1  0
 10 11  1  0
 11 12  1  0
 12 13  1  0
 13 14  2  0
 14 15  1  0
 15 16  2  0
 16 17  1  0
 17 18  2  0
 18 19  1  0
 19 20  2  0
 20 21  1  0
 20 22  1  0
 22 23  2  0
 23 24  1  0
 24 25  1  0
 25 26  1  0
 26 27  2  0
 27 28  1  0
 28 29  2  0
 29 30  1  0
 30 31  2  0
 29 32  1  0
 32 33  1  0
 33 34  1  0
 23 13  1  0
 31 26  1  0
 19 14  1  0
 31 22  1  0
 34 28  1  0
  1 35  1  0
  1 36  1  0
  1 37  1  0
  2 38  1  0
  2 39  1  0
  3 40  1  0
  4 41  1  0
  4 42  1  0
  5 43  1  0
  5 44  1  0
  7 45  1  0
  7 46  1  0
  8 47  1  0
  8 48  1  0
 10 49  1  0
 10 50  1  0
 11 51  1  0
 11 52  1  0
 12 53  1  0
 12 54  1  0
 15 55  1  0
 16 56  1  0
 17 57  1  0
 18 58  1  0
 21 59  1  0
 21 60  1  0
 21 61  1  0
 24 62  1  0
 24 63  1  0
 25 64  1  0
 25 65  1  0
 27 66  1  0
 30 67  1  0
 33 68  1  0
 33 69  1  0
M  CHG  3  12   1  20   1  23   1
M  END
>  <UniqueID>  (16) 
16

>  <SMILES>  (16) 
CCNCCOCCOCC[NH2+]c1c2ccccc2[n+](C)c2[n+]1CCc1cc3c(cc1-2)OCO3

>  <Energy>  (16) 
142.04677171986307

>  <Genealogy>  (16) 
CCNCCOCCOCC[NH2+]c1c2ccccc2[n+](C)c2[n+]1CCc1cc3c(cc1-2)OCO3 (protonated)
CCNCCOCCOCC[NH2+]c1c2ccccc2[n+](C)c2[n+]1CCc1cc3c(cc1-2)OCO3 (3D coordinates assigned)
CCNCCOCCOCC[NH2+]c1c2ccccc2[n+](C)c2[n+]1CCc1cc3c(cc1-2)OCO3 (nonaromatic ring conformer: 142.04677171986307 kcal/mol)

>  <smiles>  (16) 
CCNCCOCCOCCNc1c2ccccc2[n+](C)c2[n+]1CCc1cc3c(cc1-2)OCO3

>  <score_type>  (16) 
oracle

>  <origin>  (16) 
adg

>  <m_score__min__energy>  (16) 
-8.0800000000000001

>  <m_primary>  (16) 
energy

$$$$
16:0
     RDKit          3D

 43 46  0  0  0  0  0  0  0  0999 V2000
   -8.3070   18.6080  -31.7280 C   0  0  0  0  0  0  0  0  0  0  0  0
   -7.1350   18.8400  -32.5730 N   0  0  0  0  0  0  0  0  0  0  0  0
   -6.4510   20.0040  -32.7580 C   0  0  0  0  0  0  0  0  0  0  0  0
   -6.8410   21.3370  -32.1640 C   0  0  0  0  0  0  0  0  0  0  0  0
   -5.7420   22.3360  -32.2660 N   0  0  2  0  0  0  0  0  0  0  0  0
   -4.6460   22.0850  -31.2740 C   0  0  0  0  0  0  0  0  0  0  0  0
   -4.5890   23.0990  -30.1040 C   0  0  1  0  0  0  0  0  0  0  0  0
   -3.7580   24.3690  -30.4800 C   0  0  0  0  0  0  0  0  0  0  0  0
   -4.4540   25.6150  -30.1100 N   0  0  0  0  0  0  0  0  0  0  0  0
   -5.7930   25.7370  -30.7300 C   0  0  0  0  0  0  0  0  0  0  0  0
   -6.5190   24.3680  -30.8660 C   0  0  2  0  0  0  0  0  0  0  0  0
   -6.0180   23.4730  -29.7320 C   0  0  0  0  0  0  0  0  0  0  0  0
   -6.2530   23.7390  -32.2780 C   0  0  0  0  0  0  0  0  0  0  0  0
   -5.3500   19.8630  -33.5440 N   0  0  0  0  0  0  0  0  0  0  0  0
   -5.3520   18.5510  -33.8390 C   0  0  0  0  0  0  0  0  0  0  0  0
   -4.4220   17.8560  -34.6080 C   0  0  0  0  0  0  0  0  0  0  0  0
   -4.6060   16.4700  -34.7650 C   0  0  0  0  0  0  0  0  0  0  0  0
   -5.7010   15.8200  -34.1520 C   0  0  0  0  0  0  0  0  0  0  0  0
   -6.6220   16.5510  -33.3790 C   0  0  0  0  0  0  0  0  0  0  0  0
   -6.4150   17.9280  -33.2510 C   0  0  0  0  0  0  0  0  0  0  0  0
   -8.0132   18.6662  -30.6696 H   0  0  0  0  0  0  0  0  0  0  0  0
   -9.0688   19.3728  -31.9396 H   0  0  0  0  0  0  0  0  0  0  0  0
   -8.7200   17.6107  -31.9396 H   0  0  0  0  0  0  0  0  0  0  0  0
   -7.7210   21.7211  -32.7007 H   0  0  0  0  0  0  0  0  0  0  0  0
   -7.0616   21.1822  -31.0975 H   0  0  0  0  0  0  0  0  0  0  0  0
   -5.3050   22.1820  -33.2070 H   0  0  0  0  0  0  0  0  0  0  0  0
   -3.6850   22.1230  -31.8078 H   0  0  0  0  0  0  0  0  0  0  0  0
   -4.8519   21.1024  -30.8246 H   0  0  0  0  0  0  0  0  0  0  0  0
   -4.0815   22.6375  -29.2441 H   0  0  0  0  0  0  0  0  0  0  0  0
   -3.5823   24.3696  -31.5659 H   0  0  0  0  0  0  0  0  0  0  0  0
   -2.8101   24.3315  -29.9231 H   0  0  0  0  0  0  0  0  0  0  0  0
   -3.8690   26.4260  -30.4190 H   0  0  0  0  0  0  0  0  0  0  0  0
   -5.6780   26.1754  -31.7323 H   0  0  0  0  0  0  0  0  0  0  0  0
   -6.4055   26.3741  -30.0750 H   0  0  0  0  0  0  0  0  0  0  0  0
   -7.6094   24.4882  -30.7855 H   0  0  0  0  0  0  0  0  0  0  0  0
   -6.6420   22.5708  -29.6510 H   0  0  0  0  0  0  0  0  0  0  0  0
   -6.0640   23.9851  -28.7596 H   0  0  0  0  0  0  0  0  0  0  0  0
   -5.5119   24.3661  -32.7952 H   0  0  0  0  0  0  0  0  0  0  0  0
   -7.2293   23.7026  -32.7834 H   0  0  0  0  0  0  0  0  0  0  0  0
   -3.5720   18.3733  -35.0770 H   0  0  0  0  0  0  0  0  0  0  0  0
   -3.8933   15.8888  -35.3685 H   0  0  0  0  0  0  0  0  0  0  0  0
   -5.8342   14.7356  -34.2800 H   0  0  0  0  0  0  0  0  0  0  0  0
   -7.4754   16.0563  -32.8922 H   0  0  0  0  0  0  0  0  0  0  0  0
  1  2  1  0
  2  3  1  0
  3  4  1  0
  4  5  1  0
  5  6  1  0
  6  7  1  0
  7  8  1  0
  8  9  1  0
  9 10  1  0
 10 11  1  0
 11 12  1  0
 11 13  1  0
  3 14  2  0
 14 15  1  0
 15 16  2  0
 16 17  1  0
 17 18  2  0
 18 19  1  0
 19 20  2  0
 20  2  1  0
 13  5  1  0
 20 15  1  0
 12  7  1  0
  1 21  1  0
  1 22  1  0
  1 23  1  0
  4 24  1  0
  4 25  1  0
  5 26  1  6
  6 27  1  0
  6 28  1  0
  7 29  1  1
  8 30  1  0
  8 31  1  0
  9 32  1  0
 10 33  1  0
 10 34  1  0
 11 35  1  1
 12 36  1  0
 12 37  1  0
 13 38  1  0
 13 39  1  0
 16 40  1  0
 17 41  1  0
 18 42  1  0
 19 43  1  0
M  CHG  1   5   1
M  END
>  <UniqueID>  (17) 
17

>  <SMILES>  (17) 
Cn1c(C[NH+]2C[C@@H]3CNC[C@@H](C3)C2)nc2ccccc21

>  <Energy>  (17) 
111.17758401627474

>  <Genealogy>  (17) 
Cn1c(C[NH+]2CC3CNCC(C3)C2)nc2ccccc21 (protonated)
Cn1c(C[NH+]2C[C@@H]3CNC[C@@H](C3)C2)nc2ccccc21 (chirality)
Cn1c(C[NH+]2C[C@@H]3CNC[C@@H](C3)C2)nc2ccccc21 (3D coordinates assigned)
Cn1c(C[NH+]2C[C@@H]3CNC[C@@H](C3)C2)nc2ccccc21 (nonaromatic ring conformer: 111.17758401627474 kcal/mol)

>  <smiles>  (17) 
Cn1c(CN2CC3CNCC(C3)C2)nc2ccccc21

>  <score_type>  (17) 
oracle

>  <origin>  (17) 
adg

>  <m_score__min__energy>  (17) 
-7.6699999999999999

>  <m_primary>  (17) 
energy

$$$$
17:0
     RDKit          3D

 38 41  0  0  1  0  0  0  0  0999 V2000
   -8.3890   18.5590  -31.5810 C   0  0  0  0  0  0  0  0  0  0  0  0
   -9.0250   19.4570  -32.6190 C   0  0  0  0  0  0  0  0  0  0  0  0
   -8.6520   20.8350  -32.3560 N   0  0  0  0  0  0  0  0  0  0  0  0
   -9.4850   21.8650  -32.1710 N   0  0  0  0  0  0  0  0  0  0  0  0
   -8.7480   22.9850  -31.9540 C   0  0  0  0  0  0  0  0  0  0  0  0
   -7.4000   22.6580  -32.0020 C   0  0  0  0  0  0  0  0  0  0  0  0
   -6.2500   23.3780  -31.8570 C   0  0  0  0  0  0  0  0  0  0  0  0
   -6.2860   24.6450  -31.6190 N   0  0  0  0  0  0  0  0  0  0  0  0
   -5.9510   25.2290  -30.3570 C   0  0  0  0  0  0  0  0  0  0  0  0
   -4.6650   24.6650  -29.8290 C   0  0  0  0  0  0  0  0  0  0  0  0
   -4.4640   23.9470  -28.6630 C   0  0  0  0  0  0  0  0  0  0  0  0
   -3.1270   23.6180  -28.5590 C   0  0  0  0  0  0  0  0  0  0  0  0
   -2.5510   24.1710  -29.7090 C   0  0  0  0  0  0  0  0  0  0  0  0
   -3.4970   24.7630  -30.4010 O   0  0  0  0  0  0  0  0  0  0  0  0
   -5.0610   22.7570  -31.9620 N   0  0  0  0  0  0  0  0  0  0  0  0
   -5.0230   21.4350  -32.2090 C   0  0  0  0  0  0  0  0  0  0  0  0
   -3.7320   20.7020  -32.3350 C   0  0  0  0  0  0  0  0  0  0  0  0
   -2.8310   21.2370  -33.4710 C   0  0  0  0  0  0  0  0  0  0  0  0
   -2.4670   21.3740  -32.0340 C   0  0  0  0  0  0  0  0  0  0  0  0
   -6.1580   20.7260  -32.3530 N   0  0  0  0  0  0  0  0  0  0  0  0
   -7.3910   21.2890  -32.2590 C   0  0  0  0  0  0  0  0  0  0  0  0
   -8.6461   18.9221  -30.5750 H   0  0  0  0  0  0  0  0  0  0  0  0
   -8.7621   17.5319  -31.7066 H   0  0  0  0  0  0  0  0  0  0  0  0
   -7.2963   18.5701  -31.7066 H   0  0  0  0  0  0  0  0  0  0  0  0
   -8.6746   19.1664  -33.6204 H   0  0  0  0  0  0  0  0  0  0  0  0
  -10.1194   19.3565  -32.5718 H   0  0  0  0  0  0  0  0  0  0  0  0
   -9.1544   23.9904  -31.7697 H   0  0  0  0  0  0  0  0  0  0  0  0
   -5.8429   26.3166  -30.4811 H   0  0  0  0  0  0  0  0  0  0  0  0
   -6.7542   25.0013  -29.6408 H   0  0  0  0  0  0  0  0  0  0  0  0
   -5.2448   23.6809  -27.9353 H   0  0  0  0  0  0  0  0  0  0  0  0
   -2.6294   23.0521  -27.7577 H   0  0  0  0  0  0  0  0  0  0  0  0
   -1.4876   24.1185  -29.9856 H   0  0  0  0  0  0  0  0  0  0  0  0
   -4.1750   23.2960  -31.8520 H   0  0  0  0  0  0  0  0  0  0  0  0
   -4.1609   19.7438  -32.0064 H   0  0  0  0  0  0  0  0  0  0  0  0
   -2.2811   20.5397  -34.1202 H   0  0  0  0  0  0  0  0  0  0  0  0
   -2.9551   21.9197  -34.3245 H   0  0  0  0  0  0  0  0  0  0  0  0
   -1.6266   20.7900  -31.6306 H   0  0  0  0  0  0  0  0  0  0  0  0
   -2.1945   22.2293  -31.3983 H   0  0  0  0  0  0  0  0  0  0  0  0
  1  2  1  0
  2  3  1  0
  3  4  1  0
  4  5  2  0
  5  6  1  0
  6  7  1  0
  7  8  2  0
  8  9  1  0
  9 10  1  0
 10 11  2  0
 11 12  1  0
 12 13  2  0
 13 14  1  0
  7 15  1  0
 15 16  1  0
 16 17  1  0
 17 18  1  0
 18 19  1  0
 16 20  2  0
 20 21  1  0
 21  3  1  0
 21  6  2  0
 14 10  1  0
 19 17  1  0
  1 22  1  0
  1 23  1  0
  1 24  1  0
  2 25  1  0
  2 26  1  0
  5 27  1  0
  9 28  1  0
  9 29  1  0
 11 30  1  0
 12 31  1  0
 13 32  1  0
 15 33  1  0
 17 34  1  0
 18 35  1  0
 18 36  1  0
 19 37  1  0
 19 38  1  0
M  END
>  <smiles>  (18) 
CCn1ncc2c(=NCc3ccco3)[nH]c(C3CC3)nc21

>  <score_type>  (18) 
oracle

>  <origin>  (18) 
adg

>  <m_score__min__energy>  (18) 
-7.4100000000000001

>  <m_primary>  (18) 
energy

$$$$
18:0
     RDKit          3D

 46 49  0  0  0  0  0  0  0  0999 V2000
   -3.1060   24.1450  -27.8130 C   0  0  0  0  0  0  0  0  0  0  0  0
   -2.2850   24.4890  -29.0510 C   0  0  0  0  0  0  0  0  0  0  0  0
   -3.1310   24.9290  -30.1130 O   0  0  0  0  0  0  0  0  0  0  0  0
   -4.4280   24.4570  -30.3760 C   0  0  0  0  0  0  0  0  0  0  0  0
   -5.5870   25.1590  -29.9890 C   0  0  0  0  0  0  0  0  0  0  0  0
   -6.8540   24.6440  -30.2700 C   0  0  0  0  0  0  0  0  0  0  0  0
   -6.9860   23.4280  -30.9440 C   0  0  0  0  0  0  0  0  0  0  0  0
   -8.2300   22.9240  -31.2020 N   0  0  0  0  0  0  0  0  0  0  0  0
   -8.4140   21.7360  -31.8490 C   0  0  0  0  0  0  0  0  0  0  0  0
   -9.7970   21.2190  -32.0870 C   0  0  0  0  0  0  0  0  0  0  0  0
   -7.2860   21.0130  -32.2540 C   0  0  0  0  0  0  0  0  0  0  0  0
   -6.0290   21.5000  -32.0200 C   0  0  0  0  0  0  0  0  0  0  0  0
   -5.8280   22.7180  -31.3500 C   0  0  0  0  0  0  0  0  0  0  0  0
   -4.5570   23.2400  -31.0580 C   0  0  0  0  0  0  0  0  0  0  0  0
   -5.1100   20.5070  -32.5400 C   0  0  0  0  0  0  0  0  0  0  0  0
   -3.8610   20.6530  -32.6180 O   0  0  0  0  0  0  0  0  0  0  0  0
   -5.7860   19.3260  -33.0040 N   0  0  1  0  0  0  0  0  0  0  0  0
   -5.4630   18.1420  -32.1690 C   0  0  0  0  0  0  0  0  0  0  0  0
   -5.6060   16.8130  -32.8940 C   0  0  0  0  0  0  0  0  0  0  0  0
   -6.7870   16.5000  -33.5910 C   0  0  0  0  0  0  0  0  0  0  0  0
   -6.9260   15.2640  -34.2290 C   0  0  0  0  0  0  0  0  0  0  0  0
   -5.8850   14.3330  -34.1870 C   0  0  0  0  0  0  0  0  0  0  0  0
   -4.6990   14.6410  -33.5160 C   0  0  0  0  0  0  0  0  0  0  0  0
   -4.5560   15.8760  -32.8780 C   0  0  0  0  0  0  0  0  0  0  0  0
   -7.2270   19.6990  -32.9720 C   0  0  0  0  0  0  0  0  0  0  0  0
   -2.5268   24.3877  -26.9099 H   0  0  0  0  0  0  0  0  0  0  0  0
   -4.0388   24.7279  -27.8180 H   0  0  0  0  0  0  0  0  0  0  0  0
   -3.3446   23.0712  -27.8180 H   0  0  0  0  0  0  0  0  0  0  0  0
   -1.5736   25.2899  -28.8010 H   0  0  0  0  0  0  0  0  0  0  0  0
   -1.7465   23.5877  -29.3791 H   0  0  0  0  0  0  0  0  0  0  0  0
   -5.4928   26.1198  -29.4617 H   0  0  0  0  0  0  0  0  0  0  0  0
   -7.7519   25.1983  -29.9592 H   0  0  0  0  0  0  0  0  0  0  0  0
  -10.2907   21.0345  -31.1215 H   0  0  0  0  0  0  0  0  0  0  0  0
  -10.3733   21.9624  -32.6573 H   0  0  0  0  0  0  0  0  0  0  0  0
   -9.7443   20.2799  -32.6573 H   0  0  0  0  0  0  0  0  0  0  0  0
   -3.6564   22.6892  -31.3671 H   0  0  0  0  0  0  0  0  0  0  0  0
   -5.4950   19.1380  -33.9920 H   0  0  0  0  0  0  0  0  0  0  0  0
   -4.4231   18.2366  -31.8231 H   0  0  0  0  0  0  0  0  0  0  0  0
   -6.1870   18.1310  -31.3409 H   0  0  0  0  0  0  0  0  0  0  0  0
   -7.6065   17.2325  -33.6343 H   0  0  0  0  0  0  0  0  0  0  0  0
   -7.8562   15.0240  -34.7648 H   0  0  0  0  0  0  0  0  0  0  0  0
   -5.9993   13.3575  -34.6823 H   0  0  0  0  0  0  0  0  0  0  0  0
   -3.8769   13.9106  -33.4899 H   0  0  0  0  0  0  0  0  0  0  0  0
   -3.6163   16.1175  -32.3597 H   0  0  0  0  0  0  0  0  0  0  0  0
   -7.6200   19.8018  -33.9942 H   0  0  0  0  0  0  0  0  0  0  0  0
   -7.8353   18.9324  -32.4697 H   0  0  0  0  0  0  0  0  0  0  0  0
  1  2  1  0
  2  3  1  0
  3  4  1  0
  4  5  2  0
  5  6  1  0
  6  7  2  0
  7  8  1  0
  8  9  2  0
  9 10  1  0
  9 11  1  0
 11 12  2  0
 12 13  1  0
 13 14  2  0
 12 15  1  0
 15 16  2  0
 15 17  1  0
 17 18  1  0
 18 19  1  0
 19 20  2  0
 20 21  1  0
 21 22  2  0
 22 23  1  0
 23 24  2  0
 17 25  1  0
 14  4  1  0
 24 19  1  0
 13  7  1  0
 25 11  1  0
  1 26  1  0
  1 27  1  0
  1 28  1  0
  2 29  1  0
  2 30  1  0
  5 31  1  0
  6 32  1  0
 10 33  1  0
 10 34  1  0
 10 35  1  0
 14 36  1  0
 17 37  1  6
 18 38  1  0
 18 39  1  0
 20 40  1  0
 21 41  1  0
 22 42  1  0
 23 43  1  0
 24 44  1  0
 25 45  1  0
 25 46  1  0
M  CHG  1  17   1
M  END
>  <UniqueID>  (19) 
18

>  <SMILES>  (19) 
CCOc1ccc2nc(C)c3c(c2c1)C(=O)[N@@H+](Cc1ccccc1)C3

>  <Energy>  (19) 
71.91752920107186

>  <Genealogy>  (19) 
CCOc1ccc2nc(C)c3c(c2c1)C(=O)[NH+](Cc1ccccc1)C3 (protonated)
CCOc1ccc2nc(C)c3c(c2c1)C(=O)[N@@H+](Cc1ccccc1)C3 (chirality)
CCOc1ccc2nc(C)c3c(c2c1)C(=O)[N@@H+](Cc1ccccc1)C3 (3D coordinates assigned)
CCOc1ccc2nc(C)c3c(c2c1)C(=O)[N@@H+](Cc1ccccc1)C3 (nonaromatic ring conformer: 71.91752920107186 kcal/mol)

>  <smiles>  (19) 
CCOc1ccc2nc(C)c3c(c2c1)C(=O)N(Cc1ccccc1)C3

>  <score_type>  (19) 
oracle

>  <origin>  (19) 
adg

>  <m_score__min__energy>  (19) 
-8.8100000000000005

>  <m_primary>  (19) 
energy

$$$$
19:0
     RDKit          3D

 58 61  0  0  0  0  0  0  0  0999 V2000
   -3.8780   23.9280  -27.6800 C   0  0  0  0  0  0  0  0  0  0  0  0
   -4.8440   23.9820  -28.8680 C   0  0  0  0  0  0  0  0  0  0  0  0
   -5.7040   25.1800  -28.8390 N   0  0  0  0  0  0  0  0  0  0  0  0
   -6.8200   25.0810  -29.7970 C   0  0  0  0  0  0  0  0  0  0  0  0
   -6.7330   23.8100  -30.6640 C   0  0  0  0  0  0  0  0  0  0  0  0
   -5.7450   23.8920  -31.8410 C   0  0  0  0  0  0  0  0  0  0  0  0
   -4.7530   22.7240  -31.8710 C   0  0  0  0  0  0  0  0  0  0  0  0
   -4.9300   21.9350  -33.0890 N   0  0  0  0  0  0  0  0  0  0  0  0
   -5.1470   20.5190  -33.0240 C   0  0  0  0  0  0  0  0  0  0  0  0
   -6.4040   19.9790  -32.6600 C   0  0  0  0  0  0  0  0  0  0  0  0
   -7.4690   20.8230  -32.2850 C   0  0  0  0  0  0  0  0  0  0  0  0
   -8.7200   20.2960  -31.9730 C   0  0  0  0  0  0  0  0  0  0  0  0
   -8.9360   18.9240  -32.0360 C   0  0  0  0  0  0  0  0  0  0  0  0
   -7.9020   18.0620  -32.3980 C   0  0  0  0  0  0  0  0  0  0  0  0
   -6.6090   18.5580  -32.6990 C   0  0  0  0  0  0  0  0  0  0  0  0
   -5.5680   17.7050  -33.0430 N   0  0  0  0  0  0  0  0  0  0  0  0
   -5.7400   16.2410  -33.0100 C   0  0  0  0  0  0  0  0  0  0  0  0
   -4.3700   18.2600  -33.4180 C   0  0  0  0  0  0  0  0  0  0  0  0
   -3.2670   17.5920  -33.8440 N   0  0  0  0  0  0  0  0  0  0  0  0
   -2.3350   18.5450  -34.0450 C   0  0  0  0  0  0  0  0  0  0  0  0
   -1.0200   18.3470  -34.4590 C   0  0  0  0  0  0  0  0  0  0  0  0
   -0.1860   19.4720  -34.5750 C   0  0  0  0  0  0  0  0  0  0  0  0
   -0.6720   20.7700  -34.2610 C   0  0  0  0  0  0  0  0  0  0  0  0
    0.1370   21.9130  -34.3480 O   0  0  0  0  0  0  0  0  0  0  0  0
    0.9990   22.2050  -35.4440 C   0  0  0  0  0  0  0  0  0  0  0  0
   -2.0070   20.9320  -33.8430 C   0  0  0  0  0  0  0  0  0  0  0  0
   -2.8230   19.8010  -33.7630 C   0  0  0  0  0  0  0  0  0  0  0  0
   -4.1440   19.6220  -33.3860 C   0  0  0  0  0  0  0  0  0  0  0  0
   -4.4497   23.9600  -26.7408 H   0  0  0  0  0  0  0  0  0  0  0  0
   -3.2955   22.9959  -27.7231 H   0  0  0  0  0  0  0  0  0  0  0  0
   -3.1952   24.7894  -27.7231 H   0  0  0  0  0  0  0  0  0  0  0  0
   -4.2586   23.9897  -29.7993 H   0  0  0  0  0  0  0  0  0  0  0  0
   -5.4970   23.0987  -28.8099 H   0  0  0  0  0  0  0  0  0  0  0  0
   -5.1340   26.0380  -29.0290 H   0  0  0  0  0  0  0  0  0  0  0  0
   -6.0990   25.2570  -27.8730 H   0  0  0  0  0  0  0  0  0  0  0  0
   -7.7667   25.0636  -29.2372 H   0  0  0  0  0  0  0  0  0  0  0  0
   -6.7670   25.9512  -30.4678 H   0  0  0  0  0  0  0  0  0  0  0  0
   -6.4242   22.9759  -30.0168 H   0  0  0  0  0  0  0  0  0  0  0  0
   -7.7298   23.6722  -31.1084 H   0  0  0  0  0  0  0  0  0  0  0  0
   -6.3175   23.8902  -32.7803 H   0  0  0  0  0  0  0  0  0  0  0  0
   -5.1619   24.8166  -31.7180 H   0  0  0  0  0  0  0  0  0  0  0  0
   -3.7269   23.1193  -31.8413 H   0  0  0  0  0  0  0  0  0  0  0  0
   -4.9354   22.0790  -30.9988 H   0  0  0  0  0  0  0  0  0  0  0  0
   -4.5940   22.3470  -33.9890 H   0  0  0  0  0  0  0  0  0  0  0  0
   -7.3102   21.9105  -32.2382 H   0  0  0  0  0  0  0  0  0  0  0  0
   -9.5393   20.9672  -31.6759 H   0  0  0  0  0  0  0  0  0  0  0  0
   -9.9295   18.5159  -31.7986 H   0  0  0  0  0  0  0  0  0  0  0  0
   -8.0926   16.9799  -32.4508 H   0  0  0  0  0  0  0  0  0  0  0  0
   -5.7801   15.9000  -31.9650 H   0  0  0  0  0  0  0  0  0  0  0  0
   -6.6761   15.9702  -33.5202 H   0  0  0  0  0  0  0  0  0  0  0  0
   -4.8921   15.7606  -33.5202 H   0  0  0  0  0  0  0  0  0  0  0  0
   -3.1300   16.5710  -34.0040 H   0  0  0  0  0  0  0  0  0  0  0  0
   -0.6450   17.3387  -34.6886 H   0  0  0  0  0  0  0  0  0  0  0  0
    0.8535   19.3467  -34.9122 H   0  0  0  0  0  0  0  0  0  0  0  0
    1.9765   22.5361  -35.0635 H   0  0  0  0  0  0  0  0  0  0  0  0
    1.1312   21.3015  -36.0574 H   0  0  0  0  0  0  0  0  0  0  0  0
    0.5549   23.0028  -36.0574 H   0  0  0  0  0  0  0  0  0  0  0  0
   -2.3986   21.9271  -33.5852 H   0  0  0  0  0  0  0  0  0  0  0  0
  1  2  1  0
  2  3  1  0
  3  4  1  0
  4  5  1  0
  5  6  1  0
  6  7  1  0
  7  8  1  0
  8  9  1  0
  9 10  2  0
 10 11  1  0
 11 12  2  0
 12 13  1  0
 13 14  2  0
 14 15  1  0
 15 16  2  0
 16 17  1  0
 16 18  1  0
 18 19  1  0
 19 20  1  0
 20 21  2  0
 21 22  1  0
 22 23  2  0
 23 24  1  0
 24 25  1  0
 23 26  1  0
 26 27  2  0
 27 28  1  0
 28  9  1  0
 15 10  1  0
 28 18  2  0
 27 20  1  0
  1 29  1  0
  1 30  1  0
  1 31  1  0
  2 32  1  0
  2 33  1  0
  3 34  1  0
  3 35  1  0
  4 36  1  0
  4 37  1  0
  5 38  1  0
  5 39  1  0
  6 40  1  0
  6 41  1  0
  7 42  1  0
  7 43  1  0
  8 44  1  0
 11 45  1  0
 12 46  1  0
 13 47  1  0
 14 48  1  0
 17 49  1  0
 17 50  1  0
 17 51  1  0
 19 52  1  0
 21 53  1  0
 22 54  1  0
 25 55  1  0
 25 56  1  0
 25 57  1  0
 26 58  1  0
M  CHG  2   3   1  16   1
M  END
>  <UniqueID>  (20) 
19

>  <SMILES>  (20) 
CC[NH2+]CCCCNc1c2ccccc2[n+](C)c2[nH]c3ccc(OC)cc3c12

>  <Energy>  (20) 
111.50317748067387

>  <Genealogy>  (20) 
CC[NH2+]CCCCNc1c2ccccc2[n+](C)c2[nH]c3ccc(OC)cc3c12 (protonated)
CC[NH2+]CCCCNc1c2ccccc2[n+](C)c2[nH]c3ccc(OC)cc3c12 (3D coordinates assigned)
CC[NH2+]CCCCNc1c2ccccc2[n+](C)c2[nH]c3ccc(OC)cc3c12 (optimized conformer: 111.50317748067387 kcal/mol)

>  <smiles>  (20) 
CCNCCCCNc1c2ccccc2[n+](C)c2[nH]c3ccc(OC)cc3c12

>  <score_type>  (20) 
oracle

>  <origin>  (20) 
adg

>  <m_score__min__energy>  (20) 
-8.3300000000000001

>  <m_primary>  (20) 
energy

$$$$
20:0
     RDKit          3D

 56 56  0  0  0  0  0  0  0  0999 V2000
   -1.0140   21.1970  -33.9380 C   0  0  0  0  0  0  0  0  0  0  0  0
   -2.4190   21.5380  -33.4240 C   0  0  0  0  0  0  0  0  0  0  0  0
   -2.5830   21.4110  -31.9530 N   0  0  0  0  0  0  0  0  0  0  0  0
   -3.3330   20.1910  -31.5770 C   0  0  0  0  0  0  0  0  0  0  0  0
   -3.7480   19.4350  -32.8340 C   0  0  0  0  0  0  0  0  0  0  0  0
   -1.3400   21.5730  -31.1600 C   0  0  0  0  0  0  0  0  0  0  0  0
   -1.5400   22.3760  -29.8490 C   0  0  0  0  0  0  0  0  0  0  0  0
   -2.9390   22.3450  -29.3380 N   0  0  1  0  0  0  0  0  0  0  0  0
   -3.0970   21.1930  -28.4250 C   0  0  0  0  0  0  0  0  0  0  0  0
   -3.2820   23.6160  -28.6430 C   0  0  0  0  0  0  0  0  0  0  0  0
   -4.2290   24.5560  -29.4410 C   0  0  1  0  0  0  0  0  0  0  0  0
   -3.4850   25.3000  -30.3730 O   0  0  0  0  0  0  0  0  0  0  0  0
   -5.3820   23.8190  -30.1510 C   0  0  0  0  0  0  0  0  0  0  0  0
   -4.9450   23.3310  -31.4020 O   0  0  0  0  0  0  0  0  0  0  0  0
   -5.9710   23.4760  -32.3580 C   0  0  0  0  0  0  0  0  0  0  0  0
   -6.9790   22.3860  -32.1460 C   0  0  0  0  0  0  0  0  0  0  0  0
   -8.3100   22.7060  -31.8330 C   0  0  0  0  0  0  0  0  0  0  0  0
   -9.2350   21.6930  -31.5820 C   0  0  0  0  0  0  0  0  0  0  0  0
   -8.8410   20.3530  -31.6210 C   0  0  0  0  0  0  0  0  0  0  0  0
   -7.5050   20.0170  -31.9110 C   0  0  0  0  0  0  0  0  0  0  0  0
   -7.0530   18.6890  -31.9440 O   0  0  0  0  0  0  0  0  0  0  0  0
   -6.8610   17.9360  -33.1380 C   0  0  0  0  0  0  0  0  0  0  0  0
   -6.5820   21.0390  -32.1710 C   0  0  0  0  0  0  0  0  0  0  0  0
   -0.3407   21.0336  -33.0836 H   0  0  0  0  0  0  0  0  0  0  0  0
   -1.0589   20.2837  -34.5494 H   0  0  0  0  0  0  0  0  0  0  0  0
   -0.6352   22.0293  -34.5494 H   0  0  0  0  0  0  0  0  0  0  0  0
   -2.6459   22.5765  -33.7069 H   0  0  0  0  0  0  0  0  0  0  0  0
   -3.1051   20.8090  -33.8800 H   0  0  0  0  0  0  0  0  0  0  0  0
   -2.6939   19.5456  -30.9565 H   0  0  0  0  0  0  0  0  0  0  0  0
   -4.2315   20.4761  -31.0101 H   0  0  0  0  0  0  0  0  0  0  0  0
   -4.2593   18.5035  -32.5496 H   0  0  0  0  0  0  0  0  0  0  0  0
   -4.4294   20.0602  -33.4297 H   0  0  0  0  0  0  0  0  0  0  0  0
   -2.8547   19.1958  -33.4297 H   0  0  0  0  0  0  0  0  0  0  0  0
   -0.9600   20.5737  -30.9011 H   0  0  0  0  0  0  0  0  0  0  0  0
   -0.6327   22.1416  -31.7817 H   0  0  0  0  0  0  0  0  0  0  0  0
   -0.8788   21.9535  -29.0781 H   0  0  0  0  0  0  0  0  0  0  0  0
   -1.3022   23.4260  -30.0745 H   0  0  0  0  0  0  0  0  0  0  0  0
   -3.5810   22.1950  -30.1480 H   0  0  0  0  0  0  0  0  0  0  0  0
   -3.0492   21.5418  -27.3829 H   0  0  0  0  0  0  0  0  0  0  0  0
   -4.0695   20.7121  -28.6064 H   0  0  0  0  0  0  0  0  0  0  0  0
   -2.2899   20.4680  -28.6064 H   0  0  0  0  0  0  0  0  0  0  0  0
   -3.7712   23.3647  -27.6904 H   0  0  0  0  0  0  0  0  0  0  0  0
   -2.3372   24.1640  -28.5121 H   0  0  0  0  0  0  0  0  0  0  0  0
   -4.7002   25.2236  -28.7046 H   0  0  0  0  0  0  0  0  0  0  0  0
   -3.6600   24.9210  -31.2740 H   0  0  0  0  0  0  0  0  0  0  0  0
   -5.7146   22.9763  -29.5272 H   0  0  0  0  0  0  0  0  0  0  0  0
   -6.2160   24.5190  -30.3076 H   0  0  0  0  0  0  0  0  0  0  0  0
   -6.4544   24.4566  -32.2371 H   0  0  0  0  0  0  0  0  0  0  0  0
   -5.5518   23.4085  -33.3728 H   0  0  0  0  0  0  0  0  0  0  0  0
   -8.6240   23.7592  -31.7856 H   0  0  0  0  0  0  0  0  0  0  0  0
  -10.2796   21.9501  -31.3523 H   0  0  0  0  0  0  0  0  0  0  0  0
   -9.5764   19.5588  -31.4247 H   0  0  0  0  0  0  0  0  0  0  0  0
   -6.5968   16.8999  -32.8796 H   0  0  0  0  0  0  0  0  0  0  0  0
   -7.7893   17.9414  -33.7282 H   0  0  0  0  0  0  0  0  0  0  0  0
   -6.0487   18.3852  -33.7282 H   0  0  0  0  0  0  0  0  0  0  0  0
   -5.5362   20.7837  -32.3969 H   0  0  0  0  0  0  0  0  0  0  0  0
  1  2  1  0
  2  3  1  0
  3  4  1  0
  4  5  1  0
  3  6  1  0
  6  7  1  0
  7  8  1  0
  8  9  1  0
  8 10  1  0
 10 11  1  0
 11 12  1  0
 11 13  1  0
 13 14  1  0
 14 15  1  0
 15 16  1  0
 16 17  2  0
 17 18  1  0
 18 19  2  0
 19 20  1  0
 20 21  1  0
 21 22  1  0
 20 23  2  0
 23 16  1  0
  1 24  1  0
  1 25  1  0
  1 26  1  0
  2 27  1  0
  2 28  1  0
  4 29  1  0
  4 30  1  0
  5 31  1  0
  5 32  1  0
  5 33  1  0
  6 34  1  0
  6 35  1  0
  7 36  1  0
  7 37  1  0
  8 38  1  6
  9 39  1  0
  9 40  1  0
  9 41  1  0
 10 42  1  0
 10 43  1  0
 11 44  1  1
 12 45  1  0
 13 46  1  0
 13 47  1  0
 15 48  1  0
 15 49  1  0
 17 50  1  0
 18 51  1  0
 19 52  1  0
 22 53  1  0
 22 54  1  0
 22 55  1  0
 23 56  1  0
M  CHG  1   8   1
M  END
>  <UniqueID>  (21) 
20

>  <SMILES>  (21) 
CCN(CC)CC[N@@H+](C)C[C@@H](O)COCc1cccc(OC)c1

>  <Energy>  (21) 
54.97270777086079

>  <Genealogy>  (21) 
CCN(CC)CC[NH+](C)CC(O)COCc1cccc(OC)c1 (protonated)
CCN(CC)CC[N@@H+](C)C[C@@H](O)COCc1cccc(OC)c1 (chirality)
CCN(CC)CC[N@@H+](C)C[C@@H](O)COCc1cccc(OC)c1 (3D coordinates assigned)
CCN(CC)CC[N@@H+](C)C[C@@H](O)COCc1cccc(OC)c1 (optimized conformer: 54.97270777086079 kcal/mol)

>  <smiles>  (21) 
CCN(CC)CCN(C)CC(O)COCc1cccc(OC)c1

>  <score_type>  (21) 
oracle

>  <origin>  (21) 
adg

>  <m_score__min__energy>  (21) 
-5.5599999999999996

>  <m_primary>  (21) 
energy

$$$$
21:0
     RDKit          3D

 63 65  0  0  0  0  0  0  0  0999 V2000
   -6.1350   25.3480  -29.7790 C   0  0  0  0  0  0  0  0  0  0  0  0
   -5.0750   25.6780  -30.8290 C   0  0  0  0  0  0  0  0  0  0  0  0
   -3.8270   24.9620  -30.5270 N   0  0  0  0  0  0  0  0  0  0  0  0
   -3.9200   24.2130  -29.2640 C   0  0  0  0  0  0  0  0  0  0  0  0
   -2.6210   24.3620  -28.4700 C   0  0  0  0  0  0  0  0  0  0  0  0
   -1.5370   24.6750  -29.3260 O   0  0  0  0  0  0  0  0  0  0  0  0
   -0.7220   23.5390  -29.5370 C   0  0  0  0  0  0  0  0  0  0  0  0
   -1.6070   22.2880  -29.6140 C   0  0  0  0  0  0  0  0  0  0  0  0
   -1.3490   21.4960  -30.8310 N   0  0  0  0  0  0  0  0  0  0  0  0
   -2.5800   21.0630  -31.5020 C   0  0  0  0  0  0  0  0  0  0  0  0
   -3.2450   22.2410  -32.2430 C   0  0  0  0  0  0  0  0  0  0  0  0
   -4.1050   21.8790  -33.3970 N   0  0  0  0  0  0  0  0  0  0  0  0
   -5.2000   20.9540  -33.1080 C   0  0  0  0  0  0  0  0  0  0  0  0
   -5.0520   19.5630  -33.3760 C   0  0  0  0  0  0  0  0  0  0  0  0
   -6.1150   18.6720  -33.0610 C   0  0  0  0  0  0  0  0  0  0  0  0
   -7.2240   19.1260  -32.3760 N   0  0  0  0  0  0  0  0  0  0  0  0
   -8.1980   18.1570  -31.8170 C   0  0  0  0  0  0  0  0  0  0  0  0
   -7.4490   20.4790  -32.2290 C   0  0  0  0  0  0  0  0  0  0  0  0
   -8.6970   20.9650  -31.7500 C   0  0  0  0  0  0  0  0  0  0  0  0
   -8.9250   22.3250  -31.5740 C   0  0  0  0  0  0  0  0  0  0  0  0
   -7.9320   23.2400  -31.8830 C   0  0  0  0  0  0  0  0  0  0  0  0
   -6.7070   22.8020  -32.3780 C   0  0  0  0  0  0  0  0  0  0  0  0
   -6.4360   21.4220  -32.5740 C   0  0  0  0  0  0  0  0  0  0  0  0
   -6.0040   17.1920  -33.4240 C   0  0  0  0  0  0  0  0  0  0  0  0
   -4.9650   16.8960  -34.4970 C   0  0  0  0  0  0  0  0  0  0  0  0
   -3.6500   17.5350  -34.1010 C   0  0  0  0  0  0  0  0  0  0  0  0
   -3.8020   19.0530  -34.0950 C   0  0  0  0  0  0  0  0  0  0  0  0
   -5.7089   25.4806  -28.7736 H   0  0  0  0  0  0  0  0  0  0  0  0
   -6.9965   26.0204  -29.9038 H   0  0  0  0  0  0  0  0  0  0  0  0
   -6.4626   24.3054  -29.9038 H   0  0  0  0  0  0  0  0  0  0  0  0
   -5.4385   25.3735  -31.8216 H   0  0  0  0  0  0  0  0  0  0  0  0
   -4.8814   26.7608  -30.8182 H   0  0  0  0  0  0  0  0  0  0  0  0
   -3.0600   25.6710  -30.4250 H   0  0  0  0  0  0  0  0  0  0  0  0
   -4.7577   24.6053  -28.6688 H   0  0  0  0  0  0  0  0  0  0  0  0
   -4.0867   23.1488  -29.4870 H   0  0  0  0  0  0  0  0  0  0  0  0
   -2.7410   25.1685  -27.7316 H   0  0  0  0  0  0  0  0  0  0  0  0
   -2.4062   23.4079  -27.9664 H   0  0  0  0  0  0  0  0  0  0  0  0
   -0.1667   23.6550  -30.4794 H   0  0  0  0  0  0  0  0  0  0  0  0
   -0.0100   23.4363  -28.7049 H   0  0  0  0  0  0  0  0  0  0  0  0
   -1.4085   21.6591  -28.7336 H   0  0  0  0  0  0  0  0  0  0  0  0
   -2.6559   22.6181  -29.6425 H   0  0  0  0  0  0  0  0  0  0  0  0
   -0.7670   20.6580  -30.5990 H   0  0  0  0  0  0  0  0  0  0  0  0
   -2.3363   20.2726  -32.2272 H   0  0  0  0  0  0  0  0  0  0  0  0
   -3.2802   20.6844  -30.7428 H   0  0  0  0  0  0  0  0  0  0  0  0
   -3.8663   22.7874  -31.5181 H   0  0  0  0  0  0  0  0  0  0  0  0
   -2.4184   22.8333  -32.6624 H   0  0  0  0  0  0  0  0  0  0  0  0
   -4.5000   22.7570  -33.7990 H   0  0  0  0  0  0  0  0  0  0  0  0
   -3.5080   21.5540  -34.1830 H   0  0  0  0  0  0  0  0  0  0  0  0
   -8.1617   18.1931  -30.7182 H   0  0  0  0  0  0  0  0  0  0  0  0
   -9.2108   18.4163  -32.1591 H   0  0  0  0  0  0  0  0  0  0  0  0
   -7.9439   17.1429  -32.1591 H   0  0  0  0  0  0  0  0  0  0  0  0
   -9.4986   20.2497  -31.5139 H   0  0  0  0  0  0  0  0  0  0  0  0
   -9.8944   22.6747  -31.1892 H   0  0  0  0  0  0  0  0  0  0  0  0
   -8.1119   24.3153  -31.7369 H   0  0  0  0  0  0  0  0  0  0  0  0
   -5.9309   23.5420  -32.6230 H   0  0  0  0  0  0  0  0  0  0  0  0
   -5.7338   16.6322  -32.5165 H   0  0  0  0  0  0  0  0  0  0  0  0
   -6.9796   16.8894  -33.8322 H   0  0  0  0  0  0  0  0  0  0  0  0
   -4.8325   15.8081  -34.5917 H   0  0  0  0  0  0  0  0  0  0  0  0
   -5.3007   17.3045  -35.4616 H   0  0  0  0  0  0  0  0  0  0  0  0
   -3.3637   17.1915  -33.0960 H   0  0  0  0  0  0  0  0  0  0  0  0
   -2.8714   17.2479  -34.8231 H   0  0  0  0  0  0  0  0  0  0  0  0
   -2.9202   19.4845  -33.5988 H   0  0  0  0  0  0  0  0  0  0  0  0
   -3.8983   19.3617  -35.1464 H   0  0  0  0  0  0  0  0  0  0  0  0
  1  2  1  0
  2  3  1  0
  3  4  1  0
  4  5  1  0
  5  6  1  0
  6  7  1  0
  7  8  1  0
  8  9  1  0
  9 10  1  0
 10 11  1  0
 11 12  1  0
 12 13  1  0
 13 14  2  0
 14 15  1  0
 15 16  2  0
 16 17  1  0
 16 18  1  0
 18 19  2  0
 19 20  1  0
 20 21  2  0
 21 22  1  0
 22 23  2  0
 15 24  1  0
 24 25  1  0
 25 26  1  0
 26 27  1  0
 23 13  1  0
 27 14  1  0
 23 18  1  0
  1 28  1  0
  1 29  1  0
  1 30  1  0
  2 31  1  0
  2 32  1  0
  3 33  1  0
  4 34  1  0
  4 35  1  0
  5 36  1  0
  5 37  1  0
  7 38  1  0
  7 39  1  0
  8 40  1  0
  8 41  1  0
  9 42  1  0
 10 43  1  0
 10 44  1  0
 11 45  1  0
 11 46  1  0
 12 47  1  0
 12 48  1  0
 17 49  1  0
 17 50  1  0
 17 51  1  0
 19 52  1  0
 20 53  1  0
 21 54  1  0
 22 55  1  0
 24 56  1  0
 24 57  1  0
 25 58  1  0
 25 59  1  0
 26 60  1  0
 26 61  1  0
 27 62  1  0
 27 63  1  0
M  CHG  2  12   1  16   1
M  END
>  <UniqueID>  (22) 
21

>  <SMILES>  (22) 
CCNCCOCCNCC[NH2+]c1c2c([n+](C)c3ccccc13)CCCC2

>  <Energy>  (22) 
87.35509766317139

>  <Genealogy>  (22) 
CCNCCOCCNCC[NH2+]c1c2c([n+](C)c3ccccc13)CCCC2 (protonated)
CCNCCOCCNCC[NH2+]c1c2c([n+](C)c3ccccc13)CCCC2 (3D coordinates assigned)
CCNCCOCCNCC[NH2+]c1c2c([n+](C)c3ccccc13)CCCC2 (nonaromatic ring conformer: 87.35509766317139 kcal/mol)

>  <smiles>  (22) 
CCNCCOCCNCCNc1c2c([n+](C)c3ccccc13)CCCC2

>  <score_type>  (22) 
oracle

>  <origin>  (22) 
adg

>  <m_score__min__energy>  (22) 
-8.5899999999999999

>  <m_primary>  (22) 
energy

$$$$
22:0
     RDKit          3D

 41 41  0  0  0  0  0  0  0  0999 V2000
   -8.1440   18.2210  -31.9890 C   0  0  0  0  0  0  0  0  0  0  0  0
   -9.0450   19.4380  -32.2500 C   0  0  0  0  0  0  0  0  0  0  0  0
   -8.5070   20.7260  -31.7510 N   0  0  0  0  0  0  0  0  0  0  0  0
   -9.4300   21.8710  -31.8130 C   0  0  0  0  0  0  0  0  0  0  0  0
   -7.1220   21.0430  -32.1630 C   0  0  0  0  0  0  0  0  0  0  0  0
   -6.8670   22.5390  -32.4110 C   0  0  0  0  0  0  0  0  0  0  0  0
   -6.2440   23.1460  -31.2260 N   0  0  0  0  0  0  0  0  0  0  0  0
   -7.1050   24.1820  -30.6360 C   0  0  0  0  0  0  0  0  0  0  0  0
   -6.2580   25.3510  -30.1320 C   0  0  0  0  0  0  0  0  0  0  0  0
   -4.8560   24.9070  -29.8340 C   0  0  0  0  0  0  0  0  0  0  0  0
   -3.9590   25.0600  -30.7060 O   0  0  0  0  0  0  0  0  0  0  0  0
   -4.5450   24.3110  -28.5660 N   0  0  0  0  0  0  0  0  0  0  0  0
   -3.2770   23.7030  -28.2770 C   0  0  0  0  0  0  0  0  0  0  0  0
   -3.2370   22.3690  -27.8450 C   0  0  0  0  0  0  0  0  0  0  0  0
   -2.0120   21.7510  -27.5730 C   0  0  0  0  0  0  0  0  0  0  0  0
   -0.8180   22.4590  -27.7480 C   0  0  0  0  0  0  0  0  0  0  0  0
   -0.8480   23.7810  -28.2010 C   0  0  0  0  0  0  0  0  0  0  0  0
   -2.0710   24.4040  -28.4710 C   0  0  0  0  0  0  0  0  0  0  0  0
   -2.0760   25.6700  -28.9580 F   0  0  0  0  0  0  0  0  0  0  0  0
   -8.0338   18.0722  -30.9047 H   0  0  0  0  0  0  0  0  0  0  0  0
   -8.5984   17.3254  -32.4377 H   0  0  0  0  0  0  0  0  0  0  0  0
   -7.1547   18.3942  -32.4377 H   0  0  0  0  0  0  0  0  0  0  0  0
   -9.1944   19.5270  -33.3362 H   0  0  0  0  0  0  0  0  0  0  0  0
   -9.9790   19.2569  -31.6978 H   0  0  0  0  0  0  0  0  0  0  0  0
   -9.6873   22.1902  -30.7923 H   0  0  0  0  0  0  0  0  0  0  0  0
   -8.9470   22.7029  -32.3465 H   0  0  0  0  0  0  0  0  0  0  0  0
  -10.3455   21.5755  -32.3465 H   0  0  0  0  0  0  0  0  0  0  0  0
   -6.4395   20.7031  -31.3701 H   0  0  0  0  0  0  0  0  0  0  0  0
   -6.9507   20.5293  -33.1205 H   0  0  0  0  0  0  0  0  0  0  0  0
   -6.1966   22.6559  -33.2752 H   0  0  0  0  0  0  0  0  0  0  0  0
   -7.8254   23.0402  -32.6118 H   0  0  0  0  0  0  0  0  0  0  0  0
   -5.3540   23.6110  -31.5290 H   0  0  0  0  0  0  0  0  0  0  0  0
   -7.8093   24.5462  -31.3984 H   0  0  0  0  0  0  0  0  0  0  0  0
   -7.6577   23.7489  -29.7893 H   0  0  0  0  0  0  0  0  0  0  0  0
   -6.2313   26.1351  -30.9030 H   0  0  0  0  0  0  0  0  0  0  0  0
   -6.7085   25.7379  -29.2060 H   0  0  0  0  0  0  0  0  0  0  0  0
   -5.2220   24.4380  -27.7800 H   0  0  0  0  0  0  0  0  0  0  0  0
   -4.1737   21.8061  -27.7195 H   0  0  0  0  0  0  0  0  0  0  0  0
   -1.9874   20.7089  -27.2217 H   0  0  0  0  0  0  0  0  0  0  0  0
    0.1451   21.9749  -27.5289 H   0  0  0  0  0  0  0  0  0  0  0  0
    0.0925   24.3329  -28.3455 H   0  0  0  0  0  0  0  0  0  0  0  0
  1  2  1  0
  2  3  1  0
  3  4  1  0
  3  5  1  0
  5  6  1  0
  6  7  1  0
  7  8  1  0
  8  9  1  0
  9 10  1  0
 10 11  2  0
 10 12  1  0
 12 13  1  0
 13 14  2  0
 14 15  1  0
 15 16  2  0
 16 17  1  0
 17 18  2  0
 18 19  1  0
 18 13  1  0
  1 20  1  0
  1 21  1  0
  1 22  1  0
  2 23  1  0
  2 24  1  0
  4 25  1  0
  4 26  1  0
  4 27  1  0
  5 28  1  0
  5 29  1  0
  6 30  1  0
  6 31  1  0
  7 32  1  0
  8 33  1  0
  8 34  1  0
  9 35  1  0
  9 36  1  0
 12 37  1  0
 14 38  1  0
 15 39  1  0
 16 40  1  0
 17 41  1  0
M  END
>  <UniqueID>  (23) 
22

>  <SMILES>  (23) 
CCN(C)CCNCCC(=O)Nc1ccccc1F

>  <Energy>  (23) 
43.95600283424145

>  <Genealogy>  (23) 
CCN(C)CCNCCC(=O)Nc1ccccc1F (3D coordinates assigned)
CCN(C)CCNCCC(=O)Nc1ccccc1F (optimized conformer: 43.95600283424145 kcal/mol)

>  <smiles>  (23) 
CCN(C)CCNCCC(=O)Nc1ccccc1F

>  <score_type>  (23) 
oracle

>  <origin>  (23) 
adg

>  <m_score__min__energy>  (23) 
-6.8200000000000003

>  <m_primary>  (23) 
energy

$$$$
