0:0
     RDKit          3D

 26 26  0  0  0  0  0  0  0  0999 V2000
   -6.4690   24.3540  -30.4840 C   0  0  0  0  0  0  0  0  0  0  0  0
   -5.7340   23.8820  -31.7420 C   0  0  0  0  0  0  0  0  0  0  0  0
   -6.6140   23.1590  -32.6800 N   0  0  0  0  0  0  0  0  0  0  0  0
   -7.8610   22.6590  -32.0710 C   0  0  0  0  0  0  0  0  0  0  0  0
   -7.9950   21.1670  -32.1980 C   0  0  0  0  0  0  0  0  0  0  0  0
   -9.0420   20.4470  -31.6290 C   0  0  0  0  0  0  0  0  0  0  0  0
   -8.7760   18.8170  -31.9470 S   0  0  0  0  0  0  0  0  0  0  0  0
   -7.3560   19.1020  -32.8020 C   0  0  0  0  0  0  0  0  0  0  0  0
   -6.4660   18.0380  -33.3600 C   0  0  0  0  0  0  0  0  0  0  0  0
   -5.7220   18.5510  -34.5870 C   0  0  0  0  0  0  0  0  0  0  0  0
   -7.0560   20.4180  -32.8370 N   0  0  0  0  0  0  0  0  0  0  0  0
   -5.9282   24.0067  -29.5913 H   0  0  0  0  0  0  0  0  0  0  0  0
   -6.5181   25.4529  -30.4786 H   0  0  0  0  0  0  0  0  0  0  0  0
   -7.4887   23.9414  -30.4786 H   0  0  0  0  0  0  0  0  0  0  0  0
   -5.3179   24.7607  -32.2566 H   0  0  0  0  0  0  0  0  0  0  0  0
   -4.9452   23.1848  -31.4232 H   0  0  0  0  0  0  0  0  0  0  0  0
   -6.0910   22.3480  -33.0880 H   0  0  0  0  0  0  0  0  0  0  0  0
   -6.8570   23.8000  -33.4710 H   0  0  0  0  0  0  0  0  0  0  0  0
   -7.8662   22.9258  -31.0039 H   0  0  0  0  0  0  0  0  0  0  0  0
   -8.7060   23.1210  -32.6026 H   0  0  0  0  0  0  0  0  0  0  0  0
   -9.8912   20.8687  -31.0713 H   0  0  0  0  0  0  0  0  0  0  0  0
   -5.7361   17.7384  -32.5935 H   0  0  0  0  0  0  0  0  0  0  0  0
   -7.0838   17.1767  -33.6540 H   0  0  0  0  0  0  0  0  0  0  0  0
   -4.8555   19.1485  -34.2672 H   0  0  0  0  0  0  0  0  0  0  0  0
   -5.3769   17.6980  -35.1898 H   0  0  0  0  0  0  0  0  0  0  0  0
   -6.3966   19.1768  -35.1898 H   0  0  0  0  0  0  0  0  0  0  0  0
  1  2  1  0
  2  3  1  0
  3  4  1  0
  4  5  1  0
  5  6  2  0
  6  7  1  0
  7  8  1  0
  8  9  1  0
  9 10  1  0
  8 11  2  0
 11  5  1  0
  1 12  1  0
  1 13  1  0
  1 14  1  0
  2 15  1  0
  2 16  1  0
  3 17  1  0
  3 18  1  0
  4 19  1  0
  4 20  1  0
  6 21  1  0
  9 22  1  0
  9 23  1  0
 10 24  1  0
 10 25  1  0
 10 26  1  0
M  CHG  1   3   1
M  END
>  <UniqueID>  (1) 
1

>  <SMILES>  (1) 
CC[NH2+]Cc1csc(CC)n1

>  <Energy>  (1) 
46.53056236144775

>  <Genealogy>  (1) 
CC[NH2+]Cc1csc(CC)n1 (protonated)
CC[NH2+]Cc1csc(CC)n1 (3D coordinates assigned)
CC[NH2+]Cc1csc(CC)n1 (optimized conformer: 46.53056236144775 kcal/mol)

>  <smiles>  (1) 
CCNCc1csc(CC)n1

>  <score_type>  (1) 
oracle

>  <origin>  (1) 
adg

>  <m_score__min__energy>  (1) 
-4.0999999999999996

>  <m_primary>  (1) 
energy

$$$$
1:0
     RDKit          3D

 44 46  0  0  0  0  0  0  0  0999 V2000
   -4.2260   25.6670  -31.6200 H   0  0  0  0  0  0  0  0  0  0  0  0
   -3.8330   25.2970  -30.7640 O   0  0  0  0  0  0  0  0  0  0  0  0
   -4.3080   24.1460  -30.1650 N   0  0  0  0  0  0  0  0  0  0  0  0
   -4.1950   22.9520  -30.6740 C   0  0  0  0  0  0  0  0  0  0  0  0
   -2.8780   22.3780  -31.0090 C   0  0  0  0  0  0  0  0  0  0  0  0
   -2.7290   21.5420  -32.1300 C   0  0  0  0  0  0  0  0  0  0  0  0
   -3.8490   21.2390  -32.9180 O   0  0  0  0  0  0  0  0  0  0  0  0
   -4.2760   19.9510  -33.2680 C   0  0  0  0  0  0  0  0  0  0  0  0
   -5.5280   19.7110  -33.8590 C   0  0  0  0  0  0  0  0  0  0  0  0
   -6.2039   20.5521  -34.0728 H   0  0  0  0  0  0  0  0  0  0  0  0
   -5.9170   18.4060  -34.1760 C   0  0  0  0  0  0  0  0  0  0  0  0
   -6.8948   18.2282  -34.6475 H   0  0  0  0  0  0  0  0  0  0  0  0
   -5.0740   17.3240  -33.8990 C   0  0  0  0  0  0  0  0  0  0  0  0
   -5.5100   16.0340  -34.2370 O   0  0  0  0  0  0  0  0  0  0  0  0
   -6.8670   15.6070  -34.1960 C   0  0  0  0  0  0  0  0  0  0  0  0
   -7.1881   15.5060  -33.1488 H   0  0  0  0  0  0  0  0  0  0  0  0
   -7.5004   16.3492  -34.7038 H   0  0  0  0  0  0  0  0  0  0  0  0
   -6.9613   14.6358  -34.7038 H   0  0  0  0  0  0  0  0  0  0  0  0
   -3.8280   17.5640  -33.2890 C   0  0  0  0  0  0  0  0  0  0  0  0
   -3.1577   16.7221  -33.0611 H   0  0  0  0  0  0  0  0  0  0  0  0
   -3.4400   18.8700  -32.9720 C   0  0  0  0  0  0  0  0  0  0  0  0
   -2.4694   19.0480  -32.4859 H   0  0  0  0  0  0  0  0  0  0  0  0
   -1.5100   20.9970  -32.4040 N   0  0  0  0  0  0  0  0  0  0  0  0
   -0.4210   21.2410  -31.6280 C   0  0  0  0  0  0  0  0  0  0  0  0
    0.5506   20.7961  -31.8888 H   0  0  0  0  0  0  0  0  0  0  0  0
   -0.5350   22.0560  -30.5000 C   0  0  0  0  0  0  0  0  0  0  0  0
    0.3415   22.2507  -29.8645 H   0  0  0  0  0  0  0  0  0  0  0  0
   -1.7720   22.6210  -30.1870 C   0  0  0  0  0  0  0  0  0  0  0  0
   -1.8775   23.2565  -29.2954 H   0  0  0  0  0  0  0  0  0  0  0  0
   -5.3730   22.1930  -30.9810 N   0  0  0  0  0  0  0  0  0  0  0  0
   -5.2730   21.1830  -31.2320 H   0  0  0  0  0  0  0  0  0  0  0  0
   -6.6850   22.8160  -31.1450 C   0  0  0  0  0  0  0  0  0  0  0  0
   -6.9847   23.2908  -30.1991 H   0  0  0  0  0  0  0  0  0  0  0  0
   -6.6301   23.5750  -31.9393 H   0  0  0  0  0  0  0  0  0  0  0  0
   -7.6980   21.7750  -31.5230 C   0  0  0  0  0  0  0  0  0  0  0  0
   -7.3260   20.4650  -31.5640 N   0  0  0  0  0  0  0  0  0  0  0  0
   -8.1880   19.4860  -31.9510 C   0  0  0  0  0  0  0  0  0  0  0  0
   -7.8575   18.4369  -31.9644 H   0  0  0  0  0  0  0  0  0  0  0  0
   -9.4910   19.8110  -32.3310 C   0  0  0  0  0  0  0  0  0  0  0  0
  -10.1913   19.0231  -32.6452 H   0  0  0  0  0  0  0  0  0  0  0  0
   -9.8960   21.1470  -32.3080 C   0  0  0  0  0  0  0  0  0  0  0  0
  -10.9192   21.4185  -32.6071 H   0  0  0  0  0  0  0  0  0  0  0  0
   -8.9980   22.1380  -31.9040 C   0  0  0  0  0  0  0  0  0  0  0  0
   -9.3077   23.1933  -31.8849 H   0  0  0  0  0  0  0  0  0  0  0  0
  1  2  1  0
  2  3  1  0
  3  4  2  0
  4  5  1  0
  5  6  1  0
  6  7  1  0
  7  8  1  0
  8  9  2  0
  9 10  1  0
  9 11  1  0
 11 12  1  0
 11 13  2  0
 13 14  1  0
 14 15  1  0
 15 16  1  0
 15 17  1  0
 15 18  1  0
 13 19  1  0
 19 20  1  0
 19 21  2  0
 21 22  1  0
  6 23  2  0
 23 24  1  0
 24 25  1  0
 24 26  2  0
 26 27  1  0
 26 28  1  0
 28 29  1  0
  4 30  1  0
 30 31  1  0
 30 32  1  0
 32 33  1  0
 32 34  1  0
 32 35  1  0
 35 36  2  0
 36 37  1  0
 37 38  1  0
 37 39  2  0
 39 40  1  0
 39 41  1  0
 41 42  1  0
 41 43  2  0
 43 44  1  0
 28  5  2  0
 43 35  1  0
 21  8  1  0
M  END
>  <UniqueID>  (2) 
2

>  <SMILES>  (2) 
COc1ccc(Oc2ncccc2/C(=N\O)NCc2ccccn2)cc1

>  <Energy>  (2) 
56.38031407627645

>  <Genealogy>  (2) 
COc1ccc(Oc2ncccc2/C(=N\O)NCc2ccccn2)cc1 (cis-trans isomerization)
COc1ccc(Oc2ncccc2/C(=N\O)NCc2ccccn2)cc1 (3D coordinates assigned)
COc1ccc(Oc2ncccc2/C(=N\O)NCc2ccccn2)cc1 (optimized conformer: 56.38031407627645 kcal/mol)

>  <smiles>  (2) 
COc1ccc(Oc2ncccc2C(=NO)NCc2ccccn2)cc1

>  <score_type>  (2) 
oracle

>  <origin>  (2) 
adg

>  <m_score__min__energy>  (2) 
-8.8200000000000003

>  <m_primary>  (2) 
energy

$$$$
2:0
     RDKit          3D

 40 42  0  0  0  0  0  0  0  0999 V2000
   -2.8880   22.5680  -30.8720 C   0  0  0  0  0  0  0  0  0  0  0  0
   -3.8920   23.5140  -31.2280 O   0  0  0  0  0  0  0  0  0  0  0  0
   -5.2540   23.2110  -31.3620 C   0  0  0  0  0  0  0  0  0  0  0  0
   -6.2650   24.1440  -31.0680 C   0  0  0  0  0  0  0  0  0  0  0  0
   -7.6100   23.8000  -31.2190 C   0  0  0  0  0  0  0  0  0  0  0  0
   -7.9680   22.5190  -31.6650 C   0  0  0  0  0  0  0  0  0  0  0  0
   -9.3200   22.1770  -31.8170 C   0  0  0  0  0  0  0  0  0  0  0  0
   -9.6750   20.9040  -32.2620 C   0  0  0  0  0  0  0  0  0  0  0  0
   -8.6890   19.9610  -32.5560 C   0  0  0  0  0  0  0  0  0  0  0  0
   -7.3330   20.2800  -32.4100 C   0  0  0  0  0  0  0  0  0  0  0  0
   -6.3520   19.2790  -32.7140 N   0  0  0  0  0  0  0  0  0  0  0  0
   -5.7930   18.4500  -31.6460 C   0  0  0  0  0  0  0  0  0  0  0  0
   -5.7260   16.9700  -32.0750 C   0  0  0  0  0  0  0  0  0  0  0  0
   -5.5160   16.7590  -33.5360 N   0  0  0  0  0  0  0  0  0  0  0  0
   -6.7570   16.3090  -34.1980 C   0  0  0  0  0  0  0  0  0  0  0  0
   -4.9350   17.9370  -34.2190 C   0  0  0  0  0  0  0  0  0  0  0  0
   -5.8280   19.1780  -34.0760 C   0  0  0  0  0  0  0  0  0  0  0  0
   -6.9590   21.5680  -31.9620 C   0  0  0  0  0  0  0  0  0  0  0  0
   -5.6080   21.9330  -31.8070 C   0  0  0  0  0  0  0  0  0  0  0  0
   -2.8182   22.5023  -29.7762 H   0  0  0  0  0  0  0  0  0  0  0  0
   -3.1512   21.5820  -31.2825 H   0  0  0  0  0  0  0  0  0  0  0  0
   -1.9194   22.8894  -31.2825 H   0  0  0  0  0  0  0  0  0  0  0  0
   -5.9944   25.1508  -30.7170 H   0  0  0  0  0  0  0  0  0  0  0  0
   -8.3927   24.5372  -30.9870 H   0  0  0  0  0  0  0  0  0  0  0  0
  -10.1020   22.9148  -31.5846 H   0  0  0  0  0  0  0  0  0  0  0  0
  -10.7366   20.6420  -32.3818 H   0  0  0  0  0  0  0  0  0  0  0  0
   -8.9792   18.9591  -32.9052 H   0  0  0  0  0  0  0  0  0  0  0  0
   -4.7781   18.8028  -31.4102 H   0  0  0  0  0  0  0  0  0  0  0  0
   -6.4431   18.5304  -30.7623 H   0  0  0  0  0  0  0  0  0  0  0  0
   -4.8941   16.4933  -31.5359 H   0  0  0  0  0  0  0  0  0  0  0  0
   -6.7042   16.5292  -31.8325 H   0  0  0  0  0  0  0  0  0  0  0  0
   -4.8260   15.9780  -33.6470 H   0  0  0  0  0  0  0  0  0  0  0  0
   -7.5022   16.0388  -33.4353 H   0  0  0  0  0  0  0  0  0  0  0  0
   -7.1528   17.1209  -34.8259 H   0  0  0  0  0  0  0  0  0  0  0  0
   -6.5404   15.4322  -34.8259 H   0  0  0  0  0  0  0  0  0  0  0  0
   -3.9507   18.1542  -33.7786 H   0  0  0  0  0  0  0  0  0  0  0  0
   -4.8462   17.7016  -35.2898 H   0  0  0  0  0  0  0  0  0  0  0  0
   -5.2369   20.0773  -34.3039 H   0  0  0  0  0  0  0  0  0  0  0  0
   -6.6721   19.0910  -34.7760 H   0  0  0  0  0  0  0  0  0  0  0  0
   -4.8192   21.2023  -32.0393 H   0  0  0  0  0  0  0  0  0  0  0  0
  1  2  1  0
  2  3  1  0
  3  4  2  0
  4  5  1  0
  5  6  2  0
  6  7  1  0
  7  8  2  0
  8  9  1  0
  9 10  2  0
 10 11  1  0
 11 12  1  0
 12 13  1  0
 13 14  1  0
 14 15  1  0
 14 16  1  0
 16 17  1  0
 10 18  1  0
 18 19  2  0
 19  3  1  0
 18  6  1  0
 17 11  1  0
  1 20  1  0
  1 21  1  0
  1 22  1  0
  4 23  1  0
  5 24  1  0
  7 25  1  0
  8 26  1  0
  9 27  1  0
 12 28  1  0
 12 29  1  0
 13 30  1  0
 13 31  1  0
 14 32  1  0
 15 33  1  0
 15 34  1  0
 15 35  1  0
 16 36  1  0
 16 37  1  0
 17 38  1  0
 17 39  1  0
 19 40  1  0
M  CHG  1  14   1
M  END
>  <UniqueID>  (3) 
3

>  <SMILES>  (3) 
COc1ccc2cccc(N3CC[NH+](C)CC3)c2c1

>  <Energy>  (3) 
57.281365595371405

>  <Genealogy>  (3) 
COc1ccc2cccc(N3CC[NH+](C)CC3)c2c1 (protonated)
COc1ccc2cccc(N3CC[NH+](C)CC3)c2c1 (3D coordinates assigned)
COc1ccc2cccc(N3CC[NH+](C)CC3)c2c1 (nonaromatic ring conformer: 57.281365595371405 kcal/mol)

>  <smiles>  (3) 
COc1ccc2cccc(N3CCN(C)CC3)c2c1

>  <score_type>  (3) 
oracle

>  <origin>  (3) 
adg

>  <m_score__min__energy>  (3) 
-6.8600000000000003

>  <m_primary>  (3) 
energy

$$$$
3:0
     RDKit          3D

 41 42  0  0  0  0  0  0  0  0999 V2000
   -1.2100   25.9020  -27.7730 C   0  0  0  0  0  0  0  0  0  0  0  0
   -1.9450   25.6570  -28.9670 O   0  0  0  0  0  0  0  0  0  0  0  0
   -2.3570   24.3860  -29.4000 C   0  0  0  0  0  0  0  0  0  0  0  0
   -1.6760   23.2120  -29.0270 C   0  0  0  0  0  0  0  0  0  0  0  0
   -2.1130   21.9670  -29.4820 C   0  0  0  0  0  0  0  0  0  0  0  0
   -3.2370   21.8710  -30.3130 C   0  0  0  0  0  0  0  0  0  0  0  0
   -3.7000   20.5250  -30.8190 C   0  0  0  0  0  0  0  0  0  0  0  0
   -3.4000   20.3170  -32.2460 N   0  0  0  0  0  0  0  0  0  0  0  0
   -4.3660   20.9530  -33.1600 C   0  0  0  0  0  0  0  0  0  0  0  0
   -5.5840   20.0520  -33.4110 C   0  0  0  0  0  0  0  0  0  0  0  0
   -6.8340   20.5720  -32.7490 C   0  0  0  0  0  0  0  0  0  0  0  0
   -7.9560   19.7380  -32.6040 C   0  0  0  0  0  0  0  0  0  0  0  0
   -9.1280   20.2270  -32.0180 C   0  0  0  0  0  0  0  0  0  0  0  0
   -9.1840   21.5480  -31.5650 C   0  0  0  0  0  0  0  0  0  0  0  0
   -8.0690   22.3800  -31.6940 C   0  0  0  0  0  0  0  0  0  0  0  0
   -6.8960   21.8950  -32.2820 C   0  0  0  0  0  0  0  0  0  0  0  0
   -3.9220   23.0380  -30.6790 C   0  0  0  0  0  0  0  0  0  0  0  0
   -3.4850   24.2990  -30.2330 C   0  0  0  0  0  0  0  0  0  0  0  0
   -4.1410   25.4850  -30.5980 O   0  0  0  0  0  0  0  0  0  0  0  0
   -5.5430   25.7030  -30.4710 C   0  0  0  0  0  0  0  0  0  0  0  0
   -1.8460   25.6900  -26.9009 H   0  0  0  0  0  0  0  0  0  0  0  0
   -0.3240   25.2506  -27.7477 H   0  0  0  0  0  0  0  0  0  0  0  0
   -0.8920   26.9547  -27.7477 H   0  0  0  0  0  0  0  0  0  0  0  0
   -0.7940   23.2761  -28.3729 H   0  0  0  0  0  0  0  0  0  0  0  0
   -1.5719   21.0560  -29.1865 H   0  0  0  0  0  0  0  0  0  0  0  0
   -3.1978   19.7388  -30.2362 H   0  0  0  0  0  0  0  0  0  0  0  0
   -4.7930   20.4853  -30.7014 H   0  0  0  0  0  0  0  0  0  0  0  0
   -2.4470   20.7050  -32.4430 H   0  0  0  0  0  0  0  0  0  0  0  0
   -4.7076   21.8997  -32.7160 H   0  0  0  0  0  0  0  0  0  0  0  0
   -3.8641   21.1293  -34.1228 H   0  0  0  0  0  0  0  0  0  0  0  0
   -5.7590   19.9897  -34.4952 H   0  0  0  0  0  0  0  0  0  0  0  0
   -5.3635   19.0647  -32.9790 H   0  0  0  0  0  0  0  0  0  0  0  0
   -7.9121   18.6958  -32.9531 H   0  0  0  0  0  0  0  0  0  0  0  0
  -10.0056   19.5720  -31.9137 H   0  0  0  0  0  0  0  0  0  0  0  0
  -10.1068   21.9330  -31.1065 H   0  0  0  0  0  0  0  0  0  0  0  0
   -8.1136   23.4180  -31.3326 H   0  0  0  0  0  0  0  0  0  0  0  0
   -6.0192   22.5521  -32.3789 H   0  0  0  0  0  0  0  0  0  0  0  0
   -4.8115   22.9672  -31.3223 H   0  0  0  0  0  0  0  0  0  0  0  0
   -5.8125   25.7449  -29.4054 H   0  0  0  0  0  0  0  0  0  0  0  0
   -5.8116   26.6537  -30.9548 H   0  0  0  0  0  0  0  0  0  0  0  0
   -6.0875   24.8787  -30.9548 H   0  0  0  0  0  0  0  0  0  0  0  0
  1  2  1  0
  2  3  1  0
  3  4  2  0
  4  5  1  0
  5  6  2  0
  6  7  1  0
  7  8  1  0
  8  9  1  0
  9 10  1  0
 10 11  1  0
 11 12  2  0
 12 13  1  0
 13 14  2  0
 14 15  1  0
 15 16  2  0
  6 17  1  0
 17 18  2  0
 18 19  1  0
 19 20  1  0
 18  3  1  0
 16 11  1  0
  1 21  1  0
  1 22  1  0
  1 23  1  0
  4 24  1  0
  5 25  1  0
  7 26  1  0
  7 27  1  0
  8 28  1  0
  9 29  1  0
  9 30  1  0
 10 31  1  0
 10 32  1  0
 12 33  1  0
 13 34  1  0
 14 35  1  0
 15 36  1  0
 16 37  1  0
 17 38  1  0
 20 39  1  0
 20 40  1  0
 20 41  1  0
M  END
>  <UniqueID>  (4) 
4

>  <SMILES>  (4) 
COc1ccc(CNCCc2ccccc2)cc1OC

>  <Energy>  (4) 
37.98756180782721

>  <Genealogy>  (4) 
COc1ccc(CNCCc2ccccc2)cc1OC (3D coordinates assigned)
COc1ccc(CNCCc2ccccc2)cc1OC (optimized conformer: 37.98756180782721 kcal/mol)

>  <smiles>  (4) 
COc1ccc(CNCCc2ccccc2)cc1OC

>  <score_type>  (4) 
oracle

>  <origin>  (4) 
adg

>  <m_score__min__energy>  (4) 
-7.75

>  <m_primary>  (4) 
energy

$$$$
4:0
     RDKit          3D

 53 55  0  0  0  0  0  0  0  0999 V2000
   -4.1880   24.1430  -28.2600 C   0  0  0  0  0  0  0  0  0  0  0  0
   -3.3210   24.5420  -29.4510 C   0  0  0  0  0  0  0  0  0  0  0  0
   -4.0270   24.2550  -30.7220 N   0  0  0  0  0  0  0  0  0  0  0  0
   -5.3000   24.9970  -30.7850 C   0  0  0  0  0  0  0  0  0  0  0  0
   -4.2760   22.8060  -30.8860 C   0  0  0  0  0  0  0  0  0  0  0  0
   -3.5960   22.2950  -32.1600 C   0  0  0  0  0  0  0  0  0  0  0  0
   -4.5970   21.9260  -33.1610 N   0  0  0  0  0  0  0  0  0  0  0  0
   -5.6640   21.0100  -32.8520 C   0  0  0  0  0  0  0  0  0  0  0  0
   -6.9180   21.4970  -32.4390 C   0  0  0  0  0  0  0  0  0  0  0  0
   -7.1570   22.8840  -32.3260 C   0  0  0  0  0  0  0  0  0  0  0  0
   -8.4170   23.3670  -31.9850 C   0  0  0  0  0  0  0  0  0  0  0  0
   -9.4640   22.4810  -31.7610 C   0  0  0  0  0  0  0  0  0  0  0  0
   -9.2500   21.1070  -31.8520 C   0  0  0  0  0  0  0  0  0  0  0  0
   -7.9690   20.5810  -32.1580 C   0  0  0  0  0  0  0  0  0  0  0  0
   -7.7350   19.2190  -32.2110 N   0  0  0  0  0  0  0  0  0  0  0  0
   -8.7310   18.2790  -31.6480 C   0  0  0  0  0  0  0  0  0  0  0  0
   -6.5580   18.7380  -32.7530 C   0  0  0  0  0  0  0  0  0  0  0  0
   -6.3870   17.3640  -33.0690 C   0  0  0  0  0  0  0  0  0  0  0  0
   -5.1620   16.8700  -33.5430 C   0  0  0  0  0  0  0  0  0  0  0  0
   -4.9840   15.4750  -33.8430 N   0  0  0  0  0  0  0  0  0  0  0  0
   -6.0580   14.5960  -34.2150 C   0  0  0  0  0  0  0  0  0  0  0  0
   -5.8090   13.1270  -34.3280 C   0  0  0  0  0  0  0  0  0  0  0  0
   -7.1900   15.0580  -34.5220 O   0  0  0  0  0  0  0  0  0  0  0  0
   -4.0790   17.7400  -33.6700 C   0  0  0  0  0  0  0  0  0  0  0  0
   -4.2350   19.1010  -33.4210 C   0  0  0  0  0  0  0  0  0  0  0  0
   -5.4810   19.6240  -33.0170 C   0  0  0  0  0  0  0  0  0  0  0  0
   -3.6611   24.3855  -27.3253 H   0  0  0  0  0  0  0  0  0  0  0  0
   -5.1394   24.6939  -28.2981 H   0  0  0  0  0  0  0  0  0  0  0  0
   -4.3884   23.0621  -28.2981 H   0  0  0  0  0  0  0  0  0  0  0  0
   -3.0997   25.6180  -29.3941 H   0  0  0  0  0  0  0  0  0  0  0  0
   -2.3865   23.9623  -29.4227 H   0  0  0  0  0  0  0  0  0  0  0  0
   -5.6548   25.2038  -29.7645 H   0  0  0  0  0  0  0  0  0  0  0  0
   -5.1451   25.9463  -31.3187 H   0  0  0  0  0  0  0  0  0  0  0  0
   -6.0496   24.3944  -31.3187 H   0  0  0  0  0  0  0  0  0  0  0  0
   -3.8716   22.2668  -30.0166 H   0  0  0  0  0  0  0  0  0  0  0  0
   -5.3597   22.6337  -30.9629 H   0  0  0  0  0  0  0  0  0  0  0  0
   -2.9502   23.0864  -32.5682 H   0  0  0  0  0  0  0  0  0  0  0  0
   -2.9960   21.4070  -31.9120 H   0  0  0  0  0  0  0  0  0  0  0  0
   -4.3650   22.0980  -34.1640 H   0  0  0  0  0  0  0  0  0  0  0  0
   -6.3360   23.5926  -32.5100 H   0  0  0  0  0  0  0  0  0  0  0  0
   -8.5841   24.4503  -31.8928 H   0  0  0  0  0  0  0  0  0  0  0  0
  -10.4640   22.8652  -31.5113 H   0  0  0  0  0  0  0  0  0  0  0  0
  -10.0904   20.4175  -31.6833 H   0  0  0  0  0  0  0  0  0  0  0  0
   -8.6909   18.3169  -30.5494 H   0  0  0  0  0  0  0  0  0  0  0  0
   -9.7375   18.5641  -31.9882 H   0  0  0  0  0  0  0  0  0  0  0  0
   -8.5046   17.2577  -31.9882 H   0  0  0  0  0  0  0  0  0  0  0  0
   -7.2326   16.6725  -32.9395 H   0  0  0  0  0  0  0  0  0  0  0  0
   -4.0090   15.1050  -33.9080 H   0  0  0  0  0  0  0  0  0  0  0  0
   -5.7348   12.6892  -33.3216 H   0  0  0  0  0  0  0  0  0  0  0  0
   -6.6400   12.6551  -34.8728 H   0  0  0  0  0  0  0  0  0  0  0  0
   -4.8689   12.9553  -34.8728 H   0  0  0  0  0  0  0  0  0  0  0  0
   -3.0955   17.3483  -33.9688 H   0  0  0  0  0  0  0  0  0  0  0  0
   -3.3755   19.7769  -33.5409 H   0  0  0  0  0  0  0  0  0  0  0  0
  1  2  1  0
  2  3  1  0
  3  4  1  0
  3  5  1  0
  5  6  1  0
  6  7  1  0
  7  8  1  0
  8  9  2  0
  9 10  1  0
 10 11  2  0
 11 12  1  0
 12 13  2  0
 13 14  1  0
 14 15  2  0
 15 16  1  0
 15 17  1  0
 17 18  2  0
 18 19  1  0
 19 20  1  0
 20 21  1  0
 21 22  1  0
 21 23  2  0
 19 24  2  0
 24 25  1  0
 25 26  2  0
 26  8  1  0
 14  9  1  0
 26 17  1  0
  1 27  1  0
  1 28  1  0
  1 29  1  0
  2 30  1  0
  2 31  1  0
  4 32  1  0
  4 33  1  0
  4 34  1  0
  5 35  1  0
  5 36  1  0
  6 37  1  0
  6 38  1  0
  7 39  1  0
 10 40  1  0
 11 41  1  0
 12 42  1  0
 13 43  1  0
 16 44  1  0
 16 45  1  0
 16 46  1  0
 18 47  1  0
 20 48  1  0
 22 49  1  0
 22 50  1  0
 22 51  1  0
 24 52  1  0
 25 53  1  0
M  CHG  1  15   1
M  END
>  <UniqueID>  (5) 
5

>  <SMILES>  (5) 
CCN(C)CCNc1c2ccccc2[n+](C)c2cc(NC(C)=O)ccc12

>  <Energy>  (5) 
80.44549321245414

>  <Genealogy>  (5) 
CCN(C)CCNc1c2ccccc2[n+](C)c2cc(NC(C)=O)ccc12 (3D coordinates assigned)
CCN(C)CCNc1c2ccccc2[n+](C)c2cc(NC(C)=O)ccc12 (optimized conformer: 80.44549321245414 kcal/mol)

>  <smiles>  (5) 
CCN(C)CCNc1c2ccccc2[n+](C)c2cc(NC(C)=O)ccc12

>  <score_type>  (5) 
oracle

>  <origin>  (5) 
adg

>  <m_score__min__energy>  (5) 
-8.6699999999999999

>  <m_primary>  (5) 
energy

$$$$
5:0
     RDKit          3D

 44 45  0  0  0  0  0  0  0  0999 V2000
   -0.1140   21.1590  -35.6430 C   0  0  0  0  0  0  0  0  0  0  0  0
   -0.3820   21.0820  -34.1350 C   0  0  0  0  0  0  0  0  0  0  0  0
   -1.8340   20.9930  -33.8210 N   0  0  0  0  0  0  0  0  0  0  0  0
   -2.3840   19.6690  -34.2130 C   0  0  0  0  0  0  0  0  0  0  0  0
   -2.4400   18.6800  -33.0440 C   0  0  0  0  0  0  0  0  0  0  0  0
   -2.1060   21.3480  -32.3980 C   0  0  0  0  0  0  0  0  0  0  0  0
   -3.3240   22.2740  -32.1700 C   0  0  0  0  0  0  0  0  0  0  0  0
   -4.4280   21.9520  -33.0780 N   0  0  0  0  0  0  0  0  0  0  0  0
   -5.7900   21.8110  -32.6250 C   0  0  0  0  0  0  0  0  0  0  0  0
   -6.4890   22.9290  -32.1620 C   0  0  0  0  0  0  0  0  0  0  0  0
   -7.8130   22.8120  -31.7530 C   0  0  0  0  0  0  0  0  0  0  0  0
   -8.4630   21.6100  -31.7930 N   0  0  0  0  0  0  0  0  0  0  0  0
   -9.8650   21.5690  -31.3460 C   0  0  0  0  0  0  0  0  0  0  0  0
   -7.8110   20.4790  -32.2410 C   0  0  0  0  0  0  0  0  0  0  0  0
   -8.4590   19.2220  -32.2870 C   0  0  0  0  0  0  0  0  0  0  0  0
   -7.7840   18.0840  -32.7260 C   0  0  0  0  0  0  0  0  0  0  0  0
   -6.4550   18.1680  -33.1260 C   0  0  0  0  0  0  0  0  0  0  0  0
   -5.7900   19.3930  -33.0960 C   0  0  0  0  0  0  0  0  0  0  0  0
   -6.4530   20.5620  -32.6670 C   0  0  0  0  0  0  0  0  0  0  0  0
    0.9302   21.4590  -35.8150 H   0  0  0  0  0  0  0  0  0  0  0  0
   -0.2920   20.1734  -36.0978 H   0  0  0  0  0  0  0  0  0  0  0  0
   -0.7880   21.8998  -36.0978 H   0  0  0  0  0  0  0  0  0  0  0  0
    0.1220   20.1913  -33.7316 H   0  0  0  0  0  0  0  0  0  0  0  0
    0.0042   22.0051  -33.6780 H   0  0  0  0  0  0  0  0  0  0  0  0
   -2.3270   21.7210  -34.3910 H   0  0  0  0  0  0  0  0  0  0  0  0
   -3.4032   19.8127  -34.6010 H   0  0  0  0  0  0  0  0  0  0  0  0
   -1.7137   19.2441  -34.9747 H   0  0  0  0  0  0  0  0  0  0  0  0
   -2.4087   19.2333  -32.0938 H   0  0  0  0  0  0  0  0  0  0  0  0
   -3.3725   18.0991  -33.0995 H   0  0  0  0  0  0  0  0  0  0  0  0
   -1.5791   17.9976  -33.0995 H   0  0  0  0  0  0  0  0  0  0  0  0
   -2.2795   20.4149  -31.8419 H   0  0  0  0  0  0  0  0  0  0  0  0
   -1.2266   21.9103  -32.0508 H   0  0  0  0  0  0  0  0  0  0  0  0
   -3.6705   22.1580  -31.1325 H   0  0  0  0  0  0  0  0  0  0  0  0
   -3.0090   23.3093  -32.3674 H   0  0  0  0  0  0  0  0  0  0  0  0
   -4.2540   22.0310  -34.1040 H   0  0  0  0  0  0  0  0  0  0  0  0
   -5.9888   23.9078  -32.1208 H   0  0  0  0  0  0  0  0  0  0  0  0
   -8.3470   23.7028  -31.3907 H   0  0  0  0  0  0  0  0  0  0  0  0
   -9.8994   21.5680  -30.2465 H   0  0  0  0  0  0  0  0  0  0  0  0
  -10.3978   22.4519  -31.7287 H   0  0  0  0  0  0  0  0  0  0  0  0
  -10.3453   20.6564  -31.7287 H   0  0  0  0  0  0  0  0  0  0  0  0
   -9.5099   19.1416  -31.9720 H   0  0  0  0  0  0  0  0  0  0  0  0
   -8.3049   17.1156  -32.7561 H   0  0  0  0  0  0  0  0  0  0  0  0
   -5.9268   17.2654  -33.4671 H   0  0  0  0  0  0  0  0  0  0  0  0
   -4.7373   19.4486  -33.4101 H   0  0  0  0  0  0  0  0  0  0  0  0
  1  2  1  0
  2  3  1  0
  3  4  1  0
  4  5  1  0
  3  6  1  0
  6  7  1  0
  7  8  1  0
  8  9  1  0
  9 10  2  0
 10 11  1  0
 11 12  2  0
 12 13  1  0
 12 14  1  0
 14 15  2  0
 15 16  1  0
 16 17  2  0
 17 18  1  0
 18 19  2  0
 19  9  1  0
 19 14  1  0
  1 20  1  0
  1 21  1  0
  1 22  1  0
  2 23  1  0
  2 24  1  0
  3 25  1  0
  4 26  1  0
  4 27  1  0
  5 28  1  0
  5 29  1  0
  5 30  1  0
  6 31  1  0
  6 32  1  0
  7 33  1  0
  7 34  1  0
  8 35  1  0
 10 36  1  0
 11 37  1  0
 13 38  1  0
 13 39  1  0
 13 40  1  0
 15 41  1  0
 16 42  1  0
 17 43  1  0
 18 44  1  0
M  CHG  2   3   1  12   1
M  END
>  <UniqueID>  (6) 
6

>  <SMILES>  (6) 
CC[NH+](CC)CCNc1cc[n+](C)c2ccccc12

>  <Energy>  (6) 
57.06761135739131

>  <Genealogy>  (6) 
CC[NH+](CC)CCNc1cc[n+](C)c2ccccc12 (protonated)
CC[NH+](CC)CCNc1cc[n+](C)c2ccccc12 (3D coordinates assigned)
CC[NH+](CC)CCNc1cc[n+](C)c2ccccc12 (optimized conformer: 57.06761135739131 kcal/mol)

>  <smiles>  (6) 
CCN(CC)CCNc1cc[n+](C)c2ccccc12

>  <score_type>  (6) 
oracle

>  <origin>  (6) 
adg

>  <m_score__min__energy>  (6) 
-5.6399999999999997

>  <m_primary>  (6) 
energy

$$$$
6:0
     RDKit          3D

 44 46  0  0  0  0  0  0  0  0999 V2000
   -8.2190   19.8110  -32.4490 C   0  0  0  0  0  0  0  0  0  0  0  0
   -8.0130   21.0090  -31.6180 N   0  0  0  0  0  0  0  0  0  0  0  0
   -9.2890   21.7410  -31.5020 C   0  0  0  0  0  0  0  0  0  0  0  0
   -6.9590   21.8620  -32.2130 C   0  0  0  0  0  0  0  0  0  0  0  0
   -5.7040   21.0560  -32.5910 C   0  0  0  0  0  0  0  0  0  0  0  0
   -4.4410   21.9210  -32.7000 C   0  0  0  0  0  0  0  0  0  0  0  0
   -4.4650   23.0140  -31.7280 N   0  0  0  0  0  0  0  0  0  0  0  0
   -3.7390   22.9390  -30.4940 C   0  0  0  0  0  0  0  0  0  0  0  0
   -3.4510   21.7180  -29.9740 N   0  0  0  0  0  0  0  0  0  0  0  0
   -2.7740   21.5780  -28.8340 N   0  0  0  0  0  0  0  0  0  0  0  0
   -2.5210   20.3100  -28.3570 O   0  0  0  0  0  0  0  0  0  0  0  0
   -2.3360   22.6740  -28.1510 C   0  0  0  0  0  0  0  0  0  0  0  0
   -1.6220   22.5510  -26.9420 C   0  0  0  0  0  0  0  0  0  0  0  0
   -1.1880   23.7090  -26.2930 C   0  0  0  0  0  0  0  0  0  0  0  0
   -1.4390   24.9520  -26.8120 C   0  0  0  0  0  0  0  0  0  0  0  0
   -2.1410   25.1090  -28.0080 C   0  0  0  0  0  0  0  0  0  0  0  0
   -2.6030   23.9610  -28.6880 C   0  0  0  0  0  0  0  0  0  0  0  0
   -3.2950   24.0650  -29.8610 N   0  0  0  0  0  0  0  0  0  0  0  0
   -3.4940   25.3000  -30.4380 O   0  0  0  0  0  0  0  0  0  0  0  0
   -0.8750   26.0310  -25.9700 C   0  0  0  0  0  0  0  0  0  0  0  0
   -0.2810   25.2880  -24.7590 C   0  0  0  0  0  0  0  0  0  0  0  0
   -0.4230   23.7780  -25.0280 C   0  0  0  0  0  0  0  0  0  0  0  0
   -8.3695   18.9359  -31.7998 H   0  0  0  0  0  0  0  0  0  0  0  0
   -9.1059   19.9533  -33.0840 H   0  0  0  0  0  0  0  0  0  0  0  0
   -7.3355   19.6489  -33.0840 H   0  0  0  0  0  0  0  0  0  0  0  0
   -9.5353   21.8823  -30.4393 H   0  0  0  0  0  0  0  0  0  0  0  0
   -9.1945   22.7222  -31.9901 H   0  0  0  0  0  0  0  0  0  0  0  0
  -10.0883   21.1641  -31.9901 H   0  0  0  0  0  0  0  0  0  0  0  0
   -7.3595   22.3398  -33.1193 H   0  0  0  0  0  0  0  0  0  0  0  0
   -6.6663   22.6106  -31.4620 H   0  0  0  0  0  0  0  0  0  0  0  0
   -5.5366   20.2880  -31.8214 H   0  0  0  0  0  0  0  0  0  0  0  0
   -5.8848   20.6146  -33.5822 H   0  0  0  0  0  0  0  0  0  0  0  0
   -3.5580   21.2926  -32.5120 H   0  0  0  0  0  0  0  0  0  0  0  0
   -4.4002   22.3534  -33.7106 H   0  0  0  0  0  0  0  0  0  0  0  0
   -4.6410   23.9720  -32.1080 H   0  0  0  0  0  0  0  0  0  0  0  0
   -2.6090   19.5000  -28.9590 H   0  0  0  0  0  0  0  0  0  0  0  0
   -1.4100   21.5590  -26.5165 H   0  0  0  0  0  0  0  0  0  0  0  0
   -2.3317   26.1129  -28.4152 H   0  0  0  0  0  0  0  0  0  0  0  0
   -0.0927   26.5818  -26.5128 H   0  0  0  0  0  0  0  0  0  0  0  0
   -1.6280   26.7785  -25.6799 H   0  0  0  0  0  0  0  0  0  0  0  0
    0.7807   25.5504  -24.6410 H   0  0  0  0  0  0  0  0  0  0  0  0
   -0.8082   25.5685  -23.8352 H   0  0  0  0  0  0  0  0  0  0  0  0
    0.5644   23.3068  -25.1422 H   0  0  0  0  0  0  0  0  0  0  0  0
   -0.9204   23.2464  -24.2034 H   0  0  0  0  0  0  0  0  0  0  0  0
  1  2  1  0
  2  3  1  0
  2  4  1  0
  4  5  1  0
  5  6  1  0
  6  7  1  0
  7  8  1  0
  8  9  2  0
  9 10  1  0
 10 11  1  0
 10 12  2  0
 12 13  1  0
 13 14  2  0
 14 15  1  0
 15 16  2  0
 16 17  1  0
 17 18  2  0
 18 19  1  0
 15 20  1  0
 20 21  1  0
 21 22  1  0
 18  8  1  0
 17 12  1  0
 22 14  1  0
  1 23  1  0
  1 24  1  0
  1 25  1  0
  3 26  1  0
  3 27  1  0
  3 28  1  0
  4 29  1  0
  4 30  1  0
  5 31  1  0
  5 32  1  0
  6 33  1  0
  6 34  1  0
  7 35  1  0
 11 36  1  0
 13 37  1  0
 16 38  1  0
 20 39  1  0
 20 40  1  0
 21 41  1  0
 21 42  1  0
 22 43  1  0
 22 44  1  0
M  CHG  3  10   1  18   1  19  -1
M  END
>  <UniqueID>  (7) 
7

>  <SMILES>  (7) 
CN(C)CCCNc1n[n+](O)c2cc3c(cc2[n+]1[O-])CCC3

>  <Energy>  (7) 
57.706822171506595

>  <Genealogy>  (7) 
CN(C)CCCNc1n[n+](O)c2cc3c(cc2[n+]1[O-])CCC3 (protonated)
CN(C)CCCNc1n[n+](O)c2cc3c(cc2[n+]1[O-])CCC3 (3D coordinates assigned)
CN(C)CCCNc1n[n+](O)c2cc3c(cc2[n+]1[O-])CCC3 (nonaromatic ring conformer: 57.706822171506595 kcal/mol)

>  <smiles>  (7) 
CN(C)CCCNc1n[n+]([O-])c2cc3c(cc2[n+]1[O-])CCC3

>  <score_type>  (7) 
oracle

>  <origin>  (7) 
adg

>  <m_score__min__energy>  (7) 
-7.46

>  <m_primary>  (7) 
energy

$$$$
7:0
     RDKit          3D

 46 49  0  0  0  0  0  0  0  0999 V2000
   -2.7140   24.6270  -27.0660 C   0  0  0  0  0  0  0  0  0  0  0  0
   -4.2400   24.5390  -27.1550 C   0  0  0  0  0  0  0  0  0  0  0  0
   -4.7060   24.1270  -28.4880 N   0  0  0  0  0  0  0  0  0  0  0  0
   -5.7470   25.0200  -29.0170 C   0  0  0  0  0  0  0  0  0  0  0  0
   -5.7790   24.9530  -30.5460 C   0  0  0  0  0  0  0  0  0  0  0  0
   -5.4270   23.6000  -31.0200 N   0  0  0  0  0  0  0  0  0  0  0  0
   -4.1030   23.2350  -31.1810 C   0  0  0  0  0  0  0  0  0  0  0  0
   -3.1850   24.0450  -30.8760 O   0  0  0  0  0  0  0  0  0  0  0  0
   -3.7560   21.9390  -31.6750 C   0  0  0  0  0  0  0  0  0  0  0  0
   -2.3400   21.5390  -31.8690 C   0  0  0  0  0  0  0  0  0  0  0  0
   -1.5220   21.2420  -30.7650 C   0  0  0  0  0  0  0  0  0  0  0  0
   -0.1850   20.8770  -30.9540 C   0  0  0  0  0  0  0  0  0  0  0  0
    0.3480   20.8090  -32.2430 C   0  0  0  0  0  0  0  0  0  0  0  0
   -0.4540   21.1100  -33.3480 C   0  0  0  0  0  0  0  0  0  0  0  0
    0.2160   21.0260  -34.9670 Cl  0  0  0  0  0  0  0  0  0  0  0  0
   -1.7920   21.4760  -33.1630 C   0  0  0  0  0  0  0  0  0  0  0  0
   -4.7780   21.0220  -31.9900 C   0  0  0  0  0  0  0  0  0  0  0  0
   -6.0880   21.4390  -31.8160 C   0  0  0  0  0  0  0  0  0  0  0  0
   -6.3910   22.6890  -31.3510 C   0  0  0  0  0  0  0  0  0  0  0  0
   -7.7350   22.8500  -31.3000 N   0  0  0  0  0  0  0  0  0  0  0  0
   -8.2110   21.6620  -31.7450 C   0  0  0  0  0  0  0  0  0  0  0  0
   -9.5540   21.3160  -31.8890 C   0  0  0  0  0  0  0  0  0  0  0  0
   -9.8480   20.0320  -32.3760 C   0  0  0  0  0  0  0  0  0  0  0  0
   -8.8090   19.1370  -32.7030 C   0  0  0  0  0  0  0  0  0  0  0  0
   -7.4740   19.5360  -32.5410 C   0  0  0  0  0  0  0  0  0  0  0  0
   -7.2350   20.7860  -32.0660 N   0  0  0  0  0  0  0  0  0  0  0  0
   -2.4087   24.6446  -26.0093 H   0  0  0  0  0  0  0  0  0  0  0  0
   -2.2668   23.7532  -27.5624 H   0  0  0  0  0  0  0  0  0  0  0  0
   -2.3702   25.5465  -27.5624 H   0  0  0  0  0  0  0  0  0  0  0  0
   -4.5943   23.8056  -26.4157 H   0  0  0  0  0  0  0  0  0  0  0  0
   -4.6438   25.5428  -26.9564 H   0  0  0  0  0  0  0  0  0  0  0  0
   -3.8950   24.1190  -29.1500 H   0  0  0  0  0  0  0  0  0  0  0  0
   -6.7254   24.7118  -28.6199 H   0  0  0  0  0  0  0  0  0  0  0  0
   -5.5230   26.0520  -28.7091 H   0  0  0  0  0  0  0  0  0  0  0  0
   -6.7904   25.2060  -30.8968 H   0  0  0  0  0  0  0  0  0  0  0  0
   -5.0446   25.6681  -30.9452 H   0  0  0  0  0  0  0  0  0  0  0  0
   -1.9355   21.2969  -29.7472 H   0  0  0  0  0  0  0  0  0  0  0  0
    0.4480   20.6430  -30.0854 H   0  0  0  0  0  0  0  0  0  0  0  0
    1.3989   20.5186  -32.3890 H   0  0  0  0  0  0  0  0  0  0  0  0
   -2.4188   21.7158  -34.0345 H   0  0  0  0  0  0  0  0  0  0  0  0
   -4.5449   20.0128  -32.3602 H   0  0  0  0  0  0  0  0  0  0  0  0
   -8.2940   23.6800  -31.0040 H   0  0  0  0  0  0  0  0  0  0  0  0
  -10.3552   22.0239  -31.6302 H   0  0  0  0  0  0  0  0  0  0  0  0
  -10.8959   19.7226  -32.5031 H   0  0  0  0  0  0  0  0  0  0  0  0
   -9.0438   18.1317  -33.0829 H   0  0  0  0  0  0  0  0  0  0  0  0
   -6.6455   18.8570  -32.7911 H   0  0  0  0  0  0  0  0  0  0  0  0
  1  2  1  0
  2  3  1  0
  3  4  1  0
  4  5  1  0
  5  6  1  0
  6  7  1  0
  7  8  2  0
  7  9  1  0
  9 10  1  0
 10 11  2  0
 11 12  1  0
 12 13  2  0
 13 14  1  0
 14 15  1  0
 14 16  2  0
  9 17  2  0
 17 18  1  0
 18 19  2  0
 19 20  1  0
 20 21  2  0
 21 22  1  0
 22 23  2  0
 23 24  1  0
 24 25  2  0
 25 26  1  0
 19  6  1  0
 26 21  1  0
 16 10  1  0
 26 18  1  0
  1 27  1  0
  1 28  1  0
  1 29  1  0
  2 30  1  0
  2 31  1  0
  3 32  1  0
  4 33  1  0
  4 34  1  0
  5 35  1  0
  5 36  1  0
 11 37  1  0
 12 38  1  0
 13 39  1  0
 16 40  1  0
 17 41  1  0
 20 42  1  0
 22 43  1  0
 23 44  1  0
 24 45  1  0
 25 46  1  0
M  CHG  1  20   1
M  END
>  <UniqueID>  (8) 
8

>  <SMILES>  (8) 
CCNCCn1c(=O)c(-c2cccc(Cl)c2)cc2c1[nH+]c1ccccn12

>  <Energy>  (8) 
100.94716726643539

>  <Genealogy>  (8) 
CCNCCn1c(=O)c(-c2cccc(Cl)c2)cc2c1[nH+]c1ccccn12 (protonated)
CCNCCn1c(=O)c(-c2cccc(Cl)c2)cc2c1[nH+]c1ccccn12 (3D coordinates assigned)
CCNCCn1c(=O)c(-c2cccc(Cl)c2)cc2c1[nH+]c1ccccn12 (optimized conformer: 100.94716726643539 kcal/mol)

>  <smiles>  (8) 
CCNCCn1c(=O)c(-c2cccc(Cl)c2)cc2c1nc1ccccn12

>  <score_type>  (8) 
oracle

>  <origin>  (8) 
adg

>  <m_score__min__energy>  (8) 
-8.2400000000000002

>  <m_primary>  (8) 
energy

$$$$
8:0
     RDKit          3D

 60 63  0  0  0  0  0  0  0  0999 V2000
   -5.5480   15.7080  -33.5230 C   0  0  0  0  0  0  0  0  0  0  0  0
   -6.8140   16.4630  -33.9450 C   0  0  0  0  0  0  0  0  0  0  0  0
   -6.8470   17.8600  -33.4310 N   0  0  0  0  0  0  0  0  0  0  0  0
   -5.6320   18.6100  -33.8520 C   0  0  0  0  0  0  0  0  0  0  0  0
   -4.6030   18.7750  -32.7260 C   0  0  0  0  0  0  0  0  0  0  0  0
   -7.0820   17.8800  -31.9610 C   0  0  0  0  0  0  0  0  0  0  0  0
   -8.4100   18.5360  -31.5340 C   0  0  0  0  0  0  0  0  0  0  0  0
   -9.1180   19.0390  -32.7200 N   0  0  0  0  0  0  0  0  0  0  0  0
   -9.2810   20.4990  -32.6660 C   0  0  0  0  0  0  0  0  0  0  0  0
   -8.0890   21.1420  -32.0080 C   0  0  0  0  0  0  0  0  0  0  0  0
   -6.8590   21.2220  -32.6790 C   0  0  0  0  0  0  0  0  0  0  0  0
   -5.7620   21.8410  -32.0750 C   0  0  0  0  0  0  0  0  0  0  0  0
   -5.8760   22.3970  -30.7880 C   0  0  0  0  0  0  0  0  0  0  0  0
   -4.7090   23.0520  -30.1440 C   0  0  0  0  0  0  0  0  0  0  0  0
   -4.8890   23.9320  -29.0630 C   0  0  0  0  0  0  0  0  0  0  0  0
   -3.7900   24.5480  -28.4560 C   0  0  0  0  0  0  0  0  0  0  0  0
   -2.4870   24.2960  -28.9170 C   0  0  0  0  0  0  0  0  0  0  0  0
   -1.3220   24.9410  -28.2700 C   0  0  0  0  0  0  0  0  0  0  0  0
   -0.1140   24.3260  -28.1410 N   0  0  0  0  0  0  0  0  0  0  0  0
    0.6240   25.2570  -27.5200 C   0  0  0  0  0  0  0  0  0  0  0  0
    1.9600   25.1700  -27.1350 C   0  0  0  0  0  0  0  0  0  0  0  0
    2.5310   26.2880  -26.4970 C   0  0  0  0  0  0  0  0  0  0  0  0
    1.7580   27.4490  -26.2670 C   0  0  0  0  0  0  0  0  0  0  0  0
    0.4100   27.4990  -26.6690 C   0  0  0  0  0  0  0  0  0  0  0  0
   -0.1190   26.3730  -27.2940 C   0  0  0  0  0  0  0  0  0  0  0  0
   -1.3640   26.2030  -27.7610 N   0  0  0  0  0  0  0  0  0  0  0  0
   -2.3060   23.4180  -29.9990 C   0  0  0  0  0  0  0  0  0  0  0  0
   -3.4050   22.8030  -30.6050 C   0  0  0  0  0  0  0  0  0  0  0  0
   -7.1110   22.3190  -30.1200 C   0  0  0  0  0  0  0  0  0  0  0  0
   -8.2080   21.6990  -30.7260 C   0  0  0  0  0  0  0  0  0  0  0  0
   -5.4904   15.6737  -32.4250 H   0  0  0  0  0  0  0  0  0  0  0  0
   -5.5827   14.6830  -33.9206 H   0  0  0  0  0  0  0  0  0  0  0  0
   -4.6626   16.2257  -33.9206 H   0  0  0  0  0  0  0  0  0  0  0  0
   -6.8575   16.4910  -35.0438 H   0  0  0  0  0  0  0  0  0  0  0  0
   -7.6767   15.9308  -33.5177 H   0  0  0  0  0  0  0  0  0  0  0  0
   -7.6750   18.3400  -33.8580 H   0  0  0  0  0  0  0  0  0  0  0  0
   -5.1570   18.0679  -34.6830 H   0  0  0  0  0  0  0  0  0  0  0  0
   -5.9567   19.6183  -34.1483 H   0  0  0  0  0  0  0  0  0  0  0  0
   -5.1086   18.6939  -31.7525 H   0  0  0  0  0  0  0  0  0  0  0  0
   -3.8391   17.9879  -32.8091 H   0  0  0  0  0  0  0  0  0  0  0  0
   -4.1235   19.7615  -32.8091 H   0  0  0  0  0  0  0  0  0  0  0  0
   -7.0799   16.8414  -31.5987 H   0  0  0  0  0  0  0  0  0  0  0  0
   -6.2775   18.4899  -31.5242 H   0  0  0  0  0  0  0  0  0  0  0  0
   -9.0375   17.7916  -31.0219 H   0  0  0  0  0  0  0  0  0  0  0  0
   -8.2000   19.3736  -30.8526 H   0  0  0  0  0  0  0  0  0  0  0  0
  -10.0780   18.6200  -32.7210 H   0  0  0  0  0  0  0  0  0  0  0  0
   -9.3832   20.8893  -33.6893 H   0  0  0  0  0  0  0  0  0  0  0  0
  -10.1801   20.7336  -32.0774 H   0  0  0  0  0  0  0  0  0  0  0  0
   -6.7581   20.7944  -33.6874 H   0  0  0  0  0  0  0  0  0  0  0  0
   -4.8022   21.8940  -32.6097 H   0  0  0  0  0  0  0  0  0  0  0  0
   -5.9035   24.1381  -28.6910 H   0  0  0  0  0  0  0  0  0  0  0  0
   -3.9469   25.2349  -27.6113 H   0  0  0  0  0  0  0  0  0  0  0  0
    2.5484   24.2597  -27.3228 H   0  0  0  0  0  0  0  0  0  0  0  0
    3.5828   26.2578  -26.1763 H   0  0  0  0  0  0  0  0  0  0  0  0
    2.2129   28.3189  -25.7707 H   0  0  0  0  0  0  0  0  0  0  0  0
   -0.2034   28.3955  -26.4956 H   0  0  0  0  0  0  0  0  0  0  0  0
   -1.2916   23.2131  -30.3719 H   0  0  0  0  0  0  0  0  0  0  0  0
   -3.2478   22.1175  -31.4508 H   0  0  0  0  0  0  0  0  0  0  0  0
   -7.2148   22.7491  -29.1129 H   0  0  0  0  0  0  0  0  0  0  0  0
   -9.1697   21.6477  -30.1945 H   0  0  0  0  0  0  0  0  0  0  0  0
  1  2  1  0
  2  3  1  0
  3  4  1  0
  4  5  1  0
  3  6  1  0
  6  7  1  0
  7  8  1  0
  8  9  1  0
  9 10  1  0
 10 11  2  0
 11 12  1  0
 12 13  2  0
 13 14  1  0
 14 15  2  0
 15 16  1  0
 16 17  2  0
 17 18  1  0
 18 19  2  0
 19 20  1  0
 20 21  2  0
 21 22  1  0
 22 23  2  0
 23 24  1  0
 24 25  2  0
 25 26  1  0
 17 27  1  0
 27 28  2  0
 13 29  1  0
 29 30  2  0
 30 10  1  0
 28 14  1  0
 26 18  1  0
 25 20  1  0
  1 31  1  0
  1 32  1  0
  1 33  1  0
  2 34  1  0
  2 35  1  0
  3 36  1  0
  4 37  1  0
  4 38  1  0
  5 39  1  0
  5 40  1  0
  5 41  1  0
  6 42  1  0
  6 43  1  0
  7 44  1  0
  7 45  1  0
  8 46  1  0
  9 47  1  0
  9 48  1  0
 11 49  1  0
 12 50  1  0
 15 51  1  0
 16 52  1  0
 21 53  1  0
 22 54  1  0
 23 55  1  0
 24 56  1  0
 27 57  1  0
 28 58  1  0
 29 59  1  0
 30 60  1  0
M  CHG  2   3   1  26  -1
M  END
>  <UniqueID>  (9) 
9

>  <SMILES>  (9) 
CC[NH+](CC)CCNCc1ccc(-c2ccc(-c3nc4ccccc4[n-]3)cc2)cc1

>  <Energy>  (9) 
104.58621232741183

>  <Genealogy>  (9) 
CC[NH+](CC)CCNCc1ccc(-c2ccc(-c3nc4ccccc4[n-]3)cc2)cc1 (protonated)
CC[NH+](CC)CCNCc1ccc(-c2ccc(-c3nc4ccccc4[n-]3)cc2)cc1 (3D coordinates assigned)
CC[NH+](CC)CCNCc1ccc(-c2ccc(-c3nc4ccccc4[n-]3)cc2)cc1 (optimized conformer: 104.58621232741183 kcal/mol)

>  <smiles>  (9) 
CCN(CC)CCNCc1ccc(-c2ccc(-c3nc4ccccc4[nH]3)cc2)cc1

>  <score_type>  (9) 
oracle

>  <origin>  (9) 
adg

>  <m_score__min__energy>  (9) 
-8.6500000000000004

>  <m_primary>  (9) 
energy

$$$$
9:0
     RDKit          3D

 28 28  0  0  0  0  0  0  0  0999 V2000
   -3.7190   24.0580  -28.3710 C   0  0  0  0  0  0  0  0  0  0  0  0
   -3.0490   24.3890  -29.7000 C   0  0  0  0  0  0  0  0  0  0  0  0
   -3.8580   25.2820  -30.4630 O   0  0  0  0  0  0  0  0  0  0  0  0
   -5.2520   25.1800  -30.5490 C   0  0  0  0  0  0  0  0  0  0  0  0
   -5.9900   26.0990  -30.0990 O   0  0  0  0  0  0  0  0  0  0  0  0
   -5.8510   23.9900  -31.1750 C   0  0  0  0  0  0  0  0  0  0  0  0
   -5.3310   23.5190  -32.2220 O   0  0  0  0  0  0  0  0  0  0  0  0
   -7.0750   23.3360  -30.5990 C   0  0  0  0  0  0  0  0  0  0  0  0
   -7.9040   22.7030  -31.6860 C   0  0  0  0  0  0  0  0  0  0  0  0
   -8.6850   23.4470  -32.3390 O   0  0  0  0  0  0  0  0  0  0  0  0
   -7.8100   21.2560  -32.0340 C   0  0  0  0  0  0  0  0  0  0  0  0
   -8.8280   20.3710  -31.6230 C   0  0  0  0  0  0  0  0  0  0  0  0
   -8.7620   19.0110  -31.9400 C   0  0  0  0  0  0  0  0  0  0  0  0
   -7.6810   18.5140  -32.6690 C   0  0  0  0  0  0  0  0  0  0  0  0
   -6.6640   19.3740  -33.0820 C   0  0  0  0  0  0  0  0  0  0  0  0
   -6.7230   20.7360  -32.7680 C   0  0  0  0  0  0  0  0  0  0  0  0
   -3.0697   24.3788  -27.5431 H   0  0  0  0  0  0  0  0  0  0  0  0
   -4.6832   24.5834  -28.3055 H   0  0  0  0  0  0  0  0  0  0  0  0
   -3.8875   22.9730  -28.3055 H   0  0  0  0  0  0  0  0  0  0  0  0
   -2.0746   24.8609  -29.5056 H   0  0  0  0  0  0  0  0  0  0  0  0
   -2.9148   23.4580  -30.2703 H   0  0  0  0  0  0  0  0  0  0  0  0
   -6.7664   22.5604  -29.8827 H   0  0  0  0  0  0  0  0  0  0  0  0
   -7.6808   24.1032  -30.0946 H   0  0  0  0  0  0  0  0  0  0  0  0
   -9.6829   20.7547  -31.0470 H   0  0  0  0  0  0  0  0  0  0  0  0
   -9.5635   18.3317  -31.6142 H   0  0  0  0  0  0  0  0  0  0  0  0
   -7.6311   17.4437  -32.9179 H   0  0  0  0  0  0  0  0  0  0  0  0
   -5.8126   18.9802  -33.6565 H   0  0  0  0  0  0  0  0  0  0  0  0
   -5.9154   21.4070  -33.0960 H   0  0  0  0  0  0  0  0  0  0  0  0
  1  2  1  0
  2  3  1  0
  3  4  1  0
  4  5  2  0
  4  6  1  0
  6  7  2  0
  6  8  1  0
  8  9  1  0
  9 10  2  0
  9 11  1  0
 11 12  2  0
 12 13  1  0
 13 14  2  0
 14 15  1  0
 15 16  2  0
 16 11  1  0
  1 17  1  0
  1 18  1  0
  1 19  1  0
  2 20  1  0
  2 21  1  0
  8 22  1  0
  8 23  1  0
 12 24  1  0
 13 25  1  0
 14 26  1  0
 15 27  1  0
 16 28  1  0
M  END
>  <UniqueID>  (10) 
10

>  <SMILES>  (10) 
CCOC(=O)C(=O)CC(=O)c1ccccc1

>  <Energy>  (10) 
21.498815188743624

>  <Genealogy>  (10) 
CCOC(=O)C(=O)CC(=O)c1ccccc1 (3D coordinates assigned)
CCOC(=O)C(=O)CC(=O)c1ccccc1 (optimized conformer: 21.498815188743624 kcal/mol)

>  <smiles>  (10) 
CCOC(=O)C(=O)CC(=O)c1ccccc1

>  <score_type>  (10) 
oracle

>  <origin>  (10) 
adg

>  <m_score__min__energy>  (10) 
-6.9100000000000001

>  <m_primary>  (10) 
energy

$$$$
10:0
     RDKit          3D

 56 58  0  0  0  0  0  0  0  0999 V2000
   -8.7570   18.9100  -31.7030 C   0  0  0  0  0  0  0  0  0  0  0  0
   -8.2880   20.0590  -32.6020 C   0  0  0  0  0  0  0  0  0  0  0  0
   -7.0380   20.6920  -32.1230 N   0  0  0  0  0  0  0  0  0  0  0  0
   -5.9160   20.6640  -33.0980 C   0  0  0  0  0  0  0  0  0  0  0  0
   -5.7610   19.3460  -33.8690 C   0  0  0  0  0  0  0  0  0  0  0  0
   -7.3830   22.3130  -31.5570 S   0  0  0  0  0  0  0  0  0  0  0  0
   -7.6630   23.2250  -32.7210 O   0  0  0  0  0  0  0  0  0  0  0  0
   -8.6080   22.2820  -30.6870 O   0  0  0  0  0  0  0  0  0  0  0  0
   -6.0470   22.9560  -30.6010 C   0  0  0  0  0  0  0  0  0  0  0  0
   -6.2180   24.1410  -29.8810 C   0  0  0  0  0  0  0  0  0  0  0  0
   -5.1750   24.6510  -29.1050 C   0  0  0  0  0  0  0  0  0  0  0  0
   -3.9390   23.9860  -29.0420 C   0  0  0  0  0  0  0  0  0  0  0  0
   -2.9070   24.4830  -28.1680 N   0  0  0  0  0  0  0  0  0  0  0  0
   -3.1680   24.8720  -26.7910 C   0  0  0  0  0  0  0  0  0  0  0  0
   -1.8430   25.3960  -26.2590 C   0  0  0  0  0  0  0  0  0  0  0  0
   -1.0210   25.7580  -27.4910 C   0  0  0  0  0  0  0  0  0  0  0  0
   -1.6080   24.9450  -28.6370 C   0  0  0  0  0  0  0  0  0  0  0  0
   -3.7610   22.7930  -29.7820 C   0  0  0  0  0  0  0  0  0  0  0  0
   -2.4730   22.0780  -29.7970 C   0  0  0  0  0  0  0  0  0  0  0  0
   -1.6220   22.3580  -30.6840 O   0  0  0  0  0  0  0  0  0  0  0  0
   -2.1820   21.0680  -28.8210 N   0  0  0  0  0  0  0  0  0  0  0  0
   -2.6960   21.0980  -27.4630 C   0  0  0  0  0  0  0  0  0  0  0  0
   -1.9460   20.0020  -26.7160 C   0  0  0  0  0  0  0  0  0  0  0  0
   -1.2700   19.1460  -27.7860 C   0  0  0  0  0  0  0  0  0  0  0  0
   -1.2120   20.0120  -29.0360 C   0  0  0  0  0  0  0  0  0  0  0  0
   -4.8220   22.2800  -30.5440 C   0  0  0  0  0  0  0  0  0  0  0  0
   -8.6393   19.1984  -30.6480 H   0  0  0  0  0  0  0  0  0  0  0  0
   -9.8157   18.6929  -31.9078 H   0  0  0  0  0  0  0  0  0  0  0  0
   -8.1526   18.0140  -31.9078 H   0  0  0  0  0  0  0  0  0  0  0  0
   -8.1162   19.6648  -33.6145 H   0  0  0  0  0  0  0  0  0  0  0  0
   -9.0735   20.8290  -32.5903 H   0  0  0  0  0  0  0  0  0  0  0  0
   -6.7190   20.1620  -31.2770 H   0  0  0  0  0  0  0  0  0  0  0  0
   -6.0784   21.4700  -33.8287 H   0  0  0  0  0  0  0  0  0  0  0  0
   -4.9943   20.7873  -32.5104 H   0  0  0  0  0  0  0  0  0  0  0  0
   -5.6631   18.5137  -33.1565 H   0  0  0  0  0  0  0  0  0  0  0  0
   -6.6464   19.1849  -34.5016 H   0  0  0  0  0  0  0  0  0  0  0  0
   -4.8624   19.3947  -34.5016 H   0  0  0  0  0  0  0  0  0  0  0  0
   -7.1788   24.6748  -29.9256 H   0  0  0  0  0  0  0  0  0  0  0  0
   -5.3225   25.5819  -28.5379 H   0  0  0  0  0  0  0  0  0  0  0  0
   -3.9359   25.6587  -26.7527 H   0  0  0  0  0  0  0  0  0  0  0  0
   -3.5433   24.0287  -26.1927 H   0  0  0  0  0  0  0  0  0  0  0  0
   -2.0057   26.2845  -25.6312 H   0  0  0  0  0  0  0  0  0  0  0  0
   -1.3317   24.6495  -25.6334 H   0  0  0  0  0  0  0  0  0  0  0  0
   -1.1035   26.8341  -27.7035 H   0  0  0  0  0  0  0  0  0  0  0  0
    0.0465   25.5370  -27.3439 H   0  0  0  0  0  0  0  0  0  0  0  0
   -1.7248   25.5732  -29.5324 H   0  0  0  0  0  0  0  0  0  0  0  0
   -0.9546   24.1049  -28.9150 H   0  0  0  0  0  0  0  0  0  0  0  0
   -2.5038   22.0778  -27.0014 H   0  0  0  0  0  0  0  0  0  0  0  0
   -3.7839   20.9373  -27.4362 H   0  0  0  0  0  0  0  0  0  0  0  0
   -1.1921   20.4430  -26.0473 H   0  0  0  0  0  0  0  0  0  0  0  0
   -2.6261   19.4029  -26.0926 H   0  0  0  0  0  0  0  0  0  0  0  0
   -0.2553   18.8655  -27.4672 H   0  0  0  0  0  0  0  0  0  0  0  0
   -1.8233   18.2125  -27.9661 H   0  0  0  0  0  0  0  0  0  0  0  0
   -0.2048   20.4354  -29.1640 H   0  0  0  0  0  0  0  0  0  0  0  0
   -1.4339   19.4328  -29.9444 H   0  0  0  0  0  0  0  0  0  0  0  0
   -4.6904   21.3403  -31.1004 H   0  0  0  0  0  0  0  0  0  0  0  0
  1  2  1  0
  2  3  1  0
  3  4  1  0
  4  5  1  0
  3  6  1  0
  6  7  2  0
  6  8  2  0
  6  9  1  0
  9 10  2  0
 10 11  1  0
 11 12  2  0
 12 13  1  0
 13 14  1  0
 14 15  1  0
 15 16  1  0
 16 17  1  0
 12 18  1  0
 18 19  1  0
 19 20  2  0
 19 21  1  0
 21 22  1  0
 22 23  1  0
 23 24  1  0
 24 25  1  0
 18 26  2  0
 26  9  1  0
 17 13  1  0
 25 21  1  0
  1 27  1  0
  1 28  1  0
  1 29  1  0
  2 30  1  0
  2 31  1  0
  3 32  1  0
  4 33  1  0
  4 34  1  0
  5 35  1  0
  5 36  1  0
  5 37  1  0
 10 38  1  0
 11 39  1  0
 14 40  1  0
 14 41  1  0
 15 42  1  0
 15 43  1  0
 16 44  1  0
 16 45  1  0
 17 46  1  0
 17 47  1  0
 22 48  1  0
 22 49  1  0
 23 50  1  0
 23 51  1  0
 24 52  1  0
 24 53  1  0
 25 54  1  0
 25 55  1  0
 26 56  1  0
M  CHG  1   3   1
M  END
>  <UniqueID>  (11) 
11

>  <SMILES>  (11) 
CC[NH+](CC)S(=O)(=O)c1ccc(N2CCCC2)c(C(=O)N2CCCC2)c1

>  <Energy>  (11) 
64.44090794037766

>  <Genealogy>  (11) 
CC[NH+](CC)S(=O)(=O)c1ccc(N2CCCC2)c(C(=O)N2CCCC2)c1 (protonated)
CC[NH+](CC)S(=O)(=O)c1ccc(N2CCCC2)c(C(=O)N2CCCC2)c1 (3D coordinates assigned)
CC[NH+](CC)S(=O)(=O)c1ccc(N2CCCC2)c(C(=O)N2CCCC2)c1 (nonaromatic ring conformer: 64.44090794037766 kcal/mol)

>  <smiles>  (11) 
CCN(CC)S(=O)(=O)c1ccc(N2CCCC2)c(C(=O)N2CCCC2)c1

>  <score_type>  (11) 
oracle

>  <origin>  (11) 
adg

>  <m_score__min__energy>  (11) 
-7.7000000000000002

>  <m_primary>  (11) 
energy

$$$$
11:0
     RDKit          3D

 45 47  0  0  0  0  0  0  0  0999 V2000
   -6.5790   14.7790  -34.2290 C   0  0  0  0  0  0  0  0  0  0  0  0
   -7.2020   16.0600  -34.2590 O   0  0  0  0  0  0  0  0  0  0  0  0
   -6.6640   17.2160  -33.6780 C   0  0  0  0  0  0  0  0  0  0  0  0
   -6.8310   17.5240  -32.3140 C   0  0  0  0  0  0  0  0  0  0  0  0
   -6.2750   18.6910  -31.7820 C   0  0  0  0  0  0  0  0  0  0  0  0
   -5.5590   19.5750  -32.6010 C   0  0  0  0  0  0  0  0  0  0  0  0
   -4.9760   20.7610  -32.0370 N   0  0  0  0  0  0  0  0  0  0  0  0
   -3.6690   20.9090  -31.8780 N   0  0  0  0  0  0  0  0  0  0  0  0
   -3.4520   22.1170  -31.3250 C   0  0  0  0  0  0  0  0  0  0  0  0
   -2.0950   22.6430  -30.9930 C   0  0  0  0  0  0  0  0  0  0  0  0
   -4.6610   22.7630  -31.1320 C   0  0  0  0  0  0  0  0  0  0  0  0
   -4.9110   24.3390  -30.3790 S   0  0  0  0  0  0  0  0  0  0  0  0
   -6.2650   24.8780  -30.7440 O   0  0  0  0  0  0  0  0  0  0  0  0
   -3.8690   25.2990  -30.8820 O   0  0  0  0  0  0  0  0  0  0  0  0
   -4.7720   24.2030  -28.6030 C   0  0  0  0  0  0  0  0  0  0  0  0
   -3.4340   23.6340  -28.2180 C   0  0  0  0  0  0  0  0  0  0  0  0
   -3.3470   22.3220  -27.7240 C   0  0  0  0  0  0  0  0  0  0  0  0
   -2.1020   21.7620  -27.4210 C   0  0  0  0  0  0  0  0  0  0  0  0
   -0.9350   22.5050  -27.6130 C   0  0  0  0  0  0  0  0  0  0  0  0
   -1.0090   23.8100  -28.1080 C   0  0  0  0  0  0  0  0  0  0  0  0
   -2.2520   24.3770  -28.4110 C   0  0  0  0  0  0  0  0  0  0  0  0
   -2.2990   25.6430  -28.8980 F   0  0  0  0  0  0  0  0  0  0  0  0
   -5.6170   21.8610  -31.5710 C   0  0  0  0  0  0  0  0  0  0  0  0
   -7.1060   22.0380  -31.5070 C   0  0  0  0  0  0  0  0  0  0  0  0
   -5.3760   19.2570  -33.9570 C   0  0  0  0  0  0  0  0  0  0  0  0
   -5.9320   18.0910  -34.4890 C   0  0  0  0  0  0  0  0  0  0  0  0
   -6.4282   14.4690  -33.1844 H   0  0  0  0  0  0  0  0  0  0  0  0
   -7.2216   14.0467  -34.7397 H   0  0  0  0  0  0  0  0  0  0  0  0
   -5.6062   14.8323  -34.7397 H   0  0  0  0  0  0  0  0  0  0  0  0
   -7.4013   16.8435  -31.6646 H   0  0  0  0  0  0  0  0  0  0  0  0
   -6.4003   18.9173  -30.7128 H   0  0  0  0  0  0  0  0  0  0  0  0
   -1.9767   22.6888  -29.9003 H   0  0  0  0  0  0  0  0  0  0  0  0
   -1.3295   21.9764  -31.4170 H   0  0  0  0  0  0  0  0  0  0  0  0
   -1.9788   23.6513  -31.4170 H   0  0  0  0  0  0  0  0  0  0  0  0
   -4.8828   25.2012  -28.1544 H   0  0  0  0  0  0  0  0  0  0  0  0
   -5.5617   23.5308  -28.2363 H   0  0  0  0  0  0  0  0  0  0  0  0
   -4.2632   21.7318  -27.5747 H   0  0  0  0  0  0  0  0  0  0  0  0
   -2.0417   20.7352  -27.0310 H   0  0  0  0  0  0  0  0  0  0  0  0
    0.0434   22.0626  -27.3744 H   0  0  0  0  0  0  0  0  0  0  0  0
   -0.0883   24.3925  -28.2597 H   0  0  0  0  0  0  0  0  0  0  0  0
   -7.4259   22.0760  -30.4552 H   0  0  0  0  0  0  0  0  0  0  0  0
   -7.3857   22.9757  -32.0094 H   0  0  0  0  0  0  0  0  0  0  0  0
   -7.5977   21.1920  -32.0094 H   0  0  0  0  0  0  0  0  0  0  0  0
   -4.7922   19.9292  -34.6030 H   0  0  0  0  0  0  0  0  0  0  0  0
   -5.7932   17.8584  -35.5551 H   0  0  0  0  0  0  0  0  0  0  0  0
  1  2  1  0
  2  3  1  0
  3  4  2  0
  4  5  1  0
  5  6  2  0
  6  7  1  0
  7  8  1  0
  8  9  2  0
  9 10  1  0
  9 11  1  0
 11 12  1  0
 12 13  2  0
 12 14  2  0
 12 15  1  0
 15 16  1  0
 16 17  2  0
 17 18  1  0
 18 19  2  0
 19 20  1  0
 20 21  2  0
 21 22  1  0
 11 23  2  0
 23 24  1  0
  6 25  1  0
 25 26  2  0
 26  3  1  0
 23  7  1  0
 21 16  1  0
  1 27  1  0
  1 28  1  0
  1 29  1  0
  4 30  1  0
  5 31  1  0
 10 32  1  0
 10 33  1  0
 10 34  1  0
 15 35  1  0
 15 36  1  0
 17 37  1  0
 18 38  1  0
 19 39  1  0
 20 40  1  0
 24 41  1  0
 24 42  1  0
 24 43  1  0
 25 44  1  0
 26 45  1  0
M  END
>  <UniqueID>  (12) 
12

>  <SMILES>  (12) 
COc1ccc(-n2nc(C)c(S(=O)(=O)Cc3ccccc3F)c2C)cc1

>  <Energy>  (12) 
75.48978351203328

>  <Genealogy>  (12) 
COc1ccc(-n2nc(C)c(S(=O)(=O)Cc3ccccc3F)c2C)cc1 (3D coordinates assigned)
COc1ccc(-n2nc(C)c(S(=O)(=O)Cc3ccccc3F)c2C)cc1 (optimized conformer: 75.48978351203328 kcal/mol)

>  <smiles>  (12) 
COc1ccc(-n2nc(C)c(S(=O)(=O)Cc3ccccc3F)c2C)cc1

>  <score_type>  (12) 
oracle

>  <origin>  (12) 
adg

>  <m_score__min__energy>  (12) 
-9

>  <m_primary>  (12) 
energy

$$$$
12:0
     RDKit          3D

 48 49  0  0  0  0  0  0  0  0999 V2000
   -0.7120   26.3680  -23.7080 C   0  0  0  0  0  0  0  0  0  0  0  0
   -1.5330   26.7900  -24.9280 C   0  0  0  0  0  0  0  0  0  0  0  0
   -1.1080   26.1070  -26.1740 N   0  0  0  0  0  0  0  0  0  0  0  0
   -0.4040   27.0520  -27.0710 C   0  0  0  0  0  0  0  0  0  0  0  0
   -0.4940   28.4920  -26.5640 C   0  0  0  0  0  0  0  0  0  0  0  0
   -2.1720   25.3070  -26.8480 C   0  0  0  0  0  0  0  0  0  0  0  0
   -1.7070   24.4600  -28.0570 C   0  0  0  0  0  0  0  0  0  0  0  0
   -2.3930   24.8440  -29.2910 N   0  0  0  0  0  0  0  0  0  0  0  0
   -3.5180   24.1130  -29.8180 C   0  0  0  0  0  0  0  0  0  0  0  0
   -4.8250   24.6110  -29.6780 C   0  0  0  0  0  0  0  0  0  0  0  0
   -5.9170   23.9040  -30.1860 C   0  0  0  0  0  0  0  0  0  0  0  0
   -5.7290   22.6810  -30.8490 C   0  0  0  0  0  0  0  0  0  0  0  0
   -6.8900   21.9310  -31.3950 C   0  0  0  0  0  0  0  0  0  0  0  0
   -6.6930   20.7940  -32.2040 C   0  0  0  0  0  0  0  0  0  0  0  0
   -7.7880   20.0920  -32.7170 C   0  0  0  0  0  0  0  0  0  0  0  0
   -9.0880   20.5120  -32.4300 C   0  0  0  0  0  0  0  0  0  0  0  0
   -9.2970   21.6370  -31.6290 C   0  0  0  0  0  0  0  0  0  0  0  0
   -8.2060   22.3440  -31.1130 C   0  0  0  0  0  0  0  0  0  0  0  0
   -4.4250   22.1790  -30.9890 C   0  0  0  0  0  0  0  0  0  0  0  0
   -3.3250   22.8790  -30.4760 C   0  0  0  0  0  0  0  0  0  0  0  0
   -1.6810   22.1920  -30.7300 S   0  0  0  0  0  0  0  0  0  0  0  0
   -2.1230   21.3940  -32.3040 C   0  0  0  0  0  0  0  0  0  0  0  0
   -1.2508   26.6449  -22.7898 H   0  0  0  0  0  0  0  0  0  0  0  0
   -0.5580   25.2790  -23.7285 H   0  0  0  0  0  0  0  0  0  0  0  0
    0.2631   26.8766  -23.7285 H   0  0  0  0  0  0  0  0  0  0  0  0
   -2.5900   26.5507  -24.7396 H   0  0  0  0  0  0  0  0  0  0  0  0
   -1.3772   27.8691  -25.0735 H   0  0  0  0  0  0  0  0  0  0  0  0
    0.6553   26.7620  -27.1327 H   0  0  0  0  0  0  0  0  0  0  0  0
   -0.8849   27.0073  -28.0593 H   0  0  0  0  0  0  0  0  0  0  0  0
   -0.4941   28.4941  -25.4640 H   0  0  0  0  0  0  0  0  0  0  0  0
    0.3701   29.0649  -26.9317 H   0  0  0  0  0  0  0  0  0  0  0  0
   -1.4227   28.9528  -26.9317 H   0  0  0  0  0  0  0  0  0  0  0  0
   -2.6050   24.6237  -26.1026 H   0  0  0  0  0  0  0  0  0  0  0  0
   -2.8887   26.0380  -27.2505 H   0  0  0  0  0  0  0  0  0  0  0  0
   -0.6246   24.6005  -28.1938 H   0  0  0  0  0  0  0  0  0  0  0  0
   -1.9481   23.4074  -27.8475 H   0  0  0  0  0  0  0  0  0  0  0  0
   -2.0440   25.6750  -29.8170 H   0  0  0  0  0  0  0  0  0  0  0  0
   -4.9896   25.5686  -29.1624 H   0  0  0  0  0  0  0  0  0  0  0  0
   -6.9327   24.3088  -30.0656 H   0  0  0  0  0  0  0  0  0  0  0  0
   -5.6714   20.4567  -32.4333 H   0  0  0  0  0  0  0  0  0  0  0  0
   -7.6246   19.2063  -33.3485 H   0  0  0  0  0  0  0  0  0  0  0  0
   -9.9474   19.9572  -32.8345 H   0  0  0  0  0  0  0  0  0  0  0  0
  -10.3216   21.9676  -31.4035 H   0  0  0  0  0  0  0  0  0  0  0  0
   -8.3774   23.2289  -30.4825 H   0  0  0  0  0  0  0  0  0  0  0  0
   -4.2649   21.2228  -31.5087 H   0  0  0  0  0  0  0  0  0  0  0  0
   -2.6468   20.4482  -32.1012 H   0  0  0  0  0  0  0  0  0  0  0  0
   -2.7804   22.0608  -32.8813 H   0  0  0  0  0  0  0  0  0  0  0  0
   -1.2090   21.1905  -32.8813 H   0  0  0  0  0  0  0  0  0  0  0  0
  1  2  1  0
  2  3  1  0
  3  4  1  0
  4  5  1  0
  3  6  1  0
  6  7  1  0
  7  8  1  0
  8  9  1  0
  9 10  2  0
 10 11  1  0
 11 12  2  0
 12 13  1  0
 13 14  2  0
 14 15  1  0
 15 16  2  0
 16 17  1  0
 17 18  2  0
 12 19  1  0
 19 20  2  0
 20 21  1  0
 21 22  1  0
 20  9  1  0
 18 13  1  0
  1 23  1  0
  1 24  1  0
  1 25  1  0
  2 26  1  0
  2 27  1  0
  4 28  1  0
  4 29  1  0
  5 30  1  0
  5 31  1  0
  5 32  1  0
  6 33  1  0
  6 34  1  0
  7 35  1  0
  7 36  1  0
  8 37  1  0
 10 38  1  0
 11 39  1  0
 14 40  1  0
 15 41  1  0
 16 42  1  0
 17 43  1  0
 18 44  1  0
 19 45  1  0
 22 46  1  0
 22 47  1  0
 22 48  1  0
M  END
>  <UniqueID>  (13) 
13

>  <SMILES>  (13) 
CCN(CC)CCNc1ccc(-c2ccccc2)cc1SC

>  <Energy>  (13) 
53.399547998422136

>  <Genealogy>  (13) 
CCN(CC)CCNc1ccc(-c2ccccc2)cc1SC (3D coordinates assigned)
CCN(CC)CCNc1ccc(-c2ccccc2)cc1SC (optimized conformer: 53.399547998422136 kcal/mol)

>  <smiles>  (13) 
CCN(CC)CCNc1ccc(-c2ccccc2)cc1SC

>  <score_type>  (13) 
oracle

>  <origin>  (13) 
adg

>  <m_score__min__energy>  (13) 
-7.7000000000000002

>  <m_primary>  (13) 
energy

$$$$
13:0
     RDKit          3D

 73 77  0  0  0  0  0  0  0  0999 V2000
    0.3610   22.9360  -35.8160 C   0  0  0  0  0  0  0  0  0  0  0  0
    1.3870   22.3060  -34.9640 N   0  0  0  0  0  0  0  0  0  0  0  0
    2.7100   22.8490  -35.3180 C   0  0  0  0  0  0  0  0  0  0  0  0
    1.3910   20.8350  -35.1290 C   0  0  0  0  0  0  0  0  0  0  0  0
    1.4970   20.1030  -33.7820 C   0  0  0  0  0  0  0  0  0  0  0  0
    0.7310   20.7480  -32.7640 O   0  0  0  0  0  0  0  0  0  0  0  0
   -0.6720   20.7610  -32.6790 C   0  0  0  0  0  0  0  0  0  0  0  0
   -1.2580   20.4470  -31.4490 C   0  0  0  0  0  0  0  0  0  0  0  0
   -2.6460   20.4760  -31.2950 C   0  0  0  0  0  0  0  0  0  0  0  0
   -3.4760   20.7960  -32.3800 C   0  0  0  0  0  0  0  0  0  0  0  0
   -4.9430   20.8890  -32.2150 C   0  0  0  0  0  0  0  0  0  0  0  0
   -5.9740   19.5500  -32.3020 S   0  0  0  0  0  0  0  0  0  0  0  0
   -7.3900   20.4170  -32.0850 C   0  0  0  0  0  0  0  0  0  0  0  0
   -8.6950   19.9330  -32.0690 C   0  0  0  0  0  0  0  0  0  0  0  0
   -9.7400   20.8500  -31.8920 C   0  0  0  0  0  0  0  0  0  0  0  0
   -9.4630   22.2210  -31.7360 C   0  0  0  0  0  0  0  0  0  0  0  0
   -8.1370   22.6860  -31.7520 C   0  0  0  0  0  0  0  0  0  0  0  0
   -7.0950   21.7640  -31.9270 C   0  0  0  0  0  0  0  0  0  0  0  0
   -5.7120   22.0480  -31.9810 C   0  0  0  0  0  0  0  0  0  0  0  0
   -5.1380   23.4310  -31.7690 C   0  0  0  0  0  0  0  0  0  0  0  0
   -4.4000   23.6180  -30.4580 C   0  0  0  0  0  0  0  0  0  0  0  0
   -3.0120   23.4210  -30.3200 C   0  0  0  0  0  0  0  0  0  0  0  0
   -2.3970   23.5530  -29.0720 C   0  0  0  0  0  0  0  0  0  0  0  0
   -3.1530   23.8970  -27.9370 C   0  0  0  0  0  0  0  0  0  0  0  0
   -2.5940   24.0100  -26.6520 O   0  0  0  0  0  0  0  0  0  0  0  0
   -1.5150   24.8710  -26.2890 C   0  0  0  0  0  0  0  0  0  0  0  0
   -0.5750   24.1560  -25.2910 C   0  0  0  0  0  0  0  0  0  0  0  0
    0.0080   25.0130  -24.2280 N   0  0  0  0  0  0  0  0  0  0  0  0
   -0.8510   26.1190  -23.7740 C   0  0  0  0  0  0  0  0  0  0  0  0
    0.0840   27.1610  -23.1910 C   0  0  0  0  0  0  0  0  0  0  0  0
    1.3460   27.0260  -24.0200 C   0  0  0  0  0  0  0  0  0  0  0  0
    1.3230   25.5940  -24.5590 C   0  0  0  0  0  0  0  0  0  0  0  0
   -4.5270   24.1250  -28.0810 C   0  0  0  0  0  0  0  0  0  0  0  0
   -5.1430   23.9870  -29.3270 C   0  0  0  0  0  0  0  0  0  0  0  0
   -2.8910   21.1080  -33.6170 C   0  0  0  0  0  0  0  0  0  0  0  0
   -1.5000   21.0830  -33.7710 C   0  0  0  0  0  0  0  0  0  0  0  0
   -0.4046   23.4061  -35.1812 H   0  0  0  0  0  0  0  0  0  0  0  0
    0.8312   23.7013  -36.4511 H   0  0  0  0  0  0  0  0  0  0  0  0
   -0.1088   22.1705  -36.4511 H   0  0  0  0  0  0  0  0  0  0  0  0
    3.2698   23.0788  -34.3994 H   0  0  0  0  0  0  0  0  0  0  0  0
    3.2650   22.1060  -35.9095 H   0  0  0  0  0  0  0  0  0  0  0  0
    2.5830   23.7677  -35.9095 H   0  0  0  0  0  0  0  0  0  0  0  0
    0.4576   20.5311  -35.6254 H   0  0  0  0  0  0  0  0  0  0  0  0
    2.2701   20.5640  -35.7321 H   0  0  0  0  0  0  0  0  0  0  0  0
    1.1284   19.0741  -33.9064 H   0  0  0  0  0  0  0  0  0  0  0  0
    2.5522   20.1112  -33.4715 H   0  0  0  0  0  0  0  0  0  0  0  0
   -0.6203   20.1747  -30.5950 H   0  0  0  0  0  0  0  0  0  0  0  0
   -3.0916   20.2463  -30.3159 H   0  0  0  0  0  0  0  0  0  0  0  0
   -8.9006   18.8594  -32.1920 H   0  0  0  0  0  0  0  0  0  0  0  0
  -10.7815   20.4965  -31.8749 H   0  0  0  0  0  0  0  0  0  0  0  0
  -10.2901   22.9334  -31.6006 H   0  0  0  0  0  0  0  0  0  0  0  0
   -7.9196   23.7573  -31.6291 H   0  0  0  0  0  0  0  0  0  0  0  0
   -4.4361   23.6399  -32.5898 H   0  0  0  0  0  0  0  0  0  0  0  0
   -5.9939   24.1215  -31.7442 H   0  0  0  0  0  0  0  0  0  0  0  0
   -2.4074   23.1612  -31.2015 H   0  0  0  0  0  0  0  0  0  0  0  0
   -1.3138   23.3866  -28.9767 H   0  0  0  0  0  0  0  0  0  0  0  0
   -0.9478   25.1433  -27.1913 H   0  0  0  0  0  0  0  0  0  0  0  0
   -1.9217   25.7761  -25.8142 H   0  0  0  0  0  0  0  0  0  0  0  0
   -1.1480   23.3542  -24.8023 H   0  0  0  0  0  0  0  0  0  0  0  0
    0.2769   23.7964  -25.8868 H   0  0  0  0  0  0  0  0  0  0  0  0
    0.1510   24.3880  -23.3960 H   0  0  0  0  0  0  0  0  0  0  0  0
   -1.4121   26.5400  -24.6213 H   0  0  0  0  0  0  0  0  0  0  0  0
   -1.5883   25.7786  -23.0321 H   0  0  0  0  0  0  0  0  0  0  0  0
   -0.3435   28.1696  -23.2910 H   0  0  0  0  0  0  0  0  0  0  0  0
    0.2656   27.0130  -22.1162 H   0  0  0  0  0  0  0  0  0  0  0  0
    1.3422   27.7497  -24.8484 H   0  0  0  0  0  0  0  0  0  0  0  0
    2.2502   27.2266  -23.4266 H   0  0  0  0  0  0  0  0  0  0  0  0
    1.4658   25.6016  -25.6497 H   0  0  0  0  0  0  0  0  0  0  0  0
    2.1319   24.9994  -24.1094 H   0  0  0  0  0  0  0  0  0  0  0  0
   -5.1264   24.4152  -27.2055 H   0  0  0  0  0  0  0  0  0  0  0  0
   -6.2235   24.1699  -29.4224 H   0  0  0  0  0  0  0  0  0  0  0  0
   -3.5303   21.3741  -34.4717 H   0  0  0  0  0  0  0  0  0  0  0  0
   -1.0524   21.3157  -34.7485 H   0  0  0  0  0  0  0  0  0  0  0  0
  1  2  1  0
  2  3  1  0
  2  4  1  0
  4  5  1  0
  5  6  1  0
  6  7  1  0
  7  8  2  0
  8  9  1  0
  9 10  2  0
 10 11  1  0
 11 12  1  0
 12 13  1  0
 13 14  2  0
 14 15  1  0
 15 16  2  0
 16 17  1  0
 17 18  2  0
 18 19  1  0
 19 20  1  0
 20 21  1  0
 21 22  2  0
 22 23  1  0
 23 24  2  0
 24 25  1  0
 25 26  1  0
 26 27  1  0
 27 28  1  0
 28 29  1  0
 29 30  1  0
 30 31  1  0
 31 32  1  0
 24 33  1  0
 33 34  2  0
 10 35  1  0
 35 36  2  0
 36  7  1  0
 19 11  2  0
 34 21  1  0
 18 13  1  0
 32 28  1  0
  1 37  1  0
  1 38  1  0
  1 39  1  0
  3 40  1  0
  3 41  1  0
  3 42  1  0
  4 43  1  0
  4 44  1  0
  5 45  1  0
  5 46  1  0
  8 47  1  0
  9 48  1  0
 14 49  1  0
 15 50  1  0
 16 51  1  0
 17 52  1  0
 20 53  1  0
 20 54  1  0
 22 55  1  0
 23 56  1  0
 26 57  1  0
 26 58  1  0
 27 59  1  0
 27 60  1  0
 28 61  1  0
 29 62  1  0
 29 63  1  0
 30 64  1  0
 30 65  1  0
 31 66  1  0
 31 67  1  0
 32 68  1  0
 32 69  1  0
 33 70  1  0
 34 71  1  0
 35 72  1  0
 36 73  1  0
M  CHG  1  28   1
M  END
>  <UniqueID>  (14) 
14

>  <SMILES>  (14) 
CN(C)CCOc1ccc(-c2sc3ccccc3c2Cc2ccc(OCC[NH+]3CCCC3)cc2)cc1

>  <Energy>  (14) 
122.87157070342133

>  <Genealogy>  (14) 
CN(C)CCOc1ccc(-c2sc3ccccc3c2Cc2ccc(OCC[NH+]3CCCC3)cc2)cc1 (protonated)
CN(C)CCOc1ccc(-c2sc3ccccc3c2Cc2ccc(OCC[NH+]3CCCC3)cc2)cc1 (3D coordinates assigned)
CN(C)CCOc1ccc(-c2sc3ccccc3c2Cc2ccc(OCC[NH+]3CCCC3)cc2)cc1 (nonaromatic ring conformer: 122.87157070342133 kcal/mol)

>  <smiles>  (14) 
CN(C)CCOc1ccc(-c2sc3ccccc3c2Cc2ccc(OCCN3CCCC3)cc2)cc1

>  <score_type>  (14) 
oracle

>  <origin>  (14) 
adg

>  <m_score__min__energy>  (14) 
-9.7599999999999998

>  <m_primary>  (14) 
energy

$$$$
14:0
     RDKit          3D

 50 52  0  0  0  0  0  0  0  0999 V2000
   -6.2110   25.4100  -29.5620 C   0  0  0  0  0  0  0  0  0  0  0  0
   -5.3360   25.6260  -30.7910 C   0  0  0  0  0  0  0  0  0  0  0  0
   -3.9930   25.2860  -30.5020 O   0  0  0  0  0  0  0  0  0  0  0  0
   -3.9370   24.3360  -29.4580 C   0  0  0  0  0  0  0  0  0  0  0  0
   -4.1140   22.9390  -30.0400 C   0  0  0  0  0  0  0  0  0  0  0  0
   -3.7910   22.9690  -31.4130 O   0  0  0  0  0  0  0  0  0  0  0  0
   -2.7890   22.0110  -31.6840 C   0  0  0  0  0  0  0  0  0  0  0  0
   -3.3060   21.0100  -32.7190 C   0  0  0  0  0  0  0  0  0  0  0  0
   -4.4710   21.5450  -33.4470 N   0  0  0  0  0  0  0  0  0  0  0  0
   -5.6600   20.7530  -33.1770 C   0  0  0  0  0  0  0  0  0  0  0  0
   -6.8210   21.3550  -32.6220 C   0  0  0  0  0  0  0  0  0  0  0  0
   -6.9360   22.7600  -32.4800 C   0  0  0  0  0  0  0  0  0  0  0  0
   -8.0910   23.3370  -31.9610 C   0  0  0  0  0  0  0  0  0  0  0  0
   -9.1620   22.5390  -31.5860 C   0  0  0  0  0  0  0  0  0  0  0  0
   -9.0800   21.1550  -31.7160 C   0  0  0  0  0  0  0  0  0  0  0  0
   -7.9060   20.5310  -32.2090 C   0  0  0  0  0  0  0  0  0  0  0  0
   -7.8100   19.1580  -32.3040 N   0  0  0  0  0  0  0  0  0  0  0  0
   -8.7750   18.2970  -31.5840 C   0  0  0  0  0  0  0  0  0  0  0  0
   -6.8100   18.5880  -33.0650 C   0  0  0  0  0  0  0  0  0  0  0  0
   -6.8650   17.2230  -33.4500 C   0  0  0  0  0  0  0  0  0  0  0  0
   -5.8390   16.6390  -34.1880 C   0  0  0  0  0  0  0  0  0  0  0  0
   -4.7430   17.3950  -34.5760 C   0  0  0  0  0  0  0  0  0  0  0  0
   -4.6740   18.7470  -34.2450 C   0  0  0  0  0  0  0  0  0  0  0  0
   -5.7020   19.3700  -33.4960 C   0  0  0  0  0  0  0  0  0  0  0  0
   -5.6096   25.5585  -28.6530 H   0  0  0  0  0  0  0  0  0  0  0  0
   -7.0427   26.1298  -29.5730 H   0  0  0  0  0  0  0  0  0  0  0  0
   -6.6122   24.3858  -29.5730 H   0  0  0  0  0  0  0  0  0  0  0  0
   -5.7019   24.9933  -31.6131 H   0  0  0  0  0  0  0  0  0  0  0  0
   -5.3827   26.6856  -31.0825 H   0  0  0  0  0  0  0  0  0  0  0  0
   -2.9626   24.4028  -28.9520 H   0  0  0  0  0  0  0  0  0  0  0  0
   -4.7386   24.5377  -28.7322 H   0  0  0  0  0  0  0  0  0  0  0  0
   -3.4474   22.2355  -29.5196 H   0  0  0  0  0  0  0  0  0  0  0  0
   -5.1562   22.6118  -29.9105 H   0  0  0  0  0  0  0  0  0  0  0  0
   -1.8952   22.5169  -32.0779 H   0  0  0  0  0  0  0  0  0  0  0  0
   -2.5307   21.4787  -30.7567 H   0  0  0  0  0  0  0  0  0  0  0  0
   -2.5031   20.7919  -33.4386 H   0  0  0  0  0  0  0  0  0  0  0  0
   -3.6160   20.0953  -32.1924 H   0  0  0  0  0  0  0  0  0  0  0  0
   -4.6280   22.5460  -33.1960 H   0  0  0  0  0  0  0  0  0  0  0  0
   -4.2810   21.5800  -34.4730 H   0  0  0  0  0  0  0  0  0  0  0  0
   -6.0988   23.4051  -32.7849 H   0  0  0  0  0  0  0  0  0  0  0  0
   -8.1550   24.4293  -31.8477 H   0  0  0  0  0  0  0  0  0  0  0  0
  -10.0769   23.0000  -31.1855 H   0  0  0  0  0  0  0  0  0  0  0  0
   -9.9421   20.5341  -31.4309 H   0  0  0  0  0  0  0  0  0  0  0  0
   -8.6376   18.4196  -30.4995 H   0  0  0  0  0  0  0  0  0  0  0  0
   -9.8002   18.5860  -31.8587 H   0  0  0  0  0  0  0  0  0  0  0  0
   -8.6043   17.2456  -31.8587 H   0  0  0  0  0  0  0  0  0  0  0  0
   -7.7346   16.6151  -33.1598 H   0  0  0  0  0  0  0  0  0  0  0  0
   -5.8978   15.5758  -34.4639 H   0  0  0  0  0  0  0  0  0  0  0  0
   -3.9269   16.9268  -35.1459 H   0  0  0  0  0  0  0  0  0  0  0  0
   -3.8068   19.3401  -34.5709 H   0  0  0  0  0  0  0  0  0  0  0  0
  1  2  1  0
  2  3  1  0
  3  4  1  0
  4  5  1  0
  5  6  1  0
  6  7  1  0
  7  8  1  0
  8  9  1  0
  9 10  1  0
 10 11  2  0
 11 12  1  0
 12 13  2  0
 13 14  1  0
 14 15  2  0
 15 16  1  0
 16 17  2  0
 17 18  1  0
 17 19  1  0
 19 20  2  0
 20 21  1  0
 21 22  2  0
 22 23  1  0
 23 24  2  0
 24 10  1  0
 16 11  1  0
 24 19  1  0
  1 25  1  0
  1 26  1  0
  1 27  1  0
  2 28  1  0
  2 29  1  0
  4 30  1  0
  4 31  1  0
  5 32  1  0
  5 33  1  0
  7 34  1  0
  7 35  1  0
  8 36  1  0
  8 37  1  0
  9 38  1  0
  9 39  1  0
 12 40  1  0
 13 41  1  0
 14 42  1  0
 15 43  1  0
 18 44  1  0
 18 45  1  0
 18 46  1  0
 20 47  1  0
 21 48  1  0
 22 49  1  0
 23 50  1  0
M  CHG  2   9   1  17   1
M  END
>  <UniqueID>  (15) 
15

>  <SMILES>  (15) 
CCOCCOCC[NH2+]c1c2ccccc2[n+](C)c2ccccc12

>  <Energy>  (15) 
74.68125354781763

>  <Genealogy>  (15) 
CCOCCOCC[NH2+]c1c2ccccc2[n+](C)c2ccccc12 (protonated)
CCOCCOCC[NH2+]c1c2ccccc2[n+](C)c2ccccc12 (3D coordinates assigned)
CCOCCOCC[NH2+]c1c2ccccc2[n+](C)c2ccccc12 (optimized conformer: 74.68125354781763 kcal/mol)

>  <smiles>  (15) 
CCOCCOCCNc1c2ccccc2[n+](C)c2ccccc12

>  <score_type>  (15) 
oracle

>  <origin>  (15) 
adg

>  <m_score__min__energy>  (15) 
-8.3699999999999992

>  <m_primary>  (15) 
energy

$$$$
15:0
     RDKit          3D

 37 37  0  0  0  0  0  0  0  0999 V2000
   -1.7919   25.7311  -25.6336 H   0  0  0  0  0  0  0  0  0  0  0  0
   -0.9200   25.9130  -24.9880 C   0  0  0  0  0  0  0  0  0  0  0  0
   -0.8670   27.0600  -24.1970 C   0  0  0  0  0  0  0  0  0  0  0  0
   -1.6861   27.7935  -24.2275 H   0  0  0  0  0  0  0  0  0  0  0  0
    0.2350   27.2690  -23.3660 C   0  0  0  0  0  0  0  0  0  0  0  0
    0.2880   28.1723  -22.7405 H   0  0  0  0  0  0  0  0  0  0  0  0
    1.2430   26.3570  -23.3290 N   0  0  0  0  0  0  0  0  0  0  0  0
    2.0560   26.5200  -22.6920 H   0  0  0  0  0  0  0  0  0  0  0  0
    1.2180   25.2340  -24.0980 C   0  0  0  0  0  0  0  0  0  0  0  0
    2.0475   24.5136  -24.0435 H   0  0  0  0  0  0  0  0  0  0  0  0
    0.1350   24.9920  -24.9620 C   0  0  0  0  0  0  0  0  0  0  0  0
    0.0600   23.7980  -25.7610 N   0  0  0  0  0  0  0  0  0  0  0  0
   -0.2420   22.9120  -25.2950 H   0  0  0  0  0  0  0  0  0  0  0  0
    0.2760   23.7630  -27.1810 C   0  0  0  0  0  0  0  0  0  0  0  0
    0.2600   24.8770  -27.8590 N   0  0  0  0  0  0  0  0  0  0  0  0
   -0.9000   25.7180  -28.1370 C   0  0  0  0  0  0  0  0  0  0  0  0
   -0.7843   26.1880  -29.1248 H   0  0  0  0  0  0  0  0  0  0  0  0
   -0.9801   26.4996  -27.3671 H   0  0  0  0  0  0  0  0  0  0  0  0
   -2.1600   24.8620  -28.1260 C   0  0  0  0  0  0  0  0  0  0  0  0
   -2.8592   25.2468  -27.3690 H   0  0  0  0  0  0  0  0  0  0  0  0
   -1.8970   23.8218  -27.8836 H   0  0  0  0  0  0  0  0  0  0  0  0
   -2.7690   24.9120  -29.4000 O   0  0  0  0  0  0  0  0  0  0  0  0
   -3.3150   23.6510  -29.7410 C   0  0  0  0  0  0  0  0  0  0  0  0
   -3.7441   23.1868  -28.8408 H   0  0  0  0  0  0  0  0  0  0  0  0
   -2.5157   23.0158  -30.1504 H   0  0  0  0  0  0  0  0  0  0  0  0
   -4.4090   23.8100  -30.7950 C   0  0  0  0  0  0  0  0  0  0  0  0
   -5.3256   23.3088  -30.4506 H   0  0  0  0  0  0  0  0  0  0  0  0
   -4.0762   23.3565  -31.7403 H   0  0  0  0  0  0  0  0  0  0  0  0
   -4.6710   25.1830  -30.9980 O   0  0  0  0  0  0  0  0  0  0  0  0
   -5.7370   25.5840  -30.1680 C   0  0  0  0  0  0  0  0  0  0  0  0
   -5.4427   25.4733  -29.1139 H   0  0  0  0  0  0  0  0  0  0  0  0
   -5.9840   26.6365  -30.3711 H   0  0  0  0  0  0  0  0  0  0  0  0
   -6.6164   24.9552  -30.3711 H   0  0  0  0  0  0  0  0  0  0  0  0
    0.5220   22.4920  -27.8040 N   0  0  0  0  0  0  0  0  0  0  0  0
    0.9300   21.7310  -27.2170 H   0  0  0  0  0  0  0  0  0  0  0  0
   -0.1110   22.1000  -28.9930 C   0  0  0  0  0  0  0  0  0  0  0  0
   -0.6320   21.7790  -29.9750 N   0  0  0  0  0  0  0  0  0  0  0  0
  1  2  1  0
  2  3  2  0
  3  4  1  0
  3  5  1  0
  5  6  1  0
  5  7  2  0
  7  8  1  0
  7  9  1  0
  9 10  1  0
  9 11  2  0
 11 12  1  0
 12 13  1  0
 12 14  1  0
 14 15  2  0
 15 16  1  0
 16 17  1  0
 16 18  1  0
 16 19  1  0
 19 20  1  0
 19 21  1  0
 19 22  1  0
 22 23  1  0
 23 24  1  0
 23 25  1  0
 23 26  1  0
 26 27  1  0
 26 28  1  0
 26 29  1  0
 29 30  1  0
 30 31  1  0
 30 32  1  0
 30 33  1  0
 14 34  1  0
 34 35  1  0
 34 36  1  0
 36 37  3  0
 11  2  1  0
M  CHG  1   7   1
M  END
>  <UniqueID>  (16) 
16

>  <SMILES>  (16) 
COCCOCC/N=C(\NC#N)Nc1ccc[nH+]c1

>  <Energy>  (16) 
36.9716590916882

>  <Genealogy>  (16) 
COCCOCCN=C(NC#N)Nc1ccc[nH+]c1 (protonated)
COCCOCC/N=C(\NC#N)Nc1ccc[nH+]c1 (cis-trans isomerization)
COCCOCC/N=C(\NC#N)Nc1ccc[nH+]c1 (3D coordinates assigned)
COCCOCC/N=C(\NC#N)Nc1ccc[nH+]c1 (optimized conformer: 36.9716590916882 kcal/mol)

>  <smiles>  (16) 
COCCOCCN=C(NC#N)Nc1cccnc1

>  <score_type>  (16) 
oracle

>  <origin>  (16) 
adg

>  <m_score__min__energy>  (16) 
-6.4500000000000002

>  <m_primary>  (16) 
energy

$$$$
16:0
     RDKit          3D

 47 49  0  0  0  0  0  0  0  0999 V2000
   -3.1640   24.2140  -27.5230 C   0  0  0  0  0  0  0  0  0  0  0  0
   -2.3140   24.7730  -28.6590 C   0  0  0  0  0  0  0  0  0  0  0  0
   -3.1410   25.2970  -29.6990 O   0  0  0  0  0  0  0  0  0  0  0  0
   -4.3720   24.7610  -30.1130 C   0  0  0  0  0  0  0  0  0  0  0  0
   -5.6070   25.3700  -29.8220 C   0  0  0  0  0  0  0  0  0  0  0  0
   -6.7990   24.7890  -30.2620 C   0  0  0  0  0  0  0  0  0  0  0  0
   -6.7730   23.6010  -30.9950 C   0  0  0  0  0  0  0  0  0  0  0  0
   -5.5510   22.9830  -31.2950 C   0  0  0  0  0  0  0  0  0  0  0  0
   -5.5220   21.7320  -32.0820 C   0  0  0  0  0  0  0  0  0  0  0  0
   -4.4840   21.2680  -32.8820 C   0  0  0  0  0  0  0  0  0  0  0  0
   -3.1590   21.9240  -33.0980 C   0  0  0  0  0  0  0  0  0  0  0  0
   -4.8290   20.0900  -33.4540 N   0  0  0  0  0  0  0  0  0  0  0  0
   -6.0810   19.8680  -32.9970 C   0  0  0  0  0  0  0  0  0  0  0  0
   -6.8850   18.7600  -33.3060 C   0  0  0  0  0  0  0  0  0  0  0  0
   -6.4480   17.7260  -34.2140 N   0  0  0  0  0  0  0  0  0  0  0  0
   -6.4400   16.4000  -33.5710 C   0  0  0  0  0  0  0  0  0  0  0  0
   -5.2870   16.2320  -32.5500 C   0  0  0  0  0  0  0  0  0  0  0  0
   -3.9000   16.4310  -33.1700 C   0  0  0  0  0  0  0  0  0  0  0  0
   -3.3640   17.6380  -32.7580 F   0  0  0  0  0  0  0  0  0  0  0  0
   -3.0490   15.4060  -32.8040 F   0  0  0  0  0  0  0  0  0  0  0  0
   -4.0140   16.4420  -34.5490 F   0  0  0  0  0  0  0  0  0  0  0  0
   -8.1570   18.6990  -32.6960 C   0  0  0  0  0  0  0  0  0  0  0  0
   -8.5810   19.7130  -31.8220 C   0  0  0  0  0  0  0  0  0  0  0  0
   -7.7360   20.7980  -31.5580 C   0  0  0  0  0  0  0  0  0  0  0  0
   -6.5230   20.8360  -32.1710 N   0  0  0  0  0  0  0  0  0  0  0  0
   -4.3550   23.5720  -30.8540 C   0  0  0  0  0  0  0  0  0  0  0  0
   -2.7229   24.5041  -26.5580 H   0  0  0  0  0  0  0  0  0  0  0  0
   -4.1846   24.6177  -27.5958 H   0  0  0  0  0  0  0  0  0  0  0  0
   -3.1976   23.1169  -27.5958 H   0  0  0  0  0  0  0  0  0  0  0  0
   -1.6729   25.5769  -28.2682 H   0  0  0  0  0  0  0  0  0  0  0  0
   -1.6987   23.9604  -29.0726 H   0  0  0  0  0  0  0  0  0  0  0  0
   -5.6339   26.3068  -29.2461 H   0  0  0  0  0  0  0  0  0  0  0  0
   -7.7611   25.2691  -30.0301 H   0  0  0  0  0  0  0  0  0  0  0  0
   -7.7149   23.1483  -31.3384 H   0  0  0  0  0  0  0  0  0  0  0  0
   -2.6995   22.1515  -32.1248 H   0  0  0  0  0  0  0  0  0  0  0  0
   -2.5025   21.2468  -33.6641 H   0  0  0  0  0  0  0  0  0  0  0  0
   -3.2995   22.8566  -33.6641 H   0  0  0  0  0  0  0  0  0  0  0  0
   -5.4740   17.9510  -34.5230 H   0  0  0  0  0  0  0  0  0  0  0  0
   -7.0400   17.7040  -35.0770 H   0  0  0  0  0  0  0  0  0  0  0  0
   -7.3966   16.2584  -33.0466 H   0  0  0  0  0  0  0  0  0  0  0  0
   -6.2920   15.6503  -34.3623 H   0  0  0  0  0  0  0  0  0  0  0  0
   -5.4205   16.9715  -31.7466 H   0  0  0  0  0  0  0  0  0  0  0  0
   -5.3319   15.1999  -32.1721 H   0  0  0  0  0  0  0  0  0  0  0  0
   -8.8223   17.8489  -32.9075 H   0  0  0  0  0  0  0  0  0  0  0  0
   -9.5716   19.6553  -31.3473 H   0  0  0  0  0  0  0  0  0  0  0  0
   -8.0460   21.5998  -30.8716 H   0  0  0  0  0  0  0  0  0  0  0  0
   -3.3934   23.0943  -31.0931 H   0  0  0  0  0  0  0  0  0  0  0  0
  1  2  1  0
  2  3  1  0
  3  4  1  0
  4  5  2  0
  5  6  1  0
  6  7  2  0
  7  8  1  0
  8  9  1  0
  9 10  2  0
 10 11  1  0
 10 12  1  0
 12 13  2  0
 13 14  1  0
 14 15  1  0
 15 16  1  0
 16 17  1  0
 17 18  1  0
 18 19  1  0
 18 20  1  0
 18 21  1  0
 14 22  2  0
 22 23  1  0
 23 24  2  0
 24 25  1  0
  8 26  2  0
 26  4  1  0
 25  9  1  0
 25 13  1  0
  1 27  1  0
  1 28  1  0
  1 29  1  0
  2 30  1  0
  2 31  1  0
  5 32  1  0
  6 33  1  0
  7 34  1  0
 11 35  1  0
 11 36  1  0
 11 37  1  0
 15 38  1  0
 15 39  1  0
 16 40  1  0
 16 41  1  0
 17 42  1  0
 17 43  1  0
 22 44  1  0
 23 45  1  0
 24 46  1  0
 26 47  1  0
M  CHG  1  15   1
M  END
>  <UniqueID>  (17) 
17

>  <SMILES>  (17) 
CCOc1cccc(-c2c(C)nc3c([NH2+]CCC(F)(F)F)cccn23)c1

>  <Energy>  (17) 
86.43692168484314

>  <Genealogy>  (17) 
CCOc1cccc(-c2c(C)nc3c([NH2+]CCC(F)(F)F)cccn23)c1 (protonated)
CCOc1cccc(-c2c(C)nc3c([NH2+]CCC(F)(F)F)cccn23)c1 (3D coordinates assigned)
CCOc1cccc(-c2c(C)nc3c([NH2+]CCC(F)(F)F)cccn23)c1 (optimized conformer: 86.43692168484314 kcal/mol)

>  <smiles>  (17) 
CCOc1cccc(-c2c(C)nc3c(NCCC(F)(F)F)cccn23)c1

>  <score_type>  (17) 
oracle

>  <origin>  (17) 
adg

>  <m_score__min__energy>  (17) 
-7.8799999999999999

>  <m_primary>  (17) 
energy

$$$$
17:0
     RDKit          3D

 43 44  0  0  0  0  0  0  0  0999 V2000
   -5.9930   15.9740  -33.8440 C   0  0  0  0  0  0  0  0  0  0  0  0
   -6.5780   17.3860  -33.8150 C   0  0  0  0  0  0  0  0  0  0  0  0
   -5.7330   18.4000  -34.6050 C   0  0  0  0  0  0  0  0  0  0  0  0
   -5.0210   19.4360  -33.7290 C   0  0  0  0  0  0  0  0  0  0  0  0
   -5.3580   19.1510  -31.9570 S   0  0  0  0  0  0  0  0  0  0  0  0
   -4.8900   20.8150  -31.4730 C   0  0  0  0  0  0  0  0  0  0  0  0
   -3.7400   21.0720  -30.7970 N   0  0  0  0  0  0  0  0  0  0  0  0
   -3.7820   22.4080  -30.6350 C   0  0  0  0  0  0  0  0  0  0  0  0
   -4.9120   22.9240  -31.1830 C   0  0  0  0  0  0  0  0  0  0  0  0
   -5.1590   24.2930  -31.1040 C   0  0  0  0  0  0  0  0  0  0  0  0
   -6.1940   24.8140  -31.5950 O   0  0  0  0  0  0  0  0  0  0  0  0
   -4.2380   25.0690  -30.4670 N   0  0  0  0  0  0  0  0  0  0  0  0
   -3.1010   24.5350  -29.9190 C   0  0  0  0  0  0  0  0  0  0  0  0
   -2.2930   25.2980  -29.3260 O   0  0  0  0  0  0  0  0  0  0  0  0
   -2.8480   23.1840  -30.0130 N   0  0  0  0  0  0  0  0  0  0  0  0
   -1.6570   22.5860  -29.3980 C   0  0  0  0  0  0  0  0  0  0  0  0
   -5.6380   21.9250  -31.7200 N   0  0  0  0  0  0  0  0  0  0  0  0
   -6.9320   22.0040  -32.4040 C   0  0  0  0  0  0  0  0  0  0  0  0
   -8.0790   21.9680  -31.3970 C   0  0  0  0  0  0  0  0  0  0  0  0
   -9.1670   21.2670  -31.9610 O   0  0  0  0  0  0  0  0  0  0  0  0
   -8.7170   20.0950  -32.6140 C   0  0  0  0  0  0  0  0  0  0  0  0
   -8.7610   18.9080  -31.6590 C   0  0  0  0  0  0  0  0  0  0  0  0
   -5.8452   15.6171  -32.8141 H   0  0  0  0  0  0  0  0  0  0  0  0
   -6.6862   15.3006  -34.3694 H   0  0  0  0  0  0  0  0  0  0  0  0
   -5.0267   15.9882  -34.3694 H   0  0  0  0  0  0  0  0  0  0  0  0
   -7.5881   17.3565  -34.2497 H   0  0  0  0  0  0  0  0  0  0  0  0
   -6.5936   17.7155  -32.7656 H   0  0  0  0  0  0  0  0  0  0  0  0
   -4.9715   17.8465  -35.1741 H   0  0  0  0  0  0  0  0  0  0  0  0
   -6.4268   18.9551  -35.2535 H   0  0  0  0  0  0  0  0  0  0  0  0
   -3.9370   19.3680  -33.9030 H   0  0  0  0  0  0  0  0  0  0  0  0
   -5.3965   20.4344  -33.9975 H   0  0  0  0  0  0  0  0  0  0  0  0
   -1.7478   22.6316  -28.3027 H   0  0  0  0  0  0  0  0  0  0  0  0
   -1.5683   21.5365  -29.7152 H   0  0  0  0  0  0  0  0  0  0  0  0
   -0.7623   23.1418  -29.7152 H   0  0  0  0  0  0  0  0  0  0  0  0
   -6.9819   22.9432  -32.9745 H   0  0  0  0  0  0  0  0  0  0  0  0
   -7.0278   21.1411  -33.0794 H   0  0  0  0  0  0  0  0  0  0  0  0
   -7.7482   21.4586  -30.4799 H   0  0  0  0  0  0  0  0  0  0  0  0
   -8.3876   22.9945  -31.1499 H   0  0  0  0  0  0  0  0  0  0  0  0
   -9.3653   19.8895  -33.4786 H   0  0  0  0  0  0  0  0  0  0  0  0
   -7.6802   20.2472  -32.9485 H   0  0  0  0  0  0  0  0  0  0  0  0
   -8.7475   19.2718  -30.6210 H   0  0  0  0  0  0  0  0  0  0  0  0
   -9.6811   18.3310  -31.8334 H   0  0  0  0  0  0  0  0  0  0  0  0
   -7.8861   18.2645  -31.8334 H   0  0  0  0  0  0  0  0  0  0  0  0
  1  2  1  0
  2  3  1  0
  3  4  1  0
  4  5  1  0
  5  6  1  0
  6  7  2  0
  7  8  1  0
  8  9  2  0
  9 10  1  0
 10 11  2  0
 10 12  1  0
 12 13  1  0
 13 14  2  0
 13 15  1  0
 15 16  1  0
  9 17  1  0
 17 18  1  0
 18 19  1  0
 19 20  1  0
 20 21  1  0
 21 22  1  0
 17  6  1  0
 15  8  1  0
  1 23  1  0
  1 24  1  0
  1 25  1  0
  2 26  1  0
  2 27  1  0
  3 28  1  0
  3 29  1  0
  4 30  1  0
  4 31  1  0
 16 32  1  0
 16 33  1  0
 16 34  1  0
 18 35  1  0
 18 36  1  0
 19 37  1  0
 19 38  1  0
 21 39  1  0
 21 40  1  0
 22 41  1  0
 22 42  1  0
 22 43  1  0
M  CHG  1  12  -1
M  END
>  <UniqueID>  (18) 
18

>  <SMILES>  (18) 
CCCCSc1nc2c(c(=O)[n-]c(=O)n2C)n1CCOCC

>  <Energy>  (18) 
72.9242526251815

>  <Genealogy>  (18) 
CCCCSc1nc2c(c(=O)[n-]c(=O)n2C)n1CCOCC (protonated)
CCCCSc1nc2c(c(=O)[n-]c(=O)n2C)n1CCOCC (3D coordinates assigned)
CCCCSc1nc2c(c(=O)[n-]c(=O)n2C)n1CCOCC (optimized conformer: 72.9242526251815 kcal/mol)

>  <smiles>  (18) 
CCCCSc1nc2c(c(=O)[nH]c(=O)n2C)n1CCOCC

>  <score_type>  (18) 
oracle

>  <origin>  (18) 
adg

>  <m_score__min__energy>  (18) 
-7.6600000000000001

>  <m_primary>  (18) 
energy

$$$$
18:0
     RDKit          3D

 37 39  0  0  0  0  0  0  0  0999 V2000
   -3.4720   24.2460  -30.2350 C   0  0  0  0  0  0  0  0  0  0  0  0
   -4.4500   24.8430  -31.1490 N   0  0  0  0  0  0  0  0  0  0  0  0
   -5.6620   25.2900  -30.4450 C   0  0  0  0  0  0  0  0  0  0  0  0
   -6.8750   24.4150  -30.7880 C   0  0  0  0  0  0  0  0  0  0  0  0
   -6.4810   23.2620  -31.6000 N   0  0  0  0  0  0  0  0  0  0  0  0
   -7.3640   22.1570  -31.8690 C   0  0  0  0  0  0  0  0  0  0  0  0
   -8.7360   22.2750  -31.5880 C   0  0  0  0  0  0  0  0  0  0  0  0
   -9.6040   21.2030  -31.8020 C   0  0  0  0  0  0  0  0  0  0  0  0
   -9.1180   19.9950  -32.2970 C   0  0  0  0  0  0  0  0  0  0  0  0
   -7.7540   19.8490  -32.5880 C   0  0  0  0  0  0  0  0  0  0  0  0
   -7.2720   18.6380  -33.0930 C   0  0  0  0  0  0  0  0  0  0  0  0
   -5.9140   18.5030  -33.4000 C   0  0  0  0  0  0  0  0  0  0  0  0
   -5.4330   17.2860  -33.9080 C   0  0  0  0  0  0  0  0  0  0  0  0
   -4.0820   17.1570  -34.2200 C   0  0  0  0  0  0  0  0  0  0  0  0
   -3.2230   18.2340  -34.0270 C   0  0  0  0  0  0  0  0  0  0  0  0
   -3.7240   19.4340  -33.5200 C   0  0  0  0  0  0  0  0  0  0  0  0
   -5.0520   19.5620  -33.2100 N   0  0  0  0  0  0  0  0  0  0  0  0
   -5.5080   20.7530  -32.7150 C   0  0  0  0  0  0  0  0  0  0  0  0
   -6.8650   20.9300  -32.3800 C   0  0  0  0  0  0  0  0  0  0  0  0
   -3.7793   24.4336  -29.1956 H   0  0  0  0  0  0  0  0  0  0  0  0
   -3.4193   23.1616  -30.4117 H   0  0  0  0  0  0  0  0  0  0  0  0
   -2.4834   24.6948  -30.4117 H   0  0  0  0  0  0  0  0  0  0  0  0
   -4.0010   25.6920  -31.5670 H   0  0  0  0  0  0  0  0  0  0  0  0
   -5.4827   25.2410  -29.3608 H   0  0  0  0  0  0  0  0  0  0  0  0
   -5.8821   26.3198  -30.7629 H   0  0  0  0  0  0  0  0  0  0  0  0
   -7.3349   24.0570  -29.8551 H   0  0  0  0  0  0  0  0  0  0  0  0
   -7.5902   25.0201  -31.3645 H   0  0  0  0  0  0  0  0  0  0  0  0
   -5.4680   23.1580  -31.8350 H   0  0  0  0  0  0  0  0  0  0  0  0
   -9.1305   23.2235  -31.1947 H   0  0  0  0  0  0  0  0  0  0  0  0
  -10.6756   21.3125  -31.5790 H   0  0  0  0  0  0  0  0  0  0  0  0
   -9.8065   19.1528  -32.4602 H   0  0  0  0  0  0  0  0  0  0  0  0
   -7.9590   17.7931  -33.2486 H   0  0  0  0  0  0  0  0  0  0  0  0
   -6.1190   16.4395  -34.0587 H   0  0  0  0  0  0  0  0  0  0  0  0
   -3.6955   16.2070  -34.6176 H   0  0  0  0  0  0  0  0  0  0  0  0
   -2.1549   18.1404  -34.2726 H   0  0  0  0  0  0  0  0  0  0  0  0
   -3.0451   20.2860  -33.3678 H   0  0  0  0  0  0  0  0  0  0  0  0
   -4.8035   21.5863  -32.5762 H   0  0  0  0  0  0  0  0  0  0  0  0
  1  2  1  0
  2  3  1  0
  3  4  1  0
  4  5  1  0
  5  6  1  0
  6  7  2  0
  7  8  1  0
  8  9  2  0
  9 10  1  0
 10 11  2  0
 11 12  1  0
 12 13  2  0
 13 14  1  0
 14 15  2  0
 15 16  1  0
 16 17  2  0
 17 18  1  0
 18 19  2  0
 19  6  1  0
 19 10  1  0
 17 12  1  0
  1 20  1  0
  1 21  1  0
  1 22  1  0
  2 23  1  0
  3 24  1  0
  3 25  1  0
  4 26  1  0
  4 27  1  0
  5 28  1  0
  7 29  1  0
  8 30  1  0
  9 31  1  0
 11 32  1  0
 13 33  1  0
 14 34  1  0
 15 35  1  0
 16 36  1  0
 18 37  1  0
M  CHG  1  17   1
M  END
>  <UniqueID>  (19) 
19

>  <SMILES>  (19) 
CNCCNc1cccc2cc3cccc[n+]3cc12

>  <Energy>  (19) 
47.94803901053837

>  <Genealogy>  (19) 
CNCCNc1cccc2cc3cccc[n+]3cc12 (3D coordinates assigned)
CNCCNc1cccc2cc3cccc[n+]3cc12 (optimized conformer: 47.94803901053837 kcal/mol)

>  <smiles>  (19) 
CNCCNc1cccc2cc3cccc[n+]3cc12

>  <score_type>  (19) 
oracle

>  <origin>  (19) 
adg

>  <m_score__min__energy>  (19) 
-8.0399999999999991

>  <m_primary>  (19) 
energy

$$$$
19:0
     RDKit          3D

 47 49  0  0  0  0  0  0  0  0999 V2000
   -5.7480   17.1090  -34.5360 C   0  0  0  0  0  0  0  0  0  0  0  0
   -5.4320   16.6520  -33.1160 C   0  0  0  0  0  0  0  0  0  0  0  0
   -5.6830   17.7010  -32.1800 O   0  0  0  0  0  0  0  0  0  0  0  0
   -6.7740   18.5870  -32.2040 C   0  0  0  0  0  0  0  0  0  0  0  0
   -8.0810   18.1680  -31.8820 C   0  0  0  0  0  0  0  0  0  0  0  0
   -9.1480   19.0690  -31.9330 C   0  0  0  0  0  0  0  0  0  0  0  0
   -8.9280   20.3940  -32.3040 C   0  0  0  0  0  0  0  0  0  0  0  0
   -7.6390   20.8280  -32.6150 C   0  0  0  0  0  0  0  0  0  0  0  0
   -6.5510   19.9390  -32.5530 C   0  0  0  0  0  0  0  0  0  0  0  0
   -5.1590   20.4530  -32.8680 C   0  0  0  0  0  0  0  0  0  0  0  0
   -4.0970   19.6310  -32.2550 N   0  0  0  0  0  0  0  0  0  0  0  0
   -2.8160   20.3370  -32.0560 C   0  0  0  0  0  0  0  0  0  0  0  0
   -2.9110   21.8390  -32.3810 C   0  0  0  0  0  0  0  0  0  0  0  0
   -3.1120   22.6530  -31.1180 C   0  0  0  0  0  0  0  0  0  0  0  0
   -2.0560   22.7040  -30.1910 C   0  0  0  0  0  0  0  0  0  0  0  0
   -2.1720   23.4360  -29.0100 C   0  0  0  0  0  0  0  0  0  0  0  0
   -3.3400   24.1400  -28.7320 C   0  0  0  0  0  0  0  0  0  0  0  0
   -4.4070   24.1280  -29.6410 C   0  0  0  0  0  0  0  0  0  0  0  0
   -5.5750   24.8510  -29.3550 C   0  0  0  0  0  0  0  0  0  0  0  0
   -6.6380   24.8560  -30.2580 C   0  0  0  0  0  0  0  0  0  0  0  0
   -6.5440   24.1440  -31.4530 C   0  0  0  0  0  0  0  0  0  0  0  0
   -5.3900   23.4190  -31.7510 C   0  0  0  0  0  0  0  0  0  0  0  0
   -4.3020   23.3890  -30.8520 C   0  0  0  0  0  0  0  0  0  0  0  0
   -6.3733   18.0133  -34.4996 H   0  0  0  0  0  0  0  0  0  0  0  0
   -4.8106   17.3325  -35.0664 H   0  0  0  0  0  0  0  0  0  0  0  0
   -6.2881   16.3109  -35.0664 H   0  0  0  0  0  0  0  0  0  0  0  0
   -6.0635   15.7866  -32.8663 H   0  0  0  0  0  0  0  0  0  0  0  0
   -4.3683   16.3769  -33.0617 H   0  0  0  0  0  0  0  0  0  0  0  0
   -8.2624   17.1236  -31.5883 H   0  0  0  0  0  0  0  0  0  0  0  0
  -10.1638   18.7315  -31.6797 H   0  0  0  0  0  0  0  0  0  0  0  0
   -9.7714   21.0985  -32.3517 H   0  0  0  0  0  0  0  0  0  0  0  0
   -7.4723   21.8742  -32.9112 H   0  0  0  0  0  0  0  0  0  0  0  0
   -5.0210   20.4497  -33.9593 H   0  0  0  0  0  0  0  0  0  0  0  0
   -5.0768   21.4676  -32.4511 H   0  0  0  0  0  0  0  0  0  0  0  0
   -4.4400   19.2760  -31.3310 H   0  0  0  0  0  0  0  0  0  0  0  0
   -3.9220   18.7920  -32.8560 H   0  0  0  0  0  0  0  0  0  0  0  0
   -2.5101   20.2225  -31.0056 H   0  0  0  0  0  0  0  0  0  0  0  0
   -2.0807   19.8933  -32.7434 H   0  0  0  0  0  0  0  0  0  0  0  0
   -1.9812   22.1608  -32.8729 H   0  0  0  0  0  0  0  0  0  0  0  0
   -3.7726   22.0015  -33.0453 H   0  0  0  0  0  0  0  0  0  0  0  0
   -1.1243   22.1582  -30.4007 H   0  0  0  0  0  0  0  0  0  0  0  0
   -1.3366   23.4572  -28.2947 H   0  0  0  0  0  0  0  0  0  0  0  0
   -3.4262   24.7086  -27.7943 H   0  0  0  0  0  0  0  0  0  0  0  0
   -5.6527   25.4163  -28.4146 H   0  0  0  0  0  0  0  0  0  0  0  0
   -7.5521   25.4227  -30.0269 H   0  0  0  0  0  0  0  0  0  0  0  0
   -7.3834   24.1540  -32.1639 H   0  0  0  0  0  0  0  0  0  0  0  0
   -5.3271   22.8637  -32.6985 H   0  0  0  0  0  0  0  0  0  0  0  0
  1  2  1  0
  2  3  1  0
  3  4  1  0
  4  5  2  0
  5  6  1  0
  6  7  2  0
  7  8  1  0
  8  9  2  0
  9 10  1  0
 10 11  1  0
 11 12  1  0
 12 13  1  0
 13 14  1  0
 14 15  2  0
 15 16  1  0
 16 17  2  0
 17 18  1  0
 18 19  2  0
 19 20  1  0
 20 21  2  0
 21 22  1  0
 22 23  2  0
  9  4  1  0
 23 14  1  0
 23 18  1  0
  1 24  1  0
  1 25  1  0
  1 26  1  0
  2 27  1  0
  2 28  1  0
  5 29  1  0
  6 30  1  0
  7 31  1  0
  8 32  1  0
 10 33  1  0
 10 34  1  0
 11 35  1  0
 11 36  1  0
 12 37  1  0
 12 38  1  0
 13 39  1  0
 13 40  1  0
 15 41  1  0
 16 42  1  0
 17 43  1  0
 19 44  1  0
 20 45  1  0
 21 46  1  0
 22 47  1  0
M  CHG  1  11   1
M  END
>  <UniqueID>  (20) 
20

>  <SMILES>  (20) 
CCOc1ccccc1C[NH2+]CCc1cccc2ccccc12

>  <Energy>  (20) 
50.89383752591958

>  <Genealogy>  (20) 
CCOc1ccccc1C[NH2+]CCc1cccc2ccccc12 (protonated)
CCOc1ccccc1C[NH2+]CCc1cccc2ccccc12 (3D coordinates assigned)
CCOc1ccccc1C[NH2+]CCc1cccc2ccccc12 (optimized conformer: 50.89383752591958 kcal/mol)

>  <smiles>  (20) 
CCOc1ccccc1CNCCc1cccc2ccccc12

>  <score_type>  (20) 
oracle

>  <origin>  (20) 
adg

>  <m_score__min__energy>  (20) 
-8.4600000000000009

>  <m_primary>  (20) 
energy

$$$$
20:0
     RDKit          3D

 51 52  0  0  0  0  0  0  0  0999 V2000
   -2.7160   18.5280  -33.9310 C   0  0  0  0  0  0  0  0  0  0  0  0
   -1.2770   18.9770  -33.6910 C   0  0  0  0  0  0  0  0  0  0  0  0
   -1.1050   20.4010  -34.0700 N   0  0  0  0  0  0  0  0  0  0  0  0
   -0.1770   20.5180  -35.2220 C   0  0  0  0  0  0  0  0  0  0  0  0
    0.3000   21.9560  -35.3820 C   0  0  0  0  0  0  0  0  0  0  0  0
   -0.6080   21.1960  -32.9210 C   0  0  0  0  0  0  0  0  0  0  0  0
   -1.5700   21.1280  -31.7260 C   0  0  0  0  0  0  0  0  0  0  0  0
   -3.2610   21.4510  -32.2080 S   0  0  0  0  0  0  0  0  0  0  0  0
   -3.3510   21.8650  -33.8340 O   0  0  0  0  0  0  0  0  0  0  0  0
   -4.0670   22.6640  -31.2140 C   0  0  0  0  0  0  0  0  0  0  0  0
   -3.3930   23.1380  -30.0810 C   0  0  0  0  0  0  0  0  0  0  0  0
   -3.9860   24.0870  -29.2470 C   0  0  0  0  0  0  0  0  0  0  0  0
   -5.2560   24.5780  -29.5400 C   0  0  0  0  0  0  0  0  0  0  0  0
   -5.9330   24.1300  -30.6750 C   0  0  0  0  0  0  0  0  0  0  0  0
   -5.3520   23.1770  -31.5350 C   0  0  0  0  0  0  0  0  0  0  0  0
   -6.0770   22.7630  -32.7190 N   0  0  0  0  0  0  0  0  0  0  0  0
   -7.0790   21.7730  -32.3810 C   0  0  0  0  0  0  0  0  0  0  0  0
   -8.2240   22.1770  -31.6630 C   0  0  0  0  0  0  0  0  0  0  0  0
   -9.2110   21.2580  -31.3110 C   0  0  0  0  0  0  0  0  0  0  0  0
   -9.0830   19.9210  -31.6750 C   0  0  0  0  0  0  0  0  0  0  0  0
   -7.9690   19.4970  -32.4010 C   0  0  0  0  0  0  0  0  0  0  0  0
   -6.9600   20.4070  -32.7680 C   0  0  0  0  0  0  0  0  0  0  0  0
   -5.7990   19.9040  -33.5860 C   0  0  0  0  0  0  0  0  0  0  0  0
   -3.2173   18.3716  -32.9645 H   0  0  0  0  0  0  0  0  0  0  0  0
   -3.2514   19.3018  -34.5007 H   0  0  0  0  0  0  0  0  0  0  0  0
   -2.7163   17.5870  -34.5007 H   0  0  0  0  0  0  0  0  0  0  0  0
   -1.0328   18.8543  -32.6255 H   0  0  0  0  0  0  0  0  0  0  0  0
   -0.6056   18.3619  -34.3081 H   0  0  0  0  0  0  0  0  0  0  0  0
    0.6923   19.8653  -35.0538 H   0  0  0  0  0  0  0  0  0  0  0  0
   -0.7077   20.2164  -36.1371 H   0  0  0  0  0  0  0  0  0  0  0  0
    0.4491   22.4055  -34.3892 H   0  0  0  0  0  0  0  0  0  0  0  0
    1.2501   21.9676  -35.9362 H   0  0  0  0  0  0  0  0  0  0  0  0
   -0.4548   22.5332  -35.9362 H   0  0  0  0  0  0  0  0  0  0  0  0
    0.3721   20.8030  -32.6127 H   0  0  0  0  0  0  0  0  0  0  0  0
   -0.5289   22.2461  -33.2387 H   0  0  0  0  0  0  0  0  0  0  0  0
   -1.5132   20.1236  -31.2812 H   0  0  0  0  0  0  0  0  0  0  0  0
   -1.2692   21.9009  -31.0034 H   0  0  0  0  0  0  0  0  0  0  0  0
   -2.5080   21.5250  -34.2290 H   0  0  0  0  0  0  0  0  0  0  0  0
   -2.3874   22.7588  -29.8466 H   0  0  0  0  0  0  0  0  0  0  0  0
   -3.4496   24.4477  -28.3570 H   0  0  0  0  0  0  0  0  0  0  0  0
   -5.7255   25.3192  -28.8765 H   0  0  0  0  0  0  0  0  0  0  0  0
   -6.9339   24.5262  -30.9014 H   0  0  0  0  0  0  0  0  0  0  0  0
   -5.3840   22.4030  -33.4120 H   0  0  0  0  0  0  0  0  0  0  0  0
   -6.5520   23.5620  -33.1920 H   0  0  0  0  0  0  0  0  0  0  0  0
   -8.3396   23.2328  -31.3767 H   0  0  0  0  0  0  0  0  0  0  0  0
  -10.0932   21.5903  -30.7442 H   0  0  0  0  0  0  0  0  0  0  0  0
   -9.8609   19.1973  -31.3901 H   0  0  0  0  0  0  0  0  0  0  0  0
   -7.8785   18.4394  -32.6897 H   0  0  0  0  0  0  0  0  0  0  0  0
   -4.9998   19.5578  -32.9141 H   0  0  0  0  0  0  0  0  0  0  0  0
   -6.1318   19.0694  -34.2205 H   0  0  0  0  0  0  0  0  0  0  0  0
   -5.4177   20.7176  -34.2205 H   0  0  0  0  0  0  0  0  0  0  0  0
  1  2  1  0
  2  3  1  0
  3  4  1  0
  4  5  1  0
  3  6  1  0
  6  7  1  0
  7  8  1  0
  8  9  1  6
  8 10  1  0
 10 11  2  0
 11 12  1  0
 12 13  2  0
 13 14  1  0
 14 15  2  0
 15 16  1  0
 16 17  1  0
 17 18  2  0
 18 19  1  0
 19 20  2  0
 20 21  1  0
 21 22  2  0
 22 23  1  0
 15 10  1  0
 22 17  1  0
  1 24  1  0
  1 25  1  0
  1 26  1  0
  2 27  1  0
  2 28  1  0
  4 29  1  0
  4 30  1  0
  5 31  1  0
  5 32  1  0
  5 33  1  0
  6 34  1  0
  6 35  1  0
  7 36  1  0
  7 37  1  0
  9 38  1  0
 11 39  1  0
 12 40  1  0
 13 41  1  0
 14 42  1  0
 16 43  1  0
 16 44  1  0
 18 45  1  0
 19 46  1  0
 20 47  1  0
 21 48  1  0
 23 49  1  0
 23 50  1  0
 23 51  1  0
M  CHG  2   8   1  16   1
M  END
>  <UniqueID>  (21) 
21

>  <SMILES>  (21) 
CCN(CC)CC[S@+](O)c1ccccc1[NH2+]c1ccccc1C

>  <Energy>  (21) 
46.76950137907473

>  <Genealogy>  (21) 
CCN(CC)CC[S+](O)c1ccccc1[NH2+]c1ccccc1C (protonated)
CCN(CC)CC[S@+](O)c1ccccc1[NH2+]c1ccccc1C (chirality)
CCN(CC)CC[S@+](O)c1ccccc1[NH2+]c1ccccc1C (3D coordinates assigned)
CCN(CC)CC[S@+](O)c1ccccc1[NH2+]c1ccccc1C (optimized conformer: 46.76950137907473 kcal/mol)

>  <smiles>  (21) 
CCN(CC)CC[S+]([O-])c1ccccc1Nc1ccccc1C

>  <score_type>  (21) 
oracle

>  <origin>  (21) 
adg

>  <m_score__min__energy>  (21) 
-7.3499999999999996

>  <m_primary>  (21) 
energy

$$$$
21:0
     RDKit          3D

 37 38  0  0  0  0  0  0  0  0999 V2000
   -1.6630   25.6960  -26.8150 C   0  0  0  0  0  0  0  0  0  0  0  0
   -1.1770   25.4080  -28.2270 C   0  0  0  0  0  0  0  0  0  0  0  0
   -2.2950   25.2800  -29.0790 O   0  0  0  0  0  0  0  0  0  0  0  0
   -2.7400   23.9380  -29.0830 C   0  0  0  0  0  0  0  0  0  0  0  0
   -4.0420   23.8490  -28.3000 C   0  0  0  0  0  0  0  0  0  0  0  0
   -4.9460   24.8290  -28.7960 O   0  0  0  0  0  0  0  0  0  0  0  0
   -5.1390   25.0810  -30.1550 C   0  0  0  0  0  0  0  0  0  0  0  0
   -4.2380   25.6350  -30.8430 O   0  0  0  0  0  0  0  0  0  0  0  0
   -6.4350   24.6870  -30.7900 C   0  0  0  0  0  0  0  0  0  0  0  0
   -6.2680   23.3930  -31.5310 C   0  0  0  0  0  0  0  0  0  0  0  0
   -5.1310   22.9560  -32.2020 C   0  0  0  0  0  0  0  0  0  0  0  0
   -5.3090   21.7210  -32.6380 O   0  0  0  0  0  0  0  0  0  0  0  0
   -6.5060   21.3340  -32.2670 C   0  0  0  0  0  0  0  0  0  0  0  0
   -7.1040   20.0950  -32.4890 C   0  0  0  0  0  0  0  0  0  0  0  0
   -8.4030   19.8830  -31.9740 C   0  0  0  0  0  0  0  0  0  0  0  0
   -9.0860   18.5600  -32.1510 C   0  0  0  0  0  0  0  0  0  0  0  0
   -9.0500   20.9130  -31.2460 C   0  0  0  0  0  0  0  0  0  0  0  0
   -8.4210   22.1530  -31.0450 C   0  0  0  0  0  0  0  0  0  0  0  0
   -7.1440   22.3290  -31.5770 C   0  0  0  0  0  0  0  0  0  0  0  0
   -0.9518   25.2746  -26.0893 H   0  0  0  0  0  0  0  0  0  0  0  0
   -1.7365   26.7835  -26.6672 H   0  0  0  0  0  0  0  0  0  0  0  0
   -2.6522   25.2382  -26.6672 H   0  0  0  0  0  0  0  0  0  0  0  0
   -0.5410   26.2355  -28.5744 H   0  0  0  0  0  0  0  0  0  0  0  0
   -0.5928   24.4760  -28.2368 H   0  0  0  0  0  0  0  0  0  0  0  0
   -2.9084   23.6077  -30.1186 H   0  0  0  0  0  0  0  0  0  0  0  0
   -1.9805   23.2917  -28.6187 H   0  0  0  0  0  0  0  0  0  0  0  0
   -4.4793   22.8472  -28.4233 H   0  0  0  0  0  0  0  0  0  0  0  0
   -3.8476   24.0278  -27.2322 H   0  0  0  0  0  0  0  0  0  0  0  0
   -7.2009   24.5645  -30.0100 H   0  0  0  0  0  0  0  0  0  0  0  0
   -6.7455   25.4712  -31.4961 H   0  0  0  0  0  0  0  0  0  0  0  0
   -4.2174   23.5509  -32.3484 H   0  0  0  0  0  0  0  0  0  0  0  0
   -6.5806   19.3056  -33.0484 H   0  0  0  0  0  0  0  0  0  0  0  0
   -9.3092   18.1277  -31.1644 H   0  0  0  0  0  0  0  0  0  0  0  0
  -10.0230   18.7029  -32.7092 H   0  0  0  0  0  0  0  0  0  0  0  0
   -8.4269   17.8789  -32.7092 H   0  0  0  0  0  0  0  0  0  0  0  0
  -10.0551   20.7395  -30.8341 H   0  0  0  0  0  0  0  0  0  0  0  0
   -8.9195   22.9588  -30.4862 H   0  0  0  0  0  0  0  0  0  0  0  0
  1  2  1  0
  2  3  1  0
  3  4  1  0
  4  5  1  0
  5  6  1  0
  6  7  1  0
  7  8  2  0
  7  9  1  0
  9 10  1  0
 10 11  2  0
 11 12  1  0
 12 13  1  0
 13 14  2  0
 14 15  1  0
 15 16  1  0
 15 17  2  0
 17 18  1  0
 18 19  2  0
 19 10  1  0
 19 13  1  0
  1 20  1  0
  1 21  1  0
  1 22  1  0
  2 23  1  0
  2 24  1  0
  4 25  1  0
  4 26  1  0
  5 27  1  0
  5 28  1  0
  9 29  1  0
  9 30  1  0
 11 31  1  0
 14 32  1  0
 16 33  1  0
 16 34  1  0
 16 35  1  0
 17 36  1  0
 18 37  1  0
M  END
>  <UniqueID>  (22) 
22

>  <SMILES>  (22) 
CCOCCOC(=O)Cc1coc2cc(C)ccc12

>  <Energy>  (22) 
58.508888302543866

>  <Genealogy>  (22) 
CCOCCOC(=O)Cc1coc2cc(C)ccc12 (3D coordinates assigned)
CCOCCOC(=O)Cc1coc2cc(C)ccc12 (optimized conformer: 58.508888302543866 kcal/mol)

>  <smiles>  (22) 
CCOCCOC(=O)Cc1coc2cc(C)ccc12

>  <score_type>  (22) 
oracle

>  <origin>  (22) 
adg

>  <m_score__min__energy>  (22) 
-7.1799999999999997

>  <m_primary>  (22) 
energy

$$$$
22:0
     RDKit          3D

 38 40  0  0  0  0  0  0  0  0999 V2000
   -2.0903   21.8428  -30.1993 H   0  0  0  0  0  0  0  0  0  0  0  0
   -2.9700   22.5030  -30.2130 C   0  0  0  0  0  0  0  0  0  0  0  0
   -4.4730   22.1300  -30.8750 S   0  0  0  0  0  0  0  0  0  0  0  0
   -5.1420   23.6090  -30.4580 C   0  0  0  0  0  0  0  0  0  0  0  0
   -6.3720   23.9400  -30.7230 N   0  0  0  0  0  0  0  0  0  0  0  0
   -7.0310   23.7890  -32.0190 C   0  0  0  0  0  0  0  0  0  0  0  0
   -7.2210   24.7847  -32.4461 H   0  0  0  0  0  0  0  0  0  0  0  0
   -6.3755   23.2082  -32.6846 H   0  0  0  0  0  0  0  0  0  0  0  0
   -8.3620   23.0450  -31.8640 C   0  0  0  0  0  0  0  0  0  0  0  0
   -8.7632   23.2277  -30.8562 H   0  0  0  0  0  0  0  0  0  0  0  0
   -9.0651   23.4131  -32.6257 H   0  0  0  0  0  0  0  0  0  0  0  0
   -8.1670   21.5660  -32.0580 C   0  0  0  0  0  0  0  0  0  0  0  0
   -7.0250   21.0850  -32.7180 C   0  0  0  0  0  0  0  0  0  0  0  0
   -6.2839   21.7931  -33.1171 H   0  0  0  0  0  0  0  0  0  0  0  0
   -6.8260   19.7090  -32.8700 C   0  0  0  0  0  0  0  0  0  0  0  0
   -5.9334   19.3374  -33.3946 H   0  0  0  0  0  0  0  0  0  0  0  0
   -7.7600   18.8060  -32.3560 C   0  0  0  0  0  0  0  0  0  0  0  0
   -7.5650   17.4720  -32.5020 F   0  0  0  0  0  0  0  0  0  0  0  0
   -8.8920   19.2770  -31.6860 C   0  0  0  0  0  0  0  0  0  0  0  0
   -9.6253   18.5652  -31.2791 H   0  0  0  0  0  0  0  0  0  0  0  0
   -9.0940   20.6520  -31.5320 C   0  0  0  0  0  0  0  0  0  0  0  0
   -9.9823   21.0189  -30.9969 H   0  0  0  0  0  0  0  0  0  0  0  0
   -4.2470   24.3980  -29.8180 N   0  0  0  0  0  0  0  0  0  0  0  0
   -4.4470   25.3630  -29.4720 H   0  0  0  0  0  0  0  0  0  0  0  0
   -3.0320   23.7950  -29.6840 C   0  0  0  0  0  0  0  0  0  0  0  0
   -1.9170   24.4700  -28.9840 C   0  0  0  0  0  0  0  0  0  0  0  0
   -1.9810   25.7580  -28.5990 N   0  0  0  0  0  0  0  0  0  0  0  0
   -0.7880   25.9890  -28.0150 C   0  0  0  0  0  0  0  0  0  0  0  0
   -0.3920   27.3220  -27.4760 C   0  0  0  0  0  0  0  0  0  0  0  0
   -0.4014   27.2904  -26.3765 H   0  0  0  0  0  0  0  0  0  0  0  0
    0.6197   27.5736  -27.8270 H   0  0  0  0  0  0  0  0  0  0  0  0
   -1.1022   28.0851  -27.8270 H   0  0  0  0  0  0  0  0  0  0  0  0
    0.0440   24.9280  -28.0320 N   0  0  0  0  0  0  0  0  0  0  0  0
   -0.6700   23.9660  -28.6460 C   0  0  0  0  0  0  0  0  0  0  0  0
   -0.1220   22.6030  -28.9180 C   0  0  0  0  0  0  0  0  0  0  0  0
    0.0829   22.0933  -27.9650 H   0  0  0  0  0  0  0  0  0  0  0  0
   -0.8560   22.0210  -29.4946 H   0  0  0  0  0  0  0  0  0  0  0  0
    0.8106   22.6911  -29.4946 H   0  0  0  0  0  0  0  0  0  0  0  0
  1  2  1  0
  2  3  1  0
  3  4  1  0
  4  5  2  0
  5  6  1  0
  6  7  1  0
  6  8  1  0
  6  9  1  0
  9 10  1  0
  9 11  1  0
  9 12  1  0
 12 13  2  0
 13 14  1  0
 13 15  1  0
 15 16  1  0
 15 17  2  0
 17 18  1  0
 17 19  1  0
 19 20  1  0
 19 21  2  0
 21 22  1  0
  4 23  1  0
 23 24  1  0
 23 25  1  0
 25 26  1  0
 26 27  1  0
 27 28  1  0
 28 29  1  0
 29 30  1  0
 29 31  1  0
 29 32  1  0
 28 33  2  0
 33 34  1  0
 34 35  1  0
 35 36  1  0
 35 37  1  0
 35 38  1  0
 25  2  2  0
 34 26  2  0
 21 12  1  0
M  CHG  1  27  -1
M  END
>  <UniqueID>  (23) 
23

>  <SMILES>  (23) 
Cc1nc(C)c(-c2cs/c(=N/CCc3ccc(F)cc3)[nH]2)[n-]1

>  <Energy>  (23) 
94.84486701742749

>  <Genealogy>  (23) 
Cc1nc(C)c(-c2csc(=NCCc3ccc(F)cc3)[nH]2)[n-]1 (protonated)
Cc1nc(C)c(-c2cs/c(=N/CCc3ccc(F)cc3)[nH]2)[n-]1 (cis-trans isomerization)
Cc1nc(C)c(-c2cs/c(=N/CCc3ccc(F)cc3)[nH]2)[n-]1 (3D coordinates assigned)
Cc1nc(C)c(-c2cs/c(=N/CCc3ccc(F)cc3)[nH]2)[n-]1 (optimized conformer: 94.84486701742749 kcal/mol)

>  <smiles>  (23) 
Cc1nc(C)c(-c2csc(=NCCc3ccc(F)cc3)[nH]2)[nH]1

>  <score_type>  (23) 
oracle

>  <origin>  (23) 
adg

>  <m_score__min__energy>  (23) 
-9.4800000000000004

>  <m_primary>  (23) 
energy

$$$$
23:0
     RDKit          3D

 37 40  0  0  0  0  0  0  0  0999 V2000
    0.9640   20.8630  -34.3280 C   0  0  0  0  0  0  0  0  0  0  0  0
    0.4460   20.8910  -33.0020 O   0  0  0  0  0  0  0  0  0  0  0  0
   -0.9070   21.0820  -32.6840 C   0  0  0  0  0  0  0  0  0  0  0  0
   -1.3640   21.1860  -31.3550 C   0  0  0  0  0  0  0  0  0  0  0  0
   -2.7240   21.3760  -31.0900 C   0  0  0  0  0  0  0  0  0  0  0  0
   -3.6410   21.4610  -32.1450 C   0  0  0  0  0  0  0  0  0  0  0  0
   -5.0420   21.6580  -31.8700 N   0  0  0  0  0  0  0  0  0  0  0  0
   -5.9610   20.6690  -32.1490 C   0  0  0  0  0  0  0  0  0  0  0  0
   -5.5700   19.4320  -32.7180 C   0  0  0  0  0  0  0  0  0  0  0  0
   -6.5120   18.4410  -32.9930 C   0  0  0  0  0  0  0  0  0  0  0  0
   -7.8590   18.6560  -32.7120 C   0  0  0  0  0  0  0  0  0  0  0  0
   -8.2730   19.8640  -32.1540 C   0  0  0  0  0  0  0  0  0  0  0  0
   -7.3380   20.8790  -31.8680 C   0  0  0  0  0  0  0  0  0  0  0  0
   -7.7490   22.1000  -31.3080 C   0  0  0  0  0  0  0  0  0  0  0  0
   -8.9700   22.3040  -31.0520 O   0  0  0  0  0  0  0  0  0  0  0  0
   -6.7990   23.0940  -31.0330 C   0  0  0  0  0  0  0  0  0  0  0  0
   -7.1640   24.3320  -30.4720 C   0  0  0  0  0  0  0  0  0  0  0  0
   -6.1920   25.2960  -30.2120 C   0  0  0  0  0  0  0  0  0  0  0  0
   -4.8600   25.0220  -30.5120 C   0  0  0  0  0  0  0  0  0  0  0  0
   -4.5170   23.8240  -31.0530 N   0  0  0  0  0  0  0  0  0  0  0  0
   -5.4380   22.8530  -31.3240 C   0  0  0  0  0  0  0  0  0  0  0  0
   -3.1900   21.3610  -33.4680 C   0  0  0  0  0  0  0  0  0  0  0  0
   -1.8320   21.1720  -33.7330 C   0  0  0  0  0  0  0  0  0  0  0  0
    2.0618   20.8037  -34.2916 H   0  0  0  0  0  0  0  0  0  0  0  0
    0.5667   19.9850  -34.8584 H   0  0  0  0  0  0  0  0  0  0  0  0
    0.6637   21.7787  -34.8584 H   0  0  0  0  0  0  0  0  0  0  0  0
   -0.6481   21.1175  -30.5226 H   0  0  0  0  0  0  0  0  0  0  0  0
   -3.0742   21.4589  -30.0505 H   0  0  0  0  0  0  0  0  0  0  0  0
   -4.5093   19.2507  -32.9460 H   0  0  0  0  0  0  0  0  0  0  0  0
   -6.1898   17.4859  -33.4335 H   0  0  0  0  0  0  0  0  0  0  0  0
   -8.5976   17.8708  -32.9309 H   0  0  0  0  0  0  0  0  0  0  0  0
   -9.3386   20.0267  -31.9349 H   0  0  0  0  0  0  0  0  0  0  0  0
   -8.2187   24.5391  -30.2383 H   0  0  0  0  0  0  0  0  0  0  0  0
   -6.4743   26.2646  -29.7738 H   0  0  0  0  0  0  0  0  0  0  0  0
   -4.0850   25.7762  -30.3108 H   0  0  0  0  0  0  0  0  0  0  0  0
   -3.9070   21.4315  -34.2993 H   0  0  0  0  0  0  0  0  0  0  0  0
   -1.4854   21.0931  -34.7740 H   0  0  0  0  0  0  0  0  0  0  0  0
  1  2  1  0
  2  3  1  0
  3  4  2  0
  4  5  1  0
  5  6  2  0
  6  7  1  0
  7  8  1  0
  8  9  2  0
  9 10  1  0
 10 11  2  0
 11 12  1  0
 12 13  2  0
 13 14  1  0
 14 15  2  0
 14 16  1  0
 16 17  2  0
 17 18  1  0
 18 19  2  0
 19 20  1  0
 20 21  2  0
  6 22  1  0
 22 23  2  0
 23  3  1  0
 21  7  1  0
 13  8  1  0
 21 16  1  0
  1 24  1  0
  1 25  1  0
  1 26  1  0
  4 27  1  0
  5 28  1  0
  9 29  1  0
 10 30  1  0
 11 31  1  0
 12 32  1  0
 17 33  1  0
 18 34  1  0
 19 35  1  0
 22 36  1  0
 23 37  1  0
M  END
>  <UniqueID>  (24) 
24

>  <SMILES>  (24) 
COc1ccc(-n2c3ccccc3c(=O)c3cccnc32)cc1

>  <Energy>  (24) 
62.57842713857553

>  <Genealogy>  (24) 
COc1ccc(-n2c3ccccc3c(=O)c3cccnc32)cc1 (3D coordinates assigned)
COc1ccc(-n2c3ccccc3c(=O)c3cccnc32)cc1 (optimized conformer: 62.57842713857553 kcal/mol)

>  <smiles>  (24) 
COc1ccc(-n2c3ccccc3c(=O)c3cccnc32)cc1

>  <score_type>  (24) 
oracle

>  <origin>  (24) 
adg

>  <m_score__min__energy>  (24) 
-8.2400000000000002

>  <m_primary>  (24) 
energy

$$$$
24:0
     RDKit          3D

 50 53  0  0  0  0  0  0  0  0999 V2000
   -3.0330   21.7420  -32.3830 C   0  0  0  0  0  0  0  0  0  0  0  0
   -3.9210   22.1320  -31.2040 C   0  0  0  0  0  0  0  0  0  0  0  0
   -5.3160   22.3130  -31.6280 N   0  0  0  0  0  0  0  0  0  0  0  0
   -6.0640   23.4310  -31.5030 C   0  0  0  0  0  0  0  0  0  0  0  0
   -5.6090   24.7140  -30.8600 C   0  0  0  0  0  0  0  0  0  0  0  0
   -5.1740   24.6170  -29.4020 C   0  0  0  0  0  0  0  0  0  0  0  0
   -6.5200   25.2220  -29.7530 C   0  0  0  0  0  0  0  0  0  0  0  0
   -7.3410   23.1500  -31.9450 C   0  0  0  0  0  0  0  0  0  0  0  0
   -7.3990   21.8760  -32.3720 N   0  0  0  0  0  0  0  0  0  0  0  0
   -6.1550   21.3910  -32.1650 C   0  0  0  0  0  0  0  0  0  0  0  0
   -5.8020   19.9550  -32.4690 C   0  0  0  0  0  0  0  0  0  0  0  0
   -6.7720   19.2920  -33.3790 N   0  0  0  0  0  0  0  0  0  0  0  0
   -6.1120   18.8750  -34.6490 C   0  0  0  0  0  0  0  0  0  0  0  0
   -5.6700   17.3930  -34.6890 C   0  0  0  0  0  0  0  0  0  0  0  0
   -5.5080   16.8390  -33.3440 N   0  0  0  0  0  0  0  0  0  0  0  0
   -4.3700   16.0200  -33.0420 C   0  0  0  0  0  0  0  0  0  0  0  0
   -4.5690   14.6930  -32.6310 C   0  0  0  0  0  0  0  0  0  0  0  0
   -3.4740   13.8750  -32.3350 C   0  0  0  0  0  0  0  0  0  0  0  0
   -2.1750   14.3810  -32.4410 C   0  0  0  0  0  0  0  0  0  0  0  0
   -1.1140   13.5860  -32.1570 F   0  0  0  0  0  0  0  0  0  0  0  0
   -1.9690   15.7060  -32.8390 C   0  0  0  0  0  0  0  0  0  0  0  0
   -3.0610   16.5310  -33.1360 C   0  0  0  0  0  0  0  0  0  0  0  0
   -2.7620   18.2060  -33.5840 Cl  0  0  0  0  0  0  0  0  0  0  0  0
   -6.5480   17.0350  -32.3310 C   0  0  0  0  0  0  0  0  0  0  0  0
   -7.5010   18.1640  -32.7480 C   0  0  0  0  0  0  0  0  0  0  0  0
   -2.0864   21.3263  -32.0073 H   0  0  0  0  0  0  0  0  0  0  0  0
   -3.5475   20.9870  -32.9956 H   0  0  0  0  0  0  0  0  0  0  0  0
   -2.8252   22.6317  -32.9956 H   0  0  0  0  0  0  0  0  0  0  0  0
   -3.8770   21.3385  -30.4435 H   0  0  0  0  0  0  0  0  0  0  0  0
   -3.5554   23.0841  -30.7919 H   0  0  0  0  0  0  0  0  0  0  0  0
   -5.1621   25.1362  -31.7722 H   0  0  0  0  0  0  0  0  0  0  0  0
   -5.1243   23.6359  -28.9070 H   0  0  0  0  0  0  0  0  0  0  0  0
   -4.2970   24.9510  -28.8282 H   0  0  0  0  0  0  0  0  0  0  0  0
   -7.4459   24.6795  -29.5113 H   0  0  0  0  0  0  0  0  0  0  0  0
   -7.0220   26.1768  -29.5375 H   0  0  0  0  0  0  0  0  0  0  0  0
   -8.1820   23.8590  -31.9476 H   0  0  0  0  0  0  0  0  0  0  0  0
   -4.8085   19.9319  -32.9407 H   0  0  0  0  0  0  0  0  0  0  0  0
   -5.8209   19.4058  -31.5161 H   0  0  0  0  0  0  0  0  0  0  0  0
   -7.4880   20.0090  -33.6380 H   0  0  0  0  0  0  0  0  0  0  0  0
   -6.8188   19.0446  -35.4747 H   0  0  0  0  0  0  0  0  0  0  0  0
   -5.1949   19.4762  -34.7356 H   0  0  0  0  0  0  0  0  0  0  0  0
   -6.4316   16.8084  -35.2258 H   0  0  0  0  0  0  0  0  0  0  0  0
   -4.6979   17.3392  -35.2010 H   0  0  0  0  0  0  0  0  0  0  0  0
   -5.5904   14.2947  -32.5413 H   0  0  0  0  0  0  0  0  0  0  0  0
   -3.6347   12.8337  -32.0189 H   0  0  0  0  0  0  0  0  0  0  0  0
   -0.9456   16.1014  -32.9190 H   0  0  0  0  0  0  0  0  0  0  0  0
   -7.1204   16.1028  -32.2152 H   0  0  0  0  0  0  0  0  0  0  0  0
   -6.0694   17.3078  -31.3789 H   0  0  0  0  0  0  0  0  0  0  0  0
   -8.2327   17.7659  -33.4665 H   0  0  0  0  0  0  0  0  0  0  0  0
   -8.0016   18.5417  -31.8443 H   0  0  0  0  0  0  0  0  0  0  0  0
  1  2  1  0
  2  3  1  0
  3  4  1  0
  4  5  1  0
  5  6  1  0
  6  7  1  0
  4  8  2  0
  8  9  1  0
  9 10  2  0
 10 11  1  0
 11 12  1  0
 12 13  1  0
 13 14  1  0
 14 15  1  0
 15 16  1  0
 16 17  2  0
 17 18  1  0
 18 19  2  0
 19 20  1  0
 19 21  1  0
 21 22  2  0
 22 23  1  0
 15 24  1  0
 24 25  1  0
 10  3  1  0
 25 12  1  0
  7  5  1  0
 22 16  1  0
  1 26  1  0
  1 27  1  0
  1 28  1  0
  2 29  1  0
  2 30  1  0
  5 31  1  0
  6 32  1  0
  6 33  1  0
  7 34  1  0
  7 35  1  0
  8 36  1  0
 11 37  1  0
 11 38  1  0
 12 39  1  0
 13 40  1  0
 13 41  1  0
 14 42  1  0
 14 43  1  0
 17 44  1  0
 18 45  1  0
 21 46  1  0
 24 47  1  0
 24 48  1  0
 25 49  1  0
 25 50  1  0
M  CHG  1  12   1
M  END
>  <UniqueID>  (25) 
25

>  <SMILES>  (25) 
CCn1c(C2CC2)cnc1C[NH+]1CCN(c2ccc(F)cc2Cl)CC1

>  <Energy>  (25) 
357.9620180311373

>  <Genealogy>  (25) 
CCn1c(C2CC2)cnc1C[NH+]1CCN(c2ccc(F)cc2Cl)CC1 (protonated)
CCn1c(C2CC2)cnc1C[NH+]1CCN(c2ccc(F)cc2Cl)CC1 (3D coordinates assigned)
CCn1c(C2CC2)cnc1C[NH+]1CCN(c2ccc(F)cc2Cl)CC1 (nonaromatic ring conformer: 357.9620180311373 kcal/mol)

>  <smiles>  (25) 
CCn1c(C2CC2)cnc1CN1CCN(c2ccc(F)cc2Cl)CC1

>  <score_type>  (25) 
oracle

>  <origin>  (25) 
adg

>  <m_score__min__energy>  (25) 
-6.7400000000000002

>  <m_primary>  (25) 
energy

$$$$
25:0
     RDKit          3D

 41 42  0  0  0  0  0  0  0  0999 V2000
   -1.5780   25.7340  -27.2760 C   0  0  0  0  0  0  0  0  0  0  0  0
   -1.9560   25.6300  -28.6500 O   0  0  0  0  0  0  0  0  0  0  0  0
   -2.0680   24.4260  -29.3610 C   0  0  0  0  0  0  0  0  0  0  0  0
   -1.1430   23.3780  -29.1860 C   0  0  0  0  0  0  0  0  0  0  0  0
   -1.3230   22.1600  -29.8470 C   0  0  0  0  0  0  0  0  0  0  0  0
   -2.4290   21.9690  -30.6800 C   0  0  0  0  0  0  0  0  0  0  0  0
   -2.6850   20.2940  -31.5580 Br  0  0  0  0  0  0  0  0  0  0  0  0
   -3.3420   23.0090  -30.8690 C   0  0  0  0  0  0  0  0  0  0  0  0
   -3.1530   24.2490  -30.2480 C   0  0  0  0  0  0  0  0  0  0  0  0
   -4.1100   25.2890  -30.4790 N   0  0  0  0  0  0  0  0  0  0  0  0
   -5.5280   25.1130  -30.5550 C   0  0  0  0  0  0  0  0  0  0  0  0
   -6.2910   25.7190  -29.7530 O   0  0  0  0  0  0  0  0  0  0  0  0
   -6.1140   24.1780  -31.5770 C   0  0  0  0  0  0  0  0  0  0  0  0
   -7.2640   23.4230  -31.0210 N   0  0  1  0  0  0  0  0  0  0  0  0
   -8.3960   23.4100  -31.9830 C   0  0  0  0  0  0  0  0  0  0  0  0
   -9.3790   22.2800  -31.6920 C   0  0  0  0  0  0  0  0  0  0  0  0
   -8.7080   20.9190  -31.9040 C   0  0  0  0  0  0  0  0  0  0  0  0
   -7.2170   20.9080  -31.4940 C   0  0  1  0  0  0  0  0  0  0  0  0
   -6.2910   20.8610  -32.7090 C   0  0  0  0  0  0  0  0  0  0  0  0
   -6.8600   22.0710  -30.5350 C   0  0  0  0  0  0  0  0  0  0  0  0
   -2.4426   25.4961  -26.6389 H   0  0  0  0  0  0  0  0  0  0  0  0
   -0.7620   25.0270  -27.0657 H   0  0  0  0  0  0  0  0  0  0  0  0
   -1.2385   26.7589  -27.0657 H   0  0  0  0  0  0  0  0  0  0  0  0
   -0.2746   23.5192  -28.5257 H   0  0  0  0  0  0  0  0  0  0  0  0
   -0.5921   21.3492  -29.7113 H   0  0  0  0  0  0  0  0  0  0  0  0
   -4.2196   22.8517  -31.5133 H   0  0  0  0  0  0  0  0  0  0  0  0
   -6.4550   24.7630  -32.4439 H   0  0  0  0  0  0  0  0  0  0  0  0
   -5.3373   23.4580  -31.8742 H   0  0  0  0  0  0  0  0  0  0  0  0
   -7.6110   23.9510  -30.1840 H   0  0  0  0  0  0  0  0  0  0  0  0
   -8.9288   24.3701  -31.9177 H   0  0  0  0  0  0  0  0  0  0  0  0
   -7.9843   23.2518  -32.9907 H   0  0  0  0  0  0  0  0  0  0  0  0
   -9.7209   22.3568  -30.6493 H   0  0  0  0  0  0  0  0  0  0  0  0
  -10.2344   22.3663  -32.3782 H   0  0  0  0  0  0  0  0  0  0  0  0
   -9.2419   20.1680  -31.3033 H   0  0  0  0  0  0  0  0  0  0  0  0
   -8.7543   20.6942  -32.9798 H   0  0  0  0  0  0  0  0  0  0  0  0
   -7.0535   19.9779  -30.9299 H   0  0  0  0  0  0  0  0  0  0  0  0
   -5.2455   20.8079  -32.3713 H   0  0  0  0  0  0  0  0  0  0  0  0
   -6.5261   19.9736  -33.3151 H   0  0  0  0  0  0  0  0  0  0  0  0
   -6.4350   21.7676  -33.3151 H   0  0  0  0  0  0  0  0  0  0  0  0
   -7.3609   21.8884  -29.5728 H   0  0  0  0  0  0  0  0  0  0  0  0
   -5.7630   22.0834  -30.4547 H   0  0  0  0  0  0  0  0  0  0  0  0
  1  2  1  0
  2  3  1  0
  3  4  2  0
  4  5  1  0
  5  6  2  0
  6  7  1  0
  6  8  1  0
  8  9  2  0
  9 10  1  0
 10 11  1  0
 11 12  2  0
 11 13  1  0
 13 14  1  0
 14 15  1  0
 15 16  1  0
 16 17  1  0
 17 18  1  0
 18 19  1  0
 18 20  1  0
  9  3  1  0
 20 14  1  0
  1 21  1  0
  1 22  1  0
  1 23  1  0
  4 24  1  0
  5 25  1  0
  8 26  1  0
 13 27  1  0
 13 28  1  0
 14 29  1  1
 15 30  1  0
 15 31  1  0
 16 32  1  0
 16 33  1  0
 17 34  1  0
 17 35  1  0
 18 36  1  1
 19 37  1  0
 19 38  1  0
 19 39  1  0
 20 40  1  0
 20 41  1  0
M  CHG  2  10  -1  14   1
M  END
>  <UniqueID>  (26) 
26

>  <SMILES>  (26) 
COc1ccc(Br)cc1[N-]C(=O)C[N@H+]1CCC[C@@H](C)C1

>  <Energy>  (26) 
53.45977653472028

>  <Genealogy>  (26) 
COc1ccc(Br)cc1[N-]C(=O)C[NH+]1CCCC(C)C1 (protonated)
COc1ccc(Br)cc1[N-]C(=O)C[N@H+]1CCC[C@@H](C)C1 (chirality)
COc1ccc(Br)cc1[N-]C(=O)C[N@H+]1CCC[C@@H](C)C1 (3D coordinates assigned)
COc1ccc(Br)cc1[N-]C(=O)C[N@H+]1CCC[C@@H](C)C1 (nonaromatic ring conformer: 53.45977653472028 kcal/mol)

>  <smiles>  (26) 
COc1ccc(Br)cc1NC(=O)CN1CCCC(C)C1

>  <score_type>  (26) 
oracle

>  <origin>  (26) 
adg

>  <m_score__min__energy>  (26) 
-8.4900000000000002

>  <m_primary>  (26) 
energy

$$$$
26:0
     RDKit          3D

 42 44  0  0  0  0  0  0  0  0999 V2000
   -9.0940   23.0380  -32.0070 C   0  0  0  0  0  0  0  0  0  0  0  0
   -8.0190   22.6530  -30.9920 C   0  0  0  0  0  0  0  0  0  0  0  0
   -6.8040   22.1460  -31.6800 N   0  0  0  0  0  0  0  0  0  0  0  0
   -5.7380   23.0010  -31.9160 C   0  0  0  0  0  0  0  0  0  0  0  0
   -5.6600   24.4080  -31.3430 C   0  0  0  0  0  0  0  0  0  0  0  0
   -4.3110   24.7230  -30.8430 N   0  0  0  0  0  0  0  0  0  0  0  0
   -4.0320   24.1620  -29.5100 C   0  0  0  0  0  0  0  0  0  0  0  0
   -2.8260   23.2490  -29.5500 C   0  0  0  0  0  0  0  0  0  0  0  0
   -2.9700   21.9330  -30.0250 C   0  0  0  0  0  0  0  0  0  0  0  0
   -1.8900   21.0480  -30.0050 C   0  0  0  0  0  0  0  0  0  0  0  0
   -0.6480   21.4720  -29.5310 C   0  0  0  0  0  0  0  0  0  0  0  0
   -0.4780   22.7870  -29.0950 C   0  0  0  0  0  0  0  0  0  0  0  0
   -1.5530   23.6830  -29.1120 C   0  0  0  0  0  0  0  0  0  0  0  0
   -1.2640   25.3380  -28.5860 Cl  0  0  0  0  0  0  0  0  0  0  0  0
   -4.6340   22.5660  -32.6610 C   0  0  0  0  0  0  0  0  0  0  0  0
   -4.5630   21.2630  -33.1240 C   0  0  0  0  0  0  0  0  0  0  0  0
   -3.5450   20.8960  -33.7700 O   0  0  0  0  0  0  0  0  0  0  0  0
   -5.6100   20.3740  -32.8570 C   0  0  0  0  0  0  0  0  0  0  0  0
   -5.5380   19.0380  -33.2960 C   0  0  0  0  0  0  0  0  0  0  0  0
   -6.5840   18.1530  -33.0470 C   0  0  0  0  0  0  0  0  0  0  0  0
   -6.4780   16.4900  -33.5980 Cl  0  0  0  0  0  0  0  0  0  0  0  0
   -7.7150   18.5900  -32.3680 C   0  0  0  0  0  0  0  0  0  0  0  0
   -7.8070   19.9090  -31.9240 C   0  0  0  0  0  0  0  0  0  0  0  0
   -6.7510   20.8360  -32.1400 C   0  0  0  0  0  0  0  0  0  0  0  0
  -10.0007   23.3627  -31.4755 H   0  0  0  0  0  0  0  0  0  0  0  0
   -8.7248   23.8598  -32.6382 H   0  0  0  0  0  0  0  0  0  0  0  0
   -9.3305   22.1687  -32.6382 H   0  0  0  0  0  0  0  0  0  0  0  0
   -7.7530   23.5376  -30.3948 H   0  0  0  0  0  0  0  0  0  0  0  0
   -8.4147   21.8585  -30.3423 H   0  0  0  0  0  0  0  0  0  0  0  0
   -5.9243   25.1282  -32.1313 H   0  0  0  0  0  0  0  0  0  0  0  0
   -6.3605   24.4711  -30.4973 H   0  0  0  0  0  0  0  0  0  0  0  0
   -3.6280   24.3010  -31.5150 H   0  0  0  0  0  0  0  0  0  0  0  0
   -3.8375   24.9849  -28.8064 H   0  0  0  0  0  0  0  0  0  0  0  0
   -4.9051   23.5770  -29.1852 H   0  0  0  0  0  0  0  0  0  0  0  0
   -3.9421   21.5979  -30.4158 H   0  0  0  0  0  0  0  0  0  0  0  0
   -2.0185   20.0159  -30.3632 H   0  0  0  0  0  0  0  0  0  0  0  0
    0.1978   20.7694  -29.5009 H   0  0  0  0  0  0  0  0  0  0  0  0
    0.5066   23.1211  -28.7359 H   0  0  0  0  0  0  0  0  0  0  0  0
   -3.8151   23.2669  -32.8804 H   0  0  0  0  0  0  0  0  0  0  0  0
   -4.6477   18.6903  -33.8404 H   0  0  0  0  0  0  0  0  0  0  0  0
   -8.5432   17.8910  -32.1794 H   0  0  0  0  0  0  0  0  0  0  0  0
   -8.7143   20.2384  -31.3964 H   0  0  0  0  0  0  0  0  0  0  0  0
  1  2  1  0
  2  3  1  0
  3  4  1  0
  4  5  1  0
  5  6  1  0
  6  7  1  0
  7  8  1  0
  8  9  2  0
  9 10  1  0
 10 11  2  0
 11 12  1  0
 12 13  2  0
 13 14  1  0
  4 15  2  0
 15 16  1  0
 16 17  2  0
 16 18  1  0
 18 19  2  0
 19 20  1  0
 20 21  1  0
 20 22  2  0
 22 23  1  0
 23 24  2  0
 24  3  1  0
 13  8  1  0
 24 18  1  0
  1 25  1  0
  1 26  1  0
  1 27  1  0
  2 28  1  0
  2 29  1  0
  5 30  1  0
  5 31  1  0
  6 32  1  0
  7 33  1  0
  7 34  1  0
  9 35  1  0
 10 36  1  0
 11 37  1  0
 12 38  1  0
 15 39  1  0
 19 40  1  0
 22 41  1  0
 23 42  1  0
M  END
>  <UniqueID>  (27) 
27

>  <SMILES>  (27) 
CCn1c(CNCc2ccccc2Cl)cc(=O)c2cc(Cl)ccc21

>  <Energy>  (27) 
53.82327671374988

>  <Genealogy>  (27) 
CCn1c(CNCc2ccccc2Cl)cc(=O)c2cc(Cl)ccc21 (3D coordinates assigned)
CCn1c(CNCc2ccccc2Cl)cc(=O)c2cc(Cl)ccc21 (optimized conformer: 53.82327671374988 kcal/mol)

>  <smiles>  (27) 
CCn1c(CNCc2ccccc2Cl)cc(=O)c2cc(Cl)ccc21

>  <score_type>  (27) 
oracle

>  <origin>  (27) 
adg

>  <m_score__min__energy>  (27) 
-9.3399999999999999

>  <m_primary>  (27) 
energy

$$$$
27:0
     RDKit          3D

 25 25  0  0  0  0  0  0  0  0999 V2000
   -7.6150   17.7940  -32.4150 C   0  0  0  0  0  0  0  0  0  0  0  0
   -8.3840   18.9650  -32.6730 O   0  0  0  0  0  0  0  0  0  0  0  0
   -7.9540   20.2720  -32.3970 C   0  0  0  0  0  0  0  0  0  0  0  0
   -8.8280   21.2730  -31.9360 C   0  0  0  0  0  0  0  0  0  0  0  0
   -8.3520   22.5620  -31.6740 C   0  0  0  0  0  0  0  0  0  0  0  0
   -6.9910   22.8700  -31.8670 C   0  0  0  0  0  0  0  0  0  0  0  0
   -6.4490   24.1440  -31.6250 O   0  0  0  0  0  0  0  0  0  0  0  0
   -6.5340   24.8810  -30.4030 C   0  0  0  0  0  0  0  0  0  0  0  0
   -5.1440   25.2090  -29.8500 C   0  0  0  0  0  0  0  0  0  0  0  0
   -4.1060   24.9550  -30.8450 N   0  0  0  0  0  0  0  0  0  0  0  0
   -6.1280   21.8700  -32.3290 C   0  0  0  0  0  0  0  0  0  0  0  0
   -6.6040   20.5830  -32.5920 C   0  0  0  0  0  0  0  0  0  0  0  0
   -7.5202   17.6496  -31.3287 H   0  0  0  0  0  0  0  0  0  0  0  0
   -8.1162   16.9211  -32.8586 H   0  0  0  0  0  0  0  0  0  0  0  0
   -6.6148   17.9071  -32.8586 H   0  0  0  0  0  0  0  0  0  0  0  0
   -9.8919   21.0409  -31.7806 H   0  0  0  0  0  0  0  0  0  0  0  0
   -9.0436   23.3387  -31.3156 H   0  0  0  0  0  0  0  0  0  0  0  0
   -7.0761   25.8200  -30.5884 H   0  0  0  0  0  0  0  0  0  0  0  0
   -7.0641   24.2637  -29.6628 H   0  0  0  0  0  0  0  0  0  0  0  0
   -5.1135   26.2704  -29.5627 H   0  0  0  0  0  0  0  0  0  0  0  0
   -4.9554   24.5654  -28.9781 H   0  0  0  0  0  0  0  0  0  0  0  0
   -4.2120   25.6670  -31.6030 H   0  0  0  0  0  0  0  0  0  0  0  0
   -4.2990   24.0290  -31.2890 H   0  0  0  0  0  0  0  0  0  0  0  0
   -5.0638   22.0996  -32.4867 H   0  0  0  0  0  0  0  0  0  0  0  0
   -5.9122   19.8086  -32.9550 H   0  0  0  0  0  0  0  0  0  0  0  0
  1  2  1  0
  2  3  1  0
  3  4  2  0
  4  5  1  0
  5  6  2  0
  6  7  1  0
  7  8  1  0
  8  9  1  0
  9 10  1  0
  6 11  1  0
 11 12  2  0
 12  3  1  0
  1 13  1  0
  1 14  1  0
  1 15  1  0
  4 16  1  0
  5 17  1  0
  8 18  1  0
  8 19  1  0
  9 20  1  0
  9 21  1  0
 10 22  1  0
 10 23  1  0
 11 24  1  0
 12 25  1  0
M  END
>  <UniqueID>  (28) 
28

>  <SMILES>  (28) 
COc1ccc(OCCN)cc1

>  <Energy>  (28) 
21.031551285806405

>  <Genealogy>  (28) 
COc1ccc(OCCN)cc1 (3D coordinates assigned)
COc1ccc(OCCN)cc1 (optimized conformer: 21.031551285806405 kcal/mol)

>  <smiles>  (28) 
COc1ccc(OCCN)cc1

>  <score_type>  (28) 
oracle

>  <origin>  (28) 
adg

>  <m_score__min__energy>  (28) 
-5.0099999999999998

>  <m_primary>  (28) 
energy

$$$$
28:0
     RDKit          3D

 54 56  0  0  0  0  0  0  0  0999 V2000
   -3.6670   18.5790  -26.0310 C   0  0  0  0  0  0  0  0  0  0  0  0
   -2.2740   19.1270  -26.3350 C   0  0  0  0  0  0  0  0  0  0  0  0
   -2.1520   19.6050  -27.7850 C   0  0  0  0  0  0  0  0  0  0  0  0
   -1.4760   20.9010  -27.8500 N   0  0  0  0  0  0  0  0  0  0  0  0
   -2.0690   22.0570  -28.4680 C   0  0  0  0  0  0  0  0  0  0  0  0
   -3.0470   21.8650  -29.4500 C   0  0  0  0  0  0  0  0  0  0  0  0
   -3.6430   22.9440  -30.1120 C   0  0  0  0  0  0  0  0  0  0  0  0
   -4.6650   22.7190  -31.1030 N   0  0  0  0  0  0  0  0  0  0  0  0
   -4.9190   21.4220  -31.7380 C   0  0  0  0  0  0  0  0  0  0  0  0
   -6.4130   21.2340  -32.0370 C   0  0  0  0  0  0  0  0  0  0  0  0
   -7.2050   22.3210  -31.4170 N   0  0  0  0  0  0  0  0  0  0  0  0
   -7.4340   23.4180  -32.3700 C   0  0  0  0  0  0  0  0  0  0  0  0
   -8.4940   21.8150  -30.9170 C   0  0  0  0  0  0  0  0  0  0  0  0
   -3.2270   24.2550  -29.8300 C   0  0  0  0  0  0  0  0  0  0  0  0
   -3.8600   25.2970  -30.5390 O   0  0  0  0  0  0  0  0  0  0  0  0
   -5.2330   25.6630  -30.4700 C   0  0  0  0  0  0  0  0  0  0  0  0
   -2.2240   24.4730  -28.8530 C   0  0  0  0  0  0  0  0  0  0  0  0
   -1.8260   25.7130  -28.5880 O   0  0  0  0  0  0  0  0  0  0  0  0
   -0.9150   26.0160  -27.6780 C   0  0  0  0  0  0  0  0  0  0  0  0
   -0.5600   27.3540  -27.4770 C   0  0  0  0  0  0  0  0  0  0  0  0
    0.3930   27.6920  -26.5130 C   0  0  0  0  0  0  0  0  0  0  0  0
    0.9960   26.6930  -25.7430 C   0  0  0  0  0  0  0  0  0  0  0  0
    2.1910   27.1220  -24.5320 Cl  0  0  0  0  0  0  0  0  0  0  0  0
    0.6470   25.3520  -25.9380 C   0  0  0  0  0  0  0  0  0  0  0  0
   -0.3110   25.0030  -26.9110 C   0  0  0  0  0  0  0  0  0  0  0  0
   -0.6920   23.6710  -27.1430 C   0  0  0  0  0  0  0  0  0  0  0  0
   -0.1840   22.7570  -26.4390 O   0  0  0  0  0  0  0  0  0  0  0  0
   -1.6480   23.3780  -28.1510 C   0  0  0  0  0  0  0  0  0  0  0  0
   -3.8093   18.5230  -24.9417 H   0  0  0  0  0  0  0  0  0  0  0  0
   -4.4262   19.2455  -26.4662 H   0  0  0  0  0  0  0  0  0  0  0  0
   -3.7686   17.5739  -26.4662 H   0  0  0  0  0  0  0  0  0  0  0  0
   -2.0706   19.9739  -25.6631 H   0  0  0  0  0  0  0  0  0  0  0  0
   -1.5475   18.3155  -26.1814 H   0  0  0  0  0  0  0  0  0  0  0  0
   -1.5735   18.8673  -28.3604 H   0  0  0  0  0  0  0  0  0  0  0  0
   -3.1622   19.7129  -28.2067 H   0  0  0  0  0  0  0  0  0  0  0  0
   -0.4680   20.9380  -27.5710 H   0  0  0  0  0  0  0  0  0  0  0  0
   -3.3548   20.8409  -29.7078 H   0  0  0  0  0  0  0  0  0  0  0  0
   -5.3410   23.4890  -31.3120 H   0  0  0  0  0  0  0  0  0  0  0  0
   -4.3547   21.3672  -32.6806 H   0  0  0  0  0  0  0  0  0  0  0  0
   -4.5989   20.6274  -31.0479 H   0  0  0  0  0  0  0  0  0  0  0  0
   -6.5691   21.2476  -33.1258 H   0  0  0  0  0  0  0  0  0  0  0  0
   -6.7417   20.2708  -31.6197 H   0  0  0  0  0  0  0  0  0  0  0  0
   -7.6284   24.3491  -31.8175 H   0  0  0  0  0  0  0  0  0  0  0  0
   -6.5432   23.5461  -33.0026 H   0  0  0  0  0  0  0  0  0  0  0  0
   -8.3016   23.1791  -33.0026 H   0  0  0  0  0  0  0  0  0  0  0  0
   -8.4872   21.8177  -29.8170 H   0  0  0  0  0  0  0  0  0  0  0  0
   -9.3071   22.4607  -31.2802 H   0  0  0  0  0  0  0  0  0  0  0  0
   -8.6508   20.7886  -31.2802 H   0  0  0  0  0  0  0  0  0  0  0  0
   -5.5383   25.7444  -29.4163 H   0  0  0  0  0  0  0  0  0  0  0  0
   -5.3798   26.6317  -30.9702 H   0  0  0  0  0  0  0  0  0  0  0  0
   -5.8425   24.8960  -30.9702 H   0  0  0  0  0  0  0  0  0  0  0  0
   -1.0330   28.1430  -28.0802 H   0  0  0  0  0  0  0  0  0  0  0  0
    0.6693   28.7456  -26.3596 H   0  0  0  0  0  0  0  0  0  0  0  0
    1.1218   24.5678  -25.3300 H   0  0  0  0  0  0  0  0  0  0  0  0
  1  2  1  0
  2  3  1  0
  3  4  1  0
  4  5  1  0
  5  6  2  0
  6  7  1  0
  7  8  1  0
  8  9  1  0
  9 10  1  0
 10 11  1  0
 11 12  1  0
 11 13  1  0
  7 14  2  0
 14 15  1  0
 15 16  1  0
 14 17  1  0
 17 18  1  0
 18 19  1  0
 19 20  2  0
 20 21  1  0
 21 22  2  0
 22 23  1  0
 22 24  1  0
 24 25  2  0
 25 26  1  0
 26 27  2  0
 26 28  1  0
 28  5  1  0
 28 17  2  0
 25 19  1  0
  1 29  1  0
  1 30  1  0
  1 31  1  0
  2 32  1  0
  2 33  1  0
  3 34  1  0
  3 35  1  0
  4 36  1  0
  6 37  1  0
  8 38  1  0
  9 39  1  0
  9 40  1  0
 10 41  1  0
 10 42  1  0
 12 43  1  0
 12 44  1  0
 12 45  1  0
 13 46  1  0
 13 47  1  0
 13 48  1  0
 16 49  1  0
 16 50  1  0
 16 51  1  0
 20 52  1  0
 21 53  1  0
 24 54  1  0
M  END
>  <UniqueID>  (29) 
29

>  <SMILES>  (29) 
CCCNc1cc(NCCN(C)C)c(OC)c2oc3ccc(Cl)cc3c(=O)c12

>  <Energy>  (29) 
66.91629813926507

>  <Genealogy>  (29) 
CCCNc1cc(NCCN(C)C)c(OC)c2oc3ccc(Cl)cc3c(=O)c12 (3D coordinates assigned)
CCCNc1cc(NCCN(C)C)c(OC)c2oc3ccc(Cl)cc3c(=O)c12 (optimized conformer: 66.91629813926507 kcal/mol)

>  <smiles>  (29) 
CCCNc1cc(NCCN(C)C)c(OC)c2oc3ccc(Cl)cc3c(=O)c12

>  <score_type>  (29) 
oracle

>  <origin>  (29) 
adg

>  <m_score__min__energy>  (29) 
-8.1099999999999994

>  <m_primary>  (29) 
energy

$$$$
29:0
     RDKit          3D

 47 49  0  0  0  0  0  0  0  0999 V2000
   -1.4790   11.7040  -31.5800 C   0  0  0  0  0  0  0  0  0  0  0  0
   -1.6700   13.2240  -31.5950 C   0  0  0  0  0  0  0  0  0  0  0  0
   -2.8210   13.7090  -32.4060 N   0  0  0  0  0  0  0  0  0  0  0  0
   -4.0850   13.8130  -31.6180 C   0  0  0  0  0  0  0  0  0  0  0  0
   -4.9670   12.5530  -31.6090 C   0  0  0  0  0  0  0  0  0  0  0  0
   -2.5390   14.9150  -33.2320 C   0  0  0  0  0  0  0  0  0  0  0  0
   -3.1550   14.8730  -34.6470 C   0  0  0  0  0  0  0  0  0  0  0  0
   -3.6940   16.1740  -35.0490 N   0  0  0  0  0  0  0  0  0  0  0  0
   -4.7730   16.8570  -34.3840 C   0  0  0  0  0  0  0  0  0  0  0  0
   -5.8940   16.1230  -33.9770 C   0  0  0  0  0  0  0  0  0  0  0  0
   -6.9580   16.7490  -33.3260 C   0  0  0  0  0  0  0  0  0  0  0  0
   -6.9250   18.1300  -33.0720 C   0  0  0  0  0  0  0  0  0  0  0  0
   -5.8080   18.8840  -33.4860 C   0  0  0  0  0  0  0  0  0  0  0  0
   -4.7420   18.2440  -34.1440 C   0  0  0  0  0  0  0  0  0  0  0  0
   -5.7660   20.3440  -33.2280 C   0  0  0  0  0  0  0  0  0  0  0  0
   -4.7680   21.0210  -33.5980 O   0  0  0  0  0  0  0  0  0  0  0  0
   -6.8940   21.0100  -32.5340 C   0  0  0  0  0  0  0  0  0  0  0  0
   -6.8640   22.3940  -32.2840 C   0  0  0  0  0  0  0  0  0  0  0  0
   -7.9290   23.0170  -31.6300 C   0  0  0  0  0  0  0  0  0  0  0  0
   -9.0330   22.2700  -31.2200 C   0  0  0  0  0  0  0  0  0  0  0  0
   -9.0770   20.8950  -31.4610 C   0  0  0  0  0  0  0  0  0  0  0  0
   -8.0120   20.2540  -32.1200 C   0  0  0  0  0  0  0  0  0  0  0  0
   -8.0540   18.7950  -32.3780 C   0  0  0  0  0  0  0  0  0  0  0  0
   -9.0520   18.1190  -32.0070 O   0  0  0  0  0  0  0  0  0  0  0  0
   -1.4346   11.3503  -30.5394 H   0  0  0  0  0  0  0  0  0  0  0  0
   -2.3238   11.2232  -32.0949 H   0  0  0  0  0  0  0  0  0  0  0  0
   -0.5415   11.4472  -32.0949 H   0  0  0  0  0  0  0  0  0  0  0  0
   -1.8191   13.5588  -30.5578 H   0  0  0  0  0  0  0  0  0  0  0  0
   -0.7672   13.6411  -32.0651 H   0  0  0  0  0  0  0  0  0  0  0  0
   -3.0050   12.9330  -33.0850 H   0  0  0  0  0  0  0  0  0  0  0  0
   -3.8168   14.0460  -30.5770 H   0  0  0  0  0  0  0  0  0  0  0  0
   -4.6824   14.5955  -32.1087 H   0  0  0  0  0  0  0  0  0  0  0  0
   -5.1738   12.2576  -30.5698 H   0  0  0  0  0  0  0  0  0  0  0  0
   -5.9148   12.7652  -32.1254 H   0  0  0  0  0  0  0  0  0  0  0  0
   -4.4432   11.7351  -32.1254 H   0  0  0  0  0  0  0  0  0  0  0  0
   -2.9411   15.7941  -32.7070 H   0  0  0  0  0  0  0  0  0  0  0  0
   -1.4478   14.9587  -33.3642 H   0  0  0  0  0  0  0  0  0  0  0  0
   -2.3767   14.5739  -35.3645 H   0  0  0  0  0  0  0  0  0  0  0  0
   -3.9842   14.1503  -34.6355 H   0  0  0  0  0  0  0  0  0  0  0  0
   -3.2860   16.6090  -35.9090 H   0  0  0  0  0  0  0  0  0  0  0  0
   -5.9364   15.0413  -34.1725 H   0  0  0  0  0  0  0  0  0  0  0  0
   -7.8290   16.1564  -33.0095 H   0  0  0  0  0  0  0  0  0  0  0  0
   -3.8744   18.8338  -34.4748 H   0  0  0  0  0  0  0  0  0  0  0  0
   -5.9965   22.9890  -32.6056 H   0  0  0  0  0  0  0  0  0  0  0  0
   -7.8971   24.0996  -31.4378 H   0  0  0  0  0  0  0  0  0  0  0  0
   -9.8704   22.7645  -30.7060 H   0  0  0  0  0  0  0  0  0  0  0  0
   -9.9492   20.3100  -31.1338 H   0  0  0  0  0  0  0  0  0  0  0  0
  1  2  1  0
  2  3  1  0
  3  4  1  0
  4  5  1  0
  3  6  1  0
  6  7  1  0
  7  8  1  0
  8  9  1  0
  9 10  2  0
 10 11  1  0
 11 12  2  0
 12 13  1  0
 13 14  2  0
 13 15  1  0
 15 16  2  0
 15 17  1  0
 17 18  2  0
 18 19  1  0
 19 20  2  0
 20 21  1  0
 21 22  2  0
 22 23  1  0
 23 24  2  0
 14  9  1  0
 22 17  1  0
 23 12  1  0
  1 25  1  0
  1 26  1  0
  1 27  1  0
  2 28  1  0
  2 29  1  0
  3 30  1  0
  4 31  1  0
  4 32  1  0
  5 33  1  0
  5 34  1  0
  5 35  1  0
  6 36  1  0
  6 37  1  0
  7 38  1  0
  7 39  1  0
  8 40  1  0
 10 41  1  0
 11 42  1  0
 14 43  1  0
 18 44  1  0
 19 45  1  0
 20 46  1  0
 21 47  1  0
M  CHG  1   3   1
M  END
>  <UniqueID>  (30) 
30

>  <SMILES>  (30) 
CC[NH+](CC)CCNc1ccc2c(c1)C(=O)c1ccccc1C2=O

>  <Energy>  (30) 
60.563091937273335

>  <Genealogy>  (30) 
CC[NH+](CC)CCNc1ccc2c(c1)C(=O)c1ccccc1C2=O (protonated)
CC[NH+](CC)CCNc1ccc2c(c1)C(=O)c1ccccc1C2=O (3D coordinates assigned)
CC[NH+](CC)CCNc1ccc2c(c1)C(=O)c1ccccc1C2=O (nonaromatic ring conformer: 60.563091937273335 kcal/mol)

>  <smiles>  (30) 
CCN(CC)CCNc1ccc2c(c1)C(=O)c1ccccc1C2=O

>  <score_type>  (30) 
oracle

>  <origin>  (30) 
adg

>  <m_score__min__energy>  (30) 
-7.4299999999999997

>  <m_primary>  (30) 
energy

$$$$
30:0
     RDKit          3D

 48 49  0  0  0  0  0  0  0  0999 V2000
   -3.0010   21.9810  -31.6440 C   0  0  0  0  0  0  0  0  0  0  0  0
   -4.4130   22.2060  -32.1800 C   0  0  0  0  0  0  0  0  0  0  0  0
   -4.9770   23.4610  -31.6280 N   0  0  0  0  0  0  0  0  0  0  0  0
   -6.2860   23.7770  -32.2460 C   0  0  0  0  0  0  0  0  0  0  0  0
   -7.4070   23.0460  -31.5100 C   0  0  0  0  0  0  0  0  0  0  0  0
   -5.0830   23.3940  -30.1520 C   0  0  0  0  0  0  0  0  0  0  0  0
   -4.7950   24.7630  -29.5410 C   0  0  0  0  0  0  0  0  0  0  0  0
   -3.4560   25.1400  -29.8410 O   0  0  0  0  0  0  0  0  0  0  0  0
   -2.3910   24.9230  -28.9580 C   0  0  0  0  0  0  0  0  0  0  0  0
   -1.2940   25.5220  -29.1290 O   0  0  0  0  0  0  0  0  0  0  0  0
   -2.5620   24.0130  -27.7640 C   0  0  0  0  0  0  0  0  0  0  0  0
   -1.8950   24.5580  -26.5120 C   0  0  0  0  0  0  0  0  0  0  0  0
   -2.2270   25.8230  -25.9860 C   0  0  0  0  0  0  0  0  0  0  0  0
   -1.5630   26.3180  -24.8590 C   0  0  0  0  0  0  0  0  0  0  0  0
   -0.5550   25.5650  -24.2530 C   0  0  0  0  0  0  0  0  0  0  0  0
   -0.2050   24.3180  -24.7750 C   0  0  0  0  0  0  0  0  0  0  0  0
   -0.8660   23.8180  -25.9010 C   0  0  0  0  0  0  0  0  0  0  0  0
   -2.0830   22.5980  -28.0360 C   0  0  0  0  0  0  0  0  0  0  0  0
   -0.9540   22.3530  -28.8420 C   0  0  0  0  0  0  0  0  0  0  0  0
   -0.5170   21.0450  -29.0720 C   0  0  0  0  0  0  0  0  0  0  0  0
   -1.1960   19.9680  -28.4970 C   0  0  0  0  0  0  0  0  0  0  0  0
   -2.3130   20.1970  -27.6900 C   0  0  0  0  0  0  0  0  0  0  0  0
   -2.7550   21.5040  -27.4580 C   0  0  0  0  0  0  0  0  0  0  0  0
   -3.0215   21.9843  -30.5442 H   0  0  0  0  0  0  0  0  0  0  0  0
   -2.6235   21.0114  -32.0008 H   0  0  0  0  0  0  0  0  0  0  0  0
   -2.3409   22.7853  -32.0008 H   0  0  0  0  0  0  0  0  0  0  0  0
   -4.3782   22.2752  -33.2773 H   0  0  0  0  0  0  0  0  0  0  0  0
   -5.0504   21.3624  -31.8765 H   0  0  0  0  0  0  0  0  0  0  0  0
   -6.4617   24.8615  -32.1905 H   0  0  0  0  0  0  0  0  0  0  0  0
   -6.2747   23.4517  -33.2967 H   0  0  0  0  0  0  0  0  0  0  0  0
   -7.2575   23.1435  -30.4246 H   0  0  0  0  0  0  0  0  0  0  0  0
   -8.3760   23.4863  -31.7877 H   0  0  0  0  0  0  0  0  0  0  0  0
   -7.3948   21.9817  -31.7877 H   0  0  0  0  0  0  0  0  0  0  0  0
   -6.0996   23.0787  -29.8745 H   0  0  0  0  0  0  0  0  0  0  0  0
   -4.3484   22.6690  -29.7715 H   0  0  0  0  0  0  0  0  0  0  0  0
   -5.4888   25.5061  -29.9611 H   0  0  0  0  0  0  0  0  0  0  0  0
   -4.9286   24.7150  -28.4502 H   0  0  0  0  0  0  0  0  0  0  0  0
   -3.6463   23.9767  -27.5822 H   0  0  0  0  0  0  0  0  0  0  0  0
   -3.0134   26.4247  -26.4651 H   0  0  0  0  0  0  0  0  0  0  0  0
   -1.8351   27.3019  -24.4493 H   0  0  0  0  0  0  0  0  0  0  0  0
   -0.0366   25.9543  -23.3643 H   0  0  0  0  0  0  0  0  0  0  0  0
    0.5923   23.7280  -24.2994 H   0  0  0  0  0  0  0  0  0  0  0  0
   -0.5795   22.8388  -26.3123 H   0  0  0  0  0  0  0  0  0  0  0  0
   -0.4122   23.1970  -29.2938 H   0  0  0  0  0  0  0  0  0  0  0  0
    0.3629   20.8636  -29.7067 H   0  0  0  0  0  0  0  0  0  0  0  0
   -0.8511   18.9396  -28.6797 H   0  0  0  0  0  0  0  0  0  0  0  0
   -2.8459   19.3484  -27.2362 H   0  0  0  0  0  0  0  0  0  0  0  0
   -3.6337   21.6781  -26.8196 H   0  0  0  0  0  0  0  0  0  0  0  0
  1  2  1  0
  2  3  1  0
  3  4  1  0
  4  5  1  0
  3  6  1  0
  6  7  1  0
  7  8  1  0
  8  9  1  0
  9 10  2  0
  9 11  1  0
 11 12  1  0
 12 13  2  0
 13 14  1  0
 14 15  2  0
 15 16  1  0
 16 17  2  0
 11 18  1  0
 18 19  2  0
 19 20  1  0
 20 21  2  0
 21 22  1  0
 22 23  2  0
 17 12  1  0
 23 18  1  0
  1 24  1  0
  1 25  1  0
  1 26  1  0
  2 27  1  0
  2 28  1  0
  4 29  1  0
  4 30  1  0
  5 31  1  0
  5 32  1  0
  5 33  1  0
  6 34  1  0
  6 35  1  0
  7 36  1  0
  7 37  1  0
 11 38  1  0
 13 39  1  0
 14 40  1  0
 15 41  1  0
 16 42  1  0
 17 43  1  0
 19 44  1  0
 20 45  1  0
 21 46  1  0
 22 47  1  0
 23 48  1  0
M  END
>  <UniqueID>  (31) 
31

>  <SMILES>  (31) 
CCN(CC)CCOC(=O)C(c1ccccc1)c1ccccc1

>  <Energy>  (31) 
44.82634840303548

>  <Genealogy>  (31) 
CCN(CC)CCOC(=O)C(c1ccccc1)c1ccccc1 (3D coordinates assigned)
CCN(CC)CCOC(=O)C(c1ccccc1)c1ccccc1 (optimized conformer: 44.82634840303548 kcal/mol)

>  <smiles>  (31) 
CCN(CC)CCOC(=O)C(c1ccccc1)c1ccccc1

>  <score_type>  (31) 
oracle

>  <origin>  (31) 
adg

>  <m_score__min__energy>  (31) 
-7.7800000000000002

>  <m_primary>  (31) 
energy

$$$$
31:0
     RDKit          3D

 39 41  0  0  1  0  0  0  0  0999 V2000
   -6.4080   25.4090  -29.4160 C   0  0  0  0  0  0  0  0  0  0  0  0
   -5.7000   25.6910  -30.7420 C   0  0  0  0  0  0  0  0  0  0  0  0
   -4.5370   24.8260  -30.7800 N   0  0  0  0  0  0  0  0  0  0  0  0
   -4.6020   23.6150  -31.2180 C   0  0  0  0  0  0  0  0  0  0  0  0
   -5.8240   23.0830  -31.4330 N   0  0  0  0  0  0  0  0  0  0  0  0
   -5.9060   21.8230  -31.8880 C   0  0  0  0  0  0  0  0  0  0  0  0
   -4.7390   21.1290  -32.1170 C   0  0  0  0  0  0  0  0  0  0  0  0
   -3.4830   21.6650  -31.9000 C   0  0  0  0  0  0  0  0  0  0  0  0
   -3.4590   22.9440  -31.4390 N   0  0  0  0  0  0  0  0  0  0  0  0
   -4.7820   19.8660  -32.5720 N   0  0  0  0  0  0  0  0  0  0  0  0
   -5.9580   19.2220  -32.8270 C   0  0  0  0  0  0  0  0  0  0  0  0
   -5.9610   17.8710  -33.3150 C   0  0  0  0  0  0  0  0  0  0  0  0
   -6.8940   16.9340  -33.5240 C   0  0  0  0  0  0  0  0  0  0  0  0
   -6.5720   15.7290  -34.0030 C   0  0  0  0  0  0  0  0  0  0  0  0
   -5.2370   15.4850  -34.2750 C   0  0  0  0  0  0  0  0  0  0  0  0
   -4.4100   17.0720  -33.8160 S   0  0  0  0  0  0  0  0  0  0  0  0
   -7.0960   19.9600  -32.5830 C   0  0  0  0  0  0  0  0  0  0  0  0
   -8.2020   19.4120  -32.8010 O   0  0  0  0  0  0  0  0  0  0  0  0
   -7.0850   21.2240  -32.1270 N   0  0  0  0  0  0  0  0  0  0  0  0
   -8.3190   21.8970  -31.9070 C   0  0  0  0  0  0  0  0  0  0  0  0
   -8.3840   23.3170  -32.3420 C   0  0  0  0  0  0  0  0  0  0  0  0
   -8.8200   21.8150  -30.4740 C   0  0  0  0  0  0  0  0  0  0  0  0
   -5.7424   25.6741  -28.5813 H   0  0  0  0  0  0  0  0  0  0  0  0
   -7.3278   26.0094  -29.3565 H   0  0  0  0  0  0  0  0  0  0  0  0
   -6.6631   24.3406  -29.3565 H   0  0  0  0  0  0  0  0  0  0  0  0
   -6.3691   25.4654  -31.5855 H   0  0  0  0  0  0  0  0  0  0  0  0
   -5.4112   26.7494  -30.8214 H   0  0  0  0  0  0  0  0  0  0  0  0
   -2.5622   21.0934  -32.0882 H   0  0  0  0  0  0  0  0  0  0  0  0
   -2.5330   23.3980  -31.2580 H   0  0  0  0  0  0  0  0  0  0  0  0
   -7.9462   17.1606  -33.2970 H   0  0  0  0  0  0  0  0  0  0  0  0
   -7.3392   14.9596  -34.1748 H   0  0  0  0  0  0  0  0  0  0  0  0
   -4.7784   14.5664  -34.6698 H   0  0  0  0  0  0  0  0  0  0  0  0
   -8.9816   21.3227  -32.5712 H   0  0  0  0  0  0  0  0  0  0  0  0
   -8.4139   23.9704  -31.4576 H   0  0  0  0  0  0  0  0  0  0  0  0
   -7.4959   23.5567  -32.9451 H   0  0  0  0  0  0  0  0  0  0  0  0
   -9.2903   23.4746  -32.9451 H   0  0  0  0  0  0  0  0  0  0  0  0
   -7.9761   21.9531  -29.7821 H   0  0  0  0  0  0  0  0  0  0  0  0
   -9.5683   22.6026  -30.3015 H   0  0  0  0  0  0  0  0  0  0  0  0
   -9.2781   20.8299  -30.3015 H   0  0  0  0  0  0  0  0  0  0  0  0
  1  2  1  0
  2  3  1  0
  3  4  2  0
  4  5  1  0
  5  6  2  0
  6  7  1  0
  7  8  2  0
  8  9  1  0
  7 10  1  0
 10 11  2  0
 11 12  1  0
 12 13  2  0
 13 14  1  0
 14 15  2  0
 15 16  1  0
 11 17  1  0
 17 18  2  0
 17 19  1  0
 19 20  1  0
 20 21  1  0
 20 22  1  0
  9  4  1  0
 16 12  1  0
 19  6  1  0
  1 23  1  0
  1 24  1  0
  1 25  1  0
  2 26  1  0
  2 27  1  0
  8 28  1  0
  9 29  1  0
 13 30  1  0
 14 31  1  0
 15 32  1  0
 20 33  1  0
 21 34  1  0
 21 35  1  0
 21 36  1  0
 22 37  1  0
 22 38  1  0
 22 39  1  0
M  END
>  <smiles>  (32) 
CCN=c1nc2c(c[nH]1)nc(-c1cccs1)c(=O)n2C(C)C

>  <score_type>  (32) 
oracle

>  <origin>  (32) 
adg

>  <m_score__min__energy>  (32) 
-7.3099999999999996

>  <m_primary>  (32) 
energy

$$$$
32:0
     RDKit          3D

 31 32  0  0  0  0  0  0  0  0999 V2000
   -3.8720   23.4010  -27.7600 C   0  0  0  0  0  0  0  0  0  0  0  0
   -3.9520   24.2460  -29.0280 C   0  0  0  0  0  0  0  0  0  0  0  0
   -5.3650   24.8130  -29.2270 C   0  0  0  0  0  0  0  0  0  0  0  0
   -5.6070   25.2470  -30.6740 C   0  0  0  0  0  0  0  0  0  0  0  0
   -5.0900   24.2340  -31.5940 N   0  0  0  0  0  0  0  0  0  0  0  0
   -5.4890   22.9970  -31.7140 C   0  0  0  0  0  0  0  0  0  0  0  0
   -6.8560   22.5370  -31.3420 C   0  0  0  0  0  0  0  0  0  0  0  0
   -7.6160   23.2480  -30.6310 O   0  0  0  0  0  0  0  0  0  0  0  0
   -7.3310   21.2220  -31.8050 C   0  0  0  0  0  0  0  0  0  0  0  0
   -8.5910   20.8100  -31.4900 N   0  0  0  0  0  0  0  0  0  0  0  0
   -9.0880   19.6210  -31.9200 C   0  0  0  0  0  0  0  0  0  0  0  0
   -8.3080   18.7850  -32.7190 C   0  0  0  0  0  0  0  0  0  0  0  0
   -7.0140   19.1790  -33.0610 C   0  0  0  0  0  0  0  0  0  0  0  0
   -6.5070   20.4050  -32.6000 C   0  0  0  0  0  0  0  0  0  0  0  0
   -5.1310   20.8380  -32.9330 C   0  0  0  0  0  0  0  0  0  0  0  0
   -4.4600   20.2080  -33.7940 O   0  0  0  0  0  0  0  0  0  0  0  0
   -4.4860   21.9850  -32.2010 C   0  0  2  0  0  0  0  0  0  0  0  0
   -3.5760   21.3480  -30.8080 Cl  0  0  0  0  0  0  0  0  0  0  0  0
   -3.9340   24.0559  -26.8784 H   0  0  0  0  0  0  0  0  0  0  0  0
   -4.7063   22.6843  -27.7437 H   0  0  0  0  0  0  0  0  0  0  0  0
   -2.9180   22.8536  -27.7437 H   0  0  0  0  0  0  0  0  0  0  0  0
   -3.2383   25.0794  -28.9498 H   0  0  0  0  0  0  0  0  0  0  0  0
   -3.7078   23.6069  -29.8894 H   0  0  0  0  0  0  0  0  0  0  0  0
   -6.0996   24.0389  -28.9603 H   0  0  0  0  0  0  0  0  0  0  0  0
   -5.4707   25.6987  -28.5832 H   0  0  0  0  0  0  0  0  0  0  0  0
   -6.6870   25.3730  -30.8406 H   0  0  0  0  0  0  0  0  0  0  0  0
   -5.0874   26.1992  -30.8568 H   0  0  0  0  0  0  0  0  0  0  0  0
  -10.1068   19.3172  -31.6377 H   0  0  0  0  0  0  0  0  0  0  0  0
   -8.7090   17.8249  -33.0758 H   0  0  0  0  0  0  0  0  0  0  0  0
   -6.3904   18.5289  -33.6922 H   0  0  0  0  0  0  0  0  0  0  0  0
   -3.8181   22.4967  -32.9095 H   0  0  0  0  0  0  0  0  0  0  0  0
  1  2  1  0
  2  3  1  0
  3  4  1  0
  4  5  1  0
  5  6  2  3
  6  7  1  0
  7  8  2  0
  7  9  1  0
  9 10  2  0
 10 11  1  0
 11 12  2  0
 12 13  1  0
 13 14  2  0
 14 15  1  0
 15 16  2  0
 15 17  1  0
 17 18  1  0
 17  6  1  0
 14  9  1  0
  1 19  1  0
  1 20  1  0
  1 21  1  0
  2 22  1  0
  2 23  1  0
  3 24  1  0
  3 25  1  0
  4 26  1  0
  4 27  1  0
 11 28  1  0
 12 29  1  0
 13 30  1  0
 17 31  1  6
M  END
>  <UniqueID>  (33) 
32

>  <SMILES>  (33) 
CCCCN=C1C(=O)c2ncccc2C(=O)[C@@H]1Cl

>  <Energy>  (33) 
28.563347326366333

>  <Genealogy>  (33) 
CCCCN=C1C(=O)c2ncccc2C(=O)[C@@H]1Cl (chirality)
CCCCN=C1C(=O)c2ncccc2C(=O)[C@@H]1Cl (3D coordinates assigned)
CCCCN=C1C(=O)c2ncccc2C(=O)[C@@H]1Cl (nonaromatic ring conformer: 28.563347326366333 kcal/mol)

>  <smiles>  (33) 
CCCCN=C1C(=O)c2ncccc2C(=O)C1Cl

>  <score_type>  (33) 
oracle

>  <origin>  (33) 
adg

>  <m_score__min__energy>  (33) 
-6.9100000000000001

>  <m_primary>  (33) 
energy

$$$$
33:0
     RDKit          3D

 33 33  0  0  0  0  0  0  0  0999 V2000
   -8.7040   21.7130  -31.8430 C   0  0  0  0  0  0  0  0  0  0  0  0
   -7.2400   21.6000  -31.3950 C   0  0  0  0  0  0  0  0  0  0  0  0
   -6.3140   21.4230  -32.5430 N   0  0  0  0  0  0  0  0  0  0  0  0
   -6.8610   20.3920  -33.4620 C   0  0  0  0  0  0  0  0  0  0  0  0
   -5.8280   19.3160  -33.8170 C   0  0  0  0  0  0  0  0  0  0  0  0
   -4.9390   21.0630  -32.0770 C   0  0  0  0  0  0  0  0  0  0  0  0
   -4.0430   22.3030  -31.9360 C   0  0  0  0  0  0  0  0  0  0  0  0
   -4.8330   23.4900  -31.8830 O   0  0  0  0  0  0  0  0  0  0  0  0
   -4.7530   24.4230  -30.8430 C   0  0  0  0  0  0  0  0  0  0  0  0
   -3.8440   25.2960  -30.8250 O   0  0  0  0  0  0  0  0  0  0  0  0
   -5.7350   24.3580  -29.7180 C   0  0  0  0  0  0  0  0  0  0  0  0
   -7.1790   24.6110  -30.1240 C   0  0  0  0  0  0  0  0  0  0  0  0
   -6.4010   25.6830  -29.3800 C   0  0  0  0  0  0  0  0  0  0  0  0
   -9.3554   21.7633  -30.9581 H   0  0  0  0  0  0  0  0  0  0  0  0
   -8.8337   22.6238  -32.4460 H   0  0  0  0  0  0  0  0  0  0  0  0
   -8.9719   20.8329  -32.4460 H   0  0  0  0  0  0  0  0  0  0  0  0
   -6.9631   22.5172  -30.8546 H   0  0  0  0  0  0  0  0  0  0  0  0
   -7.1517   20.7133  -30.7500 H   0  0  0  0  0  0  0  0  0  0  0  0
   -6.3020   22.3290  -33.0710 H   0  0  0  0  0  0  0  0  0  0  0  0
   -7.7221   19.9085  -32.9775 H   0  0  0  0  0  0  0  0  0  0  0  0
   -7.1531   20.8963  -34.3949 H   0  0  0  0  0  0  0  0  0  0  0  0
   -5.4147   18.8855  -32.8930 H   0  0  0  0  0  0  0  0  0  0  0  0
   -6.3120   18.5233  -34.4064 H   0  0  0  0  0  0  0  0  0  0  0  0
   -5.0162   19.7673  -34.4064 H   0  0  0  0  0  0  0  0  0  0  0  0
   -5.0133   20.5641  -31.0995 H   0  0  0  0  0  0  0  0  0  0  0  0
   -4.4867   20.3971  -32.8266 H   0  0  0  0  0  0  0  0  0  0  0  0
   -3.4533   22.2196  -31.0112 H   0  0  0  0  0  0  0  0  0  0  0  0
   -3.3759   22.3596  -32.8088 H   0  0  0  0  0  0  0  0  0  0  0  0
   -5.2096   23.5803  -29.1443 H   0  0  0  0  0  0  0  0  0  0  0  0
   -7.4352   24.7535  -31.1842 H   0  0  0  0  0  0  0  0  0  0  0  0
   -8.1347   24.0907  -29.9628 H   0  0  0  0  0  0  0  0  0  0  0  0
   -6.0941   26.6015  -29.9016 H   0  0  0  0  0  0  0  0  0  0  0  0
   -6.5603   26.2601  -28.4572 H   0  0  0  0  0  0  0  0  0  0  0  0
  1  2  1  0
  2  3  1  0
  3  4  1  0
  4  5  1  0
  3  6  1  0
  6  7  1  0
  7  8  1  0
  8  9  1  0
  9 10  2  0
  9 11  1  0
 11 12  1  0
 12 13  1  0
 13 11  1  0
  1 14  1  0
  1 15  1  0
  1 16  1  0
  2 17  1  0
  2 18  1  0
  3 19  1  0
  4 20  1  0
  4 21  1  0
  5 22  1  0
  5 23  1  0
  5 24  1  0
  6 25  1  0
  6 26  1  0
  7 27  1  0
  7 28  1  0
 11 29  1  0
 12 30  1  0
 12 31  1  0
 13 32  1  0
 13 33  1  0
M  CHG  1   3   1
M  END
>  <UniqueID>  (34) 
33

>  <SMILES>  (34) 
CC[NH+](CC)CCOC(=O)C1CC1

>  <Energy>  (34) 
291.92934215919513

>  <Genealogy>  (34) 
CC[NH+](CC)CCOC(=O)C1CC1 (protonated)
CC[NH+](CC)CCOC(=O)C1CC1 (3D coordinates assigned)
CC[NH+](CC)CCOC(=O)C1CC1 (nonaromatic ring conformer: 291.92934215919513 kcal/mol)

>  <smiles>  (34) 
CCN(CC)CCOC(=O)C1CC1

>  <score_type>  (34) 
oracle

>  <origin>  (34) 
adg

>  <m_score__min__energy>  (34) 
-4.2800000000000002

>  <m_primary>  (34) 
energy

$$$$
34:0
     RDKit          3D

 43 45  0  0  0  0  0  0  0  0999 V2000
   -5.8106   26.4450  -29.3164 H   0  0  0  0  0  0  0  0  0  0  0  0
   -5.7550   25.4820  -29.8450 C   0  0  0  0  0  0  0  0  0  0  0  0
   -6.9270   24.8100  -30.2010 C   0  0  0  0  0  0  0  0  0  0  0  0
   -7.9060   25.2466  -29.9543 H   0  0  0  0  0  0  0  0  0  0  0  0
   -6.8590   23.5840  -30.8700 C   0  0  0  0  0  0  0  0  0  0  0  0
   -7.7859   23.0614  -31.1489 H   0  0  0  0  0  0  0  0  0  0  0  0
   -5.6110   23.0140  -31.1890 C   0  0  0  0  0  0  0  0  0  0  0  0
   -5.5270   21.7150  -31.9040 C   0  0  0  0  0  0  0  0  0  0  0  0
   -6.6440   20.4950  -31.5930 S   0  0  0  0  0  0  0  0  0  0  0  0
   -6.3900   19.1370  -32.5540 C   0  0  0  0  0  0  0  0  0  0  0  0
   -7.3010   18.0750  -32.4920 C   0  0  0  0  0  0  0  0  0  0  0  0
   -8.0879   18.0690  -31.7234 H   0  0  0  0  0  0  0  0  0  0  0  0
   -7.2100   17.0280  -33.4030 C   0  0  0  0  0  0  0  0  0  0  0  0
   -7.8958   16.1711  -33.3299 H   0  0  0  0  0  0  0  0  0  0  0  0
   -6.2480   17.0690  -34.4070 C   0  0  0  0  0  0  0  0  0  0  0  0
   -6.2087   16.2693  -35.1612 H   0  0  0  0  0  0  0  0  0  0  0  0
   -5.3300   18.1240  -34.4610 C   0  0  0  0  0  0  0  0  0  0  0  0
   -4.6087   18.1664  -35.2904 H   0  0  0  0  0  0  0  0  0  0  0  0
   -5.3080   19.1370  -33.4740 C   0  0  0  0  0  0  0  0  0  0  0  0
   -4.3030   20.1760  -33.4580 C   0  0  0  0  0  0  0  0  0  0  0  0
   -3.0890   20.0280  -33.9310 N   0  0  0  0  0  0  0  0  0  0  0  0
   -2.1600   18.8960  -34.0250 C   0  0  0  0  0  0  0  0  0  0  0  0
   -2.5986   18.1354  -34.6876 H   0  0  0  0  0  0  0  0  0  0  0  0
   -2.0047   18.5094  -33.0070 H   0  0  0  0  0  0  0  0  0  0  0  0
   -0.7780   19.3010  -34.5850 C   0  0  0  0  0  0  0  0  0  0  0  0
   -0.6319   18.7935  -35.5500 H   0  0  0  0  0  0  0  0  0  0  0  0
   -0.0282   19.0038  -33.8370 H   0  0  0  0  0  0  0  0  0  0  0  0
   -0.6250   20.7620  -34.7960 N   0  0  0  0  0  0  0  0  0  0  0  0
   -1.5620   21.1980  -34.9600 H   0  0  0  0  0  0  0  0  0  0  0  0
   -0.0610   21.3820  -33.5840 C   0  0  0  0  0  0  0  0  0  0  0  0
   -0.4947   20.9053  -32.6925 H   0  0  0  0  0  0  0  0  0  0  0  0
    1.0307   21.2474  -33.5774 H   0  0  0  0  0  0  0  0  0  0  0  0
   -0.2980   22.4561  -33.5774 H   0  0  0  0  0  0  0  0  0  0  0  0
    0.2420   21.0620  -35.9520 C   0  0  0  0  0  0  0  0  0  0  0  0
    1.2251   21.4022  -35.5945 H   0  0  0  0  0  0  0  0  0  0  0  0
    0.3673   20.1549  -36.5616 H   0  0  0  0  0  0  0  0  0  0  0  0
   -0.2201   21.8525  -36.5616 H   0  0  0  0  0  0  0  0  0  0  0  0
   -4.5010   21.4230  -32.8080 C   0  0  0  0  0  0  0  0  0  0  0  0
   -3.7863   22.2278  -33.0350 H   0  0  0  0  0  0  0  0  0  0  0  0
   -4.4380   23.7040  -30.8320 C   0  0  0  0  0  0  0  0  0  0  0  0
   -3.4556   23.2769  -31.0821 H   0  0  0  0  0  0  0  0  0  0  0  0
   -4.5120   24.9280  -30.1620 C   0  0  0  0  0  0  0  0  0  0  0  0
   -3.5888   25.4571  -29.8832 H   0  0  0  0  0  0  0  0  0  0  0  0
  1  2  1  0
  2  3  2  0
  3  4  1  0
  3  5  1  0
  5  6  1  0
  5  7  2  0
  7  8  1  0
  8  9  1  0
  9 10  1  0
 10 11  2  0
 11 12  1  0
 11 13  1  0
 13 14  1  0
 13 15  2  0
 15 16  1  0
 15 17  1  0
 17 18  1  0
 17 19  2  0
 19 20  1  0
 20 21  2  0
 21 22  1  0
 22 23  1  0
 22 24  1  0
 22 25  1  0
 25 26  1  0
 25 27  1  0
 25 28  1  0
 28 29  1  0
 28 30  1  0
 30 31  1  0
 30 32  1  0
 30 33  1  0
 28 34  1  0
 34 35  1  0
 34 36  1  0
 34 37  1  0
 20 38  1  0
 38 39  1  0
  7 40  1  0
 40 41  1  0
 40 42  2  0
 42 43  1  0
 42  2  1  0
 38  8  2  0
 19 10  1  0
M  CHG  1  28   1
M  END
>  <UniqueID>  (35) 
34

>  <SMILES>  (35) 
C[NH+](C)CC/N=c1/cc(-c2ccccc2)sc2ccccc12

>  <Energy>  (35) 
77.05698920689936

>  <Genealogy>  (35) 
C[NH+](C)CCN=c1cc(-c2ccccc2)sc2ccccc12 (protonated)
C[NH+](C)CC/N=c1/cc(-c2ccccc2)sc2ccccc12 (cis-trans isomerization)
C[NH+](C)CC/N=c1/cc(-c2ccccc2)sc2ccccc12 (3D coordinates assigned)
C[NH+](C)CC/N=c1/cc(-c2ccccc2)sc2ccccc12 (optimized conformer: 77.05698920689936 kcal/mol)

>  <smiles>  (35) 
CN(C)CCN=c1cc(-c2ccccc2)sc2ccccc12

>  <score_type>  (35) 
oracle

>  <origin>  (35) 
adg

>  <m_score__min__energy>  (35) 
-6.8899999999999997

>  <m_primary>  (35) 
energy

$$$$
35:0
     RDKit          3D

 49 52  0  0  0  0  0  0  0  0999 V2000
   -0.7880   20.4160  -33.5640 C   0  0  0  0  0  0  0  0  0  0  0  0
   -2.2370   20.0070  -33.4720 C   0  0  0  0  0  0  0  0  0  0  0  0
   -2.6160   18.8440  -34.1500 C   0  0  0  0  0  0  0  0  0  0  0  0
   -3.9310   18.4090  -34.0950 C   0  0  0  0  0  0  0  0  0  0  0  0
   -4.9040   19.2110  -33.4890 C   0  0  0  0  0  0  0  0  0  0  0  0
   -6.2480   18.8140  -33.4420 C   0  0  0  0  0  0  0  0  0  0  0  0
   -6.5970   17.6920  -33.9050 O   0  0  0  0  0  0  0  0  0  0  0  0
   -7.1980   19.6610  -32.8530 C   0  0  0  0  0  0  0  0  0  0  0  0
   -8.5380   19.2510  -32.7000 C   0  0  0  0  0  0  0  0  0  0  0  0
   -9.4790   20.1080  -32.1300 C   0  0  0  0  0  0  0  0  0  0  0  0
   -9.1030   21.3820  -31.7170 C   0  0  0  0  0  0  0  0  0  0  0  0
   -7.7830   21.8110  -31.8730 C   0  0  0  0  0  0  0  0  0  0  0  0
   -6.8060   20.9600  -32.4410 C   0  0  0  0  0  0  0  0  0  0  0  0
   -5.4980   21.3710  -32.6040 N   0  0  0  0  0  0  0  0  0  0  0  0
   -5.2160   22.8190  -32.7020 C   0  0  0  0  0  0  0  0  0  0  0  0
   -4.5180   20.4480  -32.9200 C   0  0  0  0  0  0  0  0  0  0  0  0
   -3.1690   20.7000  -32.7220 N   0  0  0  0  0  0  0  0  0  0  0  0
   -2.7260   21.5120  -31.5580 C   0  0  0  0  0  0  0  0  0  0  0  0
   -3.2780   20.9890  -30.2150 C   0  0  0  0  0  0  0  0  0  0  0  0
   -3.4740   22.0820  -29.1450 C   0  0  0  0  0  0  0  0  0  0  0  0
   -4.3940   23.2020  -29.5780 C   0  0  0  0  0  0  0  0  0  0  0  0
   -5.7860   23.0630  -29.4390 C   0  0  0  0  0  0  0  0  0  0  0  0
   -6.6430   24.0960  -29.8310 C   0  0  0  0  0  0  0  0  0  0  0  0
   -6.1210   25.2800  -30.3530 C   0  0  0  0  0  0  0  0  0  0  0  0
   -4.7370   25.4420  -30.4650 C   0  0  0  0  0  0  0  0  0  0  0  0
   -3.8760   24.4160  -30.0670 C   0  0  0  0  0  0  0  0  0  0  0  0
   -0.3749   20.5326  -32.5512 H   0  0  0  0  0  0  0  0  0  0  0  0
   -0.2222   19.6425  -34.1039 H   0  0  0  0  0  0  0  0  0  0  0  0
   -0.7102   21.3712  -34.1039 H   0  0  0  0  0  0  0  0  0  0  0  0
   -1.8715   18.2751  -34.7262 H   0  0  0  0  0  0  0  0  0  0  0  0
   -4.2087   17.4360  -34.5266 H   0  0  0  0  0  0  0  0  0  0  0  0
   -8.8436   18.2480  -33.0326 H   0  0  0  0  0  0  0  0  0  0  0  0
  -10.5204   19.7759  -32.0068 H   0  0  0  0  0  0  0  0  0  0  0  0
   -9.8479   22.0540  -31.2659 H   0  0  0  0  0  0  0  0  0  0  0  0
   -7.4994   22.8236  -31.5501 H   0  0  0  0  0  0  0  0  0  0  0  0
   -5.1329   23.2456  -31.6915 H   0  0  0  0  0  0  0  0  0  0  0  0
   -4.2711   22.9727  -33.2437 H   0  0  0  0  0  0  0  0  0  0  0  0
   -6.0342   23.3161  -33.2437 H   0  0  0  0  0  0  0  0  0  0  0  0
   -1.6269   21.4948  -31.5161 H   0  0  0  0  0  0  0  0  0  0  0  0
   -3.1147   22.5312  -31.6998 H   0  0  0  0  0  0  0  0  0  0  0  0
   -4.2512   20.5124  -30.4039 H   0  0  0  0  0  0  0  0  0  0  0  0
   -2.5304   20.2869  -29.8172 H   0  0  0  0  0  0  0  0  0  0  0  0
   -3.8977   21.6137  -28.2444 H   0  0  0  0  0  0  0  0  0  0  0  0
   -2.4868   22.5311  -28.9611 H   0  0  0  0  0  0  0  0  0  0  0  0
   -6.2036   22.1359  -29.0193 H   0  0  0  0  0  0  0  0  0  0  0  0
   -7.7314   23.9749  -29.7276 H   0  0  0  0  0  0  0  0  0  0  0  0
   -6.7976   26.0849  -30.6760 H   0  0  0  0  0  0  0  0  0  0  0  0
   -4.3249   26.3792  -30.8673 H   0  0  0  0  0  0  0  0  0  0  0  0
   -2.7874   24.5578  -30.1362 H   0  0  0  0  0  0  0  0  0  0  0  0
  1  2  1  0
  2  3  2  0
  3  4  1  0
  4  5  2  0
  5  6  1  0
  6  7  2  0
  6  8  1  0
  8  9  2  0
  9 10  1  0
 10 11  2  0
 11 12  1  0
 12 13  2  0
 13 14  1  0
 14 15  1  0
 14 16  1  0
 16 17  2  0
 17 18  1  0
 18 19  1  0
 19 20  1  0
 20 21  1  0
 21 22  2  0
 22 23  1  0
 23 24  2  0
 24 25  1  0
 25 26  2  0
 17  2  1  0
 26 21  1  0
 16  5  1  0
 13  8  1  0
  1 27  1  0
  1 28  1  0
  1 29  1  0
  3 30  1  0
  4 31  1  0
  9 32  1  0
 10 33  1  0
 11 34  1  0
 12 35  1  0
 15 36  1  0
 15 37  1  0
 15 38  1  0
 18 39  1  0
 18 40  1  0
 19 41  1  0
 19 42  1  0
 20 43  1  0
 20 44  1  0
 22 45  1  0
 23 46  1  0
 24 47  1  0
 25 48  1  0
 26 49  1  0
M  CHG  1  17   1
M  END
>  <UniqueID>  (36) 
35

>  <SMILES>  (36) 
Cc1ccc2c(=O)c3ccccc3n(C)c2[n+]1CCCc1ccccc1

>  <Energy>  (36) 
86.15149964993003

>  <Genealogy>  (36) 
Cc1ccc2c(=O)c3ccccc3n(C)c2[n+]1CCCc1ccccc1 (3D coordinates assigned)
Cc1ccc2c(=O)c3ccccc3n(C)c2[n+]1CCCc1ccccc1 (optimized conformer: 86.15149964993003 kcal/mol)

>  <smiles>  (36) 
Cc1ccc2c(=O)c3ccccc3n(C)c2[n+]1CCCc1ccccc1

>  <score_type>  (36) 
oracle

>  <origin>  (36) 
adg

>  <m_score__min__energy>  (36) 
-8.5500000000000007

>  <m_primary>  (36) 
energy

$$$$
36:0
     RDKit          3D

 37 39  0  0  0  0  0  0  0  0999 V2000
   -3.6990   24.9240  -30.6140 O   0  0  0  0  0  0  0  0  0  0  0  0
   -4.2200   24.6290  -29.5050 C   0  0  0  0  0  0  0  0  0  0  0  0
   -5.6540   24.5630  -29.3930 N   0  0  0  0  0  0  0  0  0  0  0  0
   -6.5310   24.7230  -30.5510 C   0  0  0  0  0  0  0  0  0  0  0  0
   -7.0180   23.3820  -31.0170 C   0  0  0  0  0  0  0  0  0  0  0  0
   -6.4800   22.7760  -32.1600 C   0  0  0  0  0  0  0  0  0  0  0  0
   -6.9350   21.5140  -32.5450 C   0  0  0  0  0  0  0  0  0  0  0  0
   -7.9200   20.8660  -31.7910 C   0  0  0  0  0  0  0  0  0  0  0  0
   -8.4830   19.2600  -32.2410 S   0  0  0  0  0  0  0  0  0  0  0  0
   -8.8790   18.5080  -31.0010 O   0  0  0  0  0  0  0  0  0  0  0  0
   -9.6830   19.3590  -33.1400 O   0  0  0  0  0  0  0  0  0  0  0  0
   -7.1960   18.4050  -33.0690 C   0  0  0  0  0  0  0  0  0  0  0  0
   -6.8940   17.0810  -32.7280 C   0  0  0  0  0  0  0  0  0  0  0  0
   -5.8720   16.4160  -33.4070 C   0  0  0  0  0  0  0  0  0  0  0  0
   -5.1640   17.0750  -34.4150 C   0  0  0  0  0  0  0  0  0  0  0  0
   -5.4930   18.3960  -34.7280 C   0  0  0  0  0  0  0  0  0  0  0  0
   -6.4940   19.0260  -34.0560 N   0  0  0  0  0  0  0  0  0  0  0  0
   -8.4250   21.4990  -30.6490 C   0  0  0  0  0  0  0  0  0  0  0  0
   -7.9670   22.7280  -30.2920 N   0  0  0  0  0  0  0  0  0  0  0  0
   -3.2900   24.3570  -28.3460 C   0  0  0  0  0  0  0  0  0  0  0  0
   -3.8570   24.5440  -26.9470 C   0  0  0  0  0  0  0  0  0  0  0  0
   -3.6030   23.1410  -27.4850 C   0  0  0  0  0  0  0  0  0  0  0  0
   -6.1120   24.3950  -28.4710 H   0  0  0  0  0  0  0  0  0  0  0  0
   -7.3931   25.3463  -30.2713 H   0  0  0  0  0  0  0  0  0  0  0  0
   -5.9694   25.2052  -31.3646 H   0  0  0  0  0  0  0  0  0  0  0  0
   -5.7060   23.2902  -32.7486 H   0  0  0  0  0  0  0  0  0  0  0  0
   -6.5196   21.0289  -33.4406 H   0  0  0  0  0  0  0  0  0  0  0  0
   -7.4567   16.5700  -31.9328 H   0  0  0  0  0  0  0  0  0  0  0  0
   -5.6246   15.3757  -33.1491 H   0  0  0  0  0  0  0  0  0  0  0  0
   -4.3567   16.5596  -34.9560 H   0  0  0  0  0  0  0  0  0  0  0  0
   -4.9423   18.9271  -35.5183 H   0  0  0  0  0  0  0  0  0  0  0  0
   -9.1936   21.0010  -30.0397 H   0  0  0  0  0  0  0  0  0  0  0  0
   -2.4019   24.7257  -28.8801 H   0  0  0  0  0  0  0  0  0  0  0  0
   -3.2216   24.9492  -26.1457 H   0  0  0  0  0  0  0  0  0  0  0  0
   -4.7259   25.0692  -26.5237 H   0  0  0  0  0  0  0  0  0  0  0  0
   -2.7841   22.5334  -27.0725 H   0  0  0  0  0  0  0  0  0  0  0  0
   -4.2120   22.2337  -27.6114 H   0  0  0  0  0  0  0  0  0  0  0  0
  1  2  2  0
  2  3  1  0
  3  4  1  0
  4  5  1  0
  5  6  2  0
  6  7  1  0
  7  8  2  0
  8  9  1  0
  9 10  2  0
  9 11  2  0
  9 12  1  0
 12 13  2  0
 13 14  1  0
 14 15  2  0
 15 16  1  0
 16 17  2  0
  8 18  1  0
 18 19  2  0
  2 20  1  0
 20 21  1  0
 21 22  1  0
 19  5  1  0
 22 20  1  0
 17 12  1  0
  3 23  1  0
  4 24  1  0
  4 25  1  0
  6 26  1  0
  7 27  1  0
 13 28  1  0
 14 29  1  0
 15 30  1  0
 16 31  1  0
 18 32  1  0
 20 33  1  0
 21 34  1  0
 21 35  1  0
 22 36  1  0
 22 37  1  0
M  END
>  <UniqueID>  (37) 
36

>  <SMILES>  (37) 
O=C(NCc1ccc(S(=O)(=O)c2ccccn2)cn1)C1CC1

>  <Energy>  (37) 
304.65442991204253

>  <Genealogy>  (37) 
O=C(NCc1ccc(S(=O)(=O)c2ccccn2)cn1)C1CC1 (3D coordinates assigned)
O=C(NCc1ccc(S(=O)(=O)c2ccccn2)cn1)C1CC1 (nonaromatic ring conformer: 304.65442991204253 kcal/mol)

>  <smiles>  (37) 
O=C(NCc1ccc(S(=O)(=O)c2ccccn2)cn1)C1CC1

>  <score_type>  (37) 
oracle

>  <origin>  (37) 
adg

>  <m_score__min__energy>  (37) 
-9.0999999999999996

>  <m_primary>  (37) 
energy

$$$$
37:0
     RDKit          3D

 49 49  0  0  0  0  0  0  0  0999 V2000
   -5.7430   18.1440  -34.9260 C   0  0  0  0  0  0  0  0  0  0  0  0
   -6.3350   17.3900  -33.7390 C   0  0  0  0  0  0  0  0  0  0  0  0
   -6.7760   18.3000  -32.7500 O   0  0  0  0  0  0  0  0  0  0  0  0
   -7.9980   17.8650  -32.1850 C   0  0  0  0  0  0  0  0  0  0  0  0
   -9.0520   18.9560  -32.3510 C   0  0  0  0  0  0  0  0  0  0  0  0
   -8.4790   20.1000  -32.9640 O   0  0  0  0  0  0  0  0  0  0  0  0
   -8.3920   21.1850  -32.0600 C   0  0  0  0  0  0  0  0  0  0  0  0
   -6.9890   21.3100  -31.5150 C   0  0  0  0  0  0  0  0  0  0  0  0
   -6.8160   21.9720  -30.5010 O   0  0  0  0  0  0  0  0  0  0  0  0
   -5.8700   20.6310  -32.1530 N   0  0  0  0  0  0  0  0  0  0  0  0
   -5.1390   21.5320  -33.0740 C   0  0  0  0  0  0  0  0  0  0  0  0
   -4.3010   22.6060  -32.3410 C   0  0  0  0  0  0  0  0  0  0  0  0
   -4.0240   22.2490  -30.9320 N   0  0  0  0  0  0  0  0  0  0  0  0
   -2.9280   23.0780  -30.3830 C   0  0  0  0  0  0  0  0  0  0  0  0
   -3.5000   24.2800  -29.6250 C   0  0  0  0  0  0  0  0  0  0  0  0
   -3.8690   25.2980  -30.5400 O   0  0  0  0  0  0  0  0  0  0  0  0
   -5.2650   25.2910  -30.7550 C   0  0  0  0  0  0  0  0  0  0  0  0
   -5.9750   25.0550  -29.4300 C   0  0  0  0  0  0  0  0  0  0  0  0
   -3.7230   20.8120  -30.8200 C   0  0  0  0  0  0  0  0  0  0  0  0
   -4.9770   19.9810  -31.1560 C   0  0  0  0  0  0  0  0  0  0  0  0
   -5.1025   18.9598  -34.5596 H   0  0  0  0  0  0  0  0  0  0  0  0
   -5.1434   17.4533  -35.5371 H   0  0  0  0  0  0  0  0  0  0  0  0
   -6.5563   18.5625  -35.5371 H   0  0  0  0  0  0  0  0  0  0  0  0
   -7.1876   16.7854  -34.0818 H   0  0  0  0  0  0  0  0  0  0  0  0
   -5.5610   16.7389  -33.3066 H   0  0  0  0  0  0  0  0  0  0  0  0
   -8.3333   16.9504  -32.6961 H   0  0  0  0  0  0  0  0  0  0  0  0
   -7.8531   17.6549  -31.1150 H   0  0  0  0  0  0  0  0  0  0  0  0
   -9.8707   18.5778  -32.9808 H   0  0  0  0  0  0  0  0  0  0  0  0
   -9.4394   19.2352  -31.3601 H   0  0  0  0  0  0  0  0  0  0  0  0
   -8.6609   22.1144  -32.5834 H   0  0  0  0  0  0  0  0  0  0  0  0
   -9.0834   21.0065  -31.2233 H   0  0  0  0  0  0  0  0  0  0  0  0
   -6.2590   19.8630  -32.7500 H   0  0  0  0  0  0  0  0  0  0  0  0
   -4.4631   20.9244  -33.6937 H   0  0  0  0  0  0  0  0  0  0  0  0
   -5.8910   22.0611  -33.6779 H   0  0  0  0  0  0  0  0  0  0  0  0
   -3.3433   22.7261  -32.8687 H   0  0  0  0  0  0  0  0  0  0  0  0
   -4.8837   23.5390  -32.3395 H   0  0  0  0  0  0  0  0  0  0  0  0
   -2.3224   22.4697  -29.6950 H   0  0  0  0  0  0  0  0  0  0  0  0
   -2.3040   23.4417  -31.2127 H   0  0  0  0  0  0  0  0  0  0  0  0
   -4.3860   23.9635  -29.0551 H   0  0  0  0  0  0  0  0  0  0  0  0
   -2.7353   24.6713  -28.9378 H   0  0  0  0  0  0  0  0  0  0  0  0
   -5.5777   26.2595  -31.1724 H   0  0  0  0  0  0  0  0  0  0  0  0
   -5.5257   24.4892  -31.4615 H   0  0  0  0  0  0  0  0  0  0  0  0
   -5.2891   25.2830  -28.6008 H   0  0  0  0  0  0  0  0  0  0  0  0
   -6.8579   25.7080  -29.3657 H   0  0  0  0  0  0  0  0  0  0  0  0
   -6.2913   24.0034  -29.3657 H   0  0  0  0  0  0  0  0  0  0  0  0
   -2.9163   20.5534  -31.5216 H   0  0  0  0  0  0  0  0  0  0  0  0
   -3.4084   20.5890  -29.7898 H   0  0  0  0  0  0  0  0  0  0  0  0
   -4.6535   19.0100  -31.5591 H   0  0  0  0  0  0  0  0  0  0  0  0
   -5.5539   19.8750  -30.2254 H   0  0  0  0  0  0  0  0  0  0  0  0
  1  2  1  0
  2  3  1  0
  3  4  1  0
  4  5  1  0
  5  6  1  0
  6  7  1  0
  7  8  1  0
  8  9  2  0
  8 10  1  0
 10 11  1  0
 11 12  1  0
 12 13  1  0
 13 14  1  0
 14 15  1  0
 15 16  1  0
 16 17  1  0
 17 18  1  0
 13 19  1  0
 19 20  1  0
 20 10  1  0
  1 21  1  0
  1 22  1  0
  1 23  1  0
  2 24  1  0
  2 25  1  0
  4 26  1  0
  4 27  1  0
  5 28  1  0
  5 29  1  0
  7 30  1  0
  7 31  1  0
 10 32  1  0
 11 33  1  0
 11 34  1  0
 12 35  1  0
 12 36  1  0
 14 37  1  0
 14 38  1  0
 15 39  1  0
 15 40  1  0
 17 41  1  0
 17 42  1  0
 18 43  1  0
 18 44  1  0
 18 45  1  0
 19 46  1  0
 19 47  1  0
 20 48  1  0
 20 49  1  0
M  CHG  1  10   1
M  END
>  <UniqueID>  (38) 
37

>  <SMILES>  (38) 
CCOCCOCC(=O)[NH+]1CCN(CCOCC)CC1

>  <Energy>  (38) 
54.92374527301749

>  <Genealogy>  (38) 
CCOCCOCC(=O)[NH+]1CCN(CCOCC)CC1 (protonated)
CCOCCOCC(=O)[NH+]1CCN(CCOCC)CC1 (3D coordinates assigned)
CCOCCOCC(=O)[NH+]1CCN(CCOCC)CC1 (nonaromatic ring conformer: 54.92374527301749 kcal/mol)

>  <smiles>  (38) 
CCOCCOCC(=O)N1CCN(CCOCC)CC1

>  <score_type>  (38) 
oracle

>  <origin>  (38) 
adg

>  <m_score__min__energy>  (38) 
-4.6900000000000004

>  <m_primary>  (38) 
energy

$$$$
38:0
     RDKit          3D

 48 51  0  0  0  0  0  0  0  0999 V2000
   -1.3210   24.1020  -29.2960 C   0  0  0  0  0  0  0  0  0  0  0  0
   -2.6120   24.3430  -28.6390 N   0  0  0  0  0  0  0  0  0  0  0  0
   -2.6240   24.8330  -27.2560 C   0  0  0  0  0  0  0  0  0  0  0  0
   -3.8570   24.1020  -29.3470 C   0  0  0  0  0  0  0  0  0  0  0  0
   -4.7050   23.0350  -28.9820 C   0  0  0  0  0  0  0  0  0  0  0  0
   -5.9000   22.8030  -29.6680 C   0  0  0  0  0  0  0  0  0  0  0  0
   -6.2800   23.6320  -30.7310 C   0  0  0  0  0  0  0  0  0  0  0  0
   -7.5390   23.3380  -31.5020 C   0  0  0  0  0  0  0  0  0  0  0  0
   -7.2710   22.3560  -32.5520 N   0  0  0  0  0  0  0  0  0  0  0  0
   -7.5400   20.9470  -32.4110 C   0  0  0  0  0  0  0  0  0  0  0  0
   -8.8640   20.4720  -32.4760 C   0  0  0  0  0  0  0  0  0  0  0  0
   -9.1470   19.1230  -32.2600 C   0  0  0  0  0  0  0  0  0  0  0  0
   -8.1190   18.2310  -31.9640 C   0  0  0  0  0  0  0  0  0  0  0  0
   -6.8000   18.6830  -31.8930 C   0  0  0  0  0  0  0  0  0  0  0  0
   -6.4930   20.0350  -32.1250 C   0  0  0  0  0  0  0  0  0  0  0  0
   -5.0730   20.4480  -32.1080 C   0  0  0  0  0  0  0  0  0  0  0  0
   -4.2650   20.3150  -31.0250 N   0  0  0  0  0  0  0  0  0  0  0  0
   -2.9910   20.7000  -31.2940 C   0  0  0  0  0  0  0  0  0  0  0  0
   -1.9400   20.6830  -30.3720 C   0  0  0  0  0  0  0  0  0  0  0  0
   -0.6670   21.1080  -30.7920 C   0  0  0  0  0  0  0  0  0  0  0  0
   -0.4590   21.5370  -32.1190 C   0  0  0  0  0  0  0  0  0  0  0  0
   -1.5220   21.5480  -33.0360 C   0  0  0  0  0  0  0  0  0  0  0  0
   -2.7730   21.1250  -32.5950 C   0  0  0  0  0  0  0  0  0  0  0  0
   -4.2100   21.0220  -33.4540 S   0  0  0  0  0  0  0  0  0  0  0  0
   -5.4460   24.6920  -31.1050 C   0  0  0  0  0  0  0  0  0  0  0  0
   -4.2500   24.9280  -30.4210 C   0  0  0  0  0  0  0  0  0  0  0  0
   -0.5425   23.9567  -28.5325 H   0  0  0  0  0  0  0  0  0  0  0  0
   -1.3915   23.2015  -29.9238 H   0  0  0  0  0  0  0  0  0  0  0  0
   -1.0619   24.9673  -29.9238 H   0  0  0  0  0  0  0  0  0  0  0  0
   -2.6031   23.9782  -26.5640 H   0  0  0  0  0  0  0  0  0  0  0  0
   -1.7411   25.4660  -27.0836 H   0  0  0  0  0  0  0  0  0  0  0  0
   -3.5368   25.4221  -27.0836 H   0  0  0  0  0  0  0  0  0  0  0  0
   -4.4218   22.3775  -28.1469 H   0  0  0  0  0  0  0  0  0  0  0  0
   -6.5464   21.9639  -29.3713 H   0  0  0  0  0  0  0  0  0  0  0  0
   -8.3000   22.9377  -30.8160 H   0  0  0  0  0  0  0  0  0  0  0  0
   -7.9018   24.2678  -31.9645 H   0  0  0  0  0  0  0  0  0  0  0  0
   -6.9300   22.7140  -33.4730 H   0  0  0  0  0  0  0  0  0  0  0  0
   -9.6832   21.1714  -32.6993 H   0  0  0  0  0  0  0  0  0  0  0  0
  -10.1845   18.7630  -32.3236 H   0  0  0  0  0  0  0  0  0  0  0  0
   -8.3466   17.1696  -31.7860 H   0  0  0  0  0  0  0  0  0  0  0  0
   -5.9934   17.9745  -31.6533 H   0  0  0  0  0  0  0  0  0  0  0  0
   -4.5850   19.9670  -30.0940 H   0  0  0  0  0  0  0  0  0  0  0  0
   -2.1056   20.3440  -29.3387 H   0  0  0  0  0  0  0  0  0  0  0  0
    0.1720   21.1058  -30.0806 H   0  0  0  0  0  0  0  0  0  0  0  0
    0.5416   21.8648  -32.4374 H   0  0  0  0  0  0  0  0  0  0  0  0
   -1.3708   21.8813  -34.0733 H   0  0  0  0  0  0  0  0  0  0  0  0
   -5.7337   25.3439  -31.9430 H   0  0  0  0  0  0  0  0  0  0  0  0
   -3.6075   25.7679  -30.7238 H   0  0  0  0  0  0  0  0  0  0  0  0
  1  2  1  0
  2  3  1  0
  2  4  1  0
  4  5  2  0
  5  6  1  0
  6  7  2  0
  7  8  1  0
  8  9  1  0
  9 10  1  0
 10 11  2  0
 11 12  1  0
 12 13  2  0
 13 14  1  0
 14 15  2  0
 15 16  1  0
 16 17  2  0
 17 18  1  0
 18 19  2  0
 19 20  1  0
 20 21  2  0
 21 22  1  0
 22 23  2  0
 23 24  1  0
  7 25  1  0
 25 26  2  0
 26  4  1  0
 15 10  1  0
 24 16  1  0
 23 18  1  0
  1 27  1  0
  1 28  1  0
  1 29  1  0
  3 30  1  0
  3 31  1  0
  3 32  1  0
  5 33  1  0
  6 34  1  0
  8 35  1  0
  8 36  1  0
  9 37  1  0
 11 38  1  0
 12 39  1  0
 13 40  1  0
 14 41  1  0
 17 42  1  0
 19 43  1  0
 20 44  1  0
 21 45  1  0
 22 46  1  0
 25 47  1  0
 26 48  1  0
M  CHG  1  17   1
M  END
>  <UniqueID>  (39) 
38

>  <SMILES>  (39) 
CN(C)c1ccc(CNc2ccccc2-c2[nH+]c3ccccc3s2)cc1

>  <Energy>  (39) 
92.7671407974628

>  <Genealogy>  (39) 
CN(C)c1ccc(CNc2ccccc2-c2[nH+]c3ccccc3s2)cc1 (protonated)
CN(C)c1ccc(CNc2ccccc2-c2[nH+]c3ccccc3s2)cc1 (3D coordinates assigned)
CN(C)c1ccc(CNc2ccccc2-c2[nH+]c3ccccc3s2)cc1 (optimized conformer: 92.7671407974628 kcal/mol)

>  <smiles>  (39) 
CN(C)c1ccc(CNc2ccccc2-c2nc3ccccc3s2)cc1

>  <score_type>  (39) 
oracle

>  <origin>  (39) 
adg

>  <m_score__min__energy>  (39) 
-8.0500000000000007

>  <m_primary>  (39) 
energy

$$$$
39:0
     RDKit          3D

 46 47  0  0  0  0  0  0  0  0999 V2000
   -8.5290   19.8450  -32.0400 C   0  0  0  0  0  0  0  0  0  0  0  0
   -8.8630   21.1050  -31.4660 O   0  0  0  0  0  0  0  0  0  0  0  0
   -7.9480   22.1460  -31.2550 C   0  0  0  0  0  0  0  0  0  0  0  0
   -7.3730   22.7630  -32.3710 C   0  0  0  0  0  0  0  0  0  0  0  0
   -6.4560   23.8060  -32.2140 C   0  0  0  0  0  0  0  0  0  0  0  0
   -6.0980   24.2460  -30.9300 C   0  0  0  0  0  0  0  0  0  0  0  0
   -5.1300   25.3850  -30.7510 C   0  0  0  0  0  0  0  0  0  0  0  0
   -3.7950   24.8710  -30.4220 N   0  0  0  0  0  0  0  0  0  0  0  0
   -3.7150   24.4280  -29.0210 C   0  0  0  0  0  0  0  0  0  0  0  0
   -2.2650   24.4970  -28.5060 C   0  0  2  0  0  0  0  0  0  0  0  0
   -1.4820   25.3030  -29.3530 O   0  0  0  0  0  0  0  0  0  0  0  0
   -1.6580   23.0810  -28.3250 C   0  0  0  0  0  0  0  0  0  0  0  0
   -0.7480   22.6980  -29.4180 N   0  0  0  0  0  0  0  0  0  0  0  0
   -0.9880   21.3370  -29.9100 C   0  0  0  0  0  0  0  0  0  0  0  0
   -2.1420   21.3520  -30.8730 C   0  0  0  0  0  0  0  0  0  0  0  0
   -3.4450   21.1000  -30.4170 C   0  0  0  0  0  0  0  0  0  0  0  0
   -4.5160   21.0850  -31.3150 C   0  0  0  0  0  0  0  0  0  0  0  0
   -4.2910   21.3110  -32.6770 C   0  0  0  0  0  0  0  0  0  0  0  0
   -2.9940   21.5440  -33.1420 C   0  0  0  0  0  0  0  0  0  0  0  0
   -1.9200   21.5590  -32.2450 C   0  0  0  0  0  0  0  0  0  0  0  0
   -6.6740   23.6300  -29.8080 C   0  0  0  0  0  0  0  0  0  0  0  0
   -7.5910   22.5880  -29.9670 C   0  0  0  0  0  0  0  0  0  0  0  0
   -8.3359   19.1166  -31.2386 H   0  0  0  0  0  0  0  0  0  0  0  0
   -9.3647   19.4925  -32.6623 H   0  0  0  0  0  0  0  0  0  0  0  0
   -7.6284   19.9528  -32.6623 H   0  0  0  0  0  0  0  0  0  0  0  0
   -7.6451   22.4242  -33.3815 H   0  0  0  0  0  0  0  0  0  0  0  0
   -6.0130   24.2840  -33.1002 H   0  0  0  0  0  0  0  0  0  0  0  0
   -5.0758   25.9654  -31.6839 H   0  0  0  0  0  0  0  0  0  0  0  0
   -5.4796   26.0263  -29.9285 H   0  0  0  0  0  0  0  0  0  0  0  0
   -3.1130   25.6550  -30.5510 H   0  0  0  0  0  0  0  0  0  0  0  0
   -4.3491   25.0784  -28.4006 H   0  0  0  0  0  0  0  0  0  0  0  0
   -4.0605   23.3854  -28.9612 H   0  0  0  0  0  0  0  0  0  0  0  0
   -2.2727   24.9645  -27.5103 H   0  0  0  0  0  0  0  0  0  0  0  0
   -1.5070   24.9050  -30.2620 H   0  0  0  0  0  0  0  0  0  0  0  0
   -1.0974   23.0588  -27.3788 H   0  0  0  0  0  0  0  0  0  0  0  0
   -2.4923   22.3641  -28.3266 H   0  0  0  0  0  0  0  0  0  0  0  0
   -0.8410   23.3760  -30.2120 H   0  0  0  0  0  0  0  0  0  0  0  0
   -0.0873   20.9674  -30.4219 H   0  0  0  0  0  0  0  0  0  0  0  0
   -1.2239   20.6758  -29.0632 H   0  0  0  0  0  0  0  0  0  0  0  0
   -3.6243   20.9134  -29.3479 H   0  0  0  0  0  0  0  0  0  0  0  0
   -5.5364   20.8954  -30.9505 H   0  0  0  0  0  0  0  0  0  0  0  0
   -5.1352   21.3053  -33.3822 H   0  0  0  0  0  0  0  0  0  0  0  0
   -2.8171   21.7158  -34.2140 H   0  0  0  0  0  0  0  0  0  0  0  0
   -0.8989   21.7334  -32.6151 H   0  0  0  0  0  0  0  0  0  0  0  0
   -6.4019   23.9696  -28.7977 H   0  0  0  0  0  0  0  0  0  0  0  0
   -8.0361   22.1107  -29.0815 H   0  0  0  0  0  0  0  0  0  0  0  0
  1  2  1  0
  2  3  1  0
  3  4  2  0
  4  5  1  0
  5  6  2  0
  6  7  1  0
  7  8  1  0
  8  9  1  0
  9 10  1  0
 10 11  1  0
 10 12  1  0
 12 13  1  0
 13 14  1  0
 14 15  1  0
 15 16  2  0
 16 17  1  0
 17 18  2  0
 18 19  1  0
 19 20  2  0
  6 21  1  0
 21 22  2  0
 22  3  1  0
 20 15  1  0
  1 23  1  0
  1 24  1  0
  1 25  1  0
  4 26  1  0
  5 27  1  0
  7 28  1  0
  7 29  1  0
  8 30  1  0
  9 31  1  0
  9 32  1  0
 10 33  1  1
 11 34  1  0
 12 35  1  0
 12 36  1  0
 13 37  1  0
 14 38  1  0
 14 39  1  0
 16 40  1  0
 17 41  1  0
 18 42  1  0
 19 43  1  0
 20 44  1  0
 21 45  1  0
 22 46  1  0
M  END
>  <UniqueID>  (40) 
39

>  <SMILES>  (40) 
COc1ccc(CNC[C@H](O)CNCc2ccccc2)cc1

>  <Energy>  (40) 
42.941825118383804

>  <Genealogy>  (40) 
COc1ccc(CNC[C@H](O)CNCc2ccccc2)cc1 (chirality)
COc1ccc(CNC[C@H](O)CNCc2ccccc2)cc1 (3D coordinates assigned)
COc1ccc(CNC[C@H](O)CNCc2ccccc2)cc1 (optimized conformer: 42.941825118383804 kcal/mol)

>  <smiles>  (40) 
COc1ccc(CNCC(O)CNCc2ccccc2)cc1

>  <score_type>  (40) 
oracle

>  <origin>  (40) 
adg

>  <m_score__min__energy>  (40) 
-7.7400000000000002

>  <m_primary>  (40) 
energy

$$$$
40:0
     RDKit          3D

 49 52  0  0  0  0  0  0  0  0999 V2000
   -0.1120   22.0020  -27.7950 C   0  0  0  0  0  0  0  0  0  0  0  0
   -0.3840   22.9680  -28.8070 O   0  0  0  0  0  0  0  0  0  0  0  0
   -1.4950   22.9440  -29.6650 C   0  0  0  0  0  0  0  0  0  0  0  0
   -1.7510   21.8280  -30.4840 C   0  0  0  0  0  0  0  0  0  0  0  0
   -2.8690   21.7940  -31.3220 C   0  0  0  0  0  0  0  0  0  0  0  0
   -3.1260   20.6010  -32.1490 C   0  0  0  0  0  0  0  0  0  0  0  0
   -2.4750   19.4260  -31.9700 N   0  0  0  0  0  0  0  0  0  0  0  0
   -3.0520   18.6070  -32.8720 C   0  0  0  0  0  0  0  0  0  0  0  0
   -2.7420   17.2640  -33.0740 C   0  0  0  0  0  0  0  0  0  0  0  0
   -3.4550   16.5750  -34.0110 N   0  0  0  0  0  0  0  0  0  0  0  0
   -4.4500   17.1700  -34.7360 C   0  0  0  0  0  0  0  0  0  0  0  0
   -4.7550   18.5220  -34.5200 C   0  0  0  0  0  0  0  0  0  0  0  0
   -4.0290   19.1910  -33.5870 N   0  0  0  0  0  0  0  0  0  0  0  0
   -4.0890   20.4620  -33.1470 C   0  0  0  0  0  0  0  0  0  0  0  0
   -5.1390   21.3980  -33.4680 N   0  0  0  0  0  0  0  0  0  0  0  0
   -6.3170   21.0950  -32.6920 C   0  0  0  0  0  0  0  0  0  0  0  0
   -6.9610   19.8490  -32.8250 C   0  0  0  0  0  0  0  0  0  0  0  0
   -8.1280   19.5770  -32.1070 C   0  0  0  0  0  0  0  0  0  0  0  0
   -8.6630   20.5400  -31.2480 C   0  0  0  0  0  0  0  0  0  0  0  0
   -8.0290   21.7750  -31.1010 C   0  0  0  0  0  0  0  0  0  0  0  0
   -6.8620   22.0550  -31.8200 C   0  0  0  0  0  0  0  0  0  0  0  0
   -3.7230   22.8970  -31.3810 C   0  0  0  0  0  0  0  0  0  0  0  0
   -3.4870   24.0250  -30.5750 C   0  0  0  0  0  0  0  0  0  0  0  0
   -4.3360   25.1440  -30.6030 O   0  0  0  0  0  0  0  0  0  0  0  0
   -5.6620   25.1680  -30.0830 C   0  0  0  0  0  0  0  0  0  0  0  0
   -2.3790   24.0540  -29.7120 C   0  0  0  0  0  0  0  0  0  0  0  0
   -2.2170   25.2160  -28.9330 O   0  0  0  0  0  0  0  0  0  0  0  0
   -1.9230   25.2720  -27.5410 C   0  0  0  0  0  0  0  0  0  0  0  0
   -0.2416   22.4623  -26.8044 H   0  0  0  0  0  0  0  0  0  0  0  0
   -0.8068   21.1556  -27.8998 H   0  0  0  0  0  0  0  0  0  0  0  0
    0.9223   21.6425  -27.8998 H   0  0  0  0  0  0  0  0  0  0  0  0
   -1.0617   20.9710  -30.4641 H   0  0  0  0  0  0  0  0  0  0  0  0
   -1.9457   16.7735  -32.4950 H   0  0  0  0  0  0  0  0  0  0  0  0
   -5.0090   16.5907  -35.4856 H   0  0  0  0  0  0  0  0  0  0  0  0
   -5.5540   19.0229  -35.0863 H   0  0  0  0  0  0  0  0  0  0  0  0
   -5.3680   21.3550  -34.4870 H   0  0  0  0  0  0  0  0  0  0  0  0
   -4.8130   22.3720  -33.2770 H   0  0  0  0  0  0  0  0  0  0  0  0
   -6.5425   19.0861  -33.4980 H   0  0  0  0  0  0  0  0  0  0  0  0
   -8.6266   18.6028  -32.2182 H   0  0  0  0  0  0  0  0  0  0  0  0
   -9.5845   20.3250  -30.6870 H   0  0  0  0  0  0  0  0  0  0  0  0
   -8.4477   22.5293  -30.4186 H   0  0  0  0  0  0  0  0  0  0  0  0
   -6.3680   23.0308  -31.7029 H   0  0  0  0  0  0  0  0  0  0  0  0
   -4.5863   22.8836  -32.0626 H   0  0  0  0  0  0  0  0  0  0  0  0
   -5.6248   25.1673  -28.9836 H   0  0  0  0  0  0  0  0  0  0  0  0
   -6.1763   26.0756  -30.4319 H   0  0  0  0  0  0  0  0  0  0  0  0
   -6.2088   24.2796  -30.4319 H   0  0  0  0  0  0  0  0  0  0  0  0
   -2.8433   25.0967  -26.9645 H   0  0  0  0  0  0  0  0  0  0  0  0
   -1.1812   24.4990  -27.2915 H   0  0  0  0  0  0  0  0  0  0  0  0
   -1.5173   26.2636  -27.2915 H   0  0  0  0  0  0  0  0  0  0  0  0
  1  2  1  0
  2  3  1  0
  3  4  2  0
  4  5  1  0
  5  6  1  0
  6  7  1  0
  7  8  2  0
  8  9  1  0
  9 10  2  0
 10 11  1  0
 11 12  2  0
 12 13  1  0
 13 14  1  0
 14 15  1  0
 15 16  1  0
 16 17  2  0
 17 18  1  0
 18 19  2  0
 19 20  1  0
 20 21  2  0
  5 22  2  0
 22 23  1  0
 23 24  1  0
 24 25  1  0
 23 26  2  0
 26 27  1  0
 27 28  1  0
 26  3  1  0
 14  6  2  0
 21 16  1  0
 13  8  1  0
  1 29  1  0
  1 30  1  0
  1 31  1  0
  4 32  1  0
  9 33  1  0
 11 34  1  0
 12 35  1  0
 15 36  1  0
 15 37  1  0
 17 38  1  0
 18 39  1  0
 19 40  1  0
 20 41  1  0
 21 42  1  0
 22 43  1  0
 25 44  1  0
 25 45  1  0
 25 46  1  0
 28 47  1  0
 28 48  1  0
 28 49  1  0
M  CHG  1  15   1
M  END
>  <UniqueID>  (41) 
40

>  <SMILES>  (41) 
COc1cc(-c2nc3cnccn3c2[NH2+]c2ccccc2)cc(OC)c1OC

>  <Energy>  (41) 
98.05840765696385

>  <Genealogy>  (41) 
COc1cc(-c2nc3cnccn3c2[NH2+]c2ccccc2)cc(OC)c1OC (protonated)
COc1cc(-c2nc3cnccn3c2[NH2+]c2ccccc2)cc(OC)c1OC (3D coordinates assigned)
COc1cc(-c2nc3cnccn3c2[NH2+]c2ccccc2)cc(OC)c1OC (optimized conformer: 98.05840765696385 kcal/mol)

>  <smiles>  (41) 
COc1cc(-c2nc3cnccn3c2Nc2ccccc2)cc(OC)c1OC

>  <score_type>  (41) 
oracle

>  <origin>  (41) 
adg

>  <m_score__min__energy>  (41) 
-7.9900000000000002

>  <m_primary>  (41) 
energy

$$$$
41:0
     RDKit          3D

 44 46  0  0  0  0  0  0  0  0999 V2000
    0.2910   22.6480  -26.9390 C   0  0  0  0  0  0  0  0  0  0  0  0
    0.2350   23.0820  -28.3940 C   0  0  0  0  0  0  0  0  0  0  0  0
    0.4310   24.4900  -28.4770 O   0  0  0  0  0  0  0  0  0  0  0  0
    0.0870   25.4090  -27.4730 C   0  0  0  0  0  0  0  0  0  0  0  0
    1.0710   26.1280  -26.7640 C   0  0  0  0  0  0  0  0  0  0  0  0
    0.7080   27.0020  -25.7370 C   0  0  0  0  0  0  0  0  0  0  0  0
   -0.6350   27.1660  -25.4000 C   0  0  0  0  0  0  0  0  0  0  0  0
   -1.6220   26.4660  -26.0960 C   0  0  0  0  0  0  0  0  0  0  0  0
   -1.2760   25.5980  -27.1460 C   0  0  0  0  0  0  0  0  0  0  0  0
   -2.3550   24.8810  -27.8670 C   0  0  0  0  0  0  0  0  0  0  0  0
   -3.3110   24.1150  -27.1880 C   0  0  0  0  0  0  0  0  0  0  0  0
   -4.2950   23.4480  -27.9130 C   0  0  0  0  0  0  0  0  0  0  0  0
   -4.3110   23.5500  -29.3120 C   0  0  0  0  0  0  0  0  0  0  0  0
   -5.3320   22.8590  -30.1410 C   0  0  0  0  0  0  0  0  0  0  0  0
   -6.6910   22.9350  -29.7840 C   0  0  0  0  0  0  0  0  0  0  0  0
   -7.6640   22.2840  -30.5480 C   0  0  0  0  0  0  0  0  0  0  0  0
   -7.2940   21.5350  -31.6690 C   0  0  0  0  0  0  0  0  0  0  0  0
   -8.5470   20.7080  -32.6540 S   0  0  0  0  0  0  0  0  0  0  0  0
   -8.6550   19.2290  -31.5870 C   0  0  0  0  0  0  0  0  0  0  0  0
   -7.6420   18.1710  -32.0090 C   0  0  0  0  0  0  0  0  0  0  0  0
   -5.9460   21.4510  -32.0330 C   0  0  0  0  0  0  0  0  0  0  0  0
   -4.9700   22.1010  -31.2720 C   0  0  0  0  0  0  0  0  0  0  0  0
   -3.3400   24.2850  -29.9210 N   0  0  0  0  0  0  0  0  0  0  0  0
   -2.3980   24.9250  -29.2250 N   0  0  0  0  0  0  0  0  0  0  0  0
    0.1774   23.5282  -26.2892 H   0  0  0  0  0  0  0  0  0  0  0  0
   -0.5227   21.9358  -26.7372 H   0  0  0  0  0  0  0  0  0  0  0  0
    1.2588   22.1657  -26.7372 H   0  0  0  0  0  0  0  0  0  0  0  0
    1.0251   22.5677  -28.9607 H   0  0  0  0  0  0  0  0  0  0  0  0
   -0.7470   22.8229  -28.8165 H   0  0  0  0  0  0  0  0  0  0  0  0
    2.1326   25.9996  -27.0217 H   0  0  0  0  0  0  0  0  0  0  0  0
    1.4829   27.5620  -25.1930 H   0  0  0  0  0  0  0  0  0  0  0  0
   -0.9172   27.8480  -24.5844 H   0  0  0  0  0  0  0  0  0  0  0  0
   -2.6791   26.5947  -25.8205 H   0  0  0  0  0  0  0  0  0  0  0  0
   -3.2847   24.0409  -26.0908 H   0  0  0  0  0  0  0  0  0  0  0  0
   -5.0541   22.8456  -27.3926 H   0  0  0  0  0  0  0  0  0  0  0  0
   -6.9902   23.5115  -28.8963 H   0  0  0  0  0  0  0  0  0  0  0  0
   -8.7245   22.3613  -30.2662 H   0  0  0  0  0  0  0  0  0  0  0  0
   -8.4553   19.5222  -30.5458 H   0  0  0  0  0  0  0  0  0  0  0  0
   -9.6646   18.8030  -31.6826 H   0  0  0  0  0  0  0  0  0  0  0  0
   -7.1998   17.7091  -31.1139 H   0  0  0  0  0  0  0  0  0  0  0  0
   -8.1463   17.3991  -32.6088 H   0  0  0  0  0  0  0  0  0  0  0  0
   -6.8489   18.6413  -32.6088 H   0  0  0  0  0  0  0  0  0  0  0  0
   -5.6530   20.8716  -32.9209 H   0  0  0  0  0  0  0  0  0  0  0  0
   -3.9111   22.0200  -31.5585 H   0  0  0  0  0  0  0  0  0  0  0  0
  1  2  1  0
  2  3  1  0
  3  4  1  0
  4  5  2  0
  5  6  1  0
  6  7  2  0
  7  8  1  0
  8  9  2  0
  9 10  1  0
 10 11  2  0
 11 12  1  0
 12 13  2  0
 13 14  1  0
 14 15  2  0
 15 16  1  0
 16 17  2  0
 17 18  1  0
 18 19  1  0
 19 20  1  0
 17 21  1  0
 21 22  2  0
 13 23  1  0
 23 24  2  0
  9  4  1  0
 24 10  1  0
 22 14  1  0
  1 25  1  0
  1 26  1  0
  1 27  1  0
  2 28  1  0
  2 29  1  0
  5 30  1  0
  6 31  1  0
  7 32  1  0
  8 33  1  0
 11 34  1  0
 12 35  1  0
 15 36  1  0
 16 37  1  0
 19 38  1  0
 19 39  1  0
 20 40  1  0
 20 41  1  0
 20 42  1  0
 21 43  1  0
 22 44  1  0
M  END
>  <UniqueID>  (42) 
41

>  <SMILES>  (42) 
CCOc1ccccc1-c1ccc(-c2ccc(SCC)cc2)nn1

>  <Energy>  (42) 
47.22809315755346

>  <Genealogy>  (42) 
CCOc1ccccc1-c1ccc(-c2ccc(SCC)cc2)nn1 (3D coordinates assigned)
CCOc1ccccc1-c1ccc(-c2ccc(SCC)cc2)nn1 (optimized conformer: 47.22809315755346 kcal/mol)

>  <smiles>  (42) 
CCOc1ccccc1-c1ccc(-c2ccc(SCC)cc2)nn1

>  <score_type>  (42) 
oracle

>  <origin>  (42) 
adg

>  <m_score__min__energy>  (42) 
-8.1099999999999994

>  <m_primary>  (42) 
energy

$$$$
42:0
     RDKit          3D

 45 47  0  0  0  0  0  0  0  0999 V2000
   -0.4870   28.5980  -26.8480 C   0  0  0  0  0  0  0  0  0  0  0  0
    0.0230   27.1810  -27.0880 C   0  0  0  0  0  0  0  0  0  0  0  0
   -1.0830   26.2840  -27.4860 N   0  0  0  0  0  0  0  0  0  0  0  0
   -2.0110   25.9910  -26.3700 C   0  0  0  0  0  0  0  0  0  0  0  0
   -1.3110   25.8200  -25.0140 C   0  0  0  0  0  0  0  0  0  0  0  0
   -0.6320   25.0630  -28.1990 C   0  0  0  0  0  0  0  0  0  0  0  0
   -1.8310   24.1430  -28.4400 C   0  0  0  0  0  0  0  0  0  0  0  0
   -2.7400   24.7240  -29.4290 N   0  0  0  0  0  0  0  0  0  0  0  0
   -3.9430   24.0930  -29.9110 C   0  0  0  0  0  0  0  0  0  0  0  0
   -5.1900   24.7110  -29.6570 C   0  0  0  0  0  0  0  0  0  0  0  0
   -6.3870   24.1330  -30.1070 C   0  0  0  0  0  0  0  0  0  0  0  0
   -6.3150   22.9360  -30.8160 C   0  0  0  0  0  0  0  0  0  0  0  0
   -5.1070   22.3220  -31.0810 C   0  0  0  0  0  0  0  0  0  0  0  0
   -3.9080   22.8820  -30.6420 C   0  0  0  0  0  0  0  0  0  0  0  0
   -5.2930   21.0530  -31.8630 C   0  0  0  0  0  0  0  0  0  0  0  0
   -6.7880   21.0340  -32.0020 C   0  0  0  0  0  0  0  0  0  0  0  0
   -7.5730   20.0770  -32.6470 C   0  0  0  0  0  0  0  0  0  0  0  0
   -8.9680   20.2510  -32.6630 C   0  0  0  0  0  0  0  0  0  0  0  0
   -9.5540   21.3700  -32.0390 C   0  0  0  0  0  0  0  0  0  0  0  0
   -8.7500   22.3250  -31.3940 C   0  0  0  0  0  0  0  0  0  0  0  0
   -7.3690   22.1300  -31.3920 C   0  0  0  0  0  0  0  0  0  0  0  0
   -0.5543   28.7851  -25.7661 H   0  0  0  0  0  0  0  0  0  0  0  0
    0.2078   29.3196  -27.3024 H   0  0  0  0  0  0  0  0  0  0  0  0
   -1.4823   28.7113  -27.3024 H   0  0  0  0  0  0  0  0  0  0  0  0
    0.7773   27.2002  -27.8884 H   0  0  0  0  0  0  0  0  0  0  0  0
    0.4643   26.8028  -26.1541 H   0  0  0  0  0  0  0  0  0  0  0  0
   -2.7287   26.8206  -26.2882 H   0  0  0  0  0  0  0  0  0  0  0  0
   -2.5008   25.0338  -26.6020 H   0  0  0  0  0  0  0  0  0  0  0  0
   -2.0335   25.9965  -24.2035 H   0  0  0  0  0  0  0  0  0  0  0  0
   -0.9122   24.7980  -24.9335 H   0  0  0  0  0  0  0  0  0  0  0  0
   -0.4859   26.5430  -24.9335 H   0  0  0  0  0  0  0  0  0  0  0  0
   -0.1861   25.3452  -29.1642 H   0  0  0  0  0  0  0  0  0  0  0  0
    0.1178   24.5374  -27.5894 H   0  0  0  0  0  0  0  0  0  0  0  0
   -1.4715   23.1706  -28.8077 H   0  0  0  0  0  0  0  0  0  0  0  0
   -2.3748   24.0161  -27.4923 H   0  0  0  0  0  0  0  0  0  0  0  0
   -2.4980   25.6730  -29.7970 H   0  0  0  0  0  0  0  0  0  0  0  0
   -5.2218   25.6583  -29.0987 H   0  0  0  0  0  0  0  0  0  0  0  0
   -7.3563   24.6123  -29.9053 H   0  0  0  0  0  0  0  0  0  0  0  0
   -2.9490   22.3896  -30.8607 H   0  0  0  0  0  0  0  0  0  0  0  0
   -4.7947   21.1028  -32.8424 H   0  0  0  0  0  0  0  0  0  0  0  0
   -4.8651   20.1565  -31.3906 H   0  0  0  0  0  0  0  0  0  0  0  0
   -7.1101   19.2052  -33.1325 H   0  0  0  0  0  0  0  0  0  0  0  0
   -9.6058   19.5090  -33.1657 H   0  0  0  0  0  0  0  0  0  0  0  0
  -10.6465   21.4967  -32.0568 H   0  0  0  0  0  0  0  0  0  0  0  0
   -9.1975   23.2023  -30.9041 H   0  0  0  0  0  0  0  0  0  0  0  0
  1  2  1  0
  2  3  1  0
  3  4  1  0
  4  5  1  0
  3  6  1  0
  6  7  1  0
  7  8  1  0
  8  9  1  0
  9 10  2  0
 10 11  1  0
 11 12  2  0
 12 13  1  0
 13 14  2  0
 13 15  1  0
 15 16  1  0
 16 17  2  0
 17 18  1  0
 18 19  2  0
 19 20  1  0
 20 21  2  0
 14  9  1  0
 21 16  1  0
 21 12  1  0
  1 22  1  0
  1 23  1  0
  1 24  1  0
  2 25  1  0
  2 26  1  0
  4 27  1  0
  4 28  1  0
  5 29  1  0
  5 30  1  0
  5 31  1  0
  6 32  1  0
  6 33  1  0
  7 34  1  0
  7 35  1  0
  8 36  1  0
 10 37  1  0
 11 38  1  0
 14 39  1  0
 15 40  1  0
 15 41  1  0
 17 42  1  0
 18 43  1  0
 19 44  1  0
 20 45  1  0
M  END
>  <UniqueID>  (43) 
42

>  <SMILES>  (43) 
CCN(CC)CCNc1ccc2c(c1)Cc1ccccc1-2

>  <Energy>  (43) 
67.72982962808226

>  <Genealogy>  (43) 
CCN(CC)CCNc1ccc2c(c1)Cc1ccccc1-2 (3D coordinates assigned)
CCN(CC)CCNc1ccc2c(c1)Cc1ccccc1-2 (nonaromatic ring conformer: 67.72982962808226 kcal/mol)

>  <smiles>  (43) 
CCN(CC)CCNc1ccc2c(c1)Cc1ccccc1-2

>  <score_type>  (43) 
oracle

>  <origin>  (43) 
adg

>  <m_score__min__energy>  (43) 
-8.1999999999999993

>  <m_primary>  (43) 
energy

$$$$
