0:0
     RDKit          3D

 65 68  0  0  0  0  0  0  0  0999 V2000
   -9.0030   21.1530  -30.8520 C   0  0  0  0  0  0  0  0  0  0  0  0
   -9.4680   21.1040  -32.3110 C   0  0  0  0  0  0  0  0  0  0  0  0
   -9.5460   19.7300  -32.8320 N   0  0  0  0  0  0  0  0  0  0  0  0
   -8.7860   18.7770  -32.0110 C   0  0  0  0  0  0  0  0  0  0  0  0
   -7.4820   18.3780  -32.7150 C   0  0  0  0  0  0  0  0  0  0  0  0
   -7.0230   19.4200  -33.6490 N   0  0  0  0  0  0  0  0  0  0  0  0
   -5.6010   19.6600  -33.4810 C   0  0  0  0  0  0  0  0  0  0  0  0
   -4.6300   18.7200  -33.9080 C   0  0  0  0  0  0  0  0  0  0  0  0
   -4.9930   17.4560  -34.4300 C   0  0  0  0  0  0  0  0  0  0  0  0
   -4.0200   16.5470  -34.8430 C   0  0  0  0  0  0  0  0  0  0  0  0
   -2.6730   16.8700  -34.7380 C   0  0  0  0  0  0  0  0  0  0  0  0
   -2.2870   18.1070  -34.2290 C   0  0  0  0  0  0  0  0  0  0  0  0
   -3.2510   19.0600  -33.8140 C   0  0  0  0  0  0  0  0  0  0  0  0
   -2.8710   20.2930  -33.3260 N   0  0  0  0  0  0  0  0  0  0  0  0
   -1.5300   20.8190  -33.6620 C   0  0  0  0  0  0  0  0  0  0  0  0
   -3.7850   21.0760  -32.6480 C   0  0  0  0  0  0  0  0  0  0  0  0
   -3.4030   22.1540  -31.7930 C   0  0  0  0  0  0  0  0  0  0  0  0
   -2.0610   22.2620  -31.3010 N   0  0  0  0  0  0  0  0  0  0  0  0
   -1.7810   22.0470  -29.8810 C   0  0  0  0  0  0  0  0  0  0  0  0
   -2.2080   20.6300  -29.4560 C   0  0  0  0  0  0  0  0  0  0  0  0
   -3.1180   20.5910  -28.2870 N   0  0  0  0  0  0  0  0  0  0  0  0
   -2.5790   19.8060  -27.1660 C   0  0  0  0  0  0  0  0  0  0  0  0
   -3.5410   21.9290  -27.8460 C   0  0  0  0  0  0  0  0  0  0  0  0
   -4.3880   23.0260  -31.2800 C   0  0  0  0  0  0  0  0  0  0  0  0
   -4.0610   24.1330  -30.4690 C   0  0  0  0  0  0  0  0  0  0  0  0
   -5.0670   24.9680  -29.9750 C   0  0  0  0  0  0  0  0  0  0  0  0
   -6.4060   24.7060  -30.2730 C   0  0  0  0  0  0  0  0  0  0  0  0
   -6.7450   23.6030  -31.0600 C   0  0  0  0  0  0  0  0  0  0  0  0
   -5.7430   22.7640  -31.5610 C   0  0  0  0  0  0  0  0  0  0  0  0
   -6.0850   21.6680  -32.2770 N   0  0  0  0  0  0  0  0  0  0  0  0
   -5.1670   20.8130  -32.8000 C   0  0  0  0  0  0  0  0  0  0  0  0
   -9.8739   21.0612  -30.1863 H   0  0  0  0  0  0  0  0  0  0  0  0
   -8.3065   20.3233  -30.6611 H   0  0  0  0  0  0  0  0  0  0  0  0
   -8.4947   22.1097  -30.6611 H   0  0  0  0  0  0  0  0  0  0  0  0
  -10.4648   21.5642  -32.3791 H   0  0  0  0  0  0  0  0  0  0  0  0
   -8.7285   21.6492  -32.9159 H   0  0  0  0  0  0  0  0  0  0  0  0
   -9.1670   19.7210  -33.8080 H   0  0  0  0  0  0  0  0  0  0  0  0
   -8.5467   19.2434  -31.0439 H   0  0  0  0  0  0  0  0  0  0  0  0
   -9.3967   17.8750  -31.8576 H   0  0  0  0  0  0  0  0  0  0  0  0
   -6.7036   18.2128  -31.9555 H   0  0  0  0  0  0  0  0  0  0  0  0
   -7.6722   17.4613  -33.2925 H   0  0  0  0  0  0  0  0  0  0  0  0
   -7.5590   20.3020  -33.4740 H   0  0  0  0  0  0  0  0  0  0  0  0
   -7.2360   19.1640  -34.6380 H   0  0  0  0  0  0  0  0  0  0  0  0
   -6.0565   17.1871  -34.5110 H   0  0  0  0  0  0  0  0  0  0  0  0
   -4.3197   15.5713  -35.2531 H   0  0  0  0  0  0  0  0  0  0  0  0
   -1.9090   16.1462  -35.0580 H   0  0  0  0  0  0  0  0  0  0  0  0
   -1.2170   18.3488  -34.1476 H   0  0  0  0  0  0  0  0  0  0  0  0
   -0.9783   21.0354  -32.7353 H   0  0  0  0  0  0  0  0  0  0  0  0
   -0.9793   20.0703  -34.2503 H   0  0  0  0  0  0  0  0  0  0  0  0
   -1.6352   21.7425  -34.2503 H   0  0  0  0  0  0  0  0  0  0  0  0
   -1.3290   22.6680  -31.9270 H   0  0  0  0  0  0  0  0  0  0  0  0
   -0.7025   22.1691  -29.7021 H   0  0  0  0  0  0  0  0  0  0  0  0
   -2.3487   22.7817  -29.2911 H   0  0  0  0  0  0  0  0  0  0  0  0
   -2.7192   20.1549  -30.3063 H   0  0  0  0  0  0  0  0  0  0  0  0
   -1.2906   20.1011  -29.1582 H   0  0  0  0  0  0  0  0  0  0  0  0
   -2.8920   20.2619  -26.2151 H   0  0  0  0  0  0  0  0  0  0  0  0
   -2.9613   18.7761  -27.2223 H   0  0  0  0  0  0  0  0  0  0  0  0
   -1.4805   19.7929  -27.2223 H   0  0  0  0  0  0  0  0  0  0  0  0
   -3.5527   21.9661  -26.7467 H   0  0  0  0  0  0  0  0  0  0  0  0
   -2.8369   22.6815  -28.2308 H   0  0  0  0  0  0  0  0  0  0  0  0
   -4.5497   22.1400  -28.2308 H   0  0  0  0  0  0  0  0  0  0  0  0
   -3.0088   24.3401  -30.2242 H   0  0  0  0  0  0  0  0  0  0  0  0
   -4.8034   25.8338  -29.3498 H   0  0  0  0  0  0  0  0  0  0  0  0
   -7.1945   25.3690  -29.8875 H   0  0  0  0  0  0  0  0  0  0  0  0
   -7.8009   23.3935  -31.2863 H   0  0  0  0  0  0  0  0  0  0  0  0
  1  2  1  0
  2  3  1  0
  3  4  1  0
  4  5  1  0
  5  6  1  0
  6  7  1  0
  7  8  2  0
  8  9  1  0
  9 10  2  0
 10 11  1  0
 11 12  2  0
 12 13  1  0
 13 14  2  0
 14 15  1  0
 14 16  1  0
 16 17  2  0
 17 18  1  0
 18 19  1  0
 19 20  1  0
 20 21  1  0
 21 22  1  0
 21 23  1  0
 17 24  1  0
 24 25  2  0
 25 26  1  0
 26 27  2  0
 27 28  1  0
 28 29  2  0
 29 30  1  0
 30 31  2  0
 31  7  1  0
 13  8  1  0
 31 16  1  0
 29 24  1  0
  1 32  1  0
  1 33  1  0
  1 34  1  0
  2 35  1  0
  2 36  1  0
  3 37  1  0
  4 38  1  0
  4 39  1  0
  5 40  1  0
  5 41  1  0
  6 42  1  0
  6 43  1  0
  9 44  1  0
 10 45  1  0
 11 46  1  0
 12 47  1  0
 15 48  1  0
 15 49  1  0
 15 50  1  0
 18 51  1  0
 19 52  1  0
 19 53  1  0
 20 54  1  0
 20 55  1  0
 22 56  1  0
 22 57  1  0
 22 58  1  0
 23 59  1  0
 23 60  1  0
 23 61  1  0
 25 62  1  0
 26 63  1  0
 27 64  1  0
 28 65  1  0
M  CHG  2   6   1  14   1
M  END
>  <UniqueID>  (1) 
1

>  <SMILES>  (1) 
CCNCC[NH2+]c1c2ccccc2[n+](C)c2c(NCCN(C)C)c3ccccc3nc12

>  <Energy>  (1) 
102.3309138638868

>  <Genealogy>  (1) 
CCNCC[NH2+]c1c2ccccc2[n+](C)c2c(NCCN(C)C)c3ccccc3nc12 (protonated)
CCNCC[NH2+]c1c2ccccc2[n+](C)c2c(NCCN(C)C)c3ccccc3nc12 (3D coordinates assigned)
CCNCC[NH2+]c1c2ccccc2[n+](C)c2c(NCCN(C)C)c3ccccc3nc12 (optimized conformer: 102.3309138638868 kcal/mol)

>  <smiles>  (1) 
CCNCCNc1c2ccccc2[n+](C)c2c(NCCN(C)C)c3ccccc3nc12

>  <score_type>  (1) 
oracle

>  <origin>  (1) 
adg

>  <m_score__min__energy>  (1) 
-8.4700000000000006

>  <m_primary>  (1) 
energy

$$$$
1:0
     RDKit          3D

 53 54  0  0  0  0  0  0  0  0999 V2000
   -3.4650   23.2290  -27.7310 C   0  0  0  0  0  0  0  0  0  0  0  0
   -2.7590   24.5520  -28.0200 C   0  0  0  0  0  0  0  0  0  0  0  0
   -1.8210   24.4490  -29.1500 N   0  0  0  0  0  0  0  0  0  0  0  0
   -0.8220   23.3650  -29.0400 C   0  0  0  0  0  0  0  0  0  0  0  0
   -1.0980   22.1730  -29.9720 C   0  0  0  0  0  0  0  0  0  0  0  0
   -1.6050   22.6530  -31.1990 O   0  0  0  0  0  0  0  0  0  0  0  0
   -2.5420   21.7420  -31.7300 C   0  0  0  0  0  0  0  0  0  0  0  0
   -3.8760   22.4680  -31.8810 C   0  0  0  0  0  0  0  0  0  0  0  0
   -4.1590   23.3320  -30.7380 N   0  0  0  0  0  0  0  0  0  0  0  0
   -4.6580   24.6690  -30.8450 C   0  0  0  0  0  0  0  0  0  0  0  0
   -3.8700   25.6530  -30.8140 O   0  0  0  0  0  0  0  0  0  0  0  0
   -6.1360   24.8950  -30.9770 C   0  0  0  0  0  0  0  0  0  0  0  0
   -6.9290   24.1790  -29.8780 C   0  0  0  0  0  0  0  0  0  0  0  0
   -7.0220   22.7360  -30.1770 N   0  0  0  0  0  0  0  0  0  0  0  0
   -7.9310   22.4590  -31.2990 C   0  0  0  0  0  0  0  0  0  0  0  0
   -7.7080   21.0580  -31.7960 C   0  0  0  0  0  0  0  0  0  0  0  0
   -8.5270   20.0160  -31.3310 C   0  0  0  0  0  0  0  0  0  0  0  0
   -8.3500   18.7100  -31.7960 C   0  0  0  0  0  0  0  0  0  0  0  0
   -7.3510   18.4290  -32.7360 C   0  0  0  0  0  0  0  0  0  0  0  0
   -7.1790   17.1270  -33.2310 C   0  0  0  0  0  0  0  0  0  0  0  0
   -6.1910   16.8620  -34.1820 C   0  0  0  0  0  0  0  0  0  0  0  0
   -5.3590   17.8880  -34.6390 C   0  0  0  0  0  0  0  0  0  0  0  0
   -5.5120   19.1890  -34.1490 C   0  0  0  0  0  0  0  0  0  0  0  0
   -6.5080   19.4710  -33.1990 C   0  0  0  0  0  0  0  0  0  0  0  0
   -6.6860   20.7770  -32.7170 C   0  0  0  0  0  0  0  0  0  0  0  0
   -3.5421   23.0845  -26.6433 H   0  0  0  0  0  0  0  0  0  0  0  0
   -4.4731   23.2476  -28.1708 H   0  0  0  0  0  0  0  0  0  0  0  0
   -2.8883   22.4019  -28.1708 H   0  0  0  0  0  0  0  0  0  0  0  0
   -3.5169   25.3130  -28.2575 H   0  0  0  0  0  0  0  0  0  0  0  0
   -2.1802   24.8272  -27.1260 H   0  0  0  0  0  0  0  0  0  0  0  0
   -2.3780   24.2950  -30.0240 H   0  0  0  0  0  0  0  0  0  0  0  0
    0.1671   23.7778  -29.2877 H   0  0  0  0  0  0  0  0  0  0  0  0
   -0.8720   22.9852  -28.0089 H   0  0  0  0  0  0  0  0  0  0  0  0
   -0.1634   21.6210  -30.1504 H   0  0  0  0  0  0  0  0  0  0  0  0
   -1.8328   21.5004  -29.5054 H   0  0  0  0  0  0  0  0  0  0  0  0
   -2.1990   21.3842  -32.7120 H   0  0  0  0  0  0  0  0  0  0  0  0
   -2.6530   20.8760  -31.0609 H   0  0  0  0  0  0  0  0  0  0  0  0
   -3.8448   23.0831  -32.7924 H   0  0  0  0  0  0  0  0  0  0  0  0
   -4.6713   21.7104  -31.9404 H   0  0  0  0  0  0  0  0  0  0  0  0
   -6.3368   25.9746  -30.9133 H   0  0  0  0  0  0  0  0  0  0  0  0
   -6.4560   24.4862  -31.9468 H   0  0  0  0  0  0  0  0  0  0  0  0
   -6.4202   24.3184  -28.9127 H   0  0  0  0  0  0  0  0  0  0  0  0
   -7.9430   24.6030  -29.8315 H   0  0  0  0  0  0  0  0  0  0  0  0
   -6.0700   22.3760  -30.4300 H   0  0  0  0  0  0  0  0  0  0  0  0
   -8.9724   22.5660  -30.9612 H   0  0  0  0  0  0  0  0  0  0  0  0
   -7.7326   23.1710  -32.1136 H   0  0  0  0  0  0  0  0  0  0  0  0
   -9.3151   20.2299  -30.5940 H   0  0  0  0  0  0  0  0  0  0  0  0
   -8.9963   17.9018  -31.4231 H   0  0  0  0  0  0  0  0  0  0  0  0
   -7.8242   16.3129  -32.8689 H   0  0  0  0  0  0  0  0  0  0  0  0
   -6.0671   15.8414  -34.5731 H   0  0  0  0  0  0  0  0  0  0  0  0
   -4.5815   17.6715  -35.3864 H   0  0  0  0  0  0  0  0  0  0  0  0
   -4.8518   19.9924  -34.5078 H   0  0  0  0  0  0  0  0  0  0  0  0
   -6.0224   21.5836  -33.0620 H   0  0  0  0  0  0  0  0  0  0  0  0
  1  2  1  0
  2  3  1  0
  3  4  1  0
  4  5  1  0
  5  6  1  0
  6  7  1  0
  7  8  1  0
  8  9  1  0
  9 10  1  0
 10 11  2  0
 10 12  1  0
 12 13  1  0
 13 14  1  0
 14 15  1  0
 15 16  1  0
 16 17  2  0
 17 18  1  0
 18 19  2  0
 19 20  1  0
 20 21  2  0
 21 22  1  0
 22 23  2  0
 23 24  1  0
 24 25  2  0
 25 16  1  0
 24 19  1  0
  1 26  1  0
  1 27  1  0
  1 28  1  0
  2 29  1  0
  2 30  1  0
  3 31  1  0
  4 32  1  0
  4 33  1  0
  5 34  1  0
  5 35  1  0
  7 36  1  0
  7 37  1  0
  8 38  1  0
  8 39  1  0
 12 40  1  0
 12 41  1  0
 13 42  1  0
 13 43  1  0
 14 44  1  0
 15 45  1  0
 15 46  1  0
 17 47  1  0
 18 48  1  0
 20 49  1  0
 21 50  1  0
 22 51  1  0
 23 52  1  0
 25 53  1  0
M  CHG  1   9  -1
M  END
>  <UniqueID>  (2) 
2

>  <SMILES>  (2) 
CCNCCOCC[N-]C(=O)CCNCc1ccc2ccccc2c1

>  <Energy>  (2) 
49.30680424749027

>  <Genealogy>  (2) 
CCNCCOCC[N-]C(=O)CCNCc1ccc2ccccc2c1 (protonated)
CCNCCOCC[N-]C(=O)CCNCc1ccc2ccccc2c1 (3D coordinates assigned)
CCNCCOCC[N-]C(=O)CCNCc1ccc2ccccc2c1 (optimized conformer: 49.30680424749027 kcal/mol)

>  <smiles>  (2) 
CCNCCOCCNC(=O)CCNCc1ccc2ccccc2c1

>  <score_type>  (2) 
oracle

>  <origin>  (2) 
adg

>  <m_score__min__energy>  (2) 
-9.8599999999999994

>  <m_primary>  (2) 
energy

$$$$
2:0
     RDKit          3D

 62 65  0  0  0  0  0  0  0  0999 V2000
   -3.8270   22.1820  -27.8140 C   0  0  0  0  0  0  0  0  0  0  0  0
   -4.6260   22.8980  -28.9140 C   0  0  0  0  0  0  0  0  0  0  0  0
   -3.8070   23.4790  -30.0100 N   0  0  0  0  0  0  0  0  0  0  0  0
   -4.1270   24.8620  -30.4280 C   0  0  0  0  0  0  0  0  0  0  0  0
   -5.6220   25.1390  -30.2890 C   0  0  0  0  0  0  0  0  0  0  0  0
   -2.3580   23.1920  -29.9240 C   0  0  0  0  0  0  0  0  0  0  0  0
   -1.8380   22.3040  -31.0640 C   0  0  0  0  0  0  0  0  0  0  0  0
   -2.8140   22.2380  -32.1530 N   0  0  0  0  0  0  0  0  0  0  0  0
   -3.1180   21.0000  -32.8150 C   0  0  0  0  0  0  0  0  0  0  0  0
   -4.4440   20.5190  -32.8600 C   0  0  0  0  0  0  0  0  0  0  0  0
   -4.6850   19.2280  -33.3900 C   0  0  0  0  0  0  0  0  0  0  0  0
   -3.6270   18.4190  -33.7550 N   0  0  0  0  0  0  0  0  0  0  0  0
   -3.8320   16.9660  -33.9330 C   0  0  0  0  0  0  0  0  0  0  0  0
   -2.3650   18.9580  -33.9070 C   0  0  0  0  0  0  0  0  0  0  0  0
   -1.3210   18.2430  -34.5440 C   0  0  0  0  0  0  0  0  0  0  0  0
   -0.0470   18.7930  -34.6750 C   0  0  0  0  0  0  0  0  0  0  0  0
    0.2230   20.0820  -34.2040 C   0  0  0  0  0  0  0  0  0  0  0  0
    1.5330   20.6630  -34.3140 N   0  0  0  0  0  0  0  0  0  0  0  0
    1.8140   21.8960  -34.9950 C   0  0  0  0  0  0  0  0  0  0  0  0
    3.2300   22.3190  -35.2080 C   0  0  0  0  0  0  0  0  0  0  0  0
    0.8770   22.6630  -35.3500 O   0  0  0  0  0  0  0  0  0  0  0  0
   -0.7960   20.8030  -33.5730 C   0  0  0  0  0  0  0  0  0  0  0  0
   -2.0900   20.2610  -33.4260 C   0  0  0  0  0  0  0  0  0  0  0  0
   -6.1070   18.7900  -33.5560 C   0  0  0  0  0  0  0  0  0  0  0  0
   -6.4090   17.8970  -34.3930 O   0  0  0  0  0  0  0  0  0  0  0  0
   -7.1850   19.4680  -32.8090 C   0  0  0  0  0  0  0  0  0  0  0  0
   -8.4660   18.8990  -32.7150 C   0  0  0  0  0  0  0  0  0  0  0  0
   -9.4830   19.5620  -32.0230 C   0  0  0  0  0  0  0  0  0  0  0  0
   -9.2320   20.7980  -31.4270 C   0  0  0  0  0  0  0  0  0  0  0  0
   -7.9630   21.3760  -31.5200 C   0  0  0  0  0  0  0  0  0  0  0  0
   -6.9310   20.7150  -32.2110 C   0  0  0  0  0  0  0  0  0  0  0  0
   -5.5920   21.3260  -32.3450 C   0  0  0  0  0  0  0  0  0  0  0  0
   -5.4430   22.5410  -32.0400 O   0  0  0  0  0  0  0  0  0  0  0  0
   -4.1892   22.5066  -26.8274 H   0  0  0  0  0  0  0  0  0  0  0  0
   -3.9593   21.0945  -27.9136 H   0  0  0  0  0  0  0  0  0  0  0  0
   -2.7605   22.4323  -27.9136 H   0  0  0  0  0  0  0  0  0  0  0  0
   -5.3226   22.1713  -29.3574 H   0  0  0  0  0  0  0  0  0  0  0  0
   -5.1298   23.7450  -28.4253 H   0  0  0  0  0  0  0  0  0  0  0  0
   -3.5692   25.5680  -29.7953 H   0  0  0  0  0  0  0  0  0  0  0  0
   -3.8424   24.9858  -31.4833 H   0  0  0  0  0  0  0  0  0  0  0  0
   -5.8882   25.1883  -29.2228 H   0  0  0  0  0  0  0  0  0  0  0  0
   -5.8638   26.0972  -30.7720 H   0  0  0  0  0  0  0  0  0  0  0  0
   -6.1911   24.3310  -30.7720 H   0  0  0  0  0  0  0  0  0  0  0  0
   -1.8123   24.1467  -29.9504 H   0  0  0  0  0  0  0  0  0  0  0  0
   -2.1935   22.6416  -28.9859 H   0  0  0  0  0  0  0  0  0  0  0  0
   -0.8962   22.7232  -31.4478 H   0  0  0  0  0  0  0  0  0  0  0  0
   -1.6723   21.2886  -30.6747 H   0  0  0  0  0  0  0  0  0  0  0  0
   -3.2470   23.1210  -32.5060 H   0  0  0  0  0  0  0  0  0  0  0  0
   -3.9003   16.4819  -32.9476 H   0  0  0  0  0  0  0  0  0  0  0  0
   -4.7635   16.7929  -34.4919 H   0  0  0  0  0  0  0  0  0  0  0  0
   -2.9848   16.5419  -34.4919 H   0  0  0  0  0  0  0  0  0  0  0  0
   -1.5191   17.2368  -34.9419 H   0  0  0  0  0  0  0  0  0  0  0  0
    0.7529   18.2083  -35.1529 H   0  0  0  0  0  0  0  0  0  0  0  0
    2.3150   20.2180  -33.7810 H   0  0  0  0  0  0  0  0  0  0  0  0
    3.7195   22.4652  -34.2338 H   0  0  0  0  0  0  0  0  0  0  0  0
    3.7639   21.5411  -35.7736 H   0  0  0  0  0  0  0  0  0  0  0  0
    3.2498   23.2623  -35.7736 H   0  0  0  0  0  0  0  0  0  0  0  0
   -0.5846   21.8102  -33.1846 H   0  0  0  0  0  0  0  0  0  0  0  0
   -8.6694   17.9271  -33.1883 H   0  0  0  0  0  0  0  0  0  0  0  0
  -10.4825   19.1088  -31.9482 H   0  0  0  0  0  0  0  0  0  0  0  0
  -10.0340   21.3184  -30.8831 H   0  0  0  0  0  0  0  0  0  0  0  0
   -7.7702   22.3521  -31.0509 H   0  0  0  0  0  0  0  0  0  0  0  0
  1  2  1  0
  2  3  1  0
  3  4  1  0
  4  5  1  0
  3  6  1  0
  6  7  1  0
  7  8  1  0
  8  9  1  0
  9 10  2  0
 10 11  1  0
 11 12  2  0
 12 13  1  0
 12 14  1  0
 14 15  2  0
 15 16  1  0
 16 17  2  0
 17 18  1  0
 18 19  1  0
 19 20  1  0
 19 21  2  0
 17 22  1  0
 22 23  2  0
 11 24  1  0
 24 25  2  0
 24 26  1  0
 26 27  2  0
 27 28  1  0
 28 29  2  0
 29 30  1  0
 30 31  2  0
 31 32  1  0
 32 33  2  0
 23  9  1  0
 31 26  1  0
 32 10  1  0
 23 14  1  0
  1 34  1  0
  1 35  1  0
  1 36  1  0
  2 37  1  0
  2 38  1  0
  4 39  1  0
  4 40  1  0
  5 41  1  0
  5 42  1  0
  5 43  1  0
  6 44  1  0
  6 45  1  0
  7 46  1  0
  7 47  1  0
  8 48  1  0
 13 49  1  0
 13 50  1  0
 13 51  1  0
 15 52  1  0
 16 53  1  0
 18 54  1  0
 20 55  1  0
 20 56  1  0
 20 57  1  0
 22 58  1  0
 27 59  1  0
 28 60  1  0
 29 61  1  0
 30 62  1  0
M  CHG  1  12   1
M  END
>  <UniqueID>  (3) 
3

>  <SMILES>  (3) 
CCN(CC)CCNc1c2c([n+](C)c3ccc(NC(C)=O)cc13)C(=O)c1ccccc1C2=O

>  <Energy>  (3) 
102.18705175484706

>  <Genealogy>  (3) 
CCN(CC)CCNc1c2c([n+](C)c3ccc(NC(C)=O)cc13)C(=O)c1ccccc1C2=O (3D coordinates assigned)
CCN(CC)CCNc1c2c([n+](C)c3ccc(NC(C)=O)cc13)C(=O)c1ccccc1C2=O (nonaromatic ring conformer: 102.18705175484706 kcal/mol)

>  <smiles>  (3) 
CCN(CC)CCNc1c2c([n+](C)c3ccc(NC(C)=O)cc13)C(=O)c1ccccc1C2=O

>  <score_type>  (3) 
oracle

>  <origin>  (3) 
adg

>  <m_score__min__energy>  (3) 
-9.6699999999999999

>  <m_primary>  (3) 
energy

$$$$
3:0
     RDKit          3D

 57 57  0  0  0  0  0  0  0  0999 V2000
   -6.8620   17.8240  -31.8790 C   0  0  0  0  0  0  0  0  0  0  0  0
   -6.0770   19.0920  -31.5730 C   0  0  0  0  0  0  0  0  0  0  0  0
   -6.8040   20.2710  -32.1020 N   0  0  0  0  0  0  0  0  0  0  0  0
   -7.2240   20.0480  -33.4980 C   0  0  0  0  0  0  0  0  0  0  0  0
   -7.9680   20.6490  -31.2610 C   0  0  0  0  0  0  0  0  0  0  0  0
   -7.9090   22.1300  -30.8690 C   0  0  0  0  0  0  0  0  0  0  0  0
   -6.6320   22.4390  -30.3490 O   0  0  0  0  0  0  0  0  0  0  0  0
   -6.6560   23.7070  -29.7310 C   0  0  0  0  0  0  0  0  0  0  0  0
   -6.0740   24.7360  -30.6920 C   0  0  0  0  0  0  0  0  0  0  0  0
   -4.9830   24.1580  -31.3860 O   0  0  0  0  0  0  0  0  0  0  0  0
   -5.4140   23.4210  -32.5160 C   0  0  0  0  0  0  0  0  0  0  0  0
   -4.9840   22.0150  -32.4260 N   0  0  0  0  0  0  0  0  0  0  0  0
   -3.5130   21.8770  -32.2950 C   0  0  0  0  0  0  0  0  0  0  0  0
   -3.0460   21.6830  -30.8340 C   0  0  2  0  0  0  0  0  0  0  0  0
   -4.1610   21.7000  -29.9840 O   0  0  0  0  0  0  0  0  0  0  0  0
   -2.0410   22.7580  -30.3740 C   0  0  0  0  0  0  0  0  0  0  0  0
   -2.6940   23.8920  -29.8000 O   0  0  0  0  0  0  0  0  0  0  0  0
   -2.3220   24.5670  -28.6250 C   0  0  0  0  0  0  0  0  0  0  0  0
   -1.2330   25.4620  -28.5800 C   0  0  0  0  0  0  0  0  0  0  0  0
   -0.8900   26.0970  -27.3850 C   0  0  0  0  0  0  0  0  0  0  0  0
   -1.6270   25.8540  -26.2250 C   0  0  0  0  0  0  0  0  0  0  0  0
   -2.7110   24.9770  -26.2560 C   0  0  0  0  0  0  0  0  0  0  0  0
   -3.0760   24.3420  -27.4550 C   0  0  0  0  0  0  0  0  0  0  0  0
   -4.2310   23.3790  -27.4680 C   0  0  0  0  0  0  0  0  0  0  0  0
   -7.1608   17.3414  -30.9368 H   0  0  0  0  0  0  0  0  0  0  0  0
   -7.7599   18.0800  -32.4607 H   0  0  0  0  0  0  0  0  0  0  0  0
   -6.2326   17.1345  -32.4607 H   0  0  0  0  0  0  0  0  0  0  0  0
   -5.9579   19.1943  -30.4843 H   0  0  0  0  0  0  0  0  0  0  0  0
   -5.0873   19.0310  -32.0492 H   0  0  0  0  0  0  0  0  0  0  0  0
   -8.1955   19.5322  -33.5107 H   0  0  0  0  0  0  0  0  0  0  0  0
   -7.3161   21.0160  -34.0123 H   0  0  0  0  0  0  0  0  0  0  0  0
   -6.4737   19.4295  -34.0123 H   0  0  0  0  0  0  0  0  0  0  0  0
   -8.8939   20.4634  -31.8251 H   0  0  0  0  0  0  0  0  0  0  0  0
   -7.9463   20.0438  -30.3427 H   0  0  0  0  0  0  0  0  0  0  0  0
   -8.1012   22.7503  -31.7569 H   0  0  0  0  0  0  0  0  0  0  0  0
   -8.6712   22.3324  -30.1021 H   0  0  0  0  0  0  0  0  0  0  0  0
   -7.6932   23.9777  -29.4840 H   0  0  0  0  0  0  0  0  0  0  0  0
   -6.0605   23.6821  -28.8065 H   0  0  0  0  0  0  0  0  0  0  0  0
   -6.8460   25.0455  -31.4119 H   0  0  0  0  0  0  0  0  0  0  0  0
   -5.7301   25.6159  -30.1285 H   0  0  0  0  0  0  0  0  0  0  0  0
   -6.5119   23.4583  -32.5721 H   0  0  0  0  0  0  0  0  0  0  0  0
   -4.9662   23.8670  -33.4163 H   0  0  0  0  0  0  0  0  0  0  0  0
   -5.3450   21.5020  -33.2640 H   0  0  0  0  0  0  0  0  0  0  0  0
   -5.4450   21.5750  -31.5950 H   0  0  0  0  0  0  0  0  0  0  0  0
   -3.1900   21.0057  -32.8837 H   0  0  0  0  0  0  0  0  0  0  0  0
   -3.0637   22.8124  -32.6598 H   0  0  0  0  0  0  0  0  0  0  0  0
   -2.5286   20.7134  -30.7870 H   0  0  0  0  0  0  0  0  0  0  0  0
   -4.4910   22.6360  -29.9550 H   0  0  0  0  0  0  0  0  0  0  0  0
   -1.3690   22.3174  -29.6228 H   0  0  0  0  0  0  0  0  0  0  0  0
   -1.4816   23.0997  -31.2574 H   0  0  0  0  0  0  0  0  0  0  0  0
   -0.6506   25.6609  -29.4917 H   0  0  0  0  0  0  0  0  0  0  0  0
   -0.0367   26.7906  -27.3576 H   0  0  0  0  0  0  0  0  0  0  0  0
   -1.3525   26.3549  -25.2849 H   0  0  0  0  0  0  0  0  0  0  0  0
   -3.2831   24.7815  -25.3371 H   0  0  0  0  0  0  0  0  0  0  0  0
   -4.5195   23.1385  -26.4341 H   0  0  0  0  0  0  0  0  0  0  0  0
   -5.0843   23.8369  -27.9897 H   0  0  0  0  0  0  0  0  0  0  0  0
   -3.9340   22.4572  -27.9897 H   0  0  0  0  0  0  0  0  0  0  0  0
  1  2  1  0
  2  3  1  0
  3  4  1  0
  3  5  1  0
  5  6  1  0
  6  7  1  0
  7  8  1  0
  8  9  1  0
  9 10  1  0
 10 11  1  0
 11 12  1  0
 12 13  1  0
 13 14  1  0
 14 15  1  0
 14 16  1  0
 16 17  1  0
 17 18  1  0
 18 19  2  0
 19 20  1  0
 20 21  2  0
 21 22  1  0
 22 23  2  0
 23 24  1  0
 23 18  1  0
  1 25  1  0
  1 26  1  0
  1 27  1  0
  2 28  1  0
  2 29  1  0
  4 30  1  0
  4 31  1  0
  4 32  1  0
  5 33  1  0
  5 34  1  0
  6 35  1  0
  6 36  1  0
  8 37  1  0
  8 38  1  0
  9 39  1  0
  9 40  1  0
 11 41  1  0
 11 42  1  0
 12 43  1  0
 12 44  1  0
 13 45  1  0
 13 46  1  0
 14 47  1  6
 15 48  1  0
 16 49  1  0
 16 50  1  0
 19 51  1  0
 20 52  1  0
 21 53  1  0
 22 54  1  0
 24 55  1  0
 24 56  1  0
 24 57  1  0
M  CHG  1  12   1
M  END
>  <UniqueID>  (4) 
4

>  <SMILES>  (4) 
CCN(C)CCOCCOC[NH2+]C[C@H](O)COc1ccccc1C

>  <Energy>  (4) 
54.85213196904807

>  <Genealogy>  (4) 
CCN(C)CCOCCOC[NH2+]CC(O)COc1ccccc1C (protonated)
CCN(C)CCOCCOC[NH2+]C[C@H](O)COc1ccccc1C (chirality)
CCN(C)CCOCCOC[NH2+]C[C@H](O)COc1ccccc1C (3D coordinates assigned)
CCN(C)CCOCCOC[NH2+]C[C@H](O)COc1ccccc1C (optimized conformer: 54.85213196904807 kcal/mol)

>  <smiles>  (4) 
CCN(C)CCOCCOCNCC(O)COc1ccccc1C

>  <score_type>  (4) 
oracle

>  <origin>  (4) 
adg

>  <m_score__min__energy>  (4) 
-7.0800000000000001

>  <m_primary>  (4) 
energy

$$$$
4:0
     RDKit          3D

 51 53  0  0  0  0  0  0  0  0999 V2000
   -8.6960   21.9090  -31.2220 C   0  0  0  0  0  0  0  0  0  0  0  0
   -8.3300   23.2950  -31.7440 C   0  0  0  0  0  0  0  0  0  0  0  0
   -6.9890   23.7320  -31.2080 C   0  0  0  0  0  0  0  0  0  0  0  0
   -6.9120   24.8440  -30.3540 C   0  0  0  0  0  0  0  0  0  0  0  0
   -5.6850   25.2480  -29.8250 C   0  0  0  0  0  0  0  0  0  0  0  0
   -4.5190   24.5440  -30.1310 C   0  0  0  0  0  0  0  0  0  0  0  0
   -4.5740   23.4170  -30.9710 C   0  0  0  0  0  0  0  0  0  0  0  0
   -3.4230   22.6750  -31.2930 C   0  0  0  0  0  0  0  0  0  0  0  0
   -2.2960   23.0110  -30.8320 O   0  0  0  0  0  0  0  0  0  0  0  0
   -3.5410   21.5530  -32.1310 C   0  0  0  0  0  0  0  0  0  0  0  0
   -2.4330   20.7660  -32.4890 C   0  0  0  0  0  0  0  0  0  0  0  0
   -2.5970   19.6570  -33.3250 C   0  0  0  0  0  0  0  0  0  0  0  0
   -3.8720   19.3170  -33.8140 C   0  0  0  0  0  0  0  0  0  0  0  0
   -4.0860   18.2130  -34.6520 O   0  0  0  0  0  0  0  0  0  0  0  0
   -5.3610   17.7960  -35.1320 C   0  0  0  0  0  0  0  0  0  0  0  0
   -6.0930   16.9470  -34.0740 C   0  0  0  0  0  0  0  0  0  0  0  0
   -5.4320   16.8750  -32.7400 N   0  0  0  0  0  0  0  0  0  0  0  0
   -4.9900   15.4900  -32.4220 C   0  0  0  0  0  0  0  0  0  0  0  0
   -3.6340   15.1450  -33.0500 C   0  0  0  0  0  0  0  0  0  0  0  0
   -6.2500   17.4380  -31.6330 C   0  0  0  0  0  0  0  0  0  0  0  0
   -7.4870   18.2000  -32.1260 C   0  0  0  0  0  0  0  0  0  0  0  0
   -4.9750   20.1000  -33.4570 C   0  0  0  0  0  0  0  0  0  0  0  0
   -4.8200   21.2110  -32.6230 C   0  0  0  0  0  0  0  0  0  0  0  0
   -5.8830   21.9380  -32.2980 O   0  0  0  0  0  0  0  0  0  0  0  0
   -5.8170   23.0080  -31.5090 C   0  0  0  0  0  0  0  0  0  0  0  0
   -8.6934   21.9190  -30.1220 H   0  0  0  0  0  0  0  0  0  0  0  0
   -9.6976   21.6336  -31.5838 H   0  0  0  0  0  0  0  0  0  0  0  0
   -7.9609   21.1750  -31.5838 H   0  0  0  0  0  0  0  0  0  0  0  0
   -8.2875   23.2670  -32.8428 H   0  0  0  0  0  0  0  0  0  0  0  0
   -9.0944   24.0114  -31.4087 H   0  0  0  0  0  0  0  0  0  0  0  0
   -7.8258   25.4011  -30.0999 H   0  0  0  0  0  0  0  0  0  0  0  0
   -5.6366   26.1256  -29.1636 H   0  0  0  0  0  0  0  0  0  0  0  0
   -3.5550   24.8713  -29.7143 H   0  0  0  0  0  0  0  0  0  0  0  0
   -1.4329   21.0234  -32.1101 H   0  0  0  0  0  0  0  0  0  0  0  0
   -1.7245   19.0470  -33.6019 H   0  0  0  0  0  0  0  0  0  0  0  0
   -5.9671   18.6841  -35.3642 H   0  0  0  0  0  0  0  0  0  0  0  0
   -5.2153   17.1852  -36.0352 H   0  0  0  0  0  0  0  0  0  0  0  0
   -7.0969   17.3738  -33.9323 H   0  0  0  0  0  0  0  0  0  0  0  0
   -6.0996   15.9184  -34.4638 H   0  0  0  0  0  0  0  0  0  0  0  0
   -4.5720   17.4710  -32.8220 H   0  0  0  0  0  0  0  0  0  0  0  0
   -4.9085   15.3882  -31.3298 H   0  0  0  0  0  0  0  0  0  0  0  0
   -5.7363   14.7980  -32.8394 H   0  0  0  0  0  0  0  0  0  0  0  0
   -2.8983   14.9578  -32.2540 H   0  0  0  0  0  0  0  0  0  0  0  0
   -3.7370   14.2445  -33.6732 H   0  0  0  0  0  0  0  0  0  0  0  0
   -3.2941   15.9853  -33.6732 H   0  0  0  0  0  0  0  0  0  0  0  0
   -6.5822   16.6114  -30.9878 H   0  0  0  0  0  0  0  0  0  0  0  0
   -5.6175   18.1557  -31.0901 H   0  0  0  0  0  0  0  0  0  0  0  0
   -8.0664   18.5569  -31.2617 H   0  0  0  0  0  0  0  0  0  0  0  0
   -7.1697   19.0594  -32.7349 H   0  0  0  0  0  0  0  0  0  0  0  0
   -8.1118   17.5300  -32.7349 H   0  0  0  0  0  0  0  0  0  0  0  0
   -5.9740   19.8388  -33.8363 H   0  0  0  0  0  0  0  0  0  0  0  0
  1  2  1  0
  2  3  1  0
  3  4  2  0
  4  5  1  0
  5  6  2  0
  6  7  1  0
  7  8  1  0
  8  9  2  0
  8 10  1  0
 10 11  2  0
 11 12  1  0
 12 13  2  0
 13 14  1  0
 14 15  1  0
 15 16  1  0
 16 17  1  0
 17 18  1  0
 18 19  1  0
 17 20  1  0
 20 21  1  0
 13 22  1  0
 22 23  2  0
 23 24  1  0
 24 25  1  0
 25  3  1  0
 25  7  2  0
 23 10  1  0
  1 26  1  0
  1 27  1  0
  1 28  1  0
  2 29  1  0
  2 30  1  0
  4 31  1  0
  5 32  1  0
  6 33  1  0
 11 34  1  0
 12 35  1  0
 15 36  1  0
 15 37  1  0
 16 38  1  0
 16 39  1  0
 17 40  1  0
 18 41  1  0
 18 42  1  0
 19 43  1  0
 19 44  1  0
 19 45  1  0
 20 46  1  0
 20 47  1  0
 21 48  1  0
 21 49  1  0
 21 50  1  0
 22 51  1  0
M  CHG  1  17   1
M  END
>  <UniqueID>  (5) 
5

>  <SMILES>  (5) 
CCc1cccc2c(=O)c3ccc(OCC[NH+](CC)CC)cc3oc12

>  <Energy>  (5) 
60.38657057307481

>  <Genealogy>  (5) 
CCc1cccc2c(=O)c3ccc(OCC[NH+](CC)CC)cc3oc12 (protonated)
CCc1cccc2c(=O)c3ccc(OCC[NH+](CC)CC)cc3oc12 (3D coordinates assigned)
CCc1cccc2c(=O)c3ccc(OCC[NH+](CC)CC)cc3oc12 (optimized conformer: 60.38657057307481 kcal/mol)

>  <smiles>  (5) 
CCc1cccc2c(=O)c3ccc(OCCN(CC)CC)cc3oc12

>  <score_type>  (5) 
oracle

>  <origin>  (5) 
adg

>  <m_score__min__energy>  (5) 
-7.8600000000000003

>  <m_primary>  (5) 
energy

$$$$
5:0
     RDKit          3D

 43 45  0  0  0  0  0  0  0  0999 V2000
   -9.4990   21.5490  -30.4700 C   0  0  0  0  0  0  0  0  0  0  0  0
   -9.3800   21.1960  -31.9460 C   0  0  0  0  0  0  0  0  0  0  0  0
   -8.0230   20.7080  -32.2660 N   0  0  0  0  0  0  0  0  0  0  0  0
   -6.9770   21.5860  -32.5100 C   0  0  0  0  0  0  0  0  0  0  0  0
   -7.1590   23.3750  -32.3360 S   0  0  0  0  0  0  0  0  0  0  0  0
   -6.2910   23.5250  -30.7270 C   0  0  0  0  0  0  0  0  0  0  0  0
   -5.3340   24.7230  -30.6670 C   0  0  0  0  0  0  0  0  0  0  0  0
   -3.9200   24.3230  -30.4900 N   0  0  0  0  0  0  0  0  0  0  0  0
   -3.6170   23.0310  -31.1490 C   0  0  0  0  0  0  0  0  0  0  0  0
   -2.2970   22.4300  -30.6260 C   0  0  0  0  0  0  0  0  0  0  0  0
   -1.4910   23.4350  -30.0460 O   0  0  0  0  0  0  0  0  0  0  0  0
   -2.1030   23.9240  -28.8640 C   0  0  0  0  0  0  0  0  0  0  0  0
   -3.6050   24.2310  -29.0520 C   0  0  0  0  0  0  0  0  0  0  0  0
   -5.7700   21.1150  -32.9410 N   0  0  0  0  0  0  0  0  0  0  0  0
   -5.5590   19.7850  -33.0710 C   0  0  0  0  0  0  0  0  0  0  0  0
   -6.5620   18.8950  -32.7730 C   0  0  0  0  0  0  0  0  0  0  0  0
   -6.0030   17.3250  -32.9960 S   0  0  0  0  0  0  0  0  0  0  0  0
   -4.4720   17.8640  -33.4720 C   0  0  0  0  0  0  0  0  0  0  0  0
   -3.2450   16.8510  -33.8610 S   0  0  0  0  0  0  0  0  0  0  0  0
   -4.3840   19.2240  -33.4730 N   0  0  0  0  0  0  0  0  0  0  0  0
   -3.1710   19.9820  -33.7940 C   0  0  0  0  0  0  0  0  0  0  0  0
   -7.8090   19.3500  -32.3690 C   0  0  0  0  0  0  0  0  0  0  0  0
   -8.7250   18.5200  -32.1140 O   0  0  0  0  0  0  0  0  0  0  0  0
   -9.2064   20.6812  -29.8607 H   0  0  0  0  0  0  0  0  0  0  0  0
   -8.8372   22.3974  -30.2414 H   0  0  0  0  0  0  0  0  0  0  0  0
  -10.5394   21.8236  -30.2414 H   0  0  0  0  0  0  0  0  0  0  0  0
  -10.1111   20.4106  -32.1881 H   0  0  0  0  0  0  0  0  0  0  0  0
   -9.5759   22.1011  -32.5396 H   0  0  0  0  0  0  0  0  0  0  0  0
   -7.0436   23.6384  -29.9328 H   0  0  0  0  0  0  0  0  0  0  0  0
   -5.6860   22.6158  -30.5954 H   0  0  0  0  0  0  0  0  0  0  0  0
   -5.4233   25.2907  -31.6049 H   0  0  0  0  0  0  0  0  0  0  0  0
   -5.6175   25.3282  -29.7933 H   0  0  0  0  0  0  0  0  0  0  0  0
   -4.4364   22.3254  -30.9474 H   0  0  0  0  0  0  0  0  0  0  0  0
   -3.5128   23.2090  -32.2295 H   0  0  0  0  0  0  0  0  0  0  0  0
   -2.5227   21.6650  -29.8685 H   0  0  0  0  0  0  0  0  0  0  0  0
   -1.7525   21.9799  -31.4691 H   0  0  0  0  0  0  0  0  0  0  0  0
   -1.9951   23.1671  -28.0731 H   0  0  0  0  0  0  0  0  0  0  0  0
   -1.6027   24.8666  -28.5970 H   0  0  0  0  0  0  0  0  0  0  0  0
   -4.2018   23.4261  -28.5982 H   0  0  0  0  0  0  0  0  0  0  0  0
   -3.8436   25.1885  -28.5660 H   0  0  0  0  0  0  0  0  0  0  0  0
   -2.6750   20.2919  -32.8624 H   0  0  0  0  0  0  0  0  0  0  0  0
   -2.4879   19.3498  -34.3803 H   0  0  0  0  0  0  0  0  0  0  0  0
   -3.4398   20.8731  -34.3803 H   0  0  0  0  0  0  0  0  0  0  0  0
  1  2  1  0
  2  3  1  0
  3  4  1  0
  4  5  1  0
  5  6  1  0
  6  7  1  0
  7  8  1  0
  8  9  1  0
  9 10  1  0
 10 11  1  0
 11 12  1  0
 12 13  1  0
  4 14  2  0
 14 15  1  0
 15 16  2  0
 16 17  1  0
 17 18  1  0
 18 19  2  0
 18 20  1  0
 20 21  1  0
 16 22  1  0
 22 23  2  0
 22  3  1  0
 13  8  1  0
 20 15  1  0
  1 24  1  0
  1 25  1  0
  1 26  1  0
  2 27  1  0
  2 28  1  0
  6 29  1  0
  6 30  1  0
  7 31  1  0
  7 32  1  0
  9 33  1  0
  9 34  1  0
 10 35  1  0
 10 36  1  0
 12 37  1  0
 12 38  1  0
 13 39  1  0
 13 40  1  0
 21 41  1  0
 21 42  1  0
 21 43  1  0
M  END
>  <UniqueID>  (6) 
6

>  <SMILES>  (6) 
CCn1c(SCCN2CCOCC2)nc2c(sc(=S)n2C)c1=O

>  <Energy>  (6) 
91.00867904120025

>  <Genealogy>  (6) 
CCn1c(SCCN2CCOCC2)nc2c(sc(=S)n2C)c1=O (3D coordinates assigned)
CCn1c(SCCN2CCOCC2)nc2c(sc(=S)n2C)c1=O (nonaromatic ring conformer: 91.00867904120025 kcal/mol)

>  <smiles>  (6) 
CCn1c(SCCN2CCOCC2)nc2c(sc(=S)n2C)c1=O

>  <score_type>  (6) 
oracle

>  <origin>  (6) 
adg

>  <m_score__min__energy>  (6) 
-8.1400000000000006

>  <m_primary>  (6) 
energy

$$$$
6:0
     RDKit          3D

 49 51  0  0  0  0  0  0  0  0999 V2000
   -5.0720   18.1220  -34.9590 C   0  0  0  0  0  0  0  0  0  0  0  0
   -5.9690   18.3730  -33.7830 C   0  0  0  0  0  0  0  0  0  0  0  0
   -6.8250   17.3840  -33.4030 N   0  0  0  0  0  0  0  0  0  0  0  0
   -7.6830   17.5240  -32.3590 C   0  0  0  0  0  0  0  0  0  0  0  0
   -7.7100   18.7140  -31.6360 C   0  0  0  0  0  0  0  0  0  0  0  0
   -6.8510   19.7510  -31.9940 C   0  0  0  0  0  0  0  0  0  0  0  0
   -5.9630   19.6000  -33.0710 C   0  0  0  0  0  0  0  0  0  0  0  0
   -5.0450   20.7510  -33.4180 C   0  0  0  0  0  0  0  0  0  0  0  0
   -3.6280   20.3570  -33.2460 N   0  0  0  0  0  0  0  0  0  0  0  0
   -2.6900   21.5040  -33.3210 C   0  0  0  0  0  0  0  0  0  0  0  0
   -2.3660   22.1190  -31.9440 C   0  0  0  0  0  0  0  0  0  0  0  0
   -3.4700   21.8620  -31.0030 N   0  0  0  0  0  0  0  0  0  0  0  0
   -3.3090   22.6230  -29.7460 C   0  0  0  0  0  0  0  0  0  0  0  0
   -3.1110   24.1130  -30.0470 C   0  0  0  0  0  0  0  0  0  0  0  0
   -4.2450   24.6440  -30.7320 O   0  0  0  0  0  0  0  0  0  0  0  0
   -5.4720   23.9850  -30.9130 C   0  0  0  0  0  0  0  0  0  0  0  0
   -6.2550   23.5160  -29.8380 C   0  0  0  0  0  0  0  0  0  0  0  0
   -7.4680   22.8650  -30.0810 C   0  0  0  0  0  0  0  0  0  0  0  0
   -7.9130   22.6720  -31.3940 C   0  0  0  0  0  0  0  0  0  0  0  0
   -9.1630   22.0010  -31.6430 C   0  0  0  0  0  0  0  0  0  0  0  0
  -10.1670   21.4610  -31.8420 N   0  0  0  0  0  0  0  0  0  0  0  0
   -7.1380   23.1320  -32.4650 C   0  0  0  0  0  0  0  0  0  0  0  0
   -5.9250   23.7840  -32.2230 C   0  0  0  0  0  0  0  0  0  0  0  0
   -3.5870   20.4130  -30.7340 C   0  0  0  0  0  0  0  0  0  0  0  0
   -3.4190   19.5670  -32.0170 C   0  0  0  0  0  0  0  0  0  0  0  0
   -4.0699   17.8416  -34.6025 H   0  0  0  0  0  0  0  0  0  0  0  0
   -5.4862   17.3053  -35.5684 H   0  0  0  0  0  0  0  0  0  0  0  0
   -5.0022   19.0351  -35.5684 H   0  0  0  0  0  0  0  0  0  0  0  0
   -8.3559   16.6981  -32.0850 H   0  0  0  0  0  0  0  0  0  0  0  0
   -8.4030   18.8341  -30.7902 H   0  0  0  0  0  0  0  0  0  0  0  0
   -6.8687   20.6946  -31.4289 H   0  0  0  0  0  0  0  0  0  0  0  0
   -5.2140   21.0455  -34.4643 H   0  0  0  0  0  0  0  0  0  0  0  0
   -5.2630   21.5939  -32.7457 H   0  0  0  0  0  0  0  0  0  0  0  0
   -1.7513   21.1579  -33.7783 H   0  0  0  0  0  0  0  0  0  0  0  0
   -3.1794   22.2862  -33.9199 H   0  0  0  0  0  0  0  0  0  0  0  0
   -1.4419   21.6686  -31.5526 H   0  0  0  0  0  0  0  0  0  0  0  0
   -2.2341   23.2052  -32.0566 H   0  0  0  0  0  0  0  0  0  0  0  0
   -4.2088   22.4945  -29.1264 H   0  0  0  0  0  0  0  0  0  0  0  0
   -2.4253   22.2459  -29.2104 H   0  0  0  0  0  0  0  0  0  0  0  0
   -2.9729   24.6573  -29.1011 H   0  0  0  0  0  0  0  0  0  0  0  0
   -2.2242   24.2298  -30.6873 H   0  0  0  0  0  0  0  0  0  0  0  0
   -5.9098   23.6630  -28.8040 H   0  0  0  0  0  0  0  0  0  0  0  0
   -8.0747   22.5033  -29.2377 H   0  0  0  0  0  0  0  0  0  0  0  0
   -7.4836   22.9804  -33.4982 H   0  0  0  0  0  0  0  0  0  0  0  0
   -5.3208   24.1425  -33.0694 H   0  0  0  0  0  0  0  0  0  0  0  0
   -2.8086   20.1223  -30.0132 H   0  0  0  0  0  0  0  0  0  0  0  0
   -4.5937   20.2235  -30.3331 H   0  0  0  0  0  0  0  0  0  0  0  0
   -2.4011   19.1505  -32.0342 H   0  0  0  0  0  0  0  0  0  0  0  0
   -4.1803   18.7733  -31.9962 H   0  0  0  0  0  0  0  0  0  0  0  0
  1  2  1  0
  2  3  2  0
  3  4  1  0
  4  5  2  0
  5  6  1  0
  6  7  2  0
  7  8  1  0
  8  9  1  0
  9 10  1  0
 10 11  1  0
 11 12  1  0
 12 13  1  0
 13 14  1  0
 14 15  1  0
 15 16  1  0
 16 17  2  0
 17 18  1  0
 18 19  2  0
 19 20  1  0
 20 21  3  0
 19 22  1  0
 22 23  2  0
 12 24  1  0
 24 25  1  0
  7  2  1  0
 25  9  1  0
 23 16  1  0
  1 26  1  0
  1 27  1  0
  1 28  1  0
  4 29  1  0
  5 30  1  0
  6 31  1  0
  8 32  1  0
  8 33  1  0
 10 34  1  0
 10 35  1  0
 11 36  1  0
 11 37  1  0
 13 38  1  0
 13 39  1  0
 14 40  1  0
 14 41  1  0
 17 42  1  0
 18 43  1  0
 22 44  1  0
 23 45  1  0
 24 46  1  0
 24 47  1  0
 25 48  1  0
 25 49  1  0
M  END
>  <UniqueID>  (7) 
7

>  <SMILES>  (7) 
Cc1ncccc1CN1CCN(CCOc2ccc(C#N)cc2)CC1

>  <Energy>  (7) 
61.22406467143431

>  <Genealogy>  (7) 
Cc1ncccc1CN1CCN(CCOc2ccc(C#N)cc2)CC1 (3D coordinates assigned)
Cc1ncccc1CN1CCN(CCOc2ccc(C#N)cc2)CC1 (nonaromatic ring conformer: 61.22406467143431 kcal/mol)

>  <smiles>  (7) 
Cc1ncccc1CN1CCN(CCOc2ccc(C#N)cc2)CC1

>  <score_type>  (7) 
oracle

>  <origin>  (7) 
adg

>  <m_score__min__energy>  (7) 
-8.3000000000000007

>  <m_primary>  (7) 
energy

$$$$
7:0
     RDKit          3D

 74 77  0  0  0  0  0  0  0  0999 V2000
   -6.2580   25.6430  -29.6120 C   0  0  0  0  0  0  0  0  0  0  0  0
   -5.3880   25.6260  -30.8650 C   0  0  0  0  0  0  0  0  0  0  0  0
   -4.3770   24.5640  -30.7680 N   0  0  0  0  0  0  0  0  0  0  0  0
   -4.0870   24.2240  -29.3690 C   0  0  0  0  0  0  0  0  0  0  0  0
   -2.7610   23.4680  -29.2810 C   0  0  0  0  0  0  0  0  0  0  0  0
   -2.1920   23.3140  -30.5650 O   0  0  0  0  0  0  0  0  0  0  0  0
   -1.6110   22.0340  -30.7460 C   0  0  0  0  0  0  0  0  0  0  0  0
   -2.6570   21.0480  -31.2830 C   0  0  0  0  0  0  0  0  0  0  0  0
   -3.7370   21.7040  -32.0270 N   0  0  0  0  0  0  0  0  0  0  0  0
   -4.8670   20.9690  -32.5190 C   0  0  0  0  0  0  0  0  0  0  0  0
   -6.1650   21.3890  -32.1910 C   0  0  0  0  0  0  0  0  0  0  0  0
   -6.4060   22.6970  -31.7190 C   0  0  0  0  0  0  0  0  0  0  0  0
   -7.7050   23.1270  -31.4570 C   0  0  0  0  0  0  0  0  0  0  0  0
   -8.7780   22.2680  -31.6640 C   0  0  0  0  0  0  0  0  0  0  0  0
   -8.5560   20.9620  -32.1020 C   0  0  0  0  0  0  0  0  0  0  0  0
   -7.2430   20.4850  -32.3390 C   0  0  0  0  0  0  0  0  0  0  0  0
   -6.9940   19.1720  -32.6850 N   0  0  0  0  0  0  0  0  0  0  0  0
   -8.0330   18.1420  -32.4630 C   0  0  0  0  0  0  0  0  0  0  0  0
   -5.7630   18.8190  -33.2120 C   0  0  0  0  0  0  0  0  0  0  0  0
   -5.5400   17.5360  -33.7650 C   0  0  0  0  0  0  0  0  0  0  0  0
   -4.2880   17.1670  -34.2380 C   0  0  0  0  0  0  0  0  0  0  0  0
   -3.2510   18.0860  -34.2710 C   0  0  0  0  0  0  0  0  0  0  0  0
   -3.4420   19.4090  -33.8330 C   0  0  0  0  0  0  0  0  0  0  0  0
   -2.4570   20.4200  -34.1560 N   0  0  0  0  0  0  0  0  0  0  0  0
   -1.0090   20.1850  -34.1110 C   0  0  0  0  0  0  0  0  0  0  0  0
   -0.2600   20.8930  -35.2530 C   0  0  0  0  0  0  0  0  0  0  0  0
    0.8240   21.8840  -34.7850 C   0  0  0  0  0  0  0  0  0  0  0  0
    1.2850   22.7980  -35.8540 N   0  0  0  0  0  0  0  0  0  0  0  0
    2.5770   23.4270  -35.5010 C   0  0  0  0  0  0  0  0  0  0  0  0
    3.0310   24.3930  -36.6180 C   0  0  0  0  0  0  0  0  0  0  0  0
    2.0040   24.6750  -37.5520 O   0  0  0  0  0  0  0  0  0  0  0  0
    0.8250   25.0410  -36.8690 C   0  0  0  0  0  0  0  0  0  0  0  0
    0.2670   23.8540  -36.0580 C   0  0  0  0  0  0  0  0  0  0  0  0
   -4.6820   19.7500  -33.2030 C   0  0  0  0  0  0  0  0  0  0  0  0
   -5.6154   25.6304  -28.7193 H   0  0  0  0  0  0  0  0  0  0  0  0
   -6.8754   26.5534  -29.6066 H   0  0  0  0  0  0  0  0  0  0  0  0
   -6.9105   24.7574  -29.6066 H   0  0  0  0  0  0  0  0  0  0  0  0
   -6.0224   25.4442  -31.7451 H   0  0  0  0  0  0  0  0  0  0  0  0
   -4.8798   26.5968  -30.9617 H   0  0  0  0  0  0  0  0  0  0  0  0
   -3.4910   24.9210  -31.1950 H   0  0  0  0  0  0  0  0  0  0  0  0
   -4.0202   25.1478  -28.7755 H   0  0  0  0  0  0  0  0  0  0  0  0
   -4.8935   23.5872  -28.9765 H   0  0  0  0  0  0  0  0  0  0  0  0
   -2.0650   24.0314  -28.6420 H   0  0  0  0  0  0  0  0  0  0  0  0
   -2.9476   22.4719  -28.8532 H   0  0  0  0  0  0  0  0  0  0  0  0
   -0.7811   22.1100  -31.4640 H   0  0  0  0  0  0  0  0  0  0  0  0
   -1.2379   21.6692  -29.7777 H   0  0  0  0  0  0  0  0  0  0  0  0
   -2.1543   20.3342  -31.9521 H   0  0  0  0  0  0  0  0  0  0  0  0
   -3.1127   20.5483  -30.4154 H   0  0  0  0  0  0  0  0  0  0  0  0
   -3.9000   22.7100  -31.8070 H   0  0  0  0  0  0  0  0  0  0  0  0
   -5.5613   23.3826  -31.5566 H   0  0  0  0  0  0  0  0  0  0  0  0
   -7.8817   24.1473  -31.0859 H   0  0  0  0  0  0  0  0  0  0  0  0
   -9.8046   22.6187  -31.4821 H   0  0  0  0  0  0  0  0  0  0  0  0
   -9.4133   20.2925  -32.2658 H   0  0  0  0  0  0  0  0  0  0  0  0
   -8.1800   17.9963  -31.3826 H   0  0  0  0  0  0  0  0  0  0  0  0
   -8.9780   18.4698  -32.9207 H   0  0  0  0  0  0  0  0  0  0  0  0
   -7.7134   17.1942  -32.9207 H   0  0  0  0  0  0  0  0  0  0  0  0
   -6.3723   16.8190  -33.8211 H   0  0  0  0  0  0  0  0  0  0  0  0
   -4.1179   16.1384  -34.5889 H   0  0  0  0  0  0  0  0  0  0  0  0
   -2.2641   17.7762  -34.6452 H   0  0  0  0  0  0  0  0  0  0  0  0
   -2.7860   21.2950  -34.6220 H   0  0  0  0  0  0  0  0  0  0  0  0
   -0.6212   20.5570  -33.1512 H   0  0  0  0  0  0  0  0  0  0  0  0
   -0.8429   19.1034  -34.2233 H   0  0  0  0  0  0  0  0  0  0  0  0
    0.2216   20.1254  -35.8765 H   0  0  0  0  0  0  0  0  0  0  0  0
   -1.0090   21.4829  -35.8016 H   0  0  0  0  0  0  0  0  0  0  0  0
    0.4127   22.4881  -33.9629 H   0  0  0  0  0  0  0  0  0  0  0  0
    1.6935   21.2891  -34.4687 H   0  0  0  0  0  0  0  0  0  0  0  0
    2.4620   23.9880  -34.5618 H   0  0  0  0  0  0  0  0  0  0  0  0
    3.3355   22.6394  -35.3815 H   0  0  0  0  0  0  0  0  0  0  0  0
    3.3544   25.3373  -36.1558 H   0  0  0  0  0  0  0  0  0  0  0  0
    3.8506   23.9042  -37.1651 H   0  0  0  0  0  0  0  0  0  0  0  0
    1.0491   25.8717  -36.1836 H   0  0  0  0  0  0  0  0  0  0  0  0
    0.0707   25.3461  -37.6092 H   0  0  0  0  0  0  0  0  0  0  0  0
   -0.0675   24.2200  -35.0761 H   0  0  0  0  0  0  0  0  0  0  0  0
   -0.5690   23.4171  -36.6240 H   0  0  0  0  0  0  0  0  0  0  0  0
  1  2  1  0
  2  3  1  0
  3  4  1  0
  4  5  1  0
  5  6  1  0
  6  7  1  0
  7  8  1  0
  8  9  1  0
  9 10  1  0
 10 11  2  0
 11 12  1  0
 12 13  2  0
 13 14  1  0
 14 15  2  0
 15 16  1  0
 16 17  2  0
 17 18  1  0
 17 19  1  0
 19 20  2  0
 20 21  1  0
 21 22  2  0
 22 23  1  0
 23 24  1  0
 24 25  1  0
 25 26  1  0
 26 27  1  0
 27 28  1  0
 28 29  1  0
 29 30  1  0
 30 31  1  0
 31 32  1  0
 32 33  1  0
 23 34  2  0
 34 10  1  0
 16 11  1  0
 34 19  1  0
 33 28  1  0
  1 35  1  0
  1 36  1  0
  1 37  1  0
  2 38  1  0
  2 39  1  0
  3 40  1  0
  4 41  1  0
  4 42  1  0
  5 43  1  0
  5 44  1  0
  7 45  1  0
  7 46  1  0
  8 47  1  0
  8 48  1  0
  9 49  1  0
 12 50  1  0
 13 51  1  0
 14 52  1  0
 15 53  1  0
 18 54  1  0
 18 55  1  0
 18 56  1  0
 20 57  1  0
 21 58  1  0
 22 59  1  0
 24 60  1  0
 25 61  1  0
 25 62  1  0
 26 63  1  0
 26 64  1  0
 27 65  1  0
 27 66  1  0
 29 67  1  0
 29 68  1  0
 30 69  1  0
 30 70  1  0
 32 71  1  0
 32 72  1  0
 33 73  1  0
 33 74  1  0
M  CHG  1  17   1
M  END
>  <UniqueID>  (8) 
8

>  <SMILES>  (8) 
CCNCCOCCNc1c2ccccc2[n+](C)c2cccc(NCCCN3CCOCC3)c12

>  <Energy>  (8) 
113.73362463568265

>  <Genealogy>  (8) 
CCNCCOCCNc1c2ccccc2[n+](C)c2cccc(NCCCN3CCOCC3)c12 (3D coordinates assigned)
CCNCCOCCNc1c2ccccc2[n+](C)c2cccc(NCCCN3CCOCC3)c12 (nonaromatic ring conformer: 113.73362463568265 kcal/mol)

>  <smiles>  (8) 
CCNCCOCCNc1c2ccccc2[n+](C)c2cccc(NCCCN3CCOCC3)c12

>  <score_type>  (8) 
oracle

>  <origin>  (8) 
adg

>  <m_score__min__energy>  (8) 
-9.9900000000000002

>  <m_primary>  (8) 
energy

$$$$
8:0
     RDKit          3D

 71 74  0  0  0  0  0  0  0  0999 V2000
   -1.9220   20.4550  -28.8160 C   0  0  0  0  0  0  0  0  0  0  0  0
   -2.4000   20.8380  -30.2250 C   0  0  0  0  0  0  0  0  0  0  0  0
   -1.3010   21.0420  -31.2000 N   0  0  0  0  0  0  0  0  0  0  0  0
   -0.4670   19.8330  -31.3490 C   0  0  0  0  0  0  0  0  0  0  0  0
   -1.7910   21.5400  -32.5040 C   0  0  0  0  0  0  0  0  0  0  0  0
   -3.1340   22.2850  -32.3380 C   0  0  0  0  0  0  0  0  0  0  0  0
   -4.1880   21.9560  -33.3410 N   0  0  0  0  0  0  0  0  0  0  0  0
   -5.2210   21.0270  -32.9000 C   0  0  0  0  0  0  0  0  0  0  0  0
   -4.9870   19.6360  -33.0210 C   0  0  0  0  0  0  0  0  0  0  0  0
   -6.0500   18.7280  -32.8380 C   0  0  0  0  0  0  0  0  0  0  0  0
   -7.2240   19.1510  -32.2610 N   0  0  0  0  0  0  0  0  0  0  0  0
   -8.1320   18.1740  -31.6200 C   0  0  0  0  0  0  0  0  0  0  0  0
   -7.5060   20.5000  -32.1670 C   0  0  0  0  0  0  0  0  0  0  0  0
   -8.8080   20.9350  -31.8220 C   0  0  0  0  0  0  0  0  0  0  0  0
   -9.1070   22.2820  -31.6970 C   0  0  0  0  0  0  0  0  0  0  0  0
   -8.1170   23.2330  -31.8580 C   0  0  0  0  0  0  0  0  0  0  0  0
   -6.8010   22.8550  -32.1760 C   0  0  0  0  0  0  0  0  0  0  0  0
   -5.7840   23.8220  -32.1920 O   0  0  0  0  0  0  0  0  0  0  0  0
   -5.5190   24.7910  -31.1740 C   0  0  0  0  0  0  0  0  0  0  0  0
   -5.5290   24.1340  -29.7740 C   0  0  0  0  0  0  0  0  0  0  0  0
   -4.1780   23.5380  -29.3160 C   0  0  0  0  0  0  0  0  0  0  0  0
   -3.0110   24.5130  -29.5410 C   0  0  0  0  0  0  0  0  0  0  0  0
   -4.2230   23.0350  -27.8620 C   0  0  0  0  0  0  0  0  0  0  0  0
   -6.4960   21.4770  -32.4270 C   0  0  0  0  0  0  0  0  0  0  0  0
   -5.8290   17.3080  -33.2780 C   0  0  0  0  0  0  0  0  0  0  0  0
   -6.8590   16.5260  -33.8350 C   0  0  0  0  0  0  0  0  0  0  0  0
   -6.6120   15.2120  -34.2420 C   0  0  0  0  0  0  0  0  0  0  0  0
   -5.3290   14.6760  -34.1380 C   0  0  0  0  0  0  0  0  0  0  0  0
   -4.2790   15.4640  -33.6630 C   0  0  0  0  0  0  0  0  0  0  0  0
   -4.5190   16.7890  -33.2700 C   0  0  0  0  0  0  0  0  0  0  0  0
   -3.3870   17.6810  -32.8560 C   0  0  0  0  0  0  0  0  0  0  0  0
   -3.6170   19.0920  -33.4110 C   0  0  0  0  0  0  0  0  0  0  0  0
   -2.5502   20.9583  -28.0663 H   0  0  0  0  0  0  0  0  0  0  0  0
   -1.9984   19.3653  -28.6865 H   0  0  0  0  0  0  0  0  0  0  0  0
   -0.8752   20.7671  -28.6865 H   0  0  0  0  0  0  0  0  0  0  0  0
   -3.0504   20.0341  -30.6001 H   0  0  0  0  0  0  0  0  0  0  0  0
   -2.9259   21.7997  -30.1323 H   0  0  0  0  0  0  0  0  0  0  0  0
   -0.2004   19.4466  -30.3542 H   0  0  0  0  0  0  0  0  0  0  0  0
   -1.0289   19.0658  -31.9019 H   0  0  0  0  0  0  0  0  0  0  0  0
    0.4497   20.0858  -31.9019 H   0  0  0  0  0  0  0  0  0  0  0  0
   -1.0467   22.2291  -32.9295 H   0  0  0  0  0  0  0  0  0  0  0  0
   -1.9451   20.6811  -33.1738 H   0  0  0  0  0  0  0  0  0  0  0  0
   -3.5313   22.0461  -31.3405 H   0  0  0  0  0  0  0  0  0  0  0  0
   -2.9043   23.3506  -32.4851 H   0  0  0  0  0  0  0  0  0  0  0  0
   -4.6150   22.8210  -33.7320 H   0  0  0  0  0  0  0  0  0  0  0  0
   -3.7200   21.5750  -34.1940 H   0  0  0  0  0  0  0  0  0  0  0  0
   -8.0512   18.2610  -30.5264 H   0  0  0  0  0  0  0  0  0  0  0  0
   -9.1678   18.3788  -31.9285 H   0  0  0  0  0  0  0  0  0  0  0  0
   -7.8520   17.1560  -31.9285 H   0  0  0  0  0  0  0  0  0  0  0  0
   -9.5979   20.1890  -31.6498 H   0  0  0  0  0  0  0  0  0  0  0  0
  -10.1363   22.5958  -31.4687 H   0  0  0  0  0  0  0  0  0  0  0  0
   -8.3619   24.2984  -31.7358 H   0  0  0  0  0  0  0  0  0  0  0  0
   -4.5319   25.2420  -31.3536 H   0  0  0  0  0  0  0  0  0  0  0  0
   -6.3038   25.5611  -31.2076 H   0  0  0  0  0  0  0  0  0  0  0  0
   -5.8294   24.8980  -29.0419 H   0  0  0  0  0  0  0  0  0  0  0  0
   -6.2290   23.2880  -29.8392 H   0  0  0  0  0  0  0  0  0  0  0  0
   -3.9955   22.6595  -29.9524 H   0  0  0  0  0  0  0  0  0  0  0  0
   -2.6162   24.8429  -28.5687 H   0  0  0  0  0  0  0  0  0  0  0  0
   -2.2150   24.0077  -30.1076 H   0  0  0  0  0  0  0  0  0  0  0  0
   -3.3667   25.3861  -30.1076 H   0  0  0  0  0  0  0  0  0  0  0  0
   -4.1464   23.8910  -27.1754 H   0  0  0  0  0  0  0  0  0  0  0  0
   -5.1719   22.5073  -27.6858 H   0  0  0  0  0  0  0  0  0  0  0  0
   -3.3828   22.3473  -27.6858 H   0  0  0  0  0  0  0  0  0  0  0  0
   -7.8662   16.9528  -33.9507 H   0  0  0  0  0  0  0  0  0  0  0  0
   -7.4317   14.5992  -34.6453 H   0  0  0  0  0  0  0  0  0  0  0  0
   -5.1441   13.6318  -34.4303 H   0  0  0  0  0  0  0  0  0  0  0  0
   -3.2637   15.0459  -33.5969 H   0  0  0  0  0  0  0  0  0  0  0  0
   -3.3362   17.7229  -31.7580 H   0  0  0  0  0  0  0  0  0  0  0  0
   -2.4420   17.2812  -33.2524 H   0  0  0  0  0  0  0  0  0  0  0  0
   -2.8410   19.7623  -33.0130 H   0  0  0  0  0  0  0  0  0  0  0  0
   -3.5688   19.0404  -34.5087 H   0  0  0  0  0  0  0  0  0  0  0  0
  1  2  1  0
  2  3  1  0
  3  4  1  0
  3  5  1  0
  5  6  1  0
  6  7  1  0
  7  8  1  0
  8  9  2  0
  9 10  1  0
 10 11  2  0
 11 12  1  0
 11 13  1  0
 13 14  2  0
 14 15  1  0
 15 16  2  0
 16 17  1  0
 17 18  1  0
 18 19  1  0
 19 20  1  0
 20 21  1  0
 21 22  1  0
 21 23  1  0
 17 24  2  0
 10 25  1  0
 25 26  2  0
 26 27  1  0
 27 28  2  0
 28 29  1  0
 29 30  2  0
 30 31  1  0
 31 32  1  0
 24  8  1  0
 30 25  1  0
 32  9  1  0
 24 13  1  0
  1 33  1  0
  1 34  1  0
  1 35  1  0
  2 36  1  0
  2 37  1  0
  4 38  1  0
  4 39  1  0
  4 40  1  0
  5 41  1  0
  5 42  1  0
  6 43  1  0
  6 44  1  0
  7 45  1  0
  7 46  1  0
 12 47  1  0
 12 48  1  0
 12 49  1  0
 14 50  1  0
 15 51  1  0
 16 52  1  0
 19 53  1  0
 19 54  1  0
 20 55  1  0
 20 56  1  0
 21 57  1  0
 22 58  1  0
 22 59  1  0
 22 60  1  0
 23 61  1  0
 23 62  1  0
 23 63  1  0
 26 64  1  0
 27 65  1  0
 28 66  1  0
 29 67  1  0
 31 68  1  0
 31 69  1  0
 32 70  1  0
 32 71  1  0
M  CHG  2   7   1  11   1
M  END
>  <UniqueID>  (9) 
9

>  <SMILES>  (9) 
CCN(C)CC[NH2+]c1c2c([n+](C)c3cccc(OCCC(C)C)c13)-c1ccccc1CC2

>  <Energy>  (9) 
113.8277564423812

>  <Genealogy>  (9) 
CCN(C)CC[NH2+]c1c2c([n+](C)c3cccc(OCCC(C)C)c13)-c1ccccc1CC2 (protonated)
CCN(C)CC[NH2+]c1c2c([n+](C)c3cccc(OCCC(C)C)c13)-c1ccccc1CC2 (3D coordinates assigned)
CCN(C)CC[NH2+]c1c2c([n+](C)c3cccc(OCCC(C)C)c13)-c1ccccc1CC2 (nonaromatic ring conformer: 113.8277564423812 kcal/mol)

>  <smiles>  (9) 
CCN(C)CCNc1c2c([n+](C)c3cccc(OCCC(C)C)c13)-c1ccccc1CC2

>  <score_type>  (9) 
oracle

>  <origin>  (9) 
adg

>  <m_score__min__energy>  (9) 
-8.5199999999999996

>  <m_primary>  (9) 
energy

$$$$
9:0
     RDKit          3D

 46 46  0  0  0  0  0  0  0  0999 V2000
   -9.0690   20.8360  -31.6480 C   0  0  0  0  0  0  0  0  0  0  0  0
   -9.0590   19.5400  -32.4590 C   0  0  0  0  0  0  0  0  0  0  0  0
   -7.6880   19.1570  -32.8250 N   0  0  0  0  0  0  0  0  0  0  0  0
   -7.3450   17.8190  -32.3190 C   0  0  0  0  0  0  0  0  0  0  0  0
   -7.1940   16.8190  -33.4770 C   0  0  0  0  0  0  0  0  0  0  0  0
   -6.1270   17.2250  -34.5050 C   0  0  0  0  0  0  0  0  0  0  0  0
   -4.7650   17.0420  -33.9390 N   0  0  0  0  0  0  0  0  0  0  0  0
   -4.3320   15.6390  -34.0540 C   0  0  0  0  0  0  0  0  0  0  0  0
   -3.7680   17.9290  -34.5770 C   0  0  0  0  0  0  0  0  0  0  0  0
   -3.7170   19.2590  -33.8820 C   0  0  0  0  0  0  0  0  0  0  0  0
   -2.6960   19.9850  -34.0240 O   0  0  0  0  0  0  0  0  0  0  0  0
   -4.7990   19.6710  -33.0290 N   0  0  0  0  0  0  0  0  0  0  0  0
   -4.8860   20.9610  -32.3970 C   0  0  0  0  0  0  0  0  0  0  0  0
   -3.8090   21.5010  -31.6770 C   0  0  0  0  0  0  0  0  0  0  0  0
   -3.9150   22.7620  -31.0850 C   0  0  0  0  0  0  0  0  0  0  0  0
   -5.0900   23.5250  -31.2200 C   0  0  0  0  0  0  0  0  0  0  0  0
   -5.1840   24.8660  -30.5860 C   0  0  0  0  0  0  0  0  0  0  0  0
   -6.3990   25.3020  -29.8230 C   0  0  0  0  0  0  0  0  0  0  0  0
   -4.2240   25.6770  -30.6940 O   0  0  0  0  0  0  0  0  0  0  0  0
   -6.1580   22.9900  -31.9660 C   0  0  0  0  0  0  0  0  0  0  0  0
   -6.0510   21.7260  -32.5550 C   0  0  0  0  0  0  0  0  0  0  0  0
   -9.0672   20.5967  -30.5743 H   0  0  0  0  0  0  0  0  0  0  0  0
   -8.1754   21.4288  -31.8931 H   0  0  0  0  0  0  0  0  0  0  0  0
   -9.9716   21.4149  -31.8931 H   0  0  0  0  0  0  0  0  0  0  0  0
   -9.5085   18.7361  -31.8576 H   0  0  0  0  0  0  0  0  0  0  0  0
   -9.6358   19.7002  -33.3818 H   0  0  0  0  0  0  0  0  0  0  0  0
   -7.6520   19.1200  -33.8700 H   0  0  0  0  0  0  0  0  0  0  0  0
   -6.3962   17.8753  -31.7652 H   0  0  0  0  0  0  0  0  0  0  0  0
   -8.1542   17.4739  -31.6586 H   0  0  0  0  0  0  0  0  0  0  0  0
   -6.9181   15.8403  -33.0575 H   0  0  0  0  0  0  0  0  0  0  0  0
   -8.1578   16.7906  -34.0065 H   0  0  0  0  0  0  0  0  0  0  0  0
   -6.2330   16.5994  -35.4035 H   0  0  0  0  0  0  0  0  0  0  0  0
   -6.2661   18.2851  -34.7635 H   0  0  0  0  0  0  0  0  0  0  0  0
   -4.2003   15.2123  -33.0487 H   0  0  0  0  0  0  0  0  0  0  0  0
   -5.0943   15.0635  -34.5996 H   0  0  0  0  0  0  0  0  0  0  0  0
   -3.3779   15.5933  -34.5996 H   0  0  0  0  0  0  0  0  0  0  0  0
   -2.7767   17.4554  -34.5229 H   0  0  0  0  0  0  0  0  0  0  0  0
   -4.0583   18.0896  -35.6258 H   0  0  0  0  0  0  0  0  0  0  0  0
   -5.5210   18.9570  -32.7820 H   0  0  0  0  0  0  0  0  0  0  0  0
   -2.8754   20.9277  -31.5782 H   0  0  0  0  0  0  0  0  0  0  0  0
   -3.0700   23.1634  -30.5064 H   0  0  0  0  0  0  0  0  0  0  0  0
   -6.1994   25.2304  -28.7436 H   0  0  0  0  0  0  0  0  0  0  0  0
   -6.6411   26.3431  -30.0828 H   0  0  0  0  0  0  0  0  0  0  0  0
   -7.2478   24.6524  -30.0828 H   0  0  0  0  0  0  0  0  0  0  0  0
   -7.0841   23.5712  -32.0864 H   0  0  0  0  0  0  0  0  0  0  0  0
   -6.8881   21.3282  -33.1475 H   0  0  0  0  0  0  0  0  0  0  0  0
  1  2  1  0
  2  3  1  0
  3  4  1  0
  4  5  1  0
  5  6  1  0
  6  7  1  0
  7  8  1  0
  7  9  1  0
  9 10  1  0
 10 11  2  0
 10 12  1  0
 12 13  1  0
 13 14  2  0
 14 15  1  0
 15 16  2  0
 16 17  1  0
 17 18  1  0
 17 19  2  0
 16 20  1  0
 20 21  2  0
 21 13  1  0
  1 22  1  0
  1 23  1  0
  1 24  1  0
  2 25  1  0
  2 26  1  0
  3 27  1  0
  4 28  1  0
  4 29  1  0
  5 30  1  0
  5 31  1  0
  6 32  1  0
  6 33  1  0
  8 34  1  0
  8 35  1  0
  8 36  1  0
  9 37  1  0
  9 38  1  0
 12 39  1  0
 14 40  1  0
 15 41  1  0
 18 42  1  0
 18 43  1  0
 18 44  1  0
 20 45  1  0
 21 46  1  0
M  END
>  <UniqueID>  (10) 
10

>  <SMILES>  (10) 
CCNCCCN(C)CC(=O)Nc1ccc(C(C)=O)cc1

>  <Energy>  (10) 
42.951430705099455

>  <Genealogy>  (10) 
CCNCCCN(C)CC(=O)Nc1ccc(C(C)=O)cc1 (3D coordinates assigned)
CCNCCCN(C)CC(=O)Nc1ccc(C(C)=O)cc1 (optimized conformer: 42.951430705099455 kcal/mol)

>  <smiles>  (10) 
CCNCCCN(C)CC(=O)Nc1ccc(C(C)=O)cc1

>  <score_type>  (10) 
oracle

>  <origin>  (10) 
adg

>  <m_score__min__energy>  (10) 
-7.6399999999999997

>  <m_primary>  (10) 
energy

$$$$
10:0
     RDKit          3D

 50 52  0  0  0  0  0  0  0  0999 V2000
   -3.9900   24.1780  -28.0650 C   0  0  0  0  0  0  0  0  0  0  0  0
   -3.1460   24.5490  -29.2830 C   0  0  0  0  0  0  0  0  0  0  0  0
   -3.9260   24.4000  -30.5360 N   0  0  0  0  0  0  0  0  0  0  0  0
   -5.0980   25.3010  -30.5090 C   0  0  0  0  0  0  0  0  0  0  0  0
   -4.3670   22.9950  -30.7100 C   0  0  0  0  0  0  0  0  0  0  0  0
   -3.2080   22.0630  -31.1040 C   0  0  0  0  0  0  0  0  0  0  0  0
   -3.1340   21.7900  -32.6180 C   0  0  0  0  0  0  0  0  0  0  0  0
   -4.4520   21.7800  -33.2610 N   0  0  0  0  0  0  0  0  0  0  0  0
   -5.5400   20.8850  -32.9310 C   0  0  0  0  0  0  0  0  0  0  0  0
   -5.4240   19.4960  -33.0950 C   0  0  0  0  0  0  0  0  0  0  0  0
   -6.4700   18.6570  -32.7900 C   0  0  0  0  0  0  0  0  0  0  0  0
   -7.6580   19.1210  -32.2890 N   0  0  0  0  0  0  0  0  0  0  0  0
   -8.7260   18.1710  -31.9200 C   0  0  0  0  0  0  0  0  0  0  0  0
   -7.8450   20.4850  -32.1570 C   0  0  0  0  0  0  0  0  0  0  0  0
   -9.0780   21.0220  -31.7100 C   0  0  0  0  0  0  0  0  0  0  0  0
   -9.2560   22.3970  -31.5700 C   0  0  0  0  0  0  0  0  0  0  0  0
   -8.2200   23.2710  -31.8750 C   0  0  0  0  0  0  0  0  0  0  0  0
   -6.9990   22.7790  -32.3280 C   0  0  0  0  0  0  0  0  0  0  0  0
   -6.7860   21.3930  -32.4820 C   0  0  0  0  0  0  0  0  0  0  0  0
   -6.1370   17.2360  -33.1000 C   0  0  0  0  0  0  0  0  0  0  0  0
   -4.7960   17.3120  -33.8350 C   0  0  0  0  0  0  0  0  0  0  0  0
   -4.2690   18.7380  -33.6480 C   0  0  0  0  0  0  0  0  0  0  0  0
   -3.4356   24.4217  -27.1467 H   0  0  0  0  0  0  0  0  0  0  0  0
   -4.9325   24.7448  -28.0856 H   0  0  0  0  0  0  0  0  0  0  0  0
   -4.2097   23.1004  -28.0856 H   0  0  0  0  0  0  0  0  0  0  0  0
   -2.8158   25.5939  -29.1870 H   0  0  0  0  0  0  0  0  0  0  0  0
   -2.2792   23.8733  -29.3275 H   0  0  0  0  0  0  0  0  0  0  0  0
   -5.3736   25.5129  -29.4654 H   0  0  0  0  0  0  0  0  0  0  0  0
   -4.8487   26.2423  -31.0208 H   0  0  0  0  0  0  0  0  0  0  0  0
   -5.9436   24.8182  -31.0208 H   0  0  0  0  0  0  0  0  0  0  0  0
   -4.7997   22.6403  -29.7629 H   0  0  0  0  0  0  0  0  0  0  0  0
   -5.1073   22.9733  -31.5233 H   0  0  0  0  0  0  0  0  0  0  0  0
   -2.2629   22.5275  -30.7863 H   0  0  0  0  0  0  0  0  0  0  0  0
   -3.3827   21.0974  -30.6068 H   0  0  0  0  0  0  0  0  0  0  0  0
   -2.5208   22.5739  -33.0865 H   0  0  0  0  0  0  0  0  0  0  0  0
   -2.6936   20.7910  -32.7522 H   0  0  0  0  0  0  0  0  0  0  0  0
   -4.6080   22.4990  -34.0020 H   0  0  0  0  0  0  0  0  0  0  0  0
   -8.7976   18.1073  -30.8242 H   0  0  0  0  0  0  0  0  0  0  0  0
   -9.6850   18.5200  -32.3304 H   0  0  0  0  0  0  0  0  0  0  0  0
   -8.4912   17.1778  -32.3304 H   0  0  0  0  0  0  0  0  0  0  0  0
   -9.9085   20.3420  -31.4695 H   0  0  0  0  0  0  0  0  0  0  0  0
  -10.2201   22.7917  -31.2168 H   0  0  0  0  0  0  0  0  0  0  0  0
   -8.3650   24.3551  -31.7582 H   0  0  0  0  0  0  0  0  0  0  0  0
   -6.1879   23.4817  -32.5695 H   0  0  0  0  0  0  0  0  0  0  0  0
   -6.0416   16.6477  -32.1754 H   0  0  0  0  0  0  0  0  0  0  0  0
   -6.9168   16.7433  -33.6993 H   0  0  0  0  0  0  0  0  0  0  0  0
   -4.0878   16.5874  -33.4067 H   0  0  0  0  0  0  0  0  0  0  0  0
   -4.9165   17.0725  -34.9018 H   0  0  0  0  0  0  0  0  0  0  0  0
   -3.4237   18.7504  -32.9442 H   0  0  0  0  0  0  0  0  0  0  0  0
   -3.8972   19.1717  -34.5880 H   0  0  0  0  0  0  0  0  0  0  0  0
  1  2  1  0
  2  3  1  0
  3  4  1  0
  3  5  1  0
  5  6  1  0
  6  7  1  0
  7  8  1  0
  8  9  1  0
  9 10  2  0
 10 11  1  0
 11 12  2  0
 12 13  1  0
 12 14  1  0
 14 15  2  0
 15 16  1  0
 16 17  2  0
 17 18  1  0
 18 19  2  0
 11 20  1  0
 20 21  1  0
 21 22  1  0
 19  9  1  0
 22 10  1  0
 19 14  1  0
  1 23  1  0
  1 24  1  0
  1 25  1  0
  2 26  1  0
  2 27  1  0
  4 28  1  0
  4 29  1  0
  4 30  1  0
  5 31  1  0
  5 32  1  0
  6 33  1  0
  6 34  1  0
  7 35  1  0
  7 36  1  0
  8 37  1  0
 13 38  1  0
 13 39  1  0
 13 40  1  0
 15 41  1  0
 16 42  1  0
 17 43  1  0
 18 44  1  0
 20 45  1  0
 20 46  1  0
 21 47  1  0
 21 48  1  0
 22 49  1  0
 22 50  1  0
M  CHG  1  12   1
M  END
>  <UniqueID>  (11) 
11

>  <SMILES>  (11) 
CCN(C)CCCNc1c2c([n+](C)c3ccccc13)CCC2

>  <Energy>  (11) 
68.92555822380592

>  <Genealogy>  (11) 
CCN(C)CCCNc1c2c([n+](C)c3ccccc13)CCC2 (3D coordinates assigned)
CCN(C)CCCNc1c2c([n+](C)c3ccccc13)CCC2 (nonaromatic ring conformer: 68.92555822380592 kcal/mol)

>  <smiles>  (11) 
CCN(C)CCCNc1c2c([n+](C)c3ccccc13)CCC2

>  <score_type>  (11) 
oracle

>  <origin>  (11) 
adg

>  <m_score__min__energy>  (11) 
-8.3399999999999999

>  <m_primary>  (11) 
energy

$$$$
11:0
     RDKit          3D

 80 83  0  0  0  0  0  0  0  0999 V2000
   -6.2670   25.5380  -29.5690 C   0  0  0  0  0  0  0  0  0  0  0  0
   -5.2530   25.7910  -30.6780 C   0  0  0  0  0  0  0  0  0  0  0  0
   -4.4260   24.5960  -30.8810 N   0  0  0  0  0  0  0  0  0  0  0  0
   -4.2240   23.8510  -29.6280 C   0  0  0  0  0  0  0  0  0  0  0  0
   -3.1650   22.7630  -29.8090 C   0  0  0  0  0  0  0  0  0  0  0  0
   -2.3540   23.0620  -30.9250 O   0  0  0  0  0  0  0  0  0  0  0  0
   -1.4850   21.9820  -31.1860 C   0  0  0  0  0  0  0  0  0  0  0  0
   -1.6370   21.5630  -32.6490 C   0  0  0  0  0  0  0  0  0  0  0  0
   -3.1060   21.4000  -33.0600 C   0  0  0  0  0  0  0  0  0  0  0  0
   -3.8210   20.5000  -32.1560 N   0  0  0  0  0  0  0  0  0  0  0  0
   -5.1480   20.0610  -32.4840 C   0  0  0  0  0  0  0  0  0  0  0  0
   -6.2270   20.9340  -32.2680 C   0  0  0  0  0  0  0  0  0  0  0  0
   -6.0170   22.3140  -32.0520 C   0  0  0  0  0  0  0  0  0  0  0  0
   -7.0950   23.1830  -31.9060 C   0  0  0  0  0  0  0  0  0  0  0  0
   -8.3960   22.6970  -31.9760 C   0  0  0  0  0  0  0  0  0  0  0  0
   -8.6250   21.3320  -32.1520 C   0  0  0  0  0  0  0  0  0  0  0  0
   -7.5460   20.4170  -32.2540 C   0  0  0  0  0  0  0  0  0  0  0  0
   -7.7490   19.0530  -32.3040 N   0  0  0  0  0  0  0  0  0  0  0  0
   -9.0560   18.4870  -31.8960 C   0  0  0  0  0  0  0  0  0  0  0  0
   -6.7220   18.2160  -32.7060 C   0  0  0  0  0  0  0  0  0  0  0  0
   -6.9520   16.8410  -32.9500 C   0  0  0  0  0  0  0  0  0  0  0  0
   -5.9130   15.9870  -33.2820 C   0  0  0  0  0  0  0  0  0  0  0  0
   -4.6410   16.4870  -33.5050 C   0  0  0  0  0  0  0  0  0  0  0  0
   -4.3840   17.8690  -33.4340 C   0  0  0  0  0  0  0  0  0  0  0  0
   -3.1210   18.3880  -33.9420 N   0  0  0  0  0  0  0  0  0  0  0  0
   -2.4790   17.4950  -34.9320 C   0  0  0  0  0  0  0  0  0  0  0  0
   -0.9440   17.6350  -34.9340 C   0  0  0  0  0  0  0  0  0  0  0  0
   -0.4800   18.9380  -34.2420 C   0  0  0  0  0  0  0  0  0  0  0  0
   -0.2990   18.8230  -32.7780 N   0  0  0  0  0  0  0  0  0  0  0  0
    0.9010   19.5080  -32.2630 C   0  0  0  0  0  0  0  0  0  0  0  0
    0.7710   19.7260  -30.7460 C   0  0  0  0  0  0  0  0  0  0  0  0
   -0.1130   18.6600  -30.0730 C   0  0  0  0  0  0  0  0  0  0  0  0
   -0.0130   17.3110  -30.7940 C   0  0  0  0  0  0  0  0  0  0  0  0
   -0.4100   17.4330  -32.2810 C   0  0  0  0  0  0  0  0  0  0  0  0
   -5.3990   18.7240  -32.8810 C   0  0  0  0  0  0  0  0  0  0  0  0
   -5.7787   25.6598  -28.5909 H   0  0  0  0  0  0  0  0  0  0  0  0
   -7.0946   26.2572  -29.6578 H   0  0  0  0  0  0  0  0  0  0  0  0
   -6.6597   24.5143  -29.6578 H   0  0  0  0  0  0  0  0  0  0  0  0
   -5.7848   26.0293  -31.6110 H   0  0  0  0  0  0  0  0  0  0  0  0
   -4.6069   26.6342  -30.3924 H   0  0  0  0  0  0  0  0  0  0  0  0
   -3.4870   24.9180  -31.2170 H   0  0  0  0  0  0  0  0  0  0  0  0
   -3.8949   24.5478  -28.8430 H   0  0  0  0  0  0  0  0  0  0  0  0
   -5.1740   23.3751  -29.3432 H   0  0  0  0  0  0  0  0  0  0  0  0
   -2.5383   22.7104  -28.9065 H   0  0  0  0  0  0  0  0  0  0  0  0
   -3.6637   21.7963  -29.9727 H   0  0  0  0  0  0  0  0  0  0  0  0
   -0.4462   22.2904  -30.9967 H   0  0  0  0  0  0  0  0  0  0  0  0
   -1.7358   21.1360  -30.5291 H   0  0  0  0  0  0  0  0  0  0  0  0
   -1.1748   22.3311  -33.2865 H   0  0  0  0  0  0  0  0  0  0  0  0
   -1.1437   20.5875  -32.7719 H   0  0  0  0  0  0  0  0  0  0  0  0
   -3.5934   22.3859  -33.0415 H   0  0  0  0  0  0  0  0  0  0  0  0
   -3.1346   20.9667  -34.0707 H   0  0  0  0  0  0  0  0  0  0  0  0
   -3.3140   20.0200  -31.3790 H   0  0  0  0  0  0  0  0  0  0  0  0
   -4.9907   22.7064  -31.9986 H   0  0  0  0  0  0  0  0  0  0  0  0
   -6.9174   24.2550  -31.7351 H   0  0  0  0  0  0  0  0  0  0  0  0
   -9.2462   23.3900  -31.8925 H   0  0  0  0  0  0  0  0  0  0  0  0
   -9.6583   20.9597  -32.2126 H   0  0  0  0  0  0  0  0  0  0  0  0
   -9.1174   18.4604  -30.7980 H   0  0  0  0  0  0  0  0  0  0  0  0
   -9.8674   19.1144  -32.2935 H   0  0  0  0  0  0  0  0  0  0  0  0
   -9.1536   17.4660  -32.2935 H   0  0  0  0  0  0  0  0  0  0  0  0
   -7.9747   16.4431  -32.8746 H   0  0  0  0  0  0  0  0  0  0  0  0
   -6.0993   14.9064  -33.3689 H   0  0  0  0  0  0  0  0  0  0  0  0
   -3.8198   15.7942  -33.7410 H   0  0  0  0  0  0  0  0  0  0  0  0
   -3.2870   19.2860  -34.4430 H   0  0  0  0  0  0  0  0  0  0  0  0
   -2.4760   18.5410  -33.1320 H   0  0  0  0  0  0  0  0  0  0  0  0
   -2.7393   16.4538  -34.6910 H   0  0  0  0  0  0  0  0  0  0  0  0
   -2.8450   17.7788  -35.9297 H   0  0  0  0  0  0  0  0  0  0  0  0
   -0.5084   16.7761  -34.4025 H   0  0  0  0  0  0  0  0  0  0  0  0
   -0.6072   17.6677  -35.9807 H   0  0  0  0  0  0  0  0  0  0  0  0
    0.4810   19.2389  -34.6846 H   0  0  0  0  0  0  0  0  0  0  0  0
   -1.2773   19.6788  -34.4019 H   0  0  0  0  0  0  0  0  0  0  0  0
    1.7886   18.8914  -32.4678 H   0  0  0  0  0  0  0  0  0  0  0  0
    1.0019   20.4836  -32.7610 H   0  0  0  0  0  0  0  0  0  0  0  0
    1.7742   19.6880  -30.2965 H   0  0  0  0  0  0  0  0  0  0  0  0
    0.2949   20.7049  -30.5876 H   0  0  0  0  0  0  0  0  0  0  0  0
    0.2119   18.5328  -29.0298 H   0  0  0  0  0  0  0  0  0  0  0  0
   -1.1584   18.9993  -30.1187 H   0  0  0  0  0  0  0  0  0  0  0  0
    1.0231   16.9472  -30.7294 H   0  0  0  0  0  0  0  0  0  0  0  0
   -0.7060   16.6081  -30.3085 H   0  0  0  0  0  0  0  0  0  0  0  0
    0.2525   16.7894  -32.8783 H   0  0  0  0  0  0  0  0  0  0  0  0
   -1.4614   17.1238  -32.3759 H   0  0  0  0  0  0  0  0  0  0  0  0
  1  2  1  0
  2  3  1  0
  3  4  1  0
  4  5  1  0
  5  6  1  0
  6  7  1  0
  7  8  1  0
  8  9  1  0
  9 10  1  0
 10 11  1  0
 11 12  2  0
 12 13  1  0
 13 14  2  0
 14 15  1  0
 15 16  2  0
 16 17  1  0
 17 18  2  0
 18 19  1  0
 18 20  1  0
 20 21  2  0
 21 22  1  0
 22 23  2  0
 23 24  1  0
 24 25  1  0
 25 26  1  0
 26 27  1  0
 27 28  1  0
 28 29  1  0
 29 30  1  0
 30 31  1  0
 31 32  1  0
 32 33  1  0
 33 34  1  0
 24 35  2  0
 35 11  1  0
 17 12  1  0
 35 20  1  0
 34 29  1  0
  1 36  1  0
  1 37  1  0
  1 38  1  0
  2 39  1  0
  2 40  1  0
  3 41  1  0
  4 42  1  0
  4 43  1  0
  5 44  1  0
  5 45  1  0
  7 46  1  0
  7 47  1  0
  8 48  1  0
  8 49  1  0
  9 50  1  0
  9 51  1  0
 10 52  1  0
 13 53  1  0
 14 54  1  0
 15 55  1  0
 16 56  1  0
 19 57  1  0
 19 58  1  0
 19 59  1  0
 21 60  1  0
 22 61  1  0
 23 62  1  0
 25 63  1  0
 25 64  1  0
 26 65  1  0
 26 66  1  0
 27 67  1  0
 27 68  1  0
 28 69  1  0
 28 70  1  0
 30 71  1  0
 30 72  1  0
 31 73  1  0
 31 74  1  0
 32 75  1  0
 32 76  1  0
 33 77  1  0
 33 78  1  0
 34 79  1  0
 34 80  1  0
M  CHG  2  18   1  25   1
M  END
>  <UniqueID>  (12) 
12

>  <SMILES>  (12) 
CCNCCOCCCNc1c2ccccc2[n+](C)c2cccc([NH2+]CCCN3CCCCC3)c12

>  <Energy>  (12) 
116.1963673776898

>  <Genealogy>  (12) 
CCNCCOCCCNc1c2ccccc2[n+](C)c2cccc([NH2+]CCCN3CCCCC3)c12 (protonated)
CCNCCOCCCNc1c2ccccc2[n+](C)c2cccc([NH2+]CCCN3CCCCC3)c12 (3D coordinates assigned)
CCNCCOCCCNc1c2ccccc2[n+](C)c2cccc([NH2+]CCCN3CCCCC3)c12 (nonaromatic ring conformer: 116.1963673776898 kcal/mol)

>  <smiles>  (12) 
CCNCCOCCCNc1c2ccccc2[n+](C)c2cccc(NCCCN3CCCCC3)c12

>  <score_type>  (12) 
oracle

>  <origin>  (12) 
adg

>  <m_score__min__energy>  (12) 
-8.8100000000000005

>  <m_primary>  (12) 
energy

$$$$
12:0
     RDKit          3D

 54 56  0  0  0  0  0  0  0  0999 V2000
   -9.1130   23.2590  -31.9830 C   0  0  0  0  0  0  0  0  0  0  0  0
   -9.4910   21.9250  -31.3430 C   0  0  0  0  0  0  0  0  0  0  0  0
   -9.1110   20.7220  -32.2150 C   0  0  0  0  0  0  0  0  0  0  0  0
   -8.1460   19.8490  -31.4990 N   0  0  0  0  0  0  0  0  0  0  0  0
   -8.3470   18.4190  -31.8260 C   0  0  0  0  0  0  0  0  0  0  0  0
   -6.9950   17.7180  -32.0150 C   0  0  0  0  0  0  0  0  0  0  0  0
   -6.8200   17.2310  -33.4510 C   0  0  0  0  0  0  0  0  0  0  0  0
   -6.7450   20.2660  -31.7380 C   0  0  0  0  0  0  0  0  0  0  0  0
   -6.6970   21.3740  -32.7960 C   0  0  0  0  0  0  0  0  0  0  0  0
   -5.9620   22.5000  -32.3160 O   0  0  0  0  0  0  0  0  0  0  0  0
   -4.6970   22.4520  -31.7030 C   0  0  0  0  0  0  0  0  0  0  0  0
   -3.7300   21.4840  -32.0430 C   0  0  0  0  0  0  0  0  0  0  0  0
   -2.4850   21.4720  -31.4090 C   0  0  0  0  0  0  0  0  0  0  0  0
   -2.1840   22.4240  -30.4230 C   0  0  0  0  0  0  0  0  0  0  0  0
   -0.9480   22.4460  -29.7570 C   0  0  0  0  0  0  0  0  0  0  0  0
   -0.0530   21.5970  -30.0200 O   0  0  0  0  0  0  0  0  0  0  0  0
   -0.7100   23.4180  -28.7860 C   0  0  0  0  0  0  0  0  0  0  0  0
   -1.7120   24.3610  -28.4940 C   0  0  0  0  0  0  0  0  0  0  0  0
   -1.5190   25.4200  -27.4710 C   0  0  0  0  0  0  0  0  0  0  0  0
   -2.1090   25.3340  -26.1940 C   0  0  0  0  0  0  0  0  0  0  0  0
   -1.9000   26.3430  -25.2480 C   0  0  0  0  0  0  0  0  0  0  0  0
   -1.0980   27.4420  -25.5600 C   0  0  0  0  0  0  0  0  0  0  0  0
   -0.4970   27.5320  -26.8170 C   0  0  0  0  0  0  0  0  0  0  0  0
   -0.7010   26.5260  -27.7670 C   0  0  0  0  0  0  0  0  0  0  0  0
   -2.8750   24.3020  -29.1420 O   0  0  0  0  0  0  0  0  0  0  0  0
   -3.1480   23.3940  -30.0750 C   0  0  0  0  0  0  0  0  0  0  0  0
   -4.3970   23.4030  -30.7130 C   0  0  0  0  0  0  0  0  0  0  0  0
   -5.5940   24.6160  -30.2730 Cl  0  0  0  0  0  0  0  0  0  0  0  0
   -8.9037   23.9975  -31.1950 H   0  0  0  0  0  0  0  0  0  0  0  0
   -8.2174   23.1254  -32.6075 H   0  0  0  0  0  0  0  0  0  0  0  0
   -9.9456   23.6151  -32.6075 H   0  0  0  0  0  0  0  0  0  0  0  0
   -8.9713   21.8380  -30.3774 H   0  0  0  0  0  0  0  0  0  0  0  0
  -10.5839   21.9136  -31.2189 H   0  0  0  0  0  0  0  0  0  0  0  0
  -10.0170   20.1443  -32.4506 H   0  0  0  0  0  0  0  0  0  0  0  0
   -8.6438   21.0860  -33.1419 H   0  0  0  0  0  0  0  0  0  0  0  0
   -8.8955   17.9333  -31.0055 H   0  0  0  0  0  0  0  0  0  0  0  0
   -8.9214   18.3443  -32.7612 H   0  0  0  0  0  0  0  0  0  0  0  0
   -6.1876   18.4257  -31.7755 H   0  0  0  0  0  0  0  0  0  0  0  0
   -6.9588   16.8461  -31.3453 H   0  0  0  0  0  0  0  0  0  0  0  0
   -6.4480   16.1958  -33.4443 H   0  0  0  0  0  0  0  0  0  0  0  0
   -7.7882   17.2694  -33.9718 H   0  0  0  0  0  0  0  0  0  0  0  0
   -6.0977   17.8768  -33.9718 H   0  0  0  0  0  0  0  0  0  0  0  0
   -6.3120   20.6410  -30.7989 H   0  0  0  0  0  0  0  0  0  0  0  0
   -6.1687   19.4007  -32.0973 H   0  0  0  0  0  0  0  0  0  0  0  0
   -6.2110   20.9859  -33.7033 H   0  0  0  0  0  0  0  0  0  0  0  0
   -7.7256   21.6931  -33.0202 H   0  0  0  0  0  0  0  0  0  0  0  0
   -3.9575   20.7324  -32.8133 H   0  0  0  0  0  0  0  0  0  0  0  0
   -1.7377   20.7131  -31.6839 H   0  0  0  0  0  0  0  0  0  0  0  0
    0.2521   23.4471  -28.2535 H   0  0  0  0  0  0  0  0  0  0  0  0
   -2.7378   24.4680  -25.9396 H   0  0  0  0  0  0  0  0  0  0  0  0
   -2.3689   26.2702  -24.2556 H   0  0  0  0  0  0  0  0  0  0  0  0
   -0.9396   28.2366  -24.8160 H   0  0  0  0  0  0  0  0  0  0  0  0
    0.1385   28.3962  -27.0608 H   0  0  0  0  0  0  0  0  0  0  0  0
   -0.2185   26.5999  -28.7527 H   0  0  0  0  0  0  0  0  0  0  0  0
  1  2  1  0
  2  3  1  0
  3  4  1  0
  4  5  1  0
  5  6  1  0
  6  7  1  0
  4  8  1  0
  8  9  1  0
  9 10  1  0
 10 11  1  0
 11 12  2  0
 12 13  1  0
 13 14  2  0
 14 15  1  0
 15 16  2  0
 15 17  1  0
 17 18  2  0
 18 19  1  0
 19 20  2  0
 20 21  1  0
 21 22  2  0
 22 23  1  0
 23 24  2  0
 18 25  1  0
 25 26  1  0
 26 27  2  0
 27 28  1  0
 27 11  1  0
 26 14  1  0
 24 19  1  0
  1 29  1  0
  1 30  1  0
  1 31  1  0
  2 32  1  0
  2 33  1  0
  3 34  1  0
  3 35  1  0
  5 36  1  0
  5 37  1  0
  6 38  1  0
  6 39  1  0
  7 40  1  0
  7 41  1  0
  7 42  1  0
  8 43  1  0
  8 44  1  0
  9 45  1  0
  9 46  1  0
 12 47  1  0
 13 48  1  0
 17 49  1  0
 20 50  1  0
 21 51  1  0
 22 52  1  0
 23 53  1  0
 24 54  1  0
M  END
>  <UniqueID>  (13) 
13

>  <SMILES>  (13) 
CCCN(CCC)CCOc1ccc2c(=O)cc(-c3ccccc3)oc2c1Cl

>  <Energy>  (13) 
59.607182091973534

>  <Genealogy>  (13) 
CCCN(CCC)CCOc1ccc2c(=O)cc(-c3ccccc3)oc2c1Cl (3D coordinates assigned)
CCCN(CCC)CCOc1ccc2c(=O)cc(-c3ccccc3)oc2c1Cl (optimized conformer: 59.607182091973534 kcal/mol)

>  <smiles>  (13) 
CCCN(CCC)CCOc1ccc2c(=O)cc(-c3ccccc3)oc2c1Cl

>  <score_type>  (13) 
oracle

>  <origin>  (13) 
adg

>  <m_score__min__energy>  (13) 
-9.4000000000000004

>  <m_primary>  (13) 
energy

$$$$
13:0
     RDKit          3D

 51 54  0  0  0  0  0  0  0  0999 V2000
   -3.8540   24.1540  -27.1240 C   0  0  0  0  0  0  0  0  0  0  0  0
   -4.3260   23.7190  -28.5110 C   0  0  0  0  0  0  0  0  0  0  0  0
   -5.3540   24.6390  -29.0270 N   0  0  0  0  0  0  0  0  0  0  0  0
   -5.5040   24.5410  -30.4910 C   0  0  0  0  0  0  0  0  0  0  0  0
   -4.6170   23.4430  -31.0980 C   0  0  0  0  0  0  0  0  0  0  0  0
   -5.1600   22.9890  -32.3760 N   0  0  0  0  0  0  0  0  0  0  0  0
   -5.7200   21.6780  -32.4980 C   0  0  0  0  0  0  0  0  0  0  0  0
   -7.0960   21.4390  -32.2930 C   0  0  0  0  0  0  0  0  0  0  0  0
   -7.9580   22.4880  -31.9210 C   0  0  0  0  0  0  0  0  0  0  0  0
   -9.3220   22.2630  -31.7580 C   0  0  0  0  0  0  0  0  0  0  0  0
   -9.8520   20.9930  -31.9660 C   0  0  0  0  0  0  0  0  0  0  0  0
   -9.0200   19.9300  -32.3200 C   0  0  0  0  0  0  0  0  0  0  0  0
   -7.6240   20.1140  -32.4710 C   0  0  0  0  0  0  0  0  0  0  0  0
   -6.7800   19.0590  -32.7930 N   0  0  0  0  0  0  0  0  0  0  0  0
   -7.2860   17.6780  -32.8910 C   0  0  0  0  0  0  0  0  0  0  0  0
   -5.4570   19.3330  -33.0280 C   0  0  0  0  0  0  0  0  0  0  0  0
   -4.5100   18.4560  -33.4490 N   0  0  0  0  0  0  0  0  0  0  0  0
   -3.3770   19.1820  -33.5430 C   0  0  0  0  0  0  0  0  0  0  0  0
   -2.1240   18.7220  -33.9460 C   0  0  0  0  0  0  0  0  0  0  0  0
   -1.0570   19.6440  -33.9940 C   0  0  0  0  0  0  0  0  0  0  0  0
    0.3150   19.1880  -34.3980 C   0  0  0  0  0  0  0  0  0  0  0  0
   -1.2730   20.9950  -33.6200 C   0  0  0  0  0  0  0  0  0  0  0  0
   -0.2480   21.8840  -33.6430 F   0  0  0  0  0  0  0  0  0  0  0  0
   -2.5480   21.4320  -33.2210 C   0  0  0  0  0  0  0  0  0  0  0  0
   -3.5850   20.4980  -33.1950 C   0  0  0  0  0  0  0  0  0  0  0  0
   -4.9270   20.5980  -32.8720 C   0  0  0  0  0  0  0  0  0  0  0  0
   -4.4329   23.6205  -26.3557 H   0  0  0  0  0  0  0  0  0  0  0  0
   -2.7860   23.9168  -27.0090 H   0  0  0  0  0  0  0  0  0  0  0  0
   -4.0034   25.2377  -27.0090 H   0  0  0  0  0  0  0  0  0  0  0  0
   -3.4677   23.7150  -29.1990 H   0  0  0  0  0  0  0  0  0  0  0  0
   -4.7611   22.7116  -28.4351 H   0  0  0  0  0  0  0  0  0  0  0  0
   -5.1210   25.6240  -28.7560 H   0  0  0  0  0  0  0  0  0  0  0  0
   -6.2740   24.3900  -28.5930 H   0  0  0  0  0  0  0  0  0  0  0  0
   -6.5550   24.3153  -30.7242 H   0  0  0  0  0  0  0  0  0  0  0  0
   -5.1925   25.5024  -30.9254 H   0  0  0  0  0  0  0  0  0  0  0  0
   -3.6049   23.8433  -31.2573 H   0  0  0  0  0  0  0  0  0  0  0  0
   -4.5849   22.5901  -30.4041 H   0  0  0  0  0  0  0  0  0  0  0  0
   -5.2350   23.6390  -33.1910 H   0  0  0  0  0  0  0  0  0  0  0  0
   -7.5494   23.4961  -31.7574 H   0  0  0  0  0  0  0  0  0  0  0  0
   -9.9831   23.0916  -31.4639 H   0  0  0  0  0  0  0  0  0  0  0  0
  -10.9331   20.8261  -31.8507 H   0  0  0  0  0  0  0  0  0  0  0  0
   -9.4555   18.9333  -32.4844 H   0  0  0  0  0  0  0  0  0  0  0  0
   -7.4356   17.2697  -31.8806 H   0  0  0  0  0  0  0  0  0  0  0  0
   -8.2433   17.6758  -33.4328 H   0  0  0  0  0  0  0  0  0  0  0  0
   -6.5567   17.0579  -33.4328 H   0  0  0  0  0  0  0  0  0  0  0  0
   -4.6050   17.4470  -33.6930 H   0  0  0  0  0  0  0  0  0  0  0  0
   -1.9712   17.6675  -34.2195 H   0  0  0  0  0  0  0  0  0  0  0  0
    0.9150   18.9886  -33.4978 H   0  0  0  0  0  0  0  0  0  0  0  0
    0.2344   18.2683  -34.9961 H   0  0  0  0  0  0  0  0  0  0  0  0
    0.8010   19.9729  -34.9961 H   0  0  0  0  0  0  0  0  0  0  0  0
   -2.7236   22.4802  -32.9373 H   0  0  0  0  0  0  0  0  0  0  0  0
  1  2  1  0
  2  3  1  0
  3  4  1  0
  4  5  1  0
  5  6  1  0
  6  7  1  0
  7  8  2  0
  8  9  1  0
  9 10  2  0
 10 11  1  0
 11 12  2  0
 12 13  1  0
 13 14  2  0
 14 15  1  0
 14 16  1  0
 16 17  1  0
 17 18  1  0
 18 19  2  0
 19 20  1  0
 20 21  1  0
 20 22  2  0
 22 23  1  0
 22 24  1  0
 24 25  2  0
 25 26  1  0
 26  7  1  0
 13  8  1  0
 26 16  2  0
 25 18  1  0
  1 27  1  0
  1 28  1  0
  1 29  1  0
  2 30  1  0
  2 31  1  0
  3 32  1  0
  3 33  1  0
  4 34  1  0
  4 35  1  0
  5 36  1  0
  5 37  1  0
  6 38  1  0
  9 39  1  0
 10 40  1  0
 11 41  1  0
 12 42  1  0
 15 43  1  0
 15 44  1  0
 15 45  1  0
 17 46  1  0
 19 47  1  0
 21 48  1  0
 21 49  1  0
 21 50  1  0
 24 51  1  0
M  CHG  2   3   1  14   1
M  END
>  <UniqueID>  (14) 
14

>  <SMILES>  (14) 
CC[NH2+]CCNc1c2ccccc2[n+](C)c2[nH]c3cc(C)c(F)cc3c12

>  <Energy>  (14) 
106.87434064839117

>  <Genealogy>  (14) 
CC[NH2+]CCNc1c2ccccc2[n+](C)c2[nH]c3cc(C)c(F)cc3c12 (protonated)
CC[NH2+]CCNc1c2ccccc2[n+](C)c2[nH]c3cc(C)c(F)cc3c12 (3D coordinates assigned)
CC[NH2+]CCNc1c2ccccc2[n+](C)c2[nH]c3cc(C)c(F)cc3c12 (optimized conformer: 106.87434064839117 kcal/mol)

>  <smiles>  (14) 
CCNCCNc1c2ccccc2[n+](C)c2[nH]c3cc(C)c(F)cc3c12

>  <score_type>  (14) 
oracle

>  <origin>  (14) 
adg

>  <m_score__min__energy>  (14) 
-8.5299999999999994

>  <m_primary>  (14) 
energy

$$$$
14:0
     RDKit          3D

 56 59  0  0  0  0  0  0  0  0999 V2000
   -9.3090   21.5510  -30.7970 C   0  0  0  0  0  0  0  0  0  0  0  0
   -8.4250   21.7310  -32.0440 C   0  0  0  0  0  0  0  0  0  0  0  0
   -6.9730   21.7930  -31.7270 N   0  0  0  0  0  0  0  0  0  0  0  0
   -6.4500   22.9590  -31.1920 C   0  0  0  0  0  0  0  0  0  0  0  0
   -7.2600   23.9480  -30.5780 C   0  0  0  0  0  0  0  0  0  0  0  0
   -6.6960   25.1000  -30.0250 C   0  0  0  0  0  0  0  0  0  0  0  0
   -5.3210   25.3060  -30.0810 C   0  0  0  0  0  0  0  0  0  0  0  0
   -4.5040   24.3680  -30.7070 C   0  0  0  0  0  0  0  0  0  0  0  0
   -5.0590   23.2060  -31.2690 C   0  0  0  0  0  0  0  0  0  0  0  0
   -4.2460   22.3240  -31.9710 C   0  0  0  0  0  0  0  0  0  0  0  0
   -4.7760   21.1520  -32.5290 C   0  0  0  0  0  0  0  0  0  0  0  0
   -4.0070   20.3020  -33.3710 C   0  0  0  0  0  0  0  0  0  0  0  0
   -2.7020   20.7250  -33.8550 N   0  0  0  0  0  0  0  0  0  0  0  0
   -1.6930   20.6080  -32.7900 C   0  0  0  0  0  0  0  0  0  0  0  0
   -0.2740   20.7060  -33.3670 C   0  0  0  0  0  0  0  0  0  0  0  0
   -0.3150   20.7770  -34.8450 N   0  0  0  0  0  0  0  0  0  0  0  0
    0.2620   19.5560  -35.4300 C   0  0  0  0  0  0  0  0  0  0  0  0
    0.4240   21.9530  -35.3400 C   0  0  0  0  0  0  0  0  0  0  0  0
   -4.5640   19.0590  -33.7730 C   0  0  0  0  0  0  0  0  0  0  0  0
   -3.8560   18.1460  -34.5930 C   0  0  0  0  0  0  0  0  0  0  0  0
   -4.4300   16.9370  -34.9820 C   0  0  0  0  0  0  0  0  0  0  0  0
   -5.7080   16.6020  -34.5590 C   0  0  0  0  0  0  0  0  0  0  0  0
   -6.4130   17.4630  -33.7230 C   0  0  0  0  0  0  0  0  0  0  0  0
   -5.8510   18.6920  -33.2970 C   0  0  0  0  0  0  0  0  0  0  0  0
   -6.5300   19.5130  -32.4250 N   0  0  0  0  0  0  0  0  0  0  0  0
   -7.5150   18.9060  -31.5080 C   0  0  0  0  0  0  0  0  0  0  0  0
   -6.1170   20.8140  -32.2230 C   0  0  0  0  0  0  0  0  0  0  0  0
   -8.6962   21.6758  -29.8920 H   0  0  0  0  0  0  0  0  0  0  0  0
  -10.1105   22.3044  -30.8039 H   0  0  0  0  0  0  0  0  0  0  0  0
   -9.7521   20.5442  -30.8039 H   0  0  0  0  0  0  0  0  0  0  0  0
   -8.5992   20.8824  -32.7219 H   0  0  0  0  0  0  0  0  0  0  0  0
   -8.7009   22.6907  -32.5054 H   0  0  0  0  0  0  0  0  0  0  0  0
   -8.3500   23.8056  -30.5366 H   0  0  0  0  0  0  0  0  0  0  0  0
   -7.3422   25.8483  -29.5427 H   0  0  0  0  0  0  0  0  0  0  0  0
   -4.8802   26.2081  -29.6316 H   0  0  0  0  0  0  0  0  0  0  0  0
   -3.4185   24.5377  -30.7618 H   0  0  0  0  0  0  0  0  0  0  0  0
   -3.1756   22.5478  -32.0901 H   0  0  0  0  0  0  0  0  0  0  0  0
   -2.4160   20.1710  -34.6930 H   0  0  0  0  0  0  0  0  0  0  0  0
   -2.7340   21.7020  -34.2210 H   0  0  0  0  0  0  0  0  0  0  0  0
   -1.8424   21.4186  -32.0616 H   0  0  0  0  0  0  0  0  0  0  0  0
   -1.8077   19.6283  -32.3032 H   0  0  0  0  0  0  0  0  0  0  0  0
    0.2136   21.6108  -32.9752 H   0  0  0  0  0  0  0  0  0  0  0  0
    0.2912   19.8099  -33.0711 H   0  0  0  0  0  0  0  0  0  0  0  0
    0.5819   18.8791  -34.6241 H   0  0  0  0  0  0  0  0  0  0  0  0
   -0.4944   19.0544  -36.0516 H   0  0  0  0  0  0  0  0  0  0  0  0
    1.1297   19.8219  -36.0516 H   0  0  0  0  0  0  0  0  0  0  0  0
    0.7930   22.5402  -34.4862 H   0  0  0  0  0  0  0  0  0  0  0  0
    1.2756   21.6202  -35.9515 H   0  0  0  0  0  0  0  0  0  0  0  0
   -0.2453   22.5759  -35.9515 H   0  0  0  0  0  0  0  0  0  0  0  0
   -2.8382   18.3950  -34.9276 H   0  0  0  0  0  0  0  0  0  0  0  0
   -3.8675   16.2458  -35.6269 H   0  0  0  0  0  0  0  0  0  0  0  0
   -6.1644   15.6555  -34.8844 H   0  0  0  0  0  0  0  0  0  0  0  0
   -7.4230   17.1848  -33.3875 H   0  0  0  0  0  0  0  0  0  0  0  0
   -7.2112   19.0932  -30.4675 H   0  0  0  0  0  0  0  0  0  0  0  0
   -8.5050   19.3509  -31.6866 H   0  0  0  0  0  0  0  0  0  0  0  0
   -7.5626   17.8216  -31.6866 H   0  0  0  0  0  0  0  0  0  0  0  0
  1  2  1  0
  2  3  1  0
  3  4  2  0
  4  5  1  0
  5  6  2  0
  6  7  1  0
  7  8  2  0
  8  9  1  0
  9 10  2  0
 10 11  1  0
 11 12  2  0
 12 13  1  0
 13 14  1  0
 14 15  1  0
 15 16  1  0
 16 17  1  0
 16 18  1  0
 12 19  1  0
 19 20  2  0
 20 21  1  0
 21 22  2  0
 22 23  1  0
 23 24  2  0
 24 25  1  0
 25 26  1  0
 25 27  2  0
 27  3  1  0
  9  4  1  0
 27 11  1  0
 24 19  1  0
  1 28  1  0
  1 29  1  0
  1 30  1  0
  2 31  1  0
  2 32  1  0
  5 33  1  0
  6 34  1  0
  7 35  1  0
  8 36  1  0
 10 37  1  0
 13 38  1  0
 13 39  1  0
 14 40  1  0
 14 41  1  0
 15 42  1  0
 15 43  1  0
 17 44  1  0
 17 45  1  0
 17 46  1  0
 18 47  1  0
 18 48  1  0
 18 49  1  0
 20 50  1  0
 21 51  1  0
 22 52  1  0
 23 53  1  0
 26 54  1  0
 26 55  1  0
 26 56  1  0
M  CHG  3   3   1  13   1  25   1
M  END
>  <UniqueID>  (15) 
15

>  <SMILES>  (15) 
CC[n+]1c2ccccc2cc2c([NH2+]CCN(C)C)c3ccccc3[n+](C)c21

>  <Energy>  (15) 
109.8503802178428

>  <Genealogy>  (15) 
CC[n+]1c2ccccc2cc2c([NH2+]CCN(C)C)c3ccccc3[n+](C)c21 (protonated)
CC[n+]1c2ccccc2cc2c([NH2+]CCN(C)C)c3ccccc3[n+](C)c21 (3D coordinates assigned)
CC[n+]1c2ccccc2cc2c([NH2+]CCN(C)C)c3ccccc3[n+](C)c21 (optimized conformer: 109.8503802178428 kcal/mol)

>  <smiles>  (15) 
CC[n+]1c2ccccc2cc2c(NCCN(C)C)c3ccccc3[n+](C)c21

>  <score_type>  (15) 
oracle

>  <origin>  (15) 
adg

>  <m_score__min__energy>  (15) 
-7.54

>  <m_primary>  (15) 
energy

$$$$
15:0
     RDKit          3D

 58 60  0  0  0  0  0  0  0  0999 V2000
   -5.8204   25.8344  -30.2567 H   0  0  0  0  0  0  0  0  0  0  0  0
   -5.5220   24.9430  -30.8280 C   0  0  0  0  0  0  0  0  0  0  0  0
   -4.2780   24.5990  -30.8200 N   0  0  0  0  0  0  0  0  0  0  0  0
   -3.5330   24.2720  -29.6170 C   0  0  0  0  0  0  0  0  0  0  0  0
   -4.1315   24.5347  -28.7323 H   0  0  0  0  0  0  0  0  0  0  0  0
   -3.3126   23.1944  -29.6038 H   0  0  0  0  0  0  0  0  0  0  0  0
   -2.5906   24.8392  -29.6038 H   0  0  0  0  0  0  0  0  0  0  0  0
   -6.5970   24.1790  -31.5870 C   0  0  0  0  0  0  0  0  0  0  0  0
   -7.0686   24.8551  -32.3153 H   0  0  0  0  0  0  0  0  0  0  0  0
   -7.3346   23.8089  -30.8597 H   0  0  0  0  0  0  0  0  0  0  0  0
   -6.0320   23.0140  -32.3080 N   0  0  0  0  0  0  0  0  0  0  0  0
   -5.0590   22.8730  -31.9490 H   0  0  0  0  0  0  0  0  0  0  0  0
   -5.9620   23.2880  -33.3250 H   0  0  0  0  0  0  0  0  0  0  0  0
   -6.7950   21.7660  -32.2450 C   0  0  0  0  0  0  0  0  0  0  0  0
   -8.1790   21.7660  -31.9530 C   0  0  0  0  0  0  0  0  0  0  0  0
   -8.6455   22.6758  -31.5473 H   0  0  0  0  0  0  0  0  0  0  0  0
   -8.9580   20.6400  -32.1690 C   0  0  0  0  0  0  0  0  0  0  0  0
  -10.0291   20.6607  -31.9193 H   0  0  0  0  0  0  0  0  0  0  0  0
   -8.3950   19.4850  -32.6990 C   0  0  0  0  0  0  0  0  0  0  0  0
   -9.0448   18.6348  -32.9541 H   0  0  0  0  0  0  0  0  0  0  0  0
   -7.0010   19.3840  -32.9160 C   0  0  0  0  0  0  0  0  0  0  0  0
   -6.1860   20.5170  -32.6230 C   0  0  0  0  0  0  0  0  0  0  0  0
   -4.7840   20.3640  -32.7420 C   0  0  0  0  0  0  0  0  0  0  0  0
   -3.8850   21.1480  -31.9410 N   0  0  0  0  0  0  0  0  0  0  0  0
   -3.1590   21.7370  -32.4080 H   0  0  0  0  0  0  0  0  0  0  0  0
   -3.8650   21.0360  -30.4750 C   0  0  0  0  0  0  0  0  0  0  0  0
   -4.3234   20.0787  -30.1860 H   0  0  0  0  0  0  0  0  0  0  0  0
   -4.4260   21.8874  -30.0623 H   0  0  0  0  0  0  0  0  0  0  0  0
   -2.4340   21.0920  -29.9100 C   0  0  0  0  0  0  0  0  0  0  0  0
   -2.0723   20.0648  -29.7548 H   0  0  0  0  0  0  0  0  0  0  0  0
   -2.4630   21.6492  -28.9620 H   0  0  0  0  0  0  0  0  0  0  0  0
   -1.5050   21.7940  -30.8280 N   0  0  0  0  0  0  0  0  0  0  0  0
   -0.7410   20.7930  -31.6080 C   0  0  0  0  0  0  0  0  0  0  0  0
   -0.2205   20.1111  -30.9194 H   0  0  0  0  0  0  0  0  0  0  0  0
   -1.4315   20.2174  -32.2419 H   0  0  0  0  0  0  0  0  0  0  0  0
   -0.0036   21.3072  -32.2419 H   0  0  0  0  0  0  0  0  0  0  0  0
   -0.5820   22.6690  -30.0650 C   0  0  0  0  0  0  0  0  0  0  0  0
   -0.8606   23.7189  -30.2387 H   0  0  0  0  0  0  0  0  0  0  0  0
    0.4432   22.4713  -30.4111 H   0  0  0  0  0  0  0  0  0  0  0  0
   -0.6430   22.3810  -28.5610 C   0  0  0  0  0  0  0  0  0  0  0  0
   -0.4467   23.3078  -28.0019 H   0  0  0  0  0  0  0  0  0  0  0  0
   -1.6417   22.0004  -28.3008 H   0  0  0  0  0  0  0  0  0  0  0  0
    0.1156   21.6281  -28.3008 H   0  0  0  0  0  0  0  0  0  0  0  0
   -4.2630   19.2820  -33.4690 C   0  0  0  0  0  0  0  0  0  0  0  0
   -2.8910   19.2160  -33.7960 C   0  0  0  0  0  0  0  0  0  0  0  0
   -2.2145   20.0181  -33.4658 H   0  0  0  0  0  0  0  0  0  0  0  0
   -2.3850   18.1500  -34.5300 C   0  0  0  0  0  0  0  0  0  0  0  0
   -1.3122   18.1061  -34.7690 H   0  0  0  0  0  0  0  0  0  0  0  0
   -3.2360   17.1390  -34.9620 C   0  0  0  0  0  0  0  0  0  0  0  0
   -2.8396   16.3112  -35.5684 H   0  0  0  0  0  0  0  0  0  0  0  0
   -4.5890   17.1700  -34.6300 C   0  0  0  0  0  0  0  0  0  0  0  0
   -5.2528   16.3673  -34.9837 H   0  0  0  0  0  0  0  0  0  0  0  0
   -5.1230   18.2240  -33.8410 C   0  0  0  0  0  0  0  0  0  0  0  0
   -6.4330   18.2220  -33.4080 N   0  0  0  0  0  0  0  0  0  0  0  0
   -7.2210   16.9720  -33.4590 C   0  0  0  0  0  0  0  0  0  0  0  0
   -7.4355   16.6317  -32.4352 H   0  0  0  0  0  0  0  0  0  0  0  0
   -8.1667   17.1561  -33.9899 H   0  0  0  0  0  0  0  0  0  0  0  0
   -6.6471   16.1982  -33.9899 H   0  0  0  0  0  0  0  0  0  0  0  0
  1  2  1  0
  2  3  2  0
  3  4  1  0
  4  5  1  0
  4  6  1  0
  4  7  1  0
  2  8  1  0
  8  9  1  0
  8 10  1  0
  8 11  1  0
 11 12  1  0
 11 13  1  0
 11 14  1  0
 14 15  2  0
 15 16  1  0
 15 17  1  0
 17 18  1  0
 17 19  2  0
 19 20  1  0
 19 21  1  0
 21 22  2  0
 22 23  1  0
 23 24  1  0
 24 25  1  0
 24 26  1  0
 26 27  1  0
 26 28  1  0
 26 29  1  0
 29 30  1  0
 29 31  1  0
 29 32  1  0
 32 33  1  0
 33 34  1  0
 33 35  1  0
 33 36  1  0
 32 37  1  0
 37 38  1  0
 37 39  1  0
 37 40  1  0
 40 41  1  0
 40 42  1  0
 40 43  1  0
 23 44  2  0
 44 45  1  0
 45 46  1  0
 45 47  2  0
 47 48  1  0
 47 49  1  0
 49 50  1  0
 49 51  2  0
 51 52  1  0
 51 53  1  0
 53 54  2  0
 54 55  1  0
 55 56  1  0
 55 57  1  0
 55 58  1  0
 22 14  1  0
 53 44  1  0
 54 21  1  0
M  CHG  2  11   1  54   1
M  END
>  <UniqueID>  (16) 
16

>  <SMILES>  (16) 
CCN(C)CCNc1c2ccccc2[n+](C)c2cccc([NH2+]C/C=N\C)c12

>  <Energy>  (16) 
99.55454164723172

>  <Genealogy>  (16) 
CCN(C)CCNc1c2ccccc2[n+](C)c2cccc([NH2+]CC=NC)c12 (protonated)
CCN(C)CCNc1c2ccccc2[n+](C)c2cccc([NH2+]C/C=N\C)c12 (cis-trans isomerization)
CCN(C)CCNc1c2ccccc2[n+](C)c2cccc([NH2+]C/C=N\C)c12 (3D coordinates assigned)
CCN(C)CCNc1c2ccccc2[n+](C)c2cccc([NH2+]C/C=N\C)c12 (optimized conformer: 99.55454164723172 kcal/mol)

>  <smiles>  (16) 
CCN(C)CCNc1c2ccccc2[n+](C)c2cccc(NCC=NC)c12

>  <score_type>  (16) 
oracle

>  <origin>  (16) 
adg

>  <m_score__min__energy>  (16) 
-7.54

>  <m_primary>  (16) 
energy

$$$$
16:0
     RDKit          3D

 57 60  0  0  0  0  0  0  0  0999 V2000
    0.0400   21.5500  -34.9490 C   0  0  0  0  0  0  0  0  0  0  0  0
   -0.0070   21.0430  -33.5140 C   0  0  0  0  0  0  0  0  0  0  0  0
   -1.3720   21.1720  -32.9860 N   0  0  0  0  0  0  0  0  0  0  0  0
   -2.3680   20.5250  -33.8530 C   0  0  0  0  0  0  0  0  0  0  0  0
   -3.7940   20.5740  -33.2560 C   0  0  0  0  0  0  0  0  0  0  0  0
   -3.7830   20.9740  -31.8350 N   0  0  0  0  0  0  0  0  0  0  0  0
   -5.1110   21.3470  -31.3610 C   0  0  0  0  0  0  0  0  0  0  0  0
   -6.2170   20.4950  -31.5910 C   0  0  0  0  0  0  0  0  0  0  0  0
   -6.0540   19.1030  -31.7670 C   0  0  0  0  0  0  0  0  0  0  0  0
   -7.1560   18.2770  -31.9750 C   0  0  0  0  0  0  0  0  0  0  0  0
   -8.4360   18.8150  -32.0010 C   0  0  0  0  0  0  0  0  0  0  0  0
   -8.6220   20.1870  -31.8400 C   0  0  0  0  0  0  0  0  0  0  0  0
   -7.5170   21.0570  -31.6570 C   0  0  0  0  0  0  0  0  0  0  0  0
   -7.6790   22.4230  -31.5590 N   0  0  0  0  0  0  0  0  0  0  0  0
   -8.9390   23.0540  -32.0140 C   0  0  0  0  0  0  0  0  0  0  0  0
   -6.6670   23.1940  -31.0220 C   0  0  0  0  0  0  0  0  0  0  0  0
   -6.8950   24.5340  -30.6250 C   0  0  0  0  0  0  0  0  0  0  0  0
   -5.8860   25.2950  -30.0500 C   0  0  0  0  0  0  0  0  0  0  0  0
   -4.6510   24.7250  -29.7800 C   0  0  0  0  0  0  0  0  0  0  0  0
   -4.3880   23.3930  -30.1170 C   0  0  0  0  0  0  0  0  0  0  0  0
   -3.2370   22.7700  -29.5120 N   0  0  0  0  0  0  0  0  0  0  0  0
   -1.9060   22.9960  -30.0880 C   0  0  0  0  0  0  0  0  0  0  0  0
   -0.9800   21.8290  -29.7400 C   0  0  0  0  0  0  0  0  0  0  0  0
   -1.6900   20.6160  -29.8870 O   0  0  0  0  0  0  0  0  0  0  0  0
   -2.6380   20.4560  -28.8410 C   0  0  0  0  0  0  0  0  0  0  0  0
   -3.3990   21.7500  -28.4680 C   0  0  0  0  0  0  0  0  0  0  0  0
   -5.3680   22.6390  -30.8320 C   0  0  0  0  0  0  0  0  0  0  0  0
    0.1415   22.6453  -34.9478 H   0  0  0  0  0  0  0  0  0  0  0  0
    0.9005   21.1026  -35.4680 H   0  0  0  0  0  0  0  0  0  0  0  0
   -0.8881   21.2684  -35.4680 H   0  0  0  0  0  0  0  0  0  0  0  0
    0.2956   19.9857  -33.4900 H   0  0  0  0  0  0  0  0  0  0  0  0
    0.6800   21.6389  -32.8952 H   0  0  0  0  0  0  0  0  0  0  0  0
   -1.4110   20.7440  -32.0300 H   0  0  0  0  0  0  0  0  0  0  0  0
   -2.3751   21.0380  -34.8260 H   0  0  0  0  0  0  0  0  0  0  0  0
   -2.0848   19.4670  -33.9557 H   0  0  0  0  0  0  0  0  0  0  0  0
   -4.3929   21.3002  -33.8251 H   0  0  0  0  0  0  0  0  0  0  0  0
   -4.2260   19.5646  -33.3224 H   0  0  0  0  0  0  0  0  0  0  0  0
   -3.1040   21.7560  -31.7680 H   0  0  0  0  0  0  0  0  0  0  0  0
   -3.3960   20.1980  -31.2530 H   0  0  0  0  0  0  0  0  0  0  0  0
   -5.0448   18.6662  -31.7395 H   0  0  0  0  0  0  0  0  0  0  0  0
   -7.0121   17.1960  -32.1190 H   0  0  0  0  0  0  0  0  0  0  0  0
   -9.3050   18.1570  -32.1490 H   0  0  0  0  0  0  0  0  0  0  0  0
   -9.6410   20.6011  -31.8551 H   0  0  0  0  0  0  0  0  0  0  0  0
   -9.5359   23.3529  -31.1397 H   0  0  0  0  0  0  0  0  0  0  0  0
   -8.7064   23.9420  -32.6201 H   0  0  0  0  0  0  0  0  0  0  0  0
   -9.5107   22.3358  -32.6201 H   0  0  0  0  0  0  0  0  0  0  0  0
   -7.8893   24.9800  -30.7748 H   0  0  0  0  0  0  0  0  0  0  0  0
   -6.0667   26.3527  -29.8080 H   0  0  0  0  0  0  0  0  0  0  0  0
   -3.8688   25.3275  -29.2950 H   0  0  0  0  0  0  0  0  0  0  0  0
   -1.9917   23.0794  -31.1815 H   0  0  0  0  0  0  0  0  0  0  0  0
   -1.4868   23.9252  -29.6746 H   0  0  0  0  0  0  0  0  0  0  0  0
   -0.1127   21.8325  -30.4165 H   0  0  0  0  0  0  0  0  0  0  0  0
   -0.6300   21.9302  -28.7021 H   0  0  0  0  0  0  0  0  0  0  0  0
   -3.3744   19.7019  -29.1559 H   0  0  0  0  0  0  0  0  0  0  0  0
   -2.0726   20.1543  -27.9470 H   0  0  0  0  0  0  0  0  0  0  0  0
   -4.4682   21.5189  -28.3525 H   0  0  0  0  0  0  0  0  0  0  0  0
   -2.9878   22.1416  -27.5259 H   0  0  0  0  0  0  0  0  0  0  0  0
  1  2  1  0
  2  3  1  0
  3  4  1  0
  4  5  1  0
  5  6  1  0
  6  7  1  0
  7  8  2  0
  8  9  1  0
  9 10  2  0
 10 11  1  0
 11 12  2  0
 12 13  1  0
 13 14  2  0
 14 15  1  0
 14 16  1  0
 16 17  2  0
 17 18  1  0
 18 19  2  0
 19 20  1  0
 20 21  1  0
 21 22  1  0
 22 23  1  0
 23 24  1  0
 24 25  1  0
 25 26  1  0
 20 27  2  0
 27  7  1  0
 13  8  1  0
 27 16  1  0
 26 21  1  0
  1 28  1  0
  1 29  1  0
  1 30  1  0
  2 31  1  0
  2 32  1  0
  3 33  1  0
  4 34  1  0
  4 35  1  0
  5 36  1  0
  5 37  1  0
  6 38  1  0
  6 39  1  0
  9 40  1  0
 10 41  1  0
 11 42  1  0
 12 43  1  0
 15 44  1  0
 15 45  1  0
 15 46  1  0
 17 47  1  0
 18 48  1  0
 19 49  1  0
 22 50  1  0
 22 51  1  0
 23 52  1  0
 23 53  1  0
 25 54  1  0
 25 55  1  0
 26 56  1  0
 26 57  1  0
M  CHG  2   6   1  14   1
M  END
>  <UniqueID>  (17) 
17

>  <SMILES>  (17) 
CCNCC[NH2+]c1c2ccccc2[n+](C)c2cccc(N3CCOCC3)c12

>  <Energy>  (17) 
105.19217932255616

>  <Genealogy>  (17) 
CCNCC[NH2+]c1c2ccccc2[n+](C)c2cccc(N3CCOCC3)c12 (protonated)
CCNCC[NH2+]c1c2ccccc2[n+](C)c2cccc(N3CCOCC3)c12 (3D coordinates assigned)
CCNCC[NH2+]c1c2ccccc2[n+](C)c2cccc(N3CCOCC3)c12 (nonaromatic ring conformer: 105.19217932255616 kcal/mol)

>  <smiles>  (17) 
CCNCCNc1c2ccccc2[n+](C)c2cccc(N3CCOCC3)c12

>  <score_type>  (17) 
oracle

>  <origin>  (17) 
adg

>  <m_score__min__energy>  (17) 
-7.1699999999999999

>  <m_primary>  (17) 
energy

$$$$
17:0
     RDKit          3D

 83 86  0  0  0  0  0  0  0  0999 V2000
    3.1070   25.3870  -35.3550 C   0  0  0  0  0  0  0  0  0  0  0  0
    1.9180   26.0260  -36.0770 C   0  0  0  0  0  0  0  0  0  0  0  0
    0.7350   25.0560  -36.2350 C   0  0  0  0  0  0  0  0  0  0  0  0
    1.0990   23.5940  -35.9140 C   0  0  0  0  0  0  0  0  0  0  0  0
   -0.0920   22.7920  -35.5720 N   0  0  0  0  0  0  0  0  0  0  0  0
    0.1980   21.3450  -35.5880 C   0  0  0  0  0  0  0  0  0  0  0  0
   -0.6020   20.5650  -34.5260 C   0  0  0  0  0  0  0  0  0  0  0  0
   -0.7250   21.3600  -33.3580 O   0  0  0  0  0  0  0  0  0  0  0  0
   -0.7870   20.5630  -32.1880 C   0  0  0  0  0  0  0  0  0  0  0  0
   -2.1220   20.7810  -31.4670 C   0  0  0  0  0  0  0  0  0  0  0  0
   -3.0320   21.5790  -32.2880 N   0  0  0  0  0  0  0  0  0  0  0  0
   -4.4130   21.2190  -32.4570 C   0  0  0  0  0  0  0  0  0  0  0  0
   -4.7330   20.0010  -33.0890 C   0  0  0  0  0  0  0  0  0  0  0  0
   -3.7220   19.1710  -33.6210 C   0  0  0  0  0  0  0  0  0  0  0  0
   -4.0400   17.9850  -34.2770 C   0  0  0  0  0  0  0  0  0  0  0  0
   -5.3680   17.6080  -34.4230 C   0  0  0  0  0  0  0  0  0  0  0  0
   -6.3820   18.3970  -33.8850 C   0  0  0  0  0  0  0  0  0  0  0  0
   -6.0860   19.5880  -33.1720 C   0  0  0  0  0  0  0  0  0  0  0  0
   -7.0750   20.3330  -32.5660 N   0  0  0  0  0  0  0  0  0  0  0  0
   -8.4220   19.7490  -32.3740 C   0  0  0  0  0  0  0  0  0  0  0  0
   -6.8010   21.6050  -32.1010 C   0  0  0  0  0  0  0  0  0  0  0  0
   -7.8460   22.4890  -31.7440 C   0  0  0  0  0  0  0  0  0  0  0  0
   -7.5800   23.7360  -31.1970 C   0  0  0  0  0  0  0  0  0  0  0  0
   -6.2740   24.1480  -30.9980 C   0  0  0  0  0  0  0  0  0  0  0  0
   -5.1960   23.3340  -31.3870 C   0  0  0  0  0  0  0  0  0  0  0  0
   -3.8710   23.7700  -31.1950 O   0  0  0  0  0  0  0  0  0  0  0  0
   -3.2800   24.1850  -29.9650 C   0  0  0  0  0  0  0  0  0  0  0  0
   -2.5470   23.0310  -29.2300 C   0  0  0  0  0  0  0  0  0  0  0  0
   -2.8520   22.8420  -27.7630 N   0  0  0  0  0  0  0  0  0  0  0  0
   -3.8570   23.8410  -27.3100 C   0  0  0  0  0  0  0  0  0  0  0  0
   -3.4810   21.4960  -27.5770 C   0  0  0  0  0  0  0  0  0  0  0  0
   -2.5370   20.3290  -27.9400 C   0  0  0  0  0  0  0  0  0  0  0  0
   -1.0960   20.5580  -27.4620 C   0  0  0  0  0  0  0  0  0  0  0  0
   -1.0280   21.6430  -26.3930 C   0  0  0  0  0  0  0  0  0  0  0  0
   -1.6110   22.9730  -26.9140 C   0  0  0  0  0  0  0  0  0  0  0  0
   -5.4530   22.0590  -31.9790 C   0  0  0  0  0  0  0  0  0  0  0  0
    2.9609   25.4655  -34.2676 H   0  0  0  0  0  0  0  0  0  0  0  0
    3.1821   24.3270  -35.6393 H   0  0  0  0  0  0  0  0  0  0  0  0
    4.0324   25.9093  -35.6393 H   0  0  0  0  0  0  0  0  0  0  0  0
    1.5828   26.9002  -35.4995 H   0  0  0  0  0  0  0  0  0  0  0  0
    2.2531   26.3118  -37.0850 H   0  0  0  0  0  0  0  0  0  0  0  0
   -0.0696   25.3729  -35.5551 H   0  0  0  0  0  0  0  0  0  0  0  0
    0.4240   25.0904  -37.2896 H   0  0  0  0  0  0  0  0  0  0  0  0
    1.5875   23.1481  -36.7929 H   0  0  0  0  0  0  0  0  0  0  0  0
    1.7714   23.5936  -35.0434 H   0  0  0  0  0  0  0  0  0  0  0  0
   -0.8400   22.9760  -36.2800 H   0  0  0  0  0  0  0  0  0  0  0  0
   -0.4580   23.0710  -34.6310 H   0  0  0  0  0  0  0  0  0  0  0  0
   -0.0549   20.9466  -36.5816 H   0  0  0  0  0  0  0  0  0  0  0  0
    1.2662   21.2182  -35.3580 H   0  0  0  0  0  0  0  0  0  0  0  0
   -1.6025   20.3300  -34.9182 H   0  0  0  0  0  0  0  0  0  0  0  0
   -0.0782   19.6289  -34.2825 H   0  0  0  0  0  0  0  0  0  0  0  0
   -0.6932   19.5027  -32.4656 H   0  0  0  0  0  0  0  0  0  0  0  0
    0.0345   20.8500  -31.5151 H   0  0  0  0  0  0  0  0  0  0  0  0
   -2.5845   19.8043  -31.2615 H   0  0  0  0  0  0  0  0  0  0  0  0
   -1.9310   21.3199  -30.5272 H   0  0  0  0  0  0  0  0  0  0  0  0
   -2.6180   22.2280  -32.9900 H   0  0  0  0  0  0  0  0  0  0  0  0
   -2.6675   19.4659  -33.5155 H   0  0  0  0  0  0  0  0  0  0  0  0
   -3.2394   17.3470  -34.6794 H   0  0  0  0  0  0  0  0  0  0  0  0
   -5.6200   16.6844  -34.9646 H   0  0  0  0  0  0  0  0  0  0  0  0
   -7.4307   18.0916  -34.0150 H   0  0  0  0  0  0  0  0  0  0  0  0
   -8.6322   19.6579  -31.2981 H   0  0  0  0  0  0  0  0  0  0  0  0
   -9.1745   20.4017  -32.8406 H   0  0  0  0  0  0  0  0  0  0  0  0
   -8.4600   18.7536  -32.8406 H   0  0  0  0  0  0  0  0  0  0  0  0
   -8.8901   22.1817  -31.9032 H   0  0  0  0  0  0  0  0  0  0  0  0
   -8.4116   24.4006  -30.9201 H   0  0  0  0  0  0  0  0  0  0  0  0
   -6.0771   25.1238  -30.5300 H   0  0  0  0  0  0  0  0  0  0  0  0
   -2.5543   24.9843  -30.1759 H   0  0  0  0  0  0  0  0  0  0  0  0
   -4.0913   24.5330  -29.3087 H   0  0  0  0  0  0  0  0  0  0  0  0
   -2.8055   22.0940  -29.7449 H   0  0  0  0  0  0  0  0  0  0  0  0
   -1.4821   23.3045  -29.2648 H   0  0  0  0  0  0  0  0  0  0  0  0
   -3.8807   23.8646  -26.2105 H   0  0  0  0  0  0  0  0  0  0  0  0
   -3.5835   24.8355  -27.6923 H   0  0  0  0  0  0  0  0  0  0  0  0
   -4.8499   23.5616  -27.6923 H   0  0  0  0  0  0  0  0  0  0  0  0
   -3.7775   21.3911  -26.5229 H   0  0  0  0  0  0  0  0  0  0  0  0
   -4.3447   21.4417  -28.2561 H   0  0  0  0  0  0  0  0  0  0  0  0
   -2.9199   19.4093  -27.4737 H   0  0  0  0  0  0  0  0  0  0  0  0
   -2.5134   20.2513  -29.0370 H   0  0  0  0  0  0  0  0  0  0  0  0
   -0.7046   19.6189  -27.0437 H   0  0  0  0  0  0  0  0  0  0  0  0
   -0.4942   20.8837  -28.3233 H   0  0  0  0  0  0  0  0  0  0  0  0
   -1.6040   21.3180  -25.5140 H   0  0  0  0  0  0  0  0  0  0  0  0
    0.0267   21.8046  -26.1257 H   0  0  0  0  0  0  0  0  0  0  0  0
   -1.8581   23.6000  -26.0446 H   0  0  0  0  0  0  0  0  0  0  0  0
   -0.8400   23.4097  -27.5658 H   0  0  0  0  0  0  0  0  0  0  0  0
  1  2  1  0
  2  3  1  0
  3  4  1  0
  4  5  1  0
  5  6  1  0
  6  7  1  0
  7  8  1  0
  8  9  1  0
  9 10  1  0
 10 11  1  0
 11 12  1  0
 12 13  2  0
 13 14  1  0
 14 15  2  0
 15 16  1  0
 16 17  2  0
 17 18  1  0
 18 19  2  0
 19 20  1  0
 19 21  1  0
 21 22  2  0
 22 23  1  0
 23 24  2  0
 24 25  1  0
 25 26  1  0
 26 27  1  0
 27 28  1  0
 28 29  1  0
 29 30  1  0
 29 31  1  0
 31 32  1  0
 32 33  1  0
 33 34  1  0
 34 35  1  0
 25 36  2  0
 36 12  1  0
 18 13  1  0
 36 21  1  0
 35 29  1  0
  1 37  1  0
  1 38  1  0
  1 39  1  0
  2 40  1  0
  2 41  1  0
  3 42  1  0
  3 43  1  0
  4 44  1  0
  4 45  1  0
  5 46  1  0
  5 47  1  0
  6 48  1  0
  6 49  1  0
  7 50  1  0
  7 51  1  0
  9 52  1  0
  9 53  1  0
 10 54  1  0
 10 55  1  0
 11 56  1  0
 14 57  1  0
 15 58  1  0
 16 59  1  0
 17 60  1  0
 20 61  1  0
 20 62  1  0
 20 63  1  0
 22 64  1  0
 23 65  1  0
 24 66  1  0
 27 67  1  0
 27 68  1  0
 28 69  1  0
 28 70  1  0
 30 71  1  0
 30 72  1  0
 30 73  1  0
 31 74  1  0
 31 75  1  0
 32 76  1  0
 32 77  1  0
 33 78  1  0
 33 79  1  0
 34 80  1  0
 34 81  1  0
 35 82  1  0
 35 83  1  0
M  CHG  3   5   1  19   1  29   1
M  END
>  <UniqueID>  (18) 
18

>  <SMILES>  (18) 
CCCC[NH2+]CCOCCNc1c2ccccc2[n+](C)c2cccc(OCC[N+]3(C)CCCCC3)c12

>  <Energy>  (18) 
125.50455215848976

>  <Genealogy>  (18) 
CCCC[NH2+]CCOCCNc1c2ccccc2[n+](C)c2cccc(OCC[N+]3(C)CCCCC3)c12 (protonated)
CCCC[NH2+]CCOCCNc1c2ccccc2[n+](C)c2cccc(OCC[N+]3(C)CCCCC3)c12 (3D coordinates assigned)
CCCC[NH2+]CCOCCNc1c2ccccc2[n+](C)c2cccc(OCC[N+]3(C)CCCCC3)c12 (nonaromatic ring conformer: 125.50455215848976 kcal/mol)

>  <smiles>  (18) 
CCCCNCCOCCNc1c2ccccc2[n+](C)c2cccc(OCC[N+]3(C)CCCCC3)c12

>  <score_type>  (18) 
oracle

>  <origin>  (18) 
adg

>  <m_score__min__energy>  (18) 
-7.2999999999999998

>  <m_primary>  (18) 
energy

$$$$
18:0
     RDKit          3D

 85 88  0  0  0  0  0  0  0  0999 V2000
    0.1080   25.2760  -36.4720 C   0  0  0  0  0  0  0  0  0  0  0  0
    1.0230   24.0570  -36.4680 C   0  0  0  0  0  0  0  0  0  0  0  0
    0.5340   23.0460  -35.5170 N   0  0  0  0  0  0  0  0  0  0  0  0
    1.1720   21.7290  -35.6870 C   0  0  0  0  0  0  0  0  0  0  0  0
    0.2890   20.5510  -35.2220 C   0  0  0  0  0  0  0  0  0  0  0  0
   -0.9250   20.9920  -34.6450 O   0  0  0  0  0  0  0  0  0  0  0  0
   -0.7910   21.2070  -33.2520 C   0  0  0  0  0  0  0  0  0  0  0  0
   -2.1470   21.5440  -32.6340 C   0  0  0  0  0  0  0  0  0  0  0  0
   -3.2280   21.2230  -33.5660 N   0  0  0  0  0  0  0  0  0  0  0  0
   -4.4960   20.7340  -33.0940 C   0  0  0  0  0  0  0  0  0  0  0  0
   -5.3480   21.6020  -32.3880 C   0  0  0  0  0  0  0  0  0  0  0  0
   -4.9250   22.9110  -32.0560 C   0  0  0  0  0  0  0  0  0  0  0  0
   -5.7730   23.7870  -31.3890 C   0  0  0  0  0  0  0  0  0  0  0  0
   -7.0580   23.3870  -31.0500 C   0  0  0  0  0  0  0  0  0  0  0  0
   -7.4970   22.1030  -31.3620 C   0  0  0  0  0  0  0  0  0  0  0  0
   -6.6480   21.1670  -32.0160 C   0  0  0  0  0  0  0  0  0  0  0  0
   -7.0630   19.8790  -32.3080 N   0  0  0  0  0  0  0  0  0  0  0  0
   -8.3410   19.3670  -31.7470 C   0  0  0  0  0  0  0  0  0  0  0  0
   -9.5100   19.6370  -32.6960 C   0  0  0  0  0  0  0  0  0  0  0  0
   -6.2630   19.0450  -33.0750 C   0  0  0  0  0  0  0  0  0  0  0  0
   -6.7350   17.7940  -33.5480 C   0  0  0  0  0  0  0  0  0  0  0  0
   -5.9000   16.9120  -34.2210 C   0  0  0  0  0  0  0  0  0  0  0  0
   -4.5700   17.2310  -34.4300 C   0  0  0  0  0  0  0  0  0  0  0  0
   -4.0600   18.4710  -34.0190 C   0  0  0  0  0  0  0  0  0  0  0  0
   -2.6940   18.7700  -34.1810 O   0  0  0  0  0  0  0  0  0  0  0  0
   -1.6170   17.8290  -34.2110 C   0  0  0  0  0  0  0  0  0  0  0  0
   -1.0850   17.5290  -32.7850 C   0  0  0  0  0  0  0  0  0  0  0  0
    0.4110   17.4810  -32.6320 N   0  0  0  0  0  0  0  0  0  0  0  0
    1.0570   17.3910  -33.9680 C   0  0  0  0  0  0  0  0  0  0  0  0
    0.8870   18.7470  -31.9980 C   0  0  0  0  0  0  0  0  0  0  0  0
    0.4910   18.8710  -30.5110 C   0  0  0  0  0  0  0  0  0  0  0  0
    0.9260   17.7100  -29.6890 N   0  0  0  0  0  0  0  0  0  0  0  0
    2.3990   17.7280  -29.4880 C   0  0  0  0  0  0  0  0  0  0  0  0
    0.2890   17.8150  -28.3530 C   0  0  0  0  0  0  0  0  0  0  0  0
    0.4910   16.4300  -30.3160 C   0  0  0  0  0  0  0  0  0  0  0  0
    0.8720   16.3220  -31.8100 C   0  0  0  0  0  0  0  0  0  0  0  0
   -4.9300   19.4250  -33.4100 C   0  0  0  0  0  0  0  0  0  0  0  0
   -0.1137   25.5714  -35.4359 H   0  0  0  0  0  0  0  0  0  0  0  0
    0.6070   26.1073  -36.9915 H   0  0  0  0  0  0  0  0  0  0  0  0
   -0.8296   25.0290  -36.9915 H   0  0  0  0  0  0  0  0  0  0  0  0
    1.0490   23.6211  -37.4776 H   0  0  0  0  0  0  0  0  0  0  0  0
    2.0321   24.3718  -36.1636 H   0  0  0  0  0  0  0  0  0  0  0  0
   -0.5050   22.9600  -35.6090 H   0  0  0  0  0  0  0  0  0  0  0  0
    1.4044   21.5900  -36.7531 H   0  0  0  0  0  0  0  0  0  0  0  0
    2.0747   21.7238  -35.0585 H   0  0  0  0  0  0  0  0  0  0  0  0
    0.0591   19.9157  -36.0901 H   0  0  0  0  0  0  0  0  0  0  0  0
    0.8455   19.9923  -34.4551 H   0  0  0  0  0  0  0  0  0  0  0  0
   -0.3940   20.2957  -32.7808 H   0  0  0  0  0  0  0  0  0  0  0  0
   -0.1027   22.0486  -33.0847 H   0  0  0  0  0  0  0  0  0  0  0  0
   -2.2794   20.9604  -31.7110 H   0  0  0  0  0  0  0  0  0  0  0  0
   -2.1783   22.6204  -32.4094 H   0  0  0  0  0  0  0  0  0  0  0  0
   -2.9890   21.1100  -34.5780 H   0  0  0  0  0  0  0  0  0  0  0  0
   -3.9115   23.2395  -32.3295 H   0  0  0  0  0  0  0  0  0  0  0  0
   -5.4255   24.7979  -31.1296 H   0  0  0  0  0  0  0  0  0  0  0  0
   -7.7317   24.0864  -30.5333 H   0  0  0  0  0  0  0  0  0  0  0  0
   -8.5224   21.8058  -31.0971 H   0  0  0  0  0  0  0  0  0  0  0  0
   -8.2530   18.2824  -31.5858 H   0  0  0  0  0  0  0  0  0  0  0  0
   -8.5368   19.8860  -30.7971 H   0  0  0  0  0  0  0  0  0  0  0  0
  -10.4171   19.8465  -32.1101 H   0  0  0  0  0  0  0  0  0  0  0  0
   -9.2746   20.5044  -33.3302 H   0  0  0  0  0  0  0  0  0  0  0  0
   -9.6789   18.7542  -33.3302 H   0  0  0  0  0  0  0  0  0  0  0  0
   -7.7857   17.5163  -33.3780 H   0  0  0  0  0  0  0  0  0  0  0  0
   -6.2978   15.9551  -34.5898 H   0  0  0  0  0  0  0  0  0  0  0  0
   -3.9065   16.5053  -34.9231 H   0  0  0  0  0  0  0  0  0  0  0  0
   -1.9733   16.8921  -34.6641 H   0  0  0  0  0  0  0  0  0  0  0  0
   -0.7964   18.2621  -34.8018 H   0  0  0  0  0  0  0  0  0  0  0  0
   -1.4664   18.3116  -32.1127 H   0  0  0  0  0  0  0  0  0  0  0  0
   -1.4387   16.5153  -32.5454 H   0  0  0  0  0  0  0  0  0  0  0  0
    2.1394   17.2402  -33.8425 H   0  0  0  0  0  0  0  0  0  0  0  0
    0.6309   16.5435  -34.5250 H   0  0  0  0  0  0  0  0  0  0  0  0
    0.8787   18.3227  -34.5250 H   0  0  0  0  0  0  0  0  0  0  0  0
    1.9839   18.7835  -32.0715 H   0  0  0  0  0  0  0  0  0  0  0  0
    0.4081   19.5800  -32.5335 H   0  0  0  0  0  0  0  0  0  0  0  0
    0.9524   19.7817  -30.1013 H   0  0  0  0  0  0  0  0  0  0  0  0
   -0.6075   18.9084  -30.4677 H   0  0  0  0  0  0  0  0  0  0  0  0
    2.6221   17.7307  -28.4109 H   0  0  0  0  0  0  0  0  0  0  0  0
    2.8433   16.8352  -29.9522 H   0  0  0  0  0  0  0  0  0  0  0  0
    2.8214   18.6314  -29.9522 H   0  0  0  0  0  0  0  0  0  0  0  0
    1.0529   17.6891  -27.5716 H   0  0  0  0  0  0  0  0  0  0  0  0
   -0.1830   18.8031  -28.2485 H   0  0  0  0  0  0  0  0  0  0  0  0
   -0.4752   17.0307  -28.2485 H   0  0  0  0  0  0  0  0  0  0  0  0
    0.9631   15.5973  -29.7740 H   0  0  0  0  0  0  0  0  0  0  0  0
   -0.6067   16.3936  -30.2557 H   0  0  0  0  0  0  0  0  0  0  0  0
    1.9675   16.2566  -31.8853 H   0  0  0  0  0  0  0  0  0  0  0  0
    0.3702   15.4268  -32.2061 H   0  0  0  0  0  0  0  0  0  0  0  0
  1  2  1  0
  2  3  1  0
  3  4  1  0
  4  5  1  0
  5  6  1  0
  6  7  1  0
  7  8  1  0
  8  9  1  0
  9 10  1  0
 10 11  2  0
 11 12  1  0
 12 13  2  0
 13 14  1  0
 14 15  2  0
 15 16  1  0
 16 17  2  0
 17 18  1  0
 18 19  1  0
 17 20  1  0
 20 21  2  0
 21 22  1  0
 22 23  2  0
 23 24  1  0
 24 25  1  0
 25 26  1  0
 26 27  1  0
 27 28  1  0
 28 29  1  0
 28 30  1  0
 30 31  1  0
 31 32  1  0
 32 33  1  0
 32 34  1  0
 32 35  1  0
 35 36  1  0
 24 37  2  0
 37 10  1  0
 16 11  1  0
 37 20  1  0
 36 28  1  0
  1 38  1  0
  1 39  1  0
  1 40  1  0
  2 41  1  0
  2 42  1  0
  3 43  1  0
  4 44  1  0
  4 45  1  0
  5 46  1  0
  5 47  1  0
  7 48  1  0
  7 49  1  0
  8 50  1  0
  8 51  1  0
  9 52  1  0
 12 53  1  0
 13 54  1  0
 14 55  1  0
 15 56  1  0
 18 57  1  0
 18 58  1  0
 19 59  1  0
 19 60  1  0
 19 61  1  0
 21 62  1  0
 22 63  1  0
 23 64  1  0
 26 65  1  0
 26 66  1  0
 27 67  1  0
 27 68  1  0
 29 69  1  0
 29 70  1  0
 29 71  1  0
 30 72  1  0
 30 73  1  0
 31 74  1  0
 31 75  1  0
 33 76  1  0
 33 77  1  0
 33 78  1  0
 34 79  1  0
 34 80  1  0
 34 81  1  0
 35 82  1  0
 35 83  1  0
 36 84  1  0
 36 85  1  0
M  CHG  3  17   1  28   1  32   1
M  END
>  <UniqueID>  (19) 
19

>  <SMILES>  (19) 
CCNCCOCCNc1c2ccccc2[n+](CC)c2cccc(OCC[N+]3(C)CC[N+](C)(C)CC3)c12

>  <Energy>  (19) 
133.07093445256743

>  <Genealogy>  (19) 
CCNCCOCCNc1c2ccccc2[n+](CC)c2cccc(OCC[N+]3(C)CC[N+](C)(C)CC3)c12 (3D coordinates assigned)
CCNCCOCCNc1c2ccccc2[n+](CC)c2cccc(OCC[N+]3(C)CC[N+](C)(C)CC3)c12 (nonaromatic ring conformer: 133.07093445256743 kcal/mol)

>  <smiles>  (19) 
CCNCCOCCNc1c2ccccc2[n+](CC)c2cccc(OCC[N+]3(C)CC[N+](C)(C)CC3)c12

>  <score_type>  (19) 
oracle

>  <origin>  (19) 
adg

>  <m_score__min__energy>  (19) 
-8.0600000000000005

>  <m_primary>  (19) 
energy

$$$$
19:0
     RDKit          3D

 92 96  0  0  0  0  0  0  0  0999 V2000
   -3.1420   23.0710  -28.6580 C   0  0  0  0  0  0  0  0  0  0  0  0
   -3.1410   24.3250  -29.5300 C   0  0  0  0  0  0  0  0  0  0  0  0
   -3.9020   24.1060  -30.7840 N   0  0  0  0  0  0  0  0  0  0  0  0
   -5.1390   24.9300  -30.8490 C   0  0  0  0  0  0  0  0  0  0  0  0
   -5.9400   25.0030  -29.5390 C   0  0  0  0  0  0  0  0  0  0  0  0
   -4.1190   22.6590  -31.0280 C   0  0  0  0  0  0  0  0  0  0  0  0
   -3.5030   22.1630  -32.3510 C   0  0  0  0  0  0  0  0  0  0  0  0
   -4.5120   21.8940  -33.3960 N   0  0  0  0  0  0  0  0  0  0  0  0
   -5.5400   20.9650  -32.9350 C   0  0  0  0  0  0  0  0  0  0  0  0
   -6.7870   21.4270  -32.4170 C   0  0  0  0  0  0  0  0  0  0  0  0
   -7.0810   22.8060  -32.2480 C   0  0  0  0  0  0  0  0  0  0  0  0
   -8.2760   23.2260  -31.6700 C   0  0  0  0  0  0  0  0  0  0  0  0
   -9.2060   22.2960  -31.2350 C   0  0  0  0  0  0  0  0  0  0  0  0
   -8.9660   20.9400  -31.4140 C   0  0  0  0  0  0  0  0  0  0  0  0
   -7.7840   20.4760  -32.0480 C   0  0  0  0  0  0  0  0  0  0  0  0
   -7.5960   19.1330  -32.2980 N   0  0  0  0  0  0  0  0  0  0  0  0
   -8.7520   18.2060  -32.2520 C   0  0  0  0  0  0  0  0  0  0  0  0
   -6.3470   18.6590  -32.6350 C   0  0  0  0  0  0  0  0  0  0  0  0
   -6.0680   17.2680  -32.6330 C   0  0  0  0  0  0  0  0  0  0  0  0
   -4.8410   16.7740  -33.0620 C   0  0  0  0  0  0  0  0  0  0  0  0
   -3.8380   17.6510  -33.4760 C   0  0  0  0  0  0  0  0  0  0  0  0
   -2.6040   17.2000  -33.9660 O   0  0  0  0  0  0  0  0  0  0  0  0
   -1.6830   16.4140  -33.2170 C   0  0  0  0  0  0  0  0  0  0  0  0
   -0.2500   16.9860  -33.3290 C   0  0  0  0  0  0  0  0  0  0  0  0
    0.1160   18.0560  -32.3400 N   0  0  2  0  0  0  0  0  0  0  0  0
   -0.9640   19.0800  -32.2830 C   0  0  0  0  0  0  0  0  0  0  0  0
    1.4100   18.7100  -32.7260 C   0  0  0  0  0  0  0  0  0  0  0  0
    2.1830   19.2490  -31.5060 C   0  0  0  0  0  0  0  0  0  0  0  0
    2.5950   18.1620  -30.5520 N   0  0  1  0  0  0  0  0  0  0  0  0
    3.9630   17.7110  -30.9210 C   0  0  0  0  0  0  0  0  0  0  0  0
    2.6060   18.7500  -29.1690 C   0  0  0  0  0  0  0  0  0  0  0  0
    1.2560   18.8140  -28.4710 C   0  0  0  0  0  0  0  0  0  0  0  0
    0.7920   17.7220  -27.7150 C   0  0  0  0  0  0  0  0  0  0  0  0
   -0.4600   17.7710  -27.0930 C   0  0  0  0  0  0  0  0  0  0  0  0
   -1.2700   18.9010  -27.2370 C   0  0  0  0  0  0  0  0  0  0  0  0
   -2.9820   18.9620  -26.3920 Br  0  0  0  0  0  0  0  0  0  0  0  0
   -0.8300   19.9820  -28.0090 C   0  0  0  0  0  0  0  0  0  0  0  0
    0.4200   19.9360  -28.6320 C   0  0  0  0  0  0  0  0  0  0  0  0
    1.6630   16.9900  -30.6440 C   0  0  0  0  0  0  0  0  0  0  0  0
    0.2200   17.4180  -30.9810 C   0  0  0  0  0  0  0  0  0  0  0  0
   -4.0610   19.0250  -33.4100 C   0  0  0  0  0  0  0  0  0  0  0  0
   -5.3070   19.5600  -32.9900 C   0  0  0  0  0  0  0  0  0  0  0  0
   -3.1418   23.3621  -27.5972 H   0  0  0  0  0  0  0  0  0  0  0  0
   -4.0406   22.4746  -28.8744 H   0  0  0  0  0  0  0  0  0  0  0  0
   -2.2443   22.4732  -28.8744 H   0  0  0  0  0  0  0  0  0  0  0  0
   -3.6021   25.1519  -28.9701 H   0  0  0  0  0  0  0  0  0  0  0  0
   -2.1003   24.5670  -29.7915 H   0  0  0  0  0  0  0  0  0  0  0  0
   -4.8527   25.9538  -31.1315 H   0  0  0  0  0  0  0  0  0  0  0  0
   -5.7956   24.4418  -31.5842 H   0  0  0  0  0  0  0  0  0  0  0  0
   -5.2509   24.9402  -28.6839 H   0  0  0  0  0  0  0  0  0  0  0  0
   -6.4896   25.9550  -29.4978 H   0  0  0  0  0  0  0  0  0  0  0  0
   -6.6527   24.1661  -29.4978 H   0  0  0  0  0  0  0  0  0  0  0  0
   -3.6672   22.0939  -30.1994 H   0  0  0  0  0  0  0  0  0  0  0  0
   -5.2054   22.5000  -31.0955 H   0  0  0  0  0  0  0  0  0  0  0  0
   -2.8094   22.9311  -32.7237 H   0  0  0  0  0  0  0  0  0  0  0  0
   -2.9906   21.2132  -32.1381 H   0  0  0  0  0  0  0  0  0  0  0  0
   -4.0380   21.6090  -34.2740 H   0  0  0  0  0  0  0  0  0  0  0  0
   -4.9590   22.7910  -33.6860 H   0  0  0  0  0  0  0  0  0  0  0  0
   -6.3498   23.5576  -32.5805 H   0  0  0  0  0  0  0  0  0  0  0  0
   -8.4825   24.3007  -31.5583 H   0  0  0  0  0  0  0  0  0  0  0  0
  -10.1337   22.6313  -30.7483 H   0  0  0  0  0  0  0  0  0  0  0  0
   -9.7075   20.2102  -31.0569 H   0  0  0  0  0  0  0  0  0  0  0  0
   -9.0128   17.9969  -31.2040 H   0  0  0  0  0  0  0  0  0  0  0  0
   -9.6123   18.6673  -32.7589 H   0  0  0  0  0  0  0  0  0  0  0  0
   -8.4886   17.2660  -32.7589 H   0  0  0  0  0  0  0  0  0  0  0  0
   -6.8390   16.5650  -32.2845 H   0  0  0  0  0  0  0  0  0  0  0  0
   -4.6607   15.6890  -33.0750 H   0  0  0  0  0  0  0  0  0  0  0  0
   -1.9881   16.4113  -32.1602 H   0  0  0  0  0  0  0  0  0  0  0  0
   -1.6853   15.3906  -33.6203 H   0  0  0  0  0  0  0  0  0  0  0  0
    0.4554   16.1522  -33.1978 H   0  0  0  0  0  0  0  0  0  0  0  0
   -0.2019   17.4686  -34.3163 H   0  0  0  0  0  0  0  0  0  0  0  0
   -1.2011   19.3048  -31.2326 H   0  0  0  0  0  0  0  0  0  0  0  0
   -0.6263   19.9975  -32.7871 H   0  0  0  0  0  0  0  0  0  0  0  0
   -1.8622   18.6940  -32.7871 H   0  0  0  0  0  0  0  0  0  0  0  0
    2.0386   17.9708  -33.2441 H   0  0  0  0  0  0  0  0  0  0  0  0
    1.1728   19.5644  -33.3770 H   0  0  0  0  0  0  0  0  0  0  0  0
    3.0866   19.7654  -31.8623 H   0  0  0  0  0  0  0  0  0  0  0  0
    1.5119   19.9304  -30.9626 H   0  0  0  0  0  0  0  0  0  0  0  0
    4.5448   17.5192  -30.0073 H   0  0  0  0  0  0  0  0  0  0  0  0
    3.8969   16.7871  -31.5143 H   0  0  0  0  0  0  0  0  0  0  0  0
    4.4593   18.4931  -31.5143 H   0  0  0  0  0  0  0  0  0  0  0  0
    3.2796   18.1413  -28.5479 H   0  0  0  0  0  0  0  0  0  0  0  0
    2.9326   19.7936  -29.2884 H   0  0  0  0  0  0  0  0  0  0  0  0
    1.4181   16.8234  -27.6123 H   0  0  0  0  0  0  0  0  0  0  0  0
   -0.8075   16.9193  -26.4899 H   0  0  0  0  0  0  0  0  0  0  0  0
   -1.4692   20.8696  -28.1257 H   0  0  0  0  0  0  0  0  0  0  0  0
    0.7531   20.7813  -29.2520 H   0  0  0  0  0  0  0  0  0  0  0  0
    2.0240   16.3112  -31.4307 H   0  0  0  0  0  0  0  0  0  0  0  0
    1.6474   16.4932  -29.6627 H   0  0  0  0  0  0  0  0  0  0  0  0
   -0.4273   16.5290  -30.9571 H   0  0  0  0  0  0  0  0  0  0  0  0
   -0.0929   18.1631  -30.2347 H   0  0  0  0  0  0  0  0  0  0  0  0
   -3.2501   19.7132  -33.6908 H   0  0  0  0  0  0  0  0  0  0  0  0
  1  2  1  0
  2  3  1  0
  3  4  1  0
  4  5  1  0
  3  6  1  0
  6  7  1  0
  7  8  1  0
  8  9  1  0
  9 10  2  0
 10 11  1  0
 11 12  2  0
 12 13  1  0
 13 14  2  0
 14 15  1  0
 15 16  2  0
 16 17  1  0
 16 18  1  0
 18 19  2  0
 19 20  1  0
 20 21  2  0
 21 22  1  0
 22 23  1  0
 23 24  1  0
 25 24  1  6
 25 26  1  0
 25 27  1  0
 27 28  1  0
 28 29  1  0
 29 30  1  6
 29 31  1  0
 31 32  1  0
 32 33  2  0
 33 34  1  0
 34 35  2  0
 35 36  1  0
 35 37  1  0
 37 38  2  0
 29 39  1  0
 39 40  1  0
 21 41  1  0
 41 42  2  0
 42  9  1  0
 15 10  1  0
 42 18  1  0
 40 25  1  0
 38 32  1  0
  1 43  1  0
  1 44  1  0
  1 45  1  0
  2 46  1  0
  2 47  1  0
  4 48  1  0
  4 49  1  0
  5 50  1  0
  5 51  1  0
  5 52  1  0
  6 53  1  0
  6 54  1  0
  7 55  1  0
  7 56  1  0
  8 57  1  0
  8 58  1  0
 11 59  1  0
 12 60  1  0
 13 61  1  0
 14 62  1  0
 17 63  1  0
 17 64  1  0
 17 65  1  0
 19 66  1  0
 20 67  1  0
 23 68  1  0
 23 69  1  0
 24 70  1  0
 24 71  1  0
 26 72  1  0
 26 73  1  0
 26 74  1  0
 27 75  1  0
 27 76  1  0
 28 77  1  0
 28 78  1  0
 30 79  1  0
 30 80  1  0
 30 81  1  0
 31 82  1  0
 31 83  1  0
 33 84  1  0
 34 85  1  0
 37 86  1  0
 38 87  1  0
 39 88  1  0
 39 89  1  0
 40 90  1  0
 40 91  1  0
 41 92  1  0
M  CHG  4   8   1  16   1  25   1  29   1
M  END
>  <UniqueID>  (20) 
20

>  <SMILES>  (20) 
CCN(CC)CC[NH2+]c1c2ccccc2[n+](C)c2ccc(OCC[N+]3(C)CC[N+](C)(Cc4ccc(Br)cc4)CC3)cc12

>  <Energy>  (20) 
159.41271583774454

>  <Genealogy>  (20) 
CCN(CC)CC[NH2+]c1c2ccccc2[n+](C)c2ccc(OCC[N+]3(C)CC[N+](C)(Cc4ccc(Br)cc4)CC3)cc12 (protonated)
CCN(CC)CC[NH2+]c1c2ccccc2[n+](C)c2ccc(OCC[N+]3(C)CC[N+](C)(Cc4ccc(Br)cc4)CC3)cc12 (3D coordinates assigned)
CCN(CC)CC[NH2+]c1c2ccccc2[n+](C)c2ccc(OCC[N+]3(C)CC[N+](C)(Cc4ccc(Br)cc4)CC3)cc12 (nonaromatic ring conformer: 159.41271583774454 kcal/mol)

>  <smiles>  (20) 
CCN(CC)CCNc1c2ccccc2[n+](C)c2ccc(OCC[N+]3(C)CC[N+](C)(Cc4ccc(Br)cc4)CC3)cc12

>  <score_type>  (20) 
oracle

>  <origin>  (20) 
adg

>  <m_score__min__energy>  (20) 
-9.1999999999999993

>  <m_primary>  (20) 
energy

$$$$
20:0
     RDKit          3D

 78 83  0  0  0  0  0  0  0  0999 V2000
   -0.8650   17.1750  -32.4190 C   0  0  0  0  0  0  0  0  0  0  0  0
   -1.5450   17.6750  -33.6850 C   0  0  0  0  0  0  0  0  0  0  0  0
   -2.5230   18.7190  -33.3570 N   0  0  0  0  0  0  0  0  0  0  0  0
   -2.0320   20.0310  -33.7950 C   0  0  0  0  0  0  0  0  0  0  0  0
   -2.8510   21.1760  -33.1700 C   0  0  0  0  0  0  0  0  0  0  0  0
   -3.8880   20.7510  -32.2100 N   0  0  0  0  0  0  0  0  0  0  0  0
   -5.2210   21.2900  -32.1140 C   0  0  0  0  0  0  0  0  0  0  0  0
   -5.4000   22.5490  -31.5000 C   0  0  0  0  0  0  0  0  0  0  0  0
   -4.3090   23.2480  -30.9360 C   0  0  0  0  0  0  0  0  0  0  0  0
   -4.4800   24.5070  -30.3680 C   0  0  0  0  0  0  0  0  0  0  0  0
   -5.7430   25.0800  -30.3180 C   0  0  0  0  0  0  0  0  0  0  0  0
   -6.8450   24.3900  -30.8180 C   0  0  0  0  0  0  0  0  0  0  0  0
   -6.6990   23.1100  -31.4140 C   0  0  0  0  0  0  0  0  0  0  0  0
   -7.7900   22.3870  -31.8450 N   0  0  0  0  0  0  0  0  0  0  0  0
   -9.1120   23.0390  -31.9620 C   0  0  0  0  0  0  0  0  0  0  0  0
   -7.6520   21.0460  -32.1380 C   0  0  0  0  0  0  0  0  0  0  0  0
   -8.7670   20.1810  -32.0900 C   0  0  0  0  0  0  0  0  0  0  0  0
   -8.6310   18.8250  -32.3370 C   0  0  0  0  0  0  0  0  0  0  0  0
   -7.4150   18.3130  -32.7580 C   0  0  0  0  0  0  0  0  0  0  0  0
   -6.3000   19.1550  -32.9510 C   0  0  0  0  0  0  0  0  0  0  0  0
   -5.1080   18.6390  -33.6070 N   0  0  0  0  0  0  0  0  0  0  0  0
   -5.3270   17.7910  -34.8010 C   0  0  0  0  0  0  0  0  0  0  0  0
   -5.5090   16.2900  -34.4730 C   0  0  0  0  0  0  0  0  0  0  0  0
   -4.2250   15.5610  -34.4370 N   0  0  0  0  0  0  0  0  0  0  0  0
   -3.4250   15.6360  -35.5570 C   0  0  0  0  0  0  0  0  0  0  0  0
   -2.2230   14.9840  -35.6280 N   0  0  0  0  0  0  0  0  0  0  0  0
   -1.3870   15.0830  -36.8270 C   0  0  0  0  0  0  0  0  0  0  0  0
   -1.8250   14.2530  -34.5540 C   0  0  0  0  0  0  0  0  0  0  0  0
   -0.6760   13.5460  -34.4600 N   0  0  0  0  0  0  0  0  0  0  0  0
   -0.7170   12.9860  -33.2370 C   0  0  0  0  0  0  0  0  0  0  0  0
    0.2470   12.1530  -32.6730 C   0  0  0  0  0  0  0  0  0  0  0  0
    0.0170   11.6550  -31.3800 C   0  0  0  0  0  0  0  0  0  0  0  0
   -1.1600   11.9930  -30.6840 C   0  0  0  0  0  0  0  0  0  0  0  0
   -2.1230   12.8340  -31.2690 C   0  0  0  0  0  0  0  0  0  0  0  0
   -1.8730   13.3260  -32.5560 C   0  0  0  0  0  0  0  0  0  0  0  0
   -2.5890   14.1560  -33.4150 C   0  0  0  0  0  0  0  0  0  0  0  0
   -3.8120   14.8350  -33.3290 C   0  0  0  0  0  0  0  0  0  0  0  0
   -4.6160   14.7570  -32.0520 C   0  0  0  0  0  0  0  0  0  0  0  0
   -6.3660   20.4970  -32.4290 C   0  0  0  0  0  0  0  0  0  0  0  0
   -1.3963   17.5657  -31.5386 H   0  0  0  0  0  0  0  0  0  0  0  0
   -0.8856   16.0753  -32.4016 H   0  0  0  0  0  0  0  0  0  0  0  0
    0.1785   17.5225  -32.4016 H   0  0  0  0  0  0  0  0  0  0  0  0
   -0.7864   18.0888  -34.3656 H   0  0  0  0  0  0  0  0  0  0  0  0
   -2.0654   16.8350  -34.1684 H   0  0  0  0  0  0  0  0  0  0  0  0
   -2.6300   18.7470  -32.3150 H   0  0  0  0  0  0  0  0  0  0  0  0
   -0.9796   20.1380  -33.4934 H   0  0  0  0  0  0  0  0  0  0  0  0
   -2.1332   20.0905  -34.8887 H   0  0  0  0  0  0  0  0  0  0  0  0
   -2.1545   21.8463  -32.6450 H   0  0  0  0  0  0  0  0  0  0  0  0
   -3.3830   21.6618  -34.0012 H   0  0  0  0  0  0  0  0  0  0  0  0
   -3.6430   19.9650  -31.5660 H   0  0  0  0  0  0  0  0  0  0  0  0
   -3.3090   22.7899  -30.9461 H   0  0  0  0  0  0  0  0  0  0  0  0
   -3.6141   25.0479  -29.9587 H   0  0  0  0  0  0  0  0  0  0  0  0
   -5.8742   26.0815  -29.8825 H   0  0  0  0  0  0  0  0  0  0  0  0
   -7.8444   24.8444  -30.7499 H   0  0  0  0  0  0  0  0  0  0  0  0
   -9.5134   23.2370  -30.9572 H   0  0  0  0  0  0  0  0  0  0  0  0
   -9.0058   23.9880  -32.5079 H   0  0  0  0  0  0  0  0  0  0  0  0
   -9.8003   22.3770  -32.5079 H   0  0  0  0  0  0  0  0  0  0  0  0
   -9.7598   20.5908  -31.8526 H   0  0  0  0  0  0  0  0  0  0  0  0
   -9.4909   18.1531  -32.1985 H   0  0  0  0  0  0  0  0  0  0  0  0
   -7.3173   17.2334  -32.9447 H   0  0  0  0  0  0  0  0  0  0  0  0
   -4.5630   18.0820  -32.9080 H   0  0  0  0  0  0  0  0  0  0  0  0
   -4.5300   19.4310  -33.9500 H   0  0  0  0  0  0  0  0  0  0  0  0
   -6.2310   18.1456  -35.3177 H   0  0  0  0  0  0  0  0  0  0  0  0
   -4.4256   17.8765  -35.4257 H   0  0  0  0  0  0  0  0  0  0  0  0
   -5.9940   16.1997  -33.4898 H   0  0  0  0  0  0  0  0  0  0  0  0
   -6.1245   15.8454  -35.2689 H   0  0  0  0  0  0  0  0  0  0  0  0
   -3.7609   16.2352  -36.4161 H   0  0  0  0  0  0  0  0  0  0  0  0
   -0.3349   15.2076  -36.5311 H   0  0  0  0  0  0  0  0  0  0  0  0
   -1.4936   14.1660  -37.4251 H   0  0  0  0  0  0  0  0  0  0  0  0
   -1.7048   15.9498  -37.4251 H   0  0  0  0  0  0  0  0  0  0  0  0
    0.0830   13.4470  -35.1710 H   0  0  0  0  0  0  0  0  0  0  0  0
    1.1623   11.8927  -33.2248 H   0  0  0  0  0  0  0  0  0  0  0  0
    0.7610   10.9966  -30.9078 H   0  0  0  0  0  0  0  0  0  0  0  0
   -1.3275   11.5949  -29.6723 H   0  0  0  0  0  0  0  0  0  0  0  0
   -3.0458   13.0978  -30.7315 H   0  0  0  0  0  0  0  0  0  0  0  0
   -3.9387   14.8227  -31.1877 H   0  0  0  0  0  0  0  0  0  0  0  0
   -5.3340   15.5897  -32.0193 H   0  0  0  0  0  0  0  0  0  0  0  0
   -5.1606   13.8018  -32.0193 H   0  0  0  0  0  0  0  0  0  0  0  0
  1  2  1  0
  2  3  1  0
  3  4  1  0
  4  5  1  0
  5  6  1  0
  6  7  1  0
  7  8  2  0
  8  9  1  0
  9 10  2  0
 10 11  1  0
 11 12  2  0
 12 13  1  0
 13 14  2  0
 14 15  1  0
 14 16  1  0
 16 17  2  0
 17 18  1  0
 18 19  2  0
 19 20  1  0
 20 21  1  0
 21 22  1  0
 22 23  1  0
 23 24  1  0
 24 25  2  0
 25 26  1  0
 26 27  1  0
 26 28  2  0
 28 29  1  0
 29 30  1  0
 30 31  2  0
 31 32  1  0
 32 33  2  0
 33 34  1  0
 34 35  2  0
 35 36  1  0
 36 37  2  0
 37 38  1  0
 20 39  2  0
 39  7  1  0
 13  8  1  0
 39 16  1  0
 37 24  1  0
 36 28  1  0
 35 30  1  0
  1 40  1  0
  1 41  1  0
  1 42  1  0
  2 43  1  0
  2 44  1  0
  3 45  1  0
  4 46  1  0
  4 47  1  0
  5 48  1  0
  5 49  1  0
  6 50  1  0
  9 51  1  0
 10 52  1  0
 11 53  1  0
 12 54  1  0
 15 55  1  0
 15 56  1  0
 15 57  1  0
 17 58  1  0
 18 59  1  0
 19 60  1  0
 21 61  1  0
 21 62  1  0
 22 63  1  0
 22 64  1  0
 23 65  1  0
 23 66  1  0
 25 67  1  0
 27 68  1  0
 27 69  1  0
 27 70  1  0
 29 71  1  0
 31 72  1  0
 32 73  1  0
 33 74  1  0
 34 75  1  0
 38 76  1  0
 38 77  1  0
 38 78  1  0
M  CHG  4  14   1  21   1  24   1  26   1
M  END
>  <UniqueID>  (21) 
21

>  <SMILES>  (21) 
CCNCCNc1c2ccccc2[n+](C)c2cccc([NH2+]CC[n+]3c[n+](C)c4[nH]c5ccccc5c4c3C)c12

>  <Energy>  (21) 
167.67110336800368

>  <Genealogy>  (21) 
CCNCCNc1c2ccccc2[n+](C)c2cccc([NH2+]CC[n+]3c[n+](C)c4[nH]c5ccccc5c4c3C)c12 (protonated)
CCNCCNc1c2ccccc2[n+](C)c2cccc([NH2+]CC[n+]3c[n+](C)c4[nH]c5ccccc5c4c3C)c12 (3D coordinates assigned)
CCNCCNc1c2ccccc2[n+](C)c2cccc([NH2+]CC[n+]3c[n+](C)c4[nH]c5ccccc5c4c3C)c12 (optimized conformer: 167.67110336800368 kcal/mol)

>  <smiles>  (21) 
CCNCCNc1c2ccccc2[n+](C)c2cccc(NCC[n+]3c[n+](C)c4[nH]c5ccccc5c4c3C)c12

>  <score_type>  (21) 
oracle

>  <origin>  (21) 
adg

>  <m_score__min__energy>  (21) 
-9.7200000000000006

>  <m_primary>  (21) 
energy

$$$$
21:0
     RDKit          3D

 68 70  0  0  0  0  0  0  0  0999 V2000
   -0.8100   26.8490  -23.6560 C   0  0  0  0  0  0  0  0  0  0  0  0
   -1.3110   26.3890  -25.0210 C   0  0  0  0  0  0  0  0  0  0  0  0
   -0.2960   25.5290  -25.6710 N   0  0  0  0  0  0  0  0  0  0  0  0
    0.2290   24.5190  -24.7260 C   0  0  0  0  0  0  0  0  0  0  0  0
   -0.3170   23.1340  -25.0670 C   0  0  0  0  0  0  0  0  0  0  0  0
   -0.8230   24.9050  -26.9110 C   0  0  0  0  0  0  0  0  0  0  0  0
   -0.9060   25.9460  -28.0340 C   0  0  0  0  0  0  0  0  0  0  0  0
   -1.9160   25.6190  -28.9710 O   0  0  0  0  0  0  0  0  0  0  0  0
   -2.4680   24.3490  -28.6910 C   0  0  0  0  0  0  0  0  0  0  0  0
   -2.9960   23.7410  -29.9930 C   0  0  0  0  0  0  0  0  0  0  0  0
   -3.6540   24.7680  -30.8150 N   0  0  0  0  0  0  0  0  0  0  0  0
   -5.0560   24.9980  -30.4160 C   0  0  0  0  0  0  0  0  0  0  0  0
   -6.0180   23.9630  -31.0300 C   0  0  0  0  0  0  0  0  0  0  0  0
   -5.5510   23.4590  -32.3390 N   0  0  0  0  0  0  0  0  0  0  0  0
   -5.6440   22.0060  -32.4460 C   0  0  0  0  0  0  0  0  0  0  0  0
   -6.9070   21.3630  -32.3250 C   0  0  0  0  0  0  0  0  0  0  0  0
   -8.0850   22.0960  -32.0220 C   0  0  0  0  0  0  0  0  0  0  0  0
   -9.3120   21.4620  -31.8660 C   0  0  0  0  0  0  0  0  0  0  0  0
   -9.4060   20.0890  -32.0020 C   0  0  0  0  0  0  0  0  0  0  0  0
   -8.2760   19.3400  -32.3130 C   0  0  0  0  0  0  0  0  0  0  0  0
   -7.0060   19.9530  -32.5060 C   0  0  0  0  0  0  0  0  0  0  0  0
   -5.8900   19.2090  -32.8490 N   0  0  0  0  0  0  0  0  0  0  0  0
   -6.0480   17.7920  -33.2730 C   0  0  0  0  0  0  0  0  0  0  0  0
   -5.7980   17.6270  -34.7740 C   0  0  0  0  0  0  0  0  0  0  0  0
   -4.6350   19.7910  -32.8310 C   0  0  0  0  0  0  0  0  0  0  0  0
   -3.4550   19.0070  -32.9660 C   0  0  0  0  0  0  0  0  0  0  0  0
   -2.1930   19.5870  -32.9830 C   0  0  0  0  0  0  0  0  0  0  0  0
   -2.0590   20.9580  -32.8630 C   0  0  0  0  0  0  0  0  0  0  0  0
   -3.1840   21.7580  -32.7020 C   0  0  0  0  0  0  0  0  0  0  0  0
   -4.4900   21.2010  -32.6590 C   0  0  0  0  0  0  0  0  0  0  0  0
   -1.3733   26.3318  -22.8653 H   0  0  0  0  0  0  0  0  0  0  0  0
    0.2598   26.6119  -23.5591 H   0  0  0  0  0  0  0  0  0  0  0  0
   -0.9551   27.9351  -23.5591 H   0  0  0  0  0  0  0  0  0  0  0  0
   -2.2432   25.8192  -24.8935 H   0  0  0  0  0  0  0  0  0  0  0  0
   -1.4951   27.2702  -25.6532 H   0  0  0  0  0  0  0  0  0  0  0  0
    1.3271   24.5009  -24.7884 H   0  0  0  0  0  0  0  0  0  0  0  0
   -0.0881   24.7859  -23.7071 H   0  0  0  0  0  0  0  0  0  0  0  0
   -0.5330   22.5861  -24.1380 H   0  0  0  0  0  0  0  0  0  0  0  0
   -1.2412   23.2386  -25.6543 H   0  0  0  0  0  0  0  0  0  0  0  0
    0.4299   22.5798  -25.6543 H   0  0  0  0  0  0  0  0  0  0  0  0
   -0.1529   24.0894  -27.2204 H   0  0  0  0  0  0  0  0  0  0  0  0
   -1.8301   24.5092  -26.7135 H   0  0  0  0  0  0  0  0  0  0  0  0
   -1.1310   26.9289  -27.5944 H   0  0  0  0  0  0  0  0  0  0  0  0
    0.0600   25.9641  -28.5599 H   0  0  0  0  0  0  0  0  0  0  0  0
   -1.6927   23.6948  -28.2655 H   0  0  0  0  0  0  0  0  0  0  0  0
   -3.2895   24.4507  -27.9666 H   0  0  0  0  0  0  0  0  0  0  0  0
   -2.1559   23.3099  -30.5573 H   0  0  0  0  0  0  0  0  0  0  0  0
   -3.7303   22.9597  -29.7471 H   0  0  0  0  0  0  0  0  0  0  0  0
   -3.1150   25.6630  -30.7410 H   0  0  0  0  0  0  0  0  0  0  0  0
   -5.1257   24.9386  -29.3198 H   0  0  0  0  0  0  0  0  0  0  0  0
   -5.3514   25.9912  -30.7851 H   0  0  0  0  0  0  0  0  0  0  0  0
   -6.1097   23.1131  -30.3377 H   0  0  0  0  0  0  0  0  0  0  0  0
   -6.9852   24.4616  -31.1908 H   0  0  0  0  0  0  0  0  0  0  0  0
   -4.6020   23.8260  -32.5550 H   0  0  0  0  0  0  0  0  0  0  0  0
   -6.1220   23.8970  -33.0950 H   0  0  0  0  0  0  0  0  0  0  0  0
   -8.0251   23.1885  -31.9084 H   0  0  0  0  0  0  0  0  0  0  0  0
  -10.2100   22.0534  -31.6339 H   0  0  0  0  0  0  0  0  0  0  0  0
  -10.3758   19.5885  -31.8640 H   0  0  0  0  0  0  0  0  0  0  0  0
   -8.3659   18.2482  -32.4121 H   0  0  0  0  0  0  0  0  0  0  0  0
   -5.3284   17.1706  -32.7199 H   0  0  0  0  0  0  0  0  0  0  0  0
   -7.0804   17.4792  -33.0576 H   0  0  0  0  0  0  0  0  0  0  0  0
   -4.8893   17.0272  -34.9306 H   0  0  0  0  0  0  0  0  0  0  0  0
   -6.6573   17.1180  -35.2351 H   0  0  0  0  0  0  0  0  0  0  0  0
   -5.6678   18.6172  -35.2351 H   0  0  0  0  0  0  0  0  0  0  0  0
   -3.5446   17.9146  -33.0592 H   0  0  0  0  0  0  0  0  0  0  0  0
   -1.2993   18.9550  -33.0920 H   0  0  0  0  0  0  0  0  0  0  0  0
   -1.0596   21.4165  -32.8950 H   0  0  0  0  0  0  0  0  0  0  0  0
   -3.0603   22.8468  -32.6057 H   0  0  0  0  0  0  0  0  0  0  0  0
  1  2  1  0
  2  3  1  0
  3  4  1  0
  4  5  1  0
  3  6  1  0
  6  7  1  0
  7  8  1  0
  8  9  1  0
  9 10  1  0
 10 11  1  0
 11 12  1  0
 12 13  1  0
 13 14  1  0
 14 15  1  0
 15 16  2  0
 16 17  1  0
 17 18  2  0
 18 19  1  0
 19 20  2  0
 20 21  1  0
 21 22  2  0
 22 23  1  0
 23 24  1  0
 22 25  1  0
 25 26  2  0
 26 27  1  0
 27 28  2  0
 28 29  1  0
 29 30  2  0
 30 15  1  0
 21 16  1  0
 30 25  1  0
  1 31  1  0
  1 32  1  0
  1 33  1  0
  2 34  1  0
  2 35  1  0
  4 36  1  0
  4 37  1  0
  5 38  1  0
  5 39  1  0
  5 40  1  0
  6 41  1  0
  6 42  1  0
  7 43  1  0
  7 44  1  0
  9 45  1  0
  9 46  1  0
 10 47  1  0
 10 48  1  0
 11 49  1  0
 12 50  1  0
 12 51  1  0
 13 52  1  0
 13 53  1  0
 14 54  1  0
 14 55  1  0
 17 56  1  0
 18 57  1  0
 19 58  1  0
 20 59  1  0
 23 60  1  0
 23 61  1  0
 24 62  1  0
 24 63  1  0
 24 64  1  0
 26 65  1  0
 27 66  1  0
 28 67  1  0
 29 68  1  0
M  CHG  2  14   1  22   1
M  END
>  <UniqueID>  (22) 
22

>  <SMILES>  (22) 
CCN(CC)CCOCCNCC[NH2+]c1c2ccccc2[n+](CC)c2ccccc12

>  <Energy>  (22) 
87.76974693360178

>  <Genealogy>  (22) 
CCN(CC)CCOCCNCC[NH2+]c1c2ccccc2[n+](CC)c2ccccc12 (protonated)
CCN(CC)CCOCCNCC[NH2+]c1c2ccccc2[n+](CC)c2ccccc12 (3D coordinates assigned)
CCN(CC)CCOCCNCC[NH2+]c1c2ccccc2[n+](CC)c2ccccc12 (optimized conformer: 87.76974693360178 kcal/mol)

>  <smiles>  (22) 
CCN(CC)CCOCCNCCNc1c2ccccc2[n+](CC)c2ccccc12

>  <score_type>  (22) 
oracle

>  <origin>  (22) 
adg

>  <m_score__min__energy>  (22) 
-9.1600000000000001

>  <m_primary>  (22) 
energy

$$$$
22:0
     RDKit          3D

 59 61  0  0  0  0  0  0  0  0999 V2000
   -3.3650   22.0440  -29.4360 C   0  0  0  0  0  0  0  0  0  0  0  0
   -2.2430   22.6840  -30.2530 C   0  0  0  0  0  0  0  0  0  0  0  0
   -1.1860   21.7020  -30.5510 N   0  0  0  0  0  0  0  0  0  0  0  0
   -0.3470   21.4080  -29.3730 C   0  0  0  0  0  0  0  0  0  0  0  0
   -0.3490   19.9200  -28.9930 C   0  0  0  0  0  0  0  0  0  0  0  0
   -0.8610   19.1550  -30.0630 O   0  0  0  0  0  0  0  0  0  0  0  0
    0.1440   18.2960  -30.5580 C   0  0  0  0  0  0  0  0  0  0  0  0
    0.6820   18.8680  -31.8760 C   0  0  0  0  0  0  0  0  0  0  0  0
    0.0980   20.1820  -32.1970 N   0  0  0  0  0  0  0  0  0  0  0  0
    0.2430   20.5380  -33.6180 C   0  0  0  0  0  0  0  0  0  0  0  0
   -0.8710   21.5030  -34.0370 C   0  0  0  0  0  0  0  0  0  0  0  0
   -1.8760   21.5800  -33.0260 O   0  0  0  0  0  0  0  0  0  0  0  0
   -3.0350   20.7890  -32.9640 C   0  0  0  0  0  0  0  0  0  0  0  0
   -3.0180   19.3830  -33.1810 C   0  0  0  0  0  0  0  0  0  0  0  0
   -4.2020   18.6280  -33.1060 C   0  0  0  0  0  0  0  0  0  0  0  0
   -5.3930   19.2930  -32.8050 C   0  0  0  0  0  0  0  0  0  0  0  0
   -5.4080   20.6580  -32.5980 C   0  0  0  0  0  0  0  0  0  0  0  0
   -4.2530   21.4320  -32.6690 C   0  0  0  0  0  0  0  0  0  0  0  0
   -6.7190   21.0010  -32.3610 C   0  0  0  0  0  0  0  0  0  0  0  0
   -7.3210   22.2330  -32.1120 C   0  0  0  0  0  0  0  0  0  0  0  0
   -8.7150   22.2570  -31.9320 C   0  0  0  0  0  0  0  0  0  0  0  0
   -9.4680   21.0650  -32.0110 C   0  0  0  0  0  0  0  0  0  0  0  0
   -8.8370   19.8340  -32.2670 C   0  0  0  0  0  0  0  0  0  0  0  0
   -7.4470   19.8290  -32.4330 C   0  0  0  0  0  0  0  0  0  0  0  0
   -6.6400   18.7680  -32.6920 N   0  0  0  0  0  0  0  0  0  0  0  0
   -7.0420   17.3720  -32.8970 C   0  0  0  0  0  0  0  0  0  0  0  0
   -6.5070   16.8590  -34.2280 C   0  0  0  0  0  0  0  0  0  0  0  0
   -3.1526   22.1651  -28.3635 H   0  0  0  0  0  0  0  0  0  0  0  0
   -4.3200   22.5333  -29.6782 H   0  0  0  0  0  0  0  0  0  0  0  0
   -3.4299   20.9730  -29.6782 H   0  0  0  0  0  0  0  0  0  0  0  0
   -2.6575   23.0653  -31.1979 H   0  0  0  0  0  0  0  0  0  0  0  0
   -1.8053   23.5057  -29.6671 H   0  0  0  0  0  0  0  0  0  0  0  0
   -1.6120   20.8210  -30.9250 H   0  0  0  0  0  0  0  0  0  0  0  0
   -0.5640   22.0980  -31.2950 H   0  0  0  0  0  0  0  0  0  0  0  0
    0.6868   21.7123  -29.5938 H   0  0  0  0  0  0  0  0  0  0  0  0
   -0.7657   21.9660  -28.5225 H   0  0  0  0  0  0  0  0  0  0  0  0
    0.6794   19.5978  -28.7727 H   0  0  0  0  0  0  0  0  0  0  0  0
   -0.9813   19.7723  -28.1051 H   0  0  0  0  0  0  0  0  0  0  0  0
    0.9617   18.2239  -29.8257 H   0  0  0  0  0  0  0  0  0  0  0  0
   -0.2744   17.2933  -30.7302 H   0  0  0  0  0  0  0  0  0  0  0  0
    1.7736   18.9768  -31.7946 H   0  0  0  0  0  0  0  0  0  0  0  0
    0.4057   18.1719  -32.6817 H   0  0  0  0  0  0  0  0  0  0  0  0
   -0.9180   20.1910  -31.9420 H   0  0  0  0  0  0  0  0  0  0  0  0
    1.2193   21.0200  -33.7742 H   0  0  0  0  0  0  0  0  0  0  0  0
    0.1744   19.6240  -34.2263 H   0  0  0  0  0  0  0  0  0  0  0  0
   -0.4417   22.5031  -34.1969 H   0  0  0  0  0  0  0  0  0  0  0  0
   -1.3299   21.1329  -34.9656 H   0  0  0  0  0  0  0  0  0  0  0  0
   -2.0669   18.8803  -33.4103 H   0  0  0  0  0  0  0  0  0  0  0  0
   -4.1906   17.5419  -33.2799 H   0  0  0  0  0  0  0  0  0  0  0  0
   -4.2906   22.5181  -32.4990 H   0  0  0  0  0  0  0  0  0  0  0  0
   -6.7251   23.1561  -32.0581 H   0  0  0  0  0  0  0  0  0  0  0  0
   -9.2229   23.2112  -31.7281 H   0  0  0  0  0  0  0  0  0  0  0  0
  -10.5585   21.0994  -31.8710 H   0  0  0  0  0  0  0  0  0  0  0  0
   -9.4187   18.9028  -32.3347 H   0  0  0  0  0  0  0  0  0  0  0  0
   -6.6384   16.7544  -32.0811 H   0  0  0  0  0  0  0  0  0  0  0  0
   -8.1404   17.3130  -32.9056 H   0  0  0  0  0  0  0  0  0  0  0  0
   -5.7242   16.1084  -34.0438 H   0  0  0  0  0  0  0  0  0  0  0  0
   -7.3268   16.4008  -34.8006 H   0  0  0  0  0  0  0  0  0  0  0  0
   -6.0836   17.6974  -34.8006 H   0  0  0  0  0  0  0  0  0  0  0  0
  1  2  1  0
  2  3  1  0
  3  4  1  0
  4  5  1  0
  5  6  1  0
  6  7  1  0
  7  8  1  0
  8  9  1  0
  9 10  1  0
 10 11  1  0
 11 12  1  0
 12 13  1  0
 13 14  2  0
 14 15  1  0
 15 16  2  0
 16 17  1  0
 17 18  2  0
 17 19  1  0
 19 20  2  0
 20 21  1  0
 21 22  2  0
 22 23  1  0
 23 24  2  0
 24 25  1  0
 25 26  1  0
 26 27  1  0
 18 13  1  0
 24 19  1  0
 25 16  1  0
  1 28  1  0
  1 29  1  0
  1 30  1  0
  2 31  1  0
  2 32  1  0
  3 33  1  0
  3 34  1  0
  4 35  1  0
  4 36  1  0
  5 37  1  0
  5 38  1  0
  7 39  1  0
  7 40  1  0
  8 41  1  0
  8 42  1  0
  9 43  1  0
 10 44  1  0
 10 45  1  0
 11 46  1  0
 11 47  1  0
 14 48  1  0
 15 49  1  0
 18 50  1  0
 20 51  1  0
 21 52  1  0
 22 53  1  0
 23 54  1  0
 26 55  1  0
 26 56  1  0
 27 57  1  0
 27 58  1  0
 27 59  1  0
M  CHG  1   3   1
M  END
>  <UniqueID>  (23) 
23

>  <SMILES>  (23) 
CC[NH2+]CCOCCNCCOc1ccc2c(c1)c1ccccc1n2CC

>  <Energy>  (23) 
94.00392790840698

>  <Genealogy>  (23) 
CC[NH2+]CCOCCNCCOc1ccc2c(c1)c1ccccc1n2CC (protonated)
CC[NH2+]CCOCCNCCOc1ccc2c(c1)c1ccccc1n2CC (3D coordinates assigned)
CC[NH2+]CCOCCNCCOc1ccc2c(c1)c1ccccc1n2CC (optimized conformer: 94.00392790840698 kcal/mol)

>  <smiles>  (23) 
CCNCCOCCNCCOc1ccc2c(c1)c1ccccc1n2CC

>  <score_type>  (23) 
oracle

>  <origin>  (23) 
adg

>  <m_score__min__energy>  (23) 
-9.1500000000000004

>  <m_primary>  (23) 
energy

$$$$
23:0
     RDKit          3D

 67 69  0  0  0  0  0  0  0  0999 V2000
   -0.5090   26.7770  -23.3190 C   0  0  0  0  0  0  0  0  0  0  0  0
   -0.4830   25.6460  -24.3630 C   0  0  0  0  0  0  0  0  0  0  0  0
   -0.9890   26.0340  -25.7030 N   0  0  2  0  0  0  0  0  0  0  0  0
   -0.7540   27.4660  -25.9790 C   0  0  0  0  0  0  0  0  0  0  0  0
   -2.4140   25.6550  -25.8900 C   0  0  0  0  0  0  0  0  0  0  0  0
   -2.6170   24.6200  -27.0130 C   0  0  0  0  0  0  0  0  0  0  0  0
   -1.5230   24.6830  -27.9180 O   0  0  0  0  0  0  0  0  0  0  0  0
   -1.8220   24.0280  -29.1350 C   0  0  0  0  0  0  0  0  0  0  0  0
   -3.3220   24.0970  -29.4230 C   0  0  0  0  0  0  0  0  0  0  0  0
   -3.6250   25.2810  -30.1300 O   0  0  0  0  0  0  0  0  0  0  0  0
   -4.3790   24.9440  -31.2130 N   0  0  0  0  0  0  0  0  0  0  0  0
   -5.7900   24.9870  -30.8200 C   0  0  0  0  0  0  0  0  0  0  0  0
   -6.4870   23.6320  -31.0410 C   0  0  0  0  0  0  0  0  0  0  0  0
   -6.1570   23.0790  -32.3570 N   0  0  0  0  0  0  0  0  0  0  0  0
   -5.9510   21.6710  -32.5760 C   0  0  0  0  0  0  0  0  0  0  0  0
   -7.0290   20.7680  -32.5250 C   0  0  0  0  0  0  0  0  0  0  0  0
   -8.3020   21.1760  -32.0720 C   0  0  0  0  0  0  0  0  0  0  0  0
   -9.3520   20.2690  -31.9770 C   0  0  0  0  0  0  0  0  0  0  0  0
   -9.1510   18.9340  -32.3020 C   0  0  0  0  0  0  0  0  0  0  0  0
   -7.8990   18.4980  -32.7320 C   0  0  0  0  0  0  0  0  0  0  0  0
   -6.8180   19.4070  -32.8730 C   0  0  0  0  0  0  0  0  0  0  0  0
   -5.5690   18.9880  -33.2960 N   0  0  0  0  0  0  0  0  0  0  0  0
   -5.4120   17.6650  -33.9390 C   0  0  0  0  0  0  0  0  0  0  0  0
   -4.4730   19.8090  -33.1160 C   0  0  0  0  0  0  0  0  0  0  0  0
   -3.1510   19.3150  -33.2490 C   0  0  0  0  0  0  0  0  0  0  0  0
   -2.0450   20.1560  -33.1130 C   0  0  0  0  0  0  0  0  0  0  0  0
   -0.7670   19.5980  -33.2600 O   0  0  0  0  0  0  0  0  0  0  0  0
    0.4390   20.3540  -33.2590 C   0  0  0  0  0  0  0  0  0  0  0  0
   -2.2420   21.5160  -32.8350 C   0  0  0  0  0  0  0  0  0  0  0  0
   -3.5290   22.0160  -32.6580 C   0  0  0  0  0  0  0  0  0  0  0  0
   -4.6520   21.1750  -32.7800 C   0  0  0  0  0  0  0  0  0  0  0  0
   -0.4990   26.3432  -22.3082 H   0  0  0  0  0  0  0  0  0  0  0  0
    0.3746   27.4186  -23.4514 H   0  0  0  0  0  0  0  0  0  0  0  0
   -1.4212   27.3773  -23.4514 H   0  0  0  0  0  0  0  0  0  0  0  0
    0.5568   25.3046  -24.4740 H   0  0  0  0  0  0  0  0  0  0  0  0
   -1.1561   24.8601  -23.9898 H   0  0  0  0  0  0  0  0  0  0  0  0
   -0.4160   25.4860  -26.3890 H   0  0  0  0  0  0  0  0  0  0  0  0
   -0.6643   28.0127  -25.0287 H   0  0  0  0  0  0  0  0  0  0  0  0
    0.1749   27.5804  -26.5569 H   0  0  0  0  0  0  0  0  0  0  0  0
   -1.5976   27.8713  -26.5569 H   0  0  0  0  0  0  0  0  0  0  0  0
   -2.7904   25.2293  -24.9482 H   0  0  0  0  0  0  0  0  0  0  0  0
   -2.9625   26.5645  -26.1764 H   0  0  0  0  0  0  0  0  0  0  0  0
   -2.6745   23.6119  -26.5767 H   0  0  0  0  0  0  0  0  0  0  0  0
   -3.5511   24.8403  -27.5506 H   0  0  0  0  0  0  0  0  0  0  0  0
   -1.2729   24.5161  -29.9537 H   0  0  0  0  0  0  0  0  0  0  0  0
   -1.5222   22.9727  -29.0552 H   0  0  0  0  0  0  0  0  0  0  0  0
   -3.6171   23.2265  -30.0272 H   0  0  0  0  0  0  0  0  0  0  0  0
   -3.8725   24.0947  -28.4707 H   0  0  0  0  0  0  0  0  0  0  0  0
   -4.2650   25.6970  -31.9350 H   0  0  0  0  0  0  0  0  0  0  0  0
   -5.8548   25.2510  -29.7541 H   0  0  0  0  0  0  0  0  0  0  0  0
   -6.2961   25.7376  -31.4449 H   0  0  0  0  0  0  0  0  0  0  0  0
   -6.1587   22.9276  -30.2625 H   0  0  0  0  0  0  0  0  0  0  0  0
   -7.5750   23.7855  -30.9887 H   0  0  0  0  0  0  0  0  0  0  0  0
   -6.0390   23.7360  -33.1620 H   0  0  0  0  0  0  0  0  0  0  0  0
   -8.4660   22.2265  -31.7900 H   0  0  0  0  0  0  0  0  0  0  0  0
  -10.3434   20.6097  -31.6438 H   0  0  0  0  0  0  0  0  0  0  0  0
   -9.9824   18.2184  -32.2198 H   0  0  0  0  0  0  0  0  0  0  0  0
   -7.7464   17.4340  -32.9655 H   0  0  0  0  0  0  0  0  0  0  0  0
   -5.3200   16.8895  -33.1644 H   0  0  0  0  0  0  0  0  0  0  0  0
   -6.2915   17.4551  -34.5654 H   0  0  0  0  0  0  0  0  0  0  0  0
   -4.5078   17.6667  -34.5654 H   0  0  0  0  0  0  0  0  0  0  0  0
   -2.9934   18.2477  -33.4637 H   0  0  0  0  0  0  0  0  0  0  0  0
    0.7491   20.5484  -32.2217 H   0  0  0  0  0  0  0  0  0  0  0  0
    1.2270   19.7880  -33.7773 H   0  0  0  0  0  0  0  0  0  0  0  0
    0.2729   21.3099  -33.7773 H   0  0  0  0  0  0  0  0  0  0  0  0
   -1.3765   22.1903  -32.7565 H   0  0  0  0  0  0  0  0  0  0  0  0
   -3.6705   23.0806  -32.4200 H   0  0  0  0  0  0  0  0  0  0  0  0
  1  2  1  0
  2  3  1  0
  3  4  1  0
  3  5  1  0
  5  6  1  0
  6  7  1  0
  7  8  1  0
  8  9  1  0
  9 10  1  0
 10 11  1  0
 11 12  1  0
 12 13  1  0
 13 14  1  0
 14 15  1  0
 15 16  2  0
 16 17  1  0
 17 18  2  0
 18 19  1  0
 19 20  2  0
 20 21  1  0
 21 22  2  0
 22 23  1  0
 22 24  1  0
 24 25  2  0
 25 26  1  0
 26 27  1  0
 27 28  1  0
 26 29  2  0
 29 30  1  0
 30 31  2  0
 31 15  1  0
 21 16  1  0
 31 24  1  0
  1 32  1  0
  1 33  1  0
  1 34  1  0
  2 35  1  0
  2 36  1  0
  3 37  1  6
  4 38  1  0
  4 39  1  0
  4 40  1  0
  5 41  1  0
  5 42  1  0
  6 43  1  0
  6 44  1  0
  8 45  1  0
  8 46  1  0
  9 47  1  0
  9 48  1  0
 11 49  1  0
 12 50  1  0
 12 51  1  0
 13 52  1  0
 13 53  1  0
 14 54  1  0
 17 55  1  0
 18 56  1  0
 19 57  1  0
 20 58  1  0
 23 59  1  0
 23 60  1  0
 23 61  1  0
 25 62  1  0
 28 63  1  0
 28 64  1  0
 28 65  1  0
 29 66  1  0
 30 67  1  0
M  CHG  2   3   1  22   1
M  END
>  <UniqueID>  (24) 
24

>  <SMILES>  (24) 
CC[N@H+](C)CCOCCONCCNc1c2ccccc2[n+](C)c2cc(OC)ccc12

>  <Energy>  (24) 
95.46381416310244

>  <Genealogy>  (24) 
CC[NH+](C)CCOCCONCCNc1c2ccccc2[n+](C)c2cc(OC)ccc12 (protonated)
CC[N@H+](C)CCOCCONCCNc1c2ccccc2[n+](C)c2cc(OC)ccc12 (chirality)
CC[N@H+](C)CCOCCONCCNc1c2ccccc2[n+](C)c2cc(OC)ccc12 (3D coordinates assigned)
CC[N@H+](C)CCOCCONCCNc1c2ccccc2[n+](C)c2cc(OC)ccc12 (optimized conformer: 95.46381416310244 kcal/mol)

>  <smiles>  (24) 
CCN(C)CCOCCONCCNc1c2ccccc2[n+](C)c2cc(OC)ccc12

>  <score_type>  (24) 
oracle

>  <origin>  (24) 
adg

>  <m_score__min__energy>  (24) 
-9.8499999999999996

>  <m_primary>  (24) 
energy

$$$$
24:0
     RDKit          3D

 51 53  0  0  0  0  0  0  0  0999 V2000
   -6.1470   25.2920  -29.4730 C   0  0  0  0  0  0  0  0  0  0  0  0
   -5.3760   25.7160  -30.7220 C   0  0  0  0  0  0  0  0  0  0  0  0
   -3.9700   25.2810  -30.6760 N   0  0  0  0  0  0  0  0  0  0  0  0
   -3.7720   23.8490  -30.3770 C   0  0  0  0  0  0  0  0  0  0  0  0
   -4.5250   22.8800  -31.3100 C   0  0  0  0  0  0  0  0  0  0  0  0
   -3.5890   22.0000  -32.1520 C   0  0  0  0  0  0  0  0  0  0  0  0
   -4.2070   21.6700  -33.4450 N   0  0  0  0  0  0  0  0  0  0  0  0
   -4.7880   20.3380  -33.4090 C   0  0  0  0  0  0  0  0  0  0  0  0
   -4.0040   19.2030  -33.7290 C   0  0  0  0  0  0  0  0  0  0  0  0
   -4.5310   17.9120  -33.5410 C   0  0  0  0  0  0  0  0  0  0  0  0
   -5.8670   17.7320  -33.2620 N   0  0  0  0  0  0  0  0  0  0  0  0
   -6.4630   16.3840  -33.3760 C   0  0  0  0  0  0  0  0  0  0  0  0
   -6.6510   18.8140  -32.9090 C   0  0  0  0  0  0  0  0  0  0  0  0
   -7.9710   18.6370  -32.4180 C   0  0  0  0  0  0  0  0  0  0  0  0
   -8.7850   19.7290  -32.1290 C   0  0  0  0  0  0  0  0  0  0  0  0
   -8.3120   21.0190  -32.3180 C   0  0  0  0  0  0  0  0  0  0  0  0
   -7.0080   21.2300  -32.7570 C   0  0  0  0  0  0  0  0  0  0  0  0
   -6.1400   20.1400  -33.0200 C   0  0  0  0  0  0  0  0  0  0  0  0
   -3.5680   16.7390  -33.6870 C   0  0  0  0  0  0  0  0  0  0  0  0
   -2.1960   17.0840  -33.0870 C   0  0  0  0  0  0  0  0  0  0  0  0
   -1.6100   18.4140  -33.6100 C   0  0  0  0  0  0  0  0  0  0  0  0
   -2.6250   19.2840  -34.3650 C   0  0  0  0  0  0  0  0  0  0  0  0
   -5.5891   25.5988  -28.5760 H   0  0  0  0  0  0  0  0  0  0  0  0
   -7.1363   25.7730  -29.4719 H   0  0  0  0  0  0  0  0  0  0  0  0
   -6.2707   24.1990  -29.4719 H   0  0  0  0  0  0  0  0  0  0  0  0
   -5.8571   25.2699  -31.6049 H   0  0  0  0  0  0  0  0  0  0  0  0
   -5.3904   26.8147  -30.7738 H   0  0  0  0  0  0  0  0  0  0  0  0
   -3.5120   25.5140  -31.5860 H   0  0  0  0  0  0  0  0  0  0  0  0
   -2.6967   23.6298  -30.4528 H   0  0  0  0  0  0  0  0  0  0  0  0
   -4.1802   23.6855  -29.3687 H   0  0  0  0  0  0  0  0  0  0  0  0
   -5.1605   22.2258  -30.6951 H   0  0  0  0  0  0  0  0  0  0  0  0
   -5.1149   23.4914  -32.0087 H   0  0  0  0  0  0  0  0  0  0  0  0
   -2.6479   22.5411  -32.3295 H   0  0  0  0  0  0  0  0  0  0  0  0
   -3.3955   21.0657  -31.6045 H   0  0  0  0  0  0  0  0  0  0  0  0
   -3.5090   21.7530  -34.2170 H   0  0  0  0  0  0  0  0  0  0  0  0
   -4.9260   22.3820  -33.7020 H   0  0  0  0  0  0  0  0  0  0  0  0
   -6.6432   15.9765  -32.3703 H   0  0  0  0  0  0  0  0  0  0  0  0
   -7.4161   16.4494  -33.9213 H   0  0  0  0  0  0  0  0  0  0  0  0
   -5.7732   15.7230  -33.9213 H   0  0  0  0  0  0  0  0  0  0  0  0
   -8.3577   17.6190  -32.2631 H   0  0  0  0  0  0  0  0  0  0  0  0
   -9.8051   19.5683  -31.7501 H   0  0  0  0  0  0  0  0  0  0  0  0
   -8.9696   21.8784  -32.1203 H   0  0  0  0  0  0  0  0  0  0  0  0
   -6.6453   22.2583  -32.9021 H   0  0  0  0  0  0  0  0  0  0  0  0
   -3.9817   15.8649  -33.1629 H   0  0  0  0  0  0  0  0  0  0  0  0
   -3.4403   16.5176  -34.7569 H   0  0  0  0  0  0  0  0  0  0  0  0
   -2.3023   17.1564  -31.9945 H   0  0  0  0  0  0  0  0  0  0  0  0
   -1.5021   16.2851  -33.3874 H   0  0  0  0  0  0  0  0  0  0  0  0
   -1.2323   18.9881  -32.7511 H   0  0  0  0  0  0  0  0  0  0  0  0
   -0.8156   18.1547  -34.3253 H   0  0  0  0  0  0  0  0  0  0  0  0
   -2.2835   20.3295  -34.3479 H   0  0  0  0  0  0  0  0  0  0  0  0
   -2.6974   18.9149  -35.3987 H   0  0  0  0  0  0  0  0  0  0  0  0
  1  2  1  0
  2  3  1  0
  3  4  1  0
  4  5  1  0
  5  6  1  0
  6  7  1  0
  7  8  1  0
  8  9  2  0
  9 10  1  0
 10 11  2  0
 11 12  1  0
 11 13  1  0
 13 14  2  0
 14 15  1  0
 15 16  2  0
 16 17  1  0
 17 18  2  0
 10 19  1  0
 19 20  1  0
 20 21  1  0
 21 22  1  0
 18  8  1  0
 22  9  1  0
 18 13  1  0
  1 23  1  0
  1 24  1  0
  1 25  1  0
  2 26  1  0
  2 27  1  0
  3 28  1  0
  4 29  1  0
  4 30  1  0
  5 31  1  0
  5 32  1  0
  6 33  1  0
  6 34  1  0
  7 35  1  0
  7 36  1  0
 12 37  1  0
 12 38  1  0
 12 39  1  0
 14 40  1  0
 15 41  1  0
 16 42  1  0
 17 43  1  0
 19 44  1  0
 19 45  1  0
 20 46  1  0
 20 47  1  0
 21 48  1  0
 21 49  1  0
 22 50  1  0
 22 51  1  0
M  CHG  2   7   1  11   1
M  END
>  <UniqueID>  (25) 
25

>  <SMILES>  (25) 
CCNCCC[NH2+]c1c2c([n+](C)c3ccccc13)CCCC2

>  <Energy>  (25) 
75.98888151964692

>  <Genealogy>  (25) 
CCNCCC[NH2+]c1c2c([n+](C)c3ccccc13)CCCC2 (protonated)
CCNCCC[NH2+]c1c2c([n+](C)c3ccccc13)CCCC2 (3D coordinates assigned)
CCNCCC[NH2+]c1c2c([n+](C)c3ccccc13)CCCC2 (nonaromatic ring conformer: 75.98888151964692 kcal/mol)

>  <smiles>  (25) 
CCNCCCNc1c2c([n+](C)c3ccccc13)CCCC2

>  <score_type>  (25) 
oracle

>  <origin>  (25) 
adg

>  <m_score__min__energy>  (25) 
-8.75

>  <m_primary>  (25) 
energy

$$$$
25:0
     RDKit          3D

 30 31  0  0  0  0  0  0  0  0999 V2000
   -2.1010   22.6590  -30.4280 C   0  0  0  0  0  0  0  0  0  0  0  0
   -3.4750   23.2680  -30.4630 C   0  0  0  0  0  0  0  0  0  0  0  0
   -4.5370   22.5720  -31.0630 C   0  0  0  0  0  0  0  0  0  0  0  0
   -5.8110   23.1400  -31.1200 C   0  0  0  0  0  0  0  0  0  0  0  0
   -6.0350   24.4070  -30.5810 C   0  0  0  0  0  0  0  0  0  0  0  0
   -4.9860   25.1130  -29.9870 C   0  0  0  0  0  0  0  0  0  0  0  0
   -3.6940   24.5530  -29.9260 C   0  0  0  0  0  0  0  0  0  0  0  0
   -2.6100   25.2330  -29.3440 O   0  0  0  0  0  0  0  0  0  0  0  0
   -1.8740   24.8010  -28.1980 C   0  0  0  0  0  0  0  0  0  0  0  0
   -2.7160   24.9180  -26.9250 C   0  0  0  0  0  0  0  0  0  0  0  0
   -1.8750   25.2690  -25.7840 N   0  0  0  0  0  0  0  0  0  0  0  0
   -1.7640   26.4800  -25.2030 C   0  0  0  0  0  0  0  0  0  0  0  0
   -0.8010   26.3970  -24.2200 C   0  0  0  0  0  0  0  0  0  0  0  0
   -0.3140   25.1410  -24.2010 N   0  0  0  0  0  0  0  0  0  0  0  0
   -0.9780   24.4770  -25.1650 C   0  0  0  0  0  0  0  0  0  0  0  0
   -1.7880   22.5202  -29.3827 H   0  0  0  0  0  0  0  0  0  0  0  0
   -2.1188   21.6845  -30.9379 H   0  0  0  0  0  0  0  0  0  0  0  0
   -1.3909   23.3267  -30.9379 H   0  0  0  0  0  0  0  0  0  0  0  0
   -4.3640   21.5734  -31.4906 H   0  0  0  0  0  0  0  0  0  0  0  0
   -6.6384   22.5883  -31.5901 H   0  0  0  0  0  0  0  0  0  0  0  0
   -7.0403   24.8514  -30.6238 H   0  0  0  0  0  0  0  0  0  0  0  0
   -5.1694   26.1119  -29.5644 H   0  0  0  0  0  0  0  0  0  0  0  0
   -1.5770   23.7510  -28.3368 H   0  0  0  0  0  0  0  0  0  0  0  0
   -0.9873   25.4431  -28.0902 H   0  0  0  0  0  0  0  0  0  0  0  0
   -3.4783   25.6984  -27.0660 H   0  0  0  0  0  0  0  0  0  0  0  0
   -3.1966   23.9486  -26.7269 H   0  0  0  0  0  0  0  0  0  0  0  0
   -2.3413   27.3783  -25.4672 H   0  0  0  0  0  0  0  0  0  0  0  0
   -0.4834   27.2188  -23.5614 H   0  0  0  0  0  0  0  0  0  0  0  0
    0.4340   24.7640  -23.5770 H   0  0  0  0  0  0  0  0  0  0  0  0
   -0.8094   23.4194  -25.4162 H   0  0  0  0  0  0  0  0  0  0  0  0
  1  2  1  0
  2  3  2  0
  3  4  1  0
  4  5  2  0
  5  6  1  0
  6  7  2  0
  7  8  1  0
  8  9  1  0
  9 10  1  0
 10 11  1  0
 11 12  1  0
 12 13  2  0
 13 14  1  0
 14 15  2  0
  7  2  1  0
 15 11  1  0
  1 16  1  0
  1 17  1  0
  1 18  1  0
  3 19  1  0
  4 20  1  0
  5 21  1  0
  6 22  1  0
  9 23  1  0
  9 24  1  0
 10 25  1  0
 10 26  1  0
 12 27  1  0
 13 28  1  0
 14 29  1  0
 15 30  1  0
M  CHG  1  14   1
M  END
>  <UniqueID>  (26) 
26

>  <SMILES>  (26) 
Cc1ccccc1OCCn1cc[nH+]c1

>  <Energy>  (26) 
56.491309812761955

>  <Genealogy>  (26) 
Cc1ccccc1OCCn1cc[nH+]c1 (protonated)
Cc1ccccc1OCCn1cc[nH+]c1 (3D coordinates assigned)
Cc1ccccc1OCCn1cc[nH+]c1 (optimized conformer: 56.491309812761955 kcal/mol)

>  <smiles>  (26) 
Cc1ccccc1OCCn1ccnc1

>  <score_type>  (26) 
oracle

>  <origin>  (26) 
adg

>  <m_score__min__energy>  (26) 
-5.5199999999999996

>  <m_primary>  (26) 
energy

$$$$
26:0
     RDKit          3D

 54 56  0  0  0  0  0  0  0  0999 V2000
    0.1380   24.2010  -27.8580 C   0  0  0  0  0  0  0  0  0  0  0  0
   -0.8880   24.5010  -28.9500 C   0  0  0  0  0  0  0  0  0  0  0  0
   -2.1640   24.9950  -28.3880 N   0  0  0  0  0  0  0  0  0  0  0  0
   -2.0230   25.2920  -26.9530 C   0  0  0  0  0  0  0  0  0  0  0  0
   -3.3500   24.1480  -28.6740 C   0  0  0  0  0  0  0  0  0  0  0  0
   -3.5620   23.7950  -30.1580 C   0  0  0  0  0  0  0  0  0  0  0  0
   -4.1050   24.9030  -30.8430 O   0  0  0  0  0  0  0  0  0  0  0  0
   -5.4890   24.9940  -30.5840 C   0  0  0  0  0  0  0  0  0  0  0  0
   -6.2060   23.7770  -31.1760 C   0  0  0  0  0  0  0  0  0  0  0  0
   -5.6430   23.3380  -32.4720 N   0  0  0  0  0  0  0  0  0  0  0  0
   -5.6150   21.8860  -32.6090 C   0  0  0  0  0  0  0  0  0  0  0  0
   -4.3810   21.2130  -32.8380 C   0  0  0  0  0  0  0  0  0  0  0  0
   -3.1480   21.9130  -32.8990 C   0  0  0  0  0  0  0  0  0  0  0  0
   -1.9410   21.2410  -33.0670 C   0  0  0  0  0  0  0  0  0  0  0  0
   -1.9240   19.8580  -33.1680 C   0  0  0  0  0  0  0  0  0  0  0  0
   -3.1170   19.1420  -33.1340 C   0  0  0  0  0  0  0  0  0  0  0  0
   -4.3680   19.8000  -33.0110 C   0  0  0  0  0  0  0  0  0  0  0  0
   -5.5510   19.0930  -33.0420 N   0  0  0  0  0  0  0  0  0  0  0  0
   -5.5630   17.6990  -33.5430 C   0  0  0  0  0  0  0  0  0  0  0  0
   -6.7270   19.6890  -32.6390 C   0  0  0  0  0  0  0  0  0  0  0  0
   -7.8840   18.9120  -32.3710 C   0  0  0  0  0  0  0  0  0  0  0  0
   -9.0930   19.5080  -32.0340 C   0  0  0  0  0  0  0  0  0  0  0  0
   -9.1850   20.8880  -31.9470 C   0  0  0  0  0  0  0  0  0  0  0  0
  -10.3690   21.4670  -31.6280 F   0  0  0  0  0  0  0  0  0  0  0  0
   -8.0590   21.6780  -32.1600 C   0  0  0  0  0  0  0  0  0  0  0  0
   -6.7990   21.1020  -32.4700 C   0  0  0  0  0  0  0  0  0  0  0  0
   -0.3271   24.3370  -26.8705 H   0  0  0  0  0  0  0  0  0  0  0  0
    0.4878   23.1630  -27.9587 H   0  0  0  0  0  0  0  0  0  0  0  0
    0.9919   24.8871  -27.9587 H   0  0  0  0  0  0  0  0  0  0  0  0
   -0.4763   25.2667  -29.6240 H   0  0  0  0  0  0  0  0  0  0  0  0
   -1.0935   23.5654  -29.4907 H   0  0  0  0  0  0  0  0  0  0  0  0
   -2.4214   24.4528  -26.3640 H   0  0  0  0  0  0  0  0  0  0  0  0
   -0.9598   25.4374  -26.7114 H   0  0  0  0  0  0  0  0  0  0  0  0
   -2.5825   26.2078  -26.7114 H   0  0  0  0  0  0  0  0  0  0  0  0
   -3.2400   23.2081  -28.1131 H   0  0  0  0  0  0  0  0  0  0  0  0
   -4.2271   24.7397  -28.3730 H   0  0  0  0  0  0  0  0  0  0  0  0
   -2.5964   23.5244  -30.6100 H   0  0  0  0  0  0  0  0  0  0  0  0
   -4.2584   22.9468  -30.2323 H   0  0  0  0  0  0  0  0  0  0  0  0
   -5.6564   25.0242  -29.4972 H   0  0  0  0  0  0  0  0  0  0  0  0
   -5.8863   25.9106  -31.0445 H   0  0  0  0  0  0  0  0  0  0  0  0
   -6.1278   22.9443  -30.4616 H   0  0  0  0  0  0  0  0  0  0  0  0
   -7.2502   24.0712  -31.3578 H   0  0  0  0  0  0  0  0  0  0  0  0
   -4.6710   23.7100  -32.5610 H   0  0  0  0  0  0  0  0  0  0  0  0
   -6.1230   23.8180  -33.2610 H   0  0  0  0  0  0  0  0  0  0  0  0
   -3.1463   23.0095  -32.8117 H   0  0  0  0  0  0  0  0  0  0  0  0
   -0.9995   21.8074  -33.1197 H   0  0  0  0  0  0  0  0  0  0  0  0
   -0.9669   19.3265  -33.2751 H   0  0  0  0  0  0  0  0  0  0  0  0
   -3.0895   18.0446  -33.2038 H   0  0  0  0  0  0  0  0  0  0  0  0
   -5.5690   17.0032  -32.6910 H   0  0  0  0  0  0  0  0  0  0  0  0
   -6.4626   17.5371  -34.1550 H   0  0  0  0  0  0  0  0  0  0  0  0
   -4.6663   17.5216  -34.1550 H   0  0  0  0  0  0  0  0  0  0  0  0
   -7.8223   17.8154  -32.4313 H   0  0  0  0  0  0  0  0  0  0  0  0
   -9.9773   18.8844  -31.8362 H   0  0  0  0  0  0  0  0  0  0  0  0
   -8.1473   22.7720  -32.0866 H   0  0  0  0  0  0  0  0  0  0  0  0
  1  2  1  0
  2  3  1  0
  3  4  1  0
  3  5  1  0
  5  6  1  0
  6  7  1  0
  7  8  1  0
  8  9  1  0
  9 10  1  0
 10 11  1  0
 11 12  2  0
 12 13  1  0
 13 14  2  0
 14 15  1  0
 15 16  2  0
 16 17  1  0
 17 18  2  0
 18 19  1  0
 18 20  1  0
 20 21  2  0
 21 22  1  0
 22 23  2  0
 23 24  1  0
 23 25  1  0
 25 26  2  0
 26 11  1  0
 17 12  1  0
 26 20  1  0
  1 27  1  0
  1 28  1  0
  1 29  1  0
  2 30  1  0
  2 31  1  0
  4 32  1  0
  4 33  1  0
  4 34  1  0
  5 35  1  0
  5 36  1  0
  6 37  1  0
  6 38  1  0
  8 39  1  0
  8 40  1  0
  9 41  1  0
  9 42  1  0
 10 43  1  0
 10 44  1  0
 13 45  1  0
 14 46  1  0
 15 47  1  0
 16 48  1  0
 19 49  1  0
 19 50  1  0
 19 51  1  0
 21 52  1  0
 22 53  1  0
 25 54  1  0
M  CHG  2  10   1  18   1
M  END
>  <UniqueID>  (27) 
27

>  <SMILES>  (27) 
CCN(C)CCOCC[NH2+]c1c2ccccc2[n+](C)c2ccc(F)cc12

>  <Energy>  (27) 
85.66925223738626

>  <Genealogy>  (27) 
CCN(C)CCOCC[NH2+]c1c2ccccc2[n+](C)c2ccc(F)cc12 (protonated)
CCN(C)CCOCC[NH2+]c1c2ccccc2[n+](C)c2ccc(F)cc12 (3D coordinates assigned)
CCN(C)CCOCC[NH2+]c1c2ccccc2[n+](C)c2ccc(F)cc12 (optimized conformer: 85.66925223738626 kcal/mol)

>  <smiles>  (27) 
CCN(C)CCOCCNc1c2ccccc2[n+](C)c2ccc(F)cc12

>  <score_type>  (27) 
oracle

>  <origin>  (27) 
adg

>  <m_score__min__energy>  (27) 
-7.6399999999999997

>  <m_primary>  (27) 
energy

$$$$
