0:0
     RDKit          3D

 66 69  0  0  0  0  0  0  0  0999 V2000
   -8.8000   22.7950  -31.6500 C   0  0  0  0  0  0  0  0  0  0  0  0
   -7.4510   22.1960  -31.5330 N   0  0  0  0  0  0  0  0  0  0  0  0
   -7.2330   20.8980  -31.9630 C   0  0  0  0  0  0  0  0  0  0  0  0
   -8.3060   20.0160  -32.2540 C   0  0  0  0  0  0  0  0  0  0  0  0
   -8.0700   18.7290  -32.7320 C   0  0  0  0  0  0  0  0  0  0  0  0
   -6.7690   18.2770  -32.9160 C   0  0  0  0  0  0  0  0  0  0  0  0
   -5.6930   19.1020  -32.6020 C   0  0  0  0  0  0  0  0  0  0  0  0
   -5.9060   20.4090  -32.1110 C   0  0  0  0  0  0  0  0  0  0  0  0
   -4.8220   21.2250  -31.7470 C   0  0  0  0  0  0  0  0  0  0  0  0
   -3.4740   20.7590  -31.9310 N   0  0  0  0  0  0  0  0  0  0  0  0
   -2.7030   21.1720  -33.1060 C   0  0  0  0  0  0  0  0  0  0  0  0
   -1.3610   20.4210  -33.1880 C   0  0  0  0  0  0  0  0  0  0  0  0
   -1.3610   19.1410  -32.4370 N   0  0  0  0  0  0  0  0  0  0  0  0
   -2.1540   18.1080  -33.1310 C   0  0  0  0  0  0  0  0  0  0  0  0
    0.0210   18.6600  -32.2580 C   0  0  0  0  0  0  0  0  0  0  0  0
   -5.0670   22.4840  -31.1710 C   0  0  0  0  0  0  0  0  0  0  0  0
   -3.9990   23.3000  -30.7450 C   0  0  0  0  0  0  0  0  0  0  0  0
   -4.2270   24.5270  -30.1270 C   0  0  0  0  0  0  0  0  0  0  0  0
   -3.1150   25.2780  -29.7200 O   0  0  0  0  0  0  0  0  0  0  0  0
   -2.2400   24.9160  -28.6560 C   0  0  0  0  0  0  0  0  0  0  0  0
   -2.8850   23.8390  -27.7630 C   0  0  0  0  0  0  0  0  0  0  0  0
   -2.1300   22.5530  -27.6630 N   0  0  0  0  0  0  0  0  0  0  0  0
   -1.5930   22.4550  -26.4020 O   0  0  0  0  0  0  0  0  0  0  0  0
   -3.0060   21.3770  -27.9690 C   0  0  0  0  0  0  0  0  0  0  0  0
   -2.1750   20.1820  -28.4690 C   0  0  0  0  0  0  0  0  0  0  0  0
   -1.4880   20.4380  -29.6860 O   0  0  0  0  0  0  0  0  0  0  0  0
   -1.2140   21.8170  -29.9040 C   0  0  0  0  0  0  0  0  0  0  0  0
   -0.9620   22.6020  -28.6000 C   0  0  0  0  0  0  0  0  0  0  0  0
   -5.5440   24.9570  -29.9250 C   0  0  0  0  0  0  0  0  0  0  0  0
   -6.6150   24.1750  -30.3560 C   0  0  0  0  0  0  0  0  0  0  0  0
   -6.4020   22.9420  -31.0270 C   0  0  0  0  0  0  0  0  0  0  0  0
   -9.2090   22.9766  -30.6451 H   0  0  0  0  0  0  0  0  0  0  0  0
   -8.7321   23.7476  -32.1959 H   0  0  0  0  0  0  0  0  0  0  0  0
   -9.4611   22.1058  -32.1959 H   0  0  0  0  0  0  0  0  0  0  0  0
   -9.3413   20.3542  -32.0996 H   0  0  0  0  0  0  0  0  0  0  0  0
   -8.9175   18.0675  -32.9649 H   0  0  0  0  0  0  0  0  0  0  0  0
   -6.5893   17.2659  -33.3103 H   0  0  0  0  0  0  0  0  0  0  0  0
   -4.6659   18.7322  -32.7377 H   0  0  0  0  0  0  0  0  0  0  0  0
   -2.9530   20.4470  -31.0810 H   0  0  0  0  0  0  0  0  0  0  0  0
   -3.2890   20.9583  -34.0121 H   0  0  0  0  0  0  0  0  0  0  0  0
   -2.4934   22.2486  -33.0224 H   0  0  0  0  0  0  0  0  0  0  0  0
   -1.1444   20.2063  -34.2449 H   0  0  0  0  0  0  0  0  0  0  0  0
   -0.5962   21.0673  -32.7327 H   0  0  0  0  0  0  0  0  0  0  0  0
   -1.7620   19.2870  -31.4810 H   0  0  0  0  0  0  0  0  0  0  0  0
   -2.6480   17.4644  -32.3882 H   0  0  0  0  0  0  0  0  0  0  0  0
   -2.9150   18.5917  -33.7611 H   0  0  0  0  0  0  0  0  0  0  0  0
   -1.4901   17.4979  -33.7611 H   0  0  0  0  0  0  0  0  0  0  0  0
    0.2458   18.5818  -31.1841 H   0  0  0  0  0  0  0  0  0  0  0  0
    0.1290   17.6714  -32.7282 H   0  0  0  0  0  0  0  0  0  0  0  0
    0.7194   19.3679  -32.7282 H   0  0  0  0  0  0  0  0  0  0  0  0
   -2.9648   22.9606  -30.9040 H   0  0  0  0  0  0  0  0  0  0  0  0
   -1.3031   24.5223  -29.0770 H   0  0  0  0  0  0  0  0  0  0  0  0
   -2.0386   25.8081  -28.0447 H   0  0  0  0  0  0  0  0  0  0  0  0
   -2.9846   24.2538  -26.7491 H   0  0  0  0  0  0  0  0  0  0  0  0
   -3.8468   23.5899  -28.2351 H   0  0  0  0  0  0  0  0  0  0  0  0
   -1.1310   21.5830  -26.2980 H   0  0  0  0  0  0  0  0  0  0  0  0
   -3.5446   21.0831  -27.0560 H   0  0  0  0  0  0  0  0  0  0  0  0
   -3.7141   21.6653  -28.7599 H   0  0  0  0  0  0  0  0  0  0  0  0
   -1.4333   19.9268  -27.6977 H   0  0  0  0  0  0  0  0  0  0  0  0
   -2.8776   19.3579  -28.6617 H   0  0  0  0  0  0  0  0  0  0  0  0
   -0.3199   21.8992  -30.5395 H   0  0  0  0  0  0  0  0  0  0  0  0
   -2.1031   22.2546  -30.3814 H   0  0  0  0  0  0  0  0  0  0  0  0
   -0.0857   22.1715  -28.0934 H   0  0  0  0  0  0  0  0  0  0  0  0
   -0.7969   23.6550  -28.8717 H   0  0  0  0  0  0  0  0  0  0  0  0
   -5.7349   25.9172  -29.4234 H   0  0  0  0  0  0  0  0  0  0  0  0
   -7.6435   24.5196  -30.1729 H   0  0  0  0  0  0  0  0  0  0  0  0
  1  2  1  0
  2  3  2  0
  3  4  1  0
  4  5  2  0
  5  6  1  0
  6  7  2  0
  7  8  1  0
  8  9  2  0
  9 10  1  0
 10 11  1  0
 11 12  1  0
 12 13  1  0
 13 14  1  0
 13 15  1  0
  9 16  1  0
 16 17  2  0
 17 18  1  0
 18 19  1  0
 19 20  1  0
 20 21  1  0
 21 22  1  0
 22 23  1  0
 22 24  1  0
 24 25  1  0
 25 26  1  0
 26 27  1  0
 27 28  1  0
 18 29  2  0
 29 30  1  0
 30 31  2  0
 31  2  1  0
  8  3  1  0
 31 16  1  0
 28 22  1  0
  1 32  1  0
  1 33  1  0
  1 34  1  0
  4 35  1  0
  5 36  1  0
  6 37  1  0
  7 38  1  0
 10 39  1  0
 11 40  1  0
 11 41  1  0
 12 42  1  0
 12 43  1  0
 13 44  1  0
 14 45  1  0
 14 46  1  0
 14 47  1  0
 15 48  1  0
 15 49  1  0
 15 50  1  0
 17 51  1  0
 20 52  1  0
 20 53  1  0
 21 54  1  0
 21 55  1  0
 23 56  1  0
 24 57  1  0
 24 58  1  0
 25 59  1  0
 25 60  1  0
 27 61  1  0
 27 62  1  0
 28 63  1  0
 28 64  1  0
 29 65  1  0
 30 66  1  0
M  CHG  3   2   1  13   1  22   1
M  END
>  <UniqueID>  (1) 
1

>  <SMILES>  (1) 
C[n+]1c2ccccc2c(NCC[NH+](C)C)c2cc(OCC[N+]3(O)CCOCC3)ccc21

>  <Energy>  (1) 
116.37085943455787

>  <Genealogy>  (1) 
C[n+]1c2ccccc2c(NCC[NH+](C)C)c2cc(OCC[N+]3(O)CCOCC3)ccc21 (protonated)
C[n+]1c2ccccc2c(NCC[NH+](C)C)c2cc(OCC[N+]3(O)CCOCC3)ccc21 (3D coordinates assigned)
C[n+]1c2ccccc2c(NCC[NH+](C)C)c2cc(OCC[N+]3(O)CCOCC3)ccc21 (nonaromatic ring conformer: 116.37085943455787 kcal/mol)

>  <smiles>  (1) 
CN(C)CCNc1c2ccccc2[n+](C)c2ccc(OCC[N+]3([O-])CCOCC3)cc12

>  <score_type>  (1) 
oracle

>  <origin>  (1) 
adg

>  <m_score__min__energy>  (1) 
-7.9800000000000004

>  <m_primary>  (1) 
energy

$$$$
1:0
     RDKit          3D

 52 54  0  0  0  0  0  0  0  0999 V2000
   -5.7840   23.7040  -31.8540 C   0  0  0  0  0  0  0  0  0  0  0  0
   -5.7970   22.3400  -31.1380 C   0  0  1  0  0  0  0  0  0  0  0  0
   -7.1580   21.7300  -31.3840 C   0  0  0  0  0  0  0  0  0  0  0  0
   -7.3640   20.4160  -31.6290 N   0  0  0  0  0  0  0  0  0  0  0  0
   -8.6630   20.1500  -31.9300 C   0  0  0  0  0  0  0  0  0  0  0  0
   -9.5010   21.2590  -31.9550 C   0  0  0  0  0  0  0  0  0  0  0  0
   -8.5750   22.6140  -31.5930 S   0  0  0  0  0  0  0  0  0  0  0  0
   -4.6850   21.4320  -31.5800 N   0  0  1  0  0  0  0  0  0  0  0  0
   -4.0350   21.8860  -32.8490 C   0  0  0  0  0  0  0  0  0  0  0  0
   -2.8820   20.9590  -33.2920 C   0  0  0  0  0  0  0  0  0  0  0  0
   -3.4330   19.6250  -33.8430 C   0  0  0  0  0  0  0  0  0  0  0  0
   -4.7430   19.2290  -33.2770 N   0  0  0  0  0  0  0  0  0  0  0  0
   -5.8440   19.1520  -34.2630 C   0  0  0  0  0  0  0  0  0  0  0  0
   -6.3790   17.7170  -34.4030 C   0  0  0  0  0  0  0  0  0  0  0  0
   -6.8480   17.1750  -33.1760 O   0  0  0  0  0  0  0  0  0  0  0  0
   -6.0880   17.5700  -32.0390 C   0  0  0  0  0  0  0  0  0  0  0  0
   -4.6720   18.0730  -32.3630 C   0  0  0  0  0  0  0  0  0  0  0  0
   -3.6610   21.2170  -30.5120 C   0  0  0  0  0  0  0  0  0  0  0  0
   -3.4940   22.3840  -29.5500 C   0  0  0  0  0  0  0  0  0  0  0  0
   -4.2160   22.4430  -28.3430 C   0  0  0  0  0  0  0  0  0  0  0  0
   -4.0420   23.5190  -27.4660 C   0  0  0  0  0  0  0  0  0  0  0  0
   -3.1630   24.5530  -27.7900 C   0  0  0  0  0  0  0  0  0  0  0  0
   -2.4670   24.5240  -29.0000 C   0  0  0  0  0  0  0  0  0  0  0  0
   -1.6300   25.5400  -29.3270 F   0  0  0  0  0  0  0  0  0  0  0  0
   -2.6390   23.4510  -29.8810 C   0  0  0  0  0  0  0  0  0  0  0  0
   -5.7763   24.5106  -31.1061 H   0  0  0  0  0  0  0  0  0  0  0  0
   -4.8851   23.7791  -32.4836 H   0  0  0  0  0  0  0  0  0  0  0  0
   -6.6813   23.7962  -32.4836 H   0  0  0  0  0  0  0  0  0  0  0  0
   -5.6199   22.4832  -30.0618 H   0  0  0  0  0  0  0  0  0  0  0  0
   -9.0243   19.1321  -32.1384 H   0  0  0  0  0  0  0  0  0  0  0  0
  -10.5791   21.2510  -32.1731 H   0  0  0  0  0  0  0  0  0  0  0  0
   -5.1060   20.4870  -31.7510 H   0  0  0  0  0  0  0  0  0  0  0  0
   -4.7941   21.9087  -33.6448 H   0  0  0  0  0  0  0  0  0  0  0  0
   -3.6083   22.8832  -32.6658 H   0  0  0  0  0  0  0  0  0  0  0  0
   -2.2977   21.4601  -34.0778 H   0  0  0  0  0  0  0  0  0  0  0  0
   -2.2461   20.7452  -32.4203 H   0  0  0  0  0  0  0  0  0  0  0  0
   -3.5432   19.7214  -34.9332 H   0  0  0  0  0  0  0  0  0  0  0  0
   -2.7148   18.8433  -33.5546 H   0  0  0  0  0  0  0  0  0  0  0  0
   -6.6636   19.8082  -33.9349 H   0  0  0  0  0  0  0  0  0  0  0  0
   -5.4533   19.4705  -35.2407 H   0  0  0  0  0  0  0  0  0  0  0  0
   -7.2098   17.7219  -35.1239 H   0  0  0  0  0  0  0  0  0  0  0  0
   -5.5435   17.0869  -34.7419 H   0  0  0  0  0  0  0  0  0  0  0  0
   -6.6308   18.3779  -31.5265 H   0  0  0  0  0  0  0  0  0  0  0  0
   -5.9663   16.6715  -31.4162 H   0  0  0  0  0  0  0  0  0  0  0  0
   -4.1711   18.3755  -31.4316 H   0  0  0  0  0  0  0  0  0  0  0  0
   -4.1041   17.2648  -32.8471 H   0  0  0  0  0  0  0  0  0  0  0  0
   -3.9539   20.3312  -29.9292 H   0  0  0  0  0  0  0  0  0  0  0  0
   -2.6958   21.0959  -31.0256 H   0  0  0  0  0  0  0  0  0  0  0  0
   -4.9212   21.6383  -28.0879 H   0  0  0  0  0  0  0  0  0  0  0  0
   -4.5997   23.5499  -26.5184 H   0  0  0  0  0  0  0  0  0  0  0  0
   -3.0184   25.3909  -27.0922 H   0  0  0  0  0  0  0  0  0  0  0  0
   -2.1012   23.4415  -30.8405 H   0  0  0  0  0  0  0  0  0  0  0  0
  1  2  1  0
  2  3  1  0
  3  4  2  0
  4  5  1  0
  5  6  2  0
  6  7  1  0
  2  8  1  0
  8  9  1  0
  9 10  1  0
 10 11  1  0
 11 12  1  0
 12 13  1  0
 13 14  1  0
 14 15  1  0
 15 16  1  0
 16 17  1  0
  8 18  1  0
 18 19  1  0
 19 20  2  0
 20 21  1  0
 21 22  2  0
 22 23  1  0
 23 24  1  0
 23 25  2  0
  7  3  1  0
 17 12  1  0
 25 19  1  0
  1 26  1  0
  1 27  1  0
  1 28  1  0
  2 29  1  1
  5 30  1  0
  6 31  1  0
  8 32  1  6
  9 33  1  0
  9 34  1  0
 10 35  1  0
 10 36  1  0
 11 37  1  0
 11 38  1  0
 13 39  1  0
 13 40  1  0
 14 41  1  0
 14 42  1  0
 16 43  1  0
 16 44  1  0
 17 45  1  0
 17 46  1  0
 18 47  1  0
 18 48  1  0
 20 49  1  0
 21 50  1  0
 22 51  1  0
 25 52  1  0
M  CHG  1   8   1
M  END
>  <UniqueID>  (2) 
2

>  <SMILES>  (2) 
C[C@@H](c1nccs1)[N@@H+](CCCN1CCOCC1)Cc1cccc(F)c1

>  <Energy>  (2) 
106.40741392084593

>  <Genealogy>  (2) 
CC(c1nccs1)[NH+](CCCN1CCOCC1)Cc1cccc(F)c1 (protonated)
C[C@@H](c1nccs1)[N@@H+](CCCN1CCOCC1)Cc1cccc(F)c1 (chirality)
C[C@@H](c1nccs1)[N@@H+](CCCN1CCOCC1)Cc1cccc(F)c1 (3D coordinates assigned)
C[C@@H](c1nccs1)[N@@H+](CCCN1CCOCC1)Cc1cccc(F)c1 (nonaromatic ring conformer: 106.40741392084593 kcal/mol)

>  <smiles>  (2) 
CC(c1nccs1)N(CCCN1CCOCC1)Cc1cccc(F)c1

>  <score_type>  (2) 
oracle

>  <origin>  (2) 
adg

>  <m_score__min__energy>  (2) 
-7.6600000000000001

>  <m_primary>  (2) 
energy

$$$$
2:0
     RDKit          3D

 55 57  0  0  0  0  0  0  0  0999 V2000
   -2.6400   19.3860  -27.0950 C   0  0  0  0  0  0  0  0  0  0  0  0
   -1.7030   20.5480  -27.4210 C   0  0  0  0  0  0  0  0  0  0  0  0
   -1.6310   20.8340  -28.9310 C   0  0  0  0  0  0  0  0  0  0  0  0
   -1.8790   22.3030  -29.2430 C   0  0  0  0  0  0  0  0  0  0  0  0
   -0.8310   23.1800  -28.9120 C   0  0  0  0  0  0  0  0  0  0  0  0
   -1.0520   24.5500  -28.8910 C   0  0  0  0  0  0  0  0  0  0  0  0
   -0.1130   25.3350  -28.5900 O   0  0  0  0  0  0  0  0  0  0  0  0
   -2.2520   25.0370  -29.1530 O   0  0  0  0  0  0  0  0  0  0  0  0
   -3.2810   24.2740  -29.4950 C   0  0  0  0  0  0  0  0  0  0  0  0
   -4.4790   24.8720  -29.6920 N   0  0  0  0  0  0  0  0  0  0  0  0
   -5.5900   24.1900  -30.0530 C   0  0  0  0  0  0  0  0  0  0  0  0
   -6.8770   24.9450  -30.1930 C   0  0  0  0  0  0  0  0  0  0  0  0
   -5.4960   22.8200  -30.3440 C   0  0  0  0  0  0  0  0  0  0  0  0
   -6.6230   22.1220  -30.7950 O   0  0  0  0  0  0  0  0  0  0  0  0
   -7.1970   22.3610  -32.0770 C   0  0  0  0  0  0  0  0  0  0  0  0
   -8.2650   21.2910  -32.3540 C   0  0  0  0  0  0  0  0  0  0  0  0
   -7.7270   19.9650  -32.7320 N   0  0  0  0  0  0  0  0  0  0  0  0
   -6.4000   20.0170  -33.3690 C   0  0  0  0  0  0  0  0  0  0  0  0
   -6.0690   18.6540  -34.0100 C   0  0  0  0  0  0  0  0  0  0  0  0
   -6.9380   17.5750  -33.4880 N   0  0  0  0  0  0  0  0  0  0  0  0
   -6.4080   16.2600  -33.8760 C   0  0  0  0  0  0  0  0  0  0  0  0
   -7.0620   17.6690  -32.0220 C   0  0  0  0  0  0  0  0  0  0  0  0
   -7.7650   18.9840  -31.6280 C   0  0  0  0  0  0  0  0  0  0  0  0
   -4.2630   22.1450  -30.1680 C   0  0  0  0  0  0  0  0  0  0  0  0
   -4.1590   20.7300  -30.6900 C   0  0  0  0  0  0  0  0  0  0  0  0
   -3.1410   22.8640  -29.6390 C   0  0  0  0  0  0  0  0  0  0  0  0
   -2.7260   19.2794  -26.0036 H   0  0  0  0  0  0  0  0  0  0  0  0
   -3.6335   19.5848  -27.5234 H   0  0  0  0  0  0  0  0  0  0  0  0
   -2.2352   18.4572  -27.5234 H   0  0  0  0  0  0  0  0  0  0  0  0
   -2.0662   21.4502  -26.9070 H   0  0  0  0  0  0  0  0  0  0  0  0
   -0.6936   20.2716  -27.0823 H   0  0  0  0  0  0  0  0  0  0  0  0
   -0.6321   20.5562  -29.2983 H   0  0  0  0  0  0  0  0  0  0  0  0
   -2.4147   20.2430  -29.4276 H   0  0  0  0  0  0  0  0  0  0  0  0
    0.1646   22.7800  -28.6696 H   0  0  0  0  0  0  0  0  0  0  0  0
   -7.2754   25.1787  -29.1947 H   0  0  0  0  0  0  0  0  0  0  0  0
   -6.6956   25.8799  -30.7435 H   0  0  0  0  0  0  0  0  0  0  0  0
   -7.6046   24.3305  -30.7435 H   0  0  0  0  0  0  0  0  0  0  0  0
   -7.6610   23.3582  -32.0933 H   0  0  0  0  0  0  0  0  0  0  0  0
   -6.4149   22.3143  -32.8491 H   0  0  0  0  0  0  0  0  0  0  0  0
   -8.8714   21.1684  -31.4445 H   0  0  0  0  0  0  0  0  0  0  0  0
   -8.8469   21.6481  -33.2165 H   0  0  0  0  0  0  0  0  0  0  0  0
   -6.3994   20.7950  -34.1466 H   0  0  0  0  0  0  0  0  0  0  0  0
   -5.6424   20.2510  -32.6066 H   0  0  0  0  0  0  0  0  0  0  0  0
   -6.2094   18.7290  -35.0984 H   0  0  0  0  0  0  0  0  0  0  0  0
   -5.0270   18.4037  -33.7619 H   0  0  0  0  0  0  0  0  0  0  0  0
   -6.1735   15.6781  -32.9725 H   0  0  0  0  0  0  0  0  0  0  0  0
   -7.1600   15.7232  -34.4729 H   0  0  0  0  0  0  0  0  0  0  0  0
   -5.4939   16.3947  -34.4729 H   0  0  0  0  0  0  0  0  0  0  0  0
   -7.6517   16.8172  -31.6523 H   0  0  0  0  0  0  0  0  0  0  0  0
   -6.0566   17.6529  -31.5759 H   0  0  0  0  0  0  0  0  0  0  0  0
   -8.8139   18.7681  -31.3765 H   0  0  0  0  0  0  0  0  0  0  0  0
   -7.2379   19.4138  -30.7635 H   0  0  0  0  0  0  0  0  0  0  0  0
   -4.1075   20.0297  -29.8433 H   0  0  0  0  0  0  0  0  0  0  0  0
   -5.0426   20.4995  -31.3033 H   0  0  0  0  0  0  0  0  0  0  0  0
   -3.2512   20.6312  -31.3033 H   0  0  0  0  0  0  0  0  0  0  0  0
  1  2  1  0
  2  3  1  0
  3  4  1  0
  4  5  2  0
  5  6  1  0
  6  7  2  0
  6  8  1  0
  8  9  1  0
  9 10  2  0
 10 11  1  0
 11 12  1  0
 11 13  2  0
 13 14  1  0
 14 15  1  0
 15 16  1  0
 16 17  1  0
 17 18  1  0
 18 19  1  0
 19 20  1  0
 20 21  1  0
 20 22  1  0
 22 23  1  0
 13 24  1  0
 24 25  1  0
 24 26  2  0
 26  4  1  0
 26  9  1  0
 23 17  1  0
  1 27  1  0
  1 28  1  0
  1 29  1  0
  2 30  1  0
  2 31  1  0
  3 32  1  0
  3 33  1  0
  5 34  1  0
 12 35  1  0
 12 36  1  0
 12 37  1  0
 15 38  1  0
 15 39  1  0
 16 40  1  0
 16 41  1  0
 18 42  1  0
 18 43  1  0
 19 44  1  0
 19 45  1  0
 21 46  1  0
 21 47  1  0
 21 48  1  0
 22 49  1  0
 22 50  1  0
 23 51  1  0
 23 52  1  0
 25 53  1  0
 25 54  1  0
 25 55  1  0
M  END
>  <UniqueID>  (3) 
3

>  <SMILES>  (3) 
CCCc1cc(=O)oc2nc(C)c(OCCN3CCN(C)CC3)c(C)c12

>  <Energy>  (3) 
85.99177888674225

>  <Genealogy>  (3) 
CCCc1cc(=O)oc2nc(C)c(OCCN3CCN(C)CC3)c(C)c12 (3D coordinates assigned)
CCCc1cc(=O)oc2nc(C)c(OCCN3CCN(C)CC3)c(C)c12 (nonaromatic ring conformer: 85.99177888674225 kcal/mol)

>  <smiles>  (3) 
CCCc1cc(=O)oc2nc(C)c(OCCN3CCN(C)CC3)c(C)c12

>  <score_type>  (3) 
oracle

>  <origin>  (3) 
adg

>  <m_score__min__energy>  (3) 
-8.7400000000000002

>  <m_primary>  (3) 
energy

$$$$
3:0
     RDKit          3D

 49 51  0  0  0  0  0  0  0  0999 V2000
   -0.4850   26.6500  -23.2540 C   0  0  0  0  0  0  0  0  0  0  0  0
   -0.5070   27.5150  -24.5100 C   0  0  0  0  0  0  0  0  0  0  0  0
   -0.2030   26.7350  -25.6670 O   0  0  0  0  0  0  0  0  0  0  0  0
   -1.1320   26.0120  -26.4330 C   0  0  0  0  0  0  0  0  0  0  0  0
   -0.8020   25.7140  -27.7600 C   0  0  0  0  0  0  0  0  0  0  0  0
   -1.6880   24.9990  -28.5710 C   0  0  0  0  0  0  0  0  0  0  0  0
   -2.9280   24.5670  -28.0680 C   0  0  0  0  0  0  0  0  0  0  0  0
   -3.8450   23.8260  -28.9040 N   0  0  0  0  0  0  0  0  0  0  0  0
   -3.7370   22.3650  -29.0100 C   0  0  0  0  0  0  0  0  0  0  0  0
   -4.3500   21.8850  -30.3300 C   0  0  0  0  0  0  0  0  0  0  0  0
   -5.7700   22.2870  -30.4620 N   0  0  0  0  0  0  0  0  0  0  0  0
   -6.2400   22.2130  -32.1430 S   0  0  0  0  0  0  0  0  0  0  0  0
   -5.0370   21.9410  -33.0020 O   0  0  0  0  0  0  0  0  0  0  0  0
   -6.8330   23.5310  -32.5590 O   0  0  0  0  0  0  0  0  0  0  0  0
   -7.4140   20.9170  -32.3890 C   0  0  0  0  0  0  0  0  0  0  0  0
   -7.2140   19.7110  -33.0330 C   0  0  0  0  0  0  0  0  0  0  0  0
   -5.9400   19.2100  -33.6310 C   0  0  0  0  0  0  0  0  0  0  0  0
   -8.3450   18.9810  -32.9670 N   0  0  0  0  0  0  0  0  0  0  0  0
   -9.2260   19.6950  -32.3260 O   0  0  0  0  0  0  0  0  0  0  0  0
   -8.7260   20.8520  -31.9580 C   0  0  0  0  0  0  0  0  0  0  0  0
   -9.4860   21.8860  -31.1960 C   0  0  0  0  0  0  0  0  0  0  0  0
   -6.0930   23.6190  -29.8800 C   0  0  0  0  0  0  0  0  0  0  0  0
   -4.8640   24.5200  -29.7020 C   0  0  0  0  0  0  0  0  0  0  0  0
   -3.2580   24.8690  -26.7350 C   0  0  0  0  0  0  0  0  0  0  0  0
   -2.3730   25.5840  -25.9250 C   0  0  0  0  0  0  0  0  0  0  0  0
   -0.5014   27.2958  -22.3637 H   0  0  0  0  0  0  0  0  0  0  0  0
   -1.3667   25.9923  -23.2462 H   0  0  0  0  0  0  0  0  0  0  0  0
    0.4290   26.0380  -23.2462 H   0  0  0  0  0  0  0  0  0  0  0  0
   -1.5073   27.9576  -24.6258 H   0  0  0  0  0  0  0  0  0  0  0  0
    0.2513   28.3053  -24.4078 H   0  0  0  0  0  0  0  0  0  0  0  0
    0.1639   26.0456  -28.1687 H   0  0  0  0  0  0  0  0  0  0  0  0
   -1.4128   24.7723  -29.6116 H   0  0  0  0  0  0  0  0  0  0  0  0
   -2.6764   22.0753  -28.9750 H   0  0  0  0  0  0  0  0  0  0  0  0
   -4.2797   21.9026  -28.1723 H   0  0  0  0  0  0  0  0  0  0  0  0
   -3.7793   22.3182  -31.1647 H   0  0  0  0  0  0  0  0  0  0  0  0
   -4.3055   20.7860  -30.3451 H   0  0  0  0  0  0  0  0  0  0  0  0
   -6.3470   21.5700  -29.9610 H   0  0  0  0  0  0  0  0  0  0  0  0
   -5.2410   18.9351  -32.8274 H   0  0  0  0  0  0  0  0  0  0  0  0
   -6.1492   18.3272  -34.2530 H   0  0  0  0  0  0  0  0  0  0  0  0
   -5.4918   19.9988  -34.2530 H   0  0  0  0  0  0  0  0  0  0  0  0
   -9.3591   21.7134  -30.1171 H   0  0  0  0  0  0  0  0  0  0  0  0
   -9.1058   22.8853  -31.4547 H   0  0  0  0  0  0  0  0  0  0  0  0
  -10.5532   21.8214  -31.4547 H   0  0  0  0  0  0  0  0  0  0  0  0
   -6.8047   24.1277  -30.5469 H   0  0  0  0  0  0  0  0  0  0  0  0
   -6.5143   23.4428  -28.8793 H   0  0  0  0  0  0  0  0  0  0  0  0
   -4.4474   24.7674  -30.6895 H   0  0  0  0  0  0  0  0  0  0  0  0
   -5.1639   25.4420  -29.1825 H   0  0  0  0  0  0  0  0  0  0  0  0
   -4.2240   24.5384  -26.3256 H   0  0  0  0  0  0  0  0  0  0  0  0
   -2.6472   25.8138  -24.8848 H   0  0  0  0  0  0  0  0  0  0  0  0
  1  2  1  0
  2  3  1  0
  3  4  1  0
  4  5  2  0
  5  6  1  0
  6  7  2  0
  7  8  1  0
  8  9  1  0
  9 10  1  0
 10 11  1  0
 11 12  1  0
 12 13  2  0
 12 14  2  0
 12 15  1  0
 15 16  1  0
 16 17  1  0
 16 18  2  0
 18 19  1  0
 19 20  1  0
 20 21  1  0
 11 22  1  0
 22 23  1  0
  7 24  1  0
 24 25  2  0
 25  4  1  0
 23  8  1  0
 20 15  2  0
  1 26  1  0
  1 27  1  0
  1 28  1  0
  2 29  1  0
  2 30  1  0
  5 31  1  0
  6 32  1  0
  9 33  1  0
  9 34  1  0
 10 35  1  0
 10 36  1  0
 11 37  1  0
 17 38  1  0
 17 39  1  0
 17 40  1  0
 21 41  1  0
 21 42  1  0
 21 43  1  0
 22 44  1  0
 22 45  1  0
 23 46  1  0
 23 47  1  0
 24 48  1  0
 25 49  1  0
M  CHG  1  11   1
M  END
>  <UniqueID>  (4) 
4

>  <SMILES>  (4) 
CCOc1ccc(N2CC[NH+](S(=O)(=O)c3c(C)noc3C)CC2)cc1

>  <Energy>  (4) 
84.63150184290988

>  <Genealogy>  (4) 
CCOc1ccc(N2CC[NH+](S(=O)(=O)c3c(C)noc3C)CC2)cc1 (protonated)
CCOc1ccc(N2CC[NH+](S(=O)(=O)c3c(C)noc3C)CC2)cc1 (3D coordinates assigned)
CCOc1ccc(N2CC[NH+](S(=O)(=O)c3c(C)noc3C)CC2)cc1 (nonaromatic ring conformer: 84.63150184290988 kcal/mol)

>  <smiles>  (4) 
CCOc1ccc(N2CCN(S(=O)(=O)c3c(C)noc3C)CC2)cc1

>  <score_type>  (4) 
oracle

>  <origin>  (4) 
adg

>  <m_score__min__energy>  (4) 
-7.0700000000000003

>  <m_primary>  (4) 
energy

$$$$
4:0
     RDKit          3D

 60 62  0  0  0  0  0  0  0  0999 V2000
   -4.0576   23.6029  -29.4954 H   0  0  0  0  0  0  0  0  0  0  0  0
   -4.0780   23.9010  -30.5540 C   0  0  0  0  0  0  0  0  0  0  0  0
   -4.4620   25.1000  -30.8410 N   0  0  0  0  0  0  0  0  0  0  0  0
   -5.7220   25.6810  -30.4410 C   0  0  0  0  0  0  0  0  0  0  0  0
   -5.7811   25.7082  -29.3429 H   0  0  0  0  0  0  0  0  0  0  0  0
   -5.7963   26.7043  -30.8377 H   0  0  0  0  0  0  0  0  0  0  0  0
   -6.5485   25.0731  -30.8377 H   0  0  0  0  0  0  0  0  0  0  0  0
   -3.6560   22.8860  -31.5860 C   0  0  0  0  0  0  0  0  0  0  0  0
   -3.4039   21.9409  -31.0829 H   0  0  0  0  0  0  0  0  0  0  0  0
   -2.7797   23.2713  -32.1279 H   0  0  0  0  0  0  0  0  0  0  0  0
   -4.7370   22.6500  -32.5400 N   0  0  0  0  0  0  0  0  0  0  0  0
   -4.6410   23.0510  -33.4970 H   0  0  0  0  0  0  0  0  0  0  0  0
   -5.9900   22.0420  -32.1740 C   0  0  0  0  0  0  0  0  0  0  0  0
   -7.0330   22.8730  -31.7460 C   0  0  0  0  0  0  0  0  0  0  0  0
   -6.8322   23.9348  -31.5407 H   0  0  0  0  0  0  0  0  0  0  0  0
   -8.3150   22.3740  -31.5780 C   0  0  0  0  0  0  0  0  0  0  0  0
   -9.1237   23.0423  -31.2474 H   0  0  0  0  0  0  0  0  0  0  0  0
   -8.5830   21.0350  -31.8250 C   0  0  0  0  0  0  0  0  0  0  0  0
   -9.6148   20.6654  -31.7316 H   0  0  0  0  0  0  0  0  0  0  0  0
   -7.5540   20.1350  -32.1950 C   0  0  0  0  0  0  0  0  0  0  0  0
   -6.2320   20.6470  -32.3670 C   0  0  0  0  0  0  0  0  0  0  0  0
   -5.2030   19.7400  -32.7100 C   0  0  0  0  0  0  0  0  0  0  0  0
   -3.8210   20.1040  -32.5820 N   0  0  0  0  0  0  0  0  0  0  0  0
   -3.4580   20.3350  -31.6300 H   0  0  0  0  0  0  0  0  0  0  0  0
   -3.0600   20.4700  -33.7770 C   0  0  0  0  0  0  0  0  0  0  0  0
   -3.4834   21.3922  -34.2016 H   0  0  0  0  0  0  0  0  0  0  0  0
   -3.1273   19.6403  -34.4961 H   0  0  0  0  0  0  0  0  0  0  0  0
   -1.5810   20.7050  -33.4520 C   0  0  0  0  0  0  0  0  0  0  0  0
   -1.3276   21.7570  -33.6499 H   0  0  0  0  0  0  0  0  0  0  0  0
   -0.9647   20.0469  -34.0821 H   0  0  0  0  0  0  0  0  0  0  0  0
   -1.3180   20.3970  -32.0250 N   0  0  0  0  0  0  0  0  0  0  0  0
   -0.6920   21.5250  -31.2970 C   0  0  0  0  0  0  0  0  0  0  0  0
   -0.9981   22.4633  -31.7826 H   0  0  0  0  0  0  0  0  0  0  0  0
    0.3957   21.3657  -31.3350 H   0  0  0  0  0  0  0  0  0  0  0  0
   -1.0810   21.5990  -29.8120 C   0  0  0  0  0  0  0  0  0  0  0  0
   -0.1894   21.4294  -29.1905 H   0  0  0  0  0  0  0  0  0  0  0  0
   -1.4982   22.5926  -29.5913 H   0  0  0  0  0  0  0  0  0  0  0  0
   -1.8339   20.8280  -29.5913 H   0  0  0  0  0  0  0  0  0  0  0  0
   -0.5840   19.1270  -31.8230 C   0  0  0  0  0  0  0  0  0  0  0  0
    0.4744   19.2807  -32.0802 H   0  0  0  0  0  0  0  0  0  0  0  0
   -0.6908   18.8296  -30.7694 H   0  0  0  0  0  0  0  0  0  0  0  0
   -1.1510   18.0090  -32.6980 C   0  0  0  0  0  0  0  0  0  0  0  0
   -1.5555   17.2114  -32.0575 H   0  0  0  0  0  0  0  0  0  0  0  0
   -1.9538   18.4118  -33.3331 H   0  0  0  0  0  0  0  0  0  0  0  0
   -0.3517   17.5993  -33.3331 H   0  0  0  0  0  0  0  0  0  0  0  0
   -5.5280   18.4310  -33.1000 C   0  0  0  0  0  0  0  0  0  0  0  0
   -4.5380   17.5560  -33.5970 C   0  0  0  0  0  0  0  0  0  0  0  0
   -3.4911   17.8904  -33.6442 H   0  0  0  0  0  0  0  0  0  0  0  0
   -4.8710   16.2750  -34.0280 C   0  0  0  0  0  0  0  0  0  0  0  0
   -4.0884   15.6010  -34.4065 H   0  0  0  0  0  0  0  0  0  0  0  0
   -6.1920   15.8480  -33.9800 C   0  0  0  0  0  0  0  0  0  0  0  0
   -6.4575   14.8450  -34.3453 H   0  0  0  0  0  0  0  0  0  0  0  0
   -7.1830   16.6870  -33.4700 C   0  0  0  0  0  0  0  0  0  0  0  0
   -8.2266   16.3401  -33.4461 H   0  0  0  0  0  0  0  0  0  0  0  0
   -6.8660   17.9800  -32.9820 C   0  0  0  0  0  0  0  0  0  0  0  0
   -7.8160   18.7910  -32.3930 N   0  0  0  0  0  0  0  0  0  0  0  0
   -9.1060   18.2110  -31.9530 C   0  0  0  0  0  0  0  0  0  0  0  0
   -9.1443   18.1938  -30.8538 H   0  0  0  0  0  0  0  0  0  0  0  0
   -9.9341   18.8234  -32.3392 H   0  0  0  0  0  0  0  0  0  0  0  0
   -9.1975   17.1851  -32.3392 H   0  0  0  0  0  0  0  0  0  0  0  0
  1  2  1  0
  2  3  2  0
  3  4  1  0
  4  5  1  0
  4  6  1  0
  4  7  1  0
  2  8  1  0
  8  9  1  0
  8 10  1  0
  8 11  1  0
 11 12  1  0
 11 13  1  0
 13 14  2  0
 14 15  1  0
 14 16  1  0
 16 17  1  0
 16 18  2  0
 18 19  1  0
 18 20  1  0
 20 21  2  0
 21 22  1  0
 22 23  1  0
 23 24  1  0
 23 25  1  0
 25 26  1  0
 25 27  1  0
 25 28  1  0
 28 29  1  0
 28 30  1  0
 28 31  1  0
 31 32  1  0
 32 33  1  0
 32 34  1  0
 32 35  1  0
 35 36  1  0
 35 37  1  0
 35 38  1  0
 31 39  1  0
 39 40  1  0
 39 41  1  0
 39 42  1  0
 42 43  1  0
 42 44  1  0
 42 45  1  0
 22 46  2  0
 46 47  1  0
 47 48  1  0
 47 49  2  0
 49 50  1  0
 49 51  1  0
 51 52  1  0
 51 53  2  0
 53 54  1  0
 53 55  1  0
 55 56  2  0
 56 57  1  0
 57 58  1  0
 57 59  1  0
 57 60  1  0
 21 13  1  0
 55 46  1  0
 56 20  1  0
M  CHG  1  56   1
M  END
>  <UniqueID>  (5) 
5

>  <SMILES>  (5) 
CCN(CC)CCNc1c2ccccc2[n+](C)c2cccc(NC/C=N\C)c12

>  <Energy>  (5) 
92.2634153604167

>  <Genealogy>  (5) 
CCN(CC)CCNc1c2ccccc2[n+](C)c2cccc(NC/C=N\C)c12 (cis-trans isomerization)
CCN(CC)CCNc1c2ccccc2[n+](C)c2cccc(NC/C=N\C)c12 (3D coordinates assigned)
CCN(CC)CCNc1c2ccccc2[n+](C)c2cccc(NC/C=N\C)c12 (optimized conformer: 92.2634153604167 kcal/mol)

>  <smiles>  (5) 
CCN(CC)CCNc1c2ccccc2[n+](C)c2cccc(NCC=NC)c12

>  <score_type>  (5) 
oracle

>  <origin>  (5) 
adg

>  <m_score__min__energy>  (5) 
-8.8200000000000003

>  <m_primary>  (5) 
energy

$$$$
5:0
     RDKit          3D

 44 47  0  0  0  0  0  0  0  0999 V2000
   -2.1670   22.2460  -29.4140 C   0  0  0  0  0  0  0  0  0  0  0  0
   -2.2300   23.5730  -28.6530 C   0  0  0  0  0  0  0  0  0  0  0  0
   -3.3600   23.6050  -27.5990 C   0  0  0  0  0  0  0  0  0  0  0  0
   -4.5250   24.4020  -28.0240 N   0  0  0  0  0  0  0  0  0  0  0  0
   -4.9540   24.0560  -29.3510 C   0  0  0  0  0  0  0  0  0  0  0  0
   -5.7950   22.6560  -29.7600 S   0  0  0  0  0  0  0  0  0  0  0  0
   -6.0210   23.0690  -31.3790 C   0  0  0  0  0  0  0  0  0  0  0  0
   -6.8960   22.3210  -32.3350 C   0  0  0  0  0  0  0  0  0  0  0  0
   -6.2370   21.0720  -32.7280 N   0  0  0  0  0  0  0  0  0  0  0  0
   -4.9260   20.9000  -33.0400 C   0  0  0  0  0  0  0  0  0  0  0  0
   -3.9330   21.8790  -33.1580 C   0  0  0  0  0  0  0  0  0  0  0  0
   -2.6250   21.4620  -33.4640 C   0  0  0  0  0  0  0  0  0  0  0  0
   -2.3290   20.0940  -33.6420 C   0  0  0  0  0  0  0  0  0  0  0  0
   -3.3380   19.1240  -33.5150 C   0  0  0  0  0  0  0  0  0  0  0  0
   -4.6270   19.5630  -33.2160 C   0  0  0  0  0  0  0  0  0  0  0  0
   -5.7950   18.8720  -32.9970 C   0  0  0  0  0  0  0  0  0  0  0  0
   -6.0740   17.5060  -33.0080 C   0  0  0  0  0  0  0  0  0  0  0  0
   -7.3840   17.1030  -32.7020 C   0  0  0  0  0  0  0  0  0  0  0  0
   -8.3730   18.0600  -32.3890 C   0  0  0  0  0  0  0  0  0  0  0  0
   -8.0650   19.4330  -32.3800 C   0  0  0  0  0  0  0  0  0  0  0  0
   -6.7570   19.8170  -32.6950 C   0  0  0  0  0  0  0  0  0  0  0  0
   -5.4540   24.3180  -31.6140 C   0  0  0  0  0  0  0  0  0  0  0  0
   -4.8550   24.8670  -30.4770 C   0  0  0  0  0  0  0  0  0  0  0  0
   -4.2440   26.1140  -30.4740 O   0  0  0  0  0  0  0  0  0  0  0  0
   -2.1275   21.4133  -28.6963 H   0  0  0  0  0  0  0  0  0  0  0  0
   -3.0613   22.1431  -30.0462 H   0  0  0  0  0  0  0  0  0  0  0  0
   -1.2670   22.2282  -30.0462 H   0  0  0  0  0  0  0  0  0  0  0  0
   -1.2686   23.7316  -28.1426 H   0  0  0  0  0  0  0  0  0  0  0  0
   -2.4380   24.3661  -29.3863 H   0  0  0  0  0  0  0  0  0  0  0  0
   -3.6917   22.5734  -27.4100 H   0  0  0  0  0  0  0  0  0  0  0  0
   -2.9512   24.0785  -26.6942 H   0  0  0  0  0  0  0  0  0  0  0  0
   -4.2540   25.4120  -28.0280 H   0  0  0  0  0  0  0  0  0  0  0  0
   -5.3090   24.2840  -27.3410 H   0  0  0  0  0  0  0  0  0  0  0  0
   -7.8564   22.0917  -31.8501 H   0  0  0  0  0  0  0  0  0  0  0  0
   -7.0735   22.9380  -33.2282 H   0  0  0  0  0  0  0  0  0  0  0  0
   -4.1686   22.9440  -33.0155 H   0  0  0  0  0  0  0  0  0  0  0  0
   -1.8248   22.2099  -33.5656 H   0  0  0  0  0  0  0  0  0  0  0  0
   -1.3011   19.7845  -33.8819 H   0  0  0  0  0  0  0  0  0  0  0  0
   -3.1181   18.0543  -33.6471 H   0  0  0  0  0  0  0  0  0  0  0  0
   -5.2940   16.7685  -33.2483 H   0  0  0  0  0  0  0  0  0  0  0  0
   -7.6412   16.0335  -32.7063 H   0  0  0  0  0  0  0  0  0  0  0  0
   -9.3945   17.7294  -32.1498 H   0  0  0  0  0  0  0  0  0  0  0  0
   -8.8307   20.1829  -32.1324 H   0  0  0  0  0  0  0  0  0  0  0  0
   -5.4751   24.8205  -32.5923 H   0  0  0  0  0  0  0  0  0  0  0  0
  1  2  1  0
  2  3  1  0
  3  4  1  0
  4  5  1  0
  5  6  1  0
  6  7  1  0
  7  8  1  0
  8  9  1  0
  9 10  1  0
 10 11  2  0
 11 12  1  0
 12 13  2  0
 13 14  1  0
 14 15  2  0
 15 16  1  0
 16 17  2  0
 17 18  1  0
 18 19  2  0
 19 20  1  0
 20 21  2  0
  7 22  2  0
 22 23  1  0
 23 24  1  0
 23  5  2  0
 21  9  1  0
 15 10  1  0
 21 16  1  0
  1 25  1  0
  1 26  1  0
  1 27  1  0
  2 28  1  0
  2 29  1  0
  3 30  1  0
  3 31  1  0
  4 32  1  0
  4 33  1  0
  8 34  1  0
  8 35  1  0
 11 36  1  0
 12 37  1  0
 13 38  1  0
 14 39  1  0
 17 40  1  0
 18 41  1  0
 19 42  1  0
 20 43  1  0
 22 44  1  0
M  CHG  2   4   1  24  -1
M  END
>  <UniqueID>  (6) 
6

>  <SMILES>  (6) 
CCC[NH2+]c1sc(Cn2c3ccccc3c3ccccc32)cc1[O-]

>  <Energy>  (6) 
111.97019025479901

>  <Genealogy>  (6) 
CCC[NH2+]c1sc(Cn2c3ccccc3c3ccccc32)cc1[O-] (protonated)
CCC[NH2+]c1sc(Cn2c3ccccc3c3ccccc32)cc1[O-] (3D coordinates assigned)
CCC[NH2+]c1sc(Cn2c3ccccc3c3ccccc32)cc1[O-] (optimized conformer: 111.97019025479901 kcal/mol)

>  <smiles>  (6) 
CCCNc1sc(Cn2c3ccccc3c3ccccc32)cc1O

>  <score_type>  (6) 
oracle

>  <origin>  (6) 
adg

>  <m_score__min__energy>  (6) 
-11.66

>  <m_primary>  (6) 
energy

$$$$
6:0
     RDKit          3D

 40 42  0  0  0  0  0  0  0  0999 V2000
   -6.0990   25.6280  -29.8070 C   0  0  0  0  0  0  0  0  0  0  0  0
   -5.3160   24.5860  -30.5480 C   0  0  0  0  0  0  0  0  0  0  0  0
   -4.1150   24.8360  -30.8430 O   0  0  0  0  0  0  0  0  0  0  0  0
   -5.9080   23.3200  -30.9210 N   0  0  0  0  0  0  0  0  0  0  0  0
   -5.1050   22.2800  -31.5790 C   0  0  0  0  0  0  0  0  0  0  0  0
   -5.9000   21.5970  -32.7090 C   0  0  0  0  0  0  0  0  0  0  0  0
   -7.3660   21.5270  -32.4680 N   0  0  0  0  0  0  0  0  0  0  0  0
   -7.9530   20.3030  -33.0500 C   0  0  0  0  0  0  0  0  0  0  0  0
   -6.8860   19.2780  -33.3250 C   0  0  0  0  0  0  0  0  0  0  0  0
   -6.1660   19.2790  -34.4790 N   0  0  0  0  0  0  0  0  0  0  0  0
   -5.3990   18.1810  -34.3580 C   0  0  0  0  0  0  0  0  0  0  0  0
   -4.4740   17.6920  -35.2820 C   0  0  0  0  0  0  0  0  0  0  0  0
   -3.7960   16.5010  -34.9670 C   0  0  0  0  0  0  0  0  0  0  0  0
   -4.0660   15.8310  -33.7520 C   0  0  0  0  0  0  0  0  0  0  0  0
   -5.0080   16.3510  -32.8370 C   0  0  0  0  0  0  0  0  0  0  0  0
   -5.6560   17.5410  -33.1770 C   0  0  0  0  0  0  0  0  0  0  0  0
   -6.5890   18.2330  -32.5020 N   0  0  0  0  0  0  0  0  0  0  0  0
   -7.2160   17.8970  -31.2220 C   0  0  0  0  0  0  0  0  0  0  0  0
   -7.7110   21.6300  -31.0390 C   0  0  0  0  0  0  0  0  0  0  0  0
   -7.2810   23.0000  -30.5110 C   0  0  0  0  0  0  0  0  0  0  0  0
   -5.9826   25.4731  -28.7242 H   0  0  0  0  0  0  0  0  0  0  0  0
   -5.7264   26.6273  -30.0766 H   0  0  0  0  0  0  0  0  0  0  0  0
   -7.1625   25.5482  -30.0766 H   0  0  0  0  0  0  0  0  0  0  0  0
   -4.2002   22.7395  -32.0034 H   0  0  0  0  0  0  0  0  0  0  0  0
   -4.8378   21.5193  -30.8307 H   0  0  0  0  0  0  0  0  0  0  0  0
   -5.7299   22.1594  -33.6389 H   0  0  0  0  0  0  0  0  0  0  0  0
   -5.5395   20.5593  -32.7660 H   0  0  0  0  0  0  0  0  0  0  0  0
   -8.6839   19.8823  -32.3437 H   0  0  0  0  0  0  0  0  0  0  0  0
   -8.4445   20.5641  -33.9989 H   0  0  0  0  0  0  0  0  0  0  0  0
   -4.2815   18.2216  -36.2267 H   0  0  0  0  0  0  0  0  0  0  0  0
   -3.0541   16.0899  -35.6674 H   0  0  0  0  0  0  0  0  0  0  0  0
   -3.5373   14.8955  -33.5168 H   0  0  0  0  0  0  0  0  0  0  0  0
   -5.2240   15.8365  -31.8890 H   0  0  0  0  0  0  0  0  0  0  0  0
   -6.5740   18.2410  -30.3977 H   0  0  0  0  0  0  0  0  0  0  0  0
   -8.1967   18.3904  -31.1534 H   0  0  0  0  0  0  0  0  0  0  0  0
   -7.3483   16.8071  -31.1534 H   0  0  0  0  0  0  0  0  0  0  0  0
   -8.7976   21.5129  -30.9142 H   0  0  0  0  0  0  0  0  0  0  0  0
   -7.1916   20.8397  -30.4773 H   0  0  0  0  0  0  0  0  0  0  0  0
   -7.9620   23.7673  -30.9078 H   0  0  0  0  0  0  0  0  0  0  0  0
   -7.3200   22.9776  -29.4119 H   0  0  0  0  0  0  0  0  0  0  0  0
  1  2  1  0
  2  3  2  0
  2  4  1  0
  4  5  1  0
  5  6  1  0
  6  7  1  0
  7  8  1  0
  8  9  1  0
  9 10  2  0
 10 11  1  0
 11 12  2  0
 12 13  1  0
 13 14  2  0
 14 15  1  0
 15 16  2  0
 16 17  1  0
 17 18  1  0
  7 19  1  0
 19 20  1  0
 20  4  1  0
 17  9  1  0
 16 11  1  0
  1 21  1  0
  1 22  1  0
  1 23  1  0
  5 24  1  0
  5 25  1  0
  6 26  1  0
  6 27  1  0
  8 28  1  0
  8 29  1  0
 12 30  1  0
 13 31  1  0
 14 32  1  0
 15 33  1  0
 18 34  1  0
 18 35  1  0
 18 36  1  0
 19 37  1  0
 19 38  1  0
 20 39  1  0
 20 40  1  0
M  END
>  <UniqueID>  (7) 
7

>  <SMILES>  (7) 
CC(=O)N1CCN(Cc2nc3ccccc3n2C)CC1

>  <Energy>  (7) 
83.44362846129297

>  <Genealogy>  (7) 
CC(=O)N1CCN(Cc2nc3ccccc3n2C)CC1 (3D coordinates assigned)
CC(=O)N1CCN(Cc2nc3ccccc3n2C)CC1 (nonaromatic ring conformer: 83.44362846129297 kcal/mol)

>  <smiles>  (7) 
CC(=O)N1CCN(Cc2nc3ccccc3n2C)CC1

>  <score_type>  (7) 
oracle

>  <origin>  (7) 
adg

>  <m_score__min__energy>  (7) 
-7.6900000000000004

>  <m_primary>  (7) 
energy

$$$$
7:0
     RDKit          3D

 80 83  0  0  0  0  0  0  0  0999 V2000
   -4.5780   13.1740  -31.2180 C   0  0  0  0  0  0  0  0  0  0  0  0
   -4.7810   13.1690  -32.7320 C   0  0  0  0  0  0  0  0  0  0  0  0
   -4.5260   14.5030  -33.3000 N   0  0  0  0  0  0  0  0  0  0  0  0
   -5.7450   15.1050  -33.8720 C   0  0  0  0  0  0  0  0  0  0  0  0
   -5.6940   16.6410  -33.8600 C   0  0  0  0  0  0  0  0  0  0  0  0
   -4.4200   17.0820  -33.4250 O   0  0  0  0  0  0  0  0  0  0  0  0
   -3.8520   18.0080  -34.3330 C   0  0  0  0  0  0  0  0  0  0  0  0
   -3.9300   19.4370  -33.7850 C   0  0  0  0  0  0  0  0  0  0  0  0
   -4.4930   19.4630  -32.4340 N   0  0  0  0  0  0  0  0  0  0  0  0
   -5.2050   20.6180  -31.9690 C   0  0  0  0  0  0  0  0  0  0  0  0
   -6.6080   20.6590  -32.0320 C   0  0  0  0  0  0  0  0  0  0  0  0
   -7.3350   19.5960  -32.6090 C   0  0  0  0  0  0  0  0  0  0  0  0
   -8.7280   19.6040  -32.6070 C   0  0  0  0  0  0  0  0  0  0  0  0
   -9.4160   20.6640  -32.0260 C   0  0  0  0  0  0  0  0  0  0  0  0
   -8.7160   21.7400  -31.4780 C   0  0  0  0  0  0  0  0  0  0  0  0
   -7.2980   21.7860  -31.5120 C   0  0  0  0  0  0  0  0  0  0  0  0
   -6.5920   22.8800  -31.0460 N   0  0  0  0  0  0  0  0  0  0  0  0
   -7.2980   24.1530  -30.7720 C   0  0  0  0  0  0  0  0  0  0  0  0
   -5.2210   22.7990  -30.8720 C   0  0  0  0  0  0  0  0  0  0  0  0
   -4.4940   23.7990  -30.1750 C   0  0  0  0  0  0  0  0  0  0  0  0
   -3.0930   23.7440  -30.0700 C   0  0  0  0  0  0  0  0  0  0  0  0
   -2.3340   24.7280  -29.4130 O   0  0  0  0  0  0  0  0  0  0  0  0
   -1.0900   24.5260  -28.7440 C   0  0  0  0  0  0  0  0  0  0  0  0
   -1.2570   24.1700  -27.2440 C   0  0  0  0  0  0  0  0  0  0  0  0
   -0.7640   25.1710  -26.2350 N   0  0  0  0  0  0  0  0  0  0  0  0
    0.6640   25.4950  -26.5100 C   0  0  0  0  0  0  0  0  0  0  0  0
   -0.8430   24.6490  -24.8330 C   0  0  0  0  0  0  0  0  0  0  0  0
   -0.3420   25.6110  -23.7340 C   0  0  0  0  0  0  0  0  0  0  0  0
   -1.0890   26.9530  -23.6280 C   0  0  0  0  0  0  0  0  0  0  0  0
   -0.5790   28.0340  -24.5940 C   0  0  0  0  0  0  0  0  0  0  0  0
   -0.8300   27.7600  -26.1010 C   0  0  0  0  0  0  0  0  0  0  0  0
   -1.5610   26.4370  -26.4350 C   0  0  0  0  0  0  0  0  0  0  0  0
   -2.4110   22.6660  -30.6270 C   0  0  0  0  0  0  0  0  0  0  0  0
   -3.1020   21.6390  -31.2580 C   0  0  0  0  0  0  0  0  0  0  0  0
   -4.5050   21.6810  -31.3770 C   0  0  0  0  0  0  0  0  0  0  0  0
   -5.5568   13.1499  -30.7167 H   0  0  0  0  0  0  0  0  0  0  0  0
   -3.9934   12.2900  -30.9235 H   0  0  0  0  0  0  0  0  0  0  0  0
   -4.0376   14.0857  -30.9235 H   0  0  0  0  0  0  0  0  0  0  0  0
   -4.0878   12.4456  -33.1860 H   0  0  0  0  0  0  0  0  0  0  0  0
   -5.8229   12.8888  -32.9462 H   0  0  0  0  0  0  0  0  0  0  0  0
   -3.8180   14.4090  -34.0660 H   0  0  0  0  0  0  0  0  0  0  0  0
   -4.1240   15.1350  -32.5670 H   0  0  0  0  0  0  0  0  0  0  0  0
   -5.8553   14.7622  -34.9114 H   0  0  0  0  0  0  0  0  0  0  0  0
   -6.5991   14.7905  -33.2542 H   0  0  0  0  0  0  0  0  0  0  0  0
   -5.8829   17.0193  -34.8755 H   0  0  0  0  0  0  0  0  0  0  0  0
   -6.4618   17.0215  -33.1702 H   0  0  0  0  0  0  0  0  0  0  0  0
   -2.7973   17.7450  -34.5016 H   0  0  0  0  0  0  0  0  0  0  0  0
   -4.4170   17.9641  -35.2758 H   0  0  0  0  0  0  0  0  0  0  0  0
   -2.9173   19.8656  -33.7586 H   0  0  0  0  0  0  0  0  0  0  0  0
   -4.5864   20.0242  -34.4440 H   0  0  0  0  0  0  0  0  0  0  0  0
   -4.5290   18.5930  -31.8550 H   0  0  0  0  0  0  0  0  0  0  0  0
   -6.7962   18.7524  -33.0650 H   0  0  0  0  0  0  0  0  0  0  0  0
   -9.2836   18.7723  -33.0647 H   0  0  0  0  0  0  0  0  0  0  0  0
  -10.5156   20.6543  -31.9983 H   0  0  0  0  0  0  0  0  0  0  0  0
   -9.2728   22.5663  -31.0119 H   0  0  0  0  0  0  0  0  0  0  0  0
   -7.3797   24.3003  -29.6850 H   0  0  0  0  0  0  0  0  0  0  0  0
   -6.7338   24.9876  -31.2138 H   0  0  0  0  0  0  0  0  0  0  0  0
   -8.3047   24.1164  -31.2138 H   0  0  0  0  0  0  0  0  0  0  0  0
   -5.0373   24.6335  -29.7077 H   0  0  0  0  0  0  0  0  0  0  0  0
   -0.5544   23.7040  -29.2414 H   0  0  0  0  0  0  0  0  0  0  0  0
   -0.5318   25.4724  -28.7964 H   0  0  0  0  0  0  0  0  0  0  0  0
   -2.3304   24.0166  -27.0590 H   0  0  0  0  0  0  0  0  0  0  0  0
   -0.6230   23.2838  -27.0934 H   0  0  0  0  0  0  0  0  0  0  0  0
    1.2021   25.6171  -25.5584 H   0  0  0  0  0  0  0  0  0  0  0  0
    1.1208   24.6777  -27.0873 H   0  0  0  0  0  0  0  0  0  0  0  0
    0.7234   26.4294  -27.0873 H   0  0  0  0  0  0  0  0  0  0  0  0
   -1.8953   24.4100  -24.6196 H   0  0  0  0  0  0  0  0  0  0  0  0
   -0.1731   23.7772  -24.7982 H   0  0  0  0  0  0  0  0  0  0  0  0
   -0.4344   25.0958  -22.7665 H   0  0  0  0  0  0  0  0  0  0  0  0
    0.6925   25.8653  -24.0080 H   0  0  0  0  0  0  0  0  0  0  0  0
   -2.1531   26.7736  -23.8412 H   0  0  0  0  0  0  0  0  0  0  0  0
   -0.9172   27.3316  -22.6096 H   0  0  0  0  0  0  0  0  0  0  0  0
   -1.0756   28.9807  -24.3350 H   0  0  0  0  0  0  0  0  0  0  0  0
    0.5138   28.0563  -24.4704 H   0  0  0  0  0  0  0  0  0  0  0  0
   -1.4346   28.5887  -26.4981 H   0  0  0  0  0  0  0  0  0  0  0  0
    0.1669   27.6728  -26.5578 H   0  0  0  0  0  0  0  0  0  0  0  0
   -2.4548   26.3762  -25.7967 H   0  0  0  0  0  0  0  0  0  0  0  0
   -1.7788   26.4828  -27.5123 H   0  0  0  0  0  0  0  0  0  0  0  0
   -1.3133   22.6268  -30.5670 H   0  0  0  0  0  0  0  0  0  0  0  0
   -2.5470   20.7831  -31.6695 H   0  0  0  0  0  0  0  0  0  0  0  0
  1  2  1  0
  2  3  1  0
  3  4  1  0
  4  5  1  0
  5  6  1  0
  6  7  1  0
  7  8  1  0
  8  9  1  0
  9 10  1  0
 10 11  2  0
 11 12  1  0
 12 13  2  0
 13 14  1  0
 14 15  2  0
 15 16  1  0
 16 17  2  0
 17 18  1  0
 17 19  1  0
 19 20  2  0
 20 21  1  0
 21 22  1  0
 22 23  1  0
 23 24  1  0
 24 25  1  0
 25 26  1  0
 25 27  1  0
 27 28  1  0
 28 29  1  0
 29 30  1  0
 30 31  1  0
 31 32  1  0
 21 33  2  0
 33 34  1  0
 34 35  2  0
 35 10  1  0
 16 11  1  0
 35 19  1  0
 32 25  1  0
  1 36  1  0
  1 37  1  0
  1 38  1  0
  2 39  1  0
  2 40  1  0
  3 41  1  0
  3 42  1  0
  4 43  1  0
  4 44  1  0
  5 45  1  0
  5 46  1  0
  7 47  1  0
  7 48  1  0
  8 49  1  0
  8 50  1  0
  9 51  1  0
 12 52  1  0
 13 53  1  0
 14 54  1  0
 15 55  1  0
 18 56  1  0
 18 57  1  0
 18 58  1  0
 20 59  1  0
 23 60  1  0
 23 61  1  0
 24 62  1  0
 24 63  1  0
 26 64  1  0
 26 65  1  0
 26 66  1  0
 27 67  1  0
 27 68  1  0
 28 69  1  0
 28 70  1  0
 29 71  1  0
 29 72  1  0
 30 73  1  0
 30 74  1  0
 31 75  1  0
 31 76  1  0
 32 77  1  0
 32 78  1  0
 33 79  1  0
 34 80  1  0
M  CHG  3   3   1  17   1  25   1
M  END
>  <UniqueID>  (8) 
8

>  <SMILES>  (8) 
CC[NH2+]CCOCCNc1c2ccccc2[n+](C)c2cc(OCC[N+]3(C)CCCCCC3)ccc12

>  <Energy>  (8) 
131.72282548962954

>  <Genealogy>  (8) 
CC[NH2+]CCOCCNc1c2ccccc2[n+](C)c2cc(OCC[N+]3(C)CCCCCC3)ccc12 (protonated)
CC[NH2+]CCOCCNc1c2ccccc2[n+](C)c2cc(OCC[N+]3(C)CCCCCC3)ccc12 (3D coordinates assigned)
CC[NH2+]CCOCCNc1c2ccccc2[n+](C)c2cc(OCC[N+]3(C)CCCCCC3)ccc12 (nonaromatic ring conformer: 131.72282548962954 kcal/mol)

>  <smiles>  (8) 
CCNCCOCCNc1c2ccccc2[n+](C)c2cc(OCC[N+]3(C)CCCCCC3)ccc12

>  <score_type>  (8) 
oracle

>  <origin>  (8) 
adg

>  <m_score__min__energy>  (8) 
-6.7800000000000002

>  <m_primary>  (8) 
energy

$$$$
8:0
     RDKit          3D

 85 89  0  0  0  0  0  0  0  0999 V2000
   -0.9210   22.2350  -26.5520 C   0  0  0  0  0  0  0  0  0  0  0  0
   -0.4110   20.9120  -27.1180 C   0  0  0  0  0  0  0  0  0  0  0  0
   -1.5480   20.0720  -27.5600 N   0  0  0  0  0  0  0  0  0  0  0  0
   -1.7060   18.8500  -26.7270 C   0  0  0  0  0  0  0  0  0  0  0  0
   -3.0760   18.7090  -26.0460 C   0  0  0  0  0  0  0  0  0  0  0  0
   -2.7900   20.8620  -27.7340 C   0  0  0  0  0  0  0  0  0  0  0  0
   -3.1500   21.0390  -29.2190 C   0  0  0  0  0  0  0  0  0  0  0  0
   -2.1710   21.9790  -29.9330 C   0  0  0  0  0  0  0  0  0  0  0  0
   -2.6870   22.4070  -31.2340 N   0  0  0  0  0  0  0  0  0  0  0  0
   -4.0900   22.3020  -31.5210 C   0  0  0  0  0  0  0  0  0  0  0  0
   -4.9580   23.2920  -31.0240 C   0  0  0  0  0  0  0  0  0  0  0  0
   -4.4510   24.4770  -30.4480 C   0  0  0  0  0  0  0  0  0  0  0  0
   -5.3140   25.4480  -29.9410 C   0  0  0  0  0  0  0  0  0  0  0  0
   -6.6890   25.2480  -29.9830 C   0  0  0  0  0  0  0  0  0  0  0  0
   -7.2100   24.0810  -30.5400 C   0  0  0  0  0  0  0  0  0  0  0  0
   -6.3590   23.0860  -31.0870 C   0  0  0  0  0  0  0  0  0  0  0  0
   -6.8610   21.9140  -31.6150 N   0  0  0  0  0  0  0  0  0  0  0  0
   -8.2980   21.8220  -31.9530 C   0  0  0  0  0  0  0  0  0  0  0  0
   -6.0060   20.8670  -31.9170 C   0  0  0  0  0  0  0  0  0  0  0  0
   -6.4570   19.5260  -32.0120 C   0  0  0  0  0  0  0  0  0  0  0  0
   -7.6060   19.2300  -31.5750 O   0  0  0  0  0  0  0  0  0  0  0  0
   -5.6400   18.5270  -32.4910 N   0  0  0  0  0  0  0  0  0  0  0  0
   -6.1960   17.1550  -32.5820 C   0  0  0  0  0  0  0  0  0  0  0  0
   -6.2280   16.6880  -34.0450 C   0  0  0  0  0  0  0  0  0  0  0  0
   -6.2080   15.1560  -34.1630 C   0  0  0  0  0  0  0  0  0  0  0  0
   -4.8410   14.6040  -34.0100 N   0  0  0  0  0  0  0  0  0  0  0  0
   -4.3890   14.6130  -32.5950 C   0  0  0  0  0  0  0  0  0  0  0  0
   -2.9930   13.9990  -32.3580 C   0  0  0  0  0  0  0  0  0  0  0  0
   -1.8010   14.7750  -32.9760 C   0  0  0  0  0  0  0  0  0  0  0  0
   -1.4690   14.4310  -34.4360 C   0  0  0  0  0  0  0  0  0  0  0  0
   -2.7030   14.2770  -35.3480 C   0  0  0  0  0  0  0  0  0  0  0  0
   -3.9030   15.1790  -35.0020 C   0  0  0  0  0  0  0  0  0  0  0  0
   -4.3410   18.8080  -32.8660 C   0  0  0  0  0  0  0  0  0  0  0  0
   -3.4760   17.8090  -33.3860 C   0  0  0  0  0  0  0  0  0  0  0  0
   -2.2090   18.1320  -33.8660 C   0  0  0  0  0  0  0  0  0  0  0  0
   -1.7750   19.4500  -33.8610 C   0  0  0  0  0  0  0  0  0  0  0  0
   -0.2200   19.8680  -34.5610 Cl  0  0  0  0  0  0  0  0  0  0  0  0
   -2.5810   20.4420  -33.3070 C   0  0  0  0  0  0  0  0  0  0  0  0
   -3.8320   20.1280  -32.7230 C   0  0  0  0  0  0  0  0  0  0  0  0
   -4.6260   21.1100  -32.0740 C   0  0  0  0  0  0  0  0  0  0  0  0
   -0.9052   22.1940  -25.4529 H   0  0  0  0  0  0  0  0  0  0  0  0
   -0.2746   23.0552  -26.8977 H   0  0  0  0  0  0  0  0  0  0  0  0
   -1.9507   22.4091  -26.8977 H   0  0  0  0  0  0  0  0  0  0  0  0
    0.2469   21.1136  -27.9762 H   0  0  0  0  0  0  0  0  0  0  0  0
    0.1464   20.3777  -26.3345 H   0  0  0  0  0  0  0  0  0  0  0  0
   -1.5528   17.9730  -27.3730 H   0  0  0  0  0  0  0  0  0  0  0  0
   -0.9641   18.9275  -25.9186 H   0  0  0  0  0  0  0  0  0  0  0  0
   -2.9457   18.7224  -24.9538 H   0  0  0  0  0  0  0  0  0  0  0  0
   -3.7235   19.5452  -26.3483 H   0  0  0  0  0  0  0  0  0  0  0  0
   -3.5396   17.7584  -26.3483 H   0  0  0  0  0  0  0  0  0  0  0  0
   -3.6164   20.3429  -27.2265 H   0  0  0  0  0  0  0  0  0  0  0  0
   -2.6248   21.8594  -27.3006 H   0  0  0  0  0  0  0  0  0  0  0  0
   -3.1234   20.0559  -29.7117 H   0  0  0  0  0  0  0  0  0  0  0  0
   -4.1549   21.4827  -29.2772 H   0  0  0  0  0  0  0  0  0  0  0  0
   -2.0060   22.8668  -29.3048 H   0  0  0  0  0  0  0  0  0  0  0  0
   -1.2297   21.4344  -30.0984 H   0  0  0  0  0  0  0  0  0  0  0  0
   -2.0840   22.9600  -31.8840 H   0  0  0  0  0  0  0  0  0  0  0  0
   -3.3637   24.6361  -30.3986 H   0  0  0  0  0  0  0  0  0  0  0  0
   -4.9063   26.3731  -29.5074 H   0  0  0  0  0  0  0  0  0  0  0  0
   -7.3674   26.0122  -29.5759 H   0  0  0  0  0  0  0  0  0  0  0  0
   -8.2993   23.9290  -30.5557 H   0  0  0  0  0  0  0  0  0  0  0  0
   -8.8907   21.7841  -31.0271 H   0  0  0  0  0  0  0  0  0  0  0  0
   -8.5934   22.7031  -32.5416 H   0  0  0  0  0  0  0  0  0  0  0  0
   -8.4786   20.9105  -32.5416 H   0  0  0  0  0  0  0  0  0  0  0  0
   -5.5668   16.4690  -31.9959 H   0  0  0  0  0  0  0  0  0  0  0  0
   -7.2219   17.1579  -32.1851 H   0  0  0  0  0  0  0  0  0  0  0  0
   -7.1450   17.0684  -34.5188 H   0  0  0  0  0  0  0  0  0  0  0  0
   -5.3292   17.0781  -34.5450 H   0  0  0  0  0  0  0  0  0  0  0  0
   -6.8521   14.7312  -33.3790 H   0  0  0  0  0  0  0  0  0  0  0  0
   -6.5717   14.8882  -35.1660 H   0  0  0  0  0  0  0  0  0  0  0  0
   -4.3669   15.6571  -32.2494 H   0  0  0  0  0  0  0  0  0  0  0  0
   -5.1015   13.9867  -32.0382 H   0  0  0  0  0  0  0  0  0  0  0  0
   -2.8303   13.9396  -31.2717 H   0  0  0  0  0  0  0  0  0  0  0  0
   -3.0069   13.0215  -32.8622 H   0  0  0  0  0  0  0  0  0  0  0  0
   -2.0342   15.8488  -32.9262 H   0  0  0  0  0  0  0  0  0  0  0  0
   -0.9167   14.4836  -32.3902 H   0  0  0  0  0  0  0  0  0  0  0  0
   -0.8371   15.2337  -34.8440 H   0  0  0  0  0  0  0  0  0  0  0  0
   -0.9634   13.4542  -34.4224 H   0  0  0  0  0  0  0  0  0  0  0  0
   -2.3932   14.5063  -36.3782 H   0  0  0  0  0  0  0  0  0  0  0  0
   -3.0532   13.2436  -35.2086 H   0  0  0  0  0  0  0  0  0  0  0  0
   -3.5153   16.1261  -34.5987 H   0  0  0  0  0  0  0  0  0  0  0  0
   -4.4745   15.3082  -35.9330 H   0  0  0  0  0  0  0  0  0  0  0  0
   -3.8124   16.7620  -33.4101 H   0  0  0  0  0  0  0  0  0  0  0  0
   -1.5501   17.3395  -34.2504 H   0  0  0  0  0  0  0  0  0  0  0  0
   -2.2396   21.4875  -33.3236 H   0  0  0  0  0  0  0  0  0  0  0  0
  1  2  1  0
  2  3  1  0
  3  4  1  0
  4  5  1  0
  3  6  1  0
  6  7  1  0
  7  8  1  0
  8  9  1  0
  9 10  1  0
 10 11  2  0
 11 12  1  0
 12 13  2  0
 13 14  1  0
 14 15  2  0
 15 16  1  0
 16 17  2  0
 17 18  1  0
 17 19  1  0
 19 20  1  0
 20 21  2  0
 20 22  1  0
 22 23  1  0
 23 24  1  0
 24 25  1  0
 25 26  1  0
 26 27  1  0
 27 28  1  0
 28 29  1  0
 29 30  1  0
 30 31  1  0
 31 32  1  0
 22 33  1  0
 33 34  2  0
 34 35  1  0
 35 36  2  0
 36 37  1  0
 36 38  1  0
 38 39  2  0
 39 40  1  0
 40 10  1  0
 16 11  1  0
 40 19  2  0
 32 26  1  0
 39 33  1  0
  1 41  1  0
  1 42  1  0
  1 43  1  0
  2 44  1  0
  2 45  1  0
  4 46  1  0
  4 47  1  0
  5 48  1  0
  5 49  1  0
  5 50  1  0
  6 51  1  0
  6 52  1  0
  7 53  1  0
  7 54  1  0
  8 55  1  0
  8 56  1  0
  9 57  1  0
 12 58  1  0
 13 59  1  0
 14 60  1  0
 15 61  1  0
 18 62  1  0
 18 63  1  0
 18 64  1  0
 23 65  1  0
 23 66  1  0
 24 67  1  0
 24 68  1  0
 25 69  1  0
 25 70  1  0
 27 71  1  0
 27 72  1  0
 28 73  1  0
 28 74  1  0
 29 75  1  0
 29 76  1  0
 30 77  1  0
 30 78  1  0
 31 79  1  0
 31 80  1  0
 32 81  1  0
 32 82  1  0
 34 83  1  0
 35 84  1  0
 38 85  1  0
M  CHG  1  17   1
M  END
>  <UniqueID>  (9) 
9

>  <SMILES>  (9) 
CCN(CC)CCCNc1c2ccccc2[n+](C)c2c(=O)n(CCCN3CCCCCC3)c3ccc(Cl)cc3c12

>  <Energy>  (9) 
151.07351023944247

>  <Genealogy>  (9) 
CCN(CC)CCCNc1c2ccccc2[n+](C)c2c(=O)n(CCCN3CCCCCC3)c3ccc(Cl)cc3c12 (3D coordinates assigned)
CCN(CC)CCCNc1c2ccccc2[n+](C)c2c(=O)n(CCCN3CCCCCC3)c3ccc(Cl)cc3c12 (nonaromatic ring conformer: 151.07351023944247 kcal/mol)

>  <smiles>  (9) 
CCN(CC)CCCNc1c2ccccc2[n+](C)c2c(=O)n(CCCN3CCCCCC3)c3ccc(Cl)cc3c12

>  <score_type>  (9) 
oracle

>  <origin>  (9) 
adg

>  <m_score__min__energy>  (9) 
-7.4500000000000002

>  <m_primary>  (9) 
energy

$$$$
9:0
     RDKit          3D

 47 48  0  0  0  0  0  0  0  0999 V2000
   -0.8710   23.4190  -28.9380 C   0  0  0  0  0  0  0  0  0  0  0  0
   -1.1210   24.9180  -28.9740 C   0  0  0  0  0  0  0  0  0  0  0  0
   -2.4660   25.1570  -29.3330 O   0  0  0  0  0  0  0  0  0  0  0  0
   -3.3440   24.5020  -28.4360 C   0  0  0  0  0  0  0  0  0  0  0  0
   -4.4140   23.7320  -29.2170 C   0  0  0  0  0  0  0  0  0  0  0  0
   -4.8110   24.4830  -30.5000 C   0  0  0  0  0  0  0  0  0  0  0  0
   -4.9970   23.5810  -31.6470 N   0  0  0  0  0  0  0  0  0  0  0  0
   -6.2810   23.7940  -32.3260 C   0  0  0  0  0  0  0  0  0  0  0  0
   -7.1830   22.6140  -32.0650 C   0  0  0  0  0  0  0  0  0  0  0  0
   -8.5080   22.8570  -31.6640 C   0  0  0  0  0  0  0  0  0  0  0  0
   -9.4150   21.8040  -31.5350 C   0  0  0  0  0  0  0  0  0  0  0  0
   -9.0200   20.5000  -31.8330 C   0  0  0  0  0  0  0  0  0  0  0  0
   -7.7090   20.2380  -32.2390 C   0  0  0  0  0  0  0  0  0  0  0  0
   -7.2310   18.4420  -32.7000 Br  0  0  0  0  0  0  0  0  0  0  0  0
   -6.7740   21.2840  -32.3260 C   0  0  0  0  0  0  0  0  0  0  0  0
   -5.4520   20.9960  -32.6860 O   0  0  0  0  0  0  0  0  0  0  0  0
   -4.5280   20.3950  -31.7770 C   0  0  0  0  0  0  0  0  0  0  0  0
   -3.1130   20.6420  -32.2210 C   0  0  0  0  0  0  0  0  0  0  0  0
   -2.1790   21.1990  -31.3350 C   0  0  0  0  0  0  0  0  0  0  0  0
   -0.8760   21.4710  -31.7640 C   0  0  0  0  0  0  0  0  0  0  0  0
   -0.5020   21.1970  -33.0830 C   0  0  0  0  0  0  0  0  0  0  0  0
    0.7610   21.4660  -33.4980 F   0  0  0  0  0  0  0  0  0  0  0  0
   -1.4300   20.6520  -33.9740 C   0  0  0  0  0  0  0  0  0  0  0  0
   -2.7330   20.3780  -33.5470 C   0  0  0  0  0  0  0  0  0  0  0  0
   -0.8147   23.0817  -27.8925 H   0  0  0  0  0  0  0  0  0  0  0  0
   -1.6946   22.8976  -29.4477 H   0  0  0  0  0  0  0  0  0  0  0  0
    0.0772   23.1931  -29.4477 H   0  0  0  0  0  0  0  0  0  0  0  0
   -0.9236   25.3477  -27.9808 H   0  0  0  0  0  0  0  0  0  0  0  0
   -0.4532   25.3860  -29.7122 H   0  0  0  0  0  0  0  0  0  0  0  0
   -2.7709   23.7989  -27.8137 H   0  0  0  0  0  0  0  0  0  0  0  0
   -3.8334   25.2524  -27.7977 H   0  0  0  0  0  0  0  0  0  0  0  0
   -4.0183   22.7421  -29.4880 H   0  0  0  0  0  0  0  0  0  0  0  0
   -5.3059   23.6310  -28.5811 H   0  0  0  0  0  0  0  0  0  0  0  0
   -5.7536   25.0197  -30.3170 H   0  0  0  0  0  0  0  0  0  0  0  0
   -3.9928   25.1749  -30.7486 H   0  0  0  0  0  0  0  0  0  0  0  0
   -4.9430   22.5870  -31.3220 H   0  0  0  0  0  0  0  0  0  0  0  0
   -6.7531   24.7099  -31.9410 H   0  0  0  0  0  0  0  0  0  0  0  0
   -6.1134   23.8982  -33.4082 H   0  0  0  0  0  0  0  0  0  0  0  0
   -8.8330   23.8859  -31.4500 H   0  0  0  0  0  0  0  0  0  0  0  0
  -10.4430   22.0029  -31.1978 H   0  0  0  0  0  0  0  0  0  0  0  0
   -9.7429   19.6752  -31.7481 H   0  0  0  0  0  0  0  0  0  0  0  0
   -4.6733   20.8265  -30.7757 H   0  0  0  0  0  0  0  0  0  0  0  0
   -4.7082   19.3101  -31.7534 H   0  0  0  0  0  0  0  0  0  0  0  0
   -2.4726   21.4227  -30.2988 H   0  0  0  0  0  0  0  0  0  0  0  0
   -0.1450   21.9007  -31.0633 H   0  0  0  0  0  0  0  0  0  0  0  0
   -1.1354   20.4383  -35.0121 H   0  0  0  0  0  0  0  0  0  0  0  0
   -3.4631   19.9541  -34.2522 H   0  0  0  0  0  0  0  0  0  0  0  0
  1  2  1  0
  2  3  1  0
  3  4  1  0
  4  5  1  0
  5  6  1  0
  6  7  1  0
  7  8  1  0
  8  9  1  0
  9 10  2  0
 10 11  1  0
 11 12  2  0
 12 13  1  0
 13 14  1  0
 13 15  2  0
 15 16  1  0
 16 17  1  0
 17 18  1  0
 18 19  2  0
 19 20  1  0
 20 21  2  0
 21 22  1  0
 21 23  1  0
 23 24  2  0
 15  9  1  0
 24 18  1  0
  1 25  1  0
  1 26  1  0
  1 27  1  0
  2 28  1  0
  2 29  1  0
  4 30  1  0
  4 31  1  0
  5 32  1  0
  5 33  1  0
  6 34  1  0
  6 35  1  0
  7 36  1  0
  8 37  1  0
  8 38  1  0
 10 39  1  0
 11 40  1  0
 12 41  1  0
 17 42  1  0
 17 43  1  0
 19 44  1  0
 20 45  1  0
 23 46  1  0
 24 47  1  0
M  END
>  <UniqueID>  (10) 
10

>  <SMILES>  (10) 
CCOCCCNCc1cccc(Br)c1OCc1ccc(F)cc1

>  <Energy>  (10) 
48.61919858063125

>  <Genealogy>  (10) 
CCOCCCNCc1cccc(Br)c1OCc1ccc(F)cc1 (3D coordinates assigned)
CCOCCCNCc1cccc(Br)c1OCc1ccc(F)cc1 (optimized conformer: 48.61919858063125 kcal/mol)

>  <smiles>  (10) 
CCOCCCNCc1cccc(Br)c1OCc1ccc(F)cc1

>  <score_type>  (10) 
oracle

>  <origin>  (10) 
adg

>  <m_score__min__energy>  (10) 
-8.2699999999999996

>  <m_primary>  (10) 
energy

$$$$
10:0
     RDKit          3D

 56 57  0  0  0  0  0  0  0  0999 V2000
   -6.7960   23.8920  -30.1170 C   0  0  0  0  0  0  0  0  0  0  0  0
   -6.3130   24.1710  -31.5350 C   0  0  0  0  0  0  0  0  0  0  0  0
   -4.9890   23.6760  -31.7200 O   0  0  0  0  0  0  0  0  0  0  0  0
   -3.9340   23.9430  -30.8380 C   0  0  0  0  0  0  0  0  0  0  0  0
   -3.7050   25.1290  -30.4690 O   0  0  0  0  0  0  0  0  0  0  0  0
   -3.0910   22.8010  -30.2790 C   0  0  1  0  0  0  0  0  0  0  0  0
   -2.2970   23.3310  -29.0430 C   0  0  0  0  0  0  0  0  0  0  0  0
   -1.0780   24.2250  -29.3600 C   0  0  0  0  0  0  0  0  0  0  0  0
   -1.3830   25.5930  -29.1580 O   0  0  0  0  0  0  0  0  0  0  0  0
   -1.2200   25.9430  -27.8010 C   0  0  0  0  0  0  0  0  0  0  0  0
   -3.9840   21.5970  -29.8710 C   0  0  0  0  0  0  0  0  0  0  0  0
   -4.6720   20.8880  -31.0660 C   0  0  0  0  0  0  0  0  0  0  0  0
   -4.0320   21.1700  -32.3730 N   0  0  2  0  0  0  0  0  0  0  0  0
   -4.5200   20.2740  -33.4530 C   0  0  0  0  0  0  0  0  0  0  0  0
   -5.7060   19.4080  -33.0720 C   0  0  0  0  0  0  0  0  0  0  0  0
   -5.7230   18.0230  -32.9330 C   0  0  0  0  0  0  0  0  0  0  0  0
   -4.5500   17.0970  -33.0250 C   0  0  0  0  0  0  0  0  0  0  0  0
   -6.9410   17.6210  -32.5220 N   0  0  0  0  0  0  0  0  0  0  0  0
   -7.7040   18.6950  -32.4090 N   0  0  0  0  0  0  0  0  0  0  0  0
   -9.0840   18.6490  -31.9380 C   0  0  0  0  0  0  0  0  0  0  0  0
   -6.9850   19.8020  -32.6950 C   0  0  0  0  0  0  0  0  0  0  0  0
   -7.5070   21.2050  -32.5720 C   0  0  0  0  0  0  0  0  0  0  0  0
   -2.5620   21.1690  -32.2550 C   0  0  0  0  0  0  0  0  0  0  0  0
   -2.0590   22.3200  -31.3530 C   0  0  0  0  0  0  0  0  0  0  0  0
   -6.0765   24.3076  -29.3961 H   0  0  0  0  0  0  0  0  0  0  0  0
   -7.7793   24.3612  -29.9656 H   0  0  0  0  0  0  0  0  0  0  0  0
   -6.8808   22.8058  -29.9656 H   0  0  0  0  0  0  0  0  0  0  0  0
   -6.9870   23.6770  -32.2504 H   0  0  0  0  0  0  0  0  0  0  0  0
   -6.3120   25.2582  -31.7021 H   0  0  0  0  0  0  0  0  0  0  0  0
   -2.9913   23.9151  -28.4211 H   0  0  0  0  0  0  0  0  0  0  0  0
   -1.8913   22.4388  -28.5436 H   0  0  0  0  0  0  0  0  0  0  0  0
   -0.2438   23.9418  -28.7013 H   0  0  0  0  0  0  0  0  0  0  0  0
   -0.8035   24.0803  -30.4153 H   0  0  0  0  0  0  0  0  0  0  0  0
   -1.5988   25.1297  -27.1645 H   0  0  0  0  0  0  0  0  0  0  0  0
   -0.1529   26.1069  -27.5902 H   0  0  0  0  0  0  0  0  0  0  0  0
   -1.7813   26.8653  -27.5902 H   0  0  0  0  0  0  0  0  0  0  0  0
   -3.3550   20.8615  -29.3481 H   0  0  0  0  0  0  0  0  0  0  0  0
   -4.7864   21.9976  -29.2341 H   0  0  0  0  0  0  0  0  0  0  0  0
   -4.6409   19.8025  -30.8908 H   0  0  0  0  0  0  0  0  0  0  0  0
   -5.7005   21.2742  -31.1209 H   0  0  0  0  0  0  0  0  0  0  0  0
   -4.3220   22.1310  -32.6730 H   0  0  0  0  0  0  0  0  0  0  0  0
   -4.8132   20.8985  -34.3098 H   0  0  0  0  0  0  0  0  0  0  0  0
   -3.6935   19.5851  -33.6817 H   0  0  0  0  0  0  0  0  0  0  0  0
   -4.2127   16.8308  -32.0124 H   0  0  0  0  0  0  0  0  0  0  0  0
   -4.8443   16.1850  -33.5651 H   0  0  0  0  0  0  0  0  0  0  0  0
   -3.7312   17.5949  -33.5651 H   0  0  0  0  0  0  0  0  0  0  0  0
   -9.0962   18.6486  -30.8381 H   0  0  0  0  0  0  0  0  0  0  0  0
   -9.6281   19.5295  -32.3104 H   0  0  0  0  0  0  0  0  0  0  0  0
   -9.5682   17.7342  -32.3104 H   0  0  0  0  0  0  0  0  0  0  0  0
   -7.6048   21.4679  -31.5084 H   0  0  0  0  0  0  0  0  0  0  0  0
   -6.8075   21.9005  -33.0588 H   0  0  0  0  0  0  0  0  0  0  0  0
   -8.4910   21.2741  -33.0588 H   0  0  0  0  0  0  0  0  0  0  0  0
   -2.2399   20.2104  -31.8222 H   0  0  0  0  0  0  0  0  0  0  0  0
   -2.1376   21.3108  -33.2599 H   0  0  0  0  0  0  0  0  0  0  0  0
   -1.1540   21.9766  -30.8304 H   0  0  0  0  0  0  0  0  0  0  0  0
   -1.8735   23.1784  -32.0153 H   0  0  0  0  0  0  0  0  0  0  0  0
  1  2  1  0
  2  3  1  0
  3  4  1  0
  4  5  2  0
  4  6  1  0
  6  7  1  1
  7  8  1  0
  8  9  1  0
  9 10  1  0
  6 11  1  0
 11 12  1  0
 12 13  1  0
 13 14  1  0
 14 15  1  0
 15 16  1  0
 16 17  1  0
 16 18  2  0
 18 19  1  0
 19 20  1  0
 19 21  1  0
 21 22  1  0
 13 23  1  0
 23 24  1  0
 24  6  1  0
 21 15  2  0
  1 25  1  0
  1 26  1  0
  1 27  1  0
  2 28  1  0
  2 29  1  0
  7 30  1  0
  7 31  1  0
  8 32  1  0
  8 33  1  0
 10 34  1  0
 10 35  1  0
 10 36  1  0
 11 37  1  0
 11 38  1  0
 12 39  1  0
 12 40  1  0
 13 41  1  6
 14 42  1  0
 14 43  1  0
 17 44  1  0
 17 45  1  0
 17 46  1  0
 20 47  1  0
 20 48  1  0
 20 49  1  0
 22 50  1  0
 22 51  1  0
 22 52  1  0
 23 53  1  0
 23 54  1  0
 24 55  1  0
 24 56  1  0
M  CHG  1  13   1
M  END
>  <UniqueID>  (11) 
11

>  <SMILES>  (11) 
CCOC(=O)C1(CCOC)CC[NH+](Cc2c(C)nn(C)c2C)CC1

>  <Energy>  (11) 
93.46593931981992

>  <Genealogy>  (11) 
CCOC(=O)C1(CCOC)CC[NH+](Cc2c(C)nn(C)c2C)CC1 (protonated)
CCOC(=O)C1(CCOC)CC[NH+](Cc2c(C)nn(C)c2C)CC1 (3D coordinates assigned)
CCOC(=O)C1(CCOC)CC[NH+](Cc2c(C)nn(C)c2C)CC1 (nonaromatic ring conformer: 93.46593931981992 kcal/mol)

>  <smiles>  (11) 
CCOC(=O)C1(CCOC)CCN(Cc2c(C)nn(C)c2C)CC1

>  <score_type>  (11) 
oracle

>  <origin>  (11) 
adg

>  <m_score__min__energy>  (11) 
-7.2999999999999998

>  <m_primary>  (11) 
energy

$$$$
11:0
     RDKit          3D

 66 68  0  0  0  0  0  0  0  0999 V2000
    2.8650   26.0590  -23.7330 C   0  0  0  0  0  0  0  0  0  0  0  0
    1.4440   26.3260  -24.2470 C   0  0  0  0  0  0  0  0  0  0  0  0
    0.6380   25.0830  -24.3860 N   0  0  0  0  0  0  0  0  0  0  0  0
   -0.8350   25.3180  -24.3900 C   0  0  0  0  0  0  0  0  0  0  0  0
   -1.2560   26.8000  -24.4200 C   0  0  0  0  0  0  0  0  0  0  0  0
    1.0740   24.2960  -25.5750 C   0  0  0  0  0  0  0  0  0  0  0  0
   -0.0540   24.1430  -26.6130 C   0  0  0  0  0  0  0  0  0  0  0  0
    0.2400   24.8810  -27.7850 O   0  0  0  0  0  0  0  0  0  0  0  0
   -0.8680   25.6550  -28.2060 C   0  0  0  0  0  0  0  0  0  0  0  0
   -2.1510   24.8150  -28.2360 C   0  0  0  0  0  0  0  0  0  0  0  0
   -2.8840   25.0470  -29.4230 O   0  0  0  0  0  0  0  0  0  0  0  0
   -3.3490   23.8370  -29.9930 C   0  0  0  0  0  0  0  0  0  0  0  0
   -4.8700   23.8610  -30.1610 C   0  0  0  0  0  0  0  0  0  0  0  0
   -5.2410   23.6120  -31.5530 N   0  0  0  0  0  0  0  0  0  0  0  0
   -5.5760   22.2880  -32.0130 C   0  0  0  0  0  0  0  0  0  0  0  0
   -6.9100   21.8460  -31.9830 C   0  0  0  0  0  0  0  0  0  0  0  0
   -7.9540   22.7170  -31.6050 C   0  0  0  0  0  0  0  0  0  0  0  0
   -9.2780   22.2850  -31.6040 C   0  0  0  0  0  0  0  0  0  0  0  0
   -9.5880   20.9900  -32.0000 C   0  0  0  0  0  0  0  0  0  0  0  0
   -8.5750   20.1140  -32.3900 C   0  0  0  0  0  0  0  0  0  0  0  0
   -7.2130   20.5110  -32.3700 C   0  0  0  0  0  0  0  0  0  0  0  0
   -6.1980   19.6470  -32.7330 N   0  0  0  0  0  0  0  0  0  0  0  0
   -6.4700   18.1960  -32.8540 C   0  0  0  0  0  0  0  0  0  0  0  0
   -4.9230   20.1340  -32.9600 C   0  0  0  0  0  0  0  0  0  0  0  0
   -3.9310   19.3520  -33.6050 C   0  0  0  0  0  0  0  0  0  0  0  0
   -2.6170   19.8190  -33.7690 C   0  0  0  0  0  0  0  0  0  0  0  0
   -1.6260   19.0000  -34.4190 N   0  0  0  0  0  0  0  0  0  0  0  0
   -1.7240   17.7550  -34.4110 O   0  0  0  0  0  0  0  0  0  0  0  0
   -0.5560   19.5760  -35.0670 O   0  0  0  0  0  0  0  0  0  0  0  0
   -2.2880   21.0940  -33.2940 C   0  0  0  0  0  0  0  0  0  0  0  0
   -3.2550   21.9010  -32.7030 C   0  0  0  0  0  0  0  0  0  0  0  0
   -4.5830   21.4520  -32.5570 C   0  0  0  0  0  0  0  0  0  0  0  0
    2.8631   26.0594  -22.6330 H   0  0  0  0  0  0  0  0  0  0  0  0
    3.2094   25.0804  -24.0988 H   0  0  0  0  0  0  0  0  0  0  0  0
    3.5411   26.8458  -24.0988 H   0  0  0  0  0  0  0  0  0  0  0  0
    0.9350   26.9977  -23.5401 H   0  0  0  0  0  0  0  0  0  0  0  0
    1.5326   26.7767  -25.2465 H   0  0  0  0  0  0  0  0  0  0  0  0
    0.8430   24.5110  -23.5310 H   0  0  0  0  0  0  0  0  0  0  0  0
   -1.2572   24.8249  -25.2780 H   0  0  0  0  0  0  0  0  0  0  0  0
   -1.2150   24.9087  -23.4424 H   0  0  0  0  0  0  0  0  0  0  0  0
   -1.3617   27.1721  -23.3902 H   0  0  0  0  0  0  0  0  0  0  0  0
   -0.4895   27.3884  -24.9456 H   0  0  0  0  0  0  0  0  0  0  0  0
   -2.2174   26.8975  -24.9456 H   0  0  0  0  0  0  0  0  0  0  0  0
    1.9242   24.8093  -26.0480 H   0  0  0  0  0  0  0  0  0  0  0  0
    1.3568   23.2902  -25.2308 H   0  0  0  0  0  0  0  0  0  0  0  0
   -0.1629   23.0799  -26.8737 H   0  0  0  0  0  0  0  0  0  0  0  0
   -0.9886   24.5274  -26.1785 H   0  0  0  0  0  0  0  0  0  0  0  0
   -1.0049   26.4947  -27.5088 H   0  0  0  0  0  0  0  0  0  0  0  0
   -0.6691   26.0242  -29.2229 H   0  0  0  0  0  0  0  0  0  0  0  0
   -1.8840   23.7493  -28.1812 H   0  0  0  0  0  0  0  0  0  0  0  0
   -2.7763   25.1017  -27.3776 H   0  0  0  0  0  0  0  0  0  0  0  0
   -2.8800   23.6996  -30.9785 H   0  0  0  0  0  0  0  0  0  0  0  0
   -3.0828   23.0073  -29.3216 H   0  0  0  0  0  0  0  0  0  0  0  0
   -5.3158   23.0829  -29.5239 H   0  0  0  0  0  0  0  0  0  0  0  0
   -5.2421   24.8539  -29.8684 H   0  0  0  0  0  0  0  0  0  0  0  0
   -5.0370   24.3560  -32.2590 H   0  0  0  0  0  0  0  0  0  0  0  0
   -7.7192   23.7497  -31.3075 H   0  0  0  0  0  0  0  0  0  0  0  0
  -10.0792   22.9699  -31.2893 H   0  0  0  0  0  0  0  0  0  0  0  0
  -10.6355   20.6544  -32.0060 H   0  0  0  0  0  0  0  0  0  0  0  0
   -8.8367   19.0975  -32.7189 H   0  0  0  0  0  0  0  0  0  0  0  0
   -6.5529   17.7536  -31.8503 H   0  0  0  0  0  0  0  0  0  0  0  0
   -7.4123   18.0439  -33.4008 H   0  0  0  0  0  0  0  0  0  0  0  0
   -5.6468   17.7130  -33.4008 H   0  0  0  0  0  0  0  0  0  0  0  0
   -4.1976   18.3552  -33.9861 H   0  0  0  0  0  0  0  0  0  0  0  0
   -1.2555   21.4612  -33.3889 H   0  0  0  0  0  0  0  0  0  0  0  0
   -2.9792   22.9037  -32.3446 H   0  0  0  0  0  0  0  0  0  0  0  0
  1  2  1  0
  2  3  1  0
  3  4  1  0
  4  5  1  0
  3  6  1  0
  6  7  1  0
  7  8  1  0
  8  9  1  0
  9 10  1  0
 10 11  1  0
 11 12  1  0
 12 13  1  0
 13 14  1  0
 14 15  1  0
 15 16  2  0
 16 17  1  0
 17 18  2  0
 18 19  1  0
 19 20  2  0
 20 21  1  0
 21 22  2  0
 22 23  1  0
 22 24  1  0
 24 25  2  0
 25 26  1  0
 26 27  1  0
 27 28  2  0
 27 29  1  0
 26 30  2  0
 30 31  1  0
 31 32  2  0
 32 15  1  0
 21 16  1  0
 32 24  1  0
  1 33  1  0
  1 34  1  0
  1 35  1  0
  2 36  1  0
  2 37  1  0
  3 38  1  0
  4 39  1  0
  4 40  1  0
  5 41  1  0
  5 42  1  0
  5 43  1  0
  6 44  1  0
  6 45  1  0
  7 46  1  0
  7 47  1  0
  9 48  1  0
  9 49  1  0
 10 50  1  0
 10 51  1  0
 12 52  1  0
 12 53  1  0
 13 54  1  0
 13 55  1  0
 14 56  1  0
 17 57  1  0
 18 58  1  0
 19 59  1  0
 20 60  1  0
 23 61  1  0
 23 62  1  0
 23 63  1  0
 25 64  1  0
 30 65  1  0
 31 66  1  0
M  CHG  4   3   1  22   1  27   1  29  -1
M  END
>  <UniqueID>  (12) 
12

>  <SMILES>  (12) 
CC[NH+](CC)CCOCCOCCNc1c2ccccc2[n+](C)c2cc([N+](=O)[O-])ccc12

>  <Energy>  (12) 
101.74120681640036

>  <Genealogy>  (12) 
CC[NH+](CC)CCOCCOCCNc1c2ccccc2[n+](C)c2cc([N+](=O)[O-])ccc12 (protonated)
CC[NH+](CC)CCOCCOCCNc1c2ccccc2[n+](C)c2cc([N+](=O)[O-])ccc12 (3D coordinates assigned)
CC[NH+](CC)CCOCCOCCNc1c2ccccc2[n+](C)c2cc([N+](=O)[O-])ccc12 (optimized conformer: 101.74120681640036 kcal/mol)

>  <smiles>  (12) 
CCN(CC)CCOCCOCCNc1c2ccccc2[n+](C)c2cc([N+](=O)[O-])ccc12

>  <score_type>  (12) 
oracle

>  <origin>  (12) 
adg

>  <m_score__min__energy>  (12) 
-8.6099999999999994

>  <m_primary>  (12) 
energy

$$$$
12:0
     RDKit          3D

 57 59  0  0  0  0  0  0  0  0999 V2000
   -3.0490   22.8810  -27.7030 C   0  0  0  0  0  0  0  0  0  0  0  0
   -3.8880   24.1090  -28.0700 C   0  0  0  0  0  0  0  0  0  0  0  0
   -5.0070   23.7880  -28.9980 N   0  0  0  0  0  0  0  0  0  0  0  0
   -5.3690   24.9700  -29.8410 C   0  0  0  0  0  0  0  0  0  0  0  0
   -6.8530   25.3350  -29.7200 C   0  0  0  0  0  0  0  0  0  0  0  0
   -4.6560   22.6410  -29.8790 C   0  0  0  0  0  0  0  0  0  0  0  0
   -3.9180   23.0040  -31.1920 C   0  0  0  0  0  0  0  0  0  0  0  0
   -3.5960   21.8210  -32.1180 C   0  0  0  0  0  0  0  0  0  0  0  0
   -4.6310   21.6390  -33.1380 N   0  0  0  0  0  0  0  0  0  0  0  0
   -5.7780   20.8030  -32.9070 C   0  0  0  0  0  0  0  0  0  0  0  0
   -6.9950   21.3750  -32.4960 C   0  0  0  0  0  0  0  0  0  0  0  0
   -7.1080   22.7670  -32.3000 C   0  0  0  0  0  0  0  0  0  0  0  0
   -8.3300   23.3420  -31.9600 C   0  0  0  0  0  0  0  0  0  0  0  0
   -9.4600   22.5450  -31.8240 C   0  0  0  0  0  0  0  0  0  0  0  0
   -9.3700   21.1650  -31.9970 C   0  0  0  0  0  0  0  0  0  0  0  0
   -8.1290   20.5430  -32.3000 C   0  0  0  0  0  0  0  0  0  0  0  0
   -8.0160   19.1710  -32.4230 N   0  0  0  0  0  0  0  0  0  0  0  0
   -9.1070   18.2930  -31.9420 C   0  0  0  0  0  0  0  0  0  0  0  0
   -6.8670   18.6160  -32.9580 C   0  0  0  0  0  0  0  0  0  0  0  0
   -6.8040   17.2490  -33.3340 C   0  0  0  0  0  0  0  0  0  0  0  0
   -5.6060   16.6720  -33.7920 C   0  0  0  0  0  0  0  0  0  0  0  0
   -5.5100   15.3210  -34.1580 O   0  0  0  0  0  0  0  0  0  0  0  0
   -4.9660   14.2940  -33.3340 C   0  0  0  0  0  0  0  0  0  0  0  0
   -4.4640   17.4600  -33.8880 C   0  0  0  0  0  0  0  0  0  0  0  0
   -4.5110   18.8150  -33.5780 C   0  0  0  0  0  0  0  0  0  0  0  0
   -5.7120   19.4190  -33.1530 C   0  0  0  0  0  0  0  0  0  0  0  0
   -2.9883   22.7922  -26.6083 H   0  0  0  0  0  0  0  0  0  0  0  0
   -3.5197   21.9778  -28.1186 H   0  0  0  0  0  0  0  0  0  0  0  0
   -2.0365   22.9912  -28.1186 H   0  0  0  0  0  0  0  0  0  0  0  0
   -4.3082   24.5358  -27.1474 H   0  0  0  0  0  0  0  0  0  0  0  0
   -3.2254   24.8205  -28.5845 H   0  0  0  0  0  0  0  0  0  0  0  0
   -5.8380   23.5070  -28.4260 H   0  0  0  0  0  0  0  0  0  0  0  0
   -4.7650   25.8318  -29.5208 H   0  0  0  0  0  0  0  0  0  0  0  0
   -5.1699   24.7095  -30.8910 H   0  0  0  0  0  0  0  0  0  0  0  0
   -7.1285   25.4027  -28.6572 H   0  0  0  0  0  0  0  0  0  0  0  0
   -7.0332   26.3042  -30.2080 H   0  0  0  0  0  0  0  0  0  0  0  0
   -7.4622   24.5599  -30.2080 H   0  0  0  0  0  0  0  0  0  0  0  0
   -4.0103   21.9596  -29.3056 H   0  0  0  0  0  0  0  0  0  0  0  0
   -5.6134   22.1950  -30.1865 H   0  0  0  0  0  0  0  0  0  0  0  0
   -4.5490   23.7104  -31.7514 H   0  0  0  0  0  0  0  0  0  0  0  0
   -2.9473   23.4223  -30.8874 H   0  0  0  0  0  0  0  0  0  0  0  0
   -2.6331   22.0087  -32.6157 H   0  0  0  0  0  0  0  0  0  0  0  0
   -3.5501   20.9076  -31.5068 H   0  0  0  0  0  0  0  0  0  0  0  0
   -4.4900   22.0460  -34.0900 H   0  0  0  0  0  0  0  0  0  0  0  0
   -6.2204   23.4062  -32.4171 H   0  0  0  0  0  0  0  0  0  0  0  0
   -8.4007   24.4279  -31.7990 H   0  0  0  0  0  0  0  0  0  0  0  0
  -10.4288   23.0047  -31.5790 H   0  0  0  0  0  0  0  0  0  0  0  0
  -10.2746   20.5472  -31.8973 H   0  0  0  0  0  0  0  0  0  0  0  0
   -9.1147   18.2868  -30.8420 H   0  0  0  0  0  0  0  0  0  0  0  0
  -10.0715   18.6697  -32.3133 H   0  0  0  0  0  0  0  0  0  0  0  0
   -8.9453   17.2703  -32.3133 H   0  0  0  0  0  0  0  0  0  0  0  0
   -7.7098   16.6287  -33.2659 H   0  0  0  0  0  0  0  0  0  0  0  0
   -5.1068   14.5597  -32.2759 H   0  0  0  0  0  0  0  0  0  0  0  0
   -5.4793   13.3442  -33.5449 H   0  0  0  0  0  0  0  0  0  0  0  0
   -3.8919   14.1851  -33.5449 H   0  0  0  0  0  0  0  0  0  0  0  0
   -3.5152   17.0075  -34.2120 H   0  0  0  0  0  0  0  0  0  0  0  0
   -3.5989   19.4236  -33.6656 H   0  0  0  0  0  0  0  0  0  0  0  0
  1  2  1  0
  2  3  1  0
  3  4  1  0
  4  5  1  0
  3  6  1  0
  6  7  1  0
  7  8  1  0
  8  9  1  0
  9 10  1  0
 10 11  2  0
 11 12  1  0
 12 13  2  0
 13 14  1  0
 14 15  2  0
 15 16  1  0
 16 17  2  0
 17 18  1  0
 17 19  1  0
 19 20  2  0
 20 21  1  0
 21 22  1  0
 22 23  1  0
 21 24  2  0
 24 25  1  0
 25 26  2  0
 26 10  1  0
 16 11  1  0
 26 19  1  0
  1 27  1  0
  1 28  1  0
  1 29  1  0
  2 30  1  0
  2 31  1  0
  3 32  1  0
  4 33  1  0
  4 34  1  0
  5 35  1  0
  5 36  1  0
  5 37  1  0
  6 38  1  0
  6 39  1  0
  7 40  1  0
  7 41  1  0
  8 42  1  0
  8 43  1  0
  9 44  1  0
 12 45  1  0
 13 46  1  0
 14 47  1  0
 15 48  1  0
 18 49  1  0
 18 50  1  0
 18 51  1  0
 20 52  1  0
 23 53  1  0
 23 54  1  0
 23 55  1  0
 24 56  1  0
 25 57  1  0
M  CHG  2   3   1  17   1
M  END
>  <UniqueID>  (13) 
13

>  <SMILES>  (13) 
CC[NH+](CC)CCCNc1c2ccccc2[n+](C)c2cc(OC)ccc12

>  <Energy>  (13) 
86.88510687934249

>  <Genealogy>  (13) 
CC[NH+](CC)CCCNc1c2ccccc2[n+](C)c2cc(OC)ccc12 (protonated)
CC[NH+](CC)CCCNc1c2ccccc2[n+](C)c2cc(OC)ccc12 (3D coordinates assigned)
CC[NH+](CC)CCCNc1c2ccccc2[n+](C)c2cc(OC)ccc12 (optimized conformer: 86.88510687934249 kcal/mol)

>  <smiles>  (13) 
CCN(CC)CCCNc1c2ccccc2[n+](C)c2cc(OC)ccc12

>  <score_type>  (13) 
oracle

>  <origin>  (13) 
adg

>  <m_score__min__energy>  (13) 
-7.3200000000000003

>  <m_primary>  (13) 
energy

$$$$
13:0
     RDKit          3D

 47 47  0  0  0  0  0  0  0  0999 V2000
   -3.3210   21.1540  -33.2260 C   0  0  0  0  0  0  0  0  0  0  0  0
   -4.2560   19.9470  -33.3230 C   0  0  0  0  0  0  0  0  0  0  0  0
   -5.7360   20.3430  -33.4600 C   0  0  0  0  0  0  0  0  0  0  0  0
   -6.5090   19.3320  -34.2030 N   0  0  0  0  0  0  0  0  0  0  0  0
   -6.0600   17.9560  -33.9140 C   0  0  0  0  0  0  0  0  0  0  0  0
   -7.0600   17.1160  -33.0850 C   0  0  0  0  0  0  0  0  0  0  0  0
   -7.7020   17.8410  -31.8840 C   0  0  0  0  0  0  0  0  0  0  0  0
   -9.0240   18.5580  -32.1990 C   0  0  0  0  0  0  0  0  0  0  0  0
   -8.7770   19.8420  -32.8690 N   0  0  0  0  0  0  0  0  0  0  0  0
   -9.4570   20.9320  -32.1580 C   0  0  0  0  0  0  0  0  0  0  0  0
   -8.4650   21.7010  -31.2730 C   0  0  0  0  0  0  0  0  0  0  0  0
   -7.9800   23.0200  -31.9010 C   0  0  0  0  0  0  0  0  0  0  0  0
   -6.7600   23.5660  -31.2030 C   0  0  0  0  0  0  0  0  0  0  0  0
   -5.5050   22.9670  -31.3980 C   0  0  0  0  0  0  0  0  0  0  0  0
   -4.3670   23.4980  -30.7830 C   0  0  0  0  0  0  0  0  0  0  0  0
   -4.4740   24.6280  -29.9680 C   0  0  0  0  0  0  0  0  0  0  0  0
   -5.7190   25.2340  -29.7730 C   0  0  0  0  0  0  0  0  0  0  0  0
   -6.8590   24.7070  -30.3870 C   0  0  0  0  0  0  0  0  0  0  0  0
   -3.1372   21.3913  -32.1677 H   0  0  0  0  0  0  0  0  0  0  0  0
   -2.3667   20.9193  -33.7203 H   0  0  0  0  0  0  0  0  0  0  0  0
   -3.7868   22.0193  -33.7203 H   0  0  0  0  0  0  0  0  0  0  0  0
   -3.9696   19.3515  -34.2024 H   0  0  0  0  0  0  0  0  0  0  0  0
   -4.1534   19.3753  -32.3889 H   0  0  0  0  0  0  0  0  0  0  0  0
   -6.1690   20.4537  -32.4549 H   0  0  0  0  0  0  0  0  0  0  0  0
   -5.7854   21.2888  -34.0195 H   0  0  0  0  0  0  0  0  0  0  0  0
   -6.4760   19.5270  -35.2300 H   0  0  0  0  0  0  0  0  0  0  0  0
   -7.5100   19.3910  -33.9050 H   0  0  0  0  0  0  0  0  0  0  0  0
   -5.8902   17.4417  -34.8714 H   0  0  0  0  0  0  0  0  0  0  0  0
   -5.1475   18.0457  -33.3063 H   0  0  0  0  0  0  0  0  0  0  0  0
   -7.8686   16.7919  -33.7567 H   0  0  0  0  0  0  0  0  0  0  0  0
   -6.4768   16.2860  -32.6597 H   0  0  0  0  0  0  0  0  0  0  0  0
   -7.8949   17.0965  -31.0975 H   0  0  0  0  0  0  0  0  0  0  0  0
   -6.9909   18.6216  -31.5759 H   0  0  0  0  0  0  0  0  0  0  0  0
   -9.6322   17.9196  -32.8567 H   0  0  0  0  0  0  0  0  0  0  0  0
   -9.5533   18.7506  -31.2542 H   0  0  0  0  0  0  0  0  0  0  0  0
   -9.1860   19.7940  -33.8300 H   0  0  0  0  0  0  0  0  0  0  0  0
   -9.8977   21.6229  -32.8918 H   0  0  0  0  0  0  0  0  0  0  0  0
  -10.2434   20.5030  -31.5196 H   0  0  0  0  0  0  0  0  0  0  0  0
   -8.9569   21.9306  -30.3163 H   0  0  0  0  0  0  0  0  0  0  0  0
   -7.5811   21.0592  -31.1430 H   0  0  0  0  0  0  0  0  0  0  0  0
   -7.7332   22.8400  -32.9577 H   0  0  0  0  0  0  0  0  0  0  0  0
   -8.7875   23.7601  -31.8001 H   0  0  0  0  0  0  0  0  0  0  0  0
   -5.4167   22.0762  -32.0373 H   0  0  0  0  0  0  0  0  0  0  0  0
   -3.3863   23.0256  -30.9410 H   0  0  0  0  0  0  0  0  0  0  0  0
   -3.5789   25.0408  -29.4798 H   0  0  0  0  0  0  0  0  0  0  0  0
   -5.8015   26.1267  -29.1356 H   0  0  0  0  0  0  0  0  0  0  0  0
   -7.8367   25.1864  -30.2313 H   0  0  0  0  0  0  0  0  0  0  0  0
  1  2  1  0
  2  3  1  0
  3  4  1  0
  4  5  1  0
  5  6  1  0
  6  7  1  0
  7  8  1  0
  8  9  1  0
  9 10  1  0
 10 11  1  0
 11 12  1  0
 12 13  1  0
 13 14  2  0
 14 15  1  0
 15 16  2  0
 16 17  1  0
 17 18  2  0
 18 13  1  0
  1 19  1  0
  1 20  1  0
  1 21  1  0
  2 22  1  0
  2 23  1  0
  3 24  1  0
  3 25  1  0
  4 26  1  0
  4 27  1  0
  5 28  1  0
  5 29  1  0
  6 30  1  0
  6 31  1  0
  7 32  1  0
  7 33  1  0
  8 34  1  0
  8 35  1  0
  9 36  1  0
 10 37  1  0
 10 38  1  0
 11 39  1  0
 11 40  1  0
 12 41  1  0
 12 42  1  0
 14 43  1  0
 15 44  1  0
 16 45  1  0
 17 46  1  0
 18 47  1  0
M  CHG  1   4   1
M  END
>  <UniqueID>  (14) 
14

>  <SMILES>  (14) 
CCC[NH2+]CCCCNCCCc1ccccc1

>  <Energy>  (14) 
32.07395214658587

>  <Genealogy>  (14) 
CCC[NH2+]CCCCNCCCc1ccccc1 (protonated)
CCC[NH2+]CCCCNCCCc1ccccc1 (3D coordinates assigned)
CCC[NH2+]CCCCNCCCc1ccccc1 (optimized conformer: 32.07395214658587 kcal/mol)

>  <smiles>  (14) 
CCCNCCCCNCCCc1ccccc1

>  <score_type>  (14) 
oracle

>  <origin>  (14) 
adg

>  <m_score__min__energy>  (14) 
-6.6900000000000004

>  <m_primary>  (14) 
energy

$$$$
14:0
     RDKit          3D

 98103  0  0  0  0  0  0  0  0999 V2000
   -7.6901   13.7755  -34.2712 H   0  0  0  0  0  0  0  0  0  0  0  0
   -6.7960   14.4160  -34.2530 C   0  0  0  0  0  0  0  0  0  0  0  0
   -5.5370   13.8520  -34.4010 C   0  0  0  0  0  0  0  0  0  0  0  0
   -5.4317   12.7629  -34.5143 H   0  0  0  0  0  0  0  0  0  0  0  0
   -4.4060   14.6660  -34.4060 C   0  0  0  0  0  0  0  0  0  0  0  0
   -3.4123   14.2070  -34.5153 H   0  0  0  0  0  0  0  0  0  0  0  0
   -4.5100   16.0750  -34.2730 C   0  0  0  0  0  0  0  0  0  0  0  0
   -5.7930   16.6350  -34.0490 C   0  0  0  0  0  0  0  0  0  0  0  0
   -6.9300   15.7950  -34.0810 C   0  0  0  0  0  0  0  0  0  0  0  0
   -7.9326   16.2335  -33.9690 H   0  0  0  0  0  0  0  0  0  0  0  0
   -5.9090   18.0110  -33.7770 C   0  0  0  0  0  0  0  0  0  0  0  0
   -7.1980   18.5840  -33.4770 N   0  0  0  0  0  0  0  0  0  0  0  0
   -7.9660   18.4960  -34.1800 H   0  0  0  0  0  0  0  0  0  0  0  0
   -7.5800   18.9250  -32.1010 C   0  0  0  0  0  0  0  0  0  0  0  0
   -7.6100   18.0054  -31.4981 H   0  0  0  0  0  0  0  0  0  0  0  0
   -6.8375   19.6285  -31.6963 H   0  0  0  0  0  0  0  0  0  0  0  0
   -8.9620   19.5970  -32.0610 C   0  0  0  0  0  0  0  0  0  0  0  0
   -9.5200   19.3167  -32.9666 H   0  0  0  0  0  0  0  0  0  0  0  0
   -9.4811   19.2551  -31.1535 H   0  0  0  0  0  0  0  0  0  0  0  0
   -8.8570   21.0730  -32.0010 N   0  0  0  0  0  0  0  0  0  0  0  0
   -7.4820   21.5180  -32.2880 C   0  0  0  0  0  0  0  0  0  0  0  0
   -6.9476   21.6909  -31.3422 H   0  0  0  0  0  0  0  0  0  0  0  0
   -6.9594   20.7431  -32.8680 H   0  0  0  0  0  0  0  0  0  0  0  0
   -7.5125   22.4521  -32.8680 H   0  0  0  0  0  0  0  0  0  0  0  0
   -9.2560   21.5590  -30.6670 C   0  0  0  0  0  0  0  0  0  0  0  0
   -8.7599   20.9548  -29.8931 H   0  0  0  0  0  0  0  0  0  0  0  0
   -8.9587   22.6123  -30.5564 H   0  0  0  0  0  0  0  0  0  0  0  0
  -10.3470   21.4725  -30.5564 H   0  0  0  0  0  0  0  0  0  0  0  0
   -4.7460   18.8110  -33.7360 C   0  0  0  0  0  0  0  0  0  0  0  0
   -3.4810   18.2170  -33.9500 C   0  0  0  0  0  0  0  0  0  0  0  0
   -2.3370   19.0390  -33.7380 C   0  0  0  0  0  0  0  0  0  0  0  0
   -1.1830   18.5350  -33.7110 O   0  0  0  0  0  0  0  0  0  0  0  0
   -2.4780   20.3840  -33.5200 N   0  0  0  0  0  0  0  0  0  0  0  0
   -1.3010   21.2690  -33.4440 C   0  0  0  0  0  0  0  0  0  0  0  0
   -1.5858   22.2829  -33.7617 H   0  0  0  0  0  0  0  0  0  0  0  0
   -0.5121   20.8804  -34.1048 H   0  0  0  0  0  0  0  0  0  0  0  0
   -0.7750   21.3160  -32.0010 C   0  0  0  0  0  0  0  0  0  0  0  0
   -1.4620   20.7449  -31.3592 H   0  0  0  0  0  0  0  0  0  0  0  0
   -0.7199   22.3744  -31.7064 H   0  0  0  0  0  0  0  0  0  0  0  0
    0.6350   20.7260  -31.8540 C   0  0  0  0  0  0  0  0  0  0  0  0
    1.2188   21.3787  -31.1883 H   0  0  0  0  0  0  0  0  0  0  0  0
    1.0698   20.6667  -32.8627 H   0  0  0  0  0  0  0  0  0  0  0  0
    0.6420   19.3050  -31.2720 C   0  0  0  0  0  0  0  0  0  0  0  0
    1.6456   19.0704  -30.8875 H   0  0  0  0  0  0  0  0  0  0  0  0
    0.3747   18.5837  -32.0583 H   0  0  0  0  0  0  0  0  0  0  0  0
   -0.3380   19.2230  -30.1730 N   0  0  0  0  0  0  0  0  0  0  0  0
   -1.2830   19.0660  -30.5940 H   0  0  0  0  0  0  0  0  0  0  0  0
   -0.0880   18.1040  -29.2520 C   0  0  0  0  0  0  0  0  0  0  0  0
    0.9902   18.0498  -29.0408 H   0  0  0  0  0  0  0  0  0  0  0  0
   -0.4420   17.1791  -29.7309 H   0  0  0  0  0  0  0  0  0  0  0  0
   -0.8480   18.2800  -27.9260 C   0  0  0  0  0  0  0  0  0  0  0  0
   -0.7240   17.3657  -27.3272 H   0  0  0  0  0  0  0  0  0  0  0  0
   -1.9027   18.4690  -28.1746 H   0  0  0  0  0  0  0  0  0  0  0  0
   -0.3490   19.4780  -27.1000 C   0  0  0  0  0  0  0  0  0  0  0  0
    0.5161   19.9230  -27.6133 H   0  0  0  0  0  0  0  0  0  0  0  0
   -0.0819   19.1035  -26.1008 H   0  0  0  0  0  0  0  0  0  0  0  0
   -1.4250   20.5650  -26.9160 C   0  0  0  0  0  0  0  0  0  0  0  0
   -1.7487   20.5794  -25.8648 H   0  0  0  0  0  0  0  0  0  0  0  0
   -2.2774   20.3361  -27.5726 H   0  0  0  0  0  0  0  0  0  0  0  0
   -0.8920   21.8810  -27.2740 N   0  0  0  0  0  0  0  0  0  0  0  0
   -1.3520   22.9430  -27.9000 C   0  0  0  0  0  0  0  0  0  0  0  0
   -2.4840   22.9610  -28.7870 C   0  0  0  0  0  0  0  0  0  0  0  0
   -2.9770   24.2150  -29.2150 C   0  0  0  0  0  0  0  0  0  0  0  0
   -2.3420   25.3630  -28.8820 N   0  0  0  0  0  0  0  0  0  0  0  0
   -1.2260   25.3800  -28.1220 C   0  0  0  0  0  0  0  0  0  0  0  0
   -0.6080   26.6050  -27.8400 C   0  0  0  0  0  0  0  0  0  0  0  0
   -1.0400   27.5383  -28.2304 H   0  0  0  0  0  0  0  0  0  0  0  0
    0.5580   26.6480  -27.0630 C   0  0  0  0  0  0  0  0  0  0  0  0
    1.2010   27.9640  -26.7310 C   0  0  0  0  0  0  0  0  0  0  0  0
    1.2573   28.0793  -25.6385 H   0  0  0  0  0  0  0  0  0  0  0  0
    2.2153   27.9940  -27.1557 H   0  0  0  0  0  0  0  0  0  0  0  0
    0.6013   28.7826  -27.1557 H   0  0  0  0  0  0  0  0  0  0  0  0
    1.0800   25.4600  -26.5430 C   0  0  0  0  0  0  0  0  0  0  0  0
    1.9823   25.4897  -25.9145 H   0  0  0  0  0  0  0  0  0  0  0  0
    0.4650   24.2350  -26.8150 C   0  0  0  0  0  0  0  0  0  0  0  0
    0.8902   23.3087  -26.4013 H   0  0  0  0  0  0  0  0  0  0  0  0
   -0.6990   24.1740  -27.6170 C   0  0  0  0  0  0  0  0  0  0  0  0
   -4.1850   24.2960  -30.0940 C   0  0  0  0  0  0  0  0  0  0  0  0
   -5.0890   24.0921  -29.5013 H   0  0  0  0  0  0  0  0  0  0  0  0
   -4.2651   25.3023  -30.5310 H   0  0  0  0  0  0  0  0  0  0  0  0
   -4.0520   23.2620  -31.1950 C   0  0  0  0  0  0  0  0  0  0  0  0
   -4.9152   23.3427  -31.8721 H   0  0  0  0  0  0  0  0  0  0  0  0
   -3.1171   23.4486  -31.7437 H   0  0  0  0  0  0  0  0  0  0  0  0
   -4.0040   21.8470  -30.6080 C   0  0  0  0  0  0  0  0  0  0  0  0
   -5.0377   21.5194  -30.4233 H   0  0  0  0  0  0  0  0  0  0  0  0
   -3.4734   21.2270  -31.3456 H   0  0  0  0  0  0  0  0  0  0  0  0
   -3.2110   21.7120  -29.2780 C   0  0  0  0  0  0  0  0  0  0  0  0
   -3.9217   21.4097  -28.4947 H   0  0  0  0  0  0  0  0  0  0  0  0
   -2.4188   20.9776  -29.4855 H   0  0  0  0  0  0  0  0  0  0  0  0
   -3.7200   20.9340  -33.4510 C   0  0  0  0  0  0  0  0  0  0  0  0
   -3.8260   22.0226  -33.3337 H   0  0  0  0  0  0  0  0  0  0  0  0
   -4.8300   20.1570  -33.5250 N   0  0  0  0  0  0  0  0  0  0  0  0
   -5.7550   20.6380  -33.4530 H   0  0  0  0  0  0  0  0  0  0  0  0
   -3.4010   16.8930  -34.3510 N   0  0  0  0  0  0  0  0  0  0  0  0
   -2.1740   16.3760  -34.9960 C   0  0  0  0  0  0  0  0  0  0  0  0
   -1.4533   16.0723  -34.2225 H   0  0  0  0  0  0  0  0  0  0  0  0
   -2.4270   15.5080  -35.6225 H   0  0  0  0  0  0  0  0  0  0  0  0
   -1.7295   17.1633  -35.6225 H   0  0  0  0  0  0  0  0  0  0  0  0
  1  2  1  0
  2  3  2  0
  3  4  1  0
  3  5  1  0
  5  6  1  0
  5  7  2  0
  7  8  1  0
  8  9  2  0
  9 10  1  0
  8 11  1  0
 11 12  1  0
 12 13  1  0
 12 14  1  0
 14 15  1  0
 14 16  1  0
 14 17  1  0
 17 18  1  0
 17 19  1  0
 17 20  1  0
 20 21  1  0
 21 22  1  0
 21 23  1  0
 21 24  1  0
 20 25  1  0
 25 26  1  0
 25 27  1  0
 25 28  1  0
 11 29  2  0
 29 30  1  0
 30 31  1  0
 31 32  2  0
 31 33  1  0
 33 34  1  0
 34 35  1  0
 34 36  1  0
 34 37  1  0
 37 38  1  0
 37 39  1  0
 37 40  1  0
 40 41  1  0
 40 42  1  0
 40 43  1  0
 43 44  1  0
 43 45  1  0
 43 46  1  0
 46 47  1  0
 46 48  1  0
 48 49  1  0
 48 50  1  0
 48 51  1  0
 51 52  1  0
 51 53  1  0
 51 54  1  0
 54 55  1  0
 54 56  1  0
 54 57  1  0
 57 58  1  0
 57 59  1  0
 57 60  1  0
 60 61  2  0
 61 62  1  0
 62 63  2  0
 63 64  1  0
 64 65  1  0
 65 66  2  0
 66 67  1  0
 66 68  1  0
 68 69  1  0
 69 70  1  0
 69 71  1  0
 69 72  1  0
 68 73  2  0
 73 74  1  0
 73 75  1  0
 75 76  1  0
 75 77  2  0
 63 78  1  0
 78 79  1  0
 78 80  1  0
 78 81  1  0
 81 82  1  0
 81 83  1  0
 81 84  1  0
 84 85  1  0
 84 86  1  0
 84 87  1  0
 87 88  1  0
 87 89  1  0
 33 90  1  0
 90 91  1  0
 90 92  2  0
 92 93  1  0
 30 94  2  0
 94 95  1  0
 95 96  1  0
 95 97  1  0
 95 98  1  0
  9  2  1  0
 92 29  1  0
 94  7  1  0
 77 61  1  0
 87 62  1  0
 77 65  1  0
M  CHG  3  64  -1  92   1  94   1
M  END
>  <UniqueID>  (15) 
15

>  <SMILES>  (15) 
Cc1ccc2/c(=N/CCCCNCCCCn3c[nH+]c4c(NCCN(C)C)c5ccccc5[n+](C)c4c3=O)c3c([n-]c2c1)CCCC3

>  <Energy>  (15) 
151.23860824377843

>  <Genealogy>  (15) 
Cc1ccc2c(=NCCCCNCCCCn3c[nH+]c4c(NCCN(C)C)c5ccccc5[n+](C)c4c3=O)c3c([n-]c2c1)CCCC3 (protonated)
Cc1ccc2/c(=N/CCCCNCCCCn3c[nH+]c4c(NCCN(C)C)c5ccccc5[n+](C)c4c3=O)c3c([n-]c2c1)CCCC3 (cis-trans isomerization)
Cc1ccc2/c(=N/CCCCNCCCCn3c[nH+]c4c(NCCN(C)C)c5ccccc5[n+](C)c4c3=O)c3c([n-]c2c1)CCCC3 (3D coordinates assigned)
Cc1ccc2/c(=N/CCCCNCCCCn3c[nH+]c4c(NCCN(C)C)c5ccccc5[n+](C)c4c3=O)c3c([n-]c2c1)CCCC3 (nonaromatic ring conformer: 151.23860824377843 kcal/mol)

>  <smiles>  (15) 
Cc1ccc2c(=NCCCCNCCCCn3cnc4c(NCCN(C)C)c5ccccc5[n+](C)c4c3=O)c3c([nH]c2c1)CCCC3

>  <score_type>  (15) 
oracle

>  <origin>  (15) 
adg

>  <m_score__min__energy>  (15) 
-9.8900000000000006

>  <m_primary>  (15) 
energy

$$$$
15:0
     RDKit          3D

 44 45  0  0  0  0  0  0  0  0999 V2000
   -6.1300   26.0270  -29.6920 C   0  0  0  0  0  0  0  0  0  0  0  0
   -5.5990   24.7490  -30.3520 C   0  0  0  0  0  0  0  0  0  0  0  0
   -5.8450   23.4880  -29.5970 N   0  0  0  0  0  0  0  0  0  0  0  0
   -4.6260   22.6390  -29.4610 C   0  0  0  0  0  0  0  0  0  0  0  0
   -3.8790   22.7600  -28.1180 C   0  0  0  0  0  0  0  0  0  0  0  0
   -7.0490   22.7390  -30.0520 C   0  0  0  0  0  0  0  0  0  0  0  0
   -7.5500   23.1680  -31.4450 C   0  0  0  0  0  0  0  0  0  0  0  0
   -6.5790   22.8060  -32.4820 N   0  0  0  0  0  0  0  0  0  0  0  0
   -6.0770   21.4770  -32.7160 C   0  0  0  0  0  0  0  0  0  0  0  0
   -4.6980   21.2890  -32.8720 C   0  0  0  0  0  0  0  0  0  0  0  0
   -4.1660   20.0170  -33.0880 C   0  0  0  0  0  0  0  0  0  0  0  0
   -5.0050   18.8820  -33.1430 C   0  0  0  0  0  0  0  0  0  0  0  0
   -6.4000   19.0720  -32.9680 C   0  0  0  0  0  0  0  0  0  0  0  0
   -7.2530   17.9640  -33.0040 C   0  0  0  0  0  0  0  0  0  0  0  0
   -6.7290   16.6960  -33.2160 C   0  0  0  0  0  0  0  0  0  0  0  0
   -5.3560   16.5360  -33.3890 C   0  0  0  0  0  0  0  0  0  0  0  0
   -4.5080   17.6110  -33.3540 N   0  0  0  0  0  0  0  0  0  0  0  0
   -3.0700   17.3690  -33.5430 C   0  0  0  0  0  0  0  0  0  0  0  0
   -6.9240   20.3560  -32.7530 C   0  0  0  0  0  0  0  0  0  0  0  0
   -6.0857   25.9204  -28.5981 H   0  0  0  0  0  0  0  0  0  0  0  0
   -5.5132   26.8834  -30.0022 H   0  0  0  0  0  0  0  0  0  0  0  0
   -7.1720   26.1941  -30.0022 H   0  0  0  0  0  0  0  0  0  0  0  0
   -6.0773   24.6527  -31.3379 H   0  0  0  0  0  0  0  0  0  0  0  0
   -4.5061   24.8648  -30.3992 H   0  0  0  0  0  0  0  0  0  0  0  0
   -6.0470   23.8040  -28.6180 H   0  0  0  0  0  0  0  0  0  0  0  0
   -4.9286   21.5890  -29.5870 H   0  0  0  0  0  0  0  0  0  0  0  0
   -3.9239   22.9936  -30.2299 H   0  0  0  0  0  0  0  0  0  0  0  0
   -4.5932   22.6443  -27.2894 H   0  0  0  0  0  0  0  0  0  0  0  0
   -3.1118   21.9744  -28.0531 H   0  0  0  0  0  0  0  0  0  0  0  0
   -3.3990   23.7476  -28.0531 H   0  0  0  0  0  0  0  0  0  0  0  0
   -6.8005   21.6680  -30.0860 H   0  0  0  0  0  0  0  0  0  0  0  0
   -7.8555   22.9577  -29.3367 H   0  0  0  0  0  0  0  0  0  0  0  0
   -8.5058   22.6657  -31.6549 H   0  0  0  0  0  0  0  0  0  0  0  0
   -7.6817   24.2601  -31.4513 H   0  0  0  0  0  0  0  0  0  0  0  0
   -6.3200   23.5570  -33.1630 H   0  0  0  0  0  0  0  0  0  0  0  0
   -4.0240   22.1570  -32.8236 H   0  0  0  0  0  0  0  0  0  0  0  0
   -3.0802   19.8969  -33.2170 H   0  0  0  0  0  0  0  0  0  0  0  0
   -8.3360   18.0970  -32.8647 H   0  0  0  0  0  0  0  0  0  0  0  0
   -7.3952   15.8213  -33.2472 H   0  0  0  0  0  0  0  0  0  0  0  0
   -4.9459   15.5291  -33.5566 H   0  0  0  0  0  0  0  0  0  0  0  0
   -2.5800   17.2865  -32.5616 H   0  0  0  0  0  0  0  0  0  0  0  0
   -2.9262   16.4340  -34.1044 H   0  0  0  0  0  0  0  0  0  0  0  0
   -2.6281   18.2054  -34.1044 H   0  0  0  0  0  0  0  0  0  0  0  0
   -8.0071   20.4862  -32.6122 H   0  0  0  0  0  0  0  0  0  0  0  0
  1  2  1  0
  2  3  1  0
  3  4  1  0
  4  5  1  0
  3  6  1  0
  6  7  1  0
  7  8  1  0
  8  9  1  0
  9 10  2  0
 10 11  1  0
 11 12  2  0
 12 13  1  0
 13 14  1  0
 14 15  2  0
 15 16  1  0
 16 17  2  0
 17 18  1  0
 13 19  2  0
 19  9  1  0
 17 12  1  0
  1 20  1  0
  1 21  1  0
  1 22  1  0
  2 23  1  0
  2 24  1  0
  3 25  1  0
  4 26  1  0
  4 27  1  0
  5 28  1  0
  5 29  1  0
  5 30  1  0
  6 31  1  0
  6 32  1  0
  7 33  1  0
  7 34  1  0
  8 35  1  0
 10 36  1  0
 11 37  1  0
 14 38  1  0
 15 39  1  0
 16 40  1  0
 18 41  1  0
 18 42  1  0
 18 43  1  0
 19 44  1  0
M  CHG  2   3   1  17   1
M  END
>  <UniqueID>  (16) 
16

>  <SMILES>  (16) 
CC[NH+](CC)CCNc1ccc2c(ccc[n+]2C)c1

>  <Energy>  (16) 
59.69969029863615

>  <Genealogy>  (16) 
CC[NH+](CC)CCNc1ccc2c(ccc[n+]2C)c1 (protonated)
CC[NH+](CC)CCNc1ccc2c(ccc[n+]2C)c1 (3D coordinates assigned)
CC[NH+](CC)CCNc1ccc2c(ccc[n+]2C)c1 (optimized conformer: 59.69969029863615 kcal/mol)

>  <smiles>  (16) 
CCN(CC)CCNc1ccc2c(ccc[n+]2C)c1

>  <score_type>  (16) 
oracle

>  <origin>  (16) 
adg

>  <m_score__min__energy>  (16) 
-5.1299999999999999

>  <m_primary>  (16) 
energy

$$$$
16:0
     RDKit          3D

 60 62  0  0  0  0  0  0  0  0999 V2000
   -0.7690   26.6960  -27.3130 C   0  0  0  0  0  0  0  0  0  0  0  0
   -1.9030   25.9700  -26.5800 C   0  0  0  0  0  0  0  0  0  0  0  0
   -1.9360   24.5280  -26.9220 N   0  0  0  0  0  0  0  0  0  0  0  0
   -3.3260   24.0410  -27.1290 C   0  0  0  0  0  0  0  0  0  0  0  0
   -4.3000   24.9300  -26.3620 C   0  0  0  0  0  0  0  0  0  0  0  0
   -1.0760   24.2550  -28.0990 C   0  0  0  0  0  0  0  0  0  0  0  0
   -1.9200   23.8330  -29.3030 C   0  0  0  0  0  0  0  0  0  0  0  0
   -2.7380   24.9240  -29.6930 O   0  0  0  0  0  0  0  0  0  0  0  0
   -3.8540   24.4970  -30.4530 C   0  0  0  0  0  0  0  0  0  0  0  0
   -5.1590   24.9410  -29.7890 C   0  0  0  0  0  0  0  0  0  0  0  0
   -5.8130   23.8180  -29.2330 O   0  0  0  0  0  0  0  0  0  0  0  0
   -6.2400   22.9300  -30.2450 C   0  0  0  0  0  0  0  0  0  0  0  0
   -6.7130   23.7170  -31.4650 C   0  0  0  0  0  0  0  0  0  0  0  0
   -6.4510   22.9740  -32.6980 N   0  0  0  0  0  0  0  0  0  0  0  0
   -6.1320   21.5740  -32.6780 C   0  0  0  0  0  0  0  0  0  0  0  0
   -7.1260   20.5850  -32.4820 C   0  0  0  0  0  0  0  0  0  0  0  0
   -8.4480   20.9470  -32.1500 C   0  0  0  0  0  0  0  0  0  0  0  0
   -9.4340   19.9740  -31.9870 C   0  0  0  0  0  0  0  0  0  0  0  0
   -9.1140   18.6270  -32.1260 C   0  0  0  0  0  0  0  0  0  0  0  0
   -7.8050   18.2390  -32.4180 C   0  0  0  0  0  0  0  0  0  0  0  0
   -6.7790   19.1990  -32.5920 C   0  0  0  0  0  0  0  0  0  0  0  0
   -5.4750   18.8270  -32.8600 N   0  0  0  0  0  0  0  0  0  0  0  0
   -5.1030   17.4090  -33.0080 C   0  0  0  0  0  0  0  0  0  0  0  0
   -4.5230   19.8070  -32.9710 C   0  0  0  0  0  0  0  0  0  0  0  0
   -2.8670   19.6320  -33.2560 S   0  0  0  0  0  0  0  0  0  0  0  0
   -2.5230   21.2810  -33.2760 C   0  0  0  0  0  0  0  0  0  0  0  0
   -3.7030   21.9900  -33.0670 C   0  0  0  0  0  0  0  0  0  0  0  0
   -4.8200   21.1580  -32.8900 C   0  0  0  0  0  0  0  0  0  0  0  0
   -0.0802   27.1370  -26.5774 H   0  0  0  0  0  0  0  0  0  0  0  0
   -0.2223   25.9796  -27.9437 H   0  0  0  0  0  0  0  0  0  0  0  0
   -1.1908   27.4924  -27.9437 H   0  0  0  0  0  0  0  0  0  0  0  0
   -1.7534   26.0767  -25.4955 H   0  0  0  0  0  0  0  0  0  0  0  0
   -2.8577   26.4199  -26.8900 H   0  0  0  0  0  0  0  0  0  0  0  0
   -3.5688   24.0722  -28.2014 H   0  0  0  0  0  0  0  0  0  0  0  0
   -3.4090   23.0073  -26.7623 H   0  0  0  0  0  0  0  0  0  0  0  0
   -4.1490   24.7922  -25.2812 H   0  0  0  0  0  0  0  0  0  0  0  0
   -4.1212   25.9828  -26.6259 H   0  0  0  0  0  0  0  0  0  0  0  0
   -5.3321   24.6561  -26.6259 H   0  0  0  0  0  0  0  0  0  0  0  0
   -0.5142   25.1657  -28.3540 H   0  0  0  0  0  0  0  0  0  0  0  0
   -0.3854   23.4363  -27.8485 H   0  0  0  0  0  0  0  0  0  0  0  0
   -1.2599   23.5496  -30.1360 H   0  0  0  0  0  0  0  0  0  0  0  0
   -2.5491   22.9715  -29.0347 H   0  0  0  0  0  0  0  0  0  0  0  0
   -3.7940   24.9343  -31.4606 H   0  0  0  0  0  0  0  0  0  0  0  0
   -3.8426   23.3987  -30.5137 H   0  0  0  0  0  0  0  0  0  0  0  0
   -4.9364   25.6666  -28.9928 H   0  0  0  0  0  0  0  0  0  0  0  0
   -5.8113   25.4089  -30.5411 H   0  0  0  0  0  0  0  0  0  0  0  0
   -5.4028   22.2778  -30.5344 H   0  0  0  0  0  0  0  0  0  0  0  0
   -7.0726   22.3210  -29.8632 H   0  0  0  0  0  0  0  0  0  0  0  0
   -7.7940   23.9012  -31.3781 H   0  0  0  0  0  0  0  0  0  0  0  0
   -6.1635   24.6691  -31.5043 H   0  0  0  0  0  0  0  0  0  0  0  0
   -6.7030   23.4200  -33.6120 H   0  0  0  0  0  0  0  0  0  0  0  0
   -8.7044   22.0085  -32.0181 H   0  0  0  0  0  0  0  0  0  0  0  0
  -10.4657   20.2718  -31.7483 H   0  0  0  0  0  0  0  0  0  0  0  0
   -9.8967   17.8636  -32.0052 H   0  0  0  0  0  0  0  0  0  0  0  0
   -7.5668   17.1694  -32.5145 H   0  0  0  0  0  0  0  0  0  0  0  0
   -4.9840   16.9554  -32.0130 H   0  0  0  0  0  0  0  0  0  0  0  0
   -5.8924   16.8786  -33.5608 H   0  0  0  0  0  0  0  0  0  0  0  0
   -4.1549   17.3344  -33.5608 H   0  0  0  0  0  0  0  0  0  0  0  0
   -1.5284   21.7252  -33.4292 H   0  0  0  0  0  0  0  0  0  0  0  0
   -3.7547   23.0885  -33.0430 H   0  0  0  0  0  0  0  0  0  0  0  0
  1  2  1  0
  2  3  1  0
  3  4  1  0
  4  5  1  0
  3  6  1  0
  6  7  1  0
  7  8  1  0
  8  9  1  0
  9 10  1  0
 10 11  1  0
 11 12  1  0
 12 13  1  0
 13 14  1  0
 14 15  1  0
 15 16  2  0
 16 17  1  0
 17 18  2  0
 18 19  1  0
 19 20  2  0
 20 21  1  0
 21 22  2  0
 22 23  1  0
 22 24  1  0
 24 25  1  0
 25 26  1  0
 26 27  2  0
 27 28  1  0
 28 15  1  0
 21 16  1  0
 28 24  2  0
  1 29  1  0
  1 30  1  0
  1 31  1  0
  2 32  1  0
  2 33  1  0
  4 34  1  0
  4 35  1  0
  5 36  1  0
  5 37  1  0
  5 38  1  0
  6 39  1  0
  6 40  1  0
  7 41  1  0
  7 42  1  0
  9 43  1  0
  9 44  1  0
 10 45  1  0
 10 46  1  0
 12 47  1  0
 12 48  1  0
 13 49  1  0
 13 50  1  0
 14 51  1  0
 17 52  1  0
 18 53  1  0
 19 54  1  0
 20 55  1  0
 23 56  1  0
 23 57  1  0
 23 58  1  0
 26 59  1  0
 27 60  1  0
M  CHG  1  22   1
M  END
>  <UniqueID>  (17) 
17

>  <SMILES>  (17) 
CCN(CC)CCOCCOCCNc1c2ccccc2[n+](C)c2sccc12

>  <Energy>  (17) 
106.96072623486909

>  <Genealogy>  (17) 
CCN(CC)CCOCCOCCNc1c2ccccc2[n+](C)c2sccc12 (3D coordinates assigned)
CCN(CC)CCOCCOCCNc1c2ccccc2[n+](C)c2sccc12 (optimized conformer: 106.96072623486909 kcal/mol)

>  <smiles>  (17) 
CCN(CC)CCOCCOCCNc1c2ccccc2[n+](C)c2sccc12

>  <score_type>  (17) 
oracle

>  <origin>  (17) 
adg

>  <m_score__min__energy>  (17) 
-8.5999999999999996

>  <m_primary>  (17) 
energy

$$$$
17:0
     RDKit          3D

 60 63  0  0  0  0  0  0  0  0999 V2000
   -1.0330   26.4760  -28.2430 C   0  0  0  0  0  0  0  0  0  0  0  0
   -1.7950   25.5160  -28.9660 O   0  0  0  0  0  0  0  0  0  0  0  0
   -1.8900   24.1540  -28.6340 C   0  0  0  0  0  0  0  0  0  0  0  0
   -1.3020   23.6400  -27.4640 C   0  0  0  0  0  0  0  0  0  0  0  0
   -1.4000   22.2840  -27.1600 C   0  0  0  0  0  0  0  0  0  0  0  0
   -2.0790   21.4200  -28.0150 C   0  0  0  0  0  0  0  0  0  0  0  0
   -2.6750   21.9060  -29.1940 C   0  0  0  0  0  0  0  0  0  0  0  0
   -3.3580   21.0550  -30.0790 O   0  0  0  0  0  0  0  0  0  0  0  0
   -2.7890   20.4790  -31.2510 C   0  0  0  0  0  0  0  0  0  0  0  0
   -2.5870   23.2810  -29.5000 C   0  0  0  0  0  0  0  0  0  0  0  0
   -3.2170   23.8000  -30.7760 C   0  0  0  0  0  0  0  0  0  0  0  0
   -4.3950   24.6450  -30.4760 N   0  0  0  0  0  0  0  0  0  0  0  0
   -5.0050   24.3510  -29.1630 C   0  0  0  0  0  0  0  0  0  0  0  0
   -5.7550   23.0040  -29.1390 C   0  0  0  0  0  0  0  0  0  0  0  0
   -6.5590   22.7070  -30.4460 C   0  0  0  0  0  0  0  0  0  0  0  0
   -6.7290   24.0070  -31.2770 C   0  0  0  0  0  0  0  0  0  0  0  0
   -5.3810   24.6970  -31.5870 C   0  0  0  0  0  0  0  0  0  0  0  0
   -7.9530   22.1240  -30.1180 C   0  0  0  0  0  0  0  0  0  0  0  0
   -8.2980   21.1890  -31.2700 C   0  0  0  0  0  0  0  0  0  0  0  0
   -7.0280   20.8600  -31.8930 N   0  0  0  0  0  0  0  0  0  0  0  0
   -6.8570   19.6900  -32.7100 C   0  0  0  0  0  0  0  0  0  0  0  0
   -5.9220   19.6010  -33.6830 N   0  0  0  0  0  0  0  0  0  0  0  0
   -6.1320   18.3550  -34.1630 C   0  0  0  0  0  0  0  0  0  0  0  0
   -5.3030   17.7360  -35.2380 C   0  0  0  0  0  0  0  0  0  0  0  0
   -7.1170   17.7150  -33.5040 N   0  0  0  0  0  0  0  0  0  0  0  0
   -7.5690   18.5500  -32.5890 N   0  0  0  0  0  0  0  0  0  0  0  0
   -8.5960   18.2140  -31.6060 C   0  0  0  0  0  0  0  0  0  0  0  0
   -5.9180   21.5950  -31.3100 C   0  0  0  0  0  0  0  0  0  0  0  0
   -1.1642   26.3106  -27.1634 H   0  0  0  0  0  0  0  0  0  0  0  0
    0.0306   26.3713  -28.5033 H   0  0  0  0  0  0  0  0  0  0  0  0
   -1.3763   27.4881  -28.5033 H   0  0  0  0  0  0  0  0  0  0  0  0
   -0.7606   24.3140  -26.7838 H   0  0  0  0  0  0  0  0  0  0  0  0
   -0.9389   21.8942  -26.2405 H   0  0  0  0  0  0  0  0  0  0  0  0
   -2.1502   20.3506  -27.7675 H   0  0  0  0  0  0  0  0  0  0  0  0
   -2.0429   19.7237  -30.9632 H   0  0  0  0  0  0  0  0  0  0  0  0
   -3.5813   20.0031  -31.8474 H   0  0  0  0  0  0  0  0  0  0  0  0
   -2.3034   21.2654  -31.8474 H   0  0  0  0  0  0  0  0  0  0  0  0
   -2.4757   24.3975  -31.3268 H   0  0  0  0  0  0  0  0  0  0  0  0
   -3.5442   22.9419  -31.3815 H   0  0  0  0  0  0  0  0  0  0  0  0
   -4.2090   24.3233  -28.4043 H   0  0  0  0  0  0  0  0  0  0  0  0
   -5.7403   25.1424  -28.9555 H   0  0  0  0  0  0  0  0  0  0  0  0
   -5.0188   22.1996  -28.9942 H   0  0  0  0  0  0  0  0  0  0  0  0
   -6.4856   23.0584  -28.3185 H   0  0  0  0  0  0  0  0  0  0  0  0
   -7.2223   23.7552  -32.2274 H   0  0  0  0  0  0  0  0  0  0  0  0
   -7.3311   24.7072  -30.6793 H   0  0  0  0  0  0  0  0  0  0  0  0
   -4.9365   24.2051  -32.4648 H   0  0  0  0  0  0  0  0  0  0  0  0
   -5.6047   25.7602  -31.7588 H   0  0  0  0  0  0  0  0  0  0  0  0
   -7.9211   21.5670  -29.1700 H   0  0  0  0  0  0  0  0  0  0  0  0
   -8.7055   22.9182  -30.0041 H   0  0  0  0  0  0  0  0  0  0  0  0
   -8.7892   20.2795  -30.8937 H   0  0  0  0  0  0  0  0  0  0  0  0
   -8.9941   21.6565  -31.9820 H   0  0  0  0  0  0  0  0  0  0  0  0
   -4.5005   17.1368  -34.7830 H   0  0  0  0  0  0  0  0  0  0  0  0
   -5.9360   17.0878  -35.8618 H   0  0  0  0  0  0  0  0  0  0  0  0
   -4.8613   18.5271  -35.8618 H   0  0  0  0  0  0  0  0  0  0  0  0
   -7.4490   16.7350  -33.6530 H   0  0  0  0  0  0  0  0  0  0  0  0
   -8.1905   18.3467  -30.5921 H   0  0  0  0  0  0  0  0  0  0  0  0
   -9.4647   18.8748  -31.7428 H   0  0  0  0  0  0  0  0  0  0  0  0
   -8.9062   17.1675  -31.7428 H   0  0  0  0  0  0  0  0  0  0  0  0
   -5.3039   20.9300  -30.6850 H   0  0  0  0  0  0  0  0  0  0  0  0
   -5.2570   22.0127  -32.0837 H   0  0  0  0  0  0  0  0  0  0  0  0
  1  2  1  0
  2  3  1  0
  3  4  2  0
  4  5  1  0
  5  6  2  0
  6  7  1  0
  7  8  1  0
  8  9  1  0
  7 10  2  0
 10 11  1  0
 11 12  1  0
 12 13  1  0
 13 14  1  0
 14 15  1  0
 15 16  1  0
 16 17  1  0
 15 18  1  0
 18 19  1  0
 19 20  1  0
 20 21  1  0
 21 22  2  0
 22 23  1  0
 23 24  1  0
 23 25  2  0
 25 26  1  0
 26 27  1  0
 20 28  1  0
 10  3  1  0
 17 12  1  0
 26 21  1  0
 28 15  1  0
  1 29  1  0
  1 30  1  0
  1 31  1  0
  4 32  1  0
  5 33  1  0
  6 34  1  0
  9 35  1  0
  9 36  1  0
  9 37  1  0
 11 38  1  0
 11 39  1  0
 13 40  1  0
 13 41  1  0
 14 42  1  0
 14 43  1  0
 16 44  1  0
 16 45  1  0
 17 46  1  0
 17 47  1  0
 18 48  1  0
 18 49  1  0
 19 50  1  0
 19 51  1  0
 24 52  1  0
 24 53  1  0
 24 54  1  0
 25 55  1  0
 27 56  1  0
 27 57  1  0
 27 58  1  0
 28 59  1  0
 28 60  1  0
M  CHG  1  25   1
M  END
>  <UniqueID>  (18) 
18

>  <SMILES>  (18) 
COc1cccc(OC)c1CN1CCC2(CC1)CCN(c1nc(C)[nH+]n1C)C2

>  <Energy>  (18) 
112.0798674479437

>  <Genealogy>  (18) 
COc1cccc(OC)c1CN1CCC2(CC1)CCN(c1nc(C)[nH+]n1C)C2 (protonated)
COc1cccc(OC)c1CN1CCC2(CC1)CCN(c1nc(C)[nH+]n1C)C2 (3D coordinates assigned)
COc1cccc(OC)c1CN1CCC2(CC1)CCN(c1nc(C)[nH+]n1C)C2 (nonaromatic ring conformer: 112.0798674479437 kcal/mol)

>  <smiles>  (18) 
COc1cccc(OC)c1CN1CCC2(CC1)CCN(c1nc(C)nn1C)C2

>  <score_type>  (18) 
oracle

>  <origin>  (18) 
adg

>  <m_score__min__energy>  (18) 
-8

>  <m_primary>  (18) 
energy

$$$$
18:0
     RDKit          3D

 50 52  0  0  0  0  0  0  0  0999 V2000
   -5.5308   26.8581  -30.2491 H   0  0  0  0  0  0  0  0  0  0  0  0
   -5.3560   25.7830  -30.4030 C   0  0  0  0  0  0  0  0  0  0  0  0
   -4.0800   25.3110  -30.5120 N   0  0  0  0  0  0  0  0  0  0  0  0
   -3.7860   23.9980  -30.7440 C   0  0  0  0  0  0  0  0  0  0  0  0
   -2.5720   23.6130  -30.4640 N   0  0  0  0  0  0  0  0  0  0  0  0
   -2.0100   23.1640  -29.1940 C   0  0  0  0  0  0  0  0  0  0  0  0
   -2.8112   22.7724  -28.5499 H   0  0  0  0  0  0  0  0  0  0  0  0
   -1.2744   22.3644  -29.3655 H   0  0  0  0  0  0  0  0  0  0  0  0
   -1.3410   24.3610  -28.5180 C   0  0  0  0  0  0  0  0  0  0  0  0
   -1.3960   24.2363  -27.4265 H   0  0  0  0  0  0  0  0  0  0  0  0
   -0.2917   24.4102  -28.8445 H   0  0  0  0  0  0  0  0  0  0  0  0
   -2.0070   25.6040  -28.8920 N   0  0  0  0  0  0  0  0  0  0  0  0
   -3.0140   25.5310  -28.6180 H   0  0  0  0  0  0  0  0  0  0  0  0
   -1.9900   25.6710  -29.9360 H   0  0  0  0  0  0  0  0  0  0  0  0
   -4.8740   23.1220  -31.0150 C   0  0  0  0  0  0  0  0  0  0  0  0
   -6.1620   23.5800  -30.7980 C   0  0  0  0  0  0  0  0  0  0  0  0
   -6.4410   24.9070  -30.4860 C   0  0  0  0  0  0  0  0  0  0  0  0
   -7.4712   25.2513  -30.3123 H   0  0  0  0  0  0  0  0  0  0  0  0
   -7.0160   22.5890  -31.2020 C   0  0  0  0  0  0  0  0  0  0  0  0
   -8.4090   22.5640  -31.2750 C   0  0  0  0  0  0  0  0  0  0  0  0
   -9.0138   23.3802  -30.8531 H   0  0  0  0  0  0  0  0  0  0  0  0
   -9.0140   21.4660  -31.9030 C   0  0  0  0  0  0  0  0  0  0  0  0
  -10.1109   21.3967  -31.9478 H   0  0  0  0  0  0  0  0  0  0  0  0
   -8.2230   20.4510  -32.4770 C   0  0  0  0  0  0  0  0  0  0  0  0
   -8.7072   19.5969  -32.9730 H   0  0  0  0  0  0  0  0  0  0  0  0
   -6.8200   20.5210  -32.4210 C   0  0  0  0  0  0  0  0  0  0  0  0
   -6.2006   19.7480  -32.8994 H   0  0  0  0  0  0  0  0  0  0  0  0
   -6.2250   21.5960  -31.7430 C   0  0  0  0  0  0  0  0  0  0  0  0
   -4.8990   21.9160  -31.6700 N   0  0  0  0  0  0  0  0  0  0  0  0
   -3.9030   21.4420  -32.6470 C   0  0  0  0  0  0  0  0  0  0  0  0
   -2.9819   22.0309  -32.5257 H   0  0  0  0  0  0  0  0  0  0  0  0
   -4.3340   21.5674  -33.6513 H   0  0  0  0  0  0  0  0  0  0  0  0
   -3.5620   19.9460  -32.4660 C   0  0  0  0  0  0  0  0  0  0  0  0
   -4.2807   19.4985  -31.7637 H   0  0  0  0  0  0  0  0  0  0  0  0
   -2.5354   19.8716  -32.0781 H   0  0  0  0  0  0  0  0  0  0  0  0
   -3.6260   19.2120  -33.7530 N   0  0  0  0  0  0  0  0  0  0  0  0
   -2.2810   18.7210  -34.1410 C   0  0  0  0  0  0  0  0  0  0  0  0
   -2.3398   18.2629  -35.1393 H   0  0  0  0  0  0  0  0  0  0  0  0
   -1.9499   17.9823  -33.3962 H   0  0  0  0  0  0  0  0  0  0  0  0
   -1.2710   19.8610  -34.1750 C   0  0  0  0  0  0  0  0  0  0  0  0
   -1.0126   20.1527  -33.1463 H   0  0  0  0  0  0  0  0  0  0  0  0
   -0.3633   19.5311  -34.7016 H   0  0  0  0  0  0  0  0  0  0  0  0
   -1.7078   20.7223  -34.7016 H   0  0  0  0  0  0  0  0  0  0  0  0
   -4.5820   18.0810  -33.6850 C   0  0  0  0  0  0  0  0  0  0  0  0
   -4.0418   17.1375  -33.8522 H   0  0  0  0  0  0  0  0  0  0  0  0
   -5.0565   18.0699  -32.6927 H   0  0  0  0  0  0  0  0  0  0  0  0
   -5.6600   18.2410  -34.7520 C   0  0  0  0  0  0  0  0  0  0  0  0
   -6.6368   18.3860  -34.2675 H   0  0  0  0  0  0  0  0  0  0  0  0
   -5.4285   19.1146  -35.3790 H   0  0  0  0  0  0  0  0  0  0  0  0
   -5.6922   17.3378  -35.3790 H   0  0  0  0  0  0  0  0  0  0  0  0
  1  2  1  0
  2  3  1  0
  3  4  1  0
  4  5  2  0
  5  6  1  0
  6  7  1  0
  6  8  1  0
  6  9  1  0
  9 10  1  0
  9 11  1  0
  9 12  1  0
 12 13  1  0
 12 14  1  0
  4 15  1  0
 15 16  2  0
 16 17  1  0
 17 18  1  0
 16 19  1  0
 19 20  2  0
 20 21  1  0
 20 22  1  0
 22 23  1  0
 22 24  2  0
 24 25  1  0
 24 26  1  0
 26 27  1  0
 26 28  2  0
 28 29  1  0
 29 30  1  0
 30 31  1  0
 30 32  1  0
 30 33  1  0
 33 34  1  0
 33 35  1  0
 33 36  1  0
 36 37  1  0
 37 38  1  0
 37 39  1  0
 37 40  1  0
 40 41  1  0
 40 42  1  0
 40 43  1  0
 36 44  1  0
 44 45  1  0
 44 46  1  0
 44 47  1  0
 47 48  1  0
 47 49  1  0
 47 50  1  0
 17  2  2  0
 28 19  1  0
 29 15  1  0
M  CHG  1   3  -1
M  END
>  <UniqueID>  (19) 
19

>  <SMILES>  (19) 
CCN(CC)CCn1c2ccccc2c2cc[n-]/c(=N/CCN)c21

>  <Energy>  (19) 
112.78131401879185

>  <Genealogy>  (19) 
CCN(CC)CCn1c2ccccc2c2cc[n-]c(=NCCN)c21 (protonated)
CCN(CC)CCn1c2ccccc2c2cc[n-]/c(=N/CCN)c21 (cis-trans isomerization)
CCN(CC)CCn1c2ccccc2c2cc[n-]/c(=N/CCN)c21 (3D coordinates assigned)
CCN(CC)CCn1c2ccccc2c2cc[n-]/c(=N/CCN)c21 (optimized conformer: 112.78131401879185 kcal/mol)

>  <smiles>  (19) 
CCN(CC)CCn1c2ccccc2c2cc[nH]c(=NCCN)c21

>  <score_type>  (19) 
oracle

>  <origin>  (19) 
adg

>  <m_score__min__energy>  (19) 
-9.9000000000000004

>  <m_primary>  (19) 
energy

$$$$
19:0
     RDKit          3D

 57 59  0  0  0  0  0  0  0  0999 V2000
   -2.9860   23.1670  -28.7040 C   0  0  0  0  0  0  0  0  0  0  0  0
   -3.6080   24.5280  -29.0210 C   0  0  0  0  0  0  0  0  0  0  0  0
   -3.8790   24.7010  -30.4670 N   0  0  0  0  0  0  0  0  0  0  0  0
   -5.1050   25.4880  -30.7630 C   0  0  0  0  0  0  0  0  0  0  0  0
   -6.1240   25.5580  -29.6160 C   0  0  0  0  0  0  0  0  0  0  0  0
   -3.8240   23.3970  -31.1730 C   0  0  0  0  0  0  0  0  0  0  0  0
   -5.2180   22.7630  -31.3290 C   0  0  0  0  0  0  0  0  0  0  0  0
   -5.4020   22.1590  -32.6490 N   0  0  0  0  0  0  0  0  0  0  0  0
   -5.4980   20.7350  -32.7860 C   0  0  0  0  0  0  0  0  0  0  0  0
   -6.7060   20.0550  -32.5130 C   0  0  0  0  0  0  0  0  0  0  0  0
   -7.8490   20.7640  -32.0900 C   0  0  0  0  0  0  0  0  0  0  0  0
   -9.0400   20.0930  -31.8180 C   0  0  0  0  0  0  0  0  0  0  0  0
   -9.1120   18.7120  -31.9570 C   0  0  0  0  0  0  0  0  0  0  0  0
   -7.9940   17.9840  -32.3670 C   0  0  0  0  0  0  0  0  0  0  0  0
   -6.7670   18.6310  -32.6490 C   0  0  0  0  0  0  0  0  0  0  0  0
   -5.6470   17.9200  -33.0460 N   0  0  0  0  0  0  0  0  0  0  0  0
   -5.6860   16.4510  -33.1820 C   0  0  0  0  0  0  0  0  0  0  0  0
   -4.4950   18.6080  -33.3180 C   0  0  0  0  0  0  0  0  0  0  0  0
   -3.0100   17.9940  -33.8390 S   0  0  0  0  0  0  0  0  0  0  0  0
   -2.2450   19.4920  -33.9410 C   0  0  0  0  0  0  0  0  0  0  0  0
   -0.8120   19.7000  -34.3220 C   0  0  0  0  0  0  0  0  0  0  0  0
   -0.3840   21.0760  -33.9980 N   0  0  0  0  0  0  0  0  0  0  0  0
    0.0910   21.1380  -32.6060 C   0  0  0  0  0  0  0  0  0  0  0  0
    0.6930   21.5190  -34.9030 C   0  0  0  0  0  0  0  0  0  0  0  0
   -3.1350   20.4910  -33.5600 C   0  0  0  0  0  0  0  0  0  0  0  0
   -4.3970   19.9880  -33.2050 C   0  0  0  0  0  0  0  0  0  0  0  0
   -2.9262   23.0362  -27.6134 H   0  0  0  0  0  0  0  0  0  0  0  0
   -3.6091   22.3697  -29.1353 H   0  0  0  0  0  0  0  0  0  0  0  0
   -1.9753   23.1163  -29.1353 H   0  0  0  0  0  0  0  0  0  0  0  0
   -4.5557   24.6204  -28.4703 H   0  0  0  0  0  0  0  0  0  0  0  0
   -2.8895   25.3041  -28.7188 H   0  0  0  0  0  0  0  0  0  0  0  0
   -4.7995   26.5152  -31.0112 H   0  0  0  0  0  0  0  0  0  0  0  0
   -5.6101   24.9703  -31.5918 H   0  0  0  0  0  0  0  0  0  0  0  0
   -5.5946   25.5216  -28.6525 H   0  0  0  0  0  0  0  0  0  0  0  0
   -6.6921   26.4973  -29.6870 H   0  0  0  0  0  0  0  0  0  0  0  0
   -6.8152   24.7052  -29.6870 H   0  0  0  0  0  0  0  0  0  0  0  0
   -3.3915   23.5528  -32.1723 H   0  0  0  0  0  0  0  0  0  0  0  0
   -3.2063   22.7129  -30.5726 H   0  0  0  0  0  0  0  0  0  0  0  0
   -5.3416   21.9843  -30.5620 H   0  0  0  0  0  0  0  0  0  0  0  0
   -5.9679   23.5594  -31.2127 H   0  0  0  0  0  0  0  0  0  0  0  0
   -5.6750   22.7490  -33.4670 H   0  0  0  0  0  0  0  0  0  0  0  0
   -7.8003   21.8567  -31.9736 H   0  0  0  0  0  0  0  0  0  0  0  0
   -9.9257   20.6582  -31.4923 H   0  0  0  0  0  0  0  0  0  0  0  0
  -10.0559   18.1895  -31.7426 H   0  0  0  0  0  0  0  0  0  0  0  0
   -8.0675   16.8915  -32.4725 H   0  0  0  0  0  0  0  0  0  0  0  0
   -5.6982   15.9905  -32.1831 H   0  0  0  0  0  0  0  0  0  0  0  0
   -6.5923   16.1576  -33.7321 H   0  0  0  0  0  0  0  0  0  0  0  0
   -4.7966   16.1100  -33.7321 H   0  0  0  0  0  0  0  0  0  0  0  0
   -0.1835   18.9861  -33.7695 H   0  0  0  0  0  0  0  0  0  0  0  0
   -0.7056   19.5406  -35.4052 H   0  0  0  0  0  0  0  0  0  0  0  0
   -0.7631   21.0265  -31.9218 H   0  0  0  0  0  0  0  0  0  0  0  0
    0.8118   20.3263  -32.4280 H   0  0  0  0  0  0  0  0  0  0  0  0
    0.5793   22.1075  -32.4280 H   0  0  0  0  0  0  0  0  0  0  0  0
    1.5493   21.8712  -34.3091 H   0  0  0  0  0  0  0  0  0  0  0  0
    1.0081   20.6775  -35.5374 H   0  0  0  0  0  0  0  0  0  0  0  0
    0.3248   22.3387  -35.5374 H   0  0  0  0  0  0  0  0  0  0  0  0
   -2.8777   21.5603  -33.5391 H   0  0  0  0  0  0  0  0  0  0  0  0
  1  2  1  0
  2  3  1  0
  3  4  1  0
  4  5  1  0
  3  6  1  0
  6  7  1  0
  7  8  1  0
  8  9  1  0
  9 10  2  0
 10 11  1  0
 11 12  2  0
 12 13  1  0
 13 14  2  0
 14 15  1  0
 15 16  2  0
 16 17  1  0
 16 18  1  0
 18 19  1  0
 19 20  1  0
 20 21  1  0
 21 22  1  0
 22 23  1  0
 22 24  1  0
 20 25  2  0
 25 26  1  0
 26  9  1  0
 15 10  1  0
 26 18  2  0
  1 27  1  0
  1 28  1  0
  1 29  1  0
  2 30  1  0
  2 31  1  0
  4 32  1  0
  4 33  1  0
  5 34  1  0
  5 35  1  0
  5 36  1  0
  6 37  1  0
  6 38  1  0
  7 39  1  0
  7 40  1  0
  8 41  1  0
 11 42  1  0
 12 43  1  0
 13 44  1  0
 14 45  1  0
 17 46  1  0
 17 47  1  0
 17 48  1  0
 21 49  1  0
 21 50  1  0
 23 51  1  0
 23 52  1  0
 23 53  1  0
 24 54  1  0
 24 55  1  0
 24 56  1  0
 25 57  1  0
M  CHG  1  16   1
M  END
>  <UniqueID>  (20) 
20

>  <SMILES>  (20) 
CCN(CC)CCNc1c2ccccc2[n+](C)c2sc(CN(C)C)cc12

>  <Energy>  (20) 
105.27593400252098

>  <Genealogy>  (20) 
CCN(CC)CCNc1c2ccccc2[n+](C)c2sc(CN(C)C)cc12 (3D coordinates assigned)
CCN(CC)CCNc1c2ccccc2[n+](C)c2sc(CN(C)C)cc12 (optimized conformer: 105.27593400252098 kcal/mol)

>  <smiles>  (20) 
CCN(CC)CCNc1c2ccccc2[n+](C)c2sc(CN(C)C)cc12

>  <score_type>  (20) 
oracle

>  <origin>  (20) 
adg

>  <m_score__min__energy>  (20) 
-8.4100000000000001

>  <m_primary>  (20) 
energy

$$$$
20:0
     RDKit          3D

 44 46  0  0  0  0  0  0  0  0999 V2000
   -9.0560   20.6480  -31.6820 C   0  0  0  0  0  0  0  0  0  0  0  0
   -7.6040   20.7690  -31.9410 N   0  0  0  0  0  0  0  0  0  0  0  0
   -6.9330   19.7410  -32.5780 C   0  0  0  0  0  0  0  0  0  0  0  0
   -7.5170   18.4570  -32.7370 C   0  0  0  0  0  0  0  0  0  0  0  0
   -6.8500   17.4400  -33.4190 C   0  0  0  0  0  0  0  0  0  0  0  0
   -5.5870   17.6680  -33.9500 C   0  0  0  0  0  0  0  0  0  0  0  0
   -4.9690   18.9030  -33.7770 C   0  0  0  0  0  0  0  0  0  0  0  0
   -5.6150   19.9420  -33.0730 C   0  0  0  0  0  0  0  0  0  0  0  0
   -4.9580   21.1620  -32.8230 C   0  0  0  0  0  0  0  0  0  0  0  0
   -3.6000   21.3530  -33.2600 N   0  0  0  0  0  0  0  0  0  0  0  0
   -2.4580   20.8310  -32.5060 C   0  0  0  0  0  0  0  0  0  0  0  0
   -1.1300   21.3940  -33.0440 C   0  0  0  0  0  0  0  0  0  0  0  0
   -0.8540   20.9870  -34.4460 N   0  0  0  0  0  0  0  0  0  0  0  0
    0.4450   21.5260  -34.8850 C   0  0  0  0  0  0  0  0  0  0  0  0
   -0.8570   19.5170  -34.5890 C   0  0  0  0  0  0  0  0  0  0  0  0
   -5.6200   22.1670  -32.0930 C   0  0  0  0  0  0  0  0  0  0  0  0
   -5.0090   23.4200  -31.8640 C   0  0  0  0  0  0  0  0  0  0  0  0
   -5.6280   24.3810  -31.0700 C   0  0  0  0  0  0  0  0  0  0  0  0
   -5.0170   25.5720  -30.8450 F   0  0  0  0  0  0  0  0  0  0  0  0
   -6.8610   24.1110  -30.4870 C   0  0  0  0  0  0  0  0  0  0  0  0
   -7.5060   22.9000  -30.7400 C   0  0  0  0  0  0  0  0  0  0  0  0
   -6.9300   21.9270  -31.5960 C   0  0  0  0  0  0  0  0  0  0  0  0
   -9.2349   20.6331  -30.5967 H   0  0  0  0  0  0  0  0  0  0  0  0
   -9.5808   21.5055  -32.1284 H   0  0  0  0  0  0  0  0  0  0  0  0
   -9.4316   19.7154  -32.1284 H   0  0  0  0  0  0  0  0  0  0  0  0
   -8.5136   18.2608  -32.3146 H   0  0  0  0  0  0  0  0  0  0  0  0
   -7.3252   16.4549  -33.5367 H   0  0  0  0  0  0  0  0  0  0  0  0
   -5.0742   16.8710  -34.5083 H   0  0  0  0  0  0  0  0  0  0  0  0
   -3.9651   19.0714  -34.1939 H   0  0  0  0  0  0  0  0  0  0  0  0
   -3.4290   21.7060  -34.2280 H   0  0  0  0  0  0  0  0  0  0  0  0
   -2.5660   21.1154  -31.4489 H   0  0  0  0  0  0  0  0  0  0  0  0
   -2.4409   19.7364  -32.6140 H   0  0  0  0  0  0  0  0  0  0  0  0
   -1.1708   22.4923  -32.9991 H   0  0  0  0  0  0  0  0  0  0  0  0
   -0.3220   20.9879  -32.4177 H   0  0  0  0  0  0  0  0  0  0  0  0
   -1.5860   21.3740  -35.0850 H   0  0  0  0  0  0  0  0  0  0  0  0
    1.0537   21.7786  -34.0043 H   0  0  0  0  0  0  0  0  0  0  0  0
    0.9698   20.7714  -35.4892 H   0  0  0  0  0  0  0  0  0  0  0  0
    0.2814   22.4305  -35.4892 H   0  0  0  0  0  0  0  0  0  0  0  0
   -0.8579   19.0516  -33.5923 H   0  0  0  0  0  0  0  0  0  0  0  0
   -1.7558   19.2041  -35.1406 H   0  0  0  0  0  0  0  0  0  0  0  0
    0.0405   19.2004  -35.1406 H   0  0  0  0  0  0  0  0  0  0  0  0
   -4.0317   23.6389  -32.3190 H   0  0  0  0  0  0  0  0  0  0  0  0
   -7.3291   24.8540  -29.8246 H   0  0  0  0  0  0  0  0  0  0  0  0
   -8.4782   22.6964  -30.2673 H   0  0  0  0  0  0  0  0  0  0  0  0
  1  2  1  0
  2  3  2  0
  3  4  1  0
  4  5  2  0
  5  6  1  0
  6  7  2  0
  7  8  1  0
  8  9  2  0
  9 10  1  0
 10 11  1  0
 11 12  1  0
 12 13  1  0
 13 14  1  0
 13 15  1  0
  9 16  1  0
 16 17  2  0
 17 18  1  0
 18 19  1  0
 18 20  2  0
 20 21  1  0
 21 22  2  0
 22  2  1  0
  8  3  1  0
 22 16  1  0
  1 23  1  0
  1 24  1  0
  1 25  1  0
  4 26  1  0
  5 27  1  0
  6 28  1  0
  7 29  1  0
 10 30  1  0
 11 31  1  0
 11 32  1  0
 12 33  1  0
 12 34  1  0
 13 35  1  0
 14 36  1  0
 14 37  1  0
 14 38  1  0
 15 39  1  0
 15 40  1  0
 15 41  1  0
 17 42  1  0
 20 43  1  0
 21 44  1  0
M  CHG  2   2   1  13   1
M  END
>  <UniqueID>  (21) 
21

>  <SMILES>  (21) 
C[n+]1c2ccccc2c(NCC[NH+](C)C)c2cc(F)ccc21

>  <Energy>  (21) 
71.89468212100716

>  <Genealogy>  (21) 
C[n+]1c2ccccc2c(NCC[NH+](C)C)c2cc(F)ccc21 (protonated)
C[n+]1c2ccccc2c(NCC[NH+](C)C)c2cc(F)ccc21 (3D coordinates assigned)
C[n+]1c2ccccc2c(NCC[NH+](C)C)c2cc(F)ccc21 (optimized conformer: 71.89468212100716 kcal/mol)

>  <smiles>  (21) 
CN(C)CCNc1c2ccccc2[n+](C)c2ccc(F)cc12

>  <score_type>  (21) 
oracle

>  <origin>  (21) 
adg

>  <m_score__min__energy>  (21) 
-7.0599999999999996

>  <m_primary>  (21) 
energy

$$$$
21:0
     RDKit          3D

 40 41  0  0  0  0  0  0  0  0999 V2000
   -8.7430   20.5210  -31.8520 Br  0  0  0  0  0  0  0  0  0  0  0  0
   -7.6590   22.0290  -31.4070 C   0  0  0  0  0  0  0  0  0  0  0  0
   -7.5710   22.4590  -30.0790 C   0  0  0  0  0  0  0  0  0  0  0  0
   -6.7790   23.5650  -29.7510 C   0  0  0  0  0  0  0  0  0  0  0  0
   -6.0660   24.2460  -30.7500 C   0  0  0  0  0  0  0  0  0  0  0  0
   -5.2320   25.4460  -30.3950 C   0  0  0  0  0  0  0  0  0  0  0  0
   -3.8730   25.2150  -30.7160 O   0  0  0  0  0  0  0  0  0  0  0  0
   -3.4850   23.8930  -30.3850 C   0  0  0  0  0  0  0  0  0  0  0  0
   -2.7100   23.8650  -29.0660 C   0  0  0  0  0  0  0  0  0  0  0  0
   -1.6890   24.9220  -29.0540 N   0  0  0  0  0  0  0  0  0  0  0  0
   -1.5490   25.5300  -27.7210 C   0  0  0  0  0  0  0  0  0  0  0  0
   -0.1030   25.9800  -27.4890 C   0  0  0  0  0  0  0  0  0  0  0  0
    0.2070   26.1240  -26.0210 C   0  0  0  0  0  0  0  0  0  0  0  0
    1.5330   26.0740  -25.5700 C   0  0  0  0  0  0  0  0  0  0  0  0
    1.8060   26.2560  -24.2110 C   0  0  0  0  0  0  0  0  0  0  0  0
    0.7910   26.4870  -23.3350 N   0  0  0  0  0  0  0  0  0  0  0  0
   -0.5040   26.5500  -23.7500 C   0  0  0  0  0  0  0  0  0  0  0  0
   -0.8190   26.3720  -25.0980 C   0  0  0  0  0  0  0  0  0  0  0  0
   -6.1630   23.8120  -32.0830 C   0  0  0  0  0  0  0  0  0  0  0  0
   -6.9560   22.7060  -32.4080 C   0  0  0  0  0  0  0  0  0  0  0  0
   -8.1250   21.9271  -29.2915 H   0  0  0  0  0  0  0  0  0  0  0  0
   -6.7149   23.9021  -28.7059 H   0  0  0  0  0  0  0  0  0  0  0  0
   -5.5942   26.3186  -30.9584 H   0  0  0  0  0  0  0  0  0  0  0  0
   -5.3166   25.6321  -29.3142 H   0  0  0  0  0  0  0  0  0  0  0  0
   -4.3846   23.2675  -30.2874 H   0  0  0  0  0  0  0  0  0  0  0  0
   -2.8337   23.5078  -31.1834 H   0  0  0  0  0  0  0  0  0  0  0  0
   -3.4081   24.0248  -28.2311 H   0  0  0  0  0  0  0  0  0  0  0  0
   -2.2159   22.8878  -28.9610 H   0  0  0  0  0  0  0  0  0  0  0  0
   -1.9920   25.6670  -29.7260 H   0  0  0  0  0  0  0  0  0  0  0  0
   -2.2160   26.4016  -27.6482 H   0  0  0  0  0  0  0  0  0  0  0  0
   -1.8175   24.7841  -26.9584 H   0  0  0  0  0  0  0  0  0  0  0  0
    0.5771   25.2337  -27.9255 H   0  0  0  0  0  0  0  0  0  0  0  0
    0.0313   26.9621  -27.9659 H   0  0  0  0  0  0  0  0  0  0  0  0
    2.3532   25.8928  -26.2803 H   0  0  0  0  0  0  0  0  0  0  0  0
    2.8439   26.2123  -23.8492 H   0  0  0  0  0  0  0  0  0  0  0  0
    1.0110   26.6240  -22.3230 H   0  0  0  0  0  0  0  0  0  0  0  0
   -1.3047   26.7418  -23.0206 H   0  0  0  0  0  0  0  0  0  0  0  0
   -1.8650   26.4259  -25.4340 H   0  0  0  0  0  0  0  0  0  0  0  0
   -5.6135   24.3437  -32.8738 H   0  0  0  0  0  0  0  0  0  0  0  0
   -7.0264   22.3687  -33.4526 H   0  0  0  0  0  0  0  0  0  0  0  0
  1  2  1  0
  2  3  2  0
  3  4  1  0
  4  5  2  0
  5  6  1  0
  6  7  1  0
  7  8  1  0
  8  9  1  0
  9 10  1  0
 10 11  1  0
 11 12  1  0
 12 13  1  0
 13 14  2  0
 14 15  1  0
 15 16  2  0
 16 17  1  0
 17 18  2  0
  5 19  1  0
 19 20  2  0
 20  2  1  0
 18 13  1  0
  3 21  1  0
  4 22  1  0
  6 23  1  0
  6 24  1  0
  8 25  1  0
  8 26  1  0
  9 27  1  0
  9 28  1  0
 10 29  1  0
 11 30  1  0
 11 31  1  0
 12 32  1  0
 12 33  1  0
 14 34  1  0
 15 35  1  0
 16 36  1  0
 17 37  1  0
 18 38  1  0
 19 39  1  0
 20 40  1  0
M  CHG  1  16   1
M  END
>  <UniqueID>  (22) 
22

>  <SMILES>  (22) 
Brc1ccc(COCCNCCc2cc[nH+]cc2)cc1

>  <Energy>  (22) 
37.923985685914964

>  <Genealogy>  (22) 
Brc1ccc(COCCNCCc2cc[nH+]cc2)cc1 (protonated)
Brc1ccc(COCCNCCc2cc[nH+]cc2)cc1 (3D coordinates assigned)
Brc1ccc(COCCNCCc2cc[nH+]cc2)cc1 (optimized conformer: 37.923985685914964 kcal/mol)

>  <smiles>  (22) 
Brc1ccc(COCCNCCc2ccncc2)cc1

>  <score_type>  (22) 
oracle

>  <origin>  (22) 
adg

>  <m_score__min__energy>  (22) 
-9.1799999999999997

>  <m_primary>  (22) 
energy

$$$$
22:0
     RDKit          3D

 52 55  0  0  0  0  0  0  0  0999 V2000
   -3.5610   23.8890  -28.3470 C   0  0  0  0  0  0  0  0  0  0  0  0
   -2.8740   24.2220  -29.6690 C   0  0  0  0  0  0  0  0  0  0  0  0
   -3.6400   23.6660  -30.8100 N   0  0  0  0  0  0  0  0  0  0  0  0
   -5.0880   23.9350  -30.6530 C   0  0  0  0  0  0  0  0  0  0  0  0
   -5.3640   25.4280  -30.8000 C   0  0  0  0  0  0  0  0  0  0  0  0
   -3.3790   22.2130  -30.9600 C   0  0  0  0  0  0  0  0  0  0  0  0
   -2.4200   21.9290  -32.1290 C   0  0  0  0  0  0  0  0  0  0  0  0
   -3.1390   21.4880  -33.3270 N   0  0  0  0  0  0  0  0  0  0  0  0
   -4.1620   20.4740  -33.3110 C   0  0  0  0  0  0  0  0  0  0  0  0
   -3.9100   19.1460  -33.7420 C   0  0  0  0  0  0  0  0  0  0  0  0
   -2.6310   18.7560  -34.1860 C   0  0  0  0  0  0  0  0  0  0  0  0
   -2.3980   17.4580  -34.6380 C   0  0  0  0  0  0  0  0  0  0  0  0
   -3.4310   16.5290  -34.6650 C   0  0  0  0  0  0  0  0  0  0  0  0
   -3.1070   14.7690  -35.3340 Br  0  0  0  0  0  0  0  0  0  0  0  0
   -4.7020   16.8750  -34.2050 C   0  0  0  0  0  0  0  0  0  0  0  0
   -4.9660   18.1700  -33.6930 C   0  0  0  0  0  0  0  0  0  0  0  0
   -6.2050   18.5020  -33.1640 N   0  0  0  0  0  0  0  0  0  0  0  0
   -7.2120   17.4780  -32.8380 C   0  0  0  0  0  0  0  0  0  0  0  0
   -6.4470   19.8200  -32.8760 C   0  0  0  0  0  0  0  0  0  0  0  0
   -5.4590   20.7770  -32.9140 C   0  0  0  0  0  0  0  0  0  0  0  0
   -5.9260   21.9570  -32.5590 O   0  0  0  0  0  0  0  0  0  0  0  0
   -7.2060   21.8030  -32.3060 C   0  0  0  0  0  0  0  0  0  0  0  0
   -8.1040   22.7960  -31.9220 C   0  0  0  0  0  0  0  0  0  0  0  0
   -9.4520   22.4390  -31.7580 C   0  0  0  0  0  0  0  0  0  0  0  0
   -9.8750   21.1140  -31.9960 C   0  0  0  0  0  0  0  0  0  0  0  0
   -8.9510   20.1270  -32.3820 C   0  0  0  0  0  0  0  0  0  0  0  0
   -7.6040   20.4930  -32.4960 C   0  0  0  0  0  0  0  0  0  0  0  0
   -2.9178   24.2007  -27.5108 H   0  0  0  0  0  0  0  0  0  0  0  0
   -4.5218   24.4214  -28.2888 H   0  0  0  0  0  0  0  0  0  0  0  0
   -3.7383   22.8049  -28.2888 H   0  0  0  0  0  0  0  0  0  0  0  0
   -2.8074   25.3147  -29.7765 H   0  0  0  0  0  0  0  0  0  0  0  0
   -1.8678   23.7776  -29.6674 H   0  0  0  0  0  0  0  0  0  0  0  0
   -5.6459   23.3844  -31.4247 H   0  0  0  0  0  0  0  0  0  0  0  0
   -5.4083   23.6069  -29.6531 H   0  0  0  0  0  0  0  0  0  0  0  0
   -5.4485   25.8852  -29.8031 H   0  0  0  0  0  0  0  0  0  0  0  0
   -4.5381   25.9010  -31.3515 H   0  0  0  0  0  0  0  0  0  0  0  0
   -6.3044   25.5745  -31.3515 H   0  0  0  0  0  0  0  0  0  0  0  0
   -2.9312   21.8326  -30.0301 H   0  0  0  0  0  0  0  0  0  0  0  0
   -4.3352   21.7108  -31.1688 H   0  0  0  0  0  0  0  0  0  0  0  0
   -1.8644   22.8485  -32.3653 H   0  0  0  0  0  0  0  0  0  0  0  0
   -1.7373   21.1224  -31.8233 H   0  0  0  0  0  0  0  0  0  0  0  0
   -2.8440   21.9010  -34.2390 H   0  0  0  0  0  0  0  0  0  0  0  0
   -1.8066   19.4842  -34.1759 H   0  0  0  0  0  0  0  0  0  0  0  0
   -1.3918   17.1679  -34.9748 H   0  0  0  0  0  0  0  0  0  0  0  0
   -5.5117   16.1312  -34.2403 H   0  0  0  0  0  0  0  0  0  0  0  0
   -7.3017   17.3867  -31.7455 H   0  0  0  0  0  0  0  0  0  0  0  0
   -8.1836   17.7710  -33.2625 H   0  0  0  0  0  0  0  0  0  0  0  0
   -6.9028   16.5115  -33.2625 H   0  0  0  0  0  0  0  0  0  0  0  0
   -7.7671   23.8293  -31.7522 H   0  0  0  0  0  0  0  0  0  0  0  0
  -10.1833   23.1974  -31.4418 H   0  0  0  0  0  0  0  0  0  0  0  0
  -10.9366   20.8511  -31.8786 H   0  0  0  0  0  0  0  0  0  0  0  0
   -9.2768   19.0968  -32.5885 H   0  0  0  0  0  0  0  0  0  0  0  0
  1  2  1  0
  2  3  1  0
  3  4  1  0
  4  5  1  0
  3  6  1  0
  6  7  1  0
  7  8  1  0
  8  9  1  0
  9 10  2  0
 10 11  1  0
 11 12  2  0
 12 13  1  0
 13 14  1  0
 13 15  2  0
 15 16  1  0
 16 17  2  0
 17 18  1  0
 17 19  1  0
 19 20  2  0
 20 21  1  0
 21 22  1  0
 22 23  2  0
 23 24  1  0
 24 25  2  0
 25 26  1  0
 26 27  2  0
 20  9  1  0
 27 22  1  0
 16 10  1  0
 27 19  1  0
  1 28  1  0
  1 29  1  0
  1 30  1  0
  2 31  1  0
  2 32  1  0
  4 33  1  0
  4 34  1  0
  5 35  1  0
  5 36  1  0
  5 37  1  0
  6 38  1  0
  6 39  1  0
  7 40  1  0
  7 41  1  0
  8 42  1  0
 11 43  1  0
 12 44  1  0
 15 45  1  0
 18 46  1  0
 18 47  1  0
 18 48  1  0
 23 49  1  0
 24 50  1  0
 25 51  1  0
 26 52  1  0
M  CHG  1  17   1
M  END
>  <UniqueID>  (23) 
23

>  <SMILES>  (23) 
CCN(CC)CCNc1c2ccc(Br)cc2[n+](C)c2c1oc1ccccc12

>  <Energy>  (23) 
109.2866941044423

>  <Genealogy>  (23) 
CCN(CC)CCNc1c2ccc(Br)cc2[n+](C)c2c1oc1ccccc12 (3D coordinates assigned)
CCN(CC)CCNc1c2ccc(Br)cc2[n+](C)c2c1oc1ccccc12 (optimized conformer: 109.2866941044423 kcal/mol)

>  <smiles>  (23) 
CCN(CC)CCNc1c2ccc(Br)cc2[n+](C)c2c1oc1ccccc12

>  <score_type>  (23) 
oracle

>  <origin>  (23) 
adg

>  <m_score__min__energy>  (23) 
-8.5399999999999991

>  <m_primary>  (23) 
energy

$$$$
23:0
     RDKit          3D

 42 43  0  0  0  0  0  0  0  0999 V2000
   -1.1847   23.6672  -26.1370 H   0  0  0  0  0  0  0  0  0  0  0  0
   -1.7200   23.9090  -27.0670 C   0  0  0  0  0  0  0  0  0  0  0  0
   -1.3320   25.0080  -27.8400 C   0  0  0  0  0  0  0  0  0  0  0  0
   -0.1770   25.8600  -27.4180 C   0  0  0  0  0  0  0  0  0  0  0  0
   -0.1293   25.8952  -26.3196 H   0  0  0  0  0  0  0  0  0  0  0  0
    0.7570   25.4329  -27.8121 H   0  0  0  0  0  0  0  0  0  0  0  0
   -0.3094   26.8784  -27.8121 H   0  0  0  0  0  0  0  0  0  0  0  0
   -2.0080   25.3000  -28.9850 N   0  0  0  0  0  0  0  0  0  0  0  0
   -3.0670   24.5630  -29.4170 C   0  0  0  0  0  0  0  0  0  0  0  0
   -3.6540   24.9100  -30.5280 N   0  0  0  0  0  0  0  0  0  0  0  0
   -5.0660   25.0050  -30.7690 C   0  0  0  0  0  0  0  0  0  0  0  0
   -5.6500   26.0920  -30.5130 O   0  0  0  0  0  0  0  0  0  0  0  0
   -5.8600   23.8390  -31.2320 C   0  0  0  0  0  0  0  0  0  0  0  0
   -5.2370   22.7890  -31.9250 C   0  0  0  0  0  0  0  0  0  0  0  0
   -4.1562   22.8319  -32.1248 H   0  0  0  0  0  0  0  0  0  0  0  0
   -5.9810   21.6890  -32.3630 C   0  0  0  0  0  0  0  0  0  0  0  0
   -5.4792   20.8717  -32.9017 H   0  0  0  0  0  0  0  0  0  0  0  0
   -7.3560   21.6180  -32.1230 C   0  0  0  0  0  0  0  0  0  0  0  0
   -8.0550   20.4920  -32.5820 O   0  0  0  0  0  0  0  0  0  0  0  0
   -8.2690   19.3070  -31.8200 C   0  0  0  0  0  0  0  0  0  0  0  0
   -8.3406   19.5696  -30.7542 H   0  0  0  0  0  0  0  0  0  0  0  0
   -9.2020   18.8308  -32.1558 H   0  0  0  0  0  0  0  0  0  0  0  0
   -7.1050   18.3210  -32.0220 C   0  0  0  0  0  0  0  0  0  0  0  0
   -6.1870   18.7940  -31.6430 H   0  0  0  0  0  0  0  0  0  0  0  0
   -7.3795   17.4047  -31.4787 H   0  0  0  0  0  0  0  0  0  0  0  0
   -6.8670   17.9150  -33.4270 N   0  0  0  0  0  0  0  0  0  0  0  0
   -6.4030   16.5270  -33.5650 C   0  0  0  0  0  0  0  0  0  0  0  0
   -6.2564   16.0885  -32.5669 H   0  0  0  0  0  0  0  0  0  0  0  0
   -7.1545   15.9422  -34.1157 H   0  0  0  0  0  0  0  0  0  0  0  0
   -5.4509   16.5117  -34.1157 H   0  0  0  0  0  0  0  0  0  0  0  0
   -5.9940   18.8460  -34.1600 C   0  0  0  0  0  0  0  0  0  0  0  0
   -5.4232   19.4547  -33.4433 H   0  0  0  0  0  0  0  0  0  0  0  0
   -5.2980   18.2752  -34.7923 H   0  0  0  0  0  0  0  0  0  0  0  0
   -6.6083   19.5039  -34.7923 H   0  0  0  0  0  0  0  0  0  0  0  0
   -7.9880   22.6720  -31.4380 C   0  0  0  0  0  0  0  0  0  0  0  0
   -9.0703   22.6293  -31.2460 H   0  0  0  0  0  0  0  0  0  0  0  0
   -7.2460   23.7740  -31.0000 C   0  0  0  0  0  0  0  0  0  0  0  0
   -7.7500   24.5958  -30.4703 H   0  0  0  0  0  0  0  0  0  0  0  0
   -3.4700   23.4390  -28.6640 C   0  0  0  0  0  0  0  0  0  0  0  0
   -4.3119   22.8175  -29.0029 H   0  0  0  0  0  0  0  0  0  0  0  0
   -2.7920   23.1230  -27.4870 C   0  0  0  0  0  0  0  0  0  0  0  0
   -3.1032   22.2532  -26.8898 H   0  0  0  0  0  0  0  0  0  0  0  0
  1  2  1  0
  2  3  2  0
  3  4  1  0
  4  5  1  0
  4  6  1  0
  4  7  1  0
  3  8  1  0
  8  9  1  0
  9 10  2  0
 10 11  1  0
 11 12  2  0
 11 13  1  0
 13 14  2  0
 14 15  1  0
 14 16  1  0
 16 17  1  0
 16 18  2  0
 18 19  1  0
 19 20  1  0
 20 21  1  0
 20 22  1  0
 20 23  1  0
 23 24  1  0
 23 25  1  0
 23 26  1  0
 26 27  1  0
 27 28  1  0
 27 29  1  0
 27 30  1  0
 26 31  1  0
 31 32  1  0
 31 33  1  0
 31 34  1  0
 18 35  1  0
 35 36  1  0
 35 37  2  0
 37 38  1  0
  9 39  1  0
 39 40  1  0
 39 41  2  0
 41 42  1  0
 41  2  1  0
 37 13  1  0
M  CHG  1   8  -1
M  END
>  <UniqueID>  (24) 
24

>  <SMILES>  (24) 
Cc1ccc/c(=N\C(=O)c2ccc(OCCN(C)C)cc2)[n-]1

>  <Energy>  (24) 
53.44436559504506

>  <Genealogy>  (24) 
Cc1cccc(=NC(=O)c2ccc(OCCN(C)C)cc2)[n-]1 (protonated)
Cc1ccc/c(=N\C(=O)c2ccc(OCCN(C)C)cc2)[n-]1 (cis-trans isomerization)
Cc1ccc/c(=N\C(=O)c2ccc(OCCN(C)C)cc2)[n-]1 (3D coordinates assigned)
Cc1ccc/c(=N\C(=O)c2ccc(OCCN(C)C)cc2)[n-]1 (optimized conformer: 53.44436559504506 kcal/mol)

>  <smiles>  (24) 
Cc1cccc(=NC(=O)c2ccc(OCCN(C)C)cc2)[nH]1

>  <score_type>  (24) 
oracle

>  <origin>  (24) 
adg

>  <m_score__min__energy>  (24) 
-9.5199999999999996

>  <m_primary>  (24) 
energy

$$$$
24:0
     RDKit          3D

 61 64  0  0  0  0  0  0  0  0999 V2000
   -9.1170   19.0110  -31.7390 C   0  0  0  0  0  0  0  0  0  0  0  0
   -7.7160   19.0530  -32.2810 C   0  0  0  0  0  0  0  0  0  0  0  0
   -7.1360   17.9080  -32.8370 C   0  0  0  0  0  0  0  0  0  0  0  0
   -5.8110   17.9140  -33.3340 C   0  0  0  0  0  0  0  0  0  0  0  0
   -5.1820   16.6400  -33.9660 C   0  0  0  0  0  0  0  0  0  0  0  0
   -6.2140   15.5070  -34.2100 C   0  0  0  0  0  0  0  0  0  0  0  0
   -4.0980   16.0610  -33.0270 C   0  0  0  0  0  0  0  0  0  0  0  0
   -4.5580   16.9780  -35.3400 C   0  0  0  0  0  0  0  0  0  0  0  0
   -5.0750   19.1290  -33.2350 C   0  0  0  0  0  0  0  0  0  0  0  0
   -3.8250   19.1760  -33.6870 O   0  0  0  0  0  0  0  0  0  0  0  0
   -3.0660   20.2610  -33.6400 C   0  0  0  0  0  0  0  0  0  0  0  0
   -1.8930   20.2190  -34.0950 O   0  0  0  0  0  0  0  0  0  0  0  0
   -3.5600   21.4390  -33.0960 C   0  0  0  0  0  0  0  0  0  0  0  0
   -4.8660   21.4780  -32.5940 C   0  0  0  0  0  0  0  0  0  0  0  0
   -5.3540   22.8190  -32.0760 C   0  0  0  0  0  0  0  0  0  0  0  0
   -5.5570   22.7530  -30.6110 N   0  0  0  0  0  0  0  0  0  0  0  0
   -6.9260   23.1580  -30.2230 C   0  0  0  0  0  0  0  0  0  0  0  0
   -7.1370   24.6790  -30.3230 C   0  0  0  0  0  0  0  0  0  0  0  0
   -5.9330   25.4880  -29.8060 C   0  0  0  0  0  0  0  0  0  0  0  0
   -4.9810   24.6220  -28.9810 C   0  0  0  0  0  0  0  0  0  0  0  0
   -4.4760   23.4380  -29.8390 C   0  0  1  0  0  0  0  0  0  0  0  0
   -3.7010   22.4090  -28.9930 C   0  0  0  0  0  0  0  0  0  0  0  0
   -2.6290   21.7690  -29.7540 N   0  0  0  0  0  0  0  0  0  0  0  0
   -1.5140   22.3560  -30.2310 C   0  0  0  0  0  0  0  0  0  0  0  0
   -0.7850   21.4030  -30.9110 C   0  0  0  0  0  0  0  0  0  0  0  0
   -1.4480   20.2330  -30.8540 N   0  0  0  0  0  0  0  0  0  0  0  0
   -2.5640   20.4800  -30.1440 C   0  0  0  0  0  0  0  0  0  0  0  0
   -5.6550   20.2960  -32.6600 C   0  0  0  0  0  0  0  0  0  0  0  0
   -6.9760   20.2300  -32.1830 C   0  0  0  0  0  0  0  0  0  0  0  0
   -9.0850   19.0120  -30.6395 H   0  0  0  0  0  0  0  0  0  0  0  0
   -9.6727   19.8929  -32.0904 H   0  0  0  0  0  0  0  0  0  0  0  0
   -9.6189   18.0974  -32.0904 H   0  0  0  0  0  0  0  0  0  0  0  0
   -7.7243   16.9800  -32.8892 H   0  0  0  0  0  0  0  0  0  0  0  0
   -6.5676   15.1188  -33.2435 H   0  0  0  0  0  0  0  0  0  0  0  0
   -7.0669   15.9044  -34.7797 H   0  0  0  0  0  0  0  0  0  0  0  0
   -5.7389   14.6948  -34.7797 H   0  0  0  0  0  0  0  0  0  0  0  0
   -4.3964   16.2204  -31.9803 H   0  0  0  0  0  0  0  0  0  0  0  0
   -3.9865   14.9832  -33.2164 H   0  0  0  0  0  0  0  0  0  0  0  0
   -3.1402   16.5676  -33.2164 H   0  0  0  0  0  0  0  0  0  0  0  0
   -3.5998   17.4970  -35.1899 H   0  0  0  0  0  0  0  0  0  0  0  0
   -4.3874   16.0490  -35.9037 H   0  0  0  0  0  0  0  0  0  0  0  0
   -5.2429   17.6284  -35.9037 H   0  0  0  0  0  0  0  0  0  0  0  0
   -2.9275   22.3382  -33.0597 H   0  0  0  0  0  0  0  0  0  0  0  0
   -4.6060   23.5922  -32.3055 H   0  0  0  0  0  0  0  0  0  0  0  0
   -6.3091   23.0676  -32.5618 H   0  0  0  0  0  0  0  0  0  0  0  0
   -7.6447   22.6569  -30.8881 H   0  0  0  0  0  0  0  0  0  0  0  0
   -7.0779   22.8661  -29.1734 H   0  0  0  0  0  0  0  0  0  0  0  0
   -7.3085   24.9407  -31.3776 H   0  0  0  0  0  0  0  0  0  0  0  0
   -8.0008   24.9339  -29.6914 H   0  0  0  0  0  0  0  0  0  0  0  0
   -5.3849   25.9001  -30.6661 H   0  0  0  0  0  0  0  0  0  0  0  0
   -6.3131   26.2917  -29.1583 H   0  0  0  0  0  0  0  0  0  0  0  0
   -4.1236   25.2294  -28.6555 H   0  0  0  0  0  0  0  0  0  0  0  0
   -5.5136   24.2325  -28.1008 H   0  0  0  0  0  0  0  0  0  0  0  0
   -3.7921   23.8890  -30.5731 H   0  0  0  0  0  0  0  0  0  0  0  0
   -3.2623   22.9219  -28.1244 H   0  0  0  0  0  0  0  0  0  0  0  0
   -4.4077   21.6268  -28.6787 H   0  0  0  0  0  0  0  0  0  0  0  0
   -1.2339   23.4117  -30.1007 H   0  0  0  0  0  0  0  0  0  0  0  0
    0.1778   21.5710  -31.4158 H   0  0  0  0  0  0  0  0  0  0  0  0
   -1.1580   19.3230  -31.2750 H   0  0  0  0  0  0  0  0  0  0  0  0
   -3.3284   19.7241  -29.9107 H   0  0  0  0  0  0  0  0  0  0  0  0
   -7.4322   21.1204  -31.7257 H   0  0  0  0  0  0  0  0  0  0  0  0
  1  2  1  0
  2  3  2  0
  3  4  1  0
  4  5  1  0
  5  6  1  0
  5  7  1  0
  5  8  1  0
  4  9  2  0
  9 10  1  0
 10 11  1  0
 11 12  2  0
 11 13  1  0
 13 14  2  0
 14 15  1  0
 15 16  1  0
 16 17  1  0
 17 18  1  0
 18 19  1  0
 19 20  1  0
 20 21  1  0
 21 22  1  0
 22 23  1  0
 23 24  1  0
 24 25  2  0
 25 26  1  0
 26 27  2  0
 14 28  1  0
 28 29  2  0
 29  2  1  0
 28  9  1  0
 21 16  1  0
 27 23  1  0
  1 30  1  0
  1 31  1  0
  1 32  1  0
  3 33  1  0
  6 34  1  0
  6 35  1  0
  6 36  1  0
  7 37  1  0
  7 38  1  0
  7 39  1  0
  8 40  1  0
  8 41  1  0
  8 42  1  0
 13 43  1  0
 15 44  1  0
 15 45  1  0
 17 46  1  0
 17 47  1  0
 18 48  1  0
 18 49  1  0
 19 50  1  0
 19 51  1  0
 20 52  1  0
 20 53  1  0
 21 54  1  6
 22 55  1  0
 22 56  1  0
 24 57  1  0
 25 58  1  0
 26 59  1  0
 27 60  1  0
 29 61  1  0
M  CHG  1  26   1
M  END
>  <UniqueID>  (25) 
25

>  <SMILES>  (25) 
Cc1cc(C(C)(C)C)c2oc(=O)cc(CN3CCCC[C@H]3Cn3cc[nH+]c3)c2c1

>  <Energy>  (25) 
109.37296644078529

>  <Genealogy>  (25) 
Cc1cc(C(C)(C)C)c2oc(=O)cc(CN3CCCCC3Cn3cc[nH+]c3)c2c1 (protonated)
Cc1cc(C(C)(C)C)c2oc(=O)cc(CN3CCCC[C@H]3Cn3cc[nH+]c3)c2c1 (chirality)
Cc1cc(C(C)(C)C)c2oc(=O)cc(CN3CCCC[C@H]3Cn3cc[nH+]c3)c2c1 (3D coordinates assigned)
Cc1cc(C(C)(C)C)c2oc(=O)cc(CN3CCCC[C@H]3Cn3cc[nH+]c3)c2c1 (nonaromatic ring conformer: 109.37296644078529 kcal/mol)

>  <smiles>  (25) 
Cc1cc(C(C)(C)C)c2oc(=O)cc(CN3CCCCC3Cn3ccnc3)c2c1

>  <score_type>  (25) 
oracle

>  <origin>  (25) 
adg

>  <m_score__min__energy>  (25) 
-8.9600000000000009

>  <m_primary>  (25) 
energy

$$$$
25:0
     RDKit          3D

 53 56  0  0  0  0  0  0  0  0999 V2000
   -1.1420   18.0530  -33.6910 C   0  0  0  0  0  0  0  0  0  0  0  0
   -0.7770   19.1470  -34.6990 C   0  0  0  0  0  0  0  0  0  0  0  0
   -1.2390   20.4930  -34.2720 N   0  0  0  0  0  0  0  0  0  0  0  0
   -0.1220   21.4790  -34.1270 C   0  0  0  0  0  0  0  0  0  0  0  0
    0.4570   21.8940  -35.4840 C   0  0  0  0  0  0  0  0  0  0  0  0
   -2.0490   20.4060  -33.0330 C   0  0  0  0  0  0  0  0  0  0  0  0
   -2.7360   21.7360  -32.6440 C   0  0  0  0  0  0  0  0  0  0  0  0
   -4.0890   21.8090  -33.1970 N   0  0  0  0  0  0  0  0  0  0  0  0
   -5.2280   21.6390  -32.3400 C   0  0  0  0  0  0  0  0  0  0  0  0
   -5.6020   22.6880  -31.4770 C   0  0  0  0  0  0  0  0  0  0  0  0
   -4.7300   23.7660  -31.2230 C   0  0  0  0  0  0  0  0  0  0  0  0
   -5.1080   24.7950  -30.3620 C   0  0  0  0  0  0  0  0  0  0  0  0
   -6.3550   24.7670  -29.7440 C   0  0  0  0  0  0  0  0  0  0  0  0
   -7.2360   23.7110  -29.9840 C   0  0  0  0  0  0  0  0  0  0  0  0
   -6.8810   22.6520  -30.8550 C   0  0  0  0  0  0  0  0  0  0  0  0
   -7.7440   21.6090  -31.1180 N   0  0  0  0  0  0  0  0  0  0  0  0
   -9.1180   21.6070  -30.5710 C   0  0  0  0  0  0  0  0  0  0  0  0
   -7.2900   20.5590  -31.8760 C   0  0  0  0  0  0  0  0  0  0  0  0
   -8.1550   19.1380  -32.2090 S   0  0  0  0  0  0  0  0  0  0  0  0
   -6.8930   18.4750  -33.0850 C   0  0  0  0  0  0  0  0  0  0  0  0
   -6.8520   17.2150  -33.6750 C   0  0  0  0  0  0  0  0  0  0  0  0
   -5.6650   16.8110  -34.2990 C   0  0  0  0  0  0  0  0  0  0  0  0
   -4.5460   17.6620  -34.3090 C   0  0  0  0  0  0  0  0  0  0  0  0
   -4.6050   18.9300  -33.7050 C   0  0  0  0  0  0  0  0  0  0  0  0
   -5.8120   19.3570  -33.1040 C   0  0  0  0  0  0  0  0  0  0  0  0
   -6.0480   20.5470  -32.4450 N   0  0  0  0  0  0  0  0  0  0  0  0
   -1.0134   18.4385  -32.6688 H   0  0  0  0  0  0  0  0  0  0  0  0
   -2.1894   17.7517  -33.8401 H   0  0  0  0  0  0  0  0  0  0  0  0
   -0.4854   17.1832  -33.8401 H   0  0  0  0  0  0  0  0  0  0  0  0
    0.3167   19.1698  -34.8139 H   0  0  0  0  0  0  0  0  0  0  0  0
   -1.2792   18.9074  -35.6479 H   0  0  0  0  0  0  0  0  0  0  0  0
   -1.9090   20.8320  -35.0080 H   0  0  0  0  0  0  0  0  0  0  0  0
   -0.5031   22.3746  -33.6146 H   0  0  0  0  0  0  0  0  0  0  0  0
    0.6808   21.0002  -33.5471 H   0  0  0  0  0  0  0  0  0  0  0  0
    1.3419   22.5282  -35.3266 H   0  0  0  0  0  0  0  0  0  0  0  0
    0.7456   20.9958  -36.0497 H   0  0  0  0  0  0  0  0  0  0  0  0
   -0.3009   22.4558  -36.0497 H   0  0  0  0  0  0  0  0  0  0  0  0
   -2.8277   19.6431  -33.1801 H   0  0  0  0  0  0  0  0  0  0  0  0
   -1.3591   20.1497  -32.2155 H   0  0  0  0  0  0  0  0  0  0  0  0
   -2.7914   21.8050  -31.5476 H   0  0  0  0  0  0  0  0  0  0  0  0
   -2.1448   22.5685  -33.0533 H   0  0  0  0  0  0  0  0  0  0  0  0
   -4.2200   21.6640  -34.2220 H   0  0  0  0  0  0  0  0  0  0  0  0
   -3.7432   23.7954  -31.7082 H   0  0  0  0  0  0  0  0  0  0  0  0
   -4.4193   25.6311  -30.1705 H   0  0  0  0  0  0  0  0  0  0  0  0
   -6.6475   25.5804  -29.0637 H   0  0  0  0  0  0  0  0  0  0  0  0
   -8.2189   23.7012  -29.4901 H   0  0  0  0  0  0  0  0  0  0  0  0
   -9.0751   21.6071  -29.4718 H   0  0  0  0  0  0  0  0  0  0  0  0
   -9.6518   22.5044  -30.9171 H   0  0  0  0  0  0  0  0  0  0  0  0
   -9.6492   20.7081  -30.9171 H   0  0  0  0  0  0  0  0  0  0  0  0
   -7.7301   16.5529  -33.6518 H   0  0  0  0  0  0  0  0  0  0  0  0
   -5.6081   15.8247  -34.7828 H   0  0  0  0  0  0  0  0  0  0  0  0
   -3.6154   17.3325  -34.7941 H   0  0  0  0  0  0  0  0  0  0  0  0
   -3.7206   19.5841  -33.6998 H   0  0  0  0  0  0  0  0  0  0  0  0
  1  2  1  0
  2  3  1  0
  3  4  1  0
  4  5  1  0
  3  6  1  0
  6  7  1  0
  7  8  1  0
  8  9  1  0
  9 10  2  0
 10 11  1  0
 11 12  2  0
 12 13  1  0
 13 14  2  0
 14 15  1  0
 15 16  2  0
 16 17  1  0
 16 18  1  0
 18 19  1  0
 19 20  1  0
 20 21  2  0
 21 22  1  0
 22 23  2  0
 23 24  1  0
 24 25  2  0
 25 26  1  0
 26  9  1  0
 15 10  1  0
 26 18  2  0
 25 20  1  0
  1 27  1  0
  1 28  1  0
  1 29  1  0
  2 30  1  0
  2 31  1  0
  3 32  1  0
  4 33  1  0
  4 34  1  0
  5 35  1  0
  5 36  1  0
  5 37  1  0
  6 38  1  0
  6 39  1  0
  7 40  1  0
  7 41  1  0
  8 42  1  0
 11 43  1  0
 12 44  1  0
 13 45  1  0
 14 46  1  0
 17 47  1  0
 17 48  1  0
 17 49  1  0
 21 50  1  0
 22 51  1  0
 23 52  1  0
 24 53  1  0
M  CHG  3   3   1  16   1  26   1
M  END
>  <UniqueID>  (26) 
26

>  <SMILES>  (26) 
CC[NH+](CC)CCNc1c2ccccc2[n+](C)c2sc3ccccc3[n+]12

>  <Energy>  (26) 
120.87838796450178

>  <Genealogy>  (26) 
CC[NH+](CC)CCNc1c2ccccc2[n+](C)c2sc3ccccc3[n+]12 (protonated)
CC[NH+](CC)CCNc1c2ccccc2[n+](C)c2sc3ccccc3[n+]12 (3D coordinates assigned)
CC[NH+](CC)CCNc1c2ccccc2[n+](C)c2sc3ccccc3[n+]12 (optimized conformer: 120.87838796450178 kcal/mol)

>  <smiles>  (26) 
CCN(CC)CCNc1c2ccccc2[n+](C)c2sc3ccccc3[n+]12

>  <score_type>  (26) 
oracle

>  <origin>  (26) 
adg

>  <m_score__min__energy>  (26) 
-7.3399999999999999

>  <m_primary>  (26) 
energy

$$$$
26:0
     RDKit          3D

 45 47  0  0  0  0  0  0  0  0999 V2000
   -6.8910   15.6190  -34.2690 C   0  0  0  0  0  0  0  0  0  0  0  0
   -5.9710   16.8370  -34.3160 C   0  0  0  0  0  0  0  0  0  0  0  0
   -6.0390   17.5880  -33.0450 N   0  0  0  0  0  0  0  0  0  0  0  0
   -4.9050   18.5370  -32.8860 C   0  0  0  0  0  0  0  0  0  0  0  0
   -5.3140   19.9930  -33.1680 C   0  0  0  0  0  0  0  0  0  0  0  0
   -6.4110   20.4580  -32.2740 N   0  0  0  0  0  0  0  0  0  0  0  0
   -5.8570   21.1910  -31.1060 C   0  0  0  0  0  0  0  0  0  0  0  0
   -5.6570   22.6660  -31.3710 C   0  0  0  0  0  0  0  0  0  0  0  0
   -6.3150   23.2250  -32.2910 O   0  0  0  0  0  0  0  0  0  0  0  0
   -4.5820   23.4310  -30.7040 C   0  0  0  0  0  0  0  0  0  0  0  0
   -4.5760   24.7720  -30.2920 C   0  0  0  0  0  0  0  0  0  0  0  0
   -5.6820   25.7670  -30.4550 C   0  0  0  0  0  0  0  0  0  0  0  0
   -3.3890   25.0910  -29.7270 N   0  0  0  0  0  0  0  0  0  0  0  0
   -2.6350   23.9830  -29.7930 C   0  0  0  0  0  0  0  0  0  0  0  0
   -1.3250   23.8280  -29.3380 C   0  0  0  0  0  0  0  0  0  0  0  0
   -0.7170   22.5700  -29.4990 C   0  0  0  0  0  0  0  0  0  0  0  0
   -1.4240   21.5070  -30.1000 C   0  0  0  0  0  0  0  0  0  0  0  0
   -2.7450   21.6910  -30.5490 C   0  0  0  0  0  0  0  0  0  0  0  0
   -3.3210   22.9530  -30.3850 C   0  0  0  0  0  0  0  0  0  0  0  0
   -7.3080   19.3510  -31.8420 C   0  0  0  0  0  0  0  0  0  0  0  0
   -7.3650   18.2290  -32.8840 C   0  0  0  0  0  0  0  0  0  0  0  0
   -7.0927   15.3520  -33.2211 H   0  0  0  0  0  0  0  0  0  0  0  0
   -7.8382   15.8552  -34.7760 H   0  0  0  0  0  0  0  0  0  0  0  0
   -6.4048   14.7725  -34.7760 H   0  0  0  0  0  0  0  0  0  0  0  0
   -4.9365   16.5027  -34.4838 H   0  0  0  0  0  0  0  0  0  0  0  0
   -6.2950   17.4955  -35.1354 H   0  0  0  0  0  0  0  0  0  0  0  0
   -4.5297   18.4691  -31.8542 H   0  0  0  0  0  0  0  0  0  0  0  0
   -4.1305   18.2591  -33.6160 H   0  0  0  0  0  0  0  0  0  0  0  0
   -4.4379   20.6412  -33.0188 H   0  0  0  0  0  0  0  0  0  0  0  0
   -5.6812   20.0436  -34.2037 H   0  0  0  0  0  0  0  0  0  0  0  0
   -6.9830   21.1360  -32.8330 H   0  0  0  0  0  0  0  0  0  0  0  0
   -6.5517   21.0784  -30.2606 H   0  0  0  0  0  0  0  0  0  0  0  0
   -4.8686   20.7603  -30.8876 H   0  0  0  0  0  0  0  0  0  0  0  0
   -6.0369   26.0863  -29.4640 H   0  0  0  0  0  0  0  0  0  0  0  0
   -5.3103   26.6407  -31.0104 H   0  0  0  0  0  0  0  0  0  0  0  0
   -6.5117   25.3053  -31.0104 H   0  0  0  0  0  0  0  0  0  0  0  0
   -3.1070   26.0180  -29.3350 H   0  0  0  0  0  0  0  0  0  0  0  0
   -0.7849   24.6633  -28.8683 H   0  0  0  0  0  0  0  0  0  0  0  0
    0.3159   22.4139  -29.1543 H   0  0  0  0  0  0  0  0  0  0  0  0
   -0.9389   20.5269  -30.2185 H   0  0  0  0  0  0  0  0  0  0  0  0
   -3.3061   20.8672  -31.0143 H   0  0  0  0  0  0  0  0  0  0  0  0
   -6.9336   18.9382  -30.8936 H   0  0  0  0  0  0  0  0  0  0  0  0
   -8.3224   19.7587  -31.7210 H   0  0  0  0  0  0  0  0  0  0  0  0
   -8.0936   17.4720  -32.5584 H   0  0  0  0  0  0  0  0  0  0  0  0
   -7.6654   18.6616  -33.8497 H   0  0  0  0  0  0  0  0  0  0  0  0
  1  2  1  0
  2  3  1  0
  3  4  1  0
  4  5  1  0
  5  6  1  0
  6  7  1  0
  7  8  1  0
  8  9  2  0
  8 10  1  0
 10 11  2  0
 11 12  1  0
 11 13  1  0
 13 14  1  0
 14 15  2  0
 15 16  1  0
 16 17  2  0
 17 18  1  0
 18 19  2  0
  6 20  1  0
 20 21  1  0
 21  3  1  0
 19 10  1  0
 19 14  1  0
  1 22  1  0
  1 23  1  0
  1 24  1  0
  2 25  1  0
  2 26  1  0
  4 27  1  0
  4 28  1  0
  5 29  1  0
  5 30  1  0
  6 31  1  0
  7 32  1  0
  7 33  1  0
 12 34  1  0
 12 35  1  0
 12 36  1  0
 13 37  1  0
 15 38  1  0
 16 39  1  0
 17 40  1  0
 18 41  1  0
 20 42  1  0
 20 43  1  0
 21 44  1  0
 21 45  1  0
M  CHG  1   6   1
M  END
>  <UniqueID>  (27) 
27

>  <SMILES>  (27) 
CCN1CC[NH+](CC(=O)c2c(C)[nH]c3ccccc23)CC1

>  <Energy>  (27) 
95.54033696340284

>  <Genealogy>  (27) 
CCN1CC[NH+](CC(=O)c2c(C)[nH]c3ccccc23)CC1 (protonated)
CCN1CC[NH+](CC(=O)c2c(C)[nH]c3ccccc23)CC1 (3D coordinates assigned)
CCN1CC[NH+](CC(=O)c2c(C)[nH]c3ccccc23)CC1 (nonaromatic ring conformer: 95.54033696340284 kcal/mol)

>  <smiles>  (27) 
CCN1CCN(CC(=O)c2c(C)[nH]c3ccccc23)CC1

>  <score_type>  (27) 
oracle

>  <origin>  (27) 
adg

>  <m_score__min__energy>  (27) 
-7.2199999999999998

>  <m_primary>  (27) 
energy

$$$$
27:0
     RDKit          3D

 46 48  0  0  0  0  0  0  0  0999 V2000
   -9.0800   19.1920  -32.6940 C   0  0  0  0  0  0  0  0  0  0  0  0
   -8.3440   20.3870  -32.1650 C   0  0  0  0  0  0  0  0  0  0  0  0
   -9.0600   21.5430  -31.7660 C   0  0  0  0  0  0  0  0  0  0  0  0
   -8.3860   22.6560  -31.2340 C   0  0  0  0  0  0  0  0  0  0  0  0
   -6.9980   22.5810  -31.0950 C   0  0  0  0  0  0  0  0  0  0  0  0
   -6.3060   21.4590  -31.4740 C   0  0  0  0  0  0  0  0  0  0  0  0
   -6.9430   20.3390  -32.0040 C   0  0  0  0  0  0  0  0  0  0  0  0
   -4.9690   21.6890  -31.2370 C   0  0  0  0  0  0  0  0  0  0  0  0
   -4.9070   22.9820  -30.7240 C   0  0  0  0  0  0  0  0  0  0  0  0
   -3.6350   23.6560  -30.2980 C   0  0  0  0  0  0  0  0  0  0  0  0
   -3.0810   22.9800  -29.1200 N   0  0  0  0  0  0  0  0  0  0  0  0
   -4.0440   23.0130  -28.0110 C   0  0  0  0  0  0  0  0  0  0  0  0
   -3.8130   24.2430  -27.1230 C   0  0  0  0  0  0  0  0  0  0  0  0
   -2.4640   24.9220  -27.3960 C   0  0  0  0  0  0  0  0  0  0  0  0
   -1.6590   25.0240  -26.1280 C   0  0  0  0  0  0  0  0  0  0  0  0
   -1.6490   26.2140  -25.3880 C   0  0  0  0  0  0  0  0  0  0  0  0
   -0.8690   26.2990  -24.2310 C   0  0  0  0  0  0  0  0  0  0  0  0
   -0.1170   25.2370  -23.8340 N   0  0  0  0  0  0  0  0  0  0  0  0
   -0.0990   24.0760  -24.5430 C   0  0  0  0  0  0  0  0  0  0  0  0
   -0.8640   23.9500  -25.7050 C   0  0  0  0  0  0  0  0  0  0  0  0
   -6.1530   23.5150  -30.6100 N   0  0  0  0  0  0  0  0  0  0  0  0
   -6.5050   24.8650  -30.1620 C   0  0  0  0  0  0  0  0  0  0  0  0
   -9.4517   18.5884  -31.8529 H   0  0  0  0  0  0  0  0  0  0  0  0
   -9.9288   19.5266  -33.3085 H   0  0  0  0  0  0  0  0  0  0  0  0
   -8.3993   18.5846  -33.3085 H   0  0  0  0  0  0  0  0  0  0  0  0
  -10.1544   21.5697  -31.8737 H   0  0  0  0  0  0  0  0  0  0  0  0
   -8.9361   23.5606  -30.9355 H   0  0  0  0  0  0  0  0  0  0  0  0
   -6.3707   19.4438  -32.2885 H   0  0  0  0  0  0  0  0  0  0  0  0
   -4.1305   20.9996  -31.4147 H   0  0  0  0  0  0  0  0  0  0  0  0
   -2.9058   23.6116  -31.1204 H   0  0  0  0  0  0  0  0  0  0  0  0
   -3.8485   24.7052  -30.0459 H   0  0  0  0  0  0  0  0  0  0  0  0
   -2.9220   21.9770  -29.3780 H   0  0  0  0  0  0  0  0  0  0  0  0
   -5.0642   23.0508  -28.4206 H   0  0  0  0  0  0  0  0  0  0  0  0
   -3.9089   22.1079  -27.4006 H   0  0  0  0  0  0  0  0  0  0  0  0
   -4.6175   24.9693  -27.3107 H   0  0  0  0  0  0  0  0  0  0  0  0
   -3.8097   23.9032  -26.0768 H   0  0  0  0  0  0  0  0  0  0  0  0
   -1.9033   24.3296  -28.1341 H   0  0  0  0  0  0  0  0  0  0  0  0
   -2.6475   25.9350  -27.7834 H   0  0  0  0  0  0  0  0  0  0  0  0
   -2.2505   27.0749  -25.7151 H   0  0  0  0  0  0  0  0  0  0  0  0
   -0.8632   27.2268  -23.6401 H   0  0  0  0  0  0  0  0  0  0  0  0
    0.4610   25.3160  -22.9680 H   0  0  0  0  0  0  0  0  0  0  0  0
    0.5200   23.2338  -24.2001 H   0  0  0  0  0  0  0  0  0  0  0  0
   -0.8426   23.0148  -26.2838 H   0  0  0  0  0  0  0  0  0  0  0  0
   -6.5131   24.8960  -29.0625 H   0  0  0  0  0  0  0  0  0  0  0  0
   -5.7640   25.5828  -30.5436 H   0  0  0  0  0  0  0  0  0  0  0  0
   -7.5022   25.1296  -30.5436 H   0  0  0  0  0  0  0  0  0  0  0  0
  1  2  1  0
  2  3  2  0
  3  4  1  0
  4  5  2  0
  5  6  1  0
  6  7  2  0
  6  8  1  0
  8  9  2  0
  9 10  1  0
 10 11  1  0
 11 12  1  0
 12 13  1  0
 13 14  1  0
 14 15  1  0
 15 16  2  0
 16 17  1  0
 17 18  2  0
 18 19  1  0
 19 20  2  0
  9 21  1  0
 21 22  1  0
  7  2  1  0
 20 15  1  0
 21  5  1  0
  1 23  1  0
  1 24  1  0
  1 25  1  0
  3 26  1  0
  4 27  1  0
  7 28  1  0
  8 29  1  0
 10 30  1  0
 10 31  1  0
 11 32  1  0
 12 33  1  0
 12 34  1  0
 13 35  1  0
 13 36  1  0
 14 37  1  0
 14 38  1  0
 16 39  1  0
 17 40  1  0
 18 41  1  0
 19 42  1  0
 20 43  1  0
 22 44  1  0
 22 45  1  0
 22 46  1  0
M  CHG  1  18   1
M  END
>  <UniqueID>  (28) 
28

>  <SMILES>  (28) 
Cc1ccc2c(c1)cc(CNCCCc1cc[nH+]cc1)n2C

>  <Energy>  (28) 
74.20215589643918

>  <Genealogy>  (28) 
Cc1ccc2c(c1)cc(CNCCCc1cc[nH+]cc1)n2C (protonated)
Cc1ccc2c(c1)cc(CNCCCc1cc[nH+]cc1)n2C (3D coordinates assigned)
Cc1ccc2c(c1)cc(CNCCCc1cc[nH+]cc1)n2C (optimized conformer: 74.20215589643918 kcal/mol)

>  <smiles>  (28) 
Cc1ccc2c(c1)cc(CNCCCc1ccncc1)n2C

>  <score_type>  (28) 
oracle

>  <origin>  (28) 
adg

>  <m_score__min__energy>  (28) 
-8.7599999999999998

>  <m_primary>  (28) 
energy

$$$$
28:0
     RDKit          3D

 34 35  0  0  0  0  0  0  0  0999 V2000
   -5.7350   26.6560  -30.1980 O   0  0  0  0  0  0  0  0  0  0  0  0
   -5.2490   25.5640  -30.5980 C   0  0  0  0  0  0  0  0  0  0  0  0
   -6.1370   24.5610  -31.2770 C   0  0  0  0  0  0  0  0  0  0  0  0
   -5.3630   23.5240  -31.9800 N   0  0  0  0  0  0  0  0  0  0  0  0
   -5.5110   22.1930  -31.3720 C   0  0  0  0  0  0  0  0  0  0  0  0
   -6.8240   21.5810  -31.7510 C   0  0  0  0  0  0  0  0  0  0  0  0
   -6.9990   20.4450  -32.5310 C   0  0  0  0  0  0  0  0  0  0  0  0
   -8.3420   20.0840  -32.6810 C   0  0  0  0  0  0  0  0  0  0  0  0
   -9.2240   20.9270  -32.0170 C   0  0  0  0  0  0  0  0  0  0  0  0
   -8.3300   22.1230  -31.2400 S   0  0  0  0  0  0  0  0  0  0  0  0
   -3.8530   25.2800  -30.4430 N   0  0  0  0  0  0  0  0  0  0  0  0
   -3.2830   24.2290  -29.6500 C   0  0  0  0  0  0  0  0  0  0  0  0
   -2.3910   23.2870  -30.1900 C   0  0  0  0  0  0  0  0  0  0  0  0
   -1.8390   22.2930  -29.3770 C   0  0  0  0  0  0  0  0  0  0  0  0
   -2.1520   22.2300  -28.0150 C   0  0  0  0  0  0  0  0  0  0  0  0
   -1.5730   21.2110  -27.2450 O   0  0  0  0  0  0  0  0  0  0  0  0
   -2.1380   19.9160  -27.0550 C   0  0  0  0  0  0  0  0  0  0  0  0
   -2.3440   19.6840  -25.7080 F   0  0  0  0  0  0  0  0  0  0  0  0
   -1.2630   18.9650  -27.5460 F   0  0  0  0  0  0  0  0  0  0  0  0
   -3.0280   23.1880  -27.4690 C   0  0  0  0  0  0  0  0  0  0  0  0
   -3.5810   24.1820  -28.2820 C   0  0  0  0  0  0  0  0  0  0  0  0
   -6.7712   24.0779  -30.5191 H   0  0  0  0  0  0  0  0  0  0  0  0
   -6.7441   25.0952  -32.0227 H   0  0  0  0  0  0  0  0  0  0  0  0
   -4.3490   23.7860  -31.9640 H   0  0  0  0  0  0  0  0  0  0  0  0
   -4.6953   21.5433  -31.7222 H   0  0  0  0  0  0  0  0  0  0  0  0
   -5.4724   22.2978  -30.2777 H   0  0  0  0  0  0  0  0  0  0  0  0
   -6.1667   19.8865  -32.9843 H   0  0  0  0  0  0  0  0  0  0  0  0
   -8.6690   19.2141  -33.2696 H   0  0  0  0  0  0  0  0  0  0  0  0
  -10.3196   20.8296  -32.0016 H   0  0  0  0  0  0  0  0  0  0  0  0
   -2.1261   23.3320  -31.2567 H   0  0  0  0  0  0  0  0  0  0  0  0
   -1.1516   21.5529  -29.8125 H   0  0  0  0  0  0  0  0  0  0  0  0
   -3.0996   19.8585  -27.5860 H   0  0  0  0  0  0  0  0  0  0  0  0
   -3.2782   23.1541  -26.3984 H   0  0  0  0  0  0  0  0  0  0  0  0
   -4.2552   24.9328  -27.8441 H   0  0  0  0  0  0  0  0  0  0  0  0
  1  2  2  0
  2  3  1  0
  3  4  1  0
  4  5  1  0
  5  6  1  0
  6  7  2  0
  7  8  1  0
  8  9  2  0
  9 10  1  0
  2 11  1  0
 11 12  1  0
 12 13  2  0
 13 14  1  0
 14 15  2  0
 15 16  1  0
 16 17  1  0
 17 18  1  0
 17 19  1  0
 15 20  1  0
 20 21  2  0
 10  6  1  0
 21 12  1  0
  3 22  1  0
  3 23  1  0
  4 24  1  0
  5 25  1  0
  5 26  1  0
  7 27  1  0
  8 28  1  0
  9 29  1  0
 13 30  1  0
 14 31  1  0
 17 32  1  0
 20 33  1  0
 21 34  1  0
M  CHG  1  11  -1
M  END
>  <UniqueID>  (29) 
29

>  <SMILES>  (29) 
O=C(CNCc1cccs1)[N-]c1ccc(OC(F)F)cc1

>  <Energy>  (29) 
61.551757632686545

>  <Genealogy>  (29) 
O=C(CNCc1cccs1)[N-]c1ccc(OC(F)F)cc1 (protonated)
O=C(CNCc1cccs1)[N-]c1ccc(OC(F)F)cc1 (3D coordinates assigned)
O=C(CNCc1cccs1)[N-]c1ccc(OC(F)F)cc1 (optimized conformer: 61.551757632686545 kcal/mol)

>  <smiles>  (29) 
O=C(CNCc1cccs1)Nc1ccc(OC(F)F)cc1

>  <score_type>  (29) 
oracle

>  <origin>  (29) 
adg

>  <m_score__min__energy>  (29) 
-7.6600000000000001

>  <m_primary>  (29) 
energy

$$$$
29:0
     RDKit          3D

 40 41  0  0  0  0  0  0  0  0999 V2000
   -6.1540   25.6410  -29.4440 C   0  0  0  0  0  0  0  0  0  0  0  0
   -5.3440   25.3120  -30.6490 C   0  0  0  0  0  0  0  0  0  0  0  0
   -4.2830   24.3760  -30.4630 N   0  0  0  0  0  0  0  0  0  0  0  0
   -3.4330   24.5730  -29.3530 C   0  0  0  0  0  0  0  0  0  0  0  0
   -3.6430   23.6430  -28.1980 C   0  0  0  0  0  0  0  0  0  0  0  0
   -4.7780   23.0810  -30.7170 C   0  0  0  0  0  0  0  0  0  0  0  0
   -6.2430   22.9790  -31.0910 C   0  0  0  0  0  0  0  0  0  0  0  0
   -6.3170   22.3950  -32.4060 N   0  0  0  0  0  0  0  0  0  0  0  0
   -6.3650   21.0200  -32.7070 C   0  0  0  0  0  0  0  0  0  0  0  0
   -7.4690   20.2130  -32.5780 C   0  0  0  0  0  0  0  0  0  0  0  0
   -9.1110   20.9410  -31.9640 Br  0  0  0  0  0  0  0  0  0  0  0  0
   -7.4560   18.8600  -32.8790 C   0  0  0  0  0  0  0  0  0  0  0  0
   -6.2820   18.2860  -33.3290 C   0  0  0  0  0  0  0  0  0  0  0  0
   -6.1880   16.9470  -33.6470 C   0  0  0  0  0  0  0  0  0  0  0  0
   -7.2230   16.2300  -33.5190 O   0  0  0  0  0  0  0  0  0  0  0  0
   -5.0130   16.4530  -34.0780 N   0  0  0  0  0  0  0  0  0  0  0  0
   -3.9310   17.1960  -34.2140 N   0  0  0  0  0  0  0  0  0  0  0  0
   -3.9510   18.5150  -33.9210 C   0  0  0  0  0  0  0  0  0  0  0  0
   -2.9050   19.2160  -34.0560 O   0  0  0  0  0  0  0  0  0  0  0  0
   -5.1470   19.0550  -33.4740 C   0  0  0  0  0  0  0  0  0  0  0  0
   -5.1960   20.3960  -33.1660 C   0  0  0  0  0  0  0  0  0  0  0  0
   -3.5970   21.4140  -33.3830 Br  0  0  0  0  0  0  0  0  0  0  0  0
   -5.5758   25.4061  -28.5382 H   0  0  0  0  0  0  0  0  0  0  0  0
   -6.4044   26.7121  -29.4517 H   0  0  0  0  0  0  0  0  0  0  0  0
   -7.0803   25.0479  -29.4517 H   0  0  0  0  0  0  0  0  0  0  0  0
   -6.0251   24.8996  -31.4080 H   0  0  0  0  0  0  0  0  0  0  0  0
   -4.8557   26.2539  -30.9395 H   0  0  0  0  0  0  0  0  0  0  0  0
   -2.3951   24.4543  -29.6975 H   0  0  0  0  0  0  0  0  0  0  0  0
   -3.6661   25.5786  -28.9730 H   0  0  0  0  0  0  0  0  0  0  0  0
   -3.5182   24.1955  -27.2550 H   0  0  0  0  0  0  0  0  0  0  0  0
   -4.6586   23.2231  -28.2453 H   0  0  0  0  0  0  0  0  0  0  0  0
   -2.9064   22.8274  -28.2453 H   0  0  0  0  0  0  0  0  0  0  0  0
   -4.1913   22.6552  -31.5443 H   0  0  0  0  0  0  0  0  0  0  0  0
   -4.6823   22.5404  -29.7638 H   0  0  0  0  0  0  0  0  0  0  0  0
   -6.7715   22.3413  -30.3671 H   0  0  0  0  0  0  0  0  0  0  0  0
   -6.7141   23.9730  -31.0826 H   0  0  0  0  0  0  0  0  0  0  0  0
   -6.3430   23.0600  -33.2210 H   0  0  0  0  0  0  0  0  0  0  0  0
   -8.3656   18.2527  -32.7616 H   0  0  0  0  0  0  0  0  0  0  0  0
   -4.9500   15.4310  -34.3200 H   0  0  0  0  0  0  0  0  0  0  0  0
   -3.0360   16.7320  -34.5610 H   0  0  0  0  0  0  0  0  0  0  0  0
  1  2  1  0
  2  3  1  0
  3  4  1  0
  4  5  1  0
  3  6  1  0
  6  7  1  0
  7  8  1  0
  8  9  1  0
  9 10  2  0
 10 11  1  0
 10 12  1  0
 12 13  2  0
 13 14  1  0
 14 15  2  0
 14 16  1  0
 16 17  1  0
 17 18  1  0
 18 19  2  0
 18 20  1  0
 20 21  2  0
 21 22  1  0
 21  9  1  0
 20 13  1  0
  1 23  1  0
  1 24  1  0
  1 25  1  0
  2 26  1  0
  2 27  1  0
  4 28  1  0
  4 29  1  0
  5 30  1  0
  5 31  1  0
  5 32  1  0
  6 33  1  0
  6 34  1  0
  7 35  1  0
  7 36  1  0
  8 37  1  0
 12 38  1  0
 16 39  1  0
 17 40  1  0
M  END
>  <smiles>  (30) 
CCN(CC)CCNc1c(Br)cc2c(=O)[nH][nH]c(=O)c2c1Br

>  <score_type>  (30) 
oracle

>  <origin>  (30) 
adg

>  <m_score__min__energy>  (30) 
-8.0800000000000001

>  <m_primary>  (30) 
energy

$$$$
30:0
     RDKit          3D

 49 52  0  0  0  0  0  0  0  0999 V2000
   -6.5350   25.2910  -29.4050 C   0  0  0  0  0  0  0  0  0  0  0  0
   -5.7120   26.0510  -30.4400 C   0  0  0  0  0  0  0  0  0  0  0  0
   -4.3700   25.5660  -30.4730 O   0  0  0  0  0  0  0  0  0  0  0  0
   -3.9810   24.2230  -30.6230 C   0  0  0  0  0  0  0  0  0  0  0  0
   -4.7810   23.2780  -31.2880 C   0  0  0  0  0  0  0  0  0  0  0  0
   -4.3870   21.9300  -31.3790 C   0  0  0  0  0  0  0  0  0  0  0  0
   -3.0910   21.5660  -30.9510 C   0  0  0  0  0  0  0  0  0  0  0  0
   -2.3100   22.5050  -30.2490 C   0  0  0  0  0  0  0  0  0  0  0  0
   -2.7560   23.8280  -30.0770 C   0  0  0  0  0  0  0  0  0  0  0  0
   -1.9970   24.7860  -29.3860 O   0  0  0  0  0  0  0  0  0  0  0  0
   -1.8420   24.8310  -27.9710 C   0  0  0  0  0  0  0  0  0  0  0  0
   -2.6040   20.1530  -31.2600 C   0  0  2  0  0  0  0  0  0  0  0  0
   -1.0790   19.9730  -31.1640 C   0  0  0  0  0  0  0  0  0  0  0  0
   -3.0790   19.7530  -32.6750 C   0  0  0  0  0  0  0  0  0  0  0  0
   -4.5820   19.9060  -32.8120 C   0  0  0  0  0  0  0  0  0  0  0  0
   -5.3300   19.0960  -33.6970 C   0  0  0  0  0  0  0  0  0  0  0  0
   -4.6600   18.0880  -34.5940 C   0  0  0  0  0  0  0  0  0  0  0  0
   -6.6890   19.2050  -33.7260 N   0  0  0  0  0  0  0  0  0  0  0  0
   -7.3650   20.0480  -32.8980 C   0  0  0  0  0  0  0  0  0  0  0  0
   -8.7710   20.0490  -32.9010 C   0  0  0  0  0  0  0  0  0  0  0  0
   -9.4770   20.8480  -32.0030 C   0  0  0  0  0  0  0  0  0  0  0  0
   -8.7900   21.6330  -31.0790 C   0  0  0  0  0  0  0  0  0  0  0  0
   -7.3940   21.6530  -31.0730 C   0  0  0  0  0  0  0  0  0  0  0  0
   -6.6580   20.9030  -32.0180 C   0  0  0  0  0  0  0  0  0  0  0  0
   -5.2390   20.9130  -32.0730 C   0  0  0  0  0  0  0  0  0  0  0  0
   -6.2158   25.5858  -28.3944 H   0  0  0  0  0  0  0  0  0  0  0  0
   -7.6007   25.5294  -29.5370 H   0  0  0  0  0  0  0  0  0  0  0  0
   -6.3821   24.2097  -29.5370 H   0  0  0  0  0  0  0  0  0  0  0  0
   -6.1683   25.9185  -31.4321 H   0  0  0  0  0  0  0  0  0  0  0  0
   -5.6962   27.1163  -30.1662 H   0  0  0  0  0  0  0  0  0  0  0  0
   -5.7297   23.5969  -31.7444 H   0  0  0  0  0  0  0  0  0  0  0  0
   -1.3396   22.2000  -29.8303 H   0  0  0  0  0  0  0  0  0  0  0  0
   -2.7916   24.5553  -27.4892 H   0  0  0  0  0  0  0  0  0  0  0  0
   -1.0569   24.1237  -27.6655 H   0  0  0  0  0  0  0  0  0  0  0  0
   -1.5577   25.8488  -27.6655 H   0  0  0  0  0  0  0  0  0  0  0  0
   -3.0368   19.5003  -30.4876 H   0  0  0  0  0  0  0  0  0  0  0  0
   -0.7798   19.9377  -30.1061 H   0  0  0  0  0  0  0  0  0  0  0  0
   -0.7887   19.0344  -31.6587 H   0  0  0  0  0  0  0  0  0  0  0  0
   -0.5782   20.8183  -31.6587 H   0  0  0  0  0  0  0  0  0  0  0  0
   -2.5836   20.3980  -33.4156 H   0  0  0  0  0  0  0  0  0  0  0  0
   -2.8191   18.6977  -32.8447 H   0  0  0  0  0  0  0  0  0  0  0  0
   -4.1551   17.3284  -33.9791 H   0  0  0  0  0  0  0  0  0  0  0  0
   -5.4158   17.6026  -35.2289 H   0  0  0  0  0  0  0  0  0  0  0  0
   -3.9199   18.5970  -35.2289 H   0  0  0  0  0  0  0  0  0  0  0  0
   -7.2310   18.5900  -34.3760 H   0  0  0  0  0  0  0  0  0  0  0  0
   -9.3169   19.4158  -33.6159 H   0  0  0  0  0  0  0  0  0  0  0  0
  -10.5768   20.8588  -32.0238 H   0  0  0  0  0  0  0  0  0  0  0  0
   -9.3498   22.2392  -30.3516 H   0  0  0  0  0  0  0  0  0  0  0  0
   -6.8615   22.2588  -30.3250 H   0  0  0  0  0  0  0  0  0  0  0  0
  1  2  1  0
  2  3  1  0
  3  4  1  0
  4  5  2  0
  5  6  1  0
  6  7  2  0
  7  8  1  0
  8  9  2  0
  9 10  1  0
 10 11  1  0
  7 12  1  0
 12 13  1  0
 12 14  1  0
 14 15  1  0
 15 16  2  0
 16 17  1  0
 16 18  1  0
 18 19  2  0
 19 20  1  0
 20 21  2  0
 21 22  1  0
 22 23  2  0
 23 24  1  0
 24 25  2  0
  9  4  1  0
 25 15  1  0
 25  6  1  0
 24 19  1  0
  1 26  1  0
  1 27  1  0
  1 28  1  0
  2 29  1  0
  2 30  1  0
  5 31  1  0
  8 32  1  0
 11 33  1  0
 11 34  1  0
 11 35  1  0
 12 36  1  1
 13 37  1  0
 13 38  1  0
 13 39  1  0
 14 40  1  0
 14 41  1  0
 17 42  1  0
 17 43  1  0
 17 44  1  0
 18 45  1  0
 20 46  1  0
 21 47  1  0
 22 48  1  0
 23 49  1  0
M  CHG  1  18   1
M  END
>  <UniqueID>  (31) 
30

>  <SMILES>  (31) 
CCOc1cc2c(cc1OC)[C@H](C)Cc1c(C)[nH+]c3ccccc3c1-2

>  <Energy>  (31) 
70.11959054847351

>  <Genealogy>  (31) 
CCOc1cc2c(cc1OC)C(C)Cc1c(C)[nH+]c3ccccc3c1-2 (protonated)
CCOc1cc2c(cc1OC)[C@H](C)Cc1c(C)[nH+]c3ccccc3c1-2 (chirality)
CCOc1cc2c(cc1OC)[C@H](C)Cc1c(C)[nH+]c3ccccc3c1-2 (3D coordinates assigned)
CCOc1cc2c(cc1OC)[C@H](C)Cc1c(C)[nH+]c3ccccc3c1-2 (nonaromatic ring conformer: 70.11959054847351 kcal/mol)

>  <smiles>  (31) 
CCOc1cc2c(cc1OC)C(C)Cc1c(C)nc3ccccc3c1-2

>  <score_type>  (31) 
oracle

>  <origin>  (31) 
adg

>  <m_score__min__energy>  (31) 
-9.7100000000000009

>  <m_primary>  (31) 
energy

$$$$
31:0
     RDKit          3D

 85 88  0  0  0  0  0  0  0  0999 V2000
   -2.7110   20.7640  -27.7450 C   0  0  0  0  0  0  0  0  0  0  0  0
   -2.9090   20.6900  -29.2530 C   0  0  0  0  0  0  0  0  0  0  0  0
   -2.8900   22.0590  -29.8330 N   0  0  0  0  0  0  0  0  0  0  0  0
   -1.5750   22.4460  -30.4070 C   0  0  0  0  0  0  0  0  0  0  0  0
   -0.5360   21.3150  -30.4050 C   0  0  0  0  0  0  0  0  0  0  0  0
   -3.4300   23.0950  -28.9250 C   0  0  0  0  0  0  0  0  0  0  0  0
   -3.1780   24.5100  -29.4750 C   0  0  0  0  0  0  0  0  0  0  0  0
   -4.1070   24.7910  -30.4900 O   0  0  0  0  0  0  0  0  0  0  0  0
   -5.3470   25.2270  -29.9570 C   0  0  0  0  0  0  0  0  0  0  0  0
   -6.5070   24.6520  -30.7840 C   0  0  0  0  0  0  0  0  0  0  0  0
   -6.0390   23.8800  -32.0320 C   0  0  0  0  0  0  0  0  0  0  0  0
   -5.2310   22.7130  -31.6580 N   0  0  0  0  0  0  0  0  0  0  0  0
   -5.3980   21.4350  -32.2980 C   0  0  0  0  0  0  0  0  0  0  0  0
   -6.6110   20.7330  -32.1550 C   0  0  0  0  0  0  0  0  0  0  0  0
   -7.7170   21.3350  -31.5260 C   0  0  0  0  0  0  0  0  0  0  0  0
   -8.9380   20.6640  -31.4340 C   0  0  0  0  0  0  0  0  0  0  0  0
   -9.0730   19.3920  -31.9740 C   0  0  0  0  0  0  0  0  0  0  0  0
   -7.9780   18.7610  -32.5720 C   0  0  0  0  0  0  0  0  0  0  0  0
   -6.7100   19.3990  -32.6400 C   0  0  0  0  0  0  0  0  0  0  0  0
   -5.5920   18.7570  -33.1490 N   0  0  0  0  0  0  0  0  0  0  0  0
   -5.5930   17.2860  -33.3240 C   0  0  0  0  0  0  0  0  0  0  0  0
   -4.4450   19.4870  -33.4180 C   0  0  0  0  0  0  0  0  0  0  0  0
   -3.3500   18.9180  -34.1090 C   0  0  0  0  0  0  0  0  0  0  0  0
   -2.1400   19.5970  -34.2220 C   0  0  0  0  0  0  0  0  0  0  0  0
   -1.9820   20.8800  -33.7040 C   0  0  0  0  0  0  0  0  0  0  0  0
   -0.6770   21.3980  -33.6580 O   0  0  0  0  0  0  0  0  0  0  0  0
    0.5720   20.7250  -33.8750 C   0  0  0  0  0  0  0  0  0  0  0  0
    1.0490   19.6750  -32.8270 C   0  0  0  0  0  0  0  0  0  0  0  0
    0.8310   18.1960  -33.0610 N   0  0  0  0  0  0  0  0  0  0  0  0
    2.0390   17.4570  -32.5780 C   0  0  0  0  0  0  0  0  0  0  0  0
    0.5460   17.8590  -34.4970 C   0  0  0  0  0  0  0  0  0  0  0  0
    0.0820   16.4050  -34.7390 C   0  0  0  0  0  0  0  0  0  0  0  0
   -1.1030   16.0390  -33.8450 C   0  0  0  0  0  0  0  0  0  0  0  0
   -0.7930   16.3540  -32.3860 C   0  0  0  0  0  0  0  0  0  0  0  0
   -0.3590   17.8170  -32.2360 C   0  0  0  0  0  0  0  0  0  0  0  0
   -3.1130   21.5280  -33.1710 C   0  0  0  0  0  0  0  0  0  0  0  0
   -4.3260   20.8320  -32.9780 C   0  0  0  0  0  0  0  0  0  0  0  0
   -3.6254   20.4223  -27.2379 H   0  0  0  0  0  0  0  0  0  0  0  0
   -1.8679   20.1203  -27.4539 H   0  0  0  0  0  0  0  0  0  0  0  0
   -2.4967   21.8029  -27.4539 H   0  0  0  0  0  0  0  0  0  0  0  0
   -2.0991   20.0937  -29.6985 H   0  0  0  0  0  0  0  0  0  0  0  0
   -3.8792   20.2185  -29.4685 H   0  0  0  0  0  0  0  0  0  0  0  0
   -1.7328   22.7690  -31.4466 H   0  0  0  0  0  0  0  0  0  0  0  0
   -1.1735   23.2485  -29.7707 H   0  0  0  0  0  0  0  0  0  0  0  0
   -0.2889   21.0460  -29.3674 H   0  0  0  0  0  0  0  0  0  0  0  0
   -0.9489   20.4369  -30.9231 H   0  0  0  0  0  0  0  0  0  0  0  0
    0.3739   21.6521  -30.9231 H   0  0  0  0  0  0  0  0  0  0  0  0
   -4.5135   22.9425  -28.8122 H   0  0  0  0  0  0  0  0  0  0  0  0
   -2.9201   23.0048  -27.9545 H   0  0  0  0  0  0  0  0  0  0  0  0
   -3.2890   25.2439  -28.6632 H   0  0  0  0  0  0  0  0  0  0  0  0
   -2.1589   24.5674  -29.8851 H   0  0  0  0  0  0  0  0  0  0  0  0
   -5.4367   24.8834  -28.9159 H   0  0  0  0  0  0  0  0  0  0  0  0
   -5.3885   26.3256  -29.9928 H   0  0  0  0  0  0  0  0  0  0  0  0
   -7.0853   23.9675  -30.1461 H   0  0  0  0  0  0  0  0  0  0  0  0
   -7.1117   25.5018  -31.1334 H   0  0  0  0  0  0  0  0  0  0  0  0
   -6.9202   23.5411  -32.5965 H   0  0  0  0  0  0  0  0  0  0  0  0
   -5.4211   24.5508  -32.6470 H   0  0  0  0  0  0  0  0  0  0  0  0
   -4.7170   22.7080  -30.7490 H   0  0  0  0  0  0  0  0  0  0  0  0
   -7.6183   22.3453  -31.1022 H   0  0  0  0  0  0  0  0  0  0  0  0
   -9.7927   21.1429  -30.9339 H   0  0  0  0  0  0  0  0  0  0  0  0
  -10.0450   18.8788  -31.9312 H   0  0  0  0  0  0  0  0  0  0  0  0
   -8.1000   17.7538  -32.9970 H   0  0  0  0  0  0  0  0  0  0  0  0
   -5.5933   16.7994  -32.3375 H   0  0  0  0  0  0  0  0  0  0  0  0
   -6.4914   16.9838  -33.8822 H   0  0  0  0  0  0  0  0  0  0  0  0
   -4.6951   16.9825  -33.8822 H   0  0  0  0  0  0  0  0  0  0  0  0
   -3.4562   17.9225  -34.5647 H   0  0  0  0  0  0  0  0  0  0  0  0
   -1.2935   19.1114  -34.7296 H   0  0  0  0  0  0  0  0  0  0  0  0
    0.4962   20.2059  -34.8418 H   0  0  0  0  0  0  0  0  0  0  0  0
    1.3220   21.5270  -33.8096 H   0  0  0  0  0  0  0  0  0  0  0  0
    2.1334   19.8181  -32.7100 H   0  0  0  0  0  0  0  0  0  0  0  0
    0.4048   19.8837  -31.9601 H   0  0  0  0  0  0  0  0  0  0  0  0
    2.0494   17.4506  -31.4781 H   0  0  0  0  0  0  0  0  0  0  0  0
    2.0091   16.4224  -32.9504 H   0  0  0  0  0  0  0  0  0  0  0  0
    2.9465   17.9547  -32.9504 H   0  0  0  0  0  0  0  0  0  0  0  0
   -0.2433   18.5351  -34.8575 H   0  0  0  0  0  0  0  0  0  0  0  0
    1.4965   17.9761  -35.0382 H   0  0  0  0  0  0  0  0  0  0  0  0
   -0.2174   16.2959  -35.7918 H   0  0  0  0  0  0  0  0  0  0  0  0
    0.9175   15.7314  -34.4977 H   0  0  0  0  0  0  0  0  0  0  0  0
   -1.9849   16.6162  -34.1598 H   0  0  0  0  0  0  0  0  0  0  0  0
   -1.2992   14.9609  -33.9407 H   0  0  0  0  0  0  0  0  0  0  0  0
   -1.6929   16.1787  -31.7782 H   0  0  0  0  0  0  0  0  0  0  0  0
    0.0253   15.7022  -32.0461 H   0  0  0  0  0  0  0  0  0  0  0  0
   -1.2020   18.4582  -32.5330 H   0  0  0  0  0  0  0  0  0  0  0  0
   -0.0678   17.9521  -31.1839 H   0  0  0  0  0  0  0  0  0  0  0  0
   -3.0504   22.5925  -32.9010 H   0  0  0  0  0  0  0  0  0  0  0  0
  1  2  1  0
  2  3  1  0
  3  4  1  0
  4  5  1  0
  3  6  1  0
  6  7  1  0
  7  8  1  0
  8  9  1  0
  9 10  1  0
 10 11  1  0
 11 12  1  0
 12 13  1  0
 13 14  2  0
 14 15  1  0
 15 16  2  0
 16 17  1  0
 17 18  2  0
 18 19  1  0
 19 20  2  0
 20 21  1  0
 20 22  1  0
 22 23  2  0
 23 24  1  0
 24 25  2  0
 25 26  1  0
 26 27  1  0
 27 28  1  0
 28 29  1  0
 29 30  1  0
 29 31  1  0
 31 32  1  0
 32 33  1  0
 33 34  1  0
 34 35  1  0
 25 36  1  0
 36 37  2  0
 37 13  1  0
 19 14  1  0
 37 22  1  0
 35 29  1  0
  1 38  1  0
  1 39  1  0
  1 40  1  0
  2 41  1  0
  2 42  1  0
  4 43  1  0
  4 44  1  0
  5 45  1  0
  5 46  1  0
  5 47  1  0
  6 48  1  0
  6 49  1  0
  7 50  1  0
  7 51  1  0
  9 52  1  0
  9 53  1  0
 10 54  1  0
 10 55  1  0
 11 56  1  0
 11 57  1  0
 12 58  1  0
 15 59  1  0
 16 60  1  0
 17 61  1  0
 18 62  1  0
 21 63  1  0
 21 64  1  0
 21 65  1  0
 23 66  1  0
 24 67  1  0
 27 68  1  0
 27 69  1  0
 28 70  1  0
 28 71  1  0
 30 72  1  0
 30 73  1  0
 30 74  1  0
 31 75  1  0
 31 76  1  0
 32 77  1  0
 32 78  1  0
 33 79  1  0
 33 80  1  0
 34 81  1  0
 34 82  1  0
 35 83  1  0
 35 84  1  0
 36 85  1  0
M  CHG  2  20   1  29   1
M  END
>  <UniqueID>  (32) 
31

>  <SMILES>  (32) 
CCN(CC)CCOCCCNc1c2ccccc2[n+](C)c2ccc(OCC[N+]3(C)CCCCC3)cc12

>  <Energy>  (32) 
135.09712094915886

>  <Genealogy>  (32) 
CCN(CC)CCOCCCNc1c2ccccc2[n+](C)c2ccc(OCC[N+]3(C)CCCCC3)cc12 (3D coordinates assigned)
CCN(CC)CCOCCCNc1c2ccccc2[n+](C)c2ccc(OCC[N+]3(C)CCCCC3)cc12 (nonaromatic ring conformer: 135.09712094915886 kcal/mol)

>  <smiles>  (32) 
CCN(CC)CCOCCCNc1c2ccccc2[n+](C)c2ccc(OCC[N+]3(C)CCCCC3)cc12

>  <score_type>  (32) 
oracle

>  <origin>  (32) 
adg

>  <m_score__min__energy>  (32) 
-9.0099999999999998

>  <m_primary>  (32) 
energy

$$$$
32:0
     RDKit          3D

 52 53  0  0  0  0  0  0  0  0999 V2000
   -8.5400   20.1120  -32.7020 C   0  0  0  0  0  0  0  0  0  0  0  0
   -7.0970   20.4420  -33.1120 C   0  0  0  0  0  0  0  0  0  0  0  0
   -6.1300   19.3250  -32.9250 N   0  0  0  0  0  0  0  0  0  0  0  0
   -6.0270   18.8660  -31.5140 C   0  0  0  0  0  0  0  0  0  0  0  0
   -6.5050   17.4230  -31.3160 C   0  0  0  0  0  0  0  0  0  0  0  0
   -6.4490   18.1910  -33.8360 C   0  0  0  0  0  0  0  0  0  0  0  0
   -5.2000   17.4370  -34.3390 C   0  0  0  0  0  0  0  0  0  0  0  0
   -4.0400   17.7970  -33.6120 O   0  0  0  0  0  0  0  0  0  0  0  0
   -2.9770   18.1740  -34.4720 C   0  0  0  0  0  0  0  0  0  0  0  0
   -2.5620   19.6210  -34.1930 C   0  0  0  0  0  0  0  0  0  0  0  0
   -3.5930   20.3320  -33.5060 O   0  0  0  0  0  0  0  0  0  0  0  0
   -3.4070   21.1600  -32.3860 C   0  0  0  0  0  0  0  0  0  0  0  0
   -2.2440   20.9920  -31.6280 C   0  0  0  0  0  0  0  0  0  0  0  0
   -2.0000   21.7930  -30.5100 C   0  0  0  0  0  0  0  0  0  0  0  0
   -2.9200   22.7860  -30.1280 C   0  0  0  0  0  0  0  0  0  0  0  0
   -2.6560   23.6480  -28.9470 C   0  0  0  0  0  0  0  0  0  0  0  0
   -3.6180   23.7790  -27.9280 C   0  0  0  0  0  0  0  0  0  0  0  0
   -3.3670   24.5890  -26.8160 C   0  0  0  0  0  0  0  0  0  0  0  0
   -2.1560   25.2800  -26.7100 C   0  0  0  0  0  0  0  0  0  0  0  0
   -1.9000   26.1140  -25.5650 C   0  0  0  0  0  0  0  0  0  0  0  0
   -1.6950   26.7840  -24.6450 N   0  0  0  0  0  0  0  0  0  0  0  0
   -1.1930   25.1570  -27.7190 C   0  0  0  0  0  0  0  0  0  0  0  0
   -1.4410   24.3470  -28.8300 C   0  0  0  0  0  0  0  0  0  0  0  0
   -4.0920   22.9500  -30.8860 C   0  0  0  0  0  0  0  0  0  0  0  0
   -4.3370   22.1450  -32.0020 C   0  0  0  0  0  0  0  0  0  0  0  0
   -8.6146   20.0949  -31.6047 H   0  0  0  0  0  0  0  0  0  0  0  0
   -9.2196   20.8779  -33.1039 H   0  0  0  0  0  0  0  0  0  0  0  0
   -8.8192   19.1268  -33.1039 H   0  0  0  0  0  0  0  0  0  0  0  0
   -7.0976   20.7211  -34.1760 H   0  0  0  0  0  0  0  0  0  0  0  0
   -6.7637   21.2573  -32.4531 H   0  0  0  0  0  0  0  0  0  0  0  0
   -5.1960   19.7100  -33.1990 H   0  0  0  0  0  0  0  0  0  0  0  0
   -4.9749   18.9328  -31.1998 H   0  0  0  0  0  0  0  0  0  0  0  0
   -6.6786   19.5139  -30.9093 H   0  0  0  0  0  0  0  0  0  0  0  0
   -6.5772   17.2050  -30.2402 H   0  0  0  0  0  0  0  0  0  0  0  0
   -7.4930   17.2967  -31.7828 H   0  0  0  0  0  0  0  0  0  0  0  0
   -5.7878   16.7318  -31.7828 H   0  0  0  0  0  0  0  0  0  0  0  0
   -7.0911   17.4799  -33.2955 H   0  0  0  0  0  0  0  0  0  0  0  0
   -6.9488   18.6155  -34.7192 H   0  0  0  0  0  0  0  0  0  0  0  0
   -5.3683   16.3556  -34.2281 H   0  0  0  0  0  0  0  0  0  0  0  0
   -5.0398   17.7063  -35.3934 H   0  0  0  0  0  0  0  0  0  0  0  0
   -2.1173   17.5095  -34.3006 H   0  0  0  0  0  0  0  0  0  0  0  0
   -3.3122   18.0908  -35.5164 H   0  0  0  0  0  0  0  0  0  0  0  0
   -1.6530   19.6202  -33.5736 H   0  0  0  0  0  0  0  0  0  0  0  0
   -2.3762   20.1212  -35.1549 H   0  0  0  0  0  0  0  0  0  0  0  0
   -1.5137   20.2211  -31.9151 H   0  0  0  0  0  0  0  0  0  0  0  0
   -1.0810   21.6460  -29.9236 H   0  0  0  0  0  0  0  0  0  0  0  0
   -4.5739   23.2405  -28.0068 H   0  0  0  0  0  0  0  0  0  0  0  0
   -4.1237   24.6827  -26.0231 H   0  0  0  0  0  0  0  0  0  0  0  0
   -0.2394   25.6991  -27.6368 H   0  0  0  0  0  0  0  0  0  0  0  0
   -0.6803   24.2552  -29.6192 H   0  0  0  0  0  0  0  0  0  0  0  0
   -4.8236   23.7194  -30.5982 H   0  0  0  0  0  0  0  0  0  0  0  0
   -5.2609   22.2816  -32.5832 H   0  0  0  0  0  0  0  0  0  0  0  0
  1  2  1  0
  2  3  1  0
  3  4  1  0
  4  5  1  0
  3  6  1  0
  6  7  1  0
  7  8  1  0
  8  9  1  0
  9 10  1  0
 10 11  1  0
 11 12  1  0
 12 13  2  0
 13 14  1  0
 14 15  2  0
 15 16  1  0
 16 17  2  0
 17 18  1  0
 18 19  2  0
 19 20  1  0
 20 21  3  0
 19 22  1  0
 22 23  2  0
 15 24  1  0
 24 25  2  0
 25 12  1  0
 23 16  1  0
  1 26  1  0
  1 27  1  0
  1 28  1  0
  2 29  1  0
  2 30  1  0
  3 31  1  0
  4 32  1  0
  4 33  1  0
  5 34  1  0
  5 35  1  0
  5 36  1  0
  6 37  1  0
  6 38  1  0
  7 39  1  0
  7 40  1  0
  9 41  1  0
  9 42  1  0
 10 43  1  0
 10 44  1  0
 13 45  1  0
 14 46  1  0
 17 47  1  0
 18 48  1  0
 22 49  1  0
 23 50  1  0
 24 51  1  0
 25 52  1  0
M  CHG  1   3   1
M  END
>  <UniqueID>  (33) 
32

>  <SMILES>  (33) 
CC[NH+](CC)CCOCCOc1ccc(-c2ccc(C#N)cc2)cc1

>  <Energy>  (33) 
60.220230591783825

>  <Genealogy>  (33) 
CC[NH+](CC)CCOCCOc1ccc(-c2ccc(C#N)cc2)cc1 (protonated)
CC[NH+](CC)CCOCCOc1ccc(-c2ccc(C#N)cc2)cc1 (3D coordinates assigned)
CC[NH+](CC)CCOCCOc1ccc(-c2ccc(C#N)cc2)cc1 (optimized conformer: 60.220230591783825 kcal/mol)

>  <smiles>  (33) 
CCN(CC)CCOCCOc1ccc(-c2ccc(C#N)cc2)cc1

>  <score_type>  (33) 
oracle

>  <origin>  (33) 
adg

>  <m_score__min__energy>  (33) 
-6.6600000000000001

>  <m_primary>  (33) 
energy

$$$$
33:0
     RDKit          3D

 51 53  0  0  0  0  0  0  0  0999 V2000
   -5.6960   16.5990  -32.5650 C   0  0  0  0  0  0  0  0  0  0  0  0
   -5.6480   18.0610  -32.7910 N   0  0  0  0  0  0  0  0  0  0  0  0
   -6.7780   18.8290  -32.5870 C   0  0  0  0  0  0  0  0  0  0  0  0
   -8.0640   18.2450  -32.4530 C   0  0  0  0  0  0  0  0  0  0  0  0
   -9.1920   19.0310  -32.2180 C   0  0  0  0  0  0  0  0  0  0  0  0
   -9.0750   20.4130  -32.1290 C   0  0  0  0  0  0  0  0  0  0  0  0
   -7.8330   21.0200  -32.2930 C   0  0  0  0  0  0  0  0  0  0  0  0
   -6.6760   20.2450  -32.5270 C   0  0  0  0  0  0  0  0  0  0  0  0
   -5.4300   20.8600  -32.7380 C   0  0  0  0  0  0  0  0  0  0  0  0
   -5.2990   22.2870  -32.6190 N   0  0  0  0  0  0  0  0  0  0  0  0
   -5.1690   22.9240  -31.3100 C   0  0  0  0  0  0  0  0  0  0  0  0
   -3.7410   23.4350  -31.1080 C   0  0  0  0  0  0  0  0  0  0  0  0
   -3.7610   24.7110  -30.4970 O   0  0  0  0  0  0  0  0  0  0  0  0
   -5.0790   25.1030  -30.1580 C   0  0  0  0  0  0  0  0  0  0  0  0
   -5.3610   24.8910  -28.6570 C   0  0  0  0  0  0  0  0  0  0  0  0
   -4.1830   24.4020  -27.9000 N   0  0  0  0  0  0  0  0  0  0  0  0
   -4.2300   24.9190  -26.5210 C   0  0  0  0  0  0  0  0  0  0  0  0
   -4.1260   22.9280  -27.8720 C   0  0  0  0  0  0  0  0  0  0  0  0
   -4.3300   20.0740  -33.1280 C   0  0  0  0  0  0  0  0  0  0  0  0
   -3.0920   20.6690  -33.4520 C   0  0  0  0  0  0  0  0  0  0  0  0
   -2.0180   19.8920  -33.8790 C   0  0  0  0  0  0  0  0  0  0  0  0
   -2.1600   18.5130  -34.0010 C   0  0  0  0  0  0  0  0  0  0  0  0
   -0.8170   17.5460  -34.5850 Cl  0  0  0  0  0  0  0  0  0  0  0  0
   -3.3680   17.9010  -33.6660 C   0  0  0  0  0  0  0  0  0  0  0  0
   -4.4660   18.6610  -33.1860 C   0  0  0  0  0  0  0  0  0  0  0  0
   -5.7027   16.3951  -31.4841 H   0  0  0  0  0  0  0  0  0  0  0  0
   -6.6082   16.1872  -33.0215 H   0  0  0  0  0  0  0  0  0  0  0  0
   -4.8128   16.1282  -33.0215 H   0  0  0  0  0  0  0  0  0  0  0  0
   -8.1734   17.1536  -32.5359 H   0  0  0  0  0  0  0  0  0  0  0  0
  -10.1772   18.5556  -32.1027 H   0  0  0  0  0  0  0  0  0  0  0  0
   -9.9648   21.0279  -31.9287 H   0  0  0  0  0  0  0  0  0  0  0  0
   -7.7520   22.1157  -32.2397 H   0  0  0  0  0  0  0  0  0  0  0  0
   -5.0330   22.8410  -33.4640 H   0  0  0  0  0  0  0  0  0  0  0  0
   -5.8695   23.7698  -31.2468 H   0  0  0  0  0  0  0  0  0  0  0  0
   -5.3988   22.1853  -30.5280 H   0  0  0  0  0  0  0  0  0  0  0  0
   -3.1912   22.7325  -30.4644 H   0  0  0  0  0  0  0  0  0  0  0  0
   -3.2457   23.5133  -32.0871 H   0  0  0  0  0  0  0  0  0  0  0  0
   -5.2087   26.1683  -30.3995 H   0  0  0  0  0  0  0  0  0  0  0  0
   -5.7829   24.4836  -30.7332 H   0  0  0  0  0  0  0  0  0  0  0  0
   -5.6807   25.8500  -28.2234 H   0  0  0  0  0  0  0  0  0  0  0  0
   -6.1407   24.1191  -28.5788 H   0  0  0  0  0  0  0  0  0  0  0  0
   -3.3050   24.7630  -28.3420 H   0  0  0  0  0  0  0  0  0  0  0  0
   -4.1538   24.0810  -25.8125 H   0  0  0  0  0  0  0  0  0  0  0  0
   -3.3912   25.6123  -26.3605 H   0  0  0  0  0  0  0  0  0  0  0  0
   -5.1801   25.4496  -26.3605 H   0  0  0  0  0  0  0  0  0  0  0  0
   -4.1126   22.5813  -26.8281 H   0  0  0  0  0  0  0  0  0  0  0  0
   -5.0089   22.5171  -28.3835 H   0  0  0  0  0  0  0  0  0  0  0  0
   -3.2140   22.5865  -28.3835 H   0  0  0  0  0  0  0  0  0  0  0  0
   -2.9740   21.7593  -33.3663 H   0  0  0  0  0  0  0  0  0  0  0  0
   -1.0565   20.3688  -34.1201 H   0  0  0  0  0  0  0  0  0  0  0  0
   -3.4711   16.8114  -33.7757 H   0  0  0  0  0  0  0  0  0  0  0  0
  1  2  1  0
  2  3  2  0
  3  4  1  0
  4  5  2  0
  5  6  1  0
  6  7  2  0
  7  8  1  0
  8  9  2  0
  9 10  1  0
 10 11  1  0
 11 12  1  0
 12 13  1  0
 13 14  1  0
 14 15  1  0
 15 16  1  0
 16 17  1  0
 16 18  1  0
  9 19  1  0
 19 20  2  0
 20 21  1  0
 21 22  2  0
 22 23  1  0
 22 24  1  0
 24 25  2  0
 25  2  1  0
  8  3  1  0
 25 19  1  0
  1 26  1  0
  1 27  1  0
  1 28  1  0
  4 29  1  0
  5 30  1  0
  6 31  1  0
  7 32  1  0
 10 33  1  0
 11 34  1  0
 11 35  1  0
 12 36  1  0
 12 37  1  0
 14 38  1  0
 14 39  1  0
 15 40  1  0
 15 41  1  0
 16 42  1  0
 17 43  1  0
 17 44  1  0
 17 45  1  0
 18 46  1  0
 18 47  1  0
 18 48  1  0
 20 49  1  0
 21 50  1  0
 24 51  1  0
M  CHG  2   2   1  16   1
M  END
>  <UniqueID>  (34) 
33

>  <SMILES>  (34) 
C[n+]1c2ccccc2c(NCCOCC[NH+](C)C)c2ccc(Cl)cc21

>  <Energy>  (34) 
79.29604620899808

>  <Genealogy>  (34) 
C[n+]1c2ccccc2c(NCCOCC[NH+](C)C)c2ccc(Cl)cc21 (protonated)
C[n+]1c2ccccc2c(NCCOCC[NH+](C)C)c2ccc(Cl)cc21 (3D coordinates assigned)
C[n+]1c2ccccc2c(NCCOCC[NH+](C)C)c2ccc(Cl)cc21 (optimized conformer: 79.29604620899808 kcal/mol)

>  <smiles>  (34) 
CN(C)CCOCCNc1c2ccccc2[n+](C)c2cc(Cl)ccc12

>  <score_type>  (34) 
oracle

>  <origin>  (34) 
adg

>  <m_score__min__energy>  (34) 
-7.6299999999999999

>  <m_primary>  (34) 
energy

$$$$
34:0
     RDKit          3D

 46 47  0  0  0  0  0  0  0  0999 V2000
   -2.6210   20.7020  -32.1640 C   0  0  0  0  0  0  0  0  0  0  0  0
   -3.3890   20.9490  -33.4530 C   0  0  0  0  0  0  0  0  0  0  0  0
   -4.7410   20.5350  -33.2860 O   0  0  0  0  0  0  0  0  0  0  0  0
   -5.2120   19.2320  -33.5210 C   0  0  0  0  0  0  0  0  0  0  0  0
   -4.4630   18.2910  -34.2540 C   0  0  0  0  0  0  0  0  0  0  0  0
   -4.9640   17.0070  -34.4770 C   0  0  0  0  0  0  0  0  0  0  0  0
   -6.2150   16.6450  -33.9730 C   0  0  0  0  0  0  0  0  0  0  0  0
   -6.8430   15.0330  -34.2620 Cl  0  0  0  0  0  0  0  0  0  0  0  0
   -6.9670   17.5680  -33.2440 C   0  0  0  0  0  0  0  0  0  0  0  0
   -6.4720   18.8630  -33.0080 C   0  0  0  0  0  0  0  0  0  0  0  0
   -7.3080   19.8550  -32.2370 C   0  0  0  0  0  0  0  0  0  0  0  0
   -8.6570   19.9770  -32.8100 N   0  0  0  0  0  0  0  0  0  0  0  0
   -9.4390   21.1100  -32.2790 C   0  0  0  0  0  0  0  0  0  0  0  0
   -8.7720   21.8620  -31.1060 C   0  0  0  0  0  0  0  0  0  0  0  0
   -7.8960   23.0540  -31.5310 C   0  0  0  0  0  0  0  0  0  0  0  0
   -6.6870   23.1850  -30.6860 N   0  0  0  0  0  0  0  0  0  0  0  0
   -6.5980   24.5290  -30.0630 C   0  0  0  0  0  0  0  0  0  0  0  0
   -5.6040   25.4400  -30.8060 C   0  0  0  0  0  0  0  0  0  0  0  0
   -4.2810   24.9240  -30.8490 O   0  0  0  0  0  0  0  0  0  0  0  0
   -4.2190   23.5050  -30.8260 C   0  0  0  0  0  0  0  0  0  0  0  0
   -5.4580   22.8250  -31.4340 C   0  0  0  0  0  0  0  0  0  0  0  0
   -3.2727   20.9116  -31.3030 H   0  0  0  0  0  0  0  0  0  0  0  0
   -2.2924   19.6528  -32.1283 H   0  0  0  0  0  0  0  0  0  0  0  0
   -1.7424   21.3629  -32.1283 H   0  0  0  0  0  0  0  0  0  0  0  0
   -3.3612   22.0213  -33.6968 H   0  0  0  0  0  0  0  0  0  0  0  0
   -2.9279   20.3754  -34.2705 H   0  0  0  0  0  0  0  0  0  0  0  0
   -3.4767   18.5696  -34.6535 H   0  0  0  0  0  0  0  0  0  0  0  0
   -4.3720   16.2789  -35.0510 H   0  0  0  0  0  0  0  0  0  0  0  0
   -7.9535   17.2804  -32.8515 H   0  0  0  0  0  0  0  0  0  0  0  0
   -7.3913   19.5184  -31.1931 H   0  0  0  0  0  0  0  0  0  0  0  0
   -6.8177   20.8382  -32.2912 H   0  0  0  0  0  0  0  0  0  0  0  0
   -8.5850   20.0490  -33.8500 H   0  0  0  0  0  0  0  0  0  0  0  0
   -9.6020   21.8270  -33.0971 H   0  0  0  0  0  0  0  0  0  0  0  0
  -10.3731   20.6843  -31.8837 H   0  0  0  0  0  0  0  0  0  0  0  0
   -9.5651   22.2372  -30.4425 H   0  0  0  0  0  0  0  0  0  0  0  0
   -8.1037   21.1420  -30.6110 H   0  0  0  0  0  0  0  0  0  0  0  0
   -7.5846   22.9107  -32.5762 H   0  0  0  0  0  0  0  0  0  0  0  0
   -8.4920   23.9712  -31.4148 H   0  0  0  0  0  0  0  0  0  0  0  0
   -7.5932   24.9971  -30.0831 H   0  0  0  0  0  0  0  0  0  0  0  0
   -6.2402   24.4037  -29.0304 H   0  0  0  0  0  0  0  0  0  0  0  0
   -5.9591   25.5726  -31.8386 H   0  0  0  0  0  0  0  0  0  0  0  0
   -5.5616   26.3896  -30.2524 H   0  0  0  0  0  0  0  0  0  0  0  0
   -3.3330   23.1862  -31.3947 H   0  0  0  0  0  0  0  0  0  0  0  0
   -4.1695   23.2011  -29.7700 H   0  0  0  0  0  0  0  0  0  0  0  0
   -5.5672   23.1469  -32.4802 H   0  0  0  0  0  0  0  0  0  0  0  0
   -5.3213   21.7350  -31.3765 H   0  0  0  0  0  0  0  0  0  0  0  0
  1  2  1  0
  2  3  1  0
  3  4  1  0
  4  5  2  0
  5  6  1  0
  6  7  2  0
  7  8  1  0
  7  9  1  0
  9 10  2  0
 10 11  1  0
 11 12  1  0
 12 13  1  0
 13 14  1  0
 14 15  1  0
 15 16  1  0
 16 17  1  0
 17 18  1  0
 18 19  1  0
 19 20  1  0
 20 21  1  0
 10  4  1  0
 21 16  1  0
  1 22  1  0
  1 23  1  0
  1 24  1  0
  2 25  1  0
  2 26  1  0
  5 27  1  0
  6 28  1  0
  9 29  1  0
 11 30  1  0
 11 31  1  0
 12 32  1  0
 13 33  1  0
 13 34  1  0
 14 35  1  0
 14 36  1  0
 15 37  1  0
 15 38  1  0
 17 39  1  0
 17 40  1  0
 18 41  1  0
 18 42  1  0
 20 43  1  0
 20 44  1  0
 21 45  1  0
 21 46  1  0
M  END
>  <UniqueID>  (35) 
34

>  <SMILES>  (35) 
CCOc1ccc(Cl)cc1CNCCCN1CCOCC1

>  <Energy>  (35) 
54.830370024249454

>  <Genealogy>  (35) 
CCOc1ccc(Cl)cc1CNCCCN1CCOCC1 (3D coordinates assigned)
CCOc1ccc(Cl)cc1CNCCCN1CCOCC1 (nonaromatic ring conformer: 54.830370024249454 kcal/mol)

>  <smiles>  (35) 
CCOc1ccc(Cl)cc1CNCCCN1CCOCC1

>  <score_type>  (35) 
oracle

>  <origin>  (35) 
adg

>  <m_score__min__energy>  (35) 
-7.6600000000000001

>  <m_primary>  (35) 
energy

$$$$
35:0
     RDKit          3D

 42 44  0  0  0  0  0  0  0  0999 V2000
   -5.2240   25.7420  -30.4770 C   0  0  0  0  0  0  0  0  0  0  0  0
   -3.8590   25.3380  -30.4770 O   0  0  0  0  0  0  0  0  0  0  0  0
   -3.3210   24.3610  -29.6230 C   0  0  0  0  0  0  0  0  0  0  0  0
   -2.1880   24.6090  -28.8210 C   0  0  0  0  0  0  0  0  0  0  0  0
   -1.6720   23.6050  -27.9960 C   0  0  0  0  0  0  0  0  0  0  0  0
   -2.2770   22.3470  -27.9610 C   0  0  0  0  0  0  0  0  0  0  0  0
   -3.4010   22.0920  -28.7510 C   0  0  0  0  0  0  0  0  0  0  0  0
   -3.9300   23.0930  -29.5800 C   0  0  0  0  0  0  0  0  0  0  0  0
   -5.1000   22.8240  -30.3680 N   0  0  0  0  0  0  0  0  0  0  0  0
   -6.4050   22.6800  -29.7220 C   0  0  0  0  0  0  0  0  0  0  0  0
   -7.4980   23.2030  -30.6630 C   0  0  0  0  0  0  0  0  0  0  0  0
   -7.4750   22.5700  -32.0150 N   0  0  0  0  0  0  0  0  0  0  0  0
   -8.6490   21.6910  -32.2130 C   0  0  0  0  0  0  0  0  0  0  0  0
   -8.2480   20.2460  -32.2310 C   0  0  0  0  0  0  0  0  0  0  0  0
   -8.4060   19.4640  -31.2200 N   0  0  0  0  0  0  0  0  0  0  0  0
   -7.9830   18.1140  -31.5730 C   0  0  0  0  0  0  0  0  0  0  0  0
   -7.5550   18.2030  -33.0480 C   0  0  0  0  0  0  0  0  0  0  0  0
   -7.7490   19.5990  -33.3830 N   0  0  0  0  0  0  0  0  0  0  0  0
   -6.2140   21.8550  -32.3380 C   0  0  0  0  0  0  0  0  0  0  0  0
   -4.9760   22.5880  -31.8080 C   0  0  0  0  0  0  0  0  0  0  0  0
   -5.5756   25.8461  -29.4399 H   0  0  0  0  0  0  0  0  0  0  0  0
   -5.3207   26.7073  -30.9955 H   0  0  0  0  0  0  0  0  0  0  0  0
   -5.8305   24.9848  -30.9955 H   0  0  0  0  0  0  0  0  0  0  0  0
   -1.7073   25.5981  -28.8446 H   0  0  0  0  0  0  0  0  0  0  0  0
   -0.7878   23.8065  -27.3734 H   0  0  0  0  0  0  0  0  0  0  0  0
   -1.8693   21.5577  -27.3123 H   0  0  0  0  0  0  0  0  0  0  0  0
   -3.8745   21.0995  -28.7229 H   0  0  0  0  0  0  0  0  0  0  0  0
   -6.5893   21.6187  -29.4989 H   0  0  0  0  0  0  0  0  0  0  0  0
   -6.4180   23.2574  -28.7858 H   0  0  0  0  0  0  0  0  0  0  0  0
   -8.4773   23.0050  -30.2028 H   0  0  0  0  0  0  0  0  0  0  0  0
   -7.3133   24.2778  -30.8066 H   0  0  0  0  0  0  0  0  0  0  0  0
   -9.3626   21.8551  -31.3921 H   0  0  0  0  0  0  0  0  0  0  0  0
   -9.1087   21.9369  -33.1816 H   0  0  0  0  0  0  0  0  0  0  0  0
   -7.1383   17.7967  -30.9439 H   0  0  0  0  0  0  0  0  0  0  0  0
   -8.7847   17.3767  -31.4195 H   0  0  0  0  0  0  0  0  0  0  0  0
   -6.5002   17.9147  -33.1676 H   0  0  0  0  0  0  0  0  0  0  0  0
   -8.1295   17.5267  -33.6981 H   0  0  0  0  0  0  0  0  0  0  0  0
   -7.6110   20.0340  -34.3240 H   0  0  0  0  0  0  0  0  0  0  0  0
   -6.2509   20.8521  -31.8876 H   0  0  0  0  0  0  0  0  0  0  0  0
   -6.1293   21.8012  -33.4334 H   0  0  0  0  0  0  0  0  0  0  0  0
   -4.0826   21.9755  -31.9993 H   0  0  0  0  0  0  0  0  0  0  0  0
   -4.8874   23.5565  -32.3220 H   0  0  0  0  0  0  0  0  0  0  0  0
  1  2  1  0
  2  3  1  0
  3  4  2  0
  4  5  1  0
  5  6  2  0
  6  7  1  0
  7  8  2  0
  8  9  1  0
  9 10  1  0
 10 11  1  0
 11 12  1  0
 12 13  1  0
 13 14  1  0
 14 15  2  0
 15 16  1  0
 16 17  1  0
 17 18  1  0
 12 19  1  0
 19 20  1  0
  8  3  1  0
 20  9  1  0
 18 14  1  0
  1 21  1  0
  1 22  1  0
  1 23  1  0
  4 24  1  0
  5 25  1  0
  6 26  1  0
  7 27  1  0
 10 28  1  0
 10 29  1  0
 11 30  1  0
 11 31  1  0
 13 32  1  0
 13 33  1  0
 16 34  1  0
 16 35  1  0
 17 36  1  0
 17 37  1  0
 18 38  1  0
 19 39  1  0
 19 40  1  0
 20 41  1  0
 20 42  1  0
M  END
>  <UniqueID>  (36) 
35

>  <SMILES>  (36) 
COc1ccccc1N1CCN(CC2=NCCN2)CC1

>  <Energy>  (36) 
65.4249117672185

>  <Genealogy>  (36) 
COc1ccccc1N1CCN(CC2=NCCN2)CC1 (3D coordinates assigned)
COc1ccccc1N1CCN(CC2=NCCN2)CC1 (nonaromatic ring conformer: 65.4249117672185 kcal/mol)

>  <smiles>  (36) 
COc1ccccc1N1CCN(CC2=NCCN2)CC1

>  <score_type>  (36) 
oracle

>  <origin>  (36) 
adg

>  <m_score__min__energy>  (36) 
-7.3899999999999997

>  <m_primary>  (36) 
energy

$$$$
