0:0
     RDKit          3D

 45 46  0  0  0  0  0  0  0  0999 V2000
   -6.8820   25.3170  -29.6540 C   0  0  0  0  0  0  0  0  0  0  0  0
   -6.7310   24.2660  -30.7540 C   0  0  0  0  0  0  0  0  0  0  0  0
   -5.6250   23.3300  -30.4460 N   0  0  0  0  0  0  0  0  0  0  0  0
   -4.7350   23.8580  -29.3770 C   0  0  0  0  0  0  0  0  0  0  0  0
   -3.8180   24.8840  -29.9590 C   0  0  0  0  0  0  0  0  0  0  0  0
   -4.2360   25.6690  -30.8520 O   0  0  0  0  0  0  0  0  0  0  0  0
   -2.4510   24.9330  -29.5300 N   0  0  0  0  0  0  0  0  0  0  0  0
   -1.8580   23.9530  -28.6690 C   0  0  0  0  0  0  0  0  0  0  0  0
   -1.6280   24.2720  -27.3150 C   0  0  0  0  0  0  0  0  0  0  0  0
   -1.9410   25.6430  -26.7750 C   0  0  0  0  0  0  0  0  0  0  0  0
   -1.0660   23.3110  -26.4620 C   0  0  0  0  0  0  0  0  0  0  0  0
   -0.7520   22.0410  -26.9390 C   0  0  0  0  0  0  0  0  0  0  0  0
   -0.9570   21.7260  -28.2830 C   0  0  0  0  0  0  0  0  0  0  0  0
   -1.4800   22.6830  -29.1670 C   0  0  0  0  0  0  0  0  0  0  0  0
   -1.6230   22.3280  -30.6260 C   0  0  0  0  0  0  0  0  0  0  0  0
   -4.8630   22.9960  -31.6720 C   0  0  0  0  0  0  0  0  0  0  0  0
   -5.3660   21.7100  -32.2720 C   0  0  0  0  0  0  0  0  0  0  0  0
   -4.4920   20.8420  -32.9470 C   0  0  0  0  0  0  0  0  0  0  0  0
   -4.9650   19.6360  -33.4710 C   0  0  0  0  0  0  0  0  0  0  0  0
   -6.3110   19.2860  -33.3250 C   0  0  0  0  0  0  0  0  0  0  0  0
   -6.7660   18.1140  -33.8310 F   0  0  0  0  0  0  0  0  0  0  0  0
   -7.1860   20.1430  -32.6540 C   0  0  0  0  0  0  0  0  0  0  0  0
   -6.7170   21.3520  -32.1310 C   0  0  0  0  0  0  0  0  0  0  0  0
   -6.8121   24.8305  -28.6699 H   0  0  0  0  0  0  0  0  0  0  0  0
   -6.0823   26.0661  -29.7503 H   0  0  0  0  0  0  0  0  0  0  0  0
   -7.8603   25.8106  -29.7503 H   0  0  0  0  0  0  0  0  0  0  0  0
   -7.6692   23.6982  -30.8402 H   0  0  0  0  0  0  0  0  0  0  0  0
   -6.5026   24.7791  -31.6998 H   0  0  0  0  0  0  0  0  0  0  0  0
   -5.3447   24.3173  -28.5850 H   0  0  0  0  0  0  0  0  0  0  0  0
   -4.1431   23.0347  -28.9507 H   0  0  0  0  0  0  0  0  0  0  0  0
   -1.9344   25.6143  -25.6754 H   0  0  0  0  0  0  0  0  0  0  0  0
   -1.1829   26.3578  -27.1276 H   0  0  0  0  0  0  0  0  0  0  0  0
   -2.9342   25.9580  -27.1276 H   0  0  0  0  0  0  0  0  0  0  0  0
   -0.8719   23.5623  -25.4088 H   0  0  0  0  0  0  0  0  0  0  0  0
   -0.3413   21.2841  -26.2546 H   0  0  0  0  0  0  0  0  0  0  0  0
   -0.7070   20.7205  -28.6524 H   0  0  0  0  0  0  0  0  0  0  0  0
   -2.0326   21.3112  -30.7175 H   0  0  0  0  0  0  0  0  0  0  0  0
   -2.3034   23.0425  -31.1122 H   0  0  0  0  0  0  0  0  0  0  0  0
   -0.6373   22.3714  -31.1122 H   0  0  0  0  0  0  0  0  0  0  0  0
   -4.9819   23.8080  -32.4045 H   0  0  0  0  0  0  0  0  0  0  0  0
   -3.8018   22.8746  -31.4091 H   0  0  0  0  0  0  0  0  0  0  0  0
   -3.4321   21.1124  -33.0635 H   0  0  0  0  0  0  0  0  0  0  0  0
   -4.2767   18.9602  -33.9997 H   0  0  0  0  0  0  0  0  0  0  0  0
   -8.2443   19.8669  -32.5369 H   0  0  0  0  0  0  0  0  0  0  0  0
   -7.4097   22.0264  -31.6063 H   0  0  0  0  0  0  0  0  0  0  0  0
  1  2  1  0
  2  3  1  0
  3  4  1  0
  4  5  1  0
  5  6  2  0
  5  7  1  0
  7  8  1  0
  8  9  2  0
  9 10  1  0
  9 11  1  0
 11 12  2  0
 12 13  1  0
 13 14  2  0
 14 15  1  0
  3 16  1  0
 16 17  1  0
 17 18  2  0
 18 19  1  0
 19 20  2  0
 20 21  1  0
 20 22  1  0
 22 23  2  0
 14  8  1  0
 23 17  1  0
  1 24  1  0
  1 25  1  0
  1 26  1  0
  2 27  1  0
  2 28  1  0
  4 29  1  0
  4 30  1  0
 10 31  1  0
 10 32  1  0
 10 33  1  0
 11 34  1  0
 12 35  1  0
 13 36  1  0
 15 37  1  0
 15 38  1  0
 15 39  1  0
 16 40  1  0
 16 41  1  0
 18 42  1  0
 19 43  1  0
 22 44  1  0
 23 45  1  0
M  CHG  1   7  -1
M  END
>  <UniqueID>  (1) 
1

>  <SMILES>  (1) 
CCN(CC(=O)[N-]c1c(C)cccc1C)Cc1ccc(F)cc1

>  <Energy>  (1) 
48.907453197337965

>  <Genealogy>  (1) 
CCN(CC(=O)[N-]c1c(C)cccc1C)Cc1ccc(F)cc1 (protonated)
CCN(CC(=O)[N-]c1c(C)cccc1C)Cc1ccc(F)cc1 (3D coordinates assigned)
CCN(CC(=O)[N-]c1c(C)cccc1C)Cc1ccc(F)cc1 (optimized conformer: 48.907453197337965 kcal/mol)

>  <smiles>  (1) 
CCN(CC(=O)Nc1c(C)cccc1C)Cc1ccc(F)cc1

>  <score_type>  (1) 
oracle

>  <origin>  (1) 
adg

>  <m_score__min__energy>  (1) 
-9.0899999999999999

>  <m_primary>  (1) 
energy

$$$$
1:0
     RDKit          3D

 25 24  0  0  0  0  0  0  0  0999 V2000
   -5.7938   26.7894  -30.3051 H   0  0  0  0  0  0  0  0  0  0  0  0
   -5.7430   25.7030  -30.4700 C   0  0  0  0  0  0  0  0  0  0  0  0
   -4.7200   25.2030  -31.0880 N   0  0  0  0  0  0  0  0  0  0  0  0
   -3.4960   25.0630  -30.4690 O   0  0  0  0  0  0  0  0  0  0  0  0
   -3.1670   23.8600  -29.7960 C   0  0  0  0  0  0  0  0  0  0  0  0
   -2.0866   23.6739  -29.8857 H   0  0  0  0  0  0  0  0  0  0  0  0
   -3.7228   23.0249  -30.2472 H   0  0  0  0  0  0  0  0  0  0  0  0
   -3.5400   23.9800  -28.3260 C   0  0  0  0  0  0  0  0  0  0  0  0
   -2.6759   23.7020  -27.7046 H   0  0  0  0  0  0  0  0  0  0  0  0
   -3.8318   25.0174  -28.1053 H   0  0  0  0  0  0  0  0  0  0  0  0
   -4.3819   23.3074  -28.1053 H   0  0  0  0  0  0  0  0  0  0  0  0
   -6.8630   24.8300  -29.9730 C   0  0  0  0  0  0  0  0  0  0  0  0
   -6.8994   24.8948  -28.8755 H   0  0  0  0  0  0  0  0  0  0  0  0
   -7.7949   25.1909  -30.4326 H   0  0  0  0  0  0  0  0  0  0  0  0
   -6.6880   23.3570  -30.3730 C   0  0  0  0  0  0  0  0  0  0  0  0
   -5.6389   23.2036  -30.6659 H   0  0  0  0  0  0  0  0  0  0  0  0
   -6.9842   22.7596  -29.4981 H   0  0  0  0  0  0  0  0  0  0  0  0
   -7.5860   22.8960  -31.5410 C   0  0  0  0  0  0  0  0  0  0  0  0
   -8.0468   23.7854  -31.9957 H   0  0  0  0  0  0  0  0  0  0  0  0
   -6.9403   22.3492  -32.2439 H   0  0  0  0  0  0  0  0  0  0  0  0
   -8.7070   21.9310  -31.1210 C   0  0  0  0  0  0  0  0  0  0  0  0
   -8.5138   21.5846  -30.0950 H   0  0  0  0  0  0  0  0  0  0  0  0
   -9.6643   22.4695  -31.1806 H   0  0  0  0  0  0  0  0  0  0  0  0
   -8.7800   20.7660  -32.0110 C   0  0  0  0  0  0  0  0  0  0  0  0
   -8.8380   19.8480  -32.7140 N   0  0  0  0  0  0  0  0  0  0  0  0
  1  2  1  0
  2  3  2  0
  3  4  1  0
  4  5  1  0
  5  6  1  0
  5  7  1  0
  5  8  1  0
  8  9  1  0
  8 10  1  0
  8 11  1  0
  2 12  1  0
 12 13  1  0
 12 14  1  0
 12 15  1  0
 15 16  1  0
 15 17  1  0
 15 18  1  0
 18 19  1  0
 18 20  1  0
 18 21  1  0
 21 22  1  0
 21 23  1  0
 21 24  1  0
 24 25  3  0
M  END
>  <UniqueID>  (2) 
2

>  <SMILES>  (2) 
CCO/N=C\CCCCC#N

>  <Energy>  (2) 
7.8708011104659

>  <Genealogy>  (2) 
CCO/N=C\CCCCC#N (cis-trans isomerization)
CCO/N=C\CCCCC#N (3D coordinates assigned)
CCO/N=C\CCCCC#N (optimized conformer: 7.8708011104659 kcal/mol)

>  <smiles>  (2) 
CCON=CCCCCC#N

>  <score_type>  (2) 
oracle

>  <origin>  (2) 
adg

>  <m_score__min__energy>  (2) 
-5.1200000000000001

>  <m_primary>  (2) 
energy

$$$$
2:0
     RDKit          3D

 65 67  0  0  0  0  0  0  0  0999 V2000
    0.2430   19.0490  -28.6660 C   0  0  0  0  0  0  0  0  0  0  0  0
   -0.5190   20.3500  -28.3780 C   0  0  0  0  0  0  0  0  0  0  0  0
   -1.9360   20.1110  -27.9900 N   0  0  0  0  0  0  0  0  0  0  0  0
   -2.0170   19.2180  -26.8000 C   0  0  0  0  0  0  0  0  0  0  0  0
   -3.4470   18.9120  -26.3300 C   0  0  0  0  0  0  0  0  0  0  0  0
   -2.6650   21.3970  -27.8150 C   0  0  0  0  0  0  0  0  0  0  0  0
   -3.4810   21.8020  -29.0600 C   0  0  0  0  0  0  0  0  0  0  0  0
   -3.0810   21.0510  -30.1910 O   0  0  0  0  0  0  0  0  0  0  0  0
   -2.4060   21.8710  -31.1240 C   0  0  0  0  0  0  0  0  0  0  0  0
   -2.2980   21.1320  -32.4560 C   0  0  0  0  0  0  0  0  0  0  0  0
   -3.4540   21.4120  -33.3070 N   0  0  0  0  0  0  0  0  0  0  0  0
   -4.7630   20.9670  -32.9300 C   0  0  0  0  0  0  0  0  0  0  0  0
   -5.6730   21.8660  -32.3630 C   0  0  0  0  0  0  0  0  0  0  0  0
   -6.9450   21.4130  -31.9710 C   0  0  0  0  0  0  0  0  0  0  0  0
   -7.3010   20.0900  -32.1380 N   0  0  0  0  0  0  0  0  0  0  0  0
   -8.5930   19.6220  -31.5920 C   0  0  0  0  0  0  0  0  0  0  0  0
   -6.4650   19.2250  -32.8260 C   0  0  0  0  0  0  0  0  0  0  0  0
   -5.1530   19.6420  -33.1810 C   0  0  0  0  0  0  0  0  0  0  0  0
   -4.1950   18.7310  -33.9290 C   0  0  0  0  0  0  0  0  0  0  0  0
   -4.5950   17.2590  -33.8800 C   0  0  0  0  0  0  0  0  0  0  0  0
   -6.0680   17.1160  -34.2270 C   0  0  0  0  0  0  0  0  0  0  0  0
   -6.9220   17.8100  -33.1650 C   0  0  0  0  0  0  0  0  0  0  0  0
   -7.9040   22.4780  -31.4530 C   0  0  0  0  0  0  0  0  0  0  0  0
   -7.2130   23.3860  -30.4220 C   0  0  0  0  0  0  0  0  0  0  0  0
   -5.7970   23.8510  -30.8390 C   0  0  0  0  0  0  0  0  0  0  0  0
   -5.3610   23.3410  -32.2190 C   0  0  0  0  0  0  0  0  0  0  0  0
    0.5234   18.5703  -27.7161 H   0  0  0  0  0  0  0  0  0  0  0  0
   -0.3991   18.3683  -29.2441 H   0  0  0  0  0  0  0  0  0  0  0  0
    1.1508   19.2761  -29.2441 H   0  0  0  0  0  0  0  0  0  0  0  0
   -0.0137   20.8796  -27.5569 H   0  0  0  0  0  0  0  0  0  0  0  0
   -0.5233   20.9447  -29.3034 H   0  0  0  0  0  0  0  0  0  0  0  0
   -2.4000   19.5890  -28.7720 H   0  0  0  0  0  0  0  0  0  0  0  0
   -1.5265   18.2659  -27.0508 H   0  0  0  0  0  0  0  0  0  0  0  0
   -1.5234   19.7513  -25.9742 H   0  0  0  0  0  0  0  0  0  0  0  0
   -3.4780   18.9054  -25.2305 H   0  0  0  0  0  0  0  0  0  0  0  0
   -4.1314   19.6840  -26.7115 H   0  0  0  0  0  0  0  0  0  0  0  0
   -3.7556   17.9275  -26.7115 H   0  0  0  0  0  0  0  0  0  0  0  0
   -3.3529   21.2967  -26.9625 H   0  0  0  0  0  0  0  0  0  0  0  0
   -1.9125   22.1812  -27.6456 H   0  0  0  0  0  0  0  0  0  0  0  0
   -4.5484   21.6204  -28.8660 H   0  0  0  0  0  0  0  0  0  0  0  0
   -3.3043   22.8682  -29.2651 H   0  0  0  0  0  0  0  0  0  0  0  0
   -2.9679   22.8059  -31.2664 H   0  0  0  0  0  0  0  0  0  0  0  0
   -1.3990   22.1060  -30.7490 H   0  0  0  0  0  0  0  0  0  0  0  0
   -1.3833   21.4562  -32.9739 H   0  0  0  0  0  0  0  0  0  0  0  0
   -2.2650   20.0510  -32.2549 H   0  0  0  0  0  0  0  0  0  0  0  0
   -3.3440   21.9210  -34.2130 H   0  0  0  0  0  0  0  0  0  0  0  0
   -8.5533   19.6364  -30.4928 H   0  0  0  0  0  0  0  0  0  0  0  0
   -9.3993   20.2852  -31.9385 H   0  0  0  0  0  0  0  0  0  0  0  0
   -8.7875   18.5963  -31.9385 H   0  0  0  0  0  0  0  0  0  0  0  0
   -4.1622   19.0485  -34.9817 H   0  0  0  0  0  0  0  0  0  0  0  0
   -3.2146   18.8175  -33.4378 H   0  0  0  0  0  0  0  0  0  0  0  0
   -3.9920   16.6920  -34.6046 H   0  0  0  0  0  0  0  0  0  0  0  0
   -4.4200   16.8677  -32.8670 H   0  0  0  0  0  0  0  0  0  0  0  0
   -6.2584   17.5776  -35.2072 H   0  0  0  0  0  0  0  0  0  0  0  0
   -6.3301   16.0483  -34.2619 H   0  0  0  0  0  0  0  0  0  0  0  0
   -7.9574   17.8602  -33.5329 H   0  0  0  0  0  0  0  0  0  0  0  0
   -6.8269   17.2165  -32.2437 H   0  0  0  0  0  0  0  0  0  0  0  0
   -8.2508   23.0915  -32.2976 H   0  0  0  0  0  0  0  0  0  0  0  0
   -8.7540   21.9777  -30.9660 H   0  0  0  0  0  0  0  0  0  0  0  0
   -7.8394   24.2777  -30.2721 H   0  0  0  0  0  0  0  0  0  0  0  0
   -7.0944   22.7913  -29.5042 H   0  0  0  0  0  0  0  0  0  0  0  0
   -5.7835   24.9508  -30.8552 H   0  0  0  0  0  0  0  0  0  0  0  0
   -5.0925   23.4330  -30.1048 H   0  0  0  0  0  0  0  0  0  0  0  0
   -5.8975   23.9021  -32.9983 H   0  0  0  0  0  0  0  0  0  0  0  0
   -4.2759   23.4868  -32.3253 H   0  0  0  0  0  0  0  0  0  0  0  0
  1  2  1  0
  2  3  1  0
  3  4  1  0
  4  5  1  0
  3  6  1  0
  6  7  1  0
  7  8  1  0
  8  9  1  0
  9 10  1  0
 10 11  1  0
 11 12  1  0
 12 13  2  0
 13 14  1  0
 14 15  2  0
 15 16  1  0
 15 17  1  0
 17 18  2  0
 18 19  1  0
 19 20  1  0
 20 21  1  0
 21 22  1  0
 14 23  1  0
 23 24  1  0
 24 25  1  0
 25 26  1  0
 18 12  1  0
 26 13  1  0
 22 17  1  0
  1 27  1  0
  1 28  1  0
  1 29  1  0
  2 30  1  0
  2 31  1  0
  3 32  1  0
  4 33  1  0
  4 34  1  0
  5 35  1  0
  5 36  1  0
  5 37  1  0
  6 38  1  0
  6 39  1  0
  7 40  1  0
  7 41  1  0
  9 42  1  0
  9 43  1  0
 10 44  1  0
 10 45  1  0
 11 46  1  0
 16 47  1  0
 16 48  1  0
 16 49  1  0
 19 50  1  0
 19 51  1  0
 20 52  1  0
 20 53  1  0
 21 54  1  0
 21 55  1  0
 22 56  1  0
 22 57  1  0
 23 58  1  0
 23 59  1  0
 24 60  1  0
 24 61  1  0
 25 62  1  0
 25 63  1  0
 26 64  1  0
 26 65  1  0
M  CHG  2   3   1  15   1
M  END
>  <UniqueID>  (3) 
3

>  <SMILES>  (3) 
CC[NH+](CC)CCOCCNc1c2c([n+](C)c3c1CCCC3)CCCC2

>  <Energy>  (3) 
86.81245651886044

>  <Genealogy>  (3) 
CC[NH+](CC)CCOCCNc1c2c([n+](C)c3c1CCCC3)CCCC2 (protonated)
CC[NH+](CC)CCOCCNc1c2c([n+](C)c3c1CCCC3)CCCC2 (3D coordinates assigned)
CC[NH+](CC)CCOCCNc1c2c([n+](C)c3c1CCCC3)CCCC2 (nonaromatic ring conformer: 86.81245651886044 kcal/mol)

>  <smiles>  (3) 
CCN(CC)CCOCCNc1c2c([n+](C)c3c1CCCC3)CCCC2

>  <score_type>  (3) 
oracle

>  <origin>  (3) 
adg

>  <m_score__min__energy>  (3) 
-7.4900000000000002

>  <m_primary>  (3) 
energy

$$$$
3:0
     RDKit          3D

 50 52  0  0  0  0  0  0  0  0999 V2000
   -2.6140   24.0190  -27.1740 C   0  0  0  0  0  0  0  0  0  0  0  0
   -3.5830   24.1400  -28.2620 C   0  0  0  0  0  0  0  0  0  0  0  0
   -4.3860   24.2350  -29.1570 C   0  0  0  0  0  0  0  0  0  0  0  0
   -5.3480   24.3570  -30.2540 C   0  0  0  0  0  0  0  0  0  0  0  0
   -4.7370   23.9430  -31.4630 O   0  0  0  0  0  0  0  0  0  0  0  0
   -3.6050   23.1240  -31.2320 C   0  0  0  0  0  0  0  0  0  0  0  0
   -3.5350   21.9330  -32.2070 C   0  0  0  0  0  0  0  0  0  0  0  0
   -4.5770   21.9800  -33.2550 N   0  0  0  0  0  0  0  0  0  0  0  0
   -5.6350   21.0000  -33.0320 C   0  0  0  0  0  0  0  0  0  0  0  0
   -6.9120   21.4240  -32.5420 C   0  0  0  0  0  0  0  0  0  0  0  0
   -7.2240   22.7920  -32.2990 C   0  0  0  0  0  0  0  0  0  0  0  0
   -8.4750   23.1820  -31.8270 C   0  0  0  0  0  0  0  0  0  0  0  0
   -9.4580   22.2370  -31.5980 C   0  0  0  0  0  0  0  0  0  0  0  0
   -9.1960   20.8940  -31.8320 C   0  0  0  0  0  0  0  0  0  0  0  0
   -7.9230   20.4570  -32.2840 C   0  0  0  0  0  0  0  0  0  0  0  0
   -7.6780   19.1230  -32.5070 N   0  0  0  0  0  0  0  0  0  0  0  0
   -8.5980   18.1000  -31.9540 C   0  0  0  0  0  0  0  0  0  0  0  0
   -6.5750   18.7320  -33.2280 C   0  0  0  0  0  0  0  0  0  0  0  0
   -6.5410   17.4510  -33.8300 C   0  0  0  0  0  0  0  0  0  0  0  0
   -5.4150   16.9940  -34.4900 C   0  0  0  0  0  0  0  0  0  0  0  0
   -4.2780   17.7760  -34.5330 C   0  0  0  0  0  0  0  0  0  0  0  0
   -4.2630   19.0620  -33.9780 C   0  0  0  0  0  0  0  0  0  0  0  0
   -2.9860   19.7110  -33.9080 N   0  0  0  0  0  0  0  0  0  0  0  0
   -1.9710   19.3230  -32.9340 C   0  0  0  0  0  0  0  0  0  0  0  0
   -5.4630   19.6150  -33.3970 C   0  0  0  0  0  0  0  0  0  0  0  0
   -3.1368   24.0843  -26.2084 H   0  0  0  0  0  0  0  0  0  0  0  0
   -2.0993   23.0496  -27.2475 H   0  0  0  0  0  0  0  0  0  0  0  0
   -1.8768   24.8321  -27.2475 H   0  0  0  0  0  0  0  0  0  0  0  0
   -6.2221   23.7217  -30.0481 H   0  0  0  0  0  0  0  0  0  0  0  0
   -5.6709   25.4046  -30.3451 H   0  0  0  0  0  0  0  0  0  0  0  0
   -2.6972   23.7334  -31.3525 H   0  0  0  0  0  0  0  0  0  0  0  0
   -3.6854   22.7193  -30.2123 H   0  0  0  0  0  0  0  0  0  0  0  0
   -2.5485   21.9363  -32.6936 H   0  0  0  0  0  0  0  0  0  0  0  0
   -3.7012   21.0178  -31.6197 H   0  0  0  0  0  0  0  0  0  0  0  0
   -4.9820   22.9320  -33.3270 H   0  0  0  0  0  0  0  0  0  0  0  0
   -4.1460   21.9180  -34.1970 H   0  0  0  0  0  0  0  0  0  0  0  0
   -6.4587   23.5591  -32.4886 H   0  0  0  0  0  0  0  0  0  0  0  0
   -8.6817   24.2454  -31.6358 H   0  0  0  0  0  0  0  0  0  0  0  0
  -10.4468   22.5491  -31.2307 H   0  0  0  0  0  0  0  0  0  0  0  0
   -9.9913   20.1529  -31.6637 H   0  0  0  0  0  0  0  0  0  0  0  0
   -8.5669   18.1346  -30.8550 H   0  0  0  0  0  0  0  0  0  0  0  0
   -9.6226   18.3038  -32.2984 H   0  0  0  0  0  0  0  0  0  0  0  0
   -8.2870   17.1027  -32.2984 H   0  0  0  0  0  0  0  0  0  0  0  0
   -7.4296   16.8052  -33.7715 H   0  0  0  0  0  0  0  0  0  0  0  0
   -5.4252   16.0092  -34.9799 H   0  0  0  0  0  0  0  0  0  0  0  0
   -3.3688   17.3826  -35.0111 H   0  0  0  0  0  0  0  0  0  0  0  0
   -2.9210   20.6760  -34.3030 H   0  0  0  0  0  0  0  0  0  0  0  0
   -2.3626   19.4727  -31.9170 H   0  0  0  0  0  0  0  0  0  0  0  0
   -1.7134   18.2630  -33.0754 H   0  0  0  0  0  0  0  0  0  0  0  0
   -1.0720   19.9409  -33.0754 H   0  0  0  0  0  0  0  0  0  0  0  0
  1  2  1  0
  2  3  3  0
  3  4  1  0
  4  5  1  0
  5  6  1  0
  6  7  1  0
  7  8  1  0
  8  9  1  0
  9 10  2  0
 10 11  1  0
 11 12  2  0
 12 13  1  0
 13 14  2  0
 14 15  1  0
 15 16  2  0
 16 17  1  0
 16 18  1  0
 18 19  2  0
 19 20  1  0
 20 21  2  0
 21 22  1  0
 22 23  1  0
 23 24  1  0
 22 25  2  0
 25  9  1  0
 15 10  1  0
 25 18  1  0
  1 26  1  0
  1 27  1  0
  1 28  1  0
  4 29  1  0
  4 30  1  0
  6 31  1  0
  6 32  1  0
  7 33  1  0
  7 34  1  0
  8 35  1  0
  8 36  1  0
 11 37  1  0
 12 38  1  0
 13 39  1  0
 14 40  1  0
 17 41  1  0
 17 42  1  0
 17 43  1  0
 19 44  1  0
 20 45  1  0
 21 46  1  0
 23 47  1  0
 24 48  1  0
 24 49  1  0
 24 50  1  0
M  CHG  2   8   1  16   1
M  END
>  <UniqueID>  (4) 
4

>  <SMILES>  (4) 
CC#CCOCC[NH2+]c1c2ccccc2[n+](C)c2cccc(NC)c12

>  <Energy>  (4) 
93.4732209991455

>  <Genealogy>  (4) 
CC#CCOCC[NH2+]c1c2ccccc2[n+](C)c2cccc(NC)c12 (protonated)
CC#CCOCC[NH2+]c1c2ccccc2[n+](C)c2cccc(NC)c12 (3D coordinates assigned)
CC#CCOCC[NH2+]c1c2ccccc2[n+](C)c2cccc(NC)c12 (optimized conformer: 93.4732209991455 kcal/mol)

>  <smiles>  (4) 
CC#CCOCCNc1c2ccccc2[n+](C)c2cccc(NC)c12

>  <score_type>  (4) 
oracle

>  <origin>  (4) 
adg

>  <m_score__min__energy>  (4) 
-7.5099999999999998

>  <m_primary>  (4) 
energy

$$$$
4:0
     RDKit          3D

 51 53  0  0  0  0  0  0  0  0999 V2000
   -3.4040   18.5450  -25.8910 C   0  0  0  0  0  0  0  0  0  0  0  0
   -2.1860   19.0840  -26.6380 C   0  0  0  0  0  0  0  0  0  0  0  0
   -2.5840   20.0910  -27.6370 N   0  0  0  0  0  0  0  0  0  0  0  0
   -1.5620   20.2530  -28.6890 C   0  0  0  0  0  0  0  0  0  0  0  0
   -2.1250   20.9400  -29.9390 C   0  0  0  0  0  0  0  0  0  0  0  0
   -3.5100   21.1520  -29.7590 O   0  0  0  0  0  0  0  0  0  0  0  0
   -4.0220   22.0190  -30.7540 C   0  0  0  0  0  0  0  0  0  0  0  0
   -3.5330   21.6460  -32.1630 C   0  0  0  0  0  0  0  0  0  0  0  0
   -4.6400   21.5570  -33.1200 N   0  0  0  0  0  0  0  0  0  0  0  0
   -5.7960   20.7320  -32.8910 C   0  0  0  0  0  0  0  0  0  0  0  0
   -7.0060   21.2960  -32.4470 C   0  0  0  0  0  0  0  0  0  0  0  0
   -7.1640   22.6950  -32.3610 C   0  0  0  0  0  0  0  0  0  0  0  0
   -8.3660   23.2520  -31.9350 C   0  0  0  0  0  0  0  0  0  0  0  0
   -9.4420   22.4300  -31.6230 C   0  0  0  0  0  0  0  0  0  0  0  0
   -9.3200   21.0450  -31.7280 C   0  0  0  0  0  0  0  0  0  0  0  0
   -8.0950   20.4440  -32.1180 C   0  0  0  0  0  0  0  0  0  0  0  0
   -7.9520   19.0710  -32.2030 N   0  0  0  0  0  0  0  0  0  0  0  0
   -8.9720   18.1800  -31.6030 C   0  0  0  0  0  0  0  0  0  0  0  0
   -6.8470   18.5290  -32.8310 C   0  0  0  0  0  0  0  0  0  0  0  0
   -6.7820   17.1550  -33.1770 C   0  0  0  0  0  0  0  0  0  0  0  0
   -5.6320   16.6070  -33.7460 C   0  0  0  0  0  0  0  0  0  0  0  0
   -5.5750   14.7500  -34.1880 Br  0  0  0  0  0  0  0  0  0  0  0  0
   -4.5250   17.4120  -33.9940 C   0  0  0  0  0  0  0  0  0  0  0  0
   -4.5740   18.7730  -33.7050 C   0  0  0  0  0  0  0  0  0  0  0  0
   -5.7340   19.3520  -33.1490 C   0  0  0  0  0  0  0  0  0  0  0  0
   -3.2325   18.6209  -24.8071 H   0  0  0  0  0  0  0  0  0  0  0  0
   -4.2919   19.1343  -26.1639 H   0  0  0  0  0  0  0  0  0  0  0  0
   -3.5649   17.4916  -26.1639 H   0  0  0  0  0  0  0  0  0  0  0  0
   -1.4964   19.5460  -25.9162 H   0  0  0  0  0  0  0  0  0  0  0  0
   -1.6951   18.2483  -27.1583 H   0  0  0  0  0  0  0  0  0  0  0  0
   -3.5050   19.8320  -28.0640 H   0  0  0  0  0  0  0  0  0  0  0  0
   -2.6990   21.0110  -27.1510 H   0  0  0  0  0  0  0  0  0  0  0  0
   -0.7367   20.8617  -28.2910 H   0  0  0  0  0  0  0  0  0  0  0  0
   -1.2142   19.2510  -28.9807 H   0  0  0  0  0  0  0  0  0  0  0  0
   -1.6199   21.9056  -30.0890 H   0  0  0  0  0  0  0  0  0  0  0  0
   -1.9563   20.3053  -30.8214 H   0  0  0  0  0  0  0  0  0  0  0  0
   -5.1207   21.9678  -30.7361 H   0  0  0  0  0  0  0  0  0  0  0  0
   -3.6626   23.0346  -30.5317 H   0  0  0  0  0  0  0  0  0  0  0  0
   -2.8250   22.4137  -32.5086 H   0  0  0  0  0  0  0  0  0  0  0  0
   -3.0510   20.6588  -32.1064 H   0  0  0  0  0  0  0  0  0  0  0  0
   -4.5580   22.0640  -34.0310 H   0  0  0  0  0  0  0  0  0  0  0  0
   -6.3266   23.3540  -32.6341 H   0  0  0  0  0  0  0  0  0  0  0  0
   -8.4644   24.3439  -31.8452 H   0  0  0  0  0  0  0  0  0  0  0  0
  -10.3929   22.8732  -31.2922 H   0  0  0  0  0  0  0  0  0  0  0  0
  -10.1881   20.4073  -31.5047 H   0  0  0  0  0  0  0  0  0  0  0  0
   -8.9081   18.2358  -30.5063 H   0  0  0  0  0  0  0  0  0  0  0  0
   -9.9735   18.4977  -31.9286 H   0  0  0  0  0  0  0  0  0  0  0  0
   -8.7918   17.1449  -31.9286 H   0  0  0  0  0  0  0  0  0  0  0  0
   -7.6539   16.5099  -32.9934 H   0  0  0  0  0  0  0  0  0  0  0  0
   -3.6102   16.9729  -34.4188 H   0  0  0  0  0  0  0  0  0  0  0  0
   -3.6976   19.4045  -33.9127 H   0  0  0  0  0  0  0  0  0  0  0  0
  1  2  1  0
  2  3  1  0
  3  4  1  0
  4  5  1  0
  5  6  1  0
  6  7  1  0
  7  8  1  0
  8  9  1  0
  9 10  1  0
 10 11  2  0
 11 12  1  0
 12 13  2  0
 13 14  1  0
 14 15  2  0
 15 16  1  0
 16 17  2  0
 17 18  1  0
 17 19  1  0
 19 20  2  0
 20 21  1  0
 21 22  1  0
 21 23  2  0
 23 24  1  0
 24 25  2  0
 25 10  1  0
 16 11  1  0
 25 19  1  0
  1 26  1  0
  1 27  1  0
  1 28  1  0
  2 29  1  0
  2 30  1  0
  3 31  1  0
  3 32  1  0
  4 33  1  0
  4 34  1  0
  5 35  1  0
  5 36  1  0
  7 37  1  0
  7 38  1  0
  8 39  1  0
  8 40  1  0
  9 41  1  0
 12 42  1  0
 13 43  1  0
 14 44  1  0
 15 45  1  0
 18 46  1  0
 18 47  1  0
 18 48  1  0
 20 49  1  0
 23 50  1  0
 24 51  1  0
M  CHG  2   3   1  17   1
M  END
>  <UniqueID>  (5) 
5

>  <SMILES>  (5) 
CC[NH2+]CCOCCNc1c2ccccc2[n+](C)c2cc(Br)ccc12

>  <Energy>  (5) 
70.05561383790577

>  <Genealogy>  (5) 
CC[NH2+]CCOCCNc1c2ccccc2[n+](C)c2cc(Br)ccc12 (protonated)
CC[NH2+]CCOCCNc1c2ccccc2[n+](C)c2cc(Br)ccc12 (3D coordinates assigned)
CC[NH2+]CCOCCNc1c2ccccc2[n+](C)c2cc(Br)ccc12 (optimized conformer: 70.05561383790577 kcal/mol)

>  <smiles>  (5) 
CCNCCOCCNc1c2ccccc2[n+](C)c2cc(Br)ccc12

>  <score_type>  (5) 
oracle

>  <origin>  (5) 
adg

>  <m_score__min__energy>  (5) 
-8.5500000000000007

>  <m_primary>  (5) 
energy

$$$$
5:0
     RDKit          3D

 52 54  0  0  0  0  0  0  0  0999 V2000
   -6.1860   25.0440  -29.4880 C   0  0  0  0  0  0  0  0  0  0  0  0
   -5.3530   25.5980  -30.6470 C   0  0  0  0  0  0  0  0  0  0  0  0
   -3.9190   25.2930  -30.5000 N   0  0  0  0  0  0  0  0  0  0  0  0
   -3.6210   24.5350  -29.2740 C   0  0  0  0  0  0  0  0  0  0  0  0
   -3.1300   23.1250  -29.6120 C   0  0  0  0  0  0  0  0  0  0  0  0
   -3.6980   22.6840  -30.8940 N   0  0  0  0  0  0  0  0  0  0  0  0
   -3.0730   21.4470  -31.3870 C   0  0  0  0  0  0  0  0  0  0  0  0
   -3.0770   21.3520  -32.9200 C   0  0  0  0  0  0  0  0  0  0  0  0
   -4.4160   21.6310  -33.4390 N   0  0  0  0  0  0  0  0  0  0  0  0
   -5.5500   20.8470  -33.0360 C   0  0  0  0  0  0  0  0  0  0  0  0
   -6.6190   21.4600  -32.3850 C   0  0  0  0  0  0  0  0  0  0  0  0
   -7.7430   20.7510  -32.0470 C   0  0  0  0  0  0  0  0  0  0  0  0
   -7.8670   19.4110  -32.3190 N   0  0  0  0  0  0  0  0  0  0  0  0
   -9.1060   18.6940  -31.9590 C   0  0  0  0  0  0  0  0  0  0  0  0
   -6.8080   18.7440  -32.9120 C   0  0  0  0  0  0  0  0  0  0  0  0
   -6.8570   17.3510  -33.1670 C   0  0  0  0  0  0  0  0  0  0  0  0
   -5.7690   16.6870  -33.7350 C   0  0  0  0  0  0  0  0  0  0  0  0
   -4.6070   17.3830  -34.0500 C   0  0  0  0  0  0  0  0  0  0  0  0
   -4.5250   18.7540  -33.8150 C   0  0  0  0  0  0  0  0  0  0  0  0
   -5.6200   19.4550  -33.2700 C   0  0  0  0  0  0  0  0  0  0  0  0
   -8.7570   21.6270  -31.3940 C   0  0  0  0  0  0  0  0  0  0  0  0
   -8.0860   23.0080  -31.3130 C   0  0  0  0  0  0  0  0  0  0  0  0
   -6.7220   22.8930  -32.0090 C   0  0  0  0  0  0  0  0  0  0  0  0
   -5.7318   25.3461  -28.5328 H   0  0  0  0  0  0  0  0  0  0  0  0
   -7.2097   25.4418  -29.5493 H   0  0  0  0  0  0  0  0  0  0  0  0
   -6.2150   23.9461  -29.5493 H   0  0  0  0  0  0  0  0  0  0  0  0
   -5.7146   25.1544  -31.5864 H   0  0  0  0  0  0  0  0  0  0  0  0
   -5.4660   26.6922  -30.6501 H   0  0  0  0  0  0  0  0  0  0  0  0
   -3.5880   24.7480  -31.3300 H   0  0  0  0  0  0  0  0  0  0  0  0
   -2.8407   25.0618  -28.7051 H   0  0  0  0  0  0  0  0  0  0  0  0
   -4.5415   24.4540  -28.6772 H   0  0  0  0  0  0  0  0  0  0  0  0
   -2.0323   23.1297  -29.6832 H   0  0  0  0  0  0  0  0  0  0  0  0
   -3.4517   22.4331  -28.8197 H   0  0  0  0  0  0  0  0  0  0  0  0
   -3.5680   23.4410  -31.6070 H   0  0  0  0  0  0  0  0  0  0  0  0
   -2.0314   21.4143  -31.0350 H   0  0  0  0  0  0  0  0  0  0  0  0
   -3.6596   20.6008  -30.9998 H   0  0  0  0  0  0  0  0  0  0  0  0
   -2.3676   22.0851  -33.3315 H   0  0  0  0  0  0  0  0  0  0  0  0
   -2.7808   20.3354  -33.2178 H   0  0  0  0  0  0  0  0  0  0  0  0
   -4.4720   22.1420  -34.3490 H   0  0  0  0  0  0  0  0  0  0  0  0
   -9.1948   18.6426  -30.8638 H   0  0  0  0  0  0  0  0  0  0  0  0
   -9.9731   19.2299  -32.3725 H   0  0  0  0  0  0  0  0  0  0  0  0
   -9.0734   17.6752  -32.3725 H   0  0  0  0  0  0  0  0  0  0  0  0
   -7.7656   16.7850  -32.9136 H   0  0  0  0  0  0  0  0  0  0  0  0
   -5.8308   15.6070  -33.9347 H   0  0  0  0  0  0  0  0  0  0  0  0
   -3.7497   16.8494  -34.4862 H   0  0  0  0  0  0  0  0  0  0  0  0
   -3.5977   19.2941  -34.0569 H   0  0  0  0  0  0  0  0  0  0  0  0
   -9.6742   21.6764  -31.9992 H   0  0  0  0  0  0  0  0  0  0  0  0
   -9.0561   21.2511  -30.4044 H   0  0  0  0  0  0  0  0  0  0  0  0
   -8.7070   23.7590  -31.8232 H   0  0  0  0  0  0  0  0  0  0  0  0
   -7.9642   23.3216  -30.2657 H   0  0  0  0  0  0  0  0  0  0  0  0
   -6.6857   23.5335  -32.9026 H   0  0  0  0  0  0  0  0  0  0  0  0
   -5.8929   23.2177  -31.3631 H   0  0  0  0  0  0  0  0  0  0  0  0
  1  2  1  0
  2  3  1  0
  3  4  1  0
  4  5  1  0
  5  6  1  0
  6  7  1  0
  7  8  1  0
  8  9  1  0
  9 10  1  0
 10 11  2  0
 11 12  1  0
 12 13  2  0
 13 14  1  0
 13 15  1  0
 15 16  2  0
 16 17  1  0
 17 18  2  0
 18 19  1  0
 19 20  2  0
 12 21  1  0
 21 22  1  0
 22 23  1  0
 20 10  1  0
 23 11  1  0
 20 15  1  0
  1 24  1  0
  1 25  1  0
  1 26  1  0
  2 27  1  0
  2 28  1  0
  3 29  1  0
  4 30  1  0
  4 31  1  0
  5 32  1  0
  5 33  1  0
  6 34  1  0
  7 35  1  0
  7 36  1  0
  8 37  1  0
  8 38  1  0
  9 39  1  0
 14 40  1  0
 14 41  1  0
 14 42  1  0
 16 43  1  0
 17 44  1  0
 18 45  1  0
 19 46  1  0
 21 47  1  0
 21 48  1  0
 22 49  1  0
 22 50  1  0
 23 51  1  0
 23 52  1  0
M  CHG  1  13   1
M  END
>  <UniqueID>  (6) 
6

>  <SMILES>  (6) 
CCNCCNCCNc1c2c([n+](C)c3ccccc13)CCC2

>  <Energy>  (6) 
69.55581770537754

>  <Genealogy>  (6) 
CCNCCNCCNc1c2c([n+](C)c3ccccc13)CCC2 (3D coordinates assigned)
CCNCCNCCNc1c2c([n+](C)c3ccccc13)CCC2 (nonaromatic ring conformer: 69.55581770537754 kcal/mol)

>  <smiles>  (6) 
CCNCCNCCNc1c2c([n+](C)c3ccccc13)CCC2

>  <score_type>  (6) 
oracle

>  <origin>  (6) 
adg

>  <m_score__min__energy>  (6) 
-9.0800000000000001

>  <m_primary>  (6) 
energy

$$$$
6:0
     RDKit          3D

 42 43  0  0  0  0  0  0  0  0999 V2000
   -6.2970   25.4000  -29.5490 C   0  0  0  0  0  0  0  0  0  0  0  0
   -5.4530   25.1840  -30.8000 C   0  0  0  0  0  0  0  0  0  0  0  0
   -4.0290   25.3020  -30.4700 N   0  0  0  0  0  0  0  0  0  0  0  0
   -3.7250   24.5570  -29.2400 C   0  0  0  0  0  0  0  0  0  0  0  0
   -3.5450   23.0660  -29.5480 C   0  0  0  0  0  0  0  0  0  0  0  0
   -2.6990   22.8320  -30.8020 C   0  0  0  0  0  0  0  0  0  0  0  0
   -3.5410   22.7650  -31.9530 O   0  0  0  0  0  0  0  0  0  0  0  0
   -4.4570   21.7370  -32.2040 C   0  0  0  0  0  0  0  0  0  0  0  0
   -4.0180   20.6130  -32.9040 C   0  0  0  0  0  0  0  0  0  0  0  0
   -4.8870   19.5560  -33.1660 C   0  0  0  0  0  0  0  0  0  0  0  0
   -6.2230   19.6170  -32.7430 C   0  0  0  0  0  0  0  0  0  0  0  0
   -7.0870   18.5470  -33.0170 C   0  0  0  0  0  0  0  0  0  0  0  0
   -8.4210   18.6050  -32.6260 C   0  0  0  0  0  0  0  0  0  0  0  0
   -8.9100   19.7250  -31.9590 C   0  0  0  0  0  0  0  0  0  0  0  0
   -8.0700   20.8110  -31.6560 C   0  0  0  0  0  0  0  0  0  0  0  0
   -8.6900   22.0130  -30.9750 C   0  0  0  0  0  0  0  0  0  0  0  0
   -8.8990   23.1480  -31.9730 C   0  0  0  0  0  0  0  0  0  0  0  0
   -6.7030   20.7650  -32.0550 C   0  0  0  0  0  0  0  0  0  0  0  0
   -5.8020   21.8240  -31.8020 C   0  0  0  0  0  0  0  0  0  0  0  0
   -5.6755   25.2409  -28.6554 H   0  0  0  0  0  0  0  0  0  0  0  0
   -6.6896   26.4276  -29.5444 H   0  0  0  0  0  0  0  0  0  0  0  0
   -7.1349   24.6874  -29.5444 H   0  0  0  0  0  0  0  0  0  0  0  0
   -5.6514   24.1805  -31.2046 H   0  0  0  0  0  0  0  0  0  0  0  0
   -5.7148   25.9462  -31.5486 H   0  0  0  0  0  0  0  0  0  0  0  0
   -3.4830   24.8650  -31.2510 H   0  0  0  0  0  0  0  0  0  0  0  0
   -2.7976   24.9502  -28.7981 H   0  0  0  0  0  0  0  0  0  0  0  0
   -4.5606   24.6770  -28.5348 H   0  0  0  0  0  0  0  0  0  0  0  0
   -3.0497   22.5848  -28.6918 H   0  0  0  0  0  0  0  0  0  0  0  0
   -4.5413   22.6360  -29.7281 H   0  0  0  0  0  0  0  0  0  0  0  0
   -1.9856   23.6609  -30.9202 H   0  0  0  0  0  0  0  0  0  0  0  0
   -2.1534   21.8826  -30.6977 H   0  0  0  0  0  0  0  0  0  0  0  0
   -2.9759   20.5608  -33.2524 H   0  0  0  0  0  0  0  0  0  0  0  0
   -4.5238   18.6697  -33.7070 H   0  0  0  0  0  0  0  0  0  0  0  0
   -6.7085   17.6582  -33.5432 H   0  0  0  0  0  0  0  0  0  0  0  0
   -9.0926   17.7618  -32.8449 H   0  0  0  0  0  0  0  0  0  0  0  0
   -9.9693   19.7608  -31.6647 H   0  0  0  0  0  0  0  0  0  0  0  0
   -9.6614   21.7247  -30.5470 H   0  0  0  0  0  0  0  0  0  0  0  0
   -8.0118   22.3595  -30.1813 H   0  0  0  0  0  0  0  0  0  0  0  0
   -9.0721   24.0879  -31.4284 H   0  0  0  0  0  0  0  0  0  0  0  0
   -8.0045   23.2498  -32.6051 H   0  0  0  0  0  0  0  0  0  0  0  0
   -9.7711   22.9245  -32.6051 H   0  0  0  0  0  0  0  0  0  0  0  0
   -6.1570   22.7273  -31.2844 H   0  0  0  0  0  0  0  0  0  0  0  0
  1  2  1  0
  2  3  1  0
  3  4  1  0
  4  5  1  0
  5  6  1  0
  6  7  1  0
  7  8  1  0
  8  9  2  0
  9 10  1  0
 10 11  2  0
 11 12  1  0
 12 13  2  0
 13 14  1  0
 14 15  2  0
 15 16  1  0
 16 17  1  0
 15 18  1  0
 18 19  2  0
 19  8  1  0
 18 11  1  0
  1 20  1  0
  1 21  1  0
  1 22  1  0
  2 23  1  0
  2 24  1  0
  3 25  1  0
  4 26  1  0
  4 27  1  0
  5 28  1  0
  5 29  1  0
  6 30  1  0
  6 31  1  0
  9 32  1  0
 10 33  1  0
 12 34  1  0
 13 35  1  0
 14 36  1  0
 16 37  1  0
 16 38  1  0
 17 39  1  0
 17 40  1  0
 17 41  1  0
 19 42  1  0
M  END
>  <UniqueID>  (7) 
7

>  <SMILES>  (7) 
CCNCCCOc1ccc2cccc(CC)c2c1

>  <Energy>  (7) 
38.66646298988572

>  <Genealogy>  (7) 
CCNCCCOc1ccc2cccc(CC)c2c1 (3D coordinates assigned)
CCNCCCOc1ccc2cccc(CC)c2c1 (optimized conformer: 38.66646298988572 kcal/mol)

>  <smiles>  (7) 
CCNCCCOc1ccc2cccc(CC)c2c1

>  <score_type>  (7) 
oracle

>  <origin>  (7) 
adg

>  <m_score__min__energy>  (7) 
-8.1600000000000001

>  <m_primary>  (7) 
energy

$$$$
7:0
     RDKit          3D

 59 62  0  0  0  0  0  0  0  0999 V2000
    0.8440   23.0711  -25.4803 H   0  0  0  0  0  0  0  0  0  0  0  0
    0.2180   23.4880  -26.2830 C   0  0  0  0  0  0  0  0  0  0  0  0
    0.6710   23.4690  -27.6040 C   0  0  0  0  0  0  0  0  0  0  0  0
    1.6503   23.0280  -27.8418 H   0  0  0  0  0  0  0  0  0  0  0  0
   -0.1170   24.0090  -28.6250 C   0  0  0  0  0  0  0  0  0  0  0  0
    0.2357   23.9755  -29.6664 H   0  0  0  0  0  0  0  0  0  0  0  0
   -1.3620   24.5960  -28.3230 C   0  0  0  0  0  0  0  0  0  0  0  0
   -2.2130   25.1510  -29.3420 N   0  0  0  0  0  0  0  0  0  0  0  0
   -3.2040   24.5530  -29.9370 C   0  0  0  0  0  0  0  0  0  0  0  0
   -3.1760   23.2190  -30.1830 N   0  0  0  0  0  0  0  0  0  0  0  0
   -4.1850   22.5780  -30.8330 C   0  0  0  0  0  0  0  0  0  0  0  0
   -4.0820   21.1990  -31.0910 C   0  0  0  0  0  0  0  0  0  0  0  0
   -2.8940   20.4860  -30.6360 N   0  0  0  0  0  0  0  0  0  0  0  0
   -2.8700   19.4830  -30.9090 H   0  0  0  0  0  0  0  0  0  0  0  0
   -2.9190   20.4510  -29.5910 H   0  0  0  0  0  0  0  0  0  0  0  0
   -1.6420   21.1650  -31.0280 C   0  0  0  0  0  0  0  0  0  0  0  0
   -1.8365   22.2463  -31.0822 H   0  0  0  0  0  0  0  0  0  0  0  0
   -1.3387   20.7420  -31.9970 H   0  0  0  0  0  0  0  0  0  0  0  0
   -0.4720   20.9300  -30.0500 C   0  0  0  0  0  0  0  0  0  0  0  0
   -0.1533   21.9015  -29.6441 H   0  0  0  0  0  0  0  0  0  0  0  0
    0.3344   20.4369  -30.6126 H   0  0  0  0  0  0  0  0  0  0  0  0
   -0.8340   20.0410  -28.9200 N   0  0  0  0  0  0  0  0  0  0  0  0
    0.3060   19.1660  -28.5370 C   0  0  0  0  0  0  0  0  0  0  0  0
    0.5024   18.4741  -29.3693 H   0  0  0  0  0  0  0  0  0  0  0  0
    0.0081   18.6527  -27.6109 H   0  0  0  0  0  0  0  0  0  0  0  0
    1.6080   19.9160  -28.2200 C   0  0  0  0  0  0  0  0  0  0  0  0
    1.7334   19.9882  -27.1296 H   0  0  0  0  0  0  0  0  0  0  0  0
    2.4599   19.3703  -28.6517 H   0  0  0  0  0  0  0  0  0  0  0  0
    1.5633   20.9268  -28.6517 H   0  0  0  0  0  0  0  0  0  0  0  0
   -1.4080   20.7960  -27.7800 C   0  0  0  0  0  0  0  0  0  0  0  0
   -0.6126   20.9873  -27.0447 H   0  0  0  0  0  0  0  0  0  0  0  0
   -1.8241   21.7361  -28.1712 H   0  0  0  0  0  0  0  0  0  0  0  0
   -2.5400   20.0290  -27.0940 C   0  0  0  0  0  0  0  0  0  0  0  0
   -2.4263   20.1060  -26.0026 H   0  0  0  0  0  0  0  0  0  0  0  0
   -3.5076   20.4583  -27.3931 H   0  0  0  0  0  0  0  0  0  0  0  0
   -2.5000   18.9712  -27.3931 H   0  0  0  0  0  0  0  0  0  0  0  0
   -5.1270   20.5700  -31.8250 C   0  0  0  0  0  0  0  0  0  0  0  0
   -5.0980   19.1920  -32.1510 C   0  0  0  0  0  0  0  0  0  0  0  0
   -4.2763   18.5651  -31.7744 H   0  0  0  0  0  0  0  0  0  0  0  0
   -6.0900   18.6170  -32.9390 C   0  0  0  0  0  0  0  0  0  0  0  0
   -6.0498   17.5431  -33.1740 H   0  0  0  0  0  0  0  0  0  0  0  0
   -7.1290   19.3930  -33.4290 C   0  0  0  0  0  0  0  0  0  0  0  0
   -7.8902   18.9424  -34.0828 H   0  0  0  0  0  0  0  0  0  0  0  0
   -7.2100   20.7400  -33.0950 C   0  0  0  0  0  0  0  0  0  0  0  0
   -8.0372   21.3456  -33.4938 H   0  0  0  0  0  0  0  0  0  0  0  0
   -6.2470   21.3490  -32.2500 C   0  0  0  0  0  0  0  0  0  0  0  0
   -6.3750   22.6670  -31.8520 N   0  0  0  0  0  0  0  0  0  0  0  0
   -7.6590   23.3830  -32.0420 C   0  0  0  0  0  0  0  0  0  0  0  0
   -8.0927   23.6248  -31.0605 H   0  0  0  0  0  0  0  0  0  0  0  0
   -7.4811   24.3122  -32.6033 H   0  0  0  0  0  0  0  0  0  0  0  0
   -8.3560   22.7433  -32.6033 H   0  0  0  0  0  0  0  0  0  0  0  0
   -5.3160   23.3080  -31.2470 C   0  0  0  0  0  0  0  0  0  0  0  0
   -5.2950   24.7050  -31.0230 C   0  0  0  0  0  0  0  0  0  0  0  0
   -6.1320   25.3259  -31.3750 H   0  0  0  0  0  0  0  0  0  0  0  0
   -4.2520   25.2860  -30.3780 N   0  0  0  0  0  0  0  0  0  0  0  0
   -1.8210   24.5800  -26.9990 C   0  0  0  0  0  0  0  0  0  0  0  0
   -2.8098   24.9977  -26.7586 H   0  0  0  0  0  0  0  0  0  0  0  0
   -1.0310   24.0370  -25.9820 C   0  0  0  0  0  0  0  0  0  0  0  0
   -1.3930   24.0419  -24.9433 H   0  0  0  0  0  0  0  0  0  0  0  0
  1  2  1  0
  2  3  2  0
  3  4  1  0
  3  5  1  0
  5  6  1  0
  5  7  2  0
  7  8  1  0
  8  9  2  0
  9 10  1  0
 10 11  2  0
 11 12  1  0
 12 13  1  0
 13 14  1  0
 13 15  1  0
 13 16  1  0
 16 17  1  0
 16 18  1  0
 16 19  1  0
 19 20  1  0
 19 21  1  0
 19 22  1  0
 22 23  1  0
 23 24  1  0
 23 25  1  0
 23 26  1  0
 26 27  1  0
 26 28  1  0
 26 29  1  0
 22 30  1  0
 30 31  1  0
 30 32  1  0
 30 33  1  0
 33 34  1  0
 33 35  1  0
 33 36  1  0
 12 37  2  0
 37 38  1  0
 38 39  1  0
 38 40  2  0
 40 41  1  0
 40 42  1  0
 42 43  1  0
 42 44  2  0
 44 45  1  0
 44 46  1  0
 46 47  2  0
 47 48  1  0
 48 49  1  0
 48 50  1  0
 48 51  1  0
 47 52  1  0
 52 53  2  0
 53 54  1  0
 53 55  1  0
  7 56  1  0
 56 57  1  0
 56 58  2  0
 58 59  1  0
 58  2  1  0
 55  9  1  0
 52 11  1  0
 46 37  1  0
M  CHG  3  13   1  47   1  55  -1
M  END
>  <UniqueID>  (8) 
8

>  <SMILES>  (8) 
CCN(CC)CC[NH2+]c1c2ccccc2[n+](C)c2c[n-]/c(=N/c3ccccc3)nc12

>  <Energy>  (8) 
94.92699574446142

>  <Genealogy>  (8) 
CCN(CC)CC[NH2+]c1c2ccccc2[n+](C)c2c[n-]c(=Nc3ccccc3)nc12 (protonated)
CCN(CC)CC[NH2+]c1c2ccccc2[n+](C)c2c[n-]/c(=N/c3ccccc3)nc12 (cis-trans isomerization)
CCN(CC)CC[NH2+]c1c2ccccc2[n+](C)c2c[n-]/c(=N/c3ccccc3)nc12 (3D coordinates assigned)
CCN(CC)CC[NH2+]c1c2ccccc2[n+](C)c2c[n-]/c(=N/c3ccccc3)nc12 (optimized conformer: 94.92699574446142 kcal/mol)

>  <smiles>  (8) 
CCN(CC)CCNc1c2ccccc2[n+](C)c2c[nH]c(=Nc3ccccc3)nc12

>  <score_type>  (8) 
oracle

>  <origin>  (8) 
adg

>  <m_score__min__energy>  (8) 
-8.6699999999999999

>  <m_primary>  (8) 
energy

$$$$
8:0
     RDKit          3D

 38 40  0  0  0  0  0  0  0  0999 V2000
   -6.3540   25.6010  -29.3290 C   0  0  0  0  0  0  0  0  0  0  0  0
   -5.3600   25.8220  -30.4650 C   0  0  0  0  0  0  0  0  0  0  0  0
   -4.7400   24.5930  -30.8420 O   0  0  0  0  0  0  0  0  0  0  0  0
   -5.3940   23.4890  -31.4150 C   0  0  0  0  0  0  0  0  0  0  0  0
   -6.7840   23.2990  -31.3340 C   0  0  0  0  0  0  0  0  0  0  0  0
   -7.3840   22.1860  -31.9290 C   0  0  0  0  0  0  0  0  0  0  0  0
   -6.6030   21.2200  -32.5970 C   0  0  0  0  0  0  0  0  0  0  0  0
   -5.2160   21.4250  -32.6890 C   0  0  0  0  0  0  0  0  0  0  0  0
   -4.6200   22.5510  -32.1050 C   0  0  0  0  0  0  0  0  0  0  0  0
   -4.3960   20.4100  -33.4190 C   0  0  0  0  0  0  0  0  0  0  0  0
   -4.8790   19.0230  -33.0020 C   0  0  0  0  0  0  0  0  0  0  0  0
   -6.3190   18.8040  -33.2960 N   0  0  0  0  0  0  0  0  0  0  0  0
   -6.8640   17.6880  -32.4830 C   0  0  0  0  0  0  0  0  0  0  0  0
   -7.5900   18.2020  -31.2330 C   0  0  0  0  0  0  0  0  0  0  0  0
   -8.7930   19.0860  -31.6070 C   0  0  0  0  0  0  0  0  0  0  0  0
   -8.6610   19.6900  -33.0150 C   0  0  0  0  0  0  0  0  0  0  0  0
   -7.1900   20.0270  -33.3620 C   0  0  1  0  0  0  0  0  0  0  0  0
   -5.8391   25.7155  -28.3637 H   0  0  0  0  0  0  0  0  0  0  0  0
   -7.1648   26.3408  -29.4021 H   0  0  0  0  0  0  0  0  0  0  0  0
   -6.7749   24.5873  -29.4021 H   0  0  0  0  0  0  0  0  0  0  0  0
   -5.8914   26.2391  -31.3332 H   0  0  0  0  0  0  0  0  0  0  0  0
   -4.5814   26.5190  -30.1217 H   0  0  0  0  0  0  0  0  0  0  0  0
   -7.4046   24.0322  -30.7980 H   0  0  0  0  0  0  0  0  0  0  0  0
   -8.4757   22.0621  -31.8759 H   0  0  0  0  0  0  0  0  0  0  0  0
   -3.5332   22.6982  -32.1902 H   0  0  0  0  0  0  0  0  0  0  0  0
   -4.5227   20.5385  -34.5041 H   0  0  0  0  0  0  0  0  0  0  0  0
   -3.3306   20.5326  -33.1743 H   0  0  0  0  0  0  0  0  0  0  0  0
   -4.2906   18.2680  -33.5439 H   0  0  0  0  0  0  0  0  0  0  0  0
   -4.7459   18.9386  -31.9133 H   0  0  0  0  0  0  0  0  0  0  0  0
   -7.5730   17.1126  -33.0964 H   0  0  0  0  0  0  0  0  0  0  0  0
   -6.0238   17.0569  -32.1578 H   0  0  0  0  0  0  0  0  0  0  0  0
   -7.9461   17.3420  -30.6468 H   0  0  0  0  0  0  0  0  0  0  0  0
   -6.8837   18.8080  -30.6466 H   0  0  0  0  0  0  0  0  0  0  0  0
   -9.7063   18.4741  -31.5692 H   0  0  0  0  0  0  0  0  0  0  0  0
   -8.8349   19.9173  -30.8879 H   0  0  0  0  0  0  0  0  0  0  0  0
   -9.0431   18.9662  -33.7499 H   0  0  0  0  0  0  0  0  0  0  0  0
   -9.2406   20.6245  -33.0413 H   0  0  0  0  0  0  0  0  0  0  0  0
   -7.2067   20.3725  -34.4062 H   0  0  0  0  0  0  0  0  0  0  0  0
  1  2  1  0
  2  3  1  0
  3  4  1  0
  4  5  2  0
  5  6  1  0
  6  7  2  0
  7  8  1  0
  8  9  2  0
  8 10  1  0
 10 11  1  0
 11 12  1  0
 12 13  1  0
 13 14  1  0
 14 15  1  0
 15 16  1  0
 16 17  1  0
  9  4  1  0
 17 12  1  0
 17  7  1  0
  1 18  1  0
  1 19  1  0
  1 20  1  0
  2 21  1  0
  2 22  1  0
  5 23  1  0
  6 24  1  0
  9 25  1  0
 10 26  1  0
 10 27  1  0
 11 28  1  0
 11 29  1  0
 13 30  1  0
 13 31  1  0
 14 32  1  0
 14 33  1  0
 15 34  1  0
 15 35  1  0
 16 36  1  0
 16 37  1  0
 17 38  1  6
M  END
>  <UniqueID>  (9) 
9

>  <SMILES>  (9) 
CCOc1ccc2c(c1)CCN1CCCC[C@@H]21

>  <Energy>  (9) 
56.57402172691842

>  <Genealogy>  (9) 
CCOc1ccc2c(c1)CCN1CCCC[C@@H]21 (chirality)
CCOc1ccc2c(c1)CCN1CCCC[C@@H]21 (3D coordinates assigned)
CCOc1ccc2c(c1)CCN1CCCC[C@@H]21 (nonaromatic ring conformer: 56.57402172691842 kcal/mol)

>  <smiles>  (9) 
CCOc1ccc2c(c1)CCN1CCCCC21

>  <score_type>  (9) 
oracle

>  <origin>  (9) 
adg

>  <m_score__min__energy>  (9) 
-7.8700000000000001

>  <m_primary>  (9) 
energy

$$$$
9:0
     RDKit          3D

 93 96  0  0  0  0  0  0  0  0999 V2000
   -3.1990   18.6550  -25.9500 C   0  0  0  0  0  0  0  0  0  0  0  0
   -2.6440   19.7280  -26.8900 C   0  0  0  0  0  0  0  0  0  0  0  0
   -1.1760   19.6010  -27.0420 N   0  0  0  0  0  0  0  0  0  0  0  0
   -0.7730   18.1790  -27.0910 C   0  0  0  0  0  0  0  0  0  0  0  0
   -0.7030   20.3090  -28.2560 C   0  0  0  0  0  0  0  0  0  0  0  0
   -1.6230   20.0250  -29.4550 C   0  0  0  0  0  0  0  0  0  0  0  0
   -1.2470   20.8160  -30.5720 O   0  0  0  0  0  0  0  0  0  0  0  0
   -0.0860   20.3230  -31.2140 C   0  0  0  0  0  0  0  0  0  0  0  0
    0.1100   20.9530  -32.5970 C   0  0  0  0  0  0  0  0  0  0  0  0
   -1.0410   21.6910  -32.9640 O   0  0  0  0  0  0  0  0  0  0  0  0
   -1.7810   20.9890  -33.9490 C   0  0  0  0  0  0  0  0  0  0  0  0
   -3.2170   20.6780  -33.4770 C   0  0  0  0  0  0  0  0  0  0  0  0
   -3.4020   20.8940  -32.0290 N   0  0  0  0  0  0  0  0  0  0  0  0
   -4.8080   21.0780  -31.7010 C   0  0  0  0  0  0  0  0  0  0  0  0
   -5.7280   20.0130  -31.9430 C   0  0  0  0  0  0  0  0  0  0  0  0
   -5.2930   18.7350  -32.3830 C   0  0  0  0  0  0  0  0  0  0  0  0
   -6.1980   17.7140  -32.6590 C   0  0  0  0  0  0  0  0  0  0  0  0
   -7.5570   17.9350  -32.5160 C   0  0  0  0  0  0  0  0  0  0  0  0
   -8.0180   19.1740  -32.0820 C   0  0  0  0  0  0  0  0  0  0  0  0
   -7.1200   20.2230  -31.7500 C   0  0  0  0  0  0  0  0  0  0  0  0
   -7.5830   21.4350  -31.2850 N   0  0  0  0  0  0  0  0  0  0  0  0
   -8.9890   21.5580  -30.8330 C   0  0  0  0  0  0  0  0  0  0  0  0
   -6.7320   22.5160  -31.1900 C   0  0  0  0  0  0  0  0  0  0  0  0
   -7.2530   23.8240  -31.0440 C   0  0  0  0  0  0  0  0  0  0  0  0
   -6.4270   24.9110  -30.8250 C   0  0  0  0  0  0  0  0  0  0  0  0
   -5.0620   24.7270  -30.7100 C   0  0  0  0  0  0  0  0  0  0  0  0
   -4.4840   23.4590  -30.8950 C   0  0  0  0  0  0  0  0  0  0  0  0
   -3.1040   23.3000  -30.6820 O   0  0  0  0  0  0  0  0  0  0  0  0
   -2.4830   23.0810  -29.4140 C   0  0  0  0  0  0  0  0  0  0  0  0
   -2.3710   24.4290  -28.6770 C   0  0  0  0  0  0  0  0  0  0  0  0
   -2.4890   24.3710  -27.1840 N   0  0  0  0  0  0  0  0  0  0  0  0
   -3.9180   24.4960  -26.7880 C   0  0  0  0  0  0  0  0  0  0  0  0
   -2.0050   23.0230  -26.7270 C   0  0  0  0  0  0  0  0  0  0  0  0
   -0.4960   23.0200  -26.4100 C   0  0  0  0  0  0  0  0  0  0  0  0
   -0.1630   23.9310  -25.2680 N   0  0  0  0  0  0  0  0  0  0  0  0
    1.2220   24.4370  -25.4430 C   0  0  0  0  0  0  0  0  0  0  0  0
   -0.2120   23.1710  -23.9940 C   0  0  0  0  0  0  0  0  0  0  0  0
   -1.1140   25.0860  -25.1800 C   0  0  0  0  0  0  0  0  0  0  0  0
   -1.6890   25.4770  -26.5570 C   0  0  0  0  0  0  0  0  0  0  0  0
   -5.3170   22.3420  -31.2560 C   0  0  0  0  0  0  0  0  0  0  0  0
   -3.0393   18.9637  -24.9063 H   0  0  0  0  0  0  0  0  0  0  0  0
   -4.2760   18.5277  -26.1341 H   0  0  0  0  0  0  0  0  0  0  0  0
   -2.6805   17.7025  -26.1341 H   0  0  0  0  0  0  0  0  0  0  0  0
   -3.1174   19.6198  -27.8770 H   0  0  0  0  0  0  0  0  0  0  0  0
   -2.8650   20.7158  -26.4595 H   0  0  0  0  0  0  0  0  0  0  0  0
   -0.6637   17.7934  -26.0666 H   0  0  0  0  0  0  0  0  0  0  0  0
   -1.5419   17.5981  -27.6214 H   0  0  0  0  0  0  0  0  0  0  0  0
    0.1864   18.0878  -27.6214 H   0  0  0  0  0  0  0  0  0  0  0  0
   -0.6922   21.3913  -28.0597 H   0  0  0  0  0  0  0  0  0  0  0  0
    0.3083   19.9504  -28.4984 H   0  0  0  0  0  0  0  0  0  0  0  0
   -1.5482   18.9610  -29.7240 H   0  0  0  0  0  0  0  0  0  0  0  0
   -2.6571   20.2752  -29.1755 H   0  0  0  0  0  0  0  0  0  0  0  0
    0.7906   20.5529  -30.5905 H   0  0  0  0  0  0  0  0  0  0  0  0
   -0.2031   19.2373  -31.3462 H   0  0  0  0  0  0  0  0  0  0  0  0
    0.9800   21.6256  -32.5702 H   0  0  0  0  0  0  0  0  0  0  0  0
    0.2760   20.1548  -33.3355 H   0  0  0  0  0  0  0  0  0  0  0  0
   -1.8313   21.6027  -34.8605 H   0  0  0  0  0  0  0  0  0  0  0  0
   -1.2711   20.0336  -34.1419 H   0  0  0  0  0  0  0  0  0  0  0  0
   -3.9152   21.3305  -34.0218 H   0  0  0  0  0  0  0  0  0  0  0  0
   -3.4097   19.6143  -33.6806 H   0  0  0  0  0  0  0  0  0  0  0  0
   -2.9780   20.1270  -31.4720 H   0  0  0  0  0  0  0  0  0  0  0  0
   -2.8540   21.7220  -31.7090 H   0  0  0  0  0  0  0  0  0  0  0  0
   -4.2164   18.5475  -32.5086 H   0  0  0  0  0  0  0  0  0  0  0  0
   -5.8330   16.7309  -32.9910 H   0  0  0  0  0  0  0  0  0  0  0  0
   -8.2722   17.1314  -32.7454 H   0  0  0  0  0  0  0  0  0  0  0  0
   -9.1011   19.3447  -31.9942 H   0  0  0  0  0  0  0  0  0  0  0  0
   -9.0218   21.5609  -29.7335 H   0  0  0  0  0  0  0  0  0  0  0  0
   -9.4161   22.4969  -31.2150 H   0  0  0  0  0  0  0  0  0  0  0  0
   -9.5727   20.7075  -31.2150 H   0  0  0  0  0  0  0  0  0  0  0  0
   -8.3402   23.9793  -31.1062 H   0  0  0  0  0  0  0  0  0  0  0  0
   -6.8556   25.9207  -30.7424 H   0  0  0  0  0  0  0  0  0  0  0  0
   -4.4181   25.5859  -30.4700 H   0  0  0  0  0  0  0  0  0  0  0  0
   -3.0920   22.3840  -28.8195 H   0  0  0  0  0  0  0  0  0  0  0  0
   -1.4816   22.6492  -29.5578 H   0  0  0  0  0  0  0  0  0  0  0  0
   -1.3914   24.8660  -28.9209 H   0  0  0  0  0  0  0  0  0  0  0  0
   -3.2276   25.0277  -29.0201 H   0  0  0  0  0  0  0  0  0  0  0  0
   -3.9952   24.5028  -25.6907 H   0  0  0  0  0  0  0  0  0  0  0  0
   -4.3293   25.4336  -27.1903 H   0  0  0  0  0  0  0  0  0  0  0  0
   -4.4858   23.6441  -27.1903 H   0  0  0  0  0  0  0  0  0  0  0  0
   -2.5577   22.7375  -25.8198 H   0  0  0  0  0  0  0  0  0  0  0  0
   -2.1787   22.3080  -27.5447 H   0  0  0  0  0  0  0  0  0  0  0  0
   -0.1895   21.9963  -26.1493 H   0  0  0  0  0  0  0  0  0  0  0  0
    0.0401   23.3799  -27.3006 H   0  0  0  0  0  0  0  0  0  0  0  0
    1.6788   24.6039  -24.4564 H   0  0  0  0  0  0  0  0  0  0  0  0
    1.8148   23.6974  -26.0011 H   0  0  0  0  0  0  0  0  0  0  0  0
    1.1984   25.3846  -26.0011 H   0  0  0  0  0  0  0  0  0  0  0  0
   -0.1668   23.8716  -23.1472 H   0  0  0  0  0  0  0  0  0  0  0  0
   -1.1490   22.5969  -23.9453 H   0  0  0  0  0  0  0  0  0  0  0  0
    0.6435   22.4813  -23.9453 H   0  0  0  0  0  0  0  0  0  0  0  0
   -1.9455   24.8097  -24.5149 H   0  0  0  0  0  0  0  0  0  0  0  0
   -0.5577   25.9510  -24.7896 H   0  0  0  0  0  0  0  0  0  0  0  0
   -2.3399   26.3547  -26.4307 H   0  0  0  0  0  0  0  0  0  0  0  0
   -0.8407   25.6935  -27.2230 H   0  0  0  0  0  0  0  0  0  0  0  0
  1  2  1  0
  2  3  1  0
  3  4  1  0
  3  5  1  0
  5  6  1  0
  6  7  1  0
  7  8  1  0
  8  9  1  0
  9 10  1  0
 10 11  1  0
 11 12  1  0
 12 13  1  0
 13 14  1  0
 14 15  2  0
 15 16  1  0
 16 17  2  0
 17 18  1  0
 18 19  2  0
 19 20  1  0
 20 21  2  0
 21 22  1  0
 21 23  1  0
 23 24  2  0
 24 25  1  0
 25 26  2  0
 26 27  1  0
 27 28  1  0
 28 29  1  0
 29 30  1  0
 30 31  1  0
 31 32  1  0
 31 33  1  0
 33 34  1  0
 34 35  1  0
 35 36  1  0
 35 37  1  0
 35 38  1  0
 38 39  1  0
 27 40  2  0
 40 14  1  0
 20 15  1  0
 40 23  1  0
 39 31  1  0
  1 41  1  0
  1 42  1  0
  1 43  1  0
  2 44  1  0
  2 45  1  0
  4 46  1  0
  4 47  1  0
  4 48  1  0
  5 49  1  0
  5 50  1  0
  6 51  1  0
  6 52  1  0
  8 53  1  0
  8 54  1  0
  9 55  1  0
  9 56  1  0
 11 57  1  0
 11 58  1  0
 12 59  1  0
 12 60  1  0
 13 61  1  0
 13 62  1  0
 16 63  1  0
 17 64  1  0
 18 65  1  0
 19 66  1  0
 22 67  1  0
 22 68  1  0
 22 69  1  0
 24 70  1  0
 25 71  1  0
 26 72  1  0
 29 73  1  0
 29 74  1  0
 30 75  1  0
 30 76  1  0
 32 77  1  0
 32 78  1  0
 32 79  1  0
 33 80  1  0
 33 81  1  0
 34 82  1  0
 34 83  1  0
 36 84  1  0
 36 85  1  0
 36 86  1  0
 37 87  1  0
 37 88  1  0
 37 89  1  0
 38 90  1  0
 38 91  1  0
 39 92  1  0
 39 93  1  0
M  CHG  4  13   1  21   1  31   1  35   1
M  END
>  <UniqueID>  (10) 
10

>  <SMILES>  (10) 
CCN(C)CCOCCOCC[NH2+]c1c2ccccc2[n+](C)c2cccc(OCC[N+]3(C)CC[N+](C)(C)CC3)c12

>  <Energy>  (10) 
150.90126467108504

>  <Genealogy>  (10) 
CCN(C)CCOCCOCC[NH2+]c1c2ccccc2[n+](C)c2cccc(OCC[N+]3(C)CC[N+](C)(C)CC3)c12 (protonated)
CCN(C)CCOCCOCC[NH2+]c1c2ccccc2[n+](C)c2cccc(OCC[N+]3(C)CC[N+](C)(C)CC3)c12 (3D coordinates assigned)
CCN(C)CCOCCOCC[NH2+]c1c2ccccc2[n+](C)c2cccc(OCC[N+]3(C)CC[N+](C)(C)CC3)c12 (nonaromatic ring conformer: 150.90126467108504 kcal/mol)

>  <smiles>  (10) 
CCN(C)CCOCCOCCNc1c2ccccc2[n+](C)c2cccc(OCC[N+]3(C)CC[N+](C)(C)CC3)c12

>  <score_type>  (10) 
oracle

>  <origin>  (10) 
adg

>  <m_score__min__energy>  (10) 
-8.3300000000000001

>  <m_primary>  (10) 
energy

$$$$
10:0
     RDKit          3D

 45 46  0  0  0  0  0  0  0  0999 V2000
   -3.9470   18.1460  -34.4320 C   0  0  0  0  0  0  0  0  0  0  0  0
   -5.1790   17.7900  -35.2560 C   0  0  0  0  0  0  0  0  0  0  0  0
   -6.3930   18.0180  -34.4620 N   0  0  0  0  0  0  0  0  0  0  0  0
   -6.1160   17.9510  -33.0190 C   0  0  0  0  0  0  0  0  0  0  0  0
   -7.3350   17.4360  -32.2380 C   0  0  0  0  0  0  0  0  0  0  0  0
   -8.3450   18.5390  -31.8700 C   0  0  0  0  0  0  0  0  0  0  0  0
   -8.7050   19.3760  -33.0300 N   0  0  0  0  0  0  0  0  0  0  0  0
   -8.9810   20.7690  -32.6400 C   0  0  0  0  0  0  0  0  0  0  0  0
   -7.7230   21.4970  -32.2250 C   0  0  0  0  0  0  0  0  0  0  0  0
   -6.4700   21.0360  -32.6580 C   0  0  0  0  0  0  0  0  0  0  0  0
   -5.2990   21.6850  -32.2550 C   0  0  0  0  0  0  0  0  0  0  0  0
   -5.3650   22.8000  -31.4090 C   0  0  0  0  0  0  0  0  0  0  0  0
   -4.1940   23.4570  -30.9980 C   0  0  0  0  0  0  0  0  0  0  0  0
   -4.2670   24.5750  -30.1440 C   0  0  0  0  0  0  0  0  0  0  0  0
   -3.1250   25.2630  -29.7060 O   0  0  0  0  0  0  0  0  0  0  0  0
   -2.2540   24.8040  -28.6780 C   0  0  0  0  0  0  0  0  0  0  0  0
   -5.5190   25.0250  -29.7090 C   0  0  0  0  0  0  0  0  0  0  0  0
   -6.6900   24.3790  -30.1130 C   0  0  0  0  0  0  0  0  0  0  0  0
   -6.6240   23.2660  -30.9630 C   0  0  0  0  0  0  0  0  0  0  0  0
   -7.7940   22.6110  -31.3730 C   0  0  0  0  0  0  0  0  0  0  0  0
   -4.1892   18.0760  -33.3613 H   0  0  0  0  0  0  0  0  0  0  0  0
   -3.1320   17.4466  -34.6700 H   0  0  0  0  0  0  0  0  0  0  0  0
   -3.6307   19.1723  -34.6700 H   0  0  0  0  0  0  0  0  0  0  0  0
   -5.2092   18.4192  -36.1578 H   0  0  0  0  0  0  0  0  0  0  0  0
   -5.1283   16.7297  -35.5446 H   0  0  0  0  0  0  0  0  0  0  0  0
   -6.7350   18.9840  -34.6770 H   0  0  0  0  0  0  0  0  0  0  0  0
   -5.2682   17.2712  -32.8484 H   0  0  0  0  0  0  0  0  0  0  0  0
   -5.8803   18.9651  -32.6640 H   0  0  0  0  0  0  0  0  0  0  0  0
   -7.8504   16.6847  -32.8544 H   0  0  0  0  0  0  0  0  0  0  0  0
   -6.9582   17.0167  -31.2934 H   0  0  0  0  0  0  0  0  0  0  0  0
   -9.2576   18.0667  -31.4774 H   0  0  0  0  0  0  0  0  0  0  0  0
   -7.8747   19.1895  -31.1178 H   0  0  0  0  0  0  0  0  0  0  0  0
   -7.9300   19.3670  -33.7310 H   0  0  0  0  0  0  0  0  0  0  0  0
   -9.5680   18.9920  -33.4810 H   0  0  0  0  0  0  0  0  0  0  0  0
   -9.4311   21.2952  -33.4947 H   0  0  0  0  0  0  0  0  0  0  0  0
   -9.6658   20.7532  -31.7793 H   0  0  0  0  0  0  0  0  0  0  0  0
   -6.4089   20.1586  -33.3186 H   0  0  0  0  0  0  0  0  0  0  0  0
   -4.3220   21.3188  -32.6035 H   0  0  0  0  0  0  0  0  0  0  0  0
   -3.2142   23.0967  -31.3448 H   0  0  0  0  0  0  0  0  0  0  0  0
   -2.6923   25.0350  -27.6959 H   0  0  0  0  0  0  0  0  0  0  0  0
   -2.1170   23.7166  -28.7719 H   0  0  0  0  0  0  0  0  0  0  0  0
   -1.2796   25.3057  -28.7719 H   0  0  0  0  0  0  0  0  0  0  0  0
   -5.5816   25.8971  -29.0415 H   0  0  0  0  0  0  0  0  0  0  0  0
   -7.6667   24.7447  -29.7632 H   0  0  0  0  0  0  0  0  0  0  0  0
   -8.7732   22.9719  -31.0252 H   0  0  0  0  0  0  0  0  0  0  0  0
  1  2  1  0
  2  3  1  0
  3  4  1  0
  4  5  1  0
  5  6  1  0
  6  7  1  0
  7  8  1  0
  8  9  1  0
  9 10  2  0
 10 11  1  0
 11 12  2  0
 12 13  1  0
 13 14  2  0
 14 15  1  0
 15 16  1  0
 14 17  1  0
 17 18  2  0
 18 19  1  0
 19 20  2  0
 20  9  1  0
 19 12  1  0
  1 21  1  0
  1 22  1  0
  1 23  1  0
  2 24  1  0
  2 25  1  0
  3 26  1  0
  4 27  1  0
  4 28  1  0
  5 29  1  0
  5 30  1  0
  6 31  1  0
  6 32  1  0
  7 33  1  0
  7 34  1  0
  8 35  1  0
  8 36  1  0
 10 37  1  0
 11 38  1  0
 13 39  1  0
 16 40  1  0
 16 41  1  0
 16 42  1  0
 17 43  1  0
 18 44  1  0
 20 45  1  0
M  CHG  1   7   1
M  END
>  <UniqueID>  (11) 
11

>  <SMILES>  (11) 
CCNCCC[NH2+]Cc1ccc2cc(OC)ccc2c1

>  <Energy>  (11) 
40.57371166753969

>  <Genealogy>  (11) 
CCNCCC[NH2+]Cc1ccc2cc(OC)ccc2c1 (protonated)
CCNCCC[NH2+]Cc1ccc2cc(OC)ccc2c1 (3D coordinates assigned)
CCNCCC[NH2+]Cc1ccc2cc(OC)ccc2c1 (optimized conformer: 40.57371166753969 kcal/mol)

>  <smiles>  (11) 
CCNCCCNCc1ccc2cc(OC)ccc2c1

>  <score_type>  (11) 
oracle

>  <origin>  (11) 
adg

>  <m_score__min__energy>  (11) 
-7.5700000000000003

>  <m_primary>  (11) 
energy

$$$$
11:0
     RDKit          3D

 50 51  0  0  0  0  0  0  0  0999 V2000
   -1.2630   20.6140  -33.3460 C   0  0  0  0  0  0  0  0  0  0  0  0
   -1.6920   19.5750  -32.3190 C   0  0  0  0  0  0  0  0  0  0  0  0
   -3.1640   19.6340  -32.1230 N   0  0  0  0  0  0  0  0  0  0  0  0
   -3.4880   20.6940  -31.1460 C   0  0  0  0  0  0  0  0  0  0  0  0
   -3.8810   19.7730  -33.4290 C   0  0  1  0  0  0  0  0  0  0  0  0
   -4.5510   18.4110  -33.7890 C   0  0  0  0  0  0  0  0  0  0  0  0
   -5.9740   18.5530  -34.3530 C   0  0  0  0  0  0  0  0  0  0  0  0
   -6.8840   19.2920  -33.4320 N   0  0  1  0  0  0  0  0  0  0  0  0
   -7.5160   18.3640  -32.4610 C   0  0  0  0  0  0  0  0  0  0  0  0
   -8.7960   18.9540  -31.8430 C   0  0  0  0  0  0  0  0  0  0  0  0
   -9.2760   20.0800  -32.6660 N   0  0  0  0  0  0  0  0  0  0  0  0
   -9.7150   21.2250  -31.8550 C   0  0  0  0  0  0  0  0  0  0  0  0
   -8.5440   22.0800  -31.4510 C   0  0  0  0  0  0  0  0  0  0  0  0
   -7.9880   23.0060  -32.3500 C   0  0  0  0  0  0  0  0  0  0  0  0
   -6.9080   23.8040  -31.9620 C   0  0  0  0  0  0  0  0  0  0  0  0
   -6.3790   23.6880  -30.6720 C   0  0  0  0  0  0  0  0  0  0  0  0
   -4.9540   24.8300  -30.1110 Br  0  0  0  0  0  0  0  0  0  0  0  0
   -6.9100   22.7510  -29.7810 C   0  0  0  0  0  0  0  0  0  0  0  0
   -7.9850   21.9450  -30.1700 C   0  0  0  0  0  0  0  0  0  0  0  0
   -6.2250   20.4380  -32.7390 C   0  0  0  0  0  0  0  0  0  0  0  0
   -4.9490   20.9040  -33.4460 C   0  0  0  0  0  0  0  0  0  0  0  0
   -0.8927   21.5108  -32.8277 H   0  0  0  0  0  0  0  0  0  0  0  0
   -0.4630   20.1981  -33.9761 H   0  0  0  0  0  0  0  0  0  0  0  0
   -2.1233   20.8837  -33.9761 H   0  0  0  0  0  0  0  0  0  0  0  0
   -1.4115   18.5728  -32.6753 H   0  0  0  0  0  0  0  0  0  0  0  0
   -1.1910   19.7837  -31.3622 H   0  0  0  0  0  0  0  0  0  0  0  0
   -3.3679   20.3012  -30.1255 H   0  0  0  0  0  0  0  0  0  0  0  0
   -2.8097   21.5475  -31.2925 H   0  0  0  0  0  0  0  0  0  0  0  0
   -4.5275   21.0224  -31.2925 H   0  0  0  0  0  0  0  0  0  0  0  0
   -3.1260   20.0563  -34.1772 H   0  0  0  0  0  0  0  0  0  0  0  0
   -4.5980   17.7956  -32.8785 H   0  0  0  0  0  0  0  0  0  0  0  0
   -3.9375   17.9488  -34.5764 H   0  0  0  0  0  0  0  0  0  0  0  0
   -6.3868   17.5480  -34.5250 H   0  0  0  0  0  0  0  0  0  0  0  0
   -5.9062   19.1288  -35.2878 H   0  0  0  0  0  0  0  0  0  0  0  0
   -7.6480   19.6820  -34.0340 H   0  0  0  0  0  0  0  0  0  0  0  0
   -7.7716   17.4283  -32.9798 H   0  0  0  0  0  0  0  0  0  0  0  0
   -6.7982   18.1864  -31.6466 H   0  0  0  0  0  0  0  0  0  0  0  0
   -9.5726   18.1762  -31.8000 H   0  0  0  0  0  0  0  0  0  0  0  0
   -8.5756   19.3149  -30.8275 H   0  0  0  0  0  0  0  0  0  0  0  0
   -8.4790   20.4100  -33.2590 H   0  0  0  0  0  0  0  0  0  0  0  0
  -10.4188   21.8331  -32.4423 H   0  0  0  0  0  0  0  0  0  0  0  0
  -10.2015   20.8440  -30.9449 H   0  0  0  0  0  0  0  0  0  0  0  0
   -8.4045   23.1033  -33.3634 H   0  0  0  0  0  0  0  0  0  0  0  0
   -6.4737   24.5238  -32.6714 H   0  0  0  0  0  0  0  0  0  0  0  0
   -6.4821   22.6474  -28.7730 H   0  0  0  0  0  0  0  0  0  0  0  0
   -8.3942   21.2022  -29.4694 H   0  0  0  0  0  0  0  0  0  0  0  0
   -5.9668   20.1285  -31.7155 H   0  0  0  0  0  0  0  0  0  0  0  0
   -6.9330   21.2798  -32.7441 H   0  0  0  0  0  0  0  0  0  0  0  0
   -4.5495   21.7887  -32.9286 H   0  0  0  0  0  0  0  0  0  0  0  0
   -5.1887   21.1553  -34.4897 H   0  0  0  0  0  0  0  0  0  0  0  0
  1  2  1  0
  2  3  1  0
  3  4  1  0
  3  5  1  0
  5  6  1  0
  6  7  1  0
  7  8  1  0
  8  9  1  0
  9 10  1  0
 10 11  1  0
 11 12  1  0
 12 13  1  0
 13 14  2  0
 14 15  1  0
 15 16  2  0
 16 17  1  0
 16 18  1  0
 18 19  2  0
  8 20  1  0
 20 21  1  0
 21  5  1  0
 19 13  1  0
  1 22  1  0
  1 23  1  0
  1 24  1  0
  2 25  1  0
  2 26  1  0
  4 27  1  0
  4 28  1  0
  4 29  1  0
  5 30  1  6
  6 31  1  0
  6 32  1  0
  7 33  1  0
  7 34  1  0
  8 35  1  6
  9 36  1  0
  9 37  1  0
 10 38  1  0
 10 39  1  0
 11 40  1  0
 12 41  1  0
 12 42  1  0
 14 43  1  0
 15 44  1  0
 18 45  1  0
 19 46  1  0
 20 47  1  0
 20 48  1  0
 21 49  1  0
 21 50  1  0
M  CHG  1   8   1
M  END
>  <UniqueID>  (12) 
12

>  <SMILES>  (12) 
CCN(C)C1CC[NH+](CCNCc2ccc(Br)cc2)CC1

>  <Energy>  (12) 
61.126974610475045

>  <Genealogy>  (12) 
CCN(C)C1CC[NH+](CCNCc2ccc(Br)cc2)CC1 (protonated)
CCN(C)C1CC[NH+](CCNCc2ccc(Br)cc2)CC1 (3D coordinates assigned)
CCN(C)C1CC[NH+](CCNCc2ccc(Br)cc2)CC1 (nonaromatic ring conformer: 61.126974610475045 kcal/mol)

>  <smiles>  (12) 
CCN(C)C1CCN(CCNCc2ccc(Br)cc2)CC1

>  <score_type>  (12) 
oracle

>  <origin>  (12) 
adg

>  <m_score__min__energy>  (12) 
-7.1200000000000001

>  <m_primary>  (12) 
energy

$$$$
12:0
     RDKit          3D

 83 86  0  0  0  0  0  0  0  0999 V2000
   -2.7390   19.6340  -26.7330 C   0  0  0  0  0  0  0  0  0  0  0  0
   -2.4840   20.8260  -27.6580 C   0  0  0  0  0  0  0  0  0  0  0  0
   -1.6660   20.4510  -28.8330 N   0  0  0  0  0  0  0  0  0  0  0  0
   -0.9150   19.2110  -28.5740 C   0  0  0  0  0  0  0  0  0  0  0  0
   -0.8120   21.5340  -29.3890 C   0  0  0  0  0  0  0  0  0  0  0  0
   -0.1120   21.2050  -30.7190 C   0  0  0  0  0  0  0  0  0  0  0  0
   -0.8650   20.2610  -31.4510 O   0  0  0  0  0  0  0  0  0  0  0  0
   -1.1920   20.7980  -32.7160 C   0  0  0  0  0  0  0  0  0  0  0  0
   -2.4870   21.5990  -32.6050 C   0  0  0  0  0  0  0  0  0  0  0  0
   -3.2410   21.2060  -31.4110 N   0  0  0  0  0  0  0  0  0  0  0  0
   -4.6770   21.2900  -31.3560 C   0  0  0  0  0  0  0  0  0  0  0  0
   -5.4400   20.2850  -31.9800 C   0  0  0  0  0  0  0  0  0  0  0  0
   -4.8210   19.1210  -32.4890 C   0  0  0  0  0  0  0  0  0  0  0  0
   -5.5600   18.1660  -33.1820 C   0  0  0  0  0  0  0  0  0  0  0  0
   -6.9200   18.3570  -33.3920 C   0  0  0  0  0  0  0  0  0  0  0  0
   -7.5570   19.4880  -32.8810 C   0  0  0  0  0  0  0  0  0  0  0  0
   -6.8400   20.4570  -32.1350 C   0  0  0  0  0  0  0  0  0  0  0  0
   -7.4640   21.5700  -31.6070 N   0  0  0  0  0  0  0  0  0  0  0  0
   -8.9430   21.6270  -31.5410 C   0  0  0  0  0  0  0  0  0  0  0  0
   -6.7110   22.6150  -31.1030 C   0  0  0  0  0  0  0  0  0  0  0  0
   -7.2940   23.8790  -30.8460 C   0  0  0  0  0  0  0  0  0  0  0  0
   -6.5630   24.9030  -30.2580 C   0  0  0  0  0  0  0  0  0  0  0  0
   -5.2460   24.6890  -29.8740 C   0  0  0  0  0  0  0  0  0  0  0  0
   -4.6120   23.4620  -30.1340 C   0  0  0  0  0  0  0  0  0  0  0  0
   -3.3170   23.2040  -29.5510 N   0  0  0  0  0  0  0  0  0  0  0  0
   -2.5800   24.1780  -28.7470 C   0  0  0  0  0  0  0  0  0  0  0  0
   -2.8880   23.9720  -27.2570 C   0  0  0  0  0  0  0  0  0  0  0  0
   -2.3550   25.1550  -26.4130 C   0  0  0  0  0  0  0  0  0  0  0  0
   -0.9510   25.0100  -25.8900 N   0  0  0  0  0  0  0  0  0  0  0  0
   -0.5170   23.5990  -26.0590 C   0  0  0  0  0  0  0  0  0  0  0  0
   -0.0290   25.8870  -26.7090 C   0  0  0  0  0  0  0  0  0  0  0  0
    0.4180   27.1970  -26.0140 C   0  0  0  0  0  0  0  0  0  0  0  0
   -0.7030   27.8040  -25.1750 C   0  0  0  0  0  0  0  0  0  0  0  0
   -1.2330   26.8080  -24.1270 C   0  0  0  0  0  0  0  0  0  0  0  0
   -0.8430   25.3480  -24.4370 C   0  0  0  0  0  0  0  0  0  0  0  0
   -5.3170   22.4500  -30.8550 C   0  0  0  0  0  0  0  0  0  0  0  0
   -2.6690   19.9614  -25.6852 H   0  0  0  0  0  0  0  0  0  0  0  0
   -3.7439   19.2297  -26.9244 H   0  0  0  0  0  0  0  0  0  0  0  0
   -1.9874   18.8540  -26.9244 H   0  0  0  0  0  0  0  0  0  0  0  0
   -3.4507   21.2168  -28.0084 H   0  0  0  0  0  0  0  0  0  0  0  0
   -1.9306   21.5864  -27.0875 H   0  0  0  0  0  0  0  0  0  0  0  0
   -0.8225   19.0583  -27.4886 H   0  0  0  0  0  0  0  0  0  0  0  0
   -1.4490   18.3590  -29.0200 H   0  0  0  0  0  0  0  0  0  0  0  0
    0.0875   19.2895  -29.0200 H   0  0  0  0  0  0  0  0  0  0  0  0
   -1.4465   22.4182  -29.5490 H   0  0  0  0  0  0  0  0  0  0  0  0
   -0.0085   21.6936  -28.6549 H   0  0  0  0  0  0  0  0  0  0  0  0
   -0.0097   22.1257  -31.3122 H   0  0  0  0  0  0  0  0  0  0  0  0
    0.8803   20.7813  -30.5048 H   0  0  0  0  0  0  0  0  0  0  0  0
   -0.3801   21.4576  -33.0562 H   0  0  0  0  0  0  0  0  0  0  0  0
   -1.3254   19.9806  -33.4399 H   0  0  0  0  0  0  0  0  0  0  0  0
   -2.2444   22.6701  -32.5420 H   0  0  0  0  0  0  0  0  0  0  0  0
   -3.1035   21.3978  -33.4935 H   0  0  0  0  0  0  0  0  0  0  0  0
   -2.7320   20.7370  -30.6280 H   0  0  0  0  0  0  0  0  0  0  0  0
   -3.7426   18.9677  -32.3359 H   0  0  0  0  0  0  0  0  0  0  0  0
   -5.0668   17.2598  -33.5635 H   0  0  0  0  0  0  0  0  0  0  0  0
   -7.4963   17.6141  -33.9630 H   0  0  0  0  0  0  0  0  0  0  0  0
   -8.6330   19.6302  -33.0598 H   0  0  0  0  0  0  0  0  0  0  0  0
   -9.2629   21.6393  -30.4886 H   0  0  0  0  0  0  0  0  0  0  0  0
   -9.2975   22.5395  -32.0427 H   0  0  0  0  0  0  0  0  0  0  0  0
   -9.3667   20.7445  -32.0427 H   0  0  0  0  0  0  0  0  0  0  0  0
   -8.3457   24.0535  -31.1171 H   0  0  0  0  0  0  0  0  0  0  0  0
   -7.0287   25.8863  -30.0960 H   0  0  0  0  0  0  0  0  0  0  0  0
   -4.6925   25.4889  -29.3604 H   0  0  0  0  0  0  0  0  0  0  0  0
   -2.9490   22.2270  -29.5660 H   0  0  0  0  0  0  0  0  0  0  0  0
   -1.5010   24.0483  -28.9169 H   0  0  0  0  0  0  0  0  0  0  0  0
   -2.8854   25.1930  -29.0412 H   0  0  0  0  0  0  0  0  0  0  0  0
   -3.9770   23.8952  -27.1218 H   0  0  0  0  0  0  0  0  0  0  0  0
   -2.3925   23.0494  -26.9204 H   0  0  0  0  0  0  0  0  0  0  0  0
   -2.3895   26.0585  -27.0396 H   0  0  0  0  0  0  0  0  0  0  0  0
   -3.0006   25.2005  -25.5235 H   0  0  0  0  0  0  0  0  0  0  0  0
   -0.3752   23.1381  -25.0703 H   0  0  0  0  0  0  0  0  0  0  0  0
   -1.2857   23.0431  -26.6159 H   0  0  0  0  0  0  0  0  0  0  0  0
    0.4312   23.5712  -26.6159 H   0  0  0  0  0  0  0  0  0  0  0  0
    0.8721   25.3037  -26.9493 H   0  0  0  0  0  0  0  0  0  0  0  0
   -0.6028   26.1908  -27.5969 H   0  0  0  0  0  0  0  0  0  0  0  0
    1.2745   26.9785  -25.3593 H   0  0  0  0  0  0  0  0  0  0  0  0
    0.6921   27.9220  -26.7945 H   0  0  0  0  0  0  0  0  0  0  0  0
   -0.3184   28.6952  -24.6574 H   0  0  0  0  0  0  0  0  0  0  0  0
   -1.5320   28.0666  -25.8487 H   0  0  0  0  0  0  0  0  0  0  0  0
   -0.8213   27.0803  -23.1440 H   0  0  0  0  0  0  0  0  0  0  0  0
   -2.3313   26.8669  -24.1407 H   0  0  0  0  0  0  0  0  0  0  0  0
    0.1968   25.1873  -24.1161 H   0  0  0  0  0  0  0  0  0  0  0  0
   -1.5453   24.6977  -23.8949 H   0  0  0  0  0  0  0  0  0  0  0  0
  1  2  1  0
  2  3  1  0
  3  4  1  0
  3  5  1  0
  5  6  1  0
  6  7  1  0
  7  8  1  0
  8  9  1  0
  9 10  1  0
 10 11  1  0
 11 12  2  0
 12 13  1  0
 13 14  2  0
 14 15  1  0
 15 16  2  0
 16 17  1  0
 17 18  2  0
 18 19  1  0
 18 20  1  0
 20 21  2  0
 21 22  1  0
 22 23  2  0
 23 24  1  0
 24 25  1  0
 25 26  1  0
 26 27  1  0
 27 28  1  0
 28 29  1  0
 29 30  1  0
 29 31  1  0
 31 32  1  0
 32 33  1  0
 33 34  1  0
 34 35  1  0
 24 36  2  0
 36 11  1  0
 17 12  1  0
 36 20  1  0
 35 29  1  0
  1 37  1  0
  1 38  1  0
  1 39  1  0
  2 40  1  0
  2 41  1  0
  4 42  1  0
  4 43  1  0
  4 44  1  0
  5 45  1  0
  5 46  1  0
  6 47  1  0
  6 48  1  0
  8 49  1  0
  8 50  1  0
  9 51  1  0
  9 52  1  0
 10 53  1  0
 13 54  1  0
 14 55  1  0
 15 56  1  0
 16 57  1  0
 19 58  1  0
 19 59  1  0
 19 60  1  0
 21 61  1  0
 22 62  1  0
 23 63  1  0
 25 64  1  0
 26 65  1  0
 26 66  1  0
 27 67  1  0
 27 68  1  0
 28 69  1  0
 28 70  1  0
 30 71  1  0
 30 72  1  0
 30 73  1  0
 31 74  1  0
 31 75  1  0
 32 76  1  0
 32 77  1  0
 33 78  1  0
 33 79  1  0
 34 80  1  0
 34 81  1  0
 35 82  1  0
 35 83  1  0
M  CHG  2  18   1  29   1
M  END
>  <UniqueID>  (13) 
13

>  <SMILES>  (13) 
CCN(C)CCOCCNc1c2ccccc2[n+](C)c2cccc(NCCC[N+]3(C)CCCCC3)c12

>  <Energy>  (13) 
133.6603638439688

>  <Genealogy>  (13) 
CCN(C)CCOCCNc1c2ccccc2[n+](C)c2cccc(NCCC[N+]3(C)CCCCC3)c12 (3D coordinates assigned)
CCN(C)CCOCCNc1c2ccccc2[n+](C)c2cccc(NCCC[N+]3(C)CCCCC3)c12 (nonaromatic ring conformer: 133.6603638439688 kcal/mol)

>  <smiles>  (13) 
CCN(C)CCOCCNc1c2ccccc2[n+](C)c2cccc(NCCC[N+]3(C)CCCCC3)c12

>  <score_type>  (13) 
oracle

>  <origin>  (13) 
adg

>  <m_score__min__energy>  (13) 
-8.2699999999999996

>  <m_primary>  (13) 
energy

$$$$
13:0
     RDKit          3D

 45 46  0  0  0  0  0  0  0  0999 V2000
   -8.7160   19.2990  -31.8600 C   0  0  0  0  0  0  0  0  0  0  0  0
   -8.6610   20.5980  -32.6560 C   0  0  0  0  0  0  0  0  0  0  0  0
   -7.9620   21.6760  -31.8700 C   0  0  0  0  0  0  0  0  0  0  0  0
   -8.0160   21.6770  -30.4670 C   0  0  0  0  0  0  0  0  0  0  0  0
   -7.3940   22.6940  -29.7390 C   0  0  0  0  0  0  0  0  0  0  0  0
   -6.7220   23.7330  -30.4030 C   0  0  0  0  0  0  0  0  0  0  0  0
   -6.0200   24.8100  -29.6180 C   0  0  0  0  0  0  0  0  0  0  0  0
   -5.2320   25.7520  -30.5370 C   0  0  0  0  0  0  0  0  0  0  0  0
   -3.8810   25.2500  -30.7740 N   0  0  0  0  0  0  0  0  0  0  0  0
   -3.1100   24.5540  -29.7920 C   0  0  0  0  0  0  0  0  0  0  0  0
   -2.3140   25.1810  -29.0400 O   0  0  0  0  0  0  0  0  0  0  0  0
   -3.2320   23.0630  -29.6700 C   0  0  0  0  0  0  0  0  0  0  0  0
   -3.8650   22.4590  -30.8540 N   0  0  0  0  0  0  0  0  0  0  0  0
   -2.9040   21.7670  -31.7240 C   0  0  0  0  0  0  0  0  0  0  0  0
   -3.5830   20.6790  -32.5130 C   0  0  0  0  0  0  0  0  0  0  0  0
   -2.8440   19.8950  -33.4140 C   0  0  0  0  0  0  0  0  0  0  0  0
   -3.4760   18.8970  -34.1630 C   0  0  0  0  0  0  0  0  0  0  0  0
   -4.8490   18.6790  -34.0210 C   0  0  0  0  0  0  0  0  0  0  0  0
   -5.4600   17.7120  -34.7490 F   0  0  0  0  0  0  0  0  0  0  0  0
   -5.5930   19.4580  -33.1300 C   0  0  0  0  0  0  0  0  0  0  0  0
   -4.9650   20.4570  -32.3790 C   0  0  0  0  0  0  0  0  0  0  0  0
   -6.6700   23.7330  -31.8060 C   0  0  0  0  0  0  0  0  0  0  0  0
   -7.2930   22.7160  -32.5350 C   0  0  0  0  0  0  0  0  0  0  0  0
   -8.7063   19.5276  -30.7841 H   0  0  0  0  0  0  0  0  0  0  0  0
   -9.6380   18.7540  -32.1108 H   0  0  0  0  0  0  0  0  0  0  0  0
   -7.8433   18.6781  -32.1108 H   0  0  0  0  0  0  0  0  0  0  0  0
   -8.1142   20.4234  -33.5944 H   0  0  0  0  0  0  0  0  0  0  0  0
   -9.6893   20.9260  -32.8682 H   0  0  0  0  0  0  0  0  0  0  0  0
   -8.5504   20.8735  -29.9389 H   0  0  0  0  0  0  0  0  0  0  0  0
   -7.4308   22.6809  -28.6397 H   0  0  0  0  0  0  0  0  0  0  0  0
   -6.7693   25.3948  -29.0643 H   0  0  0  0  0  0  0  0  0  0  0  0
   -5.3115   24.3282  -28.9281 H   0  0  0  0  0  0  0  0  0  0  0  0
   -5.7574   25.8367  -31.4997 H   0  0  0  0  0  0  0  0  0  0  0  0
   -5.1579   26.7346  -30.0480 H   0  0  0  0  0  0  0  0  0  0  0  0
   -2.2265   22.6339  -29.5480 H   0  0  0  0  0  0  0  0  0  0  0  0
   -3.8678   22.8459  -28.7990 H   0  0  0  0  0  0  0  0  0  0  0  0
   -4.3350   23.2130  -31.4090 H   0  0  0  0  0  0  0  0  0  0  0  0
   -2.4599   22.4936  -32.4202 H   0  0  0  0  0  0  0  0  0  0  0  0
   -2.1241   21.3121  -31.0957 H   0  0  0  0  0  0  0  0  0  0  0  0
   -1.7638   20.0665  -33.5311 H   0  0  0  0  0  0  0  0  0  0  0  0
   -2.8918   18.2832  -34.8644 H   0  0  0  0  0  0  0  0  0  0  0  0
   -6.6737   19.2851  -33.0194 H   0  0  0  0  0  0  0  0  0  0  0  0
   -5.5539   21.0708  -31.6815 H   0  0  0  0  0  0  0  0  0  0  0  0
   -6.1365   24.5371  -32.3340 H   0  0  0  0  0  0  0  0  0  0  0  0
   -7.2590   22.7305  -33.6344 H   0  0  0  0  0  0  0  0  0  0  0  0
  1  2  1  0
  2  3  1  0
  3  4  2  0
  4  5  1  0
  5  6  2  0
  6  7  1  0
  7  8  1  0
  8  9  1  0
  9 10  1  0
 10 11  2  0
 10 12  1  0
 12 13  1  0
 13 14  1  0
 14 15  1  0
 15 16  2  0
 16 17  1  0
 17 18  2  0
 18 19  1  0
 18 20  1  0
 20 21  2  0
  6 22  1  0
 22 23  2  0
 23  3  1  0
 21 15  1  0
  1 24  1  0
  1 25  1  0
  1 26  1  0
  2 27  1  0
  2 28  1  0
  4 29  1  0
  5 30  1  0
  7 31  1  0
  7 32  1  0
  8 33  1  0
  8 34  1  0
 12 35  1  0
 12 36  1  0
 13 37  1  0
 14 38  1  0
 14 39  1  0
 16 40  1  0
 17 41  1  0
 20 42  1  0
 21 43  1  0
 22 44  1  0
 23 45  1  0
M  CHG  1   9  -1
M  END
>  <UniqueID>  (14) 
14

>  <SMILES>  (14) 
CCc1ccc(CC[N-]C(=O)CNCc2ccc(F)cc2)cc1

>  <Energy>  (14) 
35.97122197304546

>  <Genealogy>  (14) 
CCc1ccc(CC[N-]C(=O)CNCc2ccc(F)cc2)cc1 (protonated)
CCc1ccc(CC[N-]C(=O)CNCc2ccc(F)cc2)cc1 (3D coordinates assigned)
CCc1ccc(CC[N-]C(=O)CNCc2ccc(F)cc2)cc1 (optimized conformer: 35.97122197304546 kcal/mol)

>  <smiles>  (14) 
CCc1ccc(CCNC(=O)CNCc2ccc(F)cc2)cc1

>  <score_type>  (14) 
oracle

>  <origin>  (14) 
adg

>  <m_score__min__energy>  (14) 
-9.5

>  <m_primary>  (14) 
energy

$$$$
14:0
     RDKit          3D

 43 43  0  0  0  0  0  0  0  0999 V2000
   -3.8020   20.6500  -33.4290 C   0  0  0  0  0  0  0  0  0  0  0  0
   -3.8620   21.9420  -32.6120 C   0  0  0  0  0  0  0  0  0  0  0  0
   -3.0420   21.8070  -31.3250 C   0  0  0  0  0  0  0  0  0  0  0  0
   -5.2560   22.2670  -32.2940 N   0  0  0  0  0  0  0  0  0  0  0  0
   -5.6140   23.4250  -31.5260 C   0  0  0  0  0  0  0  0  0  0  0  0
   -4.7410   24.2810  -31.2170 O   0  0  0  0  0  0  0  0  0  0  0  0
   -7.0180   23.5940  -31.0280 C   0  0  0  0  0  0  0  0  0  0  0  0
   -8.0470   22.9360  -31.9620 C   0  0  0  0  0  0  0  0  0  0  0  0
   -8.9720   21.9250  -31.2440 C   0  0  0  0  0  0  0  0  0  0  0  0
   -9.1610   20.6790  -32.0080 N   0  0  0  0  0  0  0  0  0  0  0  0
   -8.1070   19.6980  -31.7240 C   0  0  0  0  0  0  0  0  0  0  0  0
   -7.2590   19.4900  -32.9480 C   0  0  0  0  0  0  0  0  0  0  0  0
   -7.2350   20.3870  -33.8330 O   0  0  0  0  0  0  0  0  0  0  0  0
   -6.5000   18.2820  -33.1370 N   0  0  0  0  0  0  0  0  0  0  0  0
   -5.7380   18.0120  -34.3420 C   0  0  0  0  0  0  0  0  0  0  0  0
   -5.2440   16.5780  -34.2040 C   0  0  0  0  0  0  0  0  0  0  0  0
   -5.3900   16.2270  -32.7250 C   0  0  0  0  0  0  0  0  0  0  0  0
   -6.4160   17.2040  -32.1650 C   0  0  0  0  0  0  0  0  0  0  0  0
   -3.7619   19.7871  -32.7480 H   0  0  0  0  0  0  0  0  0  0  0  0
   -4.6976   20.5753  -34.0632 H   0  0  0  0  0  0  0  0  0  0  0  0
   -2.9033   20.6586  -34.0632 H   0  0  0  0  0  0  0  0  0  0  0  0
   -3.4307   22.7572  -33.2115 H   0  0  0  0  0  0  0  0  0  0  0  0
   -3.7054   21.9162  -30.4544 H   0  0  0  0  0  0  0  0  0  0  0  0
   -2.5618   20.8177  -31.2983 H   0  0  0  0  0  0  0  0  0  0  0  0
   -2.2700   22.5901  -31.2983 H   0  0  0  0  0  0  0  0  0  0  0  0
   -6.0110   21.5980  -32.5660 H   0  0  0  0  0  0  0  0  0  0  0  0
   -7.0986   23.1345  -30.0318 H   0  0  0  0  0  0  0  0  0  0  0  0
   -7.2361   24.6715  -30.9898 H   0  0  0  0  0  0  0  0  0  0  0  0
   -8.6713   23.7262  -32.4045 H   0  0  0  0  0  0  0  0  0  0  0  0
   -7.4831   22.3760  -32.7225 H   0  0  0  0  0  0  0  0  0  0  0  0
   -8.5290   21.6751  -30.2686 H   0  0  0  0  0  0  0  0  0  0  0  0
   -9.9587   22.3991  -31.1356 H   0  0  0  0  0  0  0  0  0  0  0  0
   -9.1630   20.8750  -33.0350 H   0  0  0  0  0  0  0  0  0  0  0  0
   -7.4765   20.0676  -30.9019 H   0  0  0  0  0  0  0  0  0  0  0  0
   -8.5694   18.7421  -31.4368 H   0  0  0  0  0  0  0  0  0  0  0  0
   -6.3776   18.1135  -35.2312 H   0  0  0  0  0  0  0  0  0  0  0  0
   -4.9040   18.7191  -34.4622 H   0  0  0  0  0  0  0  0  0  0  0  0
   -5.8548   15.9017  -34.8201 H   0  0  0  0  0  0  0  0  0  0  0  0
   -4.2028   16.4745  -34.5433 H   0  0  0  0  0  0  0  0  0  0  0  0
   -5.7444   15.1920  -32.6103 H   0  0  0  0  0  0  0  0  0  0  0  0
   -4.4291   16.3014  -32.1948 H   0  0  0  0  0  0  0  0  0  0  0  0
   -7.3932   16.7118  -32.0520 H   0  0  0  0  0  0  0  0  0  0  0  0
   -6.1255   17.5740  -31.1707 H   0  0  0  0  0  0  0  0  0  0  0  0
  1  2  1  0
  2  3  1  0
  2  4  1  0
  4  5  1  0
  5  6  2  0
  5  7  1  0
  7  8  1  0
  8  9  1  0
  9 10  1  0
 10 11  1  0
 11 12  1  0
 12 13  2  0
 12 14  1  0
 14 15  1  0
 15 16  1  0
 16 17  1  0
 17 18  1  0
 18 14  1  0
  1 19  1  0
  1 20  1  0
  1 21  1  0
  2 22  1  0
  3 23  1  0
  3 24  1  0
  3 25  1  0
  4 26  1  0
  7 27  1  0
  7 28  1  0
  8 29  1  0
  8 30  1  0
  9 31  1  0
  9 32  1  0
 10 33  1  0
 11 34  1  0
 11 35  1  0
 15 36  1  0
 15 37  1  0
 16 38  1  0
 16 39  1  0
 17 40  1  0
 17 41  1  0
 18 42  1  0
 18 43  1  0
M  END
>  <UniqueID>  (15) 
15

>  <SMILES>  (15) 
CC(C)NC(=O)CCCNCC(=O)N1CCCC1

>  <Energy>  (15) 
27.447252783011862

>  <Genealogy>  (15) 
CC(C)NC(=O)CCCNCC(=O)N1CCCC1 (3D coordinates assigned)
CC(C)NC(=O)CCCNCC(=O)N1CCCC1 (nonaromatic ring conformer: 27.447252783011862 kcal/mol)

>  <smiles>  (15) 
CC(C)NC(=O)CCCNCC(=O)N1CCCC1

>  <score_type>  (15) 
oracle

>  <origin>  (15) 
adg

>  <m_score__min__energy>  (15) 
-6.9199999999999999

>  <m_primary>  (15) 
energy

$$$$
15:0
     RDKit          3D

 57 60  0  0  0  0  0  0  0  0999 V2000
   -5.3540   15.1310  -33.5630 C   0  0  0  0  0  0  0  0  0  0  0  0
   -4.8730   15.2290  -32.1120 C   0  0  0  0  0  0  0  0  0  0  0  0
   -5.5120   16.3390  -31.3850 N   0  0  0  0  0  0  0  0  0  0  0  0
   -6.5180   17.0450  -32.1950 C   0  0  0  0  0  0  0  0  0  0  0  0
   -7.2540   18.0990  -31.3580 C   0  0  0  0  0  0  0  0  0  0  0  0
   -8.5810   18.5230  -32.0080 C   0  0  0  0  0  0  0  0  0  0  0  0
   -8.6200   20.0270  -32.3090 C   0  0  0  0  0  0  0  0  0  0  0  0
   -7.5780   20.4030  -33.2680 N   0  0  0  0  0  0  0  0  0  0  0  0
   -6.2970   20.9060  -32.8470 C   0  0  0  0  0  0  0  0  0  0  0  0
   -5.1180   20.2610  -33.2630 C   0  0  0  0  0  0  0  0  0  0  0  0
   -3.8680   20.7520  -32.8350 C   0  0  0  0  0  0  0  0  0  0  0  0
   -3.8100   21.7040  -31.8370 N   0  0  0  0  0  0  0  0  0  0  0  0
   -2.5820   21.8700  -31.0320 C   0  0  0  0  0  0  0  0  0  0  0  0
   -4.9360   22.4400  -31.5230 C   0  0  0  0  0  0  0  0  0  0  0  0
   -4.8640   23.5890  -30.6990 C   0  0  0  0  0  0  0  0  0  0  0  0
   -6.0040   24.3390  -30.4120 C   0  0  0  0  0  0  0  0  0  0  0  0
   -7.2350   23.9750  -30.9480 C   0  0  0  0  0  0  0  0  0  0  0  0
   -7.3350   22.8500  -31.7640 C   0  0  0  0  0  0  0  0  0  0  0  0
   -6.2010   22.0600  -32.0450 C   0  0  0  0  0  0  0  0  0  0  0  0
   -2.6510   20.1570  -33.4770 C   0  0  0  0  0  0  0  0  0  0  0  0
   -1.5010   20.9310  -33.7170 C   0  0  0  0  0  0  0  0  0  0  0  0
   -0.3940   20.3530  -34.3330 C   0  0  0  0  0  0  0  0  0  0  0  0
   -0.4440   19.0230  -34.7410 C   0  0  0  0  0  0  0  0  0  0  0  0
   -1.6230   18.2990  -34.5650 C   0  0  0  0  0  0  0  0  0  0  0  0
   -2.7150   18.8800  -33.9820 N   0  0  0  0  0  0  0  0  0  0  0  0
   -3.9730   18.1270  -33.8900 C   0  0  0  0  0  0  0  0  0  0  0  0
   -5.1590   19.0520  -34.1780 C   0  0  0  0  0  0  0  0  0  0  0  0
   -6.4318   14.9114  -33.5780 H   0  0  0  0  0  0  0  0  0  0  0  0
   -5.1671   16.0857  -34.0765 H   0  0  0  0  0  0  0  0  0  0  0  0
   -4.8085   14.3255  -34.0765 H   0  0  0  0  0  0  0  0  0  0  0  0
   -5.1090   14.2863  -31.5967 H   0  0  0  0  0  0  0  0  0  0  0  0
   -3.7894   15.4174  -32.1287 H   0  0  0  0  0  0  0  0  0  0  0  0
   -5.9660   15.9750  -30.5140 H   0  0  0  0  0  0  0  0  0  0  0  0
   -6.0168   17.5413  -33.0391 H   0  0  0  0  0  0  0  0  0  0  0  0
   -7.2519   16.3118  -32.5607 H   0  0  0  0  0  0  0  0  0  0  0  0
   -7.4634   17.6799  -30.3627 H   0  0  0  0  0  0  0  0  0  0  0  0
   -6.6101   18.9880  -31.2865 H   0  0  0  0  0  0  0  0  0  0  0  0
   -8.7078   17.9691  -32.9499 H   0  0  0  0  0  0  0  0  0  0  0  0
   -9.3927   18.2973  -31.3007 H   0  0  0  0  0  0  0  0  0  0  0  0
   -9.6037   20.2834  -32.7292 H   0  0  0  0  0  0  0  0  0  0  0  0
   -8.4440   20.5744  -31.3712 H   0  0  0  0  0  0  0  0  0  0  0  0
   -7.6780   20.0540  -34.2490 H   0  0  0  0  0  0  0  0  0  0  0  0
   -2.8372   21.8355  -29.9626 H   0  0  0  0  0  0  0  0  0  0  0  0
   -1.8770   21.0590  -31.2671 H   0  0  0  0  0  0  0  0  0  0  0  0
   -2.1177   22.8391  -31.2671 H   0  0  0  0  0  0  0  0  0  0  0  0
   -3.8944   23.8946  -30.2789 H   0  0  0  0  0  0  0  0  0  0  0  0
   -5.9296   25.2215  -29.7595 H   0  0  0  0  0  0  0  0  0  0  0  0
   -8.1298   24.5756  -30.7276 H   0  0  0  0  0  0  0  0  0  0  0  0
   -8.3094   22.5749  -32.1939 H   0  0  0  0  0  0  0  0  0  0  0  0
   -1.4764   21.9896  -33.4189 H   0  0  0  0  0  0  0  0  0  0  0  0
    0.5179   20.9460  -34.4968 H   0  0  0  0  0  0  0  0  0  0  0  0
    0.4370   18.5481  -35.1974 H   0  0  0  0  0  0  0  0  0  0  0  0
   -1.6749   17.2519  -34.8979 H   0  0  0  0  0  0  0  0  0  0  0  0
   -3.9624   17.3086  -34.6250 H   0  0  0  0  0  0  0  0  0  0  0  0
   -4.0742   17.7153  -32.8750 H   0  0  0  0  0  0  0  0  0  0  0  0
   -5.1119   19.3873  -35.2246 H   0  0  0  0  0  0  0  0  0  0  0  0
   -6.0941   18.5006  -34.0006 H   0  0  0  0  0  0  0  0  0  0  0  0
  1  2  1  0
  2  3  1  0
  3  4  1  0
  4  5  1  0
  5  6  1  0
  6  7  1  0
  7  8  1  0
  8  9  1  0
  9 10  2  0
 10 11  1  0
 11 12  2  0
 12 13  1  0
 12 14  1  0
 14 15  2  0
 15 16  1  0
 16 17  2  0
 17 18  1  0
 18 19  2  0
 11 20  1  0
 20 21  2  0
 21 22  1  0
 22 23  2  0
 23 24  1  0
 24 25  2  0
 25 26  1  0
 26 27  1  0
 19  9  1  0
 25 20  1  0
 27 10  1  0
 19 14  1  0
  1 28  1  0
  1 29  1  0
  1 30  1  0
  2 31  1  0
  2 32  1  0
  3 33  1  0
  4 34  1  0
  4 35  1  0
  5 36  1  0
  5 37  1  0
  6 38  1  0
  6 39  1  0
  7 40  1  0
  7 41  1  0
  8 42  1  0
 13 43  1  0
 13 44  1  0
 13 45  1  0
 15 46  1  0
 16 47  1  0
 17 48  1  0
 18 49  1  0
 21 50  1  0
 22 51  1  0
 23 52  1  0
 24 53  1  0
 26 54  1  0
 26 55  1  0
 27 56  1  0
 27 57  1  0
M  CHG  2  12   1  25   1
M  END
>  <UniqueID>  (16) 
16

>  <SMILES>  (16) 
CCNCCCCNc1c2c([n+](C)c3ccccc13)-c1cccc[n+]1CC2

>  <Energy>  (16) 
82.86519744749569

>  <Genealogy>  (16) 
CCNCCCCNc1c2c([n+](C)c3ccccc13)-c1cccc[n+]1CC2 (3D coordinates assigned)
CCNCCCCNc1c2c([n+](C)c3ccccc13)-c1cccc[n+]1CC2 (nonaromatic ring conformer: 82.86519744749569 kcal/mol)

>  <smiles>  (16) 
CCNCCCCNc1c2c([n+](C)c3ccccc13)-c1cccc[n+]1CC2

>  <score_type>  (16) 
oracle

>  <origin>  (16) 
adg

>  <m_score__min__energy>  (16) 
-8.6699999999999999

>  <m_primary>  (16) 
energy

$$$$
16:0
     RDKit          3D

 45 48  0  0  0  0  0  0  0  0999 V2000
   -5.3990   17.7450  -34.7830 C   0  0  0  0  0  0  0  0  0  0  0  0
   -6.0000   18.7730  -33.8780 C   0  0  0  0  0  0  0  0  0  0  0  0
   -5.2670   19.9300  -33.5360 C   0  0  0  0  0  0  0  0  0  0  0  0
   -5.8590   20.8890  -32.6950 C   0  0  0  0  0  0  0  0  0  0  0  0
   -5.1600   22.0980  -32.3530 N   0  0  0  0  0  0  0  0  0  0  0  0
   -5.8710   23.3790  -32.3150 C   0  0  0  0  0  0  0  0  0  0  0  0
   -5.8670   23.9630  -30.8870 C   0  0  0  0  0  0  0  0  0  0  0  0
   -4.8310   23.3520  -30.0210 N   0  0  0  0  0  0  0  0  0  0  0  0
   -4.6030   24.1820  -28.8210 C   0  0  0  0  0  0  0  0  0  0  0  0
   -3.1940   24.0030  -28.3200 C   0  0  0  0  0  0  0  0  0  0  0  0
   -2.1910   24.9270  -28.6560 C   0  0  0  0  0  0  0  0  0  0  0  0
   -0.8830   24.7410  -28.1990 C   0  0  0  0  0  0  0  0  0  0  0  0
   -0.5660   23.6340  -27.4070 C   0  0  0  0  0  0  0  0  0  0  0  0
    1.2230   23.3810  -26.7860 Br  0  0  0  0  0  0  0  0  0  0  0  0
   -1.5600   22.7080  -27.0710 C   0  0  0  0  0  0  0  0  0  0  0  0
   -2.8690   22.8910  -27.5260 C   0  0  0  0  0  0  0  0  0  0  0  0
   -3.5780   23.1330  -30.7710 C   0  0  0  0  0  0  0  0  0  0  0  0
   -3.8000   22.0250  -31.8060 C   0  0  0  0  0  0  0  0  0  0  0  0
   -7.1210   20.6450  -32.2520 N   0  0  0  0  0  0  0  0  0  0  0  0
   -7.9250   21.3310  -31.4160 C   0  0  0  0  0  0  0  0  0  0  0  0
   -9.1020   20.6070  -31.2820 C   0  0  0  0  0  0  0  0  0  0  0  0
   -9.0210   19.4800  -32.0250 N   0  0  0  0  0  0  0  0  0  0  0  0
   -7.8030   19.5410  -32.5900 C   0  0  0  0  0  0  0  0  0  0  0  0
   -7.2670   18.5960  -33.3980 N   0  0  0  0  0  0  0  0  0  0  0  0
   -4.9349   16.9512  -34.1792 H   0  0  0  0  0  0  0  0  0  0  0  0
   -6.1854   17.3106  -35.4177 H   0  0  0  0  0  0  0  0  0  0  0  0
   -4.6347   18.2172  -35.4177 H   0  0  0  0  0  0  0  0  0  0  0  0
   -4.2477   20.0792  -33.9217 H   0  0  0  0  0  0  0  0  0  0  0  0
   -5.3761   24.0870  -32.9960 H   0  0  0  0  0  0  0  0  0  0  0  0
   -6.9130   23.2144  -32.6268 H   0  0  0  0  0  0  0  0  0  0  0  0
   -5.6793   25.0450  -30.9500 H   0  0  0  0  0  0  0  0  0  0  0  0
   -6.8466   23.7451  -30.4367 H   0  0  0  0  0  0  0  0  0  0  0  0
   -4.7658   25.2397  -29.0754 H   0  0  0  0  0  0  0  0  0  0  0  0
   -5.3046   23.8710  -28.0329 H   0  0  0  0  0  0  0  0  0  0  0  0
   -2.4353   25.7991  -29.2803 H   0  0  0  0  0  0  0  0  0  0  0  0
   -0.1010   25.4680  -28.4635 H   0  0  0  0  0  0  0  0  0  0  0  0
   -1.3111   21.8358  -26.4486 H   0  0  0  0  0  0  0  0  0  0  0  0
   -3.6479   22.1609  -27.2610 H   0  0  0  0  0  0  0  0  0  0  0  0
   -3.2879   24.0624  -31.2829 H   0  0  0  0  0  0  0  0  0  0  0  0
   -2.7777   22.8367  -30.0769 H   0  0  0  0  0  0  0  0  0  0  0  0
   -3.0740   22.1428  -32.6239 H   0  0  0  0  0  0  0  0  0  0  0  0
   -3.6650   21.0490  -31.3170 H   0  0  0  0  0  0  0  0  0  0  0  0
   -7.6915   22.2892  -30.9289 H   0  0  0  0  0  0  0  0  0  0  0  0
   -9.9650   20.9036  -30.6678 H   0  0  0  0  0  0  0  0  0  0  0  0
   -9.7350   18.7250  -32.1200 H   0  0  0  0  0  0  0  0  0  0  0  0
  1  2  1  0
  2  3  1  0
  3  4  2  0
  4  5  1  0
  5  6  1  0
  6  7  1  0
  7  8  1  0
  8  9  1  0
  9 10  1  0
 10 11  2  0
 11 12  1  0
 12 13  2  0
 13 14  1  0
 13 15  1  0
 15 16  2  0
  8 17  1  0
 17 18  1  0
  4 19  1  0
 19 20  1  0
 20 21  2  0
 21 22  1  0
 22 23  2  0
 23 24  1  0
 24  2  2  0
 18  5  1  0
 23 19  1  0
 16 10  1  0
  1 25  1  0
  1 26  1  0
  1 27  1  0
  3 28  1  0
  6 29  1  0
  6 30  1  0
  7 31  1  0
  7 32  1  0
  9 33  1  0
  9 34  1  0
 11 35  1  0
 12 36  1  0
 15 37  1  0
 16 38  1  0
 17 39  1  0
 17 40  1  0
 18 41  1  0
 18 42  1  0
 20 43  1  0
 21 44  1  0
 22 45  1  0
M  CHG  1  22   1
M  END
>  <UniqueID>  (17) 
17

>  <SMILES>  (17) 
Cc1cc(N2CCN(Cc3ccc(Br)cc3)CC2)n2cc[nH+]c2n1

>  <Energy>  (17) 
94.5425712891457

>  <Genealogy>  (17) 
Cc1cc(N2CCN(Cc3ccc(Br)cc3)CC2)n2cc[nH+]c2n1 (protonated)
Cc1cc(N2CCN(Cc3ccc(Br)cc3)CC2)n2cc[nH+]c2n1 (3D coordinates assigned)
Cc1cc(N2CCN(Cc3ccc(Br)cc3)CC2)n2cc[nH+]c2n1 (nonaromatic ring conformer: 94.5425712891457 kcal/mol)

>  <smiles>  (17) 
Cc1cc(N2CCN(Cc3ccc(Br)cc3)CC2)n2ccnc2n1

>  <score_type>  (17) 
oracle

>  <origin>  (17) 
adg

>  <m_score__min__energy>  (17) 
-8.3499999999999996

>  <m_primary>  (17) 
energy

$$$$
17:0
     RDKit          3D

 36 38  0  0  0  0  0  0  0  0999 V2000
   -6.1510   25.3490  -29.4030 C   0  0  0  0  0  0  0  0  0  0  0  0
   -6.4880   24.9250  -30.8290 C   0  0  0  0  0  0  0  0  0  0  0  0
   -5.9930   23.5620  -31.0980 N   0  0  0  0  0  0  0  0  0  0  0  0
   -4.5710   23.3080  -31.0680 C   0  0  0  0  0  0  0  0  0  0  0  0
   -3.7500   24.2380  -30.8410 O   0  0  0  0  0  0  0  0  0  0  0  0
   -4.0600   21.9180  -31.2690 C   0  0  0  0  0  0  0  0  0  0  0  0
   -4.8710   21.2210  -32.3570 C   0  0  0  0  0  0  0  0  0  0  0  0
   -6.3560   21.3020  -32.0720 C   0  0  0  0  0  0  0  0  0  0  0  0
   -7.2430   20.2810  -32.4850 C   0  0  0  0  0  0  0  0  0  0  0  0
   -6.7700   19.0330  -33.1160 C   0  0  0  0  0  0  0  0  0  0  0  0
   -6.9520   17.8030  -32.4640 C   0  0  0  0  0  0  0  0  0  0  0  0
   -6.4900   16.6220  -33.0530 C   0  0  0  0  0  0  0  0  0  0  0  0
   -5.8370   16.6640  -34.2880 C   0  0  0  0  0  0  0  0  0  0  0  0
   -5.6440   17.8870  -34.9360 C   0  0  0  0  0  0  0  0  0  0  0  0
   -6.1040   19.0700  -34.3510 C   0  0  0  0  0  0  0  0  0  0  0  0
   -8.6180   20.4480  -32.3030 C   0  0  0  0  0  0  0  0  0  0  0  0
   -9.0990   21.6140  -31.7190 C   0  0  0  0  0  0  0  0  0  0  0  0
   -8.2440   22.5960  -31.3330 N   0  0  0  0  0  0  0  0  0  0  0  0
   -6.8880   22.4860  -31.4980 C   0  0  0  0  0  0  0  0  0  0  0  0
   -6.6732   24.6919  -28.6920 H   0  0  0  0  0  0  0  0  0  0  0  0
   -5.0653   25.2716  -29.2443 H   0  0  0  0  0  0  0  0  0  0  0  0
   -6.4715   26.3893  -29.2443 H   0  0  0  0  0  0  0  0  0  0  0  0
   -7.5795   24.9459  -30.9636 H   0  0  0  0  0  0  0  0  0  0  0  0
   -6.0039   25.6218  -31.5291 H   0  0  0  0  0  0  0  0  0  0  0  0
   -3.0029   21.9577  -31.5705 H   0  0  0  0  0  0  0  0  0  0  0  0
   -4.1565   21.3562  -30.3282 H   0  0  0  0  0  0  0  0  0  0  0  0
   -4.6645   21.7044  -33.3233 H   0  0  0  0  0  0  0  0  0  0  0  0
   -4.5793   20.1607  -32.3826 H   0  0  0  0  0  0  0  0  0  0  0  0
   -7.4588   17.7683  -31.4883 H   0  0  0  0  0  0  0  0  0  0  0  0
   -6.6407   15.6587  -32.5438 H   0  0  0  0  0  0  0  0  0  0  0  0
   -5.4748   15.7339  -34.7502 H   0  0  0  0  0  0  0  0  0  0  0  0
   -5.1294   17.9186  -35.9077 H   0  0  0  0  0  0  0  0  0  0  0  0
   -5.9438   20.0322  -34.8595 H   0  0  0  0  0  0  0  0  0  0  0  0
   -9.3170   19.6602  -32.6205 H   0  0  0  0  0  0  0  0  0  0  0  0
  -10.1810   21.7424  -31.5682 H   0  0  0  0  0  0  0  0  0  0  0  0
   -8.6720   23.4420  -30.9050 H   0  0  0  0  0  0  0  0  0  0  0  0
  1  2  1  0
  2  3  1  0
  3  4  1  0
  4  5  2  0
  4  6  1  0
  6  7  1  0
  7  8  1  0
  8  9  2  0
  9 10  1  0
 10 11  2  0
 11 12  1  0
 12 13  2  0
 13 14  1  0
 14 15  2  0
  9 16  1  0
 16 17  2  0
 17 18  1  0
 18 19  2  0
 19  3  1  0
 19  8  1  0
 15 10  1  0
  1 20  1  0
  1 21  1  0
  1 22  1  0
  2 23  1  0
  2 24  1  0
  6 25  1  0
  6 26  1  0
  7 27  1  0
  7 28  1  0
 11 29  1  0
 12 30  1  0
 13 31  1  0
 14 32  1  0
 15 33  1  0
 16 34  1  0
 17 35  1  0
 18 36  1  0
M  CHG  1  18   1
M  END
>  <UniqueID>  (18) 
18

>  <SMILES>  (18) 
CCN1C(=O)CCc2c(-c3ccccc3)cc[nH+]c21

>  <Energy>  (18) 
47.80125676740947

>  <Genealogy>  (18) 
CCN1C(=O)CCc2c(-c3ccccc3)cc[nH+]c21 (protonated)
CCN1C(=O)CCc2c(-c3ccccc3)cc[nH+]c21 (3D coordinates assigned)
CCN1C(=O)CCc2c(-c3ccccc3)cc[nH+]c21 (nonaromatic ring conformer: 47.80125676740947 kcal/mol)

>  <smiles>  (18) 
CCN1C(=O)CCc2c(-c3ccccc3)ccnc21

>  <score_type>  (18) 
oracle

>  <origin>  (18) 
adg

>  <m_score__min__energy>  (18) 
-7.7400000000000002

>  <m_primary>  (18) 
energy

$$$$
18:0
     RDKit          3D

 64 67  0  0  0  0  0  0  0  0999 V2000
   -7.0600   19.9830  -33.0710 C   0  0  0  0  0  0  0  0  0  0  0  0
   -6.3980   21.3120  -32.7020 C   0  0  0  0  0  0  0  0  0  0  0  0
   -7.4130   22.3290  -32.3330 N   0  0  0  0  0  0  0  0  0  0  0  0
   -8.0110   22.0150  -31.0130 C   0  0  0  0  0  0  0  0  0  0  0  0
   -9.4690   21.5930  -31.1730 C   0  0  0  0  0  0  0  0  0  0  0  0
   -6.8180   23.6870  -32.3370 C   0  0  0  0  0  0  0  0  0  0  0  0
   -6.0480   23.9680  -31.0360 C   0  0  0  0  0  0  0  0  0  0  0  0
   -4.6470   23.7490  -31.1930 O   0  0  0  0  0  0  0  0  0  0  0  0
   -3.9680   22.6490  -30.6580 C   0  0  0  0  0  0  0  0  0  0  0  0
   -4.5700   21.5560  -30.4650 O   0  0  0  0  0  0  0  0  0  0  0  0
   -2.5120   22.7960  -30.2940 C   0  0  1  0  0  0  0  0  0  0  0  0
   -2.2370   23.6290  -29.0440 C   0  0  0  0  0  0  0  0  0  0  0  0
   -0.9390   24.1360  -28.8310 C   0  0  0  0  0  0  0  0  0  0  0  0
   -0.6560   24.9310  -27.7160 C   0  0  0  0  0  0  0  0  0  0  0  0
   -1.6680   25.2510  -26.8070 C   0  0  0  0  0  0  0  0  0  0  0  0
   -1.2790   26.3390  -25.2860 Br  0  0  0  0  0  0  0  0  0  0  0  0
   -2.9670   24.7810  -27.0190 C   0  0  0  0  0  0  0  0  0  0  0  0
   -3.2560   23.9860  -28.1320 C   0  0  0  0  0  0  0  0  0  0  0  0
   -1.8140   21.4200  -30.3060 C   0  0  0  0  0  0  0  0  0  0  0  0
   -1.2020   20.9440  -31.5040 C   0  0  0  0  0  0  0  0  0  0  0  0
   -1.4190   21.5480  -32.7680 C   0  0  0  0  0  0  0  0  0  0  0  0
   -0.7740   21.0710  -33.9110 C   0  0  0  0  0  0  0  0  0  0  0  0
    0.0870   19.9810  -33.8290 C   0  0  0  0  0  0  0  0  0  0  0  0
    0.2870   19.3460  -32.6050 C   0  0  0  0  0  0  0  0  0  0  0  0
   -0.3630   19.8040  -31.4450 C   0  0  0  0  0  0  0  0  0  0  0  0
   -0.1900   19.1360  -30.2750 N   0  0  0  0  0  0  0  0  0  0  0  0
   -0.8620   19.4740  -29.1380 C   0  0  0  0  0  0  0  0  0  0  0  0
   -0.6990   18.6940  -27.9690 C   0  0  0  0  0  0  0  0  0  0  0  0
    0.1920   17.6080  -27.9890 O   0  0  0  0  0  0  0  0  0  0  0  0
    1.5170   17.6370  -27.4650 C   0  0  0  0  0  0  0  0  0  0  0  0
   -1.4320   19.0160  -26.8160 C   0  0  0  0  0  0  0  0  0  0  0  0
   -2.3220   20.0820  -26.8240 C   0  0  0  0  0  0  0  0  0  0  0  0
   -2.4780   20.8610  -27.9660 C   0  0  0  0  0  0  0  0  0  0  0  0
   -1.7270   20.6010  -29.1360 C   0  0  0  0  0  0  0  0  0  0  0  0
   -7.3302   19.4406  -32.1530 H   0  0  0  0  0  0  0  0  0  0  0  0
   -7.9668   20.1769  -33.6627 H   0  0  0  0  0  0  0  0  0  0  0  0
   -6.3590   19.3760  -33.6627 H   0  0  0  0  0  0  0  0  0  0  0  0
   -5.7225   21.1523  -31.8487 H   0  0  0  0  0  0  0  0  0  0  0  0
   -5.8376   21.6779  -33.5750 H   0  0  0  0  0  0  0  0  0  0  0  0
   -7.4461   21.1950  -30.5456 H   0  0  0  0  0  0  0  0  0  0  0  0
   -7.9684   22.9139  -30.3804 H   0  0  0  0  0  0  0  0  0  0  0  0
   -9.9237   21.4614  -30.1801 H   0  0  0  0  0  0  0  0  0  0  0  0
  -10.0168   22.3695  -31.7271 H   0  0  0  0  0  0  0  0  0  0  0  0
   -9.5173   20.6440  -31.7271 H   0  0  0  0  0  0  0  0  0  0  0  0
   -6.1257   23.7715  -33.1876 H   0  0  0  0  0  0  0  0  0  0  0  0
   -7.6330   24.4209  -32.4214 H   0  0  0  0  0  0  0  0  0  0  0  0
   -6.2143   25.0150  -30.7427 H   0  0  0  0  0  0  0  0  0  0  0  0
   -6.4180   23.2780  -30.2633 H   0  0  0  0  0  0  0  0  0  0  0  0
   -2.0512   23.4100  -31.0818 H   0  0  0  0  0  0  0  0  0  0  0  0
   -0.1397   23.9036  -29.5501 H   0  0  0  0  0  0  0  0  0  0  0  0
    0.3656   25.3054  -27.5540 H   0  0  0  0  0  0  0  0  0  0  0  0
   -3.7653   25.0377  -26.3071 H   0  0  0  0  0  0  0  0  0  0  0  0
   -4.2851   23.6354  -28.2994 H   0  0  0  0  0  0  0  0  0  0  0  0
   -2.1048   22.4041  -32.8496 H   0  0  0  0  0  0  0  0  0  0  0  0
   -0.9475   21.5595  -34.8812 H   0  0  0  0  0  0  0  0  0  0  0  0
    0.6085   19.6215  -34.7283 H   0  0  0  0  0  0  0  0  0  0  0  0
    0.9599   18.4779  -32.5454 H   0  0  0  0  0  0  0  0  0  0  0  0
    0.4480   18.3080  -30.2710 H   0  0  0  0  0  0  0  0  0  0  0  0
    1.4767   17.6361  -26.3657 H   0  0  0  0  0  0  0  0  0  0  0  0
    2.0682   16.7507  -27.8124 H   0  0  0  0  0  0  0  0  0  0  0  0
    2.0289   18.5466  -27.8124 H   0  0  0  0  0  0  0  0  0  0  0  0
   -1.3006   18.4204  -25.9006 H   0  0  0  0  0  0  0  0  0  0  0  0
   -2.9074   20.3119  -25.9215 H   0  0  0  0  0  0  0  0  0  0  0  0
   -3.1974   21.6931  -27.9589 H   0  0  0  0  0  0  0  0  0  0  0  0
  1  2  1  0
  2  3  1  0
  3  4  1  0
  4  5  1  0
  3  6  1  0
  6  7  1  0
  7  8  1  0
  8  9  1  0
  9 10  2  0
  9 11  1  0
 11 12  1  0
 12 13  2  0
 13 14  1  0
 14 15  2  0
 15 16  1  0
 15 17  1  0
 17 18  2  0
 11 19  1  0
 19 20  1  0
 20 21  2  0
 21 22  1  0
 22 23  2  0
 23 24  1  0
 24 25  2  0
 25 26  1  0
 26 27  2  0
 27 28  1  0
 28 29  1  0
 29 30  1  0
 28 31  2  0
 31 32  1  0
 32 33  2  0
 33 34  1  0
 18 12  1  0
 34 19  2  0
 25 20  1  0
 34 27  1  0
  1 35  1  0
  1 36  1  0
  1 37  1  0
  2 38  1  0
  2 39  1  0
  4 40  1  0
  4 41  1  0
  5 42  1  0
  5 43  1  0
  5 44  1  0
  6 45  1  0
  6 46  1  0
  7 47  1  0
  7 48  1  0
 11 49  1  6
 13 50  1  0
 14 51  1  0
 17 52  1  0
 18 53  1  0
 21 54  1  0
 22 55  1  0
 23 56  1  0
 24 57  1  0
 26 58  1  0
 30 59  1  0
 30 60  1  0
 30 61  1  0
 31 62  1  0
 32 63  1  0
 33 64  1  0
M  CHG  1  26   1
M  END
>  <UniqueID>  (19) 
19

>  <SMILES>  (19) 
CCN(CC)CCOC(=O)[C@@H](c1ccc(Br)cc1)c1c2ccccc2[nH+]c2c(OC)cccc12

>  <Energy>  (19) 
82.23503766973009

>  <Genealogy>  (19) 
CCN(CC)CCOC(=O)C(c1ccc(Br)cc1)c1c2ccccc2[nH+]c2c(OC)cccc12 (protonated)
CCN(CC)CCOC(=O)[C@@H](c1ccc(Br)cc1)c1c2ccccc2[nH+]c2c(OC)cccc12 (chirality)
CCN(CC)CCOC(=O)[C@@H](c1ccc(Br)cc1)c1c2ccccc2[nH+]c2c(OC)cccc12 (3D coordinates assigned)
CCN(CC)CCOC(=O)[C@@H](c1ccc(Br)cc1)c1c2ccccc2[nH+]c2c(OC)cccc12 (optimized conformer: 82.23503766973009 kcal/mol)

>  <smiles>  (19) 
CCN(CC)CCOC(=O)C(c1ccc(Br)cc1)c1c2ccccc2nc2c(OC)cccc12

>  <score_type>  (19) 
oracle

>  <origin>  (19) 
adg

>  <m_score__min__energy>  (19) 
-8.2599999999999998

>  <m_primary>  (19) 
energy

$$$$
19:0
     RDKit          3D

 35 36  0  0  0  0  0  0  0  0999 V2000
   -9.1030   21.2000  -30.9050 C   0  0  0  0  0  0  0  0  0  0  0  0
   -9.7680   20.9050  -32.2450 C   0  0  0  0  0  0  0  0  0  0  0  0
   -8.9030   20.0430  -33.0580 N   0  0  0  0  0  0  0  0  0  0  0  0
   -8.4230   18.9060  -32.2610 C   0  0  0  0  0  0  0  0  0  0  0  0
   -7.1070   18.3620  -32.8340 C   0  0  0  0  0  0  0  0  0  0  0  0
   -6.6630   19.1500  -33.9990 N   0  0  0  0  0  0  0  0  0  0  0  0
   -5.3060   19.6890  -33.8100 C   0  0  0  0  0  0  0  0  0  0  0  0
   -5.2980   20.8760  -32.8910 C   0  0  0  0  0  0  0  0  0  0  0  0
   -6.3820   21.7210  -32.6510 C   0  0  0  0  0  0  0  0  0  0  0  0
   -6.0560   22.7670  -31.7810 C   0  0  0  0  0  0  0  0  0  0  0  0
   -6.9180   23.7780  -31.3460 C   0  0  0  0  0  0  0  0  0  0  0  0
   -6.4220   24.7600  -30.4720 C   0  0  0  0  0  0  0  0  0  0  0  0
   -5.0800   24.7240  -30.0460 C   0  0  0  0  0  0  0  0  0  0  0  0
   -4.2220   23.7070  -30.4900 C   0  0  0  0  0  0  0  0  0  0  0  0
   -4.7360   22.7440  -31.3550 C   0  0  0  0  0  0  0  0  0  0  0  0
   -3.9430   21.4330  -32.0420 S   0  0  0  0  0  0  0  0  0  0  0  0
   -9.7762   20.9014  -30.0879 H   0  0  0  0  0  0  0  0  0  0  0  0
   -8.1623   20.6347  -30.8302 H   0  0  0  0  0  0  0  0  0  0  0  0
   -8.8907   22.2767  -30.8302 H   0  0  0  0  0  0  0  0  0  0  0  0
  -10.7278   20.3967  -32.0708 H   0  0  0  0  0  0  0  0  0  0  0  0
   -9.9374   21.8516  -32.7791 H   0  0  0  0  0  0  0  0  0  0  0  0
   -9.4800   19.6610  -33.8460 H   0  0  0  0  0  0  0  0  0  0  0  0
   -8.2573   19.2353  -31.2246 H   0  0  0  0  0  0  0  0  0  0  0  0
   -9.1794   18.1079  -32.2903 H   0  0  0  0  0  0  0  0  0  0  0  0
   -6.3316   18.4063  -32.0550 H   0  0  0  0  0  0  0  0  0  0  0  0
   -7.2729   17.3245  -33.1597 H   0  0  0  0  0  0  0  0  0  0  0  0
   -7.3330   19.9340  -34.1770 H   0  0  0  0  0  0  0  0  0  0  0  0
   -6.6470   18.5330  -34.8440 H   0  0  0  0  0  0  0  0  0  0  0  0
   -4.6676   18.9027  -33.3808 H   0  0  0  0  0  0  0  0  0  0  0  0
   -4.9289   20.0147  -34.7907 H   0  0  0  0  0  0  0  0  0  0  0  0
   -7.3786   21.5808  -33.0949 H   0  0  0  0  0  0  0  0  0  0  0  0
   -7.9652   23.8042  -31.6817 H   0  0  0  0  0  0  0  0  0  0  0  0
   -7.0862   25.5622  -30.1181 H   0  0  0  0  0  0  0  0  0  0  0  0
   -4.7026   25.4978  -29.3613 H   0  0  0  0  0  0  0  0  0  0  0  0
   -3.1720   23.6710  -30.1640 H   0  0  0  0  0  0  0  0  0  0  0  0
  1  2  1  0
  2  3  1  0
  3  4  1  0
  4  5  1  0
  5  6  1  0
  6  7  1  0
  7  8  1  0
  8  9  2  0
  9 10  1  0
 10 11  2  0
 11 12  1  0
 12 13  2  0
 13 14  1  0
 14 15  2  0
 15 16  1  0
 16  8  1  0
 15 10  1  0
  1 17  1  0
  1 18  1  0
  1 19  1  0
  2 20  1  0
  2 21  1  0
  3 22  1  0
  4 23  1  0
  4 24  1  0
  5 25  1  0
  5 26  1  0
  6 27  1  0
  6 28  1  0
  7 29  1  0
  7 30  1  0
  9 31  1  0
 11 32  1  0
 12 33  1  0
 13 34  1  0
 14 35  1  0
M  CHG  1   6   1
M  END
>  <UniqueID>  (20) 
20

>  <SMILES>  (20) 
CCNCC[NH2+]Cc1cc2ccccc2s1

>  <Energy>  (20) 
57.90504438471242

>  <Genealogy>  (20) 
CCNCC[NH2+]Cc1cc2ccccc2s1 (protonated)
CCNCC[NH2+]Cc1cc2ccccc2s1 (3D coordinates assigned)
CCNCC[NH2+]Cc1cc2ccccc2s1 (optimized conformer: 57.90504438471242 kcal/mol)

>  <smiles>  (20) 
CCNCCNCc1cc2ccccc2s1

>  <score_type>  (20) 
oracle

>  <origin>  (20) 
adg

>  <m_score__min__energy>  (20) 
-6.5099999999999998

>  <m_primary>  (20) 
energy

$$$$
20:0
     RDKit          3D

 59 62  0  0  0  0  0  0  0  0999 V2000
   -1.9370   26.4240  -26.3400 C   0  0  0  0  0  0  0  0  0  0  0  0
   -1.3520   25.0770  -25.9960 C   0  0  0  0  0  0  0  0  0  0  0  0
   -0.4030   24.9520  -24.9550 C   0  0  0  0  0  0  0  0  0  0  0  0
    0.2260   26.4610  -23.9510 Br  0  0  0  0  0  0  0  0  0  0  0  0
    0.1250   23.6960  -24.6350 C   0  0  0  0  0  0  0  0  0  0  0  0
   -0.2670   22.5640  -25.3480 C   0  0  0  0  0  0  0  0  0  0  0  0
   -1.1770   22.6780  -26.3970 C   0  0  0  0  0  0  0  0  0  0  0  0
   -1.7130   23.9270  -26.7390 C   0  0  0  0  0  0  0  0  0  0  0  0
   -2.6060   24.0130  -27.8600 N   0  0  0  0  0  0  0  0  0  0  0  0
   -2.0850   23.9990  -29.2260 C   0  0  0  0  0  0  0  0  0  0  0  0
   -2.9000   23.0240  -30.0920 C   0  0  0  0  0  0  0  0  0  0  0  0
   -4.3800   23.0600  -29.8510 N   0  0  0  0  0  0  0  0  0  0  0  0
   -5.1470   23.1200  -31.1260 C   0  0  0  0  0  0  0  0  0  0  0  0
   -6.5900   22.5880  -30.9930 C   0  0  0  0  0  0  0  0  0  0  0  0
   -6.7280   21.2120  -31.4940 N   0  0  0  0  0  0  0  0  0  0  0  0
   -5.6340   20.2830  -31.3530 C   0  0  0  0  0  0  0  0  0  0  0  0
   -4.5440   20.6550  -30.8410 O   0  0  0  0  0  0  0  0  0  0  0  0
   -5.7880   18.8470  -31.7680 C   0  0  0  0  0  0  0  0  0  0  0  0
   -6.7750   18.6960  -32.9540 C   0  0  0  0  0  0  0  0  0  0  0  0
   -6.1820   19.2720  -34.2530 C   0  0  0  0  0  0  0  0  0  0  0  0
   -5.3660   18.1470  -34.8820 C   0  0  0  0  0  0  0  0  0  0  0  0
   -5.8580   16.8430  -34.2600 C   0  0  0  0  0  0  0  0  0  0  0  0
   -6.9760   17.2110  -33.2910 C   0  0  0  0  0  0  0  0  0  0  0  0
   -8.1220   19.3600  -32.5860 C   0  0  0  0  0  0  0  0  0  0  0  0
   -7.9360   20.7910  -32.1650 C   0  0  0  0  0  0  0  0  0  0  0  0
   -8.8810   21.6040  -32.3540 O   0  0  0  0  0  0  0  0  0  0  0  0
   -4.7990   24.1760  -28.9680 C   0  0  0  0  0  0  0  0  0  0  0  0
   -4.0460   24.1290  -27.6330 C   0  0  0  0  0  0  0  0  0  0  0  0
   -2.1734   26.9684  -25.4139 H   0  0  0  0  0  0  0  0  0  0  0  0
   -1.2083   27.0008  -26.9285 H   0  0  0  0  0  0  0  0  0  0  0  0
   -2.8559   26.2852  -26.9285 H   0  0  0  0  0  0  0  0  0  0  0  0
    0.8535   23.6015  -23.8162 H   0  0  0  0  0  0  0  0  0  0  0  0
    0.1430   21.5786  -25.0819 H   0  0  0  0  0  0  0  0  0  0  0  0
   -1.4766   21.7820  -26.9603 H   0  0  0  0  0  0  0  0  0  0  0  0
   -2.1551   25.0105  -29.6526 H   0  0  0  0  0  0  0  0  0  0  0  0
   -1.0346   23.6728  -29.2076 H   0  0  0  0  0  0  0  0  0  0  0  0
   -2.7186   23.2702  -31.1486 H   0  0  0  0  0  0  0  0  0  0  0  0
   -2.5651   22.0121  -29.8203 H   0  0  0  0  0  0  0  0  0  0  0  0
   -4.6480   22.1780  -29.3520 H   0  0  0  0  0  0  0  0  0  0  0  0
   -5.1898   24.1674  -31.4593 H   0  0  0  0  0  0  0  0  0  0  0  0
   -4.6269   22.4767  -31.8510 H   0  0  0  0  0  0  0  0  0  0  0  0
   -6.8776   22.6081  -29.9315 H   0  0  0  0  0  0  0  0  0  0  0  0
   -7.2428   23.2331  -31.5994 H   0  0  0  0  0  0  0  0  0  0  0  0
   -4.8053   18.4558  -32.0699 H   0  0  0  0  0  0  0  0  0  0  0  0
   -6.1904   18.2840  -30.9129 H   0  0  0  0  0  0  0  0  0  0  0  0
   -6.9871   19.5860  -34.9336 H   0  0  0  0  0  0  0  0  0  0  0  0
   -5.5590   20.1561  -34.0524 H   0  0  0  0  0  0  0  0  0  0  0  0
   -5.5218   18.1295  -35.9708 H   0  0  0  0  0  0  0  0  0  0  0  0
   -4.2908   18.2900  -34.6991 H   0  0  0  0  0  0  0  0  0  0  0  0
   -6.2409   16.1712  -35.0423 H   0  0  0  0  0  0  0  0  0  0  0  0
   -5.0412   16.3211  -33.7401 H   0  0  0  0  0  0  0  0  0  0  0  0
   -7.9572   17.0560  -33.7634 H   0  0  0  0  0  0  0  0  0  0  0  0
   -6.9462   16.5857  -32.3865 H   0  0  0  0  0  0  0  0  0  0  0  0
   -8.7865   19.3290  -33.4620 H   0  0  0  0  0  0  0  0  0  0  0  0
   -8.5593   18.8068  -31.7418 H   0  0  0  0  0  0  0  0  0  0  0  0
   -4.5849   25.1316  -29.4689 H   0  0  0  0  0  0  0  0  0  0  0  0
   -5.8764   24.0805  -28.7677 H   0  0  0  0  0  0  0  0  0  0  0  0
   -4.2503   25.0514  -27.0697 H   0  0  0  0  0  0  0  0  0  0  0  0
   -4.3876   23.2524  -27.0630 H   0  0  0  0  0  0  0  0  0  0  0  0
  1  2  1  0
  2  3  2  0
  3  4  1  0
  3  5  1  0
  5  6  2  0
  6  7  1  0
  7  8  2  0
  8  9  1  0
  9 10  1  0
 10 11  1  0
 11 12  1  0
 12 13  1  0
 13 14  1  0
 14 15  1  0
 15 16  1  0
 16 17  2  0
 16 18  1  0
 18 19  1  0
 19 20  1  0
 20 21  1  0
 21 22  1  0
 22 23  1  0
 19 24  1  0
 24 25  1  0
 25 26  2  0
 12 27  1  0
 27 28  1  0
  8  2  1  0
 28  9  1  0
 25 15  1  0
 23 19  1  0
  1 29  1  0
  1 30  1  0
  1 31  1  0
  5 32  1  0
  6 33  1  0
  7 34  1  0
 10 35  1  0
 10 36  1  0
 11 37  1  0
 11 38  1  0
 12 39  1  0
 13 40  1  0
 13 41  1  0
 14 42  1  0
 14 43  1  0
 18 44  1  0
 18 45  1  0
 20 46  1  0
 20 47  1  0
 21 48  1  0
 21 49  1  0
 22 50  1  0
 22 51  1  0
 23 52  1  0
 23 53  1  0
 24 54  1  0
 24 55  1  0
 27 56  1  0
 27 57  1  0
 28 58  1  0
 28 59  1  0
M  CHG  1  12   1
M  END
>  <UniqueID>  (21) 
21

>  <SMILES>  (21) 
Cc1c(Br)cccc1N1CC[NH+](CCN2C(=O)CC3(CCCC3)CC2=O)CC1

>  <Energy>  (21) 
75.81720260254316

>  <Genealogy>  (21) 
Cc1c(Br)cccc1N1CC[NH+](CCN2C(=O)CC3(CCCC3)CC2=O)CC1 (protonated)
Cc1c(Br)cccc1N1CC[NH+](CCN2C(=O)CC3(CCCC3)CC2=O)CC1 (3D coordinates assigned)
Cc1c(Br)cccc1N1CC[NH+](CCN2C(=O)CC3(CCCC3)CC2=O)CC1 (nonaromatic ring conformer: 75.81720260254316 kcal/mol)

>  <smiles>  (21) 
Cc1c(Br)cccc1N1CCN(CCN2C(=O)CC3(CCCC3)CC2=O)CC1

>  <score_type>  (21) 
oracle

>  <origin>  (21) 
adg

>  <m_score__min__energy>  (21) 
-8.4900000000000002

>  <m_primary>  (21) 
energy

$$$$
21:0
     RDKit          3D

 52 53  0  0  0  0  0  0  0  0999 V2000
   -5.0100   16.6220  -34.3080 C   0  0  0  0  0  0  0  0  0  0  0  0
   -5.3900   17.9490  -34.9650 C   0  0  0  0  0  0  0  0  0  0  0  0
   -6.4540   18.6260  -34.2060 N   0  0  0  0  0  0  0  0  0  0  0  0
   -7.0620   17.7420  -33.1920 C   0  0  0  0  0  0  0  0  0  0  0  0
   -7.8530   18.5110  -32.1270 C   0  0  0  0  0  0  0  0  0  0  0  0
   -7.6490   19.9000  -32.2910 O   0  0  0  0  0  0  0  0  0  0  0  0
   -8.8990   20.5550  -32.3700 C   0  0  0  0  0  0  0  0  0  0  0  0
   -8.9630   21.6870  -31.3430 C   0  0  0  0  0  0  0  0  0  0  0  0
   -8.8440   23.0880  -31.9650 C   0  0  0  0  0  0  0  0  0  0  0  0
   -7.4180   23.4280  -32.4580 C   0  0  0  0  0  0  0  0  0  0  0  0
   -6.4470   23.6160  -31.3110 C   0  0  0  0  0  0  0  0  0  0  0  0
   -6.4910   24.8010  -30.5550 C   0  0  0  0  0  0  0  0  0  0  0  0
   -5.5860   25.0130  -29.5130 C   0  0  0  0  0  0  0  0  0  0  0  0
   -4.6310   24.0430  -29.2080 C   0  0  0  0  0  0  0  0  0  0  0  0
   -4.5780   22.8590  -29.9430 C   0  0  0  0  0  0  0  0  0  0  0  0
   -5.4770   22.6330  -31.0000 C   0  0  0  0  0  0  0  0  0  0  0  0
   -5.4340   21.3870  -31.7180 N   0  0  0  0  0  0  0  0  0  0  0  0
   -4.2440   20.8630  -32.3340 C   0  0  0  0  0  0  0  0  0  0  0  0
   -3.3270   21.7070  -32.9890 C   0  0  0  0  0  0  0  0  0  0  0  0
   -2.1890   21.1730  -33.5990 C   0  0  0  0  0  0  0  0  0  0  0  0
   -1.9600   19.7960  -33.5730 C   0  0  0  0  0  0  0  0  0  0  0  0
   -2.8740   18.9480  -32.9430 C   0  0  0  0  0  0  0  0  0  0  0  0
   -4.0160   19.4780  -32.3310 C   0  0  0  0  0  0  0  0  0  0  0  0
   -5.0416   16.7322  -33.2140 H   0  0  0  0  0  0  0  0  0  0  0  0
   -5.7209   15.8422  -34.6186 H   0  0  0  0  0  0  0  0  0  0  0  0
   -3.9941   16.3367  -34.6186 H   0  0  0  0  0  0  0  0  0  0  0  0
   -4.5038   18.5996  -35.0011 H   0  0  0  0  0  0  0  0  0  0  0  0
   -5.7589   17.7448  -35.9810 H   0  0  0  0  0  0  0  0  0  0  0  0
   -6.0380   19.4470  -33.7060 H   0  0  0  0  0  0  0  0  0  0  0  0
   -7.1880   18.9820  -34.8600 H   0  0  0  0  0  0  0  0  0  0  0  0
   -7.7436   17.0432  -33.6990 H   0  0  0  0  0  0  0  0  0  0  0  0
   -6.2433   17.2159  -32.6792 H   0  0  0  0  0  0  0  0  0  0  0  0
   -8.9241   18.2840  -32.2325 H   0  0  0  0  0  0  0  0  0  0  0  0
   -7.5073   18.2080  -31.1277 H   0  0  0  0  0  0  0  0  0  0  0  0
   -9.0287   20.9716  -33.3798 H   0  0  0  0  0  0  0  0  0  0  0  0
   -9.6998   19.8309  -32.1592 H   0  0  0  0  0  0  0  0  0  0  0  0
   -9.9247   21.6221  -30.8130 H   0  0  0  0  0  0  0  0  0  0  0  0
   -8.1043   21.5594  -30.6674 H   0  0  0  0  0  0  0  0  0  0  0  0
   -9.5315   23.1476  -32.8217 H   0  0  0  0  0  0  0  0  0  0  0  0
   -9.0939   23.8131  -31.1765 H   0  0  0  0  0  0  0  0  0  0  0  0
   -7.0584   22.6072  -33.0959 H   0  0  0  0  0  0  0  0  0  0  0  0
   -7.4698   24.3746  -33.0159 H   0  0  0  0  0  0  0  0  0  0  0  0
   -7.2450   25.5677  -30.7866 H   0  0  0  0  0  0  0  0  0  0  0  0
   -5.6262   25.9461  -28.9319 H   0  0  0  0  0  0  0  0  0  0  0  0
   -3.9189   24.2122  -28.3868 H   0  0  0  0  0  0  0  0  0  0  0  0
   -3.8264   22.0955  -29.6936 H   0  0  0  0  0  0  0  0  0  0  0  0
   -6.3050   20.8140  -31.7670 H   0  0  0  0  0  0  0  0  0  0  0  0
   -3.5073   22.7917  -33.0207 H   0  0  0  0  0  0  0  0  0  0  0  0
   -1.4718   21.8391  -34.1009 H   0  0  0  0  0  0  0  0  0  0  0  0
   -1.0600   19.3789  -34.0485 H   0  0  0  0  0  0  0  0  0  0  0  0
   -2.6962   17.8626  -32.9278 H   0  0  0  0  0  0  0  0  0  0  0  0
   -4.7384   18.8056  -31.8452 H   0  0  0  0  0  0  0  0  0  0  0  0
  1  2  1  0
  2  3  1  0
  3  4  1  0
  4  5  1  0
  5  6  1  0
  6  7  1  0
  7  8  1  0
  8  9  1  0
  9 10  1  0
 10 11  1  0
 11 12  2  0
 12 13  1  0
 13 14  2  0
 14 15  1  0
 15 16  2  0
 16 17  1  0
 17 18  1  0
 18 19  2  0
 19 20  1  0
 20 21  2  0
 21 22  1  0
 22 23  2  0
 16 11  1  0
 23 18  1  0
  1 24  1  0
  1 25  1  0
  1 26  1  0
  2 27  1  0
  2 28  1  0
  3 29  1  0
  3 30  1  0
  4 31  1  0
  4 32  1  0
  5 33  1  0
  5 34  1  0
  7 35  1  0
  7 36  1  0
  8 37  1  0
  8 38  1  0
  9 39  1  0
  9 40  1  0
 10 41  1  0
 10 42  1  0
 12 43  1  0
 13 44  1  0
 14 45  1  0
 15 46  1  0
 17 47  1  0
 19 48  1  0
 20 49  1  0
 21 50  1  0
 22 51  1  0
 23 52  1  0
M  CHG  1   3   1
M  END
>  <UniqueID>  (22) 
22

>  <SMILES>  (22) 
CC[NH2+]CCOCCCCc1ccccc1Nc1ccccc1

>  <Energy>  (22) 
47.31759809579687

>  <Genealogy>  (22) 
CC[NH2+]CCOCCCCc1ccccc1Nc1ccccc1 (protonated)
CC[NH2+]CCOCCCCc1ccccc1Nc1ccccc1 (3D coordinates assigned)
CC[NH2+]CCOCCCCc1ccccc1Nc1ccccc1 (optimized conformer: 47.31759809579687 kcal/mol)

>  <smiles>  (22) 
CCNCCOCCCCc1ccccc1Nc1ccccc1

>  <score_type>  (22) 
oracle

>  <origin>  (22) 
adg

>  <m_score__min__energy>  (22) 
-7.9400000000000004

>  <m_primary>  (22) 
energy

$$$$
22:0
     RDKit          3D

 59 61  0  0  0  0  0  0  0  0999 V2000
   -3.9380   24.1660  -27.3500 C   0  0  0  0  0  0  0  0  0  0  0  0
   -2.9970   23.7940  -28.4980 C   0  0  0  0  0  0  0  0  0  0  0  0
   -3.3630   24.4860  -29.8370 C   0  0  0  0  0  0  0  0  0  0  0  0
   -4.2390   23.6830  -30.7280 N   0  0  0  0  0  0  0  0  0  0  0  0
   -5.4350   24.4150  -31.2070 C   0  0  0  0  0  0  0  0  0  0  0  0
   -6.5420   24.3710  -30.1460 C   0  0  0  0  0  0  0  0  0  0  0  0
   -6.5990   25.6700  -29.3380 C   0  0  0  0  0  0  0  0  0  0  0  0
   -4.5450   22.3250  -30.2130 C   0  0  0  0  0  0  0  0  0  0  0  0
   -3.8660   21.2540  -31.0820 C   0  0  0  0  0  0  0  0  0  0  0  0
   -3.4960   21.8140  -32.4660 C   0  0  0  0  0  0  0  0  0  0  0  0
   -4.5580   21.6000  -33.4670 N   0  0  0  0  0  0  0  0  0  0  0  0
   -5.0950   20.2430  -33.4060 C   0  0  0  0  0  0  0  0  0  0  0  0
   -6.4280   20.0260  -32.9540 C   0  0  0  0  0  0  0  0  0  0  0  0
   -7.2600   21.1000  -32.5430 C   0  0  0  0  0  0  0  0  0  0  0  0
   -8.5400   20.8730  -32.0470 C   0  0  0  0  0  0  0  0  0  0  0  0
   -9.0220   19.5790  -31.9330 C   0  0  0  0  0  0  0  0  0  0  0  0
   -8.2430   18.5040  -32.3510 C   0  0  0  0  0  0  0  0  0  0  0  0
   -6.9510   18.7030  -32.9070 C   0  0  0  0  0  0  0  0  0  0  0  0
   -6.2060   17.6420  -33.3790 N   0  0  0  0  0  0  0  0  0  0  0  0
   -6.8580   16.3350  -33.6350 C   0  0  0  0  0  0  0  0  0  0  0  0
   -4.8650   17.8040  -33.6530 C   0  0  0  0  0  0  0  0  0  0  0  0
   -4.0190   16.6820  -33.8410 C   0  0  0  0  0  0  0  0  0  0  0  0
   -2.6870   16.8370  -34.2080 C   0  0  0  0  0  0  0  0  0  0  0  0
   -2.1650   18.1050  -34.4080 C   0  0  0  0  0  0  0  0  0  0  0  0
   -0.8740   18.2480  -34.8000 F   0  0  0  0  0  0  0  0  0  0  0  0
   -2.9550   19.2300  -34.1860 C   0  0  0  0  0  0  0  0  0  0  0  0
   -4.3010   19.1100  -33.7480 C   0  0  0  0  0  0  0  0  0  0  0  0
   -3.4399   23.9691  -26.3892 H   0  0  0  0  0  0  0  0  0  0  0  0
   -4.1950   25.2334  -27.4178 H   0  0  0  0  0  0  0  0  0  0  0  0
   -4.8554   23.5629  -27.4178 H   0  0  0  0  0  0  0  0  0  0  0  0
   -1.9740   24.0881  -28.2207 H   0  0  0  0  0  0  0  0  0  0  0  0
   -3.0868   22.7091  -28.6556 H   0  0  0  0  0  0  0  0  0  0  0  0
   -3.8804   25.4288  -29.6059 H   0  0  0  0  0  0  0  0  0  0  0  0
   -2.4180   24.6347  -30.3799 H   0  0  0  0  0  0  0  0  0  0  0  0
   -5.1644   25.4623  -31.4068 H   0  0  0  0  0  0  0  0  0  0  0  0
   -5.8017   23.9399  -32.1289 H   0  0  0  0  0  0  0  0  0  0  0  0
   -7.5099   24.2186  -30.6459 H   0  0  0  0  0  0  0  0  0  0  0  0
   -6.3232   23.5443  -29.4541 H   0  0  0  0  0  0  0  0  0  0  0  0
   -6.5887   25.4343  -28.2636 H   0  0  0  0  0  0  0  0  0  0  0  0
   -5.7274   26.2939  -29.5849 H   0  0  0  0  0  0  0  0  0  0  0  0
   -7.5219   26.2152  -29.5849 H   0  0  0  0  0  0  0  0  0  0  0  0
   -4.1782   22.2386  -29.1796 H   0  0  0  0  0  0  0  0  0  0  0  0
   -5.6336   22.1700  -30.2432 H   0  0  0  0  0  0  0  0  0  0  0  0
   -2.9510   20.9098  -30.5778 H   0  0  0  0  0  0  0  0  0  0  0  0
   -4.5695   20.4198  -31.2202 H   0  0  0  0  0  0  0  0  0  0  0  0
   -3.3135   22.8946  -32.3715 H   0  0  0  0  0  0  0  0  0  0  0  0
   -2.5990   21.2798  -32.8126 H   0  0  0  0  0  0  0  0  0  0  0  0
   -4.1730   21.7800  -34.4210 H   0  0  0  0  0  0  0  0  0  0  0  0
   -5.2810   22.3450  -33.3840 H   0  0  0  0  0  0  0  0  0  0  0  0
   -6.8857   22.1316  -32.6180 H   0  0  0  0  0  0  0  0  0  0  0  0
   -9.1704   21.7223  -31.7449 H   0  0  0  0  0  0  0  0  0  0  0  0
  -10.0222   19.4009  -31.5113 H   0  0  0  0  0  0  0  0  0  0  0  0
   -8.6351   17.4813  -32.2489 H   0  0  0  0  0  0  0  0  0  0  0  0
   -7.0991   15.8516  -32.6768 H   0  0  0  0  0  0  0  0  0  0  0  0
   -7.7830   16.4928  -34.2091 H   0  0  0  0  0  0  0  0  0  0  0  0
   -6.1756   15.6910  -34.2091 H   0  0  0  0  0  0  0  0  0  0  0  0
   -4.4240   15.6699  -33.6938 H   0  0  0  0  0  0  0  0  0  0  0  0
   -2.0468   15.9522  -34.3397 H   0  0  0  0  0  0  0  0  0  0  0  0
   -2.5288   20.2303  -34.3529 H   0  0  0  0  0  0  0  0  0  0  0  0
  1  2  1  0
  2  3  1  0
  3  4  1  0
  4  5  1  0
  5  6  1  0
  6  7  1  0
  4  8  1  0
  8  9  1  0
  9 10  1  0
 10 11  1  0
 11 12  1  0
 12 13  2  0
 13 14  1  0
 14 15  2  0
 15 16  1  0
 16 17  2  0
 17 18  1  0
 18 19  2  0
 19 20  1  0
 19 21  1  0
 21 22  2  0
 22 23  1  0
 23 24  2  0
 24 25  1  0
 24 26  1  0
 26 27  2  0
 27 12  1  0
 18 13  1  0
 27 21  1  0
  1 28  1  0
  1 29  1  0
  1 30  1  0
  2 31  1  0
  2 32  1  0
  3 33  1  0
  3 34  1  0
  5 35  1  0
  5 36  1  0
  6 37  1  0
  6 38  1  0
  7 39  1  0
  7 40  1  0
  7 41  1  0
  8 42  1  0
  8 43  1  0
  9 44  1  0
  9 45  1  0
 10 46  1  0
 10 47  1  0
 11 48  1  0
 11 49  1  0
 14 50  1  0
 15 51  1  0
 16 52  1  0
 17 53  1  0
 20 54  1  0
 20 55  1  0
 20 56  1  0
 22 57  1  0
 23 58  1  0
 26 59  1  0
M  CHG  2  11   1  19   1
M  END
>  <UniqueID>  (23) 
23

>  <SMILES>  (23) 
CCCN(CCC)CCC[NH2+]c1c2ccccc2[n+](C)c2ccc(F)cc12

>  <Energy>  (23) 
87.462693201616

>  <Genealogy>  (23) 
CCCN(CCC)CCC[NH2+]c1c2ccccc2[n+](C)c2ccc(F)cc12 (protonated)
CCCN(CCC)CCC[NH2+]c1c2ccccc2[n+](C)c2ccc(F)cc12 (3D coordinates assigned)
CCCN(CCC)CCC[NH2+]c1c2ccccc2[n+](C)c2ccc(F)cc12 (optimized conformer: 87.462693201616 kcal/mol)

>  <smiles>  (23) 
CCCN(CCC)CCCNc1c2ccccc2[n+](C)c2ccc(F)cc12

>  <score_type>  (23) 
oracle

>  <origin>  (23) 
adg

>  <m_score__min__energy>  (23) 
-7.6799999999999997

>  <m_primary>  (23) 
energy

$$$$
