0:0
     RDKit          3D

 43 46  0  0  0  0  0  0  0  0999 V2000
   -6.1240   17.1820  -30.8370 C   0  0  0  0  0  0  0  0  0  0  0  0
   -5.9800   17.5140  -32.2530 N   0  0  0  0  0  0  0  0  0  0  0  0
   -6.8090   18.2170  -33.0790 C   0  0  0  0  0  0  0  0  0  0  0  0
   -8.1110   18.8630  -32.6690 C   0  0  0  0  0  0  0  0  0  0  0  0
   -8.1100   20.3370  -32.8090 N   0  0  0  0  0  0  0  0  0  0  0  0
   -9.3060   21.0370  -32.3010 C   0  0  0  0  0  0  0  0  0  0  0  0
   -9.1660   21.5180  -30.8430 C   0  0  0  0  0  0  0  0  0  0  0  0
   -7.7210   21.8410  -30.4310 C   0  0  0  0  0  0  0  0  0  0  0  0
   -6.8160   22.2010  -31.6310 C   0  0  1  0  0  0  0  0  0  0  0  0
   -7.2920   23.5300  -32.3130 C   0  0  0  0  0  0  0  0  0  0  0  0
   -6.3470   24.5530  -31.9160 N   0  0  0  0  0  0  0  0  0  0  0  0
   -5.2590   23.9670  -31.2450 C   0  0  0  0  0  0  0  0  0  0  0  0
   -4.2760   24.6340  -30.8270 O   0  0  0  0  0  0  0  0  0  0  0  0
   -5.3720   22.5020  -31.1230 C   0  0  0  0  0  0  0  0  0  0  0  0
   -6.7970   21.0010  -32.6200 C   0  0  0  0  0  0  0  0  0  0  0  0
   -6.3460   18.3020  -34.3580 N   0  0  0  0  0  0  0  0  0  0  0  0
   -5.2010   17.5990  -34.3150 C   0  0  0  0  0  0  0  0  0  0  0  0
   -4.3120   17.3290  -35.3500 C   0  0  0  0  0  0  0  0  0  0  0  0
   -3.1860   16.5440  -35.0410 C   0  0  0  0  0  0  0  0  0  0  0  0
   -3.0020   16.0660  -33.7210 C   0  0  0  0  0  0  0  0  0  0  0  0
   -3.9100   16.3620  -32.7430 N   0  0  0  0  0  0  0  0  0  0  0  0
   -4.9880   17.1230  -33.0640 C   0  0  0  0  0  0  0  0  0  0  0  0
   -5.7603   18.0205  -30.2250 H   0  0  0  0  0  0  0  0  0  0  0  0
   -7.1840   16.9952  -30.6101 H   0  0  0  0  0  0  0  0  0  0  0  0
   -5.5361   16.2804  -30.6101 H   0  0  0  0  0  0  0  0  0  0  0  0
   -8.9155   18.4543  -33.2981 H   0  0  0  0  0  0  0  0  0  0  0  0
   -8.2605   18.6399  -31.6023 H   0  0  0  0  0  0  0  0  0  0  0  0
   -9.4941   21.9126  -32.9397 H   0  0  0  0  0  0  0  0  0  0  0  0
  -10.1365   20.3161  -32.3248 H   0  0  0  0  0  0  0  0  0  0  0  0
   -9.7733   22.4266  -30.7180 H   0  0  0  0  0  0  0  0  0  0  0  0
   -9.5049   20.6924  -30.2000 H   0  0  0  0  0  0  0  0  0  0  0  0
   -7.7371   22.6936  -29.7361 H   0  0  0  0  0  0  0  0  0  0  0  0
   -7.3028   20.9374  -29.9635 H   0  0  0  0  0  0  0  0  0  0  0  0
   -7.2934   23.4171  -33.4072 H   0  0  0  0  0  0  0  0  0  0  0  0
   -8.3157   23.7915  -32.0069 H   0  0  0  0  0  0  0  0  0  0  0  0
   -6.4140   25.5620  -32.1770 H   0  0  0  0  0  0  0  0  0  0  0  0
   -4.6221   21.9969  -31.7495 H   0  0  0  0  0  0  0  0  0  0  0  0
   -5.1966   22.1440  -30.0978 H   0  0  0  0  0  0  0  0  0  0  0  0
   -6.4539   21.3680  -33.5986 H   0  0  0  0  0  0  0  0  0  0  0  0
   -6.1258   20.2469  -32.1831 H   0  0  0  0  0  0  0  0  0  0  0  0
   -4.4820   17.7128  -36.3668 H   0  0  0  0  0  0  0  0  0  0  0  0
   -2.4507   16.3023  -35.8227 H   0  0  0  0  0  0  0  0  0  0  0  0
   -2.1217   15.4518  -33.4807 H   0  0  0  0  0  0  0  0  0  0  0  0
  1  2  1  0
  2  3  1  0
  3  4  1  0
  4  5  1  0
  5  6  1  0
  6  7  1  0
  7  8  1  0
  9  8  1  1
  9 10  1  0
 10 11  1  0
 11 12  1  0
 12 13  2  0
 12 14  1  0
  9 15  1  0
  3 16  2  0
 16 17  1  0
 17 18  2  0
 18 19  1  0
 19 20  2  0
 20 21  1  0
 21 22  2  0
 22  2  1  0
 15  5  1  0
 22 17  1  0
 14  9  1  0
  1 23  1  0
  1 24  1  0
  1 25  1  0
  4 26  1  0
  4 27  1  0
  6 28  1  0
  6 29  1  0
  7 30  1  0
  7 31  1  0
  8 32  1  0
  8 33  1  0
 10 34  1  0
 10 35  1  0
 11 36  1  0
 14 37  1  0
 14 38  1  0
 15 39  1  0
 15 40  1  0
 18 41  1  0
 19 42  1  0
 20 43  1  0
M  END
>  <UniqueID>  (1) 
1

>  <SMILES>  (1) 
Cn1c(CN2CCC[C@]3(CNC(=O)C3)C2)nc2cccnc21

>  <Energy>  (1) 
108.71182776028287

>  <Genealogy>  (1) 
Cn1c(CN2CCC[C@]3(CNC(=O)C3)C2)nc2cccnc21 (chirality)
Cn1c(CN2CCC[C@]3(CNC(=O)C3)C2)nc2cccnc21 (3D coordinates assigned)
Cn1c(CN2CCC[C@]3(CNC(=O)C3)C2)nc2cccnc21 (nonaromatic ring conformer: 108.71182776028287 kcal/mol)

>  <smiles>  (1) 
Cn1c(CN2CCCC3(CNC(=O)C3)C2)nc2cccnc21

>  <score_type>  (1) 
oracle

>  <origin>  (1) 
adg

>  <m_score__min__energy>  (1) 
-8.1699999999999999

>  <m_primary>  (1) 
energy

$$$$
1:0
     RDKit          3D

 65 67  0  0  0  0  0  0  0  0999 V2000
   -0.5110   24.6780  -24.5420 C   0  0  0  0  0  0  0  0  0  0  0  0
   -0.8310   26.1400  -24.2260 C   0  0  0  0  0  0  0  0  0  0  0  0
   -1.5220   26.7890  -25.3660 N   0  0  0  0  0  0  0  0  0  0  0  0
   -0.8160   28.0280  -25.7560 C   0  0  0  0  0  0  0  0  0  0  0  0
   -1.6130   25.8570  -26.5200 C   0  0  0  0  0  0  0  0  0  0  0  0
   -0.9250   26.4280  -27.7630 C   0  0  0  0  0  0  0  0  0  0  0  0
   -1.4910   25.8470  -28.9220 O   0  0  0  0  0  0  0  0  0  0  0  0
   -1.2990   24.4440  -28.9240 C   0  0  0  0  0  0  0  0  0  0  0  0
   -2.6460   23.7130  -29.0410 C   0  0  0  0  0  0  0  0  0  0  0  0
   -3.7110   24.5190  -29.8130 C   0  0  0  0  0  0  0  0  0  0  0  0
   -4.4360   23.7590  -30.8500 N   0  0  0  0  0  0  0  0  0  0  0  0
   -4.1050   22.3260  -30.9220 C   0  0  0  0  0  0  0  0  0  0  0  0
   -3.5260   21.9380  -32.2910 C   0  0  0  0  0  0  0  0  0  0  0  0
   -4.5750   21.9510  -33.3220 N   0  0  0  0  0  0  0  0  0  0  0  0
   -5.6440   21.0250  -32.9740 C   0  0  0  0  0  0  0  0  0  0  0  0
   -6.8950   21.5060  -32.5000 C   0  0  0  0  0  0  0  0  0  0  0  0
   -7.1080   22.8790  -32.2230 C   0  0  0  0  0  0  0  0  0  0  0  0
   -8.3650   23.3520  -31.8550 C   0  0  0  0  0  0  0  0  0  0  0  0
   -9.4360   22.4780  -31.7560 C   0  0  0  0  0  0  0  0  0  0  0  0
   -9.2470   21.1170  -31.9720 C   0  0  0  0  0  0  0  0  0  0  0  0
   -7.9670   20.5920  -32.2930 C   0  0  0  0  0  0  0  0  0  0  0  0
   -7.7600   19.2320  -32.4150 N   0  0  0  0  0  0  0  0  0  0  0  0
   -8.7830   18.2840  -31.9100 C   0  0  0  0  0  0  0  0  0  0  0  0
   -6.5810   18.7520  -32.9510 C   0  0  0  0  0  0  0  0  0  0  0  0
   -6.4370   17.3870  -33.3120 C   0  0  0  0  0  0  0  0  0  0  0  0
   -5.2160   16.8800  -33.7520 C   0  0  0  0  0  0  0  0  0  0  0  0
   -5.0670   15.1820  -34.1710 Cl  0  0  0  0  0  0  0  0  0  0  0  0
   -4.1130   17.7150  -33.8500 C   0  0  0  0  0  0  0  0  0  0  0  0
   -4.2370   19.0720  -33.5660 C   0  0  0  0  0  0  0  0  0  0  0  0
   -5.4790   19.6270  -33.1650 C   0  0  0  0  0  0  0  0  0  0  0  0
   -0.3885   24.1182  -23.6030 H   0  0  0  0  0  0  0  0  0  0  0  0
   -1.3346   24.2401  -25.1251 H   0  0  0  0  0  0  0  0  0  0  0  0
    0.4202   24.6242  -25.1251 H   0  0  0  0  0  0  0  0  0  0  0  0
   -1.4807   26.1829  -23.3394 H   0  0  0  0  0  0  0  0  0  0  0  0
    0.1124   26.6733  -24.0373 H   0  0  0  0  0  0  0  0  0  0  0  0
   -0.5055   28.5730  -24.8524 H   0  0  0  0  0  0  0  0  0  0  0  0
    0.0717   27.7718  -26.3529 H   0  0  0  0  0  0  0  0  0  0  0  0
   -1.4890   28.6611  -26.3529 H   0  0  0  0  0  0  0  0  0  0  0  0
   -1.1298   24.9064  -26.2498 H   0  0  0  0  0  0  0  0  0  0  0  0
   -2.6767   25.7048  -26.7555 H   0  0  0  0  0  0  0  0  0  0  0  0
   -1.0666   27.5184  -27.7925 H   0  0  0  0  0  0  0  0  0  0  0  0
    0.1504   26.1997  -27.7253 H   0  0  0  0  0  0  0  0  0  0  0  0
   -0.6625   24.1676  -29.7775 H   0  0  0  0  0  0  0  0  0  0  0  0
   -0.8177   24.1509  -27.9793 H   0  0  0  0  0  0  0  0  0  0  0  0
   -2.4818   22.7596  -29.5646 H   0  0  0  0  0  0  0  0  0  0  0  0
   -3.0263   23.5640  -28.0197 H   0  0  0  0  0  0  0  0  0  0  0  0
   -4.4474   24.8946  -29.0873 H   0  0  0  0  0  0  0  0  0  0  0  0
   -3.1701   25.3193  -30.3392 H   0  0  0  0  0  0  0  0  0  0  0  0
   -4.2600   24.1930  -31.7850 H   0  0  0  0  0  0  0  0  0  0  0  0
   -3.3634   22.0931  -30.1437 H   0  0  0  0  0  0  0  0  0  0  0  0
   -5.0327   21.7546  -30.7708 H   0  0  0  0  0  0  0  0  0  0  0  0
   -2.7396   22.6559  -32.5670 H   0  0  0  0  0  0  0  0  0  0  0  0
   -3.1091   20.9223  -32.2236 H   0  0  0  0  0  0  0  0  0  0  0  0
   -4.1720   21.7240  -34.2580 H   0  0  0  0  0  0  0  0  0  0  0  0
   -4.9410   22.9190  -33.4580 H   0  0  0  0  0  0  0  0  0  0  0  0
   -6.2664   23.5831  -32.2999 H   0  0  0  0  0  0  0  0  0  0  0  0
   -8.5082   24.4217  -31.6424 H   0  0  0  0  0  0  0  0  0  0  0  0
  -10.4365   22.8610  -31.5064 H   0  0  0  0  0  0  0  0  0  0  0  0
  -10.1056   20.4340  -31.8927 H   0  0  0  0  0  0  0  0  0  0  0  0
   -8.7769   18.2897  -30.8100 H   0  0  0  0  0  0  0  0  0  0  0  0
   -9.7758   18.5884  -32.2727 H   0  0  0  0  0  0  0  0  0  0  0  0
   -8.5549   17.2709  -32.2727 H   0  0  0  0  0  0  0  0  0  0  0  0
   -7.3062   16.7163  -33.2431 H   0  0  0  0  0  0  0  0  0  0  0  0
   -3.1385   17.3042  -34.1527 H   0  0  0  0  0  0  0  0  0  0  0  0
   -3.3564   19.7253  -33.6541 H   0  0  0  0  0  0  0  0  0  0  0  0
  1  2  1  0
  2  3  1  0
  3  4  1  0
  3  5  1  0
  5  6  1  0
  6  7  1  0
  7  8  1  0
  8  9  1  0
  9 10  1  0
 10 11  1  0
 11 12  1  0
 12 13  1  0
 13 14  1  0
 14 15  1  0
 15 16  2  0
 16 17  1  0
 17 18  2  0
 18 19  1  0
 19 20  2  0
 20 21  1  0
 21 22  2  0
 22 23  1  0
 22 24  1  0
 24 25  2  0
 25 26  1  0
 26 27  1  0
 26 28  2  0
 28 29  1  0
 29 30  2  0
 30 15  1  0
 21 16  1  0
 30 24  1  0
  1 31  1  0
  1 32  1  0
  1 33  1  0
  2 34  1  0
  2 35  1  0
  4 36  1  0
  4 37  1  0
  4 38  1  0
  5 39  1  0
  5 40  1  0
  6 41  1  0
  6 42  1  0
  8 43  1  0
  8 44  1  0
  9 45  1  0
  9 46  1  0
 10 47  1  0
 10 48  1  0
 11 49  1  0
 12 50  1  0
 12 51  1  0
 13 52  1  0
 13 53  1  0
 14 54  1  0
 14 55  1  0
 17 56  1  0
 18 57  1  0
 19 58  1  0
 20 59  1  0
 23 60  1  0
 23 61  1  0
 23 62  1  0
 25 63  1  0
 28 64  1  0
 29 65  1  0
M  CHG  2  14   1  22   1
M  END
>  <UniqueID>  (2) 
2

>  <SMILES>  (2) 
CCN(C)CCOCCCNCC[NH2+]c1c2ccccc2[n+](C)c2cc(Cl)ccc12

>  <Energy>  (2) 
93.51464216431627

>  <Genealogy>  (2) 
CCN(C)CCOCCCNCC[NH2+]c1c2ccccc2[n+](C)c2cc(Cl)ccc12 (protonated)
CCN(C)CCOCCCNCC[NH2+]c1c2ccccc2[n+](C)c2cc(Cl)ccc12 (3D coordinates assigned)
CCN(C)CCOCCCNCC[NH2+]c1c2ccccc2[n+](C)c2cc(Cl)ccc12 (optimized conformer: 93.51464216431627 kcal/mol)

>  <smiles>  (2) 
CCN(C)CCOCCCNCCNc1c2ccccc2[n+](C)c2cc(Cl)ccc12

>  <score_type>  (2) 
oracle

>  <origin>  (2) 
adg

>  <m_score__min__energy>  (2) 
-9.1400000000000006

>  <m_primary>  (2) 
energy

$$$$
2:0
     RDKit          3D

 50 52  0  0  0  0  0  0  0  0999 V2000
   -2.9770   21.8310  -31.9940 C   0  0  0  0  0  0  0  0  0  0  0  0
   -3.1880   23.0940  -31.3770 O   0  0  0  0  0  0  0  0  0  0  0  0
   -4.4230   23.5710  -30.9130 C   0  0  0  0  0  0  0  0  0  0  0  0
   -5.6380   22.9320  -31.2220 C   0  0  0  0  0  0  0  0  0  0  0  0
   -6.8560   23.4880  -30.7960 C   0  0  0  0  0  0  0  0  0  0  0  0
   -6.8630   24.6770  -30.0660 C   0  0  0  0  0  0  0  0  0  0  0  0
   -5.6600   25.3030  -29.7280 C   0  0  0  0  0  0  0  0  0  0  0  0
   -4.4320   24.7460  -30.1330 C   0  0  0  0  0  0  0  0  0  0  0  0
   -3.1940   25.2880  -29.7420 O   0  0  0  0  0  0  0  0  0  0  0  0
   -2.1140   24.5500  -29.1720 C   0  0  0  0  0  0  0  0  0  0  0  0
   -2.6070   23.8900  -27.8830 C   0  0  0  0  0  0  0  0  0  0  0  0
   -1.4830   22.5740  -27.2820 S   0  0  0  0  0  0  0  0  0  0  0  0
   -0.1900   23.7030  -26.7450 C   0  0  0  0  0  0  0  0  0  0  0  0
    0.4230   24.5520  -27.6000 N   0  0  0  0  0  0  0  0  0  0  0  0
    1.2940   25.2340  -26.8240 C   0  0  0  0  0  0  0  0  0  0  0  0
    1.1930   24.7840  -25.5210 C   0  0  0  0  0  0  0  0  0  0  0  0
    2.0210   25.2760  -24.3630 C   0  0  0  0  0  0  0  0  0  0  0  0
    1.2320   26.0600  -23.4020 N   0  0  0  0  0  0  0  0  0  0  0  0
    0.6160   27.2230  -23.9980 C   0  0  0  0  0  0  0  0  0  0  0  0
    1.3020   28.4490  -24.0880 C   0  0  0  0  0  0  0  0  0  0  0  0
    0.7090   29.5570  -24.6930 C   0  0  0  0  0  0  0  0  0  0  0  0
   -0.5590   29.4460  -25.2620 C   0  0  0  0  0  0  0  0  0  0  0  0
   -1.2440   28.2290  -25.2070 C   0  0  0  0  0  0  0  0  0  0  0  0
   -0.6670   27.1250  -24.5750 C   0  0  0  0  0  0  0  0  0  0  0  0
    0.2590   23.8120  -25.4720 N   0  0  0  0  0  0  0  0  0  0  0  0
   -0.0710   22.9470  -24.3380 C   0  0  0  0  0  0  0  0  0  0  0  0
   -2.8484   21.0612  -31.2189 H   0  0  0  0  0  0  0  0  0  0  0  0
   -3.8455   21.5792  -32.6203 H   0  0  0  0  0  0  0  0  0  0  0  0
   -2.0738   21.8752  -32.6203 H   0  0  0  0  0  0  0  0  0  0  0  0
   -5.6342   21.9951  -31.7984 H   0  0  0  0  0  0  0  0  0  0  0  0
   -7.8042   22.9858  -31.0381 H   0  0  0  0  0  0  0  0  0  0  0  0
   -7.8191   25.1235  -29.7553 H   0  0  0  0  0  0  0  0  0  0  0  0
   -5.6726   26.2346  -29.1432 H   0  0  0  0  0  0  0  0  0  0  0  0
   -1.7775   23.7778  -29.8795 H   0  0  0  0  0  0  0  0  0  0  0  0
   -1.2708   25.2219  -28.9539 H   0  0  0  0  0  0  0  0  0  0  0  0
   -2.6924   24.6617  -27.1038 H   0  0  0  0  0  0  0  0  0  0  0  0
   -3.5776   23.4210  -28.1022 H   0  0  0  0  0  0  0  0  0  0  0  0
    1.9759   26.0229  -27.1741 H   0  0  0  0  0  0  0  0  0  0  0  0
    2.4506   24.4077  -23.8420 H   0  0  0  0  0  0  0  0  0  0  0  0
    2.8054   25.9328  -24.7672 H   0  0  0  0  0  0  0  0  0  0  0  0
    1.8480   26.3340  -22.6070 H   0  0  0  0  0  0  0  0  0  0  0  0
    0.4850   25.4430  -23.0050 H   0  0  0  0  0  0  0  0  0  0  0  0
    2.3184   28.5342  -23.6760 H   0  0  0  0  0  0  0  0  0  0  0  0
    1.2420   30.5188  -24.7212 H   0  0  0  0  0  0  0  0  0  0  0  0
   -1.0198   30.3154  -25.7537 H   0  0  0  0  0  0  0  0  0  0  0  0
   -2.2411   28.1402  -25.6630 H   0  0  0  0  0  0  0  0  0  0  0  0
   -1.2167   26.1734  -24.5271 H   0  0  0  0  0  0  0  0  0  0  0  0
    0.1327   23.4809  -23.3981 H   0  0  0  0  0  0  0  0  0  0  0  0
   -1.1360   22.6752  -24.3819 H   0  0  0  0  0  0  0  0  0  0  0  0
    0.5423   22.0349  -24.3819 H   0  0  0  0  0  0  0  0  0  0  0  0
  1  2  1  0
  2  3  1  0
  3  4  2  0
  4  5  1  0
  5  6  2  0
  6  7  1  0
  7  8  2  0
  8  9  1  0
  9 10  1  0
 10 11  1  0
 11 12  1  0
 12 13  1  0
 13 14  2  0
 14 15  1  0
 15 16  2  0
 16 17  1  0
 17 18  1  0
 18 19  1  0
 19 20  2  0
 20 21  1  0
 21 22  2  0
 22 23  1  0
 23 24  2  0
 16 25  1  0
 25 26  1  0
  8  3  1  0
 25 13  1  0
 24 19  1  0
  1 27  1  0
  1 28  1  0
  1 29  1  0
  4 30  1  0
  5 31  1  0
  6 32  1  0
  7 33  1  0
 10 34  1  0
 10 35  1  0
 11 36  1  0
 11 37  1  0
 15 38  1  0
 17 39  1  0
 17 40  1  0
 18 41  1  0
 18 42  1  0
 20 43  1  0
 21 44  1  0
 22 45  1  0
 23 46  1  0
 24 47  1  0
 26 48  1  0
 26 49  1  0
 26 50  1  0
M  CHG  1  18   1
M  END
>  <UniqueID>  (3) 
3

>  <SMILES>  (3) 
COc1ccccc1OCCSc1ncc(C[NH2+]c2ccccc2)n1C

>  <Energy>  (3) 
80.13032479160829

>  <Genealogy>  (3) 
COc1ccccc1OCCSc1ncc(C[NH2+]c2ccccc2)n1C (protonated)
COc1ccccc1OCCSc1ncc(C[NH2+]c2ccccc2)n1C (3D coordinates assigned)
COc1ccccc1OCCSc1ncc(C[NH2+]c2ccccc2)n1C (optimized conformer: 80.13032479160829 kcal/mol)

>  <smiles>  (3) 
COc1ccccc1OCCSc1ncc(CNc2ccccc2)n1C

>  <score_type>  (3) 
oracle

>  <origin>  (3) 
adg

>  <m_score__min__energy>  (3) 
-8.9800000000000004

>  <m_primary>  (3) 
energy

$$$$
3:0
     RDKit          3D

 45 48  0  0  0  0  0  0  0  0999 V2000
   -3.0370   24.5000  -27.3370 C   0  0  0  0  0  0  0  0  0  0  0  0
   -2.2530   25.0170  -28.5380 C   0  0  0  0  0  0  0  0  0  0  0  0
   -3.1090   25.1880  -29.6680 O   0  0  0  0  0  0  0  0  0  0  0  0
   -3.7540   24.1570  -30.3710 C   0  0  0  0  0  0  0  0  0  0  0  0
   -5.0430   24.4010  -30.8590 C   0  0  0  0  0  0  0  0  0  0  0  0
   -5.7400   23.4140  -31.5620 C   0  0  0  0  0  0  0  0  0  0  0  0
   -5.1450   22.1690  -31.7860 C   0  0  0  0  0  0  0  0  0  0  0  0
   -3.8430   21.9030  -31.3070 C   0  0  0  0  0  0  0  0  0  0  0  0
   -3.1610   22.8950  -30.5880 C   0  0  0  0  0  0  0  0  0  0  0  0
   -3.2430   20.5060  -31.4410 C   0  0  0  0  0  0  0  0  0  0  0  0
   -3.7180   19.7410  -32.7010 C   0  0  0  0  0  0  0  0  0  0  0  0
   -5.1800   19.9770  -32.9430 C   0  0  0  0  0  0  0  0  0  0  0  0
   -6.1440   19.2600  -33.6340 C   0  0  0  0  0  0  0  0  0  0  0  0
   -6.0110   17.9430  -34.2810 C   0  0  0  0  0  0  0  0  0  0  0  0
   -5.6760   17.8910  -35.4960 O   0  0  0  0  0  0  0  0  0  0  0  0
   -6.2430   16.7230  -33.5560 N   0  0  0  0  0  0  0  0  0  0  0  0
   -6.8550   15.5700  -34.2190 C   0  0  0  0  0  0  0  0  0  0  0  0
   -5.8020   14.4650  -34.3600 C   0  0  0  0  0  0  0  0  0  0  0  0
   -5.2260   14.1560  -33.1000 O   0  0  0  0  0  0  0  0  0  0  0  0
   -4.5350   15.2840  -32.5880 C   0  0  0  0  0  0  0  0  0  0  0  0
   -5.5020   16.4430  -32.3250 C   0  0  0  0  0  0  0  0  0  0  0  0
   -7.2930   19.9700  -33.5920 N   0  0  0  0  0  0  0  0  0  0  0  0
   -7.0710   21.0790  -32.9440 O   0  0  0  0  0  0  0  0  0  0  0  0
   -5.8220   21.1170  -32.5460 C   0  0  0  0  0  0  0  0  0  0  0  0
   -2.5435   24.8254  -26.4093 H   0  0  0  0  0  0  0  0  0  0  0  0
   -4.0610   24.9006  -27.3676 H   0  0  0  0  0  0  0  0  0  0  0  0
   -3.0721   23.4010  -27.3676 H   0  0  0  0  0  0  0  0  0  0  0  0
   -1.7971   25.9847  -28.2814 H   0  0  0  0  0  0  0  0  0  0  0  0
   -1.4751   24.2824  -28.7934 H   0  0  0  0  0  0  0  0  0  0  0  0
   -5.5129   25.3806  -30.6874 H   0  0  0  0  0  0  0  0  0  0  0  0
   -6.7538   23.6164  -31.9379 H   0  0  0  0  0  0  0  0  0  0  0  0
   -2.1565   22.6880  -30.1903 H   0  0  0  0  0  0  0  0  0  0  0  0
   -2.1480   20.6014  -31.4852 H   0  0  0  0  0  0  0  0  0  0  0  0
   -3.5798   19.9272  -30.5683 H   0  0  0  0  0  0  0  0  0  0  0  0
   -3.1462   20.0909  -33.5732 H   0  0  0  0  0  0  0  0  0  0  0  0
   -3.5539   18.6646  -32.5449 H   0  0  0  0  0  0  0  0  0  0  0  0
   -7.6987   15.2020  -33.6167 H   0  0  0  0  0  0  0  0  0  0  0  0
   -7.2247   15.8630  -35.2127 H   0  0  0  0  0  0  0  0  0  0  0  0
   -6.2786   13.5624  -34.7701 H   0  0  0  0  0  0  0  0  0  0  0  0
   -5.0079   14.8177  -35.0345 H   0  0  0  0  0  0  0  0  0  0  0  0
   -4.0404   15.0064  -31.6455 H   0  0  0  0  0  0  0  0  0  0  0  0
   -3.7910   15.6080  -33.3307 H   0  0  0  0  0  0  0  0  0  0  0  0
   -6.2041   16.1653  -31.5251 H   0  0  0  0  0  0  0  0  0  0  0  0
   -4.9411   17.3364  -32.0132 H   0  0  0  0  0  0  0  0  0  0  0  0
   -8.2110   19.7020  -34.0120 H   0  0  0  0  0  0  0  0  0  0  0  0
  1  2  1  0
  2  3  1  0
  3  4  1  0
  4  5  2  0
  5  6  1  0
  6  7  2  0
  7  8  1  0
  8  9  2  0
  8 10  1  0
 10 11  1  0
 11 12  1  0
 12 13  1  0
 13 14  1  0
 14 15  2  0
 14 16  1  0
 16 17  1  0
 17 18  1  0
 18 19  1  0
 19 20  1  0
 20 21  1  0
 13 22  2  0
 22 23  1  0
 23 24  1  0
  9  4  1  0
 24 12  2  0
 24  7  1  0
 21 16  1  0
  1 25  1  0
  1 26  1  0
  1 27  1  0
  2 28  1  0
  2 29  1  0
  5 30  1  0
  6 31  1  0
  9 32  1  0
 10 33  1  0
 10 34  1  0
 11 35  1  0
 11 36  1  0
 17 37  1  0
 17 38  1  0
 18 39  1  0
 18 40  1  0
 20 41  1  0
 20 42  1  0
 21 43  1  0
 21 44  1  0
 22 45  1  0
M  CHG  1  22   1
M  END
>  <UniqueID>  (4) 
4

>  <SMILES>  (4) 
CCOc1ccc2c(c1)CCc1c(C(=O)N3CCOCC3)[nH+]oc1-2

>  <Energy>  (4) 
89.40778836228526

>  <Genealogy>  (4) 
CCOc1ccc2c(c1)CCc1c(C(=O)N3CCOCC3)[nH+]oc1-2 (protonated)
CCOc1ccc2c(c1)CCc1c(C(=O)N3CCOCC3)[nH+]oc1-2 (3D coordinates assigned)
CCOc1ccc2c(c1)CCc1c(C(=O)N3CCOCC3)[nH+]oc1-2 (nonaromatic ring conformer: 89.40778836228526 kcal/mol)

>  <smiles>  (4) 
CCOc1ccc2c(c1)CCc1c(C(=O)N3CCOCC3)noc1-2

>  <score_type>  (4) 
oracle

>  <origin>  (4) 
adg

>  <m_score__min__energy>  (4) 
-8.1500000000000004

>  <m_primary>  (4) 
energy

$$$$
4:0
     RDKit          3D

 69 71  0  0  0  0  0  0  0  0999 V2000
   -6.9260   25.3090  -29.5660 C   0  0  0  0  0  0  0  0  0  0  0  0
   -5.6670   25.9530  -30.1450 C   0  0  0  0  0  0  0  0  0  0  0  0
   -4.9190   24.9840  -30.9740 N   0  0  0  0  0  0  0  0  0  0  0  0
   -3.9540   24.2470  -30.1380 C   0  0  0  0  0  0  0  0  0  0  0  0
   -5.8290   24.0390  -31.6660 C   0  0  0  0  0  0  0  0  0  0  0  0
   -5.4160   22.5900  -31.3880 C   0  0  0  0  0  0  0  0  0  0  0  0
   -5.0190   21.9080  -32.6230 N   0  0  0  0  0  0  0  0  0  0  0  0
   -5.2310   20.4980  -32.7900 C   0  0  0  0  0  0  0  0  0  0  0  0
   -6.5260   19.9730  -32.6180 C   0  0  0  0  0  0  0  0  0  0  0  0
   -7.6320   20.8250  -32.3990 C   0  0  0  0  0  0  0  0  0  0  0  0
   -8.9150   20.3060  -32.2510 C   0  0  0  0  0  0  0  0  0  0  0  0
   -9.1260   18.9370  -32.3440 C   0  0  0  0  0  0  0  0  0  0  0  0
   -8.0540   18.0770  -32.5750 C   0  0  0  0  0  0  0  0  0  0  0  0
   -6.7300   18.5720  -32.6960 C   0  0  0  0  0  0  0  0  0  0  0  0
   -5.6590   17.7310  -32.9150 N   0  0  0  0  0  0  0  0  0  0  0  0
   -5.8100   16.2740  -32.7010 C   0  0  0  0  0  0  0  0  0  0  0  0
   -4.4450   18.2510  -33.3240 C   0  0  0  0  0  0  0  0  0  0  0  0
   -3.4450   17.4160  -33.8720 C   0  0  0  0  0  0  0  0  0  0  0  0
   -2.2140   17.9210  -34.2610 C   0  0  0  0  0  0  0  0  0  0  0  0
   -1.9160   19.2760  -34.1050 C   0  0  0  0  0  0  0  0  0  0  0  0
   -0.6630   19.8030  -34.5820 N   0  0  0  0  0  0  0  0  0  0  0  0
    0.4580   18.9700  -35.0220 C   0  0  0  0  0  0  0  0  0  0  0  0
    1.6430   19.8410  -35.4540 C   0  0  0  0  0  0  0  0  0  0  0  0
    1.7770   21.0800  -34.5440 C   0  0  0  0  0  0  0  0  0  0  0  0
    1.1110   22.2950  -35.0670 N   0  0  0  0  0  0  0  0  0  0  0  0
    2.0490   23.3980  -35.3300 C   0  0  0  0  0  0  0  0  0  0  0  0
    0.2650   22.0260  -36.2410 C   0  0  0  0  0  0  0  0  0  0  0  0
   -2.8850   20.1390  -33.5510 C   0  0  0  0  0  0  0  0  0  0  0  0
   -2.5560   21.4830  -33.3340 O   0  0  0  0  0  0  0  0  0  0  0  0
   -1.8940   21.9240  -32.1510 C   0  0  0  0  0  0  0  0  0  0  0  0
   -4.1830   19.6460  -33.2210 C   0  0  0  0  0  0  0  0  0  0  0  0
   -6.8782   25.3334  -28.4673 H   0  0  0  0  0  0  0  0  0  0  0  0
   -7.8120   25.8646  -29.9069 H   0  0  0  0  0  0  0  0  0  0  0  0
   -6.9940   24.2654  -29.9069 H   0  0  0  0  0  0  0  0  0  0  0  0
   -5.9547   26.8137  -30.7666 H   0  0  0  0  0  0  0  0  0  0  0  0
   -5.0232   26.2801  -29.3152 H   0  0  0  0  0  0  0  0  0  0  0  0
   -4.1814   24.4207  -29.0759 H   0  0  0  0  0  0  0  0  0  0  0  0
   -4.0254   23.1714  -30.3572 H   0  0  0  0  0  0  0  0  0  0  0  0
   -2.9351   24.5990  -30.3572 H   0  0  0  0  0  0  0  0  0  0  0  0
   -6.8563   24.1974  -31.3059 H   0  0  0  0  0  0  0  0  0  0  0  0
   -5.7726   24.2219  -32.7492 H   0  0  0  0  0  0  0  0  0  0  0  0
   -4.5682   22.5863  -30.6872 H   0  0  0  0  0  0  0  0  0  0  0  0
   -6.2768   22.0581  -30.9566 H   0  0  0  0  0  0  0  0  0  0  0  0
   -4.5980   22.4430  -33.4150 H   0  0  0  0  0  0  0  0  0  0  0  0
   -7.4769   21.9127  -32.3448 H   0  0  0  0  0  0  0  0  0  0  0  0
   -9.7623   20.9810  -32.0602 H   0  0  0  0  0  0  0  0  0  0  0  0
  -10.1421   18.5300  -32.2351 H   0  0  0  0  0  0  0  0  0  0  0  0
   -8.2375   16.9962  -32.6650 H   0  0  0  0  0  0  0  0  0  0  0  0
   -5.8319   16.0622  -31.6218 H   0  0  0  0  0  0  0  0  0  0  0  0
   -6.7485   15.9311  -33.1611 H   0  0  0  0  0  0  0  0  0  0  0  0
   -4.9618   15.7460  -33.1611 H   0  0  0  0  0  0  0  0  0  0  0  0
   -3.6480   16.3416  -33.9925 H   0  0  0  0  0  0  0  0  0  0  0  0
   -1.4631   17.2461  -34.6977 H   0  0  0  0  0  0  0  0  0  0  0  0
   -0.5170   20.8390  -34.5760 H   0  0  0  0  0  0  0  0  0  0  0  0
    0.7716   18.3191  -34.1925 H   0  0  0  0  0  0  0  0  0  0  0  0
    0.1328   18.3640  -35.8805 H   0  0  0  0  0  0  0  0  0  0  0  0
    2.5672   19.2476  -35.3927 H   0  0  0  0  0  0  0  0  0  0  0  0
    1.4716   20.1803  -36.4862 H   0  0  0  0  0  0  0  0  0  0  0  0
    1.3349   20.8387  -33.5661 H   0  0  0  0  0  0  0  0  0  0  0  0
    2.8507   21.3110  -34.4824 H   0  0  0  0  0  0  0  0  0  0  0  0
    2.4028   23.8140  -34.3751 H   0  0  0  0  0  0  0  0  0  0  0  0
    2.9069   23.0204  -35.9057 H   0  0  0  0  0  0  0  0  0  0  0  0
    1.5385   24.1841  -35.9057 H   0  0  0  0  0  0  0  0  0  0  0  0
   -0.7341   21.7083  -35.9079 H   0  0  0  0  0  0  0  0  0  0  0  0
    0.1763   22.9402  -36.8462 H   0  0  0  0  0  0  0  0  0  0  0  0
    0.7206   21.2284  -36.8462 H   0  0  0  0  0  0  0  0  0  0  0  0
   -2.4400   21.5603  -31.2680 H   0  0  0  0  0  0  0  0  0  0  0  0
   -0.8677   21.5285  -32.1361 H   0  0  0  0  0  0  0  0  0  0  0  0
   -1.8635   23.0235  -32.1361 H   0  0  0  0  0  0  0  0  0  0  0  0
  1  2  1  0
  2  3  1  0
  3  4  1  0
  3  5  1  0
  5  6  1  0
  6  7  1  0
  7  8  1  0
  8  9  2  0
  9 10  1  0
 10 11  2  0
 11 12  1  0
 12 13  2  0
 13 14  1  0
 14 15  2  0
 15 16  1  0
 15 17  1  0
 17 18  2  0
 18 19  1  0
 19 20  2  0
 20 21  1  0
 21 22  1  0
 22 23  1  0
 23 24  1  0
 24 25  1  0
 25 26  1  0
 25 27  1  0
 20 28  1  0
 28 29  1  0
 29 30  1  0
 28 31  2  0
 31  8  1  0
 14  9  1  0
 31 17  1  0
  1 32  1  0
  1 33  1  0
  1 34  1  0
  2 35  1  0
  2 36  1  0
  4 37  1  0
  4 38  1  0
  4 39  1  0
  5 40  1  0
  5 41  1  0
  6 42  1  0
  6 43  1  0
  7 44  1  0
 10 45  1  0
 11 46  1  0
 12 47  1  0
 13 48  1  0
 16 49  1  0
 16 50  1  0
 16 51  1  0
 18 52  1  0
 19 53  1  0
 21 54  1  0
 22 55  1  0
 22 56  1  0
 23 57  1  0
 23 58  1  0
 24 59  1  0
 24 60  1  0
 26 61  1  0
 26 62  1  0
 26 63  1  0
 27 64  1  0
 27 65  1  0
 27 66  1  0
 30 67  1  0
 30 68  1  0
 30 69  1  0
M  CHG  1  15   1
M  END
>  <UniqueID>  (5) 
5

>  <SMILES>  (5) 
CCN(C)CCNc1c2ccccc2[n+](C)c2ccc(NCCCN(C)C)c(OC)c12

>  <Energy>  (5) 
101.99567374576017

>  <Genealogy>  (5) 
CCN(C)CCNc1c2ccccc2[n+](C)c2ccc(NCCCN(C)C)c(OC)c12 (3D coordinates assigned)
CCN(C)CCNc1c2ccccc2[n+](C)c2ccc(NCCCN(C)C)c(OC)c12 (optimized conformer: 101.99567374576017 kcal/mol)

>  <smiles>  (5) 
CCN(C)CCNc1c2ccccc2[n+](C)c2ccc(NCCCN(C)C)c(OC)c12

>  <score_type>  (5) 
oracle

>  <origin>  (5) 
adg

>  <m_score__min__energy>  (5) 
-8

>  <m_primary>  (5) 
energy

$$$$
5:0
     RDKit          3D

 32 34  0  0  0  0  0  0  0  0999 V2000
   -5.4220   21.3780  -32.6860 C   0  0  0  0  0  0  0  0  0  0  0  0
   -6.8130   20.9400  -32.5790 N   0  0  0  0  0  0  0  0  0  0  0  0
   -7.3430   19.7060  -32.7760 C   0  0  0  0  0  0  0  0  0  0  0  0
   -6.6060   18.4820  -33.1650 C   0  0  0  0  0  0  0  0  0  0  0  0
   -6.5080   17.3360  -32.3810 C   0  0  0  0  0  0  0  0  0  0  0  0
   -5.7480   16.3180  -32.9700 C   0  0  0  0  0  0  0  0  0  0  0  0
   -5.2420   16.6490  -34.2190 C   0  0  0  0  0  0  0  0  0  0  0  0
   -5.7410   18.2100  -34.5830 S   0  0  0  0  0  0  0  0  0  0  0  0
   -8.6750   19.7050  -32.5610 N   0  0  0  0  0  0  0  0  0  0  0  0
   -9.0010   20.9410  -32.2210 N   0  0  0  0  0  0  0  0  0  0  0  0
   -7.8830   21.6830  -32.2260 C   0  0  0  0  0  0  0  0  0  0  0  0
   -7.8480   23.4270  -31.7910 S   0  0  0  0  0  0  0  0  0  0  0  0
   -7.2350   23.1450  -30.0950 C   0  0  0  0  0  0  0  0  0  0  0  0
   -5.8230   23.6430  -29.9420 C   0  0  0  0  0  0  0  0  0  0  0  0
   -4.9710   23.0790  -28.9830 C   0  0  0  0  0  0  0  0  0  0  0  0
   -3.6550   23.5280  -28.8670 C   0  0  0  0  0  0  0  0  0  0  0  0
   -3.2010   24.5380  -29.7180 C   0  0  0  0  0  0  0  0  0  0  0  0
   -4.0360   25.0730  -30.6480 N   0  0  0  0  0  0  0  0  0  0  0  0
   -5.3220   24.6520  -30.7780 C   0  0  0  0  0  0  0  0  0  0  0  0
   -5.0008   21.5106  -31.6785 H   0  0  0  0  0  0  0  0  0  0  0  0
   -4.8396   20.6198  -33.2300 H   0  0  0  0  0  0  0  0  0  0  0  0
   -5.3791   22.3331  -33.2300 H   0  0  0  0  0  0  0  0  0  0  0  0
   -6.9822   17.2393  -31.3932 H   0  0  0  0  0  0  0  0  0  0  0  0
   -5.5687   15.3460  -32.4873 H   0  0  0  0  0  0  0  0  0  0  0  0
   -4.6229   16.0023  -34.8581 H   0  0  0  0  0  0  0  0  0  0  0  0
   -9.9660   21.2590  -31.9820 H   0  0  0  0  0  0  0  0  0  0  0  0
   -7.8836   23.6787  -29.3847 H   0  0  0  0  0  0  0  0  0  0  0  0
   -7.2492   22.0639  -29.8925 H   0  0  0  0  0  0  0  0  0  0  0  0
   -5.3400   22.2817  -28.3211 H   0  0  0  0  0  0  0  0  0  0  0  0
   -2.9827   23.0914  -28.1138 H   0  0  0  0  0  0  0  0  0  0  0  0
   -2.1660   24.9013  -29.6357 H   0  0  0  0  0  0  0  0  0  0  0  0
   -5.9721   25.1041  -31.5415 H   0  0  0  0  0  0  0  0  0  0  0  0
  1  2  1  0
  2  3  1  0
  3  4  1  0
  4  5  2  0
  5  6  1  0
  6  7  2  0
  7  8  1  0
  3  9  2  0
  9 10  1  0
 10 11  2  0
 11 12  1  0
 12 13  1  0
 13 14  1  0
 14 15  2  0
 15 16  1  0
 16 17  2  0
 17 18  1  0
 18 19  2  0
 11  2  1  0
 19 14  1  0
  8  4  1  0
  1 20  1  0
  1 21  1  0
  1 22  1  0
  5 23  1  0
  6 24  1  0
  7 25  1  0
 10 26  1  0
 13 27  1  0
 13 28  1  0
 15 29  1  0
 16 30  1  0
 17 31  1  0
 19 32  1  0
M  CHG  1  10   1
M  END
>  <UniqueID>  (6) 
6

>  <SMILES>  (6) 
Cn1c(-c2cccs2)n[nH+]c1SCc1cccnc1

>  <Energy>  (6) 
92.9025807719001

>  <Genealogy>  (6) 
Cn1c(-c2cccs2)n[nH+]c1SCc1cccnc1 (protonated)
Cn1c(-c2cccs2)n[nH+]c1SCc1cccnc1 (3D coordinates assigned)
Cn1c(-c2cccs2)n[nH+]c1SCc1cccnc1 (optimized conformer: 92.9025807719001 kcal/mol)

>  <smiles>  (6) 
Cn1c(SCc2cccnc2)nnc1-c1cccs1

>  <score_type>  (6) 
oracle

>  <origin>  (6) 
adg

>  <m_score__min__energy>  (6) 
-7.3099999999999996

>  <m_primary>  (6) 
energy

$$$$
6:0
     RDKit          3D

 27 28  0  0  0  0  0  0  0  0999 V2000
   -2.0130   20.7490  -33.4500 C   0  0  0  0  0  0  0  0  0  0  0  0
   -3.3370   20.2250  -33.4170 O   0  0  0  0  0  0  0  0  0  0  0  0
   -4.4600   20.9340  -32.9650 C   0  0  0  0  0  0  0  0  0  0  0  0
   -4.4020   22.3000  -32.6250 C   0  0  0  0  0  0  0  0  0  0  0  0
   -5.5390   22.9700  -32.1570 C   0  0  0  0  0  0  0  0  0  0  0  0
   -5.4300   24.3600  -31.8210 N   0  0  0  0  0  0  0  0  0  0  0  0
   -4.9760   24.8820  -30.5650 C   0  0  0  0  0  0  0  0  0  0  0  0
   -5.8630   24.9240  -29.3570 C   0  0  0  0  0  0  0  0  0  0  0  0
   -3.7920   25.2950  -30.4670 O   0  0  0  0  0  0  0  0  0  0  0  0
   -6.7680   22.2850  -32.0820 C   0  0  0  0  0  0  0  0  0  0  0  0
   -7.9050   22.9360  -31.7130 N   0  0  0  0  0  0  0  0  0  0  0  0
   -9.1060   22.3020  -31.6370 C   0  0  0  0  0  0  0  0  0  0  0  0
   -9.2020   20.9440  -31.9460 C   0  0  0  0  0  0  0  0  0  0  0  0
   -8.0600   20.2480  -32.3440 C   0  0  0  0  0  0  0  0  0  0  0  0
   -6.8290   20.9150  -32.4250 C   0  0  0  0  0  0  0  0  0  0  0  0
   -5.6750   20.2500  -32.8540 C   0  0  0  0  0  0  0  0  0  0  0  0
   -1.6498   20.8927  -32.4217 H   0  0  0  0  0  0  0  0  0  0  0  0
   -1.3528   20.0444  -33.9769 H   0  0  0  0  0  0  0  0  0  0  0  0
   -2.0138   21.7146  -33.9769 H   0  0  0  0  0  0  0  0  0  0  0  0
   -3.4529   22.8463  -32.7283 H   0  0  0  0  0  0  0  0  0  0  0  0
   -5.2452   24.8947  -28.4473 H   0  0  0  0  0  0  0  0  0  0  0  0
   -6.4548   25.8512  -29.3687 H   0  0  0  0  0  0  0  0  0  0  0  0
   -6.5397   24.0569  -29.3687 H   0  0  0  0  0  0  0  0  0  0  0  0
  -10.0032   22.8603  -31.3315 H   0  0  0  0  0  0  0  0  0  0  0  0
  -10.1703   20.4267  -31.8763 H   0  0  0  0  0  0  0  0  0  0  0  0
   -8.1251   19.1787  -32.5936 H   0  0  0  0  0  0  0  0  0  0  0  0
   -5.7237   19.1804  -33.1061 H   0  0  0  0  0  0  0  0  0  0  0  0
  1  2  1  0
  2  3  1  0
  3  4  2  0
  4  5  1  0
  5  6  1  0
  6  7  1  0
  7  8  1  0
  7  9  2  0
  5 10  2  0
 10 11  1  0
 11 12  2  0
 12 13  1  0
 13 14  2  0
 14 15  1  0
 15 16  2  0
 16  3  1  0
 15 10  1  0
  1 17  1  0
  1 18  1  0
  1 19  1  0
  4 20  1  0
  8 21  1  0
  8 22  1  0
  8 23  1  0
 12 24  1  0
 13 25  1  0
 14 26  1  0
 16 27  1  0
M  CHG  1   6  -1
M  END
>  <UniqueID>  (7) 
7

>  <SMILES>  (7) 
COc1cc([N-]C(C)=O)c2ncccc2c1

>  <Energy>  (7) 
35.22110374732473

>  <Genealogy>  (7) 
COc1cc([N-]C(C)=O)c2ncccc2c1 (protonated)
COc1cc([N-]C(C)=O)c2ncccc2c1 (3D coordinates assigned)
COc1cc([N-]C(C)=O)c2ncccc2c1 (optimized conformer: 35.22110374732473 kcal/mol)

>  <smiles>  (7) 
COc1cc(NC(C)=O)c2ncccc2c1

>  <score_type>  (7) 
oracle

>  <origin>  (7) 
adg

>  <m_score__min__energy>  (7) 
-7.54

>  <m_primary>  (7) 
energy

$$$$
7:0
     RDKit          3D

 39 41  0  0  0  0  0  0  0  0999 V2000
   -3.8600   20.1520  -31.8160 C   0  0  0  0  0  0  0  0  0  0  0  0
   -3.3490   20.9600  -30.6670 C   0  0  0  0  0  0  0  0  0  0  0  0
   -3.2980   22.3730  -30.7590 C   0  0  0  0  0  0  0  0  0  0  0  0
   -2.8550   23.1390  -29.6610 C   0  0  0  0  0  0  0  0  0  0  0  0
   -2.8710   24.6080  -29.7200 C   0  0  0  0  0  0  0  0  0  0  0  0
   -1.9930   25.2600  -29.0960 O   0  0  0  0  0  0  0  0  0  0  0  0
   -3.8720   25.3180  -30.4640 N   0  0  0  0  0  0  0  0  0  0  0  0
   -5.2760   25.4430  -30.0760 C   0  0  0  0  0  0  0  0  0  0  0  0
   -6.0960   24.3260  -30.6640 C   0  0  0  0  0  0  0  0  0  0  0  0
   -6.8000   23.4460  -29.8300 C   0  0  0  0  0  0  0  0  0  0  0  0
   -7.5110   22.3800  -30.3830 C   0  0  0  0  0  0  0  0  0  0  0  0
   -7.5170   22.2050  -31.7670 C   0  0  0  0  0  0  0  0  0  0  0  0
   -6.8440   23.0740  -32.5690 N   0  0  0  0  0  0  0  0  0  0  0  0
   -6.1480   24.1240  -32.0530 C   0  0  0  0  0  0  0  0  0  0  0  0
   -2.4710   22.4400  -28.5110 C   0  0  0  0  0  0  0  0  0  0  0  0
   -2.0600   22.8050  -27.2350 C   0  0  0  0  0  0  0  0  0  0  0  0
   -1.8090   24.1830  -26.7170 C   0  0  0  0  0  0  0  0  0  0  0  0
   -1.9020   21.6850  -26.4860 N   0  0  0  0  0  0  0  0  0  0  0  0
   -2.1940   20.6370  -27.2480 N   0  0  0  0  0  0  0  0  0  0  0  0
   -2.2340   19.2610  -26.7700 C   0  0  0  0  0  0  0  0  0  0  0  0
   -2.5480   21.0790  -28.4640 C   0  0  0  0  0  0  0  0  0  0  0  0
   -2.9860   20.3320  -29.5070 N   0  0  0  0  0  0  0  0  0  0  0  0
   -4.4115   19.2800  -31.4345 H   0  0  0  0  0  0  0  0  0  0  0  0
   -4.5314   20.7707  -32.4295 H   0  0  0  0  0  0  0  0  0  0  0  0
   -3.0132   19.8106  -32.4295 H   0  0  0  0  0  0  0  0  0  0  0  0
   -3.6047   22.8737  -31.6892 H   0  0  0  0  0  0  0  0  0  0  0  0
   -5.3514   25.4066  -28.9792 H   0  0  0  0  0  0  0  0  0  0  0  0
   -5.6621   26.4005  -30.4555 H   0  0  0  0  0  0  0  0  0  0  0  0
   -6.7920   23.5957  -28.7403 H   0  0  0  0  0  0  0  0  0  0  0  0
   -8.0618   21.6839  -29.7333 H   0  0  0  0  0  0  0  0  0  0  0  0
   -8.0672   21.3623  -32.2110 H   0  0  0  0  0  0  0  0  0  0  0  0
   -6.8580   22.9300  -33.6040 H   0  0  0  0  0  0  0  0  0  0  0  0
   -5.6239   24.8175  -32.7270 H   0  0  0  0  0  0  0  0  0  0  0  0
   -1.8118   24.1674  -25.6171 H   0  0  0  0  0  0  0  0  0  0  0  0
   -0.8315   24.5373  -27.0762 H   0  0  0  0  0  0  0  0  0  0  0  0
   -2.5987   24.8592  -27.0762 H   0  0  0  0  0  0  0  0  0  0  0  0
   -2.2342   19.2548  -25.6700 H   0  0  0  0  0  0  0  0  0  0  0  0
   -3.1468   18.7708  -27.1396 H   0  0  0  0  0  0  0  0  0  0  0  0
   -1.3512   18.7186  -27.1396 H   0  0  0  0  0  0  0  0  0  0  0  0
  1  2  1  0
  2  3  2  0
  3  4  1  0
  4  5  1  0
  5  6  2  0
  5  7  1  0
  7  8  1  0
  8  9  1  0
  9 10  2  0
 10 11  1  0
 11 12  2  0
 12 13  1  0
 13 14  2  0
  4 15  2  0
 15 16  1  0
 16 17  1  0
 16 18  2  0
 18 19  1  0
 19 20  1  0
 19 21  1  0
 21 22  2  0
 22  2  1  0
 14  9  1  0
 21 15  1  0
  1 23  1  0
  1 24  1  0
  1 25  1  0
  3 26  1  0
  8 27  1  0
  8 28  1  0
 10 29  1  0
 11 30  1  0
 12 31  1  0
 13 32  1  0
 14 33  1  0
 17 34  1  0
 17 35  1  0
 17 36  1  0
 20 37  1  0
 20 38  1  0
 20 39  1  0
M  CHG  2   7  -1  13   1
M  END
>  <UniqueID>  (8) 
8

>  <SMILES>  (8) 
Cc1cc(C(=O)[N-]Cc2ccc[nH+]c2)c2c(C)nn(C)c2n1

>  <Energy>  (8) 
79.83891150703442

>  <Genealogy>  (8) 
Cc1cc(C(=O)[N-]Cc2ccc[nH+]c2)c2c(C)nn(C)c2n1 (protonated)
Cc1cc(C(=O)[N-]Cc2ccc[nH+]c2)c2c(C)nn(C)c2n1 (3D coordinates assigned)
Cc1cc(C(=O)[N-]Cc2ccc[nH+]c2)c2c(C)nn(C)c2n1 (optimized conformer: 79.83891150703442 kcal/mol)

>  <smiles>  (8) 
Cc1cc(C(=O)NCc2cccnc2)c2c(C)nn(C)c2n1

>  <score_type>  (8) 
oracle

>  <origin>  (8) 
adg

>  <m_score__min__energy>  (8) 
-8.9800000000000004

>  <m_primary>  (8) 
energy

$$$$
8:0
     RDKit          3D

 86 90  0  0  0  0  0  0  0  0999 V2000
   -5.9390   25.1330  -29.7680 C   0  0  0  0  0  0  0  0  0  0  0  0
   -4.6440   24.3380  -29.9960 C   0  0  0  0  0  0  0  0  0  0  0  0
   -4.8060   22.9040  -29.6870 N   0  0  0  0  0  0  0  0  0  0  0  0
   -3.9250   22.0340  -30.4880 C   0  0  0  0  0  0  0  0  0  0  0  0
   -3.5160   22.6740  -31.8240 C   0  0  0  0  0  0  0  0  0  0  0  0
   -4.3910   22.2440  -32.9150 N   0  0  0  0  0  0  0  0  0  0  0  0
   -5.3530   21.2040  -32.6880 C   0  0  0  0  0  0  0  0  0  0  0  0
   -6.6650   21.5270  -32.3120 C   0  0  0  0  0  0  0  0  0  0  0  0
   -7.0300   22.8660  -32.0570 C   0  0  0  0  0  0  0  0  0  0  0  0
   -8.3240   23.1790  -31.6490 C   0  0  0  0  0  0  0  0  0  0  0  0
   -9.2640   22.1680  -31.4720 C   0  0  0  0  0  0  0  0  0  0  0  0
   -8.9260   20.8410  -31.7290 C   0  0  0  0  0  0  0  0  0  0  0  0
   -7.6300   20.4920  -32.1900 C   0  0  0  0  0  0  0  0  0  0  0  0
   -7.2960   19.1890  -32.5120 N   0  0  0  0  0  0  0  0  0  0  0  0
   -8.3570   18.1750  -32.6900 C   0  0  0  0  0  0  0  0  0  0  0  0
   -5.9700   18.8440  -32.7010 C   0  0  0  0  0  0  0  0  0  0  0  0
   -5.5510   17.4930  -32.7660 C   0  0  0  0  0  0  0  0  0  0  0  0
   -4.2170   17.1620  -32.9930 C   0  0  0  0  0  0  0  0  0  0  0  0
   -3.2530   18.1550  -33.1480 C   0  0  0  0  0  0  0  0  0  0  0  0
   -1.9290   17.7640  -33.3930 O   0  0  0  0  0  0  0  0  0  0  0  0
   -1.1840   18.1070  -34.5550 C   0  0  0  0  0  0  0  0  0  0  0  0
   -0.8090   19.6100  -34.5840 C   0  0  0  0  0  0  0  0  0  0  0  0
    0.1600   20.1180  -33.5490 N   0  0  1  0  0  0  0  0  0  0  0  0
    0.9410   21.2620  -34.0970 C   0  0  0  0  0  0  0  0  0  0  0  0
   -0.5300   20.5750  -32.2990 C   0  0  0  0  0  0  0  0  0  0  0  0
   -0.7920   19.4170  -31.3160 C   0  0  0  0  0  0  0  0  0  0  0  0
    0.4760   18.7880  -30.8150 N   0  0  2  0  0  0  0  0  0  0  0  0
    0.2340   17.3270  -30.6640 C   0  0  0  0  0  0  0  0  0  0  0  0
    0.8480   19.2970  -29.4510 C   0  0  0  0  0  0  0  0  0  0  0  0
   -0.3060   19.4980  -28.4810 C   0  0  0  0  0  0  0  0  0  0  0  0
   -0.9450   20.7490  -28.3820 C   0  0  0  0  0  0  0  0  0  0  0  0
   -2.0140   20.9330  -27.5000 C   0  0  0  0  0  0  0  0  0  0  0  0
   -2.4380   19.8810  -26.6830 C   0  0  0  0  0  0  0  0  0  0  0  0
   -1.7810   18.6500  -26.7360 C   0  0  0  0  0  0  0  0  0  0  0  0
   -0.7130   18.4600  -27.6190 C   0  0  0  0  0  0  0  0  0  0  0  0
    1.6060   18.9780  -31.7850 C   0  0  0  0  0  0  0  0  0  0  0  0
    1.1260   18.9960  -33.2530 C   0  0  0  0  0  0  0  0  0  0  0  0
   -3.6370   19.5010  -33.0500 C   0  0  0  0  0  0  0  0  0  0  0  0
   -4.9820   19.8560  -32.8170 C   0  0  0  0  0  0  0  0  0  0  0  0
   -6.1169   25.2422  -28.6880 H   0  0  0  0  0  0  0  0  0  0  0  0
   -5.8437   26.1284  -30.2264 H   0  0  0  0  0  0  0  0  0  0  0  0
   -6.7835   24.5975  -30.2264 H   0  0  0  0  0  0  0  0  0  0  0  0
   -4.3462   24.4414  -31.0499 H   0  0  0  0  0  0  0  0  0  0  0  0
   -3.8765   24.7435  -29.3203 H   0  0  0  0  0  0  0  0  0  0  0  0
   -4.6070   22.7430  -28.6730 H   0  0  0  0  0  0  0  0  0  0  0  0
   -5.8080   22.6370  -29.8430 H   0  0  0  0  0  0  0  0  0  0  0  0
   -3.0158   21.8223  -29.9061 H   0  0  0  0  0  0  0  0  0  0  0  0
   -4.4843   21.1149  -30.7170 H   0  0  0  0  0  0  0  0  0  0  0  0
   -3.5748   23.7683  -31.7289 H   0  0  0  0  0  0  0  0  0  0  0  0
   -2.4896   22.3558  -32.0591 H   0  0  0  0  0  0  0  0  0  0  0  0
   -4.3420   22.6830  -33.8600 H   0  0  0  0  0  0  0  0  0  0  0  0
   -6.2873   23.6679  -32.1814 H   0  0  0  0  0  0  0  0  0  0  0  0
   -8.6038   24.2270  -31.4663 H   0  0  0  0  0  0  0  0  0  0  0  0
  -10.2784   22.4178  -31.1276 H   0  0  0  0  0  0  0  0  0  0  0  0
   -9.6756   20.0514  -31.5721 H   0  0  0  0  0  0  0  0  0  0  0  0
   -8.7104   17.8372  -31.7046 H   0  0  0  0  0  0  0  0  0  0  0  0
   -9.1956   18.6159  -33.2489 H   0  0  0  0  0  0  0  0  0  0  0  0
   -7.9545   17.3173  -33.2489 H   0  0  0  0  0  0  0  0  0  0  0  0
   -6.2920   16.6906  -32.6349 H   0  0  0  0  0  0  0  0  0  0  0  0
   -3.9216   16.1040  -33.0505 H   0  0  0  0  0  0  0  0  0  0  0  0
   -0.2600   17.5104  -34.5729 H   0  0  0  0  0  0  0  0  0  0  0  0
   -1.8114   17.8973  -35.4339 H   0  0  0  0  0  0  0  0  0  0  0  0
   -0.3718   19.8189  -35.5715 H   0  0  0  0  0  0  0  0  0  0  0  0
   -1.7505   20.1320  -34.3579 H   0  0  0  0  0  0  0  0  0  0  0  0
    1.3484   21.8587  -33.2675 H   0  0  0  0  0  0  0  0  0  0  0  0
    1.7675   20.8796  -34.7141 H   0  0  0  0  0  0  0  0  0  0  0  0
    0.2839   21.8924  -34.7141 H   0  0  0  0  0  0  0  0  0  0  0  0
   -1.4930   21.0303  -32.5733 H   0  0  0  0  0  0  0  0  0  0  0  0
    0.1293   21.2985  -31.7971 H   0  0  0  0  0  0  0  0  0  0  0  0
   -1.3885   18.6478  -31.8284 H   0  0  0  0  0  0  0  0  0  0  0  0
   -1.3248   19.8310  -30.4473 H   0  0  0  0  0  0  0  0  0  0  0  0
    0.1916   17.0709  -29.5951 H   0  0  0  0  0  0  0  0  0  0  0  0
   -0.7203   17.0620  -31.1427 H   0  0  0  0  0  0  0  0  0  0  0  0
    1.0519   16.7685  -31.1427 H   0  0  0  0  0  0  0  0  0  0  0  0
    1.5456   18.5756  -29.0005 H   0  0  0  0  0  0  0  0  0  0  0  0
    1.2791   20.2960  -29.6128 H   0  0  0  0  0  0  0  0  0  0  0  0
   -0.6002   21.5883  -29.0038 H   0  0  0  0  0  0  0  0  0  0  0  0
   -2.5223   21.9072  -27.4489 H   0  0  0  0  0  0  0  0  0  0  0  0
   -3.2880   20.0227  -25.9993 H   0  0  0  0  0  0  0  0  0  0  0  0
   -2.1043   17.8272  -26.0814 H   0  0  0  0  0  0  0  0  0  0  0  0
   -0.1873   17.4940  -27.6407 H   0  0  0  0  0  0  0  0  0  0  0  0
    2.3229   18.1534  -31.6580 H   0  0  0  0  0  0  0  0  0  0  0  0
    2.0700   19.9524  -31.5722 H   0  0  0  0  0  0  0  0  0  0  0  0
    0.6279   18.0395  -33.4697 H   0  0  0  0  0  0  0  0  0  0  0  0
    2.0126   19.1526  -33.8850 H   0  0  0  0  0  0  0  0  0  0  0  0
   -2.8784   20.2904  -33.1564 H   0  0  0  0  0  0  0  0  0  0  0  0
  1  2  1  0
  2  3  1  0
  3  4  1  0
  4  5  1  0
  5  6  1  0
  6  7  1  0
  7  8  2  0
  8  9  1  0
  9 10  2  0
 10 11  1  0
 11 12  2  0
 12 13  1  0
 13 14  2  0
 14 15  1  0
 14 16  1  0
 16 17  2  0
 17 18  1  0
 18 19  2  0
 19 20  1  0
 20 21  1  0
 21 22  1  0
 23 22  1  6
 23 24  1  0
 23 25  1  0
 25 26  1  0
 26 27  1  0
 27 28  1  1
 27 29  1  0
 29 30  1  0
 30 31  2  0
 31 32  1  0
 32 33  2  0
 33 34  1  0
 34 35  2  0
 27 36  1  0
 36 37  1  0
 19 38  1  0
 38 39  2  0
 39  7  1  0
 13  8  1  0
 39 16  1  0
 37 23  1  0
 35 30  1  0
  1 40  1  0
  1 41  1  0
  1 42  1  0
  2 43  1  0
  2 44  1  0
  3 45  1  0
  3 46  1  0
  4 47  1  0
  4 48  1  0
  5 49  1  0
  5 50  1  0
  6 51  1  0
  9 52  1  0
 10 53  1  0
 11 54  1  0
 12 55  1  0
 15 56  1  0
 15 57  1  0
 15 58  1  0
 17 59  1  0
 18 60  1  0
 21 61  1  0
 21 62  1  0
 22 63  1  0
 22 64  1  0
 24 65  1  0
 24 66  1  0
 24 67  1  0
 25 68  1  0
 25 69  1  0
 26 70  1  0
 26 71  1  0
 28 72  1  0
 28 73  1  0
 28 74  1  0
 29 75  1  0
 29 76  1  0
 31 77  1  0
 32 78  1  0
 33 79  1  0
 34 80  1  0
 35 81  1  0
 36 82  1  0
 36 83  1  0
 37 84  1  0
 37 85  1  0
 38 86  1  0
M  CHG  4   3   1  14   1  23   1  27   1
M  END
>  <UniqueID>  (9) 
9

>  <SMILES>  (9) 
CC[NH2+]CCNc1c2ccccc2[n+](C)c2ccc(OCC[N+]3(C)CC[N+](C)(Cc4ccccc4)CC3)cc12

>  <Energy>  (9) 
149.425086820554

>  <Genealogy>  (9) 
CC[NH2+]CCNc1c2ccccc2[n+](C)c2ccc(OCC[N+]3(C)CC[N+](C)(Cc4ccccc4)CC3)cc12 (protonated)
CC[NH2+]CCNc1c2ccccc2[n+](C)c2ccc(OCC[N+]3(C)CC[N+](C)(Cc4ccccc4)CC3)cc12 (3D coordinates assigned)
CC[NH2+]CCNc1c2ccccc2[n+](C)c2ccc(OCC[N+]3(C)CC[N+](C)(Cc4ccccc4)CC3)cc12 (nonaromatic ring conformer: 149.425086820554 kcal/mol)

>  <smiles>  (9) 
CCNCCNc1c2ccccc2[n+](C)c2ccc(OCC[N+]3(C)CC[N+](C)(Cc4ccccc4)CC3)cc12

>  <score_type>  (9) 
oracle

>  <origin>  (9) 
adg

>  <m_score__min__energy>  (9) 
-8.1799999999999997

>  <m_primary>  (9) 
energy

$$$$
9:0
     RDKit          3D

 41 44  0  0  0  0  0  0  0  0999 V2000
   -3.4720   24.5450  -27.5900 C   0  0  0  0  0  0  0  0  0  0  0  0
   -3.5550   24.6470  -29.0560 N   0  0  0  0  0  0  0  0  0  0  0  0
   -4.9570   24.4750  -29.5120 C   0  0  0  0  0  0  0  0  0  0  0  0
   -5.0390   23.9610  -30.9510 C   0  0  0  0  0  0  0  0  0  0  0  0
   -4.3490   22.6680  -31.0430 N   0  0  0  0  0  0  0  0  0  0  0  0
   -4.9390   21.5620  -31.7500 C   0  0  0  0  0  0  0  0  0  0  0  0
   -4.1520   20.7490  -32.5100 N   0  0  0  0  0  0  0  0  0  0  0  0
   -4.6430   19.6720  -33.1920 C   0  0  0  0  0  0  0  0  0  0  0  0
   -3.7650   18.8830  -33.9430 C   0  0  0  0  0  0  0  0  0  0  0  0
   -4.2400   17.7740  -34.6430 C   0  0  0  0  0  0  0  0  0  0  0  0
   -5.5940   17.4430  -34.5940 C   0  0  0  0  0  0  0  0  0  0  0  0
   -6.4880   18.2190  -33.8500 C   0  0  0  0  0  0  0  0  0  0  0  0
   -6.0310   19.3480  -33.1400 C   0  0  0  0  0  0  0  0  0  0  0  0
   -6.8490   20.2050  -32.3660 C   0  0  0  0  0  0  0  0  0  0  0  0
   -6.3080   21.2780  -31.6970 C   0  0  0  0  0  0  0  0  0  0  0  0
   -7.2820   21.9760  -31.0880 N   0  0  0  0  0  0  0  0  0  0  0  0
   -8.4160   21.3060  -31.3820 C   0  0  0  0  0  0  0  0  0  0  0  0
   -8.1910   20.2200  -32.1590 N   0  0  0  0  0  0  0  0  0  0  0  0
   -9.2390   19.3320  -32.6550 C   0  0  0  0  0  0  0  0  0  0  0  0
   -3.1820   22.4250  -30.1880 C   0  0  0  0  0  0  0  0  0  0  0  0
   -2.5690   23.7540  -29.7170 C   0  0  0  0  0  0  0  0  0  0  0  0
   -4.1033   25.3208  -27.1321 H   0  0  0  0  0  0  0  0  0  0  0  0
   -3.8220   23.5521  -27.2711 H   0  0  0  0  0  0  0  0  0  0  0  0
   -2.4287   24.6859  -27.2711 H   0  0  0  0  0  0  0  0  0  0  0  0
   -5.4589   23.7544  -28.8495 H   0  0  0  0  0  0  0  0  0  0  0  0
   -5.4461   25.4597  -29.4772 H   0  0  0  0  0  0  0  0  0  0  0  0
   -6.0937   23.8362  -31.2373 H   0  0  0  0  0  0  0  0  0  0  0  0
   -4.5610   24.6835  -31.6289 H   0  0  0  0  0  0  0  0  0  0  0  0
   -2.6957   19.1383  -33.9816 H   0  0  0  0  0  0  0  0  0  0  0  0
   -3.5456   17.1594  -35.2347 H   0  0  0  0  0  0  0  0  0  0  0  0
   -5.9614   16.5647  -35.1449 H   0  0  0  0  0  0  0  0  0  0  0  0
   -7.5534   17.9472  -33.8185 H   0  0  0  0  0  0  0  0  0  0  0  0
   -7.2090   22.8600  -30.5420 H   0  0  0  0  0  0  0  0  0  0  0  0
   -9.4130   21.6087  -31.0294 H   0  0  0  0  0  0  0  0  0  0  0  0
   -9.7708   18.8814  -31.8041 H   0  0  0  0  0  0  0  0  0  0  0  0
   -9.9484   19.9081  -33.2673 H   0  0  0  0  0  0  0  0  0  0  0  0
   -8.7871   18.5377  -33.2673 H   0  0  0  0  0  0  0  0  0  0  0  0
   -3.4928   21.8393  -29.3103 H   0  0  0  0  0  0  0  0  0  0  0  0
   -2.4275   21.8724  -30.7671 H   0  0  0  0  0  0  0  0  0  0  0  0
   -1.7618   23.5339  -29.0029 H   0  0  0  0  0  0  0  0  0  0  0  0
   -2.1968   24.2787  -30.6093 H   0  0  0  0  0  0  0  0  0  0  0  0
  1  2  1  0
  2  3  1  0
  3  4  1  0
  4  5  1  0
  5  6  1  0
  6  7  2  0
  7  8  1  0
  8  9  2  0
  9 10  1  0
 10 11  2  0
 11 12  1  0
 12 13  2  0
 13 14  1  0
 14 15  2  0
 15 16  1  0
 16 17  2  0
 17 18  1  0
 18 19  1  0
  5 20  1  0
 20 21  1  0
 21  2  1  0
 15  6  1  0
 13  8  1  0
 18 14  1  0
  1 22  1  0
  1 23  1  0
  1 24  1  0
  3 25  1  0
  3 26  1  0
  4 27  1  0
  4 28  1  0
  9 29  1  0
 10 30  1  0
 11 31  1  0
 12 32  1  0
 16 33  1  0
 17 34  1  0
 19 35  1  0
 19 36  1  0
 19 37  1  0
 20 38  1  0
 20 39  1  0
 21 40  1  0
 21 41  1  0
M  CHG  1  16   1
M  END
>  <UniqueID>  (10) 
10

>  <SMILES>  (10) 
CN1CCN(c2nc3ccccc3c3c2[nH+]cn3C)CC1

>  <Energy>  (10) 
100.82533236985974

>  <Genealogy>  (10) 
CN1CCN(c2nc3ccccc3c3c2[nH+]cn3C)CC1 (protonated)
CN1CCN(c2nc3ccccc3c3c2[nH+]cn3C)CC1 (3D coordinates assigned)
CN1CCN(c2nc3ccccc3c3c2[nH+]cn3C)CC1 (nonaromatic ring conformer: 100.82533236985974 kcal/mol)

>  <smiles>  (10) 
CN1CCN(c2nc3ccccc3c3c2ncn3C)CC1

>  <score_type>  (10) 
oracle

>  <origin>  (10) 
adg

>  <m_score__min__energy>  (10) 
-6.9100000000000001

>  <m_primary>  (10) 
energy

$$$$
10:0
     RDKit          3D

 48 51  0  0  0  0  0  0  0  0999 V2000
   -3.8810   23.3470  -29.0170 C   0  0  0  0  0  0  0  0  0  0  0  0
   -4.2430   22.8420  -30.3400 N   0  0  0  0  0  0  0  0  0  0  0  0
   -5.4490   22.8800  -30.9660 C   0  0  0  0  0  0  0  0  0  0  0  0
   -6.9610   23.5070  -30.2240 S   0  0  0  0  0  0  0  0  0  0  0  0
   -8.0030   23.1040  -31.6700 C   0  0  0  0  0  0  0  0  0  0  0  0
   -8.9210   21.9170  -31.3660 C   0  0  0  0  0  0  0  0  0  0  0  0
   -8.7810   20.7290  -32.3470 C   0  0  0  0  0  0  0  0  0  0  0  0
   -7.4610   20.0310  -32.3990 N   0  0  2  0  0  0  0  0  0  0  0  0
   -6.8550   19.9340  -33.7640 C   0  0  0  0  0  0  0  0  0  0  0  0
   -5.6480   18.9480  -33.8440 C   0  0  2  0  0  0  0  0  0  0  0  0
   -6.1160   17.5550  -34.2860 C   0  0  0  0  0  0  0  0  0  0  0  0
   -6.5410   16.8540  -32.9950 C   0  0  0  0  0  0  0  0  0  0  0  0
   -6.2280   17.8560  -31.8740 C   0  0  1  0  0  0  0  0  0  0  0  0
   -5.0950   18.6830  -32.4550 C   0  0  0  0  0  0  0  0  0  0  0  0
   -7.4520   18.7760  -31.5900 C   0  0  0  0  0  0  0  0  0  0  0  0
   -5.4260   22.3500  -32.2170 N   0  0  0  0  0  0  0  0  0  0  0  0
   -4.1450   21.9620  -32.3560 C   0  0  0  0  0  0  0  0  0  0  0  0
   -3.5660   21.3290  -33.4530 C   0  0  0  0  0  0  0  0  0  0  0  0
   -2.2000   20.9990  -33.3700 C   0  0  0  0  0  0  0  0  0  0  0  0
   -1.4580   21.3040  -32.2070 C   0  0  0  0  0  0  0  0  0  0  0  0
   -2.0750   21.9430  -31.1150 C   0  0  0  0  0  0  0  0  0  0  0  0
   -3.4310   22.2540  -31.2310 C   0  0  0  0  0  0  0  0  0  0  0  0
   -4.3371   22.7107  -28.2442 H   0  0  0  0  0  0  0  0  0  0  0  0
   -2.7868   23.3319  -28.9055 H   0  0  0  0  0  0  0  0  0  0  0  0
   -4.2467   24.3784  -28.9055 H   0  0  0  0  0  0  0  0  0  0  0  0
   -8.6182   23.9792  -31.9261 H   0  0  0  0  0  0  0  0  0  0  0  0
   -7.3481   22.8361  -32.5122 H   0  0  0  0  0  0  0  0  0  0  0  0
   -8.6903   21.5550  -30.3532 H   0  0  0  0  0  0  0  0  0  0  0  0
   -9.9524   22.2858  -31.4669 H   0  0  0  0  0  0  0  0  0  0  0  0
   -9.5387   19.9813  -32.0697 H   0  0  0  0  0  0  0  0  0  0  0  0
   -8.9032   21.1735  -33.3457 H   0  0  0  0  0  0  0  0  0  0  0  0
   -6.8260   20.6810  -31.8750 H   0  0  0  0  0  0  0  0  0  0  0  0
   -7.6305   19.5918  -34.4651 H   0  0  0  0  0  0  0  0  0  0  0  0
   -6.4721   20.9334  -34.0183 H   0  0  0  0  0  0  0  0  0  0  0  0
   -4.9226   19.4056  -34.5327 H   0  0  0  0  0  0  0  0  0  0  0  0
   -6.9652   17.6345  -34.9807 H   0  0  0  0  0  0  0  0  0  0  0  0
   -5.3267   17.0023  -34.8165 H   0  0  0  0  0  0  0  0  0  0  0  0
   -7.6162   16.6227  -33.0171 H   0  0  0  0  0  0  0  0  0  0  0  0
   -6.0150   15.8985  -32.8524 H   0  0  0  0  0  0  0  0  0  0  0  0
   -5.9790   17.3622  -30.9231 H   0  0  0  0  0  0  0  0  0  0  0  0
   -4.9400   19.6155  -31.8925 H   0  0  0  0  0  0  0  0  0  0  0  0
   -4.1084   18.1970  -32.4339 H   0  0  0  0  0  0  0  0  0  0  0  0
   -8.3695   18.2121  -31.8139 H   0  0  0  0  0  0  0  0  0  0  0  0
   -7.3903   19.0755  -30.5334 H   0  0  0  0  0  0  0  0  0  0  0  0
   -4.1549   21.0952  -34.3522 H   0  0  0  0  0  0  0  0  0  0  0  0
   -1.7066   20.4999  -34.2170 H   0  0  0  0  0  0  0  0  0  0  0  0
   -0.3913   21.0404  -32.1545 H   0  0  0  0  0  0  0  0  0  0  0  0
   -1.5096   22.1882  -30.2039 H   0  0  0  0  0  0  0  0  0  0  0  0
  1  2  1  0
  2  3  1  0
  3  4  1  0
  4  5  1  0
  5  6  1  0
  6  7  1  0
  7  8  1  0
  8  9  1  0
  9 10  1  0
 10 11  1  0
 11 12  1  0
 12 13  1  0
 13 14  1  0
 13 15  1  0
  3 16  2  0
 16 17  1  0
 17 18  2  0
 18 19  1  0
 19 20  2  0
 20 21  1  0
 21 22  2  0
 22  2  1  0
 15  8  1  0
 22 17  1  0
 14 10  1  0
  1 23  1  0
  1 24  1  0
  1 25  1  0
  5 26  1  0
  5 27  1  0
  6 28  1  0
  6 29  1  0
  7 30  1  0
  7 31  1  0
  8 32  1  1
  9 33  1  0
  9 34  1  0
 10 35  1  6
 11 36  1  0
 11 37  1  0
 12 38  1  0
 12 39  1  0
 13 40  1  1
 14 41  1  0
 14 42  1  0
 15 43  1  0
 15 44  1  0
 18 45  1  0
 19 46  1  0
 20 47  1  0
 21 48  1  0
M  CHG  1   8   1
M  END
>  <UniqueID>  (11) 
11

>  <SMILES>  (11) 
Cn1c(SCCC[NH+]2C[C@@H]3CC[C@@H](C3)C2)nc2ccccc21

>  <Energy>  (11) 
107.20727935749358

>  <Genealogy>  (11) 
Cn1c(SCCC[NH+]2CC3CCC(C3)C2)nc2ccccc21 (protonated)
Cn1c(SCCC[NH+]2C[C@@H]3CC[C@@H](C3)C2)nc2ccccc21 (chirality)
Cn1c(SCCC[NH+]2C[C@@H]3CC[C@@H](C3)C2)nc2ccccc21 (3D coordinates assigned)
Cn1c(SCCC[NH+]2C[C@@H]3CC[C@@H](C3)C2)nc2ccccc21 (nonaromatic ring conformer: 107.20727935749358 kcal/mol)

>  <smiles>  (11) 
Cn1c(SCCCN2CC3CCC(C3)C2)nc2ccccc21

>  <score_type>  (11) 
oracle

>  <origin>  (11) 
adg

>  <m_score__min__energy>  (11) 
-7.7199999999999998

>  <m_primary>  (11) 
energy

$$$$
11:0
     RDKit          3D

 47 49  0  0  0  0  0  0  0  0999 V2000
   -1.5240   22.0970  -30.0130 C   0  0  0  0  0  0  0  0  0  0  0  0
   -0.3740   21.5070  -30.8370 C   0  0  0  0  0  0  0  0  0  0  0  0
   -0.7720   20.2950  -31.5970 N   0  0  2  0  0  0  0  0  0  0  0  0
   -0.4770   19.0850  -30.8080 C   0  0  0  0  0  0  0  0  0  0  0  0
   -0.2010   20.2080  -32.9690 C   0  0  0  0  0  0  0  0  0  0  0  0
   -1.2330   20.3420  -34.1090 C   0  0  0  0  0  0  0  0  0  0  0  0
   -2.3600   21.1820  -33.6760 N   0  0  0  0  0  0  0  0  0  0  0  0
   -3.5650   20.3810  -33.4190 C   0  0  0  0  0  0  0  0  0  0  0  0
   -4.5880   21.2160  -32.6750 C   0  0  0  0  0  0  0  0  0  0  0  0
   -4.1550   22.4070  -32.0830 C   0  0  0  0  0  0  0  0  0  0  0  0
   -5.0360   23.2290  -31.3790 C   0  0  0  0  0  0  0  0  0  0  0  0
   -4.5510   24.4210  -30.8120 C   0  0  0  0  0  0  0  0  0  0  0  0
   -5.4040   25.2650  -30.1060 C   0  0  0  0  0  0  0  0  0  0  0  0
   -6.7470   24.9320  -29.9600 C   0  0  0  0  0  0  0  0  0  0  0  0
   -7.2460   23.7510  -30.5150 C   0  0  0  0  0  0  0  0  0  0  0  0
   -6.4020   22.8690  -31.2370 C   0  0  0  0  0  0  0  0  0  0  0  0
   -6.8620   21.6470  -31.8180 C   0  0  0  0  0  0  0  0  0  0  0  0
   -8.2080   21.2140  -31.7050 C   0  0  0  0  0  0  0  0  0  0  0  0
   -8.6290   20.0130  -32.2720 C   0  0  0  0  0  0  0  0  0  0  0  0
   -7.7300   19.2100  -32.9610 C   0  0  0  0  0  0  0  0  0  0  0  0
   -6.4020   19.6020  -33.0930 C   0  0  0  0  0  0  0  0  0  0  0  0
   -5.9430   20.8170  -32.5350 C   0  0  0  0  0  0  0  0  0  0  0  0
   -1.3031   21.9836  -28.9414 H   0  0  0  0  0  0  0  0  0  0  0  0
   -1.6371   23.1645  -30.2531 H   0  0  0  0  0  0  0  0  0  0  0  0
   -2.4571   21.5663  -30.2531 H   0  0  0  0  0  0  0  0  0  0  0  0
   -0.0250   22.2693  -31.5491 H   0  0  0  0  0  0  0  0  0  0  0  0
    0.4187   21.2111  -30.1341 H   0  0  0  0  0  0  0  0  0  0  0  0
   -1.8140   20.3240  -31.7080 H   0  0  0  0  0  0  0  0  0  0  0  0
   -0.5351   19.3233  -29.7357 H   0  0  0  0  0  0  0  0  0  0  0  0
   -1.2105   18.3017  -31.0498 H   0  0  0  0  0  0  0  0  0  0  0  0
    0.5347   18.7272  -31.0498 H   0  0  0  0  0  0  0  0  0  0  0  0
    0.5408   21.0122  -33.0826 H   0  0  0  0  0  0  0  0  0  0  0  0
    0.2329   19.2014  -33.0607 H   0  0  0  0  0  0  0  0  0  0  0  0
   -0.7508   20.8031  -34.9836 H   0  0  0  0  0  0  0  0  0  0  0  0
   -1.6098   19.3426  -34.3721 H   0  0  0  0  0  0  0  0  0  0  0  0
   -2.5860   21.8430  -34.4570 H   0  0  0  0  0  0  0  0  0  0  0  0
   -3.9925   20.0472  -34.3760 H   0  0  0  0  0  0  0  0  0  0  0  0
   -3.2963   19.5068  -32.8079 H   0  0  0  0  0  0  0  0  0  0  0  0
   -3.0991   22.7015  -32.1742 H   0  0  0  0  0  0  0  0  0  0  0  0
   -3.4902   24.6884  -30.9271 H   0  0  0  0  0  0  0  0  0  0  0  0
   -5.0164   26.1946  -29.6638 H   0  0  0  0  0  0  0  0  0  0  0  0
   -7.4195   25.6022  -29.4046 H   0  0  0  0  0  0  0  0  0  0  0  0
   -8.3100   23.5013  -30.3901 H   0  0  0  0  0  0  0  0  0  0  0  0
   -8.9322   21.8374  -31.1601 H   0  0  0  0  0  0  0  0  0  0  0  0
   -9.6787   19.6994  -32.1733 H   0  0  0  0  0  0  0  0  0  0  0  0
   -8.0688   18.2616  -33.4035 H   0  0  0  0  0  0  0  0  0  0  0  0
   -5.6985   18.9569  -33.6397 H   0  0  0  0  0  0  0  0  0  0  0  0
  1  2  1  0
  2  3  1  0
  3  4  1  0
  3  5  1  0
  5  6  1  0
  6  7  1  0
  7  8  1  0
  8  9  1  0
  9 10  2  0
 10 11  1  0
 11 12  2  0
 12 13  1  0
 13 14  2  0
 14 15  1  0
 15 16  2  0
 16 17  1  0
 17 18  2  0
 18 19  1  0
 19 20  2  0
 20 21  1  0
 21 22  2  0
 22  9  1  0
 16 11  1  0
 22 17  1  0
  1 23  1  0
  1 24  1  0
  1 25  1  0
  2 26  1  0
  2 27  1  0
  3 28  1  6
  4 29  1  0
  4 30  1  0
  4 31  1  0
  5 32  1  0
  5 33  1  0
  6 34  1  0
  6 35  1  0
  7 36  1  0
  8 37  1  0
  8 38  1  0
 10 39  1  0
 12 40  1  0
 13 41  1  0
 14 42  1  0
 15 43  1  0
 18 44  1  0
 19 45  1  0
 20 46  1  0
 21 47  1  0
M  CHG  1   3   1
M  END
>  <UniqueID>  (12) 
12

>  <SMILES>  (12) 
CC[N@H+](C)CCNCc1cc2ccccc2c2ccccc12

>  <Energy>  (12) 
63.76295834033927

>  <Genealogy>  (12) 
CC[NH+](C)CCNCc1cc2ccccc2c2ccccc12 (protonated)
CC[N@H+](C)CCNCc1cc2ccccc2c2ccccc12 (chirality)
CC[N@H+](C)CCNCc1cc2ccccc2c2ccccc12 (3D coordinates assigned)
CC[N@H+](C)CCNCc1cc2ccccc2c2ccccc12 (optimized conformer: 63.76295834033927 kcal/mol)

>  <smiles>  (12) 
CCN(C)CCNCc1cc2ccccc2c2ccccc12

>  <score_type>  (12) 
oracle

>  <origin>  (12) 
adg

>  <m_score__min__energy>  (12) 
-7.5700000000000003

>  <m_primary>  (12) 
energy

$$$$
12:0
     RDKit          3D

 49 51  0  0  0  0  0  0  0  0999 V2000
   -3.5500   21.6660  -31.9400 C   0  0  0  0  0  0  0  0  0  0  0  0
   -3.2510   21.5480  -33.4390 C   0  0  0  0  0  0  0  0  0  0  0  0
   -2.2090   20.5320  -33.7370 N   0  0  1  0  0  0  0  0  0  0  0  0
   -0.8690   21.1530  -33.7890 C   0  0  0  0  0  0  0  0  0  0  0  0
   -2.2070   19.4530  -32.7180 C   0  0  0  0  0  0  0  0  0  0  0  0
   -1.6700   18.1140  -33.2560 C   0  0  0  0  0  0  0  0  0  0  0  0
   -1.4730   18.2280  -34.6500 O   0  0  0  0  0  0  0  0  0  0  0  0
   -1.4350   16.9520  -35.2620 C   0  0  0  0  0  0  0  0  0  0  0  0
   -2.6400   16.0920  -34.8560 C   0  0  0  0  0  0  0  0  0  0  0  0
   -3.8600   16.6450  -35.3580 O   0  0  0  0  0  0  0  0  0  0  0  0
   -4.8770   17.2120  -34.5720 C   0  0  0  0  0  0  0  0  0  0  0  0
   -5.8840   16.3710  -34.0850 C   0  0  0  0  0  0  0  0  0  0  0  0
   -6.9500   16.8870  -33.3440 C   0  0  0  0  0  0  0  0  0  0  0  0
   -7.0170   18.2640  -33.0670 C   0  0  0  0  0  0  0  0  0  0  0  0
   -8.0840   18.8340  -32.3490 C   0  0  0  0  0  0  0  0  0  0  0  0
   -9.0280   18.1090  -31.9280 O   0  0  0  0  0  0  0  0  0  0  0  0
   -8.0890   20.2190  -32.1130 C   0  0  0  0  0  0  0  0  0  0  0  0
   -9.1310   20.8550  -31.4090 C   0  0  0  0  0  0  0  0  0  0  0  0
   -9.0980   22.2370  -31.2070 C   0  0  0  0  0  0  0  0  0  0  0  0
   -8.0330   22.9960  -31.7010 C   0  0  0  0  0  0  0  0  0  0  0  0
   -6.9930   22.3760  -32.3980 C   0  0  0  0  0  0  0  0  0  0  0  0
   -7.0130   20.9930  -32.6060 C   0  0  0  0  0  0  0  0  0  0  0  0
   -6.0210   20.4170  -33.2760 O   0  0  0  0  0  0  0  0  0  0  0  0
   -5.9840   19.1120  -33.5260 C   0  0  0  0  0  0  0  0  0  0  0  0
   -4.9180   18.5840  -34.2600 C   0  0  0  0  0  0  0  0  0  0  0  0
   -2.6783   21.3220  -31.3640 H   0  0  0  0  0  0  0  0  0  0  0  0
   -3.7634   22.7158  -31.6902 H   0  0  0  0  0  0  0  0  0  0  0  0
   -4.4228   21.0449  -31.6902 H   0  0  0  0  0  0  0  0  0  0  0  0
   -4.1770   21.2662  -33.9615 H   0  0  0  0  0  0  0  0  0  0  0  0
   -2.8722   22.5227  -33.7802 H   0  0  0  0  0  0  0  0  0  0  0  0
   -2.3980   20.1050  -34.6760 H   0  0  0  0  0  0  0  0  0  0  0  0
   -0.5034   21.3224  -32.7655 H   0  0  0  0  0  0  0  0  0  0  0  0
   -0.1754   20.4845  -34.3201 H   0  0  0  0  0  0  0  0  0  0  0  0
   -0.9307   22.1143  -34.3201 H   0  0  0  0  0  0  0  0  0  0  0  0
   -1.5760   19.7695  -31.8744 H   0  0  0  0  0  0  0  0  0  0  0  0
   -3.2510   19.2885  -32.4130 H   0  0  0  0  0  0  0  0  0  0  0  0
   -0.7144   17.8756  -32.7661 H   0  0  0  0  0  0  0  0  0  0  0  0
   -2.3918   17.3110  -33.0457 H   0  0  0  0  0  0  0  0  0  0  0  0
   -1.4404   17.0802  -36.3545 H   0  0  0  0  0  0  0  0  0  0  0  0
   -0.5202   16.4393  -34.9300 H   0  0  0  0  0  0  0  0  0  0  0  0
   -2.5110   15.0781  -35.2627 H   0  0  0  0  0  0  0  0  0  0  0  0
   -2.6950   16.0640  -33.7577 H   0  0  0  0  0  0  0  0  0  0  0  0
   -5.8356   15.2910  -34.2880 H   0  0  0  0  0  0  0  0  0  0  0  0
   -7.7389   16.2144  -32.9763 H   0  0  0  0  0  0  0  0  0  0  0  0
   -9.9714   20.2626  -31.0180 H   0  0  0  0  0  0  0  0  0  0  0  0
   -9.9133   22.7299  -30.6571 H   0  0  0  0  0  0  0  0  0  0  0  0
   -8.0138   24.0841  -31.5405 H   0  0  0  0  0  0  0  0  0  0  0  0
   -6.1564   22.9769  -32.7841 H   0  0  0  0  0  0  0  0  0  0  0  0
   -4.1056   19.2451  -34.5961 H   0  0  0  0  0  0  0  0  0  0  0  0
  1  2  1  0
  2  3  1  0
  3  4  1  0
  3  5  1  0
  5  6  1  0
  6  7  1  0
  7  8  1  0
  8  9  1  0
  9 10  1  0
 10 11  1  0
 11 12  2  0
 12 13  1  0
 13 14  2  0
 14 15  1  0
 15 16  2  0
 15 17  1  0
 17 18  2  0
 18 19  1  0
 19 20  2  0
 20 21  1  0
 21 22  2  0
 22 23  1  0
 23 24  1  0
 24 25  2  0
 25 11  1  0
 24 14  1  0
 22 17  1  0
  1 26  1  0
  1 27  1  0
  1 28  1  0
  2 29  1  0
  2 30  1  0
  3 31  1  6
  4 32  1  0
  4 33  1  0
  4 34  1  0
  5 35  1  0
  5 36  1  0
  6 37  1  0
  6 38  1  0
  8 39  1  0
  8 40  1  0
  9 41  1  0
  9 42  1  0
 12 43  1  0
 13 44  1  0
 18 45  1  0
 19 46  1  0
 20 47  1  0
 21 48  1  0
 25 49  1  0
M  CHG  1   3   1
M  END
>  <UniqueID>  (13) 
13

>  <SMILES>  (13) 
CC[N@@H+](C)CCOCCOc1ccc2c(=O)c3ccccc3oc2c1

>  <Energy>  (13) 
58.30312461457367

>  <Genealogy>  (13) 
CC[NH+](C)CCOCCOc1ccc2c(=O)c3ccccc3oc2c1 (protonated)
CC[N@@H+](C)CCOCCOc1ccc2c(=O)c3ccccc3oc2c1 (chirality)
CC[N@@H+](C)CCOCCOc1ccc2c(=O)c3ccccc3oc2c1 (3D coordinates assigned)
CC[N@@H+](C)CCOCCOc1ccc2c(=O)c3ccccc3oc2c1 (optimized conformer: 58.30312461457367 kcal/mol)

>  <smiles>  (13) 
CCN(C)CCOCCOc1ccc2c(=O)c3ccccc3oc2c1

>  <score_type>  (13) 
oracle

>  <origin>  (13) 
adg

>  <m_score__min__energy>  (13) 
-8.4499999999999993

>  <m_primary>  (13) 
energy

$$$$
13:0
     RDKit          3D

 45 44  0  0  0  0  0  0  0  0999 V2000
    0.8730   21.9630  -35.7380 C   0  0  0  0  0  0  0  0  0  0  0  0
   -0.0610   20.7900  -35.4150 C   0  0  0  0  0  0  0  0  0  0  0  0
   -1.1980   21.1940  -34.5630 N   0  0  0  0  0  0  0  0  0  0  0  0
   -1.0600   20.7720  -33.1540 C   0  0  0  0  0  0  0  0  0  0  0  0
   -2.4120   20.6700  -32.4340 C   0  0  0  0  0  0  0  0  0  0  0  0
   -3.4580   20.8080  -33.3720 O   0  0  0  0  0  0  0  0  0  0  0  0
   -4.6490   21.1830  -32.7150 C   0  0  0  0  0  0  0  0  0  0  0  0
   -5.3660   19.9600  -32.0850 C   0  0  0  0  0  0  0  0  0  0  0  0
   -6.6810   19.5330  -32.6940 N   0  0  0  0  0  0  0  0  0  0  0  0
   -7.1840   18.2670  -32.0500 C   0  0  0  0  0  0  0  0  0  0  0  0
   -6.1320   17.4600  -31.2640 C   0  0  0  0  0  0  0  0  0  0  0  0
   -7.6340   20.6730  -32.4470 C   0  0  0  0  0  0  0  0  0  0  0  0
   -9.1190   20.2980  -32.3210 C   0  0  0  0  0  0  0  0  0  0  0  0
   -6.4800   19.3880  -34.1890 C   0  0  0  0  0  0  0  0  0  0  0  0
   -5.6840   18.1600  -34.6730 C   0  0  0  0  0  0  0  0  0  0  0  0
    1.2323   22.4143  -34.8014 H   0  0  0  0  0  0  0  0  0  0  0  0
    1.7309   21.5985  -36.3221 H   0  0  0  0  0  0  0  0  0  0  0  0
    0.3256   22.7174  -36.3221 H   0  0  0  0  0  0  0  0  0  0  0  0
   -0.4537   20.3811  -36.3577 H   0  0  0  0  0  0  0  0  0  0  0  0
    0.5224   20.0390  -34.8621 H   0  0  0  0  0  0  0  0  0  0  0  0
   -2.0820   20.7880  -34.9520 H   0  0  0  0  0  0  0  0  0  0  0  0
   -1.3030   22.2350  -34.6150 H   0  0  0  0  0  0  0  0  0  0  0  0
   -0.5713   19.7869  -33.1274 H   0  0  0  0  0  0  0  0  0  0  0  0
   -0.4621   21.5352  -32.6343 H   0  0  0  0  0  0  0  0  0  0  0  0
   -2.4906   19.6908  -31.9391 H   0  0  0  0  0  0  0  0  0  0  0  0
   -2.4872   21.4690  -31.6817 H   0  0  0  0  0  0  0  0  0  0  0  0
   -4.4059   21.9026  -31.9193 H   0  0  0  0  0  0  0  0  0  0  0  0
   -5.3245   21.6311  -33.4586 H   0  0  0  0  0  0  0  0  0  0  0  0
   -4.6783   19.1041  -32.1523 H   0  0  0  0  0  0  0  0  0  0  0  0
   -5.6206   20.2796  -31.0637 H   0  0  0  0  0  0  0  0  0  0  0  0
   -7.9921   18.5382  -31.3548 H   0  0  0  0  0  0  0  0  0  0  0  0
   -7.5093   17.6166  -32.8753 H   0  0  0  0  0  0  0  0  0  0  0  0
   -6.3014   17.5899  -30.1849 H   0  0  0  0  0  0  0  0  0  0  0  0
   -6.2186   16.3945  -31.5231 H   0  0  0  0  0  0  0  0  0  0  0  0
   -5.1253   17.8197  -31.5231 H   0  0  0  0  0  0  0  0  0  0  0  0
   -7.3317   21.1671  -31.5119 H   0  0  0  0  0  0  0  0  0  0  0  0
   -7.5658   21.3135  -33.3387 H   0  0  0  0  0  0  0  0  0  0  0  0
   -9.3909   20.2293  -31.2573 H   0  0  0  0  0  0  0  0  0  0  0  0
   -9.7344   21.0689  -32.8077 H   0  0  0  0  0  0  0  0  0  0  0  0
   -9.2946   19.3273  -32.8077 H   0  0  0  0  0  0  0  0  0  0  0  0
   -7.4755   19.3425  -34.6546 H   0  0  0  0  0  0  0  0  0  0  0  0
   -5.8705   20.2561  -34.4804 H   0  0  0  0  0  0  0  0  0  0  0  0
   -5.3175   17.5946  -33.8035 H   0  0  0  0  0  0  0  0  0  0  0  0
   -6.3369   17.5160  -35.2805 H   0  0  0  0  0  0  0  0  0  0  0  0
   -4.8296   18.4930  -35.2805 H   0  0  0  0  0  0  0  0  0  0  0  0
  1  2  1  0
  2  3  1  0
  3  4  1  0
  4  5  1  0
  5  6  1  0
  6  7  1  0
  7  8  1  0
  8  9  1  0
  9 10  1  0
 10 11  1  0
  9 12  1  0
 12 13  1  0
  9 14  1  0
 14 15  1  0
  1 16  1  0
  1 17  1  0
  1 18  1  0
  2 19  1  0
  2 20  1  0
  3 21  1  0
  3 22  1  0
  4 23  1  0
  4 24  1  0
  5 25  1  0
  5 26  1  0
  7 27  1  0
  7 28  1  0
  8 29  1  0
  8 30  1  0
 10 31  1  0
 10 32  1  0
 11 33  1  0
 11 34  1  0
 11 35  1  0
 12 36  1  0
 12 37  1  0
 13 38  1  0
 13 39  1  0
 13 40  1  0
 14 41  1  0
 14 42  1  0
 15 43  1  0
 15 44  1  0
 15 45  1  0
M  CHG  2   3   1   9   1
M  END
>  <UniqueID>  (14) 
14

>  <SMILES>  (14) 
CC[NH2+]CCOCC[N+](CC)(CC)CC

>  <Energy>  (14) 
62.310289390216234

>  <Genealogy>  (14) 
CC[NH2+]CCOCC[N+](CC)(CC)CC (protonated)
CC[NH2+]CCOCC[N+](CC)(CC)CC (3D coordinates assigned)
CC[NH2+]CCOCC[N+](CC)(CC)CC (optimized conformer: 62.310289390216234 kcal/mol)

>  <smiles>  (14) 
CCNCCOCC[N+](CC)(CC)CC

>  <score_type>  (14) 
oracle

>  <origin>  (14) 
adg

>  <m_score__min__energy>  (14) 
-3.1499999999999999

>  <m_primary>  (14) 
energy

$$$$
14:0
     RDKit          3D

 34 35  0  0  0  0  0  0  0  0999 V2000
   -3.0890   24.4830  -28.2860 C   0  0  0  0  0  0  0  0  0  0  0  0
   -4.0440   23.9940  -29.7080 S   0  0  0  0  0  0  0  0  0  0  0  0
   -3.5340   22.6700  -30.2030 O   0  0  0  0  0  0  0  0  0  0  0  0
   -3.8800   25.0180  -30.7970 O   0  0  0  0  0  0  0  0  0  0  0  0
   -5.7250   23.8320  -29.2980 N   0  0  0  0  0  0  0  0  0  0  0  0
   -6.5320   24.7550  -30.1020 C   0  0  0  0  0  0  0  0  0  0  0  0
   -6.7750   24.1740  -31.4990 C   0  0  0  0  0  0  0  0  0  0  0  0
   -5.8420   23.0850  -31.8020 N   0  0  0  0  0  0  0  0  0  0  0  0
   -6.2650   21.7300  -32.0490 C   0  0  0  0  0  0  0  0  0  0  0  0
   -7.4500   21.2650  -31.4590 C   0  0  0  0  0  0  0  0  0  0  0  0
   -7.8930   19.9580  -31.6750 C   0  0  0  0  0  0  0  0  0  0  0  0
   -7.1560   19.0900  -32.4900 C   0  0  0  0  0  0  0  0  0  0  0  0
   -7.5930   17.7740  -32.7140 C   0  0  0  0  0  0  0  0  0  0  0  0
   -6.8480   16.9180  -33.5310 C   0  0  0  0  0  0  0  0  0  0  0  0
   -5.6660   17.3650  -34.1270 C   0  0  0  0  0  0  0  0  0  0  0  0
   -5.2210   18.6730  -33.9110 C   0  0  0  0  0  0  0  0  0  0  0  0
   -5.9590   19.5440  -33.0940 C   0  0  0  0  0  0  0  0  0  0  0  0
   -5.5220   20.8590  -32.8710 C   0  0  0  0  0  0  0  0  0  0  0  0
   -3.6293   24.2063  -27.3687 H   0  0  0  0  0  0  0  0  0  0  0  0
   -2.1146   23.9729  -28.3056 H   0  0  0  0  0  0  0  0  0  0  0  0
   -2.9333   25.5718  -28.3056 H   0  0  0  0  0  0  0  0  0  0  0  0
   -5.8140   24.1020  -28.2910 H   0  0  0  0  0  0  0  0  0  0  0  0
   -7.4992   24.9187  -29.6043 H   0  0  0  0  0  0  0  0  0  0  0  0
   -5.9918   25.7081  -30.2009 H   0  0  0  0  0  0  0  0  0  0  0  0
   -7.8035   23.7872  -31.5505 H   0  0  0  0  0  0  0  0  0  0  0  0
   -6.6184   24.9753  -32.2361 H   0  0  0  0  0  0  0  0  0  0  0  0
   -4.8170   23.2890  -31.8280 H   0  0  0  0  0  0  0  0  0  0  0  0
   -8.0378   21.9385  -30.8180 H   0  0  0  0  0  0  0  0  0  0  0  0
   -8.8237   19.6095  -31.2034 H   0  0  0  0  0  0  0  0  0  0  0  0
   -8.5222   17.4165  -32.2463 H   0  0  0  0  0  0  0  0  0  0  0  0
   -7.1939   15.8884  -33.7052 H   0  0  0  0  0  0  0  0  0  0  0  0
   -5.0840   16.6863  -34.7678 H   0  0  0  0  0  0  0  0  0  0  0  0
   -4.2900   19.0204  -34.3826 H   0  0  0  0  0  0  0  0  0  0  0  0
   -4.5926   21.2125  -33.3413 H   0  0  0  0  0  0  0  0  0  0  0  0
  1  2  1  0
  2  3  2  0
  2  4  2  0
  2  5  1  0
  5  6  1  0
  6  7  1  0
  7  8  1  0
  8  9  1  0
  9 10  2  0
 10 11  1  0
 11 12  2  0
 12 13  1  0
 13 14  2  0
 14 15  1  0
 15 16  2  0
 16 17  1  0
 17 18  2  0
 18  9  1  0
 17 12  1  0
  1 19  1  0
  1 20  1  0
  1 21  1  0
  5 22  1  0
  6 23  1  0
  6 24  1  0
  7 25  1  0
  7 26  1  0
  8 27  1  0
 10 28  1  0
 11 29  1  0
 13 30  1  0
 14 31  1  0
 15 32  1  0
 16 33  1  0
 18 34  1  0
M  END
>  <UniqueID>  (15) 
15

>  <SMILES>  (15) 
CS(=O)(=O)NCCNc1ccc2ccccc2c1

>  <Energy>  (15) 
28.042432916463135

>  <Genealogy>  (15) 
CS(=O)(=O)NCCNc1ccc2ccccc2c1 (3D coordinates assigned)
CS(=O)(=O)NCCNc1ccc2ccccc2c1 (optimized conformer: 28.042432916463135 kcal/mol)

>  <smiles>  (15) 
CS(=O)(=O)NCCNc1ccc2ccccc2c1

>  <score_type>  (15) 
oracle

>  <origin>  (15) 
adg

>  <m_score__min__energy>  (15) 
-8.0700000000000003

>  <m_primary>  (15) 
energy

$$$$
15:0
     RDKit          3D

 60 62  0  0  0  0  0  0  0  0999 V2000
   -0.5070   20.7800  -30.6370 C   0  0  0  0  0  0  0  0  0  0  0  0
   -1.2220   22.0370  -30.1550 C   0  0  0  0  0  0  0  0  0  0  0  0
   -2.6000   21.7540  -29.9970 O   0  0  0  0  0  0  0  0  0  0  0  0
   -2.8270   21.1910  -28.7180 C   0  0  0  0  0  0  0  0  0  0  0  0
   -3.6370   22.1580  -27.8460 C   0  0  0  0  0  0  0  0  0  0  0  0
   -4.7110   22.7420  -28.5640 O   0  0  0  0  0  0  0  0  0  0  0  0
   -4.6260   24.1520  -28.5640 C   0  0  0  0  0  0  0  0  0  0  0  0
   -3.3830   24.5690  -29.3480 C   0  0  0  0  0  0  0  0  0  0  0  0
   -3.7760   25.1460  -30.5810 O   0  0  0  0  0  0  0  0  0  0  0  0
   -5.1880   25.2020  -30.6850 C   0  0  0  0  0  0  0  0  0  0  0  0
   -5.7010   24.0490  -31.5560 C   0  0  0  0  0  0  0  0  0  0  0  0
   -4.9820   22.8130  -31.2620 N   0  0  0  0  0  0  0  0  0  0  0  0
   -5.3960   21.5820  -31.8740 C   0  0  0  0  0  0  0  0  0  0  0  0
   -6.7260   21.1490  -31.7460 C   0  0  0  0  0  0  0  0  0  0  0  0
   -7.0940   19.8810  -32.2560 C   0  0  0  0  0  0  0  0  0  0  0  0
   -6.1370   19.0560  -32.8150 N   0  0  0  0  0  0  0  0  0  0  0  0
   -6.4550   17.6360  -33.0810 C   0  0  0  0  0  0  0  0  0  0  0  0
   -4.8840   19.5570  -33.1250 C   0  0  0  0  0  0  0  0  0  0  0  0
   -3.9750   18.8450  -33.9440 C   0  0  0  0  0  0  0  0  0  0  0  0
   -2.7010   19.3490  -34.2140 C   0  0  0  0  0  0  0  0  0  0  0  0
   -2.3020   20.5700  -33.6790 C   0  0  0  0  0  0  0  0  0  0  0  0
   -3.1840   21.3070  -32.8910 C   0  0  0  0  0  0  0  0  0  0  0  0
   -4.4840   20.8240  -32.6240 C   0  0  0  0  0  0  0  0  0  0  0  0
   -8.5460   19.4460  -32.1520 C   0  0  0  0  0  0  0  0  0  0  0  0
   -9.4780   20.6480  -32.2760 C   0  0  0  0  0  0  0  0  0  0  0  0
   -9.2110   21.6400  -31.1430 C   0  0  0  0  0  0  0  0  0  0  0  0
   -7.7260   22.0460  -31.0260 C   0  0  0  0  0  0  0  0  0  0  0  0
   -0.1729   20.1926  -29.7691 H   0  0  0  0  0  0  0  0  0  0  0  0
   -1.1968   20.1761  -31.2449 H   0  0  0  0  0  0  0  0  0  0  0  0
    0.3646   21.0642  -31.2449 H   0  0  0  0  0  0  0  0  0  0  0  0
   -0.7983   22.3551  -29.1910 H   0  0  0  0  0  0  0  0  0  0  0  0
   -1.0913   22.8434  -30.8917 H   0  0  0  0  0  0  0  0  0  0  0  0
   -3.3848   20.2495  -28.8299 H   0  0  0  0  0  0  0  0  0  0  0  0
   -1.8577   21.0000  -28.2344 H   0  0  0  0  0  0  0  0  0  0  0  0
   -4.0427   21.6063  -26.9852 H   0  0  0  0  0  0  0  0  0  0  0  0
   -2.9662   22.9657  -27.5180 H   0  0  0  0  0  0  0  0  0  0  0  0
   -5.5227   24.5767  -29.0390 H   0  0  0  0  0  0  0  0  0  0  0  0
   -4.5586   24.5229  -27.5306 H   0  0  0  0  0  0  0  0  0  0  0  0
   -2.8107   25.3050  -28.7642 H   0  0  0  0  0  0  0  0  0  0  0  0
   -2.7556   23.6859  -29.5390 H   0  0  0  0  0  0  0  0  0  0  0  0
   -5.6297   25.1231  -29.6807 H   0  0  0  0  0  0  0  0  0  0  0  0
   -5.4762   26.1573  -31.1480 H   0  0  0  0  0  0  0  0  0  0  0  0
   -6.7725   23.8978  -31.3585 H   0  0  0  0  0  0  0  0  0  0  0  0
   -5.5373   24.3075  -32.6126 H   0  0  0  0  0  0  0  0  0  0  0  0
   -4.1440   22.8170  -30.6410 H   0  0  0  0  0  0  0  0  0  0  0  0
   -6.5746   17.1021  -32.1267 H   0  0  0  0  0  0  0  0  0  0  0  0
   -7.3899   17.5713  -33.6570 H   0  0  0  0  0  0  0  0  0  0  0  0
   -5.6370   17.1787  -33.6570 H   0  0  0  0  0  0  0  0  0  0  0  0
   -4.2772   17.8790  -34.3747 H   0  0  0  0  0  0  0  0  0  0  0  0
   -2.0101   18.7785  -34.8521 H   0  0  0  0  0  0  0  0  0  0  0  0
   -1.2904   20.9535  -33.8781 H   0  0  0  0  0  0  0  0  0  0  0  0
   -2.8649   22.2733  -32.4733 H   0  0  0  0  0  0  0  0  0  0  0  0
   -8.7679   18.7319  -32.9588 H   0  0  0  0  0  0  0  0  0  0  0  0
   -8.7050   18.9742  -31.1711 H   0  0  0  0  0  0  0  0  0  0  0  0
   -9.3049   21.1443  -33.2423 H   0  0  0  0  0  0  0  0  0  0  0  0
  -10.5206   20.3028  -32.2137 H   0  0  0  0  0  0  0  0  0  0  0  0
   -9.8077   22.5461  -31.3241 H   0  0  0  0  0  0  0  0  0  0  0  0
   -9.4887   21.1430  -30.2018 H   0  0  0  0  0  0  0  0  0  0  0  0
   -7.6221   23.0615  -31.4358 H   0  0  0  0  0  0  0  0  0  0  0  0
   -7.4807   21.9627  -29.9569 H   0  0  0  0  0  0  0  0  0  0  0  0
  1  2  1  0
  2  3  1  0
  3  4  1  0
  4  5  1  0
  5  6  1  0
  6  7  1  0
  7  8  1  0
  8  9  1  0
  9 10  1  0
 10 11  1  0
 11 12  1  0
 12 13  1  0
 13 14  2  0
 14 15  1  0
 15 16  2  0
 16 17  1  0
 16 18  1  0
 18 19  2  0
 19 20  1  0
 20 21  2  0
 21 22  1  0
 22 23  2  0
 15 24  1  0
 24 25  1  0
 25 26  1  0
 26 27  1  0
 23 13  1  0
 27 14  1  0
 23 18  1  0
  1 28  1  0
  1 29  1  0
  1 30  1  0
  2 31  1  0
  2 32  1  0
  4 33  1  0
  4 34  1  0
  5 35  1  0
  5 36  1  0
  7 37  1  0
  7 38  1  0
  8 39  1  0
  8 40  1  0
 10 41  1  0
 10 42  1  0
 11 43  1  0
 11 44  1  0
 12 45  1  0
 17 46  1  0
 17 47  1  0
 17 48  1  0
 19 49  1  0
 20 50  1  0
 21 51  1  0
 22 52  1  0
 24 53  1  0
 24 54  1  0
 25 55  1  0
 25 56  1  0
 26 57  1  0
 26 58  1  0
 27 59  1  0
 27 60  1  0
M  CHG  1  16   1
M  END
>  <UniqueID>  (16) 
16

>  <SMILES>  (16) 
CCOCCOCCOCCNc1c2c([n+](C)c3ccccc13)CCCC2

>  <Energy>  (16) 
82.03285231570098

>  <Genealogy>  (16) 
CCOCCOCCOCCNc1c2c([n+](C)c3ccccc13)CCCC2 (3D coordinates assigned)
CCOCCOCCOCCNc1c2c([n+](C)c3ccccc13)CCCC2 (nonaromatic ring conformer: 82.03285231570098 kcal/mol)

>  <smiles>  (16) 
CCOCCOCCOCCNc1c2c([n+](C)c3ccccc13)CCCC2

>  <score_type>  (16) 
oracle

>  <origin>  (16) 
adg

>  <m_score__min__energy>  (16) 
-9.4000000000000004

>  <m_primary>  (16) 
energy

$$$$
16:0
     RDKit          3D

 47 50  0  0  0  0  0  0  0  0999 V2000
   -3.8280   22.2860  -31.9550 C   0  0  0  0  0  0  0  0  0  0  0  0
   -4.1740   22.9150  -30.6790 N   0  0  0  0  0  0  0  0  0  0  0  0
   -5.4100   23.1670  -30.1590 C   0  0  0  0  0  0  0  0  0  0  0  0
   -6.6900   22.7980  -30.7990 C   0  0  0  0  0  0  0  0  0  0  0  0
   -7.5490   23.7780  -31.3190 C   0  0  0  0  0  0  0  0  0  0  0  0
   -8.7390   23.4090  -31.9480 C   0  0  0  0  0  0  0  0  0  0  0  0
   -9.0830   22.0600  -32.0650 C   0  0  0  0  0  0  0  0  0  0  0  0
   -8.2430   21.0640  -31.5420 C   0  0  0  0  0  0  0  0  0  0  0  0
   -8.6080   19.5960  -31.6710 C   0  0  0  0  0  0  0  0  0  0  0  0
   -7.9260   18.8840  -32.7850 N   0  0  0  0  0  0  0  0  0  0  0  0
   -7.4600   17.5160  -32.4150 C   0  0  0  0  0  0  0  0  0  0  0  0
   -5.9370   17.4320  -32.2390 C   0  0  0  0  0  0  0  0  0  0  0  0
   -5.2110   17.8320  -33.5370 C   0  0  0  0  0  0  0  0  0  0  0  0
   -5.9830   18.8860  -34.3520 C   0  0  0  0  0  0  0  0  0  0  0  0
   -6.8880   19.7250  -33.4420 C   0  0  0  0  0  0  0  0  0  0  0  0
   -7.0280   21.4430  -30.9430 C   0  0  0  0  0  0  0  0  0  0  0  0
   -5.3650   23.8180  -28.9660 N   0  0  0  0  0  0  0  0  0  0  0  0
   -4.0470   23.9450  -28.7350 C   0  0  0  0  0  0  0  0  0  0  0  0
   -3.4330   24.5360  -27.6340 C   0  0  0  0  0  0  0  0  0  0  0  0
   -2.0260   24.5530  -27.5980 C   0  0  0  0  0  0  0  0  0  0  0  0
   -1.2770   23.9860  -28.6540 C   0  0  0  0  0  0  0  0  0  0  0  0
   -1.9280   23.3970  -29.7530 C   0  0  0  0  0  0  0  0  0  0  0  0
   -3.3250   23.3990  -29.7560 C   0  0  0  0  0  0  0  0  0  0  0  0
   -3.3057   21.3365  -31.7660 H   0  0  0  0  0  0  0  0  0  0  0  0
   -4.7461   22.0916  -32.5288 H   0  0  0  0  0  0  0  0  0  0  0  0
   -3.1722   22.9573  -32.5288 H   0  0  0  0  0  0  0  0  0  0  0  0
   -7.2834   24.8418  -31.2305 H   0  0  0  0  0  0  0  0  0  0  0  0
   -9.4080   24.1826  -32.3528 H   0  0  0  0  0  0  0  0  0  0  0  0
  -10.0181   21.7764  -32.5702 H   0  0  0  0  0  0  0  0  0  0  0  0
   -8.3437   19.0927  -30.7293 H   0  0  0  0  0  0  0  0  0  0  0  0
   -9.6851   19.5607  -31.8915 H   0  0  0  0  0  0  0  0  0  0  0  0
   -8.6720   18.7450  -33.5100 H   0  0  0  0  0  0  0  0  0  0  0  0
   -7.9394   17.2257  -31.4685 H   0  0  0  0  0  0  0  0  0  0  0  0
   -7.7356   16.8393  -33.2372 H   0  0  0  0  0  0  0  0  0  0  0  0
   -5.6298   18.1116  -31.4304 H   0  0  0  0  0  0  0  0  0  0  0  0
   -5.6685   16.3944  -31.9915 H   0  0  0  0  0  0  0  0  0  0  0  0
   -4.2247   18.2430  -33.2757 H   0  0  0  0  0  0  0  0  0  0  0  0
   -5.1250   16.9295  -34.1599 H   0  0  0  0  0  0  0  0  0  0  0  0
   -5.2644   19.5491  -34.8558 H   0  0  0  0  0  0  0  0  0  0  0  0
   -6.6111   18.3679  -35.0917 H   0  0  0  0  0  0  0  0  0  0  0  0
   -6.2715   20.2035  -32.6668 H   0  0  0  0  0  0  0  0  0  0  0  0
   -7.3946   20.4815  -34.0594 H   0  0  0  0  0  0  0  0  0  0  0  0
   -6.3346   20.6686  -30.5832 H   0  0  0  0  0  0  0  0  0  0  0  0
   -4.0277   24.9750  -26.8194 H   0  0  0  0  0  0  0  0  0  0  0  0
   -1.5064   25.0102  -26.7431 H   0  0  0  0  0  0  0  0  0  0  0  0
   -0.1778   24.0055  -28.6162 H   0  0  0  0  0  0  0  0  0  0  0  0
   -1.3573   22.9506  -30.5807 H   0  0  0  0  0  0  0  0  0  0  0  0
  1  2  1  0
  2  3  1  0
  3  4  1  0
  4  5  2  0
  5  6  1  0
  6  7  2  0
  7  8  1  0
  8  9  1  0
  9 10  1  0
 10 11  1  0
 11 12  1  0
 12 13  1  0
 13 14  1  0
 14 15  1  0
  8 16  2  0
  3 17  2  0
 17 18  1  0
 18 19  2  0
 19 20  1  0
 20 21  2  0
 21 22  1  0
 22 23  2  0
 23  2  1  0
 16  4  1  0
 23 18  1  0
 15 10  1  0
  1 24  1  0
  1 25  1  0
  1 26  1  0
  5 27  1  0
  6 28  1  0
  7 29  1  0
  9 30  1  0
  9 31  1  0
 10 32  1  0
 11 33  1  0
 11 34  1  0
 12 35  1  0
 12 36  1  0
 13 37  1  0
 13 38  1  0
 14 39  1  0
 14 40  1  0
 15 41  1  0
 15 42  1  0
 16 43  1  0
 19 44  1  0
 20 45  1  0
 21 46  1  0
 22 47  1  0
M  CHG  1  10   1
M  END
>  <UniqueID>  (17) 
17

>  <SMILES>  (17) 
Cn1c(-c2cccc(C[NH+]3CCCCC3)c2)nc2ccccc21

>  <Energy>  (17) 
102.34703154356453

>  <Genealogy>  (17) 
Cn1c(-c2cccc(C[NH+]3CCCCC3)c2)nc2ccccc21 (protonated)
Cn1c(-c2cccc(C[NH+]3CCCCC3)c2)nc2ccccc21 (3D coordinates assigned)
Cn1c(-c2cccc(C[NH+]3CCCCC3)c2)nc2ccccc21 (nonaromatic ring conformer: 102.34703154356453 kcal/mol)

>  <smiles>  (17) 
Cn1c(-c2cccc(CN3CCCCC3)c2)nc2ccccc21

>  <score_type>  (17) 
oracle

>  <origin>  (17) 
adg

>  <m_score__min__energy>  (17) 
-7.9100000000000001

>  <m_primary>  (17) 
energy

$$$$
17:0
     RDKit          3D

 54 57  0  0  0  0  0  0  0  0999 V2000
   -4.9590   15.9060  -32.4670 C   0  0  0  0  0  0  0  0  0  0  0  0
   -5.3670   17.0000  -33.3430 N   0  0  0  0  0  0  0  0  0  0  0  0
   -5.0430   17.1470  -34.6420 C   0  0  0  0  0  0  0  0  0  0  0  0
   -5.7270   18.1640  -35.2060 N   0  0  0  0  0  0  0  0  0  0  0  0
   -6.5000   18.6650  -34.2560 N   0  0  0  0  0  0  0  0  0  0  0  0
   -6.2800   17.9670  -33.1290 C   0  0  0  0  0  0  0  0  0  0  0  0
   -7.1470   18.2630  -31.5800 S   0  0  0  0  0  0  0  0  0  0  0  0
   -8.7980   18.5220  -32.3350 C   0  0  0  0  0  0  0  0  0  0  0  0
   -9.1870   20.0050  -32.4090 C   0  0  0  0  0  0  0  0  0  0  0  0
   -7.9880   20.9530  -32.5640 C   0  0  0  0  0  0  0  0  0  0  0  0
   -7.4800   21.4200  -31.2590 N   0  0  0  0  0  0  0  0  0  0  0  0
   -7.9940   22.7790  -30.9200 C   0  0  0  0  0  0  0  0  0  0  0  0
   -6.7790   23.6650  -31.0280 C   0  0  1  0  0  0  0  0  0  0  0  0
   -6.4840   24.9710  -30.3260 C   0  0  0  0  0  0  0  0  0  0  0  0
   -4.9310   24.9750  -30.3940 C   0  0  0  0  0  0  0  0  0  0  0  0
   -4.5310   23.5720  -30.6180 N   0  0  0  0  0  0  0  0  0  0  0  0
   -3.1930   23.0800  -30.4080 C   0  0  0  0  0  0  0  0  0  0  0  0
   -2.5100   23.3710  -29.2130 C   0  0  0  0  0  0  0  0  0  0  0  0
   -1.2110   22.9050  -29.0050 C   0  0  0  0  0  0  0  0  0  0  0  0
   -0.5780   22.1430  -29.9850 C   0  0  0  0  0  0  0  0  0  0  0  0
   -1.2430   21.8380  -31.1740 C   0  0  0  0  0  0  0  0  0  0  0  0
   -2.5580   22.2960  -31.3960 C   0  0  0  0  0  0  0  0  0  0  0  0
   -3.2680   21.9770  -32.5660 O   0  0  0  0  0  0  0  0  0  0  0  0
   -3.4620   20.6640  -33.0880 C   0  0  0  0  0  0  0  0  0  0  0  0
   -4.6680   20.6260  -33.7610 F   0  0  0  0  0  0  0  0  0  0  0  0
   -3.4970   19.7420  -32.0580 F   0  0  0  0  0  0  0  0  0  0  0  0
   -2.4480   20.3480  -33.9730 F   0  0  0  0  0  0  0  0  0  0  0  0
   -5.7370   22.7830  -30.4630 C   0  0  2  0  0  0  0  0  0  0  0  0
   -5.9920   21.5170  -31.2380 C   0  0  0  0  0  0  0  0  0  0  0  0
   -5.0740   16.2143  -31.4174 H   0  0  0  0  0  0  0  0  0  0  0  0
   -5.5893   15.0258  -32.6617 H   0  0  0  0  0  0  0  0  0  0  0  0
   -3.9062   15.6535  -32.6617 H   0  0  0  0  0  0  0  0  0  0  0  0
   -4.3142   16.5185  -35.1747 H   0  0  0  0  0  0  0  0  0  0  0  0
   -7.1620   19.4630  -34.3840 H   0  0  0  0  0  0  0  0  0  0  0  0
   -8.7879   18.1091  -33.3545 H   0  0  0  0  0  0  0  0  0  0  0  0
   -9.5385   18.0146  -31.6992 H   0  0  0  0  0  0  0  0  0  0  0  0
   -9.8545   20.1459  -33.2719 H   0  0  0  0  0  0  0  0  0  0  0  0
   -9.6736   20.2568  -31.4552 H   0  0  0  0  0  0  0  0  0  0  0  0
   -7.1809   20.4218  -33.0898 H   0  0  0  0  0  0  0  0  0  0  0  0
   -8.3220   21.8330  -33.1333 H   0  0  0  0  0  0  0  0  0  0  0  0
   -8.7711   23.0923  -31.6327 H   0  0  0  0  0  0  0  0  0  0  0  0
   -8.4607   22.8194  -29.9247 H   0  0  0  0  0  0  0  0  0  0  0  0
   -6.8853   24.0260  -32.0616 H   0  0  0  0  0  0  0  0  0  0  0  0
   -6.9175   25.8284  -30.8616 H   0  0  0  0  0  0  0  0  0  0  0  0
   -6.9017   25.0544  -29.3118 H   0  0  0  0  0  0  0  0  0  0  0  0
   -4.5862   25.6082  -31.2248 H   0  0  0  0  0  0  0  0  0  0  0  0
   -4.4879   25.3784  -29.4715 H   0  0  0  0  0  0  0  0  0  0  0  0
   -3.0045   23.9715  -28.4352 H   0  0  0  0  0  0  0  0  0  0  0  0
   -0.6866   23.1394  -28.0669 H   0  0  0  0  0  0  0  0  0  0  0  0
    0.4478   21.7810  -29.8214 H   0  0  0  0  0  0  0  0  0  0  0  0
   -0.7374   21.2359  -31.9433 H   0  0  0  0  0  0  0  0  0  0  0  0
   -5.6924   22.4676  -29.4101 H   0  0  0  0  0  0  0  0  0  0  0  0
   -5.5877   21.5916  -32.2583 H   0  0  0  0  0  0  0  0  0  0  0  0
   -5.5099   20.6349  -30.7913 H   0  0  0  0  0  0  0  0  0  0  0  0
  1  2  1  0
  2  3  1  0
  3  4  2  0
  4  5  1  0
  5  6  2  0
  6  7  1  0
  7  8  1  0
  8  9  1  0
  9 10  1  0
 10 11  1  0
 11 12  1  0
 12 13  1  0
 13 14  1  0
 14 15  1  0
 15 16  1  0
 16 17  1  0
 17 18  2  0
 18 19  1  0
 19 20  2  0
 20 21  1  0
 21 22  2  0
 22 23  1  0
 23 24  1  0
 24 25  1  0
 24 26  1  0
 24 27  1  0
 16 28  1  0
 28 29  1  0
  6  2  1  0
 29 11  1  0
 28 13  1  0
 22 17  1  0
  1 30  1  0
  1 31  1  0
  1 32  1  0
  3 33  1  0
  5 34  1  0
  8 35  1  0
  8 36  1  0
  9 37  1  0
  9 38  1  0
 10 39  1  0
 10 40  1  0
 12 41  1  0
 12 42  1  0
 13 43  1  6
 14 44  1  0
 14 45  1  0
 15 46  1  0
 15 47  1  0
 18 48  1  0
 19 49  1  0
 20 50  1  0
 21 51  1  0
 28 52  1  1
 29 53  1  0
 29 54  1  0
M  CHG  1   5   1
M  END
>  <UniqueID>  (18) 
18

>  <SMILES>  (18) 
Cn1cn[nH+]c1SCCCN1C[C@H]2CCN(c3ccccc3OC(F)(F)F)[C@@H]2C1

>  <Energy>  (18) 
127.7943087223527

>  <Genealogy>  (18) 
Cn1cn[nH+]c1SCCCN1CC2CCN(c3ccccc3OC(F)(F)F)C2C1 (protonated)
Cn1cn[nH+]c1SCCCN1C[C@H]2CCN(c3ccccc3OC(F)(F)F)[C@@H]2C1 (chirality)
Cn1cn[nH+]c1SCCCN1C[C@H]2CCN(c3ccccc3OC(F)(F)F)[C@@H]2C1 (3D coordinates assigned)
Cn1cn[nH+]c1SCCCN1C[C@H]2CCN(c3ccccc3OC(F)(F)F)[C@@H]2C1 (nonaromatic ring conformer: 127.7943087223527 kcal/mol)

>  <smiles>  (18) 
Cn1cnnc1SCCCN1CC2CCN(c3ccccc3OC(F)(F)F)C2C1

>  <score_type>  (18) 
oracle

>  <origin>  (18) 
adg

>  <m_score__min__energy>  (18) 
-8.5700000000000003

>  <m_primary>  (18) 
energy

$$$$
18:0
     RDKit          3D

 48 51  0  0  0  0  0  0  0  0999 V2000
   -2.1870   24.2050  -28.8700 C   0  0  0  0  0  0  0  0  0  0  0  0
   -3.0180   23.5860  -29.9010 N   0  0  0  0  0  0  0  0  0  0  0  0
   -2.6560   22.6640  -30.8340 C   0  0  0  0  0  0  0  0  0  0  0  0
   -1.3040   22.0130  -30.9000 C   0  0  0  0  0  0  0  0  0  0  0  0
   -1.2770   20.9500  -31.9300 N   0  0  0  0  0  0  0  0  0  0  0  0
   -0.2470   21.2330  -32.9640 C   0  0  0  0  0  0  0  0  0  0  0  0
   -0.6950   20.9340  -34.4080 C   0  0  0  0  0  0  0  0  0  0  0  0
   -0.9580   19.4370  -34.6300 C   0  0  0  0  0  0  0  0  0  0  0  0
   -1.8230   18.8850  -33.5810 N   0  0  0  0  0  0  0  0  0  0  0  0
   -3.2560   18.9630  -33.7050 C   0  0  0  0  0  0  0  0  0  0  0  0
   -3.9600   17.9970  -34.4440 C   0  0  0  0  0  0  0  0  0  0  0  0
   -5.3470   18.0980  -34.5600 C   0  0  0  0  0  0  0  0  0  0  0  0
   -6.0210   19.1520  -33.9460 C   0  0  0  0  0  0  0  0  0  0  0  0
   -5.2930   20.0960  -33.2170 C   0  0  0  0  0  0  0  0  0  0  0  0
   -3.9400   19.9850  -33.1120 N   0  0  0  0  0  0  0  0  0  0  0  0
   -1.2290   18.4390  -32.3170 C   0  0  0  0  0  0  0  0  0  0  0  0
   -1.2250   19.6010  -31.3090 C   0  0  0  0  0  0  0  0  0  0  0  0
   -3.6540   22.3560  -31.7040 N   0  0  0  0  0  0  0  0  0  0  0  0
   -4.6660   23.1410  -31.2950 C   0  0  0  0  0  0  0  0  0  0  0  0
   -5.9390   23.2440  -31.8520 C   0  0  0  0  0  0  0  0  0  0  0  0
   -6.8380   24.1570  -31.2680 C   0  0  0  0  0  0  0  0  0  0  0  0
   -6.4440   24.9380  -30.1580 C   0  0  0  0  0  0  0  0  0  0  0  0
   -5.1510   24.8110  -29.6190 C   0  0  0  0  0  0  0  0  0  0  0  0
   -4.2880   23.8900  -30.2180 C   0  0  0  0  0  0  0  0  0  0  0  0
   -2.5652   23.9233  -27.8762 H   0  0  0  0  0  0  0  0  0  0  0  0
   -1.1487   23.8585  -28.9790 H   0  0  0  0  0  0  0  0  0  0  0  0
   -2.2218   25.2990  -28.9790 H   0  0  0  0  0  0  0  0  0  0  0  0
   -0.5499   22.7742  -31.1488 H   0  0  0  0  0  0  0  0  0  0  0  0
   -1.0853   21.5592  -29.9221 H   0  0  0  0  0  0  0  0  0  0  0  0
    0.0206   22.2981  -32.9005 H   0  0  0  0  0  0  0  0  0  0  0  0
    0.6007   20.5643  -32.7537 H   0  0  0  0  0  0  0  0  0  0  0  0
   -1.6201   21.4918  -34.6156 H   0  0  0  0  0  0  0  0  0  0  0  0
    0.1151   21.2411  -35.0858 H   0  0  0  0  0  0  0  0  0  0  0  0
   -1.4467   19.3002  -35.6059 H   0  0  0  0  0  0  0  0  0  0  0  0
    0.0056   18.9074  -34.5989 H   0  0  0  0  0  0  0  0  0  0  0  0
   -3.4221   17.1680  -34.9271 H   0  0  0  0  0  0  0  0  0  0  0  0
   -5.9076   17.3466  -35.1354 H   0  0  0  0  0  0  0  0  0  0  0  0
   -7.1139   19.2398  -34.0343 H   0  0  0  0  0  0  0  0  0  0  0  0
   -5.8145   20.9312  -32.7265 H   0  0  0  0  0  0  0  0  0  0  0  0
   -3.4250   20.6960  -32.5450 H   0  0  0  0  0  0  0  0  0  0  0  0
   -1.8183   17.6039  -31.9104 H   0  0  0  0  0  0  0  0  0  0  0  0
   -0.1954   18.1081  -32.4963 H   0  0  0  0  0  0  0  0  0  0  0  0
   -2.1004   19.4902  -30.6522 H   0  0  0  0  0  0  0  0  0  0  0  0
   -0.2712   19.5418  -30.7642 H   0  0  0  0  0  0  0  0  0  0  0  0
   -6.2318   22.6329  -32.7185 H   0  0  0  0  0  0  0  0  0  0  0  0
   -7.8531   24.2630  -31.6782 H   0  0  0  0  0  0  0  0  0  0  0  0
   -7.1537   25.6505  -29.7123 H   0  0  0  0  0  0  0  0  0  0  0  0
   -4.8309   25.4149  -28.7571 H   0  0  0  0  0  0  0  0  0  0  0  0
  1  2  1  0
  2  3  1  0
  3  4  1  0
  4  5  1  0
  5  6  1  0
  6  7  1  0
  7  8  1  0
  8  9  1  0
  9 10  1  0
 10 11  2  0
 11 12  1  0
 12 13  2  0
 13 14  1  0
 14 15  2  0
  9 16  1  0
 16 17  1  0
  3 18  2  0
 18 19  1  0
 19 20  2  0
 20 21  1  0
 21 22  2  0
 22 23  1  0
 23 24  2  0
 24  2  1  0
 17  5  1  0
 24 19  1  0
 15 10  1  0
  1 25  1  0
  1 26  1  0
  1 27  1  0
  4 28  1  0
  4 29  1  0
  6 30  1  0
  6 31  1  0
  7 32  1  0
  7 33  1  0
  8 34  1  0
  8 35  1  0
 11 36  1  0
 12 37  1  0
 13 38  1  0
 14 39  1  0
 15 40  1  0
 16 41  1  0
 16 42  1  0
 17 43  1  0
 17 44  1  0
 20 45  1  0
 21 46  1  0
 22 47  1  0
 23 48  1  0
M  CHG  1  15   1
M  END
>  <UniqueID>  (19) 
19

>  <SMILES>  (19) 
Cn1c(CN2CCCN(c3cccc[nH+]3)CC2)nc2ccccc21

>  <Energy>  (19) 
101.60684788571324

>  <Genealogy>  (19) 
Cn1c(CN2CCCN(c3cccc[nH+]3)CC2)nc2ccccc21 (protonated)
Cn1c(CN2CCCN(c3cccc[nH+]3)CC2)nc2ccccc21 (3D coordinates assigned)
Cn1c(CN2CCCN(c3cccc[nH+]3)CC2)nc2ccccc21 (nonaromatic ring conformer: 101.60684788571324 kcal/mol)

>  <smiles>  (19) 
Cn1c(CN2CCCN(c3ccccn3)CC2)nc2ccccc21

>  <score_type>  (19) 
oracle

>  <origin>  (19) 
adg

>  <m_score__min__energy>  (19) 
-5.1100000000000003

>  <m_primary>  (19) 
energy

$$$$
19:0
     RDKit          3D

 45 47  0  0  0  0  0  0  0  0999 V2000
   -5.4530   16.5790  -32.5120 C   0  0  0  0  0  0  0  0  0  0  0  0
   -6.1520   17.2090  -31.3080 C   0  0  0  0  0  0  0  0  0  0  0  0
   -6.5770   18.5950  -31.5980 N   0  0  0  0  0  0  0  0  0  0  0  0
   -5.9370   19.1130  -32.8310 C   0  0  0  0  0  0  0  0  0  0  0  0
   -6.6800   20.3390  -33.4100 C   0  0  0  0  0  0  0  0  0  0  0  0
   -7.4790   21.0380  -32.3860 N   0  0  0  0  0  0  0  0  0  0  0  0
   -6.6320   21.6970  -31.3640 C   0  0  0  0  0  0  0  0  0  0  0  0
   -6.0760   23.0200  -31.9030 C   0  0  0  0  0  0  0  0  0  0  0  0
   -4.6130   23.0510  -31.8280 N   0  0  0  0  0  0  0  0  0  0  0  0
   -3.8630   22.9380  -30.6030 C   0  0  0  0  0  0  0  0  0  0  0  0
   -3.7290   21.7060  -30.0460 N   0  0  0  0  0  0  0  0  0  0  0  0
   -3.0460   21.5100  -28.9200 N   0  0  0  0  0  0  0  0  0  0  0  0
   -2.9500   20.2310  -28.4190 O   0  0  0  0  0  0  0  0  0  0  0  0
   -2.4520   22.5570  -28.2790 C   0  0  0  0  0  0  0  0  0  0  0  0
   -1.7210   22.3720  -27.0920 C   0  0  0  0  0  0  0  0  0  0  0  0
   -1.1310   23.4650  -26.4530 C   0  0  0  0  0  0  0  0  0  0  0  0
   -1.2650   24.7470  -26.9900 C   0  0  0  0  0  0  0  0  0  0  0  0
   -1.9880   24.9430  -28.1690 C   0  0  0  0  0  0  0  0  0  0  0  0
   -2.5870   23.8510  -28.8270 C   0  0  0  0  0  0  0  0  0  0  0  0
   -3.3020   24.0210  -29.9810 N   0  0  0  0  0  0  0  0  0  0  0  0
   -3.4890   25.2910  -30.4800 O   0  0  0  0  0  0  0  0  0  0  0  0
   -8.5020   20.1410  -31.7930 C   0  0  0  0  0  0  0  0  0  0  0  0
   -8.0440   18.6700  -31.7060 C   0  0  0  0  0  0  0  0  0  0  0  0
   -4.6783   15.8808  -32.1623 H   0  0  0  0  0  0  0  0  0  0  0  0
   -6.1901   16.0342  -33.1202 H   0  0  0  0  0  0  0  0  0  0  0  0
   -4.9875   17.3685  -33.1202 H   0  0  0  0  0  0  0  0  0  0  0  0
   -7.0377   16.6085  -31.0533 H   0  0  0  0  0  0  0  0  0  0  0  0
   -5.4426   17.2321  -30.4677 H   0  0  0  0  0  0  0  0  0  0  0  0
   -4.9028   19.4051  -32.5963 H   0  0  0  0  0  0  0  0  0  0  0  0
   -5.9685   18.3140  -33.5864 H   0  0  0  0  0  0  0  0  0  0  0  0
   -5.9396   21.0404  -33.8220 H   0  0  0  0  0  0  0  0  0  0  0  0
   -7.3678   19.9809  -34.1902 H   0  0  0  0  0  0  0  0  0  0  0  0
   -7.2359   21.8965  -30.4665 H   0  0  0  0  0  0  0  0  0  0  0  0
   -5.7919   21.0323  -31.1142 H   0  0  0  0  0  0  0  0  0  0  0  0
   -6.3838   23.1373  -32.9525 H   0  0  0  0  0  0  0  0  0  0  0  0
   -6.4733   23.8407  -31.2876 H   0  0  0  0  0  0  0  0  0  0  0  0
   -4.0790   23.3490  -32.6750 H   0  0  0  0  0  0  0  0  0  0  0  0
   -1.6135   21.3637  -26.6655 H   0  0  0  0  0  0  0  0  0  0  0  0
   -0.5597   23.3156  -25.5249 H   0  0  0  0  0  0  0  0  0  0  0  0
   -0.7998   25.6052  -26.4830 H   0  0  0  0  0  0  0  0  0  0  0  0
   -2.0902   25.9558  -28.5860 H   0  0  0  0  0  0  0  0  0  0  0  0
   -8.7320   20.4961  -30.7776 H   0  0  0  0  0  0  0  0  0  0  0  0
   -9.3832   20.1705  -32.4507 H   0  0  0  0  0  0  0  0  0  0  0  0
   -8.4972   18.2010  -30.8202 H   0  0  0  0  0  0  0  0  0  0  0  0
   -8.3623   18.1425  -32.6173 H   0  0  0  0  0  0  0  0  0  0  0  0
  1  2  1  0
  2  3  1  0
  3  4  1  0
  4  5  1  0
  5  6  1  0
  6  7  1  0
  7  8  1  0
  8  9  1  0
  9 10  1  0
 10 11  2  0
 11 12  1  0
 12 13  1  0
 12 14  2  0
 14 15  1  0
 15 16  2  0
 16 17  1  0
 17 18  2  0
 18 19  1  0
 19 20  2  0
 20 21  1  0
  6 22  1  0
 22 23  1  0
 23  3  1  0
 20 10  1  0
 19 14  1  0
  1 24  1  0
  1 25  1  0
  1 26  1  0
  2 27  1  0
  2 28  1  0
  4 29  1  0
  4 30  1  0
  5 31  1  0
  5 32  1  0
  7 33  1  0
  7 34  1  0
  8 35  1  0
  8 36  1  0
  9 37  1  0
 15 38  1  0
 16 39  1  0
 17 40  1  0
 18 41  1  0
 22 42  1  0
 22 43  1  0
 23 44  1  0
 23 45  1  0
M  CHG  4  12   1  13  -1  20   1  21  -1
M  END
>  <UniqueID>  (20) 
20

>  <SMILES>  (20) 
CCN1CCN(CCNc2n[n+]([O-])c3ccccc3[n+]2[O-])CC1

>  <Energy>  (20) 
62.82733858818085

>  <Genealogy>  (20) 
CCN1CCN(CCNc2n[n+]([O-])c3ccccc3[n+]2[O-])CC1 (3D coordinates assigned)
CCN1CCN(CCNc2n[n+]([O-])c3ccccc3[n+]2[O-])CC1 (nonaromatic ring conformer: 62.82733858818085 kcal/mol)

>  <smiles>  (20) 
CCN1CCN(CCNc2n[n+]([O-])c3ccccc3[n+]2[O-])CC1

>  <score_type>  (20) 
oracle

>  <origin>  (20) 
adg

>  <m_score__min__energy>  (20) 
-8.75

>  <m_primary>  (20) 
energy

$$$$
20:0
     RDKit          3D

 63 65  0  0  0  0  0  0  0  0999 V2000
   -4.1420   24.1370  -27.5120 C   0  0  0  0  0  0  0  0  0  0  0  0
   -2.7950   24.5890  -28.0810 C   0  0  0  0  0  0  0  0  0  0  0  0
   -2.2880   23.6000  -29.0610 N   0  0  0  0  0  0  0  0  0  0  0  0
   -0.8190   23.4830  -28.9480 C   0  0  0  0  0  0  0  0  0  0  0  0
   -2.9460   22.2860  -28.8600 C   0  0  0  0  0  0  0  0  0  0  0  0
   -2.0130   21.1250  -29.2130 C   0  0  0  0  0  0  0  0  0  0  0  0
   -1.6890   21.1870  -30.5900 O   0  0  0  0  0  0  0  0  0  0  0  0
   -0.5180   20.4350  -30.8490 C   0  0  0  0  0  0  0  0  0  0  0  0
    0.0350   20.8010  -32.2190 C   0  0  0  0  0  0  0  0  0  0  0  0
   -0.9500   21.5070  -32.9510 O   0  0  0  0  0  0  0  0  0  0  0  0
   -1.4000   20.7270  -34.0380 C   0  0  0  0  0  0  0  0  0  0  0  0
   -2.8850   20.3790  -33.8510 C   0  0  0  0  0  0  0  0  0  0  0  0
   -3.3820   20.6690  -32.4880 N   0  0  0  0  0  0  0  0  0  0  0  0
   -4.8380   20.6090  -32.3970 C   0  0  0  0  0  0  0  0  0  0  0  0
   -5.5170   19.3910  -32.6940 C   0  0  0  0  0  0  0  0  0  0  0  0
   -4.8230   18.2410  -33.1530 C   0  0  0  0  0  0  0  0  0  0  0  0
   -5.4800   17.0260  -33.3370 C   0  0  0  0  0  0  0  0  0  0  0  0
   -6.8350   16.9210  -33.0640 C   0  0  0  0  0  0  0  0  0  0  0  0
   -7.5520   18.0410  -32.6600 C   0  0  0  0  0  0  0  0  0  0  0  0
   -6.9270   19.3070  -32.5190 C   0  0  0  0  0  0  0  0  0  0  0  0
   -7.6570   20.4350  -32.2120 N   0  0  0  0  0  0  0  0  0  0  0  0
   -9.1340   20.4190  -32.3480 C   0  0  0  0  0  0  0  0  0  0  0  0
   -7.0170   21.5900  -31.8050 C   0  0  0  0  0  0  0  0  0  0  0  0
   -7.7470   22.6670  -31.2400 C   0  0  0  0  0  0  0  0  0  0  0  0
   -7.1250   23.8520  -30.8690 C   0  0  0  0  0  0  0  0  0  0  0  0
   -5.7510   24.0150  -31.0370 C   0  0  0  0  0  0  0  0  0  0  0  0
   -5.1070   25.2510  -30.6630 N   0  0  0  0  0  0  0  0  0  0  0  0
   -3.8790   25.4080  -30.8290 O   0  0  0  0  0  0  0  0  0  0  0  0
   -5.8320   26.2810  -30.1090 O   0  0  0  0  0  0  0  0  0  0  0  0
   -5.0010   22.9490  -31.5560 C   0  0  0  0  0  0  0  0  0  0  0  0
   -5.6030   21.7160  -31.9240 C   0  0  0  0  0  0  0  0  0  0  0  0
   -4.0992   24.1514  -26.4129 H   0  0  0  0  0  0  0  0  0  0  0  0
   -4.9332   24.8189  -27.8571 H   0  0  0  0  0  0  0  0  0  0  0  0
   -4.3617   23.1159  -27.8571 H   0  0  0  0  0  0  0  0  0  0  0  0
   -2.9206   25.5613  -28.5798 H   0  0  0  0  0  0  0  0  0  0  0  0
   -2.0717   24.6764  -27.2568 H   0  0  0  0  0  0  0  0  0  0  0  0
   -0.5336   23.4603  -27.8859 H   0  0  0  0  0  0  0  0  0  0  0  0
   -0.4863   22.5555  -29.4370 H   0  0  0  0  0  0  0  0  0  0  0  0
   -0.3437   24.3461  -29.4370 H   0  0  0  0  0  0  0  0  0  0  0  0
   -3.2451   22.1948  -27.8054 H   0  0  0  0  0  0  0  0  0  0  0  0
   -3.8215   22.2361  -29.5241 H   0  0  0  0  0  0  0  0  0  0  0  0
   -1.0925   21.1985  -28.6153 H   0  0  0  0  0  0  0  0  0  0  0  0
   -2.5140   20.1703  -28.9950 H   0  0  0  0  0  0  0  0  0  0  0  0
    0.2362   20.6562  -30.0794 H   0  0  0  0  0  0  0  0  0  0  0  0
   -0.7624   19.3627  -30.8297 H   0  0  0  0  0  0  0  0  0  0  0  0
    0.9262   21.4343  -32.0977 H   0  0  0  0  0  0  0  0  0  0  0  0
    0.3087   19.8840  -32.7615 H   0  0  0  0  0  0  0  0  0  0  0  0
   -1.2729   21.2944  -34.9717 H   0  0  0  0  0  0  0  0  0  0  0  0
   -0.8129   19.7980  -34.0854 H   0  0  0  0  0  0  0  0  0  0  0  0
   -3.4752   20.9650  -34.5709 H   0  0  0  0  0  0  0  0  0  0  0  0
   -2.9914   19.2966  -34.0155 H   0  0  0  0  0  0  0  0  0  0  0  0
   -2.9730   21.5560  -32.1270 H   0  0  0  0  0  0  0  0  0  0  0  0
   -2.9720   19.9750  -31.8240 H   0  0  0  0  0  0  0  0  0  0  0  0
   -3.7463   18.3102  -33.3675 H   0  0  0  0  0  0  0  0  0  0  0  0
   -4.9229   16.1494  -33.6992 H   0  0  0  0  0  0  0  0  0  0  0  0
   -7.3430   15.9508  -33.1672 H   0  0  0  0  0  0  0  0  0  0  0  0
   -8.6264   17.9439  -32.4451 H   0  0  0  0  0  0  0  0  0  0  0  0
   -9.5942   20.4140  -31.3489 H   0  0  0  0  0  0  0  0  0  0  0  0
   -9.4613   21.3137  -32.8980 H   0  0  0  0  0  0  0  0  0  0  0  0
   -9.4418   19.5175  -32.8980 H   0  0  0  0  0  0  0  0  0  0  0  0
   -8.8319   22.5611  -31.0921 H   0  0  0  0  0  0  0  0  0  0  0  0
   -7.7222   24.6694  -30.4386 H   0  0  0  0  0  0  0  0  0  0  0  0
   -3.9151   23.0715  -31.6817 H   0  0  0  0  0  0  0  0  0  0  0  0
  1  2  1  0
  2  3  1  0
  3  4  1  0
  3  5  1  0
  5  6  1  0
  6  7  1  0
  7  8  1  0
  8  9  1  0
  9 10  1  0
 10 11  1  0
 11 12  1  0
 12 13  1  0
 13 14  1  0
 14 15  2  0
 15 16  1  0
 16 17  2  0
 17 18  1  0
 18 19  2  0
 19 20  1  0
 20 21  2  0
 21 22  1  0
 21 23  1  0
 23 24  2  0
 24 25  1  0
 25 26  2  0
 26 27  1  0
 27 28  2  0
 27 29  1  0
 26 30  1  0
 30 31  2  0
 31 14  1  0
 20 15  1  0
 31 23  1  0
  1 32  1  0
  1 33  1  0
  1 34  1  0
  2 35  1  0
  2 36  1  0
  4 37  1  0
  4 38  1  0
  4 39  1  0
  5 40  1  0
  5 41  1  0
  6 42  1  0
  6 43  1  0
  8 44  1  0
  8 45  1  0
  9 46  1  0
  9 47  1  0
 11 48  1  0
 11 49  1  0
 12 50  1  0
 12 51  1  0
 13 52  1  0
 13 53  1  0
 16 54  1  0
 17 55  1  0
 18 56  1  0
 19 57  1  0
 22 58  1  0
 22 59  1  0
 22 60  1  0
 24 61  1  0
 25 62  1  0
 30 63  1  0
M  CHG  4  13   1  21   1  27   1  29  -1
M  END
>  <UniqueID>  (21) 
21

>  <SMILES>  (21) 
CCN(C)CCOCCOCC[NH2+]c1c2ccccc2[n+](C)c2ccc([N+](=O)[O-])cc12

>  <Energy>  (21) 
88.74425426340989

>  <Genealogy>  (21) 
CCN(C)CCOCCOCC[NH2+]c1c2ccccc2[n+](C)c2ccc([N+](=O)[O-])cc12 (protonated)
CCN(C)CCOCCOCC[NH2+]c1c2ccccc2[n+](C)c2ccc([N+](=O)[O-])cc12 (3D coordinates assigned)
CCN(C)CCOCCOCC[NH2+]c1c2ccccc2[n+](C)c2ccc([N+](=O)[O-])cc12 (optimized conformer: 88.74425426340989 kcal/mol)

>  <smiles>  (21) 
CCN(C)CCOCCOCCNc1c2ccccc2[n+](C)c2ccc([N+](=O)[O-])cc12

>  <score_type>  (21) 
oracle

>  <origin>  (21) 
adg

>  <m_score__min__energy>  (21) 
-9.4800000000000004

>  <m_primary>  (21) 
energy

$$$$
21:0
     RDKit          3D

 30 31  0  0  0  0  0  0  0  0999 V2000
   -9.0260   20.4330  -32.0920 C   0  0  0  0  0  0  0  0  0  0  0  0
   -7.6110   20.9300  -32.1410 C   0  0  0  0  0  0  0  0  0  0  0  0
   -6.5950   20.1180  -32.6650 C   0  0  0  0  0  0  0  0  0  0  0  0
   -5.2890   20.6010  -32.7580 C   0  0  0  0  0  0  0  0  0  0  0  0
   -4.9820   21.8970  -32.3290 C   0  0  0  0  0  0  0  0  0  0  0  0
   -3.7200   22.3620  -32.5040 F   0  0  0  0  0  0  0  0  0  0  0  0
   -5.9930   22.7170  -31.7900 C   0  0  0  0  0  0  0  0  0  0  0  0
   -5.7310   24.0610  -31.3610 N   0  0  0  0  0  0  0  0  0  0  0  0
   -4.6990   24.4620  -30.4550 C   0  0  0  0  0  0  0  0  0  0  0  0
   -3.8610   25.3410  -30.7950 O   0  0  0  0  0  0  0  0  0  0  0  0
   -4.5760   23.7920  -29.1940 N   0  0  0  0  0  0  0  0  0  0  0  0
   -3.6870   24.2190  -28.1460 C   0  0  0  0  0  0  0  0  0  0  0  0
   -4.1870   24.8960  -27.0190 C   0  0  0  0  0  0  0  0  0  0  0  0
   -3.3280   25.2850  -25.9880 C   0  0  0  0  0  0  0  0  0  0  0  0
   -1.9630   24.9970  -26.0660 C   0  0  0  0  0  0  0  0  0  0  0  0
   -0.7920   25.5310  -24.6550 Br  0  0  0  0  0  0  0  0  0  0  0  0
   -1.4580   24.3130  -27.1740 C   0  0  0  0  0  0  0  0  0  0  0  0
   -2.3110   23.9170  -28.2110 C   0  0  0  0  0  0  0  0  0  0  0  0
   -1.5520   23.0060  -29.7170 Br  0  0  0  0  0  0  0  0  0  0  0  0
   -7.3070   22.2370  -31.7290 C   0  0  0  0  0  0  0  0  0  0  0  0
   -9.3398   20.3228  -31.0435 H   0  0  0  0  0  0  0  0  0  0  0  0
   -9.6854   21.1533  -32.5983 H   0  0  0  0  0  0  0  0  0  0  0  0
   -9.0901   19.4585  -32.5983 H   0  0  0  0  0  0  0  0  0  0  0  0
   -6.8280   19.0977  -33.0036 H   0  0  0  0  0  0  0  0  0  0  0  0
   -4.4966   19.9594  -33.1708 H   0  0  0  0  0  0  0  0  0  0  0  0
   -5.1400   22.9230  -29.0530 H   0  0  0  0  0  0  0  0  0  0  0  0
   -5.2615   25.1207  -26.9489 H   0  0  0  0  0  0  0  0  0  0  0  0
   -3.7272   25.8191  -25.1131 H   0  0  0  0  0  0  0  0  0  0  0  0
   -0.3837   24.0841  -27.2322 H   0  0  0  0  0  0  0  0  0  0  0  0
   -8.1088   22.8905  -31.3546 H   0  0  0  0  0  0  0  0  0  0  0  0
  1  2  1  0
  2  3  2  0
  3  4  1  0
  4  5  2  0
  5  6  1  0
  5  7  1  0
  7  8  1  0
  8  9  1  0
  9 10  2  0
  9 11  1  0
 11 12  1  0
 12 13  2  0
 13 14  1  0
 14 15  2  0
 15 16  1  0
 15 17  1  0
 17 18  2  0
 18 19  1  0
  7 20  2  0
 20  2  1  0
 18 12  1  0
  1 21  1  0
  1 22  1  0
  1 23  1  0
  3 24  1  0
  4 25  1  0
 11 26  1  0
 13 27  1  0
 14 28  1  0
 17 29  1  0
 20 30  1  0
M  CHG  1   8  -1
M  END
>  <UniqueID>  (22) 
22

>  <SMILES>  (22) 
Cc1ccc(F)c([N-]C(=O)Nc2ccc(Br)cc2Br)c1

>  <Energy>  (22) 
38.866686163882534

>  <Genealogy>  (22) 
Cc1ccc(F)c([N-]C(=O)Nc2ccc(Br)cc2Br)c1 (protonated)
Cc1ccc(F)c([N-]C(=O)Nc2ccc(Br)cc2Br)c1 (3D coordinates assigned)
Cc1ccc(F)c([N-]C(=O)Nc2ccc(Br)cc2Br)c1 (optimized conformer: 38.866686163882534 kcal/mol)

>  <smiles>  (22) 
Cc1ccc(F)c(NC(=O)Nc2ccc(Br)cc2Br)c1

>  <score_type>  (22) 
oracle

>  <origin>  (22) 
adg

>  <m_score__min__energy>  (22) 
-9.3200000000000003

>  <m_primary>  (22) 
energy

$$$$
22:0
     RDKit          3D

 44 47  0  0  0  0  0  0  0  0999 V2000
   -1.1620   26.4250  -26.1090 C   0  0  0  0  0  0  0  0  0  0  0  0
   -0.4660   26.6440  -27.4550 C   0  0  0  0  0  0  0  0  0  0  0  0
   -0.0400   25.3770  -28.0770 N   0  0  0  0  0  0  0  0  0  0  0  0
   -0.7350   24.1970  -27.5400 C   0  0  0  0  0  0  0  0  0  0  0  0
   -1.9940   23.8790  -28.3090 C   0  0  0  0  0  0  0  0  0  0  0  0
   -3.2540   24.1660  -27.7630 C   0  0  0  0  0  0  0  0  0  0  0  0
   -4.4160   23.9020  -28.4910 C   0  0  0  0  0  0  0  0  0  0  0  0
   -4.3420   23.3390  -29.7790 C   0  0  0  0  0  0  0  0  0  0  0  0
   -5.5900   23.0780  -30.5420 C   0  0  0  0  0  0  0  0  0  0  0  0
   -6.5010   24.1030  -30.8490 C   0  0  0  0  0  0  0  0  0  0  0  0
   -7.6610   23.8000  -31.5620 C   0  0  0  0  0  0  0  0  0  0  0  0
   -7.9060   22.4920  -31.9770 C   0  0  0  0  0  0  0  0  0  0  0  0
   -6.9680   21.4900  -31.6860 C   0  0  0  0  0  0  0  0  0  0  0  0
   -7.1820   20.0830  -32.0980 C   0  0  0  0  0  0  0  0  0  0  0  0
   -8.2830   19.3540  -31.6070 C   0  0  0  0  0  0  0  0  0  0  0  0
   -8.4540   18.0150  -32.0120 C   0  0  0  0  0  0  0  0  0  0  0  0
   -7.5570   17.4240  -32.8540 N   0  0  0  0  0  0  0  0  0  0  0  0
   -6.5070   18.1550  -33.2970 C   0  0  0  0  0  0  0  0  0  0  0  0
   -5.5160   17.7160  -34.0840 N   0  0  0  0  0  0  0  0  0  0  0  0
   -4.7110   18.8040  -34.1690 C   0  0  0  0  0  0  0  0  0  0  0  0
   -5.1940   19.8550  -33.4610 N   0  0  0  0  0  0  0  0  0  0  0  0
   -6.3270   19.4270  -32.9320 N   0  0  0  0  0  0  0  0  0  0  0  0
   -5.8520   21.8110  -30.9740 N   0  0  0  0  0  0  0  0  0  0  0  0
   -3.0750   23.0640  -30.3270 C   0  0  0  0  0  0  0  0  0  0  0  0
   -1.9130   23.3300  -29.5970 C   0  0  0  0  0  0  0  0  0  0  0  0
   -0.4590   26.6462  -25.2924 H   0  0  0  0  0  0  0  0  0  0  0  0
   -2.0331   27.0925  -26.0338 H   0  0  0  0  0  0  0  0  0  0  0  0
   -1.4940   25.3790  -26.0338 H   0  0  0  0  0  0  0  0  0  0  0  0
   -1.1635   27.1550  -28.1350 H   0  0  0  0  0  0  0  0  0  0  0  0
    0.4343   27.2495  -27.2739 H   0  0  0  0  0  0  0  0  0  0  0  0
   -0.1320   25.4070  -29.1200 H   0  0  0  0  0  0  0  0  0  0  0  0
   -0.0581   23.3316  -27.5948 H   0  0  0  0  0  0  0  0  0  0  0  0
   -1.0201   24.4165  -26.5005 H   0  0  0  0  0  0  0  0  0  0  0  0
   -3.3270   24.6015  -26.7555 H   0  0  0  0  0  0  0  0  0  0  0  0
   -5.3980   24.1361  -28.0540 H   0  0  0  0  0  0  0  0  0  0  0  0
   -6.3009   25.1364  -30.5295 H   0  0  0  0  0  0  0  0  0  0  0  0
   -8.3840   24.5949  -31.7973 H   0  0  0  0  0  0  0  0  0  0  0  0
   -8.8264   22.2476  -32.5276 H   0  0  0  0  0  0  0  0  0  0  0  0
   -8.9995   19.8235  -30.9169 H   0  0  0  0  0  0  0  0  0  0  0  0
   -9.3182   17.4410  -31.6462 H   0  0  0  0  0  0  0  0  0  0  0  0
   -5.3840   16.7710  -34.5070 H   0  0  0  0  0  0  0  0  0  0  0  0
   -3.7746   18.8309  -34.7455 H   0  0  0  0  0  0  0  0  0  0  0  0
   -2.9987   22.6364  -31.3376 H   0  0  0  0  0  0  0  0  0  0  0  0
   -0.9290   23.1074  -30.0354 H   0  0  0  0  0  0  0  0  0  0  0  0
  1  2  1  0
  2  3  1  0
  3  4  1  0
  4  5  1  0
  5  6  2  0
  6  7  1  0
  7  8  2  0
  8  9  1  0
  9 10  2  0
 10 11  1  0
 11 12  2  0
 12 13  1  0
 13 14  1  0
 14 15  2  0
 15 16  1  0
 16 17  2  0
 17 18  1  0
 18 19  2  0
 19 20  1  0
 20 21  2  0
 21 22  1  0
 13 23  2  0
  8 24  1  0
 24 25  2  0
 25  5  1  0
 23  9  1  0
 22 14  1  0
 22 18  1  0
  1 26  1  0
  1 27  1  0
  1 28  1  0
  2 29  1  0
  2 30  1  0
  3 31  1  0
  4 32  1  0
  4 33  1  0
  6 34  1  0
  7 35  1  0
 10 36  1  0
 11 37  1  0
 12 38  1  0
 15 39  1  0
 16 40  1  0
 19 41  1  0
 20 42  1  0
 24 43  1  0
 25 44  1  0
M  CHG  1  19   1
M  END
>  <UniqueID>  (23) 
23

>  <SMILES>  (23) 
CCNCc1ccc(-c2cccc(-c3ccnc4[nH+]cnn34)n2)cc1

>  <Energy>  (23) 
98.50485693311255

>  <Genealogy>  (23) 
CCNCc1ccc(-c2cccc(-c3ccnc4[nH+]cnn34)n2)cc1 (protonated)
CCNCc1ccc(-c2cccc(-c3ccnc4[nH+]cnn34)n2)cc1 (3D coordinates assigned)
CCNCc1ccc(-c2cccc(-c3ccnc4[nH+]cnn34)n2)cc1 (optimized conformer: 98.50485693311255 kcal/mol)

>  <smiles>  (23) 
CCNCc1ccc(-c2cccc(-c3ccnc4ncnn34)n2)cc1

>  <score_type>  (23) 
oracle

>  <origin>  (23) 
adg

>  <m_score__min__energy>  (23) 
-8.5199999999999996

>  <m_primary>  (23) 
energy

$$$$
23:0
     RDKit          3D

 65 68  0  0  0  0  0  0  0  0999 V2000
   -0.6950   20.0300  -30.6190 C   0  0  0  0  0  0  0  0  0  0  0  0
   -2.0790   20.5410  -30.2160 C   0  0  0  0  0  0  0  0  0  0  0  0
   -1.9640   21.7820  -29.4190 N   0  0  0  0  0  0  0  0  0  0  0  0
   -2.1110   22.9810  -30.2800 C   0  0  0  0  0  0  0  0  0  0  0  0
   -3.5600   23.1230  -30.7810 C   0  0  0  0  0  0  0  0  0  0  0  0
   -3.9850   24.4750  -30.7460 O   0  0  0  0  0  0  0  0  0  0  0  0
   -5.3680   24.5810  -31.0280 C   0  0  0  0  0  0  0  0  0  0  0  0
   -6.0180   23.1920  -31.0770 C   0  0  0  0  0  0  0  0  0  0  0  0
   -6.0280   22.6620  -32.4420 N   0  0  0  0  0  0  0  0  0  0  0  0
   -5.9200   21.2540  -32.7180 C   0  0  0  0  0  0  0  0  0  0  0  0
   -7.0320   20.4210  -32.5160 C   0  0  0  0  0  0  0  0  0  0  0  0
   -8.2810   20.9670  -32.1480 C   0  0  0  0  0  0  0  0  0  0  0  0
   -9.3590   20.1380  -31.8530 C   0  0  0  0  0  0  0  0  0  0  0  0
   -9.2070   18.7570  -31.8970 C   0  0  0  0  0  0  0  0  0  0  0  0
   -7.9880   18.1950  -32.2790 C   0  0  0  0  0  0  0  0  0  0  0  0
   -6.8880   19.0110  -32.6490 C   0  0  0  0  0  0  0  0  0  0  0  0
   -5.6970   18.4740  -33.1030 N   0  0  0  0  0  0  0  0  0  0  0  0
   -5.6200   17.0450  -33.4990 C   0  0  0  0  0  0  0  0  0  0  0  0
   -4.5760   19.2770  -33.2300 C   0  0  0  0  0  0  0  0  0  0  0  0
   -3.2920   18.7320  -33.4920 C   0  0  0  0  0  0  0  0  0  0  0  0
   -2.1840   19.5580  -33.6820 C   0  0  0  0  0  0  0  0  0  0  0  0
   -2.3200   20.9410  -33.6110 C   0  0  0  0  0  0  0  0  0  0  0  0
   -3.5590   21.5050  -33.3200 C   0  0  0  0  0  0  0  0  0  0  0  0
   -4.6870   20.6890  -33.0840 C   0  0  0  0  0  0  0  0  0  0  0  0
   -2.9340   21.7900  -28.2920 C   0  0  0  0  0  0  0  0  0  0  0  0
   -2.8780   23.1060  -27.5620 C   0  0  0  0  0  0  0  0  0  0  0  0
   -4.0470   23.6940  -27.0570 C   0  0  0  0  0  0  0  0  0  0  0  0
   -3.9850   24.9190  -26.3890 C   0  0  0  0  0  0  0  0  0  0  0  0
   -2.7590   25.5630  -26.2090 C   0  0  0  0  0  0  0  0  0  0  0  0
   -1.5730   24.9790  -26.6850 C   0  0  0  0  0  0  0  0  0  0  0  0
   -0.3030   25.6230  -26.4740 N   0  0  0  0  0  0  0  0  0  0  0  0
   -0.0350   26.1550  -25.3780 O   0  0  0  0  0  0  0  0  0  0  0  0
    0.6470   25.6360  -27.4700 O   0  0  0  0  0  0  0  0  0  0  0  0
   -1.6440   23.7470  -27.3600 C   0  0  0  0  0  0  0  0  0  0  0  0
   -0.1068   19.8128  -29.7152 H   0  0  0  0  0  0  0  0  0  0  0  0
   -0.8025   19.1123  -31.2158 H   0  0  0  0  0  0  0  0  0  0  0  0
   -0.1803   20.7974  -31.2158 H   0  0  0  0  0  0  0  0  0  0  0  0
   -2.6665   20.7469  -31.1229 H   0  0  0  0  0  0  0  0  0  0  0  0
   -2.5770   19.7728  -29.6063 H   0  0  0  0  0  0  0  0  0  0  0  0
   -1.8410   23.8760  -29.7003 H   0  0  0  0  0  0  0  0  0  0  0  0
   -1.4471   22.8724  -31.1503 H   0  0  0  0  0  0  0  0  0  0  0  0
   -3.6194   22.7550  -31.8159 H   0  0  0  0  0  0  0  0  0  0  0  0
   -4.2154   22.5350  -30.1217 H   0  0  0  0  0  0  0  0  0  0  0  0
   -5.8523   25.1791  -30.2420 H   0  0  0  0  0  0  0  0  0  0  0  0
   -5.4937   25.0657  -32.0074 H   0  0  0  0  0  0  0  0  0  0  0  0
   -5.4507   22.5069  -30.4299 H   0  0  0  0  0  0  0  0  0  0  0  0
   -7.0578   23.2806  -30.7292 H   0  0  0  0  0  0  0  0  0  0  0  0
   -6.0810   23.3240  -33.2470 H   0  0  0  0  0  0  0  0  0  0  0  0
   -8.4032   22.0589  -32.0939 H   0  0  0  0  0  0  0  0  0  0  0  0
  -10.3319   20.5757  -31.5849 H   0  0  0  0  0  0  0  0  0  0  0  0
  -10.0511   18.1043  -31.6296 H   0  0  0  0  0  0  0  0  0  0  0  0
   -7.8782   17.1006  -32.2935 H   0  0  0  0  0  0  0  0  0  0  0  0
   -5.5861   16.4159  -32.5973 H   0  0  0  0  0  0  0  0  0  0  0  0
   -6.5053   16.7819  -34.0966 H   0  0  0  0  0  0  0  0  0  0  0  0
   -4.7116   16.8785  -34.0966 H   0  0  0  0  0  0  0  0  0  0  0  0
   -3.1685   17.6403  -33.5461 H   0  0  0  0  0  0  0  0  0  0  0  0
   -1.1989   19.1143  -33.8888 H   0  0  0  0  0  0  0  0  0  0  0  0
   -1.4482   21.5888  -33.7849 H   0  0  0  0  0  0  0  0  0  0  0  0
   -3.6605   22.5993  -33.2733 H   0  0  0  0  0  0  0  0  0  0  0  0
   -3.9494   21.6370  -28.6864 H   0  0  0  0  0  0  0  0  0  0  0  0
   -2.6752   20.9818  -27.5921 H   0  0  0  0  0  0  0  0  0  0  0  0
   -5.0154   23.1889  -27.1874 H   0  0  0  0  0  0  0  0  0  0  0  0
   -4.9066   25.3789  -26.0027 H   0  0  0  0  0  0  0  0  0  0  0  0
   -2.7216   26.5330  -25.6916 H   0  0  0  0  0  0  0  0  0  0  0  0
   -0.7216   23.2793  -27.7346 H   0  0  0  0  0  0  0  0  0  0  0  0
  1  2  1  0
  2  3  1  0
  3  4  1  0
  4  5  1  0
  5  6  1  0
  6  7  1  0
  7  8  1  0
  8  9  1  0
  9 10  1  0
 10 11  1  0
 11 12  2  0
 12 13  1  0
 13 14  2  0
 14 15  1  0
 15 16  2  0
 16 17  1  0
 17 18  1  0
 17 19  2  0
 19 20  1  0
 20 21  2  0
 21 22  1  0
 22 23  2  0
 23 24  1  0
  3 25  1  0
 25 26  1  0
 26 27  2  0
 27 28  1  0
 28 29  2  0
 29 30  1  0
 30 31  1  0
 31 32  2  0
 31 33  1  0
 30 34  2  0
 24 10  2  0
 34 26  1  0
 16 11  1  0
 24 19  1  0
  1 35  1  0
  1 36  1  0
  1 37  1  0
  2 38  1  0
  2 39  1  0
  4 40  1  0
  4 41  1  0
  5 42  1  0
  5 43  1  0
  7 44  1  0
  7 45  1  0
  8 46  1  0
  8 47  1  0
  9 48  1  0
 12 49  1  0
 13 50  1  0
 14 51  1  0
 15 52  1  0
 18 53  1  0
 18 54  1  0
 18 55  1  0
 20 56  1  0
 21 57  1  0
 22 58  1  0
 23 59  1  0
 25 60  1  0
 25 61  1  0
 27 62  1  0
 28 63  1  0
 29 64  1  0
 34 65  1  0
M  CHG  3  17   1  31   1  33  -1
M  END
>  <UniqueID>  (24) 
24

>  <SMILES>  (24) 
CCN(CCOCCNc1c2ccccc2[n+](C)c2ccccc12)Cc1cccc([N+](=O)[O-])c1

>  <Energy>  (24) 
95.88974491216742

>  <Genealogy>  (24) 
CCN(CCOCCNc1c2ccccc2[n+](C)c2ccccc12)Cc1cccc([N+](=O)[O-])c1 (3D coordinates assigned)
CCN(CCOCCNc1c2ccccc2[n+](C)c2ccccc12)Cc1cccc([N+](=O)[O-])c1 (optimized conformer: 95.88974491216742 kcal/mol)

>  <smiles>  (24) 
CCN(CCOCCNc1c2ccccc2[n+](C)c2ccccc12)Cc1cccc([N+](=O)[O-])c1

>  <score_type>  (24) 
oracle

>  <origin>  (24) 
adg

>  <m_score__min__energy>  (24) 
-10.130000000000001

>  <m_primary>  (24) 
energy

$$$$
24:0
     RDKit          3D

 53 55  0  0  0  0  0  0  0  0999 V2000
   -2.5280   24.8360  -26.9880 C   0  0  0  0  0  0  0  0  0  0  0  0
   -1.4750   25.5710  -27.8240 C   0  0  0  0  0  0  0  0  0  0  0  0
   -1.3980   25.0730  -29.2060 N   0  0  0  0  0  0  0  0  0  0  0  0
   -1.8380   23.6760  -29.3300 C   0  0  0  0  0  0  0  0  0  0  0  0
   -3.2330   23.6150  -29.9600 C   0  0  0  0  0  0  0  0  0  0  0  0
   -3.5880   24.8770  -30.4950 O   0  0  0  0  0  0  0  0  0  0  0  0
   -4.9430   25.1960  -30.2400 C   0  0  0  0  0  0  0  0  0  0  0  0
   -5.8390   23.9730  -30.4610 C   0  0  0  0  0  0  0  0  0  0  0  0
   -6.0770   23.7240  -31.9530 C   0  0  0  0  0  0  0  0  0  0  0  0
   -6.1080   22.2830  -32.2280 N   0  0  0  0  0  0  0  0  0  0  0  0
   -7.1900   21.4640  -32.1810 C   0  0  0  0  0  0  0  0  0  0  0  0
   -6.8400   20.1690  -32.5270 C   0  0  0  0  0  0  0  0  0  0  0  0
   -5.5010   20.2110  -32.8510 C   0  0  0  0  0  0  0  0  0  0  0  0
   -4.6410   19.2160  -33.3110 C   0  0  0  0  0  0  0  0  0  0  0  0
   -3.2980   19.5660  -33.5660 C   0  0  0  0  0  0  0  0  0  0  0  0
   -2.3430   18.5350  -34.0900 C   0  0  0  0  0  0  0  0  0  0  0  0
   -2.8720   20.9060  -33.3910 C   0  0  0  0  0  0  0  0  0  0  0  0
   -3.7660   21.8910  -32.9320 C   0  0  0  0  0  0  0  0  0  0  0  0
   -5.0850   21.5080  -32.6610 C   0  0  0  0  0  0  0  0  0  0  0  0
   -7.8120   19.0360  -32.6670 C   0  0  0  0  0  0  0  0  0  0  0  0
   -9.1270   19.3570  -31.9300 C   0  0  0  0  0  0  0  0  0  0  0  0
   -9.6020   20.7970  -32.2080 C   0  0  0  0  0  0  0  0  0  0  0  0
   -8.5730   21.8400  -31.7270 C   0  0  0  0  0  0  0  0  0  0  0  0
   -2.3160   24.9840  -25.9188 H   0  0  0  0  0  0  0  0  0  0  0  0
   -3.5260   25.2347  -27.2225 H   0  0  0  0  0  0  0  0  0  0  0  0
   -2.4979   23.7617  -27.2225 H   0  0  0  0  0  0  0  0  0  0  0  0
   -1.7297   26.6408  -27.8492 H   0  0  0  0  0  0  0  0  0  0  0  0
   -0.4963   25.3967  -27.3532 H   0  0  0  0  0  0  0  0  0  0  0  0
   -1.9960   25.6720  -29.8200 H   0  0  0  0  0  0  0  0  0  0  0  0
   -1.1279   23.1264  -29.9654 H   0  0  0  0  0  0  0  0  0  0  0  0
   -1.8758   23.2213  -28.3291 H   0  0  0  0  0  0  0  0  0  0  0  0
   -3.2345   22.8662  -30.7658 H   0  0  0  0  0  0  0  0  0  0  0  0
   -3.9629   23.3375  -29.1852 H   0  0  0  0  0  0  0  0  0  0  0  0
   -5.0443   25.5341  -29.1982 H   0  0  0  0  0  0  0  0  0  0  0  0
   -5.2548   25.9921  -30.9321 H   0  0  0  0  0  0  0  0  0  0  0  0
   -5.3537   23.0886  -30.0225 H   0  0  0  0  0  0  0  0  0  0  0  0
   -6.8101   24.1608  -29.9797 H   0  0  0  0  0  0  0  0  0  0  0  0
   -7.0382   24.1707  -32.2471 H   0  0  0  0  0  0  0  0  0  0  0  0
   -5.2585   24.1815  -32.5281 H   0  0  0  0  0  0  0  0  0  0  0  0
   -4.9984   18.1880  -33.4707 H   0  0  0  0  0  0  0  0  0  0  0  0
   -1.8633   18.0171  -33.2464 H   0  0  0  0  0  0  0  0  0  0  0  0
   -2.8915   17.8055  -34.7040 H   0  0  0  0  0  0  0  0  0  0  0  0
   -1.5737   19.0262  -34.7040 H   0  0  0  0  0  0  0  0  0  0  0  0
   -1.8306   21.1794  -33.6165 H   0  0  0  0  0  0  0  0  0  0  0  0
   -3.4381   22.9314  -32.7903 H   0  0  0  0  0  0  0  0  0  0  0  0
   -8.0257   18.8724  -33.7336 H   0  0  0  0  0  0  0  0  0  0  0  0
   -7.3689   18.1313  -32.2252 H   0  0  0  0  0  0  0  0  0  0  0  0
   -9.9041   18.6546  -32.2659 H   0  0  0  0  0  0  0  0  0  0  0  0
   -8.9461   19.2591  -30.8494 H   0  0  0  0  0  0  0  0  0  0  0  0
   -9.7543   20.9194  -33.2905 H   0  0  0  0  0  0  0  0  0  0  0  0
  -10.5398   20.9611  -31.6569 H   0  0  0  0  0  0  0  0  0  0  0  0
   -8.8348   22.8246  -32.1416 H   0  0  0  0  0  0  0  0  0  0  0  0
   -8.5892   21.8748  -30.6277 H   0  0  0  0  0  0  0  0  0  0  0  0
  1  2  1  0
  2  3  1  0
  3  4  1  0
  4  5  1  0
  5  6  1  0
  6  7  1  0
  7  8  1  0
  8  9  1  0
  9 10  1  0
 10 11  1  0
 11 12  2  0
 12 13  1  0
 13 14  2  0
 14 15  1  0
 15 16  1  0
 15 17  2  0
 17 18  1  0
 18 19  2  0
 12 20  1  0
 20 21  1  0
 21 22  1  0
 22 23  1  0
 19 10  1  0
 23 11  1  0
 19 13  1  0
  1 24  1  0
  1 25  1  0
  1 26  1  0
  2 27  1  0
  2 28  1  0
  3 29  1  0
  4 30  1  0
  4 31  1  0
  5 32  1  0
  5 33  1  0
  7 34  1  0
  7 35  1  0
  8 36  1  0
  8 37  1  0
  9 38  1  0
  9 39  1  0
 14 40  1  0
 16 41  1  0
 16 42  1  0
 16 43  1  0
 17 44  1  0
 18 45  1  0
 20 46  1  0
 20 47  1  0
 21 48  1  0
 21 49  1  0
 22 50  1  0
 22 51  1  0
 23 52  1  0
 23 53  1  0
M  END
>  <UniqueID>  (25) 
25

>  <SMILES>  (25) 
CCNCCOCCCn1c2c(c3cc(C)ccc31)CCCC2

>  <Energy>  (25) 
80.59484815800876

>  <Genealogy>  (25) 
CCNCCOCCCn1c2c(c3cc(C)ccc31)CCCC2 (3D coordinates assigned)
CCNCCOCCCn1c2c(c3cc(C)ccc31)CCCC2 (nonaromatic ring conformer: 80.59484815800876 kcal/mol)

>  <smiles>  (25) 
CCNCCOCCCn1c2c(c3cc(C)ccc31)CCCC2

>  <score_type>  (25) 
oracle

>  <origin>  (25) 
adg

>  <m_score__min__energy>  (25) 
-9.7300000000000004

>  <m_primary>  (25) 
energy

$$$$
25:0
     RDKit          3D

 44 45  0  0  0  0  0  0  0  0999 V2000
   -2.3420   19.2010  -26.6420 C   0  0  0  0  0  0  0  0  0  0  0  0
   -2.1690   20.6130  -27.1180 C   0  0  0  0  0  0  0  0  0  0  0  0
   -1.0200   21.3410  -26.7720 C   0  0  0  0  0  0  0  0  0  0  0  0
   -0.8470   22.6450  -27.2410 C   0  0  0  0  0  0  0  0  0  0  0  0
   -1.8150   23.2300  -28.0620 C   0  0  0  0  0  0  0  0  0  0  0  0
   -2.9580   22.5040  -28.4350 C   0  0  0  0  0  0  0  0  0  0  0  0
   -3.9450   23.0930  -29.2990 N   0  0  0  0  0  0  0  0  0  0  0  0
   -4.7750   24.1840  -28.7860 C   0  0  0  0  0  0  0  0  0  0  0  0
   -4.1020   22.6110  -30.6790 C   0  0  0  0  0  0  0  0  0  0  0  0
   -5.1600   23.4070  -31.4080 C   0  0  0  0  0  0  0  0  0  0  0  0
   -5.0130   24.6180  -31.5140 O   0  0  0  0  0  0  0  0  0  0  0  0
   -6.3220   22.7680  -32.0050 N   0  0  0  0  0  0  0  0  0  0  0  0
   -6.1560   21.2760  -32.0000 C   0  0  0  0  0  0  0  0  0  0  0  0
   -7.3480   20.4600  -32.5530 C   0  0  0  0  0  0  0  0  0  0  0  0
   -8.5500   20.3070  -31.5920 C   0  0  0  0  0  0  0  0  0  0  0  0
   -9.4610   21.5390  -31.4670 C   0  0  0  0  0  0  0  0  0  0  0  0
   -8.8570   22.8230  -32.0470 C   0  0  0  0  0  0  0  0  0  0  0  0
   -7.5570   23.3040  -31.3760 C   0  0  0  0  0  0  0  0  0  0  0  0
   -3.1270   21.1930  -27.9630 C   0  0  0  0  0  0  0  0  0  0  0  0
   -2.3443   19.1825  -25.5422 H   0  0  0  0  0  0  0  0  0  0  0  0
   -3.2958   18.8018  -27.0174 H   0  0  0  0  0  0  0  0  0  0  0  0
   -1.5128   18.5833  -27.0174 H   0  0  0  0  0  0  0  0  0  0  0  0
   -0.2535   20.8831  -26.1295 H   0  0  0  0  0  0  0  0  0  0  0  0
    0.0532   23.2130  -26.9636 H   0  0  0  0  0  0  0  0  0  0  0  0
   -1.6812   24.2624  -28.4172 H   0  0  0  0  0  0  0  0  0  0  0  0
   -4.7628   24.1680  -27.6862 H   0  0  0  0  0  0  0  0  0  0  0  0
   -4.3782   25.1458  -29.1431 H   0  0  0  0  0  0  0  0  0  0  0  0
   -5.8078   24.0582  -29.1431 H   0  0  0  0  0  0  0  0  0  0  0  0
   -3.1435   22.7150  -31.2086 H   0  0  0  0  0  0  0  0  0  0  0  0
   -4.4113   21.5557  -30.6510 H   0  0  0  0  0  0  0  0  0  0  0  0
   -6.3480   23.0690  -33.0100 H   0  0  0  0  0  0  0  0  0  0  0  0
   -5.2714   21.0336  -32.6073 H   0  0  0  0  0  0  0  0  0  0  0  0
   -6.0666   20.9908  -30.9414 H   0  0  0  0  0  0  0  0  0  0  0  0
   -7.7052   20.9577  -33.4666 H   0  0  0  0  0  0  0  0  0  0  0  0
   -6.9655   19.4429  -32.7242 H   0  0  0  0  0  0  0  0  0  0  0  0
   -9.1639   19.4669  -31.9488 H   0  0  0  0  0  0  0  0  0  0  0  0
   -8.1183   20.1491  -30.5926 H   0  0  0  0  0  0  0  0  0  0  0  0
  -10.4015   21.3289  -31.9975 H   0  0  0  0  0  0  0  0  0  0  0  0
   -9.6113   21.7157  -30.3917 H   0  0  0  0  0  0  0  0  0  0  0  0
   -8.6441   22.6469  -33.1117 H   0  0  0  0  0  0  0  0  0  0  0  0
   -9.6002   23.6143  -31.8693 H   0  0  0  0  0  0  0  0  0  0  0  0
   -7.5249   24.4022  -31.4301 H   0  0  0  0  0  0  0  0  0  0  0  0
   -7.5754   22.9331  -30.3406 H   0  0  0  0  0  0  0  0  0  0  0  0
   -4.0164   20.6166  -28.2576 H   0  0  0  0  0  0  0  0  0  0  0  0
  1  2  1  0
  2  3  2  0
  3  4  1  0
  4  5  2  0
  5  6  1  0
  6  7  1  0
  7  8  1  0
  7  9  1  0
  9 10  1  0
 10 11  2  0
 10 12  1  0
 12 13  1  0
 13 14  1  0
 14 15  1  0
 15 16  1  0
 16 17  1  0
 17 18  1  0
  6 19  2  0
 19  2  1  0
 18 12  1  0
  1 20  1  0
  1 21  1  0
  1 22  1  0
  3 23  1  0
  4 24  1  0
  5 25  1  0
  8 26  1  0
  8 27  1  0
  8 28  1  0
  9 29  1  0
  9 30  1  0
 12 31  1  0
 13 32  1  0
 13 33  1  0
 14 34  1  0
 14 35  1  0
 15 36  1  0
 15 37  1  0
 16 38  1  0
 16 39  1  0
 17 40  1  0
 17 41  1  0
 18 42  1  0
 18 43  1  0
 19 44  1  0
M  CHG  1  12   1
M  END
>  <UniqueID>  (26) 
26

>  <SMILES>  (26) 
Cc1cccc(N(C)CC(=O)[NH+]2CCCCCC2)c1

>  <Energy>  (26) 
58.153258789865625

>  <Genealogy>  (26) 
Cc1cccc(N(C)CC(=O)[NH+]2CCCCCC2)c1 (protonated)
Cc1cccc(N(C)CC(=O)[NH+]2CCCCCC2)c1 (3D coordinates assigned)
Cc1cccc(N(C)CC(=O)[NH+]2CCCCCC2)c1 (nonaromatic ring conformer: 58.153258789865625 kcal/mol)

>  <smiles>  (26) 
Cc1cccc(N(C)CC(=O)N2CCCCCC2)c1

>  <score_type>  (26) 
oracle

>  <origin>  (26) 
adg

>  <m_score__min__energy>  (26) 
-4.4900000000000002

>  <m_primary>  (26) 
energy

$$$$
