0:0
     RDKit          3D

 31 33  0  0  0  0  0  0  0  0999 V2000
   -6.1560   25.1780  -29.3380 C   0  0  0  0  0  0  0  0  0  0  0  0
   -6.4010   24.9130  -31.1110 S   0  0  0  0  0  0  0  0  0  0  0  0
   -5.8900   23.2320  -31.4570 C   0  0  0  0  0  0  0  0  0  0  0  0
   -6.6190   22.2030  -31.9210 N   0  0  0  0  0  0  0  0  0  0  0  0
   -5.8200   21.1360  -32.0260 N   0  0  0  0  0  0  0  0  0  0  0  0
   -6.1930   19.8480  -32.4760 C   0  0  0  0  0  0  0  0  0  0  0  0
   -5.6130   19.3550  -33.6480 C   0  0  0  0  0  0  0  0  0  0  0  0
   -5.9160   18.1250  -34.1490 C   0  0  0  0  0  0  0  0  0  0  0  0
   -6.8350   17.3080  -33.4910 C   0  0  0  0  0  0  0  0  0  0  0  0
   -7.4140   17.7850  -32.3320 C   0  0  0  0  0  0  0  0  0  0  0  0
   -7.1020   19.0480  -31.8190 C   0  0  0  0  0  0  0  0  0  0  0  0
   -4.5750   21.4600  -31.6340 C   0  0  0  0  0  0  0  0  0  0  0  0
   -3.3940   20.8130  -31.5270 N   0  0  0  0  0  0  0  0  0  0  0  0
   -2.2970   21.4510  -31.0830 C   0  0  0  0  0  0  0  0  0  0  0  0
   -1.0170   20.6920  -30.9850 C   0  0  0  0  0  0  0  0  0  0  0  0
   -2.2950   22.7380  -30.7230 N   0  0  0  0  0  0  0  0  0  0  0  0
   -3.4470   23.4270  -30.8110 C   0  0  0  0  0  0  0  0  0  0  0  0
   -3.4350   24.6290  -30.4720 O   0  0  0  0  0  0  0  0  0  0  0  0
   -4.6000   22.7890  -31.2680 C   0  0  0  0  0  0  0  0  0  0  0  0
   -6.7962   24.4855  -28.7718 H   0  0  0  0  0  0  0  0  0  0  0  0
   -5.1019   24.9951  -29.0821 H   0  0  0  0  0  0  0  0  0  0  0  0
   -6.4209   26.2145  -29.0821 H   0  0  0  0  0  0  0  0  0  0  0  0
   -4.8862   19.9823  -34.1849 H   0  0  0  0  0  0  0  0  0  0  0  0
   -5.4349   17.7755  -35.0744 H   0  0  0  0  0  0  0  0  0  0  0  0
   -7.0910   16.3129  -33.8839 H   0  0  0  0  0  0  0  0  0  0  0  0
   -8.1402   17.1547  -31.7978 H   0  0  0  0  0  0  0  0  0  0  0  0
   -7.5808   19.4015  -30.8939 H   0  0  0  0  0  0  0  0  0  0  0  0
   -3.3430   19.8050  -31.7970 H   0  0  0  0  0  0  0  0  0  0  0  0
   -0.7609   20.5401  -29.9261 H   0  0  0  0  0  0  0  0  0  0  0  0
   -1.1311   19.7155  -31.4783 H   0  0  0  0  0  0  0  0  0  0  0  0
   -0.2149   21.2605  -31.4783 H   0  0  0  0  0  0  0  0  0  0  0  0
  1  2  1  0
  2  3  1  0
  3  4  2  0
  4  5  1  0
  5  6  1  0
  6  7  2  0
  7  8  1  0
  8  9  2  0
  9 10  1  0
 10 11  2  0
  5 12  1  0
 12 13  1  0
 13 14  1  0
 14 15  1  0
 14 16  2  0
 16 17  1  0
 17 18  2  0
 17 19  1  0
 19  3  1  0
 11  6  1  0
 19 12  2  0
  1 20  1  0
  1 21  1  0
  1 22  1  0
  7 23  1  0
  8 24  1  0
  9 25  1  0
 10 26  1  0
 11 27  1  0
 13 28  1  0
 15 29  1  0
 15 30  1  0
 15 31  1  0
M  END
>  <smiles>  (1) 
CSc1nn(-c2ccccc2)c2[nH]c(C)nc(=O)c12

>  <score_type>  (1) 
oracle

>  <origin>  (1) 
adg

>  <m_score__min__energy>  (1) 
-6.8899999999999997

>  <m_primary>  (1) 
energy

$$$$
1:0
     RDKit          3D

 75 79  0  0  0  0  0  0  0  0999 V2000
    0.8100   16.8020  -28.4840 C   0  0  0  0  0  0  0  0  0  0  0  0
    0.3620   18.1580  -27.9400 C   0  0  0  0  0  0  0  0  0  0  0  0
    0.8090   19.3270  -28.8370 C   0  0  0  0  0  0  0  0  0  0  0  0
   -0.2130   20.3860  -28.9130 N   0  0  0  0  0  0  0  0  0  0  0  0
   -0.3230   21.3610  -27.8150 C   0  0  0  0  0  0  0  0  0  0  0  0
   -1.6510   21.2300  -27.0480 C   0  0  0  0  0  0  0  0  0  0  0  0
   -1.8980   19.8140  -26.5340 C   0  0  0  0  0  0  0  0  0  0  0  0
   -1.2710   20.2970  -29.8940 C   0  0  0  0  0  0  0  0  0  0  0  0
   -2.4420   20.6450  -29.5720 O   0  0  0  0  0  0  0  0  0  0  0  0
   -1.0090   19.8360  -31.2430 N   0  0  0  0  0  0  0  0  0  0  0  0
    0.1850   20.5150  -31.8110 C   0  0  0  0  0  0  0  0  0  0  0  0
    0.9780   19.6230  -32.7950 C   0  0  0  0  0  0  0  0  0  0  0  0
    0.1030   18.7160  -33.5640 N   0  0  0  0  0  0  0  0  0  0  0  0
   -0.6740   19.4420  -34.5920 C   0  0  0  0  0  0  0  0  0  0  0  0
   -1.9340   20.0250  -34.0040 C   0  0  0  0  0  0  0  0  0  0  0  0
   -1.9660   21.3780  -33.5780 C   0  0  0  0  0  0  0  0  0  0  0  0
   -3.1230   21.9240  -32.9940 C   0  0  0  0  0  0  0  0  0  0  0  0
   -4.2330   21.0920  -32.8250 C   0  0  0  0  0  0  0  0  0  0  0  0
   -4.1940   19.7730  -33.2240 C   0  0  0  0  0  0  0  0  0  0  0  0
   -3.0680   19.2070  -33.8170 C   0  0  0  0  0  0  0  0  0  0  0  0
   -5.4220   19.2370  -32.9110 C   0  0  0  0  0  0  0  0  0  0  0  0
   -5.9390   17.9560  -33.0930 C   0  0  0  0  0  0  0  0  0  0  0  0
   -7.2570   17.7160  -32.6640 C   0  0  0  0  0  0  0  0  0  0  0  0
   -8.0150   18.7470  -32.0700 C   0  0  0  0  0  0  0  0  0  0  0  0
   -7.4680   20.0310  -31.8970 C   0  0  0  0  0  0  0  0  0  0  0  0
   -6.1560   20.2540  -32.3330 C   0  0  0  0  0  0  0  0  0  0  0  0
   -5.4340   21.4030  -32.2730 N   0  0  0  0  0  0  0  0  0  0  0  0
   -5.8860   22.7230  -31.8180 C   0  0  0  0  0  0  0  0  0  0  0  0
   -5.0610   23.1800  -30.6430 C   0  0  0  0  0  0  0  0  0  0  0  0
   -5.3470   22.7080  -29.3510 C   0  0  0  0  0  0  0  0  0  0  0  0
   -4.6010   23.1550  -28.2560 C   0  0  0  0  0  0  0  0  0  0  0  0
   -3.5640   24.0740  -28.4400 C   0  0  0  0  0  0  0  0  0  0  0  0
   -2.6310   24.6350  -27.0630 Cl  0  0  0  0  0  0  0  0  0  0  0  0
   -3.2710   24.5460  -29.7230 C   0  0  0  0  0  0  0  0  0  0  0  0
   -4.0160   24.1020  -30.8210 C   0  0  0  0  0  0  0  0  0  0  0  0
   -0.7370   17.8500  -32.6960 C   0  0  0  0  0  0  0  0  0  0  0  0
   -0.8690   18.3690  -31.2510 C   0  0  0  0  0  0  0  0  0  0  0  0
    1.0333   16.1261  -27.6454 H   0  0  0  0  0  0  0  0  0  0  0  0
    0.0068   16.3702  -29.0991 H   0  0  0  0  0  0  0  0  0  0  0  0
    1.7124   16.9337  -29.0991 H   0  0  0  0  0  0  0  0  0  0  0  0
   -0.7358   18.1656  -27.8707 H   0  0  0  0  0  0  0  0  0  0  0  0
    0.8291   18.2946  -26.9535 H   0  0  0  0  0  0  0  0  0  0  0  0
    1.7350   19.7558  -28.4265 H   0  0  0  0  0  0  0  0  0  0  0  0
    0.9684   18.9348  -29.8523 H   0  0  0  0  0  0  0  0  0  0  0  0
    0.5083   21.1986  -27.1132 H   0  0  0  0  0  0  0  0  0  0  0  0
   -0.2866   22.3686  -28.2549 H   0  0  0  0  0  0  0  0  0  0  0  0
   -1.6307   21.9173  -26.1894 H   0  0  0  0  0  0  0  0  0  0  0  0
   -2.4638   21.4759  -27.7472 H   0  0  0  0  0  0  0  0  0  0  0  0
   -1.8973   19.8179  -25.4340 H   0  0  0  0  0  0  0  0  0  0  0  0
   -2.8721   19.4562  -26.8988 H   0  0  0  0  0  0  0  0  0  0  0  0
   -1.1025   19.1475  -26.8988 H   0  0  0  0  0  0  0  0  0  0  0  0
   -1.8330   20.0650  -31.8420 H   0  0  0  0  0  0  0  0  0  0  0  0
   -0.1464   21.4175  -32.3455 H   0  0  0  0  0  0  0  0  0  0  0  0
    0.8554   20.7563  -30.9730 H   0  0  0  0  0  0  0  0  0  0  0  0
    1.5214   20.2704  -33.4990 H   0  0  0  0  0  0  0  0  0  0  0  0
    1.6670   19.0021  -32.2036 H   0  0  0  0  0  0  0  0  0  0  0  0
   -0.0575   20.2561  -35.0009 H   0  0  0  0  0  0  0  0  0  0  0  0
   -0.9525   18.7339  -35.3864 H   0  0  0  0  0  0  0  0  0  0  0  0
   -1.0738   22.0084  -33.7063 H   0  0  0  0  0  0  0  0  0  0  0  0
   -3.1534   22.9774  -32.6788 H   0  0  0  0  0  0  0  0  0  0  0  0
   -3.0631   18.1526  -34.1305 H   0  0  0  0  0  0  0  0  0  0  0  0
   -5.3374   17.1600  -33.5561 H   0  0  0  0  0  0  0  0  0  0  0  0
   -7.6998   16.7173  -32.7926 H   0  0  0  0  0  0  0  0  0  0  0  0
   -9.0442   18.5445  -31.7388 H   0  0  0  0  0  0  0  0  0  0  0  0
   -8.0542   20.8375  -31.4323 H   0  0  0  0  0  0  0  0  0  0  0  0
   -5.7796   23.4465  -32.6398 H   0  0  0  0  0  0  0  0  0  0  0  0
   -6.9401   22.6549  -31.5111 H   0  0  0  0  0  0  0  0  0  0  0  0
   -6.1611   21.9838  -29.2002 H   0  0  0  0  0  0  0  0  0  0  0  0
   -4.8309   22.7823  -27.2469 H   0  0  0  0  0  0  0  0  0  0  0  0
   -2.4536   25.2674  -29.8694 H   0  0  0  0  0  0  0  0  0  0  0  0
   -3.7824   24.4767  -31.8285 H   0  0  0  0  0  0  0  0  0  0  0  0
   -1.7430   17.7873  -33.1364 H   0  0  0  0  0  0  0  0  0  0  0  0
   -0.2422   16.8690  -32.6429 H   0  0  0  0  0  0  0  0  0  0  0  0
   -1.7565   17.9176  -30.7834 H   0  0  0  0  0  0  0  0  0  0  0  0
    0.0356   18.0937  -30.6889 H   0  0  0  0  0  0  0  0  0  0  0  0
  1  2  1  0
  2  3  1  0
  3  4  1  0
  4  5  1  0
  5  6  1  0
  6  7  1  0
  4  8  1  0
  8  9  2  0
  8 10  1  0
 10 11  1  0
 11 12  1  0
 12 13  1  0
 13 14  1  0
 14 15  1  0
 15 16  2  0
 16 17  1  0
 17 18  2  0
 18 19  1  0
 19 20  2  0
 19 21  1  0
 21 22  2  0
 22 23  1  0
 23 24  2  0
 24 25  1  0
 25 26  2  0
 26 27  1  0
 27 28  1  0
 28 29  1  0
 29 30  2  0
 30 31  1  0
 31 32  2  0
 32 33  1  0
 32 34  1  0
 34 35  2  0
 13 36  1  0
 36 37  1  0
 37 10  1  0
 20 15  1  0
 26 21  1  0
 35 29  1  0
 27 18  1  0
  1 38  1  0
  1 39  1  0
  1 40  1  0
  2 41  1  0
  2 42  1  0
  3 43  1  0
  3 44  1  0
  5 45  1  0
  5 46  1  0
  6 47  1  0
  6 48  1  0
  7 49  1  0
  7 50  1  0
  7 51  1  0
 10 52  1  0
 11 53  1  0
 11 54  1  0
 12 55  1  0
 12 56  1  0
 14 57  1  0
 14 58  1  0
 16 59  1  0
 17 60  1  0
 20 61  1  0
 22 62  1  0
 23 63  1  0
 24 64  1  0
 25 65  1  0
 28 66  1  0
 28 67  1  0
 30 68  1  0
 31 69  1  0
 34 70  1  0
 35 71  1  0
 36 72  1  0
 36 73  1  0
 37 74  1  0
 37 75  1  0
M  CHG  1  10   1
M  END
>  <UniqueID>  (2) 
1

>  <SMILES>  (2) 
CCCN(CCC)C(=O)[NH+]1CCN(Cc2ccc3c(c2)c2ccccc2n3Cc2ccc(Cl)cc2)CC1

>  <Energy>  (2) 
126.9976449344416

>  <Genealogy>  (2) 
CCCN(CCC)C(=O)[NH+]1CCN(Cc2ccc3c(c2)c2ccccc2n3Cc2ccc(Cl)cc2)CC1 (protonated)
CCCN(CCC)C(=O)[NH+]1CCN(Cc2ccc3c(c2)c2ccccc2n3Cc2ccc(Cl)cc2)CC1 (3D coordinates assigned)
CCCN(CCC)C(=O)[NH+]1CCN(Cc2ccc3c(c2)c2ccccc2n3Cc2ccc(Cl)cc2)CC1 (nonaromatic ring conformer: 126.9976449344416 kcal/mol)

>  <smiles>  (2) 
CCCN(CCC)C(=O)N1CCN(Cc2ccc3c(c2)c2ccccc2n3Cc2ccc(Cl)cc2)CC1

>  <score_type>  (2) 
oracle

>  <origin>  (2) 
adg

>  <m_score__min__energy>  (2) 
-9.3900000000000006

>  <m_primary>  (2) 
energy

$$$$
2:0
     RDKit          3D

 49 50  0  0  0  0  0  0  0  0999 V2000
   -6.4100   25.3350  -29.8250 C   0  0  0  0  0  0  0  0  0  0  0  0
   -5.0850   25.6760  -30.5010 C   0  0  0  0  0  0  0  0  0  0  0  0
   -4.3240   24.4420  -30.8010 N   0  0  0  0  0  0  0  0  0  0  0  0
   -3.2880   24.1850  -29.7740 C   0  0  0  0  0  0  0  0  0  0  0  0
   -3.8900   23.5070  -28.5430 C   0  0  0  0  0  0  0  0  0  0  0  0
   -5.2260   23.2700  -30.9600 C   0  0  0  0  0  0  0  0  0  0  0  0
   -5.2660   22.8120  -32.4260 C   0  0  0  0  0  0  0  0  0  0  0  0
   -5.9270   21.4630  -32.5960 C   0  0  0  0  0  0  0  0  0  0  0  0
   -5.1510   20.5330  -33.2170 N   0  0  0  0  0  0  0  0  0  0  0  0
   -5.5510   19.2620  -33.4250 C   0  0  0  0  0  0  0  0  0  0  0  0
   -4.7080   18.3500  -34.0700 C   0  0  0  0  0  0  0  0  0  0  0  0
   -5.1300   17.0330  -34.2710 C   0  0  0  0  0  0  0  0  0  0  0  0
   -6.3930   16.6290  -33.8290 C   0  0  0  0  0  0  0  0  0  0  0  0
   -7.2370   17.5410  -33.1880 C   0  0  0  0  0  0  0  0  0  0  0  0
   -6.8160   18.8670  -32.9820 C   0  0  0  0  0  0  0  0  0  0  0  0
   -7.6220   19.7760  -32.3680 N   0  0  0  0  0  0  0  0  0  0  0  0
   -7.2430   21.0840  -32.1420 C   0  0  0  0  0  0  0  0  0  0  0  0
   -8.2760   22.0790  -31.5130 C   0  0  0  0  0  0  0  0  0  0  0  0
   -9.7360   21.5470  -31.5860 C   0  0  0  0  0  0  0  0  0  0  0  0
   -8.2660   23.4100  -32.2970 C   0  0  0  0  0  0  0  0  0  0  0  0
   -8.0080   22.3240  -30.0070 C   0  0  0  0  0  0  0  0  0  0  0  0
   -6.2835   25.3676  -28.7328 H   0  0  0  0  0  0  0  0  0  0  0  0
   -7.1747   26.0656  -30.1275 H   0  0  0  0  0  0  0  0  0  0  0  0
   -6.7270   24.3260  -30.1275 H   0  0  0  0  0  0  0  0  0  0  0  0
   -5.2851   26.2150  -31.4388 H   0  0  0  0  0  0  0  0  0  0  0  0
   -4.4904   26.3048  -29.8220 H   0  0  0  0  0  0  0  0  0  0  0  0
   -2.5130   23.5316  -30.2011 H   0  0  0  0  0  0  0  0  0  0  0  0
   -2.8548   25.1480  -29.4659 H   0  0  0  0  0  0  0  0  0  0  0  0
   -3.4800   23.9688  -27.6327 H   0  0  0  0  0  0  0  0  0  0  0  0
   -4.9832   23.6285  -28.5553 H   0  0  0  0  0  0  0  0  0  0  0  0
   -3.6400   22.4359  -28.5553 H   0  0  0  0  0  0  0  0  0  0  0  0
   -4.8589   22.4439  -30.3333 H   0  0  0  0  0  0  0  0  0  0  0  0
   -6.2413   23.5601  -30.6517 H   0  0  0  0  0  0  0  0  0  0  0  0
   -5.8264   23.5552  -33.0121 H   0  0  0  0  0  0  0  0  0  0  0  0
   -4.2268   22.7200  -32.7747 H   0  0  0  0  0  0  0  0  0  0  0  0
   -3.7147   18.6693  -34.4183 H   0  0  0  0  0  0  0  0  0  0  0  0
   -4.4684   16.3145  -34.7769 H   0  0  0  0  0  0  0  0  0  0  0  0
   -6.7236   15.5916  -33.9857 H   0  0  0  0  0  0  0  0  0  0  0  0
   -8.2317   17.2209  -32.8443 H   0  0  0  0  0  0  0  0  0  0  0  0
   -8.5560   19.4230  -32.0800 H   0  0  0  0  0  0  0  0  0  0  0  0
  -10.1259   21.4049  -30.5673 H   0  0  0  0  0  0  0  0  0  0  0  0
  -10.3648   22.2738  -32.1212 H   0  0  0  0  0  0  0  0  0  0  0  0
   -9.7498   20.5861  -32.1212 H   0  0  0  0  0  0  0  0  0  0  0  0
   -8.2597   24.2523  -31.5895 H   0  0  0  0  0  0  0  0  0  0  0  0
   -7.3675   23.4560  -32.9299 H   0  0  0  0  0  0  0  0  0  0  0  0
   -9.1637   23.4695  -32.9299 H   0  0  0  0  0  0  0  0  0  0  0  0
   -8.6887   21.7017  -29.4075 H   0  0  0  0  0  0  0  0  0  0  0  0
   -6.9665   22.0592  -29.7721 H   0  0  0  0  0  0  0  0  0  0  0  0
   -8.1785   23.3850  -29.7721 H   0  0  0  0  0  0  0  0  0  0  0  0
  1  2  1  0
  2  3  1  0
  3  4  1  0
  4  5  1  0
  3  6  1  0
  6  7  1  0
  7  8  1  0
  8  9  2  0
  9 10  1  0
 10 11  2  0
 11 12  1  0
 12 13  2  0
 13 14  1  0
 14 15  2  0
 15 16  1  0
 16 17  2  0
 17 18  1  0
 18 19  1  0
 18 20  1  0
 18 21  1  0
 17  8  1  0
 15 10  1  0
  1 22  1  0
  1 23  1  0
  1 24  1  0
  2 25  1  0
  2 26  1  0
  4 27  1  0
  4 28  1  0
  5 29  1  0
  5 30  1  0
  5 31  1  0
  6 32  1  0
  6 33  1  0
  7 34  1  0
  7 35  1  0
 11 36  1  0
 12 37  1  0
 13 38  1  0
 14 39  1  0
 16 40  1  0
 19 41  1  0
 19 42  1  0
 19 43  1  0
 20 44  1  0
 20 45  1  0
 20 46  1  0
 21 47  1  0
 21 48  1  0
 21 49  1  0
M  CHG  1  16   1
M  END
>  <UniqueID>  (3) 
2

>  <SMILES>  (3) 
CCN(CC)CCc1nc2ccccc2[nH+]c1C(C)(C)C

>  <Energy>  (3) 
62.389844317372315

>  <Genealogy>  (3) 
CCN(CC)CCc1nc2ccccc2[nH+]c1C(C)(C)C (protonated)
CCN(CC)CCc1nc2ccccc2[nH+]c1C(C)(C)C (3D coordinates assigned)
CCN(CC)CCc1nc2ccccc2[nH+]c1C(C)(C)C (optimized conformer: 62.389844317372315 kcal/mol)

>  <smiles>  (3) 
CCN(CC)CCc1nc2ccccc2nc1C(C)(C)C

>  <score_type>  (3) 
oracle

>  <origin>  (3) 
adg

>  <m_score__min__energy>  (3) 
-7.5899999999999999

>  <m_primary>  (3) 
energy

$$$$
3:0
     RDKit          3D

 38 40  0  0  0  0  0  0  0  0999 V2000
   -2.0260   21.5350  -32.2490 C   0  0  0  0  0  0  0  0  0  0  0  0
   -3.2310   22.2690  -32.4380 O   0  0  0  0  0  0  0  0  0  0  0  0
   -4.5180   21.7060  -32.4100 C   0  0  0  0  0  0  0  0  0  0  0  0
   -4.7390   20.3370  -32.6450 C   0  0  0  0  0  0  0  0  0  0  0  0
   -6.0310   19.8120  -32.6160 C   0  0  0  0  0  0  0  0  0  0  0  0
   -7.1250   20.6400  -32.3310 C   0  0  0  0  0  0  0  0  0  0  0  0
   -8.4210   20.1050  -32.2780 C   0  0  0  0  0  0  0  0  0  0  0  0
   -9.5080   20.9260  -31.9670 C   0  0  0  0  0  0  0  0  0  0  0  0
   -9.3090   22.2810  -31.6990 C   0  0  0  0  0  0  0  0  0  0  0  0
   -8.0240   22.8280  -31.7510 C   0  0  0  0  0  0  0  0  0  0  0  0
   -6.9180   22.0210  -32.0830 C   0  0  0  0  0  0  0  0  0  0  0  0
   -5.6080   22.5500  -32.1490 C   0  0  0  0  0  0  0  0  0  0  0  0
   -5.3630   23.9130  -31.9460 O   0  0  0  0  0  0  0  0  0  0  0  0
   -4.7820   24.4130  -30.7750 C   0  0  0  0  0  0  0  0  0  0  0  0
   -3.9030   25.3160  -30.8270 O   0  0  0  0  0  0  0  0  0  0  0  0
   -5.2550   23.9080  -29.4510 C   0  0  0  0  0  0  0  0  0  0  0  0
   -4.0910   23.3450  -28.6840 C   0  0  0  0  0  0  0  0  0  0  0  0
   -3.3950   24.1460  -27.7630 C   0  0  0  0  0  0  0  0  0  0  0  0
   -2.2760   23.6410  -27.0940 C   0  0  0  0  0  0  0  0  0  0  0  0
   -1.8380   22.3380  -27.3460 C   0  0  0  0  0  0  0  0  0  0  0  0
   -2.5160   21.5400  -28.2710 C   0  0  0  0  0  0  0  0  0  0  0  0
   -3.6360   22.0410  -28.9420 C   0  0  0  0  0  0  0  0  0  0  0  0
   -1.8332   21.4176  -31.1724 H   0  0  0  0  0  0  0  0  0  0  0  0
   -2.1241   20.5431  -32.7143 H   0  0  0  0  0  0  0  0  0  0  0  0
   -1.1896   22.0772  -32.7143 H   0  0  0  0  0  0  0  0  0  0  0  0
   -3.8858   19.6747  -32.8534 H   0  0  0  0  0  0  0  0  0  0  0  0
   -6.1919   18.7427  -32.8179 H   0  0  0  0  0  0  0  0  0  0  0  0
   -8.5818   19.0361  -32.4819 H   0  0  0  0  0  0  0  0  0  0  0  0
  -10.5230   20.5033  -31.9333 H   0  0  0  0  0  0  0  0  0  0  0  0
  -10.1670   22.9211  -31.4458 H   0  0  0  0  0  0  0  0  0  0  0  0
   -7.8752   23.8955  -31.5313 H   0  0  0  0  0  0  0  0  0  0  0  0
   -5.7032   24.7357  -28.8818 H   0  0  0  0  0  0  0  0  0  0  0  0
   -6.0069   23.1203  -29.6065 H   0  0  0  0  0  0  0  0  0  0  0  0
   -3.7319   25.1747  -27.5675 H   0  0  0  0  0  0  0  0  0  0  0  0
   -1.7396   24.2701  -26.3683 H   0  0  0  0  0  0  0  0  0  0  0  0
   -0.9596   21.9408  -26.8162 H   0  0  0  0  0  0  0  0  0  0  0  0
   -2.1682   20.5159  -28.4718 H   0  0  0  0  0  0  0  0  0  0  0  0
   -4.1627   21.4118  -29.6746 H   0  0  0  0  0  0  0  0  0  0  0  0
  1  2  1  0
  2  3  1  0
  3  4  2  0
  4  5  1  0
  5  6  2  0
  6  7  1  0
  7  8  2  0
  8  9  1  0
  9 10  2  0
 10 11  1  0
 11 12  2  0
 12 13  1  0
 13 14  1  0
 14 15  2  0
 14 16  1  0
 16 17  1  0
 17 18  2  0
 18 19  1  0
 19 20  2  0
 20 21  1  0
 21 22  2  0
 12  3  1  0
 22 17  1  0
 11  6  1  0
  1 23  1  0
  1 24  1  0
  1 25  1  0
  4 26  1  0
  5 27  1  0
  7 28  1  0
  8 29  1  0
  9 30  1  0
 10 31  1  0
 16 32  1  0
 16 33  1  0
 18 34  1  0
 19 35  1  0
 20 36  1  0
 21 37  1  0
 22 38  1  0
M  END
>  <UniqueID>  (4) 
3

>  <SMILES>  (4) 
COc1ccc2ccccc2c1OC(=O)Cc1ccccc1

>  <Energy>  (4) 
48.275034640364964

>  <Genealogy>  (4) 
COc1ccc2ccccc2c1OC(=O)Cc1ccccc1 (3D coordinates assigned)
COc1ccc2ccccc2c1OC(=O)Cc1ccccc1 (optimized conformer: 48.275034640364964 kcal/mol)

>  <smiles>  (4) 
COc1ccc2ccccc2c1OC(=O)Cc1ccccc1

>  <score_type>  (4) 
oracle

>  <origin>  (4) 
adg

>  <m_score__min__energy>  (4) 
-8.6400000000000006

>  <m_primary>  (4) 
energy

$$$$
4:0
     RDKit          3D

 40 42  0  0  0  0  0  0  0  0999 V2000
   -5.0276   13.1624  -33.8172 H   0  0  0  0  0  0  0  0  0  0  0  0
   -5.3630   14.1830  -33.5810 C   0  0  0  0  0  0  0  0  0  0  0  0
   -4.6690   14.9470  -32.6400 C   0  0  0  0  0  0  0  0  0  0  0  0
   -3.7868   14.5264  -32.1352 H   0  0  0  0  0  0  0  0  0  0  0  0
   -5.0920   16.2440  -32.3380 C   0  0  0  0  0  0  0  0  0  0  0  0
   -4.5406   16.8399  -31.5958 H   0  0  0  0  0  0  0  0  0  0  0  0
   -6.2200   16.7930  -32.9780 C   0  0  0  0  0  0  0  0  0  0  0  0
   -6.6710   18.1720  -32.6590 C   0  0  0  0  0  0  0  0  0  0  0  0
   -7.8480   18.3880  -31.9190 C   0  0  0  0  0  0  0  0  0  0  0  0
   -8.4412   17.5283  -31.5741 H   0  0  0  0  0  0  0  0  0  0  0  0
   -8.2690   19.6850  -31.6190 C   0  0  0  0  0  0  0  0  0  0  0  0
   -9.1920   19.8410  -31.0413 H   0  0  0  0  0  0  0  0  0  0  0  0
   -7.5220   20.7880  -32.0500 C   0  0  0  0  0  0  0  0  0  0  0  0
   -8.0430   22.4250  -31.6620 S   0  0  0  0  0  0  0  0  0  0  0  0
   -9.5430   22.5010  -31.5840 O   0  0  0  0  0  0  0  0  0  0  0  0
   -7.5630   23.3530  -32.7400 O   0  0  0  0  0  0  0  0  0  0  0  0
   -7.3680   22.9260  -30.1420 N   0  0  0  0  0  0  0  0  0  0  0  0
   -6.2060   23.4880  -29.9610 C   0  0  0  0  0  0  0  0  0  0  0  0
   -5.3780   22.9950  -28.9460 C   0  0  0  0  0  0  0  0  0  0  0  0
   -5.7081   22.1472  -28.3277 H   0  0  0  0  0  0  0  0  0  0  0  0
   -4.1330   23.5820  -28.7210 C   0  0  0  0  0  0  0  0  0  0  0  0
   -3.4797   23.1983  -27.9235 H   0  0  0  0  0  0  0  0  0  0  0  0
   -3.7140   24.6630  -29.5130 C   0  0  0  0  0  0  0  0  0  0  0  0
   -2.4750   25.2960  -29.3360 O   0  0  0  0  0  0  0  0  0  0  0  0
   -1.5310   24.9450  -28.3290 C   0  0  0  0  0  0  0  0  0  0  0  0
   -1.9753   25.1102  -27.3364 H   0  0  0  0  0  0  0  0  0  0  0  0
   -1.2573   23.8850  -28.4364 H   0  0  0  0  0  0  0  0  0  0  0  0
   -0.6313   25.5687  -28.4364 H   0  0  0  0  0  0  0  0  0  0  0  0
   -4.5670   25.1240  -30.5190 C   0  0  0  0  0  0  0  0  0  0  0  0
   -4.2555   25.9687  -31.1511 H   0  0  0  0  0  0  0  0  0  0  0  0
   -5.7790   24.5400  -30.7260 N   0  0  0  0  0  0  0  0  0  0  0  0
   -6.3660   24.9300  -31.4950 H   0  0  0  0  0  0  0  0  0  0  0  0
   -6.3530   20.5830  -32.7920 C   0  0  0  0  0  0  0  0  0  0  0  0
   -5.7655   21.4462  -33.1381 H   0  0  0  0  0  0  0  0  0  0  0  0
   -5.9290   19.2860  -33.0950 C   0  0  0  0  0  0  0  0  0  0  0  0
   -5.0088   19.1347  -33.6784 H   0  0  0  0  0  0  0  0  0  0  0  0
   -6.9110   16.0140  -33.9240 C   0  0  0  0  0  0  0  0  0  0  0  0
   -7.7937   16.4287  -34.4328 H   0  0  0  0  0  0  0  0  0  0  0  0
   -6.4840   14.7170  -34.2220 C   0  0  0  0  0  0  0  0  0  0  0  0
   -7.0314   14.1154  -34.9625 H   0  0  0  0  0  0  0  0  0  0  0  0
  1  2  1  0
  2  3  2  0
  3  4  1  0
  3  5  1  0
  5  6  1  0
  5  7  2  0
  7  8  1  0
  8  9  2  0
  9 10  1  0
  9 11  1  0
 11 12  1  0
 11 13  2  0
 13 14  1  0
 14 15  2  0
 14 16  2  0
 14 17  1  0
 17 18  2  0
 18 19  1  0
 19 20  1  0
 19 21  2  0
 21 22  1  0
 21 23  1  0
 23 24  1  0
 24 25  1  0
 25 26  1  0
 25 27  1  0
 25 28  1  0
 23 29  2  0
 29 30  1  0
 29 31  1  0
 31 32  1  0
 13 33  1  0
 33 34  1  0
 33 35  2  0
 35 36  1  0
  7 37  1  0
 37 38  1  0
 37 39  2  0
 39 40  1  0
 39  2  1  0
 35  8  1  0
 31 18  1  0
M  END
>  <UniqueID>  (5) 
4

>  <SMILES>  (5) 
COc1cc/c(=N/S(=O)(=O)c2ccc(-c3ccccc3)cc2)[nH]c1

>  <Energy>  (5) 
52.32476664245226

>  <Genealogy>  (5) 
COc1cc/c(=N/S(=O)(=O)c2ccc(-c3ccccc3)cc2)[nH]c1 (cis-trans isomerization)
COc1cc/c(=N/S(=O)(=O)c2ccc(-c3ccccc3)cc2)[nH]c1 (3D coordinates assigned)
COc1cc/c(=N/S(=O)(=O)c2ccc(-c3ccccc3)cc2)[nH]c1 (optimized conformer: 52.32476664245226 kcal/mol)

>  <smiles>  (5) 
COc1ccc(=NS(=O)(=O)c2ccc(-c3ccccc3)cc2)[nH]c1

>  <score_type>  (5) 
oracle

>  <origin>  (5) 
adg

>  <m_score__min__energy>  (5) 
-9.25

>  <m_primary>  (5) 
energy

$$$$
5:0
     RDKit          3D

 77 82  0  0  0  0  0  0  0  0999 V2000
    0.7740   20.9590  -34.4660 C   0  0  0  0  0  0  0  0  0  0  0  0
   -0.1160   20.5820  -33.4230 O   0  0  0  0  0  0  0  0  0  0  0  0
   -1.1550   19.6450  -33.5590 C   0  0  0  0  0  0  0  0  0  0  0  0
   -0.9510   18.4170  -34.1990 C   0  0  0  0  0  0  0  0  0  0  0  0
   -1.9930   17.4960  -34.3220 C   0  0  0  0  0  0  0  0  0  0  0  0
   -1.7210   16.2670  -34.8540 N   0  0  0  0  0  0  0  0  0  0  0  0
   -2.6690   15.2940  -34.9720 C   0  0  0  0  0  0  0  0  0  0  0  0
   -3.9570   15.5790  -34.5400 C   0  0  0  0  0  0  0  0  0  0  0  0
   -4.3120   16.8210  -34.0440 C   0  0  0  0  0  0  0  0  0  0  0  0
   -3.3100   17.8250  -33.8820 C   0  0  0  0  0  0  0  0  0  0  0  0
   -3.5000   19.0720  -33.2590 C   0  0  0  0  0  0  0  0  0  0  0  0
   -2.4250   19.9510  -33.0400 C   0  0  0  0  0  0  0  0  0  0  0  0
   -2.6200   21.1530  -32.1920 C   0  0  0  0  0  0  0  0  0  0  0  0
   -1.5860   21.5890  -31.3480 C   0  0  0  0  0  0  0  0  0  0  0  0
   -1.7680   22.6860  -30.5050 C   0  0  0  0  0  0  0  0  0  0  0  0
   -3.0010   23.3610  -30.4730 C   0  0  0  0  0  0  0  0  0  0  0  0
   -3.2540   24.4200  -29.5830 O   0  0  0  0  0  0  0  0  0  0  0  0
   -2.7140   24.5340  -28.2630 C   0  0  0  0  0  0  0  0  0  0  0  0
   -3.1410   23.3330  -27.4130 C   0  0  0  0  0  0  0  0  0  0  0  0
   -1.9420   22.4450  -27.0360 C   0  0  0  0  0  0  0  0  0  0  0  0
   -1.8260   21.2380  -27.8830 N   0  0  0  0  0  0  0  0  0  0  0  0
   -3.0400   20.3890  -27.9580 C   0  0  0  0  0  0  0  0  0  0  0  0
   -3.0380   19.1970  -26.9730 C   0  0  0  0  0  0  0  0  0  0  0  0
   -1.6520   18.5660  -26.7510 C   0  0  0  0  0  0  0  0  0  0  0  0
   -0.6420   19.0130  -27.8050 C   0  0  0  0  0  0  0  0  0  0  0  0
   -0.5190   20.5420  -27.7790 C   0  0  0  0  0  0  0  0  0  0  0  0
   -4.0160   22.9540  -31.3500 C   0  0  0  0  0  0  0  0  0  0  0  0
   -3.8280   21.8610  -32.2030 C   0  0  0  0  0  0  0  0  0  0  0  0
   -5.6620   16.8030  -33.7960 N   0  0  0  0  0  0  0  0  0  0  0  0
   -6.6360   17.8710  -33.4630 C   0  0  0  0  0  0  0  0  0  0  0  0
   -6.2870   19.2070  -34.1670 C   0  0  0  0  0  0  0  0  0  0  0  0
   -6.9090   20.4300  -33.4680 C   0  0  0  0  0  0  0  0  0  0  0  0
   -7.9610   20.0610  -32.5910 O   0  0  0  0  0  0  0  0  0  0  0  0
   -7.4270   19.3260  -31.5050 C   0  0  0  0  0  0  0  0  0  0  0  0
   -6.9380   17.9370  -31.9480 C   0  0  0  0  0  0  0  0  0  0  0  0
   -6.0370   15.5320  -34.1180 C   0  0  0  0  0  0  0  0  0  0  0  0
   -7.2210   15.1080  -34.0230 O   0  0  0  0  0  0  0  0  0  0  0  0
   -5.0220   14.7630  -34.5600 N   0  0  0  0  0  0  0  0  0  0  0  0
   -5.0890   13.3860  -35.0450 C   0  0  0  0  0  0  0  0  0  0  0  0
    1.7039   21.3529  -34.0300 H   0  0  0  0  0  0  0  0  0  0  0  0
    1.0036   20.0809  -35.0874 H   0  0  0  0  0  0  0  0  0  0  0  0
    0.3030   21.7349  -35.0874 H   0  0  0  0  0  0  0  0  0  0  0  0
    0.0405   18.1751  -34.6093 H   0  0  0  0  0  0  0  0  0  0  0  0
   -2.4200   14.3107  -35.3976 H   0  0  0  0  0  0  0  0  0  0  0  0
   -4.5101   19.3651  -32.9368 H   0  0  0  0  0  0  0  0  0  0  0  0
   -0.6216   21.0598  -31.3514 H   0  0  0  0  0  0  0  0  0  0  0  0
   -0.9423   23.0246  -29.8619 H   0  0  0  0  0  0  0  0  0  0  0  0
   -1.6160   24.5666  -28.3208 H   0  0  0  0  0  0  0  0  0  0  0  0
   -3.0923   25.4564  -27.7981 H   0  0  0  0  0  0  0  0  0  0  0  0
   -3.6161   23.7000  -26.4913 H   0  0  0  0  0  0  0  0  0  0  0  0
   -3.8427   22.7271  -28.0050 H   0  0  0  0  0  0  0  0  0  0  0  0
   -1.0209   23.0369  -27.1417 H   0  0  0  0  0  0  0  0  0  0  0  0
   -2.0969   22.1062  -26.0010 H   0  0  0  0  0  0  0  0  0  0  0  0
   -3.9154   21.0176  -27.7379 H   0  0  0  0  0  0  0  0  0  0  0  0
   -3.0673   19.9630  -28.9718 H   0  0  0  0  0  0  0  0  0  0  0  0
   -3.4158   19.5507  -26.0023 H   0  0  0  0  0  0  0  0  0  0  0  0
   -3.6733   18.4172  -27.4183 H   0  0  0  0  0  0  0  0  0  0  0  0
   -1.2826   18.8616  -25.7579 H   0  0  0  0  0  0  0  0  0  0  0  0
   -1.7607   17.4741  -26.8276 H   0  0  0  0  0  0  0  0  0  0  0  0
    0.3379   18.5625  -27.5883 H   0  0  0  0  0  0  0  0  0  0  0  0
   -0.9823   18.6893  -28.7997 H   0  0  0  0  0  0  0  0  0  0  0  0
   -0.0402   20.8377  -26.8339 H   0  0  0  0  0  0  0  0  0  0  0  0
    0.0773   20.8359  -28.6554 H   0  0  0  0  0  0  0  0  0  0  0  0
   -4.9708   23.4999  -31.3678 H   0  0  0  0  0  0  0  0  0  0  0  0
   -4.6341   21.5560  -32.8865 H   0  0  0  0  0  0  0  0  0  0  0  0
   -7.6141   17.6079  -33.8920 H   0  0  0  0  0  0  0  0  0  0  0  0
   -5.1934   19.3250  -34.1746 H   0  0  0  0  0  0  0  0  0  0  0  0
   -6.6997   19.1623  -35.1857 H   0  0  0  0  0  0  0  0  0  0  0  0
   -6.1276   20.9441  -32.8892 H   0  0  0  0  0  0  0  0  0  0  0  0
   -7.3273   21.0889  -34.2431 H   0  0  0  0  0  0  0  0  0  0  0  0
   -6.5800   19.8835  -31.0787 H   0  0  0  0  0  0  0  0  0  0  0  0
   -8.2226   19.1887  -30.7579 H   0  0  0  0  0  0  0  0  0  0  0  0
   -6.0193   17.6933  -31.3942 H   0  0  0  0  0  0  0  0  0  0  0  0
   -7.7415   17.2164  -31.7356 H   0  0  0  0  0  0  0  0  0  0  0  0
   -5.1225   12.6968  -34.1884 H   0  0  0  0  0  0  0  0  0  0  0  0
   -5.9945   13.2560  -35.6558 H   0  0  0  0  0  0  0  0  0  0  0  0
   -4.2004   13.1688  -35.6558 H   0  0  0  0  0  0  0  0  0  0  0  0
  1  2  1  0
  2  3  1  0
  3  4  2  0
  4  5  1  0
  5  6  2  0
  6  7  1  0
  7  8  2  0
  8  9  1  0
  9 10  2  0
 10 11  1  0
 11 12  2  0
 12 13  1  0
 13 14  2  0
 14 15  1  0
 15 16  2  0
 16 17  1  0
 17 18  1  0
 18 19  1  0
 19 20  1  0
 20 21  1  0
 21 22  1  0
 22 23  1  0
 23 24  1  0
 24 25  1  0
 25 26  1  0
 16 27  1  0
 27 28  2  0
  9 29  1  0
 29 30  1  0
 30 31  1  0
 31 32  1  0
 32 33  1  0
 33 34  1  0
 34 35  1  0
 29 36  1  0
 36 37  2  0
 36 38  1  0
 38 39  1  0
 12  3  1  0
 28 13  1  0
 35 30  1  0
 10  5  1  0
 26 21  1  0
 38  8  1  0
  1 40  1  0
  1 41  1  0
  1 42  1  0
  4 43  1  0
  7 44  1  0
 11 45  1  0
 14 46  1  0
 15 47  1  0
 18 48  1  0
 18 49  1  0
 19 50  1  0
 19 51  1  0
 20 52  1  0
 20 53  1  0
 22 54  1  0
 22 55  1  0
 23 56  1  0
 23 57  1  0
 24 58  1  0
 24 59  1  0
 25 60  1  0
 25 61  1  0
 26 62  1  0
 26 63  1  0
 27 64  1  0
 28 65  1  0
 30 66  1  0
 31 67  1  0
 31 68  1  0
 32 69  1  0
 32 70  1  0
 34 71  1  0
 34 72  1  0
 35 73  1  0
 35 74  1  0
 39 75  1  0
 39 76  1  0
 39 77  1  0
M  END
>  <UniqueID>  (6) 
5

>  <SMILES>  (6) 
COc1cc2ncc3c(c2cc1-c1ccc(OCCCN2CCCCC2)cc1)n(C1CCOCC1)c(=O)n3C

>  <Energy>  (6) 
162.8835535926047

>  <Genealogy>  (6) 
COc1cc2ncc3c(c2cc1-c1ccc(OCCCN2CCCCC2)cc1)n(C1CCOCC1)c(=O)n3C (3D coordinates assigned)
COc1cc2ncc3c(c2cc1-c1ccc(OCCCN2CCCCC2)cc1)n(C1CCOCC1)c(=O)n3C (nonaromatic ring conformer: 162.8835535926047 kcal/mol)

>  <smiles>  (6) 
COc1cc2ncc3c(c2cc1-c1ccc(OCCCN2CCCCC2)cc1)n(C1CCOCC1)c(=O)n3C

>  <score_type>  (6) 
oracle

>  <origin>  (6) 
adg

>  <m_score__min__energy>  (6) 
-9.8900000000000006

>  <m_primary>  (6) 
energy

$$$$
6:0
     RDKit          3D

 61 64  0  0  0  0  0  0  0  0999 V2000
   -3.4690   19.7300  -33.3750 C   0  0  0  0  0  0  0  0  0  0  0  0
   -2.7850   19.7480  -32.1260 O   0  0  0  0  0  0  0  0  0  0  0  0
   -2.4280   20.9150  -31.4300 C   0  0  0  0  0  0  0  0  0  0  0  0
   -3.2840   22.0320  -31.3500 C   0  0  0  0  0  0  0  0  0  0  0  0
   -2.8820   23.1700  -30.6350 C   0  0  0  0  0  0  0  0  0  0  0  0
   -3.7840   24.3280  -30.4780 C   0  0  0  0  0  0  0  0  0  0  0  0
   -3.4440   25.2830  -29.7270 O   0  0  0  0  0  0  0  0  0  0  0  0
   -5.0010   24.4430  -31.2240 N   0  0  0  0  0  0  0  0  0  0  0  0
   -6.2510   23.7620  -30.8990 C   0  0  0  0  0  0  0  0  0  0  0  0
   -6.7770   22.9950  -32.1170 C   0  0  0  0  0  0  0  0  0  0  0  0
   -6.6260   21.4790  -31.9380 C   0  0  0  0  0  0  0  0  0  0  0  0
   -7.5040   20.7570  -32.8870 N   0  0  0  0  0  0  0  0  0  0  0  0
   -6.8260   19.5970  -33.5000 C   0  0  0  0  0  0  0  0  0  0  0  0
   -6.5630   18.4670  -32.4850 C   0  0  0  0  0  0  0  0  0  0  0  0
   -7.7060   18.3050  -31.4690 C   0  0  0  0  0  0  0  0  0  0  0  0
   -9.0080   18.9130  -31.9850 C   0  0  0  0  0  0  0  0  0  0  0  0
   -8.8300   20.4110  -32.3100 C   0  0  0  0  0  0  0  0  0  0  0  0
   -1.6720   23.1760  -30.0160 N   0  0  0  0  0  0  0  0  0  0  0  0
   -0.8230   22.1180  -30.0760 C   0  0  0  0  0  0  0  0  0  0  0  0
   -1.1840   20.9600  -30.7770 C   0  0  0  0  0  0  0  0  0  0  0  0
   -0.2590   19.8050  -30.8140 C   0  0  0  0  0  0  0  0  0  0  0  0
   -0.0540   19.0570  -29.6440 C   0  0  0  0  0  0  0  0  0  0  0  0
    0.7730   17.9320  -29.6590 C   0  0  0  0  0  0  0  0  0  0  0  0
    1.0160   17.0020  -28.1930 Cl  0  0  0  0  0  0  0  0  0  0  0  0
    1.4070   17.5470  -30.8400 C   0  0  0  0  0  0  0  0  0  0  0  0
    1.2220   18.2860  -32.0110 C   0  0  0  0  0  0  0  0  0  0  0  0
    1.8830   17.9150  -33.1380 F   0  0  0  0  0  0  0  0  0  0  0  0
    0.3870   19.4160  -32.0110 C   0  0  0  0  0  0  0  0  0  0  0  0
    0.2630   20.2220  -33.2400 C   0  0  0  0  0  0  0  0  0  0  0  0
    0.5130   21.5430  -33.2850 N   0  0  0  0  0  0  0  0  0  0  0  0
    0.2470   21.9440  -34.5200 N   0  0  0  0  0  0  0  0  0  0  0  0
   -0.1680   20.8640  -35.2080 C   0  0  0  0  0  0  0  0  0  0  0  0
   -0.1540   19.7630  -34.4360 N   0  0  0  0  0  0  0  0  0  0  0  0
   -0.7200   18.4610  -34.7640 C   0  0  0  0  0  0  0  0  0  0  0  0
   -4.5543   19.7014  -33.1983 H   0  0  0  0  0  0  0  0  0  0  0  0
   -3.2141   20.6352  -33.9457 H   0  0  0  0  0  0  0  0  0  0  0  0
   -3.1669   18.8395  -33.9457 H   0  0  0  0  0  0  0  0  0  0  0  0
   -4.2650   22.0114  -31.8471 H   0  0  0  0  0  0  0  0  0  0  0  0
   -6.0745   23.0552  -30.0748 H   0  0  0  0  0  0  0  0  0  0  0  0
   -6.9981   24.5126  -30.6016 H   0  0  0  0  0  0  0  0  0  0  0  0
   -7.8417   23.2337  -32.2567 H   0  0  0  0  0  0  0  0  0  0  0  0
   -6.1880   23.2981  -32.9952 H   0  0  0  0  0  0  0  0  0  0  0  0
   -5.5798   21.1945  -32.1240 H   0  0  0  0  0  0  0  0  0  0  0  0
   -6.9139   21.2106  -30.9108 H   0  0  0  0  0  0  0  0  0  0  0  0
   -7.4593   19.2047  -34.3094 H   0  0  0  0  0  0  0  0  0  0  0  0
   -5.8525   19.9397  -33.8805 H   0  0  0  0  0  0  0  0  0  0  0  0
   -6.4434   17.5214  -33.0341 H   0  0  0  0  0  0  0  0  0  0  0  0
   -5.6539   18.7289  -31.9239 H   0  0  0  0  0  0  0  0  0  0  0  0
   -7.8639   17.2334  -31.2774 H   0  0  0  0  0  0  0  0  0  0  0  0
   -7.4227   18.8319  -30.5459 H   0  0  0  0  0  0  0  0  0  0  0  0
   -9.3161   18.3814  -32.8974 H   0  0  0  0  0  0  0  0  0  0  0  0
   -9.7747   18.8135  -31.2025 H   0  0  0  0  0  0  0  0  0  0  0  0
   -9.6069   20.7018  -33.0324 H   0  0  0  0  0  0  0  0  0  0  0  0
   -8.9103   20.9527  -31.3560 H   0  0  0  0  0  0  0  0  0  0  0  0
    0.1532   22.1704  -29.5716 H   0  0  0  0  0  0  0  0  0  0  0  0
   -0.5482   19.3592  -28.7089 H   0  0  0  0  0  0  0  0  0  0  0  0
    2.0551   16.6582  -30.8495 H   0  0  0  0  0  0  0  0  0  0  0  0
   -0.4779   20.8800  -36.2633 H   0  0  0  0  0  0  0  0  0  0  0  0
   -0.9555   17.9193  -33.8361 H   0  0  0  0  0  0  0  0  0  0  0  0
   -1.6396   18.5985  -35.3518 H   0  0  0  0  0  0  0  0  0  0  0  0
    0.0078   17.8823  -35.3518 H   0  0  0  0  0  0  0  0  0  0  0  0
  1  2  1  0
  2  3  1  0
  3  4  2  0
  4  5  1  0
  5  6  1  0
  6  7  2  0
  6  8  1  0
  8  9  1  0
  9 10  1  0
 10 11  1  0
 11 12  1  0
 12 13  1  0
 13 14  1  0
 14 15  1  0
 15 16  1  0
 16 17  1  0
  5 18  2  0
 18 19  1  0
 19 20  2  0
 20 21  1  0
 21 22  2  0
 22 23  1  0
 23 24  1  0
 23 25  2  0
 25 26  1  0
 26 27  1  0
 26 28  2  0
 28 29  1  0
 29 30  2  0
 30 31  1  0
 31 32  2  0
 32 33  1  0
 33 34  1  0
 20  3  1  0
 28 21  1  0
 33 29  1  0
 17 12  1  0
  1 35  1  0
  1 36  1  0
  1 37  1  0
  4 38  1  0
  9 39  1  0
  9 40  1  0
 10 41  1  0
 10 42  1  0
 11 43  1  0
 11 44  1  0
 13 45  1  0
 13 46  1  0
 14 47  1  0
 14 48  1  0
 15 49  1  0
 15 50  1  0
 16 51  1  0
 16 52  1  0
 17 53  1  0
 17 54  1  0
 19 55  1  0
 22 56  1  0
 25 57  1  0
 32 58  1  0
 34 59  1  0
 34 60  1  0
 34 61  1  0
M  CHG  1   8  -1
M  END
>  <UniqueID>  (7) 
6

>  <SMILES>  (7) 
COc1cc(C(=O)[N-]CCCN2CCCCC2)ncc1-c1cc(Cl)cc(F)c1-c1nncn1C

>  <Energy>  (7) 
120.6385940211764

>  <Genealogy>  (7) 
COc1cc(C(=O)[N-]CCCN2CCCCC2)ncc1-c1cc(Cl)cc(F)c1-c1nncn1C (protonated)
COc1cc(C(=O)[N-]CCCN2CCCCC2)ncc1-c1cc(Cl)cc(F)c1-c1nncn1C (3D coordinates assigned)
COc1cc(C(=O)[N-]CCCN2CCCCC2)ncc1-c1cc(Cl)cc(F)c1-c1nncn1C (nonaromatic ring conformer: 120.6385940211764 kcal/mol)

>  <smiles>  (7) 
COc1cc(C(=O)NCCCN2CCCCC2)ncc1-c1cc(Cl)cc(F)c1-c1nncn1C

>  <score_type>  (7) 
oracle

>  <origin>  (7) 
adg

>  <m_score__min__energy>  (7) 
-10.550000000000001

>  <m_primary>  (7) 
energy

$$$$
7:0
     RDKit          3D

 53 57  0  0  0  0  0  0  0  0999 V2000
   -1.1820   14.3060  -33.9410 C   0  0  0  0  0  0  0  0  0  0  0  0
   -1.5380   15.4050  -34.7720 O   0  0  0  0  0  0  0  0  0  0  0  0
   -2.1260   16.5900  -34.3080 C   0  0  0  0  0  0  0  0  0  0  0  0
   -3.4850   16.9080  -34.5470 C   0  0  0  0  0  0  0  0  0  0  0  0
   -4.0390   18.1050  -34.0640 C   0  0  0  0  0  0  0  0  0  0  0  0
   -3.2190   19.0010  -33.3580 C   0  0  0  0  0  0  0  0  0  0  0  0
   -1.8990   18.6640  -33.1060 C   0  0  0  0  0  0  0  0  0  0  0  0
   -1.3300   17.4800  -33.5700 C   0  0  0  0  0  0  0  0  0  0  0  0
   -1.3000   19.6830  -32.2650 C   0  0  0  0  0  0  0  0  0  0  0  0
   -0.1140   19.6790  -31.8430 O   0  0  0  0  0  0  0  0  0  0  0  0
   -2.3360   20.6850  -32.0040 C   0  0  0  0  0  0  0  0  0  0  0  0
   -3.4900   20.3020  -32.6820 C   0  0  0  0  0  0  0  0  0  0  0  0
   -4.6210   21.0860  -32.6710 N   0  0  0  0  0  0  0  0  0  0  0  0
   -5.8060   20.7580  -33.4870 C   0  0  0  0  0  0  0  0  0  0  0  0
   -6.8410   19.9530  -32.7270 C   0  0  0  0  0  0  0  0  0  0  0  0
   -6.6200   18.6190  -32.3300 C   0  0  0  0  0  0  0  0  0  0  0  0
   -7.5930   17.9320  -31.5960 C   0  0  0  0  0  0  0  0  0  0  0  0
   -8.7910   18.5650  -31.2480 C   0  0  0  0  0  0  0  0  0  0  0  0
   -9.0150   19.8890  -31.6270 C   0  0  0  0  0  0  0  0  0  0  0  0
   -8.0450   20.5830  -32.3570 C   0  0  0  0  0  0  0  0  0  0  0  0
   -4.6380   22.2180  -31.8810 C   0  0  0  0  0  0  0  0  0  0  0  0
   -5.6910   22.9140  -31.8010 O   0  0  0  0  0  0  0  0  0  0  0  0
   -3.4910   22.6170  -31.1460 C   0  0  0  0  0  0  0  0  0  0  0  0
   -3.5090   23.7750  -30.3450 C   0  0  0  0  0  0  0  0  0  0  0  0
   -2.3690   24.1700  -29.6220 C   0  0  0  0  0  0  0  0  0  0  0  0
   -2.3610   25.3150  -28.8080 O   0  0  0  0  0  0  0  0  0  0  0  0
   -2.1910   25.3030  -27.3940 C   0  0  0  0  0  0  0  0  0  0  0  0
   -1.1960   23.4080  -29.7040 C   0  0  0  0  0  0  0  0  0  0  0  0
   -0.0760   23.8340  -28.9710 O   0  0  0  0  0  0  0  0  0  0  0  0
    0.4150   23.1970  -27.7960 C   0  0  0  0  0  0  0  0  0  0  0  0
   -1.1700   22.2500  -30.5020 C   0  0  0  0  0  0  0  0  0  0  0  0
   -2.3090   21.8460  -31.2190 C   0  0  0  0  0  0  0  0  0  0  0  0
   -1.2769   14.5990  -32.8850 H   0  0  0  0  0  0  0  0  0  0  0  0
   -1.8514   13.4580  -34.1478 H   0  0  0  0  0  0  0  0  0  0  0  0
   -0.1425   14.0115  -34.1478 H   0  0  0  0  0  0  0  0  0  0  0  0
   -4.1144   16.2093  -35.1177 H   0  0  0  0  0  0  0  0  0  0  0  0
   -5.1002   18.3376  -34.2362 H   0  0  0  0  0  0  0  0  0  0  0  0
   -0.2754   17.2467  -33.3617 H   0  0  0  0  0  0  0  0  0  0  0  0
   -6.2701   21.6963  -33.8250 H   0  0  0  0  0  0  0  0  0  0  0  0
   -5.4646   20.1424  -34.3323 H   0  0  0  0  0  0  0  0  0  0  0  0
   -5.6792   18.1161  -32.5982 H   0  0  0  0  0  0  0  0  0  0  0  0
   -7.4153   16.8901  -31.2914 H   0  0  0  0  0  0  0  0  0  0  0  0
   -9.5559   18.0193  -30.6760 H   0  0  0  0  0  0  0  0  0  0  0  0
   -9.9559   20.3876  -31.3512 H   0  0  0  0  0  0  0  0  0  0  0  0
   -8.2238   21.6296  -32.6446 H   0  0  0  0  0  0  0  0  0  0  0  0
   -4.4266   24.3786  -30.2839 H   0  0  0  0  0  0  0  0  0  0  0  0
   -3.1743   25.3724  -26.9059 H   0  0  0  0  0  0  0  0  0  0  0  0
   -1.6969   24.3677  -27.0920 H   0  0  0  0  0  0  0  0  0  0  0  0
   -1.5704   26.1596  -27.0920 H   0  0  0  0  0  0  0  0  0  0  0  0
    0.0190   23.7108  -26.9076 H   0  0  0  0  0  0  0  0  0  0  0  0
    0.0913   22.1457  -27.7863 H   0  0  0  0  0  0  0  0  0  0  0  0
    1.5140   23.2424  -27.7863 H   0  0  0  0  0  0  0  0  0  0  0  0
   -0.2477   21.6539  -30.5655 H   0  0  0  0  0  0  0  0  0  0  0  0
  1  2  1  0
  2  3  1  0
  3  4  2  0
  4  5  1  0
  5  6  2  0
  6  7  1  0
  7  8  2  0
  7  9  1  0
  9 10  2  0
  9 11  1  0
 11 12  2  0
 12 13  1  0
 13 14  1  0
 14 15  1  0
 15 16  2  0
 16 17  1  0
 17 18  2  0
 18 19  1  0
 19 20  2  0
 13 21  1  0
 21 22  2  0
 21 23  1  0
 23 24  2  0
 24 25  1  0
 25 26  1  0
 26 27  1  0
 25 28  2  0
 28 29  1  0
 29 30  1  0
 28 31  1  0
 31 32  2  0
  8  3  1  0
 32 11  1  0
 12  6  1  0
 20 15  1  0
 32 23  1  0
  1 33  1  0
  1 34  1  0
  1 35  1  0
  4 36  1  0
  5 37  1  0
  8 38  1  0
 14 39  1  0
 14 40  1  0
 16 41  1  0
 17 42  1  0
 18 43  1  0
 19 44  1  0
 20 45  1  0
 24 46  1  0
 27 47  1  0
 27 48  1  0
 27 49  1  0
 30 50  1  0
 30 51  1  0
 30 52  1  0
 31 53  1  0
M  END
>  <UniqueID>  (8) 
7

>  <SMILES>  (8) 
COc1ccc2c(c1)C(=O)c1c-2n(Cc2ccccc2)c(=O)c2cc(OC)c(OC)cc12

>  <Energy>  (8) 
106.77061525468088

>  <Genealogy>  (8) 
COc1ccc2c(c1)C(=O)c1c-2n(Cc2ccccc2)c(=O)c2cc(OC)c(OC)cc12 (3D coordinates assigned)
COc1ccc2c(c1)C(=O)c1c-2n(Cc2ccccc2)c(=O)c2cc(OC)c(OC)cc12 (nonaromatic ring conformer: 106.77061525468088 kcal/mol)

>  <smiles>  (8) 
COc1ccc2c(c1)C(=O)c1c-2n(Cc2ccccc2)c(=O)c2cc(OC)c(OC)cc12

>  <score_type>  (8) 
oracle

>  <origin>  (8) 
adg

>  <m_score__min__energy>  (8) 
-8.5199999999999996

>  <m_primary>  (8) 
energy

$$$$
8:0
     RDKit          3D

 43 45  0  0  0  0  0  0  0  0999 V2000
   -0.2910   26.2040  -23.7200 C   0  0  0  0  0  0  0  0  0  0  0  0
    0.0300   25.6040  -24.9710 O   0  0  0  0  0  0  0  0  0  0  0  0
   -0.9160   25.2490  -25.9440 C   0  0  0  0  0  0  0  0  0  0  0  0
   -0.5530   24.8720  -27.2500 C   0  0  0  0  0  0  0  0  0  0  0  0
   -1.5350   24.5280  -28.1840 C   0  0  0  0  0  0  0  0  0  0  0  0
   -2.8950   24.5520  -27.8330 C   0  0  0  0  0  0  0  0  0  0  0  0
   -3.9330   24.1870  -28.8290 C   0  0  0  0  0  0  0  0  0  0  0  0
   -3.7080   23.1440  -29.7420 C   0  0  0  0  0  0  0  0  0  0  0  0
   -4.6880   22.8210  -30.6790 C   0  0  0  0  0  0  0  0  0  0  0  0
   -5.8870   23.5440  -30.7230 C   0  0  0  0  0  0  0  0  0  0  0  0
   -6.9640   23.2110  -31.7370 C   0  0  0  0  0  0  0  0  0  0  0  0
   -7.5830   21.8800  -31.5390 N   0  0  0  0  0  0  0  0  0  0  0  0
   -6.7530   20.7390  -31.9950 C   0  0  0  0  0  0  0  0  0  0  0  0
   -7.3590   20.0450  -33.2240 C   0  0  0  0  0  0  0  0  0  0  0  0
   -8.7180   19.5390  -32.9510 N   0  0  0  0  0  0  0  0  0  0  0  0
   -9.4870   20.3590  -31.9930 C   0  0  0  0  0  0  0  0  0  0  0  0
   -9.0000   21.8140  -31.9550 C   0  0  0  0  0  0  0  0  0  0  0  0
   -6.0860   24.5620  -29.7780 C   0  0  0  0  0  0  0  0  0  0  0  0
   -5.1180   24.8640  -28.8710 N   0  0  0  0  0  0  0  0  0  0  0  0
   -3.2530   24.9300  -26.5260 C   0  0  0  0  0  0  0  0  0  0  0  0
   -2.2700   25.2750  -25.5940 C   0  0  0  0  0  0  0  0  0  0  0  0
    0.0561   25.5552  -22.9024 H   0  0  0  0  0  0  0  0  0  0  0  0
    0.2034   27.1838  -23.6457 H   0  0  0  0  0  0  0  0  0  0  0  0
   -1.3805   26.3365  -23.6457 H   0  0  0  0  0  0  0  0  0  0  0  0
    0.5084   24.8478  -27.5377 H   0  0  0  0  0  0  0  0  0  0  0  0
   -1.2400   24.2360  -29.2027 H   0  0  0  0  0  0  0  0  0  0  0  0
   -2.7616   22.5839  -29.7178 H   0  0  0  0  0  0  0  0  0  0  0  0
   -4.5193   21.9956  -31.3863 H   0  0  0  0  0  0  0  0  0  0  0  0
   -7.7533   23.9740  -31.6673 H   0  0  0  0  0  0  0  0  0  0  0  0
   -6.4792   23.1943  -32.7243 H   0  0  0  0  0  0  0  0  0  0  0  0
   -5.7504   21.1098  -32.2543 H   0  0  0  0  0  0  0  0  0  0  0  0
   -6.7050   20.0043  -31.1777 H   0  0  0  0  0  0  0  0  0  0  0  0
   -7.4072   20.7664  -34.0530 H   0  0  0  0  0  0  0  0  0  0  0  0
   -6.7200   19.1880  -33.4834 H   0  0  0  0  0  0  0  0  0  0  0  0
   -9.2370   19.5100  -33.8590 H   0  0  0  0  0  0  0  0  0  0  0  0
  -10.5468   20.3476  -32.2875 H   0  0  0  0  0  0  0  0  0  0  0  0
   -9.3459   19.9290  -30.9904 H   0  0  0  0  0  0  0  0  0  0  0  0
   -9.1031   22.2556  -32.9572 H   0  0  0  0  0  0  0  0  0  0  0  0
   -9.6084   22.3717  -31.2278 H   0  0  0  0  0  0  0  0  0  0  0  0
   -7.0334   25.1210  -29.7705 H   0  0  0  0  0  0  0  0  0  0  0  0
   -5.3140   25.6230  -28.1800 H   0  0  0  0  0  0  0  0  0  0  0  0
   -4.3137   24.9542  -26.2355 H   0  0  0  0  0  0  0  0  0  0  0  0
   -2.5640   25.5697  -24.5758 H   0  0  0  0  0  0  0  0  0  0  0  0
  1  2  1  0
  2  3  1  0
  3  4  2  0
  4  5  1  0
  5  6  2  0
  6  7  1  0
  7  8  2  0
  8  9  1  0
  9 10  2  0
 10 11  1  0
 11 12  1  0
 12 13  1  0
 13 14  1  0
 14 15  1  0
 15 16  1  0
 16 17  1  0
 10 18  1  0
 18 19  2  0
  6 20  1  0
 20 21  2  0
 21  3  1  0
 19  7  1  0
 17 12  1  0
  1 22  1  0
  1 23  1  0
  1 24  1  0
  4 25  1  0
  5 26  1  0
  8 27  1  0
  9 28  1  0
 11 29  1  0
 11 30  1  0
 13 31  1  0
 13 32  1  0
 14 33  1  0
 14 34  1  0
 15 35  1  0
 16 36  1  0
 16 37  1  0
 17 38  1  0
 17 39  1  0
 18 40  1  0
 19 41  1  0
 20 42  1  0
 21 43  1  0
M  CHG  1  19   1
M  END
>  <UniqueID>  (9) 
8

>  <SMILES>  (9) 
COc1ccc(-c2ccc(CN3CCNCC3)c[nH+]2)cc1

>  <Energy>  (9) 
61.3229971482338

>  <Genealogy>  (9) 
COc1ccc(-c2ccc(CN3CCNCC3)c[nH+]2)cc1 (protonated)
COc1ccc(-c2ccc(CN3CCNCC3)c[nH+]2)cc1 (3D coordinates assigned)
COc1ccc(-c2ccc(CN3CCNCC3)c[nH+]2)cc1 (nonaromatic ring conformer: 61.3229971482338 kcal/mol)

>  <smiles>  (9) 
COc1ccc(-c2ccc(CN3CCNCC3)cn2)cc1

>  <score_type>  (9) 
oracle

>  <origin>  (9) 
adg

>  <m_score__min__energy>  (9) 
-6.8700000000000001

>  <m_primary>  (9) 
energy

$$$$
9:0
     RDKit          3D

 34 35  0  0  1  0  0  0  0  0999 V2000
   -7.6080   18.1990  -31.6670 C   0  0  0  0  0  0  0  0  0  0  0  0
   -8.1780   19.1480  -32.5330 O   0  0  0  0  0  0  0  0  0  0  0  0
   -8.0860   20.4920  -32.2310 C   0  0  0  0  0  0  0  0  0  0  0  0
   -9.1640   21.2720  -31.8640 C   0  0  0  0  0  0  0  0  0  0  0  0
   -8.9740   22.6230  -31.5760 C   0  0  0  0  0  0  0  0  0  0  0  0
   -7.7020   23.1540  -31.6660 C   0  0  0  0  0  0  0  0  0  0  0  0
   -6.5980   22.4020  -32.0310 C   0  0  0  0  0  0  0  0  0  0  0  0
   -5.2590   22.9890  -32.1190 C   0  0  0  0  0  0  0  0  0  0  0  0
   -5.0190   24.0690  -31.2110 N   0  0  0  0  0  0  0  0  0  0  0  0
   -4.1120   23.8890  -30.3100 C   0  0  0  0  0  0  0  0  0  0  0  0
   -4.1450   22.7230  -29.5470 C   0  0  0  0  0  0  0  0  0  0  0  0
   -3.1780   22.5140  -28.5750 C   0  0  0  0  0  0  0  0  0  0  0  0
   -3.1940   21.2640  -27.7410 C   0  0  0  0  0  0  0  0  0  0  0  0
   -2.2350   23.4600  -28.4090 N   0  0  0  0  0  0  0  0  0  0  0  0
   -2.1840   24.5900  -29.1310 C   0  0  0  0  0  0  0  0  0  0  0  0
   -1.2760   25.4980  -28.9670 N   0  0  0  0  0  0  0  0  0  0  0  0
   -3.1250   24.7890  -30.0740 N   0  0  0  0  0  0  0  0  0  0  0  0
   -6.8140   21.0620  -32.3110 C   0  0  0  0  0  0  0  0  0  0  0  0
   -7.7883   18.4992  -30.6242 H   0  0  0  0  0  0  0  0  0  0  0  0
   -8.0647   17.2151  -31.8495 H   0  0  0  0  0  0  0  0  0  0  0  0
   -6.5249   18.1400  -31.8495 H   0  0  0  0  0  0  0  0  0  0  0  0
  -10.1690   20.8296  -31.7990 H   0  0  0  0  0  0  0  0  0  0  0  0
   -9.8240   23.2562  -31.2817 H   0  0  0  0  0  0  0  0  0  0  0  0
   -7.5598   24.2206  -31.4378 H   0  0  0  0  0  0  0  0  0  0  0  0
   -4.5236   22.1976  -31.9122 H   0  0  0  0  0  0  0  0  0  0  0  0
   -5.1695   23.4087  -33.1318 H   0  0  0  0  0  0  0  0  0  0  0  0
   -4.9326   21.9737  -29.7146 H   0  0  0  0  0  0  0  0  0  0  0  0
   -3.1905   21.5345  -26.6748 H   0  0  0  0  0  0  0  0  0  0  0  0
   -4.0997   20.6827  -27.9689 H   0  0  0  0  0  0  0  0  0  0  0  0
   -2.3035   20.6598  -27.9689 H   0  0  0  0  0  0  0  0  0  0  0  0
   -1.5230   23.2900  -27.6820 H   0  0  0  0  0  0  0  0  0  0  0  0
   -0.5120   25.6720  -29.6370 H   0  0  0  0  0  0  0  0  0  0  0  0
   -3.0790   25.6710  -30.6320 H   0  0  0  0  0  0  0  0  0  0  0  0
   -5.9615   20.4314  -32.6037 H   0  0  0  0  0  0  0  0  0  0  0  0
  1  2  1  0
  2  3  1  0
  3  4  2  0
  4  5  1  0
  5  6  2  0
  6  7  1  0
  7  8  1  0
  8  9  1  0
  9 10  2  0
 10 11  1  0
 11 12  2  0
 12 13  1  0
 12 14  1  0
 14 15  1  0
 15 16  2  3
 15 17  1  0
  7 18  2  0
 18  3  1  0
 17 10  1  0
  1 19  1  0
  1 20  1  0
  1 21  1  0
  4 22  1  0
  5 23  1  0
  6 24  1  0
  8 25  1  0
  8 26  1  0
 11 27  1  0
 13 28  1  0
 13 29  1  0
 13 30  1  0
 14 31  1  0
 16 32  1  0
 17 33  1  0
 18 34  1  0
M  END
>  <smiles>  (10) 
COc1cccc(CN=c2cc(C)[nH]c(=N)[nH]2)c1

>  <score_type>  (10) 
oracle

>  <origin>  (10) 
adg

>  <m_score__min__energy>  (10) 
-6.7199999999999998

>  <m_primary>  (10) 
energy

$$$$
10:0
     RDKit          3D

 36 37  0  0  0  0  0  0  0  0999 V2000
   -2.2900   24.3760  -29.0490 C   0  0  0  0  0  0  0  0  0  0  0  0
   -3.1110   24.9170  -30.0780 O   0  0  0  0  0  0  0  0  0  0  0  0
   -4.4470   24.5490  -30.3110 C   0  0  0  0  0  0  0  0  0  0  0  0
   -5.5210   25.3340  -29.8460 C   0  0  0  0  0  0  0  0  0  0  0  0
   -6.8400   24.9430  -30.0830 C   0  0  0  0  0  0  0  0  0  0  0  0
   -7.1070   23.7630  -30.7760 C   0  0  0  0  0  0  0  0  0  0  0  0
   -6.0540   22.9740  -31.2430 C   0  0  0  0  0  0  0  0  0  0  0  0
   -4.7190   23.3640  -31.0340 C   0  0  0  0  0  0  0  0  0  0  0  0
   -3.6070   22.4890  -31.5610 C   0  0  0  0  0  0  0  0  0  0  0  0
   -4.1280   20.7340  -31.6360 S   0  0  0  0  0  0  0  0  0  0  0  0
   -4.6940   20.7040  -33.3820 C   0  0  0  0  0  0  0  0  0  0  0  0
   -5.5750   19.4940  -33.7110 C   0  0  0  0  0  0  0  0  0  0  0  0
   -6.8700   19.4980  -32.9470 C   0  0  0  0  0  0  0  0  0  0  0  0
   -7.7920   20.4750  -33.0890 N   0  0  0  0  0  0  0  0  0  0  0  0
   -8.7600   20.1510  -32.2090 C   0  0  0  0  0  0  0  0  0  0  0  0
   -8.4130   18.9960  -31.5450 C   0  0  0  0  0  0  0  0  0  0  0  0
   -7.2280   18.5790  -32.0220 N   0  0  0  0  0  0  0  0  0  0  0  0
   -6.4590   17.4390  -31.5300 C   0  0  0  0  0  0  0  0  0  0  0  0
   -2.7046   24.6492  -28.0674 H   0  0  0  0  0  0  0  0  0  0  0  0
   -2.2596   23.2804  -29.1421 H   0  0  0  0  0  0  0  0  0  0  0  0
   -1.2712   24.7803  -29.1421 H   0  0  0  0  0  0  0  0  0  0  0  0
   -5.3184   26.2623  -29.2918 H   0  0  0  0  0  0  0  0  0  0  0  0
   -7.6706   25.5674  -29.7221 H   0  0  0  0  0  0  0  0  0  0  0  0
   -8.1473   23.4536  -30.9548 H   0  0  0  0  0  0  0  0  0  0  0  0
   -6.2706   22.0385  -31.7795 H   0  0  0  0  0  0  0  0  0  0  0  0
   -3.3330   22.8259  -32.5716 H   0  0  0  0  0  0  0  0  0  0  0  0
   -2.7467   22.5693  -30.8802 H   0  0  0  0  0  0  0  0  0  0  0  0
   -5.2707   21.6199  -33.5782 H   0  0  0  0  0  0  0  0  0  0  0  0
   -3.7969   20.6366  -34.0150 H   0  0  0  0  0  0  0  0  0  0  0  0
   -5.8008   19.5047  -34.7875 H   0  0  0  0  0  0  0  0  0  0  0  0
   -5.0202   18.5891  -33.4223 H   0  0  0  0  0  0  0  0  0  0  0  0
   -9.6859   20.7222  -32.0462 H   0  0  0  0  0  0  0  0  0  0  0  0
   -9.0034   18.5005  -30.7602 H   0  0  0  0  0  0  0  0  0  0  0  0
   -6.4613   17.4424  -30.4300 H   0  0  0  0  0  0  0  0  0  0  0  0
   -6.9128   16.5057  -31.8947 H   0  0  0  0  0  0  0  0  0  0  0  0
   -5.4237   17.5102  -31.8947 H   0  0  0  0  0  0  0  0  0  0  0  0
  1  2  1  0
  2  3  1  0
  3  4  2  0
  4  5  1  0
  5  6  2  0
  6  7  1  0
  7  8  2  0
  8  9  1  0
  9 10  1  0
 10 11  1  0
 11 12  1  0
 12 13  1  0
 13 14  2  0
 14 15  1  0
 15 16  2  0
 16 17  1  0
 17 18  1  0
  8  3  1  0
 17 13  1  0
  1 19  1  0
  1 20  1  0
  1 21  1  0
  4 22  1  0
  5 23  1  0
  6 24  1  0
  7 25  1  0
  9 26  1  0
  9 27  1  0
 11 28  1  0
 11 29  1  0
 12 30  1  0
 12 31  1  0
 15 32  1  0
 16 33  1  0
 18 34  1  0
 18 35  1  0
 18 36  1  0
M  END
>  <UniqueID>  (11) 
9

>  <SMILES>  (11) 
COc1ccccc1CSCCc1nccn1C

>  <Energy>  (11) 
58.7112088587714

>  <Genealogy>  (11) 
COc1ccccc1CSCCc1nccn1C (3D coordinates assigned)
COc1ccccc1CSCCc1nccn1C (optimized conformer: 58.7112088587714 kcal/mol)

>  <smiles>  (11) 
COc1ccccc1CSCCc1nccn1C

>  <score_type>  (11) 
oracle

>  <origin>  (11) 
adg

>  <m_score__min__energy>  (11) 
-6.8600000000000003

>  <m_primary>  (11) 
energy

$$$$
11:0
     RDKit          3D

 34 34  0  0  0  0  0  0  0  0999 V2000
   -9.2580   21.9615  -30.3079 H   0  0  0  0  0  0  0  0  0  0  0  0
   -9.0660   21.9560  -31.3910 C   0  0  0  0  0  0  0  0  0  0  0  0
   -8.4640   23.0110  -31.9560 C   0  0  0  0  0  0  0  0  0  0  0  0
   -9.0040   23.5915  -32.7185 H   0  0  0  0  0  0  0  0  0  0  0  0
   -7.0680   23.4220  -31.5740 C   0  0  0  0  0  0  0  0  0  0  0  0
   -6.9549   24.5033  -31.7412 H   0  0  0  0  0  0  0  0  0  0  0  0
   -6.3582   22.8547  -32.1941 H   0  0  0  0  0  0  0  0  0  0  0  0
   -6.7750   23.1100  -30.0920 C   0  0  0  0  0  0  0  0  0  0  0  0
   -6.2738   22.1324  -30.0359 H   0  0  0  0  0  0  0  0  0  0  0  0
   -7.7409   23.1186  -29.5657 H   0  0  0  0  0  0  0  0  0  0  0  0
   -5.9110   24.1180  -29.4270 N   0  0  0  0  0  0  0  0  0  0  0  0
   -6.1200   24.1490  -28.4020 H   0  0  0  0  0  0  0  0  0  0  0  0
   -6.1100   25.4670  -29.9900 C   0  0  0  0  0  0  0  0  0  0  0  0
   -6.2172   26.1938  -29.1713 H   0  0  0  0  0  0  0  0  0  0  0  0
   -5.2421   25.7376  -30.6092 H   0  0  0  0  0  0  0  0  0  0  0  0
   -7.0191   25.4754  -30.6092 H   0  0  0  0  0  0  0  0  0  0  0  0
   -4.4960   23.7290  -29.5700 C   0  0  0  0  0  0  0  0  0  0  0  0
   -4.0471   23.6056  -28.5734 H   0  0  0  0  0  0  0  0  0  0  0  0
   -4.4307   22.7796  -30.1217 H   0  0  0  0  0  0  0  0  0  0  0  0
   -3.9545   24.5116  -30.1217 H   0  0  0  0  0  0  0  0  0  0  0  0
   -9.4840   20.7660  -32.2060 C   0  0  0  0  0  0  0  0  0  0  0  0
  -10.2965   20.2364  -31.6870 H   0  0  0  0  0  0  0  0  0  0  0  0
   -9.8314   21.1080  -33.1921 H   0  0  0  0  0  0  0  0  0  0  0  0
   -8.3180   19.8320  -32.3900 C   0  0  0  0  0  0  0  0  0  0  0  0
   -7.2670   20.1790  -33.2550 C   0  0  0  0  0  0  0  0  0  0  0  0
   -7.2743   21.1555  -33.7614 H   0  0  0  0  0  0  0  0  0  0  0  0
   -6.2120   19.2890  -33.4750 C   0  0  0  0  0  0  0  0  0  0  0  0
   -5.3883   19.5693  -34.1480 H   0  0  0  0  0  0  0  0  0  0  0  0
   -6.2020   18.0430  -32.8410 C   0  0  0  0  0  0  0  0  0  0  0  0
   -5.3705   17.3440  -33.0143 H   0  0  0  0  0  0  0  0  0  0  0  0
   -7.2490   17.6860  -31.9870 C   0  0  0  0  0  0  0  0  0  0  0  0
   -7.2413   16.7051  -31.4892 H   0  0  0  0  0  0  0  0  0  0  0  0
   -8.3070   18.5740  -31.7640 C   0  0  0  0  0  0  0  0  0  0  0  0
   -9.1327   18.2865  -31.0966 H   0  0  0  0  0  0  0  0  0  0  0  0
  1  2  1  0
  2  3  2  0
  3  4  1  0
  3  5  1  0
  5  6  1  0
  5  7  1  0
  5  8  1  0
  8  9  1  0
  8 10  1  0
  8 11  1  0
 11 12  1  0
 11 13  1  0
 13 14  1  0
 13 15  1  0
 13 16  1  0
 11 17  1  0
 17 18  1  0
 17 19  1  0
 17 20  1  0
  2 21  1  0
 21 22  1  0
 21 23  1  0
 21 24  1  0
 24 25  2  0
 25 26  1  0
 25 27  1  0
 27 28  1  0
 27 29  2  0
 29 30  1  0
 29 31  1  0
 31 32  1  0
 31 33  2  0
 33 34  1  0
 33 24  1  0
M  CHG  1  11   1
M  END
>  <UniqueID>  (12) 
10

>  <SMILES>  (12) 
C[NH+](C)CC/C=C/Cc1ccccc1

>  <Energy>  (12) 
25.96593546039251

>  <Genealogy>  (12) 
C[NH+](C)CCC=CCc1ccccc1 (protonated)
C[NH+](C)CC/C=C/Cc1ccccc1 (cis-trans isomerization)
C[NH+](C)CC/C=C/Cc1ccccc1 (3D coordinates assigned)
C[NH+](C)CC/C=C/Cc1ccccc1 (optimized conformer: 25.96593546039251 kcal/mol)

>  <smiles>  (12) 
CN(C)CCC=CCc1ccccc1

>  <score_type>  (12) 
oracle

>  <origin>  (12) 
adg

>  <m_score__min__energy>  (12) 
-5.2400000000000002

>  <m_primary>  (12) 
energy

$$$$
12:0
     RDKit          3D

 46 49  0  0  0  0  0  0  0  0999 V2000
   -0.6760   18.9580  -31.1680 C   0  0  0  0  0  0  0  0  0  0  0  0
   -0.3350   19.6410  -32.4710 C   0  0  0  0  0  0  0  0  0  0  0  0
    1.0190   19.8330  -32.8320 C   0  0  0  0  0  0  0  0  0  0  0  0
    2.3390   19.2310  -31.8330 Cl  0  0  0  0  0  0  0  0  0  0  0  0
    1.3420   20.5140  -34.0090 C   0  0  0  0  0  0  0  0  0  0  0  0
    0.3370   21.0060  -34.8390 C   0  0  0  0  0  0  0  0  0  0  0  0
   -1.0030   20.7970  -34.5130 C   0  0  0  0  0  0  0  0  0  0  0  0
   -1.3510   20.0930  -33.3540 C   0  0  0  0  0  0  0  0  0  0  0  0
   -2.7420   19.8700  -33.0810 N   0  0  0  0  0  0  0  0  0  0  0  0
   -3.4940   18.8360  -33.7370 C   0  0  0  0  0  0  0  0  0  0  0  0
   -2.9400   18.1110  -34.6080 O   0  0  0  0  0  0  0  0  0  0  0  0
   -4.9180   18.6050  -33.3980 C   0  0  0  0  0  0  0  0  0  0  0  0
   -5.5540   17.4190  -33.8030 C   0  0  0  0  0  0  0  0  0  0  0  0
   -6.8920   17.1790  -33.4770 C   0  0  0  0  0  0  0  0  0  0  0  0
   -7.6170   18.1200  -32.7430 C   0  0  0  0  0  0  0  0  0  0  0  0
   -7.0030   19.3080  -32.3320 C   0  0  0  0  0  0  0  0  0  0  0  0
   -7.7000   20.2780  -31.6050 C   0  0  0  0  0  0  0  0  0  0  0  0
   -7.0750   21.4270  -31.2380 N   0  0  0  0  0  0  0  0  0  0  0  0
   -5.7740   21.6650  -31.5630 C   0  0  0  0  0  0  0  0  0  0  0  0
   -5.1350   22.8980  -31.1690 N   0  0  0  0  0  0  0  0  0  0  0  0
   -3.6980   22.9140  -30.8660 C   0  0  0  0  0  0  0  0  0  0  0  0
   -3.3520   24.1040  -29.9670 C   0  0  0  0  0  0  0  0  0  0  0  0
   -3.8670   25.3060  -30.5030 O   0  0  0  0  0  0  0  0  0  0  0  0
   -5.2800   25.2620  -30.4820 C   0  0  0  0  0  0  0  0  0  0  0  0
   -5.8060   24.1800  -31.4290 C   0  0  0  0  0  0  0  0  0  0  0  0
   -5.0830   20.7280  -32.2670 N   0  0  0  0  0  0  0  0  0  0  0  0
   -5.6530   19.5560  -32.6560 C   0  0  0  0  0  0  0  0  0  0  0  0
   -0.3591   19.5928  -30.3274 H   0  0  0  0  0  0  0  0  0  0  0  0
   -1.7622   18.7931  -31.1138 H   0  0  0  0  0  0  0  0  0  0  0  0
   -0.1551   17.9907  -31.1138 H   0  0  0  0  0  0  0  0  0  0  0  0
    2.3972   20.6626  -34.2819 H   0  0  0  0  0  0  0  0  0  0  0  0
    0.6005   21.5598  -35.7522 H   0  0  0  0  0  0  0  0  0  0  0  0
   -1.7924   21.1883  -35.1716 H   0  0  0  0  0  0  0  0  0  0  0  0
   -3.2350   20.5640  -32.4770 H   0  0  0  0  0  0  0  0  0  0  0  0
   -4.9928   16.6714  -34.3828 H   0  0  0  0  0  0  0  0  0  0  0  0
   -7.3756   16.2453  -33.7999 H   0  0  0  0  0  0  0  0  0  0  0  0
   -8.6696   17.9274  -32.4882 H   0  0  0  0  0  0  0  0  0  0  0  0
   -8.7521   20.1111  -31.3308 H   0  0  0  0  0  0  0  0  0  0  0  0
   -3.4263   21.9806  -30.3513 H   0  0  0  0  0  0  0  0  0  0  0  0
   -3.1371   23.0052  -31.8079 H   0  0  0  0  0  0  0  0  0  0  0  0
   -3.7849   23.9397  -28.9692 H   0  0  0  0  0  0  0  0  0  0  0  0
   -2.2573   24.1886  -29.9009 H   0  0  0  0  0  0  0  0  0  0  0  0
   -5.6185   25.0410  -29.4590 H   0  0  0  0  0  0  0  0  0  0  0  0
   -5.6674   26.2372  -30.8121 H   0  0  0  0  0  0  0  0  0  0  0  0
   -6.8886   24.0597  -31.2756 H   0  0  0  0  0  0  0  0  0  0  0  0
   -5.6017   24.4847  -32.4660 H   0  0  0  0  0  0  0  0  0  0  0  0
  1  2  1  0
  2  3  2  0
  3  4  1  0
  3  5  1  0
  5  6  2  0
  6  7  1  0
  7  8  2  0
  8  9  1  0
  9 10  1  0
 10 11  2  0
 10 12  1  0
 12 13  2  0
 13 14  1  0
 14 15  2  0
 15 16  1  0
 16 17  2  0
 17 18  1  0
 18 19  2  0
 19 20  1  0
 20 21  1  0
 21 22  1  0
 22 23  1  0
 23 24  1  0
 24 25  1  0
 19 26  1  0
 26 27  2  0
  8  2  1  0
 27 12  1  0
 27 16  1  0
 25 20  1  0
  1 28  1  0
  1 29  1  0
  1 30  1  0
  5 31  1  0
  6 32  1  0
  7 33  1  0
  9 34  1  0
 13 35  1  0
 14 36  1  0
 15 37  1  0
 17 38  1  0
 21 39  1  0
 21 40  1  0
 22 41  1  0
 22 42  1  0
 24 43  1  0
 24 44  1  0
 25 45  1  0
 25 46  1  0
M  END
>  <UniqueID>  (13) 
11

>  <SMILES>  (13) 
Cc1c(Cl)cccc1NC(=O)c1cccc2cnc(N3CCOCC3)nc12

>  <Energy>  (13) 
66.07306303409158

>  <Genealogy>  (13) 
Cc1c(Cl)cccc1NC(=O)c1cccc2cnc(N3CCOCC3)nc12 (3D coordinates assigned)
Cc1c(Cl)cccc1NC(=O)c1cccc2cnc(N3CCOCC3)nc12 (nonaromatic ring conformer: 66.07306303409158 kcal/mol)

>  <smiles>  (13) 
Cc1c(Cl)cccc1NC(=O)c1cccc2cnc(N3CCOCC3)nc12

>  <score_type>  (13) 
oracle

>  <origin>  (13) 
adg

>  <m_score__min__energy>  (13) 
-8.6600000000000001

>  <m_primary>  (13) 
energy

$$$$
13:0
     RDKit          3D

 43 45  0  0  0  0  0  0  0  0999 V2000
   -5.7190   25.9080  -30.2360 C   0  0  0  0  0  0  0  0  0  0  0  0
   -4.3330   25.6750  -30.4650 O   0  0  0  0  0  0  0  0  0  0  0  0
   -3.7300   24.4080  -30.4700 C   0  0  0  0  0  0  0  0  0  0  0  0
   -4.2570   23.3280  -31.2070 C   0  0  0  0  0  0  0  0  0  0  0  0
   -3.6330   22.0700  -31.1800 C   0  0  0  0  0  0  0  0  0  0  0  0
   -4.1960   20.9440  -31.9640 C   0  0  0  0  0  0  0  0  0  0  0  0
   -3.6540   19.8090  -31.8910 O   0  0  0  0  0  0  0  0  0  0  0  0
   -5.3750   21.0910  -32.7680 N   0  0  0  0  0  0  0  0  0  0  0  0
   -6.6540   20.4950  -32.5110 C   0  0  0  0  0  0  0  0  0  0  0  0
   -6.7920   19.1060  -32.6350 C   0  0  0  0  0  0  0  0  0  0  0  0
   -8.0280   18.4960  -32.4050 C   0  0  0  0  0  0  0  0  0  0  0  0
   -9.1400   19.2720  -32.0640 C   0  0  0  0  0  0  0  0  0  0  0  0
   -9.0180   20.6610  -31.9630 C   0  0  0  0  0  0  0  0  0  0  0  0
   -7.7830   21.2740  -32.1920 C   0  0  0  0  0  0  0  0  0  0  0  0
   -2.4580   21.9040  -30.4280 C   0  0  0  0  0  0  0  0  0  0  0  0
   -1.9310   22.9700  -29.6970 C   0  0  0  0  0  0  0  0  0  0  0  0
   -2.5610   24.2170  -29.7180 C   0  0  0  0  0  0  0  0  0  0  0  0
   -1.9870   25.3060  -28.9930 N   0  0  0  0  0  0  0  0  0  0  0  0
   -0.8870   25.0130  -27.6910 S   0  0  0  0  0  0  0  0  0  0  0  0
    0.4630   24.6490  -28.2410 O   0  0  0  0  0  0  0  0  0  0  0  0
   -1.3960   23.8660  -26.8640 O   0  0  0  0  0  0  0  0  0  0  0  0
   -0.7610   26.4530  -26.6840 C   0  0  0  0  0  0  0  0  0  0  0  0
   -0.4890   27.6970  -27.2740 C   0  0  0  0  0  0  0  0  0  0  0  0
   -0.4450   28.8520  -26.4870 C   0  0  0  0  0  0  0  0  0  0  0  0
   -0.6710   28.7710  -25.1100 C   0  0  0  0  0  0  0  0  0  0  0  0
   -0.9450   27.5330  -24.5180 C   0  0  0  0  0  0  0  0  0  0  0  0
   -0.9920   26.3770  -25.3020 C   0  0  0  0  0  0  0  0  0  0  0  0
   -5.9114   25.9403  -29.1534 H   0  0  0  0  0  0  0  0  0  0  0  0
   -6.0092   26.8675  -30.6888 H   0  0  0  0  0  0  0  0  0  0  0  0
   -6.3070   25.0961  -30.6888 H   0  0  0  0  0  0  0  0  0  0  0  0
   -5.1661   23.4720  -31.8093 H   0  0  0  0  0  0  0  0  0  0  0  0
   -5.9228   18.4927  -32.9148 H   0  0  0  0  0  0  0  0  0  0  0  0
   -8.1263   17.4039  -32.4923 H   0  0  0  0  0  0  0  0  0  0  0  0
  -10.1105   18.7898  -31.8753 H   0  0  0  0  0  0  0  0  0  0  0  0
   -9.8949   21.2721  -31.7030 H   0  0  0  0  0  0  0  0  0  0  0  0
   -7.6926   22.3681  -32.1229 H   0  0  0  0  0  0  0  0  0  0  0  0
   -1.9503   20.9282  -30.4152 H   0  0  0  0  0  0  0  0  0  0  0  0
   -1.0166   22.8279  -29.1024 H   0  0  0  0  0  0  0  0  0  0  0  0
   -0.3101   27.7636  -28.3573 H   0  0  0  0  0  0  0  0  0  0  0  0
   -0.2322   29.8258  -26.9523 H   0  0  0  0  0  0  0  0  0  0  0  0
   -0.6335   29.6801  -24.4919 H   0  0  0  0  0  0  0  0  0  0  0  0
   -1.1236   27.4696  -23.4344 H   0  0  0  0  0  0  0  0  0  0  0  0
   -1.2105   25.4055  -24.8347 H   0  0  0  0  0  0  0  0  0  0  0  0
  1  2  1  0
  2  3  1  0
  3  4  2  0
  4  5  1  0
  5  6  1  0
  6  7  2  0
  6  8  1  0
  8  9  1  0
  9 10  2  0
 10 11  1  0
 11 12  2  0
 12 13  1  0
 13 14  2  0
  5 15  2  0
 15 16  1  0
 16 17  2  0
 17 18  1  0
 18 19  1  0
 19 20  2  0
 19 21  2  0
 19 22  1  0
 22 23  2  0
 23 24  1  0
 24 25  2  0
 25 26  1  0
 26 27  2  0
 17  3  1  0
 27 22  1  0
 14  9  1  0
  1 28  1  0
  1 29  1  0
  1 30  1  0
  4 31  1  0
 10 32  1  0
 11 33  1  0
 12 34  1  0
 13 35  1  0
 14 36  1  0
 15 37  1  0
 16 38  1  0
 23 39  1  0
 24 40  1  0
 25 41  1  0
 26 42  1  0
 27 43  1  0
M  CHG  2   8  -1  18  -1
M  END
>  <UniqueID>  (14) 
12

>  <SMILES>  (14) 
COc1cc(C(=O)[N-]c2ccccc2)ccc1[N-]S(=O)(=O)c1ccccc1

>  <Energy>  (14) 
60.14602548128083

>  <Genealogy>  (14) 
COc1cc(C(=O)[N-]c2ccccc2)ccc1[N-]S(=O)(=O)c1ccccc1 (protonated)
COc1cc(C(=O)[N-]c2ccccc2)ccc1[N-]S(=O)(=O)c1ccccc1 (3D coordinates assigned)
COc1cc(C(=O)[N-]c2ccccc2)ccc1[N-]S(=O)(=O)c1ccccc1 (optimized conformer: 60.14602548128083 kcal/mol)

>  <smiles>  (14) 
COc1cc(C(=O)Nc2ccccc2)ccc1NS(=O)(=O)c1ccccc1

>  <score_type>  (14) 
oracle

>  <origin>  (14) 
adg

>  <m_score__min__energy>  (14) 
-10.779999999999999

>  <m_primary>  (14) 
energy

$$$$
14:0
     RDKit          3D

 37 39  0  0  0  0  0  0  0  0999 V2000
   -3.3380   17.0410  -34.9680 C   0  0  0  0  0  0  0  0  0  0  0  0
   -4.5210   17.2990  -34.0970 C   0  0  0  0  0  0  0  0  0  0  0  0
   -4.8460   16.6000  -32.9410 C   0  0  0  0  0  0  0  0  0  0  0  0
   -6.0570   17.0090  -32.3710 C   0  0  0  0  0  0  0  0  0  0  0  0
   -6.6940   18.0120  -33.0950 C   0  0  0  0  0  0  0  0  0  0  0  0
   -8.0070   18.6600  -32.7380 C   0  0  0  0  0  0  0  0  0  0  0  0
   -7.8830   20.0680  -32.2850 N   0  0  1  0  0  0  0  0  0  0  0  0
   -8.8370   20.3990  -31.2060 C   0  0  0  0  0  0  0  0  0  0  0  0
   -8.8870   21.9160  -30.9760 C   0  0  0  0  0  0  0  0  0  0  0  0
   -7.5120   22.5200  -30.9200 C   0  0  0  0  0  0  0  0  0  0  0  0
   -7.3640   23.7890  -30.4560 N   0  0  0  0  0  0  0  0  0  0  0  0
   -6.1780   24.4050  -30.4250 N   0  0  0  0  0  0  0  0  0  0  0  0
   -6.1100   25.7700  -29.9030 C   0  0  0  0  0  0  0  0  0  0  0  0
   -5.0530   23.7690  -30.8720 C   0  0  0  0  0  0  0  0  0  0  0  0
   -3.9300   24.3410  -30.8390 O   0  0  0  0  0  0  0  0  0  0  0  0
   -5.1470   22.4690  -31.3710 C   0  0  0  0  0  0  0  0  0  0  0  0
   -6.3900   21.8360  -31.4170 C   0  0  0  0  0  0  0  0  0  0  0  0
   -6.4990   20.4040  -31.8810 C   0  0  0  0  0  0  0  0  0  0  0  0
   -5.7490   18.3980  -34.4340 S   0  0  0  0  0  0  0  0  0  0  0  0
   -2.4555   16.8485  -34.3402 H   0  0  0  0  0  0  0  0  0  0  0  0
   -3.5344   16.1646  -35.6031 H   0  0  0  0  0  0  0  0  0  0  0  0
   -3.1517   17.9196  -35.6031 H   0  0  0  0  0  0  0  0  0  0  0  0
   -4.2150   15.8052  -32.5166 H   0  0  0  0  0  0  0  0  0  0  0  0
   -6.4644   16.5804  -31.4435 H   0  0  0  0  0  0  0  0  0  0  0  0
   -8.6559   18.6384  -33.6260 H   0  0  0  0  0  0  0  0  0  0  0  0
   -8.4236   18.0902  -31.8943 H   0  0  0  0  0  0  0  0  0  0  0  0
   -8.1210   20.6590  -33.1190 H   0  0  0  0  0  0  0  0  0  0  0  0
   -9.8390   20.0427  -31.4874 H   0  0  0  0  0  0  0  0  0  0  0  0
   -8.5063   19.9102  -30.2777 H   0  0  0  0  0  0  0  0  0  0  0  0
   -9.4470   22.3823  -31.8000 H   0  0  0  0  0  0  0  0  0  0  0  0
   -9.3790   22.0982  -30.0092 H   0  0  0  0  0  0  0  0  0  0  0  0
   -6.1114   25.7425  -28.8033 H   0  0  0  0  0  0  0  0  0  0  0  0
   -5.1867   26.2522  -30.2566 H   0  0  0  0  0  0  0  0  0  0  0  0
   -6.9808   26.3416  -30.2566 H   0  0  0  0  0  0  0  0  0  0  0  0
   -4.2466   21.9463  -31.7260 H   0  0  0  0  0  0  0  0  0  0  0  0
   -5.8296   20.2551  -32.7410 H   0  0  0  0  0  0  0  0  0  0  0  0
   -6.2148   19.7480  -31.0450 H   0  0  0  0  0  0  0  0  0  0  0  0
  1  2  1  0
  2  3  2  0
  3  4  1  0
  4  5  2  0
  5  6  1  0
  6  7  1  0
  7  8  1  0
  8  9  1  0
  9 10  1  0
 10 11  2  0
 11 12  1  0
 12 13  1  0
 12 14  1  0
 14 15  2  0
 14 16  1  0
 16 17  2  0
 17 18  1  0
  5 19  1  0
 19  2  1  0
 18  7  1  0
 17 10  1  0
  1 20  1  0
  1 21  1  0
  1 22  1  0
  3 23  1  0
  4 24  1  0
  6 25  1  0
  6 26  1  0
  7 27  1  6
  8 28  1  0
  8 29  1  0
  9 30  1  0
  9 31  1  0
 13 32  1  0
 13 33  1  0
 13 34  1  0
 16 35  1  0
 18 36  1  0
 18 37  1  0
M  CHG  1   7   1
M  END
>  <UniqueID>  (15) 
13

>  <SMILES>  (15) 
Cc1ccc(C[N@H+]2CCc3nn(C)c(=O)cc3C2)s1

>  <Energy>  (15) 
68.65261619340237

>  <Genealogy>  (15) 
Cc1ccc(C[NH+]2CCc3nn(C)c(=O)cc3C2)s1 (protonated)
Cc1ccc(C[N@H+]2CCc3nn(C)c(=O)cc3C2)s1 (chirality)
Cc1ccc(C[N@H+]2CCc3nn(C)c(=O)cc3C2)s1 (3D coordinates assigned)
Cc1ccc(C[N@H+]2CCc3nn(C)c(=O)cc3C2)s1 (nonaromatic ring conformer: 68.65261619340237 kcal/mol)

>  <smiles>  (15) 
Cc1ccc(CN2CCc3nn(C)c(=O)cc3C2)s1

>  <score_type>  (15) 
oracle

>  <origin>  (15) 
adg

>  <m_score__min__energy>  (15) 
-7.2300000000000004

>  <m_primary>  (15) 
energy

$$$$
15:0
     RDKit          3D

 30 31  0  0  0  0  0  0  0  0999 V2000
   -8.9830   18.5550  -31.6210 C   0  0  0  0  0  0  0  0  0  0  0  0
   -7.4000   18.9490  -32.4260 S   0  0  0  0  0  0  0  0  0  0  0  0
   -7.5820   20.7110  -32.1740 C   0  0  0  0  0  0  0  0  0  0  0  0
   -6.5580   21.6440  -32.2170 C   0  0  0  0  0  0  0  0  0  0  0  0
   -7.0040   22.9530  -31.9760 C   0  0  0  0  0  0  0  0  0  0  0  0
   -6.0800   24.1330  -31.9240 C   0  0  0  0  0  0  0  0  0  0  0  0
   -5.8100   24.5040  -30.5280 N   0  0  0  0  0  0  0  0  0  0  0  0
   -6.8710   25.1220  -29.7250 C   0  0  0  0  0  0  0  0  0  0  0  0
   -4.4860   24.3310  -29.9770 C   0  0  0  0  0  0  0  0  0  0  0  0
   -3.5110   24.9640  -30.4680 O   0  0  0  0  0  0  0  0  0  0  0  0
   -4.2480   23.4420  -28.7850 C   0  0  0  0  0  0  0  0  0  0  0  0
   -2.8990   23.6440  -28.1120 C   0  0  0  0  0  0  0  0  0  0  0  0
   -4.1610   24.1570  -27.4420 C   0  0  0  0  0  0  0  0  0  0  0  0
   -8.3740   23.0410  -31.7400 C   0  0  0  0  0  0  0  0  0  0  0  0
   -9.0290   21.4950  -31.8390 S   0  0  0  0  0  0  0  0  0  0  0  0
   -8.8567   18.5864  -30.5287 H   0  0  0  0  0  0  0  0  0  0  0  0
   -9.7417   19.2917  -31.9237 H   0  0  0  0  0  0  0  0  0  0  0  0
   -9.3078   17.5486  -31.9237 H   0  0  0  0  0  0  0  0  0  0  0  0
   -5.5078   21.3862  -32.4185 H   0  0  0  0  0  0  0  0  0  0  0  0
   -5.1332   23.8755  -32.4213 H   0  0  0  0  0  0  0  0  0  0  0  0
   -6.5538   24.9832  -32.4365 H   0  0  0  0  0  0  0  0  0  0  0  0
   -6.6457   24.9908  -28.6564 H   0  0  0  0  0  0  0  0  0  0  0  0
   -6.9294   26.1954  -29.9583 H   0  0  0  0  0  0  0  0  0  0  0  0
   -7.8335   24.6432  -29.9583 H   0  0  0  0  0  0  0  0  0  0  0  0
   -4.8153   22.5814  -29.1691 H   0  0  0  0  0  0  0  0  0  0  0  0
   -2.3625   22.7828  -27.6871 H   0  0  0  0  0  0  0  0  0  0  0  0
   -1.9410   24.0938  -28.4119 H   0  0  0  0  0  0  0  0  0  0  0  0
   -4.5390   23.6670  -26.5326 H   0  0  0  0  0  0  0  0  0  0  0  0
   -4.4959   25.1312  -27.0563 H   0  0  0  0  0  0  0  0  0  0  0  0
   -8.9323   23.9642  -31.5255 H   0  0  0  0  0  0  0  0  0  0  0  0
  1  2  1  0
  2  3  1  0
  3  4  2  0
  4  5  1  0
  5  6  1  0
  6  7  1  0
  7  8  1  0
  7  9  1  0
  9 10  2  0
  9 11  1  0
 11 12  1  0
 12 13  1  0
  5 14  2  0
 14 15  1  0
 15  3  1  0
 13 11  1  0
  1 16  1  0
  1 17  1  0
  1 18  1  0
  4 19  1  0
  6 20  1  0
  6 21  1  0
  8 22  1  0
  8 23  1  0
  8 24  1  0
 11 25  1  0
 12 26  1  0
 12 27  1  0
 13 28  1  0
 13 29  1  0
 14 30  1  0
M  END
>  <UniqueID>  (16) 
14

>  <SMILES>  (16) 
CSc1cc(CN(C)C(=O)C2CC2)cs1

>  <Energy>  (16) 
310.36477087766707

>  <Genealogy>  (16) 
CSc1cc(CN(C)C(=O)C2CC2)cs1 (3D coordinates assigned)
CSc1cc(CN(C)C(=O)C2CC2)cs1 (nonaromatic ring conformer: 310.36477087766707 kcal/mol)

>  <smiles>  (16) 
CSc1cc(CN(C)C(=O)C2CC2)cs1

>  <score_type>  (16) 
oracle

>  <origin>  (16) 
adg

>  <m_score__min__energy>  (16) 
-6.75

>  <m_primary>  (16) 
energy

$$$$
16:0
     RDKit          3D

 42 44  0  0  0  0  0  0  0  0999 V2000
   -4.1200   17.3882  -34.8325 H   0  0  0  0  0  0  0  0  0  0  0  0
   -4.5220   18.1560  -34.1550 C   0  0  0  0  0  0  0  0  0  0  0  0
   -3.8500   18.7170  -33.1300 N   0  0  0  0  0  0  0  0  0  0  0  0
   -4.7300   19.5900  -32.5920 C   0  0  0  0  0  0  0  0  0  0  0  0
   -4.4060   20.4300  -31.3980 C   0  0  0  0  0  0  0  0  0  0  0  0
   -4.6246   19.8634  -30.4808 H   0  0  0  0  0  0  0  0  0  0  0  0
   -3.3396   20.6990  -31.4174 H   0  0  0  0  0  0  0  0  0  0  0  0
   -5.0155   21.3455  -31.4174 H   0  0  0  0  0  0  0  0  0  0  0  0
   -5.9150   19.6070  -33.2450 N   0  0  0  0  0  0  0  0  0  0  0  0
   -7.1210   20.3780  -32.9050 C   0  0  2  0  0  0  0  0  0  0  0  0
   -7.8330   20.2788  -33.7376 H   0  0  0  0  0  0  0  0  0  0  0  0
   -6.7790   21.8760  -32.7310 C   0  0  0  0  0  0  0  0  0  0  0  0
   -5.7876   21.9517  -32.2605 H   0  0  0  0  0  0  0  0  0  0  0  0
   -6.8086   22.3269  -33.7339 H   0  0  0  0  0  0  0  0  0  0  0  0
   -7.7530   22.6280  -31.8930 N   0  0  0  0  0  0  0  0  0  0  0  0
   -7.2520   22.9670  -30.5410 C   0  0  0  0  0  0  0  0  0  0  0  0
   -6.7492   22.0880  -30.1114 H   0  0  0  0  0  0  0  0  0  0  0  0
   -8.1044   23.2645  -29.9126 H   0  0  0  0  0  0  0  0  0  0  0  0
   -6.2750   24.1130  -30.6060 C   0  0  0  0  0  0  0  0  0  0  0  0
   -6.6820   25.2890  -30.4090 O   0  0  0  0  0  0  0  0  0  0  0  0
   -4.9450   23.9160  -31.1010 N   0  0  0  0  0  0  0  0  0  0  0  0
   -3.8490   24.1190  -30.4320 C   0  0  0  0  0  0  0  0  0  0  0  0
   -3.4670   25.3040  -30.0230 O   0  0  0  0  0  0  0  0  0  0  0  0
   -2.3470   25.2270  -29.3650 N   0  0  0  0  0  0  0  0  0  0  0  0
   -2.0000   23.9250  -29.3360 C   0  0  0  0  0  0  0  0  0  0  0  0
   -0.7480   23.4060  -28.7140 C   0  0  0  0  0  0  0  0  0  0  0  0
   -0.8398   23.4440  -27.6185 H   0  0  0  0  0  0  0  0  0  0  0  0
   -0.5843   22.3659  -29.0323 H   0  0  0  0  0  0  0  0  0  0  0  0
    0.1036   24.0252  -29.0323 H   0  0  0  0  0  0  0  0  0  0  0  0
   -2.9340   23.1710  -30.0180 C   0  0  0  0  0  0  0  0  0  0  0  0
   -2.9463   22.0845  -30.1892 H   0  0  0  0  0  0  0  0  0  0  0  0
   -9.1030   22.0240  -31.8700 C   0  0  0  0  0  0  0  0  0  0  0  0
   -9.7453   22.6277  -31.2120 H   0  0  0  0  0  0  0  0  0  0  0  0
   -9.4727   22.0085  -32.9059 H   0  0  0  0  0  0  0  0  0  0  0  0
   -9.1070   20.5660  -31.3580 C   0  0  0  0  0  0  0  0  0  0  0  0
   -9.2742   20.5770  -30.2708 H   0  0  0  0  0  0  0  0  0  0  0  0
   -9.9073   20.0326  -31.8919 H   0  0  0  0  0  0  0  0  0  0  0  0
   -7.7930   19.8250  -31.6430 C   0  0  0  0  0  0  0  0  0  0  0  0
   -7.1138   19.9523  -30.7871 H   0  0  0  0  0  0  0  0  0  0  0  0
   -8.0151   18.7590  -31.7991 H   0  0  0  0  0  0  0  0  0  0  0  0
   -5.7880   18.6910  -34.2240 C   0  0  0  0  0  0  0  0  0  0  0  0
   -6.5638   18.4172  -34.9542 H   0  0  0  0  0  0  0  0  0  0  0  0
  1  2  1  0
  2  3  1  0
  3  4  2  0
  4  5  1  0
  5  6  1  0
  5  7  1  0
  5  8  1  0
  4  9  1  0
  9 10  1  0
 10 11  1  6
 10 12  1  0
 12 13  1  0
 12 14  1  0
 12 15  1  0
 15 16  1  0
 16 17  1  0
 16 18  1  0
 16 19  1  0
 19 20  2  0
 19 21  1  0
 21 22  2  0
 22 23  1  0
 23 24  1  0
 24 25  1  0
 25 26  1  0
 26 27  1  0
 26 28  1  0
 26 29  1  0
 25 30  2  0
 30 31  1  0
 15 32  1  0
 32 33  1  0
 32 34  1  0
 32 35  1  0
 35 36  1  0
 35 37  1  0
 35 38  1  0
 38 39  1  0
 38 40  1  0
  9 41  1  0
 41 42  1  0
 41  2  2  0
 38 10  1  0
 30 22  1  0
M  CHG  1  24  -1
M  END
>  <UniqueID>  (17) 
15

>  <SMILES>  (17) 
Cc1c/c(=N\C(=O)CN2CCC[C@H](n3ccnc3C)C2)o[n-]1

>  <Energy>  (17) 
118.44661167012677

>  <Genealogy>  (17) 
Cc1cc(=NC(=O)CN2CCCC(n3ccnc3C)C2)o[n-]1 (protonated)
Cc1cc(=NC(=O)CN2CCC[C@H](n3ccnc3C)C2)o[n-]1 (chirality)
Cc1c/c(=N\C(=O)CN2CCC[C@H](n3ccnc3C)C2)o[n-]1 (cis-trans isomerization)
Cc1c/c(=N\C(=O)CN2CCC[C@H](n3ccnc3C)C2)o[n-]1 (3D coordinates assigned)
Cc1c/c(=N\C(=O)CN2CCC[C@H](n3ccnc3C)C2)o[n-]1 (nonaromatic ring conformer: 118.44661167012677 kcal/mol)

>  <smiles>  (17) 
Cc1cc(=NC(=O)CN2CCCC(n3ccnc3C)C2)o[nH]1

>  <score_type>  (17) 
oracle

>  <origin>  (17) 
adg

>  <m_score__min__energy>  (17) 
-10.85

>  <m_primary>  (17) 
energy

$$$$
17:0
     RDKit          3D

 42 43  0  0  0  0  0  0  0  0999 V2000
   -2.1580   25.5290  -25.9630 C   0  0  0  0  0  0  0  0  0  0  0  0
   -2.3600   24.3400  -26.9100 C   0  0  0  0  0  0  0  0  0  0  0  0
   -3.4110   24.5930  -27.9060 N   0  0  0  0  0  0  0  0  0  0  0  0
   -2.8960   24.4810  -29.2430 C   0  0  0  0  0  0  0  0  0  0  0  0
   -1.6870   24.1700  -29.4270 O   0  0  0  0  0  0  0  0  0  0  0  0
   -3.7650   24.6860  -30.3590 N   0  0  0  0  0  0  0  0  0  0  0  0
   -5.4340   25.0990  -30.1680 S   0  0  0  0  0  0  0  0  0  0  0  0
   -5.7140   26.3980  -30.8730 O   0  0  0  0  0  0  0  0  0  0  0  0
   -5.7440   25.2670  -28.7080 O   0  0  0  0  0  0  0  0  0  0  0  0
   -6.4250   23.8010  -30.8250 C   0  0  0  0  0  0  0  0  0  0  0  0
   -7.2880   23.0930  -29.9780 C   0  0  0  0  0  0  0  0  0  0  0  0
   -8.0570   22.0390  -30.4790 C   0  0  0  0  0  0  0  0  0  0  0  0
   -7.9510   21.6650  -31.8240 C   0  0  0  0  0  0  0  0  0  0  0  0
   -8.7670   20.5940  -32.3200 N   0  0  0  0  0  0  0  0  0  0  0  0
   -8.5690   19.3240  -32.1130 C   0  0  0  0  0  0  0  0  0  0  0  0
   -7.4220   18.5610  -32.7240 C   0  0  0  0  0  0  0  0  0  0  0  0
   -6.2090   18.6250  -31.8420 C   0  0  0  0  0  0  0  0  0  0  0  0
   -6.1100   17.8190  -30.8770 O   0  0  0  0  0  0  0  0  0  0  0  0
   -5.1160   19.5820  -32.0970 C   0  0  0  0  0  0  0  0  0  0  0  0
   -4.6380   20.5550  -31.2230 C   0  0  0  0  0  0  0  0  0  0  0  0
   -3.5920   21.3160  -31.7590 C   0  0  0  0  0  0  0  0  0  0  0  0
   -3.2410   20.9510  -33.0510 C   0  0  0  0  0  0  0  0  0  0  0  0
   -4.2350   19.6810  -33.5270 S   0  0  0  0  0  0  0  0  0  0  0  0
   -7.1080   22.3930  -32.6800 C   0  0  0  0  0  0  0  0  0  0  0  0
   -6.3400   23.4500  -32.1790 C   0  0  0  0  0  0  0  0  0  0  0  0
   -2.2170   25.1819  -24.9209 H   0  0  0  0  0  0  0  0  0  0  0  0
   -1.1706   25.9786  -26.1444 H   0  0  0  0  0  0  0  0  0  0  0  0
   -2.9415   26.2795  -26.1444 H   0  0  0  0  0  0  0  0  0  0  0  0
   -1.4144   24.1419  -27.4359 H   0  0  0  0  0  0  0  0  0  0  0  0
   -2.6711   23.4761  -26.3042 H   0  0  0  0  0  0  0  0  0  0  0  0
   -3.7800   25.5640  -27.7710 H   0  0  0  0  0  0  0  0  0  0  0  0
   -4.2050   23.9240  -27.7730 H   0  0  0  0  0  0  0  0  0  0  0  0
   -7.3605   23.3677  -28.9153 H   0  0  0  0  0  0  0  0  0  0  0  0
   -8.7484   21.5010  -29.8138 H   0  0  0  0  0  0  0  0  0  0  0  0
   -9.2714   18.7829  -31.4620 H   0  0  0  0  0  0  0  0  0  0  0  0
   -7.7175   17.5096  -32.8551 H   0  0  0  0  0  0  0  0  0  0  0  0
   -7.1755   19.0135  -33.6958 H   0  0  0  0  0  0  0  0  0  0  0  0
   -5.0421   20.7104  -30.2118 H   0  0  0  0  0  0  0  0  0  0  0  0
   -3.0948   22.1275  -31.2074 H   0  0  0  0  0  0  0  0  0  0  0  0
   -2.4491   21.4128  -33.6589 H   0  0  0  0  0  0  0  0  0  0  0  0
   -7.0515   22.1315  -33.7470 H   0  0  0  0  0  0  0  0  0  0  0  0
   -5.6683   24.0064  -32.8492 H   0  0  0  0  0  0  0  0  0  0  0  0
  1  2  1  0
  2  3  1  0
  3  4  1  0
  4  5  2  0
  4  6  1  0
  6  7  1  0
  7  8  2  0
  7  9  2  0
  7 10  1  0
 10 11  2  0
 11 12  1  0
 12 13  2  0
 13 14  1  0
 14 15  2  3
 15 16  1  0
 16 17  1  0
 17 18  2  0
 17 19  1  0
 19 20  2  0
 20 21  1  0
 21 22  2  0
 22 23  1  0
 13 24  1  0
 24 25  2  0
 25 10  1  0
 23 19  1  0
  1 26  1  0
  1 27  1  0
  1 28  1  0
  2 29  1  0
  2 30  1  0
  3 31  1  0
  3 32  1  0
 11 33  1  0
 12 34  1  0
 15 35  1  0
 16 36  1  0
 16 37  1  0
 20 38  1  0
 21 39  1  0
 22 40  1  0
 24 41  1  0
 25 42  1  0
M  CHG  2   3   1   6  -1
M  END
>  <UniqueID>  (18) 
16

>  <SMILES>  (18) 
CC[NH2+]C(=O)[N-]S(=O)(=O)c1ccc(N=CCC(=O)c2cccs2)cc1

>  <Energy>  (18) 
72.08640904503038

>  <Genealogy>  (18) 
CC[NH2+]C(=O)[N-]S(=O)(=O)c1ccc(N=CCC(=O)c2cccs2)cc1 (protonated)
CC[NH2+]C(=O)[N-]S(=O)(=O)c1ccc(N=CCC(=O)c2cccs2)cc1 (3D coordinates assigned)
CC[NH2+]C(=O)[N-]S(=O)(=O)c1ccc(N=CCC(=O)c2cccs2)cc1 (optimized conformer: 72.08640904503038 kcal/mol)

>  <smiles>  (18) 
CCNC(=O)NS(=O)(=O)c1ccc(N=CCC(=O)c2cccs2)cc1

>  <score_type>  (18) 
oracle

>  <origin>  (18) 
adg

>  <m_score__min__energy>  (18) 
-8.7799999999999994

>  <m_primary>  (18) 
energy

$$$$
18:0
     RDKit          3D

 29 31  0  0  0  0  0  0  0  0999 V2000
   -1.0795   22.3867  -29.5902 H   0  0  0  0  0  0  0  0  0  0  0  0
   -1.9770   23.0050  -29.7390 C   0  0  0  0  0  0  0  0  0  0  0  0
   -2.9200   22.8020  -30.6800 N   0  0  0  0  0  0  0  0  0  0  0  0
   -3.8000   23.8000  -30.4550 C   0  0  0  0  0  0  0  0  0  0  0  0
   -4.8760   24.0020  -31.1580 N   0  0  0  0  0  0  0  0  0  0  0  0
   -5.9080   23.0420  -31.4430 C   0  0  0  0  0  0  0  0  0  0  0  0
   -7.2390   23.4340  -31.6820 C   0  0  0  0  0  0  0  0  0  0  0  0
   -7.5227   24.4954  -31.6282 H   0  0  0  0  0  0  0  0  0  0  0  0
   -8.1960   22.4640  -31.9880 C   0  0  0  0  0  0  0  0  0  0  0  0
   -9.2413   22.7577  -32.1641 H   0  0  0  0  0  0  0  0  0  0  0  0
   -7.8240   21.1220  -32.0700 C   0  0  0  0  0  0  0  0  0  0  0  0
   -9.1220   19.7850  -32.4900 Br  0  0  0  0  0  0  0  0  0  0  0  0
   -6.4900   20.7700  -31.8560 C   0  0  0  0  0  0  0  0  0  0  0  0
   -6.1831   19.7160  -31.9260 H   0  0  0  0  0  0  0  0  0  0  0  0
   -5.5680   21.7270  -31.5610 N   0  0  0  0  0  0  0  0  0  0  0  0
   -4.5750   21.4390  -31.4110 H   0  0  0  0  0  0  0  0  0  0  0  0
   -3.4530   24.5810  -29.4600 O   0  0  0  0  0  0  0  0  0  0  0  0
   -2.3200   24.1170  -28.9900 C   0  0  0  0  0  0  0  0  0  0  0  0
   -1.5970   24.7140  -27.8420 C   0  0  0  0  0  0  0  0  0  0  0  0
   -1.4400   23.9530  -26.6680 C   0  0  0  0  0  0  0  0  0  0  0  0
   -1.8560   22.9359  -26.6188 H   0  0  0  0  0  0  0  0  0  0  0  0
   -0.7620   24.4760  -25.5660 C   0  0  0  0  0  0  0  0  0  0  0  0
   -0.6421   23.8688  -24.6567 H   0  0  0  0  0  0  0  0  0  0  0  0
   -0.2360   25.7670  -25.6150 C   0  0  0  0  0  0  0  0  0  0  0  0
    0.3016   26.1755  -24.7466 H   0  0  0  0  0  0  0  0  0  0  0  0
   -0.3920   26.5400  -26.7660 C   0  0  0  0  0  0  0  0  0  0  0  0
    0.0196   27.5595  -26.8007 H   0  0  0  0  0  0  0  0  0  0  0  0
   -1.0700   26.0240  -27.8770 C   0  0  0  0  0  0  0  0  0  0  0  0
   -1.2380   26.8260  -28.9580 F   0  0  0  0  0  0  0  0  0  0  0  0
  1  2  1  0
  2  3  1  0
  3  4  1  0
  4  5  2  0
  5  6  1  0
  6  7  2  0
  7  8  1  0
  7  9  1  0
  9 10  1  0
  9 11  2  0
 11 12  1  0
 11 13  1  0
 13 14  1  0
 13 15  2  0
 15 16  1  0
  4 17  1  0
 17 18  1  0
 18 19  1  0
 19 20  2  0
 20 21  1  0
 20 22  1  0
 22 23  1  0
 22 24  2  0
 24 25  1  0
 24 26  1  0
 26 27  1  0
 26 28  2  0
 28 29  1  0
 18  2  2  0
 28 19  1  0
 15  6  1  0
M  CHG  2   3  -1  15   1
M  END
>  <UniqueID>  (19) 
17

>  <SMILES>  (19) 
Fc1ccccc1-c1c[n-]/c(=N\c2ccc(Br)c[nH+]2)o1

>  <Energy>  (19) 
70.81781133206125

>  <Genealogy>  (19) 
Fc1ccccc1-c1c[n-]c(=Nc2ccc(Br)c[nH+]2)o1 (protonated)
Fc1ccccc1-c1c[n-]/c(=N\c2ccc(Br)c[nH+]2)o1 (cis-trans isomerization)
Fc1ccccc1-c1c[n-]/c(=N\c2ccc(Br)c[nH+]2)o1 (3D coordinates assigned)
Fc1ccccc1-c1c[n-]/c(=N\c2ccc(Br)c[nH+]2)o1 (optimized conformer: 70.81781133206125 kcal/mol)

>  <smiles>  (19) 
Fc1ccccc1-c1c[nH]c(=Nc2ccc(Br)cn2)o1

>  <score_type>  (19) 
oracle

>  <origin>  (19) 
adg

>  <m_score__min__energy>  (19) 
-6.9199999999999999

>  <m_primary>  (19) 
energy

$$$$
19:0
     RDKit          3D

 43 45  0  0  0  0  0  0  0  0999 V2000
    0.4840   19.7740  -35.6190 C   0  0  0  0  0  0  0  0  0  0  0  0
   -0.1170   21.0830  -35.0860 C   0  0  0  0  0  0  0  0  0  0  0  0
    0.6320   22.2830  -35.6810 C   0  0  0  0  0  0  0  0  0  0  0  0
   -0.0750   21.1430  -33.5450 C   0  0  0  0  0  0  0  0  0  0  0  0
   -1.4530   21.1710  -32.9490 C   0  0  0  0  0  0  0  0  0  0  0  0
   -1.5840   21.3630  -31.7100 O   0  0  0  0  0  0  0  0  0  0  0  0
   -2.6070   21.0550  -33.7980 N   0  0  0  0  0  0  0  0  0  0  0  0
   -3.9540   20.9330  -33.3110 C   0  0  0  0  0  0  0  0  0  0  0  0
   -4.6740   19.7350  -33.4470 C   0  0  0  0  0  0  0  0  0  0  0  0
   -5.9880   19.6340  -32.9680 C   0  0  0  0  0  0  0  0  0  0  0  0
   -6.6180   20.7600  -32.4010 C   0  0  0  0  0  0  0  0  0  0  0  0
   -5.9040   21.9720  -32.2840 C   0  0  0  0  0  0  0  0  0  0  0  0
   -4.5780   22.0460  -32.7340 C   0  0  0  0  0  0  0  0  0  0  0  0
   -6.5280   23.1460  -31.5770 C   0  0  0  0  0  0  0  0  0  0  0  0
   -8.0350   23.2210  -31.8350 C   0  0  0  0  0  0  0  0  0  0  0  0
   -8.6820   21.8900  -31.5910 C   0  0  0  0  0  0  0  0  0  0  0  0
   -9.8620   21.8480  -31.1490 O   0  0  0  0  0  0  0  0  0  0  0  0
   -7.9850   20.6770  -31.9340 N   0  0  0  0  0  0  0  0  0  0  0  0
   -8.7310   19.4100  -32.0020 C   0  0  0  0  0  0  0  0  0  0  0  0
   -7.7930   18.2010  -32.0140 C   0  0  0  0  0  0  0  0  0  0  0  0
   -6.7470   18.3450  -33.1200 C   0  0  0  0  0  0  0  0  0  0  0  0
    0.7777   19.1344  -34.7736 H   0  0  0  0  0  0  0  0  0  0  0  0
   -0.2638   19.2503  -36.2326 H   0  0  0  0  0  0  0  0  0  0  0  0
    1.3686   19.9998  -36.2326 H   0  0  0  0  0  0  0  0  0  0  0  0
   -1.1725   21.1196  -35.3935 H   0  0  0  0  0  0  0  0  0  0  0  0
    1.0239   22.9108  -34.8672 H   0  0  0  0  0  0  0  0  0  0  0  0
    1.4664   21.9236  -36.3011 H   0  0  0  0  0  0  0  0  0  0  0  0
   -0.0574   22.8747  -36.3011 H   0  0  0  0  0  0  0  0  0  0  0  0
    0.4575   20.2570  -33.1688 H   0  0  0  0  0  0  0  0  0  0  0  0
    0.4419   22.0692  -33.2534 H   0  0  0  0  0  0  0  0  0  0  0  0
   -2.4670   21.1670  -34.8280 H   0  0  0  0  0  0  0  0  0  0  0  0
   -4.2030   18.8682  -33.9336 H   0  0  0  0  0  0  0  0  0  0  0  0
   -4.0214   22.9894  -32.6326 H   0  0  0  0  0  0  0  0  0  0  0  0
   -6.3553   23.0447  -30.4954 H   0  0  0  0  0  0  0  0  0  0  0  0
   -6.0659   24.0665  -31.9632 H   0  0  0  0  0  0  0  0  0  0  0  0
   -8.4799   23.9677  -31.1609 H   0  0  0  0  0  0  0  0  0  0  0  0
   -8.2002   23.5073  -32.8842 H   0  0  0  0  0  0  0  0  0  0  0  0
   -9.3932   19.3388  -31.1266 H   0  0  0  0  0  0  0  0  0  0  0  0
   -9.3111   19.4033  -32.9366 H   0  0  0  0  0  0  0  0  0  0  0  0
   -7.2839   18.1283  -31.0416 H   0  0  0  0  0  0  0  0  0  0  0  0
   -8.3854   17.2932  -32.2010 H   0  0  0  0  0  0  0  0  0  0  0  0
   -6.0425   17.5021  -33.0629 H   0  0  0  0  0  0  0  0  0  0  0  0
   -7.2593   18.3485  -34.0934 H   0  0  0  0  0  0  0  0  0  0  0  0
  1  2  1  0
  2  3  1  0
  2  4  1  0
  4  5  1  0
  5  6  2  0
  5  7  1  0
  7  8  1  0
  8  9  2  0
  9 10  1  0
 10 11  2  0
 11 12  1  0
 12 13  2  0
 12 14  1  0
 14 15  1  0
 15 16  1  0
 16 17  2  0
 16 18  1  0
 18 19  1  0
 19 20  1  0
 20 21  1  0
 13  8  1  0
 21 10  1  0
 18 11  1  0
  1 22  1  0
  1 23  1  0
  1 24  1  0
  2 25  1  0
  3 26  1  0
  3 27  1  0
  3 28  1  0
  4 29  1  0
  4 30  1  0
  7 31  1  0
  9 32  1  0
 13 33  1  0
 14 34  1  0
 14 35  1  0
 15 36  1  0
 15 37  1  0
 19 38  1  0
 19 39  1  0
 20 40  1  0
 20 41  1  0
 21 42  1  0
 21 43  1  0
M  END
>  <UniqueID>  (20) 
18

>  <SMILES>  (20) 
CC(C)CC(=O)Nc1cc2c3c(c1)CCC(=O)N3CCC2

>  <Energy>  (20) 
40.38098982628389

>  <Genealogy>  (20) 
CC(C)CC(=O)Nc1cc2c3c(c1)CCC(=O)N3CCC2 (3D coordinates assigned)
CC(C)CC(=O)Nc1cc2c3c(c1)CCC(=O)N3CCC2 (nonaromatic ring conformer: 40.38098982628389 kcal/mol)

>  <smiles>  (20) 
CC(C)CC(=O)Nc1cc2c3c(c1)CCC(=O)N3CCC2

>  <score_type>  (20) 
oracle

>  <origin>  (20) 
adg

>  <m_score__min__energy>  (20) 
-8.2100000000000009

>  <m_primary>  (20) 
energy

$$$$
20:0
     RDKit          3D

 54 57  0  0  0  0  0  0  0  0999 V2000
   -2.1860   22.1230  -28.7830 C   0  0  0  0  0  0  0  0  0  0  0  0
   -1.7220   23.4400  -29.4060 C   0  0  0  0  0  0  0  0  0  0  0  0
   -2.5270   24.5860  -28.9250 N   0  0  0  0  0  0  0  0  0  0  0  0
   -1.9610   25.1400  -27.6820 C   0  0  0  0  0  0  0  0  0  0  0  0
   -3.9330   24.1770  -28.7020 C   0  0  0  0  0  0  0  0  0  0  0  0
   -4.8630   24.7970  -29.7520 C   0  0  0  0  0  0  0  0  0  0  0  0
   -4.4980   24.3690  -31.0660 O   0  0  0  0  0  0  0  0  0  0  0  0
   -4.6570   23.0710  -31.5820 C   0  0  0  0  0  0  0  0  0  0  0  0
   -3.5640   22.2780  -31.9660 C   0  0  0  0  0  0  0  0  0  0  0  0
   -3.7640   21.0030  -32.4940 C   0  0  0  0  0  0  0  0  0  0  0  0
   -5.0560   20.4810  -32.6470 C   0  0  0  0  0  0  0  0  0  0  0  0
   -5.2050   19.1440  -33.2660 C   0  0  0  0  0  0  0  0  0  0  0  0
   -6.0680   18.9560  -34.3520 C   0  0  0  0  0  0  0  0  0  0  0  0
   -6.2140   17.7220  -34.9050 N   0  0  0  0  0  0  0  0  0  0  0  0
   -5.5430   16.6400  -34.4250 C   0  0  0  0  0  0  0  0  0  0  0  0
   -4.6750   16.7690  -33.3270 C   0  0  0  0  0  0  0  0  0  0  0  0
   -3.9450   15.5920  -32.7910 C   0  0  0  0  0  0  0  0  0  0  0  0
   -2.5530   15.4800  -32.9480 C   0  0  0  0  0  0  0  0  0  0  0  0
   -1.8860   14.3630  -32.4360 C   0  0  0  0  0  0  0  0  0  0  0  0
   -2.5810   13.3900  -31.7910 N   0  0  0  0  0  0  0  0  0  0  0  0
   -3.9280   13.4680  -31.6240 C   0  0  0  0  0  0  0  0  0  0  0  0
   -4.6340   14.5670  -32.1190 C   0  0  0  0  0  0  0  0  0  0  0  0
   -4.5180   18.0380  -32.7480 C   0  0  0  0  0  0  0  0  0  0  0  0
   -6.1670   21.2510  -32.2230 C   0  0  0  0  0  0  0  0  0  0  0  0
   -7.4910   20.7690  -32.2830 C   0  0  0  0  0  0  0  0  0  0  0  0
   -8.5510   21.5690  -31.8600 C   0  0  0  0  0  0  0  0  0  0  0  0
   -8.2930   22.8480  -31.3680 C   0  0  0  0  0  0  0  0  0  0  0  0
   -7.0160   23.3020  -31.2920 N   0  0  0  0  0  0  0  0  0  0  0  0
   -5.9540   22.5500  -31.6940 C   0  0  0  0  0  0  0  0  0  0  0  0
   -2.1569   22.2057  -27.6865 H   0  0  0  0  0  0  0  0  0  0  0  0
   -3.2146   21.9063  -29.1072 H   0  0  0  0  0  0  0  0  0  0  0  0
   -1.5204   21.3095  -29.1072 H   0  0  0  0  0  0  0  0  0  0  0  0
   -0.6678   23.6082  -29.1406 H   0  0  0  0  0  0  0  0  0  0  0  0
   -1.8466   23.3666  -30.4965 H   0  0  0  0  0  0  0  0  0  0  0  0
   -2.4452   24.6660  -26.8155 H   0  0  0  0  0  0  0  0  0  0  0  0
   -0.8794   24.9419  -27.6514 H   0  0  0  0  0  0  0  0  0  0  0  0
   -2.1359   26.2256  -27.6514 H   0  0  0  0  0  0  0  0  0  0  0  0
   -4.0021   23.0809  -28.7637 H   0  0  0  0  0  0  0  0  0  0  0  0
   -4.2453   24.5295  -27.7079 H   0  0  0  0  0  0  0  0  0  0  0  0
   -5.8980   24.4869  -29.5457 H   0  0  0  0  0  0  0  0  0  0  0  0
   -4.7751   25.8922  -29.6997 H   0  0  0  0  0  0  0  0  0  0  0  0
   -2.5412   22.6657  -31.8494 H   0  0  0  0  0  0  0  0  0  0  0  0
   -2.8957   20.3983  -32.7947 H   0  0  0  0  0  0  0  0  0  0  0  0
   -6.6300   19.8092  -34.7596 H   0  0  0  0  0  0  0  0  0  0  0  0
   -6.8600   17.6020  -35.7170 H   0  0  0  0  0  0  0  0  0  0  0  0
   -5.6808   15.6573  -34.8996 H   0  0  0  0  0  0  0  0  0  0  0  0
   -1.9908   16.2675  -33.4713 H   0  0  0  0  0  0  0  0  0  0  0  0
   -0.7963   14.2718  -32.5556 H   0  0  0  0  0  0  0  0  0  0  0  0
   -4.4632   12.6638  -31.0978 H   0  0  0  0  0  0  0  0  0  0  0  0
   -5.7238   14.6302  -31.9837 H   0  0  0  0  0  0  0  0  0  0  0  0
   -3.8515   18.1651  -31.8822 H   0  0  0  0  0  0  0  0  0  0  0  0
   -7.6881   19.7567  -32.6655 H   0  0  0  0  0  0  0  0  0  0  0  0
   -9.5837   21.1941  -31.9139 H   0  0  0  0  0  0  0  0  0  0  0  0
   -9.1248   23.4894  -31.0413 H   0  0  0  0  0  0  0  0  0  0  0  0
  1  2  1  0
  2  3  1  0
  3  4  1  0
  3  5  1  0
  5  6  1  0
  6  7  1  0
  7  8  1  0
  8  9  2  0
  9 10  1  0
 10 11  2  0
 11 12  1  0
 12 13  2  0
 13 14  1  0
 14 15  2  0
 15 16  1  0
 16 17  1  0
 17 18  2  0
 18 19  1  0
 19 20  2  0
 20 21  1  0
 21 22  2  0
 16 23  2  0
 11 24  1  0
 24 25  2  0
 25 26  1  0
 26 27  2  0
 27 28  1  0
 28 29  2  0
 29  8  1  0
 23 12  1  0
 29 24  1  0
 22 17  1  0
  1 30  1  0
  1 31  1  0
  1 32  1  0
  2 33  1  0
  2 34  1  0
  4 35  1  0
  4 36  1  0
  4 37  1  0
  5 38  1  0
  5 39  1  0
  6 40  1  0
  6 41  1  0
  9 42  1  0
 10 43  1  0
 13 44  1  0
 14 45  1  0
 15 46  1  0
 18 47  1  0
 19 48  1  0
 21 49  1  0
 22 50  1  0
 23 51  1  0
 25 52  1  0
 26 53  1  0
 27 54  1  0
M  CHG  1  14   1
M  END
>  <UniqueID>  (21) 
19

>  <SMILES>  (21) 
CCN(C)CCOc1ccc(-c2c[nH+]cc(-c3ccncc3)c2)c2cccnc12

>  <Energy>  (21) 
75.25273668633581

>  <Genealogy>  (21) 
CCN(C)CCOc1ccc(-c2c[nH+]cc(-c3ccncc3)c2)c2cccnc12 (protonated)
CCN(C)CCOc1ccc(-c2c[nH+]cc(-c3ccncc3)c2)c2cccnc12 (3D coordinates assigned)
CCN(C)CCOc1ccc(-c2c[nH+]cc(-c3ccncc3)c2)c2cccnc12 (optimized conformer: 75.25273668633581 kcal/mol)

>  <smiles>  (21) 
CCN(C)CCOc1ccc(-c2cncc(-c3ccncc3)c2)c2cccnc12

>  <score_type>  (21) 
oracle

>  <origin>  (21) 
adg

>  <m_score__min__energy>  (21) 
-8.3200000000000003

>  <m_primary>  (21) 
energy

$$$$
21:0
     RDKit          3D

 47 49  0  0  0  0  0  0  0  0999 V2000
   -0.1500   18.0470  -27.7730 C   0  0  0  0  0  0  0  0  0  0  0  0
   -0.5030   19.4780  -28.1540 C   0  0  0  0  0  0  0  0  0  0  0  0
   -1.8090   19.8400  -27.5500 N   0  0  0  0  0  0  0  0  0  0  0  0
   -2.2110   18.9510  -26.4380 C   0  0  0  0  0  0  0  0  0  0  0  0
   -3.7320   18.8610  -26.3400 C   0  0  0  0  0  0  0  0  0  0  0  0
   -1.9030   21.2750  -27.1990 C   0  0  0  0  0  0  0  0  0  0  0  0
   -0.8710   22.1570  -27.9280 C   0  0  0  0  0  0  0  0  0  0  0  0
   -1.6500   23.6760  -28.5800 S   0  0  0  0  0  0  0  0  0  0  0  0
   -2.7320   22.8220  -29.7300 C   0  0  0  0  0  0  0  0  0  0  0  0
   -2.6270   21.4720  -29.9300 N   0  0  0  0  0  0  0  0  0  0  0  0
   -3.4630   20.8110  -30.8000 C   0  0  0  0  0  0  0  0  0  0  0  0
   -4.4310   21.4910  -31.4880 N   0  0  0  0  0  0  0  0  0  0  0  0
   -4.5220   22.8250  -31.2830 C   0  0  0  0  0  0  0  0  0  0  0  0
   -3.7200   23.4950  -30.4330 C   0  0  0  0  0  0  0  0  0  0  0  0
   -4.0920   24.7890  -30.4110 N   0  0  0  0  0  0  0  0  0  0  0  0
   -5.1220   24.8780  -31.2550 N   0  0  0  0  0  0  0  0  0  0  0  0
   -5.3940   23.6960  -31.8040 N   0  0  0  0  0  0  0  0  0  0  0  0
   -6.5140   23.4240  -32.6980 C   0  0  0  0  0  0  0  0  0  0  0  0
   -7.2700   22.2170  -32.2160 C   0  0  0  0  0  0  0  0  0  0  0  0
   -8.3010   22.3550  -31.2710 C   0  0  0  0  0  0  0  0  0  0  0  0
   -9.0290   21.2360  -30.8560 C   0  0  0  0  0  0  0  0  0  0  0  0
   -8.7400   19.9750  -31.3880 C   0  0  0  0  0  0  0  0  0  0  0  0
   -7.7260   19.8340  -32.3390 C   0  0  0  0  0  0  0  0  0  0  0  0
   -6.9950   20.9510  -32.7570 C   0  0  0  0  0  0  0  0  0  0  0  0
   -0.1271   17.9543  -26.6771 H   0  0  0  0  0  0  0  0  0  0  0  0
   -0.9059   17.3612  -28.1833 H   0  0  0  0  0  0  0  0  0  0  0  0
    0.8381   17.7914  -28.1833 H   0  0  0  0  0  0  0  0  0  0  0  0
    0.2755   20.1599  -27.7812 H   0  0  0  0  0  0  0  0  0  0  0  0
   -0.5683   19.5617  -29.2489 H   0  0  0  0  0  0  0  0  0  0  0  0
   -1.8006   17.9456  -26.6134 H   0  0  0  0  0  0  0  0  0  0  0  0
   -1.8204   19.3645  -25.4965 H   0  0  0  0  0  0  0  0  0  0  0  0
   -4.0308   18.8433  -25.2815 H   0  0  0  0  0  0  0  0  0  0  0  0
   -4.1836   19.7340  -26.8339 H   0  0  0  0  0  0  0  0  0  0  0  0
   -4.0774   17.9408  -26.8339 H   0  0  0  0  0  0  0  0  0  0  0  0
   -2.9106   21.6314  -27.4591 H   0  0  0  0  0  0  0  0  0  0  0  0
   -1.6950   21.3581  -26.1220 H   0  0  0  0  0  0  0  0  0  0  0  0
   -0.0743   22.4358  -27.2227 H   0  0  0  0  0  0  0  0  0  0  0  0
   -0.4568   21.5861  -28.7721 H   0  0  0  0  0  0  0  0  0  0  0  0
   -1.8970   20.9290  -29.4150 H   0  0  0  0  0  0  0  0  0  0  0  0
   -3.3523   19.7261  -30.9439 H   0  0  0  0  0  0  0  0  0  0  0  0
   -7.1873   24.2937  -32.7147 H   0  0  0  0  0  0  0  0  0  0  0  0
   -6.1311   23.2316  -33.7111 H   0  0  0  0  0  0  0  0  0  0  0  0
   -8.5359   23.3465  -30.8566 H   0  0  0  0  0  0  0  0  0  0  0  0
   -9.8300   21.3473  -30.1103 H   0  0  0  0  0  0  0  0  0  0  0  0
   -9.3108   19.0946  -31.0578 H   0  0  0  0  0  0  0  0  0  0  0  0
   -7.5021   18.8426  -32.7598 H   0  0  0  0  0  0  0  0  0  0  0  0
   -6.2027   20.8372  -33.5115 H   0  0  0  0  0  0  0  0  0  0  0  0
  1  2  1  0
  2  3  1  0
  3  4  1  0
  4  5  1  0
  3  6  1  0
  6  7  1  0
  7  8  1  0
  8  9  1  0
  9 10  2  0
 10 11  1  0
 11 12  2  0
 12 13  1  0
 13 14  2  0
 14 15  1  0
 15 16  2  0
 16 17  1  0
 17 18  1  0
 18 19  1  0
 19 20  2  0
 20 21  1  0
 21 22  2  0
 22 23  1  0
 23 24  2  0
 14  9  1  0
 24 19  1  0
 17 13  1  0
  1 25  1  0
  1 26  1  0
  1 27  1  0
  2 28  1  0
  2 29  1  0
  4 30  1  0
  4 31  1  0
  5 32  1  0
  5 33  1  0
  5 34  1  0
  6 35  1  0
  6 36  1  0
  7 37  1  0
  7 38  1  0
 10 39  1  0
 11 40  1  0
 18 41  1  0
 18 42  1  0
 20 43  1  0
 21 44  1  0
 22 45  1  0
 23 46  1  0
 24 47  1  0
M  CHG  1  10   1
M  END
>  <UniqueID>  (22) 
20

>  <SMILES>  (22) 
CCN(CC)CCSc1[nH+]cnc2c1nnn2Cc1ccccc1

>  <Energy>  (22) 
90.89820787844059

>  <Genealogy>  (22) 
CCN(CC)CCSc1[nH+]cnc2c1nnn2Cc1ccccc1 (protonated)
CCN(CC)CCSc1[nH+]cnc2c1nnn2Cc1ccccc1 (3D coordinates assigned)
CCN(CC)CCSc1[nH+]cnc2c1nnn2Cc1ccccc1 (optimized conformer: 90.89820787844059 kcal/mol)

>  <smiles>  (22) 
CCN(CC)CCSc1ncnc2c1nnn2Cc1ccccc1

>  <score_type>  (22) 
oracle

>  <origin>  (22) 
adg

>  <m_score__min__energy>  (22) 
-7.2400000000000002

>  <m_primary>  (22) 
energy

$$$$
22:0
     RDKit          3D

 54 57  0  0  0  0  0  0  0  0999 V2000
   -6.6410   23.0440  -29.7590 C   0  0  0  0  0  0  0  0  0  0  0  0
   -6.0400   24.3420  -30.3330 C   0  0  0  0  0  0  0  0  0  0  0  0
   -6.4720   25.5920  -29.5510 C   0  0  0  0  0  0  0  0  0  0  0  0
   -4.5370   24.2310  -30.5120 C   0  0  0  0  0  0  0  0  0  0  0  0
   -3.8590   25.2940  -30.4970 O   0  0  0  0  0  0  0  0  0  0  0  0
   -3.8080   22.9500  -30.6440 C   0  0  0  0  0  0  0  0  0  0  0  0
   -2.6020   22.6690  -30.0150 C   0  0  0  0  0  0  0  0  0  0  0  0
   -2.1570   21.4360  -30.3560 N   0  0  0  0  0  0  0  0  0  0  0  0
   -0.9550   20.8080  -29.8720 C   0  0  0  0  0  0  0  0  0  0  0  0
   -0.7060   20.6980  -28.4930 C   0  0  0  0  0  0  0  0  0  0  0  0
    0.4670   20.0790  -28.0500 C   0  0  0  0  0  0  0  0  0  0  0  0
    1.3770   19.5700  -28.9780 C   0  0  0  0  0  0  0  0  0  0  0  0
    1.0950   19.6860  -30.3410 C   0  0  0  0  0  0  0  0  0  0  0  0
   -0.0510   20.2930  -30.7520 N   0  0  0  0  0  0  0  0  0  0  0  0
   -3.0680   20.9360  -31.2210 C   0  0  0  0  0  0  0  0  0  0  0  0
   -3.0180   19.7260  -31.9240 C   0  0  0  0  0  0  0  0  0  0  0  0
   -4.0510   19.4370  -32.8290 C   0  0  0  0  0  0  0  0  0  0  0  0
   -5.1090   20.3530  -33.0370 C   0  0  0  0  0  0  0  0  0  0  0  0
   -6.2310   20.0310  -33.9980 C   0  0  0  0  0  0  0  0  0  0  0  0
   -6.8560   18.7130  -33.7550 N   0  0  0  0  0  0  0  0  0  0  0  0
   -7.5330   18.5490  -32.4480 C   0  0  0  0  0  0  0  0  0  0  0  0
   -6.6250   17.9310  -31.3650 C   0  0  0  0  0  0  0  0  0  0  0  0
   -5.6790   16.8370  -31.8950 C   0  0  0  0  0  0  0  0  0  0  0  0
   -6.0780   16.3610  -33.2900 C   0  0  0  0  0  0  0  0  0  0  0  0
   -6.0880   17.5490  -34.2600 C   0  0  0  0  0  0  0  0  0  0  0  0
   -5.1070   21.5830  -32.3450 C   0  0  0  0  0  0  0  0  0  0  0  0
   -4.0870   21.8380  -31.4270 C   0  0  0  0  0  0  0  0  0  0  0  0
   -6.6217   23.0857  -28.6600 H   0  0  0  0  0  0  0  0  0  0  0  0
   -7.6801   22.9373  -30.1037 H   0  0  0  0  0  0  0  0  0  0  0  0
   -6.0501   22.1826  -30.1037 H   0  0  0  0  0  0  0  0  0  0  0  0
   -6.4612   24.4762  -31.3403 H   0  0  0  0  0  0  0  0  0  0  0  0
   -6.4027   25.3914  -28.4717 H   0  0  0  0  0  0  0  0  0  0  0  0
   -5.8124   26.4331  -29.8107 H   0  0  0  0  0  0  0  0  0  0  0  0
   -7.5102   25.8464  -29.8107 H   0  0  0  0  0  0  0  0  0  0  0  0
   -2.0791   23.3549  -29.3323 H   0  0  0  0  0  0  0  0  0  0  0  0
   -1.4296   21.0965  -27.7666 H   0  0  0  0  0  0  0  0  0  0  0  0
    0.6721   19.9934  -26.9727 H   0  0  0  0  0  0  0  0  0  0  0  0
    2.3041   19.0839  -28.6403 H   0  0  0  0  0  0  0  0  0  0  0  0
    1.8009   19.2858  -31.0836 H   0  0  0  0  0  0  0  0  0  0  0  0
   -2.1892   19.0192  -31.7706 H   0  0  0  0  0  0  0  0  0  0  0  0
   -4.0379   18.4869  -33.3832 H   0  0  0  0  0  0  0  0  0  0  0  0
   -7.0052   20.8065  -33.9017 H   0  0  0  0  0  0  0  0  0  0  0  0
   -5.7940   20.0007  -35.0070 H   0  0  0  0  0  0  0  0  0  0  0  0
   -7.8671   19.5380  -32.1011 H   0  0  0  0  0  0  0  0  0  0  0  0
   -8.3749   17.8579  -32.6012 H   0  0  0  0  0  0  0  0  0  0  0  0
   -6.0147   18.7335  -30.9251 H   0  0  0  0  0  0  0  0  0  0  0  0
   -7.2866   17.4521  -30.6281 H   0  0  0  0  0  0  0  0  0  0  0  0
   -4.6569   17.2413  -31.9368 H   0  0  0  0  0  0  0  0  0  0  0  0
   -5.7394   15.9764  -31.2126 H   0  0  0  0  0  0  0  0  0  0  0  0
   -5.3552   15.6094  -33.6402 H   0  0  0  0  0  0  0  0  0  0  0  0
   -7.0834   15.9166  -33.2489 H   0  0  0  0  0  0  0  0  0  0  0  0
   -5.0492   17.8656  -34.4349 H   0  0  0  0  0  0  0  0  0  0  0  0
   -6.5797   17.2107  -35.1840 H   0  0  0  0  0  0  0  0  0  0  0  0
   -5.8958   22.3280  -32.5260 H   0  0  0  0  0  0  0  0  0  0  0  0
  1  2  1  0
  2  3  1  0
  2  4  1  0
  4  5  2  0
  4  6  1  0
  6  7  2  0
  7  8  1  0
  8  9  1  0
  9 10  2  0
 10 11  1  0
 11 12  2  0
 12 13  1  0
 13 14  2  0
  8 15  1  0
 15 16  2  0
 16 17  1  0
 17 18  2  0
 18 19  1  0
 19 20  1  0
 20 21  1  0
 21 22  1  0
 22 23  1  0
 23 24  1  0
 24 25  1  0
 18 26  1  0
 26 27  2  0
 27  6  1  0
 14  9  1  0
 27 15  1  0
 25 20  1  0
  1 28  1  0
  1 29  1  0
  1 30  1  0
  2 31  1  0
  3 32  1  0
  3 33  1  0
  3 34  1  0
  7 35  1  0
 10 36  1  0
 11 37  1  0
 12 38  1  0
 13 39  1  0
 16 40  1  0
 17 41  1  0
 19 42  1  0
 19 43  1  0
 21 44  1  0
 21 45  1  0
 22 46  1  0
 22 47  1  0
 23 48  1  0
 23 49  1  0
 24 50  1  0
 24 51  1  0
 25 52  1  0
 25 53  1  0
 26 54  1  0
M  END
>  <UniqueID>  (23) 
21

>  <SMILES>  (23) 
CC(C)C(=O)c1cn(-c2ccccn2)c2ccc(CN3CCCCC3)cc12

>  <Energy>  (23) 
111.39312096876145

>  <Genealogy>  (23) 
CC(C)C(=O)c1cn(-c2ccccn2)c2ccc(CN3CCCCC3)cc12 (3D coordinates assigned)
CC(C)C(=O)c1cn(-c2ccccn2)c2ccc(CN3CCCCC3)cc12 (nonaromatic ring conformer: 111.39312096876145 kcal/mol)

>  <smiles>  (23) 
CC(C)C(=O)c1cn(-c2ccccn2)c2ccc(CN3CCCCC3)cc12

>  <score_type>  (23) 
oracle

>  <origin>  (23) 
adg

>  <m_score__min__energy>  (23) 
-9.1899999999999995

>  <m_primary>  (23) 
energy

$$$$
23:0
     RDKit          3D

 39 41  0  0  0  0  0  0  0  0999 V2000
   -9.6450   21.1090  -31.6650 O   0  0  0  0  0  0  0  0  0  0  0  0
   -8.3840   21.0670  -31.6860 C   0  0  0  0  0  0  0  0  0  0  0  0
   -7.6310   22.2320  -31.1060 C   0  0  0  0  0  0  0  0  0  0  0  0
   -7.2450   23.4640  -32.4020 S   0  0  0  0  0  0  0  0  0  0  0  0
   -5.7340   24.0400  -31.6210 C   0  0  0  0  0  0  0  0  0  0  0  0
   -5.5620   25.3000  -31.1830 N   0  0  0  0  0  0  0  0  0  0  0  0
   -4.3250   25.3350  -30.7070 N   0  0  0  0  0  0  0  0  0  0  0  0
   -3.7510   24.1500  -30.8520 N   0  0  0  0  0  0  0  0  0  0  0  0
   -4.6090   23.3200  -31.4180 N   0  0  0  0  0  0  0  0  0  0  0  0
   -4.2730   21.9420  -31.7980 C   0  0  0  0  0  0  0  0  0  0  0  0
   -3.6300   21.8720  -33.1930 C   0  0  0  0  0  0  0  0  0  0  0  0
   -3.4410   20.4100  -33.6470 C   0  0  0  0  0  0  0  0  0  0  0  0
   -3.1510   19.4370  -32.4830 C   0  0  0  0  0  0  0  0  0  0  0  0
   -2.4940   20.1450  -31.2920 C   0  0  0  0  0  0  0  0  0  0  0  0
   -3.3980   21.2560  -30.7190 C   0  0  0  0  0  0  0  0  0  0  0  0
   -7.7020   19.8900  -32.2950 C   0  0  0  0  0  0  0  0  0  0  0  0
   -7.8410   18.5930  -31.7580 C   0  0  0  0  0  0  0  0  0  0  0  0
   -7.1880   17.5060  -32.3460 C   0  0  0  0  0  0  0  0  0  0  0  0
   -6.3890   17.6930  -33.4760 C   0  0  0  0  0  0  0  0  0  0  0  0
   -5.5720   16.3260  -34.2100 Cl  0  0  0  0  0  0  0  0  0  0  0  0
   -6.2420   18.9710  -34.0200 C   0  0  0  0  0  0  0  0  0  0  0  0
   -6.8920   20.0620  -33.4350 C   0  0  0  0  0  0  0  0  0  0  0  0
   -8.2458   22.7076  -30.3276 H   0  0  0  0  0  0  0  0  0  0  0  0
   -6.6876   21.8641  -30.6763 H   0  0  0  0  0  0  0  0  0  0  0  0
   -5.2161   21.3790  -31.8580 H   0  0  0  0  0  0  0  0  0  0  0  0
   -4.2792   22.3905  -33.9138 H   0  0  0  0  0  0  0  0  0  0  0  0
   -2.6417   22.3527  -33.1457 H   0  0  0  0  0  0  0  0  0  0  0  0
   -4.3597   20.0815  -34.1550 H   0  0  0  0  0  0  0  0  0  0  0  0
   -2.5659   20.3882  -34.3131 H   0  0  0  0  0  0  0  0  0  0  0  0
   -4.0988   18.9885  -32.1507 H   0  0  0  0  0  0  0  0  0  0  0  0
   -2.4535   18.6688  -32.8483 H   0  0  0  0  0  0  0  0  0  0  0  0
   -2.2950   19.4049  -30.5029 H   0  0  0  0  0  0  0  0  0  0  0  0
   -1.5601   20.6092  -31.6417 H   0  0  0  0  0  0  0  0  0  0  0  0
   -4.0602   20.8127  -29.9607 H   0  0  0  0  0  0  0  0  0  0  0  0
   -2.7403   22.0266  -30.2904 H   0  0  0  0  0  0  0  0  0  0  0  0
   -8.4689   18.4357  -30.8686 H   0  0  0  0  0  0  0  0  0  0  0  0
   -7.3039   16.4997  -31.9172 H   0  0  0  0  0  0  0  0  0  0  0  0
   -5.6136   19.1195  -34.9105 H   0  0  0  0  0  0  0  0  0  0  0  0
   -6.7697   21.0652  -33.8694 H   0  0  0  0  0  0  0  0  0  0  0  0
  1  2  2  0
  2  3  1  0
  3  4  1  0
  4  5  1  0
  5  6  2  0
  6  7  1  0
  7  8  2  0
  8  9  1  0
  9 10  1  0
 10 11  1  0
 11 12  1  0
 12 13  1  0
 13 14  1  0
 14 15  1  0
  2 16  1  0
 16 17  2  0
 17 18  1  0
 18 19  2  0
 19 20  1  0
 19 21  1  0
 21 22  2  0
  9  5  1  0
 15 10  1  0
 22 16  1  0
  3 23  1  0
  3 24  1  0
 10 25  1  0
 11 26  1  0
 11 27  1  0
 12 28  1  0
 12 29  1  0
 13 30  1  0
 13 31  1  0
 14 32  1  0
 14 33  1  0
 15 34  1  0
 15 35  1  0
 17 36  1  0
 18 37  1  0
 21 38  1  0
 22 39  1  0
M  END
>  <UniqueID>  (24) 
22

>  <SMILES>  (24) 
O=C(CSc1nnnn1C1CCCCC1)c1ccc(Cl)cc1

>  <Energy>  (24) 
80.67393793992974

>  <Genealogy>  (24) 
O=C(CSc1nnnn1C1CCCCC1)c1ccc(Cl)cc1 (3D coordinates assigned)
O=C(CSc1nnnn1C1CCCCC1)c1ccc(Cl)cc1 (nonaromatic ring conformer: 80.67393793992974 kcal/mol)

>  <smiles>  (24) 
O=C(CSc1nnnn1C1CCCCC1)c1ccc(Cl)cc1

>  <score_type>  (24) 
oracle

>  <origin>  (24) 
adg

>  <m_score__min__energy>  (24) 
-9.6199999999999992

>  <m_primary>  (24) 
energy

$$$$
24:0
     RDKit          3D

 29 32  0  0  0  0  0  0  0  0999 V2000
   -0.3291   24.9327  -27.9727 H   0  0  0  0  0  0  0  0  0  0  0  0
   -1.2530   24.5340  -28.4170 C   0  0  0  0  0  0  0  0  0  0  0  0
   -2.0070   25.2480  -29.2940 N   0  0  0  0  0  0  0  0  0  0  0  0
   -3.0880   24.5470  -29.7000 C   0  0  0  0  0  0  0  0  0  0  0  0
   -3.9800   24.9880  -30.5360 N   0  0  0  0  0  0  0  0  0  0  0  0
   -5.3920   24.7350  -30.4810 C   0  0  0  0  0  0  0  0  0  0  0  0
   -6.0570   24.9600  -29.4320 O   0  0  0  0  0  0  0  0  0  0  0  0
   -6.0740   24.1440  -31.6720 C   0  0  0  0  0  0  0  0  0  0  0  0
   -7.1413   24.0004  -31.4479 H   0  0  0  0  0  0  0  0  0  0  0  0
   -5.9640   24.8248  -32.5290 H   0  0  0  0  0  0  0  0  0  0  0  0
   -5.4700   22.8570  -31.9980 N   0  0  0  0  0  0  0  0  0  0  0  0
   -4.2620   22.6850  -32.5380 N   0  0  0  0  0  0  0  0  0  0  0  0
   -4.0590   21.4080  -32.8860 N   0  0  0  0  0  0  0  0  0  0  0  0
   -5.1970   20.7830  -32.5370 C   0  0  0  0  0  0  0  0  0  0  0  0
   -5.7310   19.5290  -32.7710 C   0  0  0  0  0  0  0  0  0  0  0  0
   -5.1240   18.4170  -33.3510 C   0  0  0  0  0  0  0  0  0  0  0  0
   -4.0745   18.4523  -33.6785 H   0  0  0  0  0  0  0  0  0  0  0  0
   -5.8900   17.2490  -33.5060 C   0  0  0  0  0  0  0  0  0  0  0  0
   -5.4335   16.3531  -33.9521 H   0  0  0  0  0  0  0  0  0  0  0  0
   -7.2380   17.2150  -33.0950 C   0  0  0  0  0  0  0  0  0  0  0  0
   -7.8223   16.2914  -33.2199 H   0  0  0  0  0  0  0  0  0  0  0  0
   -7.8430   18.3500  -32.5270 C   0  0  0  0  0  0  0  0  0  0  0  0
   -8.8971   18.3290  -32.2134 H   0  0  0  0  0  0  0  0  0  0  0  0
   -7.0750   19.5020  -32.3710 C   0  0  0  0  0  0  0  0  0  0  0  0
   -7.5920   21.0280  -31.7720 S   0  0  0  0  0  0  0  0  0  0  0  0
   -6.0460   21.6530  -32.0070 C   0  0  0  0  0  0  0  0  0  0  0  0
   -3.1550   23.0260  -28.9940 S   0  0  0  0  0  0  0  0  0  0  0  0
   -1.7340   23.2630  -28.1220 C   0  0  0  0  0  0  0  0  0  0  0  0
   -1.2675   22.5386  -27.4382 H   0  0  0  0  0  0  0  0  0  0  0  0
  1  2  1  0
  2  3  1  0
  3  4  1  0
  4  5  2  0
  5  6  1  0
  6  7  2  0
  6  8  1  0
  8  9  1  0
  8 10  1  0
  8 11  1  0
 11 12  1  0
 12 13  2  0
 13 14  1  0
 14 15  1  0
 15 16  2  0
 16 17  1  0
 16 18  1  0
 18 19  1  0
 18 20  2  0
 20 21  1  0
 20 22  1  0
 22 23  1  0
 22 24  2  0
 24 25  1  0
 25 26  1  0
  4 27  1  0
 27 28  1  0
 28 29  1  0
 28  2  2  0
 26 11  1  0
 26 14  2  0
 24 15  1  0
M  CHG  1   3  -1
M  END
>  <UniqueID>  (25) 
23

>  <SMILES>  (25) 
O=C(Cn1nnc2c3ccccc3sc21)/N=c1\[n-]ccs1

>  <Energy>  (25) 
157.34974636311006

>  <Genealogy>  (25) 
O=C(Cn1nnc2c3ccccc3sc21)N=c1[n-]ccs1 (protonated)
O=C(Cn1nnc2c3ccccc3sc21)/N=c1\[n-]ccs1 (cis-trans isomerization)
O=C(Cn1nnc2c3ccccc3sc21)/N=c1\[n-]ccs1 (3D coordinates assigned)
O=C(Cn1nnc2c3ccccc3sc21)/N=c1\[n-]ccs1 (optimized conformer: 157.34974636311006 kcal/mol)

>  <smiles>  (25) 
O=C(Cn1nnc2c3ccccc3sc21)N=c1[nH]ccs1

>  <score_type>  (25) 
oracle

>  <origin>  (25) 
adg

>  <m_score__min__energy>  (25) 
-10.08

>  <m_primary>  (25) 
energy

$$$$
25:0
     RDKit          3D

 47 49  0  0  0  0  0  0  0  0999 V2000
   -1.8390   25.1390  -28.1170 C   0  0  0  0  0  0  0  0  0  0  0  0
   -2.5450   25.2730  -29.3460 O   0  0  0  0  0  0  0  0  0  0  0  0
   -3.4980   24.3580  -29.8220 C   0  0  0  0  0  0  0  0  0  0  0  0
   -4.8300   24.7330  -30.0780 C   0  0  0  0  0  0  0  0  0  0  0  0
   -5.7540   23.7980  -30.5640 C   0  0  0  0  0  0  0  0  0  0  0  0
   -5.3550   22.4630  -30.7710 C   0  0  0  0  0  0  0  0  0  0  0  0
   -4.0280   22.0880  -30.5100 C   0  0  0  0  0  0  0  0  0  0  0  0
   -3.0950   23.0320  -30.0400 C   0  0  0  0  0  0  0  0  0  0  0  0
   -1.7600   22.6900  -29.7740 O   0  0  0  0  0  0  0  0  0  0  0  0
   -1.2170   21.3820  -29.9120 C   0  0  0  0  0  0  0  0  0  0  0  0
   -6.3440   21.4820  -31.2760 C   0  0  0  0  0  0  0  0  0  0  0  0
   -6.0770   20.1480  -31.2530 N   0  0  0  0  0  0  0  0  0  0  0  0
   -6.9470   19.2360  -31.6970 N   0  0  0  0  0  0  0  0  0  0  0  0
   -6.5760   17.8200  -31.5990 C   0  0  0  0  0  0  0  0  0  0  0  0
   -5.7900   17.3910  -32.8430 C   0  0  0  0  0  0  0  0  0  0  0  0
   -5.5220   18.5520  -33.7190 N   0  0  0  0  0  0  0  0  0  0  0  0
   -5.6740   18.1900  -35.1390 C   0  0  0  0  0  0  0  0  0  0  0  0
   -4.1600   19.0590  -33.4890 C   0  0  0  0  0  0  0  0  0  0  0  0
   -8.1670   19.6220  -32.1870 C   0  0  0  0  0  0  0  0  0  0  0  0
   -9.0000   18.7690  -32.5960 O   0  0  0  0  0  0  0  0  0  0  0  0
   -8.4920   20.9780  -32.2400 C   0  0  0  0  0  0  0  0  0  0  0  0
   -7.5800   21.9230  -31.7680 C   0  0  0  0  0  0  0  0  0  0  0  0
   -7.8640   23.3990  -31.8870 C   0  0  0  0  0  0  0  0  0  0  0  0
   -7.2010   24.1920  -30.7510 C   0  0  0  0  0  0  0  0  0  0  0  0
   -2.5368   25.2714  -27.2770 H   0  0  0  0  0  0  0  0  0  0  0  0
   -1.3849   24.1386  -28.0622 H   0  0  0  0  0  0  0  0  0  0  0  0
   -1.0499   25.9034  -28.0622 H   0  0  0  0  0  0  0  0  0  0  0  0
   -5.1489   25.7697  -29.8949 H   0  0  0  0  0  0  0  0  0  0  0  0
   -3.7138   21.0467  -30.6742 H   0  0  0  0  0  0  0  0  0  0  0  0
   -1.0385   20.9521  -28.9154 H   0  0  0  0  0  0  0  0  0  0  0  0
   -1.9259   20.7470  -30.4637 H   0  0  0  0  0  0  0  0  0  0  0  0
   -0.2669   21.4358  -30.4637 H   0  0  0  0  0  0  0  0  0  0  0  0
   -5.9526   17.6688  -30.7054 H   0  0  0  0  0  0  0  0  0  0  0  0
   -7.4909   17.2137  -31.5259 H   0  0  0  0  0  0  0  0  0  0  0  0
   -4.8337   16.9465  -32.5302 H   0  0  0  0  0  0  0  0  0  0  0  0
   -6.3877   16.6566  -33.4027 H   0  0  0  0  0  0  0  0  0  0  0  0
   -6.0988   17.1783  -35.2160 H   0  0  0  0  0  0  0  0  0  0  0  0
   -6.3464   18.9084  -35.6306 H   0  0  0  0  0  0  0  0  0  0  0  0
   -4.6902   18.2130  -35.6306 H   0  0  0  0  0  0  0  0  0  0  0  0
   -3.9725   19.1288  -32.4073 H   0  0  0  0  0  0  0  0  0  0  0  0
   -3.4313   18.3719  -33.9439 H   0  0  0  0  0  0  0  0  0  0  0  0
   -4.0580   20.0553  -33.9439 H   0  0  0  0  0  0  0  0  0  0  0  0
   -9.4603   21.2998  -32.6509 H   0  0  0  0  0  0  0  0  0  0  0  0
   -7.4756   23.7614  -32.8502 H   0  0  0  0  0  0  0  0  0  0  0  0
   -8.9520   23.5478  -31.8232 H   0  0  0  0  0  0  0  0  0  0  0  0
   -7.2503   25.2648  -30.9892 H   0  0  0  0  0  0  0  0  0  0  0  0
   -7.7399   23.9699  -29.8181 H   0  0  0  0  0  0  0  0  0  0  0  0
  1  2  1  0
  2  3  1  0
  3  4  2  0
  4  5  1  0
  5  6  2  0
  6  7  1  0
  7  8  2  0
  8  9  1  0
  9 10  1  0
  6 11  1  0
 11 12  2  0
 12 13  1  0
 13 14  1  0
 14 15  1  0
 15 16  1  0
 16 17  1  0
 16 18  1  0
 13 19  1  0
 19 20  2  0
 19 21  1  0
 21 22  2  0
 22 23  1  0
 23 24  1  0
  8  3  1  0
 22 11  1  0
 24  5  1  0
  1 25  1  0
  1 26  1  0
  1 27  1  0
  4 28  1  0
  7 29  1  0
 10 30  1  0
 10 31  1  0
 10 32  1  0
 14 33  1  0
 14 34  1  0
 15 35  1  0
 15 36  1  0
 17 37  1  0
 17 38  1  0
 17 39  1  0
 18 40  1  0
 18 41  1  0
 18 42  1  0
 21 43  1  0
 23 44  1  0
 23 45  1  0
 24 46  1  0
 24 47  1  0
M  END
>  <UniqueID>  (26) 
24

>  <SMILES>  (26) 
COc1cc2c(cc1OC)-c1nn(CCN(C)C)c(=O)cc1CC2

>  <Energy>  (26) 
50.61614621517027

>  <Genealogy>  (26) 
COc1cc2c(cc1OC)-c1nn(CCN(C)C)c(=O)cc1CC2 (3D coordinates assigned)
COc1cc2c(cc1OC)-c1nn(CCN(C)C)c(=O)cc1CC2 (nonaromatic ring conformer: 50.61614621517027 kcal/mol)

>  <smiles>  (26) 
COc1cc2c(cc1OC)-c1nn(CCN(C)C)c(=O)cc1CC2

>  <score_type>  (26) 
oracle

>  <origin>  (26) 
adg

>  <m_score__min__energy>  (26) 
-8.2200000000000006

>  <m_primary>  (26) 
energy

$$$$
26:0
     RDKit          3D

 36 38  0  0  0  0  0  0  0  0999 V2000
   -2.7901   22.9805  -28.4401 H   0  0  0  0  0  0  0  0  0  0  0  0
   -3.4200   22.9220  -29.3400 C   0  0  0  0  0  0  0  0  0  0  0  0
   -4.1090   24.1540  -29.7670 C   0  0  0  0  0  0  0  0  0  0  0  0
   -3.4880   24.9550  -30.5180 O   0  0  0  0  0  0  0  0  0  0  0  0
   -5.4360   24.5490  -29.1680 C   0  0  0  0  0  0  0  0  0  0  0  0
   -5.7975   23.7230  -28.5378 H   0  0  0  0  0  0  0  0  0  0  0  0
   -5.2765   25.4670  -28.5834 H   0  0  0  0  0  0  0  0  0  0  0  0
   -6.7030   24.9150  -30.4370 S   0  0  0  0  0  0  0  0  0  0  0  0
   -6.9280   23.2050  -30.9190 C   0  0  0  0  0  0  0  0  0  0  0  0
   -7.7620   22.3560  -30.2860 N   0  0  0  0  0  0  0  0  0  0  0  0
   -7.7800   21.1390  -30.8270 N   0  0  0  0  0  0  0  0  0  0  0  0
   -6.9640   21.0100  -31.9000 C   0  0  0  0  0  0  0  0  0  0  0  0
   -6.7940   19.7450  -32.6480 C   0  0  0  0  0  0  0  0  0  0  0  0
   -6.0760   19.7290  -33.8560 C   0  0  0  0  0  0  0  0  0  0  0  0
   -5.6315   20.6563  -34.2466 H   0  0  0  0  0  0  0  0  0  0  0  0
   -5.9290   18.5300  -34.5590 C   0  0  0  0  0  0  0  0  0  0  0  0
   -5.3678   18.5134  -35.5050 H   0  0  0  0  0  0  0  0  0  0  0  0
   -6.4780   17.3850  -34.0760 N   0  0  0  0  0  0  0  0  0  0  0  0
   -7.1780   17.3670  -32.9120 C   0  0  0  0  0  0  0  0  0  0  0  0
   -7.6107   16.4239  -32.5469 H   0  0  0  0  0  0  0  0  0  0  0  0
   -7.3500   18.5430  -32.1770 C   0  0  0  0  0  0  0  0  0  0  0  0
   -7.9175   18.5281  -31.2348 H   0  0  0  0  0  0  0  0  0  0  0  0
   -6.1650   22.4640  -32.2190 S   0  0  0  0  0  0  0  0  0  0  0  0
   -3.5000   21.7360  -29.9610 C   0  0  0  0  0  0  0  0  0  0  0  0
   -4.1783   20.9833  -29.5328 H   0  0  0  0  0  0  0  0  0  0  0  0
   -2.7470   21.3630  -31.1760 C   0  0  0  0  0  0  0  0  0  0  0  0
   -3.4150   20.9210  -32.3320 C   0  0  0  0  0  0  0  0  0  0  0  0
   -4.5082   20.7998  -32.3207 H   0  0  0  0  0  0  0  0  0  0  0  0
   -2.6940   20.6350  -33.4960 C   0  0  0  0  0  0  0  0  0  0  0  0
   -3.2219   20.2944  -34.3989 H   0  0  0  0  0  0  0  0  0  0  0  0
   -1.3060   20.7810  -33.5140 C   0  0  0  0  0  0  0  0  0  0  0  0
   -0.7395   20.5402  -34.4256 H   0  0  0  0  0  0  0  0  0  0  0  0
   -0.6360   21.2330  -32.3740 C   0  0  0  0  0  0  0  0  0  0  0  0
    0.4576   21.3507  -32.3909 H   0  0  0  0  0  0  0  0  0  0  0  0
   -1.3520   21.5360  -31.2120 C   0  0  0  0  0  0  0  0  0  0  0  0
   -0.6870   21.9850  -30.1180 F   0  0  0  0  0  0  0  0  0  0  0  0
  1  2  1  0
  2  3  1  0
  3  4  2  0
  3  5  1  0
  5  6  1  0
  5  7  1  0
  5  8  1  0
  8  9  1  0
  9 10  2  0
 10 11  1  0
 11 12  2  0
 12 13  1  0
 13 14  2  0
 14 15  1  0
 14 16  1  0
 16 17  1  0
 16 18  2  0
 18 19  1  0
 19 20  1  0
 19 21  2  0
 21 22  1  0
 12 23  1  0
  2 24  2  0
 24 25  1  0
 24 26  1  0
 26 27  2  0
 27 28  1  0
 27 29  1  0
 29 30  1  0
 29 31  2  0
 31 32  1  0
 31 33  1  0
 33 34  1  0
 33 35  2  0
 35 36  1  0
 23  9  1  0
 35 26  1  0
 21 13  1  0
M  END
>  <UniqueID>  (27) 
25

>  <SMILES>  (27) 
O=C(/C=C\c1ccccc1F)CSc1nnc(-c2ccncc2)s1

>  <Energy>  (27) 
79.40456038446055

>  <Genealogy>  (27) 
O=C(/C=C\c1ccccc1F)CSc1nnc(-c2ccncc2)s1 (cis-trans isomerization)
O=C(/C=C\c1ccccc1F)CSc1nnc(-c2ccncc2)s1 (3D coordinates assigned)
O=C(/C=C\c1ccccc1F)CSc1nnc(-c2ccncc2)s1 (optimized conformer: 79.40456038446055 kcal/mol)

>  <smiles>  (27) 
O=C(C=Cc1ccccc1F)CSc1nnc(-c2ccncc2)s1

>  <score_type>  (27) 
oracle

>  <origin>  (27) 
adg

>  <m_score__min__energy>  (27) 
-9.3699999999999992

>  <m_primary>  (27) 
energy

$$$$
27:0
     RDKit          3D

 27 28  0  0  0  0  0  0  0  0999 V2000
   -4.4990   25.1950  -29.9020 N   0  0  0  0  0  0  0  0  0  0  0  0
   -5.4620   24.3880  -30.2400 C   0  0  0  0  0  0  0  0  0  0  0  0
   -5.9390   23.4740  -29.3470 N   0  0  0  0  0  0  0  0  0  0  0  0
   -6.9370   22.6680  -29.7560 C   0  0  0  0  0  0  0  0  0  0  0  0
   -7.4630   22.7620  -31.0460 C   0  0  0  0  0  0  0  0  0  0  0  0
   -8.5550   21.8210  -31.3830 C   0  0  0  0  0  0  0  0  0  0  0  0
   -8.0890   20.5640  -31.9620 C   0  0  0  0  0  0  0  0  0  0  0  0
   -8.6480   19.3820  -31.4610 C   0  0  0  0  0  0  0  0  0  0  0  0
   -8.2330   18.1640  -31.9910 C   0  0  0  0  0  0  0  0  0  0  0  0
   -7.2900   18.0850  -32.9920 C   0  0  0  0  0  0  0  0  0  0  0  0
   -6.8090   16.6540  -33.6070 S   0  0  0  0  0  0  0  0  0  0  0  0
   -6.7650   19.2420  -33.4580 N   0  0  0  0  0  0  0  0  0  0  0  0
   -7.1460   20.4480  -32.9640 C   0  0  0  0  0  0  0  0  0  0  0  0
   -6.9550   23.6970  -31.9160 C   0  0  0  0  0  0  0  0  0  0  0  0
   -7.4230   23.8010  -33.0980 N   0  0  0  0  0  0  0  0  0  0  0  0
   -5.9560   24.4950  -31.4860 N   0  0  0  0  0  0  0  0  0  0  0  0
   -4.4780   25.6650  -28.9640 H   0  0  0  0  0  0  0  0  0  0  0  0
   -5.5520   23.3940  -28.3820 H   0  0  0  0  0  0  0  0  0  0  0  0
   -7.3460   21.9207  -29.0601 H   0  0  0  0  0  0  0  0  0  0  0  0
   -9.1137   21.5936  -30.4631 H   0  0  0  0  0  0  0  0  0  0  0  0
   -9.1800   22.3128  -32.1430 H   0  0  0  0  0  0  0  0  0  0  0  0
   -9.4028   19.4156  -30.6616 H   0  0  0  0  0  0  0  0  0  0  0  0
   -8.6719   17.2350  -31.5982 H   0  0  0  0  0  0  0  0  0  0  0  0
   -6.0380   19.2630  -34.2230 H   0  0  0  0  0  0  0  0  0  0  0  0
   -6.6894   21.3606  -33.3746 H   0  0  0  0  0  0  0  0  0  0  0  0
   -6.8840   23.8100  -33.9830 H   0  0  0  0  0  0  0  0  0  0  0  0
   -5.5430   25.2270  -32.1360 H   0  0  0  0  0  0  0  0  0  0  0  0
  1  2  2  3
  2  3  1  0
  3  4  1  0
  4  5  2  0
  5  6  1  0
  6  7  1  0
  7  8  1  0
  8  9  2  0
  9 10  1  0
 10 11  2  0
 10 12  1  0
 12 13  1  0
  5 14  1  0
 14 15  2  3
 14 16  1  0
 16  2  1  0
 13  7  2  0
  1 17  1  0
  3 18  1  0
  4 19  1  0
  6 20  1  0
  6 21  1  0
  8 22  1  0
  9 23  1  0
 12 24  1  0
 13 25  1  0
 15 26  1  0
 16 27  1  0
M  END
>  <smiles>  (28) 
N=c1[nH]cc(Cc2ccc(=S)[nH]c2)c(=N)[nH]1

>  <score_type>  (28) 
oracle

>  <origin>  (28) 
adg

>  <m_score__min__energy>  (28) 
-6.4400000000000004

>  <m_primary>  (28) 
energy

$$$$
28:0
     RDKit          3D

 32 34  0  0  0  0  0  0  0  0999 V2000
   -1.1500   20.4850  -33.8740 C   0  0  0  0  0  0  0  0  0  0  0  0
   -1.8580   21.2200  -32.8370 N   0  0  0  0  0  0  0  0  0  0  0  0
   -3.1040   21.7190  -32.9370 C   0  0  0  0  0  0  0  0  0  0  0  0
   -3.4380   22.2800  -31.7200 C   0  0  0  0  0  0  0  0  0  0  0  0
   -4.6930   22.9770  -31.3530 C   0  0  0  0  0  0  0  0  0  0  0  0
   -5.9220   22.3510  -31.6310 C   0  0  0  0  0  0  0  0  0  0  0  0
   -7.1260   22.9310  -31.2210 C   0  0  0  0  0  0  0  0  0  0  0  0
   -8.7820   22.0560  -31.5930 Br  0  0  0  0  0  0  0  0  0  0  0  0
   -7.1170   24.1400  -30.5240 C   0  0  0  0  0  0  0  0  0  0  0  0
   -5.9080   24.7830  -30.2570 C   0  0  0  0  0  0  0  0  0  0  0  0
   -4.6960   24.2310  -30.6890 C   0  0  0  0  0  0  0  0  0  0  0  0
   -3.4940   24.9790  -30.4640 N   0  0  0  0  0  0  0  0  0  0  0  0
   -2.6580   24.8510  -29.3080 C   0  0  0  0  0  0  0  0  0  0  0  0
   -1.5830   25.5040  -29.2550 O   0  0  0  0  0  0  0  0  0  0  0  0
   -3.0430   23.9740  -28.1490 C   0  0  0  0  0  0  0  0  0  0  0  0
   -4.1720   24.5240  -27.2890 C   0  0  0  0  0  0  0  0  0  0  0  0
   -2.7440   24.5550  -26.7740 C   0  0  0  0  0  0  0  0  0  0  0  0
   -2.3250   22.0840  -30.9190 C   0  0  0  0  0  0  0  0  0  0  0  0
   -1.3810   21.4230  -31.6180 N   0  0  0  0  0  0  0  0  0  0  0  0
   -0.4588   19.7674  -33.4079 H   0  0  0  0  0  0  0  0  0  0  0  0
   -1.8748   19.9429  -34.4991 H   0  0  0  0  0  0  0  0  0  0  0  0
   -0.5811   21.1890  -34.4991 H   0  0  0  0  0  0  0  0  0  0  0  0
   -3.7440   21.6858  -33.8311 H   0  0  0  0  0  0  0  0  0  0  0  0
   -5.9356   21.3958  -32.1763 H   0  0  0  0  0  0  0  0  0  0  0  0
   -8.0636   24.5862  -30.1850 H   0  0  0  0  0  0  0  0  0  0  0  0
   -5.9070   25.7326  -29.7018 H   0  0  0  0  0  0  0  0  0  0  0  0
   -2.8345   23.0180  -28.6517 H   0  0  0  0  0  0  0  0  0  0  0  0
   -4.6741   25.4603  -27.5740 H   0  0  0  0  0  0  0  0  0  0  0  0
   -5.1259   24.1269  -26.9117 H   0  0  0  0  0  0  0  0  0  0  0  0
   -2.2119   25.5137  -26.6861 H   0  0  0  0  0  0  0  0  0  0  0  0
   -2.2357   24.1897  -25.8695 H   0  0  0  0  0  0  0  0  0  0  0  0
   -2.2269   22.4161  -29.8749 H   0  0  0  0  0  0  0  0  0  0  0  0
  1  2  1  0
  2  3  1  0
  3  4  2  0
  4  5  1  0
  5  6  2  0
  6  7  1  0
  7  8  1  0
  7  9  2  0
  9 10  1  0
 10 11  2  0
 11 12  1  0
 12 13  1  0
 13 14  2  0
 13 15  1  0
 15 16  1  0
 16 17  1  0
  4 18  1  0
 18 19  2  0
 19  2  1  0
 11  5  1  0
 17 15  1  0
  1 20  1  0
  1 21  1  0
  1 22  1  0
  3 23  1  0
  6 24  1  0
  9 25  1  0
 10 26  1  0
 15 27  1  0
 16 28  1  0
 16 29  1  0
 17 30  1  0
 17 31  1  0
 18 32  1  0
M  CHG  1  12  -1
M  END
>  <UniqueID>  (29) 
26

>  <SMILES>  (29) 
Cn1cc(-c2cc(Br)ccc2[N-]C(=O)C2CC2)cn1

>  <Energy>  (29) 
334.57777086185774

>  <Genealogy>  (29) 
Cn1cc(-c2cc(Br)ccc2[N-]C(=O)C2CC2)cn1 (protonated)
Cn1cc(-c2cc(Br)ccc2[N-]C(=O)C2CC2)cn1 (3D coordinates assigned)
Cn1cc(-c2cc(Br)ccc2[N-]C(=O)C2CC2)cn1 (nonaromatic ring conformer: 334.57777086185774 kcal/mol)

>  <smiles>  (29) 
Cn1cc(-c2cc(Br)ccc2NC(=O)C2CC2)cn1

>  <score_type>  (29) 
oracle

>  <origin>  (29) 
adg

>  <m_score__min__energy>  (29) 
-9.4000000000000004

>  <m_primary>  (29) 
energy

$$$$
29:0
     RDKit          3D

 49 51  0  0  0  0  0  0  0  0999 V2000
   -8.0340   23.0180  -31.5450 C   0  0  0  0  0  0  0  0  0  0  0  0
   -6.5680   23.1760  -31.2940 C   0  0  0  0  0  0  0  0  0  0  0  0
   -6.0200   24.4440  -31.0730 C   0  0  0  0  0  0  0  0  0  0  0  0
   -4.6460   24.5430  -30.8430 C   0  0  0  0  0  0  0  0  0  0  0  0
   -4.1180   25.6670  -30.6380 O   0  0  0  0  0  0  0  0  0  0  0  0
   -3.8780   23.4230  -30.8390 N   0  0  0  0  0  0  0  0  0  0  0  0
   -4.4250   22.1970  -31.0600 C   0  0  0  0  0  0  0  0  0  0  0  0
   -3.5590   20.9700  -31.0310 C   0  0  0  0  0  0  0  0  0  0  0  0
   -2.2230   21.2060  -31.6340 N   0  0  0  0  0  0  0  0  0  0  0  0
   -2.2760   21.4820  -33.0910 C   0  0  0  0  0  0  0  0  0  0  0  0
   -2.8380   20.2890  -33.8800 C   0  0  0  0  0  0  0  0  0  0  0  0
   -2.4140   19.0190  -33.2830 N   0  0  0  0  0  0  0  0  0  0  0  0
   -3.1220   17.7950  -33.5670 C   0  0  0  0  0  0  0  0  0  0  0  0
   -3.1110   16.8580  -32.7240 O   0  0  0  0  0  0  0  0  0  0  0  0
   -3.8250   17.5710  -34.8810 C   0  0  0  0  0  0  0  0  0  0  0  0
   -5.2450   17.0270  -34.6710 C   0  0  0  0  0  0  0  0  0  0  0  0
   -6.0770   17.9540  -33.8210 C   0  0  0  0  0  0  0  0  0  0  0  0
   -6.8740   17.4440  -32.7830 C   0  0  0  0  0  0  0  0  0  0  0  0
   -7.6920   18.2990  -32.0380 C   0  0  0  0  0  0  0  0  0  0  0  0
   -7.7250   19.6640  -32.3290 C   0  0  0  0  0  0  0  0  0  0  0  0
   -6.9360   20.1790  -33.3620 C   0  0  0  0  0  0  0  0  0  0  0  0
   -6.1130   19.3290  -34.1040 C   0  0  0  0  0  0  0  0  0  0  0  0
   -1.2160   19.0060  -32.4370 C   0  0  0  0  0  0  0  0  0  0  0  0
   -1.2920   20.0840  -31.3320 C   0  0  0  0  0  0  0  0  0  0  0  0
   -5.7610   22.0820  -31.2820 N   0  0  0  0  0  0  0  0  0  0  0  0
   -8.5664   22.9606  -30.5841 H   0  0  0  0  0  0  0  0  0  0  0  0
   -8.4031   23.8816  -32.1177 H   0  0  0  0  0  0  0  0  0  0  0  0
   -8.2106   22.0956  -32.1177 H   0  0  0  0  0  0  0  0  0  0  0  0
   -6.6560   25.3415  -31.0802 H   0  0  0  0  0  0  0  0  0  0  0  0
   -3.4243   20.6573  -29.9850 H   0  0  0  0  0  0  0  0  0  0  0  0
   -4.0613   20.1908  -31.6230 H   0  0  0  0  0  0  0  0  0  0  0  0
   -1.8280   22.0630  -31.1760 H   0  0  0  0  0  0  0  0  0  0  0  0
   -2.9191   22.3575  -33.2640 H   0  0  0  0  0  0  0  0  0  0  0  0
   -1.2498   21.6687  -33.4402 H   0  0  0  0  0  0  0  0  0  0  0  0
   -3.9368   20.3398  -33.8752 H   0  0  0  0  0  0  0  0  0  0  0  0
   -2.4550   20.3377  -34.9100 H   0  0  0  0  0  0  0  0  0  0  0  0
   -3.8843   18.5266  -35.4226 H   0  0  0  0  0  0  0  0  0  0  0  0
   -3.2523   16.8301  -35.4581 H   0  0  0  0  0  0  0  0  0  0  0  0
   -5.7305   16.9099  -35.6511 H   0  0  0  0  0  0  0  0  0  0  0  0
   -5.1688   16.0606  -34.1511 H   0  0  0  0  0  0  0  0  0  0  0  0
   -6.8546   16.3680  -32.5553 H   0  0  0  0  0  0  0  0  0  0  0  0
   -8.3099   17.8958  -31.2221 H   0  0  0  0  0  0  0  0  0  0  0  0
   -8.3723   20.3349  -31.7451 H   0  0  0  0  0  0  0  0  0  0  0  0
   -6.9635   21.2547  -33.5905 H   0  0  0  0  0  0  0  0  0  0  0  0
   -5.4905   19.7382  -34.9133 H   0  0  0  0  0  0  0  0  0  0  0  0
   -1.1220   18.0166  -31.9655 H   0  0  0  0  0  0  0  0  0  0  0  0
   -0.3432   19.2219  -33.0708 H   0  0  0  0  0  0  0  0  0  0  0  0
   -1.6251   19.6008  -30.4016 H   0  0  0  0  0  0  0  0  0  0  0  0
   -0.2865   20.5223  -31.2497 H   0  0  0  0  0  0  0  0  0  0  0  0
  1  2  1  0
  2  3  2  0
  3  4  1  0
  4  5  2  0
  4  6  1  0
  6  7  1  0
  7  8  1  0
  8  9  1  0
  9 10  1  0
 10 11  1  0
 11 12  1  0
 12 13  1  0
 13 14  2  0
 13 15  1  0
 15 16  1  0
 16 17  1  0
 17 18  2  0
 18 19  1  0
 19 20  2  0
 20 21  1  0
 21 22  2  0
 12 23  1  0
 23 24  1  0
  7 25  2  0
 25  2  1  0
 24  9  1  0
 22 17  1  0
  1 26  1  0
  1 27  1  0
  1 28  1  0
  3 29  1  0
  8 30  1  0
  8 31  1  0
  9 32  1  0
 10 33  1  0
 10 34  1  0
 11 35  1  0
 11 36  1  0
 15 37  1  0
 15 38  1  0
 16 39  1  0
 16 40  1  0
 18 41  1  0
 19 42  1  0
 20 43  1  0
 21 44  1  0
 22 45  1  0
 23 46  1  0
 23 47  1  0
 24 48  1  0
 24 49  1  0
M  CHG  2   6  -1   9   1
M  END
>  <UniqueID>  (30) 
27

>  <SMILES>  (30) 
Cc1cc(=O)[n-]c(C[NH+]2CCN(C(=O)CCc3ccccc3)CC2)n1

>  <Energy>  (30) 
55.036733087073515

>  <Genealogy>  (30) 
Cc1cc(=O)[n-]c(C[NH+]2CCN(C(=O)CCc3ccccc3)CC2)n1 (protonated)
Cc1cc(=O)[n-]c(C[NH+]2CCN(C(=O)CCc3ccccc3)CC2)n1 (3D coordinates assigned)
Cc1cc(=O)[n-]c(C[NH+]2CCN(C(=O)CCc3ccccc3)CC2)n1 (nonaromatic ring conformer: 55.036733087073515 kcal/mol)

>  <smiles>  (30) 
Cc1cc(=O)[nH]c(CN2CCN(C(=O)CCc3ccccc3)CC2)n1

>  <score_type>  (30) 
oracle

>  <origin>  (30) 
adg

>  <m_score__min__energy>  (30) 
-8.2400000000000002

>  <m_primary>  (30) 
energy

$$$$
30:0
     RDKit          3D

 60 64  0  0  0  0  0  0  0  0999 V2000
   -4.5620   24.9220  -26.7360 C   0  0  0  0  0  0  0  0  0  0  0  0
   -3.1060   24.9070  -27.1260 C   0  0  0  0  0  0  0  0  0  0  0  0
   -2.1600   25.1660  -26.1730 N   0  0  0  0  0  0  0  0  0  0  0  0
   -0.8160   25.2040  -26.4490 C   0  0  0  0  0  0  0  0  0  0  0  0
    0.1630   25.4890  -25.3970 N   0  0  0  0  0  0  0  0  0  0  0  0
   -0.0370   26.6800  -24.5430 C   0  0  0  0  0  0  0  0  0  0  0  0
    0.9960   26.8550  -23.4210 C   0  0  0  0  0  0  0  0  0  0  0  0
    2.3420   26.4170  -23.8040 N   0  0  0  0  0  0  0  0  0  0  0  0
    2.9400   27.2520  -24.8600 C   0  0  0  0  0  0  0  0  0  0  0  0
    2.3200   24.9920  -24.1450 C   0  0  0  0  0  0  0  0  0  0  0  0
    1.3920   24.6680  -25.3240 C   0  0  0  0  0  0  0  0  0  0  0  0
   -0.4070   24.9730  -27.7790 C   0  0  0  0  0  0  0  0  0  0  0  0
   -1.3470   24.6900  -28.7630 C   0  0  0  0  0  0  0  0  0  0  0  0
   -2.7090   24.6360  -28.4530 C   0  0  0  0  0  0  0  0  0  0  0  0
   -3.6600   24.3070  -29.4840 N   0  0  0  0  0  0  0  0  0  0  0  0
   -4.3690   23.1690  -29.5940 C   0  0  0  0  0  0  0  0  0  0  0  0
   -5.1840   23.3230  -30.7000 C   0  0  0  0  0  0  0  0  0  0  0  0
   -6.1590   22.3530  -31.2520 C   0  0  0  0  0  0  0  0  0  0  0  0
   -7.5330   22.6370  -31.2200 C   0  0  0  0  0  0  0  0  0  0  0  0
   -8.4300   21.7500  -31.7210 N   0  0  0  0  0  0  0  0  0  0  0  0
   -8.0430   20.5710  -32.2740 C   0  0  0  0  0  0  0  0  0  0  0  0
   -6.6840   20.2360  -32.3430 C   0  0  0  0  0  0  0  0  0  0  0  0
   -6.2680   18.9810  -32.9160 N   0  0  0  0  0  0  0  0  0  0  0  0
   -6.9150   17.7310  -32.4930 C   0  0  0  0  0  0  0  0  0  0  0  0
   -6.5400   16.5930  -33.4420 C   0  0  0  0  0  0  0  0  0  0  0  0
   -6.4870   17.0820  -34.7650 O   0  0  0  0  0  0  0  0  0  0  0  0
   -5.3310   17.8840  -34.9430 C   0  0  0  0  0  0  0  0  0  0  0  0
   -5.1110   18.9210  -33.8170 C   0  0  0  0  0  0  0  0  0  0  0  0
   -5.7430   21.1360  -31.8190 C   0  0  0  0  0  0  0  0  0  0  0  0
   -4.9530   24.5480  -31.2180 N   0  0  0  0  0  0  0  0  0  0  0  0
   -4.0300   25.1210  -30.4600 N   0  0  0  0  0  0  0  0  0  0  0  0
   -4.6479   24.9229  -25.6394 H   0  0  0  0  0  0  0  0  0  0  0  0
   -5.0411   25.8251  -27.1420 H   0  0  0  0  0  0  0  0  0  0  0  0
   -5.0596   24.0289  -27.1420 H   0  0  0  0  0  0  0  0  0  0  0  0
   -2.5040   25.3520  -25.2070 H   0  0  0  0  0  0  0  0  0  0  0  0
    0.0034   27.5716  -25.1860 H   0  0  0  0  0  0  0  0  0  0  0  0
   -1.0092   26.5427  -24.0470 H   0  0  0  0  0  0  0  0  0  0  0  0
    1.0389   27.9197  -23.1478 H   0  0  0  0  0  0  0  0  0  0  0  0
    0.6741   26.2258  -22.5781 H   0  0  0  0  0  0  0  0  0  0  0  0
    3.5217   28.0643  -24.3998 H   0  0  0  0  0  0  0  0  0  0  0  0
    3.6026   26.6347  -25.4844 H   0  0  0  0  0  0  0  0  0  0  0  0
    2.1422   27.6806  -25.4844 H   0  0  0  0  0  0  0  0  0  0  0  0
    3.3414   24.6793  -24.4075 H   0  0  0  0  0  0  0  0  0  0  0  0
    1.9357   24.4512  -23.2676 H   0  0  0  0  0  0  0  0  0  0  0  0
    1.9582   24.8179  -26.2551 H   0  0  0  0  0  0  0  0  0  0  0  0
    1.0596   23.6298  -25.1771 H   0  0  0  0  0  0  0  0  0  0  0  0
    0.6610   25.0170  -28.0387 H   0  0  0  0  0  0  0  0  0  0  0  0
   -1.0159   24.5067  -29.7958 H   0  0  0  0  0  0  0  0  0  0  0  0
   -4.3116   22.2903  -28.9347 H   0  0  0  0  0  0  0  0  0  0  0  0
   -7.8853   23.5845  -30.7861 H   0  0  0  0  0  0  0  0  0  0  0  0
   -8.7992   19.8767  -32.6691 H   0  0  0  0  0  0  0  0  0  0  0  0
   -6.5851   17.4780  -31.4746 H   0  0  0  0  0  0  0  0  0  0  0  0
   -8.0062   17.8683  -32.5120 H   0  0  0  0  0  0  0  0  0  0  0  0
   -5.5560   16.1899  -33.1604 H   0  0  0  0  0  0  0  0  0  0  0  0
   -7.2953   15.7961  -33.3755 H   0  0  0  0  0  0  0  0  0  0  0  0
   -4.4528   17.2227  -34.9818 H   0  0  0  0  0  0  0  0  0  0  0  0
   -5.4740   18.4494  -35.8756 H   0  0  0  0  0  0  0  0  0  0  0  0
   -4.2197   18.6378  -33.2378 H   0  0  0  0  0  0  0  0  0  0  0  0
   -4.9767   19.9110  -34.2772 H   0  0  0  0  0  0  0  0  0  0  0  0
   -4.6721   20.8871  -31.8523 H   0  0  0  0  0  0  0  0  0  0  0  0
  1  2  1  0
  2  3  2  0
  3  4  1  0
  4  5  1  0
  5  6  1  0
  6  7  1  0
  7  8  1  0
  8  9  1  0
  8 10  1  0
 10 11  1  0
  4 12  2  0
 12 13  1  0
 13 14  2  0
 14 15  1  0
 15 16  1  0
 16 17  2  0
 17 18  1  0
 18 19  2  0
 19 20  1  0
 20 21  2  0
 21 22  1  0
 22 23  1  0
 23 24  1  0
 24 25  1  0
 25 26  1  0
 26 27  1  0
 27 28  1  0
 22 29  2  0
 17 30  1  0
 30 31  2  0
 14  2  1  0
 31 15  1  0
 11  5  1  0
 29 18  1  0
 28 23  1  0
  1 32  1  0
  1 33  1  0
  1 34  1  0
  3 35  1  0
  6 36  1  0
  6 37  1  0
  7 38  1  0
  7 39  1  0
  9 40  1  0
  9 41  1  0
  9 42  1  0
 10 43  1  0
 10 44  1  0
 11 45  1  0
 11 46  1  0
 12 47  1  0
 13 48  1  0
 16 49  1  0
 19 50  1  0
 21 51  1  0
 24 52  1  0
 24 53  1  0
 25 54  1  0
 25 55  1  0
 27 56  1  0
 27 57  1  0
 28 58  1  0
 28 59  1  0
 29 60  1  0
M  CHG  1   3   1
M  END
>  <UniqueID>  (31) 
28

>  <SMILES>  (31) 
Cc1[nH+]c(N2CCN(C)CC2)ccc1-n1cc(-c2cncc(N3CCOCC3)c2)nn1

>  <Energy>  (31) 
127.572990832662

>  <Genealogy>  (31) 
Cc1[nH+]c(N2CCN(C)CC2)ccc1-n1cc(-c2cncc(N3CCOCC3)c2)nn1 (protonated)
Cc1[nH+]c(N2CCN(C)CC2)ccc1-n1cc(-c2cncc(N3CCOCC3)c2)nn1 (3D coordinates assigned)
Cc1[nH+]c(N2CCN(C)CC2)ccc1-n1cc(-c2cncc(N3CCOCC3)c2)nn1 (nonaromatic ring conformer: 127.572990832662 kcal/mol)

>  <smiles>  (31) 
Cc1nc(N2CCN(C)CC2)ccc1-n1cc(-c2cncc(N3CCOCC3)c2)nn1

>  <score_type>  (31) 
oracle

>  <origin>  (31) 
adg

>  <m_score__min__energy>  (31) 
-9.0500000000000007

>  <m_primary>  (31) 
energy

$$$$
31:0
     RDKit          3D

 50 53  0  0  0  0  0  0  0  0999 V2000
   -6.5040   24.3400  -30.5930 C   0  0  0  0  0  0  0  0  0  0  0  0
   -5.2580   25.2070  -30.4720 C   0  0  0  0  0  0  0  0  0  0  0  0
   -4.1240   24.4030  -30.0320 N   0  0  0  0  0  0  0  0  0  0  0  0
   -4.0550   23.0580  -30.0540 C   0  0  0  0  0  0  0  0  0  0  0  0
   -2.7940   22.6950  -29.6330 C   0  0  0  0  0  0  0  0  0  0  0  0
   -2.2310   21.3090  -29.5500 C   0  0  0  0  0  0  0  0  0  0  0  0
   -1.2050   21.0840  -30.5930 N   0  0  0  0  0  0  0  0  0  0  0  0
   -1.0190   19.6380  -30.8950 C   0  0  0  0  0  0  0  0  0  0  0  0
   -1.6320   19.1790  -32.2350 C   0  0  0  0  0  0  0  0  0  0  0  0
   -2.7890   20.0000  -32.5970 N   0  0  0  0  0  0  0  0  0  0  0  0
   -3.9140   19.3910  -33.2540 C   0  0  0  0  0  0  0  0  0  0  0  0
   -3.6900   18.4160  -34.2390 C   0  0  0  0  0  0  0  0  0  0  0  0
   -4.7640   17.7990  -34.8850 C   0  0  0  0  0  0  0  0  0  0  0  0
   -6.0750   18.1450  -34.5560 C   0  0  0  0  0  0  0  0  0  0  0  0
   -6.3210   19.1140  -33.5790 C   0  0  0  0  0  0  0  0  0  0  0  0
   -7.6020   19.4480  -33.2680 N   0  0  0  0  0  0  0  0  0  0  0  0
   -7.8940   20.3870  -32.3280 C   0  0  0  0  0  0  0  0  0  0  0  0
   -9.3210   20.7260  -32.0320 C   0  0  0  0  0  0  0  0  0  0  0  0
   -6.8580   21.0460  -31.6570 C   0  0  0  0  0  0  0  0  0  0  0  0
   -5.5330   20.7260  -31.9530 C   0  0  0  0  0  0  0  0  0  0  0  0
   -5.2400   19.7470  -32.9180 C   0  0  0  0  0  0  0  0  0  0  0  0
   -2.6730   21.4610  -32.5780 C   0  0  0  0  0  0  0  0  0  0  0  0
   -1.4180   21.8970  -31.8110 C   0  0  0  0  0  0  0  0  0  0  0  0
   -2.1340   23.8820  -29.3820 C   0  0  0  0  0  0  0  0  0  0  0  0
   -2.9660   24.9120  -29.6390 N   0  0  0  0  0  0  0  0  0  0  0  0
   -6.8717   24.0842  -29.5883 H   0  0  0  0  0  0  0  0  0  0  0  0
   -7.2832   24.8920  -31.1390 H   0  0  0  0  0  0  0  0  0  0  0  0
   -6.2572   23.4175  -31.1390 H   0  0  0  0  0  0  0  0  0  0  0  0
   -5.0291   25.6523  -31.4514 H   0  0  0  0  0  0  0  0  0  0  0  0
   -5.4436   25.9997  -29.7323 H   0  0  0  0  0  0  0  0  0  0  0  0
   -4.8609   22.3721  -30.3543 H   0  0  0  0  0  0  0  0  0  0  0  0
   -1.7733   21.1665  -28.5600 H   0  0  0  0  0  0  0  0  0  0  0  0
   -3.0495   20.5909  -29.7063 H   0  0  0  0  0  0  0  0  0  0  0  0
    0.0606   19.4289  -30.9218 H   0  0  0  0  0  0  0  0  0  0  0  0
   -1.5456   19.0835  -30.1043 H   0  0  0  0  0  0  0  0  0  0  0  0
   -0.8712   19.2630  -33.0250 H   0  0  0  0  0  0  0  0  0  0  0  0
   -1.9652   18.1363  -32.1265 H   0  0  0  0  0  0  0  0  0  0  0  0
   -2.6600   18.1355  -34.5043 H   0  0  0  0  0  0  0  0  0  0  0  0
   -4.5754   17.0375  -35.6560 H   0  0  0  0  0  0  0  0  0  0  0  0
   -6.9168   17.6542  -35.0665 H   0  0  0  0  0  0  0  0  0  0  0  0
   -9.4711   20.7617  -30.9429 H   0  0  0  0  0  0  0  0  0  0  0  0
   -9.5629   21.7066  -32.4678 H   0  0  0  0  0  0  0  0  0  0  0  0
   -9.9781   19.9590  -32.4678 H   0  0  0  0  0  0  0  0  0  0  0  0
   -7.0870   21.8115  -30.9010 H   0  0  0  0  0  0  0  0  0  0  0  0
   -4.7145   21.2416  -31.4294 H   0  0  0  0  0  0  0  0  0  0  0  0
   -2.6109   21.8315  -33.6119 H   0  0  0  0  0  0  0  0  0  0  0  0
   -3.5573   21.8788  -32.0745 H   0  0  0  0  0  0  0  0  0  0  0  0
   -0.5433   21.7876  -32.4690 H   0  0  0  0  0  0  0  0  0  0  0  0
   -1.5539   22.9440  -31.5024 H   0  0  0  0  0  0  0  0  0  0  0  0
   -1.0961   23.9728  -29.0291 H   0  0  0  0  0  0  0  0  0  0  0  0
  1  2  1  0
  2  3  1  0
  3  4  1  0
  4  5  2  0
  5  6  1  0
  6  7  1  0
  7  8  1  0
  8  9  1  0
  9 10  1  0
 10 11  1  0
 11 12  2  0
 12 13  1  0
 13 14  2  0
 14 15  1  0
 15 16  2  0
 16 17  1  0
 17 18  1  0
 17 19  2  0
 19 20  1  0
 20 21  2  0
 10 22  1  0
 22 23  1  0
  5 24  1  0
 24 25  2  0
 25  3  1  0
 23  7  1  0
 21 11  1  0
 21 15  1  0
  1 26  1  0
  1 27  1  0
  1 28  1  0
  2 29  1  0
  2 30  1  0
  4 31  1  0
  6 32  1  0
  6 33  1  0
  8 34  1  0
  8 35  1  0
  9 36  1  0
  9 37  1  0
 12 38  1  0
 13 39  1  0
 14 40  1  0
 18 41  1  0
 18 42  1  0
 18 43  1  0
 19 44  1  0
 20 45  1  0
 22 46  1  0
 22 47  1  0
 23 48  1  0
 23 49  1  0
 24 50  1  0
M  END
>  <UniqueID>  (32) 
29

>  <SMILES>  (32) 
CCn1cc(CN2CCN(c3cccc4nc(C)ccc34)CC2)cn1

>  <Energy>  (32) 
94.24182695139487

>  <Genealogy>  (32) 
CCn1cc(CN2CCN(c3cccc4nc(C)ccc34)CC2)cn1 (3D coordinates assigned)
CCn1cc(CN2CCN(c3cccc4nc(C)ccc34)CC2)cn1 (nonaromatic ring conformer: 94.24182695139487 kcal/mol)

>  <smiles>  (32) 
CCn1cc(CN2CCN(c3cccc4nc(C)ccc34)CC2)cn1

>  <score_type>  (32) 
oracle

>  <origin>  (32) 
adg

>  <m_score__min__energy>  (32) 
-8.9499999999999993

>  <m_primary>  (32) 
energy

$$$$
32:0
     RDKit          3D

 40 42  0  0  1  0  0  0  0  0999 V2000
   -4.2810   25.2920  -30.9200 O   0  0  0  0  0  0  0  0  0  0  0  0
   -5.1780   24.6700  -30.3130 C   0  0  0  0  0  0  0  0  0  0  0  0
   -6.3520   24.3490  -31.0720 N   0  0  0  0  0  0  0  0  0  0  0  0
   -6.4120   23.1170  -31.5040 C   0  0  0  0  0  0  0  0  0  0  0  0
   -5.3170   22.5680  -32.1490 C   0  0  0  0  0  0  0  0  0  0  0  0
   -5.3330   21.2530  -32.6290 C   0  0  0  0  0  0  0  0  0  0  0  0
   -6.4570   20.5390  -32.4380 N   0  0  0  0  0  0  0  0  0  0  0  0
   -6.4710   19.1640  -32.9390 C   0  0  1  0  0  0  0  0  0  0  0  0
   -6.1140   19.1990  -34.4250 C   0  0  0  0  0  0  0  0  0  0  0  0
   -5.2030   18.1640  -34.6170 O   0  0  0  0  0  0  0  0  0  0  0  0
   -5.1410   17.5080  -33.3980 C   0  0  2  0  0  0  0  0  0  0  0  0
   -6.1330   16.3550  -33.3150 C   0  0  0  0  0  0  0  0  0  0  0  0
   -6.8070   16.3050  -34.5490 O   0  0  0  0  0  0  0  0  0  0  0  0
   -5.4490   18.4200  -32.4020 O   0  0  0  0  0  0  0  0  0  0  0  0
   -7.5160   21.0810  -31.8080 C   0  0  0  0  0  0  0  0  0  0  0  0
   -8.5470   20.3580  -31.6580 O   0  0  0  0  0  0  0  0  0  0  0  0
   -7.4940   22.3480  -31.3480 N   0  0  0  0  0  0  0  0  0  0  0  0
   -5.0830   24.2870  -28.9720 N   0  0  0  0  0  0  0  0  0  0  0  0
   -3.9960   24.5290  -28.1020 C   0  0  0  0  0  0  0  0  0  0  0  0
   -4.1040   24.9080  -26.7880 C   0  0  0  0  0  0  0  0  0  0  0  0
   -2.9880   25.1340  -25.9750 C   0  0  0  0  0  0  0  0  0  0  0  0
   -1.7110   24.9810  -26.4750 C   0  0  0  0  0  0  0  0  0  0  0  0
   -0.2200   25.2900  -25.3640 Br  0  0  0  0  0  0  0  0  0  0  0  0
   -1.6070   24.5990  -27.7960 C   0  0  0  0  0  0  0  0  0  0  0  0
   -2.7080   24.3780  -28.5930 C   0  0  0  0  0  0  0  0  0  0  0  0
   -4.4131   23.1794  -32.2876 H   0  0  0  0  0  0  0  0  0  0  0  0
   -4.4612   20.8208  -33.1419 H   0  0  0  0  0  0  0  0  0  0  0  0
   -7.4588   18.7430  -32.7001 H   0  0  0  0  0  0  0  0  0  0  0  0
   -7.0122   19.0385  -35.0393 H   0  0  0  0  0  0  0  0  0  0  0  0
   -5.6922   20.1715  -34.7189 H   0  0  0  0  0  0  0  0  0  0  0  0
   -4.1284   17.0946  -33.2809 H   0  0  0  0  0  0  0  0  0  0  0  0
   -5.5998   15.4095  -33.1368 H   0  0  0  0  0  0  0  0  0  0  0  0
   -6.8406   16.5038  -32.4861 H   0  0  0  0  0  0  0  0  0  0  0  0
   -6.3690   16.9450  -35.1860 H   0  0  0  0  0  0  0  0  0  0  0  0
   -8.3390   22.7280  -30.8660 H   0  0  0  0  0  0  0  0  0  0  0  0
   -5.9030   23.7660  -28.5710 H   0  0  0  0  0  0  0  0  0  0  0  0
   -5.1073   25.0394  -26.3567 H   0  0  0  0  0  0  0  0  0  0  0  0
   -3.1299   25.4366  -24.9270 H   0  0  0  0  0  0  0  0  0  0  0  0
   -0.6051   24.4656  -28.2301 H   0  0  0  0  0  0  0  0  0  0  0  0
   -2.5628   24.0755  -29.6406 H   0  0  0  0  0  0  0  0  0  0  0  0
  1  2  2  0
  2  3  1  0
  3  4  2  0
  4  5  1  0
  5  6  2  0
  6  7  1  0
  7  8  1  0
  8  9  1  0
  9 10  1  0
 10 11  1  0
 11 12  1  0
 12 13  1  0
 11 14  1  0
  7 15  1  0
 15 16  2  0
 15 17  1  0
  2 18  1  0
 18 19  1  0
 19 20  2  0
 20 21  1  0
 21 22  2  0
 22 23  1  0
 22 24  1  0
 24 25  2  0
 17  4  1  0
 25 19  1  0
 14  8  1  0
  5 26  1  0
  6 27  1  0
  8 28  1  6
  9 29  1  0
  9 30  1  0
 11 31  1  1
 12 32  1  0
 12 33  1  0
 13 34  1  0
 17 35  1  0
 18 36  1  0
 20 37  1  0
 21 38  1  0
 24 39  1  0
 25 40  1  0
M  END
>  <smiles>  (33) 
O=C(N=c1ccn(C2COC(CO)O2)c(=O)[nH]1)Nc1ccc(Br)cc1

>  <score_type>  (33) 
oracle

>  <origin>  (33) 
adg

>  <m_score__min__energy>  (33) 
-9.0800000000000001

>  <m_primary>  (33) 
energy

$$$$
33:0
     RDKit          3D

 19 20  0  0  0  0  0  0  0  0999 V2000
   -4.1210   25.7100  -29.4140 H   0  0  0  0  0  0  0  0  0  0  0  0
   -3.8610   25.3000  -30.3390 N   0  0  0  0  0  0  0  0  0  0  0  0
   -4.5350   24.3230  -30.8500 C   0  0  0  0  0  0  0  0  0  0  0  0
   -3.9550   23.2840  -31.4980 N   0  0  0  0  0  0  0  0  0  0  0  0
   -4.8990   22.4080  -31.9280 C   0  0  0  0  0  0  0  0  0  0  0  0
   -4.6200   21.2350  -32.6290 C   0  0  0  0  0  0  0  0  0  0  0  0
   -3.5830   20.9599  -32.8716 H   0  0  0  0  0  0  0  0  0  0  0  0
   -5.6890   20.4120  -33.0190 C   0  0  0  0  0  0  0  0  0  0  0  0
   -5.4881   19.4836  -33.5738 H   0  0  0  0  0  0  0  0  0  0  0  0
   -7.0160   20.7650  -32.7060 C   0  0  0  0  0  0  0  0  0  0  0  0
   -7.8427   20.1092  -33.0166 H   0  0  0  0  0  0  0  0  0  0  0  0
   -7.2940   21.9550  -31.9960 C   0  0  0  0  0  0  0  0  0  0  0  0
   -8.5940   22.3570  -31.6560 O   0  0  0  0  0  0  0  0  0  0  0  0
   -9.4770   21.5980  -30.8370 C   0  0  0  0  0  0  0  0  0  0  0  0
   -9.2520   21.7914  -29.7778 H   0  0  0  0  0  0  0  0  0  0  0  0
  -10.5161   21.8891  -31.0502 H   0  0  0  0  0  0  0  0  0  0  0  0
   -9.3452   20.5269  -31.0502 H   0  0  0  0  0  0  0  0  0  0  0  0
   -6.2100   22.7510  -31.6230 C   0  0  0  0  0  0  0  0  0  0  0  0
   -6.2200   24.2060  -30.7790 S   0  0  0  0  0  0  0  0  0  0  0  0
  1  2  1  0
  2  3  2  0
  3  4  1  0
  4  5  1  0
  5  6  2  0
  6  7  1  0
  6  8  1  0
  8  9  1  0
  8 10  2  0
 10 11  1  0
 10 12  1  0
 12 13  1  0
 13 14  1  0
 14 15  1  0
 14 16  1  0
 14 17  1  0
 12 18  2  0
 18 19  1  0
 19  3  1  0
 18  5  1  0
M  CHG  1   4  -1
M  END
>  <UniqueID>  (34) 
30

>  <SMILES>  (34) 
[H]/N=c1\[n-]c2cccc(OC)c2s1

>  <Energy>  (34) 
53.26801983503688

>  <Genealogy>  (34) 
COc1cccc2[n-]c(=N)sc12 (protonated)
[H]/N=c1\[n-]c2cccc(OC)c2s1 (cis-trans isomerization)
[H]/N=c1\[n-]c2cccc(OC)c2s1 (3D coordinates assigned)
[H]/N=c1\[n-]c2cccc(OC)c2s1 (optimized conformer: 53.26801983503688 kcal/mol)

>  <smiles>  (34) 
COc1cccc2[nH]c(=N)sc12

>  <score_type>  (34) 
oracle

>  <origin>  (34) 
adg

>  <m_score__min__energy>  (34) 
-6.75

>  <m_primary>  (34) 
energy

$$$$
34:0
     RDKit          3D

 41 42  0  0  0  0  0  0  0  0999 V2000
   -4.3148   19.3382  -32.2588 H   0  0  0  0  0  0  0  0  0  0  0  0
   -4.7520   20.0330  -32.9910 C   0  0  0  0  0  0  0  0  0  0  0  0
   -4.1340   21.1310  -33.2980 N   0  0  0  0  0  0  0  0  0  0  0  0
   -3.3460   21.8960  -32.3810 C   0  0  0  0  0  0  0  0  0  0  0  0
   -2.0850   21.8580  -32.4180 O   0  0  0  0  0  0  0  0  0  0  0  0
   -4.0250   22.6420  -31.3100 C   0  0  0  0  0  0  0  0  0  0  0  0
   -4.8900   23.5860  -31.5560 N   0  0  0  0  0  0  0  0  0  0  0  0
   -5.1150   24.7940  -30.8110 C   0  0  0  0  0  0  0  0  0  0  0  0
   -4.2180   25.6770  -30.8030 O   0  0  0  0  0  0  0  0  0  0  0  0
   -6.4040   25.0670  -30.0940 C   0  0  0  0  0  0  0  0  0  0  0  0
   -6.2341   25.0310  -29.0078 H   0  0  0  0  0  0  0  0  0  0  0  0
   -6.7755   26.0637  -30.3742 H   0  0  0  0  0  0  0  0  0  0  0  0
   -7.1477   24.3064  -30.3742 H   0  0  0  0  0  0  0  0  0  0  0  0
   -3.9380   22.0960  -29.9140 C   0  0  0  0  0  0  0  0  0  0  0  0
   -4.9519   21.9122  -29.5289 H   0  0  0  0  0  0  0  0  0  0  0  0
   -3.3719   21.1529  -29.9250 H   0  0  0  0  0  0  0  0  0  0  0  0
   -3.2370   23.0900  -29.0260 C   0  0  0  0  0  0  0  0  0  0  0  0
   -1.9950   23.6270  -29.4050 C   0  0  0  0  0  0  0  0  0  0  0  0
   -1.5048   23.2771  -30.3255 H   0  0  0  0  0  0  0  0  0  0  0  0
   -1.3800   24.6040  -28.6170 C   0  0  0  0  0  0  0  0  0  0  0  0
   -0.4039   25.0149  -28.9142 H   0  0  0  0  0  0  0  0  0  0  0  0
   -2.0040   25.0600  -27.4510 C   0  0  0  0  0  0  0  0  0  0  0  0
   -1.5173   25.8267  -26.8303 H   0  0  0  0  0  0  0  0  0  0  0  0
   -3.2460   24.5410  -27.0750 C   0  0  0  0  0  0  0  0  0  0  0  0
   -3.7383   24.9034  -26.1605 H   0  0  0  0  0  0  0  0  0  0  0  0
   -3.8640   23.5620  -27.8590 C   0  0  0  0  0  0  0  0  0  0  0  0
   -4.8438   23.1597  -27.5620 H   0  0  0  0  0  0  0  0  0  0  0  0
   -6.0620   19.7170  -33.6380 C   0  0  0  0  0  0  0  0  0  0  0  0
   -6.0640   20.1073  -34.6664 H   0  0  0  0  0  0  0  0  0  0  0  0
   -6.2038   18.6263  -33.6529 H   0  0  0  0  0  0  0  0  0  0  0  0
   -7.1850   20.3510  -32.8620 C   0  0  0  0  0  0  0  0  0  0  0  0
   -7.0590   21.6640  -32.3770 C   0  0  0  0  0  0  0  0  0  0  0  0
   -6.1171   22.2134  -32.5216 H   0  0  0  0  0  0  0  0  0  0  0  0
   -8.1270   22.2750  -31.7110 C   0  0  0  0  0  0  0  0  0  0  0  0
   -8.0198   23.2996  -31.3254 H   0  0  0  0  0  0  0  0  0  0  0  0
   -9.3290   21.5860  -31.5350 C   0  0  0  0  0  0  0  0  0  0  0  0
  -10.1660   22.0667  -31.0073 H   0  0  0  0  0  0  0  0  0  0  0  0
   -9.4690   20.2860  -32.0290 C   0  0  0  0  0  0  0  0  0  0  0  0
  -10.4182   19.7466  -31.8945 H   0  0  0  0  0  0  0  0  0  0  0  0
   -8.4040   19.6700  -32.6940 C   0  0  0  0  0  0  0  0  0  0  0  0
   -8.5202   18.6492  -33.0871 H   0  0  0  0  0  0  0  0  0  0  0  0
  1  2  1  0
  2  3  2  0
  3  4  1  0
  4  5  2  0
  4  6  1  0
  6  7  2  3
  7  8  1  0
  8  9  2  0
  8 10  1  0
 10 11  1  0
 10 12  1  0
 10 13  1  0
  6 14  1  0
 14 15  1  0
 14 16  1  0
 14 17  1  0
 17 18  2  0
 18 19  1  0
 18 20  1  0
 20 21  1  0
 20 22  2  0
 22 23  1  0
 22 24  1  0
 24 25  1  0
 24 26  2  0
 26 27  1  0
  2 28  1  0
 28 29  1  0
 28 30  1  0
 28 31  1  0
 31 32  2  0
 32 33  1  0
 32 34  1  0
 34 35  1  0
 34 36  2  0
 36 37  1  0
 36 38  1  0
 38 39  1  0
 38 40  2  0
 40 41  1  0
 26 17  1  0
 40 31  1  0
M  END
>  <UniqueID>  (35) 
31

>  <SMILES>  (35) 
CC(=O)N=C(Cc1ccccc1)C(=O)/N=C/Cc1ccccc1

>  <Energy>  (35) 
42.58384654171736

>  <Genealogy>  (35) 
CC(=O)N=C(Cc1ccccc1)C(=O)/N=C/Cc1ccccc1 (cis-trans isomerization)
CC(=O)N=C(Cc1ccccc1)C(=O)/N=C/Cc1ccccc1 (3D coordinates assigned)
CC(=O)N=C(Cc1ccccc1)C(=O)/N=C/Cc1ccccc1 (optimized conformer: 42.58384654171736 kcal/mol)

>  <smiles>  (35) 
CC(=O)N=C(Cc1ccccc1)C(=O)N=CCc1ccccc1

>  <score_type>  (35) 
oracle

>  <origin>  (35) 
adg

>  <m_score__min__energy>  (35) 
-8.8300000000000001

>  <m_primary>  (35) 
energy

$$$$
35:0
     RDKit          3D

 52 55  0  0  0  0  0  0  0  0999 V2000
   -8.3610   18.1400  -31.9400 C   0  0  0  0  0  0  0  0  0  0  0  0
   -9.1830   19.2400  -31.5720 O   0  0  0  0  0  0  0  0  0  0  0  0
   -8.7710   20.5790  -31.5910 C   0  0  0  0  0  0  0  0  0  0  0  0
   -9.7090   21.5580  -31.9450 C   0  0  0  0  0  0  0  0  0  0  0  0
   -9.3470   22.9060  -31.9790 C   0  0  0  0  0  0  0  0  0  0  0  0
   -8.0450   23.2910  -31.6520 C   0  0  0  0  0  0  0  0  0  0  0  0
   -7.0920   22.3280  -31.2860 C   0  0  0  0  0  0  0  0  0  0  0  0
   -5.7570   22.7340  -30.9360 N   0  0  0  0  0  0  0  0  0  0  0  0
   -5.4340   23.3100  -29.7870 N   0  0  0  0  0  0  0  0  0  0  0  0
   -4.1060   23.5570  -29.7820 C   0  0  0  0  0  0  0  0  0  0  0  0
   -3.3640   24.1770  -28.6530 C   0  0  0  0  0  0  0  0  0  0  0  0
   -2.0300   24.6020  -28.8140 C   0  0  0  0  0  0  0  0  0  0  0  0
   -1.3400   25.1920  -27.7500 C   0  0  0  0  0  0  0  0  0  0  0  0
   -1.9670   25.3620  -26.5180 C   0  0  0  0  0  0  0  0  0  0  0  0
   -3.2880   24.9450  -26.3440 C   0  0  0  0  0  0  0  0  0  0  0  0
   -3.9820   24.3510  -27.4020 C   0  0  0  0  0  0  0  0  0  0  0  0
   -3.5610   23.1160  -30.9810 C   0  0  0  0  0  0  0  0  0  0  0  0
   -4.6360   22.5980  -31.6710 C   0  0  0  0  0  0  0  0  0  0  0  0
   -4.5560   21.9350  -32.9390 N   0  0  0  0  0  0  0  0  0  0  0  0
   -4.5490   20.4760  -33.0780 C   0  0  0  0  0  0  0  0  0  0  0  0
   -3.2680   19.9920  -33.7770 C   0  0  0  0  0  0  0  0  0  0  0  0
   -3.2610   18.4620  -33.9030 C   0  0  0  0  0  0  0  0  0  0  0  0
   -4.5080   17.9650  -34.6440 C   0  0  0  0  0  0  0  0  0  0  0  0
   -5.7920   18.4580  -33.9630 C   0  0  0  0  0  0  0  0  0  0  0  0
   -5.7960   19.9850  -33.8380 C   0  0  0  0  0  0  0  0  0  0  0  0
   -7.4560   20.9700  -31.2690 C   0  0  0  0  0  0  0  0  0  0  0  0
   -7.9883   17.6413  -31.0332 H   0  0  0  0  0  0  0  0  0  0  0  0
   -8.9488   17.4262  -32.5358 H   0  0  0  0  0  0  0  0  0  0  0  0
   -7.5099   18.5014  -32.5358 H   0  0  0  0  0  0  0  0  0  0  0  0
  -10.7379   21.2623  -32.1979 H   0  0  0  0  0  0  0  0  0  0  0  0
  -10.0889   23.6665  -32.2640 H   0  0  0  0  0  0  0  0  0  0  0  0
   -7.7650   24.3544  -31.6815 H   0  0  0  0  0  0  0  0  0  0  0  0
   -6.1140   23.5240  -29.0240 H   0  0  0  0  0  0  0  0  0  0  0  0
   -1.5278   24.4687  -29.7835 H   0  0  0  0  0  0  0  0  0  0  0  0
   -0.2997   25.5225  -27.8865 H   0  0  0  0  0  0  0  0  0  0  0  0
   -1.4215   25.8247  -25.6823 H   0  0  0  0  0  0  0  0  0  0  0  0
   -3.7838   25.0842  -25.3720 H   0  0  0  0  0  0  0  0  0  0  0  0
   -5.0197   24.0171  -27.2548 H   0  0  0  0  0  0  0  0  0  0  0  0
   -2.5113   23.1682  -31.3058 H   0  0  0  0  0  0  0  0  0  0  0  0
   -4.3250   22.5170  -33.7770 H   0  0  0  0  0  0  0  0  0  0  0  0
   -4.5716   20.0464  -32.0656 H   0  0  0  0  0  0  0  0  0  0  0  0
   -3.2152   20.4369  -34.7816 H   0  0  0  0  0  0  0  0  0  0  0  0
   -2.4000   20.3004  -33.1758 H   0  0  0  0  0  0  0  0  0  0  0  0
   -2.3644   18.1512  -34.4593 H   0  0  0  0  0  0  0  0  0  0  0  0
   -3.2579   18.0276  -32.8924 H   0  0  0  0  0  0  0  0  0  0  0  0
   -4.4839   18.3394  -35.6780 H   0  0  0  0  0  0  0  0  0  0  0  0
   -4.5064   16.8651  -34.6294 H   0  0  0  0  0  0  0  0  0  0  0  0
   -6.6599   18.1438  -34.5614 H   0  0  0  0  0  0  0  0  0  0  0  0
   -5.8421   18.0237  -32.9536 H   0  0  0  0  0  0  0  0  0  0  0  0
   -5.8028   20.4290  -34.8444 H   0  0  0  0  0  0  0  0  0  0  0  0
   -6.6924   20.2902  -33.2782 H   0  0  0  0  0  0  0  0  0  0  0  0
   -6.7092   20.2076  -31.0025 H   0  0  0  0  0  0  0  0  0  0  0  0
  1  2  1  0
  2  3  1  0
  3  4  2  0
  4  5  1  0
  5  6  2  0
  6  7  1  0
  7  8  1  0
  8  9  1  0
  9 10  2  0
 10 11  1  0
 11 12  2  0
 12 13  1  0
 13 14  2  0
 14 15  1  0
 15 16  2  0
 10 17  1  0
 17 18  2  0
 18 19  1  0
 19 20  1  0
 20 21  1  0
 21 22  1  0
 22 23  1  0
 23 24  1  0
 24 25  1  0
  7 26  2  0
 26  3  1  0
 18  8  1  0
 25 20  1  0
 16 11  1  0
  1 27  1  0
  1 28  1  0
  1 29  1  0
  4 30  1  0
  5 31  1  0
  6 32  1  0
  9 33  1  0
 12 34  1  0
 13 35  1  0
 14 36  1  0
 15 37  1  0
 16 38  1  0
 17 39  1  0
 19 40  1  0
 20 41  1  0
 21 42  1  0
 21 43  1  0
 22 44  1  0
 22 45  1  0
 23 46  1  0
 23 47  1  0
 24 48  1  0
 24 49  1  0
 25 50  1  0
 25 51  1  0
 26 52  1  0
M  CHG  1   9   1
M  END
>  <UniqueID>  (36) 
32

>  <SMILES>  (36) 
COc1cccc(-n2[nH+]c(-c3ccccc3)cc2NC2CCCCC2)c1

>  <Energy>  (36) 
89.81089730323743

>  <Genealogy>  (36) 
COc1cccc(-n2[nH+]c(-c3ccccc3)cc2NC2CCCCC2)c1 (protonated)
COc1cccc(-n2[nH+]c(-c3ccccc3)cc2NC2CCCCC2)c1 (3D coordinates assigned)
COc1cccc(-n2[nH+]c(-c3ccccc3)cc2NC2CCCCC2)c1 (nonaromatic ring conformer: 89.81089730323743 kcal/mol)

>  <smiles>  (36) 
COc1cccc(-n2nc(-c3ccccc3)cc2NC2CCCCC2)c1

>  <score_type>  (36) 
oracle

>  <origin>  (36) 
adg

>  <m_score__min__energy>  (36) 
-8.3399999999999999

>  <m_primary>  (36) 
energy

$$$$
36:0
     RDKit          3D

 57 60  0  0  0  0  0  0  0  0999 V2000
   -5.7740   25.7570  -30.1320 C   0  0  0  0  0  0  0  0  0  0  0  0
   -4.8730   24.5330  -30.0920 C   0  0  0  0  0  0  0  0  0  0  0  0
   -3.5260   24.9330  -30.3120 O   0  0  0  0  0  0  0  0  0  0  0  0
   -2.4700   24.5430  -29.4840 C   0  0  0  0  0  0  0  0  0  0  0  0
   -1.7320   25.4050  -28.9340 O   0  0  0  0  0  0  0  0  0  0  0  0
   -2.2030   23.1140  -29.2870 C   0  0  0  0  0  0  0  0  0  0  0  0
   -1.3920   22.3370  -30.1250 C   0  0  0  0  0  0  0  0  0  0  0  0
   -1.2210   21.0890  -29.6330 N   0  0  0  0  0  0  0  0  0  0  0  0
   -0.5360   19.9510  -29.8580 C   0  0  0  0  0  0  0  0  0  0  0  0
    0.3470   19.6130  -31.0380 C   0  0  0  0  0  0  0  0  0  0  0  0
   -0.3500   19.4960  -32.4010 C   0  0  0  0  0  0  0  0  0  0  0  0
   -1.6930   18.7390  -32.3460 C   0  0  0  0  0  0  0  0  0  0  0  0
   -2.8410   19.5500  -32.9900 C   0  0  0  0  0  0  0  0  0  0  0  0
   -2.4060   21.0040  -33.2970 C   0  0  0  0  0  0  0  0  0  0  0  0
   -3.6320   21.9090  -33.4470 C   0  0  0  0  0  0  0  0  0  0  0  0
   -4.4000   21.9920  -32.1820 N   0  0  0  0  0  0  0  0  0  0  0  0
   -5.7580   22.5600  -32.3460 C   0  0  0  0  0  0  0  0  0  0  0  0
   -6.8700   21.5350  -32.2420 C   0  0  0  0  0  0  0  0  0  0  0  0
   -7.8630   21.6600  -31.2540 C   0  0  0  0  0  0  0  0  0  0  0  0
   -8.8930   20.7210  -31.1620 C   0  0  0  0  0  0  0  0  0  0  0  0
   -8.9360   19.6400  -32.0460 C   0  0  0  0  0  0  0  0  0  0  0  0
   -7.9410   19.4900  -33.0140 C   0  0  0  0  0  0  0  0  0  0  0  0
   -6.9070   20.4260  -33.1080 C   0  0  0  0  0  0  0  0  0  0  0  0
   -4.3330   20.7890  -31.3170 C   0  0  0  0  0  0  0  0  0  0  0  0
   -4.1290   19.4990  -32.1230 C   0  0  0  0  0  0  0  0  0  0  0  0
   -0.8010   19.0630  -28.8640 N   0  0  0  0  0  0  0  0  0  0  0  0
   -1.6290   19.6430  -27.9950 N   0  0  0  0  0  0  0  0  0  0  0  0
   -1.8560   20.8630  -28.5030 C   0  0  0  0  0  0  0  0  0  0  0  0
   -2.7090   22.1900  -27.9340 S   0  0  0  0  0  0  0  0  0  0  0  0
   -6.0075   26.0742  -29.1049 H   0  0  0  0  0  0  0  0  0  0  0  0
   -5.2599   26.5736  -30.6600 H   0  0  0  0  0  0  0  0  0  0  0  0
   -6.7065   25.5088  -30.6600 H   0  0  0  0  0  0  0  0  0  0  0  0
   -4.9561   24.0476  -29.1084 H   0  0  0  0  0  0  0  0  0  0  0  0
   -5.1794   23.8243  -30.8755 H   0  0  0  0  0  0  0  0  0  0  0  0
   -0.9497   22.6972  -31.0655 H   0  0  0  0  0  0  0  0  0  0  0  0
    1.1119   20.3993  -31.1197 H   0  0  0  0  0  0  0  0  0  0  0  0
    0.7456   18.6098  -30.8267 H   0  0  0  0  0  0  0  0  0  0  0  0
   -0.5380   20.5101  -32.7834 H   0  0  0  0  0  0  0  0  0  0  0  0
    0.3187   18.9185  -33.0563 H   0  0  0  0  0  0  0  0  0  0  0  0
   -1.5858   17.7858  -32.8845 H   0  0  0  0  0  0  0  0  0  0  0  0
   -1.9462   18.5720  -31.2886 H   0  0  0  0  0  0  0  0  0  0  0  0
   -3.0821   19.0765  -33.9532 H   0  0  0  0  0  0  0  0  0  0  0  0
   -1.7796   21.3763  -32.4730 H   0  0  0  0  0  0  0  0  0  0  0  0
   -1.8380   21.0146  -34.2390 H   0  0  0  0  0  0  0  0  0  0  0  0
   -3.2994   22.9184  -33.7308 H   0  0  0  0  0  0  0  0  0  0  0  0
   -4.2855   21.4816  -34.2217 H   0  0  0  0  0  0  0  0  0  0  0  0
   -5.9125   23.3189  -31.5648 H   0  0  0  0  0  0  0  0  0  0  0  0
   -5.8069   22.9818  -33.3607 H   0  0  0  0  0  0  0  0  0  0  0  0
   -7.8283   22.5033  -30.5486 H   0  0  0  0  0  0  0  0  0  0  0  0
   -9.6712   20.8328  -30.3926 H   0  0  0  0  0  0  0  0  0  0  0  0
   -9.7536   18.9072  -31.9794 H   0  0  0  0  0  0  0  0  0  0  0  0
   -7.9708   18.6337  -33.7039 H   0  0  0  0  0  0  0  0  0  0  0  0
   -6.1178   20.2951  -33.8630 H   0  0  0  0  0  0  0  0  0  0  0  0
   -3.4929   20.9042  -30.6163 H   0  0  0  0  0  0  0  0  0  0  0  0
   -5.2925   20.7042  -30.7858 H   0  0  0  0  0  0  0  0  0  0  0  0
   -4.0533   18.6525  -31.4246 H   0  0  0  0  0  0  0  0  0  0  0  0
   -4.9886   19.3823  -32.7994 H   0  0  0  0  0  0  0  0  0  0  0  0
  1  2  1  0
  2  3  1  0
  3  4  1  0
  4  5  2  0
  4  6  1  0
  6  7  2  0
  7  8  1  0
  8  9  1  0
  9 10  1  0
 10 11  1  0
 11 12  1  0
 12 13  1  0
 13 14  1  0
 14 15  1  0
 15 16  1  0
 16 17  1  0
 17 18  1  0
 18 19  2  0
 19 20  1  0
 20 21  2  0
 21 22  1  0
 22 23  2  0
 16 24  1  0
 24 25  1  0
  9 26  2  0
 26 27  1  0
 27 28  2  0
 28 29  1  0
 29  6  1  0
 28  8  1  0
 25 13  1  0
 23 18  1  0
  1 30  1  0
  1 31  1  0
  1 32  1  0
  2 33  1  0
  2 34  1  0
  7 35  1  0
 10 36  1  0
 10 37  1  0
 11 38  1  0
 11 39  1  0
 12 40  1  0
 12 41  1  0
 13 42  1  0
 14 43  1  0
 14 44  1  0
 15 45  1  0
 15 46  1  0
 17 47  1  0
 17 48  1  0
 19 49  1  0
 20 50  1  0
 21 51  1  0
 22 52  1  0
 23 53  1  0
 24 54  1  0
 24 55  1  0
 25 56  1  0
 25 57  1  0
M  END
>  <UniqueID>  (37) 
33

>  <SMILES>  (37) 
CCOC(=O)c1cn2c(CCCC3CCN(Cc4ccccc4)CC3)nnc2s1

>  <Energy>  (37) 
147.3732594658524

>  <Genealogy>  (37) 
CCOC(=O)c1cn2c(CCCC3CCN(Cc4ccccc4)CC3)nnc2s1 (3D coordinates assigned)
CCOC(=O)c1cn2c(CCCC3CCN(Cc4ccccc4)CC3)nnc2s1 (nonaromatic ring conformer: 147.3732594658524 kcal/mol)

>  <smiles>  (37) 
CCOC(=O)c1cn2c(CCCC3CCN(Cc4ccccc4)CC3)nnc2s1

>  <score_type>  (37) 
oracle

>  <origin>  (37) 
adg

>  <m_score__min__energy>  (37) 
-9.0600000000000005

>  <m_primary>  (37) 
energy

$$$$
37:0
     RDKit          3D

 34 36  0  0  0  0  0  0  0  0999 V2000
   -5.2360   19.4010  -33.6560 C   0  0  0  0  0  0  0  0  0  0  0  0
   -5.7080   20.5530  -32.8950 N   0  0  0  0  0  0  0  0  0  0  0  0
   -4.9600   21.6050  -32.4890 C   0  0  0  0  0  0  0  0  0  0  0  0
   -5.7590   22.5350  -31.8310 C   0  0  0  0  0  0  0  0  0  0  0  0
   -5.3180   23.8460  -31.2550 C   0  0  0  0  0  0  0  0  0  0  0  0
   -3.8500   23.9190  -31.1160 N   0  0  0  0  0  0  0  0  0  0  0  0
   -3.2700   23.4370  -29.8370 C   0  0  2  0  0  0  0  0  0  0  0  0
   -4.2200   22.4940  -29.0880 C   0  0  0  0  0  0  0  0  0  0  0  0
   -3.9800   22.6750  -27.5880 C   0  0  0  0  0  0  0  0  0  0  0  0
   -3.6750   24.4400  -27.2750 S   0  0  0  0  0  0  0  0  0  0  0  0
   -2.8810   24.5080  -28.8670 C   0  0  0  0  0  0  0  0  0  0  0  0
   -1.9750   25.2920  -29.0960 O   0  0  0  0  0  0  0  0  0  0  0  0
   -7.0380   22.0110  -31.8450 C   0  0  0  0  0  0  0  0  0  0  0  0
   -8.2410   22.5180  -31.3510 C   0  0  0  0  0  0  0  0  0  0  0  0
   -9.4040   21.7510  -31.5460 C   0  0  0  0  0  0  0  0  0  0  0  0
   -9.3410   20.5150  -32.2240 C   0  0  0  0  0  0  0  0  0  0  0  0
   -8.1140   20.0310  -32.7140 C   0  0  0  0  0  0  0  0  0  0  0  0
   -6.9730   20.8100  -32.5040 C   0  0  0  0  0  0  0  0  0  0  0  0
   -4.9123   18.6110  -32.9624 H   0  0  0  0  0  0  0  0  0  0  0  0
   -6.0510   19.0212  -34.2897 H   0  0  0  0  0  0  0  0  0  0  0  0
   -4.3888   19.7023  -34.2897 H   0  0  0  0  0  0  0  0  0  0  0  0
   -3.8777   21.7098  -32.6550 H   0  0  0  0  0  0  0  0  0  0  0  0
   -5.6534   24.6569  -31.9183 H   0  0  0  0  0  0  0  0  0  0  0  0
   -5.7612   23.9451  -30.2531 H   0  0  0  0  0  0  0  0  0  0  0  0
   -3.5840   24.9260  -31.2210 H   0  0  0  0  0  0  0  0  0  0  0  0
   -2.3585   22.9198  -30.1713 H   0  0  0  0  0  0  0  0  0  0  0  0
   -5.2631   22.7438  -29.3320 H   0  0  0  0  0  0  0  0  0  0  0  0
   -4.0330   21.4506  -29.3818 H   0  0  0  0  0  0  0  0  0  0  0  0
   -4.8657   22.3441  -27.0259 H   0  0  0  0  0  0  0  0  0  0  0  0
   -3.1163   22.0754  -27.2647 H   0  0  0  0  0  0  0  0  0  0  0  0
   -8.2784   23.4845  -30.8270 H   0  0  0  0  0  0  0  0  0  0  0  0
  -10.3696   22.1174  -31.1672 H   0  0  0  0  0  0  0  0  0  0  0  0
  -10.2580   19.9254  -32.3705 H   0  0  0  0  0  0  0  0  0  0  0  0
   -8.0548   19.0698  -33.2456 H   0  0  0  0  0  0  0  0  0  0  0  0
  1  2  1  0
  2  3  1  0
  3  4  2  0
  4  5  1  0
  5  6  1  0
  6  7  1  0
  7  8  1  0
  8  9  1  0
  9 10  1  0
 10 11  1  0
 11 12  2  0
  4 13  1  0
 13 14  2  0
 14 15  1  0
 15 16  2  0
 16 17  1  0
 17 18  2  0
 18  2  1  0
 11  7  1  0
 18 13  1  0
  1 19  1  0
  1 20  1  0
  1 21  1  0
  3 22  1  0
  5 23  1  0
  5 24  1  0
  6 25  1  0
  7 26  1  6
  8 27  1  0
  8 28  1  0
  9 29  1  0
  9 30  1  0
 14 31  1  0
 15 32  1  0
 16 33  1  0
 17 34  1  0
M  END
>  <UniqueID>  (38) 
34

>  <SMILES>  (38) 
Cn1cc(CN[C@@H]2CCSC2=O)c2ccccc21

>  <Energy>  (38) 
75.29064117159552

>  <Genealogy>  (38) 
Cn1cc(CN[C@@H]2CCSC2=O)c2ccccc21 (chirality)
Cn1cc(CN[C@@H]2CCSC2=O)c2ccccc21 (3D coordinates assigned)
Cn1cc(CN[C@@H]2CCSC2=O)c2ccccc21 (nonaromatic ring conformer: 75.29064117159552 kcal/mol)

>  <smiles>  (38) 
Cn1cc(CNC2CCSC2=O)c2ccccc21

>  <score_type>  (38) 
oracle

>  <origin>  (38) 
adg

>  <m_score__min__energy>  (38) 
-8.25

>  <m_primary>  (38) 
energy

$$$$
38:0
     RDKit          3D

 33 34  0  0  0  0  0  0  0  0999 V2000
   -2.1200   24.2210  -28.9250 C   0  0  0  0  0  0  0  0  0  0  0  0
   -3.3930   23.4630  -28.5530 C   0  0  0  0  0  0  0  0  0  0  0  0
   -4.6040   24.3930  -28.3850 C   0  0  0  0  0  0  0  0  0  0  0  0
   -5.3150   24.9180  -29.9460 S   0  0  0  0  0  0  0  0  0  0  0  0
   -4.2490   25.4840  -30.8410 O   0  0  0  0  0  0  0  0  0  0  0  0
   -6.2980   26.0170  -29.6550 O   0  0  0  0  0  0  0  0  0  0  0  0
   -6.1630   23.6180  -30.7300 N   0  0  0  0  0  0  0  0  0  0  0  0
   -7.4930   23.3930  -30.6180 C   0  0  0  0  0  0  0  0  0  0  0  0
   -7.9200   22.3250  -31.3350 N   0  0  0  0  0  0  0  0  0  0  0  0
   -6.7880   21.8790  -31.9140 C   0  0  0  0  0  0  0  0  0  0  0  0
   -5.7280   22.6450  -31.5570 C   0  0  0  0  0  0  0  0  0  0  0  0
   -4.4510   22.3200  -32.0130 C   0  0  0  0  0  0  0  0  0  0  0  0
   -3.4520   23.0160  -31.6920 O   0  0  0  0  0  0  0  0  0  0  0  0
   -4.3070   21.2120  -32.8180 N   0  0  0  0  0  0  0  0  0  0  0  0
   -2.9760   20.8530  -33.3380 C   0  0  0  0  0  0  0  0  0  0  0  0
   -5.4140   20.4710  -33.1920 C   0  0  0  0  0  0  0  0  0  0  0  0
   -5.2730   19.4720  -33.9540 O   0  0  0  0  0  0  0  0  0  0  0  0
   -6.6720   20.8060  -32.7420 N   0  0  0  0  0  0  0  0  0  0  0  0
   -7.8440   19.9900  -33.0870 C   0  0  0  0  0  0  0  0  0  0  0  0
   -1.5974   24.5322  -28.0084 H   0  0  0  0  0  0  0  0  0  0  0  0
   -1.4634   23.5666  -29.5172 H   0  0  0  0  0  0  0  0  0  0  0  0
   -2.3824   25.1100  -29.5172 H   0  0  0  0  0  0  0  0  0  0  0  0
   -3.6149   22.7350  -29.3473 H   0  0  0  0  0  0  0  0  0  0  0  0
   -3.2163   22.9669  -27.5873 H   0  0  0  0  0  0  0  0  0  0  0  0
   -5.3764   23.8606  -27.8107 H   0  0  0  0  0  0  0  0  0  0  0  0
   -4.2521   25.2968  -27.8661 H   0  0  0  0  0  0  0  0  0  0  0  0
   -8.1615   24.0157  -30.0053 H   0  0  0  0  0  0  0  0  0  0  0  0
   -2.2914   20.6683  -32.4971 H   0  0  0  0  0  0  0  0  0  0  0  0
   -3.0554   19.9442  -33.9526 H   0  0  0  0  0  0  0  0  0  0  0  0
   -2.5876   21.6785  -33.9526 H   0  0  0  0  0  0  0  0  0  0  0  0
   -8.3364   19.6472  -32.1650 H   0  0  0  0  0  0  0  0  0  0  0  0
   -8.5498   20.5930  -33.6772 H   0  0  0  0  0  0  0  0  0  0  0  0
   -7.5234   19.1188  -33.6772 H   0  0  0  0  0  0  0  0  0  0  0  0
  1  2  1  0
  2  3  1  0
  3  4  1  0
  4  5  2  0
  4  6  2  0
  4  7  1  0
  7  8  1  0
  8  9  2  0
  9 10  1  0
 10 11  2  0
 11 12  1  0
 12 13  2  0
 12 14  1  0
 14 15  1  0
 14 16  1  0
 16 17  2  0
 16 18  1  0
 18 19  1  0
 11  7  1  0
 18 10  1  0
  1 20  1  0
  1 21  1  0
  1 22  1  0
  2 23  1  0
  2 24  1  0
  3 25  1  0
  3 26  1  0
  8 27  1  0
 15 28  1  0
 15 29  1  0
 15 30  1  0
 19 31  1  0
 19 32  1  0
 19 33  1  0
M  END
>  <UniqueID>  (39) 
35

>  <SMILES>  (39) 
CCCS(=O)(=O)n1cnc2c1c(=O)n(C)c(=O)n2C

>  <Energy>  (39) 
74.92339377539842

>  <Genealogy>  (39) 
CCCS(=O)(=O)n1cnc2c1c(=O)n(C)c(=O)n2C (3D coordinates assigned)
CCCS(=O)(=O)n1cnc2c1c(=O)n(C)c(=O)n2C (optimized conformer: 74.92339377539842 kcal/mol)

>  <smiles>  (39) 
CCCS(=O)(=O)n1cnc2c1c(=O)n(C)c(=O)n2C

>  <score_type>  (39) 
oracle

>  <origin>  (39) 
adg

>  <m_score__min__energy>  (39) 
-6.9299999999999997

>  <m_primary>  (39) 
energy

$$$$
39:0
     RDKit          3D

 42 43  0  0  0  0  0  0  0  0999 V2000
   -3.7330   21.5460  -33.0590 C   0  0  0  0  0  0  0  0  0  0  0  0
   -4.9550   21.7310  -32.3500 O   0  0  0  0  0  0  0  0  0  0  0  0
   -5.2260   22.8200  -31.5060 C   0  0  0  0  0  0  0  0  0  0  0  0
   -4.2090   23.4940  -30.8030 C   0  0  0  0  0  0  0  0  0  0  0  0
   -4.5200   24.5740  -29.9750 C   0  0  0  0  0  0  0  0  0  0  0  0
   -5.8430   24.9910  -29.8390 C   0  0  0  0  0  0  0  0  0  0  0  0
   -6.8610   24.3310  -30.5300 C   0  0  0  0  0  0  0  0  0  0  0  0
   -6.5590   23.2410  -31.3680 C   0  0  0  0  0  0  0  0  0  0  0  0
   -7.5520   22.5510  -32.0820 O   0  0  0  0  0  0  0  0  0  0  0  0
   -8.8740   22.3120  -31.6030 C   0  0  0  0  0  0  0  0  0  0  0  0
   -9.1330   20.8050  -31.5180 C   0  0  0  0  0  0  0  0  0  0  0  0
   -8.5250   20.0180  -32.7080 C   0  0  0  0  0  0  0  0  0  0  0  0
   -7.0380   19.9730  -32.6890 N   0  0  0  0  0  0  0  0  0  0  0  0
   -6.4780   19.6450  -34.0380 C   0  0  0  0  0  0  0  0  0  0  0  0
   -5.9160   18.2150  -34.1700 C   0  0  0  0  0  0  0  0  0  0  0  0
   -6.7500   17.2170  -33.3730 C   0  0  0  0  0  0  0  0  0  0  0  0
   -6.8050   17.5930  -31.8840 C   0  0  0  0  0  0  0  0  0  0  0  0
   -6.5000   19.0850  -31.6300 C   0  0  0  0  0  0  0  0  0  0  0  0
   -2.9083   21.4211  -32.3419 H   0  0  0  0  0  0  0  0  0  0  0  0
   -3.8081   20.6490  -33.6912 H   0  0  0  0  0  0  0  0  0  0  0  0
   -3.5392   22.4250  -33.6912 H   0  0  0  0  0  0  0  0  0  0  0  0
   -3.1637   23.1677  -30.9069 H   0  0  0  0  0  0  0  0  0  0  0  0
   -3.7203   25.0964  -29.4294 H   0  0  0  0  0  0  0  0  0  0  0  0
   -6.0857   25.8421  -29.1857 H   0  0  0  0  0  0  0  0  0  0  0  0
   -7.9034   24.6642  -30.4191 H   0  0  0  0  0  0  0  0  0  0  0  0
   -8.9862   22.7583  -30.6039 H   0  0  0  0  0  0  0  0  0  0  0  0
   -9.5979   22.7654  -32.2962 H   0  0  0  0  0  0  0  0  0  0  0  0
   -8.6917   20.4255  -30.5846 H   0  0  0  0  0  0  0  0  0  0  0  0
  -10.2225   20.6561  -31.5471 H   0  0  0  0  0  0  0  0  0  0  0  0
   -8.9054   18.9864  -32.6745 H   0  0  0  0  0  0  0  0  0  0  0  0
   -8.8221   20.5412  -33.6288 H   0  0  0  0  0  0  0  0  0  0  0  0
   -6.7100   20.9420  -32.4620 H   0  0  0  0  0  0  0  0  0  0  0  0
   -7.2794   19.7686  -34.7813 H   0  0  0  0  0  0  0  0  0  0  0  0
   -5.6312   20.3285  -34.1984 H   0  0  0  0  0  0  0  0  0  0  0  0
   -5.9244   17.9230  -35.2305 H   0  0  0  0  0  0  0  0  0  0  0  0
   -4.8903   18.2065  -33.7726 H   0  0  0  0  0  0  0  0  0  0  0  0
   -7.7733   17.2033  -33.7764 H   0  0  0  0  0  0  0  0  0  0  0  0
   -6.2812   16.2259  -33.4621 H   0  0  0  0  0  0  0  0  0  0  0  0
   -7.8126   17.3708  -31.5028 H   0  0  0  0  0  0  0  0  0  0  0  0
   -6.0328   17.0052  -31.3661 H   0  0  0  0  0  0  0  0  0  0  0  0
   -6.9469   19.3757  -30.6678 H   0  0  0  0  0  0  0  0  0  0  0  0
   -5.4062   19.2020  -31.6256 H   0  0  0  0  0  0  0  0  0  0  0  0
  1  2  1  0
  2  3  1  0
  3  4  2  0
  4  5  1  0
  5  6  2  0
  6  7  1  0
  7  8  2  0
  8  9  1  0
  9 10  1  0
 10 11  1  0
 11 12  1  0
 12 13  1  0
 13 14  1  0
 14 15  1  0
 15 16  1  0
 16 17  1  0
 17 18  1  0
  8  3  1  0
 18 13  1  0
  1 19  1  0
  1 20  1  0
  1 21  1  0
  4 22  1  0
  5 23  1  0
  6 24  1  0
  7 25  1  0
 10 26  1  0
 10 27  1  0
 11 28  1  0
 11 29  1  0
 12 30  1  0
 12 31  1  0
 13 32  1  0
 14 33  1  0
 14 34  1  0
 15 35  1  0
 15 36  1  0
 16 37  1  0
 16 38  1  0
 17 39  1  0
 17 40  1  0
 18 41  1  0
 18 42  1  0
M  CHG  1  13   1
M  END
>  <UniqueID>  (40) 
36

>  <SMILES>  (40) 
COc1ccccc1OCCC[NH+]1CCCCC1

>  <Energy>  (40) 
49.01370926440391

>  <Genealogy>  (40) 
COc1ccccc1OCCC[NH+]1CCCCC1 (protonated)
COc1ccccc1OCCC[NH+]1CCCCC1 (3D coordinates assigned)
COc1ccccc1OCCC[NH+]1CCCCC1 (nonaromatic ring conformer: 49.01370926440391 kcal/mol)

>  <smiles>  (40) 
COc1ccccc1OCCCN1CCCCC1

>  <score_type>  (40) 
oracle

>  <origin>  (40) 
adg

>  <m_score__min__energy>  (40) 
-5.0300000000000002

>  <m_primary>  (40) 
energy

$$$$
40:0
     RDKit          3D

 39 41  0  0  0  0  0  0  0  0999 V2000
   -4.6500   26.2360  -31.5910 H   0  0  0  0  0  0  0  0  0  0  0  0
   -4.2380   25.6660  -30.8190 N   0  0  0  0  0  0  0  0  0  0  0  0
   -4.3370   24.3760  -30.8060 C   0  0  0  0  0  0  0  0  0  0  0  0
   -3.2770   23.6230  -30.4170 N   0  0  0  0  0  0  0  0  0  0  0  0
   -3.3450   22.2650  -30.3920 C   0  0  0  0  0  0  0  0  0  0  0  0
   -2.1680   21.4870  -29.9370 C   0  0  0  0  0  0  0  0  0  0  0  0
   -2.0920   21.0970  -28.5910 C   0  0  0  0  0  0  0  0  0  0  0  0
   -2.8960   21.3807  -27.8960 H   0  0  0  0  0  0  0  0  0  0  0  0
   -1.0070   20.3530  -28.1250 C   0  0  0  0  0  0  0  0  0  0  0  0
   -0.9652   20.0480  -27.0690 H   0  0  0  0  0  0  0  0  0  0  0  0
    0.0320   19.9920  -28.9990 C   0  0  0  0  0  0  0  0  0  0  0  0
    1.1410   19.2420  -28.5780 O   0  0  0  0  0  0  0  0  0  0  0  0
    1.0960   17.8580  -28.2460 C   0  0  0  0  0  0  0  0  0  0  0  0
    1.0923   17.7433  -27.1520 H   0  0  0  0  0  0  0  0  0  0  0  0
    0.1828   17.4100  -28.6648 H   0  0  0  0  0  0  0  0  0  0  0  0
    1.9782   17.3516  -28.6648 H   0  0  0  0  0  0  0  0  0  0  0  0
   -0.0290   20.3940  -30.3360 C   0  0  0  0  0  0  0  0  0  0  0  0
    0.7837   20.1150  -31.0228 H   0  0  0  0  0  0  0  0  0  0  0  0
   -1.1150   21.1510  -30.8180 C   0  0  0  0  0  0  0  0  0  0  0  0
   -1.1640   21.6020  -32.1480 O   0  0  0  0  0  0  0  0  0  0  0  0
   -1.9340   20.9970  -33.1820 C   0  0  0  0  0  0  0  0  0  0  0  0
   -2.7243   20.3760  -32.7351 H   0  0  0  0  0  0  0  0  0  0  0  0
   -2.3911   21.7801  -33.8048 H   0  0  0  0  0  0  0  0  0  0  0  0
   -1.2813   20.3676  -33.8048 H   0  0  0  0  0  0  0  0  0  0  0  0
   -4.5440   21.6330  -30.7540 C   0  0  0  0  0  0  0  0  0  0  0  0
   -4.6321   20.5373  -30.7126 H   0  0  0  0  0  0  0  0  0  0  0  0
   -5.6300   22.4200  -31.1700 C   0  0  0  0  0  0  0  0  0  0  0  0
   -6.9220   21.8110  -31.5770 C   0  0  0  0  0  0  0  0  0  0  0  0
   -8.1530   22.4110  -31.2440 C   0  0  0  0  0  0  0  0  0  0  0  0
   -8.1654   23.3532  -30.6765 H   0  0  0  0  0  0  0  0  0  0  0  0
   -9.3590   21.8170  -31.6300 C   0  0  0  0  0  0  0  0  0  0  0  0
  -10.3147   22.2951  -31.3691 H   0  0  0  0  0  0  0  0  0  0  0  0
   -9.3520   20.6180  -32.3460 C   0  0  0  0  0  0  0  0  0  0  0  0
  -10.3014   20.1550  -32.6531 H   0  0  0  0  0  0  0  0  0  0  0  0
   -8.1390   20.0070  -32.6720 C   0  0  0  0  0  0  0  0  0  0  0  0
   -8.1343   19.0609  -33.2331 H   0  0  0  0  0  0  0  0  0  0  0  0
   -6.9320   20.5950  -32.2870 C   0  0  0  0  0  0  0  0  0  0  0  0
   -5.9809   20.1039  -32.5406 H   0  0  0  0  0  0  0  0  0  0  0  0
   -5.4970   23.7740  -31.1780 N   0  0  0  0  0  0  0  0  0  0  0  0
  1  2  1  0
  2  3  2  0
  3  4  1  0
  4  5  2  0
  5  6  1  0
  6  7  2  0
  7  8  1  0
  7  9  1  0
  9 10  1  0
  9 11  2  0
 11 12  1  0
 12 13  1  0
 13 14  1  0
 13 15  1  0
 13 16  1  0
 11 17  1  0
 17 18  1  0
 17 19  2  0
 19 20  1  0
 20 21  1  0
 21 22  1  0
 21 23  1  0
 21 24  1  0
  5 25  1  0
 25 26  1  0
 25 27  2  0
 27 28  1  0
 28 29  2  0
 29 30  1  0
 29 31  1  0
 31 32  1  0
 31 33  2  0
 33 34  1  0
 33 35  1  0
 35 36  1  0
 35 37  2  0
 37 38  1  0
 27 39  1  0
 39  3  1  0
 19  6  1  0
 37 28  1  0
M  CHG  1  39  -1
M  END
>  <UniqueID>  (41) 
37

>  <SMILES>  (41) 
[H]/N=c1/nc(-c2ccc(OC)cc2OC)cc(-c2ccccc2)[n-]1

>  <Energy>  (41) 
50.359464261209624

>  <Genealogy>  (41) 
COc1ccc(-c2cc(-c3ccccc3)[n-]c(=N)n2)c(OC)c1 (protonated)
[H]/N=c1/nc(-c2ccc(OC)cc2OC)cc(-c2ccccc2)[n-]1 (cis-trans isomerization)
[H]/N=c1/nc(-c2ccc(OC)cc2OC)cc(-c2ccccc2)[n-]1 (3D coordinates assigned)
[H]/N=c1/nc(-c2ccc(OC)cc2OC)cc(-c2ccccc2)[n-]1 (optimized conformer: 50.359464261209624 kcal/mol)

>  <smiles>  (41) 
COc1ccc(-c2cc(-c3ccccc3)[nH]c(=N)n2)c(OC)c1

>  <score_type>  (41) 
oracle

>  <origin>  (41) 
adg

>  <m_score__min__energy>  (41) 
-8.4000000000000004

>  <m_primary>  (41) 
energy

$$$$
41:0
     RDKit          3D

 39 41  0  0  0  0  0  0  0  0999 V2000
   -9.1600   19.3990  -32.6130 C   0  0  0  0  0  0  0  0  0  0  0  0
   -8.7070   19.9430  -31.2660 C   0  0  0  0  0  0  0  0  0  0  0  0
   -9.4850   21.5630  -30.9320 S   0  0  0  0  0  0  0  0  0  0  0  0
   -7.9840   22.3650  -30.2530 C   0  0  0  0  0  0  0  0  0  0  0  0
   -7.0330   22.9360  -31.3330 C   0  0  2  0  0  0  0  0  0  0  0  0
   -6.1610   21.8500  -31.9060 C   0  0  0  0  0  0  0  0  0  0  0  0
   -6.4640   21.0860  -32.9400 O   0  0  0  0  0  0  0  0  0  0  0  0
   -5.4230   20.3170  -33.1710 C   0  0  0  0  0  0  0  0  0  0  0  0
   -5.2810   19.3540  -34.1640 C   0  0  0  0  0  0  0  0  0  0  0  0
   -4.0670   18.6460  -34.2290 C   0  0  0  0  0  0  0  0  0  0  0  0
   -3.0190   18.9120  -33.3010 C   0  0  0  0  0  0  0  0  0  0  0  0
   -1.7970   18.2250  -33.3350 O   0  0  0  0  0  0  0  0  0  0  0  0
   -1.2190   17.6710  -34.5130 C   0  0  0  0  0  0  0  0  0  0  0  0
   -3.2020   19.8940  -32.3080 C   0  0  0  0  0  0  0  0  0  0  0  0
   -4.4150   20.5760  -32.2760 C   0  0  0  0  0  0  0  0  0  0  0  0
   -4.8950   21.5540  -31.4420 C   0  0  0  0  0  0  0  0  0  0  0  0
   -4.1180   22.3680  -30.0600 S   0  0  0  0  0  0  0  0  0  0  0  0
   -4.7160   23.9620  -30.6390 C   0  0  0  0  0  0  0  0  0  0  0  0
   -3.9010   24.8500  -30.8430 O   0  0  0  0  0  0  0  0  0  0  0  0
   -6.1900   24.2140  -30.9490 C   0  0  2  0  0  0  0  0  0  0  0  0
   -6.8220   25.0940  -29.8630 C   0  0  0  0  0  0  0  0  0  0  0  0
   -9.8566   18.5625  -32.4551 H   0  0  0  0  0  0  0  0  0  0  0  0
   -9.6656   20.1954  -33.1788 H   0  0  0  0  0  0  0  0  0  0  0  0
   -8.2852   19.0459  -33.1788 H   0  0  0  0  0  0  0  0  0  0  0  0
   -8.9936   19.2344  -30.4750 H   0  0  0  0  0  0  0  0  0  0  0  0
   -7.6147   20.0712  -31.2844 H   0  0  0  0  0  0  0  0  0  0  0  0
   -8.2990   23.1905  -29.5978 H   0  0  0  0  0  0  0  0  0  0  0  0
   -7.4234   21.5872  -29.7138 H   0  0  0  0  0  0  0  0  0  0  0  0
   -7.7181   23.3209  -32.1027 H   0  0  0  0  0  0  0  0  0  0  0  0
   -6.0936   19.1518  -34.8774 H   0  0  0  0  0  0  0  0  0  0  0  0
   -3.9253   17.8789  -35.0045 H   0  0  0  0  0  0  0  0  0  0  0  0
   -0.4510   16.9349  -34.2333 H   0  0  0  0  0  0  0  0  0  0  0  0
   -2.0013   17.1767  -35.1077 H   0  0  0  0  0  0  0  0  0  0  0  0
   -0.7583   18.4735  -35.1077 H   0  0  0  0  0  0  0  0  0  0  0  0
   -2.4090   20.1156  -31.5786 H   0  0  0  0  0  0  0  0  0  0  0  0
   -6.2170   24.7802  -31.8917 H   0  0  0  0  0  0  0  0  0  0  0  0
   -6.5448   24.7080  -28.8710 H   0  0  0  0  0  0  0  0  0  0  0  0
   -6.4577   26.1264  -29.9697 H   0  0  0  0  0  0  0  0  0  0  0  0
   -7.9167   25.0786  -29.9697 H   0  0  0  0  0  0  0  0  0  0  0  0
  1  2  1  0
  2  3  1  0
  3  4  1  0
  4  5  1  0
  5  6  1  0
  6  7  1  0
  7  8  1  0
  8  9  2  0
  9 10  1  0
 10 11  2  0
 11 12  1  0
 12 13  1  0
 11 14  1  0
 14 15  2  0
 15 16  1  0
 16 17  1  0
 17 18  1  0
 18 19  2  0
 18 20  1  0
 20 21  1  0
 20  5  1  0
 16  6  2  0
 15  8  1  0
  1 22  1  0
  1 23  1  0
  1 24  1  0
  2 25  1  0
  2 26  1  0
  4 27  1  0
  4 28  1  0
  5 29  1  6
  9 30  1  0
 10 31  1  0
 13 32  1  0
 13 33  1  0
 13 34  1  0
 14 35  1  0
 20 36  1  6
 21 37  1  0
 21 38  1  0
 21 39  1  0
M  END
>  <UniqueID>  (42) 
38

>  <SMILES>  (42) 
CCSC[C@@H]1c2oc3ccc(OC)cc3c2SC(=O)[C@@H]1C

>  <Energy>  (42) 
82.11622574305008

>  <Genealogy>  (42) 
CCSC[C@@H]1c2oc3ccc(OC)cc3c2SC(=O)[C@@H]1C (chirality)
CCSC[C@@H]1c2oc3ccc(OC)cc3c2SC(=O)[C@@H]1C (3D coordinates assigned)
CCSC[C@@H]1c2oc3ccc(OC)cc3c2SC(=O)[C@@H]1C (nonaromatic ring conformer: 82.11622574305008 kcal/mol)

>  <smiles>  (42) 
CCSCC1c2oc3ccc(OC)cc3c2SC(=O)C1C

>  <score_type>  (42) 
oracle

>  <origin>  (42) 
adg

>  <m_score__min__energy>  (42) 
-7.79

>  <m_primary>  (42) 
energy

$$$$
42:0
     RDKit          3D

 30 31  0  0  1  0  0  0  0  0999 V2000
   -1.1700   26.4860  -26.2690 C   0  0  0  0  0  0  0  0  0  0  0  0
   -0.5200   26.6560  -27.6110 C   0  0  0  0  0  0  0  0  0  0  0  0
   -0.8960   25.6440  -28.5770 N   0  0  0  0  0  0  0  0  0  0  0  0
   -1.6690   24.6540  -28.3540 C   0  0  0  0  0  0  0  0  0  0  0  0
   -1.1170   23.5440  -27.8130 N   0  0  0  0  0  0  0  0  0  0  0  0
   -1.9110   22.4740  -27.5630 C   0  0  0  0  0  0  0  0  0  0  0  0
   -3.2480   22.4960  -27.8440 C   0  0  0  0  0  0  0  0  0  0  0  0
   -3.7550   23.6690  -28.4000 C   0  0  0  0  0  0  0  0  0  0  0  0
   -4.9930   23.7230  -28.6730 N   0  0  0  0  0  0  0  0  0  0  0  0
   -5.6700   24.2390  -30.1570 S   0  0  0  0  0  0  0  0  0  0  0  0
   -4.5680   24.9910  -30.8630 O   0  0  0  0  0  0  0  0  0  0  0  0
   -6.7750   25.2270  -30.0010 O   0  0  0  0  0  0  0  0  0  0  0  0
   -6.1060   22.9020  -31.1790 C   0  0  0  0  0  0  0  0  0  0  0  0
   -7.3980   22.4790  -31.5640 C   0  0  0  0  0  0  0  0  0  0  0  0
   -7.5190   21.4390  -32.3470 C   0  0  0  0  0  0  0  0  0  0  0  0
   -6.3770   20.7640  -32.7920 C   0  0  0  0  0  0  0  0  0  0  0  0
   -6.1170   19.2940  -33.8760 Br  0  0  0  0  0  0  0  0  0  0  0  0
   -4.9920   21.7510  -31.9790 S   0  0  0  0  0  0  0  0  0  0  0  0
   -2.9800   24.7360  -28.6530 N   0  0  0  0  0  0  0  0  0  0  0  0
   -0.4316   26.6791  -25.4769 H   0  0  0  0  0  0  0  0  0  0  0  0
   -2.0047   27.1961  -26.1733 H   0  0  0  0  0  0  0  0  0  0  0  0
   -1.5501   25.4582  -26.1733 H   0  0  0  0  0  0  0  0  0  0  0  0
   -0.8046   27.6401  -28.0116 H   0  0  0  0  0  0  0  0  0  0  0  0
    0.5648   26.5616  -27.4550 H   0  0  0  0  0  0  0  0  0  0  0  0
   -0.1020   23.5020  -27.5890 H   0  0  0  0  0  0  0  0  0  0  0  0
   -1.4689   21.5675  -27.1240 H   0  0  0  0  0  0  0  0  0  0  0  0
   -3.8936   21.6288  -27.6410 H   0  0  0  0  0  0  0  0  0  0  0  0
   -8.2896   23.0172  -31.2099 H   0  0  0  0  0  0  0  0  0  0  0  0
   -8.5173   21.0951  -32.6555 H   0  0  0  0  0  0  0  0  0  0  0  0
   -3.3840   25.6140  -29.0730 H   0  0  0  0  0  0  0  0  0  0  0  0
  1  2  1  0
  2  3  1  0
  3  4  2  0
  4  5  1  0
  5  6  1  0
  6  7  2  0
  7  8  1  0
  8  9  2  0
  9 10  1  0
 10 11  2  0
 10 12  2  0
 10 13  1  0
 13 14  2  0
 14 15  1  0
 15 16  2  0
 16 17  1  0
 16 18  1  0
  8 19  1  0
 19  4  1  0
 18 13  1  0
  1 20  1  0
  1 21  1  0
  1 22  1  0
  2 23  1  0
  2 24  1  0
  5 25  1  0
  6 26  1  0
  7 27  1  0
 14 28  1  0
 15 29  1  0
 19 30  1  0
M  END
>  <smiles>  (43) 
CCN=c1[nH]ccc(=NS(=O)(=O)c2ccc(Br)s2)[nH]1

>  <score_type>  (43) 
oracle

>  <origin>  (43) 
adg

>  <m_score__min__energy>  (43) 
-7.75

>  <m_primary>  (43) 
energy

$$$$
43:0
     RDKit          3D

 28 30  0  0  0  0  0  0  0  0999 V2000
   -2.0120   24.8000  -28.2400 C   0  0  0  0  0  0  0  0  0  0  0  0
   -2.7580   25.2990  -29.3460 O   0  0  0  0  0  0  0  0  0  0  0  0
   -3.7410   24.5680  -30.0290 C   0  0  0  0  0  0  0  0  0  0  0  0
   -4.9870   25.1420  -30.4120 C   0  0  0  0  0  0  0  0  0  0  0  0
   -5.9480   24.3750  -31.0960 C   0  0  0  0  0  0  0  0  0  0  0  0
   -5.6350   23.0490  -31.3820 C   0  0  0  0  0  0  0  0  0  0  0  0
   -6.3940   22.1450  -32.0190 N   0  0  0  0  0  0  0  0  0  0  0  0
   -5.6030   21.0380  -32.0160 C   0  0  0  0  0  0  0  0  0  0  0  0
   -6.0180   19.7520  -32.6190 C   0  0  0  0  0  0  0  0  0  0  0  0
   -5.4190   19.2940  -33.8080 C   0  0  0  0  0  0  0  0  0  0  0  0
   -5.8130   18.0770  -34.3760 C   0  0  0  0  0  0  0  0  0  0  0  0
   -6.8070   17.3080  -33.7650 C   0  0  0  0  0  0  0  0  0  0  0  0
   -7.1870   16.1300  -34.3180 F   0  0  0  0  0  0  0  0  0  0  0  0
   -7.4080   17.7530  -32.5850 C   0  0  0  0  0  0  0  0  0  0  0  0
   -7.0180   18.9680  -32.0140 C   0  0  0  0  0  0  0  0  0  0  0  0
   -4.3980   21.2150  -31.4100 N   0  0  0  0  0  0  0  0  0  0  0  0
   -4.4490   22.4960  -31.0200 C   0  0  0  0  0  0  0  0  0  0  0  0
   -3.4720   23.2200  -30.3420 C   0  0  0  0  0  0  0  0  0  0  0  0
   -2.4893   25.1193  -27.3018 H   0  0  0  0  0  0  0  0  0  0  0  0
   -1.9846   23.7011  -28.2820 H   0  0  0  0  0  0  0  0  0  0  0  0
   -0.9859   25.1942  -28.2820 H   0  0  0  0  0  0  0  0  0  0  0  0
   -5.1998   26.1940  -30.1710 H   0  0  0  0  0  0  0  0  0  0  0  0
   -6.9139   24.8084  -31.3946 H   0  0  0  0  0  0  0  0  0  0  0  0
   -4.6368   19.8961  -34.2934 H   0  0  0  0  0  0  0  0  0  0  0  0
   -5.3396   17.7254  -35.3046 H   0  0  0  0  0  0  0  0  0  0  0  0
   -8.1895   17.1463  -32.1043 H   0  0  0  0  0  0  0  0  0  0  0  0
   -7.4960   19.3136  -31.0855 H   0  0  0  0  0  0  0  0  0  0  0  0
   -2.5171   22.7533  -30.0585 H   0  0  0  0  0  0  0  0  0  0  0  0
  1  2  1  0
  2  3  1  0
  3  4  2  0
  4  5  1  0
  5  6  2  0
  6  7  1  0
  7  8  1  0
  8  9  1  0
  9 10  2  0
 10 11  1  0
 11 12  2  0
 12 13  1  0
 12 14  1  0
 14 15  2  0
  8 16  2  0
 16 17  1  0
 17 18  2  0
 18  3  1  0
 17  6  1  0
 15  9  1  0
  1 19  1  0
  1 20  1  0
  1 21  1  0
  4 22  1  0
  5 23  1  0
 10 24  1  0
 11 25  1  0
 14 26  1  0
 15 27  1  0
 18 28  1  0
M  CHG  1   7  -1
M  END
>  <UniqueID>  (44) 
39

>  <SMILES>  (44) 
COc1ccc2[n-]c(-c3ccc(F)cc3)nc2c1

>  <Energy>  (44) 
65.4579761574029

>  <Genealogy>  (44) 
COc1ccc2[n-]c(-c3ccc(F)cc3)nc2c1 (protonated)
COc1ccc2[n-]c(-c3ccc(F)cc3)nc2c1 (3D coordinates assigned)
COc1ccc2[n-]c(-c3ccc(F)cc3)nc2c1 (optimized conformer: 65.4579761574029 kcal/mol)

>  <smiles>  (44) 
COc1ccc2[nH]c(-c3ccc(F)cc3)nc2c1

>  <score_type>  (44) 
oracle

>  <origin>  (44) 
adg

>  <m_score__min__energy>  (44) 
-7.04

>  <m_primary>  (44) 
energy

$$$$
44:0
     RDKit          3D

 59 63  0  0  1  0  0  0  0  0999 V2000
   -5.8400   22.6950  -29.7460 C   0  0  0  0  0  0  0  0  0  0  0  0
   -6.1000   23.4570  -30.9600 N   0  0  0  0  0  0  0  0  0  0  0  0
   -5.5410   24.7960  -31.0190 C   0  0  0  0  0  0  0  0  0  0  0  0
   -6.8590   22.9440  -32.0470 C   0  0  0  0  0  0  0  0  0  0  0  0
   -7.0460   23.6700  -33.0720 O   0  0  0  0  0  0  0  0  0  0  0  0
   -7.4190   21.6020  -31.9930 C   0  0  0  0  0  0  0  0  0  0  0  0
   -8.5930   21.3620  -31.2960 C   0  0  0  0  0  0  0  0  0  0  0  0
   -9.1120   20.0760  -31.2600 C   0  0  0  0  0  0  0  0  0  0  0  0
   -8.4470   19.0520  -31.9240 C   0  0  0  0  0  0  0  0  0  0  0  0
   -7.2750   19.3310  -32.6100 C   0  0  0  0  0  0  0  0  0  0  0  0
   -6.6340   18.2530  -33.2710 N   0  0  0  0  0  0  0  0  0  0  0  0
   -7.2010   17.0600  -33.5660 C   0  0  0  0  0  0  0  0  0  0  0  0
   -6.2730   16.2510  -34.2160 C   0  0  0  0  0  0  0  0  0  0  0  0
   -5.1310   17.0330  -34.2890 C   0  0  0  0  0  0  0  0  0  0  0  0
   -3.8980   16.7590  -34.8250 C   0  0  0  0  0  0  0  0  0  0  0  0
   -2.9310   17.7000  -34.7710 N   0  0  0  0  0  0  0  0  0  0  0  0
   -3.1520   18.9050  -34.2020 C   0  0  0  0  0  0  0  0  0  0  0  0
   -2.1670   19.7720  -34.1850 N   0  0  0  0  0  0  0  0  0  0  0  0
   -2.0150   20.5710  -33.0350 C   0  0  0  0  0  0  0  0  0  0  0  0
   -0.9020   20.4580  -32.2350 C   0  0  0  0  0  0  0  0  0  0  0  0
   -0.7560   21.2460  -31.1050 C   0  0  0  0  0  0  0  0  0  0  0  0
   -1.7020   22.1740  -30.7170 C   0  0  0  0  0  0  0  0  0  0  0  0
   -1.5840   22.9870  -29.5800 N   0  0  0  0  0  0  0  0  0  0  0  0
   -0.3650   23.7580  -29.2680 C   0  0  0  0  0  0  0  0  0  0  0  0
   -0.8940   24.9310  -28.4250 C   0  0  0  0  0  0  0  0  0  0  0  0
   -2.0920   25.4190  -28.9170 O   0  0  0  0  0  0  0  0  0  0  0  0
   -3.1680   24.5620  -28.7570 C   0  0  0  0  0  0  0  0  0  0  0  0
   -2.6600   23.1480  -28.5950 C   0  0  0  0  0  0  0  0  0  0  0  0
   -2.8190   22.2880  -31.5170 C   0  0  0  0  0  0  0  0  0  0  0  0
   -2.9820   21.5000  -32.6640 C   0  0  0  0  0  0  0  0  0  0  0  0
   -4.3580   19.2000  -33.6670 N   0  0  0  0  0  0  0  0  0  0  0  0
   -5.3500   18.2640  -33.7100 C   0  0  0  0  0  0  0  0  0  0  0  0
   -6.7460   20.6030  -32.6550 C   0  0  0  0  0  0  0  0  0  0  0  0
   -6.0537   23.3212  -28.8672 H   0  0  0  0  0  0  0  0  0  0  0  0
   -6.4850   21.8042  -29.7270 H   0  0  0  0  0  0  0  0  0  0  0  0
   -4.7850   22.3842  -29.7270 H   0  0  0  0  0  0  0  0  0  0  0  0
   -5.3836   25.1730  -29.9977 H   0  0  0  0  0  0  0  0  0  0  0  0
   -4.5792   24.7686  -31.5520 H   0  0  0  0  0  0  0  0  0  0  0  0
   -6.2368   25.4607  -31.5520 H   0  0  0  0  0  0  0  0  0  0  0  0
   -9.1081   22.1834  -30.7764 H   0  0  0  0  0  0  0  0  0  0  0  0
  -10.0421   19.8685  -30.7105 H   0  0  0  0  0  0  0  0  0  0  0  0
   -8.8476   18.0277  -31.9054 H   0  0  0  0  0  0  0  0  0  0  0  0
   -8.2362   16.7736  -33.3286 H   0  0  0  0  0  0  0  0  0  0  0  0
   -6.4140   15.2251  -34.5870 H   0  0  0  0  0  0  0  0  0  0  0  0
   -3.6995   15.7837  -35.2934 H   0  0  0  0  0  0  0  0  0  0  0  0
   -1.9970   17.4480  -35.1950 H   0  0  0  0  0  0  0  0  0  0  0  0
   -0.1175   19.7324  -32.4958 H   0  0  0  0  0  0  0  0  0  0  0  0
    0.1499   21.1277  -30.4923 H   0  0  0  0  0  0  0  0  0  0  0  0
    0.3493   23.1502  -28.6931 H   0  0  0  0  0  0  0  0  0  0  0  0
    0.1793   24.0847  -30.1663 H   0  0  0  0  0  0  0  0  0  0  0  0
   -1.0476   24.5860  -27.3918 H   0  0  0  0  0  0  0  0  0  0  0  0
   -0.1523   25.7424  -28.4651 H   0  0  0  0  0  0  0  0  0  0  0  0
   -3.7391   24.8521  -27.8627 H   0  0  0  0  0  0  0  0  0  0  0  0
   -3.8204   24.6204  -29.6407 H   0  0  0  0  0  0  0  0  0  0  0  0
   -2.2717   22.9961  -27.5771 H   0  0  0  0  0  0  0  0  0  0  0  0
   -3.4623   22.4121  -28.7523 H   0  0  0  0  0  0  0  0  0  0  0  0
   -3.6003   23.0144  -31.2486 H   0  0  0  0  0  0  0  0  0  0  0  0
   -3.8863   21.6174  -33.2792 H   0  0  0  0  0  0  0  0  0  0  0  0
   -5.8154   20.8119  -33.2030 H   0  0  0  0  0  0  0  0  0  0  0  0
  1  2  1  0
  2  3  1  0
  2  4  1  0
  4  5  2  0
  4  6  1  0
  6  7  2  0
  7  8  1  0
  8  9  2  0
  9 10  1  0
 10 11  1  0
 11 12  1  0
 12 13  2  0
 13 14  1  0
 14 15  2  0
 15 16  1  0
 16 17  1  0
 17 18  2  0
 18 19  1  0
 19 20  2  0
 20 21  1  0
 21 22  2  0
 22 23  1  0
 23 24  1  0
 24 25  1  0
 25 26  1  0
 26 27  1  0
 27 28  1  0
 22 29  1  0
 29 30  2  0
 17 31  1  0
 31 32  2  0
 10 33  2  0
 33  6  1  0
 32 11  1  0
 32 14  1  0
 30 19  1  0
 28 23  1  0
  1 34  1  0
  1 35  1  0
  1 36  1  0
  3 37  1  0
  3 38  1  0
  3 39  1  0
  7 40  1  0
  8 41  1  0
  9 42  1  0
 12 43  1  0
 13 44  1  0
 15 45  1  0
 16 46  1  0
 20 47  1  0
 21 48  1  0
 24 49  1  0
 24 50  1  0
 25 51  1  0
 25 52  1  0
 27 53  1  0
 27 54  1  0
 28 55  1  0
 28 56  1  0
 29 57  1  0
 30 58  1  0
 33 59  1  0
M  END
>  <smiles>  (45) 
CN(C)C(=O)c1cccc(-n2ccc3c[nH]c(=Nc4ccc(N5CCOCC5)cc4)nc32)c1

>  <score_type>  (45) 
oracle

>  <origin>  (45) 
adg

>  <m_score__min__energy>  (45) 
-9.8599999999999994

>  <m_primary>  (45) 
energy

$$$$
45:0
     RDKit          3D

 31 33  0  0  0  0  0  0  0  0999 V2000
   -3.7380   24.4770  -27.2210 C   0  0  0  0  0  0  0  0  0  0  0  0
   -2.4470   24.5870  -28.0220 C   0  0  0  0  0  0  0  0  0  0  0  0
   -2.7130   25.0420  -29.3470 O   0  0  0  0  0  0  0  0  0  0  0  0
   -3.7500   24.5370  -30.1400 C   0  0  0  0  0  0  0  0  0  0  0  0
   -4.4560   25.3050  -30.8480 O   0  0  0  0  0  0  0  0  0  0  0  0
   -3.9830   23.0660  -30.1890 C   0  0  0  0  0  0  0  0  0  0  0  0
   -4.2580   22.5580  -31.9150 S   0  0  0  0  0  0  0  0  0  0  0  0
   -6.0330   22.7800  -31.8100 C   0  0  0  0  0  0  0  0  0  0  0  0
   -6.6540   23.9740  -31.6580 N   0  0  0  0  0  0  0  0  0  0  0  0
   -7.9730   23.7750  -31.6310 N   0  0  0  0  0  0  0  0  0  0  0  0
   -8.1070   22.4440  -31.7690 C   0  0  0  0  0  0  0  0  0  0  0  0
   -9.4540   21.4300  -31.8480 S   0  0  0  0  0  0  0  0  0  0  0  0
   -8.4210   20.0760  -32.0410 C   0  0  0  0  0  0  0  0  0  0  0  0
   -8.7780   18.7390  -32.1940 C   0  0  0  0  0  0  0  0  0  0  0  0
   -7.7540   17.7890  -32.3470 C   0  0  0  0  0  0  0  0  0  0  0  0
   -6.4010   18.1870  -32.3450 C   0  0  0  0  0  0  0  0  0  0  0  0
   -6.0530   19.5400  -32.1900 C   0  0  0  0  0  0  0  0  0  0  0  0
   -7.0800   20.4730  -32.0360 C   0  0  0  0  0  0  0  0  0  0  0  0
   -6.9540   21.8080  -31.8800 N   0  0  0  0  0  0  0  0  0  0  0  0
   -3.5054   24.4968  -26.1461 H   0  0  0  0  0  0  0  0  0  0  0  0
   -4.3967   25.3223  -27.4693 H   0  0  0  0  0  0  0  0  0  0  0  0
   -4.2442   23.5325  -27.4693 H   0  0  0  0  0  0  0  0  0  0  0  0
   -1.7728   25.2994  -27.5241 H   0  0  0  0  0  0  0  0  0  0  0  0
   -1.9791   23.5930  -28.0767 H   0  0  0  0  0  0  0  0  0  0  0  0
   -3.1039   22.5411  -29.7870 H   0  0  0  0  0  0  0  0  0  0  0  0
   -4.8666   22.8124  -29.5849 H   0  0  0  0  0  0  0  0  0  0  0  0
   -6.1950   24.9080  -31.5790 H   0  0  0  0  0  0  0  0  0  0  0  0
   -9.8349   18.4341  -32.1951 H   0  0  0  0  0  0  0  0  0  0  0  0
   -8.0098   16.7262  -32.4693 H   0  0  0  0  0  0  0  0  0  0  0  0
   -5.6107   17.4315  -32.4659 H   0  0  0  0  0  0  0  0  0  0  0  0
   -4.9992   19.8554  -32.1900 H   0  0  0  0  0  0  0  0  0  0  0  0
  1  2  1  0
  2  3  1  0
  3  4  1  0
  4  5  2  0
  4  6  1  0
  6  7  1  0
  7  8  1  0
  8  9  2  0
  9 10  1  0
 10 11  2  0
 11 12  1  0
 12 13  1  0
 13 14  2  0
 14 15  1  0
 15 16  2  0
 16 17  1  0
 17 18  2  0
 18 19  1  0
 19  8  1  0
 19 11  1  0
 18 13  1  0
  1 20  1  0
  1 21  1  0
  1 22  1  0
  2 23  1  0
  2 24  1  0
  6 25  1  0
  6 26  1  0
  9 27  1  0
 14 28  1  0
 15 29  1  0
 16 30  1  0
 17 31  1  0
M  CHG  1   9   1
M  END
>  <UniqueID>  (46) 
40

>  <SMILES>  (46) 
CCOC(=O)CSc1[nH+]nc2sc3ccccc3n12

>  <Energy>  (46) 
116.11412770035892

>  <Genealogy>  (46) 
CCOC(=O)CSc1[nH+]nc2sc3ccccc3n12 (protonated)
CCOC(=O)CSc1[nH+]nc2sc3ccccc3n12 (3D coordinates assigned)
CCOC(=O)CSc1[nH+]nc2sc3ccccc3n12 (optimized conformer: 116.11412770035892 kcal/mol)

>  <smiles>  (46) 
CCOC(=O)CSc1nnc2sc3ccccc3n12

>  <score_type>  (46) 
oracle

>  <origin>  (46) 
adg

>  <m_score__min__energy>  (46) 
-7.75

>  <m_primary>  (46) 
energy

$$$$
46:0
     RDKit          3D

 51 54  0  0  0  0  0  0  0  0999 V2000
   -9.8260   21.5720  -30.4940 C   0  0  0  0  0  0  0  0  0  0  0  0
   -9.4530   21.4580  -32.2720 S   0  0  0  0  0  0  0  0  0  0  0  0
   -8.1920   20.1940  -32.0590 C   0  0  0  0  0  0  0  0  0  0  0  0
   -8.5860   18.8500  -31.9980 C   0  0  0  0  0  0  0  0  0  0  0  0
   -7.6330   17.8390  -31.8670 C   0  0  0  0  0  0  0  0  0  0  0  0
   -6.2750   18.1610  -31.8150 C   0  0  0  0  0  0  0  0  0  0  0  0
   -5.3490   17.1780  -31.6960 F   0  0  0  0  0  0  0  0  0  0  0  0
   -5.8700   19.4960  -31.8930 C   0  0  0  0  0  0  0  0  0  0  0  0
   -6.8200   20.5220  -32.0110 C   0  0  0  0  0  0  0  0  0  0  0  0
   -6.3730   21.8830  -32.1300 N   0  0  0  0  0  0  0  0  0  0  0  0
   -7.1390   22.9690  -31.5110 C   0  0  0  0  0  0  0  0  0  0  0  0
   -6.2180   24.1520  -31.1690 C   0  0  0  0  0  0  0  0  0  0  0  0
   -4.9040   23.6970  -30.6570 N   0  0  0  0  0  0  0  0  0  0  0  0
   -4.9890   23.0410  -29.3320 C   0  0  0  0  0  0  0  0  0  0  0  0
   -3.7760   23.3350  -28.5010 C   0  0  0  0  0  0  0  0  0  0  0  0
   -2.8190   22.4220  -28.1010 C   0  0  0  0  0  0  0  0  0  0  0  0
   -1.9320   23.1590  -27.3400 C   0  0  0  0  0  0  0  0  0  0  0  0
   -2.3570   24.4410  -27.2940 N   0  0  0  0  0  0  0  0  0  0  0  0
   -1.7220   25.5300  -26.5950 C   0  0  0  0  0  0  0  0  0  0  0  0
   -1.9280   25.7090  -25.2150 C   0  0  0  0  0  0  0  0  0  0  0  0
   -1.3110   26.7660  -24.5380 C   0  0  0  0  0  0  0  0  0  0  0  0
   -0.4830   27.6520  -25.2280 C   0  0  0  0  0  0  0  0  0  0  0  0
   -0.2690   27.4850  -26.5980 C   0  0  0  0  0  0  0  0  0  0  0  0
   -0.8830   26.4290  -27.2800 C   0  0  0  0  0  0  0  0  0  0  0  0
   -3.4750   24.5450  -27.9970 N   0  0  0  0  0  0  0  0  0  0  0  0
   -4.1590   22.8650  -31.6410 C   0  0  0  0  0  0  0  0  0  0  0  0
   -5.0530   22.1750  -32.6910 C   0  0  0  0  0  0  0  0  0  0  0  0
   -8.9324   21.2989  -29.9136 H   0  0  0  0  0  0  0  0  0  0  0  0
  -10.1230   22.6019  -30.2470 H   0  0  0  0  0  0  0  0  0  0  0  0
  -10.6480   20.8841  -30.2470 H   0  0  0  0  0  0  0  0  0  0  0  0
   -9.6535   18.5906  -32.0538 H   0  0  0  0  0  0  0  0  0  0  0  0
   -7.9515   16.7880  -31.8047 H   0  0  0  0  0  0  0  0  0  0  0  0
   -4.7989   19.7445  -31.8617 H   0  0  0  0  0  0  0  0  0  0  0  0
   -7.9176   23.3071  -32.2107 H   0  0  0  0  0  0  0  0  0  0  0  0
   -7.5980   22.5963  -30.5834 H   0  0  0  0  0  0  0  0  0  0  0  0
   -6.0578   24.7524  -32.0767 H   0  0  0  0  0  0  0  0  0  0  0  0
   -6.7041   24.7469  -30.3817 H   0  0  0  0  0  0  0  0  0  0  0  0
   -5.8819   23.4097  -28.8060 H   0  0  0  0  0  0  0  0  0  0  0  0
   -5.0499   21.9535  -29.4857 H   0  0  0  0  0  0  0  0  0  0  0  0
   -2.7735   21.3483  -28.3359 H   0  0  0  0  0  0  0  0  0  0  0  0
   -1.0279   22.7665  -26.8516 H   0  0  0  0  0  0  0  0  0  0  0  0
   -2.5785   25.0132  -24.6648 H   0  0  0  0  0  0  0  0  0  0  0  0
   -1.4789   26.8991  -23.4591 H   0  0  0  0  0  0  0  0  0  0  0  0
    0.0013   28.4821  -24.6929 H   0  0  0  0  0  0  0  0  0  0  0  0
    0.3831   28.1846  -27.1414 H   0  0  0  0  0  0  0  0  0  0  0  0
   -0.7090   26.3004  -28.3585 H   0  0  0  0  0  0  0  0  0  0  0  0
   -4.0190   25.4240  -28.1490 H   0  0  0  0  0  0  0  0  0  0  0  0
   -3.4439   23.5129  -32.1691 H   0  0  0  0  0  0  0  0  0  0  0  0
   -3.6672   22.0641  -31.0694 H   0  0  0  0  0  0  0  0  0  0  0  0
   -5.1683   22.8389  -33.5604 H   0  0  0  0  0  0  0  0  0  0  0  0
   -4.5793   21.2299  -32.9949 H   0  0  0  0  0  0  0  0  0  0  0  0
  1  2  1  0
  2  3  1  0
  3  4  2  0
  4  5  1  0
  5  6  2  0
  6  7  1  0
  6  8  1  0
  8  9  2  0
  9 10  1  0
 10 11  1  0
 11 12  1  0
 12 13  1  0
 13 14  1  0
 14 15  1  0
 15 16  1  0
 16 17  2  0
 17 18  1  0
 18 19  1  0
 19 20  2  0
 20 21  1  0
 21 22  2  0
 22 23  1  0
 23 24  2  0
 18 25  1  0
 13 26  1  0
 26 27  1  0
  9  3  1  0
 27 10  1  0
 25 15  2  0
 24 19  1  0
  1 28  1  0
  1 29  1  0
  1 30  1  0
  4 31  1  0
  5 32  1  0
  8 33  1  0
 11 34  1  0
 11 35  1  0
 12 36  1  0
 12 37  1  0
 14 38  1  0
 14 39  1  0
 16 40  1  0
 17 41  1  0
 20 42  1  0
 21 43  1  0
 22 44  1  0
 23 45  1  0
 24 46  1  0
 25 47  1  0
 26 48  1  0
 26 49  1  0
 27 50  1  0
 27 51  1  0
M  CHG  1  25   1
M  END
>  <UniqueID>  (47) 
41

>  <SMILES>  (47) 
CSc1ccc(F)cc1N1CCN(Cc2ccn(-c3ccccc3)[nH+]2)CC1

>  <Energy>  (47) 
97.76176188568765

>  <Genealogy>  (47) 
CSc1ccc(F)cc1N1CCN(Cc2ccn(-c3ccccc3)[nH+]2)CC1 (protonated)
CSc1ccc(F)cc1N1CCN(Cc2ccn(-c3ccccc3)[nH+]2)CC1 (3D coordinates assigned)
CSc1ccc(F)cc1N1CCN(Cc2ccn(-c3ccccc3)[nH+]2)CC1 (nonaromatic ring conformer: 97.76176188568765 kcal/mol)

>  <smiles>  (47) 
CSc1ccc(F)cc1N1CCN(Cc2ccn(-c3ccccc3)n2)CC1

>  <score_type>  (47) 
oracle

>  <origin>  (47) 
adg

>  <m_score__min__energy>  (47) 
-8.1999999999999993

>  <m_primary>  (47) 
energy

$$$$
